drugbank_target|P94692 Pyruvate synthase (DB00507; DB01987; DB02410)
 OpenBabel12092120233D

  0  0  0     0  0            999 V3000
M  V30 BEGIN CTAB
M  V30 COUNTS 18680 18882 0 0 0
M  V30 BEGIN ATOM
M  V30 1 H -0.908 1.98254 -0.117106 0
M  V30 2 N 0 1.576 0 0
M  V30 3 C 0.933 2.03868 1.02534 0
M  V30 4 C 1.911 0.928543 1.3348 0
M  V30 5 O 3.095 1.19667 1.45644 0
M  V30 6 C 0.222 2.43627 2.35294 0
M  V30 7 C -0.732 3.65373 2.2001 0
M  V30 8 S 0.101 5.13292 1.52614 0
M  V30 9 C 1.257 5.56322 2.86805 0
M  V30 10 H 1.49 2.90518 0.631377 0
M  V30 11 H -0.977 1.52953 0.210867 0
M  V30 12 H 0.981 2.67203 3.11629 0
M  V30 13 H -0.358 1.57376 2.7183 0
M  V30 14 H -1.165 3.90944 3.18086 0
M  V30 15 H -1.563 3.418 1.51819 0
M  V30 16 H 0.729 5.58782 3.83104 0
M  V30 17 H 1.672 6.56266 2.65933 0
M  V30 18 H 2.08 4.83886 2.90714 0
M  V30 19 N 1.4781 -0.272755 1.55222 0
M  V30 20 C 2.7261 -1.00234 1.75492 0
M  V30 21 C 3.0471 -1.8681 0.5592 0
M  V30 22 O 2.3171 -1.91215 -0.425882 0
M  V30 23 H 0.8971 -0.373076 0.647166 0
M  V30 24 H 3.5591 -0.296926 1.92625 0
M  V30 25 H 2.6551 -1.63913 2.65592 0
M  V30 26 N 2.9562 -1.48159 -0.537278 0
M  V30 27 C 3.9032 -1.62138 -1.64256 0
M  V30 28 C 4.8732 -0.463668 -1.59497 0
M  V30 29 O 6.0582 -0.686241 -1.78032 0
M  V30 30 C 3.1982 -1.66028 -3.02537 0
M  V30 31 C 2.3112 -2.92855 -3.17585 0
M  V30 32 C 1.4462 -2.87952 -4.46382 0
M  V30 33 C 0.4852 -4.09516 -4.54932 0
M  V30 34 N -0.3778 -4.02733 -5.75109 0
M  V30 35 H 4.4622 -2.56529 -1.51647 0
M  V30 36 H 1.9992 -1.27224 -0.738414 0
M  V30 37 H 3.9572 -1.66265 -3.82638 0
M  V30 38 H 2.5872 -0.751331 -3.13934 0
M  V30 39 H 1.6392 -3.02395 -2.30784 0
M  V30 40 H 2.9512 -3.82822 -3.19764 0
M  V30 41 H 2.1052 -2.8655 -5.34765 0
M  V30 42 H 0.8442 -1.95702 -4.46712 0
M  V30 43 H -0.1508 -4.11201 -3.64957 0
M  V30 44 H 1.0742 -5.02917 -4.56346 0
M  V30 45 H -0.9798 -3.13299 -5.76351 0
M  V30 46 H -1.0628 -4.86397 -5.78752 0
M  V30 47 H 0.2052 -4.05379 -6.65799 0
M  V30 48 N 4.4343 0.785586 -1.36625 0
M  V30 49 C 5.3813 1.89838 -1.31264 0
M  V30 50 C 6.3513 1.65115 -0.180633 0
M  V30 51 O 7.5363 1.87222 -0.36777 0
M  V30 52 C 4.6763 3.26706 -1.11163 0
M  V30 53 C 3.7893 3.63476 -2.33472 0
M  V30 54 C 2.9243 4.89481 -2.06353 0
M  V30 55 C 1.9633 5.18941 -3.24602 0
M  V30 56 N 1.1003 6.36131 -2.97123 0
M  V30 57 H 5.9403 1.93756 -2.26413 0
M  V30 58 H 3.4773 0.947454 -1.12524 0
M  V30 59 H 5.4353 4.05639 -0.975337 0
M  V30 60 H 4.0653 3.222 -0.196674 0
M  V30 61 H 3.1173 2.79636 -2.57891 0
M  V30 62 H 4.4293 3.81193 -3.21704 0
M  V30 63 H 3.5833 5.76288 -1.89675 0
M  V30 64 H 2.3223 4.73841 -1.15437 0
M  V30 65 H 1.3273 4.30615 -3.41834 0
M  V30 66 H 2.5523 5.36498 -4.16349 0
M  V30 67 H 0.4983 6.21875 -2.08823 0
M  V30 68 H 0.4153 6.54198 -3.78894 0
M  V30 69 H 1.6833 7.2591 -2.84033 0
M  V30 70 N 5.9124 1.20967 1.01018 0
M  V30 71 C 6.8454 0.907578 2.09376 0
M  V30 72 C 7.8234 -0.142868 1.61971 0
M  V30 73 O 9.0074 -0.0150391 1.88494 0
M  V30 74 C 6.1344 0.361791 3.36762 0
M  V30 75 C 5.1804 1.39423 4.03068 0
M  V30 76 S 6.0134 2.96159 4.4615 0
M  V30 77 C 7.1694 2.43173 5.7673 0
M  V30 78 H 7.4024 1.82519 2.34678 0
M  V30 79 H 4.9354 1.03884 1.14225 0
M  V30 80 H 6.8934 0.0534523 4.10465 0
M  V30 81 H 5.5544 -0.53443 3.0952 0
M  V30 82 H 4.7474 0.961853 4.94737 0
M  V30 83 H 4.3494 1.65038 3.35617 0
M  V30 84 H 6.6414 1.83335 6.52223 0
M  V30 85 H 7.5844 3.33264 6.24773 0
M  V30 86 H 7.9924 1.85069 5.33301 0
M  V30 87 N 7.3905 -1.2043 1.01659 0
M  V30 88 C 8.3235 -2.21924 0.531521 0
M  V30 89 C 9.3015 -1.57054 -0.421032 0
M  V30 90 O 10.4855 -1.85389 -0.341035 0
M  V30 91 C 7.6125 -3.37942 -0.226496 0
M  V30 92 C 6.6585 -4.21115 0.67561 0
M  V30 93 S 7.4915 -4.90674 2.14475 0
M  V30 94 C 8.6475 -6.10113 1.3969 0
M  V30 95 H 8.8805 -2.62725 1.3915 0
M  V30 96 H 6.4135 -1.30481 0.825479 0
M  V30 97 H 8.3715 -4.05196 -0.657738 0
M  V30 98 H 7.0325 -2.956 -1.06205 0
M  V30 99 H 6.2255 -5.03918 0.091108 0
M  V30 100 H 5.8275 -3.59115 1.04463 0
M  V30 101 H 8.1195 -6.7411 0.676897 0
M  V30 102 H 9.0625 -6.73022 2.20107 0
M  V30 103 H 9.4705 -5.57283 0.899786 0
M  V30 104 N 8.8686 -0.792821 -1.36206 0
M  V30 105 C 10.0966 -0.378825 -2.03402 0
M  V30 106 C 10.5116 1.00586 -1.59774 0
M  V30 107 O 9.8686 1.64574 -0.788764 0
M  V30 108 C 9.9196 -0.43683 -3.58851 0
M  V30 109 O 9.6406 -1.76691 -4.00889 0
M  V30 110 C 11.1416 -0.0138943 -4.43298 0
M  V30 111 H 8.3616 -0.155673 -0.652692 0
M  V30 112 H 10.9056 -1.07261 -1.74113 0
M  V30 113 H 9.0606 0.208575 -3.86838 0
M  V30 114 H 9.4746 -1.72011 -4.95492 0
M  V30 115 H 10.9486 -0.105615 -5.51899 0
M  V30 116 H 11.4256 1.03915 -4.2673 0
M  V30 117 H 12.0316 -0.63192 -4.20579 0
M  V30 118 N 10.3467 1.47872 -0.545128 0
M  V30 119 C 11.5747 2.06889 -0.021084 0
M  V30 120 C 11.9897 1.39955 1.2672 0
M  V30 121 O 11.3467 0.492036 1.75742 0
M  V30 122 C 11.3977 3.60996 0.190817 0
M  V30 123 O 11.1187 4.25419 -1.04644 0
M  V30 124 C 12.6197 4.36849 0.753521 0
M  V30 125 H 9.8397 0.669785 -0.0403635 0
M  V30 126 H 12.3837 1.90049 -0.755095 0
M  V30 127 H 10.5387 3.77391 0.87492 0
M  V30 128 H 10.9527 5.17785 -0.836611 0
M  V30 129 H 12.4267 5.45399 0.851139 0
M  V30 130 H 12.9037 4.02306 1.762 0
M  V30 131 H 13.5097 4.25169 0.105503 0
M  V30 132 N 11.8248 0.280983 1.55075 0
M  V30 133 C 13.1018 -0.386207 1.91749 0
M  V30 134 C 13.4818 -1.73264 1.20594 0
M  V30 135 O 12.8298 -2.26034 0.334784 0
M  V30 136 C 13.0398 -0.520687 3.45094 0
M  V30 137 C 14.3878 -0.800865 4.16979 0
M  V30 138 O 15.4118 -0.605271 3.5102 0
M  V30 139 O 14.2708 -1.1753 5.33712 0
M  V30 140 H 11.3648 -0.212408 0.799257 0
M  V30 141 H 13.9108 0.327568 1.66509 0
M  V30 142 H 12.6828 0.426633 3.88967 0
M  V30 143 H 12.3058 -1.2837 3.76307 0
M  V30 144 N 13.3029 -1.57598 0.00835791 0
M  V30 145 C 14.5509 -1.90551 -0.6734 0
M  V30 146 C 14.8719 -0.883301 -1.73847 0
M  V30 147 O 14.1419 0.0781442 -1.95744 0
M  V30 148 H 12.7219 -0.703312 -0.251717 0
M  V30 149 H 15.3839 -1.94833 0.0512592 0
M  V30 150 H 14.4799 -2.9056 -1.13935 0
M  V30 151 N 14.781 0.264519 -1.55364 0
M  V30 152 C 15.729 1.34702 -1.89626 0
M  V30 153 C 16.723 1.50712 -0.773459 0
M  V30 154 O 17.929 1.52395 -0.957897 0
M  V30 155 H 14.304 0.450682 -0.601988 0
M  V30 156 H 16.275 1.0306 -2.80038 0
M  V30 157 C 15.024 2.6989 -2.19214 0
M  V30 158 H 14.347 2.58365 -3.05103 0
M  V30 159 H 15.787 3.44553 -2.47102 0
M  V30 160 C 14.246 3.21637 -1.00254 0
M  V30 161 O 14.776 4.00973 -0.241501 0
M  V30 162 N 12.982 2.7943 -0.797938 0
M  V30 163 H 12.529 2.15026 -1.4185 0
M  V30 164 H 12.487 3.144 -0.00363422 0
M  V30 165 N 16.2591 1.48442 0.529413 0
M  V30 166 C 17.4871 1.60151 1.30994 0
M  V30 167 C 17.9021 0.261985 1.86973 0
M  V30 168 O 17.2591 -0.748805 1.66431 0
M  V30 169 C 17.3101 2.64854 2.46038 0
M  V30 170 O 17.0311 3.93608 1.92365 0
M  V30 171 C 18.5321 2.87007 3.37849 0
M  V30 172 H 15.7521 0.539971 0.398338 0
M  V30 173 H 18.2961 1.94273 0.638597 0
M  V30 174 H 16.4511 2.33589 3.09055 0
M  V30 175 H 16.8651 4.51055 2.67675 0
M  V30 176 H 18.3391 3.64068 4.14919 0
M  V30 177 H 18.8161 1.95852 3.93114 0
M  V30 178 H 19.4221 3.19579 2.80623 0
M  V30 179 N 17.7372 -0.778329 1.37039 0
M  V30 180 C 18.7002 -1.87301 1.32102 0
M  V30 181 C 19.7002 -1.59198 0.226405 0
M  V30 182 O 20.8902 -1.67403 0.481861 0
M  V30 183 C 18.0222 -3.24309 1.05055 0
M  V30 184 H 19.2152 -1.93093 2.29467 0
M  V30 185 H 16.7682 -0.977358 1.21973 0
M  V30 186 H 17.5032 -3.24196 0.0819373 0
M  V30 187 H 17.2882 -3.46098 1.84279 0
M  V30 188 H 18.7782 -4.04382 1.04234 0
M  V30 189 N 19.2153 -1.21501 -1.00376 0
M  V30 190 C 20.4433 -1.059 -1.77744 0
M  V30 191 C 20.8583 0.391125 -1.84704 0
M  V30 192 O 20.2153 1.27133 -1.30933 0
M  V30 193 C 20.2663 -1.65111 -3.21591 0
M  V30 194 O 19.9873 -3.0445 -3.15027 0
M  V30 195 C 21.4883 -1.54637 -4.15454 0
M  V30 196 H 18.7083 -0.371825 -0.558558 0
M  V30 197 H 21.2523 -1.60865 -1.26264 0
M  V30 198 H 19.4073 -1.14235 -3.70175 0
M  V30 199 H 19.8213 -3.3278 -4.0541 0
M  V30 200 H 21.2953 -2.00808 -5.14179 0
M  V30 201 H 21.7723 -0.501022 -4.36333 0
M  V30 202 H 22.3783 -2.04767 -3.72761 0
M  V30 203 N 20.6934 1.19889 -1.02296 0
M  V30 204 C 21.6564 2.21116 -0.603351 0
M  V30 205 C 22.6564 1.5738 0.329884 0
M  V30 206 O 23.8464 1.73802 0.117702 0
M  V30 207 C 20.9784 3.40696 0.117992 0
M  V30 208 H 22.1714 2.59754 -1.49893 0
M  V30 209 H 19.7244 1.33463 -0.813468 0
M  V30 210 H 20.4594 3.07569 1.0282 0
M  V30 211 H 20.2444 3.88188 -0.552511 0
M  V30 212 H 21.7344 4.15692 0.398696 0
M  V30 213 N 22.1715 0.800033 1.35784 0
M  V30 214 C 23.1215 0.178654 2.27299 0
M  V30 215 C 24.1055 -0.643667 1.47464 0
M  V30 216 O 25.2975 -0.502 1.69732 0
M  V30 217 C 22.4265 -0.677194 3.36555 0
M  V30 218 C 21.5125 0.154497 4.23818 0
M  V30 219 N 21.9035 1.21427 4.91008 0
M  V30 220 C 20.2015 -0.0649462 4.45953 0
M  V30 221 C 20.9025 1.72147 5.55644 0
M  V30 222 N 19.8785 1.02897 5.33773 0
M  V30 223 H 23.6805 0.989637 2.76737 0
M  V30 224 H 21.1945 0.64054 1.49234 0
M  V30 225 H 23.1915 -1.13835 4.01058 0
M  V30 226 H 21.8515 -1.4866 2.8867 0
M  V30 227 H 22.8625 1.59684 4.92668 0
M  V30 228 H 19.5395 -0.844016 4.0888 0
M  V30 229 H 20.9295 2.60683 6.19269 0
M  V30 230 N 23.6496 -1.47581 0.552962 0
M  V30 231 C 24.8956 -2.02782 0.0273648 0
M  V30 232 C 25.2286 -1.42687 -1.31734 0
M  V30 233 O 24.5036 -0.580897 -1.85623 0
M  V30 234 C 24.7866 -3.60031 -0.0702371 0
M  V30 235 C 24.6396 -4.30566 1.30126 0
M  V30 236 C 25.9586 -4.33028 -0.785771 0
M  V30 237 H 23.0776 -0.736912 0.0114185 0
M  V30 238 H 25.7196 -1.76056 0.714432 0
M  V30 239 H 23.8696 -3.82932 -0.655382 0
M  V30 240 H 25.5416 -4.19018 1.92929 0
M  V30 241 H 23.7846 -3.91086 1.87709 0
M  V30 242 H 24.4556 -5.39114 1.18573 0
M  V30 243 H 26.9316 -4.15095 -0.288982 0
M  V30 244 H 25.8076 -5.42695 -0.823013 0
M  V30 245 H 26.0686 -4.01945 -1.841 0
M  V30 246 N 25.1277 -0.289203 -1.54924 0
M  V30 247 C 26.0907 0.579144 -2.21762 0
M  V30 248 C 27.0907 1.07047 -1.1999 0
M  V30 249 O 28.2807 0.968384 -1.44803 0
M  V30 250 C 25.4127 1.80055 -2.8947 0
M  V30 251 H 26.6057 -0.00464908 -2.999 0
M  V30 252 H 24.1587 -0.0399306 -1.56249 0
M  V30 253 H 24.8937 2.42449 -2.15381 0
M  V30 254 H 24.6787 1.45602 -3.64064 0
M  V30 255 H 26.1687 2.41773 -3.40493 0
M  V30 256 N 26.6058 1.57591 -0.0167156 0
M  V30 257 C 27.8358 1.95292 0.674149 0
M  V30 258 C 28.2438 0.891097 1.66901 0
M  V30 259 O 27.5868 -0.136908 1.83189 0
M  V30 260 C 27.6488 3.29072 1.44747 0
M  V30 261 C 27.3128 4.52879 0.612331 0
M  V30 262 C 28.3098 5.1979 -0.107126 0
M  V30 263 C 25.9948 4.99242 0.553381 0
M  V30 264 C 27.9888 6.31375 -0.874339 0
M  V30 265 C 25.6758 6.10713 -0.217546 0
M  V30 266 C 26.6738 6.76637 -0.930123 0
M  V30 267 O 26.3618 7.85969 -1.68844 0
M  V30 268 H 26.0938 0.648275 0.191615 0
M  V30 269 H 28.6478 2.05284 -0.0690148 0
M  V30 270 H 26.8778 3.15535 2.2355 0
M  V30 271 H 28.5668 3.51764 2.02526 0
M  V30 272 H 29.3328 4.84948 -0.0708392 0
M  V30 273 H 25.2118 4.47744 1.09757 0
M  V30 274 H 28.7558 6.82764 -1.43106 0
M  V30 275 H 24.6528 6.44994 -0.255593 0
M  V30 276 H 25.4208 8.02571 -1.6069 0
M  V30 277 N 28.0839 -0.256276 1.55502 0
M  V30 278 C 29.0469 -1.30047 1.88734 0
M  V30 279 C 30.0469 -1.4154 0.763086 0
M  V30 280 O 31.2369 -1.40403 1.03115 0
M  V30 281 C 28.3689 -2.67953 2.10747 0
M  V30 282 H 29.5619 -1.01802 2.82093 0
M  V30 283 H 27.1149 -0.495134 1.4825 0
M  V30 284 H 27.8499 -3.01351 1.19825 0
M  V30 285 H 27.6349 -2.60993 2.92617 0
M  V30 286 H 29.1249 -3.43368 2.37673 0
M  V30 287 N 29.562 -1.4872 -0.521534 0
M  V30 288 C 30.495 -1.58451 -1.64221 0
M  V30 289 C 31.473 -0.434513 -1.56687 0
M  V30 290 O 32.657 -0.647275 -1.77038 0
M  V30 291 C 29.784 -1.52037 -3.02659 0
M  V30 292 C 28.83 -2.71981 -3.28525 0
M  V30 293 S 29.663 -4.33869 -3.13876 0
M  V30 294 C 30.819 -4.30067 -4.54745 0
M  V30 295 H 31.052 -2.53256 -1.55719 0
M  V30 296 H 28.585 -1.37358 -0.705143 0
M  V30 297 H 30.543 -1.49023 -3.82495 0
M  V30 298 H 29.204 -0.585541 -3.08594 0
M  V30 299 H 28.397 -2.63656 -4.29536 0
M  V30 300 H 27.999 -2.72302 -2.56374 0
M  V30 301 H 30.291 -4.00521 -5.46433 0
M  V30 302 H 31.234 -5.31287 -4.68123 0
M  V30 303 H 31.642 -3.60419 -4.34463 0
M  V30 304 N 31.0401 0.771051 -1.3745 0
M  V30 305 C 32.2651 1.56529 -1.36065 0
M  V30 306 C 32.6901 1.88029 0.0515859 0
M  V30 307 O 32.0481 1.49282 1.02882 0
M  V30 308 C 32.0961 2.85187 -2.20683 0
M  V30 309 O 31.2001 3.79593 -1.61193 0
M  V30 310 H 30.5411 0.47411 -0.464883 0
M  V30 311 H 33.0711 0.954269 -1.80983 0
M  V30 312 H 33.0811 3.34283 -2.33921 0
M  V30 313 H 31.7561 2.61588 -3.23334 0
M  V30 314 H 30.3331 3.38239 -1.56999 0
M  V30 315 N 32.5182 1.22032 0.997298 0
M  V30 316 C 33.4282 1.00271 2.12092 0
M  V30 317 C 34.4442 -0.047621 1.73935 0
M  V30 318 O 35.6202 0.144136 2.00884 0
M  V30 319 C 32.6852 0.578449 3.4184 0
M  V30 320 C 31.7462 1.70189 3.94125 0
M  V30 321 C 30.9792 1.29778 5.17681 0
M  V30 322 O 31.2022 0.174676 5.70132 0
M  V30 323 O 30.1362 2.11261 5.63607 0
M  V30 324 H 33.9622 1.94398 2.3333 0
M  V30 325 H 31.5472 1.00587 1.10465 0
M  V30 326 H 33.4292 0.351998 4.19927 0
M  V30 327 H 32.1042 -0.334019 3.21972 0
M  V30 328 H 31.0112 1.98282 3.1723 0
M  V30 329 H 32.3442 2.59206 4.18417 0
M  V30 330 N 33.9963 -1.19345 1.0293 0
M  V30 331 C 35.2423 -1.89318 0.727083 0
M  V30 332 C 35.5753 -1.79446 -0.742483 0
M  V30 333 O 34.8503 -1.1871 -1.54072 0
M  V30 334 C 35.1333 -3.40238 1.17942 0
M  V30 335 C 34.9863 -3.58979 2.71024 0
M  V30 336 C 36.3053 -4.33479 0.760548 0
M  V30 337 H 33.4243 -0.687475 0.265606 0
M  V30 338 H 36.0663 -1.40477 1.2793 0
M  V30 339 H 34.2163 -3.81964 0.709608 0
M  V30 340 H 35.8883 -3.26421 3.25955 0
M  V30 341 H 34.1313 -3.02018 3.11396 0
M  V30 342 H 34.8023 -4.64823 2.9773 0
M  V30 343 H 37.2783 -3.99469 1.16464 0
M  V30 344 H 36.1543 -5.37664 1.10493 0
M  V30 345 H 36.4153 -4.40813 -0.337063 0
M  V30 346 N 35.4744 -0.807222 -1.35358 0
M  V30 347 C 36.4374 -0.223665 -2.28106 0
M  V30 348 C 37.4374 0.589354 -1.4961 0
M  V30 349 O 38.6274 0.407745 -1.69361 0
M  V30 350 C 35.7594 0.688149 -3.33882 0
M  V30 351 H 36.9524 -1.04169 -2.81227 0
M  V30 352 H 34.5054 -0.577921 -1.45223 0
M  V30 353 H 35.2404 1.52984 -2.85948 0
M  V30 354 H 35.0254 0.10687 -3.91954 0
M  V30 355 H 36.5154 1.09075 -4.03104 0
M  V30 356 N 36.9525 1.47285 -0.560781 0
M  V30 357 C 37.9155 2.28535 0.174488 0
M  V30 358 C 38.9155 1.37153 0.839388 0
M  V30 359 O 40.1055 1.59748 0.694702 0
M  V30 360 C 37.2375 3.16934 1.25561 0
M  V30 361 H 38.4305 2.95012 -0.539262 0
M  V30 362 H 35.9835 1.53034 -0.317865 0
M  V30 363 H 36.7185 2.55157 2.00164 0
M  V30 364 H 36.5035 3.8419 0.783604 0
M  V30 365 H 37.9935 3.78143 1.77193 0
M  V30 366 N 38.4306 0.297415 1.54768 0
M  V30 367 C 39.6796 -0.313669 1.99246 0
M  V30 368 C 39.9926 -1.55281 1.18942 0
M  V30 369 O 41.1986 -2.23825 1.5367 0
M  V30 370 C 39.6546 -0.609407 3.54703 0
M  V30 371 C 39.2626 0.611192 4.43811 0
M  V30 372 C 41.0066 -1.18188 4.07715 0
M  V30 373 C 38.9136 0.288805 5.90694 0
M  V30 374 H 37.8436 -0.120979 0.744231 0
M  V30 375 H 40.4946 0.40556 1.78962 0
M  V30 376 H 38.8766 -1.38813 3.70873 0
M  V30 377 H 40.0506 1.3875 4.39414 0
M  V30 378 H 38.3656 1.10205 4.01552 0
M  V30 379 H 40.9626 -1.43727 5.15021 0
M  V30 380 H 41.3056 -2.12299 3.58099 0
M  V30 381 H 41.8386 -0.464944 3.95074 0
M  V30 382 H 38.5776 1.19838 6.44453 0
M  V30 383 H 38.0976 -0.450305 5.98107 0
M  V30 384 H 39.7766 -0.110933 6.46905 0
M  V30 385 N 39.9087 -1.5758 0.0250728 0
M  V30 386 C 41.1387 -1.95646 -0.663783 0
M  V30 387 C 41.5467 -0.899935 -1.66427 0
M  V30 388 O 40.8897 0.127191 -1.83259 0
M  V30 389 C 40.9517 -3.29835 -1.43 0
M  V30 390 C 40.6157 -4.53197 -0.588305 0
M  V30 391 C 41.6127 -5.19726 0.13469 0
M  V30 392 C 39.2977 -4.99529 -0.526897 0
M  V30 393 C 41.2917 -6.30902 0.90781 0
M  V30 394 C 38.9787 -6.10589 0.24993 0
M  V30 395 C 39.9767 -6.76134 0.965994 0
M  V30 396 O 39.6647 -7.85062 1.7301 0
M  V30 397 H 39.3967 -0.649282 -0.188174 0
M  V30 398 H 41.9507 -2.05245 0.0799006 0
M  V30 399 H 40.1807 -3.16716 -2.21873 0
M  V30 400 H 41.8697 -3.52833 -2.00658 0
M  V30 401 H 42.6357 -4.84904 0.0965562 0
M  V30 402 H 38.5147 -4.48319 -1.07381 0
M  V30 403 H 42.0587 -6.81995 1.46724 0
M  V30 404 H 37.9557 -6.44849 0.289795 0
M  V30 405 H 38.7237 -8.01708 1.64944 0
M  V30 406 N 41.3868 0.248026 -1.55636 0
M  V30 407 C 42.7978 0.817177 -1.67866 0
M  V30 408 C 43.1488 1.86069 -0.622322 0
M  V30 409 O 42.2738 2.15157 0.231618 0
M  V30 410 C 42.8688 1.489 -3.04326 0
M  V30 411 C 41.4278 2.00587 -3.185 0
M  V30 412 C 40.5748 0.856573 -2.63739 0
M  V30 413 H 43.5258 0.0238579 -1.58682 0
M  V30 414 H 43.5468 2.35698 -2.98708 0
M  V30 415 H 43.0588 0.729279 -3.81186 0
M  V30 416 H 41.1598 2.79443 -2.4646 0
M  V30 417 H 41.2728 2.20402 -4.25393 0
M  V30 418 H 39.6368 1.25678 -2.21534 0
M  V30 419 H 40.4198 0.109953 -3.43124 0
M  V30 420 N 42.8649 1.48995 0.513639 0
M  V30 421 C 44.1139 1.57093 1.2651 0
M  V30 422 C 44.4269 0.257091 1.93903 0
M  V30 423 O 45.6329 0.216478 2.70636 0
M  V30 424 C 44.0889 2.77118 2.29638 0
M  V30 425 C 43.6969 4.15209 1.68241 0
M  V30 426 C 45.4409 2.94538 3.05692 0
M  V30 427 C 43.3479 5.26474 2.69406 0
M  V30 428 H 42.2779 0.584876 0.475854 0
M  V30 429 H 44.9289 1.7536 0.540487 0
M  V30 430 H 43.3109 2.52319 3.05207 0
M  V30 431 H 44.4849 4.50094 0.987505 0
M  V30 432 H 42.7999 4.03042 1.04623 0
M  V30 433 H 45.3969 3.74832 3.8132 0
M  V30 434 H 45.7399 2.04614 3.62545 0
M  V30 435 H 46.2729 3.19316 2.37238 0
M  V30 436 H 43.0119 6.18417 2.17351 0
M  V30 437 H 42.5319 4.96058 3.37175 0
M  V30 438 H 44.2109 5.55277 3.32078 0
M  V30 439 N 44.343 -0.763751 1.37857 0
M  V30 440 C 45.571 -1.55293 1.36718 0
M  V30 441 C 45.986 -1.88745 -0.0455434 0
M  V30 442 O 45.343 -1.52039 -1.00947 0
M  V30 443 C 45.394 -2.85831 2.2132 0
M  V30 444 O 45.115 -2.5381 3.57089 0
M  V30 445 C 46.616 -3.80023 2.28249 0
M  V30 446 H 43.836 -0.480841 0.468009 0
M  V30 447 H 46.38 -0.946009 1.81303 0
M  V30 448 H 44.535 -3.42926 1.80223 0
M  V30 449 H 44.949 -3.37459 4.01524 0
M  V30 450 H 46.423 -4.68599 2.91752 0
M  V30 451 H 46.9 -4.1973 1.2932 0
M  V30 452 H 47.506 -3.28855 2.69693 0
M  V30 453 N 45.8211 -1.22559 -0.990812 0
M  V30 454 C 47.2321 -1.04791 -1.54518 0
M  V30 455 C 47.5831 0.387998 -1.92325 0
M  V30 456 O 46.7081 1.27328 -1.74976 0
M  V30 457 C 47.3031 -1.896 -2.80779 0
M  V30 458 C 45.8621 -1.76124 -3.32652 0
M  V30 459 C 45.0091 -1.8594 -2.05722 0
M  V30 460 H 47.9601 -1.36374 -0.811662 0
M  V30 461 H 47.9811 -1.41464 -3.53225 0
M  V30 462 H 47.4931 -2.94101 -2.53231 0
M  V30 463 H 45.5941 -0.743643 -3.65104 0
M  V30 464 H 45.7071 -2.58913 -4.03114 0
M  V30 465 H 44.0711 -1.29403 -2.19379 0
M  V30 466 H 44.8541 -2.91976 -1.80568 0
M  V30 467 N 47.2992 1.18797 -1.03562 0
M  V30 468 C 48.5242 1.9314 -0.755764 0
M  V30 469 C 48.9492 1.7537 0.68022 0
M  V30 470 O 48.3072 1.06046 1.47051 0
M  V30 471 C 48.3552 3.42747 -1.12058 0
M  V30 472 O 47.4592 4.11683 -0.243124 0
M  V30 473 H 46.8002 0.602724 -0.278604 0
M  V30 474 H 49.3302 1.50678 -1.3841 0
M  V30 475 H 49.3402 3.93437 -1.08035 0
M  V30 476 H 48.0152 3.55002 -2.16672 0
M  V30 477 H 46.5922 3.71323 -0.342539 0
M  V30 478 N 48.7773 0.814389 1.34928 0
M  V30 479 C 50.0023 0.410097 2.03305 0
M  V30 480 C 50.4273 -0.973464 1.60951 0
M  V30 481 O 49.7853 -1.63185 0.789964 0
M  V30 482 C 49.8333 0.51049 3.56968 0
M  V30 483 O 48.9373 -0.473035 4.09678 0
M  V30 484 H 48.2783 0.170088 0.641846 0
M  V30 485 H 50.8083 1.10244 1.72358 0
M  V30 486 H 50.8183 0.383135 4.06197 0
M  V30 487 H 49.4933 1.51963 3.87144 0
M  V30 488 H 48.0703 -0.305272 3.71648 0
M  V30 489 N 50.2554 -1.46986 0.568584 0
M  V30 490 C 51.4834 -2.0683 0.0539956 0
M  V30 491 C 51.8984 -1.41953 -1.24478 0
M  V30 492 O 51.2554 -0.519933 -1.74937 0
M  V30 493 C 51.3064 -3.61254 -0.133362 0
M  V30 494 O 51.0274 -4.237 1.11399 0
M  V30 495 C 52.5284 -4.37992 -0.683927 0
M  V30 496 H 49.7484 -0.669058 0.0510141 0
M  V30 497 H 52.2924 -1.88824 0.785234 0
M  V30 498 H 50.4474 -3.78735 -0.81477 0
M  V30 499 H 50.8614 -5.16388 0.91888 0
M  V30 500 H 52.3354 -5.46684 -0.764263 0
M  V30 501 H 52.8124 -4.05058 -1.69778 0
M  V30 502 H 53.4184 -4.25283 -0.0378494 0
M  V30 503 N 51.7335 -0.305618 -1.54608 0
M  V30 504 C 52.6665 0.610536 -2.19881 0
M  V30 505 C 53.6445 1.1294 -1.16976 0
M  V30 506 O 54.8285 1.19673 -1.45638 0
M  V30 507 C 51.9555 1.83583 -2.84631 0
M  V30 508 C 51.0015 1.4498 -4.01102 0
M  V30 509 S 51.8345 0.501793 -5.33144 0
M  V30 510 C 52.9905 1.73478 -6.01379 0
M  V30 511 H 53.2235 0.0560177 -2.97247 0
M  V30 512 H 50.7565 -0.0897434 -1.54139 0
M  V30 513 H 52.7145 2.53898 -3.22562 0
M  V30 514 H 51.3755 2.36152 -2.07102 0
M  V30 515 H 50.5685 2.36236 -4.45206 0
M  V30 516 H 50.1705 0.826553 -3.64752 0
M  V30 517 H 52.4625 2.67473 -6.22467 0
M  V30 518 H 53.4055 1.33622 -6.95378 0
M  V30 519 H 53.8135 1.9136 -5.31076 0
M  V30 520 N 53.2116 1.57565 -0.0334293 0
M  V30 521 C 54.4596 1.91598 0.642999 0
M  V30 522 C 54.7806 0.910847 1.7242 0
M  V30 523 O 54.0506 -0.0469931 1.95844 0
M  V30 524 H 52.6306 0.707228 0.240496 0
M  V30 525 H 55.2926 1.94726 -0.0822488 0
M  V30 526 H 54.3886 2.92336 1.09298 0
M  V30 527 N 54.6897 -0.239769 1.55765 0
M  V30 528 C 55.5997 -1.31831 1.94056 0
M  V30 529 C 56.6157 -1.52275 0.841925 0
M  V30 530 O 57.7917 -1.65759 1.14394 0
M  V30 531 C 54.8567 -2.65156 2.23368 0
M  V30 532 C 53.9177 -2.53173 3.46701 0
M  V30 533 C 53.1507 -3.8014 3.74606 0
M  V30 534 O 53.3737 -4.82343 3.04469 0
M  V30 535 O 52.3077 -3.78344 4.68123 0
M  V30 536 H 56.1337 -1.02347 2.85935 0
M  V30 537 H 53.7187 -0.441123 1.42739 0
M  V30 538 H 55.6007 -3.43929 2.43497 0
M  V30 539 H 54.2757 -2.94358 1.34666 0
M  V30 540 H 53.1827 -1.72662 3.31871 0
M  V30 541 H 54.5157 -2.28915 4.35728 0
M  V30 542 N 56.1678 -1.49265 -0.50573 0
M  V30 543 C 57.0778 -1.68312 -1.63427 0
M  V30 544 C 58.0938 -0.565682 -1.64548 0
M  V30 545 O 59.2698 -0.839801 -1.83055 0
M  V30 546 C 56.3348 -1.74107 -2.99813 0
M  V30 547 C 55.3958 -2.97653 -3.09356 0
M  V30 548 C 54.6288 -3.03163 -4.39236 0
M  V30 549 O 54.8518 -2.16396 -5.27758 0
M  V30 550 O 53.7858 -3.9558 -4.53652 0
M  V30 551 H 57.6118 -2.63907 -1.50289 0
M  V30 552 H 55.1968 -1.32951 -0.681502 0
M  V30 553 H 57.0788 -1.803 -3.80881 0
M  V30 554 H 55.7538 -0.816901 -3.13223 0
M  V30 555 H 54.6608 -2.96981 -2.27493 0
M  V30 556 H 55.9938 -3.89535 -3.00871 0
M  V30 557 N 57.6459 0.756429 -1.3826 0
M  V30 558 C 58.6089 1.85176 -1.35065 0
M  V30 559 C 59.6089 1.58818 -0.251703 0
M  V30 560 O 60.7989 1.66615 -0.508433 0
M  V30 561 C 57.9309 3.22596 -1.10201 0
M  V30 562 H 59.1239 1.89417 -2.3251 0
M  V30 563 H 56.6769 0.95783 -1.23512 0
M  V30 564 H 57.4119 3.24025 -0.133504 0
M  V30 565 H 57.1969 3.43122 -1.89762 0
M  V30 566 H 58.6869 4.02673 -1.10654 0
M  V30 567 N 59.124 1.23083 0.984299 0
M  V30 568 C 60.401 0.9689 1.69917 0
M  V30 569 C 60.781 -0.513604 2.04757 0
M  V30 570 O 60.129 -1.48383 1.73767 0
M  V30 571 C 60.339 1.87518 2.94343 0
M  V30 572 C 61.687 2.13636 3.6694 0
M  V30 573 O 62.711 1.85036 3.04368 0
M  V30 574 O 61.57 2.62119 4.79537 0
M  V30 575 H 58.664 0.365095 0.742048 0
M  V30 576 H 61.21 1.34107 1.03987 0
M  V30 577 H 59.982 2.87756 2.65164 0
M  V30 578 H 59.605 1.50514 3.6801 0
M  V30 579 N 60.6021 -1.18246 1.0419 0
M  V30 580 C 61.8791 -1.84121 0.660208 0
M  V30 581 C 62.2591 -1.92778 -0.860221 0
M  V30 582 O 61.6071 -1.45464 -1.76217 0
M  V30 583 C 61.8171 -3.22355 1.33747 0
M  V30 584 C 63.1651 -3.98376 1.46906 0
M  V30 585 O 64.1891 -3.31799 1.29568 0
M  V30 586 O 63.0481 -5.17665 1.75171 0
M  V30 587 H 60.1421 -0.794036 0.231161 0
M  V30 588 H 62.6881 -1.25628 1.14087 0
M  V30 589 H 61.4601 -3.10964 2.37522 0
M  V30 590 H 61.0831 -3.88506 0.845515 0
M  V30 591 N 62.0802 -0.821533 -1.34494 0
M  V30 592 C 63.3262 -0.418729 -1.99043 0
M  V30 593 C 63.6812 1.00672 -1.6396 0
M  V30 594 O 62.9742 1.69132 -0.900271 0
M  V30 595 C 63.1682 -0.556512 -3.53041 0
M  V30 596 C 62.9972 -1.9938 -4.03085 0
M  V30 597 C 61.7672 -2.62539 -4.31742 0
M  V30 598 C 63.9652 -2.96035 -4.20556 0
M  V30 599 N 61.9472 -3.97523 -4.67813 0
M  V30 600 C 63.3182 -4.15924 -4.59791 0
M  V30 601 C 65.3732 -2.9267 -4.02801 0
M  V30 602 C 64.0762 -5.32899 -4.83126 0
M  V30 603 C 66.1022 -4.08861 -4.27302 0
M  V30 604 C 65.4642 -5.275 -4.66822 0
M  V30 605 H 61.5632 -0.201299 -0.755647 0
M  V30 606 H 64.1472 -1.06594 -1.62929 0
M  V30 607 H 62.3182 0.0607924 -3.88352 0
M  V30 608 H 64.0502 -0.126842 -4.04501 0
M  V30 609 H 60.8052 -2.13789 -4.22601 0
M  V30 610 H 61.2292 -4.67061 -4.90085 0
M  V30 611 H 65.8712 -2.02088 -3.71376 0
M  V30 612 H 63.5892 -6.24041 -5.13418 0
M  V30 613 H 67.1752 -4.07654 -4.15101 0
M  V30 614 H 66.0552 -6.15913 -4.85408 0
M  V30 615 N 63.5583 1.46682 -0.576371 0
M  V30 616 C 64.5213 2.28707 0.150239 0
M  V30 617 C 65.5213 1.38035 0.824794 0
M  V30 618 O 66.7113 1.60476 0.677719 0
M  V30 619 C 63.8433 3.18248 1.22192 0
M  V30 620 H 65.0363 2.94423 -0.570521 0
M  V30 621 H 62.5893 1.52688 -0.334078 0
M  V30 622 H 63.3243 2.57265 1.97447 0
M  V30 623 H 63.1093 3.85 0.742812 0
M  V30 624 H 64.5993 3.80001 1.73172 0
M  V30 625 N 65.0364 0.313813 1.54444 0
M  V30 626 C 65.9994 -0.54379 2.22656 0
M  V30 627 C 66.9994 -1.05124 1.21678 0
M  V30 628 O 68.1894 -0.945225 1.46325 0
M  V30 629 C 65.3214 -1.75427 2.92298 0
M  V30 630 H 66.5144 0.0523599 2.99854 0
M  V30 631 H 64.0674 0.0647834 1.56166 0
M  V30 632 H 64.8024 -2.38991 2.19211 0
M  V30 633 H 64.5874 -1.39791 3.66334 0
M  V30 634 H 66.0774 -2.36325 3.44297 0
M  V30 635 N 66.5145 -1.57545 0.0417849 0
M  V30 636 C 67.4465 -2.07904 -0.964799 0
M  V30 637 C 68.4595 -1.00497 -1.28079 0
M  V30 638 O 69.6485 -1.28087 -1.24322 0
M  V30 639 C 66.7485 -2.49928 -2.28887 0
M  V30 640 C 65.9215 -3.80562 -2.15619 0
M  V30 641 C 64.9805 -4.08999 -3.31069 0
M  V30 642 O 64.0065 -4.79061 -3.0739 0
M  V30 643 N 65.2085 -3.6017 -4.55256 0
M  V30 644 H 67.9735 -2.94886 -0.535029 0
M  V30 645 H 65.5345 -1.61252 -0.144681 0
M  V30 646 H 67.5265 -2.66034 -3.04972 0
M  V30 647 H 66.0965 -1.68245 -2.63463 0
M  V30 648 H 65.3165 -3.74129 -1.24183 0
M  V30 649 H 66.6045 -4.66126 -2.03971 0
M  V30 650 H 66.0025 -3.03512 -4.77386 0
M  V30 651 H 64.5595 -3.81532 -5.28466 0
M  V30 652 N 67.9926 0.231505 -1.5589 0
M  V30 653 C 69.2406 0.955461 -1.78088 0
M  V30 654 C 69.5616 1.85262 -0.608533 0
M  V30 655 O 68.8316 1.92277 0.375035 0
M  V30 656 H 67.4116 0.355787 -0.656829 0
M  V30 657 H 70.0736 0.245751 -1.93344 0
M  V30 658 H 69.1696 1.56814 -2.69844 0
M  V30 659 N 69.4707 1.49531 0.497807 0
M  V30 660 C 70.8867 1.36365 0.829266 0
M  V30 661 C 71.0867 0.399184 1.97506 0
M  V30 662 O 70.1427 -0.167977 2.51941 0
M  V30 663 C 71.4557 2.77153 1.16647 0
M  V30 664 C 73.0037 2.85877 1.27449 0
M  V30 665 C 73.4787 4.2744 1.64497 0
M  V30 666 N 74.9697 4.30265 1.7154 0
M  V30 667 C 75.7047 5.3677 2.01656 0
M  V30 668 N 75.2007 6.53516 2.29976 0
M  V30 669 N 76.9937 5.24189 2.02934 0
M  V30 670 H 69.1447 2.10831 -0.257703 0
M  V30 671 H 71.4077 0.946534 -0.0527091 0
M  V30 672 H 71.1137 3.49442 0.397872 0
M  V30 673 H 70.9877 3.12722 2.10915 0
M  V30 674 H 73.3747 2.13824 2.0338 0
M  V30 675 H 73.4557 2.53887 0.312244 0
M  V30 676 H 73.0997 5.00021 0.891151 0
M  V30 677 H 73.0297 4.56896 2.61827 0
M  V30 678 H 75.5207 3.4607 1.51802 0
M  V30 679 H 75.8337 7.30506 2.52153 0
M  V30 680 H 74.1787 6.56737 2.27425 0
M  V30 681 H 77.3697 4.31988 1.80289 0
M  V30 682 H 77.5427 6.07286 2.26071 0
M  V30 683 N 70.9488 -0.749086 1.3866 0
M  V30 684 C 71.8958 -1.86291 1.36251 0
M  V30 685 C 72.8658 -1.64578 0.224347 0
M  V30 686 O 74.0508 -1.86181 0.417279 0
M  V30 687 C 71.1908 -3.23644 1.19786 0
M  V30 688 C 70.3038 -3.57158 2.43027 0
M  V30 689 C 69.4388 -4.83838 2.19258 0
M  V30 690 C 68.4778 -5.10152 3.38247 0
M  V30 691 N 67.6148 -6.28029 3.13884 0
M  V30 692 H 72.4548 -1.87685 2.3147 0
M  V30 693 H 69.9918 -0.917287 1.14997 0
M  V30 694 H 71.9498 -4.0291 1.08254 0
M  V30 695 H 70.5798 -3.21566 0.282031 0
M  V30 696 H 69.6318 -2.72701 2.65214 0
M  V30 697 H 70.9438 -3.7253 3.31697 0
M  V30 698 H 70.0978 -5.71057 2.04888 0
M  V30 699 H 68.8368 -4.70614 1.2796 0
M  V30 700 H 67.8418 -4.21401 3.53131 0
M  V30 701 H 69.0668 -5.25271 4.30427 0
M  V30 702 H 67.0128 -6.1612 2.25238 0
M  V30 703 H 66.9298 -6.43922 3.96106 0
M  V30 704 H 68.1978 -7.18124 3.03179 0
M  V30 705 N 72.4269 -1.23603 -0.977757 0
M  V30 706 C 73.3749 -1.01704 -2.09187 0
M  V30 707 C 74.3689 0.0448214 -1.69341 0
M  V30 708 O 75.5749 -0.108902 -1.7967 0
M  V30 709 H 71.9499 -0.311803 -0.684312 0
M  V30 710 H 73.9209 -1.96207 -2.24823 0
M  V30 711 C 72.6699 -0.627746 -3.41986 0
M  V30 712 H 71.9929 -1.43656 -3.73099 0
M  V30 713 H 73.4329 -0.514053 -4.20872 0
M  V30 714 C 71.8919 0.664238 -3.30287 0
M  V30 715 O 72.4219 1.71268 -3.6336 0
M  V30 716 N 70.6279 0.641156 -2.83439 0
M  V30 717 H 70.1749 -0.212376 -2.56723 0
M  V30 718 H 70.1329 1.50583 -2.75993 0
M  V30 719 N 73.905 1.17692 -1.04816 0
M  V30 720 C 75.154 1.87192 -0.751132 0
M  V30 721 C 75.467 1.8169 0.724441 0
M  V30 722 O 76.673 2.46625 1.13527 0
M  V30 723 C 75.129 3.35857 -1.29338 0
M  V30 724 C 74.737 3.4987 -2.79812 0
M  V30 725 C 76.481 4.10709 -1.07322 0
M  V30 726 C 74.388 4.92536 -3.27356 0
M  V30 727 H 73.318 0.701162 -0.277288 0
M  V30 728 H 75.969 1.32932 -1.26496 0
M  V30 729 H 74.351 3.89631 -0.707376 0
M  V30 730 H 75.525 3.06332 -3.44235 0
M  V30 731 H 73.84 2.88433 -3.00325 0
M  V30 732 H 76.437 5.15952 -1.4035 0
M  V30 733 H 76.78 4.16299 -0.0108001 0
M  V30 734 H 77.313 3.6313 -1.62423 0
M  V30 735 H 74.052 4.92119 -4.33012 0
M  V30 736 H 73.572 5.3676 -2.67673 0
M  V30 737 H 75.251 5.61288 -3.21815 0
M  V30 738 N 75.3831 0.828654 1.34056 0
M  V30 739 C 76.6301 0.419458 1.98108 0
M  V30 740 C 76.9581 -1.01886 1.65679 0
M  V30 741 O 76.2131 -1.72539 0.923512 0
M  V30 742 C 76.5121 0.575226 3.52741 0
M  V30 743 C 76.1781 1.98012 4.05095 0
M  V30 744 C 74.8401 2.36442 4.19104 0
M  V30 745 C 77.1921 2.89824 4.33188 0
M  V30 746 C 74.5201 3.66009 4.58535 0
M  V30 747 C 76.8721 4.1886 4.74066 0
M  V30 748 C 75.5361 4.5726 4.86281 0
M  V30 749 H 74.8061 0.153491 0.724929 0
M  V30 750 H 77.4531 1.05371 1.59904 0
M  V30 751 H 75.7581 -0.142385 3.91541 0
M  V30 752 H 77.4551 0.239057 4.00287 0
M  V30 753 H 74.0451 1.67162 3.94658 0
M  V30 754 H 78.2291 2.61375 4.21897 0
M  V30 755 H 73.4851 3.95579 4.66184 0
M  V30 756 H 77.6591 4.90086 4.94761 0
M  V30 757 H 75.2861 5.57707 5.16592 0
M  V30 758 N 76.8612 -1.46375 0.584142 0
M  V30 759 C 78.1092 -2.01978 0.0701287 0
M  V30 760 C 78.4302 -1.4579 -1.295 0
M  V30 761 O 77.7002 -0.64314 -1.85042 0
M  V30 762 H 76.2802 -0.746648 0.0229345 0
M  V30 763 H 78.9422 -1.79461 0.760245 0
M  V30 764 H 78.0382 -3.121 0.0022064 0
M  V30 765 N 78.3393 -0.321999 -1.54275 0
M  V30 766 C 79.2713 0.578671 -2.21775 0
M  V30 767 C 80.2843 1.08109 -1.21722 0
M  V30 768 O 81.4733 0.994938 -1.482 0
M  V30 769 C 78.5733 1.80661 -2.86731 0
M  V30 770 C 77.7463 1.44314 -4.12907 0
M  V30 771 C 76.8053 2.52845 -4.61472 0
M  V30 772 O 75.8313 2.17054 -5.2619 0
M  V30 773 N 77.0333 3.83748 -4.35566 0
M  V30 774 H 79.7983 0.000709447 -2.997 0
M  V30 775 H 77.3593 -0.145132 -1.61248 0
M  V30 776 H 79.3513 2.52655 -3.16145 0
M  V30 777 H 77.9213 2.29245 -2.12521 0
M  V30 778 H 77.1413 0.554906 -3.90275 0
M  V30 779 H 78.4293 1.17598 -4.95023 0
M  V30 780 H 77.8273 4.15625 -3.83761 0
M  V30 781 H 76.3843 4.51977 -4.69638 0
M  V30 782 N 79.8174 1.5752 -0.0501392 0
M  V30 783 C 81.0454 1.96963 0.633492 0
M  V30 784 C 81.4604 0.927631 1.6444 0
M  V30 785 O 80.8174 -0.0882665 1.82286 0
M  V30 786 C 80.8684 3.36487 1.32132 0
M  V30 787 O 80.5894 4.36693 0.350894 0
M  V30 788 C 82.0904 3.90682 2.09481 0
M  V30 789 H 79.3104 0.648244 0.173266 0
M  V30 790 H 81.8544 2.0417 -0.116134 0
M  V30 791 H 80.0094 3.30434 2.02218 0
M  V30 792 H 80.4234 5.17702 0.841735 0
M  V30 793 H 81.8974 4.90591 2.5303 0
M  V30 794 H 82.3744 3.26053 2.94255 0
M  V30 795 H 82.9804 4.00069 1.44307 0
M  V30 796 N 81.2955 -0.223234 1.56011 0
M  V30 797 C 82.2255 -1.27988 1.95298 0
M  V30 798 C 83.2065 -1.48976 0.820979 0
M  V30 799 O 84.3915 -1.61188 1.08315 0
M  V30 800 C 81.5215 -2.63 2.26822 0
M  V30 801 C 80.4755 -2.56671 3.42497 0
M  V30 802 C 79.8015 -3.95697 3.59622 0
M  V30 803 C 81.1015 -2.11601 4.77517 0
M  V30 804 H 82.7955 -0.953525 2.8381 0
M  V30 805 H 80.3415 -0.457244 1.36548 0
M  V30 806 H 82.2945 -3.37077 2.52898 0
M  V30 807 H 81.0185 -2.9732 1.35161 0
M  V30 808 H 79.6775 -1.85051 3.16467 0
M  V30 809 H 79.3255 -4.27322 2.6534 0
M  V30 810 H 79.0255 -3.92345 4.37424 0
M  V30 811 H 80.5495 -4.71438 3.88044 0
M  V30 812 H 81.9635 -2.7542 5.02809 0
M  V30 813 H 80.3605 -2.19311 5.5859 0
M  V30 814 H 81.4305 -1.06824 4.72987 0
M  V30 815 N 82.7736 -1.49793 -0.48987 0
M  V30 816 C 84.0016 -1.63568 -1.26701 0
M  V30 817 C 84.4166 -0.311465 -1.86213 0
M  V30 818 O 83.7736 0.704416 -1.68357 0
M  V30 819 C 83.8246 -2.71284 -2.38929 0
M  V30 820 O 83.5456 -3.9857 -1.81861 0
M  V30 821 C 85.0466 -2.95864 -3.3012 0
M  V30 822 H 82.2666 -0.550342 -0.383881 0
M  V30 823 H 84.8106 -1.95898 -0.586864 0
M  V30 824 H 82.9656 -2.417 -3.02753 0
M  V30 825 H 83.3796 -4.57993 -2.55622 0
M  V30 826 H 84.8536 -3.74941 -4.05121 0
M  V30 827 H 85.3306 -2.06206 -3.87783 0
M  V30 828 H 85.9366 -3.26907 -2.72051 0
M  V30 829 N 84.2517 0.741722 -1.39055 0
M  V30 830 C 85.5007 1.49656 -1.35225 0
M  V30 831 C 85.8137 1.95533 0.0512708 0
M  V30 832 O 87.0197 2.7067 0.212138 0
M  V30 833 C 85.4757 2.70389 -2.37525 0
M  V30 834 C 85.0837 2.31489 -3.83558 0
M  V30 835 C 86.8277 3.48236 -2.42759 0
M  V30 836 C 84.7347 3.48903 -4.77515 0
M  V30 837 H 83.6647 0.56197 -0.502699 0
M  V30 838 H 86.3157 0.809727 -1.64668 0
M  V30 839 H 84.6977 3.41113 -2.01142 0
M  V30 840 H 85.8717 1.68354 -4.28945 0
M  V30 841 H 84.1867 1.66749 -3.81554 0
M  V30 842 H 86.7837 4.35558 -3.1015 0
M  V30 843 H 87.1267 3.90229 -1.45008 0
M  V30 844 H 87.6597 2.84535 -2.78002 0
M  V30 845 H 84.3987 3.11966 -5.76504 0
M  V30 846 H 83.9187 4.11041 -4.36813 0
M  V30 847 H 85.5977 4.15328 -4.96096 0
M  V30 848 N 85.7298 1.2412 0.971189 0
M  V30 849 C 87.1458 1.00584 1.23916 0
M  V30 850 C 87.3458 -0.287481 1.99439 0
M  V30 851 O 86.4018 -1.00454 2.31658 0
M  V30 852 C 87.7148 2.21864 2.0297 0
M  V30 853 C 89.2628 2.26452 2.16076 0
M  V30 854 C 89.7378 3.47343 2.98524 0
M  V30 855 N 91.2288 3.47639 3.06107 0
M  V30 856 C 91.9638 4.37837 3.70251 0
M  V30 857 N 91.4598 5.38286 4.36142 0
M  V30 858 N 93.2528 4.25558 3.67228 0
M  V30 859 H 85.4038 2.07236 0.465499 0
M  V30 860 H 87.6668 0.909236 0.268315 0
M  V30 861 H 87.3728 3.15771 1.54861 0
M  V30 862 H 87.2468 2.23698 3.03709 0
M  V30 863 H 89.6338 1.33078 2.6339 0
M  V30 864 H 89.7148 2.28645 1.14696 0
M  V30 865 H 89.3588 4.41029 2.51905 0
M  V30 866 H 89.2888 3.42393 4.00093 0
M  V30 867 H 91.7798 2.74966 2.59233 0
M  V30 868 H 92.0928 6.03352 4.82894 0
M  V30 869 H 90.4378 5.42176 4.34822 0
M  V30 870 H 93.6288 3.46322 3.14927 0
M  V30 871 H 93.8018 4.96054 4.16935 0
M  V30 872 N 87.2079 -1.17134 1.05439 0
M  V30 873 C 88.1179 -2.24878 0.668365 0
M  V30 874 C 89.1339 -1.71186 -0.311687 0
M  V30 875 O 90.3099 -2.00738 -0.163161 0
M  V30 876 C 87.3749 -3.46662 0.051648 0
M  V30 877 C 86.4359 -4.15429 1.08246 0
M  V30 878 C 85.6689 -5.31399 0.495082 0
M  V30 879 O 85.8919 -5.66153 -0.694743 0
M  V30 880 O 84.8259 -5.89187 1.23056 0
M  V30 881 H 88.6519 -2.60189 1.56637 0
M  V30 882 H 86.2369 -1.24482 0.826104 0
M  V30 883 H 88.1189 -4.20394 -0.290966 0
M  V30 884 H 86.7939 -3.13142 -0.819971 0
M  V30 885 H 85.7009 -3.43704 1.47711 0
M  V30 886 H 87.0339 -4.52982 1.92532 0
M  V30 887 N 88.686 -0.835752 -1.33615 0
M  V30 888 C 89.619 -0.211815 -2.27215 0
M  V30 889 C 90.597 0.639249 -1.49507 0
M  V30 890 O 91.781 0.600193 -1.78689 0
M  V30 891 C 88.908 0.702893 -3.31326 0
M  V30 892 C 87.954 -0.0723049 -4.26439 0
M  V30 893 S 88.787 -1.42811 -5.16106 0
M  V30 894 C 89.943 -0.518613 -6.23748 0
M  V30 895 H 90.176 -1.00533 -2.79786 0
M  V30 896 H 87.709 -0.632336 -1.40858 0
M  V30 897 H 89.667 1.22505 -3.91794 0
M  V30 898 H 88.328 1.47004 -2.77576 0
M  V30 899 H 87.521 0.62359 -5.00127 0
M  V30 900 H 87.123 -0.525424 -3.70291 0
M  V30 901 H 89.415 0.284778 -6.76901 0
M  V30 902 H 90.358 -1.22556 -6.97413 0
M  V30 903 H 90.766 -0.101344 -5.64409 0
M  V30 904 N 90.1641 1.46063 -0.591896 0
M  V30 905 C 91.0961 2.28539 0.174001 0
M  V30 906 C 92.1091 1.39047 0.846753 0
M  V30 907 O 93.2981 1.63564 0.714774 0
M  V30 908 C 90.3981 3.14347 1.26645 0
M  V30 909 C 89.5711 4.32021 0.683856 0
M  V30 910 C 88.6301 4.99157 1.66518 0
M  V30 911 O 87.6561 5.56458 1.19763 0
M  V30 912 N 88.8581 4.97005 2.99943 0
M  V30 913 H 91.6231 2.94911 -0.533633 0
M  V30 914 H 89.1841 1.56077 -0.430294 0
M  V30 915 H 91.1761 3.56125 1.92242 0
M  V30 916 H 89.7461 2.49988 1.87682 0
M  V30 917 H 88.9661 3.93915 -0.1498 0
M  V30 918 H 90.2541 5.08059 0.274567 0
M  V30 919 H 89.6521 4.51714 3.40545 0
M  V30 920 H 88.2091 5.42696 3.61004 0
M  V30 921 N 91.6422 0.330177 1.54103 0
M  V30 922 C 92.8672 -0.274893 2.0557 0
M  V30 923 C 93.2922 -1.44487 1.20437 0
M  V30 924 O 92.6502 -1.80021 0.214991 0
M  V30 925 C 92.6982 -0.68079 3.54115 0
M  V30 926 O 91.8022 -1.7824 3.71893 0
M  V30 927 H 91.1432 -0.0483849 0.662235 0
M  V30 928 H 93.6732 0.480508 1.98878 0
M  V30 929 H 93.6832 -0.961635 3.96505 0
M  V30 930 H 92.3582 0.174903 4.15532 0
M  V30 931 H 90.9352 -1.49985 3.41407 0
M  V30 932 N 93.1203 -1.57491 0.0584922 0
M  V30 933 C 94.0303 -2.15448 -0.928414 0
M  V30 934 C 95.0463 -1.11416 -1.3365 0
M  V30 935 O 96.2223 -1.4362 -1.41193 0
M  V30 936 C 93.2873 -2.69393 -2.18239 0
M  V30 937 C 92.3483 -3.88249 -1.83196 0
M  V30 938 C 91.5813 -4.39613 -3.02616 0
M  V30 939 O 91.8043 -3.90023 -4.16219 0
M  V30 940 O 90.7383 -5.31111 -2.83204 0
M  V30 941 H 94.5643 -3.00112 -0.465483 0
M  V30 942 H 92.1493 -1.48499 -0.163826 0
M  V30 943 H 94.0313 -3.04026 -2.91798 0
M  V30 944 H 92.7063 -1.87796 -2.63656 0
M  V30 945 H 91.6133 -3.58492 -1.06931 0
M  V30 946 H 92.9463 -4.71098 -1.42573 0
M  V30 947 N 94.5984 0.214957 -1.56127 0
M  V30 948 C 95.5614 1.24997 -1.92116 0
M  V30 949 C 96.5614 1.39467 -0.800344 0
M  V30 950 O 97.7514 1.37619 -1.06802 0
M  V30 951 C 94.8834 2.62271 -2.17777 0
M  V30 952 H 96.0764 0.942875 -2.84693 0
M  V30 953 H 93.6294 0.455654 -1.49511 0
M  V30 954 H 94.3644 2.98068 -1.27773 0
M  V30 955 H 94.1494 2.53143 -2.99434 0
M  V30 956 H 95.6394 3.36946 -2.46693 0
M  V30 957 N 96.0765 1.50051 0.48192 0
M  V30 958 C 97.3245 1.60181 1.23234 0
M  V30 959 C 97.6455 0.299176 1.92691 0
M  V30 960 O 96.9155 -0.682708 1.83619 0
M  V30 961 H 95.4955 0.590232 0.457859 0
M  V30 962 H 98.1575 1.86775 0.556881 0
M  V30 963 H 97.2535 2.40753 1.98607 0
M  V30 964 N 97.5546 -0.734337 1.39446 0
M  V30 965 C 98.5176 -1.83004 1.37994 0
M  V30 966 C 99.5176 -1.58397 0.276938 0
M  V30 967 O 100.708 -1.65785 0.534875 0
M  V30 968 C 97.8396 -3.20802 1.1532 0
M  V30 969 H 99.0326 -1.85694 2.35494 0
M  V30 970 H 96.5856 -0.938059 1.25021 0
M  V30 971 H 97.3206 -3.23772 0.185036 0
M  V30 972 H 97.1056 -3.4006 1.95197 0
M  V30 973 H 98.5956 -4.00862 1.17046 0
M  V30 974 N 99.0327 -1.24633 -0.964593 0
M  V30 975 C 99.9957 -1.0424 -2.04124 0
M  V30 976 C 100.996 0.00137563 -1.608 0
M  V30 977 O 102.186 -0.239883 -1.7254 0
M  V30 978 C 99.3177 -0.580588 -3.3592 0
M  V30 979 H 100.511 -1.99803 -2.23649 0
M  V30 980 H 98.0637 -1.06899 -1.14027 0
M  V30 981 H 98.7987 0.3781 -3.22088 0
M  V30 982 H 98.5837 -1.33398 -3.6871 0
M  V30 983 H 100.074 -0.459034 -4.15069 0
M  V30 984 N 100.511 1.16574 -1.06058 0
M  V30 985 C 101.759 1.86677 -0.77434 0
M  V30 986 C 102.08 1.81959 0.701147 0
M  V30 987 O 101.35 1.2515 1.50713 0
M  V30 988 H 99.9298 0.691134 -0.283449 0
M  V30 989 H 102.592 1.41378 -1.34158 0
M  V30 990 H 101.688 2.92181 -1.09711 0
M  V30 991 N 101.989 0.842826 1.3317 0
M  V30 992 C 102.952 0.284065 2.27433 0
M  V30 993 C 103.952 -0.54948 1.5112 0
M  V30 994 O 105.142 -0.362699 1.70382 0
M  V30 995 C 102.274 -0.599384 3.35589 0
M  V30 996 H 103.467 1.11589 2.78366 0
M  V30 997 H 101.02 0.616221 1.4364 0
M  V30 998 H 101.755 -1.45349 2.89904 0
M  V30 999 H 101.54 -0.00291266 3.921 0
M  V30 1000 H 103.03 -0.983488 4.05854 0
M  V30 1001 N 103.467 -1.45747 0.599634 0
M  V30 1002 C 104.713 -2.02592 0.0918643 0
M  V30 1003 C 105.046 -1.46806 -1.27128 0
M  V30 1004 O 104.321 -0.639658 -1.83681 0
M  V30 1005 C 104.604 -3.60073 0.0443398 0
M  V30 1006 C 104.457 -4.26208 1.43759 0
M  V30 1007 C 105.776 -4.35309 -0.647608 0
M  V30 1008 H 102.895 -0.736175 0.034857 0
M  V30 1009 H 105.537 -1.73694 0.770081 0
M  V30 1010 H 103.687 -3.84823 -0.533224 0
M  V30 1011 H 105.359 -4.12668 2.06162 0
M  V30 1012 H 103.602 -3.84916 2.00056 0
M  V30 1013 H 104.273 -5.35069 1.35665 0
M  V30 1014 H 106.749 -4.15805 -0.156776 0
M  V30 1015 H 105.625 -5.45038 -0.649942 0
M  V30 1016 H 105.886 -4.07598 -1.71219 0
M  V30 1017 N 104.945 -0.338344 -1.53925 0
M  V30 1018 C 105.895 0.536712 -2.21593 0
M  V30 1019 C 106.879 1.07015 -1.20153 0
M  V30 1020 O 108.071 1.00471 -1.45721 0
M  V30 1021 C 105.2 1.68977 -2.98834 0
M  V30 1022 C 104.286 1.17052 -4.07627 0
M  V30 1023 N 104.677 0.372085 -5.0443 0
M  V30 1024 C 102.975 1.44789 -4.21844 0
M  V30 1025 C 103.676 0.0909171 -5.81629 0
M  V30 1026 N 102.652 0.681131 -5.39316 0
M  V30 1027 H 106.454 -0.0804298 -2.9379 0
M  V30 1028 H 103.968 -0.144943 -1.61752 0
M  V30 1029 H 105.965 2.32857 -3.45808 0
M  V30 1030 H 104.625 2.31024 -2.28162 0
M  V30 1031 H 105.636 0.0136217 -5.17898 0
M  V30 1032 H 102.313 2.07313 -3.62391 0
M  V30 1033 H 103.703 -0.552817 -6.69622 0
M  V30 1034 N 106.423 1.57458 -0.0668435 0
M  V30 1035 C 107.671 1.92919 0.602214 0
M  V30 1036 C 107.992 0.947215 1.70449 0
M  V30 1037 O 107.262 -0.00544117 1.95899 0
M  V30 1038 H 105.842 0.71217 0.22544 0
M  V30 1039 H 108.504 1.94508 -0.123535 0
M  V30 1040 H 107.6 2.94589 1.03073 0
M  V30 1041 N 107.901 -0.206675 1.56239 0
M  V30 1042 C 108.864 -1.23976 1.92776 0
M  V30 1043 C 109.864 -1.39041 0.807729 0
M  V30 1044 O 111.054 -1.37051 1.0753 0
M  V30 1045 C 108.186 -2.61112 2.19165 0
M  V30 1046 H 109.379 -0.927764 2.85189 0
M  V30 1047 H 106.932 -0.447718 1.4975 0
M  V30 1048 H 107.667 -2.97386 1.29352 0
M  V30 1049 H 107.452 -2.51552 3.00772 0
M  V30 1050 H 108.942 -3.35633 2.48476 0
M  V30 1051 N 109.379 -1.50304 -0.473955 0
M  V30 1052 C 110.309 -1.71886 -1.58042 0
M  V30 1053 C 111.29 -0.567799 -1.60344 0
M  V30 1054 O 112.475 -0.806623 -1.76656 0
M  V30 1055 C 109.605 -1.81036 -2.96384 0
M  V30 1056 C 108.559 -2.962 -3.08949 0
M  V30 1057 C 107.885 -2.9049 -4.48909 0
M  V30 1058 C 109.185 -4.36752 -2.86434 0
M  V30 1059 H 110.879 -2.64527 -1.40234 0
M  V30 1060 H 108.425 -1.27295 -0.673201 0
M  V30 1061 H 110.378 -1.94719 -3.73714 0
M  V30 1062 H 109.102 -0.850147 -3.15341 0
M  V30 1063 H 107.761 -2.82164 -2.3405 0
M  V30 1064 H 107.409 -1.92321 -4.64781 0
M  V30 1065 H 107.109 -3.67802 -4.58253 0
M  V30 1066 H 108.633 -3.06218 -5.28264 0
M  V30 1067 H 110.047 -4.5133 -3.53517 0
M  V30 1068 H 108.444 -5.15493 -3.07225 0
M  V30 1069 H 109.514 -4.49321 -1.82316 0
M  V30 1070 N 110.857 0.726932 -1.39834 0
M  V30 1071 C 111.82 1.82269 -1.38962 0
M  V30 1072 C 112.82 1.58248 -0.285334 0
M  V30 1073 O 114.01 1.65499 -0.54366 0
M  V30 1074 C 111.142 3.20186 -1.17019 0
M  V30 1075 H 112.335 1.84443 -2.36476 0
M  V30 1076 H 109.888 0.931416 -1.25516 0
M  V30 1077 H 110.623 3.23669 -0.202204 0
M  V30 1078 H 110.408 3.3902 -1.96998 0
M  V30 1079 H 111.898 4.00235 -1.1917 0
M  V30 1080 N 112.336 1.25143 0.95797 0
M  V30 1081 C 113.299 1.05321 2.03569 0
M  V30 1082 C 114.299 0.007152 1.60798 0
M  V30 1083 O 115.489 0.24903 1.72411 0
M  V30 1084 C 112.621 0.598394 3.35607 0
M  V30 1085 H 113.814 2.00986 2.22586 0
M  V30 1086 H 111.367 1.07502 1.13459 0
M  V30 1087 H 112.102 -0.361014 3.22284 0
M  V30 1088 H 111.887 1.35351 3.67998 0
M  V30 1089 H 113.377 0.48104 4.1482 0
M  V30 1090 N 113.814 -1.1601 1.06675 0
M  V30 1091 C 115.062 -1.86264 0.784229 0
M  V30 1092 C 115.383 -1.82328 -0.691488 0
M  V30 1093 O 114.653 -1.25947 -1.50047 0
M  V30 1094 H 113.233 -0.689621 0.28711 0
M  V30 1095 H 115.895 -1.40664 1.34906 0
M  V30 1096 H 114.991 -2.91595 1.11259 0
M  V30 1097 N 115.292 -0.849877 -1.32721 0
M  V30 1098 C 116.255 -0.296122 -2.27279 0
M  V30 1099 C 117.255 0.541458 -1.5141 0
M  V30 1100 O 118.445 0.353658 -1.70572 0
M  V30 1101 C 115.577 0.581579 -3.35902 0
M  V30 1102 H 116.77 -1.13064 -2.77771 0
M  V30 1103 H 114.323 -0.62383 -1.43311 0
M  V30 1104 H 115.058 1.43809 -2.9067 0
M  V30 1105 H 114.843 -0.0178814 -3.92096 0
M  V30 1106 H 116.333 0.961951 -4.0637 0
M  V30 1107 N 116.77 1.45427 -0.607355 0
M  V30 1108 C 117.7 2.3329 0.0989352 0
M  V30 1109 C 118.681 1.46816 0.859007 0
M  V30 1110 O 119.866 1.75588 0.829604 0
M  V30 1111 C 116.996 3.29518 1.09705 0
M  V30 1112 C 115.95 4.25626 0.450206 0
M  V30 1113 C 115.276 5.11542 1.55655 0
M  V30 1114 C 116.576 5.18505 -0.628455 0
M  V30 1115 H 118.27 2.92595 -0.634716 0
M  V30 1116 H 115.816 1.40696 -0.306681 0
M  V30 1117 H 117.769 3.89855 1.59971 0
M  V30 1118 H 116.493 2.68372 1.86129 0
M  V30 1119 H 115.152 3.66586 -0.0315886 0
M  V30 1120 H 114.8 4.46765 2.31107 0
M  V30 1121 H 114.5 5.76647 1.12925 0
M  V30 1122 H 116.024 5.74748 2.06148 0
M  V30 1123 H 117.438 5.72916 -0.209877 0
M  V30 1124 H 115.835 5.92085 -0.977489 0
M  V30 1125 H 116.905 4.60948 -1.50514 0
M  V30 1126 N 118.248 0.346503 1.53744 0
M  V30 1127 C 119.476 -0.25041 2.05379 0
M  V30 1128 C 119.891 -1.43979 1.22129 0
M  V30 1129 O 119.248 -1.80677 0.257321 0
M  V30 1130 C 119.299 -0.662575 3.55376 0
M  V30 1131 O 119.02 0.479515 4.35468 0
M  V30 1132 C 120.521 -1.31989 4.23195 0
M  V30 1133 H 117.741 -0.0478198 0.669294 0
M  V30 1134 H 120.285 0.499346 1.9831 0
M  V30 1135 H 118.44 -1.36227 3.62658 0
M  V30 1136 H 118.854 0.15037 5.24284 0
M  V30 1137 H 120.328 -1.55902 5.29527 0
M  V30 1138 H 120.805 -2.27436 3.75725 0
M  V30 1139 H 121.411 -0.662154 4.20114 0
M  V30 1140 N 119.726 -1.57421 0.075193 0
M  V30 1141 C 120.954 -1.97946 -0.602076 0
M  V30 1142 C 121.369 -0.953674 -1.62943 0
M  V30 1143 O 120.726 0.0592551 -1.82404 0
M  V30 1144 C 120.777 -3.38546 -1.26762 0
M  V30 1145 O 120.498 -4.37195 -0.281376 0
M  V30 1146 C 121.999 -3.93966 -2.03239 0
M  V30 1147 H 119.219 -0.650918 -0.162931 0
M  V30 1148 H 121.763 -2.03959 0.148601 0
M  V30 1149 H 119.918 -3.33609 -1.96936 0
M  V30 1150 H 120.332 -5.18975 -0.759267 0
M  V30 1151 H 121.806 -4.94555 -2.45193 0
M  V30 1152 H 122.283 -3.30693 -2.8903 0
M  V30 1153 H 122.889 -4.02315 -1.37924 0
M  V30 1154 N 121.204 0.198386 -1.56346 0
M  V30 1155 C 122.432 0.935572 -1.84539 0
M  V30 1156 C 122.847 1.76989 -0.657281 0
M  V30 1157 O 122.204 1.78626 0.374043 0
M  V30 1158 C 122.255 1.8344 -3.11499 0
M  V30 1159 O 121.976 1.03377 -4.25728 0
M  V30 1160 C 123.477 2.68355 -3.52846 0
M  V30 1161 H 120.697 0.273126 -0.612897 0
M  V30 1162 H 123.241 0.20663 -2.03453 0
M  V30 1163 H 121.396 2.51701 -2.94492 0
M  V30 1164 H 121.81 1.64599 -4.98003 0
M  V30 1165 H 123.284 3.27085 -4.44657 0
M  V30 1166 H 123.761 3.41901 -2.75681 0
M  V30 1167 H 124.367 2.05471 -3.72373 0
M  V30 1168 N 122.682 1.50554 0.465978 0
M  V30 1169 C 123.929 1.61798 1.21768 0
M  V30 1170 C 124.257 0.320696 1.91838 0
M  V30 1171 O 123.512 -0.693724 1.82992 0
M  V30 1172 C 123.811 2.75152 2.28093 0
M  V30 1173 C 123.477 4.15454 1.75239 0
M  V30 1174 C 122.139 4.53628 1.60546 0
M  V30 1175 C 124.491 5.03121 1.36083 0
M  V30 1176 C 121.819 5.77204 1.05128 0
M  V30 1177 C 124.171 6.27249 0.821056 0
M  V30 1178 C 122.835 6.64221 0.660795 0
M  V30 1179 H 122.105 0.592063 0.445582 0
M  V30 1180 H 124.752 1.84503 0.512927 0
M  V30 1181 H 123.057 2.46556 3.04496 0
M  V30 1182 H 124.754 2.81055 2.86023 0
M  V30 1183 H 121.344 3.85341 1.87644 0
M  V30 1184 H 125.528 4.74257 1.46267 0
M  V30 1185 H 120.784 6.0452 0.91462 0
M  V30 1186 H 124.958 6.94537 0.509018 0
M  V30 1187 H 122.585 7.59854 0.229226 0
M  V30 1188 N 124.16 -0.719506 1.40217 0
M  V30 1189 C 125.388 -1.50864 1.41589 0
M  V30 1190 C 125.803 -1.88794 0.0145275 0
M  V30 1191 O 125.16 -1.55174 -0.960594 0
M  V30 1192 C 125.211 -2.78646 2.30302 0
M  V30 1193 O 124.932 -2.42321 3.64983 0
M  V30 1194 C 126.433 -3.72569 2.40224 0
M  V30 1195 H 123.653 -0.465709 0.48307 0
M  V30 1196 H 126.197 -0.88785 1.84221 0
M  V30 1197 H 124.352 -3.37019 1.91042 0
M  V30 1198 H 124.766 -3.24514 4.12057 0
M  V30 1199 H 126.24 -4.5908 3.06512 0
M  V30 1200 H 126.717 -4.15403 1.42608 0
M  V30 1201 H 127.323 -3.20109 2.80019 0
M  V30 1202 N 125.638 -1.25649 -0.95132 0
M  V30 1203 C 126.601 -1.06399 -2.03007 0
M  V30 1204 C 127.601 -0.0156794 -1.60792 0
M  V30 1205 O 128.791 -0.25817 -1.72276 0
M  V30 1206 C 125.923 -0.616184 -3.35285 0
M  V30 1207 H 127.116 -2.02164 -2.21517 0
M  V30 1208 H 124.669 -1.08103 -1.12887 0
M  V30 1209 H 125.404 0.343917 -3.22471 0
M  V30 1210 H 125.189 -1.37301 -3.67275 0
M  V30 1211 H 126.679 -0.503032 -4.14559 0
M  V30 1212 N 127.117 1.15442 -1.07289 0
M  V30 1213 C 128.342 1.90638 -0.816828 0
M  V30 1214 C 128.767 1.77445 0.624083 0
M  V30 1215 O 128.125 1.10671 1.43602 0
M  V30 1216 C 128.173 3.39008 -1.22906 0
M  V30 1217 O 127.277 4.10701 -0.373975 0
M  V30 1218 H 126.618 0.593555 -0.297638 0
M  V30 1219 H 129.148 1.46198 -1.43134 0
M  V30 1220 H 129.158 3.89801 -1.20497 0
M  V30 1221 H 127.833 3.47929 -2.27856 0
M  V30 1222 H 126.41 3.70046 -0.460499 0
M  V30 1223 N 128.595 0.856903 1.32268 0
M  V30 1224 C 129.527 0.260412 2.27716 0
M  V30 1225 C 130.54 -0.569137 1.52528 0
M  V30 1226 O 131.729 -0.39326 1.74114 0
M  V30 1227 C 128.829 -0.650477 3.32599 0
M  V30 1228 C 128.002 0.14372 4.37164 0
M  V30 1229 C 127.061 -0.69328 5.21613 0
M  V30 1230 O 126.087 -0.12599 5.69061 0
M  V30 1231 N 127.289 -2.00761 5.44679 0
M  V30 1232 H 130.054 1.08059 2.79541 0
M  V30 1233 H 127.615 0.717103 1.45152 0
M  V30 1234 H 129.607 -1.21581 3.86005 0
M  V30 1235 H 128.177 -1.37133 2.80915 0
M  V30 1236 H 127.397 0.890486 3.8401 0
M  V30 1237 H 128.685 0.68915 5.04111 0
M  V30 1238 H 128.083 -2.49181 5.07863 0
M  V30 1239 H 126.64 -2.52103 6.01072 0
M  V30 1240 N 130.073 -1.45103 0.615059 0
M  V30 1241 C 131.321 -2.01784 0.112955 0
M  V30 1242 C 131.642 -1.48504 -1.26378 0
M  V30 1243 O 130.912 -0.682245 -1.83636 0
M  V30 1244 H 129.492 -0.745993 0.0387668 0
M  V30 1245 H 132.154 -1.77808 0.798141 0
M  V30 1246 H 131.25 -3.12025 0.0684069 0
M  V30 1247 N 131.551 -0.354651 -1.53558 0
M  V30 1248 C 132.481 0.489091 -2.2832 0
M  V30 1249 C 133.462 1.09324 -1.30316 0
M  V30 1250 O 134.647 1.11255 -1.59173 0
M  V30 1251 C 131.777 1.63456 -3.0643 0
M  V30 1252 C 130.731 1.1582 -4.12031 0
M  V30 1253 C 130.057 2.39305 -4.7816 0
M  V30 1254 C 131.357 0.250731 -5.21698 0
M  V30 1255 H 133.051 -0.134614 -2.99097 0
M  V30 1256 H 130.597 -0.0661826 -1.43848 0
M  V30 1257 H 132.55 2.23136 -3.57475 0
M  V30 1258 H 131.274 2.28533 -2.33325 0
M  V30 1259 H 129.933 0.584146 -3.61916 0
M  V30 1260 H 129.581 3.02814 -4.01637 0
M  V30 1261 H 129.281 2.08109 -5.49513 0
M  V30 1262 H 130.805 2.99691 -5.31994 0
M  V30 1263 H 132.219 0.754695 -5.68311 0
M  V30 1264 H 130.616 0.0301468 -6.00092 0
M  V30 1265 H 131.686 -0.710125 -4.79672 0
M  V30 1266 N 133.029 1.57378 -0.0835403 0
M  V30 1267 C 133.959 2.1641 0.87686 0
M  V30 1268 C 134.94 1.09429 1.30228 0
M  V30 1269 O 136.125 1.37516 1.37124 0
M  V30 1270 C 133.255 2.73517 2.14022 0
M  V30 1271 C 132.209 3.85769 1.85381 0
M  V30 1272 C 131.535 4.29529 3.18448 0
M  V30 1273 C 132.835 5.09486 1.14984 0
M  V30 1274 H 134.529 2.96914 0.385059 0
M  V30 1275 H 132.075 1.42823 0.18377 0
M  V30 1276 H 134.028 3.13463 2.81636 0
M  V30 1277 H 132.752 1.90252 2.65465 0
M  V30 1278 H 131.411 3.46345 1.20169 0
M  V30 1279 H 131.059 3.43169 3.67755 0
M  V30 1280 H 130.759 5.05204 3.00071 0
M  V30 1281 H 132.283 4.72099 3.8724 0
M  V30 1282 H 133.697 5.46674 1.72687 0
M  V30 1283 H 132.094 5.90515 1.06826 0
M  V30 1284 H 133.164 4.84724 0.130749 0
M  V30 1285 N 134.507 -0.190092 1.56449 0
M  V30 1286 C 135.437 -1.23816 1.97969 0
M  V30 1287 C 136.418 -1.47201 0.852395 0
M  V30 1288 O 137.603 -1.58854 1.1171 0
M  V30 1289 C 134.733 -2.5813 2.3235 0
M  V30 1290 C 133.687 -2.49348 3.47864 0
M  V30 1291 C 133.013 -3.8798 3.67934 0
M  V30 1292 C 134.313 -2.01424 4.81898 0
M  V30 1293 H 136.007 -0.89311 2.85769 0
M  V30 1294 H 133.553 -0.428177 1.37487 0
M  V30 1295 H 135.506 -3.31637 2.59991 0
M  V30 1296 H 134.23 -2.94386 1.41438 0
M  V30 1297 H 132.889 -1.78297 3.20321 0
M  V30 1298 H 132.537 -4.21597 2.74344 0
M  V30 1299 H 132.237 -3.82978 4.45648 0
M  V30 1300 H 133.761 -4.63101 3.97957 0
M  V30 1301 H 135.175 -2.64693 5.08538 0
M  V30 1302 H 133.572 -2.07413 5.63116 0
M  V30 1303 H 134.642 -0.967677 4.75146 0
M  V30 1304 N 135.985 -1.50799 -0.457987 0
M  V30 1305 C 136.918 -1.65273 -1.57353 0
M  V30 1306 C 137.896 -0.500578 -1.54703 0
M  V30 1307 O 139.08 -0.721781 -1.74134 0
M  V30 1308 C 136.207 -1.64737 -2.95938 0
M  V30 1309 C 135.253 -2.8567 -3.16693 0
M  V30 1310 S 136.086 -4.46791 -2.95191 0
M  V30 1311 C 137.242 -4.48968 -4.36095 0
M  V30 1312 H 137.475 -2.59633 -1.44838 0
M  V30 1313 H 135.008 -1.40225 -0.64625 0
M  V30 1314 H 136.966 -1.65112 -3.7583 0
M  V30 1315 H 135.627 -0.715899 -3.05833 0
M  V30 1316 H 134.82 -2.81637 -4.17967 0
M  V30 1317 H 134.422 -2.8293 -2.44594 0
M  V30 1318 H 136.714 -4.23337 -5.28954 0
M  V30 1319 H 137.657 -5.50664 -4.45168 0
M  V30 1320 H 138.065 -3.78522 -4.18786 0
M  V30 1321 N 137.463 0.71206 -1.40597 0
M  V30 1322 C 138.712 1.46754 -1.38369 0
M  V30 1323 C 139.025 1.95598 0.0097839 0
M  V30 1324 O 140.231 2.71059 0.154677 0
M  V30 1325 C 138.687 2.65289 -2.43207 0
M  V30 1326 C 138.295 2.23301 -3.88382 0
M  V30 1327 C 140.039 3.43008 -2.50091 0
M  V30 1328 C 137.946 3.38696 -4.84808 0
M  V30 1329 H 136.876 0.55118 -0.514506 0
M  V30 1330 H 139.527 0.774616 -1.66349 0
M  V30 1331 H 137.909 3.36769 -2.08332 0
M  V30 1332 H 139.083 1.59218 -4.32419 0
M  V30 1333 H 137.398 1.58618 -3.85006 0
M  V30 1334 H 139.995 4.28881 -3.1932 0
M  V30 1335 H 140.338 3.87065 -1.53253 0
M  V30 1336 H 140.871 2.78574 -2.83974 0
M  V30 1337 H 137.61 2.99668 -5.82992 0
M  V30 1338 H 137.13 4.01683 -4.45433 0
M  V30 1339 H 138.809 4.04712 -5.04794 0
M  V30 1340 N 138.941 1.26152 0.944643 0
M  V30 1341 C 140.352 1.10454 1.50522 0
M  V30 1342 C 140.703 -0.31635 1.93633 0
M  V30 1343 O 139.828 -1.20746 1.79581 0
M  V30 1344 C 140.423 1.99891 2.73549 0
M  V30 1345 C 138.982 1.88348 3.25886 0
M  V30 1346 C 138.129 1.93447 1.9868 0
M  V30 1347 H 141.08 1.39292 0.760489 0
M  V30 1348 H 141.101 1.54477 3.47732 0
M  V30 1349 H 140.613 3.03297 2.42141 0
M  V30 1350 H 138.714 0.878636 3.62092 0
M  V30 1351 H 138.827 2.73696 3.93227 0
M  V30 1352 H 137.191 1.37456 2.14425 0
M  V30 1353 H 137.974 2.98476 1.69607 0
M  V30 1354 N 140.419 -1.14872 1.07899 0
M  V30 1355 C 141.367 -2.21857 0.698727 0
M  V30 1356 C 142.361 -1.66845 -0.293086 0
M  V30 1357 O 143.567 -1.79321 -0.156204 0
M  V30 1358 H 139.942 -0.722691 0.207899 0
M  V30 1359 H 141.913 -2.51205 1.61054 0
M  V30 1360 C 140.662 -3.47498 0.11858 0
M  V30 1361 H 139.985 -3.90154 0.872914 0
M  V30 1362 H 141.425 -4.23858 -0.109759 0
M  V30 1363 C 139.884 -3.16947 -1.1422 0
M  V30 1364 O 140.414 -3.3426 -2.22785 0
M  V30 1365 N 138.62 -2.70946 -1.05055 0
M  V30 1366 H 138.167 -2.57058 -0.167038 0
M  V30 1367 H 138.125 -2.50879 -1.89491 0
M  V30 1368 N 141.898 -0.863906 -1.31812 0
M  V30 1369 C 142.831 -0.259963 -2.26714 0
M  V30 1370 C 143.809 0.607392 -1.50829 0
M  V30 1371 O 144.993 0.562155 -1.79922 0
M  V30 1372 C 142.12 0.632456 -3.32743 0
M  V30 1373 C 141.166 -0.162743 -4.26189 0
M  V30 1374 S 141.999 -1.53726 -5.12961 0
M  V30 1375 C 143.155 -0.650803 -6.22507 0
M  V30 1376 H 143.388 -1.06445 -2.77591 0
M  V30 1377 H 140.921 -0.662071 -1.39485 0
M  V30 1378 H 142.879 1.14167 -3.94305 0
M  V30 1379 H 141.54 1.41083 -2.80632 0
M  V30 1380 H 140.733 0.517366 -5.01338 0
M  V30 1381 H 140.335 -0.60385 -3.69093 0
M  V30 1382 H 142.627 0.141134 -6.77353 0
M  V30 1383 H 143.57 -1.37322 -6.94657 0
M  V30 1384 H 143.978 -0.221041 -5.64067 0
M  V30 1385 N 143.376 1.44774 -0.622745 0
M  V30 1386 C 144.606 2.06187 -0.130532 0
M  V30 1387 C 145.014 1.46547 1.19669 0
M  V30 1388 O 144.357 0.579636 1.74316 0
M  V30 1389 C 144.419 3.59437 0.0674983 0
M  V30 1390 C 144.083 4.41496 -1.18026 0
M  V30 1391 C 145.08 4.75512 -2.102 0
M  V30 1392 C 142.765 4.82007 -1.41333 0
M  V30 1393 C 144.759 5.48912 -3.23998 0
M  V30 1394 C 142.446 5.55157 -2.55429 0
M  V30 1395 C 143.444 5.88528 -3.46589 0
M  V30 1396 O 143.132 6.60191 -4.58697 0
M  V30 1397 H 142.864 0.672045 -0.0730162 0
M  V30 1398 H 145.418 1.86768 -0.854802 0
M  V30 1399 H 143.648 3.77314 0.846825 0
M  V30 1400 H 145.337 4.02642 0.513209 0
M  V30 1401 H 146.103 4.4476 -1.93425 0
M  V30 1402 H 141.982 4.55457 -0.712709 0
M  V30 1403 H 145.526 5.74877 -3.95174 0
M  V30 1404 H 141.423 5.85324 -2.72151 0
M  V30 1405 H 142.191 6.78654 -4.57571 0
M  V30 1406 N 144.854 0.36279 1.53368 0
M  V30 1407 C 145.801 -0.485008 2.25646 0
M  V30 1408 C 146.771 -1.07982 1.2621 0
M  V30 1409 O 147.956 -1.11284 1.54986 0
M  V30 1410 C 145.096 -1.62023 3.04701 0
M  V30 1411 C 144.209 -1.05086 4.19024 0
M  V30 1412 C 143.344 -2.15496 4.85525 0
M  V30 1413 C 142.383 -1.5601 5.91884 0
M  V30 1414 N 141.52 -2.60241 6.52088 0
M  V30 1415 H 146.36 0.137864 2.97681 0
M  V30 1416 H 143.897 0.0798061 1.46883 0
M  V30 1417 H 145.855 -2.28887 3.48807 0
M  V30 1418 H 144.485 -2.2138 2.34927 0
M  V30 1419 H 143.537 -0.27259 3.79422 0
M  V30 1420 H 144.849 -0.575926 4.95464 0
M  V30 1421 H 144.003 -2.90186 5.32801 0
M  V30 1422 H 142.742 -2.66341 4.08551 0
M  V30 1423 H 141.747 -0.798338 5.43973 0
M  V30 1424 H 142.972 -1.05994 6.70777 0
M  V30 1425 H 140.918 -3.10304 5.77968 0
M  V30 1426 H 140.835 -2.17426 7.24059 0
M  V30 1427 H 142.103 -3.34641 7.04014 0
M  V30 1428 N 146.332 -1.57332 0.0918853 0
M  V30 1429 C 147.581 -1.93412 -0.572249 0
M  V30 1430 C 147.894 -0.975515 -1.69538 0
M  V30 1431 O 149.1 -1.22991 -2.42045 0
M  V30 1432 C 147.556 -3.43648 -1.0693 0
M  V30 1433 C 147.164 -4.47994 0.0239049 0
M  V30 1434 C 148.908 -3.88695 -1.70635 0
M  V30 1435 C 146.815 -5.89381 -0.488319 0
M  V30 1436 H 145.745 -0.721939 -0.217532 0
M  V30 1437 H 148.396 -1.82735 0.167369 0
M  V30 1438 H 146.778 -3.49466 -1.8625 0
M  V30 1439 H 147.952 -4.53815 0.799277 0
M  V30 1440 H 146.267 -4.12536 0.565946 0
M  V30 1441 H 148.864 -4.91725 -2.10025 0
M  V30 1442 H 149.207 -3.27166 -2.57426 0
M  V30 1443 H 149.74 -3.85564 -0.979023 0
M  V30 1444 H 146.479 -6.54602 0.342906 0
M  V30 1445 H 145.999 -5.87037 -1.23077 0
M  V30 1446 H 147.678 -6.39863 -0.958317 0
M  V30 1447 N 147.81 0.181792 -1.56548 0
M  V30 1448 C 149.035 0.920019 -1.85877 0
M  V30 1449 C 149.46 1.75494 -0.677021 0
M  V30 1450 O 148.818 1.77399 0.374056 0
M  V30 1451 C 148.866 1.78112 -3.13542 0
M  V30 1452 O 147.97 2.88152 -2.95029 0
M  V30 1453 H 147.311 0.258334 -0.611686 0
M  V30 1454 H 149.841 0.183092 -2.03779 0
M  V30 1455 H 149.851 2.18314 -3.44678 0
M  V30 1456 H 148.526 1.16777 -3.99169 0
M  V30 1457 H 147.103 2.51609 -2.75222 0
M  V30 1458 N 149.288 1.51039 0.449983 0
M  V30 1459 C 150.536 1.62759 1.19808 0
M  V30 1460 C 150.857 0.339981 1.92013 0
M  V30 1461 O 150.127 -0.643606 1.85026 0
M  V30 1462 H 148.707 0.599811 0.445237 0
M  V30 1463 H 151.369 1.87914 0.517138 0
M  V30 1464 H 150.465 2.44911 1.93455 0
M  V30 1465 N 150.766 -0.704594 1.40972 0
M  V30 1466 C 151.676 -1.84856 1.44448 0
M  V30 1467 C 152.692 -1.70726 0.335961 0
M  V30 1468 O 153.868 -1.92799 0.582276 0
M  V30 1469 C 150.933 -3.20758 1.31587 0
M  V30 1470 C 149.994 -3.47063 2.52677 0
M  V30 1471 C 149.227 -4.76481 2.4042 0
M  V30 1472 O 149.45 -5.52341 1.42391 0
M  V30 1473 O 148.384 -5.03367 3.30007 0
M  V30 1474 H 152.21 -1.8488 2.40942 0
M  V30 1475 H 149.795 -0.85647 1.22413 0
M  V30 1476 H 151.677 -4.01913 1.26665 0
M  V30 1477 H 150.352 -3.21438 0.382049 0
M  V30 1478 H 149.259 -2.65873 2.63177 0
M  V30 1479 H 150.592 -3.5119 3.44858 0
M  V30 1480 N 152.244 -1.26651 -0.937939 0
M  V30 1481 C 153.174 -1.10993 -2.05433 0
M  V30 1482 C 154.155 -0.0142161 -1.70094 0
M  V30 1483 O 155.34 -0.186837 -1.93299 0
M  V30 1484 C 152.47 -0.745561 -3.39203 0
M  V30 1485 C 151.424 -1.79337 -3.88616 0
M  V30 1486 C 150.75 -1.28324 -5.19073 0
M  V30 1487 C 152.05 -3.19553 -4.13138 0
M  V30 1488 H 153.744 -2.0438 -2.1879 0
M  V30 1489 H 151.29 -0.984041 -1.05131 0
M  V30 1490 H 153.243 -0.622888 -4.16771 0
M  V30 1491 H 151.967 0.22401 -3.25831 0
M  V30 1492 H 150.626 -1.90477 -3.13231 0
M  V30 1493 H 150.274 -0.303414 -5.02084 0
M  V30 1494 H 149.974 -1.98369 -5.53103 0
M  V30 1495 H 151.498 -1.1733 -5.99221 0
M  V30 1496 H 152.912 -3.11471 -4.81309 0
M  V30 1497 H 151.309 -3.87218 -4.58457 0
M  V30 1498 H 152.379 -3.65368 -3.18801 0
M  V30 1499 N 153.722 1.14298 -1.08507 0
M  V30 1500 C 154.652 2.21542 -0.737646 0
M  V30 1501 C 155.633 1.67773 0.280377 0
M  V30 1502 O 156.818 1.93616 0.150521 0
M  V30 1503 C 153.948 3.46988 -0.147259 0
M  V30 1504 C 152.902 4.13789 -1.09374 0
M  V30 1505 C 152.228 5.33449 -0.365524 0
M  V30 1506 C 153.528 4.62208 -2.4323 0
M  V30 1507 H 155.222 2.5086 -1.6343 0
M  V30 1508 H 152.768 1.20576 -0.787243 0
M  V30 1509 H 154.721 4.21262 0.107808 0
M  V30 1510 H 153.445 3.17037 0.784538 0
M  V30 1511 H 152.104 3.4147 -1.33393 0
M  V30 1512 H 151.752 4.99759 0.57011 0
M  V30 1513 H 151.452 5.79088 -0.996512 0
M  V30 1514 H 152.976 6.10485 -0.118534 0
M  V30 1515 H 154.39 5.27952 -2.23472 0
M  V30 1516 H 152.787 5.18553 -3.02031 0
M  V30 1517 H 153.857 3.77224 -3.04681 0
M  V30 1518 N 155.201 0.870884 1.31352 0
M  V30 1519 C 156.612 0.534714 1.78879 0
M  V30 1520 C 156.963 -0.948423 1.71754 0
M  V30 1521 O 156.088 -1.74055 1.28584 0
M  V30 1522 C 156.683 0.963839 3.24801 0
M  V30 1523 C 155.242 0.679311 3.70219 0
M  V30 1524 C 154.389 1.15465 2.52117 0
M  V30 1525 H 157.34 1.05651 1.18421 0
M  V30 1526 H 157.361 0.286892 3.79417 0
M  V30 1527 H 156.873 2.04332 3.29955 0
M  V30 1528 H 154.974 -0.388769 3.70566 0
M  V30 1529 H 155.087 1.25698 4.62317 0
M  V30 1530 H 153.451 0.574383 2.48139 0
M  V30 1531 H 154.234 2.24157 2.60016 0
M  V30 1532 N 156.679 -1.44442 0.630414 0
M  V30 1533 C 157.927 -2.01653 0.134351 0
M  V30 1534 C 158.248 -1.49836 -1.24796 0
M  V30 1535 O 157.518 -0.701684 -1.82902 0
M  V30 1536 H 156.098 -0.74554 0.0466769 0
M  V30 1537 H 158.76 -1.76952 0.816955 0
M  V30 1538 H 157.856 -3.11935 0.101498 0
M  V30 1539 N 158.157 -0.370918 -1.53173 0
M  V30 1540 C 159.403 0.217423 -2.01631 0
M  V30 1541 C 159.736 1.47983 -1.25756 0
M  V30 1542 O 159.011 1.91274 -0.352764 0
M  V30 1543 C 159.294 0.503982 -3.56556 0
M  V30 1544 C 159.147 -0.77243 -4.43118 0
M  V30 1545 C 160.466 1.30234 -4.20389 0
M  V30 1546 H 157.585 0.0775486 -0.732909 0
M  V30 1547 H 160.227 -0.496863 -1.83388 0
M  V30 1548 H 158.377 1.11248 -3.72231 0
M  V30 1549 H 160.049 -1.4098 -4.39229 0
M  V30 1550 H 158.292 -1.39167 -4.10871 0
M  V30 1551 H 158.963 -0.526815 -5.4948 0
M  V30 1552 H 161.439 0.787546 -4.08579 0
M  V30 1553 H 160.315 1.47158 -5.28806 0
M  V30 1554 H 160.576 2.31237 -3.76805 0
M  V30 1555 N 159.635 1.57281 -0.100228 0
M  V30 1556 C 160.882 1.94537 0.562268 0
M  V30 1557 C 161.21 0.982315 1.67871 0
M  V30 1558 O 160.465 0.00280936 1.957 0
M  V30 1559 C 160.764 3.38305 1.15259 0
M  V30 1560 C 160.43 4.50618 0.159409 0
M  V30 1561 C 159.092 4.81066 -0.113741 0
M  V30 1562 C 161.444 5.18615 -0.518461 0
M  V30 1563 C 158.772 5.76835 -1.07137 0
M  V30 1564 C 161.124 6.15412 -1.46459 0
M  V30 1565 C 159.788 6.44262 -1.74592 0
M  V30 1566 H 159.058 0.711863 0.205748 0
M  V30 1567 H 161.705 1.90679 -0.17715 0
M  V30 1568 H 160.01 3.38766 1.96836 0
M  V30 1569 H 161.707 3.64435 1.67297 0
M  V30 1570 H 158.297 4.2689 0.382491 0
M  V30 1571 H 162.481 4.95264 -0.320581 0
M  V30 1572 H 157.737 5.975 -1.29628 0
M  V30 1573 H 161.911 6.67194 -1.99564 0
M  V30 1574 H 159.538 7.1828 -2.48953 0
M  V30 1575 N 161.113 -0.173488 1.56642 0
M  V30 1576 C 162.063 -1.21941 1.92651 0
M  V30 1577 C 163.047 -1.39912 0.794577 0
M  V30 1578 O 164.239 -1.41919 1.05773 0
M  V30 1579 C 161.368 -2.55935 2.28806 0
M  V30 1580 C 160.454 -2.41667 3.48508 0
M  V30 1581 N 160.845 -1.9711 4.65813 0
M  V30 1582 C 159.143 -2.72499 3.53072 0
M  V30 1583 C 159.844 -1.95253 5.47952 0
M  V30 1584 N 158.82 -2.37575 4.88937 0
M  V30 1585 H 162.622 -0.866581 2.80834 0
M  V30 1586 H 160.136 -0.381776 1.57849 0
M  V30 1587 H 162.133 -3.31511 2.52797 0
M  V30 1588 H 160.793 -2.92022 1.41961 0
M  V30 1589 H 161.804 -1.67481 4.90072 0
M  V30 1590 H 158.481 -3.12639 2.767 0
M  V30 1591 H 159.871 -1.6252 6.51948 0
M  V30 1592 N 162.591 -1.51276 -0.441967 0
M  V30 1593 C 163.837 -1.63958 -1.19355 0
M  V30 1594 C 164.17 -0.352543 -1.90973 0
M  V30 1595 O 163.445 0.647627 -1.83401 0
M  V30 1596 C 163.728 -2.83979 -2.21422 0
M  V30 1597 C 163.581 -4.22646 -1.53918 0
M  V30 1598 C 164.9 -2.99521 -3.22451 0
M  V30 1599 H 162.019 -0.596709 -0.432559 0
M  V30 1600 H 164.661 -1.83748 -0.483398 0
M  V30 1601 H 162.811 -2.67237 -2.81987 0
M  V30 1602 H 164.483 -4.51045 -0.967256 0
M  V30 1603 H 162.726 -4.25558 -0.841615 0
M  V30 1604 H 163.397 -5.02609 -2.28229 0
M  V30 1605 H 165.873 -3.14944 -2.71937 0
M  V30 1606 H 164.749 -3.85072 -3.91166 0
M  V30 1607 H 165.01 -2.11391 -3.88287 0
M  V30 1608 N 164.069 0.697108 -1.41344 0
M  V30 1609 C 165.297 1.48593 -1.43972 0
M  V30 1610 C 165.712 1.88747 -0.0445612 0
M  V30 1611 O 165.069 1.56682 0.935785 0
M  V30 1612 C 165.12 2.74946 -2.34706 0
M  V30 1613 O 164.841 2.36484 -3.68791 0
M  V30 1614 C 166.342 3.687 -2.46121 0
M  V30 1615 H 163.562 0.457964 -0.490418 0
M  V30 1616 H 166.106 0.858429 -1.8561 0
M  V30 1617 H 164.261 3.33937 -1.9638 0
M  V30 1618 H 164.675 3.17918 -4.17167 0
M  V30 1619 H 166.149 4.54145 -3.13777 0
M  V30 1620 H 166.626 4.13081 -1.49199 0
M  V30 1621 H 167.232 3.15613 -2.85076 0
M  V30 1622 N 165.547 1.27147 0.931209 0
M  V30 1623 C 166.51 1.09615 2.01289 0
M  V30 1624 C 167.51 0.0412581 1.60747 0
M  V30 1625 O 168.7 0.285545 1.71844 0
M  V30 1626 C 165.832 0.669447 3.34262 0
M  V30 1627 H 167.025 2.05662 2.18273 0
M  V30 1628 H 164.578 1.09885 1.11153 0
M  V30 1629 H 165.313 -0.292572 3.22978 0
M  V30 1630 H 165.098 1.43127 3.65044 0
M  V30 1631 H 166.588 0.568921 4.13706 0
M  V30 1632 N 167.025 -1.13721 1.09112 0
M  V30 1633 C 168.441 -1.36914 0.820174 0
M  V30 1634 C 168.641 -1.93356 -0.567079 0
M  V30 1635 O 167.697 -2.15093 -1.32255 0
M  V30 1636 C 169.01 -2.3235 1.90877 0
M  V30 1637 C 170.558 -2.45973 1.93562 0
M  V30 1638 C 171.033 -3.44714 3.01556 0
M  V30 1639 N 172.524 -3.52263 3.00775 0
M  V30 1640 C 173.259 -4.28536 3.80978 0
M  V30 1641 N 172.755 -5.07991 4.71081 0
M  V30 1642 N 174.548 -4.23804 3.69251 0
M  V30 1643 H 166.699 -0.754348 1.98553 0
M  V30 1644 H 168.962 -0.3944 0.862063 0
M  V30 1645 H 168.668 -1.98027 2.90651 0
M  V30 1646 H 168.542 -3.32332 1.78424 0
M  V30 1647 H 170.929 -2.79584 0.944286 0
M  V30 1648 H 171.01 -1.45926 2.10093 0
M  V30 1649 H 170.654 -3.11835 4.00901 0
M  V30 1650 H 170.584 -4.44558 2.82269 0
M  V30 1651 H 173.075 -2.95567 2.35475 0
M  V30 1652 H 173.388 -5.63487 5.28869 0
M  V30 1653 H 171.733 -5.07235 4.75119 0
M  V30 1654 H 174.924 -3.60806 2.98222 0
M  V30 1655 H 175.097 -4.82995 4.31995 0
M  V30 1656 N 168.503 -0.877838 -1.30888 0
M  V30 1657 C 169.466 -0.344265 -2.266 0
M  V30 1658 C 170.466 0.50922 -1.52524 0
M  V30 1659 O 171.656 0.317398 -1.71284 0
M  V30 1660 C 168.788 0.510198 -3.37061 0
M  V30 1661 H 169.981 -1.1893 -2.7531 0
M  V30 1662 H 167.534 -0.654088 -1.41956 0
M  V30 1663 H 168.269 1.37612 -2.93655 0
M  V30 1664 H 168.054 -0.101047 -3.9197 0
M  V30 1665 H 169.544 0.875537 -4.08319 0
M  V30 1666 N 169.982 1.44106 -0.638065 0
M  V30 1667 C 171.231 2.01194 -0.142744 0
M  V30 1668 C 171.544 1.50835 1.24532 0
M  V30 1669 O 172.75 2.00096 1.83504 0
M  V30 1670 C 171.206 3.59319 -0.20442 0
M  V30 1671 C 170.814 4.18674 -1.59423 0
M  V30 1672 C 172.558 4.23854 0.234079 0
M  V30 1673 C 170.465 5.69045 -1.61065 0
M  V30 1674 H 169.395 0.752367 -0.0495998 0
M  V30 1675 H 172.046 1.65246 -0.797881 0
M  V30 1676 H 170.428 3.92598 0.517946 0
M  V30 1677 H 171.602 3.96921 -2.34074 0
M  V30 1678 H 169.917 3.66453 -1.97741 0
M  V30 1679 H 172.514 5.34155 0.241443 0
M  V30 1680 H 172.857 3.96688 1.2627 0
M  V30 1681 H 173.39 3.95403 -0.436025 0
M  V30 1682 H 170.129 6.00956 -2.61787 0
M  V30 1683 H 169.649 5.929 -0.90718 0
M  V30 1684 H 171.328 6.32809 -1.34766 0
M  V30 1685 N 171.46 0.379036 1.52974 0
M  V30 1686 C 172.423 -0.448865 2.24762 0
M  V30 1687 C 173.423 -0.998689 1.26027 0
M  V30 1688 O 174.613 -0.882313 1.50203 0
M  V30 1689 C 171.745 -1.62872 2.99476 0
M  V30 1690 H 172.938 0.179491 2.99362 0
M  V30 1691 H 170.491 0.13096 1.5575 0
M  V30 1692 H 171.226 -2.29479 2.29151 0
M  V30 1693 H 171.011 -1.24128 3.71934 0
M  V30 1694 H 172.501 -2.2151 3.5401 0
M  V30 1695 N 172.938 -1.57226 0.108567 0
M  V30 1696 C 173.901 -2.13602 -0.831082 0
M  V30 1697 C 174.901 -1.06841 -1.20173 0
M  V30 1698 O 176.091 -1.32666 -1.12895 0
M  V30 1699 C 173.223 -2.66769 -2.12243 0
M  V30 1700 H 174.416 -2.97951 -0.341317 0
M  V30 1701 H 171.969 -1.55667 -0.14057 0
M  V30 1702 H 172.704 -1.85977 -2.65675 0
M  V30 1703 H 172.489 -3.44839 -1.86625 0
M  V30 1704 H 173.979 -3.10332 -2.79435 0
M  V30 1705 N 174.416 0.165178 -1.56732 0
M  V30 1706 C 175.366 1.20917 -1.93295 0
M  V30 1707 C 176.35 1.39488 -0.801985 0
M  V30 1708 O 177.542 1.41356 -1.06525 0
M  V30 1709 C 174.671 2.54718 -2.3016 0
M  V30 1710 C 173.757 2.39815 -3.49785 0
M  V30 1711 N 174.148 1.94637 -4.66851 0
M  V30 1712 C 172.446 2.70623 -3.54513 0
M  V30 1713 C 173.147 1.92344 -5.4898 0
M  V30 1714 N 172.123 2.34978 -4.9019 0
M  V30 1715 H 175.925 0.851675 -2.81289 0
M  V30 1716 H 173.439 0.373399 -1.58049 0
M  V30 1717 H 175.436 3.30165 -2.54552 0
M  V30 1718 H 174.096 2.91265 -1.43508 0
M  V30 1719 H 175.107 1.6488 -4.90953 0
M  V30 1720 H 171.784 3.11167 -2.78354 0
M  V30 1721 H 173.174 1.5906 -6.52801 0
M  V30 1722 N 175.894 1.51508 0.433938 0
M  V30 1723 C 176.857 1.72473 1.50949 0
M  V30 1724 C 177.857 0.594725 1.49398 0
M  V30 1725 O 179.047 0.862315 1.5136 0
M  V30 1726 C 176.179 1.78431 2.90474 0
M  V30 1727 H 177.372 2.68467 1.33662 0
M  V30 1728 H 174.925 1.41549 0.662836 0
M  V30 1729 H 175.66 0.842645 3.13161 0
M  V30 1730 H 175.445 2.60558 2.93005 0
M  V30 1731 H 176.935 1.96479 3.68491 0
M  V30 1732 N 177.372 -0.689602 1.41712 0
M  V30 1733 C 178.302 -1.81577 1.46806 0
M  V30 1734 C 179.283 -1.66945 0.326105 0
M  V30 1735 O 180.468 -1.86588 0.538377 0
M  V30 1736 C 177.598 -3.19762 1.35535 0
M  V30 1737 C 176.552 -3.49107 2.47605 0
M  V30 1738 C 175.878 -4.86711 2.21397 0
M  V30 1739 C 177.178 -3.47483 3.89939 0
M  V30 1740 H 178.872 -1.7757 2.41058 0
M  V30 1741 H 176.418 -0.852887 1.16025 0
M  V30 1742 H 178.371 -3.98263 1.3771 0
M  V30 1743 H 177.095 -3.24409 0.377708 0
M  V30 1744 H 175.754 -2.72959 2.44722 0
M  V30 1745 H 175.402 -4.8799 1.21961 0
M  V30 1746 H 175.102 -5.0731 2.96497 0
M  V30 1747 H 176.626 -5.67515 2.25297 0
M  V30 1748 H 178.04 -4.1598 3.94505 0
M  V30 1749 H 176.437 -3.79615 4.64771 0
M  V30 1750 H 177.507 -2.46341 4.17665 0
M  V30 1751 N 178.85 -1.27639 -0.924453 0
M  V30 1752 C 180.075 -1.17101 -1.71179 0
M  V30 1753 C 180.5 0.268134 -1.86179 0
M  V30 1754 O 179.858 1.19415 -1.36418 0
M  V30 1755 C 179.906 -1.86313 -3.08739 0
M  V30 1756 O 179.01 -1.16331 -3.95652 0
M  V30 1757 H 178.351 -0.407091 -0.524569 0
M  V30 1758 H 180.881 -1.68767 -1.15666 0
M  V30 1759 H 180.891 -1.938 -3.59034 0
M  V30 1760 H 179.566 -2.91001 -2.97138 0
M  V30 1761 H 178.143 -1.16935 -3.54091 0
M  V30 1762 N 180.328 1.1314 -1.09713 0
M  V30 1763 C 181.577 1.83838 -0.829851 0
M  V30 1764 C 181.89 1.84599 0.646728 0
M  V30 1765 O 183.096 2.51218 1.02965 0
M  V30 1766 C 181.552 3.30069 -1.43466 0
M  V30 1767 C 181.16 3.37688 -2.94399 0
M  V30 1768 C 182.904 4.05788 -1.24645 0
M  V30 1769 C 180.811 4.78209 -3.47952 0
M  V30 1770 H 179.741 0.68877 -0.306777 0
M  V30 1771 H 182.392 1.27448 -1.3202 0
M  V30 1772 H 180.774 3.8628 -0.871996 0
M  V30 1773 H 181.948 2.91456 -3.56918 0
M  V30 1774 H 180.263 2.75436 -3.12289 0
M  V30 1775 H 182.86 5.09535 -1.62107 0
M  V30 1776 H 183.203 4.15878 -0.187357 0
M  V30 1777 H 183.736 3.55915 -1.77678 0
M  V30 1778 H 180.475 4.73311 -4.53495 0
M  V30 1779 H 179.995 5.24924 -2.90198 0
M  V30 1780 H 181.674 5.47133 -3.45332 0
M  V30 1781 N 181.806 0.884767 1.30421 0
M  V30 1782 C 183.053 0.503105 1.96151 0
M  V30 1783 C 183.381 -0.947676 1.69851 0
M  V30 1784 O 182.636 -1.68467 0.995861 0
M  V30 1785 C 182.935 0.724318 3.49983 0
M  V30 1786 C 182.601 2.15015 3.96332 0
M  V30 1787 C 181.263 2.54005 4.08699 0
M  V30 1788 C 183.615 3.07936 4.20505 0
M  V30 1789 C 180.943 3.85128 4.42599 0
M  V30 1790 C 183.295 4.3859 4.55874 0
M  V30 1791 C 181.959 4.77474 4.66449 0
M  V30 1792 H 181.229 0.184099 0.717766 0
M  V30 1793 H 183.876 1.12058 1.55291 0
M  V30 1794 H 182.181 0.0238086 3.91793 0
M  V30 1795 H 183.878 0.408617 3.98913 0
M  V30 1796 H 180.468 1.8375 3.87213 0
M  V30 1797 H 184.652 2.79033 4.10431 0
M  V30 1798 H 179.908 4.14996 4.48986 0
M  V30 1799 H 184.082 5.10629 4.7353 0
M  V30 1800 H 181.709 5.79115 4.92473 0
M  V30 1801 N 183.284 -1.43765 0.645699 0
M  V30 1802 C 184.532 -2.01499 0.155731 0
M  V30 1803 C 184.853 -1.51151 -1.232 0
M  V30 1804 O 184.123 -0.721044 -1.82148 0
M  V30 1805 H 182.703 -0.745003 0.0545817 0
M  V30 1806 H 185.365 -1.76075 0.835677 0
M  V30 1807 H 184.461 -3.1181 0.134577 0
M  V30 1808 N 184.763 -0.387143 -1.52771 0
M  V30 1809 C 186.04 0.253197 -1.93954 0
M  V30 1810 C 186.42 1.64545 -1.32243 0
M  V30 1811 O 185.768 2.23191 -0.489699 0
M  V30 1812 C 185.978 0.281722 -3.47861 0
M  V30 1813 C 187.326 0.511715 -4.21505 0
M  V30 1814 O 188.35 0.362023 -3.54356 0
M  V30 1815 O 187.209 0.804847 -5.40541 0
M  V30 1816 H 184.303 0.156845 -0.811991 0
M  V30 1817 H 186.849 -0.441494 -1.63856 0
M  V30 1818 H 185.621 -0.693571 -3.85104 0
M  V30 1819 H 185.244 1.02142 -3.84256 0
M  V30 1820 N 186.241 1.57166 -0.116904 0
M  V30 1821 C 187.191 2.11756 0.845178 0
M  V30 1822 C 188.175 1.03783 1.22955 0
M  V30 1823 O 189.367 1.3002 1.20099 0
M  V30 1824 C 186.496 2.71886 2.09602 0
M  V30 1825 C 185.582 3.86937 1.7361 0
M  V30 1826 N 185.973 4.94073 1.08284 0
M  V30 1827 C 184.271 3.97082 2.03082 0
M  V30 1828 C 184.972 5.74477 0.913855 0
M  V30 1829 N 183.948 5.2423 1.43818 0
M  V30 1830 H 187.75 2.91967 0.336523 0
M  V30 1831 H 185.264 1.62174 0.0856332 0
M  V30 1832 H 187.261 3.09338 2.79492 0
M  V30 1833 H 185.921 1.93138 2.61013 0
M  V30 1834 H 186.932 5.12483 0.747067 0
M  V30 1835 H 183.609 3.29372 2.56554 0
M  V30 1836 H 184.999 6.70701 0.40125 0
M  V30 1837 N 187.719 -0.156864 1.56817 0
M  V30 1838 C 188.651 -1.21883 1.94106 0
M  V30 1839 C 189.664 -1.3971 0.835754 0
M  V30 1840 O 190.853 -1.39457 1.11418 0
M  V30 1841 C 187.953 -2.58527 2.19127 0
M  V30 1842 C 187.126 -2.61809 3.50393 0
M  V30 1843 C 186.185 -3.7992 3.64071 0
M  V30 1844 O 185.211 -3.65249 4.36557 0
M  V30 1845 N 186.413 -4.96973 2.99997 0
M  V30 1846 H 189.178 -0.901974 2.85805 0
M  V30 1847 H 186.739 -0.346513 1.58148 0
M  V30 1848 H 188.731 -3.36034 2.25529 0
M  V30 1849 H 187.301 -2.82545 1.33742 0
M  V30 1850 H 186.521 -1.7029 3.5552 0
M  V30 1851 H 187.809 -2.61024 4.36742 0
M  V30 1852 H 187.207 -5.11794 2.41004 0
M  V30 1853 H 185.764 -5.7229 3.11974 0
M  V30 1854 N 189.197 -1.51736 -0.425897 0
M  V30 1855 C 190.474 -1.55519 -1.1863 0
M  V30 1856 C 190.854 -0.326219 -2.08564 0
M  V30 1857 O 190.202 0.688012 -2.17896 0
M  V30 1858 C 190.412 -2.87521 -1.9782 0
M  V30 1859 C 191.76 -3.39899 -2.54468 0
M  V30 1860 O 192.784 -2.89148 -2.08019 0
M  V30 1861 O 191.643 -4.2848 -3.39215 0
M  V30 1862 H 188.737 -0.625739 -0.540721 0
M  V30 1863 H 191.283 -1.64055 -0.434038 0
M  V30 1864 H 190.055 -3.68422 -1.31836 0
M  V30 1865 H 189.678 -2.822 -2.80088 0
M  V30 1866 N 190.675 0.682077 -1.42076 0
M  V30 1867 C 191.924 1.43786 -1.41451 0
M  V30 1868 C 192.237 1.95574 -0.0317074 0
M  V30 1869 O 193.443 2.71326 0.0971462 0
M  V30 1870 C 191.899 2.60071 -2.48779 0
M  V30 1871 C 191.507 2.15013 -3.93031 0
M  V30 1872 C 193.251 3.37626 -2.57311 0
M  V30 1873 C 191.158 3.28336 -4.91883 0
M  V30 1874 H 190.088 0.540143 -0.526082 0
M  V30 1875 H 192.739 0.739157 -1.67955 0
M  V30 1876 H 191.121 3.32275 -2.15429 0
M  V30 1877 H 192.295 1.5001 -4.35699 0
M  V30 1878 H 190.61 1.50416 -3.88284 0
M  V30 1879 H 193.207 4.22012 -3.28345 0
M  V30 1880 H 193.55 3.83727 -1.61429 0
M  V30 1881 H 194.083 2.72488 -2.89819 0
M  V30 1882 H 190.822 2.87234 -5.89217 0
M  V30 1883 H 190.342 3.92145 -4.53853 0
M  V30 1884 H 192.021 3.93913 -5.13265 0
M  V30 1885 N 192.153 1.28127 0.917671 0
M  V30 1886 C 193.383 1.17722 1.6978 0
M  V30 1887 C 193.791 -0.267261 1.87303 0
M  V30 1888 O 193.134 -1.19286 1.39702 0
M  V30 1889 C 193.196 1.79958 3.11216 0
M  V30 1890 C 192.86 3.29187 3.16993 0
M  V30 1891 C 193.857 4.25679 2.98485 0
M  V30 1892 C 191.542 3.70075 3.39632 0
M  V30 1893 C 193.536 5.61035 3.02521 0
M  V30 1894 C 191.223 5.05557 3.433 0
M  V30 1895 C 192.221 6.00847 3.24764 0
M  V30 1896 O 191.909 7.33859 3.28187 0
M  V30 1897 H 191.641 0.409788 0.537634 0
M  V30 1898 H 194.195 1.69694 1.15728 0
M  V30 1899 H 192.425 1.22475 3.66793 0
M  V30 1900 H 194.114 1.64125 3.71238 0
M  V30 1901 H 194.88 3.95426 2.80826 0
M  V30 1902 H 190.759 2.96373 3.53106 0
M  V30 1903 H 194.303 6.35388 2.87971 0
M  V30 1904 H 190.2 5.35462 3.60486 0
M  V30 1905 H 190.968 7.42436 3.44575 0
M  V30 1906 N 193.631 -1.12557 1.10312 0
M  V30 1907 C 194.594 -2.16434 0.75424 0
M  V30 1908 C 195.594 -1.59278 -0.220685 0
M  V30 1909 O 196.784 -1.742 0.00230591 0
M  V30 1910 C 193.916 -3.40699 0.116987 0
M  V30 1911 H 195.109 -2.48811 1.67431 0
M  V30 1912 H 192.662 -1.27542 0.903475 0
M  V30 1913 H 193.397 -3.13921 -0.813877 0
M  V30 1914 H 193.182 -3.83459 0.818613 0
M  V30 1915 H 194.672 -4.17451 -0.111387 0
M  V30 1916 N 195.109 -0.891671 -1.2995 0
M  V30 1917 C 196.072 -0.36828 -2.26222 0
M  V30 1918 C 197.072 0.493014 -1.53056 0
M  V30 1919 O 198.262 0.299213 -1.71611 0
M  V30 1920 C 195.394 0.47442 -3.37583 0
M  V30 1921 H 196.587 -1.21844 -2.74033 0
M  V30 1922 H 194.14 -0.669107 -1.41254 0
M  V30 1923 H 194.875 1.34489 -2.95099 0
M  V30 1924 H 194.66 -0.142615 -3.91841 0
M  V30 1925 H 196.15 0.83218 -4.09224 0
M  V30 1926 N 196.587 1.43421 -0.653314 0
M  V30 1927 C 198.003 1.56341 -0.320886 0
M  V30 1928 C 198.203 1.63696 1.17499 0
M  V30 1929 O 197.259 1.59208 1.95982 0
M  V30 1930 C 198.572 2.82424 -1.03233 0
M  V30 1931 C 200.12 2.96168 -1.01259 0
M  V30 1932 C 200.595 4.25084 -1.70492 0
M  V30 1933 N 202.086 4.31948 -1.67257 0
M  V30 1934 C 202.821 5.30466 -2.17701 0
M  V30 1935 N 202.317 6.35261 -2.76434 0
M  V30 1936 N 204.11 5.2212 -2.082 0
M  V30 1937 H 196.261 1.3689 -1.62403 0
M  V30 1938 H 198.524 0.657455 -0.682977 0
M  V30 1939 H 198.23 2.83053 -2.08744 0
M  V30 1940 H 198.104 3.72653 -0.583948 0
M  V30 1941 H 200.491 2.9508 0.0341235 0
M  V30 1942 H 200.572 2.07229 -1.49966 0
M  V30 1943 H 200.216 4.26932 -2.7512 0
M  V30 1944 H 200.146 5.1292 -1.19251 0
M  V30 1945 H 202.637 3.56838 -1.24398 0
M  V30 1946 H 202.95 7.06754 -3.12601 0
M  V30 1947 H 201.295 6.35884 -2.80495 0
M  V30 1948 H 204.486 4.39166 -1.62021 0
M  V30 1949 H 204.659 5.98739 -2.47822 0
M  V30 1950 N 198.065 0.39524 1.52563 0
M  V30 1951 C 198.997 -0.472201 2.24283 0
M  V30 1952 C 200.01 -1.02178 1.26742 0
M  V30 1953 O 201.199 -0.923097 1.52778 0
M  V30 1954 C 198.299 -1.66775 2.95024 0
M  V30 1955 C 197.472 -1.2445 4.19322 0
M  V30 1956 C 196.531 -2.30539 4.7301 0
M  V30 1957 O 195.557 -1.91702 5.35947 0
M  V30 1958 N 196.759 -3.6253 4.53379 0
M  V30 1959 H 199.524 0.142282 2.99362 0
M  V30 1960 H 197.085 0.2219 1.60372 0
M  V30 1961 H 199.077 -2.37283 3.27839 0
M  V30 1962 H 197.647 -2.18845 2.23217 0
M  V30 1963 H 196.867 -0.368069 3.92478 0
M  V30 1964 H 198.155 -0.938457 5.0007 0
M  V30 1965 H 197.553 -3.96841 4.03154 0
M  V30 1966 H 196.11 -4.29055 4.90668 0
M  V30 1967 N 199.544 -1.57102 0.125237 0
M  V30 1968 C 200.772 -1.99761 -0.538797 0
M  V30 1969 C 201.187 -1.00503 -1.59827 0
M  V30 1970 O 200.544 0.00119474 -1.825 0
M  V30 1971 C 200.595 -3.42408 -1.15927 0
M  V30 1972 O 200.316 -4.37869 -0.142143 0
M  V30 1973 C 201.817 -4.00232 -1.90602 0
M  V30 1974 H 199.037 -0.655772 -0.14214 0
M  V30 1975 H 201.581 -2.03383 0.213413 0
M  V30 1976 H 199.736 -3.39706 -1.86223 0
M  V30 1977 H 200.15 -5.21128 -0.593775 0
M  V30 1978 H 201.624 -5.02105 -2.29335 0
M  V30 1979 H 202.101 -3.39721 -2.78363 0
M  V30 1980 H 202.707 -4.06499 -1.25055 0
M  V30 1981 N 201.022 0.148545 -1.56898 0
M  V30 1982 C 202.27 0.859717 -1.82902 0
M  V30 1983 C 202.591 1.81775 -0.70588 0
M  V30 1984 O 201.861 1.93994 0.272586 0
M  V30 1985 H 200.441 0.320469 -0.674766 0
M  V30 1986 H 203.103 0.142918 -1.94375 0
M  V30 1987 H 202.199 1.4229 -2.77777 0
M  V30 1988 N 202.5 1.5196 0.417844 0
M  V30 1989 C 203.747 1.65591 1.16559 0
M  V30 1990 C 204.075 0.381565 1.90721 0
M  V30 1991 O 203.33 -0.635156 1.85106 0
M  V30 1992 C 203.629 2.82269 2.19223 0
M  V30 1993 C 203.295 4.20819 1.61933 0
M  V30 1994 C 201.957 4.58506 1.46033 0
M  V30 1995 C 204.309 5.07196 1.20008 0
M  V30 1996 C 201.637 5.80257 0.867113 0
M  V30 1997 C 203.989 6.29544 0.621086 0
M  V30 1998 C 202.653 6.65987 0.449144 0
M  V30 1999 H 201.923 0.605939 0.42652 0
M  V30 2000 H 204.57 1.86041 0.45397 0
M  V30 2001 H 202.875 2.56118 2.96498 0
M  V30 2002 H 204.572 2.90012 2.76936 0
M  V30 2003 H 201.162 3.91116 1.7529 0
M  V30 2004 H 205.346 4.7867 1.31105 0
M  V30 2005 H 200.602 6.07124 0.721833 0
M  V30 2006 H 204.776 6.95805 0.287798 0
M  V30 2007 H 202.403 7.60199 -0.012632 0
M  V30 2008 N 203.978 -0.674533 1.42435 0
M  V30 2009 C 204.941 -1.76986 1.45632 0
M  V30 2010 C 205.941 -1.5708 0.343871 0
M  V30 2011 O 207.131 -1.63367 0.604709 0
M  V30 2012 C 204.263 -3.15623 1.28822 0
M  V30 2013 H 205.456 -1.75539 2.43158 0
M  V30 2014 H 203.009 -0.884189 1.28887 0
M  V30 2015 H 203.744 -3.22696 0.322193 0
M  V30 2016 H 203.529 -3.31475 2.09444 0
M  V30 2017 H 205.019 -3.95537 1.33942 0
M  V30 2018 N 205.456 -1.28612 -0.910864 0
M  V30 2019 C 206.389 -1.07109 -2.01502 0
M  V30 2020 C 207.367 0.013706 -1.62594 0
M  V30 2021 O 208.551 -0.134796 -1.88017 0
M  V30 2022 C 205.678 -0.628255 -3.32822 0
M  V30 2023 C 204.724 -1.71012 -3.90714 0
M  V30 2024 S 205.557 -3.30676 -4.21205 0
M  V30 2025 C 206.713 -2.88234 -5.55583 0
M  V30 2026 H 206.946 -2.00591 -2.19432 0
M  V30 2027 H 204.479 -1.12633 -1.05609 0
M  V30 2028 H 206.437 -0.37946 -4.08742 0
M  V30 2029 H 205.098 0.28678 -3.12788 0
M  V30 2030 H 204.291 -1.35195 -4.85529 0
M  V30 2031 H 203.893 -1.91186 -3.21441 0
M  V30 2032 H 206.185 -2.34584 -6.35591 0
M  V30 2033 H 207.128 -3.81857 -5.96314 0
M  V30 2034 H 207.536 -2.26862 -5.16908 0
M  V30 2035 N 206.934 1.1197 -1.10907 0
M  V30 2036 C 207.864 2.19928 -0.784473 0
M  V30 2037 C 208.845 1.6833 0.244726 0
M  V30 2038 O 210.03 1.93892 0.109418 0
M  V30 2039 C 207.16 3.46597 -0.220827 0
M  V30 2040 C 206.114 4.11376 -1.18127 0
M  V30 2041 C 205.44 5.32554 -0.478594 0
M  V30 2042 C 206.74 4.56945 -2.52979 0
M  V30 2043 H 208.434 2.47337 -1.68715 0
M  V30 2044 H 205.98 1.18879 -0.812642 0
M  V30 2045 H 207.933 4.21396 0.0184278 0
M  V30 2046 H 206.657 3.1863 0.717113 0
M  V30 2047 H 205.316 3.38564 -1.40606 0
M  V30 2048 H 204.964 5.00856 0.463976 0
M  V30 2049 H 204.664 5.76844 -1.11912 0
M  V30 2050 H 206.188 6.10096 -0.248 0
M  V30 2051 H 207.602 5.23093 -2.3462 0
M  V30 2052 H 205.999 5.1203 -3.12962 0
M  V30 2053 H 207.069 3.70676 -3.12614 0
M  V30 2054 N 208.412 0.89855 1.29475 0
M  V30 2055 C 209.375 0.380272 2.26023 0
M  V30 2056 C 210.375 -0.484891 1.53315 0
M  V30 2057 O 211.565 -0.290108 1.71767 0
M  V30 2058 C 208.697 -0.45651 3.3783 0
M  V30 2059 H 209.89 1.23295 2.73383 0
M  V30 2060 H 207.443 0.676589 1.40897 0
M  V30 2061 H 208.178 -1.32922 2.95808 0
M  V30 2062 H 207.963 0.163393 3.91759 0
M  V30 2063 H 209.453 -0.810466 4.0966 0
M  V30 2064 N 209.89 -1.43072 0.660911 0
M  V30 2065 C 211.115 -2.06584 0.183805 0
M  V30 2066 C 211.54 -1.49257 -1.14472 0
M  V30 2067 O 210.898 -0.605528 -1.70889 0
M  V30 2068 C 210.946 -3.60418 0.114434 0
M  V30 2069 O 210.05 -4.01981 -0.921137 0
M  V30 2070 H 209.391 -0.656669 0.0983994 0
M  V30 2071 H 211.921 -1.83447 0.906006 0
M  V30 2072 H 211.931 -4.07946 -0.0663394 0
M  V30 2073 H 210.606 -4.01519 1.08422 0
M  V30 2074 H 209.183 -3.66029 -0.71253 0
M  V30 2075 N 211.368 -0.403325 -1.52352 0
M  V30 2076 C 212.593 0.176499 -2.06648 0
M  V30 2077 C 213.018 1.38577 -1.27193 0
M  V30 2078 O 212.376 1.7879 -0.300637 0
M  V30 2079 C 212.424 0.511061 -3.5696 0
M  V30 2080 O 211.528 1.60294 -3.79973 0
M  V30 2081 H 210.869 0.0167337 -0.663789 0
M  V30 2082 H 213.399 -0.574848 -1.96359 0
M  V30 2083 H 213.409 0.771362 -4.00642 0
M  V30 2084 H 212.084 -0.37296 -4.14224 0
M  V30 2085 H 210.661 1.33526 -3.48174 0
M  V30 2086 N 212.846 1.57033 -0.133567 0
M  V30 2087 C 214.071 2.00475 0.531477 0
M  V30 2088 C 214.496 1.01291 1.58499 0
M  V30 2089 O 213.854 -0.0133279 1.81295 0
M  V30 2090 C 213.902 3.42729 1.12113 0
M  V30 2091 O 213.006 3.46498 2.23636 0
M  V30 2092 H 212.347 0.650876 0.131362 0
M  V30 2093 H 214.877 2.03344 -0.22634 0
M  V30 2094 H 214.887 3.81246 1.4531 0
M  V30 2095 H 213.562 4.14428 0.349557 0
M  V30 2096 H 212.139 3.19811 1.91769 0
M  V30 2097 N 214.325 -0.140222 1.56975 0
M  V30 2098 C 215.571 -0.852949 1.83991 0
M  V30 2099 C 215.904 -1.80512 0.716187 0
M  V30 2100 O 215.179 -1.92479 -0.279681 0
M  V30 2101 C 215.462 -1.6215 3.21527 0
M  V30 2102 C 215.315 -0.690363 4.4447 0
M  V30 2103 C 216.634 -2.58247 3.56366 0
M  V30 2104 H 213.753 -0.308634 0.669264 0
M  V30 2105 H 216.395 -0.117898 1.89634 0
M  V30 2106 H 214.545 -2.24812 3.16847 0
M  V30 2107 H 216.217 -0.0742264 4.6124 0
M  V30 2108 H 214.46 -0.000396433 4.338 0
M  V30 2109 H 215.131 -1.2643 5.37326 0
M  V30 2110 H 217.607 -2.05701 3.61699 0
M  V30 2111 H 216.483 -3.09067 4.53617 0
M  V30 2112 H 216.744 -3.39923 2.82674 0
M  V30 2113 N 215.803 -1.52179 -0.40978 0
M  V30 2114 C 216.735 -1.71703 -1.51825 0
M  V30 2115 C 217.748 -0.597445 -1.51441 0
M  V30 2116 O 218.937 -0.872582 -1.55719 0
M  V30 2117 C 216.037 -1.74171 -2.90719 0
M  V30 2118 C 215.21 -3.03156 -3.15302 0
M  V30 2119 C 214.269 -2.97445 -4.34065 0
M  V30 2120 O 213.295 -3.71352 -4.31377 0
M  V30 2121 N 214.497 -2.15191 -5.39141 0
M  V30 2122 H 217.262 -2.67334 -1.35472 0
M  V30 2123 H 214.823 -1.50409 -0.599069 0
M  V30 2124 H 216.815 -1.67884 -3.68235 0
M  V30 2125 H 215.385 -0.860166 -3.00533 0
M  V30 2126 H 214.605 -3.23097 -2.25836 0
M  V30 2127 H 215.893 -3.88484 -3.28569 0
M  V30 2128 H 215.291 -1.54573 -5.44173 0
M  V30 2129 H 213.848 -2.1476 -6.15403 0
M  V30 2130 N 217.281 0.66697 -1.42791 0
M  V30 2131 C 218.191 1.80962 -1.49299 0
M  V30 2132 C 219.207 1.69775 -0.381108 0
M  V30 2133 O 220.383 1.91188 -0.633188 0
M  V30 2134 C 217.448 3.17156 -1.40045 0
M  V30 2135 C 216.509 3.40242 -2.6179 0
M  V30 2136 C 215.742 4.69939 -2.52969 0
M  V30 2137 O 215.965 5.48372 -1.56985 0
M  V30 2138 O 214.899 4.94441 -3.43237 0
M  V30 2139 H 218.725 1.78427 -2.45759 0
M  V30 2140 H 216.31 0.823713 -1.24641 0
M  V30 2141 H 218.192 3.98413 -1.37276 0
M  V30 2142 H 216.867 3.20312 -0.467138 0
M  V30 2143 H 215.774 2.58802 -2.70134 0
M  V30 2144 H 217.107 3.41923 -3.54047 0
M  V30 2145 N 218.759 1.29093 0.90403 0
M  V30 2146 C 219.722 1.1386 1.98919 0
M  V30 2147 C 220.722 0.0753457 1.60623 0
M  V30 2148 O 221.912 0.321931 1.71199 0
M  V30 2149 C 219.044 0.740198 3.32767 0
M  V30 2150 H 220.237 2.10246 2.13861 0
M  V30 2151 H 217.79 1.12218 1.08797 0
M  V30 2152 H 218.525 -0.223997 3.23525 0
M  V30 2153 H 218.31 1.50838 3.61926 0
M  V30 2154 H 219.8 0.656546 4.12407 0
M  V30 2155 N 220.237 -1.11381 1.11499 0
M  V30 2156 C 221.187 -2.15555 0.74298 0
M  V30 2157 C 222.171 -1.58894 -0.253276 0
M  V30 2158 O 223.363 -1.76897 -0.0602918 0
M  V30 2159 C 220.492 -3.42782 0.188481 0
M  V30 2160 C 219.578 -4.064 1.21244 0
M  V30 2161 N 219.969 -4.44864 2.40685 0
M  V30 2162 C 218.267 -4.3333 1.05552 0
M  V30 2163 C 218.968 -4.94715 3.05994 0
M  V30 2164 N 217.944 -4.90909 2.33472 0
M  V30 2165 H 221.746 -2.43074 1.65203 0
M  V30 2166 H 219.26 -1.28401 0.994329 0
M  V30 2167 H 221.257 -4.16789 -0.0961693 0
M  V30 2168 H 219.917 -3.16727 -0.715149 0
M  V30 2169 H 220.928 -4.36876 2.78136 0
M  V30 2170 H 217.605 -4.1698 0.208372 0
M  V30 2171 H 218.995 -5.34103 4.07656 0
M  V30 2172 N 221.715 -0.905404 -1.28997 0
M  V30 2173 C 222.992 -0.453513 -1.9027 0
M  V30 2174 C 223.372 1.06721 -1.82137 0
M  V30 2175 O 222.72 1.91159 -1.25182 0
M  V30 2176 C 222.93 -0.974494 -3.35119 0
M  V30 2177 C 224.278 -1.0216 -4.12127 0
M  V30 2178 O 225.302 -0.922557 -3.44046 0
M  V30 2179 O 224.161 -1.17121 -5.33802 0
M  V30 2180 H 221.255 -0.142347 -0.814657 0
M  V30 2181 H 223.801 -0.995642 -1.37423 0
M  V30 2182 H 222.573 -2.01848 -3.35221 0
M  V30 2183 H 222.196 -0.412706 -3.95452 0
M  V30 2184 N 223.193 1.4272 -0.668489 0
M  V30 2185 C 224.126 2.28111 0.0637898 0
M  V30 2186 C 225.104 1.40705 0.814912 0
M  V30 2187 O 226.288 1.70146 0.81134 0
M  V30 2188 C 223.415 3.20429 1.0974 0
M  V30 2189 C 222.461 4.24197 0.442579 0
M  V30 2190 S 223.294 5.29563 -0.795173 0
M  V30 2191 C 224.45 6.25449 0.237516 0
M  V30 2192 H 224.683 2.8987 -0.660521 0
M  V30 2193 H 222.216 1.47456 -0.457821 0
M  V30 2194 H 224.174 3.74158 1.68868 0
M  V30 2195 H 222.835 2.57818 1.79411 0
M  V30 2196 H 222.028 4.88954 1.22227 0
M  V30 2197 H 221.63 3.73925 -0.0749554 0
M  V30 2198 H 223.922 6.68524 1.09915 0
M  V30 2199 H 224.865 7.07104 -0.375421 0
M  V30 2200 H 225.273 5.61511 0.580167 0
M  V30 2201 N 224.671 0.411399 1.52136 0
M  V30 2202 C 225.634 -0.401089 2.25663 0
M  V30 2203 C 226.634 -0.971732 1.28117 0
M  V30 2204 O 227.824 -0.850254 1.52041 0
M  V30 2205 C 224.956 -1.56483 3.02863 0
M  V30 2206 H 226.149 0.24295 2.98914 0
M  V30 2207 H 223.702 0.163968 1.55438 0
M  V30 2208 H 224.437 -2.24567 2.33967 0
M  V30 2209 H 224.222 -1.16211 3.74483 0
M  V30 2210 H 225.712 -2.13951 3.58629 0
M  V30 2211 N 226.149 -1.5696 0.141893 0
M  V30 2212 C 227.079 -2.19516 -0.795936 0
M  V30 2213 C 228.06 -1.14187 -1.26077 0
M  V30 2214 O 229.245 -1.42511 -1.31925 0
M  V30 2215 C 226.375 -2.81272 -2.03723 0
M  V30 2216 C 225.329 -3.92384 -1.70936 0
M  V30 2217 C 224.655 -4.41052 -3.02287 0
M  V30 2218 C 225.955 -5.13403 -0.959954 0
M  V30 2219 H 227.649 -2.98138 -0.274596 0
M  V30 2220 H 225.195 -1.43406 -0.130636 0
M  V30 2221 H 227.148 -3.237 -2.69808 0
M  V30 2222 H 225.872 -1.99973 -2.58221 0
M  V30 2223 H 224.531 -3.50566 -1.07232 0
M  V30 2224 H 224.179 -3.56582 -3.54765 0
M  V30 2225 H 223.879 -5.15993 -2.81114 0
M  V30 2226 H 225.403 -4.86146 -3.69451 0
M  V30 2227 H 226.817 -5.52706 -1.52279 0
M  V30 2228 H 225.214 -5.94073 -0.848357 0
M  V30 2229 H 226.284 -4.84875 0.0492434 0
M  V30 2230 N 227.627 0.131896 -1.57047 0
M  V30 2231 C 228.873 0.843179 -1.84441 0
M  V30 2232 C 229.206 1.80129 -0.725749 0
M  V30 2233 O 228.481 1.92624 0.269469 0
M  V30 2234 C 228.764 1.60442 -3.22382 0
M  V30 2235 C 228.617 0.666782 -4.4483 0
M  V30 2236 C 229.936 2.56354 -3.5773 0
M  V30 2237 H 227.055 0.305081 -0.670891 0
M  V30 2238 H 229.697 0.107839 -1.89694 0
M  V30 2239 H 227.847 2.23128 -3.18035 0
M  V30 2240 H 229.519 0.0497646 -4.61273 0
M  V30 2241 H 227.762 -0.022609 -4.33794 0
M  V30 2242 H 228.433 1.23579 -5.37989 0
M  V30 2243 H 230.909 2.0378 -3.62785 0
M  V30 2244 H 229.785 3.06657 -4.5525 0
M  V30 2245 H 230.046 3.38419 -2.84473 0
M  V30 2246 N 229.106 1.52395 0.401703 0
M  V30 2247 C 230.069 1.75636 1.47257 0
M  V30 2248 C 231.069 0.62628 1.48103 0
M  V30 2249 O 232.259 0.894227 1.49497 0
M  V30 2250 C 229.391 1.84553 2.86624 0
M  V30 2251 H 230.584 2.71241 1.27938 0
M  V30 2252 H 228.137 1.42923 0.632662 0
M  V30 2253 H 228.872 0.908882 3.11303 0
M  V30 2254 H 228.657 2.66715 2.87412 0
M  V30 2255 H 230.147 2.04251 3.64241 0
M  V30 2256 N 230.584 -0.659388 1.43143 0
M  V30 2257 C 231.534 -1.7655 1.44271 0
M  V30 2258 C 232.518 -1.57847 0.311961 0
M  V30 2259 O 233.71 -1.68064 0.555306 0
M  V30 2260 C 230.839 -3.15104 1.36251 0
M  V30 2261 C 229.925 -3.39377 2.54331 0
M  V30 2262 N 230.316 -3.34153 3.79704 0
M  V30 2263 C 228.614 -3.70072 2.48922 0
M  V30 2264 C 229.315 -3.58337 4.58225 0
M  V30 2265 N 228.291 -3.79851 3.88863 0
M  V30 2266 H 232.093 -1.70928 2.39083 0
M  V30 2267 H 229.607 -0.860823 1.37708 0
M  V30 2268 H 231.604 -3.94389 1.35141 0
M  V30 2269 H 230.264 -3.21913 0.424531 0
M  V30 2270 H 231.275 -3.13704 4.1208 0
M  V30 2271 H 227.952 -3.84034 1.63781 0
M  V30 2272 H 229.342 -3.60129 5.67236 0
M  V30 2273 N 232.062 -1.29571 -0.897171 0
M  V30 2274 C 232.992 -1.17473 -2.01798 0
M  V30 2275 C 233.973 -0.068323 -1.69963 0
M  V30 2276 O 235.158 -0.248239 -1.92607 0
M  V30 2277 C 232.288 -0.853099 -3.36659 0
M  V30 2278 C 231.242 -1.9161 -3.82713 0
M  V30 2279 C 230.568 -1.44773 -5.14728 0
M  V30 2280 C 231.868 -3.32535 -4.02763 0
M  V30 2281 H 233.562 -2.11237 -2.12177 0
M  V30 2282 H 231.108 -1.01699 -1.01948 0
M  V30 2283 H 233.061 -0.755165 -4.14578 0
M  V30 2284 H 231.785 0.120236 -3.26379 0
M  V30 2285 H 230.444 -2.00346 -3.07013 0
M  V30 2286 H 230.092 -0.462995 -5.00865 0
M  V30 2287 H 229.792 -2.15865 -5.46513 0
M  V30 2288 H 231.316 -1.36334 -5.95185 0
M  V30 2289 H 232.73 -3.26626 -4.71156 0
M  V30 2290 H 231.127 -4.01607 -4.45905 0
M  V30 2291 H 232.197 -3.75326 -3.07016 0
M  V30 2292 N 233.54 1.10788 -1.12088 0
M  V30 2293 C 234.503 2.15207 -0.788577 0
M  V30 2294 C 235.503 1.59609 0.195317 0
M  V30 2295 O 236.693 1.74174 -0.0300193 0
M  V30 2296 C 233.825 3.4047 -0.171174 0
M  V30 2297 H 235.018 2.46116 -1.71368 0
M  V30 2298 H 232.571 1.26089 -0.923652 0
M  V30 2299 H 233.306 3.15176 0.763832 0
M  V30 2300 H 233.091 3.82109 -0.879514 0
M  V30 2301 H 234.581 4.17576 0.04496 0
M  V30 2302 N 235.018 0.912232 1.28515 0
M  V30 2303 C 235.981 0.404223 2.25607 0
M  V30 2304 C 236.981 -0.468602 1.53821 0
M  V30 2305 O 238.171 -0.271873 1.72065 0
M  V30 2306 C 235.303 -0.420653 3.38295 0
M  V30 2307 H 236.496 1.26188 2.7206 0
M  V30 2308 H 234.049 0.691495 1.40171 0
M  V30 2309 H 234.784 -1.29777 2.97201 0
M  V30 2310 H 234.569 0.204935 3.91564 0
M  V30 2311 H 236.059 -0.766971 4.10496 0
M  V30 2312 N 236.496 -1.42363 0.676048 0
M  V30 2313 C 237.745 -2.00745 0.196037 0
M  V30 2314 C 238.058 -1.54083 -1.20489 0
M  V30 2315 O 239.264 -2.04891 -1.78134 0
M  V30 2316 C 237.72 -3.58651 0.299616 0
M  V30 2317 C 237.328 -4.143 1.70468 0
M  V30 2318 C 239.072 -4.24326 -0.121619 0
M  V30 2319 C 236.979 -5.64574 1.76096 0
M  V30 2320 H 235.909 -0.750787 0.0695301 0
M  V30 2321 H 238.56 -1.63072 0.841412 0
M  V30 2322 H 236.942 -3.93833 -0.413673 0
M  V30 2323 H 238.116 -3.90575 2.44515 0
M  V30 2324 H 236.431 -3.61081 2.07387 0
M  V30 2325 H 239.028 -5.34607 -0.0997362 0
M  V30 2326 H 239.371 -3.99897 -1.15708 0
M  V30 2327 H 239.904 -3.94108 0.540706 0
M  V30 2328 H 236.643 -5.93804 2.77628 0
M  V30 2329 H 236.163 -5.90286 1.06406 0
M  V30 2330 H 237.842 -6.29013 1.51496 0
M  V30 2331 N 237.974 -0.419461 -1.51915 0
M  V30 2332 C 238.884 0.407528 -2.31033 0
M  V30 2333 C 239.9 1.04413 -1.3919 0
M  V30 2334 O 241.076 1.0434 -1.72265 0
M  V30 2335 C 238.141 1.50365 -3.12396 0
M  V30 2336 C 237.202 0.889029 -4.19994 0
M  V30 2337 C 236.435 1.93291 -4.97468 0
M  V30 2338 O 236.658 3.15259 -4.75361 0
M  V30 2339 O 235.592 1.53339 -5.8204 0
M  V30 2340 H 239.418 -0.237865 -3.02767 0
M  V30 2341 H 237.003 -0.182413 -1.48282 0
M  V30 2342 H 238.885 2.13975 -3.63032 0
M  V30 2343 H 237.56 2.13345 -2.43445 0
M  V30 2344 H 236.467 0.215353 -3.7348 0
M  V30 2345 H 237.8 0.302991 -4.91267 0
M  V30 2346 N 239.452 1.56882 -0.150215 0
M  V30 2347 C 240.677 2.01027 0.510184 0
M  V30 2348 C 241.102 1.02966 1.57415 0
M  V30 2349 O 240.46 0.00590158 1.81299 0
M  V30 2350 C 240.508 3.43899 1.08472 0
M  V30 2351 O 239.612 3.4885 2.19948 0
M  V30 2352 H 238.953 0.652233 0.124451 0
M  V30 2353 H 241.483 2.03093 -0.247894 0
M  V30 2354 H 241.493 3.82766 1.41259 0
M  V30 2355 H 240.168 4.14776 0.305582 0
M  V30 2356 H 238.745 3.21827 1.88366 0
M  V30 2357 N 240.93 -0.123565 1.57115 0
M  V30 2358 C 241.878 -1.17082 2.00984 0
M  V30 2359 C 242.872 -1.43136 0.906009 0
M  V30 2360 O 244.078 -1.43152 1.09121 0
M  V30 2361 H 240.453 -0.394653 0.64012 0
M  V30 2362 H 242.424 -0.774292 2.88179 0
M  V30 2363 C 241.173 -2.49057 2.42623 0
M  V30 2364 H 240.496 -2.29846 3.27125 0
M  V30 2365 H 241.936 -3.20906 2.7712 0
M  V30 2366 C 240.395 -3.11305 1.28805 0
M  V30 2367 O 240.925 -3.97171 0.60153 0
M  V30 2368 N 239.131 -2.71111 1.04628 0
M  V30 2369 H 238.678 -2.01382 1.60634 0
M  V30 2370 H 238.636 -3.1309 0.286685 0
M  V30 2371 N 242.408 -1.52605 -0.393616 0
M  V30 2372 C 243.654 -1.67672 -1.14079 0
M  V30 2373 C 243.987 -0.413121 -1.89755 0
M  V30 2374 O 243.262 0.588952 -1.85369 0
M  V30 2375 C 243.545 -2.9088 -2.12276 0
M  V30 2376 C 243.398 -4.27329 -1.40394 0
M  V30 2377 C 244.717 -3.09628 -3.12759 0
M  V30 2378 H 241.836 -0.610168 -0.413356 0
M  V30 2379 H 244.478 -1.85193 -0.424696 0
M  V30 2380 H 242.628 -2.76073 -2.73342 0
M  V30 2381 H 244.3 -4.53894 -0.82327 0
M  V30 2382 H 242.543 -4.2802 -0.705801 0
M  V30 2383 H 243.214 -5.09615 -2.12123 0
M  V30 2384 H 245.69 -3.23436 -2.61779 0
M  V30 2385 H 244.566 -3.97322 -3.78717 0
M  V30 2386 H 244.827 -2.23637 -3.81365 0
M  V30 2387 N 243.887 0.651787 -1.4349 0
M  V30 2388 C 245.298 1.233 -1.40193 0
M  V30 2389 C 245.649 1.9591 -0.106727 0
M  V30 2390 O 244.774 2.01316 0.793773 0
M  V30 2391 C 245.369 2.24257 -2.53957 0
M  V30 2392 C 243.928 2.77852 -2.5392 0
M  V30 2393 C 243.075 1.52517 -2.3159 0
M  V30 2394 H 246.026 0.443717 -1.52371 0
M  V30 2395 H 246.047 3.0646 -2.25528 0
M  V30 2396 H 245.559 1.71382 -3.4821 0
M  V30 2397 H 243.66 3.34786 -1.63551 0
M  V30 2398 H 243.773 3.25299 -3.51735 0
M  V30 2399 H 242.137 1.79915 -1.80285 0
M  V30 2400 H 242.92 1.01574 -3.27929 0
M  V30 2401 N 245.365 1.30045 0.890287 0
M  V30 2402 C 246.612 1.18561 1.64163 0
M  V30 2403 C 246.94 -0.260852 1.92743 0
M  V30 2404 O 246.195 -1.20376 1.54299 0
M  V30 2405 C 246.494 1.95409 2.99249 0
M  V30 2406 C 246.16 3.45066 2.90242 0
M  V30 2407 C 244.822 3.85878 2.87492 0
M  V30 2408 C 247.174 4.4039 2.78758 0
M  V30 2409 C 244.502 5.20314 2.7109 0
M  V30 2410 C 246.854 5.74928 2.63894 0
M  V30 2411 C 245.518 6.14986 2.59516 0
M  V30 2412 H 244.788 0.433846 0.600715 0
M  V30 2413 H 247.435 1.61088 1.03552 0
M  V30 2414 H 245.74 1.45501 3.63781 0
M  V30 2415 H 247.437 1.8392 3.56334 0
M  V30 2416 H 244.027 3.12631 2.93189 0
M  V30 2417 H 248.211 4.09806 2.79952 0
M  V30 2418 H 243.467 5.50449 2.66112 0
M  V30 2419 H 247.641 6.48434 2.53981 0
M  V30 2420 H 245.268 7.19104 2.46565 0
M  V30 2421 N 246.843 -1.10192 1.12674 0
M  V30 2422 C 247.776 -2.15847 0.740625 0
M  V30 2423 C 248.754 -1.60352 -0.269421 0
M  V30 2424 O 249.938 -1.87796 -0.16278 0
M  V30 2425 C 247.065 -3.38562 0.096641 0
M  V30 2426 C 246.111 -4.12758 1.07391 0
M  V30 2427 S 246.944 -4.67997 2.60267 0
M  V30 2428 C 248.1 -5.94021 1.97206 0
M  V30 2429 H 248.333 -2.48266 1.63558 0
M  V30 2430 H 245.866 -1.22019 0.946087 0
M  V30 2431 H 247.824 -4.09621 -0.268535 0
M  V30 2432 H 246.485 -3.04377 -0.775462 0
M  V30 2433 H 245.678 -5.00755 0.570997 0
M  V30 2434 H 245.28 -3.47523 1.38216 0
M  V30 2435 H 247.572 -6.64589 1.31634 0
M  V30 2436 H 248.515 -6.48979 2.83253 0
M  V30 2437 H 248.923 -5.46169 1.42686 0
M  V30 2438 N 248.321 -0.919034 -1.28029 0
M  V30 2439 C 249.271 -0.382574 -2.24767 0
M  V30 2440 C 250.255 0.508286 -1.52661 0
M  V30 2441 O 251.447 0.347145 -1.73562 0
M  V30 2442 C 248.576 0.371432 -3.41285 0
M  V30 2443 C 247.662 -0.535449 -4.20706 0
M  V30 2444 N 248.053 -1.65141 -4.78082 0
M  V30 2445 C 246.351 -0.336824 -4.44726 0
M  V30 2446 C 247.052 -2.21475 -5.37888 0
M  V30 2447 N 246.028 -1.50537 -5.22341 0
M  V30 2448 H 249.83 -1.23477 -2.66703 0
M  V30 2449 H 247.344 -0.772299 -1.42861 0
M  V30 2450 H 249.341 0.772638 -4.09678 0
M  V30 2451 H 248.001 1.22066 -3.00882 0
M  V30 2452 H 249.012 -2.03392 -4.7629 0
M  V30 2453 H 245.689 0.47246 -4.14818 0
M  V30 2454 H 247.079 -3.15379 -5.93284 0
M  V30 2455 N 249.799 1.42003 -0.683588 0
M  V30 2456 C 251.046 2.01413 -0.209514 0
M  V30 2457 C 251.374 1.54088 1.1869 0
M  V30 2458 O 250.629 0.737591 1.81268 0
M  V30 2459 C 250.928 3.56827 -0.202357 0
M  V30 2460 C 250.594 4.23617 -1.54464 0
M  V30 2461 C 249.256 4.41577 -1.91215 0
M  V30 2462 C 251.608 4.61178 -2.42826 0
M  V30 2463 C 248.936 4.9437 -3.15935 0
M  V30 2464 C 251.288 5.15355 -3.66867 0
M  V30 2465 C 249.952 5.31528 -4.03776 0
M  V30 2466 H 249.222 0.737023 -0.0766668 0
M  V30 2467 H 251.869 1.70067 -0.880312 0
M  V30 2468 H 250.174 3.87892 0.551969 0
M  V30 2469 H 251.871 4.00588 0.181793 0
M  V30 2470 H 248.461 4.10004 -1.24877 0
M  V30 2471 H 252.645 4.46968 -2.15717 0
M  V30 2472 H 247.901 5.05076 -3.44541 0
M  V30 2473 H 252.075 5.43402 -4.35531 0
M  V30 2474 H 249.702 5.72199 -5.00492 0
M  V30 2475 N 251.277 0.427512 1.51691 0
M  V30 2476 C 252.524 -0.142229 2.02 0
M  V30 2477 C 252.852 -1.43566 1.31221 0
M  V30 2478 O 252.107 -1.91298 0.412744 0
M  V30 2479 C 252.406 -0.418249 3.54944 0
M  V30 2480 C 252.072 0.788187 4.43958 0
M  V30 2481 C 250.734 1.11906 4.68007 0
M  V30 2482 C 253.086 1.59347 4.96244 0
M  V30 2483 C 250.414 2.25608 5.41588 0
M  V30 2484 C 252.766 2.7214 5.71072 0
M  V30 2485 C 251.43 3.05692 5.93387 0
M  V30 2486 H 250.7 -0.0520451 0.73917 0
M  V30 2487 H 253.347 0.572697 1.82736 0
M  V30 2488 H 251.652 -1.21496 3.72486 0
M  V30 2489 H 253.349 -0.872339 3.91397 0
M  V30 2490 H 249.939 0.520344 4.2543 0
M  V30 2491 H 254.123 1.35106 4.77556 0
M  V30 2492 H 249.379 2.51929 5.57083 0
M  V30 2493 H 253.553 3.34914 6.10578 0
M  V30 2494 H 251.18 3.9391 6.50184 0
M  V30 2495 N 252.755 -1.56801 0.158532 0
M  V30 2496 C 254.032 -1.88131 -0.535357 0
M  V30 2497 C 254.412 -1.06638 -1.82186 0
M  V30 2498 O 253.76 -0.156533 -2.27963 0
M  V30 2499 C 253.97 -3.39949 -0.789653 0
M  V30 2500 C 255.318 -4.09416 -1.12533 0
M  V30 2501 O 256.342 -3.45194 -0.878622 0
M  V30 2502 O 255.201 -5.22855 -1.59014 0
M  V30 2503 H 252.295 -0.780143 -0.27442 0
M  V30 2504 H 254.841 -1.68564 0.19601 0
M  V30 2505 H 253.613 -3.91115 0.120353 0
M  V30 2506 H 253.236 -3.65084 -1.57479 0
M  V30 2507 N 254.233 0.115231 -1.57178 0
M  V30 2508 C 255.481 0.820727 -1.84685 0
M  V30 2509 C 255.802 1.80237 -0.744279 0
M  V30 2510 O 255.072 1.94529 0.231375 0
M  V30 2511 H 253.652 0.306084 -0.681411 0
M  V30 2512 H 256.314 0.101656 -1.94635 0
M  V30 2513 H 255.41 1.36366 -2.80733 0
M  V30 2514 N 255.711 1.52812 0.385517 0
M  V30 2515 C 256.958 1.68026 1.1302 0
M  V30 2516 C 257.286 0.421934 1.89868 0
M  V30 2517 O 256.541 -0.595749 1.86412 0
M  V30 2518 C 256.84 2.86856 2.13187 0
M  V30 2519 C 256.506 4.24159 1.5297 0
M  V30 2520 C 255.168 4.61501 1.36274 0
M  V30 2521 C 257.52 5.09627 1.09223 0
M  V30 2522 C 254.848 5.81966 0.743837 0
M  V30 2523 C 257.2 6.30719 0.487411 0
M  V30 2524 C 255.864 6.6679 0.307777 0
M  V30 2525 H 255.134 0.614849 0.413571 0
M  V30 2526 H 257.781 1.86962 0.414405 0
M  V30 2527 H 256.086 2.6235 2.90998 0
M  V30 2528 H 257.783 2.95821 2.70722 0
M  V30 2529 H 254.373 3.94746 1.66954 0
M  V30 2530 H 258.557 4.81343 1.20922 0
M  V30 2531 H 253.813 6.08519 0.592891 0
M  V30 2532 H 257.987 6.96259 0.140143 0
M  V30 2533 H 255.614 7.60001 -0.173879 0
M  V30 2534 N 257.189 -0.644168 1.43834 0
M  V30 2535 C 258.605 -0.960875 1.27434 0
M  V30 2536 C 258.805 -2.00499 0.200618 0
M  V30 2537 O 257.861 -2.49018 -0.417906 0
M  V30 2538 C 259.174 -1.43653 2.64167 0
M  V30 2539 C 260.722 -1.55271 2.71772 0
M  V30 2540 C 261.197 -2.06224 4.08944 0
M  V30 2541 N 262.688 -2.13513 4.11055 0
M  V30 2542 C 263.423 -2.54081 5.14033 0
M  V30 2543 N 262.919 -2.9388 6.27381 0
M  V30 2544 N 264.712 -2.54101 5.01387 0
M  V30 2545 H 256.863 0.0465779 2.12349 0
M  V30 2546 H 259.126 -0.0417638 0.94708 0
M  V30 2547 H 258.832 -0.743706 3.43747 0
M  V30 2548 H 258.706 -2.40993 2.90176 0
M  V30 2549 H 261.093 -2.23653 1.92519 0
M  V30 2550 H 261.174 -0.563395 2.49519 0
M  V30 2551 H 260.818 -1.38441 4.88668 0
M  V30 2552 H 260.748 -3.06003 4.28567 0
M  V30 2553 H 263.239 -1.85493 3.29242 0
M  V30 2554 H 263.552 -3.2361 7.01781 0
M  V30 2555 H 261.897 -2.91663 6.30839 0
M  V30 2556 H 265.088 -2.22391 4.11898 0
M  V30 2557 H 265.261 -2.85394 5.81768 0
M  V30 2558 N 258.668 -1.30515 -0.883378 0
M  V30 2559 C 259.896 -1.22359 -1.66841 0
M  V30 2560 C 260.311 0.213296 -1.87591 0
M  V30 2561 O 259.668 1.14075 -1.42454 0
M  V30 2562 C 259.719 -1.95011 -3.04389 0
M  V30 2563 O 259.44 -3.3309 -2.84575 0
M  V30 2564 C 260.941 -1.93532 -3.98824 0
M  V30 2565 H 258.161 -0.423371 -0.520575 0
M  V30 2566 H 260.705 -1.72167 -1.10357 0
M  V30 2567 H 258.86 -1.48997 -3.57601 0
M  V30 2568 H 259.274 -3.69907 -3.71846 0
M  V30 2569 H 260.748 -2.48902 -4.92699 0
M  V30 2570 H 261.225 -0.914627 -4.29571 0
M  V30 2571 H 261.831 -2.39364 -3.51547 0
M  V30 2572 N 260.146 1.09593 -1.13257 0
M  V30 2573 C 261.371 1.8604 -0.916732 0
M  V30 2574 C 261.796 1.80504 0.529146 0
M  V30 2575 O 261.154 1.18127 1.37534 0
M  V30 2576 C 261.202 3.32017 -1.40703 0
M  V30 2577 O 260.306 4.08141 -0.591153 0
M  V30 2578 H 259.647 0.576943 -0.328683 0
M  V30 2579 H 262.177 1.38405 -1.50682 0
M  V30 2580 H 262.187 3.82865 -1.4099 0
M  V30 2581 H 260.862 3.35361 -2.45979 0
M  V30 2582 H 259.439 3.67084 -0.656005 0
M  V30 2583 N 261.624 0.925811 1.2754 0
M  V30 2584 C 262.574 0.394488 2.24561 0
M  V30 2585 C 263.558 -0.500183 1.52928 0
M  V30 2586 O 264.75 -0.337936 1.73744 0
M  V30 2587 C 261.879 -0.353328 3.41477 0
M  V30 2588 C 260.965 0.557752 4.20416 0
M  V30 2589 N 261.356 1.67674 4.77199 0
M  V30 2590 C 259.654 0.360404 4.44541 0
M  V30 2591 C 260.355 2.24324 5.36706 0
M  V30 2592 N 259.331 1.53305 5.21535 0
M  V30 2593 H 263.133 1.2489 2.66045 0
M  V30 2594 H 260.647 0.779864 1.4245 0
M  V30 2595 H 262.644 -0.7509 4.10082 0
M  V30 2596 H 261.304 -1.20469 3.01525 0
M  V30 2597 H 262.315 2.05915 4.75204 0
M  V30 2598 H 258.992 -0.450454 4.15063 0
M  V30 2599 H 260.382 3.18521 5.91603 0
M  V30 2600 N 263.102 -1.41638 0.69111 0
M  V30 2601 C 264.012 -2.34588 0.0233487 0
M  V30 2602 C 265.028 -1.55987 -0.770984 0
M  V30 2603 O 266.204 -1.88486 -0.709569 0
M  V30 2604 C 263.269 -3.34684 -0.904851 0
M  V30 2605 C 262.33 -4.29176 -0.103225 0
M  V30 2606 C 261.563 -5.2449 -0.987216 0
M  V30 2607 O 261.786 -5.2514 -2.22674 0
M  V30 2608 O 260.72 -6.00295 -0.439281 0
M  V30 2609 H 264.546 -2.93261 0.789416 0
M  V30 2610 H 262.131 -1.42417 0.45142 0
M  V30 2611 H 264.013 -3.96133 -1.43724 0
M  V30 2612 H 262.688 -2.78461 -1.65049 0
M  V30 2613 H 261.595 -3.71089 0.473655 0
M  V30 2614 H 262.928 -4.88484 0.60365 0
M  V30 2615 N 264.58 -0.43555 -1.51462 0
M  V30 2616 C 265.829 0.133007 -2.01261 0
M  V30 2617 C 266.142 1.43942 -1.32439 0
M  V30 2618 O 267.348 2.09081 -1.73198 0
M  V30 2619 C 265.804 0.287581 -3.58749 0
M  V30 2620 C 265.412 -1.00829 -4.36506 0
M  V30 2621 C 267.156 0.810004 -4.167 0
M  V30 2622 C 265.063 -0.819454 -5.85695 0
M  V30 2623 H 263.993 0.0534822 -0.752101 0
M  V30 2624 H 266.644 -0.565038 -1.74584 0
M  V30 2625 H 265.026 1.04859 -3.81865 0
M  V30 2626 H 266.2 -1.77749 -4.25138 0
M  V30 2627 H 264.515 -1.45911 -3.89999 0
M  V30 2628 H 267.112 0.967743 -5.2587 0
M  V30 2629 H 267.455 1.79196 -3.75758 0
M  V30 2630 H 267.988 0.107357 -3.97655 0
M  V30 2631 H 264.727 -1.77374 -6.31046 0
M  V30 2632 H 264.247 -0.0900208 -5.99732 0
M  V30 2633 H 265.926 -0.471949 -6.45276 0
M  V30 2634 N 266.058 1.56714 -0.166846 0
M  V30 2635 C 266.99 2.14914 0.796537 0
M  V30 2636 C 268.003 1.10357 1.19688 0
M  V30 2637 O 269.192 1.37561 1.13751 0
M  V30 2638 C 266.292 2.67326 2.08303 0
M  V30 2639 C 265.465 3.96493 1.84696 0
M  V30 2640 C 264.524 4.34014 2.97521 0
M  V30 2641 O 263.55 5.01973 2.6835 0
M  V30 2642 N 264.752 3.95208 4.25196 0
M  V30 2643 H 267.517 2.98205 0.299006 0
M  V30 2644 H 265.078 1.61892 0.0160839 0
M  V30 2645 H 267.07 2.89428 2.82867 0
M  V30 2646 H 265.64 1.88649 2.4926 0
M  V30 2647 H 264.86 3.82814 0.940602 0
M  V30 2648 H 266.148 4.8086 1.66285 0
M  V30 2649 H 265.546 3.40487 4.51758 0
M  V30 2650 H 264.103 4.2232 4.96477 0
M  V30 2651 N 267.536 -0.106894 1.57237 0
M  V30 2652 C 268.483 -1.13049 2.01217 0
M  V30 2653 C 269.453 -1.40471 0.886403 0
M  V30 2654 O 270.638 -1.52133 1.15153 0
M  V30 2655 C 267.778 -2.4487 2.43172 0
M  V30 2656 C 266.891 -2.24281 3.69218 0
M  V30 2657 C 266.026 -3.49417 4.00101 0
M  V30 2658 C 265.065 -3.24038 5.19294 0
M  V30 2659 N 264.202 -4.41409 5.45988 0
M  V30 2660 H 269.042 -0.748456 2.88448 0
M  V30 2661 H 266.579 -0.358054 1.42676 0
M  V30 2662 H 268.537 -3.21786 2.65537 0
M  V30 2663 H 267.167 -2.80944 1.58967 0
M  V30 2664 H 266.219 -1.38224 3.54398 0
M  V30 2665 H 267.531 -2.01512 4.56283 0
M  V30 2666 H 266.685 -4.34746 4.2318 0
M  V30 2667 H 265.424 -3.75229 3.11535 0
M  V30 2668 H 264.429 -2.37102 4.96047 0
M  V30 2669 H 265.654 -2.99584 6.09447 0
M  V30 2670 H 263.6 -4.67319 4.60379 0
M  V30 2671 H 263.517 -4.21788 6.274 0
M  V30 2672 H 264.785 -5.27836 5.73593 0
M  V30 2673 N 269.014 -1.53014 -0.377408 0
M  V30 2674 C 270.263 -1.67845 -1.11853 0
M  V30 2675 C 270.576 -0.430625 -1.90801 0
M  V30 2676 O 271.782 -0.459261 -2.67587 0
M  V30 2677 C 270.238 -2.96668 -2.03756 0
M  V30 2678 C 269.846 -4.28671 -1.30175 0
M  V30 2679 C 271.59 -3.20865 -2.77932 0
M  V30 2680 C 269.497 -5.48591 -2.20911 0
M  V30 2681 H 268.427 -0.625343 -0.421263 0
M  V30 2682 H 271.078 -1.79514 -0.380409 0
M  V30 2683 H 269.46 -2.78773 -2.8125 0
M  V30 2684 H 270.634 -4.57157 -0.578259 0
M  V30 2685 H 268.949 -4.10825 -0.679108 0
M  V30 2686 H 271.546 -4.07642 -3.46024 0
M  V30 2687 H 271.889 -2.36424 -3.4265 0
M  V30 2688 H 272.422 -3.39379 -2.07525 0
M  V30 2689 H 269.161 -6.35474 -1.6079 0
M  V30 2690 H 268.681 -5.244 -2.91144 0
M  V30 2691 H 270.36 -5.8292 -2.80736 0
M  V30 2692 N 270.492 0.636531 -1.44174 0
M  V30 2693 C 271.402 1.77754 -1.53103 0
M  V30 2694 C 272.418 1.68928 -0.417034 0
M  V30 2695 O 273.594 1.89801 -0.6736 0
M  V30 2696 C 270.659 3.14115 -1.46741 0
M  V30 2697 C 269.72 3.34612 -2.68948 0
M  V30 2698 C 268.953 4.64467 -2.6288 0
M  V30 2699 O 269.176 5.44919 -1.68581 0
M  V30 2700 O 268.11 4.87049 -3.53648 0
M  V30 2701 H 271.936 1.73174 -2.49489 0
M  V30 2702 H 269.521 0.79709 -1.2636 0
M  V30 2703 H 271.403 3.95412 -1.45696 0
M  V30 2704 H 270.078 3.19249 -0.534975 0
M  V30 2705 H 268.985 2.53014 -2.75562 0
M  V30 2706 H 270.318 3.34336 -3.61221 0
M  V30 2707 N 271.97 1.30982 0.876444 0
M  V30 2708 C 273.216 1.20474 1.63138 0
M  V30 2709 C 273.549 -0.238096 1.92735 0
M  V30 2710 O 272.824 -1.1692 1.55435 0
M  V30 2711 C 273.107 2.04244 2.96574 0
M  V30 2712 C 272.96 3.56793 2.73896 0
M  V30 2713 C 274.279 1.88684 3.97601 0
M  V30 2714 H 271.398 0.439001 0.591985 0
M  V30 2715 H 274.04 1.60704 1.01361 0
M  V30 2716 H 272.19 1.70063 3.493 0
M  V30 2717 H 273.862 4.01077 2.27892 0
M  V30 2718 H 272.105 3.80548 2.08245 0
M  V30 2719 H 272.776 4.10706 3.68815 0
M  V30 2720 H 275.252 2.18584 3.54062 0
M  V30 2721 H 274.128 2.4961 4.88862 0
M  V30 2722 H 274.389 0.848343 4.33884 0
M  V30 2723 N 273.449 -1.08991 1.13837 0
M  V30 2724 C 274.379 -2.17771 0.842507 0
M  V30 2725 C 275.36 -1.6892 -0.20001 0
M  V30 2726 O 276.545 -1.94113 -0.0579731 0
M  V30 2727 C 273.675 -3.4589 0.312644 0
M  V30 2728 C 272.629 -4.08099 1.28992 0
M  V30 2729 C 271.955 -5.31098 0.619623 0
M  V30 2730 C 273.255 -4.50077 2.65005 0
M  V30 2731 H 274.949 -2.42777 1.75213 0
M  V30 2732 H 272.495 -1.16682 0.843875 0
M  V30 2733 H 274.448 -4.21297 0.0933043 0
M  V30 2734 H 273.172 -3.20419 -0.632382 0
M  V30 2735 H 271.831 -3.34717 1.49533 0
M  V30 2736 H 271.479 -5.0191 -0.33102 0
M  V30 2737 H 271.179 -5.73674 1.27167 0
M  V30 2738 H 272.703 -6.09224 0.409669 0
M  V30 2739 H 274.117 -5.16688 2.48407 0
M  V30 2740 H 272.514 -5.03553 3.26427 0
M  V30 2741 H 273.584 -3.62257 3.22332 0
M  V30 2742 N 274.927 -0.932562 -1.27047 0
M  V30 2743 C 276.204 -0.49377 -1.89265 0
M  V30 2744 C 276.584 1.02833 -1.8436 0
M  V30 2745 O 275.932 1.88461 -1.29209 0
M  V30 2746 C 276.142 -1.04536 -3.32976 0
M  V30 2747 C 277.49 -1.10879 -4.09867 0
M  V30 2748 O 278.514 -0.995327 -3.42011 0
M  V30 2749 O 277.373 -1.28417 -5.31198 0
M  V30 2750 H 274.467 -0.159596 -0.811454 0
M  V30 2751 H 277.013 -1.02457 -1.3528 0
M  V30 2752 H 275.785 -2.08913 -3.30864 0
M  V30 2753 H 275.408 -0.496494 -3.94488 0
M  V30 2754 N 276.405 1.4127 -0.698611 0
M  V30 2755 C 277.635 2.05205 -0.239644 0
M  V30 2756 C 278.043 1.52684 1.11733 0
M  V30 2757 O 277.386 0.671222 1.70998 0
M  V30 2758 C 277.448 3.59289 -0.123126 0
M  V30 2759 C 277.112 4.34619 -1.41263 0
M  V30 2760 C 278.109 4.63701 -2.35111 0
M  V30 2761 C 275.794 4.73837 -1.66684 0
M  V30 2762 C 277.788 5.30966 -3.52639 0
M  V30 2763 C 275.475 5.40837 -2.84498 0
M  V30 2764 C 276.473 5.69329 -3.77298 0
M  V30 2765 O 276.161 6.34949 -4.93047 0
M  V30 2766 H 275.893 0.66723 -0.108537 0
M  V30 2767 H 278.447 1.81974 -0.952602 0
M  V30 2768 H 276.677 3.81272 0.645628 0
M  V30 2769 H 278.366 4.04797 0.299056 0
M  V30 2770 H 279.132 4.33882 -2.16729 0
M  V30 2771 H 275.011 4.51039 -0.953135 0
M  V30 2772 H 278.555 5.53121 -4.25091 0
M  V30 2773 H 274.452 5.70075 -3.02795 0
M  V30 2774 H 275.22 6.53445 -4.92902 0
M  V30 2775 N 277.883 0.443576 1.51229 0
M  V30 2776 C 278.846 -0.353132 2.26463 0
M  V30 2777 C 279.846 -0.944338 1.3015 0
M  V30 2778 O 281.036 -0.817813 1.5381 0
M  V30 2779 C 278.168 -1.50023 3.06114 0
M  V30 2780 H 279.361 0.3063 2.98332 0
M  V30 2781 H 276.914 0.196902 1.55055 0
M  V30 2782 H 277.649 -2.19553 2.38677 0
M  V30 2783 H 277.434 -1.08241 3.76864 0
M  V30 2784 H 278.924 -2.06296 3.63087 0
M  V30 2785 N 279.361 -1.56624 0.175154 0
M  V30 2786 C 280.638 -1.88688 -0.515373 0
M  V30 2787 C 281.018 -1.08564 -1.81044 0
M  V30 2788 O 280.366 -0.180703 -2.27784 0
M  V30 2789 C 280.576 -3.40768 -0.753552 0
M  V30 2790 C 281.924 -4.10587 -1.08184 0
M  V30 2791 O 282.948 -3.46106 -0.841961 0
M  V30 2792 O 281.807 -5.24512 -1.53459 0
M  V30 2793 H 278.901 -0.78301 -0.26613 0
M  V30 2794 H 281.447 -1.68347 0.213877 0
M  V30 2795 H 280.219 -3.90965 0.161829 0
M  V30 2796 H 279.842 -3.66733 -1.53598 0
M  V30 2797 N 280.839 0.0985539 -1.57292 0
M  V30 2798 C 281.772 1.15082 -1.97057 0
M  V30 2799 C 282.75 1.39025 -0.843255 0
M  V30 2800 O 283.934 1.52842 -1.10325 0
M  V30 2801 C 281.061 2.50069 -2.28437 0
M  V30 2802 C 280.107 2.42428 -3.509 0
M  V30 2803 S 280.94 1.84414 -5.02744 0
M  V30 2804 C 282.096 3.21032 -5.37298 0
M  V30 2805 H 282.329 0.811815 -2.86002 0
M  V30 2806 H 279.862 0.306102 -1.51335 0
M  V30 2807 H 281.82 3.27729 -2.47192 0
M  V30 2808 H 280.481 2.8114 -1.40069 0
M  V30 2809 H 279.674 3.41911 -3.70288 0
M  V30 2810 H 279.276 1.72896 -3.31637 0
M  V30 2811 H 281.568 4.17297 -5.33731 0
M  V30 2812 H 282.511 3.06452 -6.38352 0
M  V30 2813 H 282.919 3.20404 -4.64759 0
M  V30 2814 N 282.317 1.53212 0.369288 0
M  V30 2815 C 283.28 1.7872 1.43498 0
M  V30 2816 C 284.28 0.657554 1.46741 0
M  V30 2817 O 285.47 0.925736 1.47566 0
M  V30 2818 C 282.602 1.90591 2.82645 0
M  V30 2819 H 283.795 2.73894 1.22156 0
M  V30 2820 H 281.348 1.44233 0.602203 0
M  V30 2821 H 282.083 0.974709 3.09306 0
M  V30 2822 H 281.868 2.72751 2.8169 0
M  V30 2823 H 283.358 2.11931 3.59826 0
M  V30 2824 N 283.795 -0.628877 1.44509 0
M  V30 2825 C 285.02 -1.42048 1.5112 0
M  V30 2826 C 285.445 -1.87594 0.137818 0
M  V30 2827 O 284.803 -1.58873 -0.873437 0
M  V30 2828 C 284.851 -2.61541 2.48251 0
M  V30 2829 O 283.955 -3.61453 1.98559 0
M  V30 2830 H 283.296 -0.424942 0.510216 0
M  V30 2831 H 285.826 -0.767374 1.89664 0
M  V30 2832 H 285.836 -3.09057 2.66361 0
M  V30 2833 H 284.511 -2.27736 3.48007 0
M  V30 2834 H 283.088 -3.20731 1.90227 0
M  V30 2835 N 285.273 -1.31445 -0.869486 0
M  V30 2836 C 286.203 -1.21727 -1.99261 0
M  V30 2837 C 287.184 -0.104359 -1.6978 0
M  V30 2838 O 288.369 -0.289038 -1.92037 0
M  V30 2839 C 285.499 -0.924317 -3.34774 0
M  V30 2840 C 284.453 -1.99685 -3.78563 0
M  V30 2841 C 283.779 -1.55658 -5.11541 0
M  V30 2842 C 285.079 -3.41003 -3.95619 0
M  V30 2843 H 286.773 -2.1569 -2.07649 0
M  V30 2844 H 284.319 -1.03839 -0.997675 0
M  V30 2845 H 286.272 -0.842934 -4.12883 0
M  V30 2846 H 284.996 0.0509793 -3.2656 0
M  V30 2847 H 283.655 -2.06813 -3.02694 0
M  V30 2848 H 283.303 -0.569132 -4.9977 0
M  V30 2849 H 283.003 -2.27409 -5.41811 0
M  V30 2850 H 284.527 -1.48928 -5.92159 0
M  V30 2851 H 285.941 -3.36547 -4.64122 0
M  V30 2852 H 284.338 -4.10975 -4.37286 0
M  V30 2853 H 285.408 -3.81754 -2.98985 0
M  V30 2854 N 286.751 1.08385 -1.14413 0
M  V30 2855 C 287.997 1.81044 -0.913834 0
M  V30 2856 C 288.33 1.86004 0.558209 0
M  V30 2857 O 287.605 1.33606 1.4135 0
M  V30 2858 C 287.888 3.26648 -1.51569 0
M  V30 2859 C 287.741 3.29895 -3.0576 0
M  V30 2860 C 289.06 4.23629 -1.19273 0
M  V30 2861 H 286.179 0.65727 -0.333414 0
M  V30 2862 H 288.821 1.26896 -1.41412 0
M  V30 2863 H 286.971 3.72889 -1.09023 0
M  V30 2864 H 288.643 2.91977 -3.57137 0
M  V30 2865 H 286.886 2.69163 -3.40197 0
M  V30 2866 H 287.557 4.32516 -3.42977 0
M  V30 2867 H 290.033 3.85727 -1.56057 0
M  V30 2868 H 288.909 5.23822 -1.64017 0
M  V30 2869 H 289.17 4.41968 -0.108068 0
M  V30 2870 N 288.23 0.939286 1.26551 0
M  V30 2871 C 289.178 0.43815 2.28436 0
M  V30 2872 C 290.172 -0.483587 1.62351 0
M  V30 2873 O 291.378 -0.362009 1.76322 0
M  V30 2874 H 287.753 0.123149 0.741848 0
M  V30 2875 H 289.724 1.31002 2.68106 0
M  V30 2876 C 288.473 -0.283052 3.46546 0
M  V30 2877 H 287.796 0.417043 3.97619 0
M  V30 2878 H 289.236 -0.597948 4.19763 0
M  V30 2879 C 287.695 -1.50018 3.01656 0
M  V30 2880 O 288.225 -2.59855 3.0633 0
M  V30 2881 N 286.431 -1.35608 2.57019 0
M  V30 2882 H 285.978 -0.46244 2.53415 0
M  V30 2883 H 285.936 -2.17165 2.27347 0
M  V30 2884 N 289.708 -1.40897 0.706093 0
M  V30 2885 C 290.64 -2.29199 0.00815776 0
M  V30 2886 C 291.653 -1.45336 -0.733582 0
M  V30 2887 O 292.842 -1.68727 -0.582537 0
M  V30 2888 C 289.942 -3.23417 -1.01265 0
M  V30 2889 C 289.115 -4.36089 -0.338387 0
M  V30 2890 C 288.174 -5.10811 -1.26326 0
M  V30 2891 O 287.2 -5.64215 -0.751651 0
M  V30 2892 N 288.402 -5.19269 -2.595 0
M  V30 2893 H 291.167 -2.89738 0.766297 0
M  V30 2894 H 288.728 -1.52164 0.55296 0
M  V30 2895 H 290.72 -3.70276 -1.63334 0
M  V30 2896 H 289.29 -2.64112 -1.67223 0
M  V30 2897 H 288.51 -3.91479 0.462352 0
M  V30 2898 H 289.798 -5.08634 0.130031 0
M  V30 2899 H 289.196 -4.77347 -3.03573 0
M  V30 2900 H 287.753 -5.69667 -3.16737 0
M  V30 2901 N 291.186 -0.45159 -1.50991 0
M  V30 2902 C 292.133 0.352625 -2.2809 0
M  V30 2903 C 293.103 1.0044 -1.32291 0
M  V30 2904 O 294.288 1.02058 -1.6121 0
M  V30 2905 C 291.428 1.43983 -3.13629 0
M  V30 2906 C 290.541 0.804772 -4.24438 0
M  V30 2907 C 289.676 1.86822 -4.97263 0
M  V30 2908 C 288.715 1.21236 -5.99973 0
M  V30 2909 N 287.852 2.2178 -6.66152 0
M  V30 2910 H 292.692 -0.311186 -2.96371 0
M  V30 2911 H 290.229 -0.165308 -1.46168 0
M  V30 2912 H 292.187 2.08161 -3.61559 0
M  V30 2913 H 290.817 2.07307 -2.47434 0
M  V30 2914 H 289.869 0.0509129 -3.80366 0
M  V30 2915 H 291.181 0.286076 -4.97979 0
M  V30 2916 H 290.335 2.58628 -5.48813 0
M  V30 2917 H 289.074 2.42068 -4.23385 0
M  V30 2918 H 288.079 0.479828 -5.47702 0
M  V30 2919 H 289.304 0.667051 -6.75816 0
M  V30 2920 H 287.25 2.76079 -5.95077 0
M  V30 2921 H 287.167 1.74841 -7.35504 0
M  V30 2922 H 288.435 2.93026 -7.22327 0
M  V30 2923 N 292.664 1.56529 -0.183458 0
M  V30 2924 C 293.627 2.17324 0.728223 0
M  V30 2925 C 294.627 1.12453 1.14939 0
M  V30 2926 O 295.817 1.37902 1.06437 0
M  V30 2927 C 292.949 2.76591 1.99274 0
M  V30 2928 H 294.142 2.99241 0.198772 0
M  V30 2929 H 291.695 1.5616 0.0661391 0
M  V30 2930 H 292.43 1.98441 2.56499 0
M  V30 2931 H 292.215 3.5335 1.69959 0
M  V30 2932 H 293.705 3.23311 2.6431 0
M  V30 2933 N 294.142 -0.090211 1.57342 0
M  V30 2934 C 295.072 -1.10976 2.05443 0
M  V30 2935 C 296.053 -1.41482 0.944284 0
M  V30 2936 O 297.238 -1.51428 1.21586 0
M  V30 2937 C 294.368 -2.42831 2.48295 0
M  V30 2938 C 293.322 -2.26721 3.63018 0
M  V30 2939 C 292.648 -3.63796 3.91863 0
M  V30 2940 C 293.948 -1.7037 4.93732 0
M  V30 2941 H 295.642 -0.709564 2.9087 0
M  V30 2942 H 293.188 -0.339874 1.39932 0
M  V30 2943 H 295.141 -3.14431 2.80555 0
M  V30 2944 H 293.865 -2.84795 1.59873 0
M  V30 2945 H 292.524 -1.57565 3.31012 0
M  V30 2946 H 292.172 -4.03297 3.00601 0
M  V30 2947 H 291.872 -3.53861 4.69101 0
M  V30 2948 H 293.396 -4.36855 4.26603 0
M  V30 2949 H 294.81 -2.31816 5.24342 0
M  V30 2950 H 293.207 -1.71181 5.75167 0
M  V30 2951 H 294.277 -0.663542 4.80339 0
M  V30 2952 N 295.62 -1.53406 -0.361157 0
M  V30 2953 C 296.583 -1.79479 -1.42548 0
M  V30 2954 C 297.583 -0.665327 -1.4639 0
M  V30 2955 O 298.773 -0.933549 -1.47073 0
M  V30 2956 C 295.905 -1.92087 -2.8163 0
M  V30 2957 H 297.098 -2.74538 -1.20701 0
M  V30 2958 H 294.651 -1.4455 -0.594546 0
M  V30 2959 H 295.386 -0.991099 -3.08784 0
M  V30 2960 H 295.171 -2.74241 -2.80239 0
M  V30 2961 H 296.661 -2.13836 -3.58697 0
M  V30 2962 N 297.098 0.621204 -1.44841 0
M  V30 2963 C 298.008 1.7612 -1.5498 0
M  V30 2964 C 299.024 1.68477 -0.434927 0
M  V30 2965 O 300.2 1.89076 -0.693693 0
M  V30 2966 C 297.265 3.1254 -1.50065 0
M  V30 2967 C 296.326 3.31741 -2.72482 0
M  V30 2968 C 295.559 4.61653 -2.67792 0
M  V30 2969 O 295.782 5.431 -1.74352 0
M  V30 2970 O 294.716 4.83271 -3.58794 0
M  V30 2971 H 298.542 1.70518 -2.51311 0
M  V30 2972 H 296.127 0.783643 -1.27198 0
M  V30 2973 H 298.009 3.93844 -1.49882 0
M  V30 2974 H 296.684 3.18663 -0.568806 0
M  V30 2975 H 295.591 2.50077 -2.7823 0
M  V30 2976 H 296.924 3.30486 -3.64746 0
M  V30 2977 N 298.576 1.31904 0.862503 0
M  V30 2978 C 299.823 1.22017 1.61611 0
M  V30 2979 C 300.151 -0.21991 1.93253 0
M  V30 2980 O 299.406 -1.17076 1.56817 0
M  V30 2981 C 299.705 2.01713 2.95037 0
M  V30 2982 C 299.371 3.51145 2.82857 0
M  V30 2983 C 298.033 3.91889 2.79243 0
M  V30 2984 C 300.385 4.46204 2.69353 0
M  V30 2985 C 297.713 5.25947 2.59993 0
M  V30 2986 C 300.065 5.80397 2.5164 0
M  V30 2987 C 298.729 6.20352 2.46413 0
M  V30 2988 H 297.999 0.44649 0.591378 0
M  V30 2989 H 300.646 1.63248 1.00111 0
M  V30 2990 H 298.951 1.53185 3.60613 0
M  V30 2991 H 300.648 1.91437 3.52353 0
M  V30 2992 H 297.238 3.1878 2.86491 0
M  V30 2993 H 301.422 4.15652 2.71196 0
M  V30 2994 H 296.678 5.5597 2.54376 0
M  V30 2995 H 300.852 6.53676 2.40169 0
M  V30 2996 H 298.479 7.24172 2.31256 0
M  V30 2997 N 300.054 -1.07777 1.14986 0
M  V30 2998 C 301.47 -1.32373 0.891596 0
M  V30 2999 C 301.67 -1.9609 -0.463788 0
M  V30 3000 O 300.726 -2.21801 -1.20667 0
M  V30 3001 C 302.039 -2.21905 2.02925 0
M  V30 3002 C 303.587 -2.35367 2.06329 0
M  V30 3003 C 304.062 -3.28245 3.19405 0
M  V30 3004 N 305.553 -3.35824 3.19024 0
M  V30 3005 C 306.288 -4.07739 4.03158 0
M  V30 3006 N 305.784 -4.82306 4.97346 0
M  V30 3007 N 307.577 -4.03635 3.91197 0
M  V30 3008 H 299.728 -0.648039 2.02273 0
M  V30 3009 H 301.991 -0.348149 0.881757 0
M  V30 3010 H 301.697 -1.82342 3.0074 0
M  V30 3011 H 301.571 -3.22407 1.95789 0
M  V30 3012 H 303.958 -2.74186 1.09116 0
M  V30 3013 H 304.039 -1.34585 2.17533 0
M  V30 3014 H 303.683 -2.90146 4.16867 0
M  V30 3015 H 303.613 -4.28971 3.05437 0
M  V30 3016 H 306.104 -2.8267 2.50811 0
M  V30 3017 H 306.417 -5.34661 5.57994 0
M  V30 3018 H 304.762 -4.81337 5.01338 0
M  V30 3019 H 307.953 -3.44491 3.16928 0
M  V30 3020 H 308.126 -4.59417 4.5699 0
M  V30 3021 N 301.532 -0.945985 -1.26051 0
M  V30 3022 C 302.495 -0.463897 -2.24456 0
M  V30 3023 C 303.495 0.427655 -1.55009 0
M  V30 3024 O 304.685 0.226157 -1.72726 0
M  V30 3025 C 301.817 0.330812 -3.39291 0
M  V30 3026 H 303.01 -1.33357 -2.68619 0
M  V30 3027 H 300.563 -0.728416 -1.38289 0
M  V30 3028 H 301.298 1.21852 -3.00537 0
M  V30 3029 H 301.083 -0.308679 -3.90883 0
M  V30 3030 H 302.573 0.657865 -4.12386 0
M  V30 3031 N 303.011 1.40521 -0.713556 0
M  V30 3032 C 303.958 2.30723 -0.059684 0
M  V30 3033 C 304.928 1.48079 0.752448 0
M  V30 3034 O 306.113 1.76823 0.71681 0
M  V30 3035 C 303.253 3.34274 0.857594 0
M  V30 3036 C 302.366 4.31986 0.0351536 0
M  V30 3037 C 301.501 5.22605 0.951724 0
M  V30 3038 C 300.54 6.11976 0.123253 0
M  V30 3039 N 299.677 6.9502 0.99459 0
M  V30 3040 H 304.517 2.86074 -0.834596 0
M  V30 3041 H 302.054 1.40879 -0.42326 0
M  V30 3042 H 304.012 3.92879 1.40364 0
M  V30 3043 H 302.642 2.8043 1.59871 0
M  V30 3044 H 301.694 3.7518 -0.628052 0
M  V30 3045 H 303.006 4.95101 -0.606347 0
M  V30 3046 H 302.16 5.86131 1.56638 0
M  V30 3047 H 300.899 4.59759 1.62705 0
M  V30 3048 H 299.904 5.47482 -0.50435 0
M  V30 3049 H 301.129 6.76881 -0.548539 0
M  V30 3050 H 299.075 6.34764 1.6556 0
M  V30 3051 H 298.992 7.54892 0.40908 0
M  V30 3052 H 300.26 7.62997 1.59549 0
M  V30 3053 N 304.489 0.459591 1.5075 0
M  V30 3054 C 305.714 -0.0996819 2.0716 0
M  V30 3055 C 306.139 -1.33761 1.32249 0
M  V30 3056 O 305.497 -1.77551 0.366786 0
M  V30 3057 C 305.545 -0.378226 3.58611 0
M  V30 3058 O 304.649 -1.46081 3.85661 0
M  V30 3059 H 303.99 0.00791392 0.663953 0
M  V30 3060 H 306.52 0.647329 1.9409 0
M  V30 3061 H 306.53 -0.622135 4.03229 0
M  V30 3062 H 305.205 0.526439 4.12555 0
M  V30 3063 H 303.782 -1.20511 3.5289 0
M  V30 3064 N 305.967 -1.56429 0.191757 0
M  V30 3065 C 306.9 -2.14829 -0.76967 0
M  V30 3066 C 307.878 -1.08405 -1.2119 0
M  V30 3067 O 309.062 -1.36498 -1.30002 0
M  V30 3068 C 306.189 -2.70446 -2.03903 0
M  V30 3069 C 305.235 -3.89428 -1.7392 0
M  V30 3070 S 306.068 -5.28048 -0.890265 0
M  V30 3071 C 307.224 -5.87085 -2.16984 0
M  V30 3072 H 307.457 -2.96042 -0.273204 0
M  V30 3073 H 304.99 -1.54383 -0.0231975 0
M  V30 3074 H 306.948 -3.03134 -2.76803 0
M  V30 3075 H 305.609 -1.89281 -2.50662 0
M  V30 3076 H 304.802 -4.26742 -2.68155 0
M  V30 3077 H 304.404 -3.57732 -1.09103 0
M  V30 3078 H 306.696 -6.01244 -3.12269 0
M  V30 3079 H 307.639 -6.83747 -1.84108 0
M  V30 3080 H 308.047 -5.15663 -2.29678 0
M  V30 3081 N 307.445 0.0818655 -1.57387 0
M  V30 3082 C 308.393 1.11712 -2.04018 0
M  V30 3083 C 309.387 1.40683 -0.94364 0
M  V30 3084 O 310.593 1.40209 -1.12878 0
M  V30 3085 H 306.968 0.377542 -0.650358 0
M  V30 3086 H 308.939 0.697614 -2.90131 0
M  V30 3087 C 307.688 2.42537 -2.49141 0
M  V30 3088 H 307.011 2.21092 -3.33104 0
M  V30 3089 H 308.451 3.13446 -2.85531 0
M  V30 3090 C 306.91 3.0778 -1.37014 0
M  V30 3091 O 307.44 3.95436 -0.706621 0
M  V30 3092 N 305.646 2.68242 -1.11779 0
M  V30 3093 H 305.193 1.97052 -1.65917 0
M  V30 3094 H 305.151 3.1222 -0.369594 0
M  V30 3095 N 308.923 1.53595 0.353017 0
M  V30 3096 C 310.334 1.61937 0.929153 0
M  V30 3097 C 310.685 0.494686 1.89861 0
M  V30 3098 O 309.81 -0.377017 2.1309 0
M  V30 3099 C 310.405 2.93526 1.69199 0
M  V30 3100 C 308.964 3.04161 2.21727 0
M  V30 3101 C 308.111 2.57322 1.03348 0
M  V30 3102 H 311.062 1.58155 0.131431 0
M  V30 3103 H 311.083 2.82034 2.55416 0
M  V30 3104 H 310.595 3.75362 0.986144 0
M  V30 3105 H 308.696 2.26938 2.95516 0
M  V30 3106 H 308.809 4.09465 2.48748 0
M  V30 3107 H 307.173 2.12499 1.40414 0
M  V30 3108 H 307.956 3.41588 0.342428 0
M  V30 3109 N 310.401 -0.613514 1.45168 0
M  V30 3110 C 311.311 -1.75296 1.55912 0
M  V30 3111 C 312.327 -1.68244 0.443856 0
M  V30 3112 O 313.503 -1.88706 0.70371 0
M  V30 3113 C 310.568 -3.1174 1.5172 0
M  V30 3114 C 309.629 -3.30291 2.74238 0
M  V30 3115 C 308.862 -4.60226 2.70236 0
M  V30 3116 O 309.085 -5.42168 1.77229 0
M  V30 3117 O 308.019 -4.81361 3.61352 0
M  V30 3118 H 311.845 -1.69183 2.52212 0
M  V30 3119 H 309.43 -0.776886 1.27612 0
M  V30 3120 H 311.312 -3.93044 1.51968 0
M  V30 3121 H 309.987 -3.18357 0.585697 0
M  V30 3122 H 308.894 -2.48598 2.79553 0
M  V30 3123 H 310.227 -3.28547 3.66494 0
M  V30 3124 N 311.879 -1.3236 -0.855495 0
M  V30 3125 C 312.829 -1.17809 -1.95205 0
M  V30 3126 C 313.813 -0.0852319 -1.60674 0
M  V30 3127 O 315.005 -0.311651 -1.74235 0
M  V30 3128 C 312.134 -0.902437 -3.31226 0
M  V30 3129 C 311.22 -2.03695 -3.7198 0
M  V30 3130 N 311.611 -3.28544 -3.84568 0
M  V30 3131 C 309.909 -1.93993 -4.016 0
M  V30 3132 C 310.61 -4.02847 -4.19629 0
M  V30 3133 N 309.586 -3.31138 -4.31102 0
M  V30 3134 H 313.388 -2.12462 -2.0307 0
M  V30 3135 H 310.902 -1.24127 -1.0472 0
M  V30 3136 H 312.899 -0.77915 -4.09554 0
M  V30 3137 H 311.559 0.0357267 -3.2468 0
M  V30 3138 H 312.57 -3.6349 -3.68911 0
M  V30 3139 H 309.247 -1.07733 -4.03361 0
M  V30 3140 H 310.637 -5.10506 -4.36845 0
M  V30 3141 N 313.357 1.07166 -1.15556 0
M  V30 3142 C 314.768 1.6127 -0.940693 0
M  V30 3143 C 315.119 1.89251 0.517551 0
M  V30 3144 O 314.244 1.65937 1.38903 0
M  V30 3145 C 314.839 2.92993 -1.7012 0
M  V30 3146 C 313.398 3.43832 -1.53156 0
M  V30 3147 C 312.545 2.1786 -1.71558 0
M  V30 3148 H 315.496 0.90229 -1.30554 0
M  V30 3149 H 315.517 3.62007 -1.17181 0
M  V30 3150 H 315.029 2.72596 -2.76248 0
M  V30 3151 H 313.13 3.69307 -0.494294 0
M  V30 3152 H 313.243 4.19747 -2.30975 0
M  V30 3153 H 311.607 2.2765 -1.14225 0
M  V30 3154 H 312.39 1.99956 -2.79056 0
M  V30 3155 N 314.835 0.952656 1.25548 0
M  V30 3156 C 315.785 0.442033 2.23674 0
M  V30 3157 C 316.769 -0.467632 1.53955 0
M  V30 3158 O 317.961 -0.301006 1.74422 0
M  V30 3159 C 315.09 -0.280816 3.4215 0
M  V30 3160 C 314.176 0.646803 4.19139 0
M  V30 3161 N 314.567 1.77759 4.73535 0
M  V30 3162 C 312.865 0.454617 4.43677 0
M  V30 3163 C 313.566 2.35658 5.31827 0
M  V30 3164 N 312.542 1.64333 5.18166 0
M  V30 3165 H 316.344 1.30505 2.63336 0
M  V30 3166 H 313.858 0.809904 1.40763 0
M  V30 3167 H 315.855 -0.663747 4.11582 0
M  V30 3168 H 314.515 -1.14046 3.04012 0
M  V30 3169 H 315.526 2.15949 4.7073 0
M  V30 3170 H 312.203 -0.362312 4.15925 0
M  V30 3171 H 313.593 3.30998 5.84713 0
M  V30 3172 N 316.313 -1.40141 0.720998 0
M  V30 3173 C 317.559 -2.01084 0.263231 0
M  V30 3174 C 317.892 -1.57052 -1.14229 0
M  V30 3175 O 317.167 -0.793027 -1.77599 0
M  V30 3176 C 317.45 -3.58401 0.349344 0
M  V30 3177 C 317.303 -4.12491 1.79363 0
M  V30 3178 C 318.622 -4.39231 -0.276351 0
M  V30 3179 H 315.741 -0.730572 0.0971228 0
M  V30 3180 H 318.383 -1.66543 0.914518 0
M  V30 3181 H 316.533 -3.87958 -0.205165 0
M  V30 3182 H 318.205 -3.93711 2.40394 0
M  V30 3183 H 316.448 -3.66576 2.31958 0
M  V30 3184 H 317.119 -5.21646 1.80524 0
M  V30 3185 H 319.595 -4.15637 0.196184 0
M  V30 3186 H 318.471 -5.48586 -0.185681 0
M  V30 3187 H 318.732 -4.20643 -1.36059 0
M  V30 3188 N 317.792 -0.46758 -1.50504 0
M  V30 3189 C 319.208 -0.121533 -1.59137 0
M  V30 3190 C 319.408 1.3717 -1.47603 0
M  V30 3191 O 318.464 2.14464 -1.33272 0
M  V30 3192 C 319.777 -0.6686 -2.93173 0
M  V30 3193 C 321.325 -0.631716 -3.06559 0
M  V30 3194 C 321.8 -1.15627 -4.43164 0
M  V30 3195 N 323.291 -1.11553 -4.49567 0
M  V30 3196 C 324.026 -1.49195 -5.5365 0
M  V30 3197 N 323.522 -1.94269 -6.65005 0
M  V30 3198 N 325.315 -1.4082 -5.44175 0
M  V30 3199 H 317.466 -1.4388 -1.56245 0
M  V30 3200 H 319.729 -0.594784 -0.738198 0
M  V30 3201 H 319.435 -1.71453 -3.07078 0
M  V30 3202 H 319.309 -0.11021 -3.77039 0
M  V30 3203 H 321.696 0.405297 -2.92304 0
M  V30 3204 H 321.777 -1.22687 -2.24458 0
M  V30 3205 H 321.421 -2.1919 -4.58168 0
M  V30 3206 H 321.351 -0.537365 -5.23851 0
M  V30 3207 H 323.842 -0.784895 -3.69659 0
M  V30 3208 H 324.155 -2.21148 -7.40482 0
M  V30 3209 H 322.5 -1.98219 -6.66134 0
M  V30 3210 H 325.691 -1.0545 -4.56068 0
M  V30 3211 H 325.864 -1.70481 -6.25172 0
M  V30 3212 N 319.27 1.56325 -0.20005 0
M  V30 3213 C 320.518 1.97329 0.436547 0
M  V30 3214 C 320.839 1.08826 1.61808 0
M  V30 3215 O 320.109 0.160604 1.95241 0
M  V30 3216 H 318.689 0.728714 0.164272 0
M  V30 3217 H 321.351 1.92761 -0.287937 0
M  V30 3218 H 320.447 3.02264 0.777353 0
M  V30 3219 N 320.748 -0.0735177 1.57428 0
M  V30 3220 C 321.976 -0.785969 1.9139 0
M  V30 3221 C 322.391 -1.71207 0.795847 0
M  V30 3222 O 321.748 -1.81033 -0.230915 0
M  V30 3223 C 321.799 -1.58107 3.25091 0
M  V30 3224 O 321.52 -0.6922 4.32597 0
M  V30 3225 C 323.021 -2.39467 3.73055 0
M  V30 3226 H 320.241 -0.223558 0.632663 0
M  V30 3227 H 322.785 -0.044302 2.04452 0
M  V30 3228 H 320.94 -2.27503 3.13562 0
M  V30 3229 H 321.354 -1.24504 5.09508 0
M  V30 3230 H 322.828 -2.90716 4.69242 0
M  V30 3231 H 323.305 -3.18913 3.01979 0
M  V30 3232 H 323.911 -1.7523 3.87523 0
M  V30 3233 N 322.226 -1.5378 -0.344866 0
M  V30 3234 C 323.189 -1.80981 -1.40637 0
M  V30 3235 C 324.189 -0.680816 -1.45676 0
M  V30 3236 O 325.379 -0.949095 -1.46075 0
M  V30 3237 C 322.511 -1.95063 -2.79577 0
M  V30 3238 H 323.704 -2.75803 -1.17783 0
M  V30 3239 H 321.257 -1.45173 -0.579181 0
M  V30 3240 H 321.992 -1.02379 -3.07716 0
M  V30 3241 H 321.777 -2.77198 -2.77315 0
M  V30 3242 H 323.267 -2.17629 -3.56409 0
M  V30 3243 N 323.704 0.605807 -1.45491 0
M  V30 3244 C 324.636 1.73031 -1.5031 0
M  V30 3245 C 325.649 1.57968 -0.393687 0
M  V30 3246 O 326.838 1.65817 -0.660839 0
M  V30 3247 C 323.938 3.11049 -1.34543 0
M  V30 3248 C 323.111 3.52334 -2.59189 0
M  V30 3249 C 322.17 4.69323 -2.37954 0
M  V30 3250 O 321.196 4.7635 -3.11575 0
M  V30 3251 N 322.398 5.62705 -1.4263 0
M  V30 3252 H 325.163 1.6936 -2.4726 0
M  V30 3253 H 322.724 0.79114 -1.41254 0
M  V30 3254 H 324.716 3.87071 -1.18144 0
M  V30 3255 H 323.286 3.09217 -0.458623 0
M  V30 3256 H 322.506 2.66256 -2.90691 0
M  V30 3257 H 323.794 3.76677 -3.42041 0
M  V30 3258 H 323.192 5.59744 -0.818758 0
M  V30 3259 H 321.749 6.38252 -1.32202 0
M  V30 3260 N 325.182 1.32811 0.848464 0
M  V30 3261 C 326.13 1.22231 1.97895 0
M  V30 3262 C 327.124 0.125749 1.68933 0
M  V30 3263 O 328.33 0.289083 1.77663 0
M  V30 3264 H 324.705 0.379058 0.649476 0
M  V30 3265 H 326.676 2.17828 2.03945 0
M  V30 3266 C 325.425 0.968572 3.33937 0
M  V30 3267 H 324.748 1.80458 3.56756 0
M  V30 3268 H 326.188 0.934808 4.13567 0
M  V30 3269 C 324.647 -0.328628 3.35293 0
M  V30 3270 O 325.177 -1.33848 3.78745 0
M  V30 3271 N 323.383 -0.352788 2.88451 0
M  V30 3272 H 322.93 0.469541 2.53285 0
M  V30 3273 H 322.888 -1.22057 2.89741 0
M  V30 3274 N 326.66 -1.06551 1.16123 0
M  V30 3275 C 328.071 -1.60768 0.949232 0
M  V30 3276 C 328.422 -1.89523 -0.507508 0
M  V30 3277 O 327.547 -1.66671 -1.38021 0
M  V30 3278 C 328.142 -2.92086 1.71671 0
M  V30 3279 C 326.701 -3.43015 1.54977 0
M  V30 3280 C 325.848 -2.16947 1.72711 0
M  V30 3281 H 328.799 -0.895354 1.31031 0
M  V30 3282 H 328.82 -3.6138 1.19099 0
M  V30 3283 H 328.332 -2.71127 2.7769 0
M  V30 3284 H 326.433 -3.69039 0.513873 0
M  V30 3285 H 326.546 -4.18516 2.33198 0
M  V30 3286 H 324.91 -2.27041 1.15431 0
M  V30 3287 H 325.693 -1.98473 2.80113 0
M  V30 3288 N 328.138 -0.959301 -1.25041 0
M  V30 3289 C 329.415 -0.533805 -1.88175 0
M  V30 3290 C 329.795 0.988994 -1.865 0
M  V30 3291 O 329.143 1.85677 -1.33177 0
M  V30 3292 C 329.353 -1.11575 -3.30684 0
M  V30 3293 C 330.701 -1.19548 -4.07423 0
M  V30 3294 O 331.725 -1.06765 -3.39823 0
M  V30 3295 O 330.584 -1.39656 -5.28354 0
M  V30 3296 H 327.678 -0.176772 -0.807887 0
M  V30 3297 H 330.224 -1.05303 -1.33076 0
M  V30 3298 H 328.996 -2.15884 -3.26358 0
M  V30 3299 H 328.619 -0.580059 -3.93346 0
M  V30 3300 N 329.616 1.39756 -0.72842 0
M  V30 3301 C 330.865 1.99879 -0.270407 0
M  V30 3302 C 331.178 1.58449 1.14688 0
M  V30 3303 O 332.384 2.11362 1.70407 0
M  V30 3304 C 330.84 3.57292 -0.43252 0
M  V30 3305 C 330.448 4.07688 -1.85727 0
M  V30 3306 C 332.192 4.24485 -0.0359507 0
M  V30 3307 C 330.099 5.5765 -1.96928 0
M  V30 3308 H 329.029 0.747689 -0.0973472 0
M  V30 3309 H 331.68 1.59837 -0.901355 0
M  V30 3310 H 330.062 3.95097 0.267219 0
M  V30 3311 H 331.236 3.81231 -2.58843 0
M  V30 3312 H 329.551 3.53135 -2.20646 0
M  V30 3313 H 332.148 5.34609 -0.0987484 0
M  V30 3314 H 332.491 4.03915 1.00787 0
M  V30 3315 H 333.024 3.9183 -0.686604 0
M  V30 3316 H 329.763 5.8309 -2.99476 0
M  V30 3317 H 329.283 5.8593 -1.28241 0
M  V30 3318 H 330.962 6.22957 -1.74737 0
M  V30 3319 N 331.094 0.475555 1.50254 0
M  V30 3320 C 332.324 -0.0753399 2.06463 0
M  V30 3321 C 332.732 -1.33661 1.33908 0
M  V30 3322 O 332.075 -1.79219 0.403257 0
M  V30 3323 C 332.137 -0.424921 3.5698 0
M  V30 3324 C 331.801 0.734965 4.51051 0
M  V30 3325 C 332.798 1.61827 4.94073 0
M  V30 3326 C 330.483 0.926557 4.9368 0
M  V30 3327 C 332.477 2.67754 5.78434 0
M  V30 3328 C 330.164 1.98904 5.77824 0
M  V30 3329 C 331.162 2.8629 6.20103 0
M  V30 3330 O 330.85 3.90708 7.02568 0
M  V30 3331 H 330.582 0.00576308 0.675975 0
M  V30 3332 H 333.136 0.664662 1.94349 0
M  V30 3333 H 331.366 -1.21817 3.67012 0
M  V30 3334 H 333.055 -0.911422 3.95535 0
M  V30 3335 H 333.821 1.48196 4.61804 0
M  V30 3336 H 329.7 0.25584 4.6029 0
M  V30 3337 H 333.244 3.35992 6.11355 0
M  V30 3338 H 329.141 2.12541 6.09505 0
M  V30 3339 H 329.909 3.87751 7.20827 0
M  V30 3340 N 332.573 -1.56217 0.208337 0
M  V30 3341 C 333.82 -1.97949 -0.42692 0
M  V30 3342 C 334.148 -1.09562 -1.60706 0
M  V30 3343 O 333.403 -0.137616 -1.95216 0
M  V30 3344 C 333.702 -3.45441 -0.916797 0
M  V30 3345 C 333.368 -4.50646 0.151391 0
M  V30 3346 C 332.03 -4.79139 0.444867 0
M  V30 3347 C 334.382 -5.13811 0.874492 0
M  V30 3348 C 331.71 -5.68084 1.46619 0
M  V30 3349 C 334.062 -6.03861 1.88506 0
M  V30 3350 C 332.726 -6.30704 2.18559 0
M  V30 3351 H 331.996 -0.724345 -0.156221 0
M  V30 3352 H 334.643 -1.89006 0.308084 0
M  V30 3353 H 332.948 -3.51521 -1.73032 0
M  V30 3354 H 334.645 -3.75094 -1.41794 0
M  V30 3355 H 331.235 -4.28511 -0.0875068 0
M  V30 3356 H 335.419 -4.91879 0.660996 0
M  V30 3357 H 330.675 -5.87151 1.7048 0
M  V30 3358 H 334.849 -6.51861 2.45051 0
M  V30 3359 H 332.476 -6.99424 2.97843 0
M  V30 3360 N 334.051 0.0651679 -1.57465 0
M  V30 3361 C 334.983 1.10359 -2.00882 0
M  V30 3362 C 335.996 1.346 -0.915788 0
M  V30 3363 O 337.185 1.32723 -1.1936 0
M  V30 3364 C 334.285 2.45312 -2.33828 0
M  V30 3365 C 333.458 2.40934 -3.65061 0
M  V30 3366 C 332.517 3.58047 -3.85602 0
M  V30 3367 O 331.543 3.39175 -4.57109 0
M  V30 3368 N 332.745 4.78637 -3.28462 0
M  V30 3369 H 335.51 0.733807 -2.90578 0
M  V30 3370 H 333.071 0.253719 -1.599 0
M  V30 3371 H 335.063 3.22314 -2.44737 0
M  V30 3372 H 333.633 2.74267 -1.49988 0
M  V30 3373 H 332.853 1.49273 -3.64844 0
M  V30 3374 H 334.141 2.35117 -4.51218 0
M  V30 3375 H 333.539 4.96872 -2.70433 0
M  V30 3376 H 332.096 5.53127 -3.44809 0
M  V30 3377 N 335.529 1.53961 0.336706 0
M  V30 3378 C 336.777 1.71197 1.07405 0
M  V30 3379 C 337.098 0.481475 1.88962 0
M  V30 3380 O 336.368 -0.504585 1.8929 0
M  V30 3381 H 334.948 0.631185 0.399517 0
M  V30 3382 H 337.61 1.91232 0.376323 0
M  V30 3383 H 336.706 2.58587 1.74755 0
M  V30 3384 N 337.007 -0.598083 1.45811 0
M  V30 3385 C 338.423 -0.919847 1.30426 0
M  V30 3386 C 338.623 -1.99759 0.264303 0
M  V30 3387 O 337.679 -2.50221 -0.338472 0
M  V30 3388 C 338.992 -1.35176 2.68603 0
M  V30 3389 C 340.54 -1.46546 2.76574 0
M  V30 3390 C 341.015 -1.9311 4.15298 0
M  V30 3391 N 342.506 -2.00328 4.1764 0
M  V30 3392 C 343.241 -2.37599 5.21856 0
M  V30 3393 N 342.737 -2.73771 6.36413 0
M  V30 3394 N 344.53 -2.38021 5.09218 0
M  V30 3395 H 336.681 0.114111 2.12093 0
M  V30 3396 H 338.944 -0.0116121 0.947929 0
M  V30 3397 H 338.65 -0.633969 3.45939 0
M  V30 3398 H 338.524 -2.3164 2.97696 0
M  V30 3399 H 340.911 -2.17415 1.99537 0
M  V30 3400 H 340.992 -0.483727 2.51185 0
M  V30 3401 H 340.636 -1.22824 4.92825 0
M  V30 3402 H 340.566 -2.92213 4.38086 0
M  V30 3403 H 343.057 -1.74925 3.34977 0
M  V30 3404 H 343.37 -3.0112 7.11721 0
M  V30 3405 H 341.715 -2.71445 6.39799 0
M  V30 3406 H 344.906 -2.09174 4.18765 0
M  V30 3407 H 345.079 -2.66741 5.90554 0
M  V30 3408 N 338.485 -1.33259 -0.841409 0
M  V30 3409 C 339.395 -1.25332 -1.98316 0
M  V30 3410 C 340.411 -0.164364 -1.73222 0
M  V30 3411 O 341.587 -0.387486 -1.97637 0
M  V30 3412 C 338.652 -0.990078 -3.32262 0
M  V30 3413 C 337.713 -2.16879 -3.70489 0
M  V30 3414 C 336.946 -1.91801 -4.98044 0
M  V30 3415 O 337.169 -0.867075 -5.63771 0
M  V30 3416 O 336.103 -2.78267 -5.33714 0
M  V30 3417 H 339.929 -2.21344 -2.07944 0
M  V30 3418 H 337.514 -1.1328 -0.974058 0
M  V30 3419 H 339.396 -0.860321 -4.12524 0
M  V30 3420 H 338.071 -0.0602155 -3.23644 0
M  V30 3421 H 336.978 -2.35407 -2.90748 0
M  V30 3422 H 338.311 -3.0819 -3.8377 0
M  V30 3423 N 339.963 1.05934 -1.16686 0
M  V30 3424 C 340.926 2.11669 -0.879144 0
M  V30 3425 C 341.926 1.60294 0.127445 0
M  V30 3426 O 343.116 1.7389 -0.103865 0
M  V30 3427 C 340.248 3.39438 -0.315425 0
M  V30 3428 H 341.441 2.38626 -1.81653 0
M  V30 3429 H 338.994 1.22058 -0.976299 0
M  V30 3430 H 339.729 3.18132 0.629468 0
M  V30 3431 H 339.514 3.78034 -1.04079 0
M  V30 3432 H 341.004 4.17391 -0.132189 0
M  V30 3433 N 341.441 0.965919 1.2453 0
M  V30 3434 C 342.404 0.499547 2.2369 0
M  V30 3435 C 343.404 -0.40294 1.5567 0
M  V30 3436 O 344.594 -0.19865 1.73064 0
M  V30 3437 C 341.726 -0.276792 3.39774 0
M  V30 3438 H 342.919 1.37613 2.66463 0
M  V30 3439 H 340.472 0.750324 1.37112 0
M  V30 3440 H 341.207 -1.17055 3.02438 0
M  V30 3441 H 340.992 0.370826 3.90343 0
M  V30 3442 H 342.482 -0.592175 4.1338 0
M  V30 3443 N 342.919 -1.39368 0.735821 0
M  V30 3444 C 343.867 -2.32443 0.0855131 0
M  V30 3445 C 344.861 -1.53104 -0.724954 0
M  V30 3446 O 346.067 -1.68762 -0.626047 0
M  V30 3447 H 342.442 -0.751948 0.00885257 0
M  V30 3448 H 344.413 -2.84916 0.886883 0
M  V30 3449 C 343.162 -3.38206 -0.806983 0
M  V30 3450 H 342.485 -3.99335 -0.19274 0
M  V30 3451 H 343.925 -4.05779 -1.2296 0
M  V30 3452 C 342.384 -2.75321 -1.94165 0
M  V30 3453 O 342.914 -2.63231 -3.03435 0
M  V30 3454 N 341.12 -2.33396 -1.73132 0
M  V30 3455 H 340.667 -2.4343 -0.842596 0
M  V30 3456 H 340.625 -1.91661 -2.49225 0
M  V30 3457 N 344.397 -0.483516 -1.5 0
M  V30 3458 C 345.808 -0.0314176 -1.86674 0
M  V30 3459 C 346.159 1.37728 -1.39733 0
M  V30 3460 O 345.284 2.02327 -0.767635 0
M  V30 3461 C 345.879 -0.0502376 -3.38763 0
M  V30 3462 C 344.438 0.346442 -3.74802 0
M  V30 3463 C 343.585 -0.430366 -2.7394 0
M  V30 3464 H 346.536 -0.697182 -1.42566 0
M  V30 3465 H 346.557 0.749116 -3.73053 0
M  V30 3466 H 346.069 -1.07563 -3.72897 0
M  V30 3467 H 344.17 1.37572 -3.46273 0
M  V30 3468 H 344.283 0.0391486 -4.79084 0
M  V30 3469 H 342.647 0.117557 -2.54429 0
M  V30 3470 H 343.43 -1.4555 -3.10918 0
M  V30 3471 N 345.875 1.56104 -0.216619 0
M  V30 3472 C 347.105 2.02269 0.420802 0
M  V30 3473 C 347.513 1.09575 1.5424 0
M  V30 3474 O 346.856 0.0967308 1.83445 0
M  V30 3475 C 346.918 3.44784 1.01806 0
M  V30 3476 C 346.582 4.56988 0.0325154 0
M  V30 3477 C 347.579 5.14225 -0.766055 0
M  V30 3478 C 345.264 5.02228 -0.0848092 0
M  V30 3479 C 347.258 6.15169 -1.6687 0
M  V30 3480 C 344.945 6.03011 -0.990994 0
M  V30 3481 C 345.943 6.59357 -1.78149 0
M  V30 3482 O 345.631 7.58179 -2.67245 0
M  V30 3483 H 345.363 0.667353 0.107776 0
M  V30 3484 H 347.917 2.02747 -0.329034 0
M  V30 3485 H 346.147 3.41359 1.81689 0
M  V30 3486 H 347.836 3.74626 1.56237 0
M  V30 3487 H 348.602 4.80126 -0.685836 0
M  V30 3488 H 344.481 4.58054 0.520349 0
M  V30 3489 H 348.025 6.59076 -2.28615 0
M  V30 3490 H 343.922 6.36532 -1.07225 0
M  V30 3491 H 344.69 7.75682 -2.61265 0
M  V30 3492 N 347.353 -0.0568162 1.57498 0
M  V30 3493 C 348.583 -0.764515 1.91934 0
M  V30 3494 C 348.991 -1.70877 0.81227 0
M  V30 3495 O 348.334 -1.82351 -0.222213 0
M  V30 3496 C 348.396 -1.5994 3.21962 0
M  V30 3497 C 348.06 -0.822925 4.4953 0
M  V30 3498 C 349.057 -0.135464 5.19723 0
M  V30 3499 C 346.742 -0.785666 4.96117 0
M  V30 3500 C 348.736 0.578861 6.34766 0
M  V30 3501 C 346.423 -0.0675784 6.11063 0
M  V30 3502 C 347.421 0.613471 6.80239 0
M  V30 3503 O 347.109 1.31996 7.92989 0
M  V30 3504 H 346.841 -0.221647 0.63863 0
M  V30 3505 H 349.395 -0.0268218 2.05382 0
M  V30 3506 H 347.625 -2.38026 3.04763 0
M  V30 3507 H 349.314 -2.18715 3.41934 0
M  V30 3508 H 350.08 -0.155458 4.84751 0
M  V30 3509 H 345.959 -1.30524 4.42136 0
M  V30 3510 H 349.503 1.111 6.88696 0
M  V30 3511 H 345.4 -0.0455636 6.45484 0
M  V30 3512 H 346.168 1.23077 8.09194 0
M  V30 3513 N 348.832 -1.54138 -0.328536 0
M  V30 3514 C 349.762 -1.86167 -1.40939 0
M  V30 3515 C 350.743 -0.718044 -1.54202 0
M  V30 3516 O 351.928 -0.971328 -1.68163 0
M  V30 3517 C 349.058 -2.08461 -2.77779 0
M  V30 3518 C 348.012 -3.24299 -2.7931 0
M  V30 3519 C 347.338 -3.31955 -4.19178 0
M  V30 3520 C 348.638 -4.62065 -2.43502 0
M  V30 3521 H 350.332 -2.76689 -1.14383 0
M  V30 3522 H 347.878 -1.33132 -0.548806 0
M  V30 3523 H 349.831 -2.29453 -3.53454 0
M  V30 3524 H 348.555 -1.14684 -3.05802 0
M  V30 3525 H 347.214 -3.03187 -2.0609 0
M  V30 3526 H 346.862 -2.35745 -4.44335 0
M  V30 3527 H 346.562 -4.09805 -4.2111 0
M  V30 3528 H 348.086 -3.55175 -4.96672 0
M  V30 3529 H 349.5 -4.8297 -3.08889 0
M  V30 3530 H 347.897 -5.42429 -2.56693 0
M  V30 3531 H 348.967 -4.64652 -1.38659 0
M  V30 3532 N 350.31 0.590341 -1.46126 0
M  V30 3533 C 351.257 1.69994 -1.56111 0
M  V30 3534 C 352.227 1.61065 -0.405867 0
M  V30 3535 O 353.412 1.8039 -0.621613 0
M  V30 3536 C 350.552 3.08326 -1.55013 0
M  V30 3537 C 349.665 3.27936 -2.81215 0
M  V30 3538 C 348.8 4.56473 -2.71673 0
M  V30 3539 C 347.839 4.694 -3.92849 0
M  V30 3540 N 346.976 5.89254 -3.81738 0
M  V30 3541 H 351.816 1.60797 -2.50895 0
M  V30 3542 H 349.353 0.783799 -1.24479 0
M  V30 3543 H 351.311 3.88383 -1.52362 0
M  V30 3544 H 349.941 3.16439 -0.637667 0
M  V30 3545 H 348.993 2.41536 -2.93879 0
M  V30 3546 H 350.305 3.33357 -3.71045 0
M  V30 3547 H 349.459 5.44748 -2.67085 0
M  V30 3548 H 348.198 4.53477 -1.7947 0
M  V30 3549 H 347.203 3.79544 -3.97777 0
M  V30 3550 H 348.428 4.7418 -4.86138 0
M  V30 3551 H 346.374 5.87271 -2.92317 0
M  V30 3552 H 346.291 5.95911 -4.65217 0
M  V30 3553 H 347.559 6.79981 -3.81112 0
M  V30 3554 N 351.788 1.33704 0.83433 0
M  V30 3555 C 353.034 1.25603 1.59222 0
M  V30 3556 C 353.367 -0.176659 1.93395 0
M  V30 3557 O 352.642 -1.11915 1.59076 0
M  V30 3558 C 352.925 2.13576 2.89926 0
M  V30 3559 C 352.778 3.65326 2.62406 0
M  V30 3560 C 354.097 2.01238 3.91397 0
M  V30 3561 H 351.216 0.457613 0.577719 0
M  V30 3562 H 353.858 1.63848 0.961972 0
M  V30 3563 H 352.008 1.8109 3.43713 0
M  V30 3564 H 353.68 4.08124 2.15017 0
M  V30 3565 H 351.923 3.8698 1.96033 0
M  V30 3566 H 352.594 4.22232 3.55562 0
M  V30 3567 H 355.07 2.29738 3.46929 0
M  V30 3568 H 353.946 2.65036 4.80673 0
M  V30 3569 H 354.207 0.985951 4.30966 0
M  V30 3570 N 353.266 -1.05314 1.17247 0
M  V30 3571 C 354.677 -1.59753 0.96623 0
M  V30 3572 C 355.028 -1.9005 -0.487378 0
M  V30 3573 O 354.153 -1.68126 -1.36245 0
M  V30 3574 C 354.748 -2.90249 1.74759 0
M  V30 3575 C 353.307 -3.41352 1.58606 0
M  V30 3576 C 352.454 -2.15103 1.75002 0
M  V30 3577 H 355.405 -0.881406 1.31973 0
M  V30 3578 H 355.426 -3.60097 1.22925 0
M  V30 3579 H 354.938 -2.68166 2.8055 0
M  V30 3580 H 353.039 -3.68474 0.552985 0
M  V30 3581 H 353.152 -4.16019 2.37624 0
M  V30 3582 H 351.516 -2.25804 1.17833 0
M  V30 3583 H 352.299 -1.95491 2.82202 0
M  V30 3584 N 354.744 -0.972509 -1.24016 0
M  V30 3585 C 355.992 -0.635776 -1.91839 0
M  V30 3586 C 356.313 0.832312 -1.76345 0
M  V30 3587 O 355.583 1.5946 -1.13795 0
M  V30 3588 H 354.163 -0.232157 -0.710009 0
M  V30 3589 H 356.825 -1.23462 -1.50809 0
M  V30 3590 H 355.921 -0.880545 -2.99421 0
M  V30 3591 N 356.222 1.38976 -0.743202 0
M  V30 3592 C 357.471 1.99581 -0.291592 0
M  V30 3593 C 357.784 1.59656 1.13001 0
M  V30 3594 O 358.99 2.13157 1.68156 0
M  V30 3595 C 357.446 3.56813 -0.470391 0
M  V30 3596 C 357.054 4.05695 -1.90041 0
M  V30 3597 C 358.798 4.24423 -0.0809709 0
M  V30 3598 C 356.705 5.5553 -2.02832 0
M  V30 3599 H 355.635 0.746615 -0.105272 0
M  V30 3600 H 358.286 1.58872 -0.918258 0
M  V30 3601 H 356.668 3.95359 0.225299 0
M  V30 3602 H 357.842 3.78464 -2.62872 0
M  V30 3603 H 356.157 3.50775 -2.24379 0
M  V30 3604 H 358.754 5.34474 -0.155445 0
M  V30 3605 H 359.097 4.04962 0.96497 0
M  V30 3606 H 359.63 3.9108 -0.728124 0
M  V30 3607 H 356.369 5.79881 -3.05643 0
M  V30 3608 H 355.889 5.84537 -1.34448 0
M  V30 3609 H 357.568 6.21069 -1.81335 0
M  V30 3610 N 357.7 0.491464 1.49741 0
M  V30 3611 C 358.946 -0.0565092 2.02721 0
M  V30 3612 C 359.279 -1.37522 1.37118 0
M  V30 3613 O 358.554 -1.87866 0.503645 0
M  V30 3614 C 358.837 -0.219051 3.59433 0
M  V30 3615 C 358.69 1.12211 4.35579 0
M  V30 3616 C 360.009 -0.964157 4.29409 0
M  V30 3617 H 357.128 -0.0190627 0.736753 0
M  V30 3618 H 359.77 0.641021 1.7886 0
M  V30 3619 H 357.92 -0.813165 3.79895 0
M  V30 3620 H 359.592 1.75437 4.26637 0
M  V30 3621 H 357.835 1.71377 3.98513 0
M  V30 3622 H 358.506 0.961794 5.43556 0
M  V30 3623 H 360.982 -0.460378 4.13545 0
M  V30 3624 H 359.858 -1.04671 5.38828 0
M  V30 3625 H 360.119 -2.00563 3.93988 0
M  V30 3626 N 359.178 -1.55987 0.224894 0
M  V30 3627 C 360.141 -2.19178 -0.670348 0
M  V30 3628 C 361.141 -1.15461 -1.11917 0
M  V30 3629 O 362.331 -1.40675 -1.02743 0
M  V30 3630 C 359.463 -2.81777 -1.9187 0
M  V30 3631 H 360.656 -2.99662 -0.119364 0
M  V30 3632 H 358.209 -1.5628 -0.0247128 0
M  V30 3633 H 358.944 -2.05172 -2.51147 0
M  V30 3634 H 358.729 -3.57732 -1.60531 0
M  V30 3635 H 360.219 -3.30205 -2.55645 0
M  V30 3636 N 360.656 0.0484629 -1.57525 0
M  V30 3637 C 361.566 1.07241 -2.08654 0
M  V30 3638 C 362.582 1.409 -1.02095 0
M  V30 3639 O 363.758 1.50609 -1.33712 0
M  V30 3640 C 360.823 2.36008 -2.5397 0
M  V30 3641 C 359.884 2.09108 -3.7493 0
M  V30 3642 C 359.117 3.31736 -4.18075 0
M  V30 3643 O 359.34 4.41714 -3.60895 0
M  V30 3644 O 358.274 3.18576 -5.10679 0
M  V30 3645 H 362.1 0.667965 -2.96263 0
M  V30 3646 H 359.685 0.26417 -1.47046 0
M  V30 3647 H 361.567 3.11747 -2.83535 0
M  V30 3648 H 360.242 2.75786 -1.69481 0
M  V30 3649 H 359.149 1.31 -3.50414 0
M  V30 3650 H 360.482 1.74198 -4.60343 0
M  V30 3651 N 362.134 1.5431 0.320358 0
M  V30 3652 C 363.364 1.7638 1.07582 0
M  V30 3653 C 363.772 0.513944 1.82086 0
M  V30 3654 O 363.115 -0.525123 1.76035 0
M  V30 3655 C 363.177 2.9055 2.1171 0
M  V30 3656 C 362.841 4.2934 1.56575 0
M  V30 3657 C 363.838 5.10077 1.00586 0
M  V30 3658 C 361.523 4.75893 1.60722 0
M  V30 3659 C 363.517 6.35477 0.494756 0
M  V30 3660 C 361.204 6.0126 1.09224 0
M  V30 3661 C 362.202 6.80886 0.53696 0
M  V30 3662 O 361.89 8.03894 0.0297371 0
M  V30 3663 H 361.622 0.592369 0.325692 0
M  V30 3664 H 364.176 2.02019 0.37116 0
M  V30 3665 H 362.406 2.60489 2.85801 0
M  V30 3666 H 364.095 3.00373 2.73003 0
M  V30 3667 H 364.861 4.75265 0.966869 0
M  V30 3668 H 360.74 4.13957 2.02882 0
M  V30 3669 H 364.284 6.97574 0.0606842 0
M  V30 3670 H 360.181 6.35562 1.12831 0
M  V30 3671 H 360.949 8.18372 0.14486 0
M  V30 3672 N 363.613 -0.582584 1.46437 0
M  V30 3673 C 364.546 -1.70633 1.51524 0
M  V30 3674 C 365.524 -1.58349 0.369351 0
M  V30 3675 O 366.708 -1.79563 0.573516 0
M  V30 3676 C 363.835 -3.08687 1.39392 0
M  V30 3677 C 362.881 -3.3949 2.58164 0
M  V30 3678 S 363.714 -3.31548 4.20519 0
M  V30 3679 C 364.87 -4.72139 4.10896 0
M  V30 3680 H 365.103 -1.66058 2.46601 0
M  V30 3681 H 362.636 -0.761337 1.34324 0
M  V30 3682 H 364.594 -3.8833 1.33079 0
M  V30 3683 H 363.255 -3.10751 0.457436 0
M  V30 3684 H 362.448 -4.40071 2.45669 0
M  V30 3685 H 362.05 -2.67415 2.61468 0
M  V30 3686 H 364.342 -5.62527 3.77584 0
M  V30 3687 H 365.285 -4.89692 5.11476 0
M  V30 3688 H 365.693 -4.48995 3.42146 0
M  V30 3689 N 365.091 -1.34144 -0.827227 0
M  V30 3690 C 366.023 -1.21206 -1.9453 0
M  V30 3691 C 367.036 -0.140176 -1.62195 0
M  V30 3692 O 368.225 -0.391647 -1.7415 0
M  V30 3693 C 365.325 -0.839141 -3.28347 0
M  V30 3694 C 364.498 -2.0051 -3.88734 0
M  V30 3695 C 363.557 -1.61128 -5.00923 0
M  V30 3696 O 362.583 -2.32726 -5.19449 0
M  V30 3697 N 363.785 -0.522958 -5.7814 0
M  V30 3698 H 366.55 -2.17525 -2.06162 0
M  V30 3699 H 364.111 -1.27043 -1.00358 0
M  V30 3700 H 366.103 -0.557556 -4.00841 0
M  V30 3701 H 364.673 0.0337293 -3.12582 0
M  V30 3702 H 363.893 -2.45166 -3.08686 0
M  V30 3703 H 365.181 -2.78498 -4.25812 0
M  V30 3704 H 364.579 0.0723518 -5.65654 0
M  V30 3705 H 363.136 -0.301089 -6.51104 0
M  V30 3706 N 366.569 1.04691 -1.17803 0
M  V30 3707 C 367.516 2.12557 -0.899343 0
M  V30 3708 C 368.486 1.65339 0.158771 0
M  V30 3709 O 369.671 1.90789 0.0204797 0
M  V30 3710 C 366.811 3.42481 -0.424315 0
M  V30 3711 C 365.924 4.03346 -1.54713 0
M  V30 3712 C 365.059 5.21208 -1.02546 0
M  V30 3713 C 364.098 5.74089 -2.12339 0
M  V30 3714 N 363.235 6.83247 -1.61612 0
M  V30 3715 H 368.075 2.35734 -1.823 0
M  V30 3716 H 365.612 1.1564 -0.909159 0
M  V30 3717 H 367.57 4.16996 -0.130421 0
M  V30 3718 H 366.2 3.19471 0.462377 0
M  V30 3719 H 365.252 3.2622 -1.95664 0
M  V30 3720 H 366.564 4.38628 -2.37501 0
M  V30 3721 H 365.718 6.02812 -0.685718 0
M  V30 3722 H 364.457 4.87414 -0.167084 0
M  V30 3723 H 363.462 4.91111 -2.47165 0
M  V30 3724 H 364.687 6.0993 -2.98601 0
M  V30 3725 H 362.633 6.5134 -0.780533 0
M  V30 3726 H 362.55 7.17559 -2.38003 0
M  V30 3727 H 363.818 7.68491 -1.30545 0
M  V30 3728 N 368.047 0.979072 1.23499 0
M  V30 3729 C 369.293 0.648178 1.92163 0
M  V30 3730 C 369.626 -0.816049 1.76222 0
M  V30 3731 O 368.901 -1.58849 1.12237 0
M  V30 3732 C 369.184 1.03773 3.44824 0
M  V30 3733 C 369.037 2.55948 3.69879 0
M  V30 3734 C 370.356 0.580653 4.36253 0
M  V30 3735 H 367.475 0.236952 0.69787 0
M  V30 3736 H 370.117 1.22012 1.45647 0
M  V30 3737 H 368.267 0.551058 3.84572 0
M  V30 3738 H 369.939 3.12179 3.3962 0
M  V30 3739 H 368.182 2.98641 3.14636 0
M  V30 3740 H 368.853 2.78255 4.76737 0
M  V30 3741 H 371.329 0.998465 4.03943 0
M  V30 3742 H 370.205 0.881663 5.41773 0
M  V30 3743 H 370.466 -0.519052 4.39042 0
M  V30 3744 N 369.525 -1.3858 0.750561 0
M  V30 3745 C 370.488 -2.28836 0.129152 0
M  V30 3746 C 371.488 -1.47045 -0.650714 0
M  V30 3747 O 372.678 -1.6753 -0.477428 0
M  V30 3748 C 369.81 -3.30751 -0.825622 0
M  V30 3749 H 371.003 -2.85294 0.924516 0
M  V30 3750 H 368.556 -1.47489 0.517376 0
M  V30 3751 H 369.291 -2.79378 -1.64677 0
M  V30 3752 H 369.076 -3.91177 -0.268852 0
M  V30 3753 H 370.566 -3.98249 -1.2565 0
M  V30 3754 N 371.003 -0.499398 -1.49478 0
M  V30 3755 C 372.228 0.044722 -2.07352 0
M  V30 3756 C 372.653 1.30207 -1.35749 0
M  V30 3757 O 372.011 1.76516 -0.413732 0
M  V30 3758 C 372.059 0.283013 -3.59488 0
M  V30 3759 O 371.163 1.35804 -3.89398 0
M  V30 3760 H 370.504 -0.0255147 -0.66351 0
M  V30 3761 H 373.034 -0.698561 -1.92305 0
M  V30 3762 H 373.044 0.515007 -4.04737 0
M  V30 3763 H 371.719 -0.635636 -4.11014 0
M  V30 3764 H 370.296 1.11113 -3.55961 0
M  V30 3765 N 372.481 1.55866 -0.233164 0
M  V30 3766 C 373.411 2.23783 0.666599 0
M  V30 3767 C 374.392 1.21343 1.19205 0
M  V30 3768 O 375.577 1.4996 1.23392 0
M  V30 3769 C 372.707 2.92671 1.86978 0
M  V30 3770 C 371.661 4.01682 1.47768 0
M  V30 3771 C 370.987 4.57926 2.76058 0
M  V30 3772 C 372.287 5.18126 0.658993 0
M  V30 3773 H 373.981 2.99232 0.100306 0
M  V30 3774 H 371.527 1.43924 0.046804 0
M  V30 3775 H 373.48 3.3888 2.50476 0
M  V30 3776 H 372.204 2.14688 2.46123 0
M  V30 3777 H 370.863 3.56222 0.866106 0
M  V30 3778 H 370.511 3.76659 3.33372 0
M  V30 3779 H 370.211 5.31505 2.50552 0
M  V30 3780 H 371.735 5.06859 3.40479 0
M  V30 3781 H 373.149 5.60644 1.19795 0
M  V30 3782 H 371.546 5.98009 0.500552 0
M  V30 3783 H 372.616 4.83763 -0.331856 0
M  V30 3784 N 373.959 -0.0401083 1.57549 0
M  V30 3785 C 375.187 -0.745196 1.93014 0
M  V30 3786 C 375.602 -1.6948 0.831984 0
M  V30 3787 O 374.959 -1.81482 -0.192463 0
M  V30 3788 C 375.01 -1.51176 3.28372 0
M  V30 3789 O 374.731 -0.600284 4.33968 0
M  V30 3790 C 376.232 -2.315 3.78051 0
M  V30 3791 H 373.452 -0.210088 0.637263 0
M  V30 3792 H 375.996 -0.000924689 2.045 0
M  V30 3793 H 374.151 -2.20801 3.18317 0
M  V30 3794 H 374.565 -1.13669 5.12035 0
M  V30 3795 H 376.039 -2.80697 4.75303 0
M  V30 3796 H 376.516 -3.12436 3.08675 0
M  V30 3797 H 377.122 -1.66971 3.91153 0
M  V30 3798 N 375.437 -1.54477 -0.31217 0
M  V30 3799 C 376.685 -1.72884 -1.04668 0
M  V30 3800 C 377.006 -0.511477 -1.88173 0
M  V30 3801 O 376.276 0.474407 -1.90069 0
M  V30 3802 H 374.856 -0.637461 -0.389425 0
M  V30 3803 H 377.518 -1.91807 -0.345852 0
M  V30 3804 H 376.614 -2.61334 -1.70619 0
M  V30 3805 N 376.915 0.57481 -1.46744 0
M  V30 3806 C 378.331 0.898981 -1.31873 0
M  V30 3807 C 378.531 1.99313 -0.29605 0
M  V30 3808 O 377.587 2.50728 0.298621 0
M  V30 3809 C 378.9 1.30886 -2.7072 0
M  V30 3810 C 380.448 1.42127 -2.78871 0
M  V30 3811 C 380.923 1.86478 -4.18318 0
M  V30 3812 N 382.414 1.93658 -4.20774 0
M  V30 3813 C 383.149 2.29267 -5.2557 0
M  V30 3814 N 382.645 2.63612 -6.40688 0
M  V30 3815 N 384.438 2.29889 -5.1294 0
M  V30 3816 H 376.589 -0.147839 -2.11885 0
M  V30 3817 H 378.852 -0.00347013 -0.947994 0
M  V30 3818 H 378.558 0.578853 -3.46904 0
M  V30 3819 H 378.432 2.26874 -3.01343 0
M  V30 3820 H 380.819 2.14213 -2.0297 0
M  V30 3821 H 380.9 0.443705 -2.51922 0
M  V30 3822 H 380.544 1.14968 -4.94717 0
M  V30 3823 H 380.474 2.85207 -4.42679 0
M  V30 3824 H 382.965 1.69574 -3.37718 0
M  V30 3825 H 383.278 2.89759 -7.16421 0
M  V30 3826 H 381.623 2.61232 -6.44036 0
M  V30 3827 H 384.814 2.02485 -4.22039 0
M  V30 3828 H 384.987 2.57312 -5.94722 0
M  V30 3829 N 378.394 1.34581 0.820102 0
M  V30 3830 C 379.619 1.30333 1.61332 0
M  V30 3831 C 380.044 -0.119339 1.87721 0
M  V30 3832 O 379.402 -1.08197 1.45475 0
M  V30 3833 C 379.45 2.10258 2.92957 0
M  V30 3834 O 378.554 1.47404 3.85157 0
M  V30 3835 H 377.895 0.447488 0.490561 0
M  V30 3836 H 380.425 1.77425 1.01889 0
M  V30 3837 H 380.435 2.21718 3.42498 0
M  V30 3838 H 379.11 3.13693 2.73074 0
M  V30 3839 H 377.687 1.44703 3.43679 0
M  V30 3840 N 379.872 -1.04064 1.18357 0
M  V30 3841 C 381.102 -1.80654 1.00238 0
M  V30 3842 C 381.51 -1.83713 -0.452362 0
M  V30 3843 O 380.853 -1.27135 -1.32599 0
M  V30 3844 C 380.915 -3.27582 1.48088 0
M  V30 3845 C 380.579 -3.48184 2.96002 0
M  V30 3846 C 381.576 -3.39372 3.93856 0
M  V30 3847 C 379.261 -3.7478 3.34433 0
M  V30 3848 C 381.255 -3.5686 5.28138 0
M  V30 3849 C 378.942 -3.91915 4.68877 0
M  V30 3850 C 379.94 -3.82956 5.65539 0
M  V30 3851 O 379.628 -3.996 6.97549 0
M  V30 3852 H 379.36 -0.575751 0.354241 0
M  V30 3853 H 381.914 -1.32044 1.57333 0
M  V30 3854 H 380.144 -3.77161 0.853588 0
M  V30 3855 H 381.833 -3.8573 1.2636 0
M  V30 3856 H 382.599 -3.18789 3.65511 0
M  V30 3857 H 378.478 -3.80852 2.59756 0
M  V30 3858 H 382.022 -3.49783 6.03571 0
M  V30 3859 H 377.919 -4.11992 4.96923 0
M  V30 3860 H 378.687 -4.1676 7.04452 0
M  V30 3861 N 381.35 -0.985608 -1.22978 0
M  V30 3862 C 382.297 -0.529825 -2.24636 0
M  V30 3863 C 383.267 0.434028 -1.60329 0
M  V30 3864 O 384.452 0.340414 -1.87739 0
M  V30 3865 C 381.592 0.156533 -3.44745 0
M  V30 3866 C 380.705 -0.848197 -4.23591 0
M  V30 3867 C 379.84 -0.136109 -5.31026 0
M  V30 3868 C 378.879 -1.1297 -6.01585 0
M  V30 3869 N 378.016 -0.446415 -7.00679 0
M  V30 3870 H 382.856 -1.40148 -2.62988 0
M  V30 3871 H 380.393 -0.702168 -1.29259 0
M  V30 3872 H 382.351 0.571324 -4.1327 0
M  V30 3873 H 380.981 0.992025 -3.07179 0
M  V30 3874 H 380.033 -1.38135 -3.54433 0
M  V30 3875 H 381.345 -1.60512 -4.72268 0
M  V30 3876 H 380.499 0.335784 -6.0577 0
M  V30 3877 H 379.238 0.653373 -4.83304 0
M  V30 3878 H 378.243 -1.6123 -5.25628 0
M  V30 3879 H 379.468 -1.91993 -6.51395 0
M  V30 3880 H 377.414 0.323763 -6.55201 0
M  V30 3881 H 377.331 -1.1419 -7.47326 0
M  V30 3882 H 378.599 0.00291697 -7.795 0
M  V30 3883 N 382.828 1.3818 -0.7579 0
M  V30 3884 C 383.758 2.33027 -0.148597 0
M  V30 3885 C 384.739 1.55085 0.69875 0
M  V30 3886 O 385.924 1.83384 0.639053 0
M  V30 3887 C 383.054 3.3928 0.742034 0
M  V30 3888 C 382.008 4.28 -0.00291946 0
M  V30 3889 C 381.334 5.25146 1.00625 0
M  V30 3890 C 382.634 5.08938 -1.17385 0
M  V30 3891 H 384.328 2.84231 -0.940909 0
M  V30 3892 H 381.874 1.36659 -0.453908 0
M  V30 3893 H 383.827 4.046 1.17799 0
M  V30 3894 H 382.551 2.86569 1.56671 0
M  V30 3895 H 381.21 3.64192 -0.419504 0
M  V30 3896 H 380.858 4.68721 1.8251 0
M  V30 3897 H 380.558 5.85361 0.512428 0
M  V30 3898 H 382.082 5.93342 1.44143 0
M  V30 3899 H 383.496 5.67474 -0.815224 0
M  V30 3900 H 381.893 5.7841 -1.59882 0
M  V30 3901 H 382.963 4.42424 -1.98468 0
M  V30 3902 N 384.306 0.507319 1.49211 0
M  V30 3903 C 385.553 -0.0349529 2.0247 0
M  V30 3904 C 385.881 -1.36409 1.38647 0
M  V30 3905 O 385.136 -1.88841 0.513566 0
M  V30 3906 C 385.435 -0.229513 3.56662 0
M  V30 3907 C 385.101 1.02241 4.39156 0
M  V30 3908 C 383.763 1.36557 4.61417 0
M  V30 3909 C 386.115 1.85428 4.871 0
M  V30 3910 C 383.443 2.53999 5.28868 0
M  V30 3911 C 385.795 3.02028 5.55843 0
M  V30 3912 C 384.459 3.36717 5.76349 0
M  V30 3913 H 383.729 -0.0127902 0.74089 0
M  V30 3914 H 386.376 0.668756 1.79443 0
M  V30 3915 H 384.681 -1.0158 3.78403 0
M  V30 3916 H 386.378 -0.663641 3.9547 0
M  V30 3917 H 382.968 0.745124 4.22073 0
M  V30 3918 H 387.152 1.6023 4.69723 0
M  V30 3919 H 382.408 2.81105 5.42946 0
M  V30 3920 H 386.582 3.66808 5.91967 0
M  V30 3921 H 384.209 4.27821 6.28389 0
M  V30 3922 N 385.784 -1.5574 0.241426 0
M  V30 3923 C 387.061 -1.90704 -0.434881 0
M  V30 3924 C 387.441 -1.16145 -1.76277 0
M  V30 3925 O 386.789 -0.277152 -2.26813 0
M  V30 3926 C 386.999 -3.43657 -0.608343 0
M  V30 3927 C 388.347 -4.14806 -0.906725 0
M  V30 3928 O 389.371 -3.49366 -0.694408 0
M  V30 3929 O 388.23 -5.30548 -1.31075 0
M  V30 3930 H 385.324 -0.793592 -0.23268 0
M  V30 3931 H 387.87 -1.67288 0.285086 0
M  V30 3932 H 386.642 -3.89927 0.327505 0
M  V30 3933 H 386.265 -3.72918 -1.37906 0
M  V30 3934 N 387.262 0.0317525 -1.57568 0
M  V30 3935 C 388.492 0.733884 -1.93126 0
M  V30 3936 C 388.9 1.69563 -0.839352 0
M  V30 3937 O 388.243 1.82681 0.193175 0
M  V30 3938 C 388.305 1.54798 -3.24465 0
M  V30 3939 C 387.969 0.751304 -4.50782 0
M  V30 3940 C 388.966 0.0527632 -5.19873 0
M  V30 3941 C 386.651 0.706639 -4.97305 0
M  V30 3942 C 388.645 -0.679774 -6.33765 0
M  V30 3943 C 386.332 -0.0296449 -6.11093 0
M  V30 3944 C 387.33 -0.721614 -6.79177 0
M  V30 3945 O 387.018 -1.44595 -7.90789 0
M  V30 3946 H 386.75 0.211459 -0.642076 0
M  V30 3947 H 389.304 -0.00585615 -2.05399 0
M  V30 3948 H 387.534 2.33147 -3.08512 0
M  V30 3949 H 389.223 2.13247 -3.4537 0
M  V30 3950 H 389.989 0.0783188 -4.84937 0
M  V30 3951 H 385.868 1.23474 -4.44157 0
M  V30 3952 H 389.412 -1.22042 -6.86842 0
M  V30 3953 H 385.309 -0.0571331 -6.45475 0
M  V30 3954 H 386.077 -1.35935 -8.07133 0
M  V30 3955 N 388.74 1.54641 0.303973 0
M  V30 3956 C 389.986 1.74038 1.04109 0
M  V30 3957 C 390.319 0.523051 1.87024 0
M  V30 3958 O 389.594 -0.479874 1.88487 0
M  V30 3959 C 389.877 3.02761 1.94955 0
M  V30 3960 C 389.73 4.34787 1.1524 0
M  V30 3961 C 391.049 3.27336 2.94175 0
M  V30 3962 H 388.168 0.63323 0.377079 0
M  V30 3963 H 390.81 1.87354 0.316001 0
M  V30 3964 H 388.96 2.9154 2.56782 0
M  V30 3965 H 390.632 4.57922 0.557236 0
M  V30 3966 H 388.875 4.31407 0.455053 0
M  V30 3967 H 389.546 5.21116 1.8205 0
M  V30 3968 H 392.022 3.38148 2.42477 0
M  V30 3969 H 390.898 4.18726 3.54908 0
M  V30 3970 H 391.159 2.45491 3.67677 0
M  V30 3971 N 390.218 -0.567019 1.47046 0
M  V30 3972 C 391.466 -1.322 1.52864 0
M  V30 3973 C 391.787 -1.94088 0.188388 0
M  V30 3974 O 391.057 -1.7941 -0.786693 0
M  V30 3975 H 389.637 -0.490894 0.563056 0
M  V30 3976 H 392.299 -0.662879 1.83281 0
M  V30 3977 H 391.395 -2.12062 2.2899 0
M  V30 3978 N 391.696 -1.35014 -0.812953 0
M  V30 3979 C 392.659 -1.27292 -1.90602 0
M  V30 3980 C 393.659 -0.185817 -1.59723 0
M  V30 3981 O 394.849 -0.439102 -1.68575 0
M  V30 3982 C 391.981 -0.967676 -3.26877 0
M  V30 3983 H 393.174 -2.24479 -1.9887 0
M  V30 3984 H 390.727 -1.19446 -1.00808 0
M  V30 3985 H 391.462 0.0005954 -3.243 0
M  V30 3986 H 391.247 -1.75412 -3.50675 0
M  V30 3987 H 392.737 -0.939085 -4.06904 0
M  V30 3988 N 393.175 1.03435 -1.18907 0
M  V30 3989 C 394.586 1.58195 -0.991523 0
M  V30 3990 C 394.937 1.90801 0.457081 0
M  V30 3991 O 394.062 1.70272 1.33553 0
M  V30 3992 C 394.657 2.87432 -1.79355 0
M  V30 3993 C 393.216 3.38785 -1.64017 0
M  V30 3994 C 392.363 2.12292 -1.78402 0
M  V30 3995 H 395.314 0.860299 -1.33359 0
M  V30 3996 H 395.335 3.58096 -1.28638 0
M  V30 3997 H 394.847 2.63669 -2.84781 0
M  V30 3998 H 392.948 3.67547 -0.611536 0
M  V30 3999 H 393.061 4.12186 -2.44212 0
M  V30 4000 H 391.425 2.23901 -1.2141 0
M  V30 4001 H 392.208 1.90977 -2.85277 0
M  V30 4002 N 394.653 0.992116 1.22453 0
M  V30 4003 C 395.93 0.583508 1.86694 0
M  V30 4004 C 396.31 -0.9392 1.89056 0
M  V30 4005 O 395.658 -1.82081 1.38053 0
M  V30 4006 C 395.868 1.20304 3.2761 0
M  V30 4007 C 397.216 1.30308 4.0411 0
M  V30 4008 O 398.24 1.15737 3.36873 0
M  V30 4009 O 397.099 1.53615 5.24466 0
M  V30 4010 H 394.193 0.198129 0.802916 0
M  V30 4011 H 396.739 1.08794 1.30238 0
M  V30 4012 H 395.511 2.24461 3.2052 0
M  V30 4013 H 395.134 0.684144 3.9167 0
M  V30 4014 N 396.131 -1.37776 0.765217 0
M  V30 4015 C 397.094 -2.28686 0.153416 0
M  V30 4016 C 398.094 -1.47727 -0.635081 0
M  V30 4017 O 399.284 -1.68027 -0.459632 0
M  V30 4018 C 396.416 -3.31608 -0.790495 0
M  V30 4019 H 397.609 -2.84297 0.954723 0
M  V30 4020 H 395.162 -1.46932 0.53299 0
M  V30 4021 H 395.897 -2.81109 -1.61705 0
M  V30 4022 H 395.682 -3.9144 -0.227348 0
M  V30 4023 H 397.172 -3.99559 -1.21419 0
M  V30 4024 N 397.609 -0.515225 -1.4894 0
M  V30 4025 C 398.519 0.259774 -2.33157 0
M  V30 4026 C 399.535 0.953501 -1.45548 0
M  V30 4027 O 400.711 0.931735 -1.78552 0
M  V30 4028 C 397.776 1.30193 -3.21326 0
M  V30 4029 C 396.837 0.620129 -4.24797 0
M  V30 4030 C 396.07 1.61263 -5.08753 0
M  V30 4031 O 396.293 2.84389 -4.94448 0
M  V30 4032 O 395.227 1.16013 -5.90614 0
M  V30 4033 H 399.053 -0.429932 -3.00641 0
M  V30 4034 H 396.638 -0.276346 -1.46822 0
M  V30 4035 H 398.52 1.90455 -3.75905 0
M  V30 4036 H 397.195 1.97431 -2.56521 0
M  V30 4037 H 396.102 -0.0226019 -3.74093 0
M  V30 4038 H 397.435 -0.0100493 -4.92199 0
M  V30 4039 N 399.087 1.5561 -0.249682 0
M  V30 4040 C 400.503 1.59254 0.105103 0
M  V30 4041 C 400.703 1.26685 1.56694 0
M  V30 4042 O 399.759 1.0155 2.31179 0
M  V30 4043 C 401.072 2.99687 -0.246592 0
M  V30 4044 C 402.62 3.12416 -0.191118 0
M  V30 4045 C 403.095 4.55074 -0.516885 0
M  V30 4046 N 404.586 4.60835 -0.467489 0
M  V30 4047 C 405.321 5.69201 -0.69268 0
M  V30 4048 N 404.817 6.85817 -0.981146 0
M  V30 4049 N 406.61 5.58635 -0.623198 0
M  V30 4050 H 398.761 1.75049 -1.20298 0
M  V30 4051 H 401.024 0.815003 -0.484225 0
M  V30 4052 H 400.73 3.28267 -1.26228 0
M  V30 4053 H 400.604 3.74798 0.424962 0
M  V30 4054 H 402.991 2.83615 0.815247 0
M  V30 4055 H 403.072 2.39573 -0.896563 0
M  V30 4056 H 402.716 4.84596 -1.52082 0
M  V30 4057 H 402.646 5.26181 0.210068 0
M  V30 4058 H 405.137 3.7705 -0.253373 0
M  V30 4059 H 405.45 7.64341 -1.14032 0
M  V30 4060 H 403.795 6.87494 -1.01865 0
M  V30 4061 H 406.986 4.66406 -0.397863 0
M  V30 4062 H 407.159 6.43017 -0.802093 0
M  V30 4063 N 400.565 -0.0233959 1.57583 0
M  V30 4064 C 401.811 -0.714119 1.89811 0
M  V30 4065 C 402.144 -1.74702 0.848113 0
M  V30 4066 O 401.419 -1.94023 -0.136135 0
M  V30 4067 C 401.702 -1.37853 3.32669 0
M  V30 4068 C 401.555 -0.358764 4.48367 0
M  V30 4069 C 402.874 -2.31101 3.7454 0
M  V30 4070 H 399.993 -0.25814 0.690314 0
M  V30 4071 H 402.635 0.0230927 1.89986 0
M  V30 4072 H 400.785 -2.00689 3.3265 0
M  V30 4073 H 402.457 0.268115 4.6052 0
M  V30 4074 H 400.7 0.321387 4.32608 0
M  V30 4075 H 401.371 -0.862242 5.45224 0
M  V30 4076 H 403.847 -1.78304 3.75961 0
M  V30 4077 H 402.723 -2.74567 4.75294 0
M  V30 4078 H 402.984 -3.18018 3.0711 0
M  V30 4079 N 402.043 -1.548 -0.295768 0
M  V30 4080 C 403.292 -1.73538 -1.02798 0
M  V30 4081 C 403.605 -0.531159 -1.8825 0
M  V30 4082 O 404.811 -0.600458 -2.64777 0
M  V30 4083 C 403.267 -3.07051 -1.87744 0
M  V30 4084 C 402.875 -4.34968 -1.07269 0
M  V30 4085 C 404.619 -3.35146 -2.60533 0
M  V30 4086 C 402.526 -5.5953 -1.91521 0
M  V30 4087 H 401.456 -0.646794 -0.387522 0
M  V30 4088 H 404.107 -1.81278 -0.284718 0
M  V30 4089 H 402.489 -2.93289 -2.66078 0
M  V30 4090 H 403.663 -4.5958 -0.335117 0
M  V30 4091 H 401.978 -4.13847 -0.460384 0
M  V30 4092 H 404.575 -4.2541 -3.23929 0
M  V30 4093 H 404.918 -2.54255 -3.29636 0
M  V30 4094 H 405.451 -3.49902 -1.89244 0
M  V30 4095 H 402.19 -6.43103 -1.26878 0
M  V30 4096 H 401.71 -5.39096 -2.62937 0
M  V30 4097 H 403.389 -5.96982 -2.49442 0
M  V30 4098 N 403.521 0.559213 -1.47345 0
M  V30 4099 C 404.767 1.31843 -1.54095 0
M  V30 4100 C 405.1 1.93149 -0.201726 0
M  V30 4101 O 404.375 1.77759 0.789428 0
M  V30 4102 C 404.658 2.43006 -2.65744 0
M  V30 4103 C 404.511 1.86581 -4.09277 0
M  V30 4104 C 405.83 3.44943 -2.73318 0
M  V30 4105 H 402.949 0.478012 -0.560957 0
M  V30 4106 H 405.591 0.625977 -1.79392 0
M  V30 4107 H 403.741 3.02072 -2.44305 0
M  V30 4108 H 405.413 1.31792 -4.42073 0
M  V30 4109 H 403.656 1.17268 -4.17649 0
M  V30 4110 H 404.327 2.66933 -4.83168 0
M  V30 4111 H 406.803 2.95793 -2.92653 0
M  V30 4112 H 405.679 4.20153 -3.53218 0
M  V30 4113 H 405.94 4.03665 -1.80296 0
M  V30 4114 N 404.999 1.35443 0.805782 0
M  V30 4115 C 406.224 1.32037 1.59941 0
M  V30 4116 C 406.649 -0.0994215 1.87837 0
M  V30 4117 O 406.007 -1.06648 1.46615 0
M  V30 4118 C 406.055 2.13354 2.90711 0
M  V30 4119 O 405.159 1.5148 3.83572 0
M  V30 4120 H 404.5 0.452666 0.485787 0
M  V30 4121 H 407.03 1.78496 1.00002 0
M  V30 4122 H 407.04 2.25338 3.40128 0
M  V30 4123 H 405.715 3.16572 2.69732 0
M  V30 4124 H 404.292 1.4834 3.42125 0
M  V30 4125 N 406.477 -1.02803 1.19454 0
M  V30 4126 C 407.41 -2.107 0.876396 0
M  V30 4127 C 408.388 -1.61741 -0.166897 0
M  V30 4128 O 409.572 -1.88451 -0.0430195 0
M  V30 4129 C 406.699 -3.37262 0.311758 0
M  V30 4130 C 405.745 -4.05093 1.33424 0
M  V30 4131 S 406.578 -4.50498 2.89503 0
M  V30 4132 C 407.734 -5.80277 2.34584 0
M  V30 4133 H 407.967 -2.37362 1.79016 0
M  V30 4134 H 405.5 -1.15755 1.02177 0
M  V30 4135 H 407.458 -4.10499 -0.00748752 0
M  V30 4136 H 406.119 -3.08693 -0.58032 0
M  V30 4137 H 405.312 -4.9611 0.888302 0
M  V30 4138 H 404.914 -3.3803 1.60037 0
M  V30 4139 H 407.206 -6.54873 1.73633 0
M  V30 4140 H 408.149 -6.29651 3.23952 0
M  V30 4141 H 408.557 -5.3599 1.77131 0
M  V30 4142 N 407.956 -0.998596 -1.21925 0
M  V30 4143 C 409.204 -0.676325 -1.90448 0
M  V30 4144 C 409.525 0.794719 -1.78071 0
M  V30 4145 O 408.795 1.5701 -1.17152 0
M  V30 4146 H 407.375 -0.247165 -0.704925 0
M  V30 4147 H 410.037 -1.26633 -1.48156 0
M  V30 4148 H 409.133 -0.943858 -2.97486 0
M  V30 4149 N 409.434 1.37368 -0.772513 0
M  V30 4150 C 410.659 2.0447 -0.347386 0
M  V30 4151 C 411.084 1.57882 1.0225 0
M  V30 4152 O 410.442 0.73941 1.65537 0
M  V30 4153 C 410.49 3.58369 -0.400479 0
M  V30 4154 O 409.594 4.0803 0.598789 0
M  V30 4155 H 408.935 0.646773 -0.15027 0
M  V30 4156 H 411.465 1.75667 -1.04892 0
M  V30 4157 H 411.475 4.07183 -0.258045 0
M  V30 4158 H 410.15 3.91633 -1.39986 0
M  V30 4159 H 408.727 3.70534 0.419411 0
M  V30 4160 N 410.912 0.523116 1.48665 0
M  V30 4161 C 412.137 -0.0117284 2.07397 0
M  V30 4162 C 412.562 -1.28031 1.37803 0
M  V30 4163 O 411.92 -1.75836 0.441762 0
M  V30 4164 C 411.968 -0.225786 3.59892 0
M  V30 4165 O 411.072 -1.29592 3.91509 0
M  V30 4166 H 410.413 0.0360673 0.66302 0
M  V30 4167 H 412.943 0.729066 1.9117 0
M  V30 4168 H 412.953 -0.450552 4.05505 0
M  V30 4169 H 411.628 0.700944 4.09951 0
M  V30 4170 H 410.205 -1.05436 3.57684 0
M  V30 4171 N 412.39 -1.55475 0.257931 0
M  V30 4172 C 413.63 -2.01112 -0.365129 0
M  V30 4173 C 413.994 -1.1423 -1.54323 0
M  V30 4174 O 415.195 -1.49371 -2.23477 0
M  V30 4175 C 413.466 -3.49353 -0.754117 0
M  V30 4176 S 415.025 -4.16992 -1.36614 0
M  V30 4177 H 411.843 -0.701737 -0.114397 0
M  V30 4178 H 414.445 -1.91855 0.375747 0
M  V30 4179 H 413.149 -4.10246 0.112441 0
M  V30 4180 H 412.68 -3.6256 -1.52689 0
M  V30 4181 H 414.695 -4.19191 -2.65505 0
M  V30 4182 N 413.868 0.0150385 -1.57593 0
M  V30 4183 C 414.778 1.02791 -2.10882 0
M  V30 4184 C 415.794 1.38702 -1.0506 0
M  V30 4185 O 416.97 1.47739 -1.36877 0
M  V30 4186 C 414.035 2.30568 -2.58919 0
M  V30 4187 C 413.096 2.01108 -3.79281 0
M  V30 4188 C 412.329 3.22794 -4.25018 0
M  V30 4189 O 412.552 4.33959 -3.70183 0
M  V30 4190 O 411.486 3.07672 -5.17322 0
M  V30 4191 H 415.312 0.604973 -2.97613 0
M  V30 4192 H 412.897 0.23292 -1.47573 0
M  V30 4193 H 414.779 3.05662 -2.90084 0
M  V30 4194 H 413.454 2.72129 -1.75293 0
M  V30 4195 H 412.361 1.23537 -3.53114 0
M  V30 4196 H 413.694 1.64394 -4.63935 0
M  V30 4197 N 415.346 1.54954 0.287554 0
M  V30 4198 C 416.574 1.78881 1.03967 0
M  V30 4199 C 416.989 0.554894 1.80462 0
M  V30 4200 O 416.346 -0.475676 1.76192 0
M  V30 4201 C 416.397 3.00488 2.0097 0
M  V30 4202 O 416.118 4.19113 1.27577 0
M  V30 4203 C 417.619 3.36907 2.88112 0
M  V30 4204 H 414.839 0.596259 0.307761 0
M  V30 4205 H 417.383 2.01937 0.322749 0
M  V30 4206 H 415.538 2.79601 2.68145 0
M  V30 4207 H 415.952 4.87765 1.92835 0
M  V30 4208 H 417.426 4.25205 3.52001 0
M  V30 4209 H 417.903 2.55659 3.57121 0
M  V30 4210 H 418.509 3.60001 2.26449 0
M  V30 4211 N 416.824 -0.551391 1.4764 0
M  V30 4212 C 418.073 -1.30467 1.53822 0
M  V30 4213 C 418.386 -1.94495 0.207661 0
M  V30 4214 O 419.592 -2.71099 0.147533 0
M  V30 4215 C 418.048 -2.36616 2.71184 0
M  V30 4216 C 417.656 -1.78754 4.10793 0
M  V30 4217 C 419.4 -3.13088 2.86663 0
M  V30 4218 C 417.307 -2.82717 5.19447 0
M  V30 4219 H 416.237 -0.490584 0.572576 0
M  V30 4220 H 418.888 -0.58494 1.73927 0
M  V30 4221 H 417.27 -3.11529 2.4447 0
M  V30 4222 H 418.444 -1.10173 4.47435 0
M  V30 4223 H 416.759 -1.14846 4.00249 0
M  V30 4224 H 419.356 -3.90736 3.65007 0
M  V30 4225 H 419.699 -3.67635 1.95321 0
M  V30 4226 H 420.232 -2.45288 3.13175 0
M  V30 4227 H 416.971 -2.33018 6.12685 0
M  V30 4228 H 416.491 -3.4969 4.87316 0
M  V30 4229 H 418.17 -3.46102 5.46646 0
M  V30 4230 N 418.302 -1.35869 -0.798587 0
M  V30 4231 C 419.212 -1.31578 -1.94228 0
M  V30 4232 C 420.228 -0.21939 -1.72611 0
M  V30 4233 O 421.404 -0.450167 -1.96305 0
M  V30 4234 C 418.469 -1.09528 -3.28944 0
M  V30 4235 C 417.53 -2.28556 -3.63402 0
M  V30 4236 C 416.763 -2.07549 -4.9169 0
M  V30 4237 O 416.986 -1.046 -5.60727 0
M  V30 4238 O 415.92 -2.95106 -5.24591 0
M  V30 4239 H 419.746 -2.27847 -2.00796 0
M  V30 4240 H 417.331 -1.16322 -0.937526 0
M  V30 4241 H 419.213 -0.991127 -4.09579 0
M  V30 4242 H 417.888 -0.16315 -3.23289 0
M  V30 4243 H 416.795 -2.44538 -2.83112 0
M  V30 4244 H 418.128 -3.20244 -3.73771 0
M  V30 4245 N 419.78 1.02168 -1.19998 0
M  V30 4246 C 420.69 2.14069 -0.959774 0
M  V30 4247 C 421.706 1.73804 0.082655 0
M  V30 4248 O 422.882 2.01133 -0.103633 0
M  V30 4249 C 419.947 3.42936 -0.509459 0
M  V30 4250 C 419.008 3.97474 -1.62213 0
M  V30 4251 C 418.241 5.2019 -1.19321 0
M  V30 4252 O 418.464 5.70369 -0.0597726 0
M  V30 4253 O 417.398 5.67749 -1.99863 0
M  V30 4254 H 421.224 2.37199 -1.89658 0
M  V30 4255 H 418.809 1.12469 -0.983411 0
M  V30 4256 H 420.691 4.20551 -0.267322 0
M  V30 4257 H 419.366 3.21234 0.398821 0
M  V30 4258 H 418.273 3.21161 -1.9185 0
M  V30 4259 H 419.606 4.23555 -2.50723 0
M  V30 4260 N 421.258 1.00505 1.21394 0
M  V30 4261 C 422.504 0.688793 1.90745 0
M  V30 4262 C 422.837 -0.778486 1.77914 0
M  V30 4263 O 422.112 -1.56433 1.15581 0
M  V30 4264 C 422.395 1.11063 3.42545 0
M  V30 4265 C 422.248 2.63737 3.64367 0
M  V30 4266 C 423.567 0.673059 4.34923 0
M  V30 4267 H 420.686 0.251702 0.692687 0
M  V30 4268 H 423.328 1.25074 1.43026 0
M  V30 4269 H 421.478 0.632508 3.83317 0
M  V30 4270 H 423.15 3.19313 3.32922 0
M  V30 4271 H 421.393 3.05248 3.08231 0
M  V30 4272 H 422.064 2.88305 4.70727 0
M  V30 4273 H 424.54 1.08392 4.01734 0
M  V30 4274 H 423.416 0.996383 5.39781 0
M  V30 4275 H 423.677 -0.425808 4.40045 0
M  V30 4276 N 422.737 -1.36956 0.779787 0
M  V30 4277 C 423.986 -1.98738 0.344405 0
M  V30 4278 C 424.299 -1.62596 -1.08728 0
M  V30 4279 O 425.505 -2.1754 -1.62445 0
M  V30 4280 C 423.961 -3.5544 0.564829 0
M  V30 4281 C 423.569 -4.00514 2.0073 0
M  V30 4282 C 425.313 -4.24059 0.193471 0
M  V30 4283 C 423.22 -5.49957 2.17489 0
M  V30 4284 H 422.15 -0.743561 0.12503 0
M  V30 4285 H 424.801 -1.56381 0.960057 0
M  V30 4286 H 423.183 -3.95817 -0.120397 0
M  V30 4287 H 424.357 -3.71362 2.72814 0
M  V30 4288 H 422.672 -3.44703 2.336 0
M  V30 4289 H 425.269 -5.33874 0.297097 0
M  V30 4290 H 425.612 -4.07378 -0.857263 0
M  V30 4291 H 426.145 -3.89012 0.831556 0
M  V30 4292 H 422.884 -5.71574 3.2091 0
M  V30 4293 H 422.404 -5.80767 1.49899 0
M  V30 4294 H 424.083 -6.16043 1.97738 0
M  V30 4295 N 424.215 -0.530993 -1.48385 0
M  V30 4296 C 425.163 0.244595 -2.3131 0
M  V30 4297 C 426.157 0.93451 -1.41291 0
M  V30 4298 O 427.363 0.85878 -1.58193 0
M  V30 4299 H 423.738 0.0977472 -0.74562 0
M  V30 4300 H 425.709 -0.474369 -2.94605 0
M  V30 4301 C 424.458 1.2779 -3.23365 0
M  V30 4302 H 423.781 0.756439 -3.92579 0
M  V30 4303 H 425.221 1.79198 -3.84271 0
M  V30 4304 C 423.68 2.31205 -2.45042 0
M  V30 4305 O 424.21 3.37661 -2.17596 0
M  V30 4306 N 422.416 2.04446 -2.0652 0
M  V30 4307 H 421.963 1.17891 -2.2904 0
M  V30 4308 H 421.921 2.73861 -1.54427 0
M  V30 4309 N 425.693 1.55336 -0.266172 0
M  V30 4310 C 426.643 2.18848 0.639497 0
M  V30 4311 C 427.627 1.1503 1.12503 0
M  V30 4312 O 428.819 1.40875 1.0716 0
M  V30 4313 C 425.948 2.90626 1.82733 0
M  V30 4314 C 425.034 4.01723 1.35939 0
M  V30 4315 N 425.425 5.02145 0.606988 0
M  V30 4316 C 423.723 4.1463 1.6431 0
M  V30 4317 C 424.424 5.80572 0.362138 0
M  V30 4318 N 423.4 5.35551 0.931971 0
M  V30 4319 H 427.202 2.93845 0.0567057 0
M  V30 4320 H 424.716 1.62252 -0.0693312 0
M  V30 4321 H 426.713 3.34569 2.48735 0
M  V30 4322 H 425.373 2.17137 2.41416 0
M  V30 4323 H 426.384 5.17271 0.255198 0
M  V30 4324 H 423.061 3.52326 2.23993 0
M  V30 4325 H 424.451 6.71472 -0.239848 0
M  V30 4326 N 427.171 -0.0066808 1.57599 0
M  V30 4327 C 428.101 -0.999296 2.11036 0
M  V30 4328 C 429.082 -1.36278 1.01795 0
M  V30 4329 O 430.267 -1.4477 1.29442 0
M  V30 4330 C 427.397 -2.29328 2.60818 0
M  V30 4331 C 426.351 -2.07159 3.74525 0
M  V30 4332 C 425.677 -3.42512 4.10596 0
M  V30 4333 C 426.977 -1.43959 5.02069 0
M  V30 4334 H 428.671 -0.554382 2.94223 0
M  V30 4335 H 426.217 -0.265221 1.41536 0
M  V30 4336 H 428.17 -2.99117 2.96828 0
M  V30 4337 H 426.894 -2.7592 1.74745 0
M  V30 4338 H 425.553 -1.39797 3.38899 0
M  V30 4339 H 425.201 -3.86795 3.21556 0
M  V30 4340 H 424.901 -3.28498 4.87199 0
M  V30 4341 H 426.425 -4.13628 4.4916 0
M  V30 4342 H 427.839 -2.03696 5.35893 0
M  V30 4343 H 426.236 -1.40452 5.83432 0
M  V30 4344 H 427.306 -0.407992 4.83181 0
M  V30 4345 N 428.649 -1.55105 -0.279332 0
M  V30 4346 C 429.612 -1.86783 -1.32834 0
M  V30 4347 C 430.612 -0.74199 -1.42657 0
M  V30 4348 O 431.802 -1.0102 -1.41918 0
M  V30 4349 C 428.934 -2.06746 -2.71052 0
M  V30 4350 H 430.127 -2.8055 -1.05979 0
M  V30 4351 H 427.68 -1.47499 -0.517087 0
M  V30 4352 H 428.415 -1.15339 -3.03097 0
M  V30 4353 H 428.2 -2.88711 -2.65309 0
M  V30 4354 H 429.69 -2.32549 -3.46858 0
M  V30 4355 N 430.127 0.543554 -1.4793 0
M  V30 4356 C 431.09 1.63156 -1.60975 0
M  V30 4357 C 432.09 1.53346 -0.483899 0
M  V30 4358 O 433.28 1.5726 -0.749339 0
M  V30 4359 C 430.412 3.02743 -1.56716 0
M  V30 4360 H 431.605 1.52934 -2.57975 0
M  V30 4361 H 429.158 0.764557 -1.36324 0
M  V30 4362 H 429.893 3.18484 -0.611418 0
M  V30 4363 H 429.678 3.11272 -2.38438 0
M  V30 4364 H 431.168 3.81871 -1.6901 0
M  V30 4365 N 431.605 1.3629 0.791371 0
M  V30 4366 C 432.552 1.30458 1.90393 0
M  V30 4367 C 433.522 0.173632 1.6519 0
M  V30 4368 O 434.707 0.35983 1.87376 0
M  V30 4369 C 431.847 1.09777 3.27174 0
M  V30 4370 C 430.96 2.31929 3.64462 0
M  V30 4371 C 430.095 2.04276 4.90352 0
M  V30 4372 C 429.134 3.224 5.20312 0
M  V30 4373 N 428.271 2.94424 6.37385 0
M  V30 4374 H 433.111 2.25589 1.94714 0
M  V30 4375 H 430.648 1.12122 0.952216 0
M  V30 4376 H 432.606 0.958133 4.06049 0
M  V30 4377 H 431.236 0.183014 3.22281 0
M  V30 4378 H 430.288 2.56703 2.80727 0
M  V30 4379 H 431.6 3.20085 3.82553 0
M  V30 4380 H 430.754 1.87231 5.77087 0
M  V30 4381 H 429.493 1.13428 4.74326 0
M  V30 4382 H 428.498 3.40005 4.32061 0
M  V30 4383 H 429.723 4.14071 5.38258 0
M  V30 4384 H 427.669 2.06185 6.22755 0
M  V30 4385 H 427.586 3.76118 6.55798 0
M  V30 4386 H 428.854 2.80953 7.27108 0
M  V30 4387 N 433.083 -1.0153 1.20538 0
M  V30 4388 C 434.331 -1.74803 1.01432 0
M  V30 4389 C 434.652 -1.8963 -0.454456 0
M  V30 4390 O 433.922 -1.43975 -1.32846 0
M  V30 4391 H 432.502 -0.647598 0.372324 0
M  V30 4392 H 435.164 -1.22402 1.5167 0
M  V30 4393 H 434.26 -2.75114 1.47373 0
M  V30 4394 N 434.561 -1.01147 -1.20859 0
M  V30 4395 C 435.471 -0.58686 -2.27141 0
M  V30 4396 C 436.487 0.373198 -1.69951 0
M  V30 4397 O 437.663 0.235423 -2.00019 0
M  V30 4398 C 434.728 0.0733602 -3.46622 0
M  V30 4399 C 433.789 -0.931995 -4.19061 0
M  V30 4400 C 433.022 -0.303186 -5.32838 0
M  V30 4401 O 433.245 0.898395 -5.63281 0
M  V30 4402 O 432.179 -1.01735 -5.9324 0
M  V30 4403 H 436.005 -1.47155 -2.65667 0
M  V30 4404 H 433.59 -0.780689 -1.2738 0
M  V30 4405 H 435.472 0.442333 -4.19072 0
M  V30 4406 H 434.147 0.932329 -3.09983 0
M  V30 4407 H 433.054 -1.35224 -3.48805 0
M  V30 4408 H 434.387 -1.76076 -4.59628 0
M  V30 4409 N 436.039 1.36541 -0.78704 0
M  V30 4410 C 436.986 2.30082 -0.181901 0
M  V30 4411 C 437.956 1.5186 0.672896 0
M  V30 4412 O 439.141 1.80374 0.622072 0
M  V30 4413 C 436.281 3.3835 0.679197 0
M  V30 4414 C 435.394 4.31565 -0.193882 0
M  V30 4415 C 434.529 5.26915 0.673364 0
M  V30 4416 C 433.568 6.11769 -0.201315 0
M  V30 4417 N 432.705 6.99315 0.624777 0
M  V30 4418 H 437.545 2.81248 -0.985064 0
M  V30 4419 H 435.082 1.38437 -0.497342 0
M  V30 4420 H 437.04 3.99767 1.19341 0
M  V30 4421 H 435.67 2.8851 1.44781 0
M  V30 4422 H 434.722 3.71323 -0.826044 0
M  V30 4423 H 436.034 4.91191 -0.867937 0
M  V30 4424 H 435.188 5.9361 1.25348 0
M  V30 4425 H 433.927 4.67737 1.38105 0
M  V30 4426 H 432.932 5.44039 -0.793849 0
M  V30 4427 H 434.157 6.73022 -0.906568 0
M  V30 4428 H 432.103 6.42648 1.3168 0
M  V30 4429 H 432.02 7.56 0.00835237 0
M  V30 4430 H 433.288 7.70382 1.18879 0
M  V30 4431 N 437.518 0.538854 1.48102 0
M  V30 4432 C 438.767 0.0059532 2.01699 0
M  V30 4433 C 439.08 -1.34476 1.42041 0
M  V30 4434 O 440.286 -1.96653 1.87189 0
M  V30 4435 C 438.742 -0.0397627 3.59878 0
M  V30 4436 C 438.35 1.30659 4.28523 0
M  V30 4437 C 440.094 -0.521024 4.2129 0
M  V30 4438 C 438.001 1.22098 5.78659 0
M  V30 4439 H 436.931 -0.00154456 0.753998 0
M  V30 4440 H 439.582 0.683963 1.70277 0
M  V30 4441 H 437.964 -0.783037 3.88181 0
M  V30 4442 H 439.138 2.06613 4.11883 0
M  V30 4443 H 437.453 1.7243 3.79021 0
M  V30 4444 H 440.05 -0.603184 5.31287 0
M  V30 4445 H 440.393 -1.52885 3.8721 0
M  V30 4446 H 440.926 0.166834 3.9745 0
M  V30 4447 H 437.665 2.20424 6.17328 0
M  V30 4448 H 437.185 0.50295 5.97688 0
M  V30 4449 H 438.864 0.915345 6.40492 0
M  V30 4450 N 438.996 -1.55193 0.274407 0
M  V30 4451 C 440.244 -1.99187 -0.341902 0
M  V30 4452 C 440.565 -1.16422 -1.56431 0
M  V30 4453 O 439.835 -0.253573 -1.94252 0
M  V30 4454 H 438.415 -0.735721 -0.129317 0
M  V30 4455 H 441.077 -1.91168 0.379578 0
M  V30 4456 H 440.173 -3.05629 -0.632253 0
M  V30 4457 N 440.474 -0.00167713 -1.576 0
M  V30 4458 C 441.404 0.988091 -2.11563 0
M  V30 4459 C 442.385 1.35736 -1.02517 0
M  V30 4460 O 443.57 1.44082 -1.30208 0
M  V30 4461 C 440.7 2.27941 -2.62031 0
M  V30 4462 C 439.654 2.0517 -3.75619 0
M  V30 4463 C 438.98 3.4033 -4.12407 0
M  V30 4464 C 440.28 1.41294 -5.02825 0
M  V30 4465 H 441.974 0.538771 -2.94513 0
M  V30 4466 H 439.52 0.257712 -1.41675 0
M  V30 4467 H 441.473 2.97539 -2.9841 0
M  V30 4468 H 440.197 2.74989 -1.76205 0
M  V30 4469 H 438.856 1.37998 -3.39635 0
M  V30 4470 H 438.504 3.85085 -3.23603 0
M  V30 4471 H 438.204 3.25909 -4.88935 0
M  V30 4472 H 439.728 4.1124 -4.51347 0
M  V30 4473 H 441.142 2.00851 -5.36965 0
M  V30 4474 H 439.539 1.37356 -5.84169 0
M  V30 4475 H 440.609 0.382362 -4.8339 0
M  V30 4476 N 441.952 1.55251 0.271103 0
M  V30 4477 C 443.201 1.75151 1.00025 0
M  V30 4478 C 443.514 0.561041 1.87381 0
M  V30 4479 O 444.72 0.642506 2.63788 0
M  V30 4480 C 443.176 3.09999 1.82835 0
M  V30 4481 C 442.784 4.3662 1.00336 0
M  V30 4482 C 444.528 3.39249 2.55168 0
M  V30 4483 C 442.435 5.62506 1.82595 0
M  V30 4484 H 441.365 0.652877 0.377183 0
M  V30 4485 H 444.016 1.81708 0.255843 0
M  V30 4486 H 442.398 2.97485 2.61378 0
M  V30 4487 H 443.572 4.60055 0.261959 0
M  V30 4488 H 441.887 4.14527 0.394486 0
M  V30 4489 H 444.484 4.3051 3.1712 0
M  V30 4490 H 444.827 2.59467 3.2555 0
M  V30 4491 H 445.36 3.52869 1.83653 0
M  V30 4492 H 442.099 6.45041 1.16631 0
M  V30 4493 H 441.619 5.43211 2.54327 0
M  V30 4494 H 443.298 6.00875 2.39913 0
M  V30 4495 N 443.43 -0.535701 1.48216 0
M  V30 4496 C 444.377 -1.64083 1.62312 0
M  V30 4497 C 445.347 -1.59448 0.465365 0
M  V30 4498 O 446.532 -1.77959 0.688135 0
M  V30 4499 C 443.672 -3.0236 1.66349 0
M  V30 4500 C 442.785 -3.17273 2.93193 0
M  V30 4501 C 441.92 -4.46075 2.88427 0
M  V30 4502 C 440.959 -4.54496 4.1 0
M  V30 4503 N 440.096 -5.7468 4.03345 0
M  V30 4504 H 444.936 -1.51374 2.5669 0
M  V30 4505 H 442.473 -0.737059 1.27302 0
M  V30 4506 H 444.431 -3.82461 1.66672 0
M  V30 4507 H 443.061 -3.13854 0.754672 0
M  V30 4508 H 442.113 -2.30462 3.02641 0
M  V30 4509 H 443.425 -3.19357 3.83162 0
M  V30 4510 H 442.579 -5.3446 2.87119 0
M  V30 4511 H 441.318 -4.46504 1.96177 0
M  V30 4512 H 440.323 -3.64519 4.11589 0
M  V30 4513 H 441.548 -4.5581 5.03402 0
M  V30 4514 H 439.494 -5.76017 3.13912 0
M  V30 4515 H 439.411 -5.78234 4.87013 0
M  V30 4516 H 440.679 -6.65367 4.06087 0
M  V30 4517 N 444.908 -1.36708 -0.784132 0
M  V30 4518 C 446.154 -1.31426 -1.54451 0
M  V30 4519 C 446.487 0.10476 -1.93917 0
M  V30 4520 O 445.762 1.05934 -1.6312 0
M  V30 4521 C 446.045 -2.24189 -2.818 0
M  V30 4522 C 445.898 -3.74813 -2.48667 0
M  V30 4523 C 447.217 -2.15626 -3.83658 0
M  V30 4524 H 444.336 -0.478739 -0.560337 0
M  V30 4525 H 446.978 -1.67305 -0.900498 0
M  V30 4526 H 445.128 -1.93722 -3.36755 0
M  V30 4527 H 446.8 -4.15823 -1.99722 0
M  V30 4528 H 445.043 -3.93989 -1.81535 0
M  V30 4529 H 445.714 -4.35138 -3.39646 0
M  V30 4530 H 448.19 -2.42456 -3.38163 0
M  V30 4531 H 447.066 -2.82694 -4.70506 0
M  V30 4532 H 447.327 -1.14522 -4.27009 0
M  V30 4533 N 446.386 1.0089 -1.21074 0
M  V30 4534 C 447.802 1.2695 -0.967257 0
M  V30 4535 C 448.002 1.9846 0.348673 0
M  V30 4536 O 447.058 2.28459 1.0753 0
M  V30 4537 C 448.371 2.09697 -2.15517 0
M  V30 4538 C 449.919 2.22937 -2.197 0
M  V30 4539 C 450.394 3.09064 -3.37999 0
M  V30 4540 N 451.885 3.16653 -3.38061 0
M  V30 4541 C 452.62 3.8354 -4.26245 0
M  V30 4542 N 452.116 4.52488 -5.2462 0
M  V30 4543 N 453.909 3.80141 -4.14064 0
M  V30 4544 H 446.06 0.529005 -2.05707 0
M  V30 4545 H 448.323 0.296148 -0.900556 0
M  V30 4546 H 448.029 1.64497 -3.10859 0
M  V30 4547 H 447.903 3.10444 -2.14253 0
M  V30 4548 H 450.29 2.67357 -1.24916 0
M  V30 4549 H 450.371 1.21673 -2.2501 0
M  V30 4550 H 450.015 2.65347 -4.33074 0
M  V30 4551 H 449.945 4.10433 -3.29928 0
M  V30 4552 H 452.436 2.67566 -2.66865 0
M  V30 4553 H 452.749 5.01219 -5.88217 0
M  V30 4554 H 451.094 4.51288 -5.28549 0
M  V30 4555 H 454.285 3.25427 -3.36474 0
M  V30 4556 H 454.458 4.31992 -4.82998 0
M  V30 4557 N 447.864 1.01787 1.20321 0
M  V30 4558 C 448.794 0.609625 2.25401 0
M  V30 4559 C 449.775 -0.375951 1.65893 0
M  V30 4560 O 450.96 -0.261101 1.92437 0
M  V30 4561 C 448.09 -0.0515995 3.47262 0
M  V30 4562 C 447.044 0.855095 4.19371 0
M  V30 4563 C 446.37 0.0595757 5.34667 0
M  V30 4564 C 447.67 2.16374 4.75373 0
M  V30 4565 H 449.364 1.48803 2.59804 0
M  V30 4566 H 446.91 0.716934 1.24884 0
M  V30 4567 H 448.863 -0.348764 4.19954 0
M  V30 4568 H 447.587 -0.964726 3.12027 0
M  V30 4569 H 446.246 1.13628 3.48546 0
M  V30 4570 H 445.894 -0.85524 4.95676 0
M  V30 4571 H 445.594 0.663406 5.83843 0
M  V30 4572 H 447.118 -0.231105 6.10162 0
M  V30 4573 H 448.532 1.92885 5.39878 0
M  V30 4574 H 446.929 2.71853 5.34991 0
M  V30 4575 H 447.999 2.82589 3.94045 0
M  V30 4576 N 449.342 -1.36122 0.79427 0
M  V30 4577 C 450.572 -2.03067 0.380437 0
M  V30 4578 C 450.98 -1.60018 -1.00949 0
M  V30 4579 O 450.323 -0.787425 -1.65968 0
M  V30 4580 C 450.385 -3.57587 0.37034 0
M  V30 4581 C 450.049 -4.23855 1.70867 0
M  V30 4582 C 451.046 -4.46404 2.66496 0
M  V30 4583 C 448.731 -4.61229 1.9893 0
M  V30 4584 C 450.725 -5.05412 3.88378 0
M  V30 4585 C 448.412 -5.19953 3.21079 0
M  V30 4586 C 449.41 -5.41985 4.15621 0
M  V30 4587 O 449.098 -5.99475 5.35616 0
M  V30 4588 H 448.83 -0.658168 0.154243 0
M  V30 4589 H 451.384 -1.7498 1.0757 0
M  V30 4590 H 449.614 -3.84814 -0.381444 0
M  V30 4591 H 451.303 -4.05895 -0.0194894 0
M  V30 4592 H 452.069 -4.17921 2.46103 0
M  V30 4593 H 447.948 -4.43402 1.26158 0
M  V30 4594 H 451.492 -5.22524 4.62185 0
M  V30 4595 H 447.389 -5.47862 3.41347 0
M  V30 4596 H 448.157 -6.17937 5.36745 0
M  V30 4597 N 450.82 -0.546701 -1.47814 0
M  V30 4598 C 452.236 -0.205717 -1.58269 0
M  V30 4599 C 452.436 1.29153 -1.54667 0
M  V30 4600 O 451.492 2.07098 -1.44453 0
M  V30 4601 C 452.805 -0.823065 -2.89216 0
M  V30 4602 C 454.353 -0.793328 -3.02779 0
M  V30 4603 C 454.828 -1.38955 -4.36412 0
M  V30 4604 N 456.319 -1.35227 -4.43021 0
M  V30 4605 C 457.054 -1.78333 -5.44963 0
M  V30 4606 N 456.55 -2.29246 -6.53772 0
M  V30 4607 N 458.343 -1.69467 -5.35945 0
M  V30 4608 H 450.494 -1.5196 -1.48398 0
M  V30 4609 H 452.757 -0.633078 -0.705632 0
M  V30 4610 H 452.463 -1.8749 -2.97558 0
M  V30 4611 H 452.337 -0.309915 -3.75925 0
M  V30 4612 H 454.724 0.249784 -2.94041 0
M  V30 4613 H 454.805 -1.34412 -2.17639 0
M  V30 4614 H 454.449 -2.43168 -4.45906 0
M  V30 4615 H 454.379 -0.814291 -5.20266 0
M  V30 4616 H 456.87 -0.979739 -3.64979 0
M  V30 4617 H 457.183 -2.60089 -7.27718 0
M  V30 4618 H 455.528 -2.3325 -6.5469 0
M  V30 4619 H 458.719 -1.29477 -4.49837 0
M  V30 4620 H 458.892 -2.03381 -6.15256 0
M  V30 4621 N 452.299 1.55045 -0.282633 0
M  V30 4622 C 453.71 1.85473 0.213655 0
M  V30 4623 C 454.061 1.20465 1.54863 0
M  V30 4624 O 453.186 0.495676 2.10647 0
M  V30 4625 C 453.781 3.36496 0.394445 0
M  V30 4626 C 452.34 3.67022 0.834961 0
M  V30 4627 C 451.487 2.77218 -0.0674081 0
M  V30 4628 H 454.438 1.50478 -0.504202 0
M  V30 4629 H 454.459 3.60007 1.23186 0
M  V30 4630 H 453.971 3.83782 -0.577326 0
M  V30 4631 H 452.072 3.25241 1.81794 0
M  V30 4632 H 452.185 4.74433 0.667075 0
M  V30 4633 H 450.549 2.5069 0.450196 0
M  V30 4634 H 451.332 3.2732 -1.0352 0
M  V30 4635 N 453.777 0.010035 1.57597 0
M  V30 4636 C 455.024 -0.6727 1.91 0
M  V30 4637 C 455.352 -1.73219 0.884614 0
M  V30 4638 O 454.607 -1.95395 -0.109215 0
M  V30 4639 C 454.906 -1.34434 3.31153 0
M  V30 4640 C 454.572 -0.417083 4.48967 0
M  V30 4641 C 453.234 -0.161809 4.80928 0
M  V30 4642 C 455.586 0.220753 5.20732 0
M  V30 4643 C 452.914 0.739426 5.82022 0
M  V30 4644 C 455.266 1.10993 6.22787 0
M  V30 4645 C 453.93 1.37428 6.532 0
M  V30 4646 H 453.2 -0.246158 0.698918 0
M  V30 4647 H 455.847 0.0677145 1.9138 0
M  V30 4648 H 454.152 -2.15905 3.26944 0
M  V30 4649 H 455.849 -1.87883 3.54261 0
M  V30 4650 H 452.439 -0.626217 4.24001 0
M  V30 4651 H 456.623 0.0365643 4.96287 0
M  V30 4652 H 451.879 0.952139 6.03941 0
M  V30 4653 H 456.053 1.61046 6.77523 0
M  V30 4654 H 453.68 2.0743 7.31353 0
M  V30 4655 N 455.255 -1.55392 -0.262866 0
M  V30 4656 C 456.501 -1.76737 -0.99458 0
M  V30 4657 C 456.834 -0.572453 -1.85571 0
M  V30 4658 O 456.109 0.429732 -1.89693 0
M  V30 4659 C 456.392 -3.07824 -1.8686 0
M  V30 4660 C 456.245 -4.3769 -1.03672 0
M  V30 4661 C 457.564 -3.35021 -2.85393 0
M  V30 4662 H 454.683 -0.643005 -0.360157 0
M  V30 4663 H 457.325 -1.88126 -0.266216 0
M  V30 4664 H 455.475 -2.98245 -2.48962 0
M  V30 4665 H 457.147 -4.59238 -0.43563 0
M  V30 4666 H 455.39 -4.32461 -0.340513 0
M  V30 4667 H 456.061 -5.25759 -1.6817 0
M  V30 4668 H 458.537 -3.44458 -2.33426 0
M  V30 4669 H 457.413 -4.27989 -3.43681 0
M  V30 4670 H 457.674 -2.55153 -3.61039 0
M  V30 4671 N 456.733 0.527833 -1.48498 0
M  V30 4672 C 457.958 1.313 -1.60546 0
M  V30 4673 C 458.383 1.86199 -0.26672 0
M  V30 4674 O 457.741 1.64513 0.761918 0
M  V30 4675 C 457.789 2.43818 -2.65678 0
M  V30 4676 O 456.893 3.46916 -2.22987 0
M  V30 4677 H 456.234 0.388784 -0.538277 0
M  V30 4678 H 458.764 0.634896 -1.945 0
M  V30 4679 H 458.774 2.89973 -2.87018 0
M  V30 4680 H 457.449 2.03222 -3.62869 0
M  V30 4681 H 456.026 3.06864 -2.11869 0
M  V30 4682 N 458.211 1.37122 0.776871 0
M  V30 4683 C 459.121 1.34651 1.9211 0
M  V30 4684 C 460.137 0.246824 1.7224 0
M  V30 4685 O 461.313 0.48134 1.95563 0
M  V30 4686 C 458.378 1.14748 3.2716 0
M  V30 4687 C 457.439 2.34308 3.5972 0
M  V30 4688 C 456.672 2.15345 4.88326 0
M  V30 4689 O 456.895 1.13507 5.58992 0
M  V30 4690 O 455.829 3.03414 5.1983 0
M  V30 4691 H 459.655 2.31013 1.97146 0
M  V30 4692 H 457.24 1.17799 0.918901 0
M  V30 4693 H 459.122 1.05616 4.0795 0
M  V30 4694 H 457.797 0.214562 3.22988 0
M  V30 4695 H 456.704 2.49011 2.79185 0
M  V30 4696 H 458.037 3.26149 3.68629 0
M  V30 4697 N 459.689 -1.00246 1.21608 0
M  V30 4698 C 460.652 -2.07233 0.979133 0
M  V30 4699 C 461.652 -1.6072 -0.0508219 0
M  V30 4700 O 462.842 -1.73196 0.186712 0
M  V30 4701 C 459.974 -3.37546 0.477016 0
M  V30 4702 H 461.167 -2.29687 1.92831 0
M  V30 4703 H 458.72 -1.17261 1.03342 0
M  V30 4704 H 459.455 -3.20773 -0.476966 0
M  V30 4705 H 459.24 -3.72638 1.21997 0
M  V30 4706 H 460.73 -4.16285 0.331181 0
M  V30 4707 N 461.167 -1.02423 -1.1978 0
M  V30 4708 C 462.414 -0.717988 -1.89344 0
M  V30 4709 C 462.742 0.753036 -1.79331 0
M  V30 4710 O 461.997 1.56355 -1.17692 0
M  V30 4711 C 462.296 -1.1088 -3.39765 0
M  V30 4712 C 461.962 -2.57731 -3.6998 0
M  V30 4713 C 460.624 -2.97854 -3.77937 0
M  V30 4714 C 462.976 -3.52763 -3.83677 0
M  V30 4715 C 460.304 -4.31931 -3.97054 0
M  V30 4716 C 462.656 -4.86538 -4.04306 0
M  V30 4717 C 461.32 -5.26356 -4.10494 0
M  V30 4718 H 460.59 -0.26273 -0.692859 0
M  V30 4719 H 463.237 -1.28623 -1.41875 0
M  V30 4720 H 461.542 -0.459094 -3.89101 0
M  V30 4721 H 463.239 -0.849432 -3.919 0
M  V30 4722 H 459.829 -2.25646 -3.64393 0
M  V30 4723 H 464.013 -3.2292 -3.76877 0
M  V30 4724 H 459.269 -4.62324 -4.00083 0
M  V30 4725 H 463.443 -5.60093 -4.13846 0
M  V30 4726 H 461.07 -6.3026 -4.2506 0
M  V30 4727 N 462.645 1.35699 -0.801477 0
M  V30 4728 C 463.892 1.98913 -0.379459 0
M  V30 4729 C 464.22 1.63592 1.05204 0
M  V30 4730 O 463.475 0.888563 1.74365 0
M  V30 4731 C 463.774 3.53828 -0.504041 0
M  V30 4732 C 463.44 4.09002 -1.8981 0
M  V30 4733 C 462.102 4.23783 -2.27951 0
M  V30 4734 C 464.454 4.38939 -2.81038 0
M  V30 4735 C 461.782 4.65816 -3.56696 0
M  V30 4736 C 464.134 4.82409 -4.09224 0
M  V30 4737 C 462.798 4.95395 -4.4737 0
M  V30 4738 H 462.068 0.727874 -0.138854 0
M  V30 4739 H 464.715 1.61994 -1.02128 0
M  V30 4740 H 463.02 3.91175 0.221242 0
M  V30 4741 H 464.717 4.00687 -0.158361 0
M  V30 4742 H 461.307 3.97946 -1.59176 0
M  V30 4743 H 465.491 4.27077 -2.52821 0
M  V30 4744 H 460.747 4.74059 -3.86106 0
M  V30 4745 H 464.921 5.04535 -4.80018 0
M  V30 4746 H 462.548 5.27724 -5.47185 0
M  V30 4747 N 464.123 0.554532 1.47522 0
M  V30 4748 C 465.086 -0.184174 2.28459 0
M  V30 4749 C 466.086 -0.845195 1.36796 0
M  V30 4750 O 467.276 -0.701467 1.59452 0
M  V30 4751 C 464.408 -1.26903 3.16399 0
M  V30 4752 H 465.601 0.526751 2.95238 0
M  V30 4753 H 463.154 0.311375 1.53167 0
M  V30 4754 H 463.889 -2.01244 2.54306 0
M  V30 4755 H 463.674 -0.799883 3.83854 0
M  V30 4756 H 465.164 -1.78794 3.77389 0
M  V30 4757 N 465.601 -1.54893 0.290851 0
M  V30 4758 C 466.564 -2.21824 -0.576784 0
M  V30 4759 C 467.564 -1.20104 -1.06919 0
M  V30 4760 O 468.754 -1.44906 -0.966843 0
M  V30 4761 C 465.886 -2.89662 -1.79747 0
M  V30 4762 H 467.079 -2.99899 0.00784051 0
M  V30 4763 H 464.632 -1.56245 0.0415934 0
M  V30 4764 H 465.367 -2.15639 -2.42219 0
M  V30 4765 H 465.152 -3.64219 -1.45214 0
M  V30 4766 H 466.642 -3.4075 -2.4141 0
M  V30 4767 N 467.08 -0.0183926 -1.57589 0
M  V30 4768 C 468.01 0.965596 -2.12599 0
M  V30 4769 C 468.991 1.34641 -1.0395 0
M  V30 4770 O 470.176 1.42693 -1.31729 0
M  V30 4771 C 467.306 2.25149 -2.64434 0
M  V30 4772 C 466.26 2.01175 -3.77773 0
M  V30 4773 C 465.586 3.35937 -4.15994 0
M  V30 4774 C 466.886 1.35953 -5.04296 0
M  V30 4775 H 468.58 0.507504 -2.95067 0
M  V30 4776 H 466.126 0.242671 -1.41941 0
M  V30 4777 H 468.079 2.94357 -3.01549 0
M  V30 4778 H 466.803 2.73105 -1.79112 0
M  V30 4779 H 465.462 1.34388 -3.4108 0
M  V30 4780 H 465.11 3.81631 -3.27669 0
M  V30 4781 H 464.81 3.20705 -4.92364 0
M  V30 4782 H 466.334 4.0643 -4.55683 0
M  V30 4783 H 467.748 1.95144 -5.39065 0
M  V30 4784 H 466.145 1.31152 -5.85593 0
M  V30 4785 H 467.215 0.331071 -4.83768 0
M  V30 4786 N 468.558 1.5553 0.254621 0
M  V30 4787 C 469.969 1.67518 0.824286 0
M  V30 4788 C 470.32 0.614429 1.86331 0
M  V30 4789 O 469.445 -0.240736 2.15057 0
M  V30 4790 C 470.04 3.03692 1.50189 0
M  V30 4791 C 468.599 3.17646 2.01935 0
M  V30 4792 C 467.746 2.63373 0.867746 0
M  V30 4793 H 470.697 1.58671 0.0305843 0
M  V30 4794 H 470.718 2.97706 2.36962 0
M  V30 4795 H 470.23 3.80874 0.745431 0
M  V30 4796 H 468.331 2.45273 2.80485 0
M  V30 4797 H 468.444 4.24455 2.22204 0
M  V30 4798 H 466.808 2.20999 1.26616 0
M  V30 4799 H 467.591 3.43074 0.124498 0
M  V30 4800 N 470.036 -0.519951 1.48776 0
M  V30 4801 C 470.999 -1.60574 1.6355 0
M  V30 4802 C 471.999 -1.52557 0.508234 0
M  V30 4803 O 473.189 -1.56047 0.774262 0
M  V30 4804 C 470.321 -3.00211 1.61512 0
M  V30 4805 H 471.514 -1.4881 2.60376 0
M  V30 4806 H 469.067 -0.742772 1.37523 0
M  V30 4807 H 469.802 -3.17471 0.662009 0
M  V30 4808 H 469.587 -3.07439 2.43359 0
M  V30 4809 H 471.077 -3.79134 1.75064 0
M  V30 4810 N 471.514 -1.37532 -0.769588 0
M  V30 4811 C 472.739 -1.36231 -1.56384 0
M  V30 4812 C 473.164 0.0495849 -1.88035 0
M  V30 4813 O 472.522 1.02723 -1.49391 0
M  V30 4814 C 472.57 -2.20986 -2.84952 0
M  V30 4815 O 471.674 -1.61597 -3.79421 0
M  V30 4816 H 471.015 -0.465387 -0.473615 0
M  V30 4817 H 473.545 -1.81085 -0.952342 0
M  V30 4818 H 473.555 -2.34277 -3.34034 0
M  V30 4819 H 472.23 -3.23612 -2.61243 0
M  V30 4820 H 470.807 -1.57359 -3.38072 0
M  V30 4821 N 472.992 0.995999 -1.22138 0
M  V30 4822 C 473.955 2.06711 -0.990109 0
M  V30 4823 C 474.955 1.60744 0.0422978 0
M  V30 4824 O 476.145 1.73095 -0.195895 0
M  V30 4825 C 473.277 3.37288 -0.49491 0
M  V30 4826 H 474.47 2.28661 -1.94047 0
M  V30 4827 H 472.023 1.16711 -1.03963 0
M  V30 4828 H 472.758 3.21022 0.459948 0
M  V30 4829 H 472.543 3.71986 -1.23971 0
M  V30 4830 H 474.033 4.16103 -0.353253 0
M  V30 4831 N 474.47 1.03057 1.19235 0
M  V30 4832 C 475.417 0.612832 2.22515 0
M  V30 4833 C 476.387 -0.374224 1.61829 0
M  V30 4834 O 477.572 -0.270501 1.88873 0
M  V30 4835 C 474.712 -0.028475 3.45088 0
M  V30 4836 C 473.825 1.00483 4.20151 0
M  V30 4837 C 472.96 0.333102 5.30155 0
M  V30 4838 C 471.999 1.3522 5.96977 0
M  V30 4839 N 471.136 0.70616 6.9854 0
M  V30 4840 H 475.976 1.49812 2.57605 0
M  V30 4841 H 473.513 0.749658 1.26564 0
M  V30 4842 H 475.471 -0.417548 4.15105 0
M  V30 4843 H 474.101 -0.877334 3.10649 0
M  V30 4844 H 473.153 1.51194 3.49062 0
M  V30 4845 H 474.465 1.77929 4.65986 0
M  V30 4846 H 473.619 -0.110725 6.06599 0
M  V30 4847 H 472.358 -0.473547 4.85396 0
M  V30 4848 H 471.363 1.80627 5.19282 0
M  V30 4849 H 472.588 2.16037 6.4382 0
M  V30 4850 H 470.534 -0.0803667 6.55951 0
M  V30 4851 H 470.451 1.41848 7.42573 0
M  V30 4852 H 471.719 0.286391 7.78974 0
M  V30 4853 N 475.948 -1.35272 0.808662 0
M  V30 4854 C 477.194 -1.99003 0.390581 0
M  V30 4855 C 477.527 -1.63999 -1.0401 0
M  V30 4856 O 476.802 -0.904368 -1.72196 0
M  V30 4857 C 477.085 -3.55454 0.576566 0
M  V30 4858 C 476.938 -4.00249 2.05233 0
M  V30 4859 C 478.257 -4.401 0.00354277 0
M  V30 4860 H 475.376 -0.722917 0.143388 0
M  V30 4861 H 478.018 -1.6039 1.01858 0
M  V30 4862 H 476.168 -3.88477 0.0419766 0
M  V30 4863 H 477.84 -3.77626 2.64946 0
M  V30 4864 H 476.083 -3.51082 2.54801 0
M  V30 4865 H 476.754 -5.0911 2.13333 0
M  V30 4866 H 479.23 -4.13548 0.460117 0
M  V30 4867 H 478.106 -5.48656 0.163575 0
M  V30 4868 H 478.367 -4.28444 -1.09032 0
M  V30 4869 N 477.426 -0.562348 -1.47226 0
M  V30 4870 C 478.675 -0.038041 -2.01664 0
M  V30 4871 C 478.988 1.32199 -1.44162 0
M  V30 4872 O 480.194 1.9365 -1.90294 0
M  V30 4873 C 478.65 -0.0174958 -3.59896 0
M  V30 4874 C 478.258 -1.3746 -4.2639 0
M  V30 4875 C 480.002 0.453934 -4.22066 0
M  V30 4876 C 477.909 -1.31289 -5.76643 0
M  V30 4877 H 476.839 -0.0104511 -0.753928 0
M  V30 4878 H 479.49 -0.710966 -1.69167 0
M  V30 4879 H 477.872 0.721182 -3.89378 0
M  V30 4880 H 479.046 -2.1314 -4.08544 0
M  V30 4881 H 477.361 -1.78438 -3.7623 0
M  V30 4882 H 479.958 0.518584 -5.32179 0
M  V30 4883 H 480.301 1.46706 -3.89594 0
M  V30 4884 H 480.834 -0.230044 -3.97134 0
M  V30 4885 H 477.573 -2.30217 -6.13743 0
M  V30 4886 H 477.093 -0.597973 -5.96812 0
M  V30 4887 H 478.772 -1.01713 -6.38955 0
M  V30 4888 N 478.904 1.54736 -0.299062 0
M  V30 4889 C 480.132 2.04512 0.313447 0
M  V30 4890 C 480.547 1.17643 1.47667 0
M  V30 4891 O 479.904 0.20164 1.81383 0
M  V30 4892 C 479.955 3.53171 0.771542 0
M  V30 4893 O 479.676 4.36736 -0.345379 0
M  V30 4894 C 481.177 4.18936 1.4494 0
M  V30 4895 H 478.397 0.667507 0.0683784 0
M  V30 4896 H 480.941 1.99752 -0.438129 0
M  V30 4897 H 479.096 3.58298 1.47314 0
M  V30 4898 H 479.51 5.24499 0.0109219 0
M  V30 4899 H 480.984 5.24482 1.72111 0
M  V30 4900 H 481.461 3.68554 2.38883 0
M  V30 4901 H 482.067 4.17879 0.791028 0
M  V30 4902 N 480.382 0.0267497 1.57577 0
M  V30 4903 C 481.628 -0.653371 1.91987 0
M  V30 4904 C 481.961 -1.71915 0.903263 0
M  V30 4905 O 481.236 -1.94358 -0.0743387 0
M  V30 4906 C 481.519 -1.272 3.36886 0
M  V30 4907 C 481.372 -0.215938 4.49281 0
M  V30 4908 C 482.691 -2.19069 3.81703 0
M  V30 4909 H 479.81 -0.236047 0.698177 0
M  V30 4910 H 482.452 0.0835236 1.89816 0
M  V30 4911 H 480.602 -1.90005 3.38866 0
M  V30 4912 H 482.274 0.41449 4.59434 0
M  V30 4913 H 480.517 0.458855 4.31366 0
M  V30 4914 H 481.188 -0.688347 5.47691 0
M  V30 4915 H 483.664 -1.66253 3.81444 0
M  V30 4916 H 482.54 -2.59307 4.83788 0
M  V30 4917 H 482.801 -3.08087 3.17072 0
M  V30 4918 N 481.861 -1.55662 -0.24637 0
M  V30 4919 C 482.791 -1.93377 -1.30873 0
M  V30 4920 C 483.772 -0.798773 -1.50179 0
M  V30 4921 O 484.957 -1.0591 -1.62778 0
M  V30 4922 C 482.087 -2.22893 -2.66338 0
M  V30 4923 C 481.041 -3.38649 -2.61727 0
M  V30 4924 C 480.367 -3.53708 -4.00992 0
M  V30 4925 C 481.667 -4.74323 -2.18666 0
M  V30 4926 H 483.361 -2.82363 -0.995552 0
M  V30 4927 H 480.907 -1.35854 -0.477464 0
M  V30 4928 H 482.86 -2.47866 -3.40794 0
M  V30 4929 H 481.584 -1.30733 -2.99293 0
M  V30 4930 H 480.243 -3.13685 -1.89729 0
M  V30 4931 H 479.891 -2.58967 -4.31214 0
M  V30 4932 H 479.591 -4.31551 -3.98795 0
M  V30 4933 H 481.115 -3.81003 -4.77147 0
M  V30 4934 H 482.529 -4.98665 -2.82854 0
M  V30 4935 H 480.926 -5.55273 -2.27579 0
M  V30 4936 H 481.996 -4.71349 -1.13834 0
M  V30 4937 N 483.339 0.512053 -1.4905 0
M  V30 4938 C 484.616 1.27337 -1.48474 0
M  V30 4939 C 484.996 2.1009 -0.206301 0
M  V30 4940 O 484.344 2.136 0.811609 0
M  V30 4941 C 484.554 2.13954 -2.75726 0
M  V30 4942 C 485.902 2.73507 -3.24776 0
M  V30 4943 O 486.926 2.24229 -2.76767 0
M  V30 4944 O 485.785 3.63186 -4.08361 0
M  V30 4945 H 482.879 0.575652 -0.593762 0
M  V30 4946 H 485.425 0.527232 -1.61302 0
M  V30 4947 H 484.197 1.52709 -3.60272 0
M  V30 4948 H 483.82 2.95782 -2.65705 0
M  V30 4949 N 484.817 1.37938 0.762283 0
M  V30 4950 C 486.233 1.18945 1.06415 0
M  V30 4951 C 486.433 0.0321163 2.01474 0
M  V30 4952 O 485.489 -0.624844 2.44647 0
M  V30 4953 C 486.802 2.51218 1.65258 0
M  V30 4954 C 488.35 2.57824 1.7747 0
M  V30 4955 C 488.825 3.90251 2.39725 0
M  V30 4956 N 490.316 3.91744 2.47166 0
M  V30 4957 C 491.051 4.90966 2.96209 0
M  V30 4958 N 490.547 6.00585 3.45354 0
M  V30 4959 N 492.34 4.78363 2.9517 0
M  V30 4960 H 484.491 2.11994 0.131301 0
M  V30 4961 H 486.754 0.940262 0.120879 0
M  V30 4962 H 486.46 3.36317 1.02878 0
M  V30 4963 H 486.334 2.68989 2.64433 0
M  V30 4964 H 488.721 1.73126 2.3898 0
M  V30 4965 H 488.802 2.43928 0.770241 0
M  V30 4966 H 488.446 4.75368 1.78852 0
M  V30 4967 H 488.376 4.01454 3.40796 0
M  V30 4968 H 490.867 3.12563 2.12397 0
M  V30 4969 H 491.18 6.72236 3.81207 0
M  V30 4970 H 489.525 6.04217 3.43434 0
M  V30 4971 H 492.716 3.91841 2.56082 0
M  V30 4972 H 492.889 5.55843 3.33081 0
M  V30 4973 N 486.295 -0.989507 1.22664 0
M  V30 4974 C 487.523 -1.76496 1.07967 0
M  V30 4975 C 487.938 -1.85148 -0.369543 0
M  V30 4976 O 487.295 -1.32408 -1.25596 0
M  V30 4977 C 487.346 -3.19642 1.68853 0
M  V30 4978 O 487.067 -3.11453 3.08105 0
M  V30 4979 C 488.568 -4.13621 1.59475 0
M  V30 4980 H 485.788 -0.55418 0.378319 0
M  V30 4981 H 488.332 -1.24378 1.62328 0
M  V30 4982 H 486.487 -3.68816 1.18547 0
M  V30 4983 H 486.901 -4.01499 3.37489 0
M  V30 4984 H 488.375 -5.11801 2.06795 0
M  V30 4985 H 488.852 -4.35718 0.55191 0
M  V30 4986 H 489.458 -3.70346 2.09103 0
M  V30 4987 N 487.773 -1.03688 -1.18687 0
M  V30 4988 C 488.72 -0.624624 -2.22187 0
M  V30 4989 C 489.69 0.365636 -1.62026 0
M  V30 4990 O 490.875 0.260481 -1.89014 0
M  V30 4991 C 488.015 0.0101738 -3.45099 0
M  V30 4992 C 487.128 -1.02709 -4.19613 0
M  V30 4993 C 486.263 -0.361213 -5.2997 0
M  V30 4994 C 485.302 -1.38384 -5.96252 0
M  V30 4995 N 484.439 -0.743196 -6.98155 0
M  V30 4996 H 489.279 -1.51176 -2.56807 0
M  V30 4997 H 486.816 -0.75636 -1.26165 0
M  V30 4998 H 488.774 0.395528 -4.15321 0
M  V30 4999 H 487.404 0.860848 -3.1111 0
M  V30 5000 H 486.456 -1.53043 -3.48256 0
M  V30 5001 H 487.768 -1.80398 -4.65036 0
M  V30 5002 H 486.922 0.0785537 -6.06649 0
M  V30 5003 H 485.661 0.447799 -4.8564 0
M  V30 5004 H 484.666 -1.83378 -5.18317 0
M  V30 5005 H 485.891 -2.19448 -6.42666 0
M  V30 5006 H 483.837 0.0455789 -6.55984 0
M  V30 5007 H 483.754 -1.45784 -7.41811 0
M  V30 5008 H 485.022 -0.327698 -7.78811 0
M  V30 5009 N 489.251 1.34841 -0.815825 0
M  V30 5010 C 490.161 2.33425 -0.234462 0
M  V30 5011 C 491.177 1.62295 0.627413 0
M  V30 5012 O 492.353 1.94109 0.536987 0
M  V30 5013 C 489.418 3.41471 0.599849 0
M  V30 5014 C 488.479 4.28362 -0.283596 0
M  V30 5015 C 487.712 5.31248 0.51099 0
M  V30 5016 O 487.935 5.43056 1.7449 0
M  V30 5017 O 486.869 6.01812 -0.10297 0
M  V30 5018 H 490.695 2.84962 -1.05024 0
M  V30 5019 H 488.28 1.37774 -0.577809 0
M  V30 5020 H 490.162 4.07464 1.07475 0
M  V30 5021 H 488.837 2.9219 1.39308 0
M  V30 5022 H 487.744 3.65318 -0.805836 0
M  V30 5023 H 489.077 4.81066 -1.041 0
M  V30 5024 N 490.729 0.570148 1.46925 0
M  V30 5025 C 492.14 0.1402 1.86173 0
M  V30 5026 C 492.491 -1.29347 1.47526 0
M  V30 5027 O 491.616 -1.97508 0.884292 0
M  V30 5028 C 492.211 0.247661 3.37894 0
M  V30 5029 C 490.77 -0.127332 3.76185 0
M  V30 5030 C 489.917 0.589349 2.70965 0
M  V30 5031 H 492.868 0.779117 1.38259 0
M  V30 5032 H 492.889 -0.530341 3.76786 0
M  V30 5033 H 492.401 1.29121 3.65991 0
M  V30 5034 H 490.502 -1.17149 3.53704 0
M  V30 5035 H 490.615 0.240238 4.78497 0
M  V30 5036 H 488.979 0.0309824 2.54681 0
M  V30 5037 H 489.762 1.6343 3.01903 0
M  V30 5038 N 492.207 -1.54576 0.307264 0
M  V30 5039 C 493.455 -1.99867 -0.299574 0
M  V30 5040 C 493.776 -1.19714 -1.53927 0
M  V30 5041 O 493.046 -0.29472 -1.9367 0
M  V30 5042 H 491.626 -0.738299 -0.113683 0
M  V30 5043 H 494.288 -1.9032 0.420042 0
M  V30 5044 H 493.384 -3.06901 -0.567283 0
M  V30 5045 N 493.685 -0.035106 -1.57561 0
M  V30 5046 C 494.648 0.929819 -2.09492 0
M  V30 5047 C 495.648 1.25026 -1.01119 0
M  V30 5048 O 496.838 1.18961 -1.27255 0
M  V30 5049 C 493.97 2.24457 -2.56577 0
M  V30 5050 H 495.163 0.479935 -2.96035 0
M  V30 5051 H 492.716 0.213033 -1.54841 0
M  V30 5052 H 493.451 2.74061 -1.73382 0
M  V30 5053 H 493.236 2.02508 -3.35757 0
M  V30 5054 H 494.726 2.93607 -2.96959 0
M  V30 5055 N 495.163 1.55791 0.238111 0
M  V30 5056 C 496.574 1.68383 0.806472 0
M  V30 5057 C 496.925 0.634157 1.85669 0
M  V30 5058 O 496.05 -0.217913 2.153 0
M  V30 5059 C 496.645 3.05268 1.46959 0
M  V30 5060 C 495.204 3.1977 1.98555 0
M  V30 5061 C 494.351 2.64279 0.839763 0
M  V30 5062 H 497.302 1.58694 0.0137535 0
M  V30 5063 H 497.323 3.00203 2.33792 0
M  V30 5064 H 496.835 3.81643 0.704993 0
M  V30 5065 H 494.936 2.48234 2.77868 0
M  V30 5066 H 495.049 4.26788 2.17689 0
M  V30 5067 H 493.413 2.22329 1.24265 0
M  V30 5068 H 494.196 3.43187 0.0881032 0
M  V30 5069 N 496.642 -0.504142 1.49319 0
M  V30 5070 C 497.89 -1.25598 1.58334 0
M  V30 5071 C 498.211 -1.93114 0.270538 0
M  V30 5072 O 497.481 -1.82585 -0.709891 0
M  V30 5073 H 496.061 -0.466571 0.58337 0
M  V30 5074 H 498.723 -0.584547 1.85928 0
M  V30 5075 H 497.819 -2.02159 2.37778 0
M  V30 5076 N 498.12 -1.38341 -0.754957 0
M  V30 5077 C 499.397 -1.24995 -1.50451 0
M  V30 5078 C 499.777 0.149244 -2.10572 0
M  V30 5079 O 499.125 1.15861 -1.96948 0
M  V30 5080 C 499.335 -2.35904 -2.57197 0
M  V30 5081 C 500.683 -2.74262 -3.24138 0
M  V30 5082 O 501.707 -2.35205 -2.67501 0
M  V30 5083 O 500.566 -3.4161 -4.26574 0
M  V30 5084 H 497.66 -0.48872 -0.667144 0
M  V30 5085 H 500.206 -1.50165 -0.790486 0
M  V30 5086 H 498.978 -3.2953 -2.11011 0
M  V30 5087 H 498.601 -2.12291 -3.36182 0
M  V30 5088 N 499.598 0.982988 -1.23187 0
M  V30 5089 C 501.009 1.53847 -1.05773 0
M  V30 5090 C 501.36 1.92568 0.375744 0
M  V30 5091 O 500.485 1.75783 1.26211 0
M  V30 5092 C 501.08 2.79567 -1.91384 0
M  V30 5093 C 499.639 3.31524 -1.78238 0
M  V30 5094 C 498.786 2.04534 -1.87246 0
M  V30 5095 H 501.737 0.802962 -1.36888 0
M  V30 5096 H 501.758 3.52317 -1.43711 0
M  V30 5097 H 501.27 2.51353 -2.95708 0
M  V30 5098 H 499.371 3.64623 -0.766875 0
M  V30 5099 H 499.484 4.01457 -2.61475 0
M  V30 5100 H 497.848 2.1855 -1.30797 0
M  V30 5101 H 498.631 1.78706 -2.9312 0
M  V30 5102 N 501.076 1.04316 1.18135 0
M  V30 5103 C 502.006 0.657299 2.24058 0
M  V30 5104 C 502.987 -0.340678 1.66654 0
M  V30 5105 O 504.172 -0.220223 1.92947 0
M  V30 5106 C 501.302 0.0220715 3.47293 0
M  V30 5107 C 500.256 0.943857 4.17463 0
M  V30 5108 C 499.582 0.172973 5.3442 0
M  V30 5109 C 500.882 2.26409 4.70677 0
M  V30 5110 H 502.576 1.5428 2.56589 0
M  V30 5111 H 500.122 0.743263 1.23335 0
M  V30 5112 H 502.075 -0.259607 4.206 0
M  V30 5113 H 500.799 -0.898323 3.14003 0
M  V30 5114 H 499.458 1.20996 3.46057 0
M  V30 5115 H 499.106 -0.749907 4.97379 0
M  V30 5116 H 498.806 0.787098 5.82304 0
M  V30 5117 H 500.33 -0.101628 6.10515 0
M  V30 5118 H 501.744 2.04294 5.35665 0
M  V30 5119 H 500.141 2.8314 5.29105 0
M  V30 5120 H 501.211 2.90883 3.87962 0
M  V30 5121 N 502.554 -1.34406 0.822964 0
M  V30 5122 C 503.784 -2.02214 0.423424 0
M  V30 5123 C 504.192 -1.62124 -0.975322 0
M  V30 5124 O 503.535 -0.822452 -1.6426 0
M  V30 5125 C 503.597 -3.56721 0.446107 0
M  V30 5126 C 503.261 -4.20136 1.79819 0
M  V30 5127 C 504.258 -4.4065 2.75904 0
M  V30 5128 C 501.943 -4.56906 2.08669 0
M  V30 5129 C 503.937 -4.9706 3.99012 0
M  V30 5130 C 501.624 -5.13026 3.32036 0
M  V30 5131 C 502.622 -5.33047 4.27024 0
M  V30 5132 O 502.31 -5.87979 5.48211 0
M  V30 5133 H 502.042 -0.654748 0.168169 0
M  V30 5134 H 504.596 -1.72659 1.11257 0
M  V30 5135 H 502.826 -3.85537 -0.299734 0
M  V30 5136 H 504.515 -4.05845 0.0666114 0
M  V30 5137 H 505.281 -4.12607 2.54912 0
M  V30 5138 H 501.16 -4.40626 1.35535 0
M  V30 5139 H 504.704 -5.12603 4.73164 0
M  V30 5140 H 500.601 -5.40498 3.52891 0
M  V30 5141 H 501.369 -6.06413 5.49732 0
M  V30 5142 N 504.032 -0.577932 -1.46621 0
M  V30 5143 C 504.962 0.145917 -2.33044 0
M  V30 5144 C 505.943 0.888412 -1.45056 0
M  V30 5145 O 507.128 0.864812 -1.73881 0
M  V30 5146 C 504.258 1.16322 -3.27241 0
M  V30 5147 C 503.212 0.535868 -4.24632 0
M  V30 5148 C 502.538 1.65929 -5.08303 0
M  V30 5149 C 503.838 -0.523861 -5.19666 0
M  V30 5150 H 505.532 -0.575636 -2.93814 0
M  V30 5151 H 503.078 -0.278272 -1.41286 0
M  V30 5152 H 505.031 1.67793 -3.86553 0
M  V30 5153 H 503.755 1.91498 -2.64567 0
M  V30 5154 H 502.414 0.0422759 -3.66576 0
M  V30 5155 H 502.062 2.40061 -4.42018 0
M  V30 5156 H 501.762 1.2452 -5.74255 0
M  V30 5157 H 503.286 2.17686 -5.70478 0
M  V30 5158 H 504.7 -0.0944059 -5.73222 0
M  V30 5159 H 503.097 -0.858 -5.93935 0
M  V30 5160 H 504.167 -1.41197 -4.63887 0
M  V30 5161 N 505.51 1.54411 -0.315457 0
M  V30 5162 C 506.787 1.92562 0.343398 0
M  V30 5163 C 507.167 1.24423 1.70535 0
M  V30 5164 O 506.515 0.385051 2.25232 0
M  V30 5165 C 506.725 3.46168 0.443687 0
M  V30 5166 C 508.073 4.18659 0.707783 0
M  V30 5167 O 509.097 3.52281 0.52693 0
M  V30 5168 O 507.956 5.36198 1.05612 0
M  V30 5169 H 505.05 0.80379 0.194552 0
M  V30 5170 H 507.596 1.65738 -0.364577 0
M  V30 5171 H 506.368 3.8792 -0.513172 0
M  V30 5172 H 505.991 3.79073 1.19956 0
M  V30 5173 N 506.988 0.0434614 1.5754 0
M  V30 5174 C 508.234 -0.632971 1.92669 0
M  V30 5175 C 508.567 -1.70947 0.921446 0
M  V30 5176 O 507.842 -1.94426 -0.0537202 0
M  V30 5177 C 508.125 -1.23619 3.38216 0
M  V30 5178 C 507.978 -0.168274 4.49485 0
M  V30 5179 C 509.297 -2.15008 3.84005 0
M  V30 5180 H 506.416 -0.228629 0.700641 0
M  V30 5181 H 509.058 0.103651 1.89717 0
M  V30 5182 H 507.208 -1.864 3.40863 0
M  V30 5183 H 508.88 0.463196 4.58969 0
M  V30 5184 H 507.123 0.504581 4.30855 0
M  V30 5185 H 507.794 -0.630218 5.48391 0
M  V30 5186 H 510.27 -1.62198 3.83185 0
M  V30 5187 H 509.146 -2.54161 4.86511 0
M  V30 5188 H 509.407 -3.04707 3.20322 0
M  V30 5189 N 508.466 -1.55915 -0.229846 0
M  V30 5190 C 509.706 -1.80314 -0.962614 0
M  V30 5191 C 510.07 -0.61568 -1.81861 0
M  V30 5192 O 511.271 -0.738795 -2.58448 0
M  V30 5193 C 509.542 -3.0956 -1.78627 0
M  V30 5194 S 511.101 -3.55243 -2.57581 0
M  V30 5195 H 507.919 -0.633142 -0.323499 0
M  V30 5196 H 510.521 -1.94155 -0.228919 0
M  V30 5197 H 509.225 -3.94033 -1.14742 0
M  V30 5198 H 508.756 -2.98503 -2.56241 0
M  V30 5199 H 510.771 -3.17924 -3.80971 0
M  V30 5200 N 509.944 0.496216 -1.49584 0
M  V30 5201 C 511.169 1.27865 -1.63295 0
M  V30 5202 C 511.594 1.85592 -0.306156 0
M  V30 5203 O 510.952 1.66092 0.726851 0
M  V30 5204 C 511 2.38128 -2.7079 0
M  V30 5205 O 510.104 3.42108 -2.30296 0
M  V30 5206 H 509.445 0.377279 -0.546403 0
M  V30 5207 H 511.975 0.593497 -1.95803 0
M  V30 5208 H 511.985 2.8382 -2.93104 0
M  V30 5209 H 510.66 1.95479 -3.67098 0
M  V30 5210 H 509.237 3.02301 -2.18331 0
M  V30 5211 N 511.423 1.38739 0.74761 0
M  V30 5212 C 512.386 1.36241 1.84312 0
M  V30 5213 C 513.386 0.261811 1.58654 0
M  V30 5214 O 514.576 0.519031 1.66288 0
M  V30 5215 C 511.708 1.12253 3.21888 0
M  V30 5216 H 512.901 2.33712 1.87933 0
M  V30 5217 H 510.454 1.2412 0.949946 0
M  V30 5218 H 511.189 0.154133 3.23934 0
M  V30 5219 H 510.974 1.91943 3.41907 0
M  V30 5220 H 512.464 1.13215 4.0196 0
M  V30 5221 N 512.901 -0.976442 1.23707 0
M  V30 5222 C 514.148 -1.71827 1.07153 0
M  V30 5223 C 514.476 -1.9053 -0.390982 0
M  V30 5224 O 513.731 -1.45779 -1.30564 0
M  V30 5225 C 514.03 -3.11814 1.74662 0
M  V30 5226 C 513.696 -3.12978 3.24585 0
M  V30 5227 C 512.358 -3.13003 3.6549 0
M  V30 5228 C 514.71 -3.07986 4.20469 0
M  V30 5229 C 512.038 -3.05757 5.00729 0
M  V30 5230 C 514.39 -3.02282 5.55705 0
M  V30 5231 C 513.054 -3.00631 5.95968 0
M  V30 5232 H 512.324 -0.628758 0.392102 0
M  V30 5233 H 514.971 -1.14239 1.53693 0
M  V30 5234 H 513.276 -3.72812 1.20492 0
M  V30 5235 H 514.973 -3.67989 1.59328 0
M  V30 5236 H 511.563 -3.13718 2.92026 0
M  V30 5237 H 515.747 -3.07103 3.89874 0
M  V30 5238 H 511.003 -3.02834 5.31132 0
M  V30 5239 H 515.177 -2.97376 6.29714 0
M  V30 5240 H 512.804 -2.94771 7.00724 0
M  V30 5241 N 514.379 -1.04941 -1.1758 0
M  V30 5242 C 515.625 -0.759112 -1.88057 0
M  V30 5243 C 515.958 0.711918 -1.8068 0
M  V30 5244 O 515.233 1.52035 -1.21308 0
M  V30 5245 C 515.516 -1.237 -3.38187 0
M  V30 5246 C 515.369 -2.77078 -3.54327 0
M  V30 5247 C 516.688 -0.834014 -4.32125 0
M  V30 5248 H 513.807 -0.277237 -0.682868 0
M  V30 5249 H 516.449 -1.30296 -1.38286 0
M  V30 5250 H 514.599 -0.774337 -3.80705 0
M  V30 5251 H 516.271 -3.31449 -3.20842 0
M  V30 5252 H 514.514 -3.16477 -2.96689 0
M  V30 5253 H 515.185 -3.05577 -4.59703 0
M  V30 5254 H 517.661 -1.23228 -3.97434 0
M  V30 5255 H 516.537 -1.19603 -5.35711 0
M  V30 5256 H 516.798 0.262195 -4.41322 0
M  V30 5257 N 515.857 1.33968 -0.830081 0
M  V30 5258 C 516.767 2.33164 -0.259207 0
M  V30 5259 C 517.783 1.62951 0.610164 0
M  V30 5260 O 518.959 1.94668 0.516369 0
M  V30 5261 C 516.024 3.42088 0.563598 0
M  V30 5262 C 515.085 4.28037 -0.329014 0
M  V30 5263 C 514.318 5.3176 0.454616 0
M  V30 5264 O 514.541 5.44876 1.6872 0
M  V30 5265 O 513.475 6.01669 -0.166794 0
M  V30 5266 H 517.301 2.83832 -1.08041 0
M  V30 5267 H 514.886 1.37154 -0.59239 0
M  V30 5268 H 516.768 4.08581 1.03147 0
M  V30 5269 H 515.443 2.93651 1.36201 0
M  V30 5270 H 514.35 3.64443 -0.844538 0
M  V30 5271 H 515.683 4.79934 -1.09196 0
M  V30 5272 N 517.335 0.585699 1.46312 0
M  V30 5273 C 518.751 0.247607 1.57668 0
M  V30 5274 C 518.951 -1.25007 1.58037 0
M  V30 5275 O 518.007 -2.03196 1.49893 0
M  V30 5276 C 519.32 0.899456 2.86933 0
M  V30 5277 C 520.868 0.873326 3.00569 0
M  V30 5278 C 521.343 1.50477 4.32574 0
M  V30 5279 N 522.834 1.46925 4.3928 0
M  V30 5280 C 523.569 1.92719 5.40044 0
M  V30 5281 N 523.065 2.46499 6.47464 0
M  V30 5282 N 524.858 1.83617 5.31264 0
M  V30 5283 H 517.009 1.55841 1.44317 0
M  V30 5284 H 519.272 0.651564 0.688599 0
M  V30 5285 H 518.978 1.95313 2.92482 0
M  V30 5286 H 518.852 0.409476 3.74971 0
M  V30 5287 H 521.239 -0.171736 2.946 0
M  V30 5288 H 521.32 1.40136 2.13999 0
M  V30 5289 H 520.964 2.54905 4.39302 0
M  V30 5290 H 520.894 0.951944 5.17924 0
M  V30 5291 H 523.385 1.07616 3.62253 0
M  V30 5292 H 523.698 2.79291 7.20567 0
M  V30 5293 H 522.043 2.50526 6.48276 0
M  V30 5294 H 525.234 1.41358 4.46246 0
M  V30 5295 H 525.407 2.19622 6.09648 0
M  V30 5296 N 518.813 -1.54241 0.323641 0
M  V30 5297 C 520.061 -2.00174 -0.278359 0
M  V30 5298 C 520.382 -1.2134 -1.52648 0
M  V30 5299 O 519.652 -0.315244 -1.93347 0
M  V30 5300 H 518.232 -0.739463 -0.105845 0
M  V30 5301 H 520.894 -1.89864 0.440204 0
M  V30 5302 H 519.99 -3.07486 -0.5347 0
M  V30 5303 N 520.291 -0.0518155 -1.57515 0
M  V30 5304 C 521.201 0.937539 -2.15052 0
M  V30 5305 C 522.217 1.34121 -1.10849 0
M  V30 5306 O 523.393 1.418 -1.4302 0
M  V30 5307 C 520.458 2.19379 -2.68466 0
M  V30 5308 C 519.519 1.84841 -3.87469 0
M  V30 5309 C 518.752 3.04477 -4.38326 0
M  V30 5310 O 518.975 4.17868 -3.88256 0
M  V30 5311 O 517.909 2.85453 -5.29906 0
M  V30 5312 H 521.735 0.478201 -2.99912 0
M  V30 5313 H 519.32 0.17012 -1.48428 0
M  V30 5314 H 521.202 2.93084 -3.02787 0
M  V30 5315 H 519.877 2.64449 -1.86677 0
M  V30 5316 H 518.784 1.08449 -3.58036 0
M  V30 5317 H 520.117 1.44569 -4.7049 0
M  V30 5318 N 521.769 1.56035 0.221574 0
M  V30 5319 C 522.732 1.91584 1.2581 0
M  V30 5320 C 523.732 0.794425 1.39805 0
M  V30 5321 O 524.922 1.06217 1.38071 0
M  V30 5322 C 522.054 2.16663 2.63192 0
M  V30 5323 H 523.247 2.8429 0.954935 0
M  V30 5324 H 520.8 1.49316 0.461988 0
M  V30 5325 H 521.535 1.26508 2.98607 0
M  V30 5326 H 521.32 2.98358 2.5441 0
M  V30 5327 H 522.81 2.45262 3.37988 0
M  V30 5328 N 523.247 -0.488276 1.49845 0
M  V30 5329 C 524.18 -1.60651 1.62069 0
M  V30 5330 C 525.158 -1.5568 0.469308 0
M  V30 5331 O 526.342 -1.75553 0.686551 0
M  V30 5332 C 523.469 -2.99197 1.58741 0
M  V30 5333 C 522.515 -3.22385 2.79232 0
M  V30 5334 S 523.348 -3.04133 4.40753 0
M  V30 5335 C 524.504 -4.45052 4.4009 0
M  V30 5336 H 524.737 -1.50039 2.56662 0
M  V30 5337 H 522.27 -0.674371 1.38894 0
M  V30 5338 H 524.228 -3.79081 1.57506 0
M  V30 5339 H 522.889 -3.07213 0.654136 0
M  V30 5340 H 522.082 -4.23557 2.73159 0
M  V30 5341 H 521.684 -2.50245 2.77945 0
M  V30 5342 H 523.976 -5.37375 4.12594 0
M  V30 5343 H 524.919 -4.56172 5.41583 0
M  V30 5344 H 525.327 -4.26327 3.70008 0
M  V30 5345 N 524.725 -1.39134 -0.740242 0
M  V30 5346 C 526.136 -1.32208 -1.31825 0
M  V30 5347 C 526.487 0.0159919 -1.96193 0
M  V30 5348 O 525.612 0.918111 -1.95958 0
M  V30 5349 C 526.207 -2.39436 -2.39699 0
M  V30 5350 C 524.766 -2.36048 -2.93187 0
M  V30 5351 C 523.913 -2.21599 -1.66701 0
M  V30 5352 H 526.864 -1.49298 -0.538133 0
M  V30 5353 H 526.885 -2.05922 -3.19963 0
M  V30 5354 H 526.397 -3.36811 -1.92821 0
M  V30 5355 H 524.498 -1.42295 -3.44359 0
M  V30 5356 H 524.611 -3.30704 -3.46658 0
M  V30 5357 H 522.975 -1.68681 -1.90837 0
M  V30 5358 H 523.758 -3.20936 -1.21882 0
M  V30 5359 N 526.204 0.969867 -1.24223 0
M  V30 5360 C 527.151 2.06407 -1.0327 0
M  V30 5361 C 528.121 1.66014 0.0533 0
M  V30 5362 O 529.306 1.90533 -0.100896 0
M  V30 5363 C 526.446 3.3909 -0.641262 0
M  V30 5364 C 525.559 3.9269 -1.80051 0
M  V30 5365 C 524.694 5.13631 -1.35486 0
M  V30 5366 C 523.733 5.59423 -2.48419 0
M  V30 5367 N 522.87 6.71586 -2.04737 0
M  V30 5368 H 527.71 2.23663 -1.96923 0
M  V30 5369 H 525.247 1.09624 -0.980862 0
M  V30 5370 H 527.205 4.15323 -0.395351 0
M  V30 5371 H 525.835 3.21765 0.258269 0
M  V30 5372 H 524.887 3.13116 -2.16014 0
M  V30 5373 H 526.199 4.22636 -2.64916 0
M  V30 5374 H 525.353 5.97231 -1.0677 0
M  V30 5375 H 524.092 4.85364 -0.476722 0
M  V30 5376 H 523.097 4.74398 -2.77897 0
M  V30 5377 H 524.322 5.89705 -3.36786 0
M  V30 5378 H 522.268 6.45058 -1.19318 0
M  V30 5379 H 522.185 7.0097 -2.83156 0
M  V30 5380 H 523.453 7.58633 -1.79154 0
M  V30 5381 N 527.682 1.05563 1.17022 0
M  V30 5382 C 528.931 0.763036 1.8671 0
M  V30 5383 C 529.244 -0.712857 1.82147 0
M  V30 5384 O 530.45 -1.11955 2.47343 0
M  V30 5385 C 528.906 1.31474 3.35026 0
M  V30 5386 C 528.514 2.82034 3.48081 0
M  V30 5387 C 530.258 1.09935 4.10018 0
M  V30 5388 C 528.165 3.30486 4.90442 0
M  V30 5389 H 527.095 0.281747 0.699382 0
M  V30 5390 H 529.746 1.2734 1.32124 0
M  V30 5391 H 528.128 0.732171 3.89173 0
M  V30 5392 H 529.302 3.46178 3.04133 0
M  V30 5393 H 527.617 3.02156 2.86515 0
M  V30 5394 H 530.214 1.43632 5.15048 0
M  V30 5395 H 530.557 0.0373072 4.16283 0
M  V30 5396 H 531.09 1.64732 3.62089 0
M  V30 5397 H 527.829 4.36137 4.89352 0
M  V30 5398 H 527.349 2.71086 5.35044 0
M  V30 5399 H 529.028 3.25382 5.59227 0
M  V30 5400 N 529.16 -1.33526 0.837174 0
M  V30 5401 C 530.09 -2.31764 0.284206 0
M  V30 5402 C 531.071 -1.58896 -0.607142 0
M  V30 5403 O 532.256 -1.86798 -0.531047 0
M  V30 5404 C 529.386 -3.43029 -0.542962 0
M  V30 5405 C 528.34 -4.27255 0.252451 0
M  V30 5406 C 527.666 -5.3012 -0.69836 0
M  V30 5407 C 528.966 -5.01229 1.46858 0
M  V30 5408 H 530.66 -2.78262 1.10502 0
M  V30 5409 H 528.206 -1.3378 0.532812 0
M  V30 5410 H 530.159 -4.1078 -0.940096 0
M  V30 5411 H 528.883 -2.95216 -1.39697 0
M  V30 5412 H 527.542 -3.61127 0.631124 0
M  V30 5413 H 527.19 -4.78564 -1.54872 0
M  V30 5414 H 526.89 -5.87353 -0.170274 0
M  V30 5415 H 528.414 -6.00737 -1.09305 0
M  V30 5416 H 529.828 -5.61756 1.14469 0
M  V30 5417 H 528.225 -5.68104 1.93333 0
M  V30 5418 H 529.295 -4.301 2.23924 0
M  V30 5419 N 530.638 -0.59345 -1.46 0
M  V30 5420 C 531.601 0.123538 -2.28867 0
M  V30 5421 C 532.601 0.808628 -1.38989 0
M  V30 5422 O 533.791 0.658945 -1.61256 0
M  V30 5423 C 530.923 1.1847 -3.19653 0
M  V30 5424 H 532.116 -0.604843 -2.93737 0
M  V30 5425 H 529.669 -0.351875 -1.52288 0
M  V30 5426 H 530.404 1.94431 -2.59552 0
M  V30 5427 H 530.189 0.69783 -3.8584 0
M  V30 5428 H 531.679 1.68726 -3.81997 0
M  V30 5429 N 532.116 1.54067 -0.331816 0
M  V30 5430 C 533.364 2.00319 0.267739 0
M  V30 5431 C 533.685 1.22148 1.52003 0
M  V30 5432 O 532.955 0.325494 1.93177 0
M  V30 5433 H 531.535 0.740014 0.101922 0
M  V30 5434 H 534.197 1.89628 -0.450267 0
M  V30 5435 H 533.293 3.07765 0.518385 0
M  V30 5436 N 533.594 0.0601682 1.57485 0
M  V30 5437 C 535.01 -0.296422 1.56823 0
M  V30 5438 C 535.21 -1.70831 1.0686 0
M  V30 5439 O 534.266 -2.4174 0.729245 0
M  V30 5440 C 535.579 -0.116681 3.00474 0
M  V30 5441 C 537.127 -0.187103 3.1244 0
M  V30 5442 C 537.602 -0.035783 4.57986 0
M  V30 5443 N 539.093 -0.0917676 4.63109 0
M  V30 5444 C 539.828 0.00107251 5.734 0
M  V30 5445 N 539.324 0.146773 6.92645 0
M  V30 5446 N 541.117 -0.0551577 5.62073 0
M  V30 5447 H 533.268 0.983055 1.88281 0
M  V30 5448 H 535.531 0.382386 0.867459 0
M  V30 5449 H 535.237 0.85712 3.41096 0
M  V30 5450 H 535.111 -0.873929 3.66936 0
M  V30 5451 H 537.498 -1.15138 2.71712 0
M  V30 5452 H 537.579 0.601052 2.48638 0
M  V30 5453 H 537.223 0.925212 4.99402 0
M  V30 5454 H 537.153 -0.843196 5.19806 0
M  V30 5455 H 539.644 -0.203261 3.77353 0
M  V30 5456 H 539.957 0.210076 7.72514 0
M  V30 5457 H 538.302 0.181979 6.94762 0
M  V30 5458 H 541.493 -0.167605 4.678 0
M  V30 5459 H 541.666 0.020652 6.47997 0
M  V30 5460 N 535.072 -1.5615 -0.213296 0
M  V30 5461 C 536.302 -1.83372 -0.951757 0
M  V30 5462 C 536.71 -0.638158 -1.78113 0
M  V30 5463 O 536.053 0.402609 -1.79234 0
M  V30 5464 C 536.115 -3.04444 -1.91192 0
M  V30 5465 C 535.779 -4.39107 -1.26627 0
M  V30 5466 C 536.776 -5.15794 -0.652087 0
M  V30 5467 C 534.461 -4.85834 -1.27556 0
M  V30 5468 C 536.455 -6.37376 -0.055814 0
M  V30 5469 C 534.142 -6.07356 -0.675451 0
M  V30 5470 C 535.14 -6.82967 -0.0666367 0
M  V30 5471 O 534.828 -8.0219 0.524119 0
M  V30 5472 H 534.56 -0.613398 -0.284111 0
M  V30 5473 H 537.114 -2.04096 -0.231112 0
M  V30 5474 H 535.344 -2.79559 -2.67178 0
M  V30 5475 H 537.033 -3.18466 -2.51662 0
M  V30 5476 H 537.799 -4.80796 -0.637172 0
M  V30 5477 H 533.678 -4.26949 -1.73883 0
M  V30 5478 H 537.222 -6.96334 0.420004 0
M  V30 5479 H 533.119 -6.41825 -0.687806 0
M  V30 5480 H 533.887 -8.17426 0.419243 0
M  V30 5481 N 536.55 0.480323 -1.50102 0
M  V30 5482 C 537.798 1.23063 -1.60312 0
M  V30 5483 C 538.119 1.92659 -0.301226 0
M  V30 5484 O 537.389 1.83691 0.680753 0
M  V30 5485 H 535.969 0.457231 -0.590719 0
M  V30 5486 H 538.631 0.554893 -1.86834 0
M  V30 5487 H 537.727 1.9835 -2.40964 0
M  V30 5488 N 538.028 1.39524 0.732853 0
M  V30 5489 C 538.958 1.41153 1.86005 0
M  V30 5490 C 539.939 0.274614 1.67869 0
M  V30 5491 O 541.124 0.480745 1.88155 0
M  V30 5492 C 538.254 1.25638 3.23778 0
M  V30 5493 C 537.208 2.36752 3.56556 0
M  V30 5494 C 536.534 2.06326 4.93289 0
M  V30 5495 C 537.834 3.79069 3.5931 0
M  V30 5496 H 539.528 2.35484 1.84899 0
M  V30 5497 H 537.074 1.13348 0.888162 0
M  V30 5498 H 539.027 1.25398 4.0231 0
M  V30 5499 H 537.751 0.277772 3.25417 0
M  V30 5500 H 536.41 2.36213 2.80355 0
M  V30 5501 H 536.058 1.06897 4.9151 0
M  V30 5502 H 535.758 2.80757 5.16187 0
M  V30 5503 H 537.282 2.07739 5.74175 0
M  V30 5504 H 538.696 3.81526 4.27914 0
M  V30 5505 H 537.093 4.52878 3.93728 0
M  V30 5506 H 538.163 4.09893 2.59068 0
M  V30 5507 N 539.506 -0.963266 1.24736 0
M  V30 5508 C 540.754 -1.70343 1.08755 0
M  V30 5509 C 541.075 -1.91387 -0.373619 0
M  V30 5510 O 540.345 -1.4948 -1.2662 0
M  V30 5511 H 538.925 -0.631224 0.399456 0
M  V30 5512 H 541.587 -1.15859 1.56725 0
M  V30 5513 H 540.683 -2.68616 1.58909 0
M  V30 5514 N 540.985 -1.06182 -1.16461 0
M  V30 5515 C 542.21 -0.798599 -1.91408 0
M  V30 5516 C 542.635 0.640987 -1.76842 0
M  V30 5517 O 541.993 1.44652 -1.09296 0
M  V30 5518 C 542.041 -1.19665 -3.40165 0
M  V30 5519 O 541.145 -0.334768 -4.11039 0
M  V30 5520 H 540.486 -0.291961 -0.596368 0
M  V30 5521 H 543.016 -1.41732 -1.47557 0
M  V30 5522 H 543.026 -1.16772 -3.90933 0
M  V30 5523 H 541.701 -2.24526 -3.50087 0
M  V30 5524 H 540.278 -0.425168 -3.70468 0
M  V30 5525 N 542.463 1.3308 -0.844243 0
M  V30 5526 C 543.41 2.29104 -0.279323 0
M  V30 5527 C 544.38 1.54577 0.607882 0
M  V30 5528 O 545.565 1.8285 0.545009 0
M  V30 5529 C 542.705 3.40927 0.53508 0
M  V30 5530 C 541.818 4.30354 -0.376749 0
M  V30 5531 C 540.953 5.29297 0.449276 0
M  V30 5532 C 539.992 6.10365 -0.460606 0
M  V30 5533 N 539.129 7.01335 0.327612 0
M  V30 5534 H 543.969 2.76817 -1.10346 0
M  V30 5535 H 541.506 1.36203 -0.555611 0
M  V30 5536 H 543.464 4.04469 1.02278 0
M  V30 5537 H 542.094 2.94391 1.32414 0
M  V30 5538 H 541.146 3.67485 -0.982791 0
M  V30 5539 H 542.458 4.87067 -1.07549 0
M  V30 5540 H 541.612 5.98392 1.00058 0
M  V30 5541 H 540.351 4.73174 1.18143 0
M  V30 5542 H 539.356 5.40182 -1.02388 0
M  V30 5543 H 540.581 6.68571 -1.1912 0
M  V30 5544 H 538.527 6.47655 1.04305 0
M  V30 5545 H 538.444 7.55355 -0.3123 0
M  V30 5546 H 539.712 7.74731 0.86098 0
M  V30 5547 N 543.941 0.601185 1.45683 0
M  V30 5548 C 544.851 -0.123395 2.34275 0
M  V30 5549 C 545.867 -0.86702 1.5086 0
M  V30 5550 O 547.043 -0.826049 1.8368 0
M  V30 5551 C 544.108 -1.11237 3.2837 0
M  V30 5552 C 543.169 -0.371405 4.2769 0
M  V30 5553 C 542.402 -1.31327 5.1729 0
M  V30 5554 O 542.625 -2.55078 5.10188 0
M  V30 5555 O 541.559 -0.813811 5.96373 0
M  V30 5556 H 545.385 0.604483 2.97623 0
M  V30 5557 H 542.97 0.361477 1.44961 0
M  V30 5558 H 544.852 -1.68214 3.8637 0
M  V30 5559 H 543.527 -1.82139 2.67595 0
M  V30 5560 H 542.434 0.24067 3.73325 0
M  V30 5561 H 543.767 0.296998 4.91303 0
M  V30 5562 N 545.419 -1.53889 0.339982 0
M  V30 5563 C 546.666 -2.00855 -0.257621 0
M  V30 5564 C 546.994 -1.22788 -1.50842 0
M  V30 5565 O 546.249 -0.302567 -1.93347 0
M  V30 5566 C 546.548 -3.51968 -0.620735 0
M  V30 5567 C 546.214 -4.47741 0.532771 0
M  V30 5568 C 544.876 -4.73645 0.849339 0
M  V30 5569 C 547.228 -5.04551 1.3068 0
M  V30 5570 C 544.556 -5.53614 1.94237 0
M  V30 5571 C 546.908 -5.85713 2.39005 0
M  V30 5572 C 545.572 -6.09912 2.71225 0
M  V30 5573 H 544.842 -0.734979 -0.0942703 0
M  V30 5574 H 547.489 -1.85714 0.467159 0
M  V30 5575 H 545.794 -3.64921 -1.42618 0
M  V30 5576 H 547.491 -3.85762 -1.09495 0
M  V30 5577 H 544.081 -4.27711 0.275973 0
M  V30 5578 H 548.265 -4.84507 1.07549 0
M  V30 5579 H 543.521 -5.7059 2.19628 0
M  V30 5580 H 547.695 -6.28748 2.99415 0
M  V30 5581 H 545.322 -6.71665 3.56047 0
M  V30 5582 N 546.897 -0.0685191 -1.57451 0
M  V30 5583 C 548.122 0.613919 -1.98106 0
M  V30 5584 C 548.547 1.62551 -0.946501 0
M  V30 5585 O 547.905 1.81085 0.0882824 0
M  V30 5586 C 547.953 1.26189 -3.378 0
M  V30 5587 O 547.057 2.37773 -3.36954 0
M  V30 5588 H 546.398 0.158163 -0.644888 0
M  V30 5589 H 548.928 -0.142063 -2.04106 0
M  V30 5590 H 548.938 1.60951 -3.74912 0
M  V30 5591 H 547.613 0.520625 -4.12629 0
M  V30 5592 H 546.19 2.04829 -3.11608 0
M  V30 5593 N 548.375 1.56261 0.205012 0
M  V30 5594 C 549.786 1.70056 0.770574 0
M  V30 5595 C 550.137 0.673398 1.84282 0
M  V30 5596 O 549.262 -0.172196 2.15714 0
M  V30 5597 C 549.857 3.08316 1.40451 0
M  V30 5598 C 548.416 3.2391 1.91727 0
M  V30 5599 C 547.563 2.66001 0.783516 0
M  V30 5600 H 550.514 1.58688 -0.019911 0
M  V30 5601 H 550.535 3.05094 2.27371 0
M  V30 5602 H 550.047 3.83053 0.623882 0
M  V30 5603 H 548.148 2.54072 2.7254 0
M  V30 5604 H 548.261 4.3131 2.08588 0
M  V30 5605 H 546.625 2.24915 1.19521 0
M  V30 5606 H 547.408 3.43297 0.0152883 0
M  V30 5607 N 549.853 -0.472356 1.50355 0
M  V30 5608 C 550.816 -1.5529 1.68576 0
M  V30 5609 C 551.816 -1.50863 0.556511 0
M  V30 5610 O 553.006 -1.53505 0.823516 0
M  V30 5611 C 550.138 -2.94921 1.70981 0
M  V30 5612 H 551.331 -1.40451 2.64978 0
M  V30 5613 H 548.884 -0.698645 1.39816 0
M  V30 5614 H 549.619 -3.15204 0.762675 0
M  V30 5615 H 549.404 -2.99541 2.53017 0
M  V30 5616 H 550.894 -3.73372 1.87037 0
M  V30 5617 N 551.331 -1.39911 -0.725443 0
M  V30 5618 C 552.264 -1.33788 -1.84867 0
M  V30 5619 C 553.242 -0.209907 -1.61239 0
M  V30 5620 O 554.426 -0.391943 -1.8438 0
M  V30 5621 C 551.553 -1.07975 -3.21028 0
M  V30 5622 C 550.599 -2.23092 -3.635 0
M  V30 5623 S 551.432 -3.85431 -3.71757 0
M  V30 5624 C 552.588 -3.61862 -5.10692 0
M  V30 5625 H 552.821 -2.28848 -1.89779 0
M  V30 5626 H 550.354 -1.26079 -0.891254 0
M  V30 5627 H 552.312 -0.937669 -3.99647 0
M  V30 5628 H 550.973 -0.145865 -3.13761 0
M  V30 5629 H 550.166 -2.00647 -4.62338 0
M  V30 5630 H 549.768 -2.33553 -2.92112 0
M  V30 5631 H 552.06 -3.19719 -5.97316 0
M  V30 5632 H 553.003 -4.60196 -5.38169 0
M  V30 5633 H 553.411 -2.95757 -4.8082 0
M  V30 5634 N 552.809 0.956637 -1.25245 0
M  V30 5635 C 554.055 1.70352 -1.10036 0
M  V30 5636 C 554.388 1.90869 0.358156 0
M  V30 5637 O 553.663 1.47819 1.26411 0
M  V30 5638 C 553.946 3.08766 -1.85298 0
M  V30 5639 C 553.799 2.95672 -3.38966 0
M  V30 5640 C 555.118 4.08622 -1.63451 0
M  V30 5641 H 552.237 0.618279 -0.401123 0
M  V30 5642 H 554.879 1.11212 -1.54051 0
M  V30 5643 H 553.029 3.59252 -1.47887 0
M  V30 5644 H 554.701 2.52527 -3.86041 0
M  V30 5645 H 552.944 2.31634 -3.6678 0
M  V30 5646 H 553.615 3.93776 -3.86839 0
M  V30 5647 H 556.091 3.67038 -1.96015 0
M  V30 5648 H 554.967 5.03514 -2.18551 0
M  V30 5649 H 555.228 4.3834 -0.575357 0
M  V30 5650 N 554.287 1.06798 1.15896 0
M  V30 5651 C 555.234 0.683314 2.20453 0
M  V30 5652 C 556.204 -0.32255 1.62938 0
M  V30 5653 O 557.389 -0.210276 1.89638 0
M  V30 5654 C 554.529 0.0813266 3.45004 0
M  V30 5655 C 553.642 1.13799 4.16742 0
M  V30 5656 C 552.777 0.501598 5.28826 0
M  V30 5657 C 551.816 1.54144 5.92373 0
M  V30 5658 N 550.953 0.928038 6.9594 0
M  V30 5659 H 555.793 1.57932 2.52708 0
M  V30 5660 H 553.33 0.789544 1.24115 0
M  V30 5661 H 555.288 -0.285274 4.16224 0
M  V30 5662 H 553.918 -0.77806 3.13283 0
M  V30 5663 H 552.97 1.62223 3.44075 0
M  V30 5664 H 554.282 1.92664 4.60089 0
M  V30 5665 H 553.436 0.0823162 6.06644 0
M  V30 5666 H 552.175 -0.318883 4.86656 0
M  V30 5667 H 551.18 1.97056 5.13273 0
M  V30 5668 H 552.405 2.3641 6.36621 0
M  V30 5669 H 550.351 0.12836 6.55874 0
M  V30 5670 H 550.268 1.65401 7.37685 0
M  V30 5671 H 551.536 0.534071 7.77668 0
M  V30 5672 N 555.766 -1.3263 0.851289 0
M  V30 5673 C 556.991 -2.02097 0.466006 0
M  V30 5674 C 557.416 -1.63574 -0.928709 0
M  V30 5675 O 556.774 -0.834665 -1.60944 0
M  V30 5676 C 556.822 -3.55425 0.608737 0
M  V30 5677 O 555.926 -4.10827 -0.359878 0
M  V30 5678 H 555.267 -0.636911 0.187724 0
M  V30 5679 H 557.797 -1.69253 1.14955 0
M  V30 5680 H 557.807 -4.04986 0.495006 0
M  V30 5681 H 556.482 -3.82806 1.62581 0
M  V30 5682 H 555.059 -3.72349 -0.202666 0
M  V30 5683 N 557.244 -0.608902 -1.45362 0
M  V30 5684 C 558.49 -0.104762 -2.02529 0
M  V30 5685 C 558.823 1.26191 -1.47613 0
M  V30 5686 O 558.098 1.8327 -0.65134 0
M  V30 5687 C 558.381 -0.0672661 -3.60037 0
M  V30 5688 C 558.234 -1.4647 -4.25284 0
M  V30 5689 C 559.553 0.619877 -4.35713 0
M  V30 5690 H 556.672 -0.0395438 -0.735938 0
M  V30 5691 H 559.314 -0.781126 -1.73201 0
M  V30 5692 H 557.464 0.50871 -3.85155 0
M  V30 5693 H 559.136 -2.08785 -4.11347 0
M  V30 5694 H 557.379 -2.02502 -3.83634 0
M  V30 5695 H 558.05 -1.39069 -5.34195 0
M  V30 5696 H 560.526 0.130297 -4.15896 0
M  V30 5697 H 559.402 0.615224 -5.45441 0
M  V30 5698 H 559.663 1.68621 -4.0868 0
M  V30 5699 N 558.722 1.53707 -0.348139 0
M  V30 5700 C 559.952 2.05108 0.247864 0
M  V30 5701 C 560.36 1.22252 1.44399 0
M  V30 5702 O 559.703 0.251853 1.81965 0
M  V30 5703 C 559.765 3.52171 0.722187 0
M  V30 5704 C 559.429 4.5562 -0.354902 0
M  V30 5705 C 560.426 5.05883 -1.19911 0
M  V30 5706 C 558.111 4.99703 -0.510145 0
M  V30 5707 C 560.105 5.98814 -2.18406 0
M  V30 5708 C 557.792 5.92443 -1.49848 0
M  V30 5709 C 558.79 6.41887 -2.33389 0
M  V30 5710 O 558.478 7.32802 -3.3054 0
M  V30 5711 H 558.21 0.674086 0.0508296 0
M  V30 5712 H 560.764 1.99229 -0.49968 0
M  V30 5713 H 558.994 3.55529 1.52105 0
M  V30 5714 H 560.683 3.8652 1.23925 0
M  V30 5715 H 561.449 4.72586 -1.09028 0
M  V30 5716 H 557.328 4.60816 0.130274 0
M  V30 5717 H 560.872 6.3733 -2.83649 0
M  V30 5718 H 556.769 6.25155 -1.60786 0
M  V30 5719 H 557.537 7.50749 -3.26064 0
M  V30 5720 N 560.2 0.0768682 1.57412 0
M  V30 5721 C 561.477 -0.632359 1.85096 0
M  V30 5722 C 561.857 -1.87479 0.9703 0
M  V30 5723 O 561.205 -2.28469 0.0379062 0
M  V30 5724 C 561.415 -0.965174 3.35388 0
M  V30 5725 C 562.763 -1.33648 4.03018 0
M  V30 5726 O 563.787 -1.05675 3.40164 0
M  V30 5727 O 562.646 -1.85959 5.13889 0
M  V30 5728 H 559.74 -0.314574 0.764835 0
M  V30 5729 H 562.286 0.108184 1.69355 0
M  V30 5730 H 561.058 -0.0829745 3.91212 0
M  V30 5731 H 560.681 -1.76231 3.5641 0
M  V30 5732 N 561.678 -1.56367 -0.196722 0
M  V30 5733 C 562.626 -1.95304 -1.2633 0
M  V30 5734 C 563.62 -0.838252 -1.47206 0
M  V30 5735 O 564.826 -1.02325 -1.48087 0
M  V30 5736 H 561.201 -0.621013 -0.424083 0
M  V30 5737 H 563.172 -2.84254 -0.907879 0
M  V30 5738 C 561.921 -2.3074 -2.60104 0
M  V30 5739 H 561.244 -3.16047 -2.44856 0
M  V30 5740 H 562.684 -2.61849 -3.33484 0
M  V30 5741 C 561.143 -1.14143 -3.16975 0
M  V30 5742 O 561.673 -0.415602 -3.99544 0
M  V30 5743 N 559.879 -0.91867 -2.75697 0
M  V30 5744 H 559.426 -1.51065 -2.08656 0
M  V30 5745 H 559.384 -0.140321 -3.14087 0
M  V30 5746 N 563.156 0.464375 -1.50603 0
M  V30 5747 C 564.089 1.58052 -1.64605 0
M  V30 5748 C 565.067 1.54914 -0.494016 0
M  V30 5749 O 566.251 1.74438 -0.714393 0
M  V30 5750 C 563.378 2.96634 -1.63481 0
M  V30 5751 C 562.424 3.17901 -2.84325 0
M  V30 5752 S 563.257 2.97083 -4.45536 0
M  V30 5753 C 564.413 4.37994 -4.47115 0
M  V30 5754 H 564.646 1.45937 -2.59017 0
M  V30 5755 H 562.179 0.652189 -1.39949 0
M  V30 5756 H 564.137 3.76527 -1.63517 0
M  V30 5757 H 562.798 3.06134 -0.702928 0
M  V30 5758 H 561.991 4.19158 -2.79862 0
M  V30 5759 H 561.593 2.45792 -2.81891 0
M  V30 5760 H 563.885 5.30743 -4.21091 0
M  V30 5761 H 564.828 4.47499 -5.48772 0
M  V30 5762 H 565.236 4.20386 -3.76743 0
M  V30 5763 N 564.634 1.40294 0.718013 0
M  V30 5764 C 565.859 1.41941 1.5122 0
M  V30 5765 C 566.284 0.0202371 1.88089 0
M  V30 5766 O 565.642 -0.971078 1.53101 0
M  V30 5767 C 565.69 2.3141 2.76554 0
M  V30 5768 O 564.794 1.75567 3.73162 0
M  V30 5769 H 564.135 0.482644 0.456016 0
M  V30 5770 H 566.665 1.84494 0.884478 0
M  V30 5771 H 566.675 2.46513 3.25108 0
M  V30 5772 H 565.35 3.33085 2.49053 0
M  V30 5773 H 563.927 1.69798 3.31999 0
M  V30 5774 N 566.112 -0.949982 1.2575 0
M  V30 5775 C 567.36 -1.6918 1.10555 0
M  V30 5776 C 567.681 -1.91773 -0.353298 0
M  V30 5777 O 566.951 -1.50814 -1.25027 0
M  V30 5778 H 565.531 -0.626952 0.406129 0
M  V30 5779 H 568.193 -1.1419 1.57945 0
M  V30 5780 H 567.289 -2.66915 1.61749 0
M  V30 5781 N 567.59 -1.07411 -1.15328 0
M  V30 5782 C 568.553 -0.698914 -2.18284 0
M  V30 5783 C 569.553 0.261149 -1.58665 0
M  V30 5784 O 570.743 0.0420277 -1.74149 0
M  V30 5785 C 567.875 -0.0302427 -3.40887 0
M  V30 5786 H 569.068 -1.61045 -2.52991 0
M  V30 5787 H 566.621 -0.870724 -1.298 0
M  V30 5788 H 567.356 0.893505 -3.11748 0
M  V30 5789 H 567.141 -0.720759 -3.85419 0
M  V30 5790 H 568.631 0.21759 -4.17033 0
M  V30 5791 N 569.068 1.32177 -0.85831 0
M  V30 5792 C 570.015 2.28794 -0.303607 0
M  V30 5793 C 570.985 1.55213 0.591453 0
M  V30 5794 O 572.17 1.83418 0.525585 0
M  V30 5795 C 569.31 3.41475 0.49889 0
M  V30 5796 C 568.423 4.2993 -0.422373 0
M  V30 5797 C 567.558 5.29743 0.393111 0
M  V30 5798 C 566.597 6.09842 -0.525317 0
M  V30 5799 N 565.734 7.01643 0.253208 0
M  V30 5800 H 570.574 2.75631 -1.13276 0
M  V30 5801 H 568.111 1.35606 -0.570026 0
M  V30 5802 H 570.069 4.05531 0.979826 0
M  V30 5803 H 568.699 2.95779 1.29284 0
M  V30 5804 H 567.751 3.66422 -1.02171 0
M  V30 5805 H 569.063 4.85899 -1.12709 0
M  V30 5806 H 568.217 5.9942 0.937056 0
M  V30 5807 H 566.956 4.744 1.13117 0
M  V30 5808 H 565.961 5.39066 -1.08112 0
M  V30 5809 H 567.186 6.6727 -1.26205 0
M  V30 5810 H 565.132 6.48725 0.974295 0
M  V30 5811 H 565.049 7.54981 -0.392398 0
M  V30 5812 H 566.317 7.756 0.778761 0
M  V30 5813 N 570.547 0.616602 1.45037 0
M  V30 5814 C 571.494 -0.0969439 2.30596 0
M  V30 5815 C 572.464 -0.851151 1.42635 0
M  V30 5816 O 573.649 -0.835092 1.71554 0
M  V30 5817 C 570.789 -1.08234 3.27688 0
M  V30 5818 C 569.902 -0.328072 4.30752 0
M  V30 5819 C 569.037 -1.30399 5.14946 0
M  V30 5820 C 568.076 -0.538049 6.09731 0
M  V30 5821 N 567.213 -1.46371 6.86673 0
M  V30 5822 H 572.053 0.63864 2.91076 0
M  V30 5823 H 569.59 0.326733 1.43425 0
M  V30 5824 H 571.548 -1.66688 3.82454 0
M  V30 5825 H 570.178 -1.78523 2.68941 0
M  V30 5826 H 569.23 0.372136 3.78575 0
M  V30 5827 H 570.542 0.269142 4.98073 0
M  V30 5828 H 569.696 -1.96032 5.74157 0
M  V30 5829 H 568.435 -1.93514 4.47665 0
M  V30 5830 H 567.44 0.131852 5.49642 0
M  V30 5831 H 568.665 0.0881732 6.79043 0
M  V30 5832 H 566.611 -2.08233 6.22073 0
M  V30 5833 H 566.528 -0.920152 7.50379 0
M  V30 5834 H 567.796 -2.10932 7.50418 0
M  V30 5835 N 572.025 -1.5352 0.356285 0
M  V30 5836 C 572.973 -2.26945 -0.50978 0
M  V30 5837 C 573.967 -1.29569 -1.09125 0
M  V30 5838 O 575.173 -1.47231 -1.03552 0
M  V30 5839 H 571.548 -0.729368 -0.183102 0
M  V30 5840 H 573.519 -2.98111 0.131374 0
M  V30 5841 C 572.268 -3.06466 -1.64237 0
M  V30 5842 H 571.591 -3.81233 -1.20423 0
M  V30 5843 H 573.031 -3.61035 -2.22327 0
M  V30 5844 C 571.49 -2.16737 -2.57928 0
M  V30 5845 O 572.02 -1.77195 -3.60507 0
M  V30 5846 N 570.226 -1.81558 -2.26903 0
M  V30 5847 H 569.773 -2.13913 -1.43524 0
M  V30 5848 H 569.731 -1.21806 -2.89846 0
M  V30 5849 N 573.503 -0.0852151 -1.57369 0
M  V30 5850 C 574.453 0.88767 -2.10011 0
M  V30 5851 C 575.437 1.25021 -1.01285 0
M  V30 5852 O 576.629 1.22694 -1.27574 0
M  V30 5853 C 573.758 2.15037 -2.67608 0
M  V30 5854 C 572.844 1.81371 -3.83361 0
M  V30 5855 N 573.235 1.18216 -4.91791 0
M  V30 5856 C 571.533 2.11041 -3.92909 0
M  V30 5857 C 572.234 1.02941 -5.72519 0
M  V30 5858 N 571.21 1.54351 -5.21226 0
M  V30 5859 H 575.012 0.395279 -2.9123 0
M  V30 5860 H 572.526 0.11829 -1.61969 0
M  V30 5861 H 574.523 2.85667 -3.03644 0
M  V30 5862 H 573.183 2.64851 -1.8784 0
M  V30 5863 H 574.194 0.850168 -5.10874 0
M  V30 5864 H 570.871 2.63138 -3.24136 0
M  V30 5865 H 572.261 0.536298 -6.69756 0
M  V30 5866 N 574.981 1.5647 0.188427 0
M  V30 5867 C 576.228 1.81013 0.907779 0
M  V30 5868 C 576.556 0.65953 1.82977 0
M  V30 5869 O 575.811 -0.354308 1.92466 0
M  V30 5870 C 576.11 3.11596 1.7505 0
M  V30 5871 C 575.776 4.40145 0.978922 0
M  V30 5872 C 574.438 4.75066 0.765912 0
M  V30 5873 C 576.79 5.19369 0.436498 0
M  V30 5874 C 574.118 5.867 -0.00089868 0
M  V30 5875 C 576.47 6.31805 -0.317136 0
M  V30 5876 C 575.134 6.65303 -0.541103 0
M  V30 5877 H 574.404 0.662373 0.33218 0
M  V30 5878 H 577.051 1.9071 0.173732 0
M  V30 5879 H 575.356 2.97165 2.55343 0
M  V30 5880 H 577.053 3.27793 2.30983 0
M  V30 5881 H 573.643 4.12745 1.15497 0
M  V30 5882 H 577.827 4.92799 0.588449 0
M  V30 5883 H 573.083 6.11122 -0.184329 0
M  V30 5884 H 577.257 6.92406 -0.744788 0
M  V30 5885 H 574.884 7.51646 -1.13718 0
M  V30 5886 N 576.459 -0.456382 1.50847 0
M  V30 5887 C 577.687 -1.23026 1.66349 0
M  V30 5888 C 578.102 -1.85473 0.352868 0
M  V30 5889 O 577.459 -1.69885 -0.666739 0
M  V30 5890 C 577.51 -2.32827 2.76539 0
M  V30 5891 O 577.231 -1.72938 4.02522 0
M  V30 5892 C 578.732 -3.23448 3.03144 0
M  V30 5893 H 575.952 -0.371527 0.558756 0
M  V30 5894 H 578.496 -0.543082 1.97157 0
M  V30 5895 H 576.651 -2.97294 2.48384 0
M  V30 5896 H 577.065 -2.45357 4.63573 0
M  V30 5897 H 578.539 -3.96669 3.83872 0
M  V30 5898 H 579.016 -3.83094 2.14793 0
M  V30 5899 H 579.622 -2.64702 3.32886 0
M  V30 5900 N 577.937 -1.40673 -0.710563 0
M  V30 5901 C 579.183 -1.39428 -1.47267 0
M  V30 5902 C 579.516 0.00182129 -1.942 0
M  V30 5903 O 578.791 0.971387 -1.68506 0
M  V30 5904 C 579.074 -2.38812 -2.6952 0
M  V30 5905 C 578.927 -3.87467 -2.28449 0
M  V30 5906 C 580.246 -2.3566 -3.71689 0
M  V30 5907 H 577.365 -0.507768 -0.534173 0
M  V30 5908 H 580.007 -1.71843 -0.810547 0
M  V30 5909 H 578.157 -2.113 -3.26013 0
M  V30 5910 H 579.829 -4.25825 -1.77399 0
M  V30 5911 H 578.072 -4.03058 -1.60395 0
M  V30 5912 H 578.743 -4.5253 -3.16103 0
M  V30 5913 H 581.219 -2.6004 -3.24836 0
M  V30 5914 H 580.095 -3.07237 -4.54859 0
M  V30 5915 H 580.356 -1.36996 -4.20339 0
M  V30 5916 N 579.415 0.9433 -1.26252 0
M  V30 5917 C 580.663 1.68592 -1.11451 0
M  V30 5918 C 580.984 1.91957 0.343123 0
M  V30 5919 O 580.254 1.51475 1.24226 0
M  V30 5920 H 578.834 0.624789 -0.409448 0
M  V30 5921 H 581.496 1.13351 -1.58548 0
M  V30 5922 H 580.592 2.66054 -1.63162 0
M  V30 5923 N 580.893 1.08022 1.14757 0
M  V30 5924 C 582.142 0.802468 1.8505 0
M  V30 5925 C 582.455 -0.674061 1.83619 0
M  V30 5926 O 583.661 -1.06683 2.49662 0
M  V30 5927 C 582.117 1.38551 3.32162 0
M  V30 5928 C 581.725 2.89354 3.42021 0
M  V30 5929 C 583.469 1.18608 4.07594 0
M  V30 5930 C 581.376 3.40815 4.83321 0
M  V30 5931 H 580.306 0.296518 0.693248 0
M  V30 5932 H 582.957 1.30114 1.29393 0
M  V30 5933 H 581.339 0.814556 3.87532 0
M  V30 5934 H 582.513 3.52552 2.96722 0
M  V30 5935 H 580.828 3.08165 2.80041 0
M  V30 5936 H 583.425 1.54525 5.11885 0
M  V30 5937 H 583.768 0.125599 4.1611 0
M  V30 5938 H 584.301 1.72375 3.58513 0
M  V30 5939 H 581.04 4.46418 4.79991 0
M  V30 5940 H 580.56 2.82374 5.29174 0
M  V30 5941 H 582.239 3.37171 5.522 0
M  V30 5942 N 582.371 -1.3172 0.865308 0
M  V30 5943 C 583.281 -2.32394 0.320935 0
M  V30 5944 C 584.297 -1.64511 -0.566746 0
M  V30 5945 O 585.473 -1.95969 -0.464575 0
M  V30 5946 C 582.538 -3.43462 -0.472701 0
M  V30 5947 C 581.599 -4.27015 0.442385 0
M  V30 5948 C 580.832 -5.32779 -0.313469 0
M  V30 5949 O 581.055 -5.49158 -1.54214 0
M  V30 5950 O 579.989 -6.01015 0.326257 0
M  V30 5951 H 583.815 -2.80868 1.15528 0
M  V30 5952 H 581.4 -1.35535 0.628545 0
M  V30 5953 H 583.282 -4.11172 -0.922781 0
M  V30 5954 H 581.957 -2.97159 -1.28367 0
M  V30 5955 H 580.864 -3.62075 0.940866 0
M  V30 5956 H 582.197 -4.76871 1.21882 0
M  V30 5957 N 583.85 -0.624285 -1.44708 0
M  V30 5958 C 585.127 -0.0572781 -1.95516 0
M  V30 5959 C 585.507 1.41516 -1.56641 0
M  V30 5960 O 584.855 2.12614 -0.837111 0
M  V30 5961 C 585.065 -0.272944 -3.47931 0
M  V30 5962 C 586.413 -0.162529 -4.24289 0
M  V30 5963 O 587.437 -0.203946 -3.55616 0
M  V30 5964 O 586.296 -0.0616847 -5.46465 0
M  V30 5965 H 583.389 0.0262219 -0.826584 0
M  V30 5966 H 585.936 -0.695512 -1.54793 0
M  V30 5967 H 584.707 -1.29492 -3.69253 0
M  V30 5968 H 584.331 0.399756 -3.95585 0
M  V30 5969 N 585.328 1.53329 -0.364422 0
M  V30 5970 C 586.605 1.93557 0.281962 0
M  V30 5971 C 586.985 1.29786 1.6649 0
M  V30 5972 O 586.333 0.456512 2.23893 0
M  V30 5973 C 586.543 3.47405 0.333331 0
M  V30 5974 C 587.891 4.20699 0.574231 0
M  V30 5975 O 588.915 3.53779 0.414588 0
M  V30 5976 O 587.774 5.39287 0.885002 0
M  V30 5977 H 584.868 0.809573 0.168881 0
M  V30 5978 H 587.414 1.64494 -0.417121 0
M  V30 5979 H 586.186 3.86091 -0.636326 0
M  V30 5980 H 585.809 3.82697 1.07836 0
M  V30 5981 N 586.806 0.0935595 1.57322 0
M  V30 5982 C 588.052 -0.571355 1.94585 0
M  V30 5983 C 588.385 -1.67929 0.975366 0
M  V30 5984 O 587.66 -1.94498 0.00816206 0
M  V30 5985 C 587.943 -1.12797 3.41978 0
M  V30 5986 C 587.796 -0.0251881 4.49793 0
M  V30 5987 C 589.115 -2.02682 3.90651 0
M  V30 5988 H 586.234 -0.206223 0.70756 0
M  V30 5989 H 588.876 0.163956 1.89291 0
M  V30 5990 H 587.026 -1.75461 3.4662 0
M  V30 5991 H 588.698 0.608979 4.57263 0
M  V30 5992 H 586.941 0.641399 4.29032 0
M  V30 5993 H 587.612 -0.455433 5.50118 0
M  V30 5994 H 590.088 -1.49925 3.88152 0
M  V30 5995 H 588.964 -2.38555 4.94351 0
M  V30 5996 H 589.225 -2.94362 3.29854 0
M  V30 5997 N 588.284 -1.56567 -0.180126 0
M  V30 5998 C 589.512 -1.85618 -0.913972 0
M  V30 5999 C 589.927 -0.677892 -1.7621 0
M  V30 6000 O 589.284 0.353171 -1.7905 0
M  V30 6001 C 589.335 -3.13619 -1.79793 0
M  V30 6002 O 589.056 -4.26906 -0.98402 0
M  V30 6003 C 590.557 -3.55954 -2.64219 0
M  V30 6004 H 587.777 -0.616043 -0.265954 0
M  V30 6005 H 590.321 -2.03681 -0.182872 0
M  V30 6006 H 588.476 -2.97409 -2.48247 0
M  V30 6007 H 588.89 -4.9989 -1.58776 0
M  V30 6008 H 590.364 -4.48444 -3.21873 0
M  V30 6009 H 590.841 -2.79653 -3.38661 0
M  V30 6010 H 591.447 -3.74746 -2.01111 0
M  V30 6011 N 589.762 0.448376 -1.51087 0
M  V30 6012 C 591.01 1.19635 -1.62886 0
M  V30 6013 C 591.331 1.91977 -0.342024 0
M  V30 6014 O 590.601 1.85094 0.641636 0
M  V30 6015 H 589.181 0.444598 -0.600285 0
M  V30 6016 H 591.843 0.515138 -1.87969 0
M  V30 6017 H 590.939 1.93194 -2.45117 0
M  V30 6018 N 591.24 1.41047 0.703093 0
M  V30 6019 C 592.468 1.4334 1.49202 0
M  V30 6020 C 592.883 0.0365596 1.88765 0
M  V30 6021 O 592.24 -0.942419 1.56284 0
M  V30 6022 C 592.291 2.33538 2.75939 0
M  V30 6023 O 592.012 3.67786 2.38045 0
M  V30 6024 C 593.513 2.44555 3.6974 0
M  V30 6025 H 590.733 0.488472 0.460039 0
M  V30 6026 H 593.277 1.85245 0.86629 0
M  V30 6027 H 591.432 1.94962 3.34766 0
M  V30 6028 H 591.846 4.15816 3.19683 0
M  V30 6029 H 593.32 3.11849 4.55471 0
M  V30 6030 H 593.797 1.47447 4.1371 0
M  V30 6031 H 594.403 2.83735 3.16819 0
M  V30 6032 N 592.718 -0.936591 1.26751 0
M  V30 6033 C 593.943 -1.72288 1.15462 0
M  V30 6034 C 594.368 -1.85915 -0.285887 0
M  V30 6035 O 593.726 -1.35272 -1.20711 0
M  V30 6036 C 593.774 -3.10503 1.83359 0
M  V30 6037 O 592.878 -3.96745 1.1255 0
M  V30 6038 H 592.219 -0.52843 0.402067 0
M  V30 6039 H 594.749 -1.17271 1.67656 0
M  V30 6040 H 594.759 -3.60867 1.90365 0
M  V30 6041 H 593.434 -2.99901 2.88153 0
M  V30 6042 H 592.011 -3.55191 1.13551 0
M  V30 6043 N 594.196 -1.08629 -1.14182 0
M  V30 6044 C 595.126 -0.740003 -2.21464 0
M  V30 6045 C 596.107 0.278591 -1.67803 0
M  V30 6046 O 597.292 0.148461 -1.93632 0
M  V30 6047 C 594.422 -0.150952 -3.46972 0
M  V30 6048 C 593.376 -1.09815 -4.13672 0
M  V30 6049 C 592.702 -0.3712 -5.3341 0
M  V30 6050 C 594.002 -2.43722 -4.61949 0
M  V30 6051 H 595.696 -1.63697 -2.50686 0
M  V30 6052 H 593.242 -0.788526 -1.20492 0
M  V30 6053 H 595.195 0.103325 -4.21273 0
M  V30 6054 H 593.919 0.781164 -3.1712 0
M  V30 6055 H 592.578 -1.33756 -3.41328 0
M  V30 6056 H 592.226 0.564792 -4.99819 0
M  V30 6057 H 591.926 -1.00267 -5.78982 0
M  V30 6058 H 593.45 -0.12503 -6.10472 0
M  V30 6059 H 594.864 -2.24034 -5.27714 0
M  V30 6060 H 593.261 -3.02582 -5.18232 0
M  V30 6061 H 594.331 -3.05082 -3.76899 0
M  V30 6062 N 595.674 1.31259 -0.872281 0
M  V30 6063 C 597.085 1.78822 -0.536617 0
M  V30 6064 C 597.436 1.71855 0.946594 0
M  V30 6065 O 596.561 1.28769 1.73918 0
M  V30 6066 C 597.156 3.24698 -0.967294 0
M  V30 6067 C 595.715 3.70147 -0.683251 0
M  V30 6068 C 594.862 2.51994 -1.15733 0
M  V30 6069 H 597.813 1.18308 -1.05777 0
M  V30 6070 H 597.834 3.79386 -0.290929 0
M  V30 6071 H 597.346 3.29737 -2.04683 0
M  V30 6072 H 595.447 3.70607 0.384825 0
M  V30 6073 H 595.56 4.62183 -1.2619 0
M  V30 6074 H 593.924 2.48078 -0.577024 0
M  V30 6075 H 594.707 2.59778 -2.24434 0
M  V30 6076 N 597.152 0.631951 1.44375 0
M  V30 6077 C 598.398 0.13697 2.02337 0
M  V30 6078 C 598.731 -1.23826 1.49602 0
M  V30 6079 O 598.006 -1.8221 0.680415 0
M  V30 6080 C 598.289 0.124536 3.59885 0
M  V30 6081 C 598.142 1.53217 4.229 0
M  V30 6082 C 599.461 -0.550481 4.36644 0
M  V30 6083 H 596.58 0.051247 0.735216 0
M  V30 6084 H 599.222 0.808581 1.71936 0
M  V30 6085 H 597.372 -0.44737 3.85916 0
M  V30 6086 H 599.044 2.15303 4.07973 0
M  V30 6087 H 597.287 2.0858 3.80364 0
M  V30 6088 H 597.958 1.4755 5.31914 0
M  V30 6089 H 600.434 -0.0641154 4.16051 0
M  V30 6090 H 599.31 -0.528371 5.46351 0
M  V30 6091 H 599.571 -1.62097 4.11311 0
M  V30 6092 N 598.631 -1.53133 0.372548 0
M  V30 6093 C 599.908 -1.93704 -0.271693 0
M  V30 6094 C 600.288 -1.30667 -1.65799 0
M  V30 6095 O 599.636 -0.46838 -2.23648 0
M  V30 6096 C 599.846 -3.47576 -0.314903 0
M  V30 6097 C 601.194 -4.20998 -0.551912 0
M  V30 6098 O 602.218 -3.53994 -0.39582 0
M  V30 6099 O 601.077 -5.39748 -0.85639 0
M  V30 6100 H 598.171 -0.810457 -0.164586 0
M  V30 6101 H 600.717 -1.6427 0.425838 0
M  V30 6102 H 599.489 -3.85749 0.656792 0
M  V30 6103 H 599.112 -3.83264 -1.05804 0
M  V30 6104 N 600.109 -0.101901 -1.5727 0
M  V30 6105 C 601.057 0.872034 -2.15635 0
M  V30 6106 C 602.051 1.28742 -1.10099 0
M  V30 6107 O 603.257 1.26116 -1.28432 0
M  V30 6108 H 599.632 0.299269 -0.689886 0
M  V30 6109 H 601.603 0.355137 -2.96279 0
M  V30 6110 C 600.352 2.11886 -2.7568 0
M  V30 6111 H 599.675 1.80813 -3.56576 0
M  V30 6112 H 601.115 2.78077 -3.20077 0
M  V30 6113 C 599.574 2.89739 -1.7191 0
M  V30 6114 O 600.104 3.84522 -1.16213 0
M  V30 6115 N 598.31 2.53407 -1.42245 0
M  V30 6116 H 597.857 1.76398 -1.87727 0
M  V30 6117 H 597.815 3.05795 -0.730529 0
M  V30 6118 N 601.587 1.56661 0.17182 0
M  V30 6119 C 602.55 1.9549 1.19651 0
M  V30 6120 C 603.55 0.838501 1.37207 0
M  V30 6121 O 604.74 1.10556 1.34622 0
M  V30 6122 C 601.872 2.24927 2.56166 0
M  V30 6123 H 603.065 2.87184 0.864007 0
M  V30 6124 H 600.618 1.50711 0.41425 0
M  V30 6125 H 601.353 1.35944 2.94431 0
M  V30 6126 H 601.138 3.06301 2.4479 0
M  V30 6127 H 602.628 2.55891 3.30014 0
M  V30 6128 N 603.065 -0.440357 1.51323 0
M  V30 6129 C 604.312 -1.19004 1.63842 0
M  V30 6130 C 604.64 -1.91266 0.35321 0
M  V30 6131 O 603.895 -1.84143 -0.662565 0
M  V30 6132 C 604.194 -2.2339 2.78984 0
M  V30 6133 C 603.86 -1.68162 4.18369 0
M  V30 6134 C 602.522 -1.52823 4.56288 0
M  V30 6135 C 604.874 -1.27524 5.05358 0
M  V30 6136 C 602.202 -0.953157 5.78906 0
M  V30 6137 C 604.554 -0.714474 6.28552 0
M  V30 6138 C 603.218 -0.547961 6.65247 0
M  V30 6139 H 602.488 -0.435468 0.59954 0
M  V30 6140 H 605.135 -0.481538 1.85347 0
M  V30 6141 H 603.44 -3.00267 2.51688 0
M  V30 6142 H 605.137 -2.81211 2.85869 0
M  V30 6143 H 601.727 -1.81077 3.8847 0
M  V30 6144 H 605.911 -1.38197 4.76671 0
M  V30 6145 H 601.167 -0.811882 6.05986 0
M  V30 6146 H 605.341 -0.391059 6.95301 0
M  V30 6147 H 602.968 -0.100222 7.60134 0
M  V30 6148 N 604.543 -1.41418 -0.695603 0
M  V30 6149 C 605.506 -1.42988 -1.79129 0
M  V30 6150 C 606.506 -0.320514 -1.57573 0
M  V30 6151 O 607.696 -0.58039 -1.64247 0
M  V30 6152 C 604.828 -1.24122 -3.175 0
M  V30 6153 H 606.021 -2.40526 -1.7913 0
M  V30 6154 H 603.574 -1.2756 -0.903225 0
M  V30 6155 H 604.309 -0.274253 -3.23138 0
M  V30 6156 H 604.094 -2.045 -3.34547 0
M  V30 6157 H 605.584 -1.28056 -3.97481 0
M  V30 6158 N 606.021 0.929856 -1.27246 0
M  V30 6159 C 607.298 1.65544 -1.04186 0
M  V30 6160 C 607.678 2.06796 0.424097 0
M  V30 6161 O 607.026 1.80053 1.40688 0
M  V30 6162 C 607.236 2.85912 -2.00138 0
M  V30 6163 C 608.584 3.57305 -2.29387 0
M  V30 6164 O 609.608 2.96036 -1.98094 0
M  V30 6165 O 608.467 4.67688 -2.82719 0
M  V30 6166 H 605.561 0.725473 -0.397011 0
M  V30 6167 H 608.107 0.980583 -1.38501 0
M  V30 6168 H 606.879 2.52403 -2.99013 0
M  V30 6169 H 606.502 3.61118 -1.66371 0
M  V30 6170 N 607.499 1.09233 1.13605 0
M  V30 6171 C 608.727 0.848908 1.88683 0
M  V30 6172 C 609.142 -0.599667 1.79024 0
M  V30 6173 O 608.499 -1.41265 1.15544 0
M  V30 6174 C 608.55 1.27273 3.38355 0
M  V30 6175 O 608.271 2.66449 3.47759 0
M  V30 6176 C 609.772 1.0614 4.30406 0
M  V30 6177 H 606.992 0.305549 0.597395 0
M  V30 6178 H 609.536 1.4538 1.43823 0
M  V30 6179 H 607.691 0.711776 3.80805 0
M  V30 6180 H 608.105 2.84264 4.40788 0
M  V30 6181 H 609.579 1.40725 5.33761 0
M  V30 6182 H 610.056 -0.000960332 4.392 0
M  V30 6183 H 610.662 1.60821 3.93722 0
M  V30 6184 N 608.977 -1.30795 0.87923 0
M  V30 6185 C 610.205 -2.00527 0.509548 0
M  V30 6186 C 610.62 -1.65944 -0.90045 0
M  V30 6187 O 609.977 -0.893525 -1.5913 0
M  V30 6188 C 610.028 -3.55276 0.667943 0
M  V30 6189 O 609.749 -3.88625 2.02242 0
M  V30 6190 C 611.25 -4.4228 0.300494 0
M  V30 6191 H 608.47 -0.641261 0.197549 0
M  V30 6192 H 611.014 -1.66813 1.18295 0
M  V30 6193 H 609.169 -3.87377 0.0419843 0
M  V30 6194 H 609.583 -4.83334 2.03688 0
M  V30 6195 H 611.057 -5.50061 0.462242 0
M  V30 6196 H 611.534 -4.32556 -0.76106 0
M  V30 6197 H 612.14 -4.15613 0.902536 0
M  V30 6198 N 610.455 -0.639598 -1.44038 0
M  V30 6199 C 611.866 -0.228866 -1.85292 0
M  V30 6200 C 612.217 1.22161 -1.53529 0
M  V30 6201 O 611.342 1.93064 -0.977518 0
M  V30 6202 C 611.937 -0.408592 -3.36327 0
M  V30 6203 C 610.496 -0.0522953 -3.76364 0
M  V30 6204 C 609.643 -0.717959 -2.67844 0
M  V30 6205 H 612.594 -0.844194 -1.34384 0
M  V30 6206 H 612.615 0.349968 -3.78887 0
M  V30 6207 H 612.127 -1.46435 -3.59414 0
M  V30 6208 H 610.228 1.0014 -3.58891 0
M  V30 6209 H 610.341 -0.468261 -4.76806 0
M  V30 6210 H 608.705 -0.152459 -2.54243 0
M  V30 6211 H 609.488 -1.77648 -2.93762 0
M  V30 6212 N 611.933 1.52934 -0.380664 0
M  V30 6213 C 612.88 2.26197 0.458641 0
M  V30 6214 C 613.85 1.27462 1.06502 0
M  V30 6215 O 615.035 1.56274 1.09467 0
M  V30 6216 C 612.175 3.06571 1.58456 0
M  V30 6217 C 611.288 4.20222 1.00189 0
M  V30 6218 C 610.423 4.88007 2.09815 0
M  V30 6219 C 609.462 5.93665 1.49092 0
M  V30 6220 N 608.599 6.55081 2.52613 0
M  V30 6221 H 613.439 2.975 -0.172595 0
M  V30 6222 H 610.976 1.4678 -0.0969426 0
M  V30 6223 H 612.934 3.51455 2.24801 0
M  V30 6224 H 611.564 2.37494 2.18624 0
M  V30 6225 H 610.616 3.79714 0.228292 0
M  V30 6226 H 611.928 4.96102 0.518064 0
M  V30 6227 H 611.082 5.36151 2.83948 0
M  V30 6228 H 609.821 4.11632 2.61555 0
M  V30 6229 H 608.826 5.44868 0.7348 0
M  V30 6230 H 610.051 6.71969 0.981582 0
M  V30 6231 H 607.997 5.8155 3.03538 0
M  V30 6232 H 607.914 7.26548 2.08961 0
M  V30 6233 H 609.182 7.07871 3.26402 0
M  V30 6234 N 613.412 0.11024 1.57214 0
M  V30 6235 C 614.66 -0.548783 1.94506 0
M  V30 6236 C 614.981 -1.67772 0.99386 0
M  V30 6237 O 614.251 -1.9584 0.0485841 0
M  V30 6238 H 612.831 -0.205715 0.718116 0
M  V30 6239 H 615.493 0.177127 1.94093 0
M  V30 6240 H 614.589 -0.949096 2.97319 0
M  V30 6241 N 614.89 -1.56749 -0.16351 0
M  V30 6242 C 616.118 -1.86577 -0.894233 0
M  V30 6243 C 616.533 -0.696543 -1.75481 0
M  V30 6244 O 615.89 0.334161 -1.79415 0
M  V30 6245 C 615.941 -3.15508 -1.76456 0
M  V30 6246 O 615.662 -4.27926 -0.938685 0
M  V30 6247 C 617.163 -3.58737 -2.60428 0
M  V30 6248 H 614.383 -0.618829 -0.259405 0
M  V30 6249 H 616.927 -2.03863 -0.161259 0
M  V30 6250 H 615.082 -3.00025 -2.45079 0
M  V30 6251 H 615.496 -5.01546 -1.53465 0
M  V30 6252 H 616.97 -4.51832 -3.17099 0
M  V30 6253 H 617.447 -2.83229 -3.35675 0
M  V30 6254 H 618.053 -3.76858 -1.97125 0
M  V30 6255 N 616.368 0.432326 -1.51554 0
M  V30 6256 C 617.617 1.17831 -1.63703 0
M  V30 6257 C 617.93 1.92229 -0.36156 0
M  V30 6258 O 619.136 2.69069 -0.362495 0
M  V30 6259 C 617.592 2.14318 -2.89129 0
M  V30 6260 C 617.2 1.45544 -4.23699 0
M  V30 6261 C 618.944 2.89319 -3.10636 0
M  V30 6262 C 616.851 2.40545 -5.4027 0
M  V30 6263 H 615.781 0.443533 -0.60975 0
M  V30 6264 H 618.432 0.444878 -1.78026 0
M  V30 6265 H 616.814 2.91117 -2.68452 0
M  V30 6266 H 617.988 0.742693 -4.54775 0
M  V30 6267 H 616.303 0.826772 -4.0811 0
M  V30 6268 H 618.9 3.60495 -3.94902 0
M  V30 6269 H 619.243 3.50951 -2.23918 0
M  V30 6270 H 619.776 2.19625 -3.31677 0
M  V30 6271 H 616.515 1.83594 -6.29264 0
M  V30 6272 H 616.035 3.09859 -5.13563 0
M  V30 6273 H 617.714 3.01569 -5.72421 0
M  V30 6274 N 617.846 1.41785 0.688094 0
M  V30 6275 C 618.778 1.40159 1.81351 0
M  V30 6276 C 619.791 0.30262 1.59963 0
M  V30 6277 O 620.98 0.564841 1.69327 0
M  V30 6278 C 618.08 1.16517 3.1824 0
M  V30 6279 C 617.253 2.38597 3.66593 0
M  V30 6280 C 616.312 2.10699 4.82174 0
M  V30 6281 O 615.338 2.83798 4.93404 0
M  V30 6282 N 616.54 1.10187 5.69947 0
M  V30 6283 H 619.305 2.3716 1.83236 0
M  V30 6284 H 616.866 1.36494 0.870697 0
M  V30 6285 H 618.858 0.957941 3.93199 0
M  V30 6286 H 617.428 0.280873 3.11336 0
M  V30 6287 H 616.648 2.74974 2.82459 0
M  V30 6288 H 617.936 3.19919 3.95638 0
M  V30 6289 H 617.334 0.497016 5.63512 0
M  V30 6290 H 615.891 0.954518 6.44773 0
M  V30 6291 N 619.324 -0.923095 1.27737 0
M  V30 6292 C 620.564 -1.6858 1.15586 0
M  V30 6293 C 620.928 -1.89758 -0.292562 0
M  V30 6294 O 622.129 -2.6339 -0.536583 0
M  V30 6295 C 620.4 -3.01275 1.92271 0
M  V30 6296 S 621.959 -3.924 1.96387 0
M  V30 6297 H 618.777 -0.579069 0.412554 0
M  V30 6298 H 621.379 -1.09866 1.61709 0
M  V30 6299 H 620.083 -2.83556 2.96689 0
M  V30 6300 H 619.614 -3.6504 1.46661 0
M  V30 6301 H 621.629 -4.84667 1.06361 0
M  V30 6302 N 620.802 -1.09834 -1.13024 0
M  V30 6303 C 621.734 -0.699379 -2.18269 0
M  V30 6304 C 622.747 0.260841 -1.60697 0
M  V30 6305 O 623.936 0.0462538 -1.7844 0
M  V30 6306 C 621.036 -0.0104537 -3.38898 0
M  V30 6307 C 620.209 -0.993275 -4.25973 0
M  V30 6308 C 619.268 -0.336982 -5.2512 0
M  V30 6309 O 618.294 -0.985892 -5.60597 0
M  V30 6310 N 619.496 0.90716 -5.73368 0
M  V30 6311 H 622.261 -1.60486 -2.5311 0
M  V30 6312 H 619.822 -0.986337 -1.28386 0
M  V30 6313 H 621.814 0.43991 -4.02302 0
M  V30 6314 H 620.384 0.797335 -3.0226 0
M  V30 6315 H 619.604 -1.62208 -3.5928 0
M  V30 6316 H 620.892 -1.65876 -4.81002 0
M  V30 6317 H 620.29 1.45384 -5.46699 0
M  V30 6318 H 618.847 1.30077 -6.38689 0
M  V30 6319 N 622.28 1.30327 -0.886154 0
M  V30 6320 C 623.527 1.96097 -0.505192 0
M  V30 6321 C 623.855 1.69952 0.945868 0
M  V30 6322 O 623.11 0.997653 1.68361 0
M  V30 6323 C 623.409 3.49906 -0.728042 0
M  V30 6324 C 623.075 3.96103 -2.15437 0
M  V30 6325 C 621.737 4.08428 -2.5444 0
M  V30 6326 C 624.089 4.20177 -3.08384 0
M  V30 6327 C 621.417 4.42189 -3.85598 0
M  V30 6328 C 623.769 4.55407 -4.39075 0
M  V30 6329 C 622.433 4.65941 -4.7797 0
M  V30 6330 H 621.703 0.71757 -0.184863 0
M  V30 6331 H 624.35 1.55171 -1.12223 0
M  V30 6332 H 622.655 3.9179 -0.027978 0
M  V30 6333 H 624.352 3.98869 -0.412862 0
M  V30 6334 H 620.942 3.87017 -1.84162 0
M  V30 6335 H 625.126 4.10134 -2.7947 0
M  V30 6336 H 620.382 4.48544 -4.15473 0
M  V30 6337 H 624.556 4.72986 -5.11133 0
M  V30 6338 H 622.183 4.91856 -5.79639 0
M  V30 6339 N 623.758 0.647228 1.43697 0
M  V30 6340 C 625.004 0.167001 2.02713 0
M  V30 6341 C 625.359 -1.20351 1.50111 0
M  V30 6342 O 624.652 -1.79047 0.682113 0
M  V30 6343 C 624.846 0.111481 3.57226 0
M  V30 6344 C 624.675 1.47507 4.2482 0
M  V30 6345 C 623.445 2.06594 4.61137 0
M  V30 6346 C 625.643 2.41224 4.54219 0
M  V30 6347 N 623.625 3.3602 5.13774 0
M  V30 6348 C 624.996 3.55278 5.08112 0
M  V30 6349 C 627.051 2.40102 4.36183 0
M  V30 6350 C 625.754 4.68426 5.45866 0
M  V30 6351 C 627.78 3.52326 4.74995 0
M  V30 6352 C 627.142 4.65104 5.29015 0
M  V30 6353 H 623.241 0.105402 0.774864 0
M  V30 6354 H 625.825 0.854229 1.7496 0
M  V30 6355 H 623.996 -0.545073 3.84556 0
M  V30 6356 H 625.728 -0.379063 4.02921 0
M  V30 6357 H 622.483 1.59366 4.45981 0
M  V30 6358 H 622.907 4.02233 5.44552 0
M  V30 6359 H 627.549 1.54151 3.93697 0
M  V30 6360 H 625.267 5.55074 5.87298 0
M  V30 6361 H 628.853 3.52652 4.6274 0
M  V30 6362 H 627.733 5.50506 5.58492 0
M  V30 6363 N 625.236 -1.5273 0.388769 0
M  V30 6364 C 626.484 -2.01174 -0.193208 0
M  V30 6365 C 626.805 -1.27705 -1.47365 0
M  V30 6366 O 626.075 -0.396966 -1.91836 0
M  V30 6367 H 624.655 -0.743287 -0.0743871 0
M  V30 6368 H 627.317 -1.87826 0.520336 0
M  V30 6369 H 626.413 -3.09477 -0.403803 0
M  V30 6370 N 626.714 -0.118576 -1.57153 0
M  V30 6371 C 627.644 0.828436 -2.1831 0
M  V30 6372 C 628.625 1.27758 -1.12303 0
M  V30 6373 O 629.81 1.34026 -1.40537 0
M  V30 6374 C 626.94 2.07876 -2.78217 0
M  V30 6375 C 625.894 1.76742 -3.89803 0
M  V30 6376 C 625.22 3.08801 -4.36516 0
M  V30 6377 C 626.52 1.03606 -5.11921 0
M  V30 6378 H 628.214 0.318824 -2.97698 0
M  V30 6379 H 625.76 0.151911 -1.43196 0
M  V30 6380 H 627.713 2.74584 -3.19659 0
M  V30 6381 H 626.437 2.61161 -1.96118 0
M  V30 6382 H 625.096 1.12424 -3.48936 0
M  V30 6383 H 624.744 3.6002 -3.51276 0
M  V30 6384 H 624.444 2.88743 -5.11763 0
M  V30 6385 H 625.968 3.76627 -4.80608 0
M  V30 6386 H 627.382 1.60467 -5.50385 0
M  V30 6387 H 625.779 0.936454 -5.92748 0
M  V30 6388 H 626.849 0.0227421 -4.84895 0
M  V30 6389 N 628.193 1.56834 0.155195 0
M  V30 6390 C 629.441 1.82536 0.867462 0
M  V30 6391 C 629.762 0.698168 1.82073 0
M  V30 6392 O 629.032 -0.280807 1.93877 0
M  V30 6393 H 627.612 0.673401 0.323327 0
M  V30 6394 H 630.274 1.94313 0.151156 0
M  V30 6395 H 629.37 2.77171 1.43466 0
M  V30 6396 N 629.671 -0.424282 1.51781 0
M  V30 6397 C 630.634 -1.49848 1.73431 0
M  V30 6398 C 631.634 -1.49016 0.604225 0
M  V30 6399 O 632.824 -1.50808 0.871935 0
M  V30 6400 C 629.956 -2.89332 1.80277 0
M  V30 6401 H 631.149 -1.3195 2.69312 0
M  V30 6402 H 628.702 -0.653809 1.41968 0
M  V30 6403 H 629.437 -3.12618 0.862568 0
M  V30 6404 H 629.222 -2.9134 2.62419 0
M  V30 6405 H 630.712 -3.67233 1.98821 0
M  V30 6406 N 631.149 -1.42148 -0.680565 0
M  V30 6407 C 632.426 -1.32795 -1.43614 0
M  V30 6408 C 632.806 0.037415 -2.11067 0
M  V30 6409 O 632.154 1.05258 -2.02813 0
M  V30 6410 C 632.364 -2.49206 -2.44331 0
M  V30 6411 C 633.712 -2.91059 -3.09144 0
M  V30 6412 O 634.736 -2.49054 -2.54657 0
M  V30 6413 O 633.595 -3.63741 -4.07866 0
M  V30 6414 H 630.689 -0.523397 -0.640301 0
M  V30 6415 H 633.235 -1.54144 -0.709775 0
M  V30 6416 H 632.007 -3.40252 -1.93247 0
M  V30 6417 H 631.63 -2.29813 -3.24456 0
M  V30 6418 N 632.627 0.916307 -1.28225 0
M  V30 6419 C 633.875 1.6619 -1.15002 0
M  V30 6420 C 634.196 1.92642 0.302329 0
M  V30 6421 O 633.466 1.54076 1.20985 0
M  V30 6422 H 632.046 0.615964 -0.422608 0
M  V30 6423 H 634.708 1.09963 -1.60917 0
M  V30 6424 H 633.804 2.62533 -1.68769 0
M  V30 6425 N 634.105 1.10431 1.1244 0
M  V30 6426 C 635.333 0.868872 1.87772 0
M  V30 6427 C 635.748 -0.580645 1.7965 0
M  V30 6428 O 635.105 -1.40031 1.17036 0
M  V30 6429 C 635.156 1.30855 3.36986 0
M  V30 6430 O 634.877 2.70123 3.44914 0
M  V30 6431 C 636.378 1.107 4.29256 0
M  V30 6432 H 633.598 0.311868 0.59412 0
M  V30 6433 H 636.142 1.46897 1.42273 0
M  V30 6434 H 634.297 0.752126 3.80029 0
M  V30 6435 H 634.711 2.88923 4.37748 0
M  V30 6436 H 636.185 1.46378 5.32238 0
M  V30 6437 H 636.662 0.0456228 4.39176 0
M  V30 6438 H 637.268 1.64988 3.91994 0
M  V30 6439 N 635.583 -1.29855 0.893053 0
M  V30 6440 C 636.829 -1.96116 0.516349 0
M  V30 6441 C 637.162 -1.70281 -0.933695 0
M  V30 6442 O 636.437 -1.01205 -1.66096 0
M  V30 6443 C 636.72 -3.51068 0.801455 0
M  V30 6444 C 636.573 -3.86387 2.30272 0
M  V30 6445 C 637.892 -4.39186 0.283423 0
M  V30 6446 H 635.011 -0.712335 0.189072 0
M  V30 6447 H 637.653 -1.53587 1.11852 0
M  V30 6448 H 635.803 -3.87424 0.288949 0
M  V30 6449 H 637.475 -3.60012 2.88425 0
M  V30 6450 H 635.718 -3.34167 2.76613 0
M  V30 6451 H 636.389 -4.94512 2.45279 0
M  V30 6452 H 638.865 -4.09785 0.722187 0
M  V30 6453 H 637.741 -5.46505 0.512169 0
M  V30 6454 H 638.002 -4.34511 -0.815643 0
M  V30 6455 N 637.061 -0.65484 -1.43351 0
M  V30 6456 C 638.309 -0.168559 -2.01396 0
M  V30 6457 C 638.63 1.22235 -1.51933 0
M  V30 6458 O 637.9 1.81685 -0.732627 0
M  V30 6459 H 636.48 -0.0593244 -0.744641 0
M  V30 6460 H 639.142 -0.846871 -1.75539 0
M  V30 6461 H 638.238 -0.154428 -3.11718 0
M  V30 6462 N 638.539 1.52521 -0.396863 0
M  V30 6463 C 639.502 2.2527 0.422604 0
M  V30 6464 C 640.502 1.27184 0.983913 0
M  V30 6465 O 641.692 1.51222 0.864723 0
M  V30 6466 C 638.824 3.01356 1.59365 0
M  V30 6467 H 640.017 2.99133 -0.214416 0
M  V30 6468 H 637.57 1.55587 -0.149128 0
M  V30 6469 H 638.305 2.31813 2.26789 0
M  V30 6470 H 638.09 3.73357 1.19779 0
M  V30 6471 H 639.58 3.56571 2.17363 0
M  V30 6472 N 640.017 0.126909 1.57088 0
M  V30 6473 C 640.965 -0.837618 2.16995 0
M  V30 6474 C 641.959 -1.26974 1.12133 0
M  V30 6475 O 643.165 -1.24056 1.30423 0
M  V30 6476 H 639.54 -0.288256 0.694559 0
M  V30 6477 H 641.511 -0.307957 2.96807 0
M  V30 6478 C 640.26 -2.07474 2.79016 0
M  V30 6479 H 639.583 -1.75117 3.59408 0
M  V30 6480 H 641.023 -2.72949 3.24461 0
M  V30 6481 C 639.482 -2.86967 1.76498 0
M  V30 6482 O 640.012 -3.82625 1.22316 0
M  V30 6483 N 638.218 -2.51111 1.46258 0
M  V30 6484 H 637.765 -1.73389 1.90509 0
M  V30 6485 H 637.723 -3.04594 0.779085 0
M  V30 6486 N 641.495 -1.56914 -0.146875 0
M  V30 6487 C 642.442 -1.98275 -1.18134 0
M  V30 6488 C 643.412 -0.850367 -1.42681 0
M  V30 6489 O 644.597 -1.11244 -1.55014 0
M  V30 6490 C 641.737 -2.36861 -2.5098 0
M  V30 6491 C 640.85 -3.63391 -2.33605 0
M  V30 6492 C 639.985 -3.91079 -3.59486 0
M  V30 6493 C 639.024 -5.10879 -3.37149 0
M  V30 6494 N 638.161 -5.34577 -4.55161 0
M  V30 6495 H 643.001 -2.8645 -0.821622 0
M  V30 6496 H 640.538 -1.41718 -0.394248 0
M  V30 6497 H 642.496 -2.57262 -3.28439 0
M  V30 6498 H 641.126 -1.51766 -2.84898 0
M  V30 6499 H 640.178 -3.50766 -1.47199 0
M  V30 6500 H 641.49 -4.51007 -2.13059 0
M  V30 6501 H 640.644 -4.11979 -4.45374 0
M  V30 6502 H 639.383 -3.01885 -3.83036 0
M  V30 6503 H 638.388 -4.89853 -2.49649 0
M  V30 6504 H 639.613 -6.01626 -3.14997 0
M  V30 6505 H 637.559 -4.48337 -4.78884 0
M  V30 6506 H 637.476 -6.16463 -4.37618 0
M  V30 6507 H 638.744 -5.59975 -5.42263 0
M  V30 6508 N 642.974 0.416227 -1.52004 0
M  V30 6509 C 643.906 1.52552 -1.71058 0
M  V30 6510 C 644.919 1.51693 -0.59102 0
M  V30 6511 O 646.108 1.56087 -0.865973 0
M  V30 6512 C 643.208 2.91455 -1.72937 0
M  V30 6513 C 642.381 3.16584 -3.01816 0
M  V30 6514 C 641.44 4.35322 -2.95603 0
M  V30 6515 O 640.466 4.32947 -3.6952 0
M  V30 6516 N 641.668 5.40049 -2.12903 0
M  V30 6517 H 644.433 1.36604 -2.66757 0
M  V30 6518 H 641.994 0.60544 -1.50153 0
M  V30 6519 H 643.986 3.68944 -1.66321 0
M  V30 6520 H 642.556 3.00895 -0.847418 0
M  V30 6521 H 641.776 2.27203 -3.22137 0
M  V30 6522 H 643.064 3.30213 -3.87088 0
M  V30 6523 H 642.462 5.44823 -1.52265 0
M  V30 6524 H 641.019 6.16308 -2.1215 0
M  V30 6525 N 644.452 1.42507 0.673017 0
M  V30 6526 C 645.415 1.4582 1.76831 0
M  V30 6527 C 646.415 0.345542 1.57043 0
M  V30 6528 O 647.605 0.606447 1.63303 0
M  V30 6529 C 644.737 1.29158 3.15485 0
M  V30 6530 H 645.93 2.43345 1.7528 0
M  V30 6531 H 643.483 1.28981 0.882817 0
M  V30 6532 H 644.218 0.325626 3.22661 0
M  V30 6533 H 644.003 2.09797 3.31252 0
M  V30 6534 H 645.493 1.34363 3.95394 0
M  V30 6535 N 645.93 -0.909495 1.28709 0
M  V30 6536 C 647.179 -1.65365 1.15487 0
M  V30 6537 C 647.492 -1.93364 -0.294941 0
M  V30 6538 O 648.698 -2.65905 -0.548338 0
M  V30 6539 C 647.154 -2.97923 2.01916 0
M  V30 6540 C 646.762 -2.77556 3.51663 0
M  V30 6541 C 648.506 -3.75814 1.97393 0
M  V30 6542 C 646.413 -4.0578 4.30229 0
M  V30 6543 H 645.343 -0.620323 0.42862 0
M  V30 6544 H 647.994 -1.00894 1.53273 0
M  V30 6545 H 646.376 -3.63552 1.5699 0
M  V30 6546 H 647.55 -2.2058 4.04575 0
M  V30 6547 H 645.865 -2.13072 3.57756 0
M  V30 6548 H 648.462 -4.70866 2.53357 0
M  V30 6549 H 648.805 -4.05277 0.951643 0
M  V30 6550 H 649.338 -3.1701 2.40311 0
M  V30 6551 H 646.077 -3.81488 5.33055 0
M  V30 6552 H 645.597 -4.62351 3.82089 0
M  V30 6553 H 647.276 -4.74004 4.40374 0
M  V30 6554 N 647.408 -1.11026 -1.11852 0
M  V30 6555 C 648.355 -0.764662 -2.17765 0
M  V30 6556 C 649.325 0.261854 -1.64023 0
M  V30 6557 O 650.51 0.139748 -1.90288 0
M  V30 6558 C 647.65 -0.209317 -3.44465 0
M  V30 6559 C 646.763 -1.29187 -4.12231 0
M  V30 6560 C 645.898 -0.697523 -5.266 0
M  V30 6561 C 644.937 -1.76023 -5.86244 0
M  V30 6562 N 644.074 -1.18569 -6.92016 0
M  V30 6563 H 648.914 -1.67202 -2.46673 0
M  V30 6564 H 646.451 -0.835065 -1.21099 0
M  V30 6565 H 648.409 0.130599 -4.16996 0
M  V30 6566 H 647.039 0.661251 -3.15955 0
M  V30 6567 H 646.091 -1.74881 -3.37818 0
M  V30 6568 H 647.403 -2.09607 -4.52622 0
M  V30 6569 H 646.557 -0.307412 -6.05921 0
M  V30 6570 H 645.296 0.138044 -4.87505 0
M  V30 6571 H 644.301 -2.1597 -5.05606 0
M  V30 6572 H 645.526 -2.59875 -6.27409 0
M  V30 6573 H 643.472 -0.371695 -6.54946 0
M  V30 6574 H 643.389 -1.92666 -7.31038 0
M  V30 6575 H 644.657 -0.82233 -7.7515 0
M  V30 6576 N 648.886 1.2938 -0.899927 0
M  V30 6577 C 650.135 1.9483 -0.521937 0
M  V30 6578 C 650.448 1.71725 0.936473 0
M  V30 6579 O 651.654 2.31282 1.42199 0
M  V30 6580 C 650.11 3.48911 -0.88255 0
M  V30 6581 C 649.718 3.80815 -2.35974 0
M  V30 6582 C 651.462 4.20595 -0.57448 0
M  V30 6583 C 649.369 5.28142 -2.66121 0
M  V30 6584 H 648.299 0.729285 -0.191468 0
M  V30 6585 H 650.95 1.47103 -1.09695 0
M  V30 6586 H 649.332 3.95293 -0.236459 0
M  V30 6587 H 650.506 3.45291 -3.05141 0
M  V30 6588 H 648.821 3.22271 -2.63686 0
M  V30 6589 H 651.418 5.29031 -0.776556 0
M  V30 6590 H 651.761 4.13442 0.487005 0
M  V30 6591 H 652.294 3.79945 -1.17842 0
M  V30 6592 H 649.033 5.4036 -3.71068 0
M  V30 6593 H 648.553 5.64913 -2.01578 0
M  V30 6594 H 650.232 5.95738 -2.52399 0
M  V30 6595 N 650.364 0.662433 1.43002 0
M  V30 6596 C 651.613 0.176873 2.00923 0
M  V30 6597 C 651.926 -1.21954 1.52927 0
M  V30 6598 O 653.132 -1.80081 2.03182 0
M  V30 6599 C 651.588 0.265379 3.5892 0
M  V30 6600 C 651.196 1.66507 4.15908 0
M  V30 6601 C 652.94 -0.162103 4.2419 0
M  V30 6602 C 650.847 1.707 5.66229 0
M  V30 6603 H 649.777 0.0623627 0.751417 0
M  V30 6604 H 652.428 0.825813 1.63868 0
M  V30 6605 H 650.81 -0.451235 3.93421 0
M  V30 6606 H 651.984 2.40777 3.92891 0
M  V30 6607 H 650.299 2.03932 3.63044 0
M  V30 6608 H 652.896 -0.150745 5.34487 0
M  V30 6609 H 653.239 -1.19519 3.98774 0
M  V30 6610 H 653.772 0.503075 3.94606 0
M  V30 6611 H 650.511 2.7195 5.96426 0
M  V30 6612 H 650.031 1.00768 5.91275 0
M  V30 6613 H 651.71 1.45487 6.3043 0
M  V30 6614 N 651.842 -1.52309 0.404946 0
M  V30 6615 C 653.09 -2.01368 -0.17186 0
M  V30 6616 C 653.411 -1.29261 -1.46002 0
M  V30 6617 O 652.681 -0.41729 -1.91404 0
M  V30 6618 H 651.261 -0.744034 -0.0664993 0
M  V30 6619 H 653.923 -1.87263 0.540228 0
M  V30 6620 H 653.019 -3.09888 -0.370957 0
M  V30 6621 N 653.32 -0.135238 -1.57019 0
M  V30 6622 C 654.597 0.563227 -1.87316 0
M  V30 6623 C 654.977 1.83749 -1.03921 0
M  V30 6624 O 654.325 2.2817 -0.122675 0
M  V30 6625 C 654.535 0.840031 -3.3874 0
M  V30 6626 C 655.883 1.18598 -4.077 0
M  V30 6627 O 656.907 0.92977 -3.43851 0
M  V30 6628 O 655.766 1.66758 -5.20436 0
M  V30 6629 H 652.86 0.285971 -0.775983 0
M  V30 6630 H 655.406 -0.170965 -1.68837 0
M  V30 6631 H 654.178 -0.0622785 -3.9125 0
M  V30 6632 H 653.801 1.62882 -3.62706 0
M  V30 6633 N 654.798 1.5699 0.138552 0
M  V30 6634 C 655.746 1.99858 1.18994 0
M  V30 6635 C 656.74 0.89231 1.43994 0
M  V30 6636 O 657.946 1.0775 1.44187 0
M  V30 6637 H 654.321 0.636325 0.400743 0
M  V30 6638 H 656.292 2.87427 0.801755 0
M  V30 6639 C 655.041 2.40235 2.51361 0
M  V30 6640 H 654.364 3.24917 2.32957 0
M  V30 6641 H 655.804 2.74045 3.23535 0
M  V30 6642 C 654.263 1.25829 3.1252 0
M  V30 6643 O 654.793 0.563604 3.97727 0
M  V30 6644 N 652.999 1.02036 2.72097 0
M  V30 6645 H 652.546 1.58705 2.02905 0
M  V30 6646 H 652.504 0.256796 3.1335 0
M  V30 6647 N 656.276 -0.40816 1.52223 0
M  V30 6648 C 657.504 -1.17672 1.70179 0
M  V30 6649 C 657.919 -1.84257 0.411696 0
M  V30 6650 O 657.276 -1.7192 -0.612354 0
M  V30 6651 C 657.327 -2.23911 2.83806 0
M  V30 6652 O 657.048 -1.60044 4.0782 0
M  V30 6653 C 658.549 -3.1364 3.13281 0
M  V30 6654 H 655.769 -0.353562 0.570293 0
M  V30 6655 H 658.313 -0.480083 1.98785 0
M  V30 6656 H 656.468 -2.89242 2.57717 0
M  V30 6657 H 656.882 -2.30484 4.71145 0
M  V30 6658 H 658.356 -3.84255 3.96298 0
M  V30 6659 H 658.833 -3.76066 2.26872 0
M  V30 6660 H 659.439 -2.53977 3.41139 0
M  V30 6661 N 657.755 -1.42862 -0.66545 0
M  V30 6662 C 659.032 -1.3431 -1.42197 0
M  V30 6663 C 659.412 0.0150265 -2.11095 0
M  V30 6664 O 658.76 1.03101 -2.03918 0
M  V30 6665 C 658.97 -2.51783 -2.41674 0
M  V30 6666 C 660.318 -2.94321 -3.0604 0
M  V30 6667 O 661.342 -2.51741 -2.52001 0
M  V30 6668 O 660.201 -3.68047 -4.03985 0
M  V30 6669 H 657.295 -0.530159 -0.634713 0
M  V30 6670 H 659.841 -1.54888 -0.693386 0
M  V30 6671 H 658.613 -3.42282 -1.89627 0
M  V30 6672 H 658.236 -2.33241 -3.22001 0
M  V30 6673 N 659.233 0.902656 -1.29189 0
M  V30 6674 C 660.163 2.02294 -1.16616 0
M  V30 6675 C 661.144 1.6999 -0.0611175 0
M  V30 6676 O 662.329 1.9271 -0.240072 0
M  V30 6677 C 659.459 3.37018 -0.83882 0
M  V30 6678 C 658.413 3.83522 -1.89986 0
M  V30 6679 C 657.739 5.15337 -1.42589 0
M  V30 6680 C 659.039 4.04169 -3.30824 0
M  V30 6681 H 660.733 2.13071 -2.10336 0
M  V30 6682 H 658.279 1.02378 -1.01266 0
M  V30 6683 H 660.232 4.14895 -0.737584 0
M  V30 6684 H 658.956 3.26325 0.134071 0
M  V30 6685 H 657.615 3.07859 -1.99043 0
M  V30 6686 H 657.263 5.01056 -0.441759 0
M  V30 6687 H 656.963 5.47423 -2.13547 0
M  V30 6688 H 658.487 5.95758 -1.3381 0
M  V30 6689 H 659.901 4.72537 -3.24626 0
M  V30 6690 H 658.298 4.47604 -3.99713 0
M  V30 6691 H 659.368 3.08604 -3.74021 0
M  V30 6692 N 660.711 1.11618 1.11262 0
M  V30 6693 C 661.958 0.86618 1.8304 0
M  V30 6694 C 662.286 -0.608149 1.84748 0
M  V30 6695 O 661.541 -1.46508 1.29745 0
M  V30 6696 C 661.84 1.37529 3.2988 0
M  V30 6697 C 661.506 2.86317 3.4833 0
M  V30 6698 C 660.168 3.26945 3.53073 0
M  V30 6699 C 662.52 3.82136 3.54431 0
M  V30 6700 C 659.848 4.62117 3.61475 0
M  V30 6701 C 662.2 5.17128 3.64365 0
M  V30 6702 C 660.864 5.57312 3.67369 0
M  V30 6703 H 660.134 0.316958 0.66979 0
M  V30 6704 H 662.781 1.3949 1.31205 0
M  V30 6705 H 661.086 0.766842 3.84222 0
M  V30 6706 H 662.783 1.15817 3.83911 0
M  V30 6707 H 659.373 2.53889 3.45309 0
M  V30 6708 H 663.557 3.51847 3.50025 0
M  V30 6709 H 658.813 4.92655 3.62079 0
M  V30 6710 H 662.987 5.91208 3.68029 0
M  V30 6711 H 660.614 6.62045 3.73632 0
M  V30 6712 N 662.189 -1.289 0.906776 0
M  V30 6713 C 663.152 -2.25777 0.394656 0
M  V30 6714 C 664.152 -1.53621 -0.475119 0
M  V30 6715 O 665.342 -1.71949 -0.279165 0
M  V30 6716 C 662.474 -3.38113 -0.43499 0
M  V30 6717 H 663.667 -2.72592 1.25033 0
M  V30 6718 H 661.22 -1.40463 0.685547 0
M  V30 6719 H 661.955 -2.96648 -1.31036 0
M  V30 6720 H 661.74 -3.91647 0.188334 0
M  V30 6721 H 663.23 -4.10168 -0.784365 0
M  V30 6722 N 663.667 -0.670007 -1.42649 0
M  V30 6723 C 664.599 0.0501746 -2.29145 0
M  V30 6724 C 665.612 0.770331 -1.43422 0
M  V30 6725 O 666.801 0.625288 -1.6719 0
M  V30 6726 C 663.901 1.09463 -3.20735 0
M  V30 6727 C 663.074 0.44926 -4.35087 0
M  V30 6728 C 662.133 1.39285 -5.07431 0
M  V30 6729 O 661.159 0.894997 -5.6212 0
M  V30 6730 N 662.361 2.72631 -5.12496 0
M  V30 6731 H 665.126 -0.692312 -2.91594 0
M  V30 6732 H 662.687 -0.514056 -1.53522 0
M  V30 6733 H 664.679 1.72705 -3.65999 0
M  V30 6734 H 663.249 1.73891 -2.59771 0
M  V30 6735 H 662.469 -0.362573 -3.92529 0
M  V30 6736 H 663.757 -0.000544776 -5.088 0
M  V30 6737 H 663.155 3.15623 -4.69467 0
M  V30 6738 H 661.712 3.31132 -5.61422 0
M  V30 6739 N 665.145 1.52092 -0.413018 0
M  V30 6740 C 666.393 2.01456 0.161178 0
M  V30 6741 C 666.714 1.30034 1.45314 0
M  V30 6742 O 665.984 0.427435 1.9118 0
M  V30 6743 H 664.564 0.744376 0.0625526 0
M  V30 6744 H 667.226 1.86974 -0.550151 0
M  V30 6745 H 666.322 3.1008 0.354517 0
M  V30 6746 N 666.623 0.143563 1.56945 0
M  V30 6747 C 667.853 -0.514699 2.00086 0
M  V30 6748 C 668.261 -1.59184 1.0226 0
M  V30 6749 O 667.604 -1.83697 0.0110514 0
M  V30 6750 C 667.666 -1.17778 3.39659 0
M  V30 6751 C 667.33 -0.245657 4.56339 0
M  V30 6752 C 668.327 0.525343 5.17239 0
M  V30 6753 C 666.012 -0.149564 5.02077 0
M  V30 6754 C 668.006 1.37992 6.22284 0
M  V30 6755 C 665.693 0.708621 6.06978 0
M  V30 6756 C 666.691 1.47197 6.6695 0
M  V30 6757 O 666.379 2.31586 7.6982 0
M  V30 6758 H 666.111 -0.138789 0.661599 0
M  V30 6759 H 668.665 0.234098 2.04062 0
M  V30 6760 H 666.895 -1.97415 3.32512 0
M  V30 6761 H 668.584 -1.73542 3.6693 0
M  V30 6762 H 669.35 0.461118 4.82803 0
M  V30 6763 H 665.229 -0.733457 4.55128 0
M  V30 6764 H 668.773 1.97621 6.69023 0
M  V30 6765 H 664.67 0.77415 6.40841 0
M  V30 6766 H 665.438 2.24796 7.87025 0
M  V30 6767 N 668.101 -1.57061 -0.130224 0
M  V30 6768 C 669.348 -1.84257 -0.839972 0
M  V30 6769 C 669.676 -0.726986 -1.80403 0
M  V30 6770 O 668.931 0.282632 -1.93648 0
M  V30 6771 C 669.23 -3.17878 -1.63365 0
M  V30 6772 C 668.896 -4.43475 -0.814891 0
M  V30 6773 C 667.558 -4.77581 -0.589066 0
M  V30 6774 C 669.91 -5.20631 -0.243437 0
M  V30 6775 C 667.238 -5.86292 0.218648 0
M  V30 6776 C 669.59 -6.30192 0.551408 0
M  V30 6777 C 668.254 -6.62837 0.787653 0
M  V30 6778 H 667.524 -0.674245 -0.307367 0
M  V30 6779 H 670.171 -1.91224 -0.102832 0
M  V30 6780 H 668.476 -3.06437 -2.44138 0
M  V30 6781 H 670.173 -3.3614 -2.18658 0
M  V30 6782 H 666.763 -4.16747 -1.00098 0
M  V30 6783 H 670.947 -4.94644 -0.405145 0
M  V30 6784 H 666.203 -6.10017 0.411016 0
M  V30 6785 H 670.377 -6.89165 1.00126 0
M  V30 6786 H 668.004 -7.46908 1.41537 0
M  V30 6787 N 669.579 0.400081 -1.52437 0
M  V30 6788 C 670.804 1.17221 -1.71096 0
M  V30 6789 C 671.229 1.83269 -0.423565 0
M  V30 6790 O 670.587 1.70378 0.619751 0
M  V30 6791 C 670.635 2.20425 -2.85386 0
M  V30 6792 O 669.739 3.26769 -2.51586 0
M  V30 6793 H 669.08 0.341766 -0.569291 0
M  V30 6794 H 671.61 0.467772 -1.99181 0
M  V30 6795 H 671.62 2.64605 -3.10561 0
M  V30 6796 H 670.295 1.71737 -3.78786 0
M  V30 6797 H 668.872 2.87804 -2.37114 0
M  V30 6798 N 671.057 1.43213 0.657864 0
M  V30 6799 C 672.287 1.478 1.44356 0
M  V30 6800 C 672.695 0.0930206 1.88971 0
M  V30 6801 O 672.038 -0.906089 1.59799 0
M  V30 6802 C 672.1 2.35745 2.71412 0
M  V30 6803 C 671.764 3.83359 2.48767 0
M  V30 6804 C 672.761 4.74585 2.12285 0
M  V30 6805 C 670.446 4.27799 2.63235 0
M  V30 6806 C 672.44 6.08247 1.90562 0
M  V30 6807 C 670.127 5.61516 2.41128 0
M  V30 6808 C 671.125 6.51557 2.04847 0
M  V30 6809 O 670.813 7.82802 1.82967 0
M  V30 6810 H 670.545 0.504363 0.450104 0
M  V30 6811 H 673.099 1.88572 0.814241 0
M  V30 6812 H 671.329 1.89852 3.36887 0
M  V30 6813 H 673.018 2.31589 3.33348 0
M  V30 6814 H 673.784 4.41531 2.00687 0
M  V30 6815 H 669.663 3.57993 2.90451 0
M  V30 6816 H 673.207 6.78489 1.62168 0
M  V30 6817 H 669.104 5.94139 2.52327 0
M  V30 6818 H 669.872 7.94332 1.97429 0
M  V30 6819 N 672.536 -0.895792 1.29666 0
M  V30 6820 C 673.813 -1.62723 1.08538 0
M  V30 6821 C 674.193 -2.07848 -0.369119 0
M  V30 6822 O 673.541 -1.8372 -1.35864 0
M  V30 6823 C 673.751 -2.80505 2.07648 0
M  V30 6824 C 675.099 -3.51098 2.3878 0
M  V30 6825 O 676.123 -2.90679 2.05874 0
M  V30 6826 O 674.982 -4.60028 2.9502 0
M  V30 6827 H 672.076 -0.714692 0.416106 0
M  V30 6828 H 674.622 -0.943517 1.41053 0
M  V30 6829 H 673.394 -2.44386 3.05599 0
M  V30 6830 H 673.017 -3.5658 1.75887 0
M  V30 6831 N 674.014 -1.12206 -1.10668 0
M  V30 6832 C 675.239 -0.898938 -1.86906 0
M  V30 6833 C 675.664 0.546346 -1.79991 0
M  V30 6834 O 675.022 1.38655 -1.1681 0
M  V30 6835 C 675.07 -1.37529 -3.33344 0
M  V30 6836 O 674.174 -0.55218 -4.08687 0
M  V30 6837 H 673.515 -0.323163 -0.580053 0
M  V30 6838 H 676.045 -1.49355 -1.39837 0
M  V30 6839 H 676.055 -1.3733 -3.84193 0
M  V30 6840 H 674.73 -2.42767 -3.37693 0
M  V30 6841 H 673.307 -0.620947 -3.67694 0
M  V30 6842 N 675.492 1.28418 -0.913599 0
M  V30 6843 C 676.439 2.27301 -0.400373 0
M  V30 6844 C 677.409 1.57582 0.52509 0
M  V30 6845 O 678.594 1.85482 0.447318 0
M  V30 6846 C 675.734 3.43284 0.35361 0
M  V30 6847 C 674.847 4.27752 -0.604341 0
M  V30 6848 C 673.982 5.30934 0.168075 0
M  V30 6849 C 673.021 6.07065 -0.783499 0
M  V30 6850 N 672.158 7.02086 -0.0446112 0
M  V30 6851 H 676.998 2.70579 -1.24865 0
M  V30 6852 H 674.535 1.33067 -0.627028 0
M  V30 6853 H 676.493 4.09322 0.806945 0
M  V30 6854 H 675.123 3.00997 1.16623 0
M  V30 6855 H 674.175 3.61759 -1.17621 0
M  V30 6856 H 675.487 4.80682 -1.33216 0
M  V30 6857 H 674.641 6.02855 0.681979 0
M  V30 6858 H 673.38 4.78771 0.928947 0
M  V30 6859 H 672.385 5.33995 -1.30878 0
M  V30 6860 H 673.61 6.61317 -1.54392 0
M  V30 6861 H 671.556 6.52273 0.698272 0
M  V30 6862 H 671.473 7.52637 -0.712258 0
M  V30 6863 H 672.741 7.78205 0.449102 0
M  V30 6864 N 676.97 0.677563 1.42291 0
M  V30 6865 C 677.917 0.000947061 2.308 0
M  V30 6866 C 678.887 -0.789889 1.46116 0
M  V30 6867 O 680.072 -0.761578 1.74942 0
M  V30 6868 C 677.212 -0.942387 3.31984 0
M  V30 6869 C 676.325 -0.14508 4.31756 0
M  V30 6870 C 675.46 -1.08442 5.20013 0
M  V30 6871 C 674.499 -0.278958 6.11464 0
M  V30 6872 N 673.636 -1.17115 6.92263 0
M  V30 6873 H 678.476 0.761521 2.88106 0
M  V30 6874 H 676.013 0.38727 1.41911 0
M  V30 6875 H 677.971 -1.50317 3.89179 0
M  V30 6876 H 676.601 -1.66956 2.76271 0
M  V30 6877 H 675.653 0.532368 3.76656 0
M  V30 6878 H 676.965 0.48015 4.96484 0
M  V30 6879 H 676.119 -1.71504 5.81955 0
M  V30 6880 H 674.858 -1.74353 4.55469 0
M  V30 6881 H 673.863 0.364856 5.48588 0
M  V30 6882 H 675.088 0.376099 6.78058 0
M  V30 6883 H 673.034 -1.81661 6.30345 0
M  V30 6884 H 672.951 -0.601063 7.53607 0
M  V30 6885 H 674.219 -1.78915 7.58689 0
M  V30 6886 N 678.448 -1.51871 0.421078 0
M  V30 6887 C 679.673 -2.0684 -0.152371 0
M  V30 6888 C 680.098 -1.28802 -1.37083 0
M  V30 6889 O 679.456 -0.321482 -1.78427 0
M  V30 6890 C 679.504 -3.57532 -0.469368 0
M  V30 6891 O 678.608 -3.81818 -1.55848 0
M  V30 6892 H 677.949 -0.663939 -0.00898586 0
M  V30 6893 H 680.479 -1.95674 0.597724 0
M  V30 6894 H 680.489 -4.01515 -0.724553 0
M  V30 6895 H 679.164 -4.13761 0.421276 0
M  V30 6896 H 677.741 -3.49709 -1.29453 0
M  V30 6897 N 679.926 -0.151884 -1.56866 0
M  V30 6898 C 681.174 0.497021 -1.95893 0
M  V30 6899 C 681.495 1.65078 -1.03799 0
M  V30 6900 O 680.765 1.95642 -0.10049 0
M  V30 6901 H 679.345 0.186603 -0.723318 0
M  V30 6902 H 682.007 -0.228525 -1.93556 0
M  V30 6903 H 681.103 0.869933 -2.99731 0
M  V30 6904 N 681.404 1.57128 0.121893 0
M  V30 6905 C 682.652 1.84335 0.828548 0
M  V30 6906 C 682.973 0.736632 1.80551 0
M  V30 6907 O 682.243 -0.23962 1.94429 0
M  V30 6908 H 680.823 0.680108 0.30897 0
M  V30 6909 H 683.485 1.9459 0.109906 0
M  V30 6910 H 682.581 2.80152 1.37554 0
M  V30 6911 N 682.882 -0.391992 1.52647 0
M  V30 6912 C 684.131 -1.13449 1.6677 0
M  V30 6913 C 684.444 -1.91203 0.412399 0
M  V30 6914 O 685.65 -2.68013 0.433707 0
M  V30 6915 C 684.106 -2.06577 2.9471 0
M  V30 6916 C 683.714 -1.3426 4.27409 0
M  V30 6917 C 685.458 -2.80981 3.18198 0
M  V30 6918 C 683.365 -2.26136 5.46458 0
M  V30 6919 H 682.295 -0.427211 0.621295 0
M  V30 6920 H 684.946 -0.397522 1.79142 0
M  V30 6921 H 683.328 -2.83898 2.76076 0
M  V30 6922 H 684.502 -0.621856 4.56585 0
M  V30 6923 H 682.817 -0.718279 4.10158 0
M  V30 6924 H 685.414 -3.49898 4.04321 0
M  V30 6925 H 685.757 -3.44891 2.33144 0
M  V30 6926 H 686.29 -2.10754 3.37383 0
M  V30 6927 H 683.029 -1.66846 6.33911 0
M  V30 6928 H 682.549 -2.96134 5.21598 0
M  V30 6929 H 684.228 -2.86286 5.80215 0
M  V30 6930 N 684.36 -1.4356 -0.65026 0
M  V30 6931 C 685.588 -1.48779 -1.43779 0
M  V30 6932 C 686.003 -0.106593 -1.88499 0
M  V30 6933 O 685.36 0.883766 -1.59674 0
M  V30 6934 C 685.411 -2.43618 -2.67081 0
M  V30 6935 O 685.132 -3.76367 -2.24231 0
M  V30 6936 C 686.633 -2.5811 -3.60409 0
M  V30 6937 H 683.853 -0.50521 -0.441593 0
M  V30 6938 H 686.397 -1.88332 -0.796941 0
M  V30 6939 H 684.552 -2.07253 -3.273 0
M  V30 6940 H 684.966 -4.27394 -3.0403 0
M  V30 6941 H 686.44 -3.28539 -4.43583 0
M  V30 6942 H 686.917 -1.627 -4.07953 0
M  V30 6943 H 687.523 -2.95298 -3.0607 0
M  V30 6944 N 685.838 0.888903 -1.30139 0
M  V30 6945 C 687.087 1.63507 -1.18103 0
M  V30 6946 C 687.4 1.93808 0.264141 0
M  V30 6947 O 688.606 2.66744 0.505966 0
M  V30 6948 C 687.062 2.94673 -2.0663 0
M  V30 6949 C 686.67 2.71926 -3.56034 0
M  V30 6950 C 688.414 3.72626 -2.03346 0
M  V30 6951 C 686.321 3.98884 -4.3663 0
M  V30 6952 H 685.251 0.613426 -0.438435 0
M  V30 6953 H 687.902 0.984427 -1.54859 0
M  V30 6954 H 686.284 3.61009 -1.62754 0
M  V30 6955 H 687.458 2.14116 -4.08033 0
M  V30 6956 H 685.773 2.07353 -3.61101 0
M  V30 6957 H 688.37 4.66775 -2.60816 0
M  V30 6958 H 688.713 4.03712 -1.016 0
M  V30 6959 H 689.246 3.13147 -2.45324 0
M  V30 6960 H 685.985 3.72959 -5.39056 0
M  V30 6961 H 685.505 4.56214 -3.89396 0
M  V30 6962 H 687.184 4.66938 -4.47859 0
M  V30 6963 N 687.317 1.12792 1.10072 0
M  V30 6964 C 688.542 0.908838 1.86427 0
M  V30 6965 C 688.967 -0.536793 1.80278 0
M  V30 6966 O 688.325 -1.38033 1.17543 0
M  V30 6967 C 688.373 1.39295 3.3261 0
M  V30 6968 O 687.477 0.573846 4.08388 0
M  V30 6969 H 686.818 0.326234 0.578331 0
M  V30 6970 H 689.348 1.50094 1.39043 0
M  V30 6971 H 689.358 1.39366 3.83459 0
M  V30 6972 H 688.033 2.44555 3.36401 0
M  V30 6973 H 686.61 0.640438 3.67359 0
M  V30 6974 N 688.795 -1.27931 0.920396 0
M  V30 6975 C 689.745 -2.24727 0.384966 0
M  V30 6976 C 690.729 -1.52715 -0.506661 0
M  V30 6977 O 691.921 -1.73599 -0.345298 0
M  V30 6978 C 689.05 -3.41324 -0.3678 0
M  V30 6979 C 688.136 -4.20649 0.539925 0
M  V30 6980 N 688.527 -4.77906 1.6565 0
M  V30 6981 C 686.825 -4.4469 0.341557 0
M  V30 6982 C 687.526 -5.37652 2.22047 0
M  V30 6983 N 686.502 -5.2218 1.51093 0
M  V30 6984 H 690.304 -2.66572 1.23761 0
M  V30 6985 H 687.818 -1.42779 0.773819 0
M  V30 6986 H 689.815 -4.0976 -0.768277 0
M  V30 6987 H 688.475 -3.01012 -1.21746 0
M  V30 6988 H 689.486 -4.76073 2.03899 0
M  V30 6989 H 686.163 -4.14868 -0.468045 0
M  V30 6990 H 687.553 -5.92948 3.1601 0
M  V30 6991 N 690.273 -0.685099 -1.4193 0
M  V30 6992 C 691.203 -0.0273506 -2.33484 0
M  V30 6993 C 692.184 0.778366 -1.51246 0
M  V30 6994 O 693.369 0.733449 -1.79817 0
M  V30 6995 C 690.499 0.917272 -3.34968 0
M  V30 6996 C 689.453 0.21941 -4.27437 0
M  V30 6997 C 688.779 1.27768 -5.1921 0
M  V30 6998 C 690.079 -0.907894 -5.14349 0
M  V30 6999 H 691.773 -0.791994 -2.88735 0
M  V30 7000 H 689.319 -0.382308 -1.38832 0
M  V30 7001 H 691.272 1.38657 -3.97935 0
M  V30 7002 H 689.996 1.71346 -2.78043 0
M  V30 7003 H 688.655 -0.229757 -3.65879 0
M  V30 7004 H 688.303 2.06612 -4.58607 0
M  V30 7005 H 688.003 0.815803 -5.81909 0
M  V30 7006 H 689.527 1.7477 -5.85054 0
M  V30 7007 H 690.941 -0.519348 -5.70943 0
M  V30 7008 H 689.338 -1.2962 -5.85934 0
M  V30 7009 H 690.408 -1.75218 -4.52136 0
M  V30 7010 N 691.751 1.51645 -0.429126 0
M  V30 7011 C 693.167 1.59394 -0.080994 0
M  V30 7012 C 693.367 1.44064 1.40882 0
M  V30 7013 O 692.423 1.27771 2.17786 0
M  V30 7014 C 693.736 2.94779 -0.593773 0
M  V30 7015 C 695.284 3.08067 -0.553494 0
M  V30 7016 C 695.759 4.45963 -1.04311 0
M  V30 7017 N 697.25 4.5226 -1.00076 0
M  V30 7018 C 697.985 5.57268 -1.35056 0
M  V30 7019 N 697.481 6.69734 -1.77282 0
M  V30 7020 N 699.274 5.47582 -1.26925 0
M  V30 7021 H 691.425 1.59856 -1.39857 0
M  V30 7022 H 693.688 0.753095 -0.575805 0
M  V30 7023 H 693.394 3.11342 -1.63583 0
M  V30 7024 H 693.268 3.77197 -0.0142202 0
M  V30 7025 H 695.655 2.91177 0.479556 0
M  V30 7026 H 695.736 2.27508 -1.16935 0
M  V30 7027 H 695.38 4.63598 -2.07459 0
M  V30 7028 H 695.31 5.25049 -0.403873 0
M  V30 7029 H 697.801 3.71537 -0.690564 0
M  V30 7030 H 698.114 7.4587 -2.02232 0
M  V30 7031 H 696.459 6.70963 -1.81202 0
M  V30 7032 H 699.65 4.58604 -0.93809 0
M  V30 7033 H 699.823 6.29308 -1.54516 0
M  V30 7034 N 693.229 0.160201 1.56784 0
M  V30 7035 C 694.476 -0.487588 1.96542 0
M  V30 7036 C 694.804 -1.63999 1.04569 0
M  V30 7037 O 694.059 -1.95546 0.0775211 0
M  V30 7038 C 694.358 -1.02259 3.42459 0
M  V30 7039 C 694.024 0.0127436 4.50898 0
M  V30 7040 C 692.686 0.297318 4.80281 0
M  V30 7041 C 695.038 0.716078 5.16257 0
M  V30 7042 C 692.366 1.29081 5.72324 0
M  V30 7043 C 694.718 1.69847 6.09372 0
M  V30 7044 C 693.382 1.99061 6.37127 0
M  V30 7045 H 692.652 -0.178421 0.719199 0
M  V30 7046 H 695.299 0.249818 1.89864 0
M  V30 7047 H 693.604 -1.8376 3.46034 0
M  V30 7048 H 695.301 -1.53261 3.70556 0
M  V30 7049 H 691.891 -0.219235 4.28039 0
M  V30 7050 H 696.075 0.509428 4.93679 0
M  V30 7051 H 691.331 1.52344 5.92116 0
M  V30 7052 H 695.505 2.2489 6.59088 0
M  V30 7053 H 693.132 2.76194 7.08252 0
M  V30 7054 N 694.707 -1.5719 -0.113559 0
M  V30 7055 C 695.955 -1.84772 -0.818761 0
M  V30 7056 C 696.276 -0.746196 -1.80158 0
M  V30 7057 O 695.546 0.229305 -1.94553 0
M  V30 7058 H 694.126 -0.681737 -0.305359 0
M  V30 7059 H 696.788 -1.94645 -0.0995845 0
M  V30 7060 H 695.884 -2.80878 -1.36067 0
M  V30 7061 N 696.185 0.383891 -1.52853 0
M  V30 7062 C 697.095 1.49343 -1.80925 0
M  V30 7063 C 698.111 1.59458 -0.696348 0
M  V30 7064 O 699.287 1.75698 -0.984481 0
M  V30 7065 C 696.352 2.84819 -1.97684 0
M  V30 7066 C 695.413 2.84382 -3.21598 0
M  V30 7067 C 694.646 4.13397 -3.37548 0
M  V30 7068 O 694.869 5.08619 -2.58192 0
M  V30 7069 O 693.803 4.20325 -4.30826 0
M  V30 7070 H 697.629 1.2855 -2.75152 0
M  V30 7071 H 695.214 0.572229 -1.38007 0
M  V30 7072 H 697.096 3.65125 -2.10385 0
M  V30 7073 H 695.771 3.05627 -1.06647 0
M  V30 7074 H 694.678 2.0284 -3.14336 0
M  V30 7075 H 696.011 2.68526 -4.12498 0
M  V30 7076 N 697.663 1.43903 0.642637 0
M  V30 7077 C 698.61 1.49881 1.75512 0
M  V30 7078 C 699.58 0.347538 1.62423 0
M  V30 7079 O 700.765 0.556177 1.82514 0
M  V30 7080 C 697.905 1.43797 3.13714 0
M  V30 7081 C 697.018 2.6921 3.37861 0
M  V30 7082 C 696.153 2.5504 4.6597 0
M  V30 7083 C 695.192 3.75671 4.83257 0
M  V30 7084 N 694.329 3.60247 6.02633 0
M  V30 7085 H 699.169 2.44935 1.69737 0
M  V30 7086 H 696.706 1.21572 0.828165 0
M  V30 7087 H 698.664 1.38262 3.93624 0
M  V30 7088 H 697.294 0.523173 3.18532 0
M  V30 7089 H 696.346 2.8498 2.51973 0
M  V30 7090 H 697.658 3.58786 3.46517 0
M  V30 7091 H 696.812 2.47273 5.54023 0
M  V30 7092 H 695.551 1.63006 4.59653 0
M  V30 7093 H 694.556 3.83836 3.93637 0
M  V30 7094 H 695.781 4.68728 4.91397 0
M  V30 7095 H 693.727 2.70955 5.97427 0
M  V30 7096 H 693.644 4.43431 6.12295 0
M  V30 7097 H 694.912 3.56351 6.93278 0
M  V30 7098 N 699.141 -0.881989 1.30609 0
M  V30 7099 C 700.552 -1.44956 1.17664 0
M  V30 7100 C 700.903 -1.94945 -0.221531 0
M  V30 7101 O 700.028 -1.85257 -1.11844 0
M  V30 7102 C 700.623 -2.63474 2.12995 0
M  V30 7103 C 699.182 -3.16312 2.04019 0
M  V30 7104 C 698.329 -1.89008 2.02907 0
M  V30 7105 H 701.28 -0.691645 1.42835 0
M  V30 7106 H 701.301 -3.39783 1.71253 0
M  V30 7107 H 700.813 -2.2706 3.14746 0
M  V30 7108 H 698.914 -3.57376 1.0542 0
M  V30 7109 H 699.027 -3.79409 2.9255 0
M  V30 7110 H 697.391 -2.07465 1.47751 0
M  V30 7111 H 698.174 -1.54848 3.06394 0
M  V30 7112 N 700.619 -1.13374 -1.09472 0
M  V30 7113 C 701.868 -0.889844 -1.8101 0
M  V30 7114 C 702.181 0.585686 -1.86625 0
M  V30 7115 O 703.387 0.946497 -2.54467 0
M  V30 7116 C 701.843 -1.54241 -3.25174 0
M  V30 7117 C 701.451 -3.05343 -3.27826 0
M  V30 7118 C 703.195 -1.37919 -4.0147 0
M  V30 7119 C 701.102 -3.63486 -4.6651 0
M  V30 7120 H 700.032 -0.329256 -0.678311 0
M  V30 7121 H 702.683 -1.36139 -1.23038 0
M  V30 7122 H 701.065 -0.998525 -3.83204 0
M  V30 7123 H 702.239 -3.66307 -2.79563 0
M  V30 7124 H 700.554 -3.21175 -2.65019 0
M  V30 7125 H 703.151 -1.78771 -5.03929 0
M  V30 7126 H 703.494 -0.323987 -4.15037 0
M  V30 7127 H 704.027 -1.89284 -3.49881 0
M  V30 7128 H 700.766 -4.68811 -4.58145 0
M  V30 7129 H 700.286 -3.073 -5.15099 0
M  V30 7130 H 701.965 -3.63134 -5.35484 0
M  V30 7131 N 702.098 1.27442 -0.927168 0
M  V30 7132 C 703.03 2.25975 -0.383158 0
M  V30 7133 C 704.043 1.55382 0.485832 0
M  V30 7134 O 705.232 1.75986 0.298541 0
M  V30 7135 C 702.332 3.35629 0.469688 0
M  V30 7136 C 701.505 4.35747 -0.379886 0
M  V30 7137 C 700.564 5.24598 0.410227 0
M  V30 7138 O 699.59 5.68909 -0.181888 0
M  V30 7139 N 700.792 5.54737 1.71017 0
M  V30 7140 H 703.557 2.7329 -1.23015 0
M  V30 7141 H 701.118 1.41063 -0.794539 0
M  V30 7142 H 703.11 3.92015 1.00532 0
M  V30 7143 H 701.68 2.87919 1.21744 0
M  V30 7144 H 700.9 3.78634 -1.09682 0
M  V30 7145 H 702.188 4.99648 -0.960717 0
M  V30 7146 H 701.586 5.20594 2.21356 0
M  V30 7147 H 700.143 6.13824 2.19234 0
M  V30 7148 N 703.576 0.692616 1.41565 0
M  V30 7149 C 704.801 0.229776 2.06123 0
M  V30 7150 C 705.226 -1.11119 1.5177 0
M  V30 7151 O 704.584 -1.69498 0.643444 0
M  V30 7152 C 704.632 0.19469 3.60074 0
M  V30 7153 O 703.736 -0.831366 4.03933 0
M  V30 7154 H 703.077 0.113002 0.654314 0
M  V30 7155 H 705.607 0.946645 1.81383 0
M  V30 7156 H 705.617 0.0245487 4.07993 0
M  V30 7157 H 704.292 1.17339 3.99004 0
M  V30 7158 H 702.869 -0.630819 3.67526 0
M  V30 7159 N 705.054 -1.51416 0.437162 0
M  V30 7160 C 706.282 -2.06503 -0.128045 0
M  V30 7161 C 706.697 -1.30461 -1.36475 0
M  V30 7162 O 706.054 -0.364127 -1.78831 0
M  V30 7163 C 706.105 -3.58683 -0.450437 0
M  V30 7164 O 705.826 -4.31853 0.737186 0
M  V30 7165 C 707.327 -4.30284 -1.06633 0
M  V30 7166 H 704.547 -0.670952 -0.00800269 0
M  V30 7167 H 707.091 -1.94996 0.616193 0
M  V30 7168 H 705.246 -3.70106 -1.14457 0
M  V30 7169 H 705.66 -5.22467 0.461347 0
M  V30 7170 H 707.134 -5.37848 -1.24191 0
M  V30 7171 H 707.611 -3.88564 -2.0473 0
M  V30 7172 H 708.217 -4.23304 -0.411585 0
M  V30 7173 N 706.532 -0.168513 -1.56696 0
M  V30 7174 C 707.762 0.482802 -2.0088 0
M  V30 7175 C 708.17 1.57537 -1.0478 0
M  V30 7176 O 707.513 1.83656 -0.0402746 0
M  V30 7177 C 707.575 1.1236 -3.4149 0
M  V30 7178 C 707.239 0.173027 -4.56672 0
M  V30 7179 C 708.236 -0.607565 -5.16338 0
M  V30 7180 C 705.921 0.0696691 -5.02252 0
M  V30 7181 C 707.915 -1.47874 -6.2001 0
M  V30 7182 C 705.602 -0.805096 -6.05773 0
M  V30 7183 C 706.6 -1.57789 -6.64524 0
M  V30 7184 O 706.288 -2.43804 -7.66038 0
M  V30 7185 H 706.02 0.128246 -0.663723 0
M  V30 7186 H 708.574 -0.266532 -2.03663 0
M  V30 7187 H 706.804 1.921 -3.35611 0
M  V30 7188 H 708.493 1.67683 -3.69645 0
M  V30 7189 H 709.259 -0.53787 -4.82008 0
M  V30 7190 H 705.138 0.660957 -4.56237 0
M  V30 7191 H 708.682 -2.0824 -6.65794 0
M  V30 7192 H 704.579 -0.876005 -6.39528 0
M  V30 7193 H 705.347 -2.37289 -7.83349 0
M  V30 7194 N 708.01 1.57248 0.105221 0
M  V30 7195 C 708.94 2.04374 1.12931 0
M  V30 7196 C 709.921 0.93074 1.42377 0
M  V30 7197 O 711.106 1.20136 1.52581 0
M  V30 7198 C 708.236 2.45967 2.45189 0
M  V30 7199 C 707.19 3.60838 2.30174 0
M  V30 7200 C 706.516 3.88374 3.67518 0
M  V30 7201 C 707.816 4.92084 1.75073 0
M  V30 7202 H 709.51 2.9018 0.737287 0
M  V30 7203 H 707.056 1.39601 0.353211 0
M  V30 7204 H 709.009 2.77542 3.17094 0
M  V30 7205 H 707.733 1.57148 2.86308 0
M  V30 7206 H 706.392 3.29493 1.60716 0
M  V30 7207 H 706.04 2.96739 4.06147 0
M  V30 7208 H 705.74 4.65703 3.58321 0
M  V30 7209 H 707.264 4.22415 4.40906 0
M  V30 7210 H 708.678 5.22106 2.36809 0
M  V30 7211 H 707.075 5.73507 1.76662 0
M  V30 7212 H 708.145 4.79684 0.709347 0
M  V30 7213 N 709.488 -0.375779 1.53054 0
M  V30 7214 C 710.734 -1.12114 1.68992 0
M  V30 7215 C 711.067 -1.8926 0.435238 0
M  V30 7216 O 710.342 -1.86044 -0.567278 0
M  V30 7217 C 710.625 -2.08867 2.93337 0
M  V30 7218 C 710.478 -1.35397 4.28938 0
M  V30 7219 C 711.797 -3.09124 3.13257 0
M  V30 7220 H 708.916 -0.406207 0.614951 0
M  V30 7221 H 711.558 -0.403054 1.85676 0
M  V30 7222 H 709.708 -2.70102 2.79244 0
M  V30 7223 H 711.38 -0.770242 4.54824 0
M  V30 7224 H 709.623 -0.655801 4.28814 0
M  V30 7225 H 710.294 -2.06161 5.12056 0
M  V30 7226 H 712.77 -2.57987 3.26469 0
M  V30 7227 H 711.646 -3.74054 4.01715 0
M  V30 7228 H 711.907 -3.78729 2.28072 0
M  V30 7229 N 710.966 -1.44241 -0.634997 0
M  V30 7230 C 711.914 -1.51103 -1.76835 0
M  V30 7231 C 712.908 -0.383051 -1.65012 0
M  V30 7232 O 714.114 -0.557832 -1.71138 0
M  V30 7233 H 710.489 -0.474076 -0.583743 0
M  V30 7234 H 712.46 -2.46499 -1.68169 0
M  V30 7235 C 711.209 -1.4687 -3.15158 0
M  V30 7236 H 710.532 -2.32979 -3.24901 0
M  V30 7237 H 711.972 -1.55731 -3.94365 0
M  V30 7238 C 710.431 -0.188884 -3.3637 0
M  V30 7239 O 710.961 0.742487 -3.94778 0
M  V30 7240 N 709.167 -0.0932516 -2.9045 0
M  V30 7241 H 708.714 -0.852004 -2.43102 0
M  V30 7242 H 708.672 0.762308 -3.05018 0
M  V30 7243 N 712.444 0.87505 -1.31075 0
M  V30 7244 C 713.86 1.15997 -1.09622 0
M  V30 7245 C 714.06 2.01036 0.136611 0
M  V30 7246 O 713.116 2.38559 0.827397 0
M  V30 7247 C 714.429 1.85702 -2.36506 0
M  V30 7248 C 715.977 1.98425 -2.42067 0
M  V30 7249 C 716.452 2.71544 -3.68819 0
M  V30 7250 N 717.943 2.79084 -3.69684 0
M  V30 7251 C 718.678 3.36259 -4.64454 0
M  V30 7252 N 718.174 3.94406 -5.69575 0
M  V30 7253 N 719.967 3.34169 -4.51982 0
M  V30 7254 H 712.118 0.308258 -2.10151 0
M  V30 7255 H 714.381 0.199145 -0.926847 0
M  V30 7256 H 714.087 1.30663 -3.26527 0
M  V30 7257 H 713.961 2.86017 -2.45915 0
M  V30 7258 H 716.348 2.5263 -1.52518 0
M  V30 7259 H 716.429 0.971682 -2.36626 0
M  V30 7260 H 716.073 2.18008 -4.58732 0
M  V30 7261 H 716.003 3.73198 -3.71525 0
M  V30 7262 H 718.494 2.3781 -2.93691 0
M  V30 7263 H 718.807 4.36129 -6.37974 0
M  V30 7264 H 717.152 3.92797 -5.73355 0
M  V30 7265 H 720.343 2.87977 -3.69035 0
M  V30 7266 H 720.516 3.78431 -5.26017 0
M  V30 7267 N 713.922 1.13953 1.08869 0
M  V30 7268 C 714.885 0.824991 2.13838 0
M  V30 7269 C 715.885 -0.168198 1.59918 0
M  V30 7270 O 717.075 0.0595778 1.74098 0
M  V30 7271 C 714.207 0.228938 3.4013 0
M  V30 7272 H 715.4 1.75521 2.43171 0
M  V30 7273 H 712.953 0.94492 1.24503 0
M  V30 7274 H 713.688 -0.710227 3.16427 0
M  V30 7275 H 713.473 0.944243 3.80561 0
M  V30 7276 H 714.963 0.0259223 4.17592 0
M  V30 7277 N 715.4 -1.26948 0.933913 0
M  V30 7278 C 716.677 -1.89212 0.495784 0
M  V30 7279 C 717.057 -1.84469 -1.02637 0
M  V30 7280 O 716.405 -1.29409 -1.88323 0
M  V30 7281 C 716.615 -3.32865 1.0489 0
M  V30 7282 C 717.963 -4.09749 1.11315 0
M  V30 7283 O 718.987 -3.41905 0.998966 0
M  V30 7284 O 717.846 -5.31061 1.28983 0
M  V30 7285 H 714.94 -0.811284 0.160459 0
M  V30 7286 H 717.486 -1.35171 1.02601 0
M  V30 7287 H 716.258 -3.30642 2.09265 0
M  V30 7288 H 715.881 -3.94435 0.500692 0
M  V30 7289 N 716.879 -0.700114 -1.41195 0
M  V30 7290 C 718.109 -0.241828 -2.0518 0
M  V30 7291 C 718.517 1.1157 -1.52803 0
M  V30 7292 O 717.86 1.70926 -0.673042 0
M  V30 7293 C 717.922 -0.12695 -3.59276 0
M  V30 7294 C 717.586 -1.41725 -4.34469 0
M  V30 7295 C 718.583 -2.35604 -4.63451 0
M  V30 7296 C 716.268 -1.67189 -4.73659 0
M  V30 7297 C 718.262 -3.53204 -5.3059 0
M  V30 7298 C 715.949 -2.85073 -5.40534 0
M  V30 7299 C 716.947 -3.77904 -5.68927 0
M  V30 7300 O 716.635 -4.93723 -6.34424 0
M  V30 7301 H 716.367 -0.109247 -0.667114 0
M  V30 7302 H 718.921 -0.954538 -1.81873 0
M  V30 7303 H 717.151 0.641571 -3.81341 0
M  V30 7304 H 718.84 0.294748 -4.04828 0
M  V30 7305 H 719.606 -2.1719 -4.33651 0
M  V30 7306 H 715.485 -0.957935 -4.50937 0
M  V30 7307 H 719.029 -4.25679 -5.52669 0
M  V30 7308 H 714.926 -3.03402 -5.69752 0
M  V30 7309 H 715.694 -4.93597 -6.5292 0
M  V30 7310 N 718.357 1.51182 -0.445186 0
M  V30 7311 C 719.603 2.02452 0.11882 0
M  V30 7312 C 719.936 1.32824 1.41673 0
M  V30 7313 O 719.211 0.445637 1.89326 0
M  V30 7314 C 719.494 3.5859 0.329475 0
M  V30 7315 C 719.347 4.38823 -0.987638 0
M  V30 7316 C 720.666 4.26241 1.09575 0
M  V30 7317 H 717.785 0.735819 0.0417092 0
M  V30 7318 H 720.427 1.80747 -0.585718 0
M  V30 7319 H 718.577 3.77214 0.9296 0
M  V30 7320 H 720.249 4.3183 -1.62235 0
M  V30 7321 H 718.492 4.03594 -1.59041 0
M  V30 7322 H 719.163 5.46257 -0.794192 0
M  V30 7323 H 721.639 4.11934 0.587328 0
M  V30 7324 H 720.515 5.35354 1.21191 0
M  V30 7325 H 720.776 3.87635 2.12584 0
M  V30 7326 N 719.835 0.176821 1.56605 0
M  V30 7327 C 720.798 -0.737429 2.17013 0
M  V30 7328 C 721.798 -1.15414 1.11965 0
M  V30 7329 O 722.988 -1.0702 1.37449 0
M  V30 7330 C 720.12 -2.00445 2.75744 0
M  V30 7331 H 721.313 -0.211455 2.99154 0
M  V30 7332 H 718.866 -0.0727582 1.56131 0
M  V30 7333 H 719.601 -2.57338 1.97352 0
M  V30 7334 H 719.386 -1.71456 3.52626 0
M  V30 7335 H 720.876 -2.65679 3.22187 0
M  V30 7336 N 721.313 -1.57302 -0.09688 0
M  V30 7337 C 722.553 -1.87823 -0.806334 0
M  V30 7338 C 722.917 -0.767593 -1.75989 0
M  V30 7339 O 724.118 -0.955173 -2.51257 0
M  V30 7340 C 722.389 -3.23585 -1.51749 0
M  V30 7341 S 723.948 -3.75795 -2.26547 0
M  V30 7342 H 720.766 -0.658281 -0.268676 0
M  V30 7343 H 723.368 -1.95397 -0.0635476 0
M  V30 7344 H 722.072 -4.0234 -0.809348 0
M  V30 7345 H 721.603 -3.19145 -2.30021 0
M  V30 7346 H 723.618 -3.49068 -3.52656 0
M  V30 7347 N 722.791 0.367657 -1.53252 0
M  V30 7348 C 723.741 1.45035 -1.75923 0
M  V30 7349 C 724.725 1.48736 -0.613719 0
M  V30 7350 O 725.917 1.54012 -0.872313 0
M  V30 7351 C 723.046 2.82493 -1.9507 0
M  V30 7352 C 722.132 2.83279 -3.15617 0
M  V30 7353 N 722.523 2.53712 -4.37566 0
M  V30 7354 C 720.821 3.1444 -3.16297 0
M  V30 7355 C 721.522 2.62123 -5.19294 0
M  V30 7356 N 720.498 2.96747 -4.55458 0
M  V30 7357 H 724.3 1.21035 -2.6782 0
M  V30 7358 H 721.814 0.575822 -1.51849 0
M  V30 7359 H 723.811 3.60473 -2.0944 0
M  V30 7360 H 722.471 3.07459 -1.044 0
M  V30 7361 H 723.482 2.27344 -4.65333 0
M  V30 7362 H 720.159 3.44733 -2.35511 0
M  V30 7363 H 721.549 2.42628 -6.26563 0
M  V30 7364 N 724.269 1.44576 0.627338 0
M  V30 7365 C 725.217 1.52039 1.76031 0
M  V30 7366 C 726.211 0.391796 1.64807 0
M  V30 7367 O 727.417 0.5669 1.7084 0
M  V30 7368 H 723.792 0.477165 0.581221 0
M  V30 7369 H 725.763 2.47387 1.6686 0
M  V30 7370 C 724.512 1.48539 3.14375 0
M  V30 7371 H 723.835 2.34699 3.23661 0
M  V30 7372 H 725.275 1.57821 3.93534 0
M  V30 7373 C 723.734 0.20672 3.36265 0
M  V30 7374 O 724.264 -0.72154 3.95167 0
M  V30 7375 N 722.47 0.108654 2.90397 0
M  V30 7376 H 722.017 0.864884 2.42647 0
M  V30 7377 H 721.975 -0.746121 3.05418 0
M  V30 7378 N 725.747 -0.868086 1.31537 0
M  V30 7379 C 727.158 -1.437 1.19195 0
M  V30 7380 C 727.509 -1.95169 -0.200842 0
M  V30 7381 O 726.634 -1.86432 -1.09872 0
M  V30 7382 C 727.229 -2.612 2.15778 0
M  V30 7383 C 725.788 -3.1413 2.07363 0
M  V30 7384 C 724.935 -1.86845 2.049 0
M  V30 7385 H 727.886 -0.676457 1.43561 0
M  V30 7386 H 727.907 -3.37948 1.74847 0
M  V30 7387 H 727.419 -2.23709 3.17137 0
M  V30 7388 H 725.52 -3.56238 1.09204 0
M  V30 7389 H 725.633 -3.76285 2.96557 0
M  V30 7390 H 723.997 -2.05886 1.49943 0
M  V30 7391 H 724.78 -1.51589 3.08019 0
M  V30 7392 N 727.225 -1.14528 -1.08264 0
M  V30 7393 C 728.188 -0.83632 -2.13397 0
M  V30 7394 C 729.188 0.159715 -1.60005 0
M  V30 7395 O 730.378 -0.0688098 -1.74064 0
M  V30 7396 C 727.51 -0.246973 -3.40004 0
M  V30 7397 H 728.703 -1.76808 -2.42237 0
M  V30 7398 H 726.256 -0.951509 -1.24 0
M  V30 7399 H 726.991 0.693436 -3.168 0
M  V30 7400 H 726.776 -0.964412 -3.80055 0
M  V30 7401 H 728.266 -0.0480679 -4.17572 0
M  V30 7402 N 728.703 1.26451 -0.940633 0
M  V30 7403 C 729.933 1.97581 -0.603766 0
M  V30 7404 C 730.341 1.70246 0.825395 0
M  V30 7405 O 729.684 0.967001 1.56188 0
M  V30 7406 C 729.746 3.51256 -0.765463 0
M  V30 7407 C 729.41 4.0224 -2.16915 0
M  V30 7408 C 730.407 4.1402 -3.14457 0
M  V30 7409 C 728.092 4.36263 -2.48958 0
M  V30 7410 C 730.086 4.59117 -4.42143 0
M  V30 7411 C 727.773 4.81048 -3.76877 0
M  V30 7412 C 728.771 4.92436 -4.73282 0
M  V30 7413 O 728.459 5.36234 -5.98923 0
M  V30 7414 H 728.191 0.636948 -0.226436 0
M  V30 7415 H 730.745 1.61941 -1.2635 0
M  V30 7416 H 728.975 3.86669 -0.0485956 0
M  V30 7417 H 730.664 4.03597 -0.431738 0
M  V30 7418 H 731.43 3.87981 -2.91026 0
M  V30 7419 H 727.309 4.26634 -1.74656 0
M  V30 7420 H 730.853 4.6792 -5.17394 0
M  V30 7421 H 726.75 5.06531 -4.00121 0
M  V30 7422 H 727.518 5.54456 -6.02097 0
M  V30 7423 N 730.181 0.707592 1.40822 0
M  V30 7424 C 731.427 0.244031 2.01326 0
M  V30 7425 C 731.76 -1.15722 1.55955 0
M  V30 7426 O 731.035 -1.78347 0.776044 0
M  V30 7427 C 731.318 0.315128 3.58718 0
M  V30 7428 C 731.171 1.75419 4.14184 0
M  V30 7429 C 732.49 -0.318251 4.38948 0
M  V30 7430 H 729.609 0.0901471 0.731466 0
M  V30 7431 H 732.251 0.898584 1.67408 0
M  V30 7432 H 730.401 -0.242176 3.87744 0
M  V30 7433 H 732.073 2.36626 3.95987 0
M  V30 7434 H 730.316 2.28449 3.68773 0
M  V30 7435 H 730.987 1.75538 5.23345 0
M  V30 7436 H 733.463 0.156514 4.15806 0
M  V30 7437 H 732.339 -0.238019 5.48384 0
M  V30 7438 H 732.6 -1.40067 4.19325 0
M  V30 7439 N 731.66 -1.50943 0.453197 0
M  V30 7440 C 732.908 -2.01813 -0.107709 0
M  V30 7441 C 733.229 -1.33841 -1.41816 0
M  V30 7442 O 732.499 -0.477973 -1.8998 0
M  V30 7443 H 731.079 -0.745773 -0.0427948 0
M  V30 7444 H 733.741 -1.8545 0.599531 0
M  V30 7445 H 732.837 -3.10911 -0.27218 0
M  V30 7446 N 733.138 -0.185124 -1.56509 0
M  V30 7447 C 734.387 0.456421 -1.96468 0
M  V30 7448 C 734.7 1.63448 -1.07444 0
M  V30 7449 O 735.906 2.34316 -1.37143 0
M  V30 7450 C 734.362 0.863404 -3.4939 0
M  V30 7451 C 733.97 -0.289815 -4.47062 0
M  V30 7452 C 735.714 1.47259 -3.98139 0
M  V30 7453 C 733.621 0.137571 -5.9124 0
M  V30 7454 H 732.551 0.17429 -0.733579 0
M  V30 7455 H 735.202 -0.275554 -1.81419 0
M  V30 7456 H 733.584 1.65176 -3.59907 0
M  V30 7457 H 734.758 -1.06728 -4.4827 0
M  V30 7458 H 733.073 -0.809851 -4.08449 0
M  V30 7459 H 735.67 1.80463 -5.03326 0
M  V30 7460 H 736.013 2.3755 -3.41871 0
M  V30 7461 H 736.546 0.748405 -3.90696 0
M  V30 7462 H 733.285 -0.730907 -6.51412 0
M  V30 7463 H 732.805 0.8801 -5.93308 0
M  V30 7464 H 734.484 0.576771 -6.44424 0
M  V30 7465 N 734.616 1.57351 0.0885366 0
M  V30 7466 C 735.846 1.90355 0.80303 0
M  V30 7467 C 736.254 0.777678 1.72478 0
M  V30 7468 O 735.597 -0.258908 1.81866 0
M  V30 7469 C 735.659 3.18674 1.66395 0
M  V30 7470 C 735.323 4.4778 0.913327 0
M  V30 7471 C 736.32 5.19345 0.240148 0
M  V30 7472 C 734.005 4.94434 0.885462 0
M  V30 7473 C 735.999 6.35803 -0.450854 0
M  V30 7474 C 733.686 6.10802 0.190679 0
M  V30 7475 C 734.684 6.81337 -0.476295 0
M  V30 7476 O 734.372 7.95488 -1.15992 0
M  V30 7477 H 734.104 0.634035 0.234469 0
M  V30 7478 H 736.658 2.05287 0.0681959 0
M  V30 7479 H 734.888 2.99906 2.44117 0
M  V30 7480 H 736.577 3.37458 2.2556 0
M  V30 7481 H 737.343 4.84339 0.253092 0
M  V30 7482 H 733.222 4.39417 1.39406 0
M  V30 7483 H 736.766 6.90795 -0.972019 0
M  V30 7484 H 732.663 6.45261 0.175603 0
M  V30 7485 H 733.431 8.11509 -1.06749 0
M  V30 7486 N 736.094 -0.359525 1.53444 0
M  V30 7487 C 737.371 -1.11756 1.6053 0
M  V30 7488 C 737.751 -2.06949 0.416587 0
M  V30 7489 O 737.099 -2.20681 -0.592628 0
M  V30 7490 C 737.309 -1.85133 2.95849 0
M  V30 7491 C 738.657 -2.3945 3.50641 0
M  V30 7492 O 739.681 -1.95251 2.97918 0
M  V30 7493 O 738.54 -3.20266 4.42823 0
M  V30 7494 H 735.634 -0.513005 0.648656 0
M  V30 7495 H 738.18 -0.362301 1.65787 0
M  V30 7496 H 736.952 -1.15694 3.73806 0
M  V30 7497 H 736.575 -2.67554 2.9411 0
M  V30 7498 N 737.572 -1.44907 -0.619662 0
M  V30 7499 C 738.821 -1.47569 -1.37501 0
M  V30 7500 C 739.134 -0.116707 -1.95252 0
M  V30 7501 O 740.34 -0.020909 -2.71492 0
M  V30 7502 C 738.796 -2.59851 -2.49009 0
M  V30 7503 C 738.404 -4.02008 -1.97722 0
M  V30 7504 C 740.148 -2.71746 -3.2612 0
M  V30 7505 C 738.055 -5.05693 -3.0664 0
M  V30 7506 H 736.985 -0.549068 -0.51676 0
M  V30 7507 H 739.636 -1.71009 -0.665437 0
M  V30 7508 H 738.018 -2.29671 -3.22594 0
M  V30 7509 H 739.192 -4.41809 -1.30925 0
M  V30 7510 H 737.507 -3.94456 -1.33392 0
M  V30 7511 H 740.104 -3.46382 -4.07337 0
M  V30 7512 H 740.447 -1.77959 -3.76346 0
M  V30 7513 H 740.98 -3.01392 -2.5963 0
M  V30 7514 H 737.719 -6.01148 -2.61345 0
M  V30 7515 H 737.239 -4.70473 -3.72042 0
M  V30 7516 H 738.918 -5.29906 -3.71226 0
M  V30 7517 N 739.05 0.861098 -1.31996 0
M  V30 7518 C 739.98 1.98482 -1.22993 0
M  V30 7519 C 740.961 1.6971 -0.115168 0
M  V30 7520 O 742.146 1.91849 -0.30126 0
M  V30 7521 C 739.276 3.34179 -0.945615 0
M  V30 7522 C 738.23 3.77284 -2.02091 0
M  V30 7523 C 737.556 5.1054 -1.58912 0
M  V30 7524 C 738.856 3.93439 -3.43515 0
M  V30 7525 H 740.55 2.06271 -2.17008 0
M  V30 7526 H 738.096 0.991043 -1.04472 0
M  V30 7527 H 740.049 4.12338 -0.869206 0
M  V30 7528 H 738.773 3.26586 0.0301849 0
M  V30 7529 H 737.432 3.01371 -2.08737 0
M  V30 7530 H 737.08 4.99397 -0.600942 0
M  V30 7531 H 736.78 5.40352 -2.30854 0
M  V30 7532 H 738.304 5.91199 -1.52696 0
M  V30 7533 H 739.718 4.6197 -3.39495 0
M  V30 7534 H 738.115 4.34661 -4.13751 0
M  V30 7535 H 739.185 2.96548 -3.8365 0
M  V30 7536 N 740.528 1.15101 1.07655 0
M  V30 7537 C 741.438 0.858869 2.18313 0
M  V30 7538 C 742.454 -0.163641 1.73229 0
M  V30 7539 O 743.63 0.00969541 2.01398 0
M  V30 7540 C 740.695 0.34893 3.4494 0
M  V30 7541 C 739.756 1.43495 4.04608 0
M  V30 7542 C 738.989 0.949253 5.2519 0
M  V30 7543 O 739.212 -0.20636 5.70027 0
M  V30 7544 O 738.146 1.73161 5.76454 0
M  V30 7545 H 741.972 1.78386 2.45788 0
M  V30 7546 H 739.557 0.929876 1.16934 0
M  V30 7547 H 741.439 0.070851 4.2134 0
M  V30 7548 H 740.114 -0.548237 3.19024 0
M  V30 7549 H 739.021 1.7666 3.29761 0
M  V30 7550 H 740.354 2.30692 4.3479 0
M  V30 7551 N 742.006 -1.2595 0.947325 0
M  V30 7552 C 743.254 -1.93081 0.596996 0
M  V30 7553 C 743.575 -1.74632 -0.867672 0
M  V30 7554 O 742.845 -1.1056 -1.6172 0
M  V30 7555 H 741.425 -0.714542 0.217805 0
M  V30 7556 H 744.087 -1.53265 1.20398 0
M  V30 7557 H 743.183 -3.01134 0.82004 0
M  V30 7558 N 743.484 -0.715051 -1.40445 0
M  V30 7559 C 744.733 -0.251322 -2.00128 0
M  V30 7560 C 745.046 1.16194 -1.57347 0
M  V30 7561 O 746.252 1.72416 -2.09726 0
M  V30 7562 C 744.708 -0.398407 -3.57688 0
M  V30 7563 C 744.316 -1.81828 -4.09442 0
M  V30 7564 C 746.06 0.00455625 -4.245 0
M  V30 7565 C 743.967 -1.91598 -5.59503 0
M  V30 7566 H 742.897 -0.0902081 -0.748584 0
M  V30 7567 H 745.548 -0.886062 -1.6069 0
M  V30 7568 H 743.93 0.304908 -3.94824 0
M  V30 7569 H 745.104 -2.55193 -3.83684 0
M  V30 7570 H 743.419 -2.17266 -3.55225 0
M  V30 7571 H 746.016 -0.0477303 -5.34679 0
M  V30 7572 H 746.359 1.04636 -4.02935 0
M  V30 7573 H 746.892 -0.649184 -3.92467 0
M  V30 7574 H 743.631 -2.93898 -5.85922 0
M  V30 7575 H 743.151 -1.22644 -5.87127 0
M  V30 7576 H 744.83 -1.68785 -6.24596 0
M  V30 7577 N 744.962 1.50701 -0.461195 0
M  V30 7578 C 745.909 2.2831 0.338094 0
M  V30 7579 C 746.879 1.32928 0.995957 0
M  V30 7580 O 748.064 1.61857 1.0103 0
M  V30 7581 C 745.204 3.14539 1.41983 0
M  V30 7582 C 744.317 4.24942 0.77773 0
M  V30 7583 C 743.452 4.98443 1.83652 0
M  V30 7584 C 742.491 6.00733 1.17413 0
M  V30 7585 N 741.628 6.6755 2.17533 0
M  V30 7586 H 746.468 2.96167 -0.330051 0
M  V30 7587 H 744.005 1.4606 -0.174611 0
M  V30 7588 H 745.963 3.62877 2.05855 0
M  V30 7589 H 744.593 2.48749 2.05727 0
M  V30 7590 H 743.645 3.80391 0.0266924 0
M  V30 7591 H 744.957 4.98151 0.254362 0
M  V30 7592 H 744.111 5.50449 2.55129 0
M  V30 7593 H 742.85 4.24917 2.39367 0
M  V30 7594 H 741.855 5.47997 0.444944 0
M  V30 7595 H 743.08 6.76227 0.624006 0
M  V30 7596 H 741.026 5.96823 2.72284 0
M  V30 7597 H 740.943 7.36603 1.70154 0
M  V30 7598 H 742.211 7.24178 2.88421 0
M  V30 7599 N 746.441 0.193421 1.56409 0
M  V30 7600 C 747.718 -0.493318 1.89277 0
M  V30 7601 C 748.098 -1.79765 1.10669 0
M  V30 7602 O 747.446 -2.27558 0.207274 0
M  V30 7603 C 747.656 -0.713732 3.41624 0
M  V30 7604 C 749.004 -1.03385 4.11821 0
M  V30 7605 O 750.028 -0.801511 3.47065 0
M  V30 7606 O 748.887 -1.47327 5.26267 0
M  V30 7607 H 745.981 -0.256973 0.786062 0
M  V30 7608 H 748.527 0.23351 1.68086 0
M  V30 7609 H 747.299 0.207446 3.9075 0
M  V30 7610 H 746.922 -1.49308 3.68501 0
M  V30 7611 N 747.919 -1.57396 -0.0801906 0
M  V30 7612 C 749.167 -1.86467 -0.779384 0
M  V30 7613 C 749.488 -0.784243 -1.78535 0
M  V30 7614 O 748.758 0.187986 -1.94996 0
M  V30 7615 H 747.338 -0.68806 -0.29083 0
M  V30 7616 H 750 -1.94813 -0.0582749 0
M  V30 7617 H 749.096 -2.83701 -1.30078 0
M  V30 7618 N 749.397 0.351382 -1.53633 0
M  V30 7619 C 750.645 1.09034 -1.70165 0
M  V30 7620 C 750.966 1.89413 -0.463422 0
M  V30 7621 O 750.236 1.888 0.522624 0
M  V30 7622 H 748.816 0.405522 -0.627344 0
M  V30 7623 H 751.478 0.394554 -1.90865 0
M  V30 7624 H 750.574 1.77215 -2.56907 0
M  V30 7625 N 750.875 1.45233 0.611969 0
M  V30 7626 C 752.103 1.52539 1.39784 0
M  V30 7627 C 752.518 0.156533 1.8815 0
M  V30 7628 O 751.875 -0.84112 1.61961 0
M  V30 7629 C 751.926 2.50614 2.60528 0
M  V30 7630 O 751.647 3.8218 2.14173 0
M  V30 7631 C 753.148 2.67574 3.53439 0
M  V30 7632 H 750.368 0.51674 0.428043 0
M  V30 7633 H 752.912 1.90379 0.746727 0
M  V30 7634 H 751.067 2.15858 3.2169 0
M  V30 7635 H 751.481 4.35305 2.92592 0
M  V30 7636 H 752.955 3.40184 4.34717 0
M  V30 7637 H 753.432 1.73458 4.03496 0
M  V30 7638 H 754.038 3.0331 2.98133 0
M  V30 7639 N 752.353 -0.854086 1.3245 0
M  V30 7640 C 753.6 -1.60831 1.23043 0
M  V30 7641 C 753.928 -1.93389 -0.2076 0
M  V30 7642 O 753.183 -1.5756 -1.16075 0
M  V30 7643 C 753.482 -2.93746 2.03587 0
M  V30 7644 C 753.148 -2.80615 3.52939 0
M  V30 7645 C 751.81 -2.76742 3.93659 0
M  V30 7646 C 754.162 -2.66507 4.4791 0
M  V30 7647 C 751.49 -2.56638 5.27592 0
M  V30 7648 C 753.842 -2.47939 5.81987 0
M  V30 7649 C 752.506 -2.42458 6.21909 0
M  V30 7650 H 751.776 -0.588523 0.450247 0
M  V30 7651 H 754.423 -0.990699 1.63882 0
M  V30 7652 H 752.728 -3.5963 1.55478 0
M  V30 7653 H 754.425 -3.51127 1.93677 0
M  V30 7654 H 751.015 -2.84456 3.20598 0
M  V30 7655 H 755.199 -2.68544 4.1737 0
M  V30 7656 H 750.455 -2.50831 5.57579 0
M  V30 7657 H 754.629 -2.36002 6.55192 0
M  V30 7658 H 752.256 -2.2664 7.2563 0
M  V30 7659 N 753.831 -1.1567 -1.07043 0
M  V30 7660 C 755.077 -0.9349 -1.79965 0
M  V30 7661 C 755.41 0.536464 -1.86643 0
M  V30 7662 O 754.685 1.39781 -1.35247 0
M  V30 7663 C 754.968 -1.55371 -3.24857 0
M  V30 7664 C 754.821 -3.09589 -3.26305 0
M  V30 7665 C 756.14 -1.24209 -4.22209 0
M  V30 7666 H 753.259 -0.341061 -0.653335 0
M  V30 7667 H 755.901 -1.42883 -1.25237 0
M  V30 7668 H 754.051 -1.13368 -3.71591 0
M  V30 7669 H 755.723 -3.60521 -2.87789 0
M  V30 7670 H 753.966 -3.43315 -2.65174 0
M  V30 7671 H 754.637 -3.48002 -4.28484 0
M  V30 7672 H 757.113 -1.60548 -3.8388 0
M  V30 7673 H 755.989 -1.70119 -5.21872 0
M  V30 7674 H 756.25 -0.15964 -4.41812 0
M  V30 7675 N 755.309 1.25446 -0.953992 0
M  V30 7676 C 756.239 2.28264 -0.491717 0
M  V30 7677 C 757.22 1.63717 0.461617 0
M  V30 7678 O 758.405 1.90821 0.36071 0
M  V30 7679 C 755.535 3.46525 0.231915 0
M  V30 7680 C 754.489 4.23247 -0.636098 0
M  V30 7681 C 753.815 5.34254 0.218238 0
M  V30 7682 C 755.115 4.85971 -1.91389 0
M  V30 7683 H 756.809 2.67183 -1.35106 0
M  V30 7684 H 754.355 1.2844 -0.651095 0
M  V30 7685 H 756.308 4.17576 0.566439 0
M  V30 7686 H 755.032 3.06594 1.12551 0
M  V30 7687 H 753.691 3.53978 -0.953696 0
M  V30 7688 H 753.339 4.90564 1.11156 0
M  V30 7689 H 753.039 5.86501 -0.359232 0
M  V30 7690 H 754.563 6.08138 0.547743 0
M  V30 7691 H 755.977 5.49168 -1.64581 0
M  V30 7692 H 754.374 5.48391 -2.43696 0
M  V30 7693 H 755.444 4.08192 -2.61738 0
M  V30 7694 N 756.787 0.722489 1.40064 0
M  V30 7695 C 757.735 0.063329 2.32514 0
M  V30 7696 C 758.729 -0.73953 1.52405 0
M  V30 7697 O 759.935 -0.642122 1.68157 0
M  V30 7698 H 756.31 0.00167692 0.751998 0
M  V30 7699 H 758.281 0.859656 2.85749 0
M  V30 7700 C 757.03 -0.839219 3.3742 0
M  V30 7701 H 756.353 -0.230836 3.99133 0
M  V30 7702 H 757.793 -1.26827 4.04587 0
M  V30 7703 C 756.252 -1.96783 2.73456 0
M  V30 7704 O 756.782 -3.05933 2.60323 0
M  V30 7705 N 754.988 -1.75351 2.31734 0
M  V30 7706 H 754.535 -0.865787 2.42615 0
M  V30 7707 H 754.493 -2.51043 1.89275 0
M  V30 7708 N 758.265 -1.50454 0.469181 0
M  V30 7709 C 759.49 -2.0722 -0.0864892 0
M  V30 7710 C 759.915 -1.33098 -1.32916 0
M  V30 7711 O 759.273 -0.378084 -1.77314 0
M  V30 7712 C 759.321 -3.58845 -0.355384 0
M  V30 7713 O 758.425 -3.86583 -1.43622 0
M  V30 7714 H 757.766 -0.663889 0.0121414 0
M  V30 7715 H 760.296 -1.93674 0.659674 0
M  V30 7716 H 760.306 -4.03617 -0.596447 0
M  V30 7717 H 758.981 -4.12211 0.552698 0
M  V30 7718 H 757.558 -3.5365 -1.18262 0
M  V30 7719 N 759.743 -0.201713 -1.56304 0
M  V30 7720 C 761.154 0.309711 -1.84113 0
M  V30 7721 C 761.505 1.60912 -1.12258 0
M  V30 7722 O 760.63 2.12937 -0.385587 0
M  V30 7723 C 761.225 0.568706 -3.33993 0
M  V30 7724 C 759.784 1.02448 -3.6219 0
M  V30 7725 C 758.931 0.0766842 -2.77194 0
M  V30 7726 H 761.882 -0.425356 -1.52893 0
M  V30 7727 H 761.903 1.41721 -3.53122 0
M  V30 7728 H 761.415 -0.37719 -3.86263 0
M  V30 7729 H 759.516 1.98443 -3.15359 0
M  V30 7730 H 759.629 0.912619 -4.70328 0
M  V30 7731 H 757.993 0.579809 -2.48013 0
M  V30 7732 H 758.776 -0.863774 -3.32256 0
M  V30 7733 N 761.222 1.57436 0.0718424 0
M  V30 7734 C 762.468 1.88388 0.766904 0
M  V30 7735 C 762.823 0.7954 1.75189 0
M  V30 7736 O 762.116 -0.200438 1.90549 0
M  V30 7737 C 762.31 3.23723 1.51455 0
M  V30 7738 C 762.139 4.45632 0.603475 0
M  V30 7739 C 760.909 5.04728 0.240437 0
M  V30 7740 C 763.107 5.14203 -0.0997624 0
M  V30 7741 N 761.089 6.10163 -0.676363 0
M  V30 7742 C 762.46 6.13812 -0.873755 0
M  V30 7743 C 764.515 4.97605 -0.171238 0
M  V30 7744 C 763.218 6.98615 -1.71258 0
M  V30 7745 C 765.244 5.82935 -0.997041 0
M  V30 7746 C 764.606 6.82082 -1.75908 0
M  V30 7747 H 760.705 0.738888 0.256064 0
M  V30 7748 H 763.289 1.94679 0.0284273 0
M  V30 7749 H 761.46 3.1844 2.22375 0
M  V30 7750 H 763.192 3.42324 2.15862 0
M  V30 7751 H 759.947 4.69869 0.593284 0
M  V30 7752 H 760.371 6.67537 -1.12801 0
M  V30 7753 H 765.013 4.20869 0.403586 0
M  V30 7754 H 762.731 7.74726 -2.29838 0
M  V30 7755 H 766.317 5.72149 -1.05532 0
M  V30 7756 H 765.197 7.46964 -2.38778 0
M  V30 7757 N 762.7 -0.34323 1.53817 0
M  V30 7758 C 763.925 -1.1079 1.75329 0
M  V30 7759 C 764.35 -1.81571 0.491293 0
M  V30 7760 O 763.708 -1.72561 -0.556089 0
M  V30 7761 C 763.756 -2.09681 2.9337 0
M  V30 7762 O 762.86 -3.17207 2.63541 0
M  V30 7763 H 762.201 -0.320402 0.581583 0
M  V30 7764 H 764.731 -0.393525 2.0078 0
M  V30 7765 H 764.741 -2.52897 3.20168 0
M  V30 7766 H 763.416 -1.5756 3.84899 0
M  V30 7767 H 761.993 -2.78806 2.47632 0
M  V30 7768 N 764.178 -1.45556 -0.604258 0
M  V30 7769 C 765.403 -1.53509 -1.39462 0
M  V30 7770 C 765.828 -0.169638 -1.87333 0
M  V30 7771 O 765.186 0.846346 -1.60333 0
M  V30 7772 C 765.234 -2.52654 -2.5729 0
M  V30 7773 O 764.338 -2.04666 -3.5803 0
M  V30 7774 H 763.679 -0.517355 -0.416221 0
M  V30 7775 H 766.209 -1.90939 -0.735072 0
M  V30 7776 H 766.219 -2.71568 -3.04491 0
M  V30 7777 H 764.894 -3.51823 -2.21797 0
M  V30 7778 H 763.471 -1.95643 -3.17456 0
M  V30 7779 N 765.656 0.84705 -1.32902 0
M  V30 7780 C 766.586 1.97166 -1.25091 0
M  V30 7781 C 767.567 1.69578 -0.133161 0
M  V30 7782 O 768.752 1.91519 -0.321591 0
M  V30 7783 C 765.882 3.33157 -0.981006 0
M  V30 7784 C 764.836 3.75119 -2.06082 0
M  V30 7785 C 764.162 5.08826 -1.64318 0
M  V30 7786 C 765.462 3.89774 -3.47669 0
M  V30 7787 H 767.156 2.03958 -2.19184 0
M  V30 7788 H 764.702 0.979907 -1.05517 0
M  V30 7789 H 766.655 4.11393 -0.912891 0
M  V30 7790 H 765.379 3.266 -0.00445559 0
M  V30 7791 H 764.038 2.9914 -2.11921 0
M  V30 7792 H 763.686 4.98732 -0.653876 0
M  V30 7793 H 763.386 5.37873 -2.36572 0
M  V30 7794 H 764.91 5.89546 -1.58958 0
M  V30 7795 H 766.324 4.58343 -3.44376 0
M  V30 7796 H 764.721 4.30248 -4.18338 0
M  V30 7797 H 765.791 2.92463 -3.86773 0
M  V30 7798 N 767.134 1.16236 1.06428 0
M  V30 7799 C 768.044 0.881976 2.1739 0
M  V30 7800 C 769.06 -0.145259 1.73393 0
M  V30 7801 O 770.236 0.0310558 2.01376 0
M  V30 7802 C 767.301 0.385496 3.4455 0
M  V30 7803 C 766.362 1.47779 4.03063 0
M  V30 7804 C 765.595 1.0049 5.24154 0
M  V30 7805 O 765.818 -0.145889 5.70213 0
M  V30 7806 O 764.752 1.79265 5.74585 0
M  V30 7807 H 768.578 1.80983 2.43883 0
M  V30 7808 H 766.163 0.942226 1.15942 0
M  V30 7809 H 768.045 0.115536 4.21242 0
M  V30 7810 H 766.72 -0.514369 3.19587 0
M  V30 7811 H 765.627 1.80147 3.27869 0
M  V30 7812 H 766.96 2.35291 4.32318 0
M  V30 7813 N 768.612 -1.24939 0.960631 0
M  V30 7814 C 769.889 -1.88118 0.535807 0
M  V30 7815 C 770.269 -1.86605 -0.987009 0
M  V30 7816 O 769.617 -1.33375 -1.85536 0
M  V30 7817 C 769.827 -3.30565 1.11927 0
M  V30 7818 C 771.175 -4.07296 1.19981 0
M  V30 7819 O 772.199 -3.39709 1.07126 0
M  V30 7820 O 771.058 -5.28206 1.40218 0
M  V30 7821 H 768.152 -0.807698 0.177631 0
M  V30 7822 H 770.698 -1.32964 1.05445 0
M  V30 7823 H 769.47 -3.26128 2.16231 0
M  V30 7824 H 769.093 -3.93284 0.584245 0
M  V30 7825 N 770.09 -0.729906 -1.39679 0
M  V30 7826 C 771.023 -0.0354454 -2.28172 0
M  V30 7827 C 772.001 0.752968 -1.44115 0
M  V30 7828 O 773.185 0.736599 -1.73512 0
M  V30 7829 C 770.312 0.957047 -3.24897 0
M  V30 7830 C 769.358 0.257734 -4.25721 0
M  V30 7831 S 770.191 -1.02466 -5.25605 0
M  V30 7832 C 771.347 -0.0346322 -6.2589 0
M  V30 7833 H 771.58 -0.785922 -2.86724 0
M  V30 7834 H 769.113 -0.521497 -1.45326 0
M  V30 7835 H 771.071 1.52441 -3.81146 0
M  V30 7836 H 769.732 1.68033 -2.65375 0
M  V30 7837 H 768.925 1.00854 -4.93806 0
M  V30 7838 H 768.527 -0.237454 -3.73245 0
M  V30 7839 H 770.819 0.807464 -6.72671 0
M  V30 7840 H 771.762 -0.682491 -7.04803 0
M  V30 7841 H 772.17 0.335492 -5.63502 0
M  V30 7842 N 771.568 1.50203 -0.477153 0
M  V30 7843 C 772.845 1.95115 0.137609 0
M  V30 7844 C 773.225 1.41778 1.56404 0
M  V30 7845 O 772.573 0.621333 2.1989 0
M  V30 7846 C 772.783 3.4892 0.0747168 0
M  V30 7847 C 774.131 4.238 0.260585 0
M  V30 7848 O 775.155 3.5588 0.151021 0
M  V30 7849 O 774.014 5.44366 0.482534 0
M  V30 7850 H 771.108 0.81987 0.108364 0
M  V30 7851 H 773.654 1.60946 -0.537989 0
M  V30 7852 H 772.426 3.80308 -0.920966 0
M  V30 7853 H 772.049 3.89642 0.791509 0
M  V30 7854 N 773.046 0.209999 1.56195 0
M  V30 7855 C 773.993 -0.704854 2.19774 0
M  V30 7856 C 774.963 -1.19886 1.14964 0
M  V30 7857 O 776.148 -1.26005 1.43274 0
M  V30 7858 C 773.288 -1.91241 2.87265 0
M  V30 7859 C 772.401 -1.45838 4.06639 0
M  V30 7860 C 771.536 -2.6226 4.61945 0
M  V30 7861 C 770.575 -2.13537 5.73645 0
M  V30 7862 N 769.712 -3.2319 6.23292 0
M  V30 7863 H 774.552 -0.155944 2.97592 0
M  V30 7864 H 772.089 -0.0652235 1.46955 0
M  V30 7865 H 774.047 -2.62123 3.24573 0
M  V30 7866 H 772.677 -2.43439 2.11985 0
M  V30 7867 H 771.729 -0.644897 3.74894 0
M  V30 7868 H 773.041 -1.06103 4.87384 0
M  V30 7869 H 772.195 -3.41243 5.01636 0
M  V30 7870 H 770.934 -3.05278 3.80338 0
M  V30 7871 H 769.939 -1.33013 5.33468 0
M  V30 7872 H 771.164 -1.71533 6.57079 0
M  V30 7873 H 769.11 -3.65711 5.44602 0
M  V30 7874 H 769.027 -2.8767 6.99129 0
M  V30 7875 H 770.295 -4.02342 6.67639 0
M  V30 7876 N 774.524 -1.57472 -0.0634922 0
M  V30 7877 C 775.474 -2.00709 -1.08166 0
M  V30 7878 C 776.458 -0.890498 -1.34011 0
M  V30 7879 O 777.65 -1.15441 -1.34173 0
M  V30 7880 C 774.779 -2.46148 -2.39303 0
M  V30 7881 C 773.865 -3.64559 -2.16697 0
M  V30 7882 N 774.256 -4.78459 -1.64043 0
M  V30 7883 C 772.554 -3.71269 -2.47135 0
M  V30 7884 C 773.255 -5.60268 -1.56445 0
M  V30 7885 N 772.231 -5.04357 -2.02792 0
M  V30 7886 H 776.033 -2.86208 -0.668016 0
M  V30 7887 H 773.547 -1.60133 -0.270426 0
M  V30 7888 H 775.544 -2.75367 -3.13016 0
M  V30 7889 H 774.204 -1.62041 -2.81377 0
M  V30 7890 H 775.215 -5.00587 -1.32791 0
M  V30 7891 H 771.892 -2.97891 -2.92518 0
M  V30 7892 H 773.282 -6.6172 -1.16519 0
M  V30 7893 N 776.003 0.335068 -1.53997 0
M  V30 7894 C 776.933 1.41727 -1.85568 0
M  V30 7895 C 777.914 1.54505 -0.7115 0
M  V30 7896 O 779.099 1.68573 -0.964191 0
M  V30 7897 C 776.229 2.7866 -2.07282 0
M  V30 7898 C 775.183 2.80682 -3.23112 0
M  V30 7899 C 774.509 4.20581 -3.30175 0
M  V30 7900 C 775.809 2.45458 -4.61029 0
M  V30 7901 H 777.503 1.15555 -2.76202 0
M  V30 7902 H 775.049 0.554445 -1.32898 0
M  V30 7903 H 777.002 3.54423 -2.27952 0
M  V30 7904 H 775.726 3.06286 -1.13387 0
M  V30 7905 H 774.385 2.07373 -3.02311 0
M  V30 7906 H 774.033 4.4533 -2.33859 0
M  V30 7907 H 773.733 4.22843 -4.08016 0
M  V30 7908 H 775.257 4.98174 -3.53066 0
M  V30 7909 H 776.671 3.10934 -4.81656 0
M  V30 7910 H 775.068 2.5899 -5.41336 0
M  V30 7911 H 776.138 1.40628 -4.6406 0
M  V30 7912 N 777.481 1.45874 0.596531 0
M  V30 7913 C 778.892 1.44798 1.17857 0
M  V30 7914 C 779.243 0.181443 1.95359 0
M  V30 7915 O 778.368 -0.716336 2.042 0
M  V30 7916 C 778.963 2.62333 2.14398 0
M  V30 7917 C 777.522 2.64342 2.67955 0
M  V30 7918 C 776.669 2.37244 1.43564 0
M  V30 7919 H 779.62 1.53954 0.385222 0
M  V30 7920 H 779.641 2.37063 2.97626 0
M  V30 7921 H 779.153 3.54499 1.57963 0
M  V30 7922 H 777.254 1.76213 3.28298 0
M  V30 7923 H 777.367 3.63897 3.11634 0
M  V30 7924 H 775.731 1.87022 1.72901 0
M  V30 7925 H 776.514 3.31568 0.889805 0
M  V30 7926 N 778.959 -0.83999 1.33349 0
M  V30 7927 C 780.184 -1.63249 1.27924 0
M  V30 7928 C 780.609 -1.87523 -0.147193 0
M  V30 7929 O 779.967 -1.43853 -1.10345 0
M  V30 7930 C 780.015 -2.96046 2.05886 0
M  V30 7931 O 779.119 -3.87303 1.4167 0
M  V30 7932 H 778.46 -0.49715 0.440157 0
M  V30 7933 H 780.99 -1.04512 1.75893 0
M  V30 7934 H 781 -3.45752 2.16609 0
M  V30 7935 H 779.675 -2.77701 3.09605 0
M  V30 7936 H 778.252 -3.45789 1.39585 0
M  V30 7937 N 780.437 -1.16799 -1.0581 0
M  V30 7938 C 781.685 -0.950642 -1.78346 0
M  V30 7939 C 782.006 0.522524 -1.87869 0
M  V30 7940 O 781.276 1.3795 -1.39092 0
M  V30 7941 H 779.856 -0.348736 -0.6606 0
M  V30 7942 H 782.518 -1.47158 -1.27791 0
M  V30 7943 H 781.614 -1.37359 -2.80248 0
M  V30 7944 N 781.915 1.24427 -0.967243 0
M  V30 7945 C 783.164 1.91789 -0.624478 0
M  V30 7946 C 783.477 1.76448 0.844129 0
M  V30 7947 O 784.683 2.38495 1.2974 0
M  V30 7948 C 783.139 3.43743 -1.06626 0
M  V30 7949 C 782.747 3.67771 -2.55829 0
M  V30 7950 C 784.491 4.16958 -0.79662 0
M  V30 7951 C 782.398 5.13293 -2.93742 0
M  V30 7952 H 781.328 0.71811 -0.229856 0
M  V30 7953 H 783.979 1.41081 -1.17339 0
M  V30 7954 H 782.361 3.93484 -0.445663 0
M  V30 7955 H 783.535 3.28631 -3.23015 0
M  V30 7956 H 781.85 3.07841 -2.80398 0
M  V30 7957 H 784.447 5.24171 -1.05589 0
M  V30 7958 H 784.79 4.15442 0.267163 0
M  V30 7959 H 785.323 3.73164 -1.37816 0
M  V30 7960 H 782.062 5.19931 -3.9919 0
M  V30 7961 H 781.582 5.53433 -2.3124 0
M  V30 7962 H 783.261 5.81521 -2.83623 0
M  V30 7963 N 783.393 0.737304 1.3929 0
M  V30 7964 C 784.34 0.0988364 2.30588 0
M  V30 7965 C 785.31 -0.727206 1.49335 0
M  V30 7966 O 786.495 -0.686694 1.78014 0
M  V30 7967 C 783.635 -0.800734 3.35682 0
M  V30 7968 C 782.748 0.0381731 4.31983 0
M  V30 7969 C 781.883 -0.862884 5.24145 0
M  V30 7970 C 780.922 -0.0193639 6.12097 0
M  V30 7971 N 780.059 -0.87648 6.96608 0
M  V30 7972 H 784.899 0.883031 2.84617 0
M  V30 7973 H 782.436 0.447111 1.4014 0
M  V30 7974 H 784.394 -1.33676 3.95205 0
M  V30 7975 H 783.024 -1.55088 2.83103 0
M  V30 7976 H 782.076 0.691641 3.74059 0
M  V30 7977 H 783.388 0.690294 4.94 0
M  V30 7978 H 782.542 -1.46667 5.88705 0
M  V30 7979 H 781.281 -1.54878 4.62454 0
M  V30 7980 H 780.286 0.597202 5.46547 0
M  V30 7981 H 781.511 0.663348 6.75852 0
M  V30 7982 H 779.457 -1.54762 6.37483 0
M  V30 7983 H 779.374 -0.280892 7.55478 0
M  V30 7984 H 780.642 -1.46575 7.65595 0
M  V30 7985 N 784.871 -1.49948 0.485112 0
M  V30 7986 C 786.287 -1.58984 0.140096 0
M  V30 7987 C 786.487 -1.49194 -1.35438 0
M  V30 7988 O 785.543 -1.35765 -2.12894 0
M  V30 7989 C 786.856 -2.92372 0.702769 0
M  V30 7990 C 788.404 -3.05801 0.66745 0
M  V30 7991 C 788.879 -4.41785 1.20791 0
M  V30 7992 N 790.37 -4.48234 1.16792 0
M  V30 7993 C 791.105 -5.51871 1.55646 0
M  V30 7994 N 790.601 -6.62692 2.02016 0
M  V30 7995 N 792.394 -5.42494 1.47161 0
M  V30 7996 H 784.545 -1.54555 1.45693 0
M  V30 7997 H 786.808 -0.731206 0.603359 0
M  V30 7998 H 786.514 -3.05056 1.75025 0
M  V30 7999 H 786.388 -3.76885 0.154205 0
M  V30 8000 H 788.775 -2.92757 -0.371157 0
M  V30 8001 H 788.856 -2.23011 1.25298 0
M  V30 8002 H 788.5 -4.55579 2.24522 0
M  V30 8003 H 788.43 -5.23188 0.598464 0
M  V30 8004 H 790.921 -3.68718 0.827982 0
M  V30 8005 H 791.234 -7.3785 2.29775 0
M  V30 8006 H 789.579 -6.63775 2.05979 0
M  V30 8007 H 792.77 -4.54806 1.10765 0
M  V30 8008 H 792.943 -6.2314 1.77766 0
M  V30 8009 N 786.349 -0.21828 -1.56081 0
M  V30 8010 C 787.577 0.419258 -2.02608 0
M  V30 8011 C 787.992 1.53578 -1.09814 0
M  V30 8012 O 787.349 1.82185 -0.107149 0
M  V30 8013 C 787.4 0.953955 -3.48686 0
M  V30 8014 O 787.121 -0.11805 -4.37941 0
M  V30 8015 C 788.622 1.66506 -4.10841 0
M  V30 8016 H 785.842 0.10296 -0.663054 0
M  V30 8017 H 788.386 -0.333776 -2.01758 0
M  V30 8018 H 786.541 1.65727 -3.50162 0
M  V30 8019 H 786.955 0.283359 -5.23734 0
M  V30 8020 H 788.429 1.99123 -5.14834 0
M  V30 8021 H 788.906 2.57705 -3.55647 0
M  V30 8022 H 789.512 1.00703 -4.13206 0
M  V30 8023 N 787.827 1.57504 0.0551401 0
M  V30 8024 C 789.076 1.87237 0.750009 0
M  V30 8025 C 789.389 0.813268 1.77891 0
M  V30 8026 O 790.595 0.99898 2.52453 0
M  V30 8027 C 789.051 3.32187 1.38491 0
M  V30 8028 C 788.659 4.46267 0.393707 0
M  V30 8029 C 790.403 3.71101 2.06117 0
M  V30 8030 C 788.31 5.82265 1.03547 0
M  V30 8031 H 787.24 0.698524 0.283866 0
M  V30 8032 H 789.891 1.835 0.00365997 0
M  V30 8033 H 788.273 3.30588 2.18008 0
M  V30 8034 H 789.447 4.59289 -0.372865 0
M  V30 8035 H 787.762 4.16015 -0.17902 0
M  V30 8036 H 790.359 4.70012 2.54937 0
M  V30 8037 H 790.702 3.01751 2.86796 0
M  V30 8038 H 791.235 3.74762 1.33409 0
M  V30 8039 H 787.974 6.54949 0.268644 0
M  V30 8040 H 787.494 5.73012 1.7725 0
M  V30 8041 H 789.173 6.28148 1.55047 0
M  V30 8042 N 789.305 -0.326896 1.54172 0
M  V30 8043 C 790.268 -1.38515 1.8261 0
M  V30 8044 C 791.268 -1.44872 0.697771 0
M  V30 8045 O 792.458 -1.44957 0.966078 0
M  V30 8046 C 789.59 -2.77281 1.98313 0
M  V30 8047 H 790.783 -1.14556 2.77159 0
M  V30 8048 H 788.336 -0.562199 1.45839 0
M  V30 8049 H 789.071 -3.065 1.05964 0
M  V30 8050 H 788.856 -2.74061 2.80416 0
M  V30 8051 H 790.346 -3.53845 2.21773 0
M  V30 8052 N 790.784 -1.46188 -0.588786 0
M  V30 8053 C 791.732 -1.56653 -1.71938 0
M  V30 8054 C 792.726 -0.435354 -1.6371 0
M  V30 8055 O 793.932 -0.611996 -1.69277 0
M  V30 8056 H 790.307 -0.492408 -0.568365 0
M  V30 8057 H 792.278 -2.51724 -1.60242 0
M  V30 8058 C 791.027 -1.56822 -3.10326 0
M  V30 8059 H 790.35 -2.43198 -3.17325 0
M  V30 8060 H 791.79 -1.68199 -3.89211 0
M  V30 8061 C 790.249 -0.295802 -3.35599 0
M  V30 8062 O 790.779 0.616515 -3.96941 0
M  V30 8063 N 788.985 -0.185609 -2.90007 0
M  V30 8064 H 788.532 -0.928914 -2.40269 0
M  V30 8065 H 788.49 0.664883 -3.07289 0
M  V30 8066 N 792.262 0.832906 -1.33792 0
M  V30 8067 C 793.209 1.94314 -1.24541 0
M  V30 8068 C 794.179 1.65646 -0.122753 0
M  V30 8069 O 795.364 1.88394 -0.30204 0
M  V30 8070 C 792.504 3.30395 -0.996641 0
M  V30 8071 C 791.617 3.71422 -2.20612 0
M  V30 8072 C 790.752 4.96401 -1.89101 0
M  V30 8073 C 789.791 5.2998 -3.06247 0
M  V30 8074 N 788.928 6.46137 -2.74685 0
M  V30 8075 H 793.768 2.01559 -2.19495 0
M  V30 8076 H 791.305 0.986243 -1.09141 0
M  V30 8077 H 793.263 4.08803 -0.832817 0
M  V30 8078 H 791.893 3.22691 -0.0838242 0
M  V30 8079 H 790.945 2.88488 -2.47949 0
M  V30 8080 H 792.257 3.92215 -3.0817 0
M  V30 8081 H 791.411 5.82572 -1.69396 0
M  V30 8082 H 790.15 4.7759 -0.987882 0
M  V30 8083 H 789.155 4.42312 -3.26559 0
M  V30 8084 H 790.38 5.50737 -3.97323 0
M  V30 8085 H 788.326 6.28801 -1.86938 0
M  V30 8086 H 788.243 6.67054 -3.55774 0
M  V30 8087 H 789.511 7.35403 -2.58461 0
M  V30 8088 N 793.74 1.17359 1.05189 0
M  V30 8089 C 794.687 0.890325 2.12936 0
M  V30 8090 C 795.657 -0.165779 1.65271 0
M  V30 8091 O 796.842 -0.0285672 1.90779 0
M  V30 8092 C 793.982 0.409793 3.42658 0
M  V30 8093 C 793.095 1.53002 4.03998 0
M  V30 8094 C 792.23 1.00336 5.21638 0
M  V30 8095 C 791.269 2.09903 5.74984 0
M  V30 8096 N 790.406 1.58714 6.83926 0
M  V30 8097 H 795.246 1.81299 2.36505 0
M  V30 8098 H 792.783 0.904249 1.16025 0
M  V30 8099 H 794.741 0.112743 4.17048 0
M  V30 8100 H 793.371 -0.475915 3.19272 0
M  V30 8101 H 792.423 1.9428 3.27047 0
M  V30 8102 H 793.735 2.3564 4.39631 0
M  V30 8103 H 792.889 0.660158 6.03098 0
M  V30 8104 H 791.628 0.14642 4.8748 0
M  V30 8105 H 790.633 2.45081 4.92154 0
M  V30 8106 H 791.858 2.96013 6.1119 0
M  V30 8107 H 789.804 0.752915 6.51665 0
M  V30 8108 H 789.721 2.34959 7.18561 0
M  V30 8109 H 790.989 1.27287 7.69037 0
M  V30 8110 N 795.218 -1.23913 0.973828 0
M  V30 8111 C 796.148 -2.27453 0.527969 0
M  V30 8112 C 797.129 -1.6443 -0.435513 0
M  V30 8113 O 798.314 -1.9137 -0.330306 0
M  V30 8114 C 795.444 -3.4685 -0.176757 0
M  V30 8115 C 794.398 -4.22181 0.703352 0
M  V30 8116 C 793.724 -5.34534 -0.133215 0
M  V30 8117 C 795.024 -4.82865 1.99096 0
M  V30 8118 H 796.718 -2.65 1.3934 0
M  V30 8119 H 794.264 -1.27388 0.671446 0
M  V30 8120 H 796.217 -4.18424 -0.499934 0
M  V30 8121 H 794.941 -3.08346 -1.07659 0
M  V30 8122 H 793.6 -3.52416 1.00989 0
M  V30 8123 H 793.248 -4.92271 -1.03338 0
M  V30 8124 H 792.948 -5.85855 0.452494 0
M  V30 8125 H 794.472 -6.08933 -0.450924 0
M  V30 8126 H 795.886 -5.46481 1.73297 0
M  V30 8127 H 794.283 -5.44444 2.52389 0
M  V30 8128 H 795.353 -4.03977 2.68199 0
M  V30 8129 N 796.696 -0.74468 -1.38897 0
M  V30 8130 C 797.643 -0.111064 -2.30533 0
M  V30 8131 C 798.613 0.719276 -1.49719 0
M  V30 8132 O 799.798 0.677244 -1.78376 0
M  V30 8133 C 796.938 0.78292 -3.36102 0
M  V30 8134 C 796.051 -0.0610817 -4.31957 0
M  V30 8135 C 795.186 0.835075 -5.24595 0
M  V30 8136 C 794.225 -0.0130974 -6.12099 0
M  V30 8137 N 793.362 0.839525 -6.97063 0
M  V30 8138 H 798.202 -0.898113 -2.84144 0
M  V30 8139 H 795.739 -0.454537 -1.39901 0
M  V30 8140 H 797.697 1.31578 -3.95908 0
M  V30 8141 H 796.327 1.53585 -2.83922 0
M  V30 8142 H 795.379 -0.711469 -3.73687 0
M  V30 8143 H 796.691 -0.716482 -4.93627 0
M  V30 8144 H 795.845 1.43542 -5.89475 0
M  V30 8145 H 794.584 1.52423 -4.63269 0
M  V30 8146 H 793.589 -0.626179 -5.46223 0
M  V30 8147 H 794.814 -0.699181 -6.75491 0
M  V30 8148 H 792.76 1.5138 -6.38295 0
M  V30 8149 H 792.677 0.240823 -7.55616 0
M  V30 8150 H 793.945 1.42513 -7.66362 0
M  V30 8151 N 798.174 1.49689 -0.493057 0
M  V30 8152 C 799.421 2.02427 0.0542714 0
M  V30 8153 C 799.749 1.37339 1.37725 0
M  V30 8154 O 799.004 0.495523 1.89323 0
M  V30 8155 C 799.303 3.56427 0.263536 0
M  V30 8156 C 798.969 4.40111 -0.98046 0
M  V30 8157 C 797.631 4.62699 -1.32148 0
M  V30 8158 C 799.983 4.88847 -1.80771 0
M  V30 8159 C 797.311 5.31268 -2.48941 0
M  V30 8160 C 799.663 5.587 -2.96711 0
M  V30 8161 C 798.327 5.79536 -3.31202 0
M  V30 8162 H 797.597 0.740734 0.0198593 0
M  V30 8163 H 800.244 1.80073 -0.651603 0
M  V30 8164 H 798.549 3.77416 1.05186 0
M  V30 8165 H 800.246 3.94819 0.701348 0
M  V30 8166 H 796.836 4.22765 -0.704814 0
M  V30 8167 H 801.02 4.71231 -1.55741 0
M  V30 8168 H 796.276 5.45603 -2.75911 0
M  V30 8169 H 800.45 5.9544 -3.61143 0
M  V30 8170 H 798.077 6.32443 -4.21805 0
M  V30 8171 N 799.652 0.226554 1.55963 0
M  V30 8172 C 800.882 -0.407915 2.02533 0
M  V30 8173 C 801.29 -1.53539 1.10554 0
M  V30 8174 O 800.633 -1.8338 0.108409 0
M  V30 8175 C 800.695 -0.996081 3.45425 0
M  V30 8176 C 800.359 -0.00341651 4.57 0
M  V30 8177 C 801.356 0.798782 5.13727 0
M  V30 8178 C 799.041 0.116786 5.02164 0
M  V30 8179 C 801.035 1.70784 6.14094 0
M  V30 8180 C 798.722 1.02937 6.02368 0
M  V30 8181 C 799.72 1.82344 6.5821 0
M  V30 8182 O 799.408 2.72067 7.56462 0
M  V30 8183 H 799.14 -0.103524 0.668026 0
M  V30 8184 H 801.694 0.341937 2.02534 0
M  V30 8185 H 799.924 -1.79512 3.42509 0
M  V30 8186 H 801.613 -1.53848 3.75614 0
M  V30 8187 H 802.379 0.716393 4.7968 0
M  V30 8188 H 798.258 -0.491172 4.58376 0
M  V30 8189 H 801.802 2.32807 6.57607 0
M  V30 8190 H 797.699 1.11276 6.35836 0
M  V30 8191 H 798.467 2.66199 7.74003 0
M  V30 8192 N 801.13 -1.57531 -0.0467866 0
M  V30 8193 C 802.078 -2.06455 -1.0714 0
M  V30 8194 C 803.072 -0.974744 -1.38546 0
M  V30 8195 O 804.278 -1.15974 -1.37659 0
M  V30 8196 H 800.653 -0.658607 -0.362962 0
M  V30 8197 H 802.624 -2.91613 -0.632813 0
M  V30 8198 C 801.373 -2.54481 -2.36927 0
M  V30 8199 H 800.696 -3.37946 -2.13617 0
M  V30 8200 H 802.136 -2.92442 -3.07007 0
M  V30 8201 C 800.595 -1.43836 -3.04652 0
M  V30 8202 O 801.125 -0.794531 -3.93764 0
M  V30 8203 N 799.331 -1.17727 -2.65686 0
M  V30 8204 H 798.878 -1.70265 -1.93307 0
M  V30 8205 H 798.836 -0.439051 -3.11319 0
M  V30 8206 N 802.608 0.318715 -1.54344 0
M  V30 8207 C 803.857 1.05363 -1.71993 0
M  V30 8208 C 804.17 1.89018 -0.503155 0
M  V30 8209 O 805.376 2.65639 -0.561085 0
M  V30 8210 C 803.832 1.92281 -3.0423 0
M  V30 8211 C 803.44 1.13715 -4.33328 0
M  V30 8212 C 805.184 2.65479 -3.31242 0
M  V30 8213 C 803.091 1.99806 -5.56625 0
M  V30 8214 H 802.021 0.397081 -0.64097 0
M  V30 8215 H 804.672 0.311598 -1.80835 0
M  V30 8216 H 803.054 2.70402 -2.89307 0
M  V30 8217 H 804.228 0.403305 -4.59032 0
M  V30 8218 H 802.543 0.521769 -4.13118 0
M  V30 8219 H 805.14 3.30209 -4.20555 0
M  V30 8220 H 805.483 3.33374 -2.49334 0
M  V30 8221 H 806.016 1.94417 -3.47054 0
M  V30 8222 H 802.755 1.36411 -6.41149 0
M  V30 8223 H 802.275 2.70911 -5.35133 0
M  V30 8224 H 803.954 2.58277 -5.93213 0
M  V30 8225 N 804.086 1.46499 0.581025 0
M  V30 8226 C 805.363 1.42372 1.34125 0
M  V30 8227 C 805.743 0.108073 2.10823 0
M  V30 8228 O 805.091 -0.910366 2.09582 0
M  V30 8229 C 805.301 2.65445 2.26583 0
M  V30 8230 C 806.649 3.11664 2.88359 0
M  V30 8231 O 807.673 2.66006 2.36896 0
M  V30 8232 O 806.532 3.90974 3.81839 0
M  V30 8233 H 803.626 0.566262 0.602724 0
M  V30 8234 H 806.172 1.58667 0.601903 0
M  V30 8235 H 804.944 3.52756 1.69348 0
M  V30 8236 H 804.567 2.51618 3.07854 0
M  V30 8237 N 805.565 -0.825799 1.34232 0
M  V30 8238 C 806.528 -1.91808 1.25468 0
M  V30 8239 C 807.528 -1.59893 0.170567 0
M  V30 8240 O 808.718 -1.68986 0.422996 0
M  V30 8241 C 805.85 -3.27786 0.93644 0
M  V30 8242 H 807.043 -2.01003 2.22571 0
M  V30 8243 H 804.596 -1.01944 1.18479 0
M  V30 8244 H 805.331 -3.24285 -0.0315408 0
M  V30 8245 H 805.116 -3.52333 1.72057 0
M  V30 8246 H 806.606 -4.07782 0.900214 0
M  V30 8247 N 807.043 -1.17915 -1.04565 0
M  V30 8248 C 808.289 -0.972863 -1.77942 0
M  V30 8249 C 808.622 0.496753 -1.87739 0
M  V30 8250 O 807.897 1.3688 -1.38181 0
M  V30 8251 C 808.18 -1.62227 -3.21488 0
M  V30 8252 C 808.033 -3.16441 -3.19664 0
M  V30 8253 C 809.352 -1.33137 -4.19479 0
M  V30 8254 H 806.471 -0.354843 -0.645953 0
M  V30 8255 H 809.113 -1.45508 -1.22178 0
M  V30 8256 H 807.263 -1.21224 -3.69103 0
M  V30 8257 H 808.935 -3.66544 -2.80077 0
M  V30 8258 H 807.178 -3.48863 -2.57832 0
M  V30 8259 H 807.849 -3.57012 -4.21006 0
M  V30 8260 H 810.325 -1.68654 -3.80388 0
M  V30 8261 H 809.201 -1.81151 -5.18146 0
M  V30 8262 H 809.462 -0.253319 -4.41374 0
M  V30 8263 N 808.521 1.23394 -0.980386 0
M  V30 8264 C 809.468 2.24859 -0.520298 0
M  V30 8265 C 810.438 1.60144 0.440821 0
M  V30 8266 O 811.623 1.87593 0.348369 0
M  V30 8267 C 808.763 3.44675 0.171145 0
M  V30 8268 C 807.876 4.23947 -0.830233 0
M  V30 8269 C 807.011 5.31079 -0.113597 0
M  V30 8270 C 806.05 6.02058 -1.10419 0
M  V30 8271 N 805.187 7.00862 -0.416709 0
M  V30 8272 H 810.027 2.63579 -1.39032 0
M  V30 8273 H 807.564 1.29556 -0.696682 0
M  V30 8274 H 809.522 4.13024 0.588838 0
M  V30 8275 H 808.152 3.06755 1.00504 0
M  V30 8276 H 807.204 3.55016 -1.36631 0
M  V30 8277 H 808.516 4.72945 -1.58508 0
M  V30 8278 H 807.67 6.05622 0.36146 0
M  V30 8279 H 806.409 4.83022 0.673854 0
M  V30 8280 H 805.414 5.26307 -1.59 0
M  V30 8281 H 806.639 6.52203 -1.8923 0
M  V30 8282 H 804.585 6.55057 0.351535 0
M  V30 8283 H 804.502 7.47804 -1.11021 0
M  V30 8284 H 805.77 7.79492 0.0359606 0
M  V30 8285 N 809.999 0.752036 1.385 0
M  V30 8286 C 811.248 0.304294 1.99391 0
M  V30 8287 C 811.561 -1.11982 1.60373 0
M  V30 8288 O 812.767 -1.66795 2.14223 0
M  V30 8289 C 811.223 0.493101 3.56506 0
M  V30 8290 C 810.831 1.9262 4.04477 0
M  V30 8291 C 812.575 0.107994 4.24363 0
M  V30 8292 C 810.482 2.06365 5.54227 0
M  V30 8293 H 809.412 0.110024 0.745929 0
M  V30 8294 H 812.063 0.928355 1.58284 0
M  V30 8295 H 810.445 -0.20012 3.95494 0
M  V30 8296 H 811.619 2.65276 3.76783 0
M  V30 8297 H 809.934 2.26608 3.49339 0
M  V30 8298 H 812.531 0.189474 5.34364 0
M  V30 8299 H 812.874 -0.939165 4.05568 0
M  V30 8300 H 813.407 0.753011 3.90608 0
M  V30 8301 H 810.146 3.0933 5.77923 0
M  V30 8302 H 809.666 1.38167 5.83669 0
M  V30 8303 H 811.345 1.85286 6.19902 0
M  V30 8304 N 811.477 -1.49425 0.500989 0
M  V30 8305 C 812.44 -2.27646 -0.266416 0
M  V30 8306 C 813.44 -1.3366 -0.893961 0
M  V30 8307 O 814.63 -1.5682 -0.758495 0
M  V30 8308 C 811.762 -3.11618 -1.38227 0
M  V30 8309 H 812.955 -2.96945 0.419973 0
M  V30 8310 H 810.508 -1.5419 0.255954 0
M  V30 8311 H 811.243 -2.46885 -2.10281 0
M  V30 8312 H 811.028 -3.80721 -0.937746 0
M  V30 8313 H 812.518 -3.70698 -1.92283 0
M  V30 8314 N 812.955 -0.234822 -1.55841 0
M  V30 8315 C 814.183 0.397745 -2.03041 0
M  V30 8316 C 814.598 1.52405 -1.11437 0
M  V30 8317 O 813.955 1.82061 -0.126466 0
M  V30 8318 C 814.006 0.916919 -3.49678 0
M  V30 8319 O 813.727 -0.164493 -4.37791 0
M  V30 8320 C 815.228 1.62139 -4.12584 0
M  V30 8321 H 812.448 0.0959214 -0.664108 0
M  V30 8322 H 814.992 -0.355156 -2.01392 0
M  V30 8323 H 813.147 1.62004 -3.519 0
M  V30 8324 H 813.561 0.227794 -5.24005 0
M  V30 8325 H 815.035 1.93651 -5.16917 0
M  V30 8326 H 815.512 2.53918 -3.58361 0
M  V30 8327 H 816.118 0.963145 -4.14251 0
M  V30 8328 N 814.433 1.57553 0.0384317 0
M  V30 8329 C 815.71 1.79977 0.766002 0
M  V30 8330 C 816.09 0.830625 1.94072 0
M  V30 8331 O 815.438 -0.129243 2.28134 0
M  V30 8332 C 815.648 3.27434 1.20781 0
M  V30 8333 C 816.996 3.92167 1.62758 0
M  V30 8334 O 818.02 3.31527 1.30263 0
M  V30 8335 O 816.879 4.98917 2.23035 0
M  V30 8336 H 813.973 0.739787 0.369654 0
M  V30 8337 H 816.519 1.69693 0.0159312 0
M  V30 8338 H 815.291 3.89558 0.368792 0
M  V30 8339 H 814.914 3.42571 2.01819 0
M  V30 8340 N 815.911 -0.310526 1.54511 0
M  V30 8341 C 817.157 -1.04846 1.73595 0
M  V30 8342 C 817.49 -1.87244 0.515118 0
M  V30 8343 O 816.765 -1.88282 -0.48786 0
M  V30 8344 C 817.048 -1.96237 3.01932 0
M  V30 8345 C 816.901 -1.17082 4.34295 0
M  V30 8346 C 818.22 -2.9556 3.26086 0
M  V30 8347 H 815.339 -0.37976 0.631626 0
M  V30 8348 H 817.981 -0.32394 1.87218 0
M  V30 8349 H 816.131 -2.58015 2.90449 0
M  V30 8350 H 817.803 -0.576643 4.57682 0
M  V30 8351 H 816.046 -0.473336 4.3121 0
M  V30 8352 H 816.717 -1.84257 5.20339 0
M  V30 8353 H 819.193 -2.43908 3.37117 0
M  V30 8354 H 818.069 -3.5668 4.17218 0
M  V30 8355 H 818.33 -3.68715 2.4393 0
M  V30 8356 N 817.389 -1.46805 -0.573248 0
M  V30 8357 C 818.637 -1.52302 -1.32847 0
M  V30 8358 C 818.958 -0.180159 -1.94166 0
M  V30 8359 O 818.228 0.794291 -1.79075 0
M  V30 8360 H 816.808 -0.56097 -0.493276 0
M  V30 8361 H 819.47 -1.82998 -0.670642 0
M  V30 8362 H 818.566 -2.28089 -2.13031 0
M  V30 8363 N 818.867 0.818669 -1.34668 0
M  V30 8364 C 819.797 1.94468 -1.29245 0
M  V30 8365 C 820.778 1.69257 -0.169101 0
M  V30 8366 O 821.963 1.90794 -0.362143 0
M  V30 8367 C 819.093 3.31001 -1.05145 0
M  V30 8368 C 818.047 3.70663 -2.13992 0
M  V30 8369 C 817.373 5.05226 -1.75074 0
M  V30 8370 C 818.673 3.82312 -3.55858 0
M  V30 8371 H 820.367 1.99263 -2.2346 0
M  V30 8372 H 817.913 0.957304 -1.07572 0
M  V30 8373 H 819.866 4.09364 -0.999949 0
M  V30 8374 H 818.59 3.26517 -0.0737312 0
M  V30 8375 H 817.249 2.94578 -2.18219 0
M  V30 8376 H 816.897 4.97233 -0.759518 0
M  V30 8377 H 816.597 5.32734 -2.47928 0
M  V30 8378 H 818.121 5.86042 -1.71427 0
M  V30 8379 H 819.535 4.50935 -3.5402 0
M  V30 8380 H 817.932 4.21278 -4.2737 0
M  V30 8381 H 819.002 2.84193 -3.9289 0
M  V30 8382 N 820.346 1.18468 1.03938 0
M  V30 8383 C 821.594 0.978895 1.76811 0
M  V30 8384 C 821.915 -0.49257 1.88676 0
M  V30 8385 O 821.185 -1.3572 1.41269 0
M  V30 8386 H 819.765 0.359201 0.654968 0
M  V30 8387 H 822.427 1.49173 1.25433 0
M  V30 8388 H 821.523 1.418 2.78027 0
M  V30 8389 N 821.824 -1.22873 0.986916 0
M  V30 8390 C 823.072 -1.91084 0.658121 0
M  V30 8391 C 823.393 -1.77304 -0.811675 0
M  V30 8392 O 822.663 -1.15649 -1.58121 0
M  V30 8393 H 821.243 -0.707251 0.240427 0
M  V30 8394 H 823.905 -1.49357 1.25213 0
M  V30 8395 H 823.001 -2.98373 0.915428 0
M  V30 8396 N 823.302 -0.75937 -1.38099 0
M  V30 8397 C 824.718 -0.437606 -1.53483 0
M  V30 8398 C 824.918 1.04849 -1.72072 0
M  V30 8399 O 823.974 1.83448 -1.73502 0
M  V30 8400 C 825.287 -1.24189 -2.73857 0
M  V30 8401 C 826.835 -1.23255 -2.8771 0
M  V30 8402 C 827.31 -2.01992 -4.11051 0
M  V30 8403 N 828.801 -1.99282 -4.1814 0
M  V30 8404 C 829.536 -2.56996 -5.12583 0
M  V30 8405 N 829.032 -3.23446 -6.12662 0
M  V30 8406 N 830.825 -2.46894 -5.04975 0
M  V30 8407 H 822.976 -1.72242 -1.24283 0
M  V30 8408 H 825.239 -0.730507 -0.604205 0
M  V30 8409 H 824.945 -2.29449 -2.66545 0
M  V30 8410 H 824.819 -0.862672 -3.67203 0
M  V30 8411 H 827.206 -0.187988 -2.94501 0
M  V30 8412 H 827.287 -1.65132 -1.95359 0
M  V30 8413 H 826.931 -3.06462 -4.05023 0
M  V30 8414 H 826.861 -1.57505 -5.02494 0
M  V30 8415 H 829.352 -1.50893 -3.46467 0
M  V30 8416 H 829.665 -3.6489 -6.81231 0
M  V30 8417 H 828.01 -3.27543 -6.12977 0
M  V30 8418 H 831.201 -1.94604 -4.25731 0
M  V30 8419 H 831.374 -2.92168 -5.78396 0
M  V30 8420 N 824.78 1.49157 -0.508906 0
M  V30 8421 C 826.029 2.0167 0.0346854 0
M  V30 8422 C 826.342 1.39302 1.37311 0
M  V30 8423 O 827.548 1.83189 2.00385 0
M  V30 8424 C 826.004 3.59725 0.112261 0
M  V30 8425 C 825.612 4.31069 -1.21999 0
M  V30 8426 C 827.356 4.20155 0.605798 0
M  V30 8427 C 825.263 5.81001 -1.10415 0
M  V30 8428 H 824.193 0.753814 0.0167355 0
M  V30 8429 H 826.844 1.7162 -0.649518 0
M  V30 8430 H 825.226 3.86525 0.861087 0
M  V30 8431 H 826.4 4.15962 -1.98273 0
M  V30 8432 H 824.715 3.82418 -1.64759 0
M  V30 8433 H 827.312 5.29964 0.710102 0
M  V30 8434 H 827.655 3.84051 1.60656 0
M  V30 8435 H 828.188 3.97705 -0.0867239 0
M  V30 8436 H 824.927 6.21643 -2.07941 0
M  V30 8437 H 824.447 5.9858 -0.382428 0
M  V30 8438 H 826.126 6.42207 -0.786116 0
M  V30 8439 N 826.258 0.243083 1.55714 0
M  V30 8440 C 827.206 -0.674349 2.2261 0
M  V30 8441 C 828.2 -1.18307 1.21243 0
M  V30 8442 O 829.406 -1.1404 1.39265 0
M  V30 8443 H 825.781 -0.235941 0.714028 0
M  V30 8444 H 827.752 -0.0869446 2.98273 0
M  V30 8445 C 826.501 -1.86206 2.93637 0
M  V30 8446 H 825.824 -1.47975 3.71407 0
M  V30 8447 H 827.264 -2.4813 3.43813 0
M  V30 8448 C 825.723 -2.73084 1.97298 0
M  V30 8449 O 826.253 -3.72497 1.50361 0
M  V30 8450 N 824.459 -2.39571 1.64482 0
M  V30 8451 H 824.006 -1.5878 2.02846 0
M  V30 8452 H 823.964 -2.97976 1.00288 0
M  V30 8453 N 827.736 -1.57571 -0.0300757 0
M  V30 8454 C 828.669 -2.01874 -1.06406 0
M  V30 8455 C 829.647 -0.902901 -1.35227 0
M  V30 8456 O 830.831 -1.16865 -1.47901 0
M  V30 8457 C 827.958 -2.39093 -2.39901 0
M  V30 8458 C 827.004 -3.61108 -2.26943 0
M  V30 8459 S 827.837 -5.10287 -1.62382 0
M  V30 8460 C 828.993 -5.50747 -2.97369 0
M  V30 8461 H 829.226 -2.89261 -0.686703 0
M  V30 8462 H 826.759 -1.52523 -0.240017 0
M  V30 8463 H 828.717 -2.61207 -3.16672 0
M  V30 8464 H 827.378 -1.52159 -2.74784 0
M  V30 8465 H 826.571 -3.84803 -3.25489 0
M  V30 8466 H 826.173 -3.3884 -1.58314 0
M  V30 8467 H 828.465 -5.51369 -3.93698 0
M  V30 8468 H 829.408 -6.51071 -2.78409 0
M  V30 8469 H 829.816 -4.7825 -2.99895 0
M  V30 8470 N 829.214 0.302327 -1.54673 0
M  V30 8471 C 830.463 1.03533 -1.73101 0
M  V30 8472 C 830.776 1.88473 -0.523174 0
M  V30 8473 O 831.982 2.65029 -0.589229 0
M  V30 8474 C 830.438 1.89043 -3.06252 0
M  V30 8475 C 830.046 1.09112 -4.3451 0
M  V30 8476 C 831.79 2.61951 -3.34039 0
M  V30 8477 C 829.697 1.93891 -5.58713 0
M  V30 8478 H 828.627 0.390261 -0.645145 0
M  V30 8479 H 831.278 0.2924 -1.81155 0
M  V30 8480 H 829.66 2.67319 -2.92159 0
M  V30 8481 H 830.834 0.354596 -4.59434 0
M  V30 8482 H 829.149 0.477923 -4.13648 0
M  V30 8483 H 831.746 3.25729 -4.24033 0
M  V30 8484 H 832.089 3.30711 -2.52855 0
M  V30 8485 H 832.622 1.90725 -3.49097 0
M  V30 8486 H 829.361 1.29604 -6.4256 0
M  V30 8487 H 828.881 2.6522 -5.37976 0
M  V30 8488 H 830.56 2.51971 -5.95919 0
M  V30 8489 N 830.692 1.47107 0.565454 0
M  V30 8490 C 831.625 1.53505 1.68853 0
M  V30 8491 C 832.603 0.387806 1.57908 0
M  V30 8492 O 833.787 0.594433 1.78882 0
M  V30 8493 C 830.914 1.42985 3.07039 0
M  V30 8494 C 829.96 2.62109 3.36454 0
M  V30 8495 S 830.793 4.2436 3.26617 0
M  V30 8496 C 831.949 4.16378 4.67312 0
M  V30 8497 H 832.182 2.48522 1.63169 0
M  V30 8498 H 829.715 1.35204 0.745609 0
M  V30 8499 H 831.673 1.37602 3.8675 0
M  V30 8500 H 830.334 0.493671 3.10196 0
M  V30 8501 H 829.527 2.50788 4.37174 0
M  V30 8502 H 829.129 2.64571 2.64345 0
M  V30 8503 H 831.421 3.84123 5.58082 0
M  V30 8504 H 832.364 5.17156 4.83689 0
M  V30 8505 H 832.772 3.47363 4.44971 0
M  V30 8506 N 832.17 -0.811516 1.35101 0
M  V30 8507 C 833.102 -1.93102 1.23468 0
M  V30 8508 C 834.115 -1.62021 0.159095 0
M  V30 8509 O 835.304 -1.73682 0.411945 0
M  V30 8510 C 832.404 -3.27345 0.877404 0
M  V30 8511 C 831.577 -3.86368 2.05033 0
M  V30 8512 C 830.636 -4.99009 1.66963 0
M  V30 8513 O 829.662 -5.16698 2.38772 0
M  V30 8514 N 830.864 -5.7749 0.590394 0
M  V30 8515 H 833.629 -2.0361 2.19916 0
M  V30 8516 H 831.19 -0.988687 1.28205 0
M  V30 8517 H 833.182 -4.00163 0.604298 0
M  V30 8518 H 831.752 -3.126 0.00275267 0
M  V30 8519 H 830.972 -3.05804 2.48752 0
M  V30 8520 H 832.26 -4.22533 2.83449 0
M  V30 8521 H 831.658 -5.657 -0.00633259 0
M  V30 8522 H 830.215 -6.50708 0.377055 0
M  V30 8523 N 833.648 -1.19017 -1.03309 0
M  V30 8524 C 834.876 -1.01534 -1.80273 0
M  V30 8525 C 835.291 0.43605 -1.83696 0
M  V30 8526 O 834.648 1.30288 -1.27794 0
M  V30 8527 C 834.699 -1.5722 -3.25522 0
M  V30 8528 O 834.42 -2.96677 -3.22358 0
M  V30 8529 C 835.921 -1.4446 -4.19102 0
M  V30 8530 H 833.141 -0.358094 -0.567459 0
M  V30 8531 H 835.685 -1.57738 -1.3015 0
M  V30 8532 H 833.84 -1.05174 -3.7285 0
M  V30 8533 H 834.254 -3.22795 -4.13405 0
M  V30 8534 H 835.728 -1.88209 -5.18923 0
M  V30 8535 H 836.205 -0.394471 -4.37425 0
M  V30 8536 H 836.811 -1.95616 -3.77643 0
M  V30 8537 N 835.127 1.22348 -0.993418 0
M  V30 8538 C 836.09 2.22522 -0.549251 0
M  V30 8539 C 837.09 1.56529 0.368164 0
M  V30 8540 O 838.28 1.73463 0.16005 0
M  V30 8541 C 835.412 3.40307 0.201037 0
M  V30 8542 H 836.605 2.63332 -1.43515 0
M  V30 8543 H 834.158 1.35407 -0.78068 0
M  V30 8544 H 834.893 3.0497 1.10289 0
M  V30 8545 H 834.678 3.8942 -0.457685 0
M  V30 8546 H 836.168 4.14597 0.499946 0
M  V30 8547 N 836.605 0.766683 1.37694 0
M  V30 8548 C 837.852 0.328714 1.99814 0
M  V30 8549 C 838.18 -1.09333 1.60862 0
M  V30 8550 O 837.435 -1.7657 0.8439 0
M  V30 8551 C 837.734 0.413831 3.54996 0
M  V30 8552 C 837.4 1.7934 4.137 0
M  V30 8553 C 836.062 2.17092 4.29447 0
M  V30 8554 C 838.414 2.69776 4.45949 0
M  V30 8555 C 835.742 3.44726 4.74743 0
M  V30 8556 C 838.094 3.96814 4.92667 0
M  V30 8557 C 836.758 4.34618 5.0662 0
M  V30 8558 H 836.028 0.120285 0.731172 0
M  V30 8559 H 838.675 0.97972 1.64541 0
M  V30 8560 H 836.98 -0.320723 3.90485 0
M  V30 8561 H 838.677 0.0563369 4.0096 0
M  V30 8562 H 835.267 1.48997 4.01868 0
M  V30 8563 H 839.451 2.41871 4.33373 0
M  V30 8564 H 834.707 3.73917 4.83731 0
M  V30 8565 H 838.881 4.67022 5.16588 0
M  V30 8566 H 836.508 5.33578 5.41478 0
M  V30 8567 N 838.083 -1.48885 0.516809 0
M  V30 8568 C 839.33 -2.02488 -0.0220602 0
M  V30 8569 C 839.658 -1.39513 -1.35523 0
M  V30 8570 O 838.913 -0.52558 -1.8851 0
M  V30 8571 C 839.212 -3.56801 -0.206798 0
M  V30 8572 C 838.878 -4.38496 1.05035 0
M  V30 8573 C 837.54 -4.60538 1.39492 0
M  V30 8574 C 839.892 -4.85909 1.88525 0
M  V30 8575 C 837.22 -5.2724 2.57361 0
M  V30 8576 C 839.572 -5.53909 3.05561 0
M  V30 8577 C 838.236 -5.74193 3.4038 0
M  V30 8578 H 837.506 -0.740956 -0.00807238 0
M  V30 8579 H 840.153 -1.79014 0.680168 0
M  V30 8580 H 838.458 -3.79042 -0.991687 0
M  V30 8581 H 840.155 -3.95885 -0.638447 0
M  V30 8582 H 836.745 -4.2159 0.771984 0
M  V30 8583 H 840.929 -4.68694 1.63218 0
M  V30 8584 H 836.185 -5.41145 2.84556 0
M  V30 8585 H 840.359 -5.89619 3.7057 0
M  V30 8586 H 837.986 -6.25652 4.31814 0
M  V30 8587 N 839.561 -0.251338 -1.55583 0
M  V30 8588 C 840.508 0.646337 -2.21565 0
M  V30 8589 C 841.478 1.16796 -1.18102 0
M  V30 8590 O 842.663 1.22162 -1.46564 0
M  V30 8591 C 839.803 1.83557 -2.92234 0
M  V30 8592 C 838.916 1.35006 -4.10363 0
M  V30 8593 C 838.051 2.4992 -4.68736 0
M  V30 8594 C 837.09 1.98253 -5.79105 0
M  V30 8595 N 836.227 3.06551 -6.31642 0
M  V30 8596 H 841.067 0.0769881 -2.97901 0
M  V30 8597 H 838.604 0.026238 -1.47077 0
M  V30 8598 H 840.562 2.53425 -3.31408 0
M  V30 8599 H 839.192 2.37733 -2.18364 0
M  V30 8600 H 838.244 0.545274 -3.76472 0
M  V30 8601 H 839.556 0.931435 -4.90026 0
M  V30 8602 H 838.71 3.27823 -5.10507 0
M  V30 8603 H 837.449 2.95086 -3.88298 0
M  V30 8604 H 836.454 1.18822 -5.36807 0
M  V30 8605 H 837.679 1.54051 -6.61396 0
M  V30 8606 H 835.625 3.51143 -5.54107 0
M  V30 8607 H 835.542 2.69033 -7.06511 0
M  V30 8608 H 836.81 3.84499 -6.78071 0
M  V30 8609 N 841.039 1.57585 0.0217189 0
M  V30 8610 C 841.969 2.10073 1.01939 0
M  V30 8611 C 842.95 1.0049 1.37243 0
M  V30 8612 O 844.135 1.28055 1.45999 0
M  V30 8613 C 841.265 2.58618 2.31806 0
M  V30 8614 C 840.219 3.72531 2.10724 0
M  V30 8615 C 839.545 4.07309 3.46415 0
M  V30 8616 C 840.845 5.00672 1.48743 0
M  V30 8617 H 842.539 2.9368 0.582432 0
M  V30 8618 H 840.085 1.41277 0.278715 0
M  V30 8619 H 842.038 2.9396 3.01936 0
M  V30 8620 H 840.762 1.72104 2.77575 0
M  V30 8621 H 839.421 3.37549 1.43025 0
M  V30 8622 H 839.069 3.17851 3.89846 0
M  V30 8623 H 838.769 4.84042 3.33132 0
M  V30 8624 H 840.293 4.45192 4.17895 0
M  V30 8625 H 841.707 5.33925 2.088 0
M  V30 8626 H 840.104 5.82065 1.46013 0
M  V30 8627 H 841.174 4.82769 0.45408 0
M  V30 8628 N 842.517 -0.29412 1.54831 0
M  V30 8629 C 843.48 -1.3461 1.85507 0
M  V30 8630 C 844.48 -1.43359 0.728343 0
M  V30 8631 O 845.67 -1.42875 0.996609 0
M  V30 8632 C 842.802 -2.73012 2.0415 0
M  V30 8633 H 843.995 -1.08651 2.79526 0
M  V30 8634 H 841.548 -0.531138 1.46999 0
M  V30 8635 H 842.283 -3.04183 1.12441 0
M  V30 8636 H 842.068 -2.68051 2.86166 0
M  V30 8637 H 843.558 -3.49061 2.29229 0
M  V30 8638 N 843.995 -1.47404 -0.557645 0
M  V30 8639 C 845.243 -1.53703 -1.31224 0
M  V30 8640 C 845.564 -0.200742 -1.93964 0
M  V30 8641 O 844.834 0.775253 -1.79907 0
M  V30 8642 H 843.414 -0.566171 -0.487299 0
M  V30 8643 H 846.076 -1.83699 -0.651195 0
M  V30 8644 H 845.172 -2.30335 -2.10599 0
M  V30 8645 N 845.473 0.80434 -1.35529 0
M  V30 8646 C 846.719 1.56385 -1.29118 0
M  V30 8647 C 847.052 1.9374 0.133536 0
M  V30 8648 O 846.327 1.6153 1.08344 0
M  V30 8649 C 846.61 2.85097 -2.19981 0
M  V30 8650 C 846.463 2.54204 -3.7108 0
M  V30 8651 C 847.782 3.86817 -2.09907 0
M  V30 8652 H 844.901 0.567382 -0.470368 0
M  V30 8653 H 847.543 0.925235 -1.6595 0
M  V30 8654 H 845.693 3.39594 -1.88701 0
M  V30 8655 H 847.365 2.05872 -4.12813 0
M  V30 8656 H 845.608 1.87364 -3.91251 0
M  V30 8657 H 846.279 3.46068 -4.30048 0
M  V30 8658 H 848.755 3.41725 -2.37409 0
M  V30 8659 H 847.631 4.7465 -2.75678 0
M  V30 8660 H 847.892 4.28663 -1.08171 0
M  V30 8661 N 846.951 1.19563 1.02676 0
M  V30 8662 C 847.881 0.959024 2.12897 0
M  V30 8663 C 848.862 -0.108382 1.69754 0
M  V30 8664 O 850.047 0.0470698 1.94143 0
M  V30 8665 C 847.177 0.499211 3.43693 0
M  V30 8666 C 846.131 1.5087 4.00528 0
M  V30 8667 C 845.457 0.905884 5.2697 0
M  V30 8668 C 846.757 2.88954 4.3509 0
M  V30 8669 H 848.451 1.88084 2.32948 0
M  V30 8670 H 845.997 0.905731 1.11949 0
M  V30 8671 H 847.95 0.320965 4.20176 0
M  V30 8672 H 846.674 -0.458205 3.2337 0
M  V30 8673 H 845.333 1.67413 3.26142 0
M  V30 8674 H 844.981 -0.0591506 5.02965 0
M  V30 8675 H 844.681 1.58 5.65959 0
M  V30 8676 H 846.205 0.73848 6.06118 0
M  V30 8677 H 847.619 2.75981 5.02501 0
M  V30 8678 H 846.016 3.53177 4.85166 0
M  V30 8679 H 847.086 3.41447 3.44299 0
M  V30 8680 N 848.429 -1.21819 0.999893 0
M  V30 8681 C 849.84 -1.72517 0.713775 0
M  V30 8682 C 850.191 -1.80505 -0.768922 0
M  V30 8683 O 849.316 -1.45611 -1.60083 0
M  V30 8684 C 849.911 -3.13321 1.28901 0
M  V30 8685 C 848.47 -3.61396 1.05212 0
M  V30 8686 C 847.617 -2.39074 1.40494 0
M  V30 8687 H 850.568 -1.07068 1.17141 0
M  V30 8688 H 850.589 -3.74535 0.671084 0
M  V30 8689 H 850.101 -3.07475 2.36814 0
M  V30 8690 H 848.202 -3.72599 -0.0100732 0
M  V30 8691 H 848.315 -4.47145 1.72042 0
M  V30 8692 H 846.679 -2.41015 0.823642 0
M  V30 8693 H 847.462 -2.35884 2.49427 0
M  V30 8694 N 849.908 -0.773975 -1.37286 0
M  V30 8695 C 851.155 -0.339306 -1.99637 0
M  V30 8696 C 851.483 1.08478 -1.61439 0
M  V30 8697 O 850.738 1.7612 -0.853252 0
M  V30 8698 C 851.037 -0.432651 -3.54772 0
M  V30 8699 C 850.703 -1.81531 -4.12744 0
M  V30 8700 C 849.365 -2.19366 -4.2829 0
M  V30 8701 C 851.717 -2.72137 -4.44512 0
M  V30 8702 C 849.045 -3.47239 -4.72908 0
M  V30 8703 C 851.397 -3.99421 -4.90556 0
M  V30 8704 C 850.061 -4.37298 -5.04308 0
M  V30 8705 H 849.331 -0.124161 -0.730524 0
M  V30 8706 H 851.978 -0.988432 -1.64019 0
M  V30 8707 H 850.283 0.30001 -3.9065 0
M  V30 8708 H 851.98 -0.0776 -4.00925 0
M  V30 8709 H 848.57 -1.51126 -4.01072 0
M  V30 8710 H 852.754 -2.44165 -4.32084 0
M  V30 8711 H 848.01 -3.76477 -4.81742 0
M  V30 8712 H 852.184 -4.69756 -5.14104 0
M  V30 8713 H 849.811 -5.36442 -5.38641 0
M  V30 8714 N 851.386 1.48609 -0.524698 0
M  V30 8715 C 852.296 2.33318 0.244923 0
M  V30 8716 C 853.312 1.46153 0.944214 0
M  V30 8717 O 854.488 1.79141 0.920347 0
M  V30 8718 C 851.553 3.22149 1.28144 0
M  V30 8719 C 850.614 4.25184 0.593068 0
M  V30 8720 C 849.847 5.0977 1.5802 0
M  V30 8721 O 850.07 4.96249 2.81235 0
M  V30 8722 O 849.004 5.9134 1.1225 0
M  V30 8723 H 852.83 3.00362 -0.449066 0
M  V30 8724 H 850.415 1.46643 -0.285689 0
M  V30 8725 H 852.297 3.77111 1.88057 0
M  V30 8726 H 850.972 2.57772 1.95793 0
M  V30 8727 H 849.879 3.74071 -0.0464214 0
M  V30 8728 H 851.212 4.92183 -0.0413893 0
M  V30 8729 N 852.864 0.259585 1.55447 0
M  V30 8730 C 853.811 -0.634578 2.21905 0
M  V30 8731 C 854.781 -1.16168 1.18719 0
M  V30 8732 O 855.966 -1.21383 1.4721 0
M  V30 8733 C 853.106 -1.82005 2.93203 0
M  V30 8734 C 852.219 -1.32828 4.11073 0
M  V30 8735 C 851.354 -2.47431 4.70055 0
M  V30 8736 C 850.393 -1.95179 5.80148 0
M  V30 8737 N 849.53 -3.03197 6.33258 0
M  V30 8738 H 854.37 -0.0611886 2.97937 0
M  V30 8739 H 851.907 -0.0184378 1.47088 0
M  V30 8740 H 853.865 -2.51664 3.32748 0
M  V30 8741 H 852.495 -2.36571 2.19622 0
M  V30 8742 H 851.547 -0.525301 3.76756 0
M  V30 8743 H 852.859 -0.905435 4.90513 0
M  V30 8744 H 852.013 -3.25111 5.12238 0
M  V30 8745 H 850.752 -2.93023 3.89857 0
M  V30 8746 H 849.757 -1.15974 5.37429 0
M  V30 8747 H 850.982 -1.50541 6.62204 0
M  V30 8748 H 848.928 -3.48199 5.55961 0
M  V30 8749 H 848.845 -2.65282 7.07928 0
M  V30 8750 H 850.113 -3.80898 6.80101 0
M  V30 8751 N 854.342 -1.57594 -0.0133615 0
M  V30 8752 C 855.305 -2.06534 -0.993799 0
M  V30 8753 C 856.305 -0.972267 -1.28077 0
M  V30 8754 O 857.495 -1.23537 -1.22818 0
M  V30 8755 C 854.627 -2.49554 -2.3224 0
M  V30 8756 H 855.82 -2.94419 -0.570741 0
M  V30 8757 H 853.373 -1.54113 -0.260546 0
M  V30 8758 H 854.108 -1.64872 -2.79263 0
M  V30 8759 H 853.893 -3.29371 -2.12737 0
M  V30 8760 H 855.383 -2.8779 -3.026 0
M  V30 8761 N 855.82 0.285905 -1.54985 0
M  V30 8762 C 857.066 1.02071 -1.75241 0
M  V30 8763 C 857.399 1.864 -0.544842 0
M  V30 8764 O 856.674 1.89034 0.457844 0
M  V30 8765 C 856.957 1.91409 -3.05016 0
M  V30 8766 C 856.81 1.10158 -4.36102 0
M  V30 8767 C 858.129 2.90335 -3.30747 0
M  V30 8768 H 855.248 0.369663 -0.637588 0
M  V30 8769 H 857.89 0.294114 -1.8771 0
M  V30 8770 H 856.04 2.53362 -2.94517 0
M  V30 8771 H 857.712 0.503756 -4.58541 0
M  V30 8772 H 855.955 0.404675 -4.31908 0
M  V30 8773 H 856.626 1.75956 -5.23205 0
M  V30 8774 H 859.102 2.38514 -3.40955 0
M  V30 8775 H 857.978 3.49997 -4.2284 0
M  V30 8776 H 858.239 3.64787 -2.49765 0
M  V30 8777 N 857.298 1.47698 0.54982 0
M  V30 8778 C 858.575 1.45185 1.31075 0
M  V30 8779 C 858.955 0.152768 2.10547 0
M  V30 8780 O 858.303 -0.865706 2.11466 0
M  V30 8781 C 858.513 2.70192 2.20902 0
M  V30 8782 C 859.861 3.1771 2.81683 0
M  V30 8783 O 860.885 2.70971 2.312 0
M  V30 8784 O 859.744 3.98986 3.7346 0
M  V30 8785 H 856.838 0.57892 0.590577 0
M  V30 8786 H 859.384 1.59908 0.568112 0
M  V30 8787 H 858.156 3.56269 1.61828 0
M  V30 8788 H 857.779 2.58091 3.02448 0
M  V30 8789 N 858.776 -0.797141 1.35954 0
M  V30 8790 C 859.706 -1.92387 1.32323 0
M  V30 8791 C 860.687 -1.68967 0.196007 0
M  V30 8792 O 861.872 -1.90193 0.39245 0
M  V30 8793 C 859.002 -3.29286 1.10398 0
M  V30 8794 C 857.956 -3.67212 2.19862 0
M  V30 8795 C 857.282 -5.02377 1.8309 0
M  V30 8796 C 858.582 -3.76602 3.61896 0
M  V30 8797 H 860.276 -1.95683 2.26602 0
M  V30 8798 H 857.822 -0.94007 1.09081 0
M  V30 8799 H 859.775 -4.07721 1.06495 0
M  V30 8800 H 858.499 -3.26358 0.125668 0
M  V30 8801 H 857.158 -2.91069 2.22878 0
M  V30 8802 H 856.806 -4.95961 0.838527 0
M  V30 8803 H 856.506 -5.28722 2.56372 0
M  V30 8804 H 858.03 -5.8324 1.80729 0
M  V30 8805 H 859.444 -4.45246 3.6115 0
M  V30 8806 H 857.841 -4.14425 4.34018 0
M  V30 8807 H 858.911 -2.77906 3.97361 0
M  V30 8808 N 860.254 -1.20106 -1.0204 0
M  V30 8809 C 861.184 -0.970301 -2.12385 0
M  V30 8810 C 862.165 0.099378 -1.69809 0
M  V30 8811 O 863.35 -0.057365 -1.94115 0
M  V30 8812 C 860.48 -0.517431 -3.43424 0
M  V30 8813 C 859.434 -1.52992 -3.99722 0
M  V30 8814 C 858.76 -0.933817 -5.26483 0
M  V30 8815 C 860.06 -2.91257 -4.33551 0
M  V30 8816 H 861.754 -1.89316 -2.31948 0
M  V30 8817 H 859.3 -0.911655 -1.11467 0
M  V30 8818 H 861.253 -0.343243 -4.2 0
M  V30 8819 H 859.977 0.441049 -3.23608 0
M  V30 8820 H 858.636 -1.6914 -3.2525 0
M  V30 8821 H 858.284 0.0324763 -5.0299 0
M  V30 8822 H 857.984 -1.60999 -5.65113 0
M  V30 8823 H 859.508 -0.770614 -6.05718 0
M  V30 8824 H 860.922 -2.78642 -5.0103 0
M  V30 8825 H 859.319 -3.55745 -4.83286 0
M  V30 8826 H 860.389 -3.43269 -3.42483 0
M  V30 8827 N 861.732 1.21287 -1.00634 0
M  V30 8828 C 862.679 2.23705 -0.567876 0
M  V30 8829 C 863.649 1.61043 0.406753 0
M  V30 8830 O 864.834 1.88289 0.308499 0
M  V30 8831 C 861.974 3.44961 0.097996 0
M  V30 8832 C 861.087 4.22091 -0.919972 0
M  V30 8833 C 860.222 5.30718 -0.226222 0
M  V30 8834 C 859.261 5.99581 -1.23165 0
M  V30 8835 N 858.398 6.99821 -0.565278 0
M  V30 8836 H 863.238 2.60571 -1.44592 0
M  V30 8837 H 860.775 1.28049 -0.724006 0
M  V30 8838 H 862.733 4.1418 0.501097 0
M  V30 8839 H 861.363 3.08818 0.939744 0
M  V30 8840 H 860.415 3.52038 -1.44131 0
M  V30 8841 H 861.727 4.69476 -1.68505 0
M  V30 8842 H 860.881 6.06253 0.232917 0
M  V30 8843 H 859.62 4.84343 0.571247 0
M  V30 8844 H 858.625 5.22816 -1.70128 0
M  V30 8845 H 859.85 6.48042 -2.03022 0
M  V30 8846 H 857.796 6.55656 0.212508 0
M  V30 8847 H 857.713 7.4528 -1.26858 0
M  V30 8848 H 858.981 7.79393 -0.129389 0
M  V30 8849 N 863.21 0.781244 1.36873 0
M  V30 8850 C 864.157 0.172146 2.30157 0
M  V30 8851 C 865.127 -0.679328 1.51573 0
M  V30 8852 O 866.312 -0.629713 1.80109 0
M  V30 8853 C 863.452 -0.693534 3.38059 0
M  V30 8854 C 862.565 0.175586 4.31643 0
M  V30 8855 C 861.7 -0.695695 5.26625 0
M  V30 8856 C 860.739 0.17538 6.11849 0
M  V30 8857 N 859.876 -0.654416 6.99043 0
M  V30 8858 H 864.716 0.973133 2.81663 0
M  V30 8859 H 862.253 0.491469 1.38647 0
M  V30 8860 H 864.211 -1.21035 3.99257 0
M  V30 8861 H 862.841 -1.46003 2.87894 0
M  V30 8862 H 861.893 0.810295 3.7167 0
M  V30 8863 H 863.205 0.847107 4.91554 0
M  V30 8864 H 862.359 -1.27863 5.93073 0
M  V30 8865 H 861.098 -1.40087 4.67148 0
M  V30 8866 H 860.103 0.77078 5.4437 0
M  V30 8867 H 861.328 0.87803 6.734 0
M  V30 8868 H 859.274 -1.34403 6.42084 0
M  V30 8869 H 859.191 -0.0403998 7.55989 0
M  V30 8870 H 860.459 -1.22144 7.69871 0
M  V30 8871 N 864.689 -1.48329 0.532571 0
M  V30 8872 C 865.914 -2.074 0.00147755 0
M  V30 8873 C 866.339 -1.38615 -1.27151 0
M  V30 8874 O 865.697 -0.452949 -1.75551 0
M  V30 8875 C 865.745 -3.60029 -0.202866 0
M  V30 8876 O 864.849 -3.92327 -1.27097 0
M  V30 8877 H 864.19 -0.662777 0.0402883 0
M  V30 8878 H 866.72 -1.90701 0.741224 0
M  V30 8879 H 866.73 -4.05783 -0.424722 0
M  V30 8880 H 865.405 -4.09496 0.727033 0
M  V30 8881 H 863.982 -3.58348 -1.03156 0
M  V30 8882 N 866.167 -0.267825 -1.55308 0
M  V30 8883 C 867.416 0.351635 -1.98611 0
M  V30 8884 C 867.729 1.57522 -1.15957 0
M  V30 8885 O 868.935 2.26717 -1.49371 0
M  V30 8886 C 867.391 0.676986 -3.53475 0
M  V30 8887 C 866.999 -0.526385 -4.44897 0
M  V30 8888 C 868.743 1.25948 -4.05386 0
M  V30 8889 C 866.65 -0.176026 -5.91138 0
M  V30 8890 H 865.58 0.13516 -0.741787 0
M  V30 8891 H 868.231 -0.371333 -1.79704 0
M  V30 8892 H 866.613 1.45866 -3.68156 0
M  V30 8893 H 867.787 -1.30339 -4.41982 0
M  V30 8894 H 866.102 -1.02522 -4.03582 0
M  V30 8895 H 868.699 1.53529 -5.12184 0
M  V30 8896 H 869.042 2.19094 -3.53982 0
M  V30 8897 H 869.575 0.540253 -3.94114 0
M  V30 8898 H 866.314 -1.07518 -6.46622 0
M  V30 8899 H 865.834 0.564363 -5.97139 0
M  V30 8900 H 867.513 0.234365 -6.46575 0
M  V30 8901 N 867.645 1.57599 0.00500368 0
M  V30 8902 C 868.595 2.04585 1.00643 0
M  V30 8903 C 869.579 0.939622 1.30614 0
M  V30 8904 O 870.771 1.20342 1.29796 0
M  V30 8905 C 867.9 2.5486 2.30002 0
M  V30 8906 C 866.986 3.7235 2.03017 0
M  V30 8907 N 867.377 4.84218 1.46173 0
M  V30 8908 C 865.675 3.80185 2.33185 0
M  V30 8909 C 866.376 5.65688 1.35544 0
M  V30 8910 N 865.352 5.11536 1.83933 0
M  V30 8911 H 869.154 2.8849 0.561332 0
M  V30 8912 H 866.668 1.61026 0.210808 0
M  V30 8913 H 868.665 2.86794 3.0258 0
M  V30 8914 H 867.325 1.72372 2.75169 0
M  V30 8915 H 868.336 5.0517 1.1412 0
M  V30 8916 H 865.013 3.08543 2.81261 0
M  V30 8917 H 866.403 6.65588 0.918791 0
M  V30 8918 N 869.123 -0.277682 1.55134 0
M  V30 8919 C 870.07 -1.34313 1.87693 0
M  V30 8920 C 871.04 -1.49298 0.727973 0
M  V30 8921 O 872.225 -1.6378 0.978807 0
M  V30 8922 C 869.365 -2.69922 2.15026 0
M  V30 8923 C 868.478 -2.63197 3.42565 0
M  V30 8924 C 867.613 -3.90955 3.59622 0
M  V30 8925 C 866.652 -3.78722 4.8087 0
M  V30 8926 N 865.789 -4.98303 4.94609 0
M  V30 8927 H 870.629 -1.05847 2.78569 0
M  V30 8928 H 868.166 -0.511469 1.37922 0
M  V30 8929 H 870.124 -3.48817 2.28872 0
M  V30 8930 H 868.754 -2.966 1.2739 0
M  V30 8931 H 867.806 -1.76038 3.37216 0
M  V30 8932 H 869.118 -2.50056 4.31594 0
M  V30 8933 H 868.272 -4.78291 3.7326 0
M  V30 8934 H 867.011 -4.06957 2.6877 0
M  V30 8935 H 866.016 -2.89769 4.67241 0
M  V30 8936 H 867.241 -3.64242 5.73153 0
M  V30 8937 H 865.187 -5.14725 4.06687 0
M  V30 8938 H 865.104 -4.87675 5.77676 0
M  V30 8939 H 866.372 -5.87225 5.12628 0
M  V30 8940 N 870.601 -1.47988 -0.541979 0
M  V30 8941 C 871.564 -1.61148 -1.62984 0
M  V30 8942 C 872.564 -0.48553 -1.53295 0
M  V30 8943 O 873.754 -0.751012 -1.5718 0
M  V30 8944 C 870.886 -1.57038 -3.02576 0
M  V30 8945 H 872.079 -2.58138 -1.52659 0
M  V30 8946 H 869.632 -1.36405 -0.763106 0
M  V30 8947 H 870.367 -0.614807 -3.18419 0
M  V30 8948 H 870.152 -2.38769 -3.11018 0
M  V30 8949 H 871.642 -1.69416 -3.81691 0
M  V30 8950 N 872.079 0.78992 -1.36375 0
M  V30 8951 C 873.309 1.57644 -1.33536 0
M  V30 8952 C 873.717 1.89007 0.0855075 0
M  V30 8953 O 873.06 1.50547 1.05267 0
M  V30 8954 C 873.122 2.92424 -2.09113 0
M  V30 8955 C 872.786 2.83793 -3.58205 0
M  V30 8956 C 873.783 2.56072 -4.52464 0
M  V30 8957 C 871.468 3.02386 -4.01084 0
M  V30 8958 C 873.462 2.47044 -5.87578 0
M  V30 8959 C 871.149 2.9298 -5.36289 0
M  V30 8960 C 872.147 2.65347 -6.29349 0
M  V30 8961 O 871.835 2.55935 -7.62071 0
M  V30 8962 H 871.567 0.495639 -0.459694 0
M  V30 8963 H 874.121 0.988354 -1.80058 0
M  V30 8964 H 872.351 3.53282 -1.57254 0
M  V30 8965 H 874.04 3.53693 -1.99139 0
M  V30 8966 H 874.806 2.4141 -4.2065 0
M  V30 8967 H 870.685 3.229 -3.29023 0
M  V30 8968 H 874.229 2.25396 -6.60184 0
M  V30 8969 H 870.126 3.07204 -5.67711 0
M  V30 8970 H 870.894 2.7142 -7.72187 0
M  V30 8971 N 873.557 1.20646 1.01402 0
M  V30 8972 C 874.805 1.01618 1.74695 0
M  V30 8973 C 875.126 -0.452438 1.89679 0
M  V30 8974 O 874.396 -1.32693 1.44116 0
M  V30 8975 H 872.976 0.373013 0.647202 0
M  V30 8976 H 875.638 1.518 1.22241 0
M  V30 8977 H 874.734 1.47666 2.74957 0
M  V30 8978 N 875.035 -1.20752 1.01276 0
M  V30 8979 C 875.982 -2.234 0.579732 0
M  V30 8980 C 876.952 -1.61256 -0.398206 0
M  V30 8981 O 878.137 -1.8845 -0.29851 0
M  V30 8982 C 875.277 -3.45008 -0.0797006 0
M  V30 8983 C 874.39 -4.21597 0.942343 0
M  V30 8984 C 873.525 -5.30591 0.254364 0
M  V30 8985 C 872.564 -5.98919 1.26343 0
M  V30 8986 N 871.701 -6.99511 0.602384 0
M  V30 8987 H 876.541 -2.59801 1.45971 0
M  V30 8988 H 874.078 -1.27663 0.730787 0
M  V30 8989 H 876.036 -4.1444 -0.479125 0
M  V30 8990 H 874.666 -3.09312 -0.923354 0
M  V30 8991 H 873.718 -3.51268 1.45996 0
M  V30 8992 H 875.03 -4.68576 1.70992 0
M  V30 8993 H 874.184 -6.06368 -0.200763 0
M  V30 8994 H 872.923 -4.84639 -0.545553 0
M  V30 8995 H 871.928 -5.21906 1.72898 0
M  V30 8996 H 873.153 -6.46957 2.06456 0
M  V30 8997 H 871.099 -6.55759 -0.177734 0
M  V30 8998 H 871.016 -7.44597 1.30809 0
M  V30 8999 H 872.284 -7.79313 0.17072 0
M  V30 9000 N 876.513 -0.788492 -1.36457 0
M  V30 9001 C 877.46 -0.18435 -2.30063 0
M  V30 9002 C 878.43 0.67128 -1.51931 0
M  V30 9003 O 879.615 0.620152 -1.8044 0
M  V30 9004 C 876.755 0.675596 -3.38422 0
M  V30 9005 C 875.868 -0.198475 -4.31544 0
M  V30 9006 C 875.003 0.667757 -5.26986 0
M  V30 9007 C 874.042 -0.207825 -6.11747 0
M  V30 9008 N 873.179 0.617335 -6.99381 0
M  V30 9009 H 878.019 -0.988056 -2.81143 0
M  V30 9010 H 875.556 -0.498815 -1.38384 0
M  V30 9011 H 877.514 1.18916 -3.99894 0
M  V30 9012 H 876.144 1.44474 -2.88664 0
M  V30 9013 H 875.196 -0.829995 -3.71235 0
M  V30 9014 H 876.508 -0.873163 -4.91098 0
M  V30 9015 H 875.662 1.24716 -5.93743 0
M  V30 9016 H 874.401 1.37607 -4.67884 0
M  V30 9017 H 873.406 -0.799638 -5.43954 0
M  V30 9018 H 874.631 -0.913729 -6.72925 0
M  V30 9019 H 872.577 1.30996 -6.42788 0
M  V30 9020 H 872.494 0.000307255 -7.56 0
M  V30 9021 H 873.762 1.1806 -7.70508 0
M  V30 9022 N 877.991 1.48044 -0.54043 0
M  V30 9023 C 879.239 2.02097 -0.0101367 0
M  V30 9024 C 879.56 1.41881 1.33771 0
M  V30 9025 O 878.83 0.587923 1.8687 0
M  V30 9026 H 877.41 0.747 -0.000758716 0
M  V30 9027 H 880.072 1.81639 -0.706634 0
M  V30 9028 H 879.168 3.11969 0.0904474 0
M  V30 9029 N 879.47 0.276058 1.55163 0
M  V30 9030 C 880.38 -0.621066 2.2623 0
M  V30 9031 C 881.396 -1.16931 1.28853 0
M  V30 9032 O 882.572 -1.1994 1.61791 0
M  V30 9033 C 879.637 -1.78824 2.97023 0
M  V30 9034 C 878.698 -1.27657 4.09881 0
M  V30 9035 C 877.931 -2.38812 4.77289 0
M  V30 9036 O 878.154 -3.58188 4.43912 0
M  V30 9037 O 877.088 -2.06915 5.65217 0
M  V30 9038 H 880.914 -0.0453346 3.03666 0
M  V30 9039 H 878.499 0.0434275 1.49337 0
M  V30 9040 H 880.381 -2.46877 3.41511 0
M  V30 9041 H 879.056 -2.35104 2.22503 0
M  V30 9042 H 877.963 -0.56248 3.69847 0
M  V30 9043 H 879.296 -0.759509 4.86305 0
M  V30 9044 N 880.948 -1.576 0.00335426 0
M  V30 9045 C 881.895 -2.08632 -0.986975 0
M  V30 9046 C 882.865 -0.982491 -1.33927 0
M  V30 9047 O 884.05 -1.25513 -1.43705 0
M  V30 9048 C 881.19 -2.59705 -2.27261 0
M  V30 9049 C 880.303 -3.84002 -1.97905 0
M  V30 9050 C 879.438 -4.23563 -3.20574 0
M  V30 9051 C 878.477 -5.40688 -2.8692 0
M  V30 9052 N 877.614 -5.75526 -4.02136 0
M  V30 9053 H 882.454 -2.92977 -0.544855 0
M  V30 9054 H 879.991 -1.44831 -0.257376 0
M  V30 9055 H 881.949 -2.87395 -3.02423 0
M  V30 9056 H 880.579 -1.7823 -2.69136 0
M  V30 9057 H 879.631 -3.63199 -1.13096 0
M  V30 9058 H 880.943 -4.69261 -1.69102 0
M  V30 9059 H 880.097 -4.52554 -4.04079 0
M  V30 9060 H 878.836 -3.37019 -3.52518 0
M  V30 9061 H 877.841 -5.11417 -2.01822 0
M  V30 9062 H 879.066 -6.2891 -2.5622 0
M  V30 9063 H 877.012 -4.9194 -4.33971 0
M  V30 9064 H 876.929 -6.55367 -3.76869 0
M  V30 9065 H 878.197 -6.0911 -4.8642 0
M  V30 9066 N 882.426 0.269451 -1.5528 0
M  V30 9067 C 883.675 0.998381 -1.75258 0
M  V30 9068 C 883.988 1.87321 -0.563034 0
M  V30 9069 O 885.194 2.63719 -0.645313 0
M  V30 9070 C 883.65 1.82505 -3.10193 0
M  V30 9071 C 883.258 0.99871 -4.36726 0
M  V30 9072 C 885.002 2.54807 -3.3952 0
M  V30 9073 C 882.909 1.81997 -5.627 0
M  V30 9074 H 881.839 0.376488 -0.653278 0
M  V30 9075 H 884.49 0.253909 -1.81735 0
M  V30 9076 H 882.872 2.61061 -2.97763 0
M  V30 9077 H 884.046 0.257064 -4.60082 0
M  V30 9078 H 882.361 0.390074 -4.14569 0
M  V30 9079 H 884.958 3.16662 -4.30847 0
M  V30 9080 H 885.301 3.25273 -2.59813 0
M  V30 9081 H 885.834 1.83278 -3.53064 0
M  V30 9082 H 882.573 1.15945 -6.45164 0
M  V30 9083 H 882.093 2.53749 -5.43481 0
M  V30 9084 H 883.772 2.39274 -6.0113 0
M  V30 9085 N 883.904 1.48273 0.534124 0
M  V30 9086 C 885.15 1.56311 1.29208 0
M  V30 9087 C 885.483 0.234481 1.92779 0
M  V30 9088 O 884.758 -0.759143 1.79073 0
M  V30 9089 C 885.041 2.69831 2.3846 0
M  V30 9090 C 884.894 4.12385 1.79608 0
M  V30 9091 C 886.213 2.79133 3.40254 0
M  V30 9092 H 883.332 0.56899 0.468422 0
M  V30 9093 H 885.974 1.80429 0.595438 0
M  V30 9094 H 884.124 2.49397 2.97881 0
M  V30 9095 H 885.796 4.44246 1.24269 0
M  V30 9096 H 884.039 4.19579 1.10162 0
M  V30 9097 H 884.71 4.87629 2.58693 0
M  V30 9098 H 887.186 2.97632 2.90783 0
M  V30 9099 H 886.062 3.60298 4.14097 0
M  V30 9100 H 886.323 1.87122 4.00547 0
M  V30 9101 N 885.382 -0.782676 1.36792 0
M  V30 9102 C 886.329 -1.89558 1.31667 0
M  V30 9103 C 887.299 -1.65076 0.184147 0
M  V30 9104 O 888.484 -1.87143 0.371753 0
M  V30 9105 C 885.624 -3.26469 1.11858 0
M  V30 9106 C 884.737 -3.62978 2.34245 0
M  V30 9107 C 883.872 -4.89041 2.07394 0
M  V30 9108 C 882.911 -5.18249 3.25706 0
M  V30 9109 N 882.048 -6.35497 2.98476 0
M  V30 9110 H 886.888 -1.93274 2.26824 0
M  V30 9111 H 884.425 -0.945057 1.12726 0
M  V30 9112 H 886.383 -4.05431 0.983968 0
M  V30 9113 H 885.013 -3.22158 0.203531 0
M  V30 9114 H 884.065 -2.79087 2.58485 0
M  V30 9115 H 885.377 -3.80507 3.22514 0
M  V30 9116 H 884.531 -5.75883 1.90901 0
M  V30 9117 H 883.27 -4.73594 1.16446 0
M  V30 9118 H 882.275 -4.29887 3.4275 0
M  V30 9119 H 883.5 -5.35611 4.1749 0
M  V30 9120 H 881.446 -6.21429 2.10146 0
M  V30 9121 H 881.363 -6.5339 3.80286 0
M  V30 9122 H 882.631 -7.25304 2.85577 0
M  V30 9123 N 886.86 -1.21182 -1.00761 0
M  V30 9124 C 887.793 -0.912033 -2.09182 0
M  V30 9125 C 888.771 0.139421 -1.62001 0
M  V30 9126 O 889.955 0.0110272 -1.88497 0
M  V30 9127 C 887.082 -0.368957 -3.36684 0
M  V30 9128 C 886.128 -1.4028 -4.0277 0
M  V30 9129 S 886.961 -2.97108 -4.45519 0
M  V30 9130 C 888.117 -2.444 -5.76211 0
M  V30 9131 H 888.35 -1.83019 -2.34289 0
M  V30 9132 H 885.883 -1.04127 -1.14004 0
M  V30 9133 H 887.841 -0.0621883 -4.10453 0
M  V30 9134 H 886.502 0.527841 -3.09633 0
M  V30 9135 H 885.695 -0.97238 -4.94531 0
M  V30 9136 H 885.297 -1.65752 -3.35265 0
M  V30 9137 H 887.589 -1.84723 -6.51831 0
M  V30 9138 H 888.532 -3.34593 -6.24062 0
M  V30 9139 H 888.94 -1.86203 -5.32906 0
M  V30 9140 N 888.338 1.20213 -1.01915 0
M  V30 9141 C 889.286 2.25125 -0.584936 0
M  V30 9142 C 890.28 1.65138 0.377602 0
M  V30 9143 O 891.486 1.78294 0.247245 0
M  V30 9144 H 887.861 0.732333 -0.170858 0
M  V30 9145 H 889.832 2.59075 -1.48063 0
M  V30 9146 C 888.581 3.47651 0.058389 0
M  V30 9147 H 887.904 3.9409 -0.673263 0
M  V30 9148 H 889.344 4.2275 0.325285 0
M  V30 9149 C 887.803 3.10725 1.30199 0
M  V30 9150 O 888.333 3.22491 2.39505 0
M  V30 9151 N 886.539 2.6525 1.18706 0
M  V30 9152 H 886.086 2.55875 0.297618 0
M  V30 9153 H 886.044 2.40913 2.02011 0
M  V30 9154 N 889.816 0.795718 1.36037 0
M  V30 9155 C 891.044 0.383153 2.03321 0
M  V30 9156 C 891.459 -1.00246 1.59988 0
M  V30 9157 O 890.816 -1.64406 0.792265 0
M  V30 9158 C 890.867 0.444467 3.58757 0
M  V30 9159 O 890.588 1.77544 4.00512 0
M  V30 9160 C 892.089 0.0233291 4.43294 0
M  V30 9161 H 889.309 0.157061 0.652359 0
M  V30 9162 H 891.853 1.07632 1.73884 0
M  V30 9163 H 890.008 -0.200341 3.86882 0
M  V30 9164 H 890.422 1.73065 4.95125 0
M  V30 9165 H 891.896 0.117361 5.51875 0
M  V30 9166 H 892.373 -1.03007 4.2695 0
M  V30 9167 H 892.979 0.64087 4.20444 0
M  V30 9168 N 891.294 -1.47756 0.548274 0
M  V30 9169 C 892.571 -1.9555 -0.0443603 0
M  V30 9170 C 892.951 -1.49079 -1.49462 0
M  V30 9171 O 892.299 -0.725538 -2.16675 0
M  V30 9172 C 892.509 -3.48879 0.0918425 0
M  V30 9173 C 893.857 -4.2456 -0.0580879 0
M  V30 9174 O 894.881 -3.56195 0.018946 0
M  V30 9175 O 893.74 -5.46048 -0.222261 0
M  V30 9176 H 890.834 -0.824106 -0.0691235 0
M  V30 9177 H 893.38 -1.58196 0.614166 0
M  V30 9178 H 892.152 -3.7548 1.10137 0
M  V30 9179 H 891.775 -3.92975 -0.604704 0
M  V30 9180 N 892.772 -0.284283 -1.55015 0
M  V30 9181 C 893.735 0.586182 -2.21577 0
M  V30 9182 C 894.735 1.07427 -1.1965 0
M  V30 9183 O 895.925 0.972977 -1.44495 0
M  V30 9184 C 893.057 1.80973 -2.88897 0
M  V30 9185 H 894.25 0.00487253 -2.999 0
M  V30 9186 H 891.803 -0.0349696 -1.56261 0
M  V30 9187 H 892.538 2.43131 -2.14611 0
M  V30 9188 H 892.323 1.46757 -3.636 0
M  V30 9189 H 893.813 2.42853 -3.39724 0
M  V30 9190 N 894.251 1.57596 -0.0117121 0
M  V30 9191 C 895.497 1.91355 0.671661 0
M  V30 9192 C 895.83 0.886818 1.72769 0
M  V30 9193 O 895.105 -0.0928813 1.94278 0
M  V30 9194 C 895.388 3.35657 1.30409 0
M  V30 9195 C 895.241 4.49055 0.2588 0
M  V30 9196 C 896.56 3.79595 2.22701 0
M  V30 9197 H 893.679 0.695893 0.242698 0
M  V30 9198 H 896.321 1.89887 -0.0654071 0
M  V30 9199 H 894.471 3.37038 1.9323 0
M  V30 9200 H 896.143 4.59809 -0.370631 0
M  V30 9201 H 894.386 4.31785 -0.417672 0
M  V30 9202 H 895.057 5.4701 0.740578 0
M  V30 9203 H 897.533 3.7984 1.69885 0
M  V30 9204 H 896.409 4.81292 2.63912 0
M  V30 9205 H 896.67 3.14118 3.11098 0
M  V30 9206 N 895.729 -0.261212 1.5542 0
M  V30 9207 C 897.006 -1.01321 1.67312 0
M  V30 9208 C 897.386 -2.0388 0.547356 0
M  V30 9209 O 896.734 -2.24003 -0.451083 0
M  V30 9210 C 896.944 -1.65943 3.07024 0
M  V30 9211 C 898.292 -2.16666 3.65159 0
M  V30 9212 O 899.316 -1.75909 3.09733 0
M  V30 9213 O 898.175 -2.91455 4.62294 0
M  V30 9214 H 895.269 -0.470714 0.679968 0
M  V30 9215 H 897.815 -0.256133 1.67756 0
M  V30 9216 H 896.587 -0.916868 3.80407 0
M  V30 9217 H 896.21 -2.48308 3.1053 0
M  V30 9218 N 897.207 -1.48554 -0.526253 0
M  V30 9219 C 898.139 -1.59446 -1.6465 0
M  V30 9220 C 899.152 -0.478525 -1.55608 0
M  V30 9221 O 900.341 -0.74953 -1.62001 0
M  V30 9222 C 897.441 -1.51164 -3.03319 0
M  V30 9223 C 896.614 -2.77861 -3.37805 0
M  V30 9224 C 895.673 -2.62982 -4.5577 0
M  V30 9225 O 894.699 -3.36876 -4.58806 0
M  V30 9226 N 895.901 -1.72847 -5.5417 0
M  V30 9227 H 898.666 -2.56055 -1.55743 0
M  V30 9228 H 896.227 -1.45325 -0.713606 0
M  V30 9229 H 898.219 -1.389 -3.80117 0
M  V30 9230 H 896.789 -0.625147 -3.06285 0
M  V30 9231 H 896.009 -3.04663 -2.50149 0
M  V30 9232 H 897.297 -3.61908 -3.57632 0
M  V30 9233 H 896.695 -1.12022 -5.54498 0
M  V30 9234 H 895.252 -1.6652 -6.3017 0
M  V30 9235 N 898.685 0.775411 -1.37205 0
M  V30 9236 C 899.648 1.8702 -1.325 0
M  V30 9237 C 900.648 1.5915 -0.229793 0
M  V30 9238 O 901.838 1.673 -0.485423 0
M  V30 9239 C 898.97 3.24085 -1.05745 0
M  V30 9240 H 900.163 1.92604 -2.29878 0
M  V30 9241 H 897.716 0.97476 -1.22181 0
M  V30 9242 H 898.451 3.24178 -0.0888371 0
M  V30 9243 H 898.236 3.45705 -1.85016 0
M  V30 9244 H 899.726 4.0416 -1.05094 0
M  V30 9245 N 900.163 1.21714 1.00117 0
M  V30 9246 C 901.409 1.03823 1.74208 0
M  V30 9247 C 901.742 -0.426733 1.89454 0
M  V30 9248 O 901.017 -1.31658 1.43166 0
M  V30 9249 C 901.3 1.74047 3.15246 0
M  V30 9250 C 901.153 3.28087 3.077 0
M  V30 9251 C 902.472 1.48614 4.14249 0
M  V30 9252 H 899.591 0.378573 0.632338 0
M  V30 9253 H 902.233 1.49942 1.16694 0
M  V30 9254 H 900.383 1.3484 3.64349 0
M  V30 9255 H 902.055 3.76686 2.6628 0
M  V30 9256 H 900.298 3.58191 2.44707 0
M  V30 9257 H 900.969 3.72392 4.07466 0
M  V30 9258 H 903.445 1.82656 3.73866 0
M  V30 9259 H 902.321 2.00257 5.11066 0
M  V30 9260 H 902.582 0.416957 4.40129 0
M  V30 9261 N 901.641 -1.19671 1.02551 0
M  V30 9262 C 902.869 -1.93233 0.739513 0
M  V30 9263 C 903.284 -1.75298 -0.701158 0
M  V30 9264 O 902.641 -1.07269 -1.47647 0
M  V30 9265 C 902.692 -3.45085 1.07697 0
M  V30 9266 O 902.413 -3.62441 2.46106 0
M  V30 9267 C 903.914 -4.35776 0.813298 0
M  V30 9268 H 901.134 -0.613905 0.270853 0
M  V30 9269 H 903.678 -1.51909 1.36909 0
M  V30 9270 H 901.833 -3.84255 0.492635 0
M  V30 9271 H 902.247 -4.56337 2.58567 0
M  V30 9272 H 903.721 -5.40941 1.09941 0
M  V30 9273 H 904.198 -4.38474 -0.252359 0
M  V30 9274 H 904.804 -4.02282 1.38021 0
M  V30 9275 N 903.119 -0.802921 -1.35613 0
M  V30 9276 C 904.344 -0.392846 -2.03645 0
M  V30 9277 C 904.769 0.987075 -1.6012 0
M  V30 9278 O 904.127 1.63849 -0.776101 0
M  V30 9279 C 904.175 -0.480208 -3.57388 0
M  V30 9280 O 903.279 0.507751 -4.09262 0
M  V30 9281 H 902.62 -0.16464 -0.643265 0
M  V30 9282 H 905.15 -1.08779 -1.73287 0
M  V30 9283 H 905.16 -0.348683 -4.06507 0
M  V30 9284 H 903.835 -1.48675 -3.88418 0
M  V30 9285 H 902.412 0.336769 -3.71376 0
M  V30 9286 N 904.597 1.47463 -0.556102 0
M  V30 9287 C 905.527 2.32801 0.180497 0
M  V30 9288 C 906.508 1.43721 0.909848 0
M  V30 9289 O 907.693 1.72578 0.89053 0
M  V30 9290 C 904.823 3.25478 1.21167 0
M  V30 9291 C 903.777 4.2379 0.598846 0
M  V30 9292 C 903.103 5.05783 1.73457 0
M  V30 9293 C 904.403 5.20387 -0.446659 0
M  V30 9294 H 906.097 2.94636 -0.531956 0
M  V30 9295 H 903.643 1.41683 -0.257267 0
M  V30 9296 H 905.596 3.8402 1.73513 0
M  V30 9297 H 904.32 2.61695 1.95405 0
M  V30 9298 H 902.979 3.66472 0.0966897 0
M  V30 9299 H 902.627 4.38405 2.46596 0
M  V30 9300 H 902.327 5.72343 1.33031 0
M  V30 9301 H 903.851 5.67183 2.26131 0
M  V30 9302 H 905.265 5.73299 -0.00930019 0
M  V30 9303 H 903.662 5.95143 -0.769735 0
M  V30 9304 H 904.732 4.65932 -1.34295 0
M  V30 9305 N 906.075 0.2925 1.54862 0
M  V30 9306 C 907.007 -0.620889 2.2063 0
M  V30 9307 C 908.02 -1.10412 1.19637 0
M  V30 9308 O 909.209 -1.02304 1.46274 0
M  V30 9309 C 906.309 -1.861 2.83232 0
M  V30 9310 C 905.482 -1.52168 4.10078 0
M  V30 9311 C 904.541 -2.61605 4.56562 0
M  V30 9312 O 903.567 -2.27056 5.21952 0
M  V30 9313 N 904.769 -3.9199 4.28163 0
M  V30 9314 H 907.534 -0.0579028 2.99644 0
M  V30 9315 H 905.095 0.114333 1.61496 0
M  V30 9316 H 907.087 -2.58642 3.11266 0
M  V30 9317 H 905.657 -2.33259 2.08108 0
M  V30 9318 H 904.877 -0.629283 3.89145 0
M  V30 9319 H 906.165 -1.27023 4.92689 0
M  V30 9320 H 905.563 -4.22872 3.7576 0
M  V30 9321 H 904.12 -4.60857 4.60928 0
M  V30 9322 N 907.553 -1.57587 0.0200696 0
M  V30 9323 C 908.463 -2.13119 -0.980676 0
M  V30 9324 C 909.479 -1.08124 -1.36328 0
M  V30 9325 O 910.655 -1.40134 -1.44653 0
M  V30 9326 C 907.72 -2.63991 -2.24743 0
M  V30 9327 C 906.781 -3.83667 -1.9261 0
M  V30 9328 C 906.014 -4.32103 -3.13246 0
M  V30 9329 O 906.237 -3.79758 -4.25606 0
M  V30 9330 O 905.171 -5.24047 -2.96072 0
M  V30 9331 H 908.997 -2.98887 -0.538528 0
M  V30 9332 H 906.582 -1.48055 -0.19999 0
M  V30 9333 H 908.464 -2.9682 -2.99125 0
M  V30 9334 H 907.139 -1.81311 -2.68157 0
M  V30 9335 H 906.046 -3.55778 -1.15641 0
M  V30 9336 H 907.379 -4.67482 -1.54019 0
M  V30 9337 N 909.032 0.252966 -1.55557 0
M  V30 9338 C 910.279 0.981852 -1.77104 0
M  V30 9339 C 910.607 1.85547 -0.583305 0
M  V30 9340 O 909.862 1.90836 0.43359 0
M  V30 9341 C 910.161 1.87785 -3.04091 0
M  V30 9342 C 909.827 1.16009 -4.35721 0
M  V30 9343 C 908.489 0.961697 -4.71492 0
M  V30 9344 C 910.841 0.650884 -5.1712 0
M  V30 9345 C 908.169 0.241704 -5.86202 0
M  V30 9346 C 910.521 -0.0556124 -6.32576 0
M  V30 9347 C 909.185 -0.265536 -6.66972 0
M  V30 9348 H 908.455 0.359285 -0.64807 0
M  V30 9349 H 911.102 0.252443 -1.89829 0
M  V30 9350 H 909.407 2.67412 -2.86353 0
M  V30 9351 H 911.104 2.44339 -3.17961 0
M  V30 9352 H 907.694 1.32465 -4.07616 0
M  V30 9353 H 911.878 0.791719 -4.89944 0
M  V30 9354 H 907.134 0.0685292 -6.11362 0
M  V30 9355 H 911.308 -0.457839 -6.94893 0
M  V30 9356 H 908.935 -0.8254 -7.55706 0
M  V30 9357 N 910.51 1.48831 0.518367 0
M  V30 9358 C 911.457 1.64216 1.62178 0
M  V30 9359 C 912.427 0.483942 1.58894 0
M  V30 9360 O 913.612 0.708857 1.77144 0
M  V30 9361 C 910.752 1.69867 3.00399 0
M  V30 9362 C 909.865 2.96875 3.1383 0
M  V30 9363 C 909 2.93613 4.42679 0
M  V30 9364 C 908.039 4.15276 4.4968 0
M  V30 9365 N 907.176 4.10024 5.69934 0
M  V30 9366 H 912.016 2.58439 1.48368 0
M  V30 9367 H 909.553 1.28154 0.722152 0
M  V30 9368 H 911.511 1.71124 3.8049 0
M  V30 9369 H 910.141 0.791249 3.12952 0
M  V30 9370 H 909.193 3.0531 2.26914 0
M  V30 9371 H 910.505 3.86863 3.14863 0
M  V30 9372 H 909.659 2.93337 5.31073 0
M  V30 9373 H 908.398 2.01375 4.44184 0
M  V30 9374 H 907.403 4.15816 3.59691 0
M  V30 9375 H 908.628 5.08687 4.49904 0
M  V30 9376 H 906.574 3.20613 5.72314 0
M  V30 9377 H 906.491 4.93728 5.72511 0
M  V30 9378 H 907.759 4.13824 6.60583 0
M  V30 9379 N 911.988 -0.768124 1.37614 0
M  V30 9380 C 913.218 -1.555 1.36027 0
M  V30 9381 C 913.626 -1.89119 -0.0554273 0
M  V30 9382 O 912.969 -1.52203 -1.02859 0
M  V30 9383 C 913.031 -2.8906 2.13739 0
M  V30 9384 C 912.695 -2.78058 3.62674 0
M  V30 9385 C 913.692 -2.48841 4.5648 0
M  V30 9386 C 911.377 -2.95966 4.05844 0
M  V30 9387 C 913.371 -2.37665 5.91434 0
M  V30 9388 C 911.058 -2.84411 5.40882 0
M  V30 9389 C 912.056 -2.55301 6.33491 0
M  V30 9390 O 911.744 -2.43779 7.66046 0
M  V30 9391 H 911.476 -0.488263 0.467521 0
M  V30 9392 H 914.03 -0.959583 1.81607 0
M  V30 9393 H 912.26 -3.50735 1.62854 0
M  V30 9394 H 913.949 -3.5048 2.04741 0
M  V30 9395 H 914.715 -2.34687 4.24437 0
M  V30 9396 H 910.594 -3.17625 3.34119 0
M  V30 9397 H 914.138 -2.14865 6.63686 0
M  V30 9398 H 910.035 -2.98134 5.72527 0
M  V30 9399 H 910.803 -2.59101 7.76408 0
M  V30 9400 N 913.466 -1.22244 -0.994698 0
M  V30 9401 C 914.877 -1.043 -1.5485 0
M  V30 9402 C 915.228 0.394102 -1.92201 0
M  V30 9403 O 914.353 1.27883 -1.74571 0
M  V30 9404 C 914.948 -1.88708 -2.8138 0
M  V30 9405 C 913.507 -1.75067 -3.3321 0
M  V30 9406 C 912.654 -1.85286 -2.06312 0
M  V30 9407 H 915.605 -1.36115 -0.815988 0
M  V30 9408 H 915.626 -1.40342 -3.53673 0
M  V30 9409 H 915.138 -2.93296 -2.54164 0
M  V30 9410 H 913.239 -0.732047 -3.65338 0
M  V30 9411 H 913.352 -2.57632 -4.03934 0
M  V30 9412 H 911.716 -1.28706 -2.19788 0
M  V30 9413 H 912.499 -2.91401 -1.81494 0
M  V30 9414 N 914.944 1.19125 -1.03184 0
M  V30 9415 C 916.221 1.84674 -0.644574 0
M  V30 9416 C 916.601 1.92042 0.876534 0
M  V30 9417 O 915.949 1.43965 1.77444 0
M  V30 9418 C 916.159 3.23477 -1.3101 0
M  V30 9419 C 917.507 3.99608 -1.43524 0
M  V30 9420 O 918.531 3.32886 -1.2675 0
M  V30 9421 O 917.39 5.19132 -1.70776 0
M  V30 9422 H 914.484 0.795968 -0.22442 0
M  V30 9423 H 917.03 1.2659 -1.13018 0
M  V30 9424 H 915.802 3.12967 -2.34878 0
M  V30 9425 H 915.425 3.89209 -0.812547 0
M  V30 9426 N 916.422 0.810101 1.35185 0
M  V30 9427 C 917.647 0.40364 2.03434 0
M  V30 9428 C 918.072 -0.97857 1.60641 0
M  V30 9429 O 917.43 -1.63435 0.784779 0
M  V30 9430 C 917.478 0.499154 3.57129 0
M  V30 9431 O 916.582 -0.486039 4.09526 0
M  V30 9432 H 915.923 0.168049 0.642383 0
M  V30 9433 H 918.453 1.09696 1.72708 0
M  V30 9434 H 918.463 0.370236 4.06317 0
M  V30 9435 H 917.138 1.50733 3.87624 0
M  V30 9436 H 915.715 -0.31707 3.7155 0
M  V30 9437 N 917.9 -1.47166 0.563914 0
M  V30 9438 C 919.146 -2.03337 0.0506932 0
M  V30 9439 C 919.501 -1.42976 -1.28746 0
M  V30 9440 O 918.794 -0.578508 -1.82658 0
M  V30 9441 C 918.988 -3.57279 -0.0931797 0
M  V30 9442 C 918.817 -4.32567 1.22948 0
M  V30 9443 C 917.587 -4.72206 1.79859 0
M  V30 9444 C 919.785 -4.67282 2.14829 0
M  V30 9445 N 917.767 -5.32166 3.0606 0
M  V30 9446 C 919.138 -5.27615 3.25611 0
M  V30 9447 C 921.193 -4.49211 2.14741 0
M  V30 9448 C 919.896 -5.71784 4.36412 0
M  V30 9449 C 921.922 -4.94384 3.24559 0
M  V30 9450 C 921.284 -5.54771 4.34061 0
M  V30 9451 H 917.383 -0.779627 0.0608761 0
M  V30 9452 H 919.967 -1.79563 0.75268 0
M  V30 9453 H 918.138 -3.80806 -0.764301 0
M  V30 9454 H 919.87 -4.0009 -0.609075 0
M  V30 9455 H 916.625 -4.54372 1.33577 0
M  V30 9456 H 917.049 -5.66684 3.70404 0
M  V30 9457 H 921.691 -4.01875 1.31362 0
M  V30 9458 H 919.409 -6.18108 5.20546 0
M  V30 9459 H 922.995 -4.82167 3.25586 0
M  V30 9460 H 921.875 -5.89087 5.17635 0
M  V30 9461 N 919.378 -0.300708 -1.54705 0
M  V30 9462 C 920.325 0.57552 -2.23509 0
M  V30 9463 C 921.295 1.12979 -1.21758 0
M  V30 9464 O 922.48 1.17437 -1.50377 0
M  V30 9465 C 919.62 1.74167 -2.97926 0
M  V30 9466 C 918.733 1.21882 -4.1445 0
M  V30 9467 C 917.868 2.34881 -4.7645 0
M  V30 9468 C 916.907 1.79729 -5.85119 0
M  V30 9469 N 916.044 2.863 -6.41075 0
M  V30 9470 H 920.884 -0.0178257 -2.97995 0
M  V30 9471 H 918.421 -0.0205666 -1.47086 0
M  V30 9472 H 920.379 2.42753 -3.39303 0
M  V30 9473 H 919.009 2.30665 -2.25817 0
M  V30 9474 H 918.061 0.425227 -3.78016 0
M  V30 9475 H 919.373 0.775065 -4.92741 0
M  V30 9476 H 918.527 3.11415 -5.20678 0
M  V30 9477 H 917.266 2.82584 -3.97489 0
M  V30 9478 H 916.271 1.01684 -5.40315 0
M  V30 9479 H 917.496 1.32931 -6.65963 0
M  V30 9480 H 915.442 3.33337 -5.64998 0
M  V30 9481 H 915.359 2.46419 -7.14712 0
M  V30 9482 H 916.627 3.62732 -6.89961 0
M  V30 9483 N 920.856 1.57574 -0.0284266 0
M  V30 9484 C 922.133 1.83064 0.688979 0
M  V30 9485 C 922.513 0.91219 1.90374 0
M  V30 9486 O 921.861 -0.0323672 2.28477 0
M  V30 9487 C 922.071 3.32262 1.06785 0
M  V30 9488 C 923.419 3.98717 1.45978 0
M  V30 9489 O 924.443 3.36753 1.16085 0
M  V30 9490 O 923.302 5.07927 2.01673 0
M  V30 9491 H 920.396 0.7548 0.337944 0
M  V30 9492 H 922.942 1.69607 -0.0560555 0
M  V30 9493 H 921.714 3.90772 0.203235 0
M  V30 9494 H 921.337 3.50823 1.87107 0
M  V30 9495 N 922.334 -0.244713 1.55689 0
M  V30 9496 C 923.297 -1.2864 1.89695 0
M  V30 9497 C 924.297 -1.40969 0.773583 0
M  V30 9498 O 925.487 -1.39632 1.04156 0
M  V30 9499 C 922.619 -2.66379 2.12732 0
M  V30 9500 H 923.812 -0.997033 2.82841 0
M  V30 9501 H 921.365 -0.484103 1.48614 0
M  V30 9502 H 922.1 -3.00452 1.22062 0
M  V30 9503 H 921.885 -2.58812 2.94549 0
M  V30 9504 H 923.375 -3.41592 2.40218 0
M  V30 9505 N 923.813 -1.49104 -0.510467 0
M  V30 9506 C 925.224 -1.51423 -1.09215 0
M  V30 9507 C 925.575 -0.295035 -1.93969 0
M  V30 9508 O 924.7 0.596064 -2.08029 0
M  V30 9509 C 925.295 -2.74387 -1.98739 0
M  V30 9510 C 923.854 -2.79515 -2.52088 0
M  V30 9511 C 923.001 -2.4521 -1.29488 0
M  V30 9512 H 925.952 -1.55938 -0.294807 0
M  V30 9513 H 925.973 -2.54012 -2.83298 0
M  V30 9514 H 925.485 -3.63105 -1.37026 0
M  V30 9515 H 923.586 -1.95054 -3.17466 0
M  V30 9516 H 923.699 -3.81447 -2.89887 0
M  V30 9517 H 922.063 -1.96785 -1.61703 0
M  V30 9518 H 922.846 -3.36192 -0.694978 0
M  V30 9519 N 925.291 0.760815 -1.38019 0
M  V30 9520 C 926.254 1.85604 -1.34476 0
M  V30 9521 C 927.254 1.58897 -0.24666 0
M  V30 9522 O 928.444 1.66776 -0.50314 0
M  V30 9523 C 925.576 3.22945 -1.09176 0
M  V30 9524 H 926.769 1.90155 -2.31908 0
M  V30 9525 H 924.322 0.961746 -1.23208 0
M  V30 9526 H 925.057 3.24066 -0.123216 0
M  V30 9527 H 924.842 3.43723 -1.88672 0
M  V30 9528 H 926.332 4.03022 -1.09375 0
M  V30 9529 N 926.769 1.22769 0.988202 0
M  V30 9530 C 927.679 1.01844 2.11341 0
M  V30 9531 C 928.695 -0.0346937 1.73965 0
M  V30 9532 O 929.871 0.159061 2.00771 0
M  V30 9533 C 926.936 0.603837 3.41401 0
M  V30 9534 C 925.997 1.73113 3.92849 0
M  V30 9535 C 925.23 1.33621 5.16702 0
M  V30 9536 O 925.453 0.217041 5.69987 0
M  V30 9537 O 924.387 2.15444 5.62021 0
M  V30 9538 H 928.213 1.96127 2.31879 0
M  V30 9539 H 925.798 1.01405 1.09715 0
M  V30 9540 H 927.68 0.383196 4.19654 0
M  V30 9541 H 926.355 -0.310082 3.22211 0
M  V30 9542 H 925.262 2.00634 3.15748 0
M  V30 9543 H 926.595 2.62308 4.1648 0
M  V30 9544 N 928.247 -1.18576 1.03814 0
M  V30 9545 C 929.475 -1.92437 0.759966 0
M  V30 9546 C 929.89 -1.76031 -0.682526 0
M  V30 9547 O 929.247 -1.08829 -1.46501 0
M  V30 9548 C 929.298 -3.43923 1.11351 0
M  V30 9549 O 929.019 -3.5981 2.49937 0
M  V30 9550 C 930.52 -4.34888 0.859472 0
M  V30 9551 H 927.74 -0.610998 0.277349 0
M  V30 9552 H 930.284 -1.50448 1.38512 0
M  V30 9553 H 928.439 -3.83711 0.533362 0
M  V30 9554 H 928.853 -4.53569 2.63393 0
M  V30 9555 H 930.327 -5.39744 1.15672 0
M  V30 9556 H 930.804 -4.38717 -0.205839 0
M  V30 9557 H 931.41 -4.00795 1.42279 0
M  V30 9558 N 929.725 -0.817259 -1.34754 0
M  V30 9559 C 930.672 -0.233108 -2.2962 0
M  V30 9560 C 931.642 0.638902 -1.53321 0
M  V30 9561 O 932.827 0.581739 -1.81715 0
M  V30 9562 C 929.967 0.603659 -3.39779 0
M  V30 9563 C 929.08 -0.289967 -4.31026 0
M  V30 9564 C 928.215 0.555825 -5.28284 0
M  V30 9565 C 927.254 -0.337539 -6.11169 0
M  V30 9566 N 926.391 0.468847 -7.00533 0
M  V30 9567 H 931.231 -1.04747 -2.78984 0
M  V30 9568 H 928.768 -0.528056 -1.37295 0
M  V30 9569 H 930.726 1.10407 -4.02326 0
M  V30 9570 H 929.356 1.38319 -2.91664 0
M  V30 9571 H 928.408 -0.908552 -3.69391 0
M  V30 9572 H 929.72 -0.977136 -4.89135 0
M  V30 9573 H 928.874 1.12094 -5.96255 0
M  V30 9574 H 927.613 1.27652 -4.70698 0
M  V30 9575 H 926.618 -0.914839 -5.42135 0
M  V30 9576 H 927.843 -1.05626 -6.70835 0
M  V30 9577 H 925.789 1.17332 -6.45422 0
M  V30 9578 H 925.706 -0.160052 -7.55831 0
M  V30 9579 H 926.974 1.01689 -7.72839 0
M  V30 9580 N 931.203 1.46865 -0.571711 0
M  V30 9581 C 932.166 2.28658 0.157499 0
M  V30 9582 C 933.166 1.37773 0.829172 0
M  V30 9583 O 934.356 1.6026 0.682811 0
M  V30 9584 C 931.488 3.17859 1.23202 0
M  V30 9585 H 932.681 2.94603 -0.561171 0
M  V30 9586 H 930.234 1.52793 -0.329229 0
M  V30 9587 H 930.969 2.56637 1.98262 0
M  V30 9588 H 930.754 3.84762 0.755031 0
M  V30 9589 H 932.244 3.7945 1.74378 0
M  V30 9590 N 932.681 0.308908 1.54543 0
M  V30 9591 C 933.591 -0.572939 2.27496 0
M  V30 9592 C 934.607 -1.14171 1.31305 0
M  V30 9593 O 935.783 -1.16481 1.64299 0
M  V30 9594 C 932.848 -1.72483 3.0075 0
M  V30 9595 C 931.909 -1.18934 4.12496 0
M  V30 9596 C 931.142 -2.28634 4.82247 0
M  V30 9597 O 931.365 -3.48691 4.5141 0
M  V30 9598 O 930.299 -1.94879 5.69478 0
M  V30 9599 H 934.125 0.0190877 3.03694 0
M  V30 9600 H 931.71 0.0750943 1.49211 0
M  V30 9601 H 933.592 -2.39578 3.46671 0
M  V30 9602 H 932.267 -2.30332 2.2744 0
M  V30 9603 H 931.174 -0.483904 3.70957 0
M  V30 9604 H 932.507 -0.656185 4.87806 0
M  V30 9605 N 934.159 -1.57557 0.0367827 0
M  V30 9606 C 935.57 -1.79853 -0.500971 0
M  V30 9607 C 935.921 -0.947749 -1.71791 0
M  V30 9608 O 935.046 -0.160287 -2.15806 0
M  V30 9609 C 935.641 -3.26193 -0.915626 0
M  V30 9610 C 934.2 -3.49457 -1.39845 0
M  V30 9611 C 933.347 -2.74864 -0.366784 0
M  V30 9612 H 936.298 -1.56509 0.262768 0
M  V30 9613 H 936.319 -3.36324 -1.7795 0
M  V30 9614 H 935.831 -3.88089 -0.0297227 0
M  V30 9615 H 933.932 -2.92823 -2.30402 0
M  V30 9616 H 934.045 -4.58172 -1.40054 0
M  V30 9617 H 932.409 -2.4057 -0.836554 0
M  V30 9618 H 933.192 -3.39479 0.510785 0
M  V30 9619 N 935.637 0.236453 -1.55816 0
M  V30 9620 C 936.57 1.3196 -1.86177 0
M  V30 9621 C 937.548 1.459 -0.717769 0
M  V30 9622 O 938.732 1.61949 -0.964606 0
M  V30 9623 C 935.859 2.69183 -2.05568 0
M  V30 9624 C 934.905 2.72338 -3.28229 0
M  V30 9625 S 935.738 2.27898 -4.84585 0
M  V30 9626 C 936.894 3.67025 -5.06994 0
M  V30 9627 H 937.127 1.06011 -2.77757 0
M  V30 9628 H 934.66 0.437961 -1.48058 0
M  V30 9629 H 936.618 3.48191 -2.17423 0
M  V30 9630 H 935.279 2.92365 -1.14811 0
M  V30 9631 H 934.472 3.7314 -3.38795 0
M  V30 9632 H 934.074 2.01382 -3.15153 0
M  V30 9633 H 936.366 4.62604 -4.94979 0
M  V30 9634 H 937.309 3.61385 -6.08939 0
M  V30 9635 H 937.717 3.60022 -4.34792 0
M  V30 9636 N 937.115 1.49373 0.502552 0
M  V30 9637 C 938.343 1.62488 1.28084 0
M  V30 9638 C 938.758 0.295667 1.86471 0
M  V30 9639 O 938.115 -0.718664 1.67754 0
M  V30 9640 C 938.166 2.69249 2.4122 0
M  V30 9641 O 937.887 3.97014 1.85234 0
M  V30 9642 C 939.388 2.93054 3.32617 0
M  V30 9643 H 936.608 0.547068 0.388533 0
M  V30 9644 H 939.152 1.95394 0.603452 0
M  V30 9645 H 937.307 2.39125 3.04792 0
M  V30 9646 H 937.721 4.55809 2.59496 0
M  V30 9647 H 939.195 3.71493 4.08285 0
M  V30 9648 H 939.672 2.02911 3.89517 0
M  V30 9649 H 940.278 3.24589 2.74813 0
M  V30 9650 N 938.594 -0.753485 1.38421 0
M  V30 9651 C 939.542 -1.8886 1.35774 0
M  V30 9652 C 940.536 -1.67639 0.243608 0
M  V30 9653 O 941.742 -1.75206 0.412649 0
M  V30 9654 H 938.117 -0.62137 0.42356 0
M  V30 9655 H 940.088 -1.88209 2.3156 0
M  V30 9656 C 938.837 -3.26344 1.19979 0
M  V30 9657 H 938.16 -3.43259 2.04971 0
M  V30 9658 H 939.6 -4.06015 1.22181 0
M  V30 9659 C 938.059 -3.36771 -0.0932867 0
M  V30 9660 O 938.589 -3.8718 -1.07027 0
M  V30 9661 N 936.795 -2.90212 -0.150154 0
M  V30 9662 H 936.342 -2.4938 0.645562 0
M  V30 9663 H 936.3 -2.97569 -1.0149 0
M  V30 9664 N 940.072 -1.23292 -0.981677 0
M  V30 9665 C 940.982 -1.02964 -2.10798 0
M  V30 9666 C 941.998 0.0254674 -1.73981 0
M  V30 9667 O 943.174 -0.169706 -2.00684 0
M  V30 9668 C 940.239 -0.621934 -3.41076 0
M  V30 9669 C 939.3 -1.75194 -3.91926 0
M  V30 9670 C 938.533 -1.36359 -5.15986 0
M  V30 9671 O 938.756 -0.247265 -5.69864 0
M  V30 9672 O 937.69 -2.18421 -5.60871 0
M  V30 9673 H 941.516 -1.97354 -2.30836 0
M  V30 9674 H 939.101 -1.01986 -1.09175 0
M  V30 9675 H 940.983 -0.405446 -4.19445 0
M  V30 9676 H 939.658 0.29299 -3.22371 0
M  V30 9677 H 938.565 -2.02305 -3.1468 0
M  V30 9678 H 939.898 -2.64513 -4.15083 0
M  V30 9679 N 941.55 1.18024 -1.04442 0
M  V30 9680 C 942.797 1.88098 -0.750022 0
M  V30 9681 C 943.125 1.80583 0.722489 0
M  V30 9682 O 942.38 1.20329 1.54335 0
M  V30 9683 C 942.679 3.37834 -1.16631 0
M  V30 9684 C 942.345 3.65553 -2.63974 0
M  V30 9685 C 941.007 3.72827 -3.04226 0
M  V30 9686 C 943.359 3.77634 -3.59224 0
M  V30 9687 C 940.687 3.89666 -4.38608 0
M  V30 9688 C 943.039 3.9599 -4.9333 0
M  V30 9689 C 941.703 4.01501 -5.33248 0
M  V30 9690 H 940.973 0.6883 -0.274452 0
M  V30 9691 H 943.62 1.39671 -1.31012 0
M  V30 9692 H 941.925 3.88266 -0.525071 0
M  V30 9693 H 943.622 3.90402 -0.915827 0
M  V30 9694 H 940.212 3.6051 -2.31798 0
M  V30 9695 H 944.396 3.71342 -3.2927 0
M  V30 9696 H 939.652 3.92178 -4.69048 0
M  V30 9697 H 943.826 4.0428 -5.67037 0
M  V30 9698 H 941.453 4.14301 -6.37384 0
M  V30 9699 N 943.028 0.824394 1.34319 0
M  V30 9700 C 944.275 0.413167 1.9824 0
M  V30 9701 C 944.603 -1.02412 1.65354 0
M  V30 9702 O 943.858 -1.72831 0.91803 0
M  V30 9703 C 944.157 0.564024 3.52921 0
M  V30 9704 C 943.823 1.96725 4.05722 0
M  V30 9705 C 942.485 2.35111 4.19853 0
M  V30 9706 C 944.837 2.88447 4.34106 0
M  V30 9707 C 942.165 3.64551 4.59695 0
M  V30 9708 C 944.517 4.17353 4.75394 0
M  V30 9709 C 943.181 4.55714 4.8773 0
M  V30 9710 H 942.451 0.151188 0.725412 0
M  V30 9711 H 945.098 1.04863 1.60238 0
M  V30 9712 H 943.403 -0.154816 3.91494 0
M  V30 9713 H 945.1 0.226347 4.00361 0
M  V30 9714 H 941.69 1.65908 3.95187 0
M  V30 9715 H 945.874 2.60034 4.22725 0
M  V30 9716 H 941.13 3.94097 4.67437 0
M  V30 9717 H 945.304 4.88512 4.96315 0
M  V30 9718 H 942.931 5.56064 5.1836 0
M  V30 9719 N 944.506 -1.46559 0.579492 0
M  V30 9720 C 945.453 -2.30275 -0.155598 0
M  V30 9721 C 946.423 -1.40422 -0.887175 0
M  V30 9722 O 947.608 -1.69373 -0.878481 0
M  V30 9723 C 944.748 -3.24827 -1.16539 0
M  V30 9724 C 943.861 -4.29778 -0.43759 0
M  V30 9725 C 942.996 -5.11461 -1.43462 0
M  V30 9726 C 942.035 -6.08164 -0.693048 0
M  V30 9727 N 941.172 -6.82726 -1.63799 0
M  V30 9728 H 946.012 -2.92607 0.564356 0
M  V30 9729 H 943.549 -1.44211 0.290126 0
M  V30 9730 H 945.507 -3.78088 -1.76368 0
M  V30 9731 H 944.137 -2.64311 -1.8531 0
M  V30 9732 H 943.189 -3.794 0.27567 0
M  V30 9733 H 944.501 -4.98597 0.142298 0
M  V30 9734 H 943.655 -5.68982 -2.1058 0
M  V30 9735 H 942.394 -4.42595 -2.04844 0
M  V30 9736 H 941.399 -5.49799 -0.00807093 0
M  V30 9737 H 942.624 -6.79047 -0.0846678 0
M  V30 9738 H 940.57 -6.16572 -2.23997 0
M  V30 9739 H 940.487 -7.47795 -1.11082 0
M  V30 9740 H 941.755 -7.44807 -2.29962 0
M  V30 9741 N 945.984 -0.3171 -1.54377 0
M  V30 9742 C 946.932 0.567371 -2.25574 0
M  V30 9743 C 947.926 1.12387 -1.2675 0
M  V30 9744 O 949.132 1.07266 -1.44548 0
M  V30 9745 H 945.507 0.201605 -0.724472 0
M  V30 9746 H 947.478 -0.0554644 -2.98348 0
M  V30 9747 C 946.227 1.71984 -3.02187 0
M  V30 9748 H 945.55 1.30086 -3.78044 0
M  V30 9749 H 946.99 2.31443 -3.5526 0
M  V30 9750 C 945.449 2.6336 -2.10103 0
M  V30 9751 O 945.979 3.64899 -1.67962 0
M  V30 9752 N 944.185 2.3145 -1.75725 0
M  V30 9753 H 943.732 1.48921 -2.10191 0
M  V30 9754 H 943.69 2.92852 -1.14391 0
M  V30 9755 N 947.462 1.57535 -0.0451378 0
M  V30 9756 C 948.708 1.92736 0.630921 0
M  V30 9757 C 949.041 0.923265 1.70849 0
M  V30 9758 O 948.316 -0.0516512 1.94431 0
M  V30 9759 C 948.599 3.38348 1.23259 0
M  V30 9760 C 948.452 4.49503 0.16349 0
M  V30 9761 C 949.771 3.84233 2.14599 0
M  V30 9762 H 946.89 0.700884 0.227883 0
M  V30 9763 H 949.532 1.89706 -0.10567 0
M  V30 9764 H 947.682 3.41061 1.86037 0
M  V30 9765 H 949.354 4.58919 -0.46808 0
M  V30 9766 H 947.597 4.30802 -0.509166 0
M  V30 9767 H 948.268 5.48457 0.624382 0
M  V30 9768 H 950.744 3.83358 1.6179 0
M  V30 9769 H 949.62 4.86781 2.53644 0
M  V30 9770 H 949.881 3.20646 3.04366 0
M  V30 9771 N 948.94 -0.228186 1.55939 0
M  V30 9772 C 950.186 -0.954964 1.78909 0
M  V30 9773 C 950.519 -1.8425 0.613648 0
M  V30 9774 O 949.794 -1.90604 -0.38737 0
M  V30 9775 C 950.077 -1.79957 3.1191 0
M  V30 9776 C 949.93 -0.938968 4.3989 0
M  V30 9777 C 951.249 -2.77859 3.41295 0
M  V30 9778 H 948.368 -0.345745 0.650868 0
M  V30 9779 H 951.01 -0.224244 1.88672 0
M  V30 9780 H 949.16 -2.42256 3.03717 0
M  V30 9781 H 950.832 -0.333225 4.60095 0
M  V30 9782 H 949.075 -0.244096 4.33113 0
M  V30 9783 H 949.746 -1.56416 5.29375 0
M  V30 9784 H 952.222 -2.25695 3.49572 0
M  V30 9785 H 951.098 -3.34062 4.35538 0
M  V30 9786 H 951.359 -3.55266 2.63132 0
M  V30 9787 N 950.418 -1.49637 -0.494624 0
M  V30 9788 C 951.365 -1.66776 -1.59545 0
M  V30 9789 C 952.335 -0.509159 -1.58104 0
M  V30 9790 O 953.52 -0.736949 -1.75993 0
M  V30 9791 C 950.66 -1.74624 -2.97658 0
M  V30 9792 C 949.773 -3.01831 -3.09067 0
M  V30 9793 C 948.908 -3.00619 -4.37952 0
M  V30 9794 C 947.947 -4.22378 -4.43016 0
M  V30 9795 N 947.084 -4.1904 -5.63339 0
M  V30 9796 H 951.924 -2.60767 -1.44238 0
M  V30 9797 H 949.461 -1.29286 -0.701673 0
M  V30 9798 H 951.419 -1.77156 -3.77719 0
M  V30 9799 H 950.049 -0.840936 -3.11654 0
M  V30 9800 H 949.101 -3.08881 -2.22029 0
M  V30 9801 H 950.413 -3.91823 -3.08669 0
M  V30 9802 H 949.567 -3.01749 -5.26339 0
M  V30 9803 H 948.306 -2.08416 -4.40924 0
M  V30 9804 H 947.311 -4.21485 -3.5303 0
M  V30 9805 H 948.536 -5.15781 -4.41755 0
M  V30 9806 H 946.482 -3.29677 -5.67141 0
M  V30 9807 H 946.399 -5.02774 -5.64583 0
M  V30 9808 H 947.667 -4.24281 -6.53916 0
M  V30 9809 N 951.896 0.746133 -1.38819 0
M  V30 9810 C 953.307 1.32384 -1.31648 0
M  V30 9811 C 953.658 1.96185 0.0243086 0
M  V30 9812 O 952.783 1.95567 0.92641 0
M  V30 9813 C 953.378 2.40712 -2.38418 0
M  V30 9814 C 951.937 2.94185 -2.34803 0
M  V30 9815 C 951.084 1.67639 -2.20891 0
M  V30 9816 H 954.035 0.544457 -1.49068 0
M  V30 9817 H 954.056 3.20833 -2.04564 0
M  V30 9818 H 953.568 1.94247 -3.3599 0
M  V30 9819 H 951.669 3.44959 -1.40834 0
M  V30 9820 H 951.782 3.48057 -3.29231 0
M  V30 9821 H 950.146 1.9155 -1.67871 0
M  V30 9822 H 950.929 1.23242 -3.20416 0
M  V30 9823 N 953.375 1.23811 0.975125 0
M  V30 9824 C 954.624 1.06741 1.71141 0
M  V30 9825 C 954.937 -0.394986 1.9157 0
M  V30 9826 O 956.143 -0.685723 2.62698 0
M  V30 9827 C 954.599 1.86168 3.08009 0
M  V30 9828 C 954.207 3.36771 2.95448 0
M  V30 9829 C 955.951 1.77604 3.85561 0
M  V30 9830 C 953.858 4.0857 4.2758 0
M  V30 9831 H 952.788 0.395819 0.64175 0
M  V30 9832 H 955.439 1.47825 1.0872 0
M  V30 9833 H 953.821 1.37893 3.71216 0
M  V30 9834 H 954.995 3.92571 2.41298 0
M  V30 9835 H 953.31 3.46205 2.31368 0
M  V30 9836 H 955.907 2.28556 4.83391 0
M  V30 9837 H 956.25 0.739837 4.09673 0
M  V30 9838 H 956.783 2.23519 3.29065 0
M  V30 9839 H 953.522 5.12518 4.08663 0
M  V30 9840 H 953.042 3.57556 4.81574 0
M  V30 9841 H 954.721 4.15157 4.9624 0
M  V30 9842 N 954.853 -1.17469 1.05066 0
M  V30 9843 C 955.783 -2.23635 0.671552 0
M  V30 9844 C 956.764 -1.66867 -0.33006 0
M  V30 9845 O 957.949 -1.93084 -0.207933 0
M  V30 9846 C 955.079 -3.47272 0.0441845 0
M  V30 9847 C 954.033 -4.16854 0.97042 0
M  V30 9848 C 953.359 -5.34299 0.206998 0
M  V30 9849 C 954.659 -4.69225 2.29401 0
M  V30 9850 H 956.353 -2.55602 1.55911 0
M  V30 9851 H 953.899 -1.2286 0.751101 0
M  V30 9852 H 955.852 -4.20756 -0.23282 0
M  V30 9853 H 954.576 -3.14568 -0.878311 0
M  V30 9854 H 953.235 -3.4528 1.23197 0
M  V30 9855 H 952.883 -4.97846 -0.718222 0
M  V30 9856 H 952.583 -5.81792 0.82416 0
M  V30 9857 H 954.107 -6.10568 -0.0627525 0
M  V30 9858 H 955.521 -5.34353 2.077 0
M  V30 9859 H 953.918 -5.27291 2.86503 0
M  V30 9860 H 954.988 -3.86102 2.93348 0
M  V30 9861 N 956.331 -0.831506 -1.3388 0
M  V30 9862 C 957.559 -0.436925 -2.02234 0
M  V30 9863 C 957.974 0.959689 -1.6259 0
M  V30 9864 O 957.331 1.62248 -0.835576 0
M  V30 9865 C 957.382 -0.539429 -3.57453 0
M  V30 9866 O 957.103 -1.88101 -3.95664 0
M  V30 9867 C 958.604 -0.140852 -4.43076 0
M  V30 9868 H 955.824 -0.174302 -0.647966 0
M  V30 9869 H 958.368 -1.12204 -1.70969 0
M  V30 9870 H 956.523 0.0976959 -3.87277 0
M  V30 9871 H 956.937 -1.86131 -4.90363 0
M  V30 9872 H 958.411 -0.26364 -5.5137 0
M  V30 9873 H 958.888 0.916505 -4.29531 0
M  V30 9874 H 959.494 -0.752117 -4.18597 0
M  V30 9875 N 957.809 1.4625 -0.587256 0
M  V30 9876 C 958.741 2.28482 0.181256 0
M  V30 9877 C 959.754 1.38777 0.851163 0
M  V30 9878 O 960.943 1.63336 0.719963 0
M  V30 9879 C 958.043 3.13944 1.27643 0
M  V30 9880 C 957.216 4.31802 0.697569 0
M  V30 9881 C 956.275 4.98626 1.68102 0
M  V30 9882 O 955.301 5.56075 1.21529 0
M  V30 9883 N 956.503 4.96051 3.0152 0
M  V30 9884 H 959.268 2.95079 -0.524267 0
M  V30 9885 H 956.829 1.56213 -0.425336 0
M  V30 9886 H 958.821 3.55513 1.93371 0
M  V30 9887 H 957.391 2.49391 1.88475 0
M  V30 9888 H 956.611 3.93961 -0.137293 0
M  V30 9889 H 957.899 5.07969 0.290696 0
M  V30 9890 H 957.297 4.5063 3.41978 0
M  V30 9891 H 955.854 5.41547 3.62725 0
M  V30 9892 N 959.287 0.325282 1.54207 0
M  V30 9893 C 960.219 -0.57395 2.21897 0
M  V30 9894 C 961.232 -1.0785 1.21952 0
M  V30 9895 O 962.421 -0.991782 1.48411 0
M  V30 9896 C 959.521 -1.8005 2.87115 0
M  V30 9897 C 958.694 -1.43435 4.13213 0
M  V30 9898 C 957.753 -2.51862 4.62009 0
M  V30 9899 O 956.779 -2.15934 5.26651 0
M  V30 9900 N 957.981 -3.8282 4.36382 0
M  V30 9901 H 960.746 0.00566918 2.99699 0
M  V30 9902 H 958.307 0.148563 1.61217 0
M  V30 9903 H 960.299 -2.51981 3.16682 0
M  V30 9904 H 958.869 -2.28792 2.13009 0
M  V30 9905 H 958.089 -0.546598 3.90392 0
M  V30 9906 H 959.377 -1.16544 4.95273 0
M  V30 9907 H 958.775 -4.14807 3.84645 0
M  V30 9908 H 957.332 -4.50976 4.70599 0
M  V30 9909 N 960.765 -1.57509 0.0534917 0
M  V30 9910 C 962.013 -1.92402 -0.618548 0
M  V30 9911 C 962.334 -0.93273 -1.71246 0
M  V30 9912 O 961.604 0.0220495 -1.95888 0
M  V30 9913 H 960.184 -0.710233 -0.23147 0
M  V30 9914 H 962.846 -1.94606 0.10704 0
M  V30 9915 H 961.942 -2.93704 -1.05566 0
M  V30 9916 N 962.243 0.219913 -1.56058 0
M  V30 9917 C 963.52 0.968493 -1.6994 0
M  V30 9918 C 963.9 2.02358 -0.601219 0
M  V30 9919 O 963.248 2.25121 0.391534 0
M  V30 9920 C 963.458 1.57745 -3.11316 0
M  V30 9921 C 964.806 2.06908 -3.70775 0
M  V30 9922 O 965.83 1.67636 -3.14288 0
M  V30 9923 O 964.689 2.79096 -4.69859 0
M  V30 9924 H 961.783 0.452521 -0.692209 0
M  V30 9925 H 964.329 0.211566 -1.68376 0
M  V30 9926 H 963.101 0.815687 -3.82704 0
M  V30 9927 H 962.724 2.39987 -3.17005 0
M  V30 9928 N 963.721 1.49897 0.486681 0
M  V30 9929 C 964.668 1.67619 1.58658 0
M  V30 9930 C 965.638 0.517537 1.57831 0
M  V30 9931 O 966.823 0.746272 1.756 0
M  V30 9932 C 963.963 1.762 2.96728 0
M  V30 9933 C 963.076 3.03465 3.07462 0
M  V30 9934 C 962.211 3.02937 4.36351 0
M  V30 9935 C 961.25 4.24721 4.4077 0
M  V30 9936 N 960.387 4.22021 5.61108 0
M  V30 9937 H 965.227 2.61528 1.42853 0
M  V30 9938 H 962.764 1.29657 0.694807 0
M  V30 9939 H 964.722 1.79156 3.76774 0
M  V30 9940 H 963.352 0.857452 3.11203 0
M  V30 9941 H 962.404 3.10054 2.20387 0
M  V30 9942 H 963.716 3.93454 3.06586 0
M  V30 9943 H 962.87 3.04536 5.24731 0
M  V30 9944 H 961.609 2.10751 4.39813 0
M  V30 9945 H 960.614 4.23352 3.5079 0
M  V30 9946 H 961.839 5.18116 4.39013 0
M  V30 9947 H 959.785 3.3268 5.65385 0
M  V30 9948 H 959.702 5.05761 5.61909 0
M  V30 9949 H 960.97 4.27743 6.51656 0
M  V30 9950 N 965.199 -0.738761 1.39212 0
M  V30 9951 C 966.129 -1.86602 1.40364 0
M  V30 9952 C 967.11 -1.67984 0.267495 0
M  V30 9953 O 968.295 -1.88358 0.472765 0
M  V30 9954 C 965.425 -3.24308 1.24265 0
M  V30 9955 C 964.379 -3.57557 2.35239 0
M  V30 9956 C 963.705 -4.94159 2.04233 0
M  V30 9957 C 965.005 -3.60914 3.77543 0
M  V30 9958 H 966.699 -1.85896 2.34698 0
M  V30 9959 H 964.245 -0.892959 1.1297 0
M  V30 9960 H 966.198 -4.02838 1.23692 0
M  V30 9961 H 964.922 -3.25531 0.263974 0
M  V30 9962 H 963.581 -2.81354 2.35022 0
M  V30 9963 H 963.229 -4.91959 1.04813 0
M  V30 9964 H 962.929 -5.17373 2.78567 0
M  V30 9965 H 964.453 -5.7505 2.05303 0
M  V30 9966 H 965.867 -4.29528 3.79709 0
M  V30 9967 H 964.264 -3.95644 4.51205 0
M  V30 9968 H 965.334 -2.60803 4.08791 0
M  V30 9969 N 966.677 -1.24326 -0.968545 0
M  V30 9970 C 968.088 -1.07561 -1.52603 0
M  V30 9971 C 968.439 0.353245 -1.92994 0
M  V30 9972 O 967.564 1.24151 -1.77244 0
M  V30 9973 C 968.159 -1.94634 -2.77314 0
M  V30 9974 C 966.718 -1.82095 -3.29421 0
M  V30 9975 C 965.865 -1.8962 -2.02335 0
M  V30 9976 H 968.816 -1.37815 -0.786932 0
M  V30 9977 H 968.837 -1.47812 -3.50616 0
M  V30 9978 H 968.349 -2.98621 -2.47885 0
M  V30 9979 H 966.45 -0.809376 -3.63703 0
M  V30 9980 H 966.563 -2.66142 -3.98378 0
M  V30 9981 H 964.927 -1.33339 -2.17009 0
M  V30 9982 H 965.71 -2.95185 -1.75273 0
M  V30 9983 N 968.156 1.1691 -1.05688 0
M  V30 9984 C 969.402 1.8757 -0.771071 0
M  V30 9985 C 969.735 1.8113 0.700399 0
M  V30 9986 O 969.01 1.22273 1.5126 0
M  V30 9987 C 969.293 3.37392 -1.25851 0
M  V30 9988 C 969.146 3.52556 -2.79329 0
M  V30 9989 C 970.465 4.31585 -0.861512 0
M  V30 9990 H 967.584 0.681089 -0.281579 0
M  V30 9991 H 970.226 1.37453 -1.31174 0
M  V30 9992 H 968.376 3.80204 -0.798563 0
M  V30 9993 H 970.048 3.18725 -3.33485 0
M  V30 9994 H 968.291 2.94668 -3.1836 0
M  V30 9995 H 968.962 4.57748 -3.08498 0
M  V30 9996 H 971.438 3.96642 -1.25756 0
M  V30 9997 H 970.314 5.34939 -1.23012 0
M  V30 9998 H 970.575 4.4148 0.234089 0
M  V30 9999 N 969.634 0.838594 1.33437 0
M  V30 10000 C 970.859 0.446701 2.02532 0
M  V30 10001 C 971.284 -0.944275 1.62681 0
M  V30 10002 O 970.642 -1.61733 0.81927 0
M  V30 10003 C 970.69 0.574794 3.55989 0
M  V30 10004 O 969.794 -0.399063 4.10465 0
M  V30 10005 H 969.135 0.181637 0.638674 0
M  V30 10006 H 971.665 1.13335 1.70342 0
M  V30 10007 H 971.675 0.456339 4.0544 0
M  V30 10008 H 970.35 1.58921 3.8434 0
M  V30 10009 H 968.927 -0.238187 3.72139 0
M  V30 10010 N 971.112 -1.45937 0.595003 0
M  V30 10011 C 972.075 -2.2888 -0.121102 0
M  V30 10012 C 973.075 -1.39075 -0.807149 0
M  V30 10013 O 974.265 -1.61326 -0.657228 0
M  V30 10014 C 971.397 -3.19778 -1.1813 0
M  V30 10015 H 972.59 -2.93673 0.607968 0
M  V30 10016 H 970.143 -1.5225 0.353495 0
M  V30 10017 H 970.878 -2.59759 -1.94154 0
M  V30 10018 H 970.663 -3.85914 -0.693724 0
M  V30 10019 H 972.153 -3.82176 -1.68319 0
M  V30 10020 N 972.59 -0.333456 -1.54032 0
M  V30 10021 C 973.837 0.266133 -2.00744 0
M  V30 10022 C 974.165 1.51361 -1.22148 0
M  V30 10023 O 973.42 1.93473 -0.294368 0
M  V30 10024 C 973.719 0.63565 -3.51702 0
M  V30 10025 C 973.385 -0.513786 -4.47963 0
M  V30 10026 C 972.047 -0.829253 -4.74001 0
M  V30 10027 C 974.399 -1.2854 -5.05101 0
M  V30 10028 C 971.727 -1.91888 -5.54433 0
M  V30 10029 C 974.079 -2.3652 -5.86721 0
M  V30 10030 C 972.743 -2.68637 -6.11057 0
M  V30 10031 H 972.013 0.097385 -0.734573 0
M  V30 10032 H 974.66 -0.459282 -1.85911 0
M  V30 10033 H 972.965 1.44163 -3.64313 0
M  V30 10034 H 974.662 1.11129 -3.85294 0
M  V30 10035 H 971.252 -0.25784 -4.27824 0
M  V30 10036 H 975.436 -1.05494 -4.84958 0
M  V30 10037 H 970.692 -2.17208 -5.71516 0
M  V30 10038 H 974.866 -2.96747 -6.30011 0
M  V30 10039 H 972.493 -3.53197 -6.73169 0
M  V30 10040 N 974.068 1.57479 -0.061844 0
M  V30 10041 C 974.978 2.15645 0.923826 0
M  V30 10042 C 975.994 1.117 1.33413 0
M  V30 10043 O 977.17 1.4392 1.40887 0
M  V30 10044 C 974.235 2.69857 2.17665 0
M  V30 10045 C 973.296 3.88638 1.8237 0
M  V30 10046 C 972.529 4.40256 3.01679 0
M  V30 10047 O 972.752 3.90908 4.15388 0
M  V30 10048 O 971.686 5.31713 2.82073 0
M  V30 10049 H 975.512 3.0021 0.459094 0
M  V30 10050 H 973.097 1.48534 0.160665 0
M  V30 10051 H 974.979 3.04647 2.9115 0
M  V30 10052 H 973.654 1.88357 2.63255 0
M  V30 10053 H 972.561 3.58719 1.06167 0
M  V30 10054 H 973.894 4.71401 1.4157 0
M  V30 10055 N 975.546 -0.211634 1.56173 0
M  V30 10056 C 976.509 -1.24588 1.92381 0
M  V30 10057 C 977.509 -1.39297 0.803311 0
M  V30 10058 O 978.699 -1.37392 1.07094 0
M  V30 10059 C 975.831 -2.61807 2.18335 0
M  V30 10060 H 977.024 -0.936814 2.84893 0
M  V30 10061 H 974.577 -0.452471 1.49607 0
M  V30 10062 H 975.312 -2.97795 1.28407 0
M  V30 10063 H 975.097 -2.52506 2.99972 0
M  V30 10064 H 976.587 -3.3642 2.4741 0
M  V30 10065 N 977.024 -1.50153 -0.478725 0
M  V30 10066 C 978.301 -1.51274 -1.23999 0
M  V30 10067 C 978.681 -0.253048 -2.09578 0
M  V30 10068 O 978.029 0.763827 -2.15355 0
M  V30 10069 C 978.239 -2.80423 -2.07759 0
M  V30 10070 C 979.587 -3.30788 -2.66204 0
M  V30 10071 O 980.611 -2.81693 -2.18008 0
M  V30 10072 O 979.47 -4.1635 -3.53999 0
M  V30 10073 H 976.564 -0.606438 -0.562283 0
M  V30 10074 H 979.11 -1.62436 -0.491171 0
M  V30 10075 H 977.882 -3.63584 -1.44645 0
M  V30 10076 H 977.505 -2.72228 -2.89789 0
M  V30 10077 N 978.502 0.731368 -1.39602 0
M  V30 10078 C 979.75 1.48805 -1.36753 0
M  V30 10079 C 980.071 1.94969 0.034676 0
M  V30 10080 O 979.341 1.69243 0.986591 0
M  V30 10081 H 977.921 0.55203 -0.503261 0
M  V30 10082 H 980.583 0.868013 -1.74504 0
M  V30 10083 H 979.679 2.36844 -2.03252 0
M  V30 10084 N 979.98 1.24838 0.961938 0
M  V30 10085 C 981.396 1.01502 1.23165 0
M  V30 10086 C 981.596 -0.272651 1.99647 0
M  V30 10087 O 980.652 -0.987297 2.32398 0
M  V30 10088 C 981.965 2.23366 2.01316 0
M  V30 10089 C 983.513 2.28051 2.14387 0
M  V30 10090 C 983.988 3.49552 2.95935 0
M  V30 10091 N 985.479 3.49904 3.03515 0
M  V30 10092 C 986.214 4.40577 3.66987 0
M  V30 10093 N 985.71 5.41512 4.3213 0
M  V30 10094 N 987.503 4.28275 3.64056 0
M  V30 10095 H 979.654 2.07576 0.450086 0
M  V30 10096 H 981.917 0.911205 0.261551 0
M  V30 10097 H 981.623 3.16913 1.5251 0
M  V30 10098 H 981.497 2.25949 3.02038 0
M  V30 10099 H 983.884 1.35032 2.62393 0
M  V30 10100 H 983.965 2.29491 1.12994 0
M  V30 10101 H 983.609 4.42889 2.4862 0
M  V30 10102 H 983.539 3.45357 3.97538 0
M  V30 10103 H 986.03 2.76885 2.57183 0
M  V30 10104 H 986.343 6.06924 4.78396 0
M  V30 10105 H 984.688 5.45393 4.3078 0
M  V30 10106 H 987.879 3.48653 3.12344 0
M  V30 10107 H 988.052 4.99138 4.13237 0
M  V30 10108 N 981.458 -1.16348 1.06306 0
M  V30 10109 C 982.705 -1.86881 0.779852 0
M  V30 10110 C 983.033 -1.8171 -0.693668 0
M  V30 10111 O 982.288 -1.22769 -1.52401 0
M  V30 10112 C 982.587 -3.35936 1.21991 0
M  V30 10113 C 982.253 -3.61307 2.69756 0
M  V30 10114 C 980.915 -3.6794 3.10119 0
M  V30 10115 C 983.267 -3.71871 3.65187 0
M  V30 10116 C 980.595 -3.82639 4.44752 0
M  V30 10117 C 982.947 -3.88091 4.99568 0
M  V30 10118 C 981.611 -3.92967 5.39568 0
M  V30 10119 H 980.881 -0.683847 0.285368 0
M  V30 10120 H 983.528 -1.37569 1.33218 0
M  V30 10121 H 981.833 -3.87381 0.586774 0
M  V30 10122 H 983.53 -3.88895 0.977821 0
M  V30 10123 H 980.12 -3.56777 2.37504 0
M  V30 10124 H 984.304 -3.66057 3.35136 0
M  V30 10125 H 979.56 -3.84666 4.75228 0
M  V30 10126 H 983.734 -3.95207 5.73397 0
M  V30 10127 H 981.361 -4.04109 6.43895 0
M  V30 10128 N 982.937 -0.845659 -1.3299 0
M  V30 10129 C 984.348 -0.50048 -1.79867 0
M  V30 10130 C 984.699 0.981027 -1.69913 0
M  V30 10131 O 983.824 1.76477 -1.25239 0
M  V30 10132 C 984.419 -0.901679 -3.26581 0
M  V30 10133 C 982.978 -0.608536 -3.71448 0
M  V30 10134 C 982.125 -1.10632 -2.54275 0
M  V30 10135 H 985.076 -1.03372 -1.20416 0
M  V30 10136 H 985.097 -0.214433 -3.79895 0
M  V30 10137 H 984.609 -1.97998 -3.33794 0
M  V30 10138 H 982.71 0.459416 -3.69757 0
M  V30 10139 H 982.823 -1.16853 -4.64631 0
M  V30 10140 H 981.187 -0.526925 -2.4919 0
M  V30 10141 H 981.97 -2.19154 -2.64247 0
M  V30 10142 N 984.415 1.45619 -0.602734 0
M  V30 10143 C 985.345 2.33258 0.106342 0
M  V30 10144 C 986.326 1.46543 0.863664 0
M  V30 10145 O 987.511 1.75324 0.835175 0
M  V30 10146 C 984.641 3.29168 1.10751 0
M  V30 10147 C 983.595 4.25481 0.463717 0
M  V30 10148 C 982.921 5.11046 1.57278 0
M  V30 10149 C 984.221 5.18702 -0.61199 0
M  V30 10150 H 985.915 2.92795 -0.625423 0
M  V30 10151 H 983.461 1.40793 -0.302213 0
M  V30 10152 H 985.414 3.89346 1.61208 0
M  V30 10153 H 984.138 2.6778 1.8698 0
M  V30 10154 H 982.797 3.66595 -0.0199496 0
M  V30 10155 H 982.445 4.46029 2.32524 0
M  V30 10156 H 982.145 5.76286 1.14755 0
M  V30 10157 H 983.669 5.74091 2.07972 0
M  V30 10158 H 985.083 5.72979 -0.191686 0
M  V30 10159 H 983.48 5.92393 -0.958686 0
M  V30 10160 H 984.55 4.61424 -1.4905 0
M  V30 10161 N 985.893 0.34162 1.53853 0
M  V30 10162 C 987.141 -0.254979 2.00485 0
M  V30 10163 C 987.462 -1.51222 1.23114 0
M  V30 10164 O 986.732 -1.92966 0.337787 0
M  V30 10165 H 985.312 -0.0972084 0.740648 0
M  V30 10166 H 987.974 0.462332 1.89337 0
M  V30 10167 H 987.07 -0.498778 3.08089 0
M  V30 10168 N 987.371 -1.57444 0.0701946 0
M  V30 10169 C 988.599 -1.97754 -0.608358 0
M  V30 10170 C 989.014 -0.948496 -1.63245 0
M  V30 10171 O 988.371 0.065046 -1.82384 0
M  V30 10172 C 988.422 -3.38142 -1.27836 0
M  V30 10173 O 988.143 -4.37104 -0.295255 0
M  V30 10174 C 989.644 -3.93318 -2.04489 0
M  V30 10175 H 986.864 -0.650398 -0.164997 0
M  V30 10176 H 989.408 -2.04006 0.142124 0
M  V30 10177 H 987.563 -3.32982 -1.97994 0
M  V30 10178 H 987.977 -5.18732 -0.77574 0
M  V30 10179 H 989.451 -4.93774 -2.46762 0
M  V30 10180 H 989.928 -3.29774 -2.90079 0
M  V30 10181 H 990.534 -4.01875 -1.39201 0
M  V30 10182 N 988.849 0.203349 -1.56283 0
M  V30 10183 C 990.074 0.945548 -1.84592 0
M  V30 10184 C 990.499 1.7641 -0.652772 0
M  V30 10185 O 989.857 1.76867 0.398468 0
M  V30 10186 C 989.905 1.82416 -3.11057 0
M  V30 10187 O 989.009 2.92191 -2.9103 0
M  V30 10188 H 988.35 0.266739 -0.608068 0
M  V30 10189 H 990.88 0.211158 -2.03507 0
M  V30 10190 H 990.89 2.23044 -3.41636 0
M  V30 10191 H 989.565 1.22267 -3.97522 0
M  V30 10192 H 988.142 2.55378 -2.71728 0
M  V30 10193 N 990.327 1.50405 0.470755 0
M  V30 10194 C 991.259 1.65447 1.58619 0
M  V30 10195 C 992.272 0.535949 1.53725 0
M  V30 10196 O 993.461 0.80914 1.59107 0
M  V30 10197 C 990.561 1.62318 2.975 0
M  V30 10198 C 989.734 2.90207 3.27259 0
M  V30 10199 C 988.793 2.79717 4.45696 0
M  V30 10200 O 987.819 3.53672 4.45987 0
M  V30 10201 N 989.021 1.93296 5.47373 0
M  V30 10202 H 991.786 2.61659 1.46132 0
M  V30 10203 H 989.347 1.47873 0.659178 0
M  V30 10204 H 991.339 1.52912 3.747 0
M  V30 10205 H 989.909 0.738392 3.03754 0
M  V30 10206 H 989.129 3.13737 2.38669 0
M  V30 10207 H 990.417 3.74931 3.43953 0
M  V30 10208 H 989.815 1.32524 5.49958 0
M  V30 10209 H 988.372 1.89793 6.23556 0
M  V30 10210 N 991.805 -0.723954 1.39988 0
M  V30 10211 C 993.052 -1.48371 1.37812 0
M  V30 10212 C 993.38 -1.94487 -0.0223285 0
M  V30 10213 O 992.635 -1.67906 -1.00529 0
M  V30 10214 C 992.934 -2.73004 2.30659 0
M  V30 10215 C 992.6 -2.45698 3.78078 0
M  V30 10216 C 991.262 -2.37961 4.18244 0
M  V30 10217 C 993.614 -2.22601 4.71273 0
M  V30 10218 C 990.942 -2.05183 5.49652 0
M  V30 10219 C 993.294 -1.91339 6.0297 0
M  V30 10220 C 991.958 -1.82078 6.42187 0
M  V30 10221 H 991.228 -0.542929 0.504291 0
M  V30 10222 H 993.875 -0.829986 1.72579 0
M  V30 10223 H 992.18 -3.43174 1.89048 0
M  V30 10224 H 993.877 -3.31068 2.26263 0
M  V30 10225 H 990.467 -2.52603 3.46251 0
M  V30 10226 H 994.651 -2.2754 4.41066 0
M  V30 10227 H 989.907 -1.96544 5.78948 0
M  V30 10228 H 994.081 -1.72479 6.74703 0
M  V30 10229 H 991.708 -1.56446 7.43928 0
M  V30 10230 N 993.283 -1.25346 -0.955304 0
M  V30 10231 C 994.193 -1.07412 -2.08566 0
M  V30 10232 C 995.209 -0.0114424 -1.73996 0
M  V30 10233 O 996.385 -0.212236 -2.00279 0
M  V30 10234 C 993.45 -0.694141 -3.3968 0
M  V30 10235 C 992.511 -1.83468 -3.88121 0
M  V30 10236 C 991.744 -1.47274 -5.12978 0
M  V30 10237 O 991.967 -0.368086 -5.69211 0
M  V30 10238 O 990.901 -2.30269 -5.56111 0
M  V30 10239 H 994.727 -2.02206 -2.26598 0
M  V30 10240 H 992.312 -1.04279 -1.06988 0
M  V30 10241 H 994.194 -0.494325 -4.18491 0
M  V30 10242 H 992.869 0.224545 -3.2292 0
M  V30 10243 H 991.776 -2.08935 -3.10318 0
M  V30 10244 H 993.109 -2.73258 -4.09379 0
M  V30 10245 N 994.761 1.15782 -1.06922 0
M  V30 10246 C 995.708 2.2038 -0.685659 0
M  V30 10247 C 996.678 1.62972 0.320816 0
M  V30 10248 O 997.863 1.8966 0.208258 0
M  V30 10249 C 995.003 3.44995 -0.084998 0
M  V30 10250 C 994.116 4.16621 -1.14242 0
M  V30 10251 C 993.251 5.28773 -0.507226 0
M  V30 10252 C 992.29 5.92209 -1.54774 0
M  V30 10253 N 991.427 6.9584 -0.935443 0
M  V30 10254 H 996.267 2.5254 -1.58201 0
M  V30 10255 H 993.804 1.24031 -0.790864 0
M  V30 10256 H 995.762 4.16254 0.280845 0
M  V30 10257 H 994.392 3.13365 0.774725 0
M  V30 10258 H 993.444 3.43903 -1.62589 0
M  V30 10259 H 994.756 4.59884 -1.93154 0
M  V30 10260 H 993.91 6.06635 -0.0887719 0
M  V30 10261 H 992.649 4.8669 0.313704 0
M  V30 10262 H 991.654 5.13063 -1.97602 0
M  V30 10263 H 992.879 6.3637 -2.37088 0
M  V30 10264 H 990.825 6.5586 -0.135339 0
M  V30 10265 H 990.742 7.37508 -1.66186 0
M  V30 10266 H 992.01 7.77611 -0.542346 0
M  V30 10267 N 996.239 0.8527 1.3254 0
M  V30 10268 C 997.655 0.542298 1.50104 0
M  V30 10269 C 997.855 -0.927465 1.78886 0
M  V30 10270 O 996.911 -1.7106 1.85728 0
M  V30 10271 C 998.224 1.4276 2.64651 0
M  V30 10272 C 999.772 1.42782 2.78536 0
M  V30 10273 C 1000.25 2.29828 3.9616 0
M  V30 10274 N 1001.74 2.27613 4.03418 0
M  V30 10275 C 1002.47 2.91696 4.93661 0
M  V30 10276 N 1001.97 3.64883 5.88925 0
M  V30 10277 N 1003.76 2.81094 4.86768 0
M  V30 10278 H 995.913 1.80395 1.12123 0
M  V30 10279 H 998.176 0.770394 0.552446 0
M  V30 10280 H 997.882 2.47266 2.50105 0
M  V30 10281 H 997.756 1.11358 3.60388 0
M  V30 10282 H 1000.14 0.390417 2.92506 0
M  V30 10283 H 1000.22 1.78198 1.83519 0
M  V30 10284 H 999.868 3.33635 3.82949 0
M  V30 10285 H 999.798 1.91746 4.9045 0
M  V30 10286 H 1002.29 1.74402 3.3525 0
M  V30 10287 H 1002.6 4.10952 6.54476 0
M  V30 10288 H 1000.95 3.68991 5.88957 0
M  V30 10289 H 1004.14 2.23469 4.11314 0
M  V30 10290 H 1004.31 3.31318 5.56895 0
M  V30 10291 N 997.718 -1.45297 0.610449 0
M  V30 10292 C 998.966 -2.01819 0.106548 0
M  V30 10293 C 999.287 -1.48102 -1.26849 0
M  V30 10294 O 998.557 -0.676411 -1.83852 0
M  V30 10295 H 997.137 -0.746113 0.0363982 0
M  V30 10296 H 999.799 -1.78061 0.792491 0
M  V30 10297 H 998.895 -3.12045 0.0585 0
M  V30 10298 N 999.196 -0.349774 -1.5367 0
M  V30 10299 C 1000.44 0.245189 -2.01312 0
M  V30 10300 C 1000.77 1.49702 -1.23705 0
M  V30 10301 O 1000.05 1.91742 -0.326371 0
M  V30 10302 C 1000.33 0.553071 -3.55827 0
M  V30 10303 C 1000.19 -0.71129 -4.4414 0
M  V30 10304 C 1001.5 1.36015 -4.18555 0
M  V30 10305 H 998.624 0.0876415 -0.73177 0
M  V30 10306 H 1001.27 -0.471543 -1.84056 0
M  V30 10307 H 999.416 1.16367 -3.70663 0
M  V30 10308 H 1001.09 -1.34913 -4.41131 0
M  V30 10309 H 999.331 -1.33491 -4.1275 0
M  V30 10310 H 1000 -0.45104 -5.50154 0
M  V30 10311 H 1002.48 0.843778 -4.07455 0
M  V30 10312 H 1001.35 1.54432 -5.26728 0
M  V30 10313 H 1001.61 2.36408 -3.73582 0
M  V30 10314 N 1000.67 1.57404 -0.0785433 0
M  V30 10315 C 1001.64 2.11977 0.871693 0
M  V30 10316 C 1002.64 1.04529 1.2219 0
M  V30 10317 O 1003.83 1.30488 1.15406 0
M  V30 10318 C 1000.96 2.6267 2.17296 0
M  V30 10319 H 1002.15 2.97246 0.398115 0
M  V30 10320 H 999.705 1.5537 0.170251 0
M  V30 10321 H 1000.44 1.80873 2.69175 0
M  V30 10322 H 1000.22 3.41214 1.93171 0
M  V30 10323 H 1001.71 3.04943 2.85306 0
M  V30 10324 N 1002.15 -0.195058 1.56388 0
M  V30 10325 C 1003.4 -0.913626 1.79821 0
M  V30 10326 C 1003.71 -1.84422 0.651767 0
M  V30 10327 O 1004.92 -2.6034 0.770402 0
M  V30 10328 C 1003.38 -1.67497 3.18548 0
M  V30 10329 C 1002.98 -0.789205 4.40994 0
M  V30 10330 C 1004.73 -2.38318 3.5129 0
M  V30 10331 C 1002.63 -1.54942 5.70742 0
M  V30 10332 H 1001.56 -0.344891 0.670497 0
M  V30 10333 H 1004.22 -0.166912 1.82739 0
M  V30 10334 H 1002.6 -2.46557 3.0988 0
M  V30 10335 H 1003.77 -0.0372595 4.60785 0
M  V30 10336 H 1002.09 -0.191834 4.15958 0
M  V30 10337 H 1004.68 -2.95745 4.45465 0
M  V30 10338 H 1005.03 -3.12507 2.75037 0
M  V30 10339 H 1005.56 -1.66224 3.61406 0
M  V30 10340 H 1002.3 -0.85031 6.49962 0
M  V30 10341 H 1001.82 -2.2753 5.54969 0
M  V30 10342 H 1003.5 -2.1032 6.11861 0
M  V30 10343 N 1003.63 -1.50653 -0.462772 0
M  V30 10344 C 1004.58 -1.70661 -1.58043 0
M  V30 10345 C 1005.57 -0.572533 -1.59432 0
M  V30 10346 O 1006.78 -0.753257 -1.63481 0
M  V30 10347 H 1003.15 -0.538805 -0.524588 0
M  V30 10348 H 1005.12 -2.64399 -1.38332 0
M  V30 10349 C 1003.87 -1.82558 -2.95919 0
M  V30 10350 H 1003.2 -2.69216 -2.95572 0
M  V30 10351 H 1004.64 -2.0058 -3.73556 0
M  V30 10352 C 1003.09 -0.57916 -3.31885 0
M  V30 10353 O 1003.62 0.277888 -4.00738 0
M  V30 10354 N 1001.83 -0.430723 -2.8739 0
M  V30 10355 H 1001.38 -1.1292 -2.31531 0
M  V30 10356 H 1001.34 0.402061 -3.11819 0
M  V30 10357 N 1005.11 0.71652 -1.4037 0
M  V30 10358 C 1006.35 1.47857 -1.38803 0
M  V30 10359 C 1006.69 1.94197 0.0100536 0
M  V30 10360 O 1005.96 1.68093 0.978521 0
M  V30 10361 C 1006.25 2.7053 -2.37667 0
M  V30 10362 C 1006.1 2.3009 -3.86496 0
M  V30 10363 C 1007.42 3.72684 -2.34082 0
M  V30 10364 H 1004.54 0.53632 -0.505499 0
M  V30 10365 H 1007.18 0.817824 -1.71498 0
M  V30 10366 H 1005.33 3.26906 -2.09916 0
M  V30 10367 H 1007 1.79202 -4.2507 0
M  V30 10368 H 1005.24 1.62102 -4.02375 0
M  V30 10369 H 1005.91 3.18018 -4.51186 0
M  V30 10370 H 1008.39 3.25935 -2.58661 0
M  V30 10371 H 1007.27 4.56157 -3.05306 0
M  V30 10372 H 1007.53 4.20916 -1.35213 0
M  V30 10373 N 1006.59 1.25851 0.948643 0
M  V30 10374 C 1008 1.09975 1.50872 0
M  V30 10375 C 1008.35 -0.322497 1.93531 0
M  V30 10376 O 1007.47 -1.21316 1.79197 0
M  V30 10377 C 1008.07 1.99021 2.74182 0
M  V30 10378 C 1006.63 1.87313 3.26483 0
M  V30 10379 C 1005.77 1.92815 1.99293 0
M  V30 10380 H 1008.73 1.3905 0.764908 0
M  V30 10381 H 1008.75 1.53372 3.4822 0
M  V30 10382 H 1008.26 3.02527 2.43103 0
M  V30 10383 H 1006.36 0.867136 3.62369 0
M  V30 10384 H 1006.47 2.72446 3.94094 0
M  V30 10385 H 1004.84 1.36774 2.1486 0
M  V30 10386 H 1005.62 2.97936 1.70554 0
M  V30 10387 N 1008.06 -1.15214 1.07534 0
M  V30 10388 C 1009 -2.19634 0.655261 0
M  V30 10389 C 1010.01 -1.60139 -0.293165 0
M  V30 10390 O 1011.2 -1.78311 -0.0821957 0
M  V30 10391 C 1008.3 -3.38851 -0.0578281 0
M  V30 10392 C 1007.47 -4.27888 0.90725 0
M  V30 10393 C 1006.53 -5.25692 0.231115 0
M  V30 10394 O 1005.56 -5.62469 0.872746 0
M  V30 10395 N 1006.76 -5.71424 -1.0225 0
M  V30 10396 H 1009.52 -2.56292 1.55353 0
M  V30 10397 H 1007.08 -1.30347 0.960271 0
M  V30 10398 H 1009.08 -4.01334 -0.520874 0
M  V30 10399 H 1007.65 -3.00593 -0.858071 0
M  V30 10400 H 1006.87 -3.62475 1.54937 0
M  V30 10401 H 1008.15 -4.84246 1.56151 0
M  V30 10402 H 1007.55 -5.43659 -1.56369 0
M  V30 10403 H 1006.11 -6.35938 -1.42919 0
M  V30 10404 N 1009.54 -0.859717 -1.32086 0
M  V30 10405 C 1010.79 -0.475565 -1.97762 0
M  V30 10406 C 1011.14 0.959348 -1.66776 0
M  V30 10407 O 1010.44 1.66484 -0.948343 0
M  V30 10408 C 1010.63 -0.657397 -3.51302 0
M  V30 10409 C 1010.46 -2.10843 -3.97209 0
M  V30 10410 C 1009.23 -2.74796 -4.24046 0
M  V30 10411 C 1011.43 -3.07959 -4.11905 0
M  V30 10412 N 1009.41 -4.10758 -4.56236 0
M  V30 10413 C 1010.78 -4.28922 -4.4769 0
M  V30 10414 C 1012.84 -3.04086 -3.94254 0
M  V30 10415 C 1011.54 -5.46518 -4.67665 0
M  V30 10416 C 1013.56 -4.20931 -4.15416 0
M  V30 10417 C 1012.93 -5.40654 -4.51522 0
M  V30 10418 H 1009.03 -0.222859 -0.749572 0
M  V30 10419 H 1011.61 -1.11217 -1.59809 0
M  V30 10420 H 1009.78 -0.0504597 -3.88367 0
M  V30 10421 H 1011.51 -0.242642 -4.03972 0
M  V30 10422 H 1008.27 -2.25805 -4.16304 0
M  V30 10423 H 1008.69 -4.80905 -4.76507 0
M  V30 10424 H 1013.33 -2.12641 -3.65436 0
M  V30 10425 H 1011.05 -6.3849 -4.95335 0
M  V30 10426 H 1014.64 -4.19376 -4.03255 0
M  V30 10427 H 1013.52 -6.29563 -4.67568 0
M  V30 10428 N 1011.02 1.44971 -0.618145 0
M  V30 10429 C 1012.27 2.02458 -0.117656 0
M  V30 10430 C 1012.6 1.48413 1.25248 0
M  V30 10431 O 1011.87 0.662997 1.82851 0
M  V30 10432 C 1012.16 3.59987 -0.0901897 0
M  V30 10433 C 1012.01 4.24343 -1.49175 0
M  V30 10434 C 1013.33 4.36099 0.592121 0
M  V30 10435 H 1010.45 0.735672 -0.0442291 0
M  V30 10436 H 1013.09 1.727 -0.792138 0
M  V30 10437 H 1011.24 3.85471 0.484175 0
M  V30 10438 H 1012.91 4.10009 -2.114 0
M  V30 10439 H 1011.16 3.82337 -2.04941 0
M  V30 10440 H 1011.83 5.33298 -1.42468 0
M  V30 10441 H 1014.3 4.1597 0.103813 0
M  V30 10442 H 1013.18 5.45822 0.580481 0
M  V30 10443 H 1013.44 4.09746 1.66015 0
M  V30 10444 N 1012.5 0.357919 1.53482 0
M  V30 10445 C 1013.91 -0.122938 1.86295 0
M  V30 10446 C 1014.26 -1.48803 1.27875 0
M  V30 10447 O 1013.39 -2.07978 0.597828 0
M  V30 10448 C 1013.98 -0.229853 3.38019 0
M  V30 10449 C 1012.54 -0.654955 3.70658 0
M  V30 10450 C 1011.69 0.202539 2.76559 0
M  V30 10451 H 1014.64 0.576997 1.47839 0
M  V30 10452 H 1014.66 -1.05481 3.65587 0
M  V30 10453 H 1014.17 0.763825 3.80509 0
M  V30 10454 H 1012.27 -1.65714 3.33721 0
M  V30 10455 H 1012.38 -0.43488 4.77122 0
M  V30 10456 H 1010.75 -0.327388 2.52587 0
M  V30 10457 H 1011.53 1.19361 3.21882 0
M  V30 10458 N 1013.98 -1.5736 0.0868897 0
M  V30 10459 C 1014.89 -2.17087 -0.889402 0
M  V30 10460 C 1015.9 -1.13809 -1.31619 0
M  V30 10461 O 1017.08 -1.46143 -1.38579 0
M  V30 10462 C 1014.14 -2.73286 -2.13344 0
M  V30 10463 C 1013.2 -3.91491 -1.76164 0
M  V30 10464 C 1012.44 -4.45 -2.94637 0
M  V30 10465 O 1012.66 -3.97467 -4.09116 0
M  V30 10466 O 1011.59 -5.36133 -2.73579 0
M  V30 10467 H 1015.42 -3.00902 -0.411275 0
M  V30 10468 H 1013.01 -1.4877 -0.137015 0
M  V30 10469 H 1014.89 -3.0924 -2.86266 0
M  V30 10470 H 1013.56 -1.92521 -2.60225 0
M  V30 10471 H 1012.47 -3.60363 -1.00447 0
M  V30 10472 H 1013.8 -4.73593 -1.34053 0
M  V30 10473 N 1015.45 0.186762 -1.56489 0
M  V30 10474 C 1016.4 1.25084 -1.96104 0
M  V30 10475 C 1017.4 1.4667 -0.847609 0
M  V30 10476 O 1018.6 1.47432 -1.03266 0
M  V30 10477 H 1014.98 0.420121 -0.623701 0
M  V30 10478 H 1016.95 0.889761 -2.84826 0
M  V30 10479 C 1015.7 2.5863 -2.32392 0
M  V30 10480 H 1015.02 2.42838 -3.176 0
M  V30 10481 H 1016.46 3.3181 -2.63967 0
M  V30 10482 C 1014.92 3.16241 -1.16159 0
M  V30 10483 O 1015.45 3.99272 -0.441034 0
M  V30 10484 N 1013.66 2.75106 -0.936206 0
M  V30 10485 H 1013.2 2.0769 -1.5239 0
M  V30 10486 H 1013.16 3.13991 -0.160317 0
M  V30 10487 N 1016.93 1.50896 0.454776 0
M  V30 10488 C 1018.17 1.64347 1.21529 0
M  V30 10489 C 1018.54 0.343869 1.88896 0
M  V30 10490 O 1019.74 0.353973 2.66459 0
M  V30 10491 C 1018.01 2.80199 2.21864 0
M  V30 10492 S 1019.57 3.13879 3.06636 0
M  V30 10493 H 1016.39 0.579193 0.412379 0
M  V30 10494 H 1018.99 1.88741 0.509629 0
M  V30 10495 H 1017.69 3.73086 1.70982 0
M  V30 10496 H 1017.22 2.57941 2.97036 0
M  V30 10497 H 1019.24 2.58964 4.23264 0
M  V30 10498 N 1018.41 -0.709066 1.40748 0
M  V30 10499 C 1019.66 -1.4646 1.38681 0
M  V30 10500 C 1019.97 -1.95599 -0.0056209 0
M  V30 10501 O 1021.18 -2.71091 -0.148907 0
M  V30 10502 C 1019.63 -2.64771 2.43771 0
M  V30 10503 C 1019.24 -2.22474 3.88856 0
M  V30 10504 C 1020.99 -3.42475 2.50821 0
M  V30 10505 C 1018.89 -3.37663 4.85528 0
M  V30 10506 H 1017.82 -0.550084 0.515678 0
M  V30 10507 H 1020.47 -0.771074 1.66513 0
M  V30 10508 H 1018.86 -3.36325 2.09048 0
M  V30 10509 H 1020.03 -1.58297 4.32757 0
M  V30 10510 H 1018.35 -1.57798 3.85342 0
M  V30 10511 H 1020.94 -4.28201 3.20232 0
M  V30 10512 H 1021.29 -3.86738 1.54076 0
M  V30 10513 H 1021.82 -2.77969 2.84567 0
M  V30 10514 H 1018.56 -2.98426 5.83628 0
M  V30 10515 H 1018.08 -4.00734 4.46287 0
M  V30 10516 H 1019.76 -4.03636 5.05655 0
M  V30 10517 N 1019.89 -1.26353 -0.941956 0
M  V30 10518 C 1020.82 -1.03634 -2.04432 0
M  V30 10519 C 1021.83 0.00295864 -1.628 0
M  V30 10520 O 1023.02 -0.237029 -1.76919 0
M  V30 10521 C 1020.12 -0.547231 -3.34453 0
M  V30 10522 C 1019.3 -1.65559 -4.04857 0
M  V30 10523 C 1018.36 -1.16466 -5.13149 0
M  V30 10524 O 1017.38 -1.86158 -5.37898 0
M  V30 10525 N 1018.58 -0.0126703 -5.80499 0
M  V30 10526 H 1021.35 -1.98558 -2.24488 0
M  V30 10527 H 1018.91 -1.17728 -1.11138 0
M  V30 10528 H 1020.9 -0.203004 -4.04191 0
M  V30 10529 H 1019.47 0.308401 -3.11075 0
M  V30 10530 H 1018.69 -2.17079 -3.29044 0
M  V30 10531 H 1019.98 -2.39985 -4.48647 0
M  V30 10532 H 1019.38 0.569358 -5.62828 0
M  V30 10533 H 1017.93 0.272486 -6.5123 0
M  V30 10534 N 1021.37 1.14642 -1.08144 0
M  V30 10535 C 1022.61 1.87277 -0.818953 0
M  V30 10536 C 1022.97 1.80896 0.643482 0
M  V30 10537 O 1024.17 2.4864 1.02135 0
M  V30 10538 C 1022.44 3.32006 -1.32314 0
M  V30 10539 S 1024 4.22284 -1.19256 0
M  V30 10540 H 1020.82 0.646204 -0.29655 0
M  V30 10541 H 1023.42 1.38261 -1.38217 0
M  V30 10542 H 1022.13 3.34197 -2.38203 0
M  V30 10543 H 1021.66 3.86078 -0.75548 0
M  V30 10544 H 1023.67 4.96016 -0.135143 0
M  V30 10545 N 1022.85 0.866709 1.31628 0
M  V30 10546 C 1023.79 0.309128 2.30537 0
M  V30 10547 C 1024.79 -0.574028 1.59378 0
M  V30 10548 O 1025.99 -0.460491 1.7401 0
M  V30 10549 H 1022.37 0.081279 0.747595 0
M  V30 10550 H 1024.34 1.15734 2.75042 0
M  V30 10551 C 1023.09 -0.477287 3.44409 0
M  V30 10552 H 1022.41 0.19301 3.99334 0
M  V30 10553 H 1023.85 -0.832818 4.1574 0
M  V30 10554 C 1022.31 -1.66727 2.92752 0
M  V30 10555 O 1022.84 -2.76654 2.91248 0
M  V30 10556 N 1021.05 -1.49833 2.48995 0
M  V30 10557 H 1020.59 -0.604073 2.50417 0
M  V30 10558 H 1020.55 -2.29594 2.14788 0
M  V30 10559 N 1024.32 -1.44642 0.625825 0
M  V30 10560 C 1025.26 -2.28882 -0.120614 0
M  V30 10561 C 1026.27 -1.40985 -0.81407 0
M  V30 10562 O 1027.46 -1.65188 -0.676404 0
M  V30 10563 C 1024.56 -3.17217 -1.19274 0
M  V30 10564 C 1023.73 -4.33499 -0.582839 0
M  V30 10565 C 1022.79 -5.02908 -1.54823 0
M  V30 10566 O 1021.82 -5.59102 -1.06743 0
M  V30 10567 N 1023.02 -5.0387 -2.88262 0
M  V30 10568 H 1025.78 -2.93585 0.602318 0
M  V30 10569 H 1023.34 -1.5503 0.466604 0
M  V30 10570 H 1025.34 -3.60515 -1.83878 0
M  V30 10571 H 1023.91 -2.54301 -1.81797 0
M  V30 10572 H 1023.13 -3.93458 0.241696 0
M  V30 10573 H 1024.41 -5.08561 -0.155914 0
M  V30 10574 H 1023.81 -4.59539 -3.2991 0
M  V30 10575 H 1022.37 -5.50974 -3.4824 0
M  V30 10576 N 1025.8 -0.366053 -1.5329 0
M  V30 10577 C 1027.04 0.223558 -2.03174 0
M  V30 10578 C 1027.41 1.45955 -1.24745 0
M  V30 10579 O 1028.61 2.12481 -1.64637 0
M  V30 10580 C 1026.88 0.507899 -3.53773 0
M  V30 10581 S 1028.44 1.07111 -4.25526 0
M  V30 10582 H 1025.25 0.0650309 -0.70802 0
M  V30 10583 H 1027.86 -0.509028 -1.88757 0
M  V30 10584 H 1026.56 -0.39913 -4.08455 0
M  V30 10585 H 1026.09 1.26954 -3.72352 0
M  V30 10586 H 1028.11 2.35533 -4.36737 0
M  V30 10587 N 1027.28 1.57312 -0.0952337 0
M  V30 10588 C 1028.24 2.12889 0.849161 0
M  V30 10589 C 1029.24 1.05819 1.21075 0
M  V30 10590 O 1030.43 1.31704 1.14016 0
M  V30 10591 C 1027.56 2.6496 2.14498 0
M  V30 10592 H 1028.76 2.97651 0.366566 0
M  V30 10593 H 1026.31 1.55542 0.153762 0
M  V30 10594 H 1027.05 1.83718 2.67242 0
M  V30 10595 H 1026.83 3.43244 1.89542 0
M  V30 10596 H 1028.32 3.07952 2.82056 0
M  V30 10597 N 1028.76 -0.17846 1.56586 0
M  V30 10598 C 1030 -0.896235 1.81587 0
M  V30 10599 C 1030.33 -1.82553 0.671168 0
M  V30 10600 O 1029.59 -1.92688 -0.342046 0
M  V30 10601 C 1029.89 -1.73063 3.12704 0
M  V30 10602 C 1029.55 -0.950877 4.4076 0
M  V30 10603 C 1028.21 -0.735647 4.75544 0
M  V30 10604 C 1030.57 -0.403419 5.19636 0
M  V30 10605 C 1027.89 0.0382562 5.86688 0
M  V30 10606 C 1030.25 0.357359 6.3159 0
M  V30 10607 C 1028.91 0.583455 6.64945 0
M  V30 10608 H 1028.18 -0.327956 0.664474 0
M  V30 10609 H 1030.83 -0.161586 1.90817 0
M  V30 10610 H 1029.13 -2.53446 2.98785 0
M  V30 10611 H 1030.83 -2.28891 3.29257 0
M  V30 10612 H 1027.42 -1.12866 4.13472 0
M  V30 10613 H 1031.6 -0.557059 4.93164 0
M  V30 10614 H 1026.86 0.223237 6.10992 0
M  V30 10615 H 1031.03 0.788861 6.91918 0
M  V30 10616 H 1028.66 1.18502 7.50907 0
M  V30 10617 N 1030.24 -1.51135 -0.446768 0
M  V30 10618 C 1031.48 -1.63578 -1.19875 0
M  V30 10619 C 1031.81 -0.346478 -1.91084 0
M  V30 10620 O 1031.09 0.653447 -1.83195 0
M  V30 10621 C 1031.37 -2.83275 -2.22323 0
M  V30 10622 C 1031.23 -4.22155 -1.55259 0
M  V30 10623 C 1032.54 -2.98496 -3.23401 0
M  V30 10624 H 1029.66 -0.595333 -0.434452 0
M  V30 10625 H 1032.31 -1.83593 -0.48923 0
M  V30 10626 H 1030.46 -2.6634 -2.82834 0
M  V30 10627 H 1032.13 -4.50736 -0.981571 0
M  V30 10628 H 1030.37 -4.25288 -0.855122 0
M  V30 10629 H 1031.04 -5.01882 -2.29823 0
M  V30 10630 H 1033.52 -3.14079 -2.72935 0
M  V30 10631 H 1032.39 -3.83828 -3.92386 0
M  V30 10632 H 1032.65 -2.10157 -3.88956 0
M  V30 10633 N 1031.71 0.701592 -1.41122 0
M  V30 10634 C 1032.95 1.4739 -1.41618 0
M  V30 10635 C 1033.32 1.91987 -0.0219443 0
M  V30 10636 O 1034.52 2.6862 0.0982793 0
M  V30 10637 C 1032.79 2.65745 -2.38986 0
M  V30 10638 S 1034.35 3.54968 -2.5796 0
M  V30 10639 H 1031.17 0.503742 -0.501762 0
M  V30 10640 H 1033.77 0.819186 -1.77509 0
M  V30 10641 H 1032.47 2.31176 -3.39096 0
M  V30 10642 H 1032 3.36115 -2.04426 0
M  V30 10643 H 1034.02 4.60724 -1.84249 0
M  V30 10644 N 1033.19 1.2685 0.935242 0
M  V30 10645 C 1034.6 1.11569 1.49697 0
M  V30 10646 C 1034.95 -0.301952 1.93863 0
M  V30 10647 O 1034.08 -1.19408 1.80473 0
M  V30 10648 C 1034.67 2.01918 2.72056 0
M  V30 10649 C 1033.23 1.90765 3.24477 0
M  V30 10650 C 1032.38 1.94918 1.97237 0
M  V30 10651 H 1035.33 1.39853 0.750116 0
M  V30 10652 H 1035.35 1.57056 3.46574 0
M  V30 10653 H 1034.86 3.05088 2.39881 0
M  V30 10654 H 1032.96 0.905521 3.61429 0
M  V30 10655 H 1033.08 2.76611 3.91182 0
M  V30 10656 H 1031.44 1.39046 2.13397 0
M  V30 10657 H 1032.22 2.99729 1.67385 0
M  V30 10658 N 1034.67 -1.14067 1.0875 0
M  V30 10659 C 1035.62 -2.17302 0.690195 0
M  V30 10660 C 1036.6 -1.58229 -0.291948 0
M  V30 10661 O 1037.8 -1.76698 -0.103411 0
M  V30 10662 C 1034.93 -3.4314 0.104835 0
M  V30 10663 C 1034.01 -4.09235 1.11298 0
M  V30 10664 N 1034.4 -4.50601 2.29765 0
M  V30 10665 C 1032.7 -4.35775 0.949535 0
M  V30 10666 C 1033.4 -5.02029 2.93839 0
M  V30 10667 N 1032.38 -4.96457 2.21431 0
M  V30 10668 H 1036.18 -2.47031 1.59226 0
M  V30 10669 H 1033.69 -1.30788 0.962722 0
M  V30 10670 H 1035.69 -4.16431 -0.197777 0
M  V30 10671 H 1034.35 -3.14888 -0.792172 0
M  V30 10672 H 1035.36 -4.43529 2.67399 0
M  V30 10673 H 1032.04 -4.17364 0.106627 0
M  V30 10674 H 1033.43 -5.43885 3.94511 0
M  V30 10675 N 1036.15 -0.873678 -1.31166 0
M  V30 10676 C 1037.37 -0.500242 -2.01277 0
M  V30 10677 C 1037.8 0.900811 -1.65127 0
M  V30 10678 O 1037.16 1.59504 -0.861862 0
M  V30 10679 C 1037.2 -0.668976 -3.5434 0
M  V30 10680 O 1036.31 0.290096 -4.11378 0
M  V30 10681 H 1035.65 -0.198507 -0.633633 0
M  V30 10682 H 1038.18 -1.17811 -1.67277 0
M  V30 10683 H 1038.19 -0.563673 -4.04088 0
M  V30 10684 H 1036.86 -1.69055 -3.79991 0
M  V30 10685 H 1035.44 0.139437 -3.72639 0
M  V30 10686 N 1037.63 1.44308 -0.633487 0
M  V30 10687 C 1038.59 2.2912 0.060376 0
M  V30 10688 C 1039.59 1.41166 0.769992 0
M  V30 10689 O 1040.78 1.63012 0.614224 0
M  V30 10690 C 1037.91 3.22798 1.0961 0
M  V30 10691 H 1039.1 2.91958 -0.685617 0
M  V30 10692 H 1036.66 1.51259 -0.393738 0
M  V30 10693 H 1037.39 2.64815 1.87199 0
M  V30 10694 H 1037.18 3.87618 0.591161 0
M  V30 10695 H 1038.67 3.86504 1.58127 0
M  V30 10696 N 1039.1 0.374177 1.53094 0
M  V30 10697 C 1040.35 -0.213981 2.00562 0
M  V30 10698 C 1040.67 -1.4916 1.26533 0
M  V30 10699 O 1041.87 -2.15889 1.64634 0
M  V30 10700 C 1040.33 -0.431876 3.57299 0
M  V30 10701 C 1039.94 0.831615 4.40214 0
M  V30 10702 C 1041.68 -0.977222 4.13099 0
M  V30 10703 C 1039.59 0.582831 5.88521 0
M  V30 10704 H 1038.52 -0.0837386 0.749336 0
M  V30 10705 H 1041.17 0.494245 1.76719 0
M  V30 10706 H 1039.55 -1.20158 3.7733 0
M  V30 10707 H 1040.72 1.60477 4.31953 0
M  V30 10708 H 1039.04 1.30081 3.9556 0
M  V30 10709 H 1041.64 -1.17881 5.21544 0
M  V30 10710 H 1041.98 -1.94189 3.68234 0
M  V30 10711 H 1042.51 -0.267473 3.969 0
M  V30 10712 H 1039.25 1.51807 6.37679 0
M  V30 10713 H 1038.77 -0.151666 5.99608 0
M  V30 10714 H 1040.45 0.211604 6.46654 0
M  V30 10715 N 1040.58 -1.57259 0.103575 0
M  V30 10716 C 1041.51 -2.17509 -0.84923 0
M  V30 10717 C 1042.49 -1.11079 -1.28824 0
M  V30 10718 O 1043.68 -1.39252 -1.35361 0
M  V30 10719 C 1040.81 -2.76221 -2.10522 0
M  V30 10720 C 1039.76 -3.88098 -1.80454 0
M  V30 10721 C 1039.09 -4.33549 -3.12952 0
M  V30 10722 C 1040.39 -5.10909 -1.08486 0
M  V30 10723 H 1042.08 -2.9738 -0.347217 0
M  V30 10724 H 1039.63 -1.43045 -0.165568 0
M  V30 10725 H 1041.58 -3.17024 -2.77621 0
M  V30 10726 H 1040.31 -1.93617 -2.63021 0
M  V30 10727 H 1038.96 -3.47847 -1.15749 0
M  V30 10728 H 1038.61 -3.47825 -3.63355 0
M  V30 10729 H 1038.31 -5.08984 -2.93614 0
M  V30 10730 H 1039.84 -4.76992 -3.81196 0
M  V30 10731 H 1041.25 -5.48828 -1.65711 0
M  V30 10732 H 1039.65 -5.91828 -0.992973 0
M  V30 10733 H 1040.72 -4.84851 -0.0690108 0
M  V30 10734 N 1042.06 0.170153 -1.56679 0
M  V30 10735 C 1043.47 0.732502 -1.7173 0
M  V30 10736 C 1043.82 1.82736 -0.71428 0
M  V30 10737 O 1042.95 2.16044 0.124102 0
M  V30 10738 C 1043.54 1.33548 -3.11368 0
M  V30 10739 C 1042.1 1.84464 -3.281 0
M  V30 10740 C 1041.25 0.724069 -2.6768 0
M  V30 10741 H 1044.2 -0.0552543 -1.58604 0
M  V30 10742 H 1044.22 2.20519 -3.10083 0
M  V30 10743 H 1043.73 0.5384 -3.84347 0
M  V30 10744 H 1041.83 2.66813 -2.6008 0
M  V30 10745 H 1041.95 1.98928 -4.35849 0
M  V30 10746 H 1040.31 1.14481 -2.27522 0
M  V30 10747 H 1041.09 -0.0611861 -3.43245 0
M  V30 10748 N 1043.54 1.5137 0.438746 0
M  V30 10749 C 1044.78 1.64211 1.19006 0
M  V30 10750 C 1045.12 0.356607 1.90898 0
M  V30 10751 O 1044.39 -0.643722 1.83539 0
M  V30 10752 C 1044.68 2.8445 2.20817 0
M  V30 10753 C 1044.53 4.22972 1.53018 0
M  V30 10754 C 1045.85 3.00207 3.21813 0
M  V30 10755 H 1042.97 0.597628 0.431288 0
M  V30 10756 H 1045.61 1.8385 0.479487 0
M  V30 10757 H 1043.76 2.67836 2.81418 0
M  V30 10758 H 1045.43 4.5125 0.957654 0
M  V30 10759 H 1043.67 4.25736 0.832556 0
M  V30 10760 H 1044.34 5.03094 2.27158 0
M  V30 10761 H 1046.82 3.15522 2.71266 0
M  V30 10762 H 1045.7 3.85904 3.90345 0
M  V30 10763 H 1045.96 2.12216 3.87836 0
M  V30 10764 N 1045.02 -0.694098 1.41492 0
M  V30 10765 C 1045.95 -1.82042 1.46229 0
M  V30 10766 C 1046.93 -1.67047 0.320803 0
M  V30 10767 O 1048.11 -1.86758 0.53245 0
M  V30 10768 C 1045.24 -3.2019 1.34519 0
M  V30 10769 C 1044.2 -3.49892 2.46495 0
M  V30 10770 C 1043.52 -4.87411 2.1985 0
M  V30 10771 C 1044.82 -3.4872 3.88834 0
M  V30 10772 H 1046.52 -1.78335 2.40493 0
M  V30 10773 H 1044.06 -0.856566 1.15754 0
M  V30 10774 H 1046.02 -3.98699 1.36445 0
M  V30 10775 H 1044.74 -3.24527 0.367406 0
M  V30 10776 H 1043.4 -2.73734 2.43854 0
M  V30 10777 H 1043.05 -4.88375 1.20411 0
M  V30 10778 H 1042.75 -5.08248 2.94885 0
M  V30 10779 H 1044.27 -5.68228 2.23494 0
M  V30 10780 H 1045.68 -4.1723 3.93182 0
M  V30 10781 H 1044.08 -3.81089 4.63564 0
M  V30 10782 H 1045.15 -2.47665 4.16881 0
M  V30 10783 N 1046.49 -1.27344 -0.928501 0
M  V30 10784 C 1047.46 -1.10043 -2.01055 0
M  V30 10785 C 1048.46 -0.0446793 -1.60738 0
M  V30 10786 O 1049.65 -0.289202 -1.71783 0
M  V30 10787 C 1046.78 -0.676559 -3.34119 0
M  V30 10788 H 1047.97 -2.06126 -2.17835 0
M  V30 10789 H 1045.53 -1.10121 -1.10919 0
M  V30 10790 H 1046.26 0.285697 -3.23039 0
M  V30 10791 H 1046.05 -1.43903 -3.64739 0
M  V30 10792 H 1047.54 -0.577725 -4.13584 0
M  V30 10793 N 1047.97 1.13488 -1.09353 0
M  V30 10794 C 1048.92 2.18876 -0.732251 0
M  V30 10795 C 1049.89 1.63616 0.286175 0
M  V30 10796 O 1051.07 1.90059 0.167981 0
M  V30 10797 C 1048.21 3.44737 -0.158157 0
M  V30 10798 C 1047.33 4.14104 -1.23053 0
M  V30 10799 C 1046.46 5.27578 -0.619272 0
M  V30 10800 C 1045.5 5.88793 -1.67301 0
M  V30 10801 N 1044.64 6.937 -1.08283 0
M  V30 10802 H 1049.48 2.49128 -1.63522 0
M  V30 10803 H 1047.02 1.22326 -0.816995 0
M  V30 10804 H 1048.97 4.16756 0.192488 0
M  V30 10805 H 1047.6 3.14938 0.708082 0
M  V30 10806 H 1046.66 3.40376 -1.69847 0
M  V30 10807 H 1047.97 4.55683 -2.02865 0
M  V30 10808 H 1047.12 6.0631 -0.217428 0
M  V30 10809 H 1045.86 4.87246 0.210399 0
M  V30 10810 H 1044.87 5.08756 -2.0844 0
M  V30 10811 H 1046.09 6.31197 -2.50533 0
M  V30 10812 H 1044.04 6.55426 -0.274426 0
M  V30 10813 H 1043.95 7.33817 -1.81792 0
M  V30 10814 H 1045.22 7.76286 -0.707167 0
M  V30 10815 N 1049.45 0.880621 1.30701 0
M  V30 10816 C 1050.36 0.348034 2.32004 0
M  V30 10817 C 1051.38 -0.547508 1.65162 0
M  V30 10818 O 1052.55 -0.441673 1.96497 0
M  V30 10819 C 1049.62 -0.432585 3.43991 0
M  V30 10820 C 1048.68 0.492189 4.26469 0
M  V30 10821 C 1047.91 -0.25127 5.33108 0
M  V30 10822 O 1048.14 -1.47795 5.5092 0
M  V30 10823 O 1047.07 0.396376 6.00593 0
M  V30 10824 H 1050.9 1.18798 2.79501 0
M  V30 10825 H 1048.48 0.64432 1.34792 0
M  V30 10826 H 1050.36 -0.874733 4.12221 0
M  V30 10827 H 1049.04 -1.2489 2.98637 0
M  V30 10828 H 1047.94 0.983058 3.60953 0
M  V30 10829 H 1049.28 1.27439 4.75416 0
M  V30 10830 N 1050.93 -1.4397 0.641131 0
M  V30 10831 C 1051.84 -2.34526 -0.058742 0
M  V30 10832 C 1052.86 -1.53194 -0.825088 0
M  V30 10833 O 1054.03 -1.85888 -0.775081 0
M  V30 10834 C 1051.1 -3.31313 -1.02139 0
M  V30 10835 C 1050.16 -4.28552 -0.253319 0
M  V30 10836 C 1049.39 -5.20715 -1.17012 0
M  V30 10837 O 1049.61 -5.17028 -2.40911 0
M  V30 10838 O 1048.55 -5.9839 -0.649039 0
M  V30 10839 H 1052.37 -2.95843 0.686329 0
M  V30 10840 H 1049.96 -1.43909 0.401316 0
M  V30 10841 H 1051.84 -3.90862 -1.57496 0
M  V30 10842 H 1050.52 -2.72516 -1.7469 0
M  V30 10843 H 1049.42 -3.72519 0.343531 0
M  V30 10844 H 1050.76 -4.90297 0.432372 0
M  V30 10845 N 1052.41 -0.382291 -1.52893 0
M  V30 10846 C 1053.32 0.463745 -2.29971 0
M  V30 10847 C 1054.33 1.07777 -1.36602 0
M  V30 10848 O 1055.51 1.0851 -1.69669 0
M  V30 10849 C 1052.57 1.57938 -3.08637 0
M  V30 10850 C 1051.64 0.991182 -4.17701 0
M  V30 10851 C 1050.87 2.05365 -4.92606 0
M  V30 10852 O 1051.09 3.26757 -4.67532 0
M  V30 10853 O 1050.03 1.67487 -5.78128 0
M  V30 10854 H 1053.85 -0.163962 -3.03257 0
M  V30 10855 H 1051.44 -0.146199 -1.48683 0
M  V30 10856 H 1053.32 2.22765 -3.57706 0
M  V30 10857 H 1051.99 2.19218 -2.3817 0
M  V30 10858 H 1050.9 0.306364 -3.72843 0
M  V30 10859 H 1052.23 0.422699 -4.90382 0
M  V30 10860 N 1053.89 1.57202 -0.111913 0
M  V30 10861 C 1054.82 2.17957 0.837683 0
M  V30 10862 C 1055.8 1.1176 1.28233 0
M  V30 10863 O 1056.98 1.39967 1.34621 0
M  V30 10864 C 1054.11 2.77333 2.09054 0
M  V30 10865 C 1053.07 3.8905 1.78393 0
M  V30 10866 C 1052.39 4.35203 3.10649 0
M  V30 10867 C 1053.69 5.11477 1.05775 0
M  V30 10868 H 1055.39 2.9756 0.331441 0
M  V30 10869 H 1052.93 1.43131 0.157979 0
M  V30 10870 H 1054.88 3.18492 2.75936 0
M  V30 10871 H 1053.61 1.95009 2.6199 0
M  V30 10872 H 1052.27 3.48456 1.13903 0
M  V30 10873 H 1051.92 3.49747 3.61506 0
M  V30 10874 H 1051.62 5.10534 2.9091 0
M  V30 10875 H 1053.14 4.79007 3.78661 0
M  V30 10876 H 1054.55 5.497 1.62798 0
M  V30 10877 H 1052.95 5.92346 0.961573 0
M  V30 10878 H 1054.02 4.84881 0.043297 0
M  V30 10879 N 1055.36 -0.161842 1.56767 0
M  V30 10880 C 1056.61 -0.878224 1.82798 0
M  V30 10881 C 1056.94 -1.81481 0.691242 0
M  V30 10882 O 1056.22 -1.92075 -0.30618 0
M  V30 10883 C 1056.5 -1.66565 3.19262 0
M  V30 10884 C 1056.35 -0.751551 4.43477 0
M  V30 10885 C 1057.67 -2.63134 3.52773 0
M  V30 10886 H 1054.79 -0.317828 0.664947 0
M  V30 10887 H 1057.43 -0.14402 1.89453 0
M  V30 10888 H 1055.58 -2.29157 3.13719 0
M  V30 10889 H 1057.26 -0.137783 4.61094 0
M  V30 10890 H 1055.5 -0.0601785 4.33758 0
M  V30 10891 H 1056.17 -1.33823 5.35533 0
M  V30 10892 H 1058.65 -2.10666 3.5883 0
M  V30 10893 H 1057.52 -3.15289 4.49315 0
M  V30 10894 H 1057.78 -3.43786 2.77963 0
M  V30 10895 N 1056.84 -1.516 -0.430713 0
M  V30 10896 C 1058.09 -1.64271 -1.17726 0
M  V30 10897 C 1058.41 -0.364406 -1.91565 0
M  V30 10898 O 1057.68 0.619991 -1.8583 0
M  V30 10899 H 1056.26 -0.605432 -0.437562 0
M  V30 10900 H 1058.92 -1.88557 -0.493166 0
M  V30 10901 H 1058.02 -2.47355 -1.90321 0
M  V30 10902 N 1058.32 0.686584 -1.41858 0
M  V30 10903 C 1059.28 1.78214 -1.44126 0
M  V30 10904 C 1060.28 1.57366 -0.330541 0
M  V30 10905 O 1061.47 1.63874 -0.590837 0
M  V30 10906 C 1058.6 3.16704 -1.26142 0
M  V30 10907 H 1059.8 1.77594 -2.41661 0
M  V30 10908 H 1057.35 0.895085 -1.28132 0
M  V30 10909 H 1058.09 3.22957 -0.294823 0
M  V30 10910 H 1057.87 3.33238 -2.06627 0
M  V30 10911 H 1059.36 3.96658 -1.30584 0
M  V30 10912 N 1059.8 1.27835 0.921735 0
M  V30 10913 C 1061.21 1.13151 1.48505 0
M  V30 10914 C 1061.56 -0.281373 1.94172 0
M  V30 10915 O 1060.68 -1.17487 1.8173 0
M  V30 10916 C 1061.28 2.04792 2.69899 0
M  V30 10917 C 1059.84 1.94196 3.22436 0
M  V30 10918 C 1058.99 1.96999 1.95158 0
M  V30 10919 H 1061.94 1.40641 0.735241 0
M  V30 10920 H 1061.96 1.60724 3.44889 0
M  V30 10921 H 1061.47 3.07615 2.36631 0
M  V30 10922 H 1059.57 0.943805 3.60448 0
M  V30 10923 H 1059.68 2.80744 3.88226 0
M  V30 10924 H 1058.05 1.41301 2.11911 0
M  V30 10925 H 1058.83 3.01487 1.64196 0
M  V30 10926 N 1061.28 -1.12907 1.09954 0
M  V30 10927 C 1062.24 -2.16673 0.747364 0
M  V30 10928 C 1063.24 -1.59208 -0.225741 0
M  V30 10929 O 1064.43 -1.742 -0.00322482 0
M  V30 10930 C 1061.56 -3.40735 0.106169 0
M  V30 10931 H 1062.75 -2.49341 1.6664 0
M  V30 10932 H 1060.31 -1.27828 0.899421 0
M  V30 10933 H 1061.04 -3.13661 -0.82384 0
M  V30 10934 H 1060.83 -3.83717 0.806434 0
M  V30 10935 H 1062.32 -4.17414 -0.12464 0
M  V30 10936 N 1062.75 -0.88754 -1.30232 0
M  V30 10937 C 1063.7 -0.345765 -2.30016 0
M  V30 10938 C 1064.7 0.5486 -1.60271 0
M  V30 10939 O 1065.9 0.43275 -1.74721 0
M  V30 10940 H 1062.28 -0.0931623 -0.746207 0
M  V30 10941 H 1064.25 -1.20095 -2.73166 0
M  V30 10942 C 1063 0.422435 -3.45124 0
M  V30 10943 H 1062.32 -0.256516 -3.98976 0
M  V30 10944 H 1063.76 0.766572 -4.17013 0
M  V30 10945 C 1062.22 1.62049 -2.95367 0
M  V30 10946 O 1062.75 2.71985 -2.95613 0
M  V30 10947 N 1060.95 1.45852 -2.51347 0
M  V30 10948 H 1060.5 0.564158 -2.51346 0
M  V30 10949 H 1060.46 2.26148 -2.18413 0
M  V30 10950 N 1064.23 1.43628 -0.648757 0
M  V30 10951 C 1065.48 2.01864 -0.160336 0
M  V30 10952 C 1065.81 1.51148 1.22412 0
M  V30 10953 O 1065.06 0.693168 1.83013 0
M  V30 10954 C 1065.36 3.57214 -0.115282 0
M  V30 10955 C 1065.03 4.27258 -1.44088 0
M  V30 10956 C 1063.69 4.46109 -1.8039 0
M  V30 10957 C 1066.04 4.66962 -2.31508 0
M  V30 10958 C 1063.37 5.01928 -3.03785 0
M  V30 10959 C 1065.72 5.24148 -3.54191 0
M  V30 10960 C 1064.39 5.41216 -3.90694 0
M  V30 10961 H 1063.66 0.738674 -0.0586712 0
M  V30 10962 H 1066.3 1.72163 -0.838578 0
M  V30 10963 H 1064.61 3.86431 0.646395 0
M  V30 10964 H 1066.3 4.00025 0.279425 0
M  V30 10965 H 1062.89 4.12928 -1.14842 0
M  V30 10966 H 1067.08 4.52095 -2.04753 0
M  V30 10967 H 1062.33 5.13328 -3.32122 0
M  V30 10968 H 1066.51 5.53861 -4.22151 0
M  V30 10969 H 1064.14 5.84234 -4.8639 0
M  V30 10970 N 1065.71 0.390394 1.52688 0
M  V30 10971 C 1066.94 -0.191485 2.06012 0
M  V30 10972 C 1067.35 -1.40422 1.26202 0
M  V30 10973 O 1066.71 -1.79866 0.308963 0
M  V30 10974 C 1066.76 -0.560521 3.57128 0
M  V30 10975 O 1066.48 0.60404 4.33916 0
M  V30 10976 C 1067.98 -1.19814 4.26801 0
M  V30 10977 H 1065.2 -0.0286311 0.670389 0
M  V30 10978 H 1067.75 0.555939 1.96798 0
M  V30 10979 H 1065.9 -1.25784 3.66411 0
M  V30 10980 H 1066.32 0.300467 5.23639 0
M  V30 10981 H 1067.79 -1.40672 5.33775 0
M  V30 10982 H 1068.27 -2.16582 3.82085 0
M  V30 10983 H 1068.87 -0.541558 4.21838 0
M  V30 10984 N 1067.19 -1.57141 0.120249 0
M  V30 10985 C 1068.15 -2.14213 -0.815185 0
M  V30 10986 C 1069.15 -1.07731 -1.19376 0
M  V30 10987 O 1070.34 -1.33502 -1.11906 0
M  V30 10988 C 1067.47 -2.68339 -2.10255 0
M  V30 10989 H 1068.67 -2.98197 -0.319166 0
M  V30 10990 H 1066.22 -1.55767 -0.128997 0
M  V30 10991 H 1066.95 -1.87946 -2.64285 0
M  V30 10992 H 1066.74 -3.46216 -1.84057 0
M  V30 10993 H 1068.23 -3.124 -2.77121 0
M  V30 10994 N 1068.67 0.153526 -1.5685 0
M  V30 10995 C 1069.6 1.19162 -2.00805 0
M  V30 10996 C 1070.58 1.45172 -0.886518 0
M  V30 10997 O 1071.76 1.56203 -1.15387 0
M  V30 10998 C 1068.89 2.52637 -2.38311 0
M  V30 10999 C 1067.85 2.41161 -3.53589 0
M  V30 11000 C 1067.17 3.79287 -3.76889 0
M  V30 11001 C 1068.47 1.90122 -4.86468 0
M  V30 11002 H 1070.17 0.82617 -2.87776 0
M  V30 11003 H 1067.71 0.395972 -1.38449 0
M  V30 11004 H 1069.67 3.25478 -2.6766 0
M  V30 11005 H 1068.39 2.91005 -1.4827 0
M  V30 11006 H 1067.05 1.70772 -3.24395 0
M  V30 11007 H 1066.7 4.15079 -2.84109 0
M  V30 11008 H 1066.4 3.72472 -4.54465 0
M  V30 11009 H 1067.92 4.53687 -4.08657 0
M  V30 11010 H 1069.33 2.52752 -5.14577 0
M  V30 11011 H 1067.73 1.94214 -5.67804 0
M  V30 11012 H 1068.8 0.856517 -4.77275 0
M  V30 11013 N 1070.14 1.51827 0.422667 0
M  V30 11014 C 1071.05 1.77066 1.53899 0
M  V30 11015 C 1072.07 0.655541 1.61179 0
M  V30 11016 O 1073.25 0.939448 1.78147 0
M  V30 11017 C 1070.31 1.90372 2.89758 0
M  V30 11018 C 1069.37 3.14256 2.92475 0
M  V30 11019 C 1068.61 3.26918 4.21853 0
M  V30 11020 O 1068.83 2.45164 5.15025 0
M  V30 11021 O 1067.76 4.19989 4.31153 0
M  V30 11022 H 1071.59 2.71791 1.35511 0
M  V30 11023 H 1069.17 1.36506 0.607165 0
M  V30 11024 H 1071.06 2.01024 3.70361 0
M  V30 11025 H 1069.73 0.988347 3.08242 0
M  V30 11026 H 1068.64 3.09072 2.10773 0
M  V30 11027 H 1069.97 4.0553 2.78937 0
M  V30 11028 N 1071.62 -0.679052 1.4222 0
M  V30 11029 C 1072.59 -1.77448 1.45069 0
M  V30 11030 C 1073.59 -1.57189 0.338882 0
M  V30 11031 O 1074.78 -1.63559 0.599519 0
M  V30 11032 C 1071.91 -3.1603 1.27819 0
M  V30 11033 H 1073.1 -1.7631 2.426 0
M  V30 11034 H 1070.65 -0.888277 1.28605 0
M  V30 11035 H 1071.39 -3.22796 0.311946 0
M  V30 11036 H 1071.17 -3.32138 2.08391 0
M  V30 11037 H 1072.66 -3.9596 1.32686 0
M  V30 11038 N 1073.1 -1.28322 -0.914942 0
M  V30 11039 C 1074.05 -1.12146 -2.01722 0
M  V30 11040 C 1075.02 -0.0189279 -1.66089 0
M  V30 11041 O 1076.2 -0.183638 -1.89914 0
M  V30 11042 C 1073.34 -0.78808 -3.35981 0
M  V30 11043 C 1072.46 -1.96954 -3.84491 0
M  V30 11044 C 1071.59 -1.57688 -5.07255 0
M  V30 11045 C 1070.63 -2.72506 -5.48094 0
M  V30 11046 N 1069.77 -2.33741 -6.62049 0
M  V30 11047 H 1074.61 -2.06461 -2.1489 0
M  V30 11048 H 1072.14 -1.0276 -1.05256 0
M  V30 11049 H 1074.1 -0.575546 -4.13211 0
M  V30 11050 H 1072.73 0.118132 -3.22584 0
M  V30 11051 H 1071.78 -2.29423 -3.03429 0
M  V30 11052 H 1073.1 -2.8304 -4.10719 0
M  V30 11053 H 1072.25 -1.32634 -5.92025 0
M  V30 11054 H 1070.99 -0.687291 -4.82833 0
M  V30 11055 H 1069.99 -2.9826 -4.61867 0
M  V30 11056 H 1071.22 -3.62106 -5.74505 0
M  V30 11057 H 1069.16 -1.4725 -6.3926 0
M  V30 11058 H 1069.08 -3.13364 -6.87997 0
M  V30 11059 H 1070.35 -2.11968 -7.50127 0
M  V30 11060 N 1074.58 1.12322 -1.10551 0
M  V30 11061 C 1075.83 1.83495 -0.846998 0
M  V30 11062 C 1076.15 1.8457 0.629205 0
M  V30 11063 O 1075.42 1.30968 1.45686 0
M  V30 11064 H 1074 0.679479 -0.310351 0
M  V30 11065 H 1076.66 1.36004 -1.39602 0
M  V30 11066 H 1075.76 2.87651 -1.21092 0
M  V30 11067 N 1076.06 0.894434 1.2976 0
M  V30 11068 C 1077 0.366586 2.2787 0
M  V30 11069 C 1077.97 -0.548425 1.56785 0
M  V30 11070 O 1079.16 -0.474804 1.84798 0
M  V30 11071 C 1076.3 -0.404531 3.42721 0
M  V30 11072 C 1075.41 0.540774 4.28602 0
M  V30 11073 C 1074.55 -0.246875 5.30626 0
M  V30 11074 C 1073.59 0.693294 6.08161 0
M  V30 11075 N 1072.72 -0.059619 7.02075 0
M  V30 11076 H 1077.56 1.20834 2.72402 0
M  V30 11077 H 1075.1 0.607205 1.33983 0
M  V30 11078 H 1077.06 -0.86762 4.08079 0
M  V30 11079 H 1075.69 -1.21078 2.99232 0
M  V30 11080 H 1074.74 1.12237 3.63465 0
M  V30 11081 H 1076.05 1.26065 4.82606 0
M  V30 11082 H 1075.21 -0.771398 6.01776 0
M  V30 11083 H 1073.94 -0.999918 4.77339 0
M  V30 11084 H 1072.95 1.22936 5.35879 0
M  V30 11085 H 1074.17 1.44558 6.63536 0
M  V30 11086 H 1072.12 -0.795026 6.51165 0
M  V30 11087 H 1072.04 0.60045 7.53612 0
M  V30 11088 H 1073.31 -0.564577 7.77453 0
M  V30 11089 N 1077.53 -1.43282 0.656365 0
M  V30 11090 C 1078.44 -2.34576 -0.033864 0
M  V30 11091 C 1079.46 -1.5406 -0.808793 0
M  V30 11092 O 1080.64 -1.867 -0.755322 0
M  V30 11093 C 1077.7 -3.32378 -0.986197 0
M  V30 11094 C 1076.76 -4.28797 -0.207851 0
M  V30 11095 C 1076 -5.21927 -1.11482 0
M  V30 11096 O 1076.22 -5.19554 -2.35414 0
M  V30 11097 O 1075.15 -5.99045 -0.585536 0
M  V30 11098 H 1078.98 -2.95099 0.717668 0
M  V30 11099 H 1076.56 -1.43475 0.416556 0
M  V30 11100 H 1078.45 -3.9251 -1.53341 0
M  V30 11101 H 1077.12 -2.74354 -1.7179 0
M  V30 11102 H 1076.03 -3.72134 0.383022 0
M  V30 11103 H 1077.36 -4.89811 0.48435 0
M  V30 11104 N 1079.01 -0.398486 -1.52479 0
M  V30 11105 C 1079.94 0.423498 -2.29627 0
M  V30 11106 C 1080.92 1.05547 -1.33394 0
M  V30 11107 O 1082.11 1.0665 -1.62294 0
M  V30 11108 C 1079.24 1.54612 -3.10986 0
M  V30 11109 C 1078.19 1.03971 -4.15179 0
M  V30 11110 C 1077.52 2.25512 -4.84818 0
M  V30 11111 C 1078.82 0.10121 -5.22202 0
M  V30 11112 H 1080.51 -0.220222 -2.98589 0
M  V30 11113 H 1078.06 -0.107355 -1.43599 0
M  V30 11114 H 1080.01 2.12806 -3.63719 0
M  V30 11115 H 1078.74 2.21756 -2.39774 0
M  V30 11116 H 1077.4 0.480251 -3.63441 0
M  V30 11117 H 1077.04 2.91187 -4.10145 0
M  V30 11118 H 1076.74 1.92285 -5.55248 0
M  V30 11119 H 1078.27 2.84331 -5.40359 0
M  V30 11120 H 1079.68 0.591617 -5.70239 0
M  V30 11121 H 1078.08 -0.141737 -5.99933 0
M  V30 11122 H 1079.15 -0.847216 -4.77441 0
M  V30 11123 N 1080.49 1.57075 -0.12858 0
M  V30 11124 C 1081.44 2.15816 0.818064 0
M  V30 11125 C 1082.41 1.08581 1.25696 0
M  V30 11126 O 1083.59 1.36535 1.33277 0
M  V30 11127 C 1080.73 2.76943 2.05905 0
M  V30 11128 C 1079.85 3.98514 1.66764 0
M  V30 11129 C 1078.98 4.47698 2.85902 0
M  V30 11130 C 1078.02 5.61778 2.43047 0
M  V30 11131 N 1077.16 6.05662 3.5513 0
M  V30 11132 H 1082 2.9638 0.310318 0
M  V30 11133 H 1079.53 1.46418 0.141472 0
M  V30 11134 H 1081.49 3.10519 2.78629 0
M  V30 11135 H 1080.12 1.99053 2.54122 0
M  V30 11136 H 1079.17 3.71038 0.838766 0
M  V30 11137 H 1080.49 4.81215 1.31277 0
M  V30 11138 H 1079.64 4.83233 3.66839 0
M  V30 11139 H 1078.38 3.63967 3.24622 0
M  V30 11140 H 1077.38 5.25838 1.60544 0
M  V30 11141 H 1078.61 6.47282 2.05433 0
M  V30 11142 H 1076.56 5.2487 3.93506 0
M  V30 11143 H 1076.47 6.83242 3.23598 0
M  V30 11144 H 1077.74 6.45838 4.36479 0
M  V30 11145 N 1081.97 -0.145205 1.5693 0
M  V30 11146 C 1083.22 -0.855822 1.83085 0
M  V30 11147 C 1083.54 -1.81625 0.709747 0
M  V30 11148 O 1082.81 -1.94052 -0.268456 0
M  V30 11149 H 1081.39 -0.319032 0.675446 0
M  V30 11150 H 1084.05 -0.138781 1.94405 0
M  V30 11151 H 1083.15 -1.41698 2.78079 0
M  V30 11152 N 1083.45 -1.52049 -0.414609 0
M  V30 11153 C 1084.68 -1.69433 -1.18221 0
M  V30 11154 C 1085.09 -0.40104 -1.84901 0
M  V30 11155 O 1084.43 0.632342 -1.72474 0
M  V30 11156 C 1084.49 -2.76986 -2.2917 0
M  V30 11157 C 1084.15 -4.18903 -1.82671 0
M  V30 11158 C 1085.15 -5.02929 -1.31751 0
M  V30 11159 C 1082.84 -4.65113 -1.89672 0
M  V30 11160 C 1084.83 -6.31234 -0.884461 0
M  V30 11161 C 1082.52 -5.93408 -1.45978 0
M  V30 11162 C 1083.52 -6.76297 -0.9545 0
M  V30 11163 O 1083.2 -8.02191 -0.523852 0
M  V30 11164 H 1082.94 -0.571228 -0.36149 0
M  V30 11165 H 1085.49 -1.99355 -0.494643 0
M  V30 11166 H 1083.72 -2.42428 -3.01273 0
M  V30 11167 H 1085.41 -2.83023 -2.90951 0
M  V30 11168 H 1086.17 -4.68422 -1.2572 0
M  V30 11169 H 1082.05 -4.00702 -2.27945 0
M  V30 11170 H 1085.6 -6.95881 -0.489383 0
M  V30 11171 H 1081.49 -6.27424 -1.51687 0
M  V30 11172 H 1082.26 -8.15934 -0.647656 0
M  V30 11173 N 1084.93 0.6715 -1.42579 0
M  V30 11174 C 1085.87 1.78496 -1.46314 0
M  V30 11175 C 1086.84 1.63091 -0.314743 0
M  V30 11176 O 1088.03 1.83597 -0.519292 0
M  V30 11177 C 1085.17 3.16548 -1.37447 0
M  V30 11178 C 1084.28 3.43216 -2.62348 0
M  V30 11179 C 1083.42 4.71014 -2.456 0
M  V30 11180 C 1082.45 4.90728 -3.65859 0
M  V30 11181 N 1081.59 6.09769 -3.48032 0
M  V30 11182 H 1086.43 1.74638 -2.41466 0
M  V30 11183 H 1083.97 0.852491 -1.19879 0
M  V30 11184 H 1085.93 3.96329 -1.30303 0
M  V30 11185 H 1084.56 3.19522 -0.458891 0
M  V30 11186 H 1083.61 2.57664 -2.79846 0
M  V30 11187 H 1084.92 3.53675 -3.51732 0
M  V30 11188 H 1084.07 5.58892 -2.3606 0
M  V30 11189 H 1082.81 4.62843 -1.53712 0
M  V30 11190 H 1081.82 4.01291 -3.75827 0
M  V30 11191 H 1083.04 5.00741 -4.58732 0
M  V30 11192 H 1080.99 6.02765 -2.58864 0
M  V30 11193 H 1080.91 6.21104 -4.31005 0
M  V30 11194 H 1082.17 7.00317 -3.42311 0
M  V30 11195 N 1086.4 1.28806 0.908124 0
M  V30 11196 C 1087.65 1.16287 1.65781 0
M  V30 11197 C 1087.98 -0.287389 1.92365 0
M  V30 11198 O 1087.23 -1.22491 1.52625 0
M  V30 11199 C 1087.53 1.91267 3.01914 0
M  V30 11200 C 1087.2 3.41033 2.9497 0
M  V30 11201 C 1085.86 3.81879 2.92783 0
M  V30 11202 C 1088.21 4.36507 2.848 0
M  V30 11203 C 1085.54 5.16529 2.78235 0
M  V30 11204 C 1087.89 5.71237 2.71792 0
M  V30 11205 C 1086.56 6.11351 2.67967 0
M  V30 11206 H 1085.83 0.425526 0.606637 0
M  V30 11207 H 1088.47 1.59646 1.05762 0
M  V30 11208 H 1086.78 1.40474 3.65752 0
M  V30 11209 H 1088.48 1.78992 3.58835 0
M  V30 11210 H 1085.07 3.08561 2.97469 0
M  V30 11211 H 1089.25 4.05909 2.85573 0
M  V30 11212 H 1084.51 5.4673 2.73672 0
M  V30 11213 H 1088.68 6.44872 2.62892 0
M  V30 11214 H 1086.31 7.15637 2.56451 0
M  V30 11215 N 1087.88 -1.11734 1.11145 0
M  V30 11216 C 1089.3 -1.35412 0.844736 0
M  V30 11217 C 1089.5 -1.94347 -0.532111 0
M  V30 11218 O 1088.55 -2.17443 -1.28353 0
M  V30 11219 C 1089.87 -2.28869 1.95037 0
M  V30 11220 C 1091.41 -2.42442 1.97967 0
M  V30 11221 C 1091.89 -3.39219 3.07725 0
M  V30 11222 N 1093.38 -3.4678 3.07079 0
M  V30 11223 C 1094.12 -4.21595 3.88646 0
M  V30 11224 N 1093.61 -4.99411 4.80167 0
M  V30 11225 N 1095.4 -4.17075 3.76835 0
M  V30 11226 H 1087.56 -0.718412 1.99881 0
M  V30 11227 H 1089.82 -0.378787 0.869037 0
M  V30 11228 H 1089.52 -1.92752 2.94176 0
M  V30 11229 H 1089.4 -3.2906 1.84389 0
M  V30 11230 H 1091.79 -2.77835 0.994561 0
M  V30 11231 H 1091.87 -1.42113 2.12691 0
M  V30 11232 H 1091.51 -3.04553 4.0646 0
M  V30 11233 H 1091.44 -4.39394 2.90242 0
M  V30 11234 H 1093.93 -2.91272 2.40767 0
M  V30 11235 H 1094.24 -5.53856 5.38946 0
M  V30 11236 H 1092.59 -4.98582 4.84191 0
M  V30 11237 H 1095.78 -3.55369 3.04681 0
M  V30 11238 H 1095.95 -4.75125 4.40637 0
M  V30 11239 N 1089.36 -0.901303 -1.29284 0
M  V30 11240 C 1090.61 -0.52401 -1.94774 0
M  V30 11241 C 1090.92 0.934645 -1.71825 0
M  V30 11242 O 1092.13 1.41953 -2.31434 0
M  V30 11243 C 1090.58 -0.886262 -3.48817 0
M  V30 11244 C 1090.19 -2.3638 -3.80564 0
M  V30 11245 C 1091.94 -0.578955 -4.20533 0
M  V30 11246 C 1089.84 -2.66682 -5.27858 0
M  V30 11247 H 1088.77 -0.192244 -0.72908 0
M  V30 11248 H 1091.42 -1.09852 -1.46986 0
M  V30 11249 H 1089.81 -0.240666 -3.95268 0
M  V30 11250 H 1090.98 -3.05508 -3.44966 0
M  V30 11251 H 1089.29 -2.64029 -3.2199 0
M  V30 11252 H 1091.89 -0.782185 -5.28948 0
M  V30 11253 H 1092.23 0.482605 -4.13493 0
M  V30 11254 H 1092.77 -1.18246 -3.79819 0
M  V30 11255 H 1089.51 -3.71643 -5.39965 0
M  V30 11256 H 1089.03 -2.02179 -5.64698 0
M  V30 11257 H 1090.71 -2.53033 -5.95469 0
M  V30 11258 N 1090.84 1.42931 -0.663954 0
M  V30 11259 C 1091.77 2.29122 0.0598878 0
M  V30 11260 C 1092.78 1.43094 0.776404 0
M  V30 11261 O 1093.97 1.66923 0.63237 0
M  V30 11262 C 1091.07 3.20268 1.10822 0
M  V30 11263 C 1090.24 4.34892 0.4677 0
M  V30 11264 C 1089.3 5.06836 1.41435 0
M  V30 11265 O 1088.33 5.61735 0.918818 0
M  V30 11266 N 1089.53 5.11336 2.74801 0
M  V30 11267 H 1092.3 2.91885 -0.679945 0
M  V30 11268 H 1089.86 1.53739 -0.507543 0
M  V30 11269 H 1091.85 3.65264 1.74255 0
M  V30 11270 H 1090.42 2.59031 1.7499 0
M  V30 11271 H 1089.64 3.92679 -0.34593 0
M  V30 11272 H 1090.93 5.08796 0.0210237 0
M  V30 11273 H 1090.33 4.68124 3.1761 0
M  V30 11274 H 1088.88 5.60013 3.33509 0
M  V30 11275 N 1092.32 0.406567 1.52266 0
M  V30 11276 C 1093.56 -0.171391 2.00971 0
M  V30 11277 C 1093.88 -1.46443 1.29668 0
M  V30 11278 O 1095.08 -2.12348 1.69176 0
M  V30 11279 C 1093.54 -0.35599 3.58135 0
M  V30 11280 C 1093.15 0.924803 4.38351 0
M  V30 11281 C 1094.89 -0.889378 4.15079 0
M  V30 11282 C 1092.8 0.707534 5.87152 0
M  V30 11283 H 1091.73 -0.0678253 0.750943 0
M  V30 11284 H 1094.38 0.531619 1.7563 0
M  V30 11285 H 1092.76 -1.12127 3.79794 0
M  V30 11286 H 1093.94 1.69603 4.28452 0
M  V30 11287 H 1092.25 1.38442 3.92712 0
M  V30 11288 H 1094.85 -1.06792 5.23927 0
M  V30 11289 H 1095.19 -1.86334 3.7227 0
M  V30 11290 H 1095.72 -0.183224 3.97378 0
M  V30 11291 H 1092.46 1.65299 6.34316 0
M  V30 11292 H 1091.98 -0.024446 5.99795 0
M  V30 11293 H 1093.66 0.348721 6.4606 0
M  V30 11294 N 1093.79 -1.57004 0.136909 0
M  V30 11295 C 1094.74 -2.17524 -0.823784 0
M  V30 11296 C 1095.74 -1.1294 -1.26258 0
M  V30 11297 O 1096.94 -1.3121 -1.23223 0
M  V30 11298 H 1093.32 -0.696381 -0.283827 0
M  V30 11299 H 1095.29 -2.96997 -0.289052 0
M  V30 11300 C 1094.04 -2.80331 -2.05693 0
M  V30 11301 H 1093.36 -3.60515 -1.72825 0
M  V30 11302 H 1094.8 -3.26192 -2.70878 0
M  V30 11303 C 1093.26 -1.78322 -2.85837 0
M  V30 11304 O 1093.79 -1.2475 -3.81838 0
M  V30 11305 N 1092 -1.47854 -2.50175 0
M  V30 11306 H 1091.54 -1.9161 -1.72173 0
M  V30 11307 H 1091.5 -0.798464 -3.04092 0
M  V30 11308 N 1095.27 0.136881 -1.57004 0
M  V30 11309 C 1096.5 0.862436 -1.88068 0
M  V30 11310 C 1096.92 1.74274 -0.726227 0
M  V30 11311 O 1096.27 1.79956 0.30366 0
M  V30 11312 C 1096.32 1.71076 -3.18458 0
M  V30 11313 O 1096.04 0.865918 -4.29457 0
M  V30 11314 C 1097.55 2.54302 -3.63105 0
M  V30 11315 H 1094.77 0.248865 -0.623143 0
M  V30 11316 H 1097.31 0.126633 -2.04108 0
M  V30 11317 H 1095.46 2.39951 -3.04142 0
M  V30 11318 H 1095.88 1.4493 -5.04079 0
M  V30 11319 H 1097.35 3.09384 -4.57149 0
M  V30 11320 H 1097.83 3.3082 -2.88886 0
M  V30 11321 H 1098.44 1.907 -3.80149 0
M  V30 11322 N 1096.75 1.52266 0.40654 0
M  V30 11323 C 1097.68 1.78755 1.50229 0
M  V30 11324 C 1098.66 0.638652 1.57655 0
M  V30 11325 O 1099.85 0.884505 1.72888 0
M  V30 11326 C 1096.98 1.94057 2.88026 0
M  V30 11327 C 1095.93 3.09667 2.95449 0
M  V30 11328 C 1095.26 3.10196 4.35526 0
M  V30 11329 C 1096.56 4.49077 2.66697 0
M  V30 11330 H 1098.25 2.70511 1.28313 0
M  V30 11331 H 1095.8 1.30167 0.615836 0
M  V30 11332 H 1097.75 2.11171 3.64671 0
M  V30 11333 H 1096.47 0.989755 3.11242 0
M  V30 11334 H 1095.13 2.92308 2.2125 0
M  V30 11335 H 1094.78 2.12831 4.55754 0
M  V30 11336 H 1094.48 3.87847 4.41416 0
M  V30 11337 H 1096 3.29443 5.14101 0
M  V30 11338 H 1097.42 4.66628 3.33064 0
M  V30 11339 H 1095.82 5.28665 2.8396 0
M  V30 11340 H 1096.89 4.56995 1.62122 0
M  V30 11341 N 1098.23 -0.663929 1.42933 0
M  V30 11342 C 1099.51 -1.42054 1.34462 0
M  V30 11343 C 1099.89 -2.11096 -0.0127801 0
M  V30 11344 O 1099.23 -2.04027 -1.02884 0
M  V30 11345 C 1099.44 -2.41406 2.5204 0
M  V30 11346 C 1100.79 -3.05726 2.94647 0
M  V30 11347 O 1101.82 -2.51733 2.52009 0
M  V30 11348 O 1100.67 -4.03593 3.68477 0
M  V30 11349 H 1097.77 -0.634149 0.530834 0
M  V30 11350 H 1100.31 -0.691738 1.54962 0
M  V30 11351 H 1099.09 -1.89263 3.42484 0
M  V30 11352 H 1098.71 -3.21752 2.33584 0
M  V30 11353 N 1099.71 -1.29285 -0.901281 0
M  V30 11354 C 1100.95 -1.18431 -1.66594 0
M  V30 11355 C 1101.31 0.260312 -1.90227 0
M  V30 11356 O 1102.51 0.4918 -2.64263 0
M  V30 11357 C 1100.78 -1.97357 -2.97968 0
M  V30 11358 S 1102.34 -2.03019 -3.8901 0
M  V30 11359 H 1099.16 -0.422323 -0.571983 0
M  V30 11360 H 1101.76 -1.63551 -1.07105 0
M  V30 11361 H 1100.47 -3.01459 -2.78479 0
M  V30 11362 H 1100 -1.52836 -3.62498 0
M  V30 11363 H 1102.01 -1.14572 -4.82791 0
M  V30 11364 N 1101.18 1.11143 -1.11736 0
M  V30 11365 C 1102.12 2.16467 -0.722299 0
M  V30 11366 C 1103.1 1.60118 0.283006 0
M  V30 11367 O 1104.28 1.87651 0.178696 0
M  V30 11368 C 1101.41 3.38632 -0.0679339 0
M  V30 11369 C 1100.45 4.13654 -1.03888 0
M  V30 11370 S 1101.29 4.70187 -2.5629 0
M  V30 11371 C 1102.44 5.95671 -1.92163 0
M  V30 11372 H 1102.67 2.49644 -1.61447 0
M  V30 11373 H 1100.21 1.22816 -0.935708 0
M  V30 11374 H 1102.17 4.09378 0.303253 0
M  V30 11375 H 1100.83 3.03709 0.80124 0
M  V30 11376 H 1100.02 5.01221 -0.528522 0
M  V30 11377 H 1099.62 3.48683 -1.35265 0
M  V30 11378 H 1101.91 6.65681 -1.25994 0
M  V30 11379 H 1102.86 6.51357 -2.77741 0
M  V30 11380 H 1103.26 5.47359 -1.3805 0
M  V30 11381 N 1102.66 0.908147 1.28804 0
M  V30 11382 C 1103.91 0.53734 1.94826 0
M  V30 11383 C 1104.23 -0.920962 1.71882 0
M  V30 11384 O 1103.5 -1.65043 1.05534 0
M  V30 11385 H 1102.08 0.195729 0.720902 0
M  V30 11386 H 1104.74 1.15628 1.56895 0
M  V30 11387 H 1103.84 0.727052 3.03513 0
M  V30 11388 N 1104.14 -1.42577 0.671525 0
M  V30 11389 C 1105.38 -2.03455 0.196271 0
M  V30 11390 C 1105.74 -1.51934 -1.17389 0
M  V30 11391 O 1106.95 -2.04577 -1.74361 0
M  V30 11392 C 1105.22 -3.56687 0.225624 0
M  V30 11393 S 1106.78 -4.38434 -0.179107 0
M  V30 11394 H 1103.59 -0.706371 0.0809995 0
M  V30 11395 H 1106.2 -1.74375 0.883948 0
M  V30 11396 H 1104.9 -3.91684 1.22524 0
M  V30 11397 H 1104.43 -3.90436 -0.481994 0
M  V30 11398 H 1106.45 -4.75646 -1.41332 0
M  V30 11399 N 1105.62 -0.414636 -1.52048 0
M  V30 11400 C 1106.87 0.159034 -2.01473 0
M  V30 11401 C 1107.19 1.45176 -1.30188 0
M  V30 11402 O 1106.46 1.91134 -0.429469 0
M  V30 11403 H 1105.04 0.0617604 -0.744443 0
M  V30 11404 H 1107.7 -0.552141 -1.86916 0
M  V30 11405 H 1106.8 0.351217 -3.10118 0
M  V30 11406 N 1107.1 1.56929 -0.145233 0
M  V30 11407 C 1108.04 2.17958 0.812237 0
M  V30 11408 C 1109.04 1.13608 1.25657 0
M  V30 11409 O 1110.24 1.31861 1.22526 0
M  V30 11410 H 1106.62 0.697876 0.28013 0
M  V30 11411 H 1108.59 2.97146 0.273297 0
M  V30 11412 C 1107.34 2.81418 2.04203 0
M  V30 11413 H 1106.66 3.61427 1.70911 0
M  V30 11414 H 1108.1 3.27624 2.69144 0
M  V30 11415 C 1106.56 1.79835 2.84888 0
M  V30 11416 O 1107.09 1.26773 3.81171 0
M  V30 11417 N 1105.3 1.49179 2.49387 0
M  V30 11418 H 1104.84 1.9252 1.71154 0
M  V30 11419 H 1104.8 0.81458 3.03664 0
M  V30 11420 N 1108.58 -0.128553 1.57075 0
M  V30 11421 C 1109.82 -0.844012 1.86161 0
M  V30 11422 C 1110.18 -1.77499 0.73198 0
M  V30 11423 O 1111.38 -2.5313 0.904357 0
M  V30 11424 C 1109.65 -1.58238 3.20462 0
M  V30 11425 S 1111.21 -2.34073 3.71154 0
M  V30 11426 H 1108.03 -0.281884 0.652734 0
M  V30 11427 H 1110.63 -0.102902 1.95229 0
M  V30 11428 H 1109.33 -0.890246 4.00628 0
M  V30 11429 H 1108.87 -2.36404 3.14446 0
M  V30 11430 H 1110.88 -3.59617 3.41892 0
M  V30 11431 N 1110.05 -1.5248 -0.398459 0
M  V30 11432 C 1111.02 -1.75949 -1.46883 0
M  V30 11433 C 1112.02 -0.629431 -1.47969 0
M  V30 11434 O 1113.21 -0.897407 -1.49306 0
M  V30 11435 C 1110.34 -1.85162 -2.8623 0
M  V30 11436 H 1111.53 -2.71513 -1.2736 0
M  V30 11437 H 1109.08 -1.43058 -0.629619 0
M  V30 11438 H 1109.82 -0.915505 -3.11109 0
M  V30 11439 H 1109.6 -2.67326 -2.86844 0
M  V30 11440 H 1111.09 -2.05025 -3.63805 0
M  V30 11441 N 1111.53 0.65634 -1.43283 0
M  V30 11442 C 1112.81 1.41339 -1.35213 0
M  V30 11443 C 1113.19 2.111 0.00158494 0
M  V30 11444 O 1112.54 2.0457 1.018 0
M  V30 11445 C 1112.75 2.40066 -2.53317 0
M  V30 11446 C 1114.09 3.04159 -2.96264 0
M  V30 11447 O 1115.12 2.50393 -2.53341 0
M  V30 11448 O 1113.98 4.01633 -3.70612 0
M  V30 11449 H 1111.07 0.631325 -0.534189 0
M  V30 11450 H 1113.62 0.68351 -1.55326 0
M  V30 11451 H 1112.39 1.87444 -3.43483 0
M  V30 11452 H 1112.01 3.20509 -2.35287 0
M  V30 11453 N 1113.01 1.29761 0.894412 0
M  V30 11454 C 1114.26 1.17409 1.64006 0
M  V30 11455 C 1114.57 -0.272355 1.93695 0
M  V30 11456 O 1115.78 -0.517269 2.66527 0
M  V30 11457 C 1114.23 2.05379 2.95546 0
M  V30 11458 C 1113.84 3.54878 2.73433 0
M  V30 11459 C 1115.59 2.01765 3.73485 0
M  V30 11460 C 1113.49 4.34935 4.00731 0
M  V30 11461 H 1112.42 0.43583 0.615279 0
M  V30 11462 H 1115.07 1.5444 0.990983 0
M  V30 11463 H 1113.46 1.61222 3.61695 0
M  V30 11464 H 1114.63 4.07122 2.15844 0
M  V30 11465 H 1112.94 3.60218 2.08882 0
M  V30 11466 H 1115.54 2.58835 4.67877 0
M  V30 11467 H 1115.88 0.998876 4.04139 0
M  V30 11468 H 1116.42 2.43994 3.14184 0
M  V30 11469 H 1113.16 5.3747 3.75241 0
M  V30 11470 H 1112.68 3.87458 4.5786 0
M  V30 11471 H 1114.36 4.45875 4.68833 0
M  V30 11472 N 1114.49 -1.10549 1.12324 0
M  V30 11473 C 1115.73 -1.84108 0.887895 0
M  V30 11474 C 1116.09 -1.83159 -0.5759 0
M  V30 11475 O 1117.29 -2.52259 -0.928367 0
M  V30 11476 C 1115.56 -3.26866 1.44545 0
M  V30 11477 S 1117.12 -4.17567 1.34846 0
M  V30 11478 H 1113.94 -0.634752 0.320329 0
M  V30 11479 H 1116.54 -1.33036 1.43254 0
M  V30 11480 H 1115.25 -3.25126 2.50442 0
M  V30 11481 H 1114.78 -3.83008 0.89825 0
M  V30 11482 H 1116.79 -4.95173 0.319143 0
M  V30 11483 N 1115.97 -0.914965 -1.28321 0
M  V30 11484 C 1117.38 -0.59512 -1.76961 0
M  V30 11485 C 1117.73 0.88958 -1.74874 0
M  V30 11486 O 1116.85 1.6959 -1.34418 0
M  V30 11487 C 1117.45 -1.07353 -3.21342 0
M  V30 11488 C 1116.01 -0.804577 -3.677 0
M  V30 11489 C 1115.15 -1.23955 -2.48053 0
M  V30 11490 H 1118.1 -1.0961 -1.14767 0
M  V30 11491 H 1118.13 -0.415506 -3.78225 0
M  V30 11492 H 1117.64 -2.15413 -3.22829 0
M  V30 11493 H 1115.74 0.26277 -3.71672 0
M  V30 11494 H 1115.85 -1.41317 -4.57784 0
M  V30 11495 H 1114.22 -0.658274 -2.46046 0
M  V30 11496 H 1115 -2.32853 -2.52258 0
M  V30 11497 N 1117.44 1.42219 -0.679077 0
M  V30 11498 C 1118.85 1.8459 -0.279877 0
M  V30 11499 C 1119.21 1.56839 1.17881 0
M  V30 11500 O 1118.33 1.03039 1.90294 0
M  V30 11501 C 1118.93 3.35072 -0.501185 0
M  V30 11502 C 1117.48 3.76076 -0.156065 0
M  V30 11503 C 1116.63 2.65763 -0.791549 0
M  V30 11504 H 1119.58 1.32005 -0.880932 0
M  V30 11505 H 1119.6 3.79708 0.245349 0
M  V30 11506 H 1119.12 3.55239 -1.56291 0
M  V30 11507 H 1117.22 3.61516 0.90205 0
M  V30 11508 H 1117.33 4.75334 -0.599572 0
M  V30 11509 H 1115.69 2.53726 -0.222514 0
M  V30 11510 H 1116.48 2.88751 -1.85682 0
M  V30 11511 N 1118.92 0.422693 1.51826 0
M  V30 11512 C 1119.87 -0.396088 2.27376 0
M  V30 11513 C 1120.84 -1.02946 1.30351 0
M  V30 11514 O 1122.02 -1.05116 1.59233 0
M  V30 11515 C 1119.16 -1.49942 3.10824 0
M  V30 11516 C 1118.28 -0.885623 4.22825 0
M  V30 11517 C 1117.41 -1.96278 4.93608 0
M  V30 11518 C 1116.45 -1.32664 5.97551 0
M  V30 11519 N 1115.59 -2.34452 6.61798 0
M  V30 11520 H 1120.43 0.254571 2.96911 0
M  V30 11521 H 1117.96 0.137383 1.46457 0
M  V30 11522 H 1119.92 -2.15023 3.57521 0
M  V30 11523 H 1118.55 -2.11991 2.43433 0
M  V30 11524 H 1117.6 -0.123491 3.80199 0
M  V30 11525 H 1118.92 -0.381057 4.97342 0
M  V30 11526 H 1118.07 -2.69055 5.43778 0
M  V30 11527 H 1116.81 -2.50103 4.18688 0
M  V30 11528 H 1115.81 -0.584262 5.46687 0
M  V30 11529 H 1117.04 -0.7959 6.7442 0
M  V30 11530 H 1114.99 -2.87385 5.897 0
M  V30 11531 H 1114.9 -1.88845 7.32034 0
M  V30 11532 H 1116.17 -3.06757 7.16603 0
M  V30 11533 N 1120.4 -1.5685 0.153553 0
M  V30 11534 C 1121.31 -2.20664 -0.796528 0
M  V30 11535 C 1122.33 -1.19289 -1.26674 0
M  V30 11536 O 1123.5 -1.51889 -1.32256 0
M  V30 11537 C 1120.57 -2.82088 -2.01561 0
M  V30 11538 C 1119.63 -3.9861 -1.59401 0
M  V30 11539 C 1118.86 -4.57096 -2.75498 0
M  V30 11540 O 1119.08 -4.14462 -3.9189 0
M  V30 11541 O 1118.02 -5.47254 -2.50593 0
M  V30 11542 H 1121.84 -3.02376 -0.283282 0
M  V30 11543 H 1119.43 -1.49218 -0.0737927 0
M  V30 11544 H 1121.31 -3.21103 -2.72893 0
M  V30 11545 H 1119.99 -2.03385 -2.51826 0
M  V30 11546 H 1118.89 -3.64299 -0.850725 0
M  V30 11547 H 1120.23 -4.78853 -1.13845 0
M  V30 11548 N 1121.88 0.120221 -1.57141 0
M  V30 11549 C 1122.82 1.14751 -2.00252 0
M  V30 11550 C 1123.79 1.41217 -0.874462 0
M  V30 11551 O 1124.98 1.53104 -1.13859 0
M  V30 11552 C 1122.12 2.46923 -2.41087 0
M  V30 11553 C 1121.23 2.27403 -3.67303 0
M  V30 11554 C 1120.37 3.52797 -3.97125 0
M  V30 11555 C 1119.41 3.28429 -5.16528 0
M  V30 11556 N 1118.54 4.46022 -5.42226 0
M  V30 11557 H 1123.38 0.772884 -2.87803 0
M  V30 11558 H 1120.92 0.370137 -1.42367 0
M  V30 11559 H 1122.88 3.24025 -2.62799 0
M  V30 11560 H 1121.51 2.82281 -1.5658 0
M  V30 11561 H 1120.56 1.41224 -3.53214 0
M  V30 11562 H 1121.87 2.05373 -4.54558 0
M  V30 11563 H 1121.03 4.38318 -4.19479 0
M  V30 11564 H 1119.77 3.77857 -3.08343 0
M  V30 11565 H 1118.77 2.41299 -4.94019 0
M  V30 11566 H 1120 3.0474 -6.06886 0
M  V30 11567 H 1117.94 4.71205 -4.56401 0
M  V30 11568 H 1117.86 4.27092 -6.23802 0
M  V30 11569 H 1119.13 5.3268 -5.69098 0
M  V30 11570 N 1123.36 1.52689 0.390367 0
M  V30 11571 C 1124.32 1.76726 1.45947 0
M  V30 11572 C 1125.32 0.637269 1.47633 0
M  V30 11573 O 1126.51 0.905312 1.48828 0
M  V30 11574 C 1123.64 1.86678 2.85244 0
M  V30 11575 H 1124.83 2.72185 1.25918 0
M  V30 11576 H 1122.39 1.4339 0.622023 0
M  V30 11577 H 1123.12 0.931991 3.10619 0
M  V30 11578 H 1122.91 2.68843 2.85422 0
M  V30 11579 H 1124.4 2.06952 3.62713 0
M  V30 11580 N 1124.83 -0.648732 1.43629 0
M  V30 11581 C 1125.76 -1.77298 1.51947 0
M  V30 11582 C 1126.75 -1.65942 0.373785 0
M  V30 11583 O 1127.93 -1.8497 0.591596 0
M  V30 11584 C 1125.06 -3.15749 1.44638 0
M  V30 11585 C 1124.01 -3.41872 2.57502 0
M  V30 11586 C 1123.34 -4.8017 2.35246 0
M  V30 11587 C 1124.64 -3.36173 3.99731 0
M  V30 11588 H 1126.33 -1.70594 2.46045 0
M  V30 11589 H 1123.88 -0.819306 1.1842 0
M  V30 11590 H 1125.83 -3.94156 1.4906 0
M  V30 11591 H 1124.56 -3.23194 0.470466 0
M  V30 11592 H 1123.22 -2.65838 2.5244 0
M  V30 11593 H 1122.86 -4.84297 1.35887 0
M  V30 11594 H 1122.56 -4.9861 3.10906 0
M  V30 11595 H 1124.09 -5.6083 2.41459 0
M  V30 11596 H 1125.5 -4.0451 4.06257 0
M  V30 11597 H 1123.9 -3.66148 4.75453 0
M  V30 11598 H 1124.97 -2.34277 4.24549 0
M  V30 11599 N 1126.31 -1.30234 -0.887518 0
M  V30 11600 C 1127.56 -1.19086 -1.64153 0
M  V30 11601 C 1127.89 0.254428 -1.92526 0
M  V30 11602 O 1127.17 1.18233 -1.54438 0
M  V30 11603 C 1127.45 -2.01723 -2.98295 0
M  V30 11604 C 1127.3 -3.54458 -2.76911 0
M  V30 11605 C 1128.62 -1.85307 -3.99186 0
M  V30 11606 H 1125.74 -0.433967 -0.595686 0
M  V30 11607 H 1128.38 -1.59839 -1.0272 0
M  V30 11608 H 1126.53 -1.67096 -3.5073 0
M  V30 11609 H 1128.2 -3.99131 -2.31284 0
M  V30 11610 H 1126.45 -3.78768 -2.11464 0
M  V30 11611 H 1127.12 -4.07565 -3.72283 0
M  V30 11612 H 1129.59 -2.15575 -3.55903 0
M  V30 11613 H 1128.47 -2.45456 -4.90961 0
M  V30 11614 H 1128.73 -0.811528 -4.34588 0
M  V30 11615 N 1127.79 1.09952 -1.12909 0
M  V30 11616 C 1128.72 2.15689 -0.745217 0
M  V30 11617 C 1129.7 1.60409 0.266007 0
M  V30 11618 O 1130.89 1.8783 0.158783 0
M  V30 11619 C 1128.01 3.38541 -0.103846 0
M  V30 11620 C 1127.06 4.12529 -1.0827 0
M  V30 11621 S 1127.89 4.67442 -2.61262 0
M  V30 11622 C 1129.05 5.936 -1.9847 0
M  V30 11623 H 1129.28 2.47918 -1.64086 0
M  V30 11624 H 1126.81 1.21817 -0.948682 0
M  V30 11625 H 1128.77 4.09677 0.259816 0
M  V30 11626 H 1127.43 3.04541 0.768982 0
M  V30 11627 H 1126.63 5.00632 -0.581653 0
M  V30 11628 H 1126.23 3.47228 -1.38955 0
M  V30 11629 H 1128.52 6.64308 -1.33048 0
M  V30 11630 H 1129.46 6.48374 -2.84634 0
M  V30 11631 H 1129.87 5.45864 -1.43848 0
M  V30 11632 N 1129.27 0.921757 1.27833 0
M  V30 11633 C 1130.2 0.373575 2.26135 0
M  V30 11634 C 1131.21 -0.492414 1.55174 0
M  V30 11635 O 1132.4 -0.305998 1.75858 0
M  V30 11636 C 1129.5 -0.483911 3.35427 0
M  V30 11637 C 1128.68 0.361411 4.35904 0
M  V30 11638 C 1127.73 -0.432461 5.2442 0
M  V30 11639 O 1126.76 0.15777 5.68981 0
M  V30 11640 N 1127.96 -1.73367 5.54007 0
M  V30 11641 H 1130.73 1.21856 2.73809 0
M  V30 11642 H 1128.29 0.788552 1.41398 0
M  V30 11643 H 1130.28 -1.02193 3.91585 0
M  V30 11644 H 1128.85 -1.22963 2.874 0
M  V30 11645 H 1128.07 1.08076 3.79095 0
M  V30 11646 H 1129.36 0.939528 5.0005 0
M  V30 11647 H 1128.76 -2.23561 5.19651 0
M  V30 11648 H 1127.31 -2.21834 6.12889 0
M  V30 11649 N 1130.75 -1.41857 0.686609 0
M  V30 11650 C 1132.16 -1.84439 0.289662 0
M  V30 11651 C 1132.51 -1.57462 -1.17047 0
M  V30 11652 O 1131.63 -1.04046 -1.89745 0
M  V30 11653 C 1132.23 -3.34802 0.518948 0
M  V30 11654 C 1130.79 -3.75988 0.176007 0
M  V30 11655 C 1129.93 -2.65339 0.805632 0
M  V30 11656 H 1132.89 -1.31536 0.88792 0
M  V30 11657 H 1132.91 -3.79833 -0.225209 0
M  V30 11658 H 1132.42 -3.54405 1.58173 0
M  V30 11659 H 1130.52 -3.61989 -0.882865 0
M  V30 11660 H 1130.63 -4.75009 0.624772 0
M  V30 11661 H 1129 -2.53605 0.235966 0
M  V30 11662 H 1129.78 -2.87762 1.8721 0
M  V30 11663 N 1132.22 -0.430739 -1.51599 0
M  V30 11664 C 1133.15 0.374695 -2.30474 0
M  V30 11665 C 1134.14 1.02694 -1.35602 0
M  V30 11666 O 1135.32 1.03184 -1.6452 0
M  V30 11667 C 1132.45 1.47981 -3.14196 0
M  V30 11668 C 1131.4 0.951415 -4.17291 0
M  V30 11669 C 1130.73 2.15177 -4.89492 0
M  V30 11670 C 1132.03 -0.00957951 -5.22299 0
M  V30 11671 H 1133.72 -0.283508 -2.98055 0
M  V30 11672 H 1131.27 -0.13779 -1.43339 0
M  V30 11673 H 1133.22 2.05043 -3.68151 0
M  V30 11674 H 1131.95 2.16621 -2.44424 0
M  V30 11675 H 1130.61 0.403052 -3.64378 0
M  V30 11676 H 1130.25 2.82421 -4.1623 0
M  V30 11677 H 1129.95 1.80464 -5.59202 0
M  V30 11678 H 1131.48 2.72806 -5.46269 0
M  V30 11679 H 1132.89 0.470527 -5.71366 0
M  V30 11680 H 1131.29 -0.268959 -5.99497 0
M  V30 11681 H 1132.36 -0.948297 -4.75537 0
M  V30 11682 N 1133.7 1.56767 -0.161869 0
M  V30 11683 C 1134.98 1.88245 0.531352 0
M  V30 11684 C 1135.36 1.07025 1.81958 0
M  V30 11685 O 1134.71 0.161385 2.27929 0
M  V30 11686 C 1134.92 3.40117 0.782416 0
M  V30 11687 C 1136.27 4.09655 1.11661 0
M  V30 11688 O 1137.29 3.4538 0.871274 0
M  V30 11689 O 1136.15 5.23192 1.57901 0
M  V30 11690 H 1133.24 0.780725 0.272759 0
M  V30 11691 H 1135.79 1.68522 -0.199597 0
M  V30 11692 H 1134.56 3.91088 -0.128677 0
M  V30 11693 H 1134.18 3.65418 1.56702 0
M  V30 11694 N 1135.18 -0.111886 1.57202 0
M  V30 11695 C 1136.41 -0.832407 1.89416 0
M  V30 11696 C 1136.82 -1.73096 0.753861 0
M  V30 11697 O 1136.18 -1.80416 -0.274992 0
M  V30 11698 C 1136.23 -1.65988 3.21139 0
M  V30 11699 O 1135.95 -0.797485 4.3078 0
M  V30 11700 C 1137.45 -2.48493 3.67105 0
M  V30 11701 H 1134.67 -0.238919 0.627024 0
M  V30 11702 H 1137.22 -0.0941456 2.04283 0
M  V30 11703 H 1135.37 -2.35082 3.07921 0
M  V30 11704 H 1135.79 -1.36892 5.06321 0
M  V30 11705 H 1137.26 -3.02072 4.62014 0
M  V30 11706 H 1137.74 -3.26182 2.94112 0
M  V30 11707 H 1138.34 -1.84628 3.83135 0
M  V30 11708 N 1136.66 -1.52894 -0.382264 0
M  V30 11709 C 1137.59 -1.74413 -1.48703 0
M  V30 11710 C 1138.6 -0.624663 -1.50339 0
M  V30 11711 O 1139.79 -0.900527 -1.54119 0
M  V30 11712 C 1136.89 -1.79387 -2.8753 0
M  V30 11713 C 1136.07 -3.08794 -3.09783 0
M  V30 11714 C 1135.12 -3.05226 -4.2863 0
M  V30 11715 O 1134.15 -3.79073 -4.24609 0
M  V30 11716 N 1135.35 -2.2488 -5.35172 0
M  V30 11717 H 1138.12 -2.69734 -1.30628 0
M  V30 11718 H 1135.68 -1.51465 -0.571842 0
M  V30 11719 H 1137.67 -1.74498 -3.65147 0
M  V30 11720 H 1136.24 -0.914233 -2.98932 0
M  V30 11721 H 1135.46 -3.27118 -2.19971 0
M  V30 11722 H 1136.75 -3.94347 -3.21509 0
M  V30 11723 H 1136.15 -1.64363 -5.41296 0
M  V30 11724 H 1134.7 -2.25825 -6.1143 0
M  V30 11725 N 1138.14 0.641106 -1.43971 0
M  V30 11726 C 1139.55 0.958161 -1.27638 0
M  V30 11727 C 1139.75 2.00456 -0.204885 0
M  V30 11728 O 1138.81 2.49106 0.412606 0
M  V30 11729 C 1140.12 1.43091 -2.64472 0
M  V30 11730 C 1141.67 1.54692 -2.72102 0
M  V30 11731 C 1142.15 2.05353 -4.09382 0
M  V30 11732 N 1143.64 2.12638 -4.11509 0
M  V30 11733 C 1144.37 2.52987 -5.14573 0
M  V30 11734 N 1143.87 2.92544 -6.28005 0
M  V30 11735 N 1145.66 2.53033 -5.01927 0
M  V30 11736 H 1137.81 -0.0510973 -2.12339 0
M  V30 11737 H 1140.07 0.039748 -0.947166 0
M  V30 11738 H 1139.78 0.736389 -3.43904 0
M  V30 11739 H 1139.65 2.40375 -2.90688 0
M  V30 11740 H 1142.04 2.23242 -1.92994 0
M  V30 11741 H 1142.12 0.558083 -2.49638 0
M  V30 11742 H 1141.77 1.37401 -4.88962 0
M  V30 11743 H 1141.7 3.0509 -4.29218 0
M  V30 11744 H 1144.19 1.84792 -3.29636 0
M  V30 11745 H 1144.5 3.22116 -7.02468 0
M  V30 11746 H 1142.85 2.90319 -6.31458 0
M  V30 11747 H 1146.04 2.21514 -4.1237 0
M  V30 11748 H 1146.21 2.84155 -5.82375 0
M  V30 11749 N 1139.62 1.30703 0.880598 0
M  V30 11750 C 1140.89 1.1043 1.61445 0
M  V30 11751 C 1141.27 -0.344837 2.08264 0
M  V30 11752 O 1140.62 -1.33711 1.85293 0
M  V30 11753 C 1140.83 2.10908 2.78063 0
M  V30 11754 C 1142.18 2.42861 3.48287 0
M  V30 11755 O 1143.2 2.09252 2.88257 0
M  V30 11756 O 1142.06 3.00369 4.56553 0
M  V30 11757 H 1139.16 0.424419 0.709787 0
M  V30 11758 H 1141.7 1.42144 0.926991 0
M  V30 11759 H 1140.47 3.08431 2.40803 0
M  V30 11760 H 1140.1 1.80036 3.54503 0
M  V30 11761 N 1141.09 -1.09351 1.1349 0
M  V30 11762 C 1142.06 -2.14185 0.815919 0
M  V30 11763 C 1143.06 -1.59845 -0.174976 0
M  V30 11764 O 1144.25 -1.74122 0.0521971 0
M  V30 11765 C 1141.38 -3.40224 0.214517 0
M  V30 11766 H 1142.57 -2.43913 1.74489 0
M  V30 11767 H 1140.12 -1.24902 0.939634 0
M  V30 11768 H 1140.86 -3.16123 -0.723634 0
M  V30 11769 H 1140.64 -3.80958 0.928102 0
M  V30 11770 H 1142.13 -4.17599 0.00821999 0
M  V30 11771 N 1142.57 -0.928524 -1.27343 0
M  V30 11772 C 1143.5 -0.385563 -2.25934 0
M  V30 11773 C 1144.52 0.484178 -1.55433 0
M  V30 11774 O 1145.71 0.296668 -1.76017 0
M  V30 11775 C 1142.81 0.466116 -3.35679 0
M  V30 11776 C 1141.98 -0.384523 -4.35707 0
M  V30 11777 C 1141.04 0.404644 -5.24642 0
M  V30 11778 O 1140.06 -0.187943 -5.6889 0
M  V30 11779 N 1141.27 1.70426 -5.54919 0
M  V30 11780 H 1144.03 -1.23306 -2.73159 0
M  V30 11781 H 1141.59 -0.796039 -1.40978 0
M  V30 11782 H 1143.58 1.00115 -3.92121 0
M  V30 11783 H 1142.15 1.21437 -2.88048 0
M  V30 11784 H 1141.37 -1.10085 -3.78517 0
M  V30 11785 H 1142.66 -0.966033 -4.99545 0
M  V30 11786 H 1142.06 2.20802 -5.20829 0
M  V30 11787 H 1140.62 2.1858 -6.14057 0
M  V30 11788 N 1144.05 1.41491 -0.694123 0
M  V30 11789 C 1145.3 2.0155 -0.224809 0
M  V30 11790 C 1145.63 1.54844 1.17205 0
M  V30 11791 O 1144.9 0.75899 1.7908 0
M  V30 11792 C 1145.19 3.59003 -0.280884 0
M  V30 11793 C 1145.04 4.15839 -1.71458 0
M  V30 11794 C 1146.36 4.38624 0.360122 0
M  V30 11795 H 1143.48 0.732293 -0.0831632 0
M  V30 11796 H 1146.12 1.68258 -0.882569 0
M  V30 11797 H 1144.27 3.87496 0.279164 0
M  V30 11798 H 1145.94 3.98227 -2.32837 0
M  V30 11799 H 1144.18 3.70936 -2.2492 0
M  V30 11800 H 1144.86 5.24997 -1.70536 0
M  V30 11801 H 1147.33 4.15936 -0.11683 0
M  V30 11802 H 1146.21 5.48132 0.290337 0
M  V30 11803 H 1146.47 4.1797 1.44062 0
M  V30 11804 N 1145.53 0.438773 1.51369 0
M  V30 11805 C 1146.94 -0.0240139 1.86685 0
M  V30 11806 C 1147.29 -1.41816 1.35583 0
M  V30 11807 O 1146.41 -2.04517 0.707232 0
M  V30 11808 C 1147.01 -0.0503527 3.38763 0
M  V30 11809 C 1145.57 -0.457556 3.73609 0
M  V30 11810 C 1144.72 0.348852 2.75097 0
M  V30 11811 H 1147.67 0.654552 1.44573 0
M  V30 11812 H 1147.69 -0.859534 3.70665 0
M  V30 11813 H 1147.2 0.964451 3.75925 0
M  V30 11814 H 1145.3 -1.47791 3.42036 0
M  V30 11815 H 1145.41 -0.181357 4.78757 0
M  V30 11816 H 1143.78 -0.193037 2.53967 0
M  V30 11817 H 1144.56 1.36256 3.15102 0
M  V30 11818 N 1147.01 -1.56678 0.170181 0
M  V30 11819 C 1147.95 -2.19222 -0.777459 0
M  V30 11820 C 1148.95 -1.15592 -1.23834 0
M  V30 11821 O 1150.15 -1.33794 -1.20412 0
M  V30 11822 H 1146.53 -0.702244 -0.268992 0
M  V30 11823 H 1148.5 -2.97543 -0.225989 0
M  V30 11824 C 1147.25 -2.84631 -1.997 0
M  V30 11825 H 1146.57 -3.641 -1.65139 0
M  V30 11826 H 1148.01 -3.31864 -2.63898 0
M  V30 11827 C 1146.47 -1.84345 -2.81991 0
M  V30 11828 O 1147 -1.32821 -3.79106 0
M  V30 11829 N 1145.21 -1.53127 -2.46983 0
M  V30 11830 H 1144.75 -1.95219 -1.6807 0
M  V30 11831 H 1144.71 -0.862787 -3.0233 0
M  V30 11832 N 1148.48 0.103547 -1.57259 0
M  V30 11833 C 1149.41 1.12714 -2.04494 0
M  V30 11834 C 1150.39 1.42278 -0.932255 0
M  V30 11835 O 1151.58 1.52453 -1.20298 0
M  V30 11836 C 1148.71 2.44927 -2.46228 0
M  V30 11837 C 1147.66 2.2979 -3.61082 0
M  V30 11838 C 1146.99 3.67105 -3.88765 0
M  V30 11839 C 1148.29 1.7455 -4.9227 0
M  V30 11840 H 1149.98 0.734198 -2.90258 0
M  V30 11841 H 1147.53 0.351725 -1.39638 0
M  V30 11842 H 1149.48 3.16798 -2.77879 0
M  V30 11843 H 1148.21 2.8614 -1.57453 0
M  V30 11844 H 1146.87 1.60366 -3.29664 0
M  V30 11845 H 1146.51 4.05831 -2.97171 0
M  V30 11846 H 1146.21 3.57825 -4.66084 0
M  V30 11847 H 1147.74 4.40456 -4.22884 0
M  V30 11848 H 1149.15 2.36253 -5.22358 0
M  V30 11849 H 1147.55 1.76051 -5.73695 0
M  V30 11850 H 1148.62 0.704242 -4.79759 0
M  V30 11851 N 1149.96 1.53094 0.37415 0
M  V30 11852 C 1150.87 1.81872 1.48188 0
M  V30 11853 C 1151.89 0.706487 1.59012 0
M  V30 11854 O 1153.06 0.995648 1.75068 0
M  V30 11855 C 1150.13 1.99494 2.83554 0
M  V30 11856 C 1149.19 3.23402 2.82329 0
M  V30 11857 C 1148.42 3.40174 4.11239 0
M  V30 11858 O 1148.65 2.61425 5.06965 0
M  V30 11859 O 1147.58 4.33493 4.17573 0
M  V30 11860 H 1151.41 2.75965 1.26795 0
M  V30 11861 H 1148.99 1.38368 0.56343 0
M  V30 11862 H 1150.87 2.12705 3.63778 0
M  V30 11863 H 1149.55 1.08591 3.04942 0
M  V30 11864 H 1148.45 3.15621 2.00834 0
M  V30 11865 H 1149.79 4.14199 2.65894 0
M  V30 11866 N 1151.44 -0.633461 1.44309 0
M  V30 11867 C 1152.67 -1.41827 1.50229 0
M  V30 11868 C 1153.08 -1.88786 0.125082 0
M  V30 11869 O 1152.42 -1.61314 -0.878836 0
M  V30 11870 C 1152.48 -2.67372 2.40317 0
M  V30 11871 C 1152.15 -2.42224 3.87526 0
M  V30 11872 C 1153.14 -2.04199 4.7812 0
M  V30 11873 C 1150.83 -2.55936 4.32206 0
M  V30 11874 C 1152.82 -1.80211 6.11394 0
M  V30 11875 C 1150.51 -2.31563 5.65528 0
M  V30 11876 C 1151.51 -1.93758 6.5494 0
M  V30 11877 O 1151.2 -1.69654 7.85794 0
M  V30 11878 H 1150.93 -0.441478 0.51193 0
M  V30 11879 H 1153.48 -0.782118 1.89927 0
M  V30 11880 H 1151.71 -3.33616 1.95543 0
M  V30 11881 H 1153.4 -3.2937 2.37214 0
M  V30 11882 H 1154.17 -1.93164 4.44874 0
M  V30 11883 H 1150.05 -2.84333 3.62872 0
M  V30 11884 H 1153.59 -1.50628 6.81144 0
M  V30 11885 H 1149.49 -2.42206 5.98336 0
M  V30 11886 H 1150.25 -1.83919 7.97569 0
M  V30 11887 N 1152.92 -1.31168 -0.873655 0
M  V30 11888 C 1153.88 -1.18471 -1.96207 0
M  V30 11889 C 1154.88 -0.112814 -1.60404 0
M  V30 11890 O 1156.07 -0.3618 -1.70401 0
M  V30 11891 C 1153.2 -0.817662 -3.30949 0
M  V30 11892 H 1154.4 -2.1518 -2.08896 0
M  V30 11893 H 1151.95 -1.14727 -1.06149 0
M  V30 11894 H 1152.68 0.148428 -3.2396 0
M  V30 11895 H 1152.47 -1.59244 -3.58307 0
M  V30 11896 H 1153.96 -0.75262 -4.10762 0
M  V30 11897 N 1154.4 1.08748 -1.14068 0
M  V30 11898 C 1155.36 2.1375 -0.827266 0
M  V30 11899 C 1156.36 1.59936 0.166496 0
M  V30 11900 O 1157.55 1.74092 -0.0614305 0
M  V30 11901 C 1154.68 3.40106 -0.232557 0
M  V30 11902 H 1155.87 2.42985 -1.7578 0
M  V30 11903 H 1153.43 1.24402 -0.946244 0
M  V30 11904 H 1154.16 3.16503 0.706859 0
M  V30 11905 H 1153.95 3.8046 -0.948293 0
M  V30 11906 H 1155.44 4.17589 -0.0303662 0
M  V30 11907 N 1155.87 0.935264 1.26849 0
M  V30 11908 C 1157.29 0.636661 1.46352 0
M  V30 11909 C 1157.49 -0.811823 1.84423 0
M  V30 11910 O 1156.55 -1.58902 1.9623 0
M  V30 11911 C 1157.86 1.59301 2.55036 0
M  V30 11912 C 1159.41 1.60207 2.68892 0
M  V30 11913 C 1159.88 2.54558 3.80742 0
M  V30 11914 N 1161.37 2.52809 3.88126 0
M  V30 11915 C 1162.11 3.225 4.74111 0
M  V30 11916 N 1161.6 4.01598 5.64527 0
M  V30 11917 N 1163.4 3.11481 4.67906 0
M  V30 11918 H 1155.55 1.8716 1.00423 0
M  V30 11919 H 1157.81 0.803968 0.502334 0
M  V30 11920 H 1157.52 2.62671 2.33874 0
M  V30 11921 H 1157.39 1.34052 3.52576 0
M  V30 11922 H 1159.78 0.575649 2.89431 0
M  V30 11923 H 1159.86 1.89508 1.71815 0
M  V30 11924 H 1159.5 3.57314 3.60956 0
M  V30 11925 H 1159.43 2.22549 4.77263 0
M  V30 11926 H 1161.92 1.9537 3.2348 0
M  V30 11927 H 1162.24 4.51742 6.27016 0
M  V30 11928 H 1160.58 4.057 5.64298 0
M  V30 11929 H 1163.77 2.49175 3.9627 0
M  V30 11930 H 1163.95 3.66064 5.34697 0
M  V30 11931 N 1157.35 -1.41121 0.701616 0
M  V30 11932 C 1158.6 -2.00359 0.232214 0
M  V30 11933 C 1158.91 -1.56231 -1.17691 0
M  V30 11934 O 1160.12 -2.08071 -1.74409 0
M  V30 11935 C 1158.58 -3.58052 0.364257 0
M  V30 11936 C 1158.18 -4.11158 1.77913 0
M  V30 11937 C 1159.93 -4.24476 -0.0450628 0
M  V30 11938 C 1157.84 -5.61306 1.8625 0
M  V30 11939 H 1156.77 -0.749411 0.0830609 0
M  V30 11940 H 1159.42 -1.61528 0.870689 0
M  V30 11941 H 1157.8 -3.94515 -0.342569 0
M  V30 11942 H 1158.97 -3.86101 2.5152 0
M  V30 11943 H 1157.29 -3.57282 2.13866 0
M  V30 11944 H 1159.88 -5.347 -0.00329209 0
M  V30 11945 H 1160.23 -4.01919 -1.08477 0
M  V30 11946 H 1160.76 -3.93069 0.611704 0
M  V30 11947 H 1157.5 -5.88699 2.88294 0
M  V30 11948 H 1157.02 -5.88271 1.17036 0
M  V30 11949 H 1158.7 -6.26179 1.62817 0
M  V30 11950 N 1158.83 -0.446794 -1.51134 0
M  V30 11951 C 1160.24 0.0141132 -1.86695 0
M  V30 11952 C 1160.59 1.41095 -1.36333 0
M  V30 11953 O 1159.72 2.04139 -0.718068 0
M  V30 11954 C 1160.31 0.0323866 -3.38785 0
M  V30 11955 C 1158.87 0.437737 -3.73846 0
M  V30 11956 C 1158.02 -0.363436 -2.74908 0
M  V30 11957 H 1160.97 -0.66221 -1.44224 0
M  V30 11958 H 1160.99 0.839865 -3.71115 0
M  V30 11959 H 1160.5 -0.984374 -3.75409 0
M  V30 11960 H 1158.6 1.45975 -3.42815 0
M  V30 11961 H 1158.72 0.155964 -4.78846 0
M  V30 11962 H 1157.08 0.179566 -2.54066 0
M  V30 11963 H 1157.86 -1.37925 -3.14375 0
M  V30 11964 N 1160.31 1.56586 -0.178487 0
M  V30 11965 C 1161.55 1.9739 0.465306 0
M  V30 11966 C 1161.89 1.06474 1.6241 0
M  V30 11967 O 1161.16 0.113316 1.9417 0
M  V30 11968 C 1161.45 3.47577 0.941408 0
M  V30 11969 C 1161.3 4.49271 -0.218054 0
M  V30 11970 C 1162.62 4.01038 1.81263 0
M  V30 11971 H 1159.74 0.717676 0.167663 0
M  V30 11972 H 1162.38 1.88128 -0.266067 0
M  V30 11973 H 1160.53 3.556 1.56463 0
M  V30 11974 H 1162.2 4.53301 -0.855332 0
M  V30 11975 H 1160.44 4.24936 -0.872441 0
M  V30 11976 H 1161.11 5.51776 0.157315 0
M  V30 11977 H 1163.59 3.9569 1.28718 0
M  V30 11978 H 1162.47 5.06526 2.11476 0
M  V30 11979 H 1162.73 3.45288 2.76096 0
M  V30 11980 N 1161.79 -0.095206 1.57312 0
M  V30 11981 C 1162.73 -1.11551 2.02052 0
M  V30 11982 C 1163.7 -1.39808 0.896818 0
M  V30 11983 O 1164.89 -1.51273 1.1628 0
M  V30 11984 C 1162.03 -2.43056 2.44985 0
M  V30 11985 C 1161.14 -2.21531 3.70875 0
M  V30 11986 C 1160.28 -3.46434 4.02687 0
M  V30 11987 C 1159.32 -3.2017 5.21687 0
M  V30 11988 N 1158.45 -4.37339 5.49253 0
M  V30 11989 H 1163.29 -0.727 2.88996 0
M  V30 11990 H 1160.83 -0.347441 1.42938 0
M  V30 11991 H 1162.79 -3.19803 2.67921 0
M  V30 11992 H 1161.42 -2.79754 1.61051 0
M  V30 11993 H 1160.47 -1.35587 3.55416 0
M  V30 11994 H 1161.78 -1.98116 4.57768 0
M  V30 11995 H 1160.94 -4.31589 4.26399 0
M  V30 11996 H 1159.67 -3.72904 3.14315 0
M  V30 11997 H 1158.68 -2.33409 4.97796 0
M  V30 11998 H 1159.9 -2.95047 6.11657 0
M  V30 11999 H 1157.85 -4.63885 4.6384 0
M  V30 12000 H 1157.77 -4.17114 6.30517 0
M  V30 12001 H 1159.04 -5.23559 5.775 0
M  V30 12002 N 1163.26 -1.53291 -0.366026 0
M  V30 12003 C 1164.49 -1.73665 -1.13381 0
M  V30 12004 C 1164.91 -0.464284 -1.8228 0
M  V30 12005 O 1164.27 0.581645 -1.71717 0
M  V30 12006 C 1164.32 -2.90225 -2.14013 0
M  V30 12007 O 1163.42 -2.58803 -3.21084 0
M  V30 12008 H 1162.77 -0.576762 -0.329 0
M  V30 12009 H 1165.3 -2.00174 -0.423287 0
M  V30 12010 H 1165.31 -3.16378 -2.57622 0
M  V30 12011 H 1163.98 -3.82518 -1.63257 0
M  V30 12012 H 1162.56 -2.43466 -2.82451 0
M  V30 12013 N 1164.74 0.6258 -1.44643 0
M  V30 12014 C 1165.65 1.76611 -1.5442 0
M  V30 12015 C 1166.67 1.68614 -0.429576 0
M  V30 12016 O 1167.84 1.89296 -0.687686 0
M  V30 12017 C 1164.91 3.13015 -1.49071 0
M  V30 12018 C 1163.97 3.32604 -2.71428 0
M  V30 12019 C 1163.2 4.62501 -2.66325 0
M  V30 12020 O 1163.43 5.43651 -1.72626 0
M  V30 12021 O 1162.36 4.84408 -3.57258 0
M  V30 12022 H 1166.19 1.71315 -2.50769 0
M  V30 12023 H 1163.77 0.787677 -1.26949 0
M  V30 12024 H 1165.65 3.94318 -1.48631 0
M  V30 12025 H 1164.33 3.18842 -0.558686 0
M  V30 12026 H 1163.24 2.50959 -2.77435 0
M  V30 12027 H 1164.57 3.31642 -3.63695 0
M  V30 12028 N 1166.22 1.31629 0.866686 0
M  V30 12029 C 1167.47 1.21683 1.62238 0
M  V30 12030 C 1167.8 -0.223767 1.92907 0
M  V30 12031 O 1167.07 -1.15761 1.563 0
M  V30 12032 C 1167.36 2.06443 2.95048 0
M  V30 12033 C 1167.21 3.58818 2.71237 0
M  V30 12034 C 1168.53 1.91634 3.96187 0
M  V30 12035 H 1165.65 0.443389 0.588707 0
M  V30 12036 H 1168.29 1.61453 1.00164 0
M  V30 12037 H 1166.44 1.72654 3.48027 0
M  V30 12038 H 1168.11 4.0276 2.24905 0
M  V30 12039 H 1166.36 3.82085 2.05411 0
M  V30 12040 H 1167.03 4.13436 3.65752 0
M  V30 12041 H 1169.5 2.21209 3.52428 0
M  V30 12042 H 1168.38 2.53236 4.86993 0
M  V30 12043 H 1168.64 0.880564 4.33242 0
M  V30 12044 N 1167.7 -1.08142 1.14644 0
M  V30 12045 C 1168.63 -2.17139 0.858667 0
M  V30 12046 C 1169.61 -1.69064 -0.187452 0
M  V30 12047 O 1170.8 -1.94151 -0.0435458 0
M  V30 12048 C 1167.93 -3.45648 0.33834 0
M  V30 12049 C 1166.88 -4.07129 1.32021 0
M  V30 12050 C 1166.21 -5.30623 0.659075 0
M  V30 12051 C 1167.51 -4.48095 2.68343 0
M  V30 12052 H 1169.2 -2.41468 1.77012 0
M  V30 12053 H 1166.75 -1.16052 0.852523 0
M  V30 12054 H 1168.7 -4.21216 0.124611 0
M  V30 12055 H 1167.42 -3.2088 -0.608553 0
M  V30 12056 H 1166.08 -3.33596 1.52016 0
M  V30 12057 H 1165.73 -5.02142 -0.293711 0
M  V30 12058 H 1165.43 -5.72714 1.31427 0
M  V30 12059 H 1166.95 -6.08903 0.454933 0
M  V30 12060 H 1168.37 -5.14828 2.5224 0
M  V30 12061 H 1166.76 -5.01113 3.30161 0
M  V30 12062 H 1167.83 -3.59852 3.25015 0
M  V30 12063 N 1169.18 -0.941978 -1.26351 0
M  V30 12064 C 1170.59 -0.632522 -1.75659 0
M  V30 12065 C 1170.94 0.852287 -1.76722 0
M  V30 12066 O 1170.06 1.66701 -1.37985 0
M  V30 12067 C 1170.66 -1.14145 -3.18993 0
M  V30 12068 C 1169.22 -0.882391 -3.65911 0
M  V30 12069 C 1168.37 -1.29189 -2.45368 0
M  V30 12070 H 1171.32 -1.12019 -1.12416 0
M  V30 12071 H 1171.34 -0.495639 -3.77258 0
M  V30 12072 H 1170.85 -2.22213 -3.18187 0
M  V30 12073 H 1168.95 0.183873 -3.72146 0
M  V30 12074 H 1169.06 -1.50996 -4.54683 0
M  V30 12075 H 1167.43 -0.710316 -2.44595 0
M  V30 12076 H 1168.21 -2.38152 -2.47262 0
M  V30 12077 N 1170.66 1.40747 -0.709091 0
M  V30 12078 C 1172.07 1.54961 -0.381989 0
M  V30 12079 C 1172.27 1.68181 1.10985 0
M  V30 12080 O 1171.33 1.66776 1.89584 0
M  V30 12081 C 1172.64 2.78156 -1.14236 0
M  V30 12082 C 1174.19 2.91967 -1.12803 0
M  V30 12083 C 1174.66 4.18066 -1.87042 0
M  V30 12084 N 1176.15 4.25052 -1.84078 0
M  V30 12085 C 1176.89 5.21514 -2.38349 0
M  V30 12086 N 1176.39 6.23924 -3.01149 0
M  V30 12087 N 1178.18 5.13548 -2.28528 0
M  V30 12088 H 1170.33 1.30412 -1.6765 0
M  V30 12089 H 1172.59 0.630147 -0.70825 0
M  V30 12090 H 1172.3 2.74643 -2.19691 0
M  V30 12091 H 1172.17 3.70074 -0.729731 0
M  V30 12092 H 1174.56 2.94987 -0.0816956 0
M  V30 12093 H 1174.64 2.01185 -1.57982 0
M  V30 12094 H 1174.28 4.15808 -2.91662 0
M  V30 12095 H 1174.21 5.07845 -1.39287 0
M  V30 12096 H 1176.71 3.51682 -1.38305 0
M  V30 12097 H 1177.02 6.93942 -3.40094 0
M  V30 12098 H 1175.36 6.24387 -3.05231 0
M  V30 12099 H 1178.55 4.3247 -1.79129 0
M  V30 12100 H 1178.73 5.88553 -2.71126 0
M  V30 12101 N 1172.13 0.454803 1.50895 0
M  V30 12102 C 1173.41 -0.166559 1.9489 0
M  V30 12103 C 1173.79 -1.58492 1.3944 0
M  V30 12104 O 1173.14 -2.20788 0.588622 0
M  V30 12105 C 1173.35 -0.126506 3.48771 0
M  V30 12106 C 1174.7 -0.32347 4.23366 0
M  V30 12107 O 1175.72 -0.203835 3.55616 0
M  V30 12108 O 1174.58 -0.563292 5.43589 0
M  V30 12109 H 1171.67 -0.120523 0.818171 0
M  V30 12110 H 1174.22 0.514037 1.61727 0
M  V30 12111 H 1172.99 0.864407 3.81633 0
M  V30 12112 H 1172.61 -0.849264 3.88424 0
M  V30 12113 N 1173.61 -1.56489 0.186789 0
M  V30 12114 C 1174.84 -2.02163 -0.463126 0
M  V30 12115 C 1175.26 -1.06612 -1.54969 0
M  V30 12116 O 1174.62 -0.0482139 -1.81236 0
M  V30 12117 C 1174.67 -3.46337 -1.00416 0
M  V30 12118 O 1173.77 -3.53889 -2.11747 0
M  V30 12119 H 1173.11 -0.65496 -0.109194 0
M  V30 12120 H 1175.64 -2.02459 0.295227 0
M  V30 12121 H 1175.65 -3.85959 -1.32287 0
M  V30 12122 H 1174.33 -4.15376 -0.208693 0
M  V30 12123 H 1172.9 -3.26136 -1.80803 0
M  V30 12124 N 1175.09 0.086862 -1.5736 0
M  V30 12125 C 1176.02 1.10538 -2.05678 0
M  V30 12126 C 1177 1.41281 -0.947293 0
M  V30 12127 O 1178.19 1.51169 -1.21908 0
M  V30 12128 C 1175.32 2.42302 -2.48812 0
M  V30 12129 C 1174.27 2.25948 -3.63499 0
M  V30 12130 C 1173.6 3.62961 -3.92637 0
M  V30 12131 C 1174.9 1.69319 -4.94094 0
M  V30 12132 H 1176.59 0.703371 -2.91021 0
M  V30 12133 H 1174.14 0.336895 -1.40004 0
M  V30 12134 H 1176.09 3.13833 -2.81224 0
M  V30 12135 H 1174.81 2.84454 -1.60479 0
M  V30 12136 H 1173.47 1.5686 -3.31347 0
M  V30 12137 H 1173.12 4.02656 -3.01459 0
M  V30 12138 H 1172.82 3.52862 -4.69853 0
M  V30 12139 H 1174.34 4.35946 -4.27531 0
M  V30 12140 H 1175.76 2.30699 -5.24834 0
M  V30 12141 H 1174.15 1.69957 -5.7553 0
M  V30 12142 H 1175.22 0.653318 -4.80479 0
M  V30 12143 N 1176.57 1.53483 0.357892 0
M  V30 12144 C 1177.51 1.80463 1.43881 0
M  V30 12145 C 1178.48 0.649438 1.52877 0
M  V30 12146 O 1179.67 0.892409 1.68644 0
M  V30 12147 C 1176.81 2.00714 2.80727 0
M  V30 12148 C 1175.92 3.28431 2.80637 0
M  V30 12149 C 1175.06 3.38828 4.09107 0
M  V30 12150 C 1174.1 4.60549 4.03189 0
M  V30 12151 N 1173.23 4.68057 5.23323 0
M  V30 12152 H 1178.07 2.72694 1.20174 0
M  V30 12153 H 1175.61 1.35079 0.582422 0
M  V30 12154 H 1177.57 2.10444 3.60235 0
M  V30 12155 H 1176.2 1.11811 3.02817 0
M  V30 12156 H 1175.25 3.27617 1.93317 0
M  V30 12157 H 1176.56 4.18022 2.72138 0
M  V30 12158 H 1175.72 3.47911 4.97034 0
M  V30 12159 H 1174.46 2.47267 4.20369 0
M  V30 12160 H 1173.46 4.51558 3.13649 0
M  V30 12161 H 1174.69 5.53459 3.93523 0
M  V30 12162 H 1172.63 3.794 5.35156 0
M  V30 12163 H 1172.55 5.51563 5.17024 0
M  V30 12164 H 1173.82 4.81433 6.1306 0
M  V30 12165 N 1178.05 -0.61812 1.44973 0
M  V30 12166 C 1179.29 -1.37468 1.48145 0
M  V30 12167 C 1179.61 -1.94628 0.120366 0
M  V30 12168 O 1178.88 -1.76548 -0.848982 0
M  V30 12169 H 1177.46 -0.510293 0.545536 0
M  V30 12170 H 1180.13 -0.726598 1.8085 0
M  V30 12171 H 1179.22 -2.19944 2.2143 0
M  V30 12172 N 1179.52 -1.32087 -0.859693 0
M  V30 12173 C 1180.75 -1.25486 -1.6513 0
M  V30 12174 C 1181.17 0.175015 -1.87284 0
M  V30 12175 O 1180.53 1.12468 -1.42199 0
M  V30 12176 C 1180.58 -2.01469 -2.9907 0
M  V30 12177 O 1179.68 -1.35904 -3.89363 0
M  V30 12178 H 1179.02 -0.432728 -0.503629 0
M  V30 12179 H 1181.55 -1.74322 -1.07112 0
M  V30 12180 H 1181.56 -2.11452 -3.4893 0
M  V30 12181 H 1180.24 -3.05448 -2.82266 0
M  V30 12182 H 1178.82 -1.34437 -3.47823 0
M  V30 12183 N 1181 1.07532 -1.15215 0
M  V30 12184 C 1181.93 2.14598 -0.805006 0
M  V30 12185 C 1182.95 1.61778 0.182152 0
M  V30 12186 O 1184.14 1.78453 -0.040834 0
M  V30 12187 C 1181.24 3.38444 -0.175736 0
M  V30 12188 C 1180.41 4.20621 -1.19986 0
M  V30 12189 C 1179.47 5.22851 -0.592705 0
M  V30 12190 O 1178.49 5.55121 -1.25815 0
M  V30 12191 N 1179.7 5.7711 0.626425 0
M  V30 12192 H 1182.46 2.44981 -1.7264 0
M  V30 12193 H 1180.02 1.23423 -1.04778 0
M  V30 12194 H 1182.01 4.03969 0.243166 0
M  V30 12195 H 1180.58 3.0579 0.64896 0
M  V30 12196 H 1179.8 3.50941 -1.79539 0
M  V30 12197 H 1181.09 4.72339 -1.89139 0
M  V30 12198 H 1180.49 5.53139 1.18546 0
M  V30 12199 H 1179.05 6.44273 0.98771 0
M  V30 12200 N 1182.48 0.948665 1.2585 0
M  V30 12201 C 1183.73 0.600236 1.934 0
M  V30 12202 C 1184.06 -0.86185 1.74363 0
M  V30 12203 O 1183.31 -1.63294 1.07858 0
M  V30 12204 C 1183.61 0.89784 3.45939 0
M  V30 12205 C 1183.28 2.345 3.85124 0
M  V30 12206 C 1181.94 2.74058 3.95532 0
M  V30 12207 C 1184.29 3.2851 4.04636 0
M  V30 12208 C 1181.62 4.06707 4.22855 0
M  V30 12209 C 1183.97 4.60764 4.3345 0
M  V30 12210 C 1182.63 5.00127 4.42074 0
M  V30 12211 H 1181.9 0.219642 0.707699 0
M  V30 12212 H 1184.55 1.19658 1.49513 0
M  V30 12213 H 1182.86 0.219037 3.91187 0
M  V30 12214 H 1184.55 0.606916 3.96381 0
M  V30 12215 H 1181.14 2.02819 3.77574 0
M  V30 12216 H 1185.33 2.99141 3.96015 0
M  V30 12217 H 1180.58 4.36856 4.27746 0
M  V30 12218 H 1184.76 5.33594 4.47493 0
M  V30 12219 H 1182.38 6.02939 4.63 0
M  V30 12220 N 1183.96 -1.40369 0.716545 0
M  V30 12221 C 1184.89 -2.29186 0.0251905 0
M  V30 12222 C 1185.9 -1.45877 -0.722761 0
M  V30 12223 O 1187.09 -1.69155 -0.569982 0
M  V30 12224 C 1184.19 -3.24161 -0.988589 0
M  V30 12225 C 1183.37 -4.36329 -0.30597 0
M  V30 12226 C 1182.42 -5.11736 -1.22527 0
M  V30 12227 O 1181.45 -5.64758 -0.7097 0
M  V30 12228 N 1182.65 -5.21183 -2.55634 0
M  V30 12229 H 1185.42 -2.8916 0.787808 0
M  V30 12230 H 1182.98 -1.51749 0.564253 0
M  V30 12231 H 1184.97 -3.71479 -1.60578 0
M  V30 12232 H 1183.54 -2.65347 -1.65256 0
M  V30 12233 H 1182.76 -3.91125 0.491432 0
M  V30 12234 H 1184.05 -5.08523 0.167827 0
M  V30 12235 H 1183.45 -4.7959 -3.00017 0
M  V30 12236 H 1182 -5.72005 -3.12495 0
M  V30 12237 N 1185.44 -0.462799 -1.50652 0
M  V30 12238 C 1186.35 0.341191 -2.32106 0
M  V30 12239 C 1187.36 1.00384 -1.42123 0
M  V30 12240 O 1188.54 0.993635 -1.75182 0
M  V30 12241 C 1185.6 1.41356 -3.16575 0
M  V30 12242 C 1184.66 0.768375 -4.22368 0
M  V30 12243 C 1183.9 1.78964 -5.028 0
M  V30 12244 O 1184.12 3.01515 -4.84195 0
M  V30 12245 O 1183.05 1.36606 -5.86193 0
M  V30 12246 H 1186.88 -0.324482 -3.01962 0
M  V30 12247 H 1184.47 -0.224807 -1.47699 0
M  V30 12248 H 1186.35 2.0349 -3.69012 0
M  V30 12249 H 1185.02 2.06285 -2.49456 0
M  V30 12250 H 1183.93 0.108297 -3.73943 0
M  V30 12251 H 1185.26 0.162164 -4.91933 0
M  V30 12252 N 1186.91 1.56388 -0.195085 0
M  V30 12253 C 1188.33 1.8398 0.317513 0
M  V30 12254 C 1188.68 1.11575 1.61386 0
M  V30 12255 O 1187.8 0.376557 2.13099 0
M  V30 12256 C 1188.4 3.33749 0.582859 0
M  V30 12257 C 1186.96 3.61752 1.03983 0
M  V30 12258 C 1186.1 2.77159 0.088434 0
M  V30 12259 H 1189.05 1.53072 -0.418871 0
M  V30 12260 H 1189.07 3.52519 1.43216 0
M  V30 12261 H 1188.59 3.86419 -0.360813 0
M  V30 12262 H 1186.69 3.14515 1.99778 0
M  V30 12263 H 1186.8 4.69937 0.932549 0
M  V30 12264 H 1185.16 2.47765 0.590317 0
M  V30 12265 H 1185.95 3.32619 -0.849682 0
M  V30 12266 N 1188.39 -0.0785156 1.57404 0
M  V30 12267 C 1189.32 -1.09446 2.06262 0
M  V30 12268 C 1190.3 -1.40777 0.954772 0
M  V30 12269 O 1191.49 -1.5052 1.22708 0
M  V30 12270 C 1188.62 -2.40979 2.50093 0
M  V30 12271 C 1187.57 -2.24017 3.64692 0
M  V30 12272 C 1186.9 -3.60873 3.94556 0
M  V30 12273 C 1188.2 -1.66696 4.94985 0
M  V30 12274 H 1189.89 -0.687928 2.9139 0
M  V30 12275 H 1187.44 -0.329466 1.4018 0
M  V30 12276 H 1189.39 -3.12337 2.82884 0
M  V30 12277 H 1188.12 -2.83599 1.61985 0
M  V30 12278 H 1186.77 -1.55101 3.32174 0
M  V30 12279 H 1186.42 -4.01051 3.0359 0
M  V30 12280 H 1186.12 -3.50365 4.71718 0
M  V30 12281 H 1187.65 -4.33673 4.29837 0
M  V30 12282 H 1189.06 -2.27913 5.2605 0
M  V30 12283 H 1187.46 -1.66902 5.76423 0
M  V30 12284 H 1188.53 -0.627827 4.80818 0
M  V30 12285 N 1189.87 -1.5367 -0.349747 0
M  V30 12286 C 1190.8 -1.7603 -1.4522 0
M  V30 12287 C 1191.78 -0.609171 -1.50758 0
M  V30 12288 O 1192.97 -0.843613 -1.68569 0
M  V30 12289 C 1190.09 -1.85336 -2.83493 0
M  V30 12290 C 1189.14 -3.07438 -2.95608 0
M  V30 12291 S 1189.97 -4.66625 -2.62719 0
M  V30 12292 C 1191.13 -4.78802 -4.03112 0
M  V30 12293 H 1191.36 -2.69263 -1.26035 0
M  V30 12294 H 1188.89 -1.4446 -0.545044 0
M  V30 12295 H 1190.85 -1.91383 -3.63157 0
M  V30 12296 H 1189.51 -0.931267 -2.99977 0
M  V30 12297 H 1188.71 -3.10606 -3.96913 0
M  V30 12298 H 1188.31 -2.99585 -2.23886 0
M  V30 12299 H 1190.6 -4.5983 -4.97557 0
M  V30 12300 H 1191.54 -5.80886 -4.04941 0
M  V30 12301 H 1191.95 -4.07305 -3.90849 0
M  V30 12302 N 1191.35 0.610423 -1.45298 0
M  V30 12303 C 1192.26 1.74964 -1.56285 0
M  V30 12304 C 1193.27 1.68149 -0.447436 0
M  V30 12305 O 1194.45 1.88556 -0.707725 0
M  V30 12306 C 1191.52 3.11417 -1.52383 0
M  V30 12307 C 1190.58 3.29707 -2.7494 0
M  V30 12308 C 1189.81 4.5965 -2.71215 0
M  V30 12309 O 1190.03 5.41789 -1.78383 0
M  V30 12310 O 1188.97 4.80591 -3.62375 0
M  V30 12311 H 1192.79 1.68646 -2.52571 0
M  V30 12312 H 1190.38 0.774168 -1.27777 0
M  V30 12313 H 1192.26 3.9272 -1.52805 0
M  V30 12314 H 1190.93 3.18232 -0.592472 0
M  V30 12315 H 1189.84 2.48003 -2.80081 0
M  V30 12316 H 1191.17 3.27766 -3.67192 0
M  V30 12317 N 1192.83 1.32541 0.852676 0
M  V30 12318 C 1194.07 1.23214 1.607 0
M  V30 12319 C 1194.4 -0.205542 1.93411 0
M  V30 12320 O 1193.66 -1.15907 1.57683 0
M  V30 12321 C 1193.96 2.039 2.9353 0
M  V30 12322 C 1193.62 3.53237 2.8024 0
M  V30 12323 C 1192.28 3.93953 2.76323 0
M  V30 12324 C 1194.64 4.48194 2.6603 0
M  V30 12325 C 1191.96 5.27865 2.56077 0
M  V30 12326 C 1194.32 5.82251 2.47319 0
M  V30 12327 C 1192.98 6.22166 2.41796 0
M  V30 12328 H 1192.25 0.450873 0.588043 0
M  V30 12329 H 1194.9 1.63988 0.988954 0
M  V30 12330 H 1193.2 1.55861 3.59464 0
M  V30 12331 H 1194.9 1.94051 3.50921 0
M  V30 12332 H 1191.49 3.209 2.84114 0
M  V30 12333 H 1195.67 4.17656 2.681 0
M  V30 12334 H 1190.93 5.57845 2.50237 0
M  V30 12335 H 1195.1 6.55442 2.35305 0
M  V30 12336 H 1192.73 7.2587 2.25868 0
M  V30 12337 N 1194.3 -1.0692 1.15784 0
M  V30 12338 C 1195.53 -1.83849 0.959903 0
M  V30 12339 C 1195.95 -1.8169 -0.486873 0
M  V30 12340 O 1195.31 -1.21305 -1.34739 0
M  V30 12341 C 1195.36 -3.28642 1.48414 0
M  V30 12342 O 1194.46 -4.0665 0.686249 0
M  V30 12343 H 1193.81 -0.569115 0.342059 0
M  V30 12344 H 1196.34 -1.34851 1.53871 0
M  V30 12345 H 1196.35 -3.7947 1.49888 0
M  V30 12346 H 1195.02 -3.29529 2.53739 0
M  V30 12347 H 1193.6 -3.65453 0.741501 0
M  V30 12348 N 1195.78 -0.955326 -1.25345 0
M  V30 12349 C 1197.03 -0.609278 -1.92697 0
M  V30 12350 C 1197.35 0.856535 -1.75181 0
M  V30 12351 O 1196.62 1.61013 -1.11587 0
M  V30 12352 H 1195.2 -0.22235 -0.713141 0
M  V30 12353 H 1197.86 -1.21372 -1.52496 0
M  V30 12354 H 1196.96 -0.839198 -3.00606 0
M  V30 12355 N 1197.26 1.39987 -0.723979 0
M  V30 12356 C 1198.22 2.29041 -0.0854583 0
M  V30 12357 C 1199.22 1.45777 0.678657 0
M  V30 12358 O 1200.41 1.66588 0.509311 0
M  V30 12359 C 1197.55 3.29115 0.88859 0
M  V30 12360 H 1198.74 2.87006 -0.869903 0
M  V30 12361 H 1196.29 1.48449 -0.489136 0
M  V30 12362 H 1197.03 2.76184 1.69979 0
M  V30 12363 H 1196.81 3.90593 0.343454 0
M  V30 12364 H 1198.3 3.95778 1.33227 0
M  V30 12365 N 1198.74 0.470782 1.50404 0
M  V30 12366 C 1199.98 -0.0830648 2.04231 0
M  V30 12367 C 1200.34 -1.37015 1.34503 0
M  V30 12368 O 1201.54 -2.00635 1.78883 0
M  V30 12369 C 1199.82 -0.262986 3.56431 0
M  V30 12370 S 1201.37 -0.775432 4.31894 0
M  V30 12371 H 1198.19 -0.0161025 0.710818 0
M  V30 12372 H 1200.79 0.63785 1.84802 0
M  V30 12373 H 1199.5 0.679558 4.04735 0
M  V30 12374 H 1199.03 -1.01002 3.80213 0
M  V30 12375 H 1201.04 -2.04887 4.51924 0
M  V30 12376 N 1200.22 -1.56282 0.203376 0
M  V30 12377 C 1201.44 -2.02643 -0.441658 0
M  V30 12378 C 1201.87 -1.0825 -1.5383 0
M  V30 12379 O 1201.23 -0.0674337 -1.81175 0
M  V30 12380 C 1201.27 -3.47382 -0.967369 0
M  V30 12381 O 1200.38 -3.56115 -2.07981 0
M  V30 12382 H 1199.72 -0.656081 -0.102242 0
M  V30 12383 H 1202.25 -2.02134 0.316684 0
M  V30 12384 H 1202.26 -3.8734 -1.28186 0
M  V30 12385 H 1200.93 -4.15574 -0.164625 0
M  V30 12386 H 1199.51 -3.28035 -1.77334 0
M  V30 12387 N 1201.7 0.070167 -1.57444 0
M  V30 12388 C 1202.94 0.767495 -1.8696 0
M  V30 12389 C 1203.26 1.78032 -0.795595 0
M  V30 12390 O 1202.53 1.95112 0.175566 0
M  V30 12391 H 1201.11 0.286443 -0.689898 0
M  V30 12392 H 1203.78 0.0458692 -1.94846 0
M  V30 12393 H 1202.87 1.28269 -2.84523 0
M  V30 12394 N 1203.17 1.53854 0.341593 0
M  V30 12395 C 1204.41 1.72909 1.09004 0
M  V30 12396 C 1204.78 0.48304 1.85824 0
M  V30 12397 O 1205.98 0.550651 2.63099 0
M  V30 12398 C 1204.25 2.95884 2.00468 0
M  V30 12399 S 1205.81 3.3576 2.82508 0
M  V30 12400 H 1202.63 0.608187 0.368279 0
M  V30 12401 H 1205.23 1.92001 0.368222 0
M  V30 12402 H 1203.93 3.84742 1.42836 0
M  V30 12403 H 1203.46 2.79263 2.77084 0
M  V30 12404 H 1205.48 2.89647 4.02888 0
M  V30 12405 N 1204.65 -0.602709 1.4562 0
M  V30 12406 C 1205.9 -1.35889 1.49595 0
M  V30 12407 C 1206.22 -1.9449 0.141002 0
M  V30 12408 O 1205.49 -1.77438 -0.830209 0
M  V30 12409 H 1204.07 -0.504478 0.550918 0
M  V30 12410 H 1206.73 -0.707376 1.8161 0
M  V30 12411 H 1205.83 -2.17583 2.2375 0
M  V30 12412 N 1206.13 -1.32992 -0.845635 0
M  V30 12413 C 1207.04 -1.24701 -1.98713 0
M  V30 12414 C 1208.06 -0.158864 -1.73273 0
M  V30 12415 O 1209.23 -0.381209 -1.97759 0
M  V30 12416 C 1206.3 -0.979524 -3.32575 0
M  V30 12417 C 1205.36 -2.15701 -3.71176 0
M  V30 12418 C 1204.59 -1.90219 -4.98651 0
M  V30 12419 O 1204.81 -0.849171 -5.64044 0
M  V30 12420 O 1203.75 -2.76571 -5.34595 0
M  V30 12421 H 1207.57 -2.20683 -2.08645 0
M  V30 12422 H 1205.16 -1.12971 -0.97765 0
M  V30 12423 H 1207.04 -0.847219 -4.12796 0
M  V30 12424 H 1205.72 -0.0499398 -3.23661 0
M  V30 12425 H 1204.62 -2.34483 -2.91494 0
M  V30 12426 H 1205.96 -3.0697 -3.84747 0
M  V30 12427 N 1207.61 1.06304 -1.1635 0
M  V30 12428 C 1208.84 1.82799 -0.96913 0
M  V30 12429 C 1209.25 1.82526 0.482659 0
M  V30 12430 O 1208.61 1.24437 1.33498 0
M  V30 12431 C 1208.66 3.29417 -1.48884 0
M  V30 12432 O 1208.38 3.29803 -2.88377 0
M  V30 12433 C 1209.88 4.22642 -1.33748 0
M  V30 12434 H 1207.1 0.576388 -0.343537 0
M  V30 12435 H 1209.64 1.34122 -1.54375 0
M  V30 12436 H 1207.8 3.75406 -0.956509 0
M  V30 12437 H 1208.21 4.21486 -3.1217 0
M  V30 12438 H 1209.69 5.23545 -1.74942 0
M  V30 12439 H 1210.16 4.38287 -0.283021 0
M  V30 12440 H 1210.77 3.82499 -1.85942 0
M  V30 12441 N 1209.09 0.96196 1.24836 0
M  V30 12442 C 1210.5 0.660388 1.7463 0
M  V30 12443 C 1210.85 -0.824064 1.78055 0
M  V30 12444 O 1209.97 -1.64485 1.40619 0
M  V30 12445 C 1210.57 1.19205 3.17137 0
M  V30 12446 C 1209.13 0.940493 3.64461 0
M  V30 12447 C 1208.27 1.33076 2.43282 0
M  V30 12448 H 1211.22 1.13794 1.1062 0
M  V30 12449 H 1211.25 0.555595 3.76422 0
M  V30 12450 H 1210.76 2.27247 3.14612 0
M  V30 12451 H 1208.86 -0.124645 3.72391 0
M  V30 12452 H 1208.97 1.5821 4.52224 0
M  V30 12453 H 1207.34 0.749139 2.43434 0
M  V30 12454 H 1208.12 2.42055 2.43442 0
M  V30 12455 N 1210.56 -1.39601 0.731392 0
M  V30 12456 C 1211.79 -2.0459 0.287472 0
M  V30 12457 C 1212.2 -1.5525 -1.08139 0
M  V30 12458 O 1211.54 -0.710949 -1.69385 0
M  V30 12459 C 1211.61 -3.58904 0.206948 0
M  V30 12460 C 1211.27 -4.31204 1.51368 0
M  V30 12461 C 1212.27 -4.58088 2.45869 0
M  V30 12462 C 1209.95 -4.69818 1.77698 0
M  V30 12463 C 1211.95 -5.22591 3.64935 0
M  V30 12464 C 1209.63 -5.34049 2.97043 0
M  V30 12465 C 1210.63 -5.60368 3.90483 0
M  V30 12466 O 1210.32 -6.23268 5.07732 0
M  V30 12467 H 1210.05 -0.664515 0.12408 0
M  V30 12468 H 1212.61 -1.79701 0.994814 0
M  V30 12469 H 1210.84 -3.82675 -0.556466 0
M  V30 12470 H 1212.52 -4.05385 -0.204498 0
M  V30 12471 H 1213.29 -4.28706 2.26796 0
M  V30 12472 H 1209.17 -4.48692 1.05815 0
M  V30 12473 H 1212.71 -5.43049 4.37885 0
M  V30 12474 H 1208.61 -5.62852 3.16018 0
M  V30 12475 H 1209.38 -6.41763 5.08019 0
M  V30 12476 N 1212.04 -0.478751 -1.50152 0
M  V30 12477 C 1213.29 0.073694 -2.02666 0
M  V30 12478 C 1213.62 1.38679 -1.35947 0
M  V30 12479 O 1212.9 1.88286 -0.4877 0
M  V30 12480 C 1213.18 0.249516 -3.59235 0
M  V30 12481 C 1213.03 -1.08514 -4.36514 0
M  V30 12482 C 1214.35 1.00053 -4.28576 0
M  V30 12483 H 1211.47 0.0253082 -0.736565 0
M  V30 12484 H 1214.11 -0.625834 -1.79397 0
M  V30 12485 H 1212.26 0.845343 -3.79192 0
M  V30 12486 H 1213.93 -1.71814 -4.28109 0
M  V30 12487 H 1212.18 -1.67992 -3.99952 0
M  V30 12488 H 1212.85 -0.915676 -5.44352 0
M  V30 12489 H 1215.32 0.495422 -4.1314 0
M  V30 12490 H 1214.2 1.09236 -5.37921 0
M  V30 12491 H 1214.46 2.03896 -3.92274 0
M  V30 12492 N 1213.52 1.56172 -0.211661 0
M  V30 12493 C 1214.94 1.5895 0.143907 0
M  V30 12494 C 1215.14 1.22826 1.59737 0
M  V30 12495 O 1214.19 0.958823 2.33587 0
M  V30 12496 C 1215.51 3.00199 -0.173438 0
M  V30 12497 C 1217.05 3.12789 -0.114877 0
M  V30 12498 C 1217.53 4.56199 -0.405759 0
M  V30 12499 N 1219.02 4.61838 -0.354973 0
M  V30 12500 C 1219.75 5.70721 -0.553671 0
M  V30 12501 N 1219.25 6.88006 -0.813613 0
M  V30 12502 N 1221.04 5.59988 -0.486787 0
M  V30 12503 H 1213.19 1.77931 -1.15993 0
M  V30 12504 H 1215.46 0.826569 -0.464206 0
M  V30 12505 H 1215.16 3.31248 -1.18186 0
M  V30 12506 H 1215.04 3.73651 0.516232 0
M  V30 12507 H 1217.42 2.81543 0.884166 0
M  V30 12508 H 1217.51 2.41688 -0.837875 0
M  V30 12509 H 1217.15 4.88161 -1.40219 0
M  V30 12510 H 1217.08 5.25512 0.338318 0
M  V30 12511 H 1219.57 3.77555 -0.161352 0
M  V30 12512 H 1219.88 7.66894 -0.953594 0
M  V30 12513 H 1218.23 6.89774 -0.850696 0
M  V30 12514 H 1221.42 4.67238 -0.284009 0
M  V30 12515 H 1221.59 6.44781 -0.645051 0
M  V30 12516 N 1215 -0.0618163 1.57479 0
M  V30 12517 C 1216.24 -0.760193 1.88013 0
M  V30 12518 C 1216.58 -1.76718 0.805258 0
M  V30 12519 O 1215.85 -1.93633 -0.183408 0
M  V30 12520 C 1216.14 -1.45924 3.29208 0
M  V30 12521 C 1215.99 -0.467994 4.47359 0
M  V30 12522 C 1217.31 -2.40166 3.68793 0
M  V30 12523 H 1214.43 -0.274896 0.683814 0
M  V30 12524 H 1217.07 -0.0232433 1.89986 0
M  V30 12525 H 1215.22 -2.08741 3.27657 0
M  V30 12526 H 1216.89 0.155735 4.61037 0
M  V30 12527 H 1215.13 0.215797 4.33263 0
M  V30 12528 H 1215.8 -0.994942 5.42959 0
M  V30 12529 H 1218.28 -1.87419 3.71501 0
M  V30 12530 H 1217.16 -2.86076 4.68457 0
M  V30 12531 H 1217.42 -3.25413 2.99264 0
M  V30 12532 N 1216.48 -1.54033 -0.333429 0
M  V30 12533 C 1217.73 -1.70979 -1.07 0
M  V30 12534 C 1218.04 -0.485095 -1.89489 0
M  V30 12535 O 1219.24 -0.535712 -2.66162 0
M  V30 12536 C 1217.7 -3.02382 -1.95175 0
M  V30 12537 C 1217.31 -4.32223 -1.17844 0
M  V30 12538 C 1219.05 -3.28693 -2.68628 0
M  V30 12539 C 1216.96 -5.54693 -2.05109 0
M  V30 12540 H 1215.89 -0.637152 -0.403179 0
M  V30 12541 H 1218.54 -1.80529 -0.328839 0
M  V30 12542 H 1216.92 -2.86714 -2.73151 0
M  V30 12543 H 1218.1 -4.58626 -0.447089 0
M  V30 12544 H 1216.41 -4.12601 -0.561166 0
M  V30 12545 H 1219.01 -4.17385 -3.34207 0
M  V30 12546 H 1219.35 -2.46141 -3.35738 0
M  V30 12547 H 1219.88 -3.45183 -1.9772 0
M  V30 12548 H 1216.62 -6.39818 -1.42523 0
M  V30 12549 H 1216.14 -5.32524 -2.76005 0
M  V30 12550 H 1217.82 -5.90722 -2.63926 0
M  V30 12551 N 1217.95 0.594978 -1.45938 0
M  V30 12552 C 1219.18 1.37994 -1.5416 0
M  V30 12553 C 1219.6 1.87954 -0.17848 0
M  V30 12554 O 1218.95 1.62932 0.822161 0
M  V30 12555 C 1219.01 2.57586 -2.53637 0
M  V30 12556 O 1218.73 2.09698 -3.84653 0
M  V30 12557 C 1220.23 3.50292 -2.71681 0
M  V30 12558 H 1217.45 0.421983 -0.5217 0
M  V30 12559 H 1219.99 0.724459 -1.91238 0
M  V30 12560 H 1218.15 3.19149 -2.19597 0
M  V30 12561 H 1218.56 2.87492 -4.3869 0
M  V30 12562 H 1220.03 4.30717 -3.45234 0
M  V30 12563 H 1220.51 4.01444 -1.78156 0
M  V30 12564 H 1221.12 2.94573 -3.06768 0
M  V30 12565 N 1219.43 1.33438 0.838571 0
M  V30 12566 C 1220.36 1.19552 1.9555 0
M  V30 12567 C 1221.38 0.12642 1.62308 0
M  V30 12568 O 1222.57 0.376868 1.74476 0
M  V30 12569 C 1219.67 0.811273 3.29046 0
M  V30 12570 C 1218.84 1.97207 3.9042 0
M  V30 12571 C 1217.9 1.56875 5.02271 0
M  V30 12572 O 1216.92 2.28314 5.21403 0
M  V30 12573 N 1218.13 0.473924 5.78562 0
M  V30 12574 H 1220.89 2.15769 2.07999 0
M  V30 12575 H 1218.45 1.26187 1.01432 0
M  V30 12576 H 1220.44 0.523553 4.01299 0
M  V30 12577 H 1219.01 -0.0602291 3.12542 0
M  V30 12578 H 1218.23 2.4254 3.10754 0
M  V30 12579 H 1219.52 2.74878 4.28158 0
M  V30 12580 H 1218.92 -0.120306 5.65572 0
M  V30 12581 H 1217.48 0.245877 6.51336 0
M  V30 12582 N 1220.91 -1.05686 1.16912 0
M  V30 12583 C 1221.84 -2.15268 0.904532 0
M  V30 12584 C 1222.82 -1.69424 -0.151548 0
M  V30 12585 O 1224.01 -1.942 -0.00235371 0
M  V30 12586 C 1221.14 -3.44853 0.411581 0
M  V30 12587 C 1220.09 -4.04237 1.40628 0
M  V30 12588 C 1219.42 -5.29105 0.771479 0
M  V30 12589 C 1220.72 -4.42303 2.77787 0
M  V30 12590 H 1222.41 -2.37659 1.82094 0
M  V30 12591 H 1219.96 -1.14217 0.876947 0
M  V30 12592 H 1221.91 -4.20857 0.213929 0
M  V30 12593 H 1220.63 -3.22099 -0.540352 0
M  V30 12594 H 1219.29 -3.30297 1.59058 0
M  V30 12595 H 1218.94 -5.02652 -0.187133 0
M  V30 12596 H 1218.64 -5.69797 1.43545 0
M  V30 12597 H 1220.16 -6.07801 0.583988 0
M  V30 12598 H 1221.58 -5.09362 2.63103 0
M  V30 12599 H 1219.98 -4.93997 3.40716 0
M  V30 12600 H 1221.05 -3.52877 3.32575 0
M  V30 12601 N 1222.39 -0.968567 -1.24324 0
M  V30 12602 C 1223.64 -0.630928 -1.9242 0
M  V30 12603 C 1223.96 0.834001 -1.75712 0
M  V30 12604 O 1223.22 1.61558 -1.10442 0
M  V30 12605 C 1223.52 -0.952762 -3.44467 0
M  V30 12606 C 1223.18 -2.40597 -3.81345 0
M  V30 12607 C 1221.85 -2.80316 -3.91122 0
M  V30 12608 C 1224.2 -3.34906 -3.99359 0
M  V30 12609 C 1221.53 -4.13383 -4.16331 0
M  V30 12610 C 1223.88 -4.67602 -4.26065 0
M  V30 12611 C 1222.54 -5.07097 -4.34061 0
M  V30 12612 H 1221.81 -0.230873 -0.704116 0
M  V30 12613 H 1224.46 -1.22022 -1.47591 0
M  V30 12614 H 1222.76 -0.281244 -3.90789 0
M  V30 12615 H 1224.46 -0.6699 -3.95365 0
M  V30 12616 H 1221.05 -2.088 -3.743 0
M  V30 12617 H 1225.23 -3.05404 -3.91206 0
M  V30 12618 H 1220.49 -4.43606 -4.20742 0
M  V30 12619 H 1224.66 -5.40646 -4.38948 0
M  V30 12620 H 1222.29 -6.10229 -4.53349 0
M  V30 12621 N 1223.87 1.39211 -0.738786 0
M  V30 12622 C 1225.11 2.0004 -0.28782 0
M  V30 12623 C 1225.44 1.58921 1.13 0
M  V30 12624 O 1224.71 0.839193 1.77015 0
M  V30 12625 H 1223.29 0.739805 -0.103425 0
M  V30 12626 H 1225.95 1.70202 -0.949587 0
M  V30 12627 H 1225.04 3.10251 -0.339208 0
M  V30 12628 N 1225.34 0.486708 1.49896 0
M  V30 12629 C 1226.25 -0.304222 2.32619 0
M  V30 12630 C 1227.27 -0.981103 1.43702 0
M  V30 12631 O 1228.45 -0.965639 1.76741 0
M  V30 12632 C 1225.51 -1.36301 3.18783 0
M  V30 12633 C 1224.57 -0.701082 4.23537 0
M  V30 12634 C 1223.81 -1.70943 5.05583 0
M  V30 12635 O 1224.03 -2.93773 4.88931 0
M  V30 12636 O 1222.96 -1.27263 5.88292 0
M  V30 12637 H 1226.79 0.37248 3.01407 0
M  V30 12638 H 1224.37 0.248277 1.47323 0
M  V30 12639 H 1226.26 -1.97594 3.72202 0
M  V30 12640 H 1224.93 -2.0229 2.52706 0
M  V30 12641 H 1223.84 -0.0487926 3.74068 0
M  V30 12642 H 1225.17 -0.0838817 4.92129 0
M  V30 12643 N 1226.82 -1.56058 0.219941 0
M  V30 12644 C 1228.24 -1.59024 -0.135476 0
M  V30 12645 C 1228.44 -1.23672 -1.59083 0
M  V30 12646 O 1227.5 -0.971197 -2.33075 0
M  V30 12647 C 1228.81 -3.00103 0.189356 0
M  V30 12648 C 1230.36 -3.12724 0.131463 0
M  V30 12649 C 1230.83 -4.55977 0.429947 0
M  V30 12650 N 1232.32 -4.61643 0.37946 0
M  V30 12651 C 1233.06 -5.70419 0.58393 0
M  V30 12652 N 1232.55 -6.87565 0.850088 0
M  V30 12653 N 1234.35 -5.59722 0.516477 0
M  V30 12654 H 1226.5 -1.77313 1.16935 0
M  V30 12655 H 1228.76 -0.824096 0.468583 0
M  V30 12656 H 1228.47 -3.30616 1.19941 0
M  V30 12657 H 1228.34 -3.73919 -0.49641 0
M  V30 12658 H 1230.73 -2.82008 -0.869223 0
M  V30 12659 H 1230.81 -2.41241 0.85068 0
M  V30 12660 H 1230.45 -4.8741 1.42806 0
M  V30 12661 H 1230.38 -5.25684 -0.310444 0
M  V30 12662 H 1232.87 -3.77465 0.181373 0
M  V30 12663 H 1233.19 -7.66378 0.994251 0
M  V30 12664 H 1231.53 -6.89313 0.887265 0
M  V30 12665 H 1234.72 -4.6708 0.308784 0
M  V30 12666 H 1234.9 -6.4443 0.679236 0
M  V30 12667 N 1228.3 0.053464 -1.57509 0
M  V30 12668 C 1229.23 1.09391 -2.00272 0
M  V30 12669 C 1230.21 1.36553 -0.882727 0
M  V30 12670 O 1231.4 1.4962 -1.14657 0
M  V30 12671 C 1228.52 2.43424 -2.35505 0
M  V30 12672 C 1227.57 2.32278 -3.577 0
M  V30 12673 S 1228.4 1.69939 -5.0782 0
M  V30 12674 C 1229.56 3.05512 -5.46272 0
M  V30 12675 H 1229.79 0.729569 -2.88209 0
M  V30 12676 H 1227.32 0.262633 -1.5215 0
M  V30 12677 H 1229.28 3.20515 -2.56477 0
M  V30 12678 H 1227.94 2.77013 -1.48064 0
M  V30 12679 H 1227.14 3.31165 -3.79928 0
M  V30 12680 H 1226.74 1.63327 -3.36453 0
M  V30 12681 H 1229.03 4.0184 -5.45464 0
M  V30 12682 H 1229.97 2.88043 -6.46867 0
M  V30 12683 H 1230.38 3.06962 -4.73745 0
M  V30 12684 N 1229.78 1.54207 0.325255 0
M  V30 12685 C 1231.03 1.72331 1.0634 0
M  V30 12686 C 1231.35 0.496115 1.88066 0
M  V30 12687 O 1230.61 -0.52214 1.88606 0
M  V30 12688 C 1230.91 2.95 2.01766 0
M  V30 12689 C 1230.57 4.29835 1.36208 0
M  V30 12690 C 1229.24 4.66493 1.18059 0
M  V30 12691 C 1231.59 5.13521 0.891404 0
M  V30 12692 C 1228.92 5.84436 0.514894 0
M  V30 12693 C 1231.27 6.32146 0.239534 0
M  V30 12694 C 1229.93 6.67484 0.0458839 0
M  V30 12695 H 1229.2 0.630605 0.389125 0
M  V30 12696 H 1231.85 1.88445 0.34072 0
M  V30 12697 H 1230.15 2.73567 2.80479 0
M  V30 12698 H 1231.85 3.06217 2.58906 0
M  V30 12699 H 1228.44 4.00993 1.51335 0
M  V30 12700 H 1232.63 4.85718 1.01941 0
M  V30 12701 H 1227.88 6.10376 0.353644 0
M  V30 12702 H 1232.06 6.96273 -0.133185 0
M  V30 12703 H 1229.68 7.58733 -0.471978 0
M  V30 12704 N 1231.26 -0.58723 1.46251 0
M  V30 12705 C 1232.51 -1.34179 1.50595 0
M  V30 12706 C 1232.82 -1.94943 0.160171 0
M  V30 12707 O 1234.03 -2.71378 0.0813797 0
M  V30 12708 C 1232.48 -2.43159 2.65333 0
M  V30 12709 C 1232.09 -1.88718 4.06312 0
M  V30 12710 C 1233.83 -3.19986 2.78943 0
M  V30 12711 C 1231.74 -2.953 5.12398 0
M  V30 12712 H 1230.67 -0.504401 0.560442 0
M  V30 12713 H 1233.32 -0.627179 1.72449 0
M  V30 12714 H 1231.7 -3.17398 2.368 0
M  V30 12715 H 1232.88 -1.21051 4.44616 0
M  V30 12716 H 1231.19 -1.24572 3.97329 0
M  V30 12717 H 1233.79 -3.9952 3.5537 0
M  V30 12718 H 1234.13 -3.72288 1.86298 0
M  V30 12719 H 1234.67 -2.52852 3.07101 0
M  V30 12720 H 1231.4 -2.4789 6.0682 0
M  V30 12721 H 1230.92 -3.61469 4.78644 0
M  V30 12722 H 1232.6 -3.5933 5.38044 0
M  V30 12723 N 1232.74 -1.33881 -0.831482 0
M  V30 12724 C 1233.7 -1.24654 -1.92339 0
M  V30 12725 C 1234.7 -0.163788 -1.59964 0
M  V30 12726 O 1235.89 -0.415829 -1.69164 0
M  V30 12727 C 1233.02 -0.922537 -3.2818 0
M  V30 12728 H 1234.21 -2.21717 -2.01944 0
M  V30 12729 H 1231.77 -1.18046 -1.02445 0
M  V30 12730 H 1232.5 0.0452872 -3.24268 0
M  V30 12731 H 1232.29 -1.70562 -3.53059 0
M  V30 12732 H 1233.78 -0.88292 -4.0816 0
M  V30 12733 N 1234.21 1.05064 -1.1747 0
M  V30 12734 C 1235.16 2.14948 -0.888815 0
M  V30 12735 C 1236.16 1.68761 0.147038 0
M  V30 12736 O 1237.36 1.8 -0.000164278 0
M  V30 12737 H 1233.74 0.701898 -0.269894 0
M  V30 12738 H 1235.71 2.36265 -1.82268 0
M  V30 12739 C 1234.46 3.45154 -0.420006 0
M  V30 12740 H 1233.78 3.81096 -1.20854 0
M  V30 12741 H 1235.22 4.23209 -0.258866 0
M  V30 12742 C 1233.68 3.25671 0.862551 0
M  V30 12743 O 1234.21 3.5235 1.92906 0
M  V30 12744 N 1232.41 2.79048 0.81121 0
M  V30 12745 H 1231.96 2.57537 -0.0569025 0
M  V30 12746 H 1231.92 2.66392 1.66981 0
M  V30 12747 N 1235.69 0.975146 1.23809 0
M  V30 12748 C 1236.65 0.516157 2.23312 0
M  V30 12749 C 1237.65 -0.39136 1.55965 0
M  V30 12750 O 1238.84 -0.185783 1.73206 0
M  V30 12751 C 1235.98 -0.251534 3.39971 0
M  V30 12752 H 1237.17 1.3959 2.65433 0
M  V30 12753 H 1234.72 0.760493 1.36551 0
M  V30 12754 H 1235.46 -1.14805 3.03299 0
M  V30 12755 H 1235.24 0.399825 3.90056 0
M  V30 12756 H 1236.73 -0.561438 4.13809 0
M  V30 12757 N 1237.17 -1.38817 0.746158 0
M  V30 12758 C 1238.4 -2.0457 0.309605 0
M  V30 12759 C 1238.81 -1.5627 -1.05948 0
M  V30 12760 O 1238.17 -0.73248 -1.67156 0
M  V30 12761 C 1238.22 -3.60126 0.314843 0
M  V30 12762 O 1237.94 -4.06652 1.6299 0
M  V30 12763 C 1239.44 -4.4309 -0.136497 0
M  V30 12764 H 1236.66 -0.657597 0.133441 0
M  V30 12765 H 1239.21 -1.77651 1.01293 0
M  V30 12766 H 1237.36 -3.85908 -0.339685 0
M  V30 12767 H 1237.78 -5.01042 1.55103 0
M  V30 12768 H 1239.25 -5.5194 -0.0816714 0
M  V30 12769 H 1239.73 -4.22959 -1.18332 0
M  V30 12770 H 1240.33 -4.22481 0.488879 0
M  V30 12771 N 1238.65 -0.49465 -1.49636 0
M  V30 12772 C 1239.9 0.0520143 -2.02033 0
M  V30 12773 C 1240.22 1.38071 -1.37701 0
M  V30 12774 O 1239.49 1.88589 -0.530181 0
M  V30 12775 H 1238.07 0.0222123 -0.74667 0
M  V30 12776 H 1240.73 -0.650445 -1.83726 0
M  V30 12777 H 1239.82 0.186337 -3.11543 0
M  V30 12778 N 1240.13 1.55939 -0.228214 0
M  V30 12779 C 1241.37 2.00379 0.403442 0
M  V30 12780 C 1241.73 1.11264 1.56475 0
M  V30 12781 O 1242.93 1.45079 2.26287 0
M  V30 12782 C 1241.2 3.47851 0.820649 0
M  V30 12783 S 1242.76 4.14309 1.44547 0
M  V30 12784 H 1239.58 0.699426 0.127768 0
M  V30 12785 H 1242.18 1.92537 -0.339066 0
M  V30 12786 H 1240.88 4.10386 -0.0341308 0
M  V30 12787 H 1240.42 3.5958 1.5958 0
M  V30 12788 H 1242.43 4.14048 2.73456 0
M  V30 12789 N 1241.6 -0.0451101 1.57535 0
M  V30 12790 C 1242.83 -0.755068 1.93167 0
M  V30 12791 C 1243.25 -1.68949 0.826915 0
M  V30 12792 O 1242.61 -1.79978 -0.218534 0
M  V30 12793 C 1242.66 -1.50201 3.27829 0
M  V30 12794 O 1241.76 -2.61434 3.18945 0
M  V30 12795 H 1241.11 -0.204219 0.631815 0
M  V30 12796 H 1243.64 -0.00537504 2.04599 0
M  V30 12797 H 1243.65 -1.87547 3.6234 0
M  V30 12798 H 1242.32 -0.816591 4.07805 0
M  V30 12799 H 1240.9 -2.26749 2.96039 0
M  V30 12800 N 1243.08 -1.54377 -0.317073 0
M  V30 12801 C 1244.31 -1.77184 -1.07798 0
M  V30 12802 C 1244.73 -0.52204 -1.80711 0
M  V30 12803 O 1244.09 0.52672 -1.7348 0
M  V30 12804 C 1244.14 -2.96887 -2.04671 0
M  V30 12805 O 1243.24 -2.68887 -3.12688 0
M  V30 12806 H 1242.58 -0.586937 -0.310485 0
M  V30 12807 H 1245.11 -2.01419 -0.35939 0
M  V30 12808 H 1245.12 -3.24414 -2.47426 0
M  V30 12809 H 1243.8 -3.87518 -1.51005 0
M  V30 12810 H 1242.38 -2.52329 -2.74562 0
M  V30 12811 N 1244.56 0.579466 -1.4656 0
M  V30 12812 C 1245.81 1.33379 -1.51304 0
M  V30 12813 C 1246.12 1.94855 -0.170507 0
M  V30 12814 O 1247.33 2.71331 -0.0957704 0
M  V30 12815 C 1245.78 2.41748 -2.66619 0
M  V30 12816 C 1245.39 1.8656 -4.07307 0
M  V30 12817 C 1247.14 3.18502 -2.80636 0
M  V30 12818 C 1245.04 2.92578 -5.13957 0
M  V30 12819 H 1243.97 0.501422 -0.56311 0
M  V30 12820 H 1246.62 0.618025 -1.72779 0
M  V30 12821 H 1245.01 3.16138 -2.3848 0
M  V30 12822 H 1246.18 1.18692 -4.45252 0
M  V30 12823 H 1244.5 1.22464 -3.97984 0
M  V30 12824 H 1247.09 3.9763 -3.57483 0
M  V30 12825 H 1247.44 3.71295 -1.8827 0
M  V30 12826 H 1247.97 2.51219 -3.08437 0
M  V30 12827 H 1244.71 2.44668 -6.08126 0
M  V30 12828 H 1244.23 3.58926 -4.80554 0
M  V30 12829 H 1245.91 3.56471 -5.39942 0
M  V30 12830 N 1246.04 1.3432 0.824371 0
M  V30 12831 C 1247.28 1.27792 1.58243 0
M  V30 12832 C 1247.64 -0.151189 1.91805 0
M  V30 12833 O 1246.93 -1.09708 1.57082 0
M  V30 12834 C 1247.13 2.1008 2.89139 0
M  V30 12835 C 1246.96 3.60848 2.68363 0
M  V30 12836 C 1245.73 4.3013 2.65172 0
M  V30 12837 C 1247.92 4.54878 2.39979 0
M  V30 12838 N 1245.91 5.66756 2.35927 0
M  V30 12839 C 1247.28 5.79497 2.20415 0
M  V30 12840 C 1249.33 4.43809 2.25695 0
M  V30 12841 C 1248.03 6.94293 1.88015 0
M  V30 12842 C 1250.06 5.58435 1.9469 0
M  V30 12843 C 1249.42 6.82071 1.75948 0
M  V30 12844 H 1245.52 0.522853 0.581505 0
M  V30 12845 H 1248.11 1.69017 0.96651 0
M  V30 12846 H 1246.28 1.71154 3.48656 0
M  V30 12847 H 1248.01 1.95208 3.54508 0
M  V30 12848 H 1244.76 3.82554 2.79194 0
M  V30 12849 H 1245.19 6.38817 2.24148 0
M  V30 12850 H 1249.83 3.48842 2.38891 0
M  V30 12851 H 1247.55 7.89242 1.73557 0
M  V30 12852 H 1251.13 5.51814 1.84372 0
M  V30 12853 H 1250.01 7.69268 1.52304 0
M  V30 12854 N 1247.52 -1.0444 1.18026 0
M  V30 12855 C 1248.76 -1.77224 0.971391 0
M  V30 12856 C 1249.09 -1.88466 -0.500564 0
M  V30 12857 O 1248.36 -1.40692 -1.36317 0
M  V30 12858 H 1246.94 -0.656485 0.356422 0
M  V30 12859 H 1249.6 -1.26064 1.4864 0
M  V30 12860 H 1248.69 -2.78626 1.4062 0
M  V30 12861 N 1248.99 -0.981699 -1.2329 0
M  V30 12862 C 1249.96 -0.527992 -2.23036 0
M  V30 12863 C 1250.96 0.383083 -1.5617 0
M  V30 12864 O 1252.15 0.176595 -1.73303 0
M  V30 12865 C 1249.28 0.233501 -3.40099 0
M  V30 12866 H 1250.47 -1.40995 -2.64689 0
M  V30 12867 H 1248.03 -0.767724 -1.36146 0
M  V30 12868 H 1248.76 1.13194 -3.03904 0
M  V30 12869 H 1248.55 -0.420505 -3.89839 0
M  V30 12870 H 1250.04 0.539485 -4.14101 0
M  V30 12871 N 1250.47 1.3842 -0.753509 0
M  V30 12872 C 1251.7 2.04929 -0.319174 0
M  V30 12873 C 1252.12 1.56457 1.04416 0
M  V30 12874 O 1251.48 0.716527 1.6654 0
M  V30 12875 C 1251.53 3.58887 -0.351054 0
M  V30 12876 O 1250.63 4.07166 0.654963 0
M  V30 12877 H 1249.97 0.648782 -0.141343 0
M  V30 12878 H 1252.5 1.77096 -1.02461 0
M  V30 12879 H 1252.51 4.075 -0.201907 0
M  V30 12880 H 1251.19 3.93525 -1.34576 0
M  V30 12881 H 1249.77 3.69921 0.470435 0
M  V30 12882 N 1251.95 0.502579 1.49372 0
M  V30 12883 C 1252.91 -0.263993 2.27675 0
M  V30 12884 C 1253.91 -0.892538 1.33755 0
M  V30 12885 O 1255.1 -0.756826 1.56901 0
M  V30 12886 C 1252.24 -1.37895 3.11765 0
M  V30 12887 H 1253.43 0.423132 2.969 0
M  V30 12888 H 1250.98 0.257595 1.54163 0
M  V30 12889 H 1251.72 -2.10018 2.47109 0
M  V30 12890 H 1251.5 -0.933694 3.80821 0
M  V30 12891 H 1252.99 -1.91889 3.70902 0
M  V30 12892 N 1253.43 -1.55816 0.23648 0
M  V30 12893 C 1254.84 -1.84757 -0.268622 0
M  V30 12894 C 1255.19 -1.15815 -1.58371 0
M  V30 12895 O 1254.32 -0.432923 -2.12025 0
M  V30 12896 C 1254.91 -3.35177 -0.494167 0
M  V30 12897 C 1253.47 -3.64382 -0.943551 0
M  V30 12898 C 1252.62 -2.77296 -0.0149191 0
M  V30 12899 H 1255.57 -1.51908 0.459308 0
M  V30 12900 H 1255.59 -3.56192 -1.3382 0
M  V30 12901 H 1255.1 -3.85327 0.463138 0
M  V30 12902 H 1253.2 -3.19701 -1.91369 0
M  V30 12903 H 1253.31 -4.72244 -0.807626 0
M  V30 12904 H 1251.68 -2.49243 -0.524419 0
M  V30 12905 H 1252.46 -3.30249 0.937571 0
M  V30 12906 N 1254.91 0.036755 -1.57557 0
M  V30 12907 C 1256.13 0.744813 -1.93565 0
M  V30 12908 C 1256.56 1.68508 -0.835863 0
M  V30 12909 O 1255.91 1.80091 0.208986 0
M  V30 12910 C 1255.96 1.48461 -3.28621 0
M  V30 12911 O 1255.07 2.59739 -3.20327 0
M  V30 12912 H 1254.41 0.200866 -0.632889 0
M  V30 12913 H 1256.94 -0.00547543 -2.04599 0
M  V30 12914 H 1256.95 1.85622 -3.63329 0
M  V30 12915 H 1255.62 0.794953 -4.08232 0
M  V30 12916 H 1254.2 2.25176 -2.97237 0
M  V30 12917 N 1256.39 1.54543 0.308881 0
M  V30 12918 C 1257.32 1.79818 1.40502 0
M  V30 12919 C 1258.3 0.648927 1.4909 0
M  V30 12920 O 1259.48 0.888009 1.66273 0
M  V30 12921 C 1256.61 1.92787 2.7848 0
M  V30 12922 C 1255.65 3.15167 2.87353 0
M  V30 12923 S 1256.49 4.73427 2.50255 0
M  V30 12924 C 1257.64 4.89321 3.90276 0
M  V30 12925 H 1257.88 2.7251 1.18852 0
M  V30 12926 H 1255.41 1.45854 0.506551 0
M  V30 12927 H 1257.37 2.00944 3.57955 0
M  V30 12928 H 1256.03 1.01047 2.97403 0
M  V30 12929 H 1255.22 3.2102 3.88538 0
M  V30 12930 H 1254.82 3.05416 2.15864 0
M  V30 12931 H 1257.11 4.7286 4.8519 0
M  V30 12932 H 1258.06 5.91418 3.89398 0
M  V30 12933 H 1258.47 4.17524 3.79913 0
M  V30 12934 N 1257.86 -0.571685 1.46866 0
M  V30 12935 C 1259.27 -1.15383 1.46778 0
M  V30 12936 C 1259.63 -1.95023 0.214576 0
M  V30 12937 O 1258.75 -2.05386 -0.681574 0
M  V30 12938 C 1259.35 -2.09915 2.65935 0
M  V30 12939 C 1257.9 -2.6343 2.68852 0
M  V30 12940 C 1257.05 -1.39517 2.39646 0
M  V30 12941 H 1260 -0.359036 1.54585 0
M  V30 12942 H 1260.02 -2.9356 2.42081 0
M  V30 12943 H 1259.54 -1.51923 3.57129 0
M  V30 12944 H 1257.64 -3.2526 1.8176 0
M  V30 12945 H 1257.75 -3.05412 3.69134 0
M  V30 12946 H 1256.11 -1.69702 1.8993 0
M  V30 12947 H 1256.9 -0.833399 3.33031 0
M  V30 12948 N 1259.34 -1.34755 -0.817236 0
M  V30 12949 C 1260.57 -1.30333 -1.60303 0
M  V30 12950 C 1260.98 0.12357 -1.88796 0
M  V30 12951 O 1260.32 1.08279 -1.48396 0
M  V30 12952 C 1260.38 -2.03179 -2.96578 0
M  V30 12953 C 1260.05 -3.52414 -2.90952 0
M  V30 12954 C 1261.05 -4.47213 -2.65136 0
M  V30 12955 C 1258.73 -3.9491 -3.10405 0
M  V30 12956 C 1260.72 -5.82481 -2.58832 0
M  V30 12957 C 1258.41 -5.30277 -3.03726 0
M  V30 12958 C 1259.41 -6.23875 -2.77973 0
M  V30 12959 O 1259.1 -7.5676 -2.71237 0
M  V30 12960 H 1258.83 -0.449615 -0.5048 0
M  V30 12961 H 1261.38 -1.7803 -1.02443 0
M  V30 12962 H 1259.61 -1.50104 -3.56379 0
M  V30 12963 H 1261.3 -1.91972 -3.57633 0
M  V30 12964 H 1262.07 -4.157 -2.49836 0
M  V30 12965 H 1257.95 -3.22451 -3.29464 0
M  V30 12966 H 1261.49 -6.55508 -2.38652 0
M  V30 12967 H 1257.39 -5.61406 -3.1858 0
M  V30 12968 H 1258.16 -7.66562 -2.86923 0
M  V30 12969 N 1260.82 1.03812 -1.18578 0
M  V30 12970 C 1261.77 2.11883 -0.915115 0
M  V30 12971 C 1262.74 1.65453 0.146479 0
M  V30 12972 O 1263.92 1.90799 0.00630058 0
M  V30 12973 C 1261.06 3.42157 -0.449755 0
M  V30 12974 C 1260.17 4.02185 -1.57706 0
M  V30 12975 C 1259.31 5.20431 -1.06417 0
M  V30 12976 C 1258.35 5.72496 -2.16599 0
M  V30 12977 N 1257.49 6.82027 -1.66685 0
M  V30 12978 H 1262.33 2.34373 -1.84047 0
M  V30 12979 H 1259.86 1.14962 -0.917728 0
M  V30 12980 H 1261.82 4.16888 -0.161407 0
M  V30 12981 H 1260.45 3.19806 0.438622 0
M  V30 12982 H 1259.5 3.24757 -1.98083 0
M  V30 12983 H 1260.81 4.36851 -2.40754 0
M  V30 12984 H 1259.97 6.02286 -0.730497 0
M  V30 12985 H 1258.71 4.87276 -0.203301 0
M  V30 12986 H 1257.71 4.8926 -2.50808 0
M  V30 12987 H 1258.94 6.07694 -3.03126 0
M  V30 12988 H 1256.88 6.50742 -0.828916 0
M  V30 12989 H 1256.8 7.1577 -2.43329 0
M  V30 12990 H 1258.07 7.67499 -1.36253 0
M  V30 12991 N 1262.3 0.988223 1.22768 0
M  V30 12992 C 1263.53 0.679743 1.95415 0
M  V30 12993 C 1263.94 -0.754731 1.73059 0
M  V30 12994 O 1263.3 -1.50876 1.02678 0
M  V30 12995 C 1263.35 0.970344 3.48234 0
M  V30 12996 O 1263.07 2.34845 3.69837 0
M  V30 12997 C 1264.57 0.67891 4.3807 0
M  V30 12998 H 1261.79 0.251847 0.621944 0
M  V30 12999 H 1264.33 1.32173 1.56047 0
M  V30 13000 H 1262.49 0.374241 3.85588 0
M  V30 13001 H 1262.9 2.44412 4.64072 0
M  V30 13002 H 1264.38 0.932549 5.44066 0
M  V30 13003 H 1264.85 -0.387073 4.37491 0
M  V30 13004 H 1265.46 1.25585 4.06335 0
M  V30 13005 N 1263.78 -1.38018 0.760839 0
M  V30 13006 C 1264.72 -2.32251 0.127425 0
M  V30 13007 C 1265.72 -1.54387 -0.69722 0
M  V30 13008 O 1266.92 -1.69864 -0.595505 0
M  V30 13009 H 1263.3 -0.751666 0.0224141 0
M  V30 13010 H 1265.27 -2.8327 0.93813 0
M  V30 13011 C 1264.02 -3.39606 -0.745849 0
M  V30 13012 H 1263.34 -3.99618 -0.120679 0
M  V30 13013 H 1264.78 -4.07931 -1.15621 0
M  V30 13014 C 1263.24 -2.78778 -1.89167 0
M  V30 13015 O 1263.77 -2.68661 -2.98637 0
M  V30 13016 N 1261.98 -2.36481 -1.68894 0
M  V30 13017 H 1261.52 -2.4491 -0.798551 0
M  V30 13018 H 1261.48 -1.96126 -2.45728 0
M  V30 13019 N 1265.25 -0.510493 -1.49103 0
M  V30 13020 C 1266.67 -0.167061 -1.58723 0
M  V30 13021 C 1266.87 1.32886 -1.51471 0
M  V30 13022 O 1265.93 2.10559 -1.39359 0
M  V30 13023 C 1267.24 -0.752293 -2.91137 0
M  V30 13024 C 1268.79 -0.719258 -3.04624 0
M  V30 13025 C 1269.26 -1.28272 -4.39671 0
M  V30 13026 N 1270.75 -1.24383 -4.46187 0
M  V30 13027 C 1271.49 -1.6499 -5.4915 0
M  V30 13028 N 1270.98 -2.13235 -6.59168 0
M  V30 13029 N 1272.78 -1.56348 -5.39918 0
M  V30 13030 H 1264.93 -1.48296 -1.5206 0
M  V30 13031 H 1267.19 -0.615683 -0.72086 0
M  V30 13032 H 1266.9 -1.80178 -3.02041 0
M  V30 13033 H 1266.77 -0.218152 -3.76569 0
M  V30 13034 H 1269.16 0.321413 -2.93344 0
M  V30 13035 H 1269.24 -1.29065 -2.20852 0
M  V30 13036 H 1268.88 -2.32222 -4.51703 0
M  V30 13037 H 1268.81 -0.687179 -5.22097 0
M  V30 13038 H 1271.3 -0.890446 -3.67259 0
M  V30 13039 H 1271.62 -2.42266 -7.33844 0
M  V30 13040 H 1269.96 -2.17216 -6.60183 0
M  V30 13041 H 1273.15 -1.18469 -4.52861 0
M  V30 13042 H 1273.33 -1.88317 -6.20033 0
M  V30 13043 N 1266.73 1.55688 -0.24474 0
M  V30 13044 C 1267.66 2.24272 0.64995 0
M  V30 13045 C 1268.64 1.22226 1.183 0
M  V30 13046 O 1269.83 1.50873 1.22274 0
M  V30 13047 C 1266.96 2.94053 1.84798 0
M  V30 13048 C 1265.91 4.02769 1.44779 0
M  V30 13049 C 1265.24 4.59965 2.72647 0
M  V30 13050 C 1266.54 5.18601 0.62047 0
M  V30 13051 H 1268.23 2.99298 0.0780654 0
M  V30 13052 H 1265.78 1.43955 0.0361069 0
M  V30 13053 H 1267.73 3.40732 2.47951 0
M  V30 13054 H 1266.45 2.16511 2.44521 0
M  V30 13055 H 1265.11 3.56856 0.839609 0
M  V30 13056 H 1264.76 3.79126 3.30564 0
M  V30 13057 H 1264.46 5.33352 2.46596 0
M  V30 13058 H 1265.99 5.09376 3.36703 0
M  V30 13059 H 1267.4 5.61519 1.15625 0
M  V30 13060 H 1265.8 5.98364 0.456097 0
M  V30 13061 H 1266.87 4.83503 -0.367798 0
M  V30 13062 N 1268.21 -0.0283989 1.57574 0
M  V30 13063 C 1269.46 -0.717656 1.88929 0
M  V30 13064 C 1269.78 -1.7586 0.842517 0
M  V30 13065 O 1269.05 -1.95509 -0.123774 0
M  V30 13066 H 1267.63 -0.268051 0.69725 0
M  V30 13067 H 1270.29 0.00580691 1.94899 0
M  V30 13068 H 1269.39 -1.2068 2.87824 0
M  V30 13069 N 1269.69 -1.54705 -0.300681 0
M  V30 13070 C 1270.62 -1.8205 -1.39249 0
M  V30 13071 C 1271.63 -0.703476 -1.46816 0
M  V30 13072 O 1272.82 -0.980957 -1.49129 0
M  V30 13073 C 1269.92 -1.94376 -2.77617 0
M  V30 13074 C 1269.09 -3.2478 -2.92979 0
M  V30 13075 C 1268.15 -3.27518 -4.11848 0
M  V30 13076 O 1267.18 -4.01047 -4.03918 0
M  V30 13077 N 1268.38 -2.52932 -5.22499 0
M  V30 13078 H 1271.15 -2.76279 -1.16146 0
M  V30 13079 H 1268.71 -1.54283 -0.49075 0
M  V30 13080 H 1270.7 -1.93609 -3.55384 0
M  V30 13081 H 1269.27 -1.07141 -2.93666 0
M  V30 13082 H 1268.49 -3.38319 -2.02322 0
M  V30 13083 H 1269.78 -4.10835 -3.00153 0
M  V30 13084 H 1269.18 -1.92825 -5.31822 0
M  V30 13085 H 1267.73 -2.57919 -5.98599 0
M  V30 13086 N 1271.17 0.563888 -1.47167 0
M  V30 13087 C 1272.41 1.31875 -1.53145 0
M  V30 13088 C 1272.74 1.94047 -0.192518 0
M  V30 13089 O 1272.01 1.79577 0.782872 0
M  V30 13090 H 1270.59 0.489694 -0.5641 0
M  V30 13091 H 1273.25 0.658976 -1.83422 0
M  V30 13092 H 1272.34 2.11574 -2.2944 0
M  V30 13093 N 1272.64 1.35187 0.810078 0
M  V30 13094 C 1274.06 1.25329 1.38381 0
M  V30 13095 C 1274.41 -0.115799 1.95858 0
M  V30 13096 O 1273.53 -1.01663 1.91033 0
M  V30 13097 C 1274.13 2.2693 2.51572 0
M  V30 13098 C 1272.69 2.20824 3.04818 0
M  V30 13099 C 1271.83 2.1283 1.7776 0
M  V30 13100 H 1274.78 1.46366 0.613402 0
M  V30 13101 H 1274.8 1.89375 3.30026 0
M  V30 13102 H 1274.32 3.26563 2.09709 0
M  V30 13103 H 1272.42 1.24589 3.51153 0
M  V30 13104 H 1272.53 3.12637 3.63036 0
M  V30 13105 H 1270.89 1.58752 1.99173 0
M  V30 13106 H 1271.68 3.14318 1.38054 0
M  V30 13107 N 1274.12 -1.03182 1.19127 0
M  V30 13108 C 1275.09 -2.09559 0.928307 0
M  V30 13109 C 1276.09 -1.60548 -0.0899992 0
M  V30 13110 O 1277.28 -1.736 0.144422 0
M  V30 13111 C 1274.41 -3.38609 0.394561 0
M  V30 13112 H 1275.6 -2.34321 1.87173 0
M  V30 13113 H 1273.15 -1.19746 1.00452 0
M  V30 13114 H 1273.89 -3.19515 -0.555046 0
M  V30 13115 H 1273.67 -3.75502 1.12873 0
M  V30 13116 H 1275.16 -4.16969 0.229569 0
M  V30 13117 N 1275.6 -0.99472 -1.22242 0
M  V30 13118 C 1276.85 -0.682256 -1.91616 0
M  V30 13119 C 1277.2 0.777397 -1.75995 0
M  V30 13120 O 1276.49 1.55509 -1.11926 0
M  V30 13121 C 1276.69 -1.02561 -3.42368 0
M  V30 13122 C 1276.52 -2.5171 -3.72656 0
M  V30 13123 C 1275.29 -3.18144 -3.92571 0
M  V30 13124 C 1277.49 -3.49835 -3.76988 0
M  V30 13125 N 1275.47 -4.5675 -4.10186 0
M  V30 13126 C 1276.84 -4.73907 -3.99765 0
M  V30 13127 C 1278.89 -3.44116 -3.59845 0
M  V30 13128 C 1277.6 -5.92957 -4.07179 0
M  V30 13129 C 1279.62 -4.62545 -3.68519 0
M  V30 13130 C 1278.98 -5.85417 -3.91748 0
M  V30 13131 H 1275.08 -0.300961 -0.721766 0
M  V30 13132 H 1277.67 -1.2751 -1.47137 0
M  V30 13133 H 1275.84 -0.461327 -3.85651 0
M  V30 13134 H 1277.57 -0.66895 -3.99133 0
M  V30 13135 H 1274.33 -2.68608 -3.9006 0
M  V30 13136 H 1274.75 -5.28649 -4.22917 0
M  V30 13137 H 1279.39 -2.50134 -3.40871 0
M  V30 13138 H 1277.11 -6.87341 -4.24956 0
M  V30 13139 H 1280.7 -4.59711 -3.56591 0
M  V30 13140 H 1279.58 -6.75525 -3.98291 0
M  V30 13141 N 1277.08 1.37613 -0.768148 0
M  V30 13142 C 1278.33 1.99384 -0.330187 0
M  V30 13143 C 1278.65 1.61283 1.09604 0
M  V30 13144 O 1277.92 0.876551 1.75195 0
M  V30 13145 H 1276.5 0.737445 -0.119095 0
M  V30 13146 H 1279.16 1.6815 -0.985476 0
M  V30 13147 H 1278.26 3.09462 -0.40494 0
M  V30 13148 N 1278.56 0.518393 1.4883 0
M  V30 13149 C 1279.5 -0.264197 2.31095 0
M  V30 13150 C 1280.5 -0.946455 1.40494 0
M  V30 13151 O 1281.7 -0.872161 1.57459 0
M  V30 13152 H 1278.08 -0.104065 0.744765 0
M  V30 13153 H 1280.05 0.449375 2.94997 0
M  V30 13154 C 1278.8 -1.30527 3.2227 0
M  V30 13155 H 1278.12 -0.789695 3.91923 0
M  V30 13156 H 1279.56 -1.82449 3.82738 0
M  V30 13157 C 1278.02 -2.33274 2.43073 0
M  V30 13158 O 1278.55 -3.39493 2.14726 0
M  V30 13159 N 1276.76 -2.06189 2.04779 0
M  V30 13160 H 1276.3 -1.19829 2.28033 0
M  V30 13161 H 1276.26 -2.7516 1.521 0
M  V30 13162 N 1280.03 -1.55556 0.252993 0
M  V30 13163 C 1281.26 -2.03945 -0.376965 0
M  V30 13164 C 1281.68 -1.13089 -1.50308 0
M  V30 13165 O 1281.04 -0.125039 -1.80868 0
M  V30 13166 C 1281.09 -3.50284 -0.856363 0
M  V30 13167 O 1280.19 -3.62551 -1.96546 0
M  V30 13168 H 1279.54 -0.659002 -0.081317 0
M  V30 13169 H 1282.07 -2.01024 0.380831 0
M  V30 13170 H 1282.08 -3.91222 -1.15798 0
M  V30 13171 H 1280.75 -4.15887 -0.0323302 0
M  V30 13172 H 1279.33 -3.33511 -1.66808 0
M  V30 13173 N 1281.51 0.0200419 -1.57587 0
M  V30 13174 C 1282.44 1.01715 -2.10181 0
M  V30 13175 C 1283.42 1.37136 -1.00636 0
M  V30 13176 O 1284.61 1.45862 -1.2821 0
M  V30 13177 C 1281.74 2.31531 -2.58865 0
M  V30 13178 C 1280.69 2.10327 -3.72755 0
M  V30 13179 C 1280.02 3.45981 -4.07678 0
M  V30 13180 C 1281.32 1.4821 -5.0083 0
M  V30 13181 H 1283.01 0.579307 -2.93742 0
M  V30 13182 H 1280.56 0.277211 -1.41307 0
M  V30 13183 H 1282.51 3.01623 -2.94281 0
M  V30 13184 H 1281.24 2.77392 -1.72399 0
M  V30 13185 H 1279.89 1.42665 -3.37701 0
M  V30 13186 H 1279.54 3.89508 -3.18265 0
M  V30 13187 H 1279.24 3.32616 -4.84397 0
M  V30 13188 H 1280.77 4.17421 -4.45637 0
M  V30 13189 H 1282.18 2.08232 -5.34146 0
M  V30 13190 H 1280.58 1.45393 -5.82221 0
M  V30 13191 H 1281.65 0.448942 -4.82817 0
M  V30 13192 N 1282.99 1.54862 0.292472 0
M  V30 13193 C 1284.24 1.74548 1.02661 0
M  V30 13194 C 1284.57 0.535895 1.86972 0
M  V30 13195 O 1283.82 -0.482016 1.89671 0
M  V30 13196 C 1284.12 2.99214 1.95463 0
M  V30 13197 C 1283.79 4.32628 1.2706 0
M  V30 13198 C 1282.45 4.68892 1.08138 0
M  V30 13199 C 1284.8 5.15296 0.782278 0
M  V30 13200 C 1282.13 5.85397 0.39081 0
M  V30 13201 C 1284.48 6.32512 0.105392 0
M  V30 13202 C 1283.14 6.67431 -0.0957097 0
M  V30 13203 H 1282.41 0.638717 0.375662 0
M  V30 13204 H 1285.06 1.89125 0.300672 0
M  V30 13205 H 1283.37 2.79454 2.74613 0
M  V30 13206 H 1285.06 3.1164 2.52352 0
M  V30 13207 H 1281.65 4.04113 1.42796 0
M  V30 13208 H 1285.84 4.87771 0.916151 0
M  V30 13209 H 1281.09 6.10989 0.224095 0
M  V30 13210 H 1285.27 6.95833 -0.280845 0
M  V30 13211 H 1282.89 7.57562 -0.63281 0
M  V30 13212 N 1284.47 -0.556076 1.47464 0
M  V30 13213 C 1285.38 -1.69043 1.62671 0
M  V30 13214 C 1286.39 -1.66372 0.509535 0
M  V30 13215 O 1287.57 -1.85799 0.777218 0
M  V30 13216 C 1284.64 -3.05546 1.63836 0
M  V30 13217 C 1283.7 -3.19275 2.86988 0
M  V30 13218 C 1282.93 -4.49267 2.88088 0
M  V30 13219 O 1283.15 -5.34796 1.98368 0
M  V30 13220 O 1282.09 -4.66811 3.79962 0
M  V30 13221 H 1285.91 -1.59155 2.58657 0
M  V30 13222 H 1283.5 -0.726211 1.30562 0
M  V30 13223 H 1285.38 -3.86778 1.67275 0
M  V30 13224 H 1284.05 -3.15814 0.710173 0
M  V30 13225 H 1282.96 -2.37437 2.89093 0
M  V30 13226 H 1284.29 -3.13912 3.79104 0
M  V30 13227 N 1285.95 -1.35615 -0.802897 0
M  V30 13228 C 1287.22 -1.19655 -1.54732 0
M  V30 13229 C 1287.6 0.222827 -2.09921 0
M  V30 13230 O 1286.95 1.2268 -1.92774 0
M  V30 13231 C 1287.16 -2.26761 -2.65293 0
M  V30 13232 C 1288.51 -2.62754 -3.33535 0
M  V30 13233 O 1289.53 -2.25702 -2.75567 0
M  V30 13234 O 1288.39 -3.26476 -4.38264 0
M  V30 13235 H 1285.49 -0.465079 -0.683835 0
M  V30 13236 H 1288.03 -1.47307 -0.84254 0
M  V30 13237 H 1286.81 -3.21946 -2.22411 0
M  V30 13238 H 1286.43 -2.00399 -3.43404 0
M  V30 13239 N 1287.43 1.02549 -1.19673 0
M  V30 13240 C 1288.39 2.09064 -0.939407 0
M  V30 13241 C 1289.39 1.60593 0.0814837 0
M  V30 13242 O 1290.58 1.73521 -0.153626 0
M  V30 13243 C 1287.71 3.38395 -0.412513 0
M  V30 13244 H 1288.9 2.33325 -1.88413 0
M  V30 13245 H 1286.46 1.19211 -1.01086 0
M  V30 13246 H 1287.19 3.19805 0.538094 0
M  V30 13247 H 1286.98 3.74898 -1.14863 0
M  V30 13248 H 1288.47 4.16841 -0.251678 0
M  V30 13249 N 1288.9 1.00119 1.21713 0
M  V30 13250 C 1289.87 0.563409 2.22167 0
M  V30 13251 C 1290.87 -0.35819 1.5676 0
M  V30 13252 O 1292.06 -0.149001 1.73562 0
M  V30 13253 C 1289.19 -0.179365 3.40428 0
M  V30 13254 H 1290.38 1.45189 2.62412 0
M  V30 13255 H 1287.93 0.789286 1.34907 0
M  V30 13256 H 1288.67 -1.08345 3.05666 0
M  V30 13257 H 1288.45 0.482471 3.8912 0
M  V30 13258 H 1289.94 -0.473537 4.14906 0
M  V30 13259 N 1290.38 -1.37203 0.775435 0
M  V30 13260 C 1291.29 -2.34019 0.165062 0
M  V30 13261 C 1292.31 -1.6036 -0.675316 0
M  V30 13262 O 1293.48 -1.9243 -0.594375 0
M  V30 13263 C 1290.55 -3.3954 -0.700957 0
M  V30 13264 C 1289.61 -4.29015 0.156304 0
M  V30 13265 C 1288.84 -5.29497 -0.668476 0
M  V30 13266 O 1289.07 -5.37636 -1.90535 0
M  V30 13267 O 1288 -6.01852 -0.0757351 0
M  V30 13268 H 1291.83 -2.87955 0.965184 0
M  V30 13269 H 1289.41 -1.39429 0.536654 0
M  V30 13270 H 1291.29 -4.04094 -1.19524 0
M  V30 13271 H 1289.97 -2.87926 -1.4792 0
M  V30 13272 H 1288.87 -3.67549 0.69703 0
M  V30 13273 H 1290.21 -4.83944 0.897725 0
M  V30 13274 N 1291.86 -0.526279 -1.48553 0
M  V30 13275 C 1293.09 0.00522012 -2.06599 0
M  V30 13276 C 1293.5 1.29039 -1.38368 0
M  V30 13277 O 1292.84 1.77747 -0.463854 0
M  V30 13278 C 1292.9 0.303512 -3.58216 0
M  V30 13279 C 1292.57 -0.887635 -4.48297 0
M  V30 13280 C 1293.56 -1.78504 -4.88295 0
M  V30 13281 C 1291.25 -1.09359 -4.90251 0
M  V30 13282 C 1293.24 -2.87233 -5.69013 0
M  V30 13283 C 1290.93 -2.18402 -5.7074 0
M  V30 13284 C 1291.93 -3.07172 -6.10028 0
M  V30 13285 O 1291.62 -4.14329 -6.88902 0
M  V30 13286 H 1291.35 -0.0287033 -0.67539 0
M  V30 13287 H 1293.9 -0.730244 -1.91981 0
M  V30 13288 H 1292.13 1.0929 -3.70935 0
M  V30 13289 H 1293.82 0.776647 -3.98401 0
M  V30 13290 H 1294.59 -1.63785 -4.56508 0
M  V30 13291 H 1290.47 -0.411922 -4.59156 0
M  V30 13292 H 1294.01 -3.56549 -5.99599 0
M  V30 13293 H 1289.91 -2.33106 -6.0194 0
M  V30 13294 H 1290.67 -4.11993 -7.07251 0
M  V30 13295 N 1293.34 1.5542 -0.261239 0
M  V30 13296 C 1294.59 1.9889 0.358777 0
M  V30 13297 C 1294.91 1.15092 1.57413 0
M  V30 13298 O 1294.18 0.237095 1.9446 0
M  V30 13299 H 1292.76 0.734599 0.13555 0
M  V30 13300 H 1295.42 1.91483 -0.363357 0
M  V30 13301 H 1294.51 3.05082 0.658142 0
M  V30 13302 N 1294.82 -0.0116844 1.57596 0
M  V30 13303 C 1296.06 -0.698958 1.90055 0
M  V30 13304 C 1296.39 -1.74422 0.860659 0
M  V30 13305 O 1295.65 -1.95226 -0.136132 0
M  V30 13306 C 1295.94 -1.38985 3.29269 0
M  V30 13307 C 1295.61 -0.478916 4.48349 0
M  V30 13308 C 1294.27 -0.228071 4.80659 0
M  V30 13309 C 1296.62 0.14897 5.20987 0
M  V30 13310 C 1293.95 0.659147 5.82986 0
M  V30 13311 C 1296.3 1.02399 6.24257 0
M  V30 13312 C 1294.97 1.28413 6.55032 0
M  V30 13313 H 1294.24 -0.255767 0.69546 0
M  V30 13314 H 1296.89 0.0413339 1.91455 0
M  V30 13315 H 1295.19 -2.2039 3.23937 0
M  V30 13316 H 1296.89 -1.92747 3.51638 0
M  V30 13317 H 1293.48 -0.68459 4.23097 0
M  V30 13318 H 1297.66 -0.0318326 4.9629 0
M  V30 13319 H 1292.92 0.86882 6.05195 0
M  V30 13320 H 1297.09 1.51694 6.79678 0
M  V30 13321 H 1294.72 1.97332 7.34142 0
M  V30 13322 N 1296.29 -1.55015 -0.284256 0
M  V30 13323 C 1297.54 -1.74744 -1.01532 0
M  V30 13324 C 1297.86 -0.545334 -1.87219 0
M  V30 13325 O 1297.13 0.440046 -1.90894 0
M  V30 13326 H 1295.71 -0.644382 -0.377864 0
M  V30 13327 H 1298.37 -1.92399 -0.311199 0
M  V30 13328 H 1297.47 -2.64369 -1.65878 0
M  V30 13329 N 1297.77 0.548248 -1.47757 0
M  V30 13330 C 1298.7 1.6705 -1.55466 0
M  V30 13331 C 1299.68 1.57444 -0.406208 0
M  V30 13332 O 1300.87 1.78176 -0.615268 0
M  V30 13333 C 1297.99 3.0535 -1.46558 0
M  V30 13334 C 1297.04 3.33372 -2.66017 0
M  V30 13335 S 1297.87 3.21643 -4.28143 0
M  V30 13336 C 1299.03 4.62421 -4.21803 0
M  V30 13337 H 1299.26 1.60258 -2.50409 0
M  V30 13338 H 1296.79 0.72978 -1.36065 0
M  V30 13339 H 1298.75 3.85118 -1.42106 0
M  V30 13340 H 1297.41 3.09599 -0.529838 0
M  V30 13341 H 1296.61 4.34218 -2.55873 0
M  V30 13342 H 1296.21 2.6124 -2.67638 0
M  V30 13343 H 1298.5 5.53561 -3.9061 0
M  V30 13344 H 1299.44 4.77621 -5.22766 0
M  V30 13345 H 1299.85 4.40887 -3.52532 0
M  V30 13346 N 1299.25 1.36039 0.795694 0
M  V30 13347 C 1300.2 1.29902 1.92946 0
M  V30 13348 C 1301.19 0.191943 1.68309 0
M  V30 13349 O 1302.4 0.358577 1.76392 0
M  V30 13350 H 1298.77 0.404252 0.634101 0
M  V30 13351 H 1300.74 2.25663 1.95241 0
M  V30 13352 C 1299.49 1.09887 3.29879 0
M  V30 13353 H 1298.82 1.94318 3.494 0
M  V30 13354 H 1300.26 1.09638 4.0958 0
M  V30 13355 C 1298.71 -0.196802 3.36325 0
M  V30 13356 O 1299.24 -1.18883 3.83705 0
M  V30 13357 N 1297.45 -0.239325 2.89613 0
M  V30 13358 H 1297 0.568571 2.51247 0
M  V30 13359 H 1296.96 -1.10593 2.94307 0
M  V30 13360 N 1300.73 -1.01913 1.20215 0
M  V30 13361 C 1301.66 -2.10043 0.89203 0
M  V30 13362 C 1302.64 -1.61861 -0.154873 0
M  V30 13363 O 1303.82 -1.88478 -0.0290135 0
M  V30 13364 C 1300.95 -3.37021 0.336813 0
M  V30 13365 C 1300 -4.0409 1.36431 0
M  V30 13366 S 1300.83 -4.48334 2.92843 0
M  V30 13367 C 1301.99 -5.78517 2.3889 0
M  V30 13368 H 1302.22 -2.36025 1.80775 0
M  V30 13369 H 1299.75 -1.14992 1.03035 0
M  V30 13370 H 1301.71 -4.10494 0.0230191 0
M  V30 13371 H 1300.37 -3.09115 -0.557363 0
M  V30 13372 H 1299.56 -4.95436 0.925147 0
M  V30 13373 H 1299.17 -3.36831 1.62545 0
M  V30 13374 H 1301.46 -6.53564 1.78494 0
M  V30 13375 H 1302.4 -6.27226 3.28623 0
M  V30 13376 H 1302.81 -5.34658 1.8111 0
M  V30 13377 N 1302.21 -1.00763 -1.2118 0
M  V30 13378 C 1303.43 -0.710515 -1.9485 0
M  V30 13379 C 1303.86 0.720934 -1.73736 0
M  V30 13380 O 1303.21 1.49484 -1.02588 0
M  V30 13381 C 1303.26 -1.04035 -3.45267 0
M  V30 13382 O 1302.37 -0.147047 -4.12138 0
M  V30 13383 H 1301.71 -0.264472 -0.609057 0
M  V30 13384 H 1304.24 -1.34858 -1.53865 0
M  V30 13385 H 1304.25 -0.9883 -3.95849 0
M  V30 13386 H 1302.92 -2.08334 -3.59958 0
M  V30 13387 H 1301.5 -0.255847 -3.72021 0
M  V30 13388 N 1303.68 1.3679 -0.7827 0
M  V30 13389 C 1304.62 2.27871 -0.122531 0
M  V30 13390 C 1305.6 1.46885 0.697399 0
M  V30 13391 O 1306.78 1.76198 0.669819 0
M  V30 13392 C 1303.91 3.28314 0.832311 0
M  V30 13393 C 1302.95 4.26394 0.0950152 0
M  V30 13394 S 1303.79 5.2131 -1.22457 0
M  V30 13395 C 1304.94 6.25302 -0.273558 0
M  V30 13396 H 1305.17 2.83514 -0.894814 0
M  V30 13397 H 1302.71 1.43229 -0.5766 0
M  V30 13398 H 1304.67 3.86688 1.37778 0
M  V30 13399 H 1303.33 2.71597 1.57779 0
M  V30 13400 H 1302.52 4.97297 0.819278 0
M  V30 13401 H 1302.12 3.72067 -0.379778 0
M  V30 13402 H 1304.41 6.75263 0.550064 0
M  V30 13403 H 1305.36 7.01684 -0.951071 0
M  V30 13404 H 1305.76 5.64372 0.120115 0
M  V30 13405 N 1305.16 0.53415 1.48272 0
M  V30 13406 C 1306.41 0.00157259 2.025 0
M  V30 13407 C 1306.74 -1.33886 1.41085 0
M  V30 13408 O 1305.99 -1.87884 0.547544 0
M  V30 13409 C 1306.29 -0.165144 3.57018 0
M  V30 13410 C 1305.96 1.10146 4.3724 0
M  V30 13411 C 1304.62 1.44857 4.58879 0
M  V30 13412 C 1306.97 1.94183 4.83676 0
M  V30 13413 C 1304.3 2.63497 5.24201 0
M  V30 13414 C 1306.65 3.12005 5.50305 0
M  V30 13415 C 1305.32 3.47058 5.70182 0
M  V30 13416 H 1304.59 0.00057545 0.741 0
M  V30 13417 H 1307.23 0.701014 1.78208 0
M  V30 13418 H 1305.54 -0.947384 3.80173 0
M  V30 13419 H 1307.23 -0.592202 3.96603 0
M  V30 13420 H 1303.82 0.821132 4.20661 0
M  V30 13421 H 1308.01 1.68677 4.66757 0
M  V30 13422 H 1303.26 2.90852 5.37787 0
M  V30 13423 H 1307.44 3.77426 5.85254 0
M  V30 13424 H 1305.07 4.39086 6.2057 0
M  V30 13425 N 1306.64 -1.55279 0.269478 0
M  V30 13426 C 1307.6 -2.21008 -0.607299 0
M  V30 13427 C 1308.6 -1.18619 -1.08564 0
M  V30 13428 O 1309.79 -1.4356 -0.986721 0
M  V30 13429 C 1306.93 -2.87157 -1.83721 0
M  V30 13430 H 1308.12 -2.99881 -0.0334894 0
M  V30 13431 H 1305.67 -1.56287 0.0200573 0
M  V30 13432 H 1306.41 -2.12281 -2.45168 0
M  V30 13433 H 1306.19 -3.62183 -1.5022 0
M  V30 13434 H 1307.68 -3.37391 -2.46083 0
M  V30 13435 N 1308.12 0.00332656 -1.576 0
M  V30 13436 C 1309.53 0.359361 -1.55502 0
M  V30 13437 C 1309.73 1.74997 -0.998914 0
M  V30 13438 O 1308.79 2.44482 -0.631263 0
M  V30 13439 C 1310.1 0.237638 -2.9976 0
M  V30 13440 C 1311.65 0.312824 -3.11433 0
M  V30 13441 C 1312.13 0.220262 -4.5747 0
M  V30 13442 N 1313.62 0.278265 -4.62363 0
M  V30 13443 C 1314.35 0.229933 -5.72939 0
M  V30 13444 N 1313.85 0.132391 -6.92673 0
M  V30 13445 N 1315.64 0.281555 -5.61394 0
M  V30 13446 H 1307.79 -0.906404 -1.92089 0
M  V30 13447 H 1310.06 -0.347129 -0.88216 0
M  V30 13448 H 1309.76 -0.719007 -3.44272 0
M  V30 13449 H 1309.64 1.02105 -3.63118 0
M  V30 13450 H 1312.02 1.25991 -2.66852 0
M  V30 13451 H 1312.1 -0.500395 -2.50858 0
M  V30 13452 H 1311.75 -0.723267 -5.02724 0
M  V30 13453 H 1311.68 1.05192 -5.15987 0
M  V30 13454 H 1314.17 0.35512 -3.76228 0
M  V30 13455 H 1314.48 0.101317 -7.72734 0
M  V30 13456 H 1312.83 0.0980665 -6.94931 0
M  V30 13457 H 1316.02 0.355931 -4.66745 0
M  V30 13458 H 1316.19 0.240423 -6.47554 0
M  V30 13459 N 1309.6 1.55164 0.276031 0
M  V30 13460 C 1311.01 1.46936 0.623061 0
M  V30 13461 C 1311.21 0.680977 1.89644 0
M  V30 13462 O 1310.27 0.198618 2.51718 0
M  V30 13463 C 1311.58 2.91123 0.752839 0
M  V30 13464 C 1313.13 3.01319 0.847093 0
M  V30 13465 C 1313.6 4.46755 1.00867 0
M  V30 13466 N 1315.1 4.5057 1.07427 0
M  V30 13467 C 1315.83 5.60314 1.21804 0
M  V30 13468 N 1315.33 6.7993 1.32919 0
M  V30 13469 N 1317.12 5.4805 1.2489 0
M  V30 13470 H 1309.27 2.04877 -0.560282 0
M  V30 13471 H 1311.53 0.928925 -0.189217 0
M  V30 13472 H 1311.24 3.51521 -0.112333 0
M  V30 13473 H 1311.11 3.39967 1.63408 0
M  V30 13474 H 1313.5 2.41021 1.70274 0
M  V30 13475 H 1313.58 2.55733 -0.0586896 0
M  V30 13476 H 1313.23 5.07655 0.1577 0
M  V30 13477 H 1313.16 4.89995 1.92906 0
M  V30 13478 H 1315.65 3.64404 1.00089 0
M  V30 13479 H 1315.96 7.59319 1.43714 0
M  V30 13480 H 1314.3 6.82747 1.29929 0
M  V30 13481 H 1317.5 4.53542 1.15834 0
M  V30 13482 H 1317.67 6.33621 1.3575 0
M  V30 13483 N 1311.07 -0.540404 1.48045 0
M  V30 13484 C 1312.3 -1.32177 1.59175 0
M  V30 13485 C 1312.72 -1.87163 0.248115 0
M  V30 13486 O 1312.07 -1.65871 -0.761124 0
M  V30 13487 C 1312.13 -2.47995 2.63023 0
M  V30 13488 O 1311.85 -1.95278 3.92171 0
M  V30 13489 C 1313.35 -3.39967 2.84495 0
M  V30 13490 H 1310.57 -0.40233 0.537002 0
M  V30 13491 H 1313.11 -0.652983 1.93795 0
M  V30 13492 H 1311.27 -3.10779 2.31291 0
M  V30 13493 H 1311.68 -2.71012 4.49058 0
M  V30 13494 H 1313.15 -4.17607 3.60982 0
M  V30 13495 H 1313.63 -3.94555 1.92932 0
M  V30 13496 H 1314.24 -2.82985 3.1749 0
M  V30 13497 N 1312.55 -1.36459 -0.788468 0
M  V30 13498 C 1313.5 -1.27391 -1.89092 0
M  V30 13499 C 1314.49 -0.165201 -1.6005 0
M  V30 13500 O 1315.68 -0.398097 -1.72465 0
M  V30 13501 C 1312.81 -1.06639 -3.26317 0
M  V30 13502 C 1311.89 -2.21981 -3.61366 0
M  V30 13503 N 1312.28 -3.47302 -3.67716 0
M  V30 13504 C 1310.58 -2.13767 -3.91433 0
M  V30 13505 C 1311.28 -4.2326 -3.99031 0
M  V30 13506 N 1310.26 -3.52211 -4.14063 0
M  V30 13507 H 1314.06 -2.22318 -1.92229 0
M  V30 13508 H 1311.58 -1.29191 -0.98404 0
M  V30 13509 H 1313.57 -0.982292 -4.05162 0
M  V30 13510 H 1312.23 -0.126129 -3.24455 0
M  V30 13511 H 1313.24 -3.81424 -3.50337 0
M  V30 13512 H 1309.92 -1.27702 -3.9749 0
M  V30 13513 H 1311.31 -5.31643 -4.1086 0
M  V30 13514 N 1314.03 1.01274 -1.20754 0
M  V30 13515 C 1314.96 2.11763 -0.983805 0
M  V30 13516 C 1315.94 1.69869 0.0885635 0
M  V30 13517 O 1317.13 1.94075 -0.0697239 0
M  V30 13518 C 1314.26 3.43087 -0.539287 0
M  V30 13519 C 1313.21 3.9874 -1.55534 0
M  V30 13520 C 1312.54 5.25877 -0.967322 0
M  V30 13521 C 1313.84 4.31688 -2.94012 0
M  V30 13522 H 1315.53 2.30737 -1.90789 0
M  V30 13523 H 1313.08 1.10884 -0.918734 0
M  V30 13524 H 1315.03 4.19773 -0.369979 0
M  V30 13525 H 1313.75 3.23883 0.420435 0
M  V30 13526 H 1312.41 3.24166 -1.71207 0
M  V30 13527 H 1312.06 5.03 0.000448307 0
M  V30 13528 H 1311.76 5.64077 -1.64594 0
M  V30 13529 H 1313.28 6.05215 -0.809167 0
M  V30 13530 H 1314.7 4.99246 -2.81827 0
M  V30 13531 H 1313.1 4.81011 -3.58815 0
M  V30 13532 H 1314.17 3.4029 -3.45442 0
M  V30 13533 N 1315.51 1.01404 1.20644 0
M  V30 13534 C 1316.47 0.586941 2.21557 0
M  V30 13535 C 1317.47 -0.341543 1.57131 0
M  V30 13536 O 1318.66 -0.130585 1.7371 0
M  V30 13537 C 1315.79 -0.143248 3.40599 0
M  V30 13538 H 1316.99 1.47964 2.60858 0
M  V30 13539 H 1314.54 0.803551 1.34063 0
M  V30 13540 H 1315.28 -1.05097 3.06798 0
M  V30 13541 H 1315.06 0.523716 3.88587 0
M  V30 13542 H 1316.55 -0.429504 4.15385 0
M  V30 13543 N 1316.99 -1.36373 0.789944 0
M  V30 13544 C 1318.26 -1.9349 0.286543 0
M  V30 13545 C 1318.64 -1.7218 -1.22136 0
M  V30 13546 O 1317.99 -1.08106 -2.01309 0
M  V30 13547 C 1318.2 -3.42316 0.679749 0
M  V30 13548 C 1319.55 -4.19442 0.659791 0
M  V30 13549 O 1320.57 -3.50758 0.620256 0
M  V30 13550 O 1319.43 -5.41957 0.703159 0
M  V30 13551 H 1316.53 -0.823942 0.0710537 0
M  V30 13552 H 1319.07 -1.45551 0.872523 0
M  V30 13553 H 1317.85 -3.51485 1.7197 0
M  V30 13554 H 1317.47 -3.97542 0.0676823 0
M  V30 13555 N 1318.47 -0.542005 -1.47987 0
M  V30 13556 C 1319.4 0.202703 -2.32618 0
M  V30 13557 C 1320.38 0.923521 -1.42846 0
M  V30 13558 O 1321.56 0.906957 -1.7172 0
M  V30 13559 C 1318.69 1.24267 -3.24307 0
M  V30 13560 C 1317.65 0.639257 -4.23199 0
M  V30 13561 C 1316.97 1.78275 -5.04105 0
M  V30 13562 C 1318.27 -0.396982 -5.20789 0
M  V30 13563 H 1319.97 -0.503817 -2.95131 0
M  V30 13564 H 1317.51 -0.243736 -1.41922 0
M  V30 13565 H 1319.46 1.7717 -3.82347 0
M  V30 13566 H 1318.19 1.97893 -2.59819 0
M  V30 13567 H 1316.85 0.131655 -3.66364 0
M  V30 13568 H 1316.5 2.50768 -4.36032 0
M  V30 13569 H 1316.2 1.38487 -5.71047 0
M  V30 13570 H 1317.72 2.31533 -5.65 0
M  V30 13571 H 1319.13 0.0454057 -5.73282 0
M  V30 13572 H 1317.53 -0.712911 -5.9585 0
M  V30 13573 H 1318.6 -1.29843 -4.67193 0
M  V30 13574 N 1319.94 1.55134 -0.277709 0
M  V30 13575 C 1320.91 2.21327 0.595569 0
M  V30 13576 C 1321.91 1.19193 1.07933 0
M  V30 13577 O 1323.1 1.44081 0.979093 0
M  V30 13578 C 1320.23 2.88127 1.82196 0
M  V30 13579 H 1321.42 2.99895 0.0175855 0
M  V30 13580 H 1318.97 1.56274 -0.0283453 0
M  V30 13581 H 1319.71 2.13578 2.44039 0
M  V30 13582 H 1319.49 3.62974 1.48297 0
M  V30 13583 H 1320.98 3.38691 2.44291 0
M  V30 13584 N 1321.42 0.00503138 1.57599 0
M  V30 13585 C 1322.38 -0.969628 2.0768 0
M  V30 13586 C 1323.38 -1.26933 0.987148 0
M  V30 13587 O 1324.57 -1.21368 1.24962 0
M  V30 13588 C 1321.71 -2.29312 2.52247 0
M  V30 13589 H 1322.9 -0.536342 2.95065 0
M  V30 13590 H 1320.45 -0.242543 1.54407 0
M  V30 13591 H 1321.19 -2.7732 1.6812 0
M  V30 13592 H 1320.97 -2.08878 3.31832 0
M  V30 13593 H 1322.46 -2.99221 2.91302 0
M  V30 13594 N 1322.9 -1.55308 -0.267798 0
M  V30 13595 C 1323.85 -1.88544 -1.33115 0
M  V30 13596 C 1324.82 -0.737465 -1.48831 0
M  V30 13597 O 1326 -0.989215 -1.63154 0
M  V30 13598 C 1323.14 -2.1674 -2.68547 0
M  V30 13599 C 1322.25 -3.44234 -2.61011 0
M  V30 13600 C 1321.39 -3.62104 -3.88657 0
M  V30 13601 C 1320.43 -4.83272 -3.75652 0
M  V30 13602 N 1319.57 -4.97772 -4.95144 0
M  V30 13603 H 1324.41 -2.79237 -1.04071 0
M  V30 13604 H 1321.94 -1.38245 -0.502677 0
M  V30 13605 H 1323.9 -2.31088 -3.47353 0
M  V30 13606 H 1322.53 -1.29276 -2.95783 0
M  V30 13607 H 1321.58 -3.3833 -1.73887 0
M  V30 13608 H 1322.89 -4.33177 -2.47303 0
M  V30 13609 H 1322.05 -3.76298 -4.75904 0
M  V30 13610 H 1320.79 -2.71356 -4.05238 0
M  V30 13611 H 1319.79 -4.69076 -2.86788 0
M  V30 13612 H 1321.02 -5.75461 -3.60585 0
M  V30 13613 H 1318.96 -4.09956 -5.12125 0
M  V30 13614 H 1318.88 -5.80769 -4.83987 0
M  V30 13615 H 1320.15 -5.16357 -5.83949 0
M  V30 13616 N 1324.38 0.532545 -1.4833 0
M  V30 13617 C 1325.34 1.61955 -1.62183 0
M  V30 13618 C 1326.34 1.52982 -0.495281 0
M  V30 13619 O 1327.53 1.56698 -0.761005 0
M  V30 13620 C 1324.66 3.0157 -1.58961 0
M  V30 13621 H 1325.86 1.51013 -2.59105 0
M  V30 13622 H 1323.41 0.754405 -1.36888 0
M  V30 13623 H 1324.14 3.18021 -0.635069 0
M  V30 13624 H 1323.93 3.09491 -2.40744 0
M  V30 13625 H 1325.42 3.80604 -1.71843 0
M  V30 13626 N 1325.86 1.36875 0.78122 0
M  V30 13627 C 1326.79 1.34559 1.9083 0
M  V30 13628 C 1327.77 0.215713 1.68727 0
M  V30 13629 O 1328.95 0.41462 1.89722 0
M  V30 13630 C 1326.08 1.14233 3.27976 0
M  V30 13631 C 1325.04 2.24132 3.64621 0
M  V30 13632 C 1324.36 1.8894 5.00206 0
M  V30 13633 C 1325.66 3.66266 3.72353 0
M  V30 13634 H 1327.36 2.28871 1.93025 0
M  V30 13635 H 1324.9 1.10171 0.927275 0
M  V30 13636 H 1326.85 1.11246 4.06451 0
M  V30 13637 H 1325.58 0.163747 3.26189 0
M  V30 13638 H 1324.24 2.26259 2.88448 0
M  V30 13639 H 1323.89 0.896351 4.94949 0
M  V30 13640 H 1323.59 2.62525 5.25694 0
M  V30 13641 H 1325.11 1.87523 5.81092 0
M  V30 13642 H 1326.52 3.66321 4.41001 0
M  V30 13643 H 1324.92 4.38825 4.09332 0
M  V30 13644 H 1325.99 4.00578 2.7325 0
M  V30 13645 N 1327.33 -1.00632 1.21289 0
M  V30 13646 C 1328.24 -2.12829 0.986957 0
M  V30 13647 C 1329.26 -1.73895 -0.0605152 0
M  V30 13648 O 1330.44 -2.00985 0.129238 0
M  V30 13649 C 1327.5 -3.4226 0.553089 0
M  V30 13650 C 1326.56 -3.95376 1.67262 0
M  V30 13651 C 1325.79 -5.18629 1.25936 0
M  V30 13652 O 1326.02 -5.70246 0.132402 0
M  V30 13653 O 1324.95 -5.65157 2.07077 0
M  V30 13654 H 1328.78 -2.34765 1.92663 0
M  V30 13655 H 1326.36 -1.11208 0.997654 0
M  V30 13656 H 1328.24 -4.20177 0.320856 0
M  V30 13657 H 1326.92 -3.21716 -0.357881 0
M  V30 13658 H 1325.83 -3.18692 1.95924 0
M  V30 13659 H 1327.16 -4.20328 2.56097 0
M  V30 13660 N 1328.81 -1.02043 -1.20104 0
M  V30 13661 C 1330.04 -0.731142 -1.94085 0
M  V30 13662 C 1330.46 0.702467 -1.74491 0
M  V30 13663 O 1329.82 1.48387 -1.04168 0
M  V30 13664 C 1329.87 -1.07691 -3.44144 0
M  V30 13665 O 1328.97 -0.190751 -4.11959 0
M  V30 13666 H 1328.31 -0.270917 -0.606218 0
M  V30 13667 H 1330.84 -1.36483 -1.52426 0
M  V30 13668 H 1330.85 -1.03023 -3.94779 0
M  V30 13669 H 1329.53 -2.1214 -3.57728 0
M  V30 13670 H 1328.1 -0.29529 -3.71729 0
M  V30 13671 N 1330.29 1.35952 -0.797165 0
M  V30 13672 C 1331.57 1.93335 -0.2968 0
M  V30 13673 C 1331.95 1.72825 1.21222 0
M  V30 13674 O 1331.3 1.09172 2.00733 0
M  V30 13675 C 1331.51 3.41951 -0.697894 0
M  V30 13676 C 1332.85 4.19087 -0.682026 0
M  V30 13677 O 1333.88 3.50424 -0.638849 0
M  V30 13678 O 1332.74 5.41577 -0.73189 0
M  V30 13679 H 1329.83 0.823554 -0.0754223 0
M  V30 13680 H 1332.38 1.45086 -0.88023 0
M  V30 13681 H 1331.15 3.50569 -1.73831 0
M  V30 13682 H 1330.77 3.97501 -0.088764 0
M  V30 13683 N 1331.77 0.549846 1.47697 0
M  V30 13684 C 1332.73 -0.191427 2.28399 0
M  V30 13685 C 1333.73 -0.849533 1.36527 0
M  V30 13686 O 1334.92 -0.706526 1.59229 0
M  V30 13687 C 1332.05 -1.27907 3.15995 0
M  V30 13688 H 1333.25 0.517375 2.95404 0
M  V30 13689 H 1330.8 0.30651 1.53265 0
M  V30 13690 H 1331.53 -2.0205 2.53665 0
M  V30 13691 H 1331.32 -0.812066 3.83599 0
M  V30 13692 H 1332.81 -1.79992 3.76819 0
M  V30 13693 N 1333.25 -1.54984 0.285932 0
M  V30 13694 C 1334.47 -2.04699 -0.333621 0
M  V30 13695 C 1334.9 -1.16252 -1.47875 0
M  V30 13696 O 1334.25 -0.163376 -1.80562 0
M  V30 13697 C 1334.3 -3.52022 -0.78187 0
M  V30 13698 O 1333.41 -3.66639 -1.88812 0
M  V30 13699 H 1332.75 -0.660579 -0.0673203 0
M  V30 13700 H 1335.28 -2.00171 0.423386 0
M  V30 13701 H 1335.29 -3.93591 -1.07473 0
M  V30 13702 H 1333.96 -4.15862 0.055893 0
M  V30 13703 H 1332.54 -3.36974 -1.59696 0
M  V30 13704 N 1334.72 -0.0133892 -1.57594 0
M  V30 13705 C 1335.97 0.667313 -1.90765 0
M  V30 13706 C 1336.29 1.73564 -0.888847 0
M  V30 13707 O 1335.56 1.95768 0.0718946 0
M  V30 13708 H 1334.14 0.24947 -0.704112 0
M  V30 13709 H 1336.81 -0.0574789 -1.94815 0
M  V30 13710 H 1335.9 1.13007 -2.90922 0
M  V30 13711 N 1336.2 1.55448 0.259558 0
M  V30 13712 C 1337.48 1.6742 1.01143 0
M  V30 13713 C 1337.86 0.549525 2.03822 0
M  V30 13714 O 1337.21 -0.448699 2.24051 0
M  V30 13715 C 1337.42 3.07201 1.65616 0
M  V30 13716 C 1338.77 3.6539 2.16277 0
M  V30 13717 O 1339.79 3.0992 1.7558 0
M  V30 13718 O 1338.65 4.62604 2.90963 0
M  V30 13719 H 1335.74 0.680469 0.469991 0
M  V30 13720 H 1338.29 1.67783 0.254348 0
M  V30 13721 H 1337.06 3.80504 0.912819 0
M  V30 13722 H 1336.68 3.10794 2.47977 0
M  V30 13723 N 1337.68 -0.524672 1.4861 0
M  V30 13724 C 1338.93 -1.28211 1.5713 0
M  V30 13725 C 1339.26 -1.92626 0.246751 0
M  V30 13726 O 1338.53 -1.79553 -0.747725 0
M  V30 13727 C 1338.82 -2.36737 2.71344 0
M  V30 13728 C 1338.67 -1.76978 4.1352 0
M  V30 13729 C 1339.99 -3.3847 2.81294 0
M  V30 13730 H 1337.11 -0.46479 0.571961 0
M  V30 13731 H 1339.75 -0.583937 1.80804 0
M  V30 13732 H 1337.9 -2.96287 2.51289 0
M  V30 13733 H 1339.57 -1.21438 4.45029 0
M  V30 13734 H 1337.82 -1.07488 4.20272 0
M  V30 13735 H 1338.49 -2.55583 4.89266 0
M  V30 13736 H 1340.96 -2.88882 2.99477 0
M  V30 13737 H 1339.84 -4.11795 3.62928 0
M  V30 13738 H 1340.1 -3.99347 1.89669 0
M  V30 13739 N 1339.16 -1.37287 -0.77395 0
M  V30 13740 C 1340.11 -1.32872 -1.88716 0
M  V30 13741 C 1341.08 -0.194655 -1.64955 0
M  V30 13742 O 1342.26 -0.383662 -1.86903 0
M  V30 13743 C 1339.4 -1.13934 -3.2575 0
M  V30 13744 C 1338.51 -2.36552 -3.61479 0
M  V30 13745 C 1337.65 -2.10504 -4.87711 0
M  V30 13746 C 1336.69 -3.28999 -5.16165 0
M  V30 13747 N 1335.82 -3.02517 -6.33584 0
M  V30 13748 H 1340.66 -2.28051 -1.91825 0
M  V30 13749 H 1338.2 -1.13325 -0.93786 0
M  V30 13750 H 1340.16 -1.00976 -4.04796 0
M  V30 13751 H 1338.79 -0.22404 -3.22022 0
M  V30 13752 H 1337.84 -2.60257 -2.77435 0
M  V30 13753 H 1339.15 -3.24931 -3.78446 0
M  V30 13754 H 1338.31 -1.94564 -5.74656 0
M  V30 13755 H 1337.05 -1.19459 -4.72843 0
M  V30 13756 H 1336.05 -3.4548 -4.27696 0
M  V30 13757 H 1337.28 -4.20892 -5.32942 0
M  V30 13758 H 1335.22 -2.14099 -6.20079 0
M  V30 13759 H 1335.14 -3.84439 -6.50955 0
M  V30 13760 H 1336.41 -2.9019 -7.23471 0
M  V30 13761 N 1340.64 0.999871 -1.21821 0
M  V30 13762 C 1341.55 2.12303 -0.99823 0
M  V30 13763 C 1342.56 1.73924 0.0512923 0
M  V30 13764 O 1343.74 2.00914 -0.139895 0
M  V30 13765 C 1340.8 3.41962 -0.571232 0
M  V30 13766 C 1339.86 3.94483 -1.69356 0
M  V30 13767 C 1339.1 5.17954 -1.28685 0
M  V30 13768 O 1339.32 5.70168 -0.162641 0
M  V30 13769 O 1338.25 5.64051 -2.10071 0
M  V30 13770 H 1342.08 2.3374 -1.93905 0
M  V30 13771 H 1339.67 1.10677 -1.00354 0
M  V30 13772 H 1341.55 4.20001 -0.343134 0
M  V30 13773 H 1340.22 3.21901 0.340814 0
M  V30 13774 H 1339.13 3.17648 -1.97612 0
M  V30 13775 H 1340.46 4.18964 -2.58322 0
M  V30 13776 N 1342.11 1.02678 1.19562 0
M  V30 13777 C 1343.08 0.610407 2.20922 0
M  V30 13778 C 1344.08 -0.324858 1.57484 0
M  V30 13779 O 1345.27 -0.112153 1.73839 0
M  V30 13780 C 1342.4 -0.107115 3.40732 0
M  V30 13781 H 1343.59 1.50722 2.59274 0
M  V30 13782 H 1341.15 0.817725 1.33203 0
M  V30 13783 H 1341.88 -1.01837 3.07896 0
M  V30 13784 H 1341.67 0.564901 3.88009 0
M  V30 13785 H 1343.16 -0.385423 4.15818 0
M  V30 13786 N 1343.59 -1.35528 0.804364 0
M  V30 13787 C 1344.52 -2.32388 0.227604 0
M  V30 13788 C 1345.5 -1.57368 -0.645709 0
M  V30 13789 O 1346.69 -1.85448 -0.576441 0
M  V30 13790 C 1343.82 -3.41603 -0.62645 0
M  V30 13791 C 1342.77 -4.27743 0.148187 0
M  V30 13792 C 1342.1 -5.28259 -0.827425 0
M  V30 13793 C 1343.4 -5.04661 1.34591 0
M  V30 13794 H 1345.09 -2.80874 1.03684 0
M  V30 13795 H 1342.64 -1.3504 0.500031 0
M  V30 13796 H 1344.59 -4.08365 -1.03999 0
M  V30 13797 H 1343.32 -2.91721 -1.46855 0
M  V30 13798 H 1341.97 -3.62558 0.542874 0
M  V30 13799 H 1341.62 -4.74645 -1.66496 0
M  V30 13800 H 1341.32 -5.86763 -0.313453 0
M  V30 13801 H 1342.85 -5.97893 -1.23921 0
M  V30 13802 H 1344.26 -5.6438 1.00736 0
M  V30 13803 H 1342.66 -5.7265 1.79422 0
M  V30 13804 H 1343.73 -4.35432 2.1337 0
M  V30 13805 N 1345.07 -0.557671 -1.47404 0
M  V30 13806 C 1346 0.227253 -2.28071 0
M  V30 13807 C 1347.02 0.878951 -1.37034 0
M  V30 13808 O 1348.21 0.752725 -1.61853 0
M  V30 13809 C 1345.31 1.33942 -3.11308 0
M  V30 13810 C 1344.48 0.784425 -4.30309 0
M  V30 13811 C 1343.54 1.78114 -4.95138 0
M  V30 13812 O 1342.56 1.32708 -5.53514 0
M  V30 13813 N 1343.77 3.11453 -4.89875 0
M  V30 13814 H 1346.53 -0.464709 -2.96075 0
M  V30 13815 H 1344.09 -0.393777 -1.57038 0
M  V30 13816 H 1346.08 2.00495 -3.51545 0
M  V30 13817 H 1344.65 1.93461 -2.45543 0
M  V30 13818 H 1343.87 -0.0578917 -3.94157 0
M  V30 13819 H 1345.16 0.39298 -5.0728 0
M  V30 13820 H 1344.56 3.50987 -4.43649 0
M  V30 13821 H 1343.12 3.73563 -5.34129 0
M  V30 13822 N 1346.55 1.54831 -0.294147 0
M  V30 13823 C 1347.8 1.99606 0.316509 0
M  V30 13824 C 1348.12 1.18405 1.54936 0
M  V30 13825 O 1347.39 0.278289 1.93913 0
M  V30 13826 H 1345.97 0.737309 0.119938 0
M  V30 13827 H 1348.63 1.90669 -0.403891 0
M  V30 13828 H 1347.73 3.06409 0.593282 0
M  V30 13829 N 1348.03 0.0217466 1.57585 0
M  V30 13830 C 1349.27 -0.653715 1.92609 0
M  V30 13831 C 1349.63 -1.70158 0.897998 0
M  V30 13832 O 1348.92 -1.91403 -0.0869654 0
M  V30 13833 C 1349.12 -1.3197 3.32143 0
M  V30 13834 C 1348.94 -0.33786 4.48429 0
M  V30 13835 C 1347.71 0.0596192 5.05265 0
M  V30 13836 C 1349.91 0.404844 5.12704 0
M  V30 13837 N 1347.89 1.03739 6.05071 0
M  V30 13838 C 1349.27 1.2366 6.07543 0
M  V30 13839 C 1351.32 0.466341 4.95711 0
M  V30 13840 C 1350.02 2.1243 6.87216 0
M  V30 13841 C 1352.05 1.34134 5.75988 0
M  V30 13842 C 1351.41 2.1609 6.70436 0
M  V30 13843 H 1347.51 -0.211748 0.752786 0
M  V30 13844 H 1350.09 0.0871946 1.94505 0
M  V30 13845 H 1348.27 -2.03078 3.3108 0
M  V30 13846 H 1350 -1.95159 3.54535 0
M  V30 13847 H 1346.75 -0.313299 4.72563 0
M  V30 13848 H 1347.18 1.5223 6.59663 0
M  V30 13849 H 1351.82 -0.153024 4.22523 0
M  V30 13850 H 1349.54 2.75424 7.59715 0
M  V30 13851 H 1353.12 1.39312 5.64875 0
M  V30 13852 H 1352 2.82701 7.31471 0
M  V30 13853 N 1349.51 -1.55583 -0.251311 0
M  V30 13854 C 1350.44 -1.9296 -1.31486 0
M  V30 13855 C 1351.42 -0.794001 -1.50431 0
M  V30 13856 O 1352.6 -1.05393 -1.63113 0
M  V30 13857 C 1349.73 -2.22046 -2.67045 0
M  V30 13858 C 1348.69 -3.37816 -2.62801 0
M  V30 13859 C 1348.01 -3.52433 -4.02113 0
M  V30 13860 C 1349.31 -4.73626 -2.20171 0
M  V30 13861 H 1351.01 -2.82046 -1.00451 0
M  V30 13862 H 1348.55 -1.35702 -0.481775 0
M  V30 13863 H 1350.5 -2.46783 -3.41579 0
M  V30 13864 H 1349.23 -1.29782 -2.99707 0
M  V30 13865 H 1347.89 -3.13081 -1.90724 0
M  V30 13866 H 1347.54 -2.57597 -4.32034 0
M  V30 13867 H 1347.24 -4.30283 -4.00163 0
M  V30 13868 H 1348.76 -3.79486 -4.78354 0
M  V30 13869 H 1350.17 -4.97764 -2.84436 0
M  V30 13870 H 1348.57 -5.54547 -2.29341 0
M  V30 13871 H 1349.64 -4.70985 -1.1533 0
M  V30 13872 N 1350.98 0.516783 -1.48886 0
M  V30 13873 C 1351.95 1.60226 -1.63891 0
M  V30 13874 C 1352.95 1.52448 -0.511479 0
M  V30 13875 O 1354.14 1.55882 -0.777582 0
M  V30 13876 C 1351.27 2.99867 -1.62151 0
M  V30 13877 H 1352.46 1.48256 -2.60692 0
M  V30 13878 H 1350.01 0.739844 -1.37681 0
M  V30 13879 H 1350.75 3.1733 -0.668764 0
M  V30 13880 H 1350.53 3.0692 -2.44013 0
M  V30 13881 H 1352.02 3.7876 -1.7587 0
M  V30 13882 N 1352.46 1.37696 0.766659 0
M  V30 13883 C 1353.71 1.32922 1.52237 0
M  V30 13884 C 1354.03 -0.0842833 1.94818 0
M  V30 13885 O 1353.3 -1.02934 1.66677 0
M  V30 13886 H 1351.88 0.489049 0.564659 0
M  V30 13887 H 1354.54 1.72238 0.912142 0
M  V30 13888 H 1353.64 1.97158 2.4194 0
M  V30 13889 N 1353.94 -0.993397 1.22349 0
M  V30 13890 C 1354.89 -2.0834 0.993123 0
M  V30 13891 C 1355.86 -1.65883 -0.0849717 0
M  V30 13892 O 1357.04 -1.90691 0.0645176 0
M  V30 13893 C 1354.18 -3.40252 0.576434 0
M  V30 13894 C 1353.29 -3.96055 1.72524 0
M  V30 13895 C 1352.43 -5.16123 1.25659 0
M  V30 13896 C 1351.47 -5.64062 2.37698 0
M  V30 13897 N 1350.61 -6.7537 1.91883 0
M  V30 13898 H 1355.45 -2.27381 1.92619 0
M  V30 13899 H 1352.98 -1.11476 0.959763 0
M  V30 13900 H 1354.94 -4.16001 0.316021 0
M  V30 13901 H 1353.57 -3.21214 -0.319626 0
M  V30 13902 H 1352.62 -3.17182 2.1 0
M  V30 13903 H 1353.93 -4.27614 2.56802 0
M  V30 13904 H 1353.09 -5.9916 0.953528 0
M  V30 13905 H 1351.83 -4.86186 0.384011 0
M  V30 13906 H 1350.83 -4.79614 2.68794 0
M  V30 13907 H 1352.06 -5.96025 3.25471 0
M  V30 13908 H 1350 -6.47217 1.06986 0
M  V30 13909 H 1349.92 -7.06246 2.69727 0
M  V30 13910 H 1351.19 -7.61914 1.64644 0
M  V30 13911 N 1355.42 -1.03311 -1.19015 0
M  V30 13912 C 1356.37 -0.611169 -2.24427 0
M  V30 13913 C 1357.36 0.358303 -1.65567 0
M  V30 13914 O 1358.57 0.22642 -1.7857 0
M  V30 13915 H 1354.94 -0.179393 -0.730289 0
M  V30 13916 H 1356.91 -1.51077 -2.57329 0
M  V30 13917 C 1355.66 0.0178126 -3.47695 0
M  V30 13918 H 1354.98 -0.71921 -3.93278 0
M  V30 13919 H 1356.42 0.275926 -4.23101 0
M  V30 13920 C 1354.88 1.26564 -3.12223 0
M  V30 13921 O 1355.41 2.35725 -3.25264 0
M  V30 13922 N 1353.62 1.15602 -2.66617 0
M  V30 13923 H 1353.17 0.267736 -2.56205 0
M  V30 13924 H 1353.12 1.99186 -2.43254 0
M  V30 13925 N 1356.9 1.35099 -0.81154 0
M  V30 13926 C 1358.17 1.93009 -0.317289 0
M  V30 13927 C 1358.55 1.74101 1.19382 0
M  V30 13928 O 1357.9 1.11295 1.99564 0
M  V30 13929 C 1358.11 3.41191 -0.734123 0
M  V30 13930 C 1359.46 4.1834 -0.726437 0
M  V30 13931 O 1360.48 3.49727 -0.67598 0
M  V30 13932 O 1359.34 5.4077 -0.789291 0
M  V30 13933 H 1356.44 0.822707 -0.084153 0
M  V30 13934 H 1358.98 1.44145 -0.895569 0
M  V30 13935 H 1357.75 3.48705 -1.7754 0
M  V30 13936 H 1357.38 3.97384 -0.130919 0
M  V30 13937 N 1358.37 0.56548 1.47106 0
M  V30 13938 C 1359.78 0.134289 1.86216 0
M  V30 13939 C 1360.14 -1.29815 1.47114 0
M  V30 13940 O 1359.26 -1.97787 0.878017 0
M  V30 13941 C 1359.86 0.236931 3.37971 0
M  V30 13942 C 1358.41 -0.139275 3.76142 0
M  V30 13943 C 1357.56 0.580743 2.71151 0
M  V30 13944 H 1360.51 0.774723 1.38505 0
M  V30 13945 H 1360.53 -0.542301 3.76616 0
M  V30 13946 H 1360.05 1.27958 3.66399 0
M  V30 13947 H 1358.15 -1.18272 3.53331 0
M  V30 13948 H 1358.26 0.225045 4.78571 0
M  V30 13949 H 1356.62 0.0228963 2.5469 0
M  V30 13950 H 1357.41 1.62471 3.0242 0
M  V30 13951 N 1359.85 -1.54672 0.302354 0
M  V30 13952 C 1361.1 -1.99345 -0.307307 0
M  V30 13953 C 1361.41 -1.19437 -1.549 0
M  V30 13954 O 1362.62 -1.54384 -2.23334 0
M  V30 13955 C 1361.08 -3.54896 -0.59808 0
M  V30 13956 C 1360.68 -4.43614 0.625357 0
M  V30 13957 C 1362.43 -4.08091 -1.16886 0
M  V30 13958 C 1360.34 -5.90599 0.307661 0
M  V30 13959 H 1359.27 -0.744614 -0.118603 0
M  V30 13960 H 1361.92 -1.78832 0.411271 0
M  V30 13961 H 1360.3 -3.71314 -1.37629 0
M  V30 13962 H 1361.47 -4.38969 1.40152 0
M  V30 13963 H 1359.79 -4.01198 1.11487 0
M  V30 13964 H 1362.38 -5.15477 -1.42082 0
M  V30 13965 H 1362.73 -3.58775 -2.11155 0
M  V30 13966 H 1363.26 -3.9522 -0.452329 0
M  V30 13967 H 1360 -6.44067 1.21895 0
M  V30 13968 H 1359.52 -5.98248 -0.431208 0
M  V30 13969 H 1361.2 -6.46937 -0.0902796 0
M  V30 13970 N 1361.33 -0.0301034 -1.57571 0
M  V30 13971 C 1362.28 0.951421 -2.10277 0
M  V30 13972 C 1363.25 1.3224 -1.00508 0
M  V30 13973 O 1364.43 1.41554 -1.27934 0
M  V30 13974 C 1361.57 2.2282 -2.63525 0
M  V30 13975 C 1360.69 1.91359 -3.87306 0
M  V30 13976 C 1359.82 3.13339 -4.28943 0
M  V30 13977 C 1358.86 2.77701 -5.4548 0
M  V30 13978 N 1358 3.9231 -5.82269 0
M  V30 13979 H 1362.84 0.495049 -2.93859 0
M  V30 13980 H 1360.37 0.232756 -1.45247 0
M  V30 13981 H 1362.33 2.97502 -2.92487 0
M  V30 13982 H 1360.96 2.66072 -1.82772 0
M  V30 13983 H 1360.01 1.06915 -3.65066 0
M  V30 13984 H 1361.33 1.61112 -4.72064 0
M  V30 13985 H 1360.48 3.9634 -4.59347 0
M  V30 13986 H 1359.22 3.46747 -3.42954 0
M  V30 13987 H 1358.22 1.93113 -5.14769 0
M  V30 13988 H 1359.45 2.45508 -6.33169 0
M  V30 13989 H 1357.39 4.25559 -4.99235 0
M  V30 13990 H 1357.31 3.65691 -6.61669 0
M  V30 13991 H 1358.58 4.76012 -6.17279 0
M  V30 13992 N 1362.81 1.55714 0.243056 0
M  V30 13993 C 1364.03 1.82126 0.992219 0
M  V30 13994 C 1364.46 0.607665 1.78014 0
M  V30 13995 O 1363.82 -0.443351 1.75796 0
M  V30 13996 C 1363.86 3.06314 1.90274 0
M  V30 13997 O 1362.97 2.83499 2.99503 0
M  V30 13998 H 1362.31 0.601082 0.282128 0
M  V30 13999 H 1364.84 2.02904 0.262881 0
M  V30 14000 H 1364.85 3.35849 2.31666 0
M  V30 14001 H 1363.52 3.94282 1.32344 0
M  V30 14002 H 1362.1 2.65141 2.62211 0
M  V30 14003 N 1364.29 -0.50888 1.49158 0
M  V30 14004 C 1365.23 -1.61129 1.65246 0
M  V30 14005 C 1366.2 -1.58582 0.49405 0
M  V30 14006 O 1367.39 -1.76689 0.720122 0
M  V30 14007 C 1364.53 -2.99311 1.71776 0
M  V30 14008 C 1363.64 -3.11933 2.98868 0
M  V30 14009 C 1362.78 -4.408 2.96426 0
M  V30 14010 C 1361.82 -4.47027 4.18131 0
M  V30 14011 N 1360.95 -5.67311 4.13645 0
M  V30 14012 H 1365.79 -1.4672 2.59379 0
M  V30 14013 H 1363.33 -0.713978 1.28611 0
M  V30 14014 H 1365.29 -3.79392 1.73543 0
M  V30 14015 H 1363.92 -3.12442 0.811159 0
M  V30 14016 H 1362.97 -2.24966 3.06748 0
M  V30 14017 H 1364.28 -3.12393 3.8886 0
M  V30 14018 H 1363.44 -5.29194 2.96712 0
M  V30 14019 H 1362.17 -4.42893 2.04199 0
M  V30 14020 H 1361.18 -3.57036 4.18097 0
M  V30 14021 H 1362.4 -4.46656 5.11542 0
M  V30 14022 H 1360.35 -5.70261 3.2425 0
M  V30 14023 H 1360.27 -5.69355 4.97364 0
M  V30 14024 H 1361.54 -6.57934 4.18022 0
M  V30 14025 N 1365.76 -1.381 -0.759346 0
M  V30 14026 C 1366.67 -1.37086 -1.9038 0
M  V30 14027 C 1367.69 -0.268738 -1.71912 0
M  V30 14028 O 1368.87 -0.506205 -1.94935 0
M  V30 14029 C 1365.93 -1.18905 -3.25672 0
M  V30 14030 C 1364.99 -2.3887 -3.56707 0
M  V30 14031 C 1364.23 -2.21546 -4.85544 0
M  V30 14032 O 1364.45 -1.20616 -5.57501 0
M  V30 14033 O 1363.38 -3.10009 -5.15924 0
M  V30 14034 H 1367.21 -2.33505 -1.94188 0
M  V30 14035 H 1364.79 -1.18959 -0.903826 0
M  V30 14036 H 1366.68 -1.10803 -4.06572 0
M  V30 14037 H 1365.35 -0.255675 -3.22689 0
M  V30 14038 H 1364.26 -2.52546 -2.75992 0
M  V30 14039 H 1365.59 -3.30817 -3.64446 0
M  V30 14040 N 1367.24 0.986894 -1.22875 0
M  V30 14041 C 1368.47 1.7601 -1.08185 0
M  V30 14042 C 1368.88 1.85545 0.370088 0
M  V30 14043 O 1368.22 1.32915 1.26804 0
M  V30 14044 C 1368.29 3.20661 -1.62532 0
M  V30 14045 C 1367.95 3.34655 -3.11216 0
M  V30 14046 C 1368.95 3.21493 -4.08581 0
M  V30 14047 C 1366.63 3.59512 -3.50794 0
M  V30 14048 C 1368.63 3.32983 -5.43508 0
M  V30 14049 C 1366.31 3.70642 -4.85868 0
M  V30 14050 C 1367.31 3.57387 -5.82034 0
M  V30 14051 O 1367 3.68135 -7.14655 0
M  V30 14052 H 1366.73 0.559402 -0.379533 0
M  V30 14053 H 1369.28 1.24905 -1.63058 0
M  V30 14054 H 1367.51 3.72985 -1.02073 0
M  V30 14055 H 1369.2 3.7972 -1.43415 0
M  V30 14056 H 1369.97 3.02193 -3.79347 0
M  V30 14057 H 1365.85 3.68904 -2.76461 0
M  V30 14058 H 1369.39 3.22553 -6.18551 0
M  V30 14059 H 1365.29 3.89451 -5.1478 0
M  V30 14060 H 1366.06 3.84971 -7.22316 0
M  V30 14061 N 1368.72 1.0394 1.18466 0
M  V30 14062 C 1369.97 0.740576 1.88042 0
M  V30 14063 C 1370.29 -0.733822 1.80666 0
M  V30 14064 O 1369.56 -1.52943 1.22414 0
M  V30 14065 H 1368.14 0.270949 0.696129 0
M  V30 14066 H 1370.8 1.31588 1.43772 0
M  V30 14067 H 1369.9 1.04429 2.94111 0
M  V30 14068 N 1370.2 -1.34667 0.818693 0
M  V30 14069 C 1371.48 -1.92838 0.327521 0
M  V30 14070 C 1371.86 -1.74732 -1.18457 0
M  V30 14071 O 1371.2 -1.12352 -1.98971 0
M  V30 14072 C 1371.41 -3.40797 0.752207 0
M  V30 14073 C 1372.76 -4.17948 0.748613 0
M  V30 14074 O 1373.79 -3.49364 0.694517 0
M  V30 14075 O 1372.64 -5.40344 0.817958 0
M  V30 14076 H 1369.74 -0.822249 0.0885148 0
M  V30 14077 H 1372.28 -1.43668 0.9032 0
M  V30 14078 H 1371.06 -3.47759 1.79387 0
M  V30 14079 H 1370.68 -3.97309 0.151992 0
M  V30 14080 N 1371.68 -0.573274 -1.46804 0
M  V30 14081 C 1372.62 0.165358 -2.30207 0
M  V30 14082 C 1373.59 0.89312 -1.40045 0
M  V30 14083 O 1374.78 0.885653 -1.68999 0
M  V30 14084 C 1371.92 1.17915 -3.2433 0
M  V30 14085 C 1371.03 0.455805 -4.29589 0
M  V30 14086 C 1370.17 1.45629 -5.10848 0
M  V30 14087 C 1369.21 0.718822 -6.07865 0
M  V30 14088 N 1368.34 1.66691 -6.82025 0
M  V30 14089 H 1373.18 -0.551947 -2.92844 0
M  V30 14090 H 1370.72 -0.28401 -1.44332 0
M  V30 14091 H 1372.68 1.77969 -3.77337 0
M  V30 14092 H 1371.31 1.86429 -2.63523 0
M  V30 14093 H 1370.36 -0.259584 -3.79513 0
M  V30 14094 H 1371.67 -0.121161 -4.98653 0
M  V30 14095 H 1370.83 2.1299 -5.68084 0
M  V30 14096 H 1369.56 2.06718 -4.41723 0
M  V30 14097 H 1368.57 0.0313773 -5.49791 0
M  V30 14098 H 1369.79 0.113452 -6.79005 0
M  V30 14099 H 1367.74 2.26608 -6.15617 0
M  V30 14100 H 1367.66 1.14251 -7.47317 0
M  V30 14101 H 1368.93 2.33117 -7.43826 0
M  V30 14102 N 1373.15 1.5451 -0.310553 0
M  V30 14103 C 1374.08 2.26827 0.554243 0
M  V30 14104 C 1375.07 1.27133 1.13009 0
M  V30 14105 O 1376.25 1.55923 1.15765 0
M  V30 14106 C 1373.38 3.01626 1.7216 0
M  V30 14107 C 1372.33 4.08547 1.27566 0
M  V30 14108 C 1371.66 4.71115 2.52893 0
M  V30 14109 C 1372.96 5.20766 0.399955 0
M  V30 14110 H 1374.65 2.9936 -0.0489475 0
M  V30 14111 H 1372.2 1.43978 -0.0249817 0
M  V30 14112 H 1374.15 3.50942 2.33276 0
M  V30 14113 H 1372.88 2.26688 2.35118 0
M  V30 14114 H 1371.54 3.60096 0.687499 0
M  V30 14115 H 1371.18 3.92805 3.14186 0
M  V30 14116 H 1370.88 5.43331 2.23752 0
M  V30 14117 H 1372.41 5.23198 3.14796 0
M  V30 14118 H 1373.82 5.65918 0.917054 0
M  V30 14119 H 1372.22 5.9976 0.2019 0
M  V30 14120 H 1373.29 4.81508 -0.572537 0
M  V30 14121 N 1374.63 0.0384594 1.57553 0
M  V30 14122 C 1375.58 -0.940256 2.10779 0
M  V30 14123 C 1376.55 -1.31705 1.01208 0
M  V30 14124 O 1377.74 -1.40874 1.28683 0
M  V30 14125 C 1374.88 -2.21419 2.64703 0
M  V30 14126 C 1373.99 -1.89302 3.88315 0
M  V30 14127 C 1373.12 -3.1106 4.30599 0
M  V30 14128 C 1372.16 -2.74805 5.46945 0
M  V30 14129 N 1371.3 -3.89217 5.84341 0
M  V30 14130 H 1376.14 -0.479458 2.94118 0
M  V30 14131 H 1373.68 -0.22505 1.45368 0
M  V30 14132 H 1375.63 -2.95946 2.94061 0
M  V30 14133 H 1374.26 -2.65099 1.84181 0
M  V30 14134 H 1373.32 -1.04977 3.65628 0
M  V30 14135 H 1374.63 -1.58607 4.72912 0
M  V30 14136 H 1373.78 -3.93898 4.61442 0
M  V30 14137 H 1372.52 -3.44924 3.44788 0
M  V30 14138 H 1371.53 -1.9038 5.15786 0
M  V30 14139 H 1372.75 -2.42147 6.34462 0
M  V30 14140 H 1370.7 -4.22905 5.01485 0
M  V30 14141 H 1370.61 -3.62177 6.63599 0
M  V30 14142 H 1371.88 -4.72732 6.19794 0
M  V30 14143 N 1376.11 -1.55841 -0.234795 0
M  V30 14144 C 1377.06 -1.91326 -1.29086 0
M  V30 14145 C 1378.03 -0.768868 -1.47233 0
M  V30 14146 O 1379.21 -1.0236 -1.61019 0
M  V30 14147 C 1376.35 -2.22388 -2.6389 0
M  V30 14148 C 1375.47 -3.49693 -2.5365 0
M  V30 14149 C 1374.6 -3.70267 -3.80889 0
M  V30 14150 C 1373.64 -4.91132 -3.65317 0
M  V30 14151 N 1372.78 -5.08163 -4.84474 0
M  V30 14152 H 1377.62 -2.81382 -0.981246 0
M  V30 14153 H 1375.15 -1.3928 -0.47324 0
M  V30 14154 H 1377.11 -2.38404 -3.42373 0
M  V30 14155 H 1375.74 -1.35521 -2.92974 0
M  V30 14156 H 1374.79 -3.41943 -1.66672 0
M  V30 14157 H 1376.11 -4.38326 -2.38059 0
M  V30 14158 H 1375.26 -3.86308 -4.67815 0
M  V30 14159 H 1374 -2.7989 -3.9939 0
M  V30 14160 H 1373 -4.75054 -2.76774 0
M  V30 14161 H 1374.23 -5.8298 -3.48298 0
M  V30 14162 H 1372.18 -4.20726 -5.03314 0
M  V30 14163 H 1372.09 -5.90904 -4.71559 0
M  V30 14164 H 1373.36 -5.28627 -5.72865 0
M  V30 14165 N 1377.59 0.500963 -1.49426 0
M  V30 14166 C 1378.52 1.61114 -1.69011 0
M  V30 14167 C 1379.5 1.61341 -0.538813 0
M  V30 14168 O 1380.69 1.78081 -0.77466 0
M  V30 14169 C 1377.82 2.99598 -1.75666 0
M  V30 14170 C 1376.77 3.14236 -2.90585 0
M  V30 14171 C 1376.1 4.54071 -2.82354 0
M  V30 14172 C 1377.4 2.94258 -4.3152 0
M  V30 14173 H 1379.09 1.44978 -2.61957 0
M  V30 14174 H 1376.64 0.69603 -1.26061 0
M  V30 14175 H 1378.59 3.77163 -1.87953 0
M  V30 14176 H 1377.31 3.16822 -0.793186 0
M  V30 14177 H 1375.97 2.39096 -2.779 0
M  V30 14178 H 1375.62 4.68172 -1.83914 0
M  V30 14179 H 1375.32 4.64806 -3.59485 0
M  V30 14180 H 1376.84 5.33696 -2.96649 0
M  V30 14181 H 1378.26 3.61592 -4.44886 0
M  V30 14182 H 1376.65 3.16464 -5.09873 0
M  V30 14183 H 1377.72 1.90383 -4.45962 0
M  V30 14184 N 1379.07 1.38501 0.752011 0
M  V30 14185 C 1380 1.38577 1.87933 0
M  V30 14186 C 1380.98 0.251454 1.68231 0
M  V30 14187 O 1382.16 0.45477 1.888 0
M  V30 14188 C 1379.29 1.21164 3.25479 0
M  V30 14189 C 1378.25 2.31816 3.59785 0
M  V30 14190 C 1377.57 1.99508 4.96085 0
M  V30 14191 C 1378.87 3.74082 3.645 0
M  V30 14192 H 1380.57 2.32913 1.88127 0
M  V30 14193 H 1378.11 1.12113 0.903698 0
M  V30 14194 H 1380.07 1.19842 4.04 0
M  V30 14195 H 1378.79 0.232899 3.25769 0
M  V30 14196 H 1377.45 2.32327 2.83584 0
M  V30 14197 H 1377.1 1.00114 4.92936 0
M  V30 14198 H 1376.8 2.73617 5.20007 0
M  V30 14199 H 1378.32 1.99807 5.76983 0
M  V30 14200 H 1379.74 3.75593 4.33131 0
M  V30 14201 H 1378.13 4.47409 3.99931 0
M  V30 14202 H 1379.2 4.06284 2.64692 0
M  V30 14203 N 1380.55 -0.980364 1.23396 0
M  V30 14204 C 1381.51 -2.05433 1.01635 0
M  V30 14205 C 1382.51 -1.60785 -0.0218244 0
M  V30 14206 O 1383.7 -1.72832 0.217922 0
M  V30 14207 C 1380.83 -3.36631 0.537822 0
M  V30 14208 H 1382.02 -2.26172 1.96943 0
M  V30 14209 H 1379.58 -1.15378 1.05441 0
M  V30 14210 H 1380.31 -3.21581 -0.41903 0
M  V30 14211 H 1380.1 -3.70377 1.28698 0
M  V30 14212 H 1381.59 -4.1562 0.406213 0
M  V30 14213 N 1382.02 -1.04567 -1.17913 0
M  V30 14214 C 1383.27 -0.750538 -1.87647 0
M  V30 14215 C 1383.59 0.72423 -1.81052 0
M  V30 14216 O 1382.86 1.52292 -1.23223 0
M  V30 14217 H 1381.44 -0.274636 -0.694683 0
M  V30 14218 H 1384.1 -1.32349 -1.43072 0
M  V30 14219 H 1383.2 -1.05987 -2.93553 0
M  V30 14220 N 1383.5 1.34231 -0.825823 0
M  V30 14221 C 1384.43 2.28261 -0.207234 0
M  V30 14222 C 1385.45 1.51159 0.604554 0
M  V30 14223 O 1386.64 1.7315 0.43376 0
M  V30 14224 C 1383.74 3.30991 0.727868 0
M  V30 14225 C 1382.91 4.3738 -0.0417267 0
M  V30 14226 C 1381.97 5.19854 0.81474 0
M  V30 14227 O 1380.99 5.68612 0.25867 0
M  V30 14228 N 1382.2 5.39849 2.1341 0
M  V30 14229 H 1384.96 2.81986 -1.0151 0
M  V30 14230 H 1382.52 1.46785 -0.683056 0
M  V30 14231 H 1384.51 3.83065 1.3055 0
M  V30 14232 H 1383.08 2.7764 1.43647 0
M  V30 14233 H 1382.3 3.85983 -0.800686 0
M  V30 14234 H 1383.59 5.05581 -0.571395 0
M  V30 14235 H 1382.99 5.01914 2.60958 0
M  V30 14236 H 1381.55 5.95029 2.66052 0
M  V30 14237 N 1384.98 0.581051 1.46498 0
M  V30 14238 C 1385.93 -0.153147 2.30291 0
M  V30 14239 C 1386.9 -0.885681 1.40517 0
M  V30 14240 O 1388.08 -0.876678 1.69467 0
M  V30 14241 C 1385.22 -1.16193 3.24951 0
M  V30 14242 C 1384.33 -0.433016 4.29824 0
M  V30 14243 C 1383.47 -1.42918 5.11613 0
M  V30 14244 C 1382.51 -0.686576 6.08237 0
M  V30 14245 N 1381.65 -1.63072 6.829 0
M  V30 14246 H 1386.49 0.56747 2.92547 0
M  V30 14247 H 1384.02 0.29166 1.4418 0
M  V30 14248 H 1385.98 -1.75965 3.78275 0
M  V30 14249 H 1384.61 -1.85028 2.64508 0
M  V30 14250 H 1383.66 0.279707 3.7937 0
M  V30 14251 H 1384.97 0.147604 4.98582 0
M  V30 14252 H 1384.13 -2.09975 5.69206 0
M  V30 14253 H 1382.87 -2.04373 4.42813 0
M  V30 14254 H 1381.87 -0.00222013 5.498 0
M  V30 14255 H 1383.1 -0.0774416 6.79056 0
M  V30 14256 H 1381.04 -2.2334 6.1681 0
M  V30 14257 H 1380.96 -1.10286 7.47912 0
M  V30 14258 H 1382.23 -2.29169 7.45052 0
M  V30 14259 N 1386.46 -1.54343 0.318742 0
M  V30 14260 C 1387.73 -1.92635 -0.339299 0
M  V30 14261 C 1388.11 -1.24786 -1.7027 0
M  V30 14262 O 1387.46 -0.389844 -2.2515 0
M  V30 14263 C 1387.67 -3.46262 -0.436318 0
M  V30 14264 C 1389.02 -4.18809 -0.698871 0
M  V30 14265 O 1390.04 -3.52392 -0.519431 0
M  V30 14266 O 1388.9 -5.36422 -1.04471 0
M  V30 14267 H 1386 -0.804202 -0.192841 0
M  V30 14268 H 1388.54 -1.6566 0.368104 0
M  V30 14269 H 1387.32 -3.8781 0.521427 0
M  V30 14270 H 1386.94 -3.79327 -1.19149 0
M  V30 14271 N 1387.94 -0.0468143 -1.5753 0
M  V30 14272 C 1389.18 0.626699 -1.92138 0
M  V30 14273 C 1389.5 1.7164 -0.925463 0
M  V30 14274 O 1388.77 1.95876 0.0303531 0
M  V30 14275 H 1387.35 0.234479 -0.709245 0
M  V30 14276 H 1390.02 -0.0987892 -1.94649 0
M  V30 14277 H 1389.11 1.06811 -2.93254 0
M  V30 14278 N 1389.41 1.55964 0.226527 0
M  V30 14279 C 1390.34 1.95028 1.284 0
M  V30 14280 C 1391.33 0.817833 1.49149 0
M  V30 14281 O 1392.51 1.07975 1.61416 0
M  V30 14282 C 1389.64 2.26266 2.63478 0
M  V30 14283 C 1388.59 3.41954 2.57393 0
M  V30 14284 C 1387.92 3.58786 3.96456 0
M  V30 14285 C 1389.22 4.77069 2.12608 0
M  V30 14286 H 1390.91 2.83608 0.959513 0
M  V30 14287 H 1388.46 1.36451 0.460125 0
M  V30 14288 H 1390.41 2.52186 3.3761 0
M  V30 14289 H 1389.14 1.34533 2.97604 0
M  V30 14290 H 1387.8 3.16076 1.85719 0
M  V30 14291 H 1387.44 2.64437 4.27881 0
M  V30 14292 H 1387.14 4.36595 3.93267 0
M  V30 14293 H 1388.67 3.87048 4.72256 0
M  V30 14294 H 1390.08 5.02226 2.76481 0
M  V30 14295 H 1388.48 5.58126 2.2049 0
M  V30 14296 H 1389.55 4.7276 1.07823 0
M  V30 14297 N 1390.89 -0.493031 1.4969 0
M  V30 14298 C 1391.82 -1.60215 1.69863 0
M  V30 14299 C 1392.8 -1.61053 0.547362 0
M  V30 14300 O 1393.99 -1.77667 0.784093 0
M  V30 14301 C 1391.12 -2.98662 1.77252 0
M  V30 14302 C 1390.07 -3.1269 2.92248 0
M  V30 14303 C 1389.4 -4.52567 2.84758 0
M  V30 14304 C 1390.7 -2.91965 4.33074 0
M  V30 14305 H 1392.39 -1.43587 2.62723 0
M  V30 14306 H 1389.94 -0.689334 1.26429 0
M  V30 14307 H 1391.89 -3.7616 1.89951 0
M  V30 14308 H 1390.62 -3.16397 0.809976 0
M  V30 14309 H 1389.27 -2.37619 2.79164 0
M  V30 14310 H 1388.92 -4.6719 1.86394 0
M  V30 14311 H 1388.62 -4.62893 3.61944 0
M  V30 14312 H 1390.15 -5.32116 2.99475 0
M  V30 14313 H 1391.56 -3.59228 4.46798 0
M  V30 14314 H 1389.96 -3.13756 5.11544 0
M  V30 14315 H 1391.03 -1.88015 4.46966 0
M  V30 14316 N 1392.37 -1.38898 -0.744656 0
M  V30 14317 C 1393.62 -1.35327 -1.50104 0
M  V30 14318 C 1393.94 0.0532788 -1.94927 0
M  V30 14319 O 1393.21 1.0027 -1.68294 0
M  V30 14320 H 1391.79 -0.49797 -0.556808 0
M  V30 14321 H 1394.45 -1.73667 -0.884625 0
M  V30 14322 H 1393.55 -2.00983 -2.38773 0
M  V30 14323 N 1393.85 0.973806 -1.23914 0
M  V30 14324 C 1394.78 2.07003 -0.983982 0
M  V30 14325 C 1395.79 1.62739 0.0443893 0
M  V30 14326 O 1396.98 1.77465 -0.191927 0
M  V30 14327 C 1394.08 3.35737 -0.461937 0
M  V30 14328 C 1393.26 4.08939 -1.55202 0
M  V30 14329 C 1392.31 5.15947 -1.03369 0
M  V30 14330 O 1391.34 5.42461 -1.72409 0
M  V30 14331 N 1392.54 5.80343 0.135067 0
M  V30 14332 H 1395.31 2.29468 -1.92781 0
M  V30 14333 H 1392.87 1.14098 -1.14861 0
M  V30 14334 H 1394.86 4.04576 -0.100074 0
M  V30 14335 H 1393.43 3.10189 0.387467 0
M  V30 14336 H 1392.65 3.34462 -2.08635 0
M  V30 14337 H 1393.94 4.5461 -2.2849 0
M  V30 14338 H 1393.34 5.61196 0.71241 0
M  V30 14339 H 1391.89 6.50326 0.438132 0
M  V30 14340 N 1395.33 1.05191 1.17357 0
M  V30 14341 C 1396.58 0.757104 1.86951 0
M  V30 14342 C 1396.89 -0.718637 1.8192 0
M  V30 14343 O 1398.09 -1.12739 2.46986 0
M  V30 14344 C 1396.55 1.30409 3.35442 0
M  V30 14345 C 1396.16 2.80928 3.48975 0
M  V30 14346 C 1397.9 1.08633 4.10365 0
M  V30 14347 C 1395.81 3.28927 4.91488 0
M  V30 14348 H 1394.74 0.279525 0.700273 0
M  V30 14349 H 1397.39 1.2692 1.32528 0
M  V30 14350 H 1395.77 0.719812 3.89403 0
M  V30 14351 H 1396.95 3.45211 3.05231 0
M  V30 14352 H 1395.26 3.01245 2.87473 0
M  V30 14353 H 1397.86 1.41996 5.15501 0
M  V30 14354 H 1398.2 0.0240903 4.16293 0
M  V30 14355 H 1398.73 1.63581 3.6261 0
M  V30 14356 H 1395.47 4.34581 4.90734 0
M  V30 14357 H 1394.99 2.69386 5.35902 0
M  V30 14358 H 1396.67 3.23605 5.60258 0
M  V30 14359 N 1396.8 -1.33791 0.83293 0
M  V30 14360 C 1397.77 -2.27637 0.267196 0
M  V30 14361 C 1398.77 -1.50709 -0.560669 0
M  V30 14362 O 1399.96 -1.70109 -0.375321 0
M  V30 14363 C 1397.09 -3.35136 -0.624248 0
M  V30 14364 H 1398.28 -2.79186 1.09522 0
M  V30 14365 H 1395.84 -1.44093 0.605554 0
M  V30 14366 H 1396.57 -2.88818 -1.47494 0
M  V30 14367 H 1396.36 -3.92087 -0.0319827 0
M  V30 14368 H 1397.85 -4.05113 -1.01355 0
M  V30 14369 N 1398.28 -0.588812 -1.46187 0
M  V30 14370 C 1399.25 0.130803 -2.28826 0
M  V30 14371 C 1400.25 0.813037 -1.38731 0
M  V30 14372 O 1401.44 0.664061 -1.61046 0
M  V30 14373 C 1398.57 1.19484 -3.19275 0
M  V30 14374 H 1399.76 -0.595514 -2.93928 0
M  V30 14375 H 1397.31 -0.347038 -1.52399 0
M  V30 14376 H 1398.05 1.95254 -2.58933 0
M  V30 14377 H 1397.83 0.710077 -3.85617 0
M  V30 14378 H 1399.32 1.69938 -3.81459 0
M  V30 14379 N 1399.76 1.54172 -0.326923 0
M  V30 14380 C 1400.69 2.20703 0.580137 0
M  V30 14381 C 1401.67 1.18523 1.11315 0
M  V30 14382 O 1402.86 1.47276 1.17652 0
M  V30 14383 C 1399.98 2.87137 1.79638 0
M  V30 14384 C 1399.03 4.03064 1.39432 0
M  V30 14385 S 1399.86 5.33785 0.428179 0
M  V30 14386 C 1401.02 6.03715 1.65163 0
M  V30 14387 H 1401.25 2.97296 0.0149964 0
M  V30 14388 H 1398.78 1.54 -0.111004 0
M  V30 14389 H 1400.74 3.26035 2.49423 0
M  V30 14390 H 1399.4 2.1034 2.33272 0
M  V30 14391 H 1398.6 4.48424 2.3007 0
M  V30 14392 H 1398.2 3.65858 0.776144 0
M  V30 14393 H 1400.49 6.26098 2.58858 0
M  V30 14394 H 1401.43 6.97156 1.24014 0
M  V30 14395 H 1401.84 5.33666 1.84014 0
M  V30 14396 N 1401.24 0.0551678 1.57503 0
M  V30 14397 C 1402.46 -0.630692 1.97578 0
M  V30 14398 C 1402.89 -1.63348 0.932686 0
M  V30 14399 O 1402.25 -1.81004 -0.103632 0
M  V30 14400 C 1402.29 -1.29049 3.36718 0
M  V30 14401 O 1401.4 -2.40621 3.34926 0
M  V30 14402 H 1400.74 -0.163625 0.643524 0
M  V30 14403 H 1403.27 0.124753 2.04219 0
M  V30 14404 H 1403.28 -1.64124 3.73534 0
M  V30 14405 H 1401.95 -0.55559 4.12172 0
M  V30 14406 H 1400.53 -2.07463 3.0986 0
M  V30 14407 N 1402.72 -1.56081 -0.218252 0
M  V30 14408 C 1403.99 -1.70043 -0.966684 0
M  V30 14409 C 1404.37 -0.603372 -2.02293 0
M  V30 14410 O 1403.72 0.389138 -2.25162 0
M  V30 14411 C 1403.93 -3.11484 -1.57413 0
M  V30 14412 C 1405.28 -3.70995 -2.06513 0
M  V30 14413 O 1406.3 -3.14466 -1.67301 0
M  V30 14414 O 1405.16 -4.70156 -2.78596 0
M  V30 14415 H 1402.26 -0.692691 -0.451784 0
M  V30 14416 H 1404.8 -1.68398 -0.209774 0
M  V30 14417 H 1403.57 -3.8279 -0.811614 0
M  V30 14418 H 1403.2 -3.1726 -2.3965 0
M  V30 14419 N 1404.2 0.485086 -1.49949 0
M  V30 14420 C 1405.13 1.59312 -1.7071 0
M  V30 14421 C 1406.11 1.6076 -0.555896 0
M  V30 14422 O 1407.29 1.77249 -0.793504 0
M  V30 14423 C 1404.42 2.97718 -1.78834 0
M  V30 14424 C 1403.38 3.11136 -2.93902 0
M  V30 14425 C 1402.7 4.51051 -2.87154 0
M  V30 14426 C 1404 2.89665 -4.34617 0
M  V30 14427 H 1405.7 1.42192 -2.6348 0
M  V30 14428 H 1403.24 0.68262 -1.26792 0
M  V30 14429 H 1405.19 3.75148 -1.91943 0
M  V30 14430 H 1403.92 3.15963 -0.826744 0
M  V30 14431 H 1402.58 2.36135 -2.80421 0
M  V30 14432 H 1402.23 4.66195 -1.88869 0
M  V30 14433 H 1401.93 4.60967 -3.64394 0
M  V30 14434 H 1403.45 5.3052 -3.02293 0
M  V30 14435 H 1404.86 3.56853 -4.48697 0
M  V30 14436 H 1403.26 3.11039 -5.13201 0
M  V30 14437 H 1404.33 1.85642 -4.47956 0
M  V30 14438 N 1405.67 1.39291 0.737279 0
M  V30 14439 C 1406.9 1.39457 1.52431 0
M  V30 14440 C 1407.31 -0.0132866 1.89195 0
M  V30 14441 O 1406.65 -0.99443 1.54456 0
M  V30 14442 C 1406.72 2.20125 2.84227 0
M  V30 14443 C 1406.38 3.68778 2.6991 0
M  V30 14444 C 1407.38 4.6191 2.38611 0
M  V30 14445 C 1405.06 4.12336 2.86853 0
M  V30 14446 C 1407.06 5.96581 2.24432 0
M  V30 14447 C 1404.74 5.47083 2.72292 0
M  V30 14448 C 1405.74 6.3902 2.41127 0
M  V30 14449 O 1405.43 7.71287 2.26654 0
M  V30 14450 H 1405.16 0.478281 0.477727 0
M  V30 14451 H 1407.72 1.837 0.918891 0
M  V30 14452 H 1405.95 1.70627 3.47021 0
M  V30 14453 H 1407.63 2.12497 3.45832 0
M  V30 14454 H 1408.4 4.29559 2.25175 0
M  V30 14455 H 1404.28 3.41111 3.10103 0
M  V30 14456 H 1407.82 6.68307 2.00028 0
M  V30 14457 H 1403.72 5.79026 2.85306 0
M  V30 14458 H 1404.49 7.81987 2.41742 0
M  V30 14459 N 1407.15 -0.967221 1.24429 0
M  V30 14460 C 1408.38 -1.7452 1.11133 0
M  V30 14461 C 1408.79 -1.85785 -0.336087 0
M  V30 14462 O 1408.15 -1.34652 -1.23188 0
M  V30 14463 C 1408.2 -3.16544 1.74591 0
M  V30 14464 O 1407.92 -3.05845 3.13673 0
M  V30 14465 C 1409.42 -4.10677 1.6691 0
M  V30 14466 H 1406.64 -0.547267 0.388253 0
M  V30 14467 H 1409.19 -1.2143 1.64545 0
M  V30 14468 H 1407.34 -3.66618 1.2518 0
M  V30 14469 H 1407.76 -3.95346 3.44676 0
M  V30 14470 H 1409.23 -5.07987 2.15992 0
M  V30 14471 H 1409.71 -4.34652 0.630411 0
M  V30 14472 H 1410.31 -3.66514 2.15749 0
M  V30 14473 N 1408.63 -1.05812 -1.16797 0
M  V30 14474 C 1409.58 -0.664599 -2.21024 0
M  V30 14475 C 1410.55 0.336352 -1.62659 0
M  V30 14476 O 1411.73 0.226346 -1.89453 0
M  V30 14477 C 1408.87 -0.0520739 -3.45061 0
M  V30 14478 C 1407.98 -1.10261 -4.17692 0
M  V30 14479 C 1407.12 -0.456746 -5.29233 0
M  V30 14480 C 1406.16 -1.49116 -5.93659 0
M  V30 14481 N 1405.3 -0.869002 -6.96701 0
M  V30 14482 H 1410.14 -1.55784 -2.54038 0
M  V30 14483 H 1407.67 -0.778993 -1.2478 0
M  V30 14484 H 1409.63 0.320552 -4.15967 0
M  V30 14485 H 1408.26 0.804592 -3.12612 0
M  V30 14486 H 1407.31 -1.593 -3.45438 0
M  V30 14487 H 1408.62 -1.88757 -4.61706 0
M  V30 14488 H 1407.78 -0.0308814 -6.06692 0
M  V30 14489 H 1406.52 0.360131 -4.86369 0
M  V30 14490 H 1405.52 -1.92697 -5.14925 0
M  V30 14491 H 1406.75 -2.31005 -6.38603 0
M  V30 14492 H 1404.69 -0.0727494 -6.5596 0
M  V30 14493 H 1404.61 -1.59141 -7.3906 0
M  V30 14494 H 1405.88 -0.46812 -7.78093 0
M  V30 14495 N 1410.11 1.33347 -0.840014 0
M  V30 14496 C 1411.05 2.29191 -0.272048 0
M  V30 14497 C 1412.02 1.54383 0.612787 0
M  V30 14498 O 1413.21 1.82676 0.550812 0
M  V30 14499 C 1410.35 3.40755 0.545901 0
M  V30 14500 C 1409.46 4.30471 -0.363084 0
M  V30 14501 C 1408.6 5.29151 0.466078 0
M  V30 14502 C 1407.64 6.10508 -0.441225 0
M  V30 14503 N 1406.77 7.01228 0.349877 0
M  V30 14504 H 1411.61 2.77166 -1.09467 0
M  V30 14505 H 1409.15 1.36379 -0.551284 0
M  V30 14506 H 1411.11 4.04142 1.03562 0
M  V30 14507 H 1409.74 2.9397 1.33348 0
M  V30 14508 H 1408.79 3.67795 -0.971119 0
M  V30 14509 H 1410.1 4.87406 -1.06002 0
M  V30 14510 H 1409.26 5.98072 1.01957 0
M  V30 14511 H 1408 4.72796 1.19644 0
M  V30 14512 H 1407 5.40504 -1.00672 0
M  V30 14513 H 1408.23 6.68946 -1.16997 0
M  V30 14514 H 1406.17 6.4732 1.0636 0
M  V30 14515 H 1406.09 7.5545 -0.288317 0
M  V30 14516 H 1407.36 7.74453 0.885573 0
M  V30 14517 N 1411.59 0.596556 1.45873 0
M  V30 14518 C 1412.81 0.0916466 2.07197 0
M  V30 14519 C 1413.24 -1.21004 1.44012 0
M  V30 14520 O 1412.59 -1.73415 0.528844 0
M  V30 14521 C 1412.64 -0.0461457 3.6057 0
M  V30 14522 O 1411.75 -1.09919 3.97481 0
M  V30 14523 H 1411.09 0.0690655 0.660398 0
M  V30 14524 H 1413.62 0.823434 1.87299 0
M  V30 14525 H 1413.63 -0.2479 4.07246 0
M  V30 14526 H 1412.3 0.904381 4.05948 0
M  V30 14527 H 1410.88 -0.874788 3.62494 0
M  V30 14528 N 1413.06 -1.53996 0.335095 0
M  V30 14529 C 1414.31 -2.01069 -0.264388 0
M  V30 14530 C 1414.64 -1.22271 -1.50876 0
M  V30 14531 O 1413.92 -0.30806 -1.92045 0
M  V30 14532 C 1414.2 -3.55283 -0.587 0
M  V30 14533 C 1414.05 -4.44799 0.668877 0
M  V30 14534 C 1415.37 -4.17238 -1.40003 0
M  V30 14535 H 1412.49 -0.730901 -0.0946202 0
M  V30 14536 H 1415.13 -1.84497 0.453958 0
M  V30 14537 H 1413.28 -3.69536 -1.19899 0
M  V30 14538 H 1414.96 -4.42398 1.30698 0
M  V30 14539 H 1413.2 -4.14005 1.29547 0
M  V30 14540 H 1413.87 -5.5056 0.398523 0
M  V30 14541 H 1416.35 -4.06631 -0.88262 0
M  V30 14542 H 1415.22 -5.2523 -1.59451 0
M  V30 14543 H 1415.48 -3.71309 -2.39962 0
M  V30 14544 N 1414.54 -0.0635198 -1.57472 0
M  V30 14545 C 1415.79 0.602418 -1.94274 0
M  V30 14546 C 1416.14 1.67717 -0.942797 0
M  V30 14547 O 1415.44 1.91566 0.0361878 0
M  V30 14548 C 1415.63 1.23117 -3.35525 0
M  V30 14549 C 1415.46 0.218848 -4.49167 0
M  V30 14550 C 1414.23 -0.19356 -5.04929 0
M  V30 14551 C 1416.43 -0.540636 -5.1145 0
M  V30 14552 N 1414.41 -1.19745 -6.02108 0
M  V30 14553 C 1415.78 -1.39725 -6.0405 0
M  V30 14554 C 1417.83 -0.597606 -4.94301 0
M  V30 14555 C 1416.54 -2.30575 -6.81342 0
M  V30 14556 C 1418.56 -1.49358 -5.72229 0
M  V30 14557 C 1417.93 -2.33789 -6.64471 0
M  V30 14558 H 1414.02 0.191715 -0.758135 0
M  V30 14559 H 1416.61 -0.138733 -1.94205 0
M  V30 14560 H 1414.78 1.94229 -3.36348 0
M  V30 14561 H 1416.51 1.85691 -3.59584 0
M  V30 14562 H 1413.27 0.187897 -4.73227 0
M  V30 14563 H 1413.69 -1.69666 -6.55395 0
M  V30 14564 H 1418.33 0.0409459 -4.2278 0
M  V30 14565 H 1416.05 -2.9547 -7.52146 0
M  V30 14566 H 1419.64 -1.5424 -5.60983 0
M  V30 14567 H 1418.52 -3.01995 -7.23719 0
M  V30 14568 N 1416.02 1.56195 0.209972 0
M  V30 14569 C 1417.27 1.78941 0.930744 0
M  V30 14570 C 1417.58 0.634139 1.85035 0
M  V30 14571 O 1418.79 0.745524 2.61064 0
M  V30 14572 C 1417.24 3.16935 1.70529 0
M  V30 14573 C 1416.85 4.40221 0.83125 0
M  V30 14574 C 1418.6 3.49 2.41659 0
M  V30 14575 C 1416.5 5.69238 1.60381 0
M  V30 14576 H 1415.43 0.667176 0.351273 0
M  V30 14577 H 1418.08 1.82572 0.184341 0
M  V30 14578 H 1416.47 3.07513 2.49503 0
M  V30 14579 H 1417.64 4.60728 0.081227 0
M  V30 14580 H 1415.95 4.15756 0.231517 0
M  V30 14581 H 1418.55 4.42623 2.99982 0
M  V30 14582 H 1418.89 2.72042 3.15117 0
M  V30 14583 H 1419.43 3.59804 1.69665 0
M  V30 14584 H 1416.17 6.49121 0.912292 0
M  V30 14585 H 1415.69 5.52772 2.32815 0
M  V30 14586 H 1417.37 6.09827 2.16149 0
M  V30 14587 N 1417.5 -0.477127 1.50204 0
M  V30 14588 C 1418.74 -1.22964 1.60891 0
M  V30 14589 C 1419.07 -1.9207 0.306464 0
M  V30 14590 O 1418.33 -1.82472 -0.707272 0
M  V30 14591 C 1418.63 -2.30126 2.73453 0
M  V30 14592 C 1418.29 -1.78314 4.14143 0
M  V30 14593 C 1416.95 -1.63904 4.52425 0
M  V30 14594 C 1419.31 -1.3981 5.02098 0
M  V30 14595 C 1416.63 -1.09404 5.76409 0
M  V30 14596 C 1418.99 -0.867538 6.26623 0
M  V30 14597 C 1417.65 -0.710022 6.63713 0
M  V30 14598 H 1416.92 -0.449959 0.588743 0
M  V30 14599 H 1419.57 -0.526592 1.84118 0
M  V30 14600 H 1417.87 -3.06315 2.44291 0
M  V30 14601 H 1419.57 -2.88099 2.78927 0
M  V30 14602 H 1416.16 -1.90496 3.83939 0
M  V30 14603 H 1420.34 -1.49779 4.73159 0
M  V30 14604 H 1415.6 -0.959413 6.03825 0
M  V30 14605 H 1419.77 -0.560496 6.94141 0
M  V30 14606 H 1417.4 -0.285555 7.59663 0
M  V30 14607 N 1418.98 -1.3968 -0.729882 0
M  V30 14608 C 1420.22 -1.36911 -1.4866 0
M  V30 14609 C 1420.55 0.0326011 -1.94973 0
M  V30 14610 O 1419.82 0.984789 -1.69348 0
M  V30 14611 H 1418.4 -0.503848 -0.551495 0
M  V30 14612 H 1421.06 -1.74596 -0.866155 0
M  V30 14613 H 1420.15 -2.03504 -2.36628 0
M  V30 14614 N 1420.45 0.960609 -1.2494 0
M  V30 14615 C 1421.7 1.70111 -1.09117 0
M  V30 14616 C 1422.02 1.91466 0.369544 0
M  V30 14617 O 1421.29 1.49749 1.26302 0
M  V30 14618 H 1419.87 0.630372 -0.400799 0
M  V30 14619 H 1422.54 1.15525 -1.56971 0
M  V30 14620 H 1421.63 2.68277 -1.5948 0
M  V30 14621 N 1421.93 1.0643 1.16234 0
M  V30 14622 C 1423.21 0.695256 1.82827 0
M  V30 14623 C 1423.59 -0.823242 1.94386 0
M  V30 14624 O 1422.94 -1.73406 1.48804 0
M  V30 14625 C 1423.15 1.3988 3.19741 0
M  V30 14626 C 1424.5 1.54489 3.95498 0
M  V30 14627 O 1425.52 1.35882 3.29264 0
M  V30 14628 O 1424.38 1.85027 5.14225 0
M  V30 14629 H 1421.47 0.246285 0.789476 0
M  V30 14630 H 1424.02 1.16466 1.23426 0
M  V30 14631 H 1422.79 2.43419 3.06371 0
M  V30 14632 H 1422.41 0.91957 3.8682 0
M  V30 14633 N 1423.41 -1.329 0.847073 0
M  V30 14634 C 1424.66 -1.9712 0.445872 0
M  V30 14635 C 1424.98 -1.67398 -1.00014 0
M  V30 14636 O 1424.25 -0.977204 -1.69787 0
M  V30 14637 H 1422.83 -0.729247 0.161887 0
M  V30 14638 H 1425.49 -1.62118 1.08184 0
M  V30 14639 H 1424.59 -3.06575 0.584676 0
M  V30 14640 N 1424.89 -0.604284 -1.45555 0
M  V30 14641 C 1426.13 -0.106748 -2.0312 0
M  V30 14642 C 1426.49 1.24754 -1.46472 0
M  V30 14643 O 1425.78 1.80993 -0.628659 0
M  V30 14644 C 1425.98 -0.00538243 -3.574 0
M  V30 14645 C 1425.81 -1.3483 -4.29012 0
M  V30 14646 C 1424.58 -1.92813 -4.67067 0
M  V30 14647 C 1426.77 -2.27634 -4.6118 0
M  V30 14648 N 1424.76 -3.20619 -5.23523 0
M  V30 14649 C 1426.13 -3.40037 -5.18435 0
M  V30 14650 C 1428.18 -2.27047 -4.43119 0
M  V30 14651 C 1426.88 -4.52014 -5.59531 0
M  V30 14652 C 1428.91 -3.38069 -4.85245 0
M  V30 14653 C 1428.27 -4.49194 -5.4259 0
M  V30 14654 H 1424.37 -0.0823527 -0.777652 0
M  V30 14655 H 1426.96 -0.801912 -1.77419 0
M  V30 14656 H 1425.13 0.658995 -3.82769 0
M  V30 14657 H 1426.86 0.498511 -4.01618 0
M  V30 14658 H 1423.61 -1.46056 -4.50516 0
M  V30 14659 H 1424.04 -3.8589 -5.56253 0
M  V30 14660 H 1428.68 -1.42395 -3.981 0
M  V30 14661 H 1426.4 -5.37394 -6.03518 0
M  V30 14662 H 1429.98 -3.38759 -4.73005 0
M  V30 14663 H 1428.86 -5.33683 -5.74588 0
M  V30 14664 N 1426.37 1.53816 -0.343257 0
M  V30 14665 C 1427.33 2.23654 0.501161 0
M  V30 14666 C 1428.33 1.23664 1.02781 0
M  V30 14667 O 1429.52 1.48104 0.917103 0
M  V30 14668 C 1426.65 2.95596 1.69812 0
M  V30 14669 H 1427.84 2.997 -0.109626 0
M  V30 14670 H 1425.4 1.56013 -0.0946011 0
M  V30 14671 H 1426.13 2.23736 2.34761 0
M  V30 14672 H 1425.92 3.68938 1.32768 0
M  V30 14673 H 1427.41 3.48748 2.29706 0
M  V30 14674 N 1427.84 0.0718701 1.57436 0
M  V30 14675 C 1429.07 -0.605374 1.97532 0
M  V30 14676 C 1429.48 -1.6368 0.948974 0
M  V30 14677 O 1428.83 -1.83556 -0.0726987 0
M  V30 14678 C 1428.89 -1.33139 3.33937 0
M  V30 14679 C 1428.55 -0.453426 4.54745 0
M  V30 14680 C 1429.55 0.289012 5.19096 0
M  V30 14681 C 1427.23 -0.378282 5.00874 0
M  V30 14682 C 1429.23 1.09482 6.27927 0
M  V30 14683 C 1426.91 0.431192 6.09577 0
M  V30 14684 C 1427.91 1.16641 6.72966 0
M  V30 14685 O 1427.6 1.96253 7.79577 0
M  V30 14686 H 1427.33 -0.168804 0.654585 0
M  V30 14687 H 1429.89 0.140832 2.04917 0
M  V30 14688 H 1428.12 -2.12367 3.23167 0
M  V30 14689 H 1429.81 -1.90089 3.58638 0
M  V30 14690 H 1430.57 0.240552 4.84403 0
M  V30 14691 H 1426.45 -0.940166 4.51311 0
M  V30 14692 H 1429.99 1.66918 6.77336 0
M  V30 14693 H 1425.89 0.481217 6.43704 0
M  V30 14694 H 1426.66 1.88686 7.96455 0
M  V30 14695 N 1429.32 -1.56304 -0.201686 0
M  V30 14696 C 1430.6 -1.71059 -0.948595 0
M  V30 14697 C 1430.98 -0.624794 -2.01642 0
M  V30 14698 O 1430.33 0.365235 -2.25562 0
M  V30 14699 C 1430.54 -3.13136 -1.54101 0
M  V30 14700 C 1431.89 -3.73165 -2.02567 0
M  V30 14701 O 1432.91 -3.16223 -1.63956 0
M  V30 14702 O 1431.77 -4.73084 -2.73594 0
M  V30 14703 H 1428.86 -0.697443 -0.444412 0
M  V30 14704 H 1431.41 -1.68611 -0.191901 0
M  V30 14705 H 1430.18 -3.8363 -0.770968 0
M  V30 14706 H 1429.8 -3.19784 -2.36271 0
M  V30 14707 N 1430.8 0.469154 -1.50455 0
M  V30 14708 C 1432.05 1.21788 -1.60781 0
M  V30 14709 C 1432.36 1.93054 -0.314576 0
M  V30 14710 O 1433.57 2.69873 -0.296773 0
M  V30 14711 C 1432.02 2.21305 -2.83817 0
M  V30 14712 C 1431.63 1.55833 -4.20024 0
M  V30 14713 C 1433.38 2.96808 -3.03489 0
M  V30 14714 C 1431.28 2.53648 -5.34244 0
M  V30 14715 H 1430.21 0.45827 -0.598752 0
M  V30 14716 H 1432.86 0.488159 -1.76888 0
M  V30 14717 H 1431.25 2.97577 -2.61273 0
M  V30 14718 H 1432.42 0.853371 -4.52829 0
M  V30 14719 H 1430.74 0.926046 -4.05972 0
M  V30 14720 H 1433.33 3.70017 -3.85994 0
M  V30 14721 H 1433.68 3.56307 -2.15293 0
M  V30 14722 H 1434.21 2.27648 -3.26223 0
M  V30 14723 H 1430.95 1.98885 -6.246 0
M  V30 14724 H 1430.47 3.22291 -5.05854 0
M  V30 14725 H 1432.15 3.15438 -5.64897 0
M  V30 14726 N 1432.28 1.40065 0.722464 0
M  V30 14727 C 1433.53 1.37698 1.47932 0
M  V30 14728 C 1433.85 -0.0222608 1.94987 0
M  V30 14729 O 1433.12 -0.975795 1.69868 0
M  V30 14730 H 1431.7 0.506766 0.548815 0
M  V30 14731 H 1434.36 1.75053 0.856884 0
M  V30 14732 H 1433.46 2.04756 2.35545 0
M  V30 14733 N 1433.76 -0.95397 1.25448 0
M  V30 14734 C 1434.99 -1.7308 1.12814 0
M  V30 14735 C 1435.4 -1.86461 -0.320764 0
M  V30 14736 O 1434.74 -1.3623 -1.23236 0
M  V30 14737 C 1434.8 -3.16239 1.70976 0
M  V30 14738 C 1434.46 -3.26286 3.19979 0
M  V30 14739 C 1435.46 -3.10547 4.16961 0
M  V30 14740 C 1433.15 -3.50085 3.60202 0
M  V30 14741 C 1435.14 -3.18456 5.52146 0
M  V30 14742 C 1432.83 -3.5763 4.95524 0
M  V30 14743 C 1433.83 -3.4183 5.91305 0
M  V30 14744 O 1433.51 -3.49058 7.24164 0
M  V30 14745 H 1433.25 -0.549143 0.394231 0
M  V30 14746 H 1435.8 -1.20538 1.66312 0
M  V30 14747 H 1434.03 -3.70148 1.11926 0
M  V30 14748 H 1435.72 -3.75784 1.53432 0
M  V30 14749 H 1436.48 -2.92029 3.87226 0
M  V30 14750 H 1432.36 -3.61445 2.86145 0
M  V30 14751 H 1435.91 -3.0604 6.26885 0
M  V30 14752 H 1431.8 -3.75665 5.24925 0
M  V30 14753 H 1432.57 -3.65684 7.32269 0
M  V30 14754 N 1435.24 -1.07045 -1.15668 0
M  V30 14755 C 1436.48 -0.790172 -1.86013 0
M  V30 14756 C 1436.8 0.685663 -1.82548 0
M  V30 14757 O 1436.07 1.49644 -1.26426 0
M  V30 14758 H 1434.65 -0.28931 -0.688701 0
M  V30 14759 H 1437.32 -1.35354 -1.40233 0
M  V30 14760 H 1436.41 -1.1219 -2.91239 0
M  V30 14761 N 1436.71 1.32449 -0.85411 0
M  V30 14762 C 1437.96 1.96881 -0.45632 0
M  V30 14763 C 1438.28 1.67926 0.991248 0
M  V30 14764 O 1437.55 0.986195 1.69266 0
M  V30 14765 H 1436.13 0.728378 -0.165752 0
M  V30 14766 H 1438.79 1.61542 -1.09042 0
M  V30 14767 H 1437.89 3.0626 -0.600927 0
M  V30 14768 N 1438.19 0.611994 1.45232 0
M  V30 14769 C 1439.12 -0.0914869 2.33321 0
M  V30 14770 C 1440.1 -0.854315 1.4709 0
M  V30 14771 O 1441.29 -0.823994 1.75852 0
M  V30 14772 C 1438.42 -1.08652 3.29867 0
M  V30 14773 C 1437.37 -0.436615 4.25767 0
M  V30 14774 C 1436.7 -1.54021 5.12037 0
M  V30 14775 C 1438 0.645005 5.18302 0
M  V30 14776 H 1439.69 0.644053 2.92391 0
M  V30 14777 H 1437.24 0.311171 1.40598 0
M  V30 14778 H 1439.19 -1.58726 3.90364 0
M  V30 14779 H 1437.91 -1.85271 2.68965 0
M  V30 14780 H 1436.57 0.0432918 3.66574 0
M  V30 14781 H 1436.22 -2.29679 4.475 0
M  V30 14782 H 1435.92 -1.11084 5.77005 0
M  V30 14783 H 1437.45 -2.04313 5.75403 0
M  V30 14784 H 1438.86 0.228166 5.72846 0
M  V30 14785 H 1437.26 0.996387 5.9177 0
M  V30 14786 H 1438.33 1.51985 4.60466 0
M  V30 14787 N 1439.67 -1.53632 0.351409 0
M  V30 14788 C 1440.95 -1.93311 -0.298362 0
M  V30 14789 C 1441.33 -1.28369 -1.67584 0
M  V30 14790 O 1440.67 -0.437514 -2.24272 0
M  V30 14791 C 1440.88 -3.47109 -0.362773 0
M  V30 14792 C 1442.23 -4.20197 -0.609878 0
M  V30 14793 O 1443.26 -3.53415 -0.444566 0
M  V30 14794 O 1442.12 -5.38517 -0.930691 0
M  V30 14795 H 1439.21 -0.808112 -0.175739 0
M  V30 14796 H 1441.76 -1.64841 0.40316 0
M  V30 14797 H 1440.53 -3.86617 0.60357 0
M  V30 14798 H 1440.15 -3.81769 -1.11076 0
M  V30 14799 N 1441.15 -0.0802183 -1.57396 0
M  V30 14800 C 1442.1 0.894334 -2.09728 0
M  V30 14801 C 1443.08 1.25342 -1.00887 0
M  V30 14802 O 1444.27 1.23099 -1.27184 0
M  V30 14803 C 1441.4 2.15885 -2.66924 0
M  V30 14804 C 1440.49 1.82587 -3.82783 0
M  V30 14805 N 1440.88 1.19777 -4.91413 0
M  V30 14806 C 1439.18 2.12287 -3.92237 0
M  V30 14807 C 1439.88 1.04758 -5.72189 0
M  V30 14808 N 1438.85 1.56005 -5.20733 0
M  V30 14809 H 1442.66 0.404523 -2.91103 0
M  V30 14810 H 1440.17 0.123432 -1.6193 0
M  V30 14811 H 1442.17 2.8663 -3.02736 0
M  V30 14812 H 1440.83 2.65446 -1.86998 0
M  V30 14813 H 1441.84 0.866384 -5.10602 0
M  V30 14814 H 1438.52 2.64166 -3.23299 0
M  V30 14815 H 1439.91 0.55756 -6.69583 0
M  V30 14816 N 1442.63 1.56409 0.193394 0
M  V30 14817 C 1443.87 1.80991 0.914875 0
M  V30 14818 C 1444.2 0.654538 1.82837 0
M  V30 14819 O 1443.48 -0.344816 1.91419 0
M  V30 14820 C 1443.76 3.15841 1.72964 0
M  V30 14821 C 1443.62 4.41873 0.840748 0
M  V30 14822 C 1444.93 3.474 2.70188 0
M  V30 14823 H 1442.05 0.658408 0.331161 0
M  V30 14824 H 1444.7 1.89125 0.182161 0
M  V30 14825 H 1442.85 3.09038 2.35431 0
M  V30 14826 H 1444.52 4.60723 0.230654 0
M  V30 14827 H 1442.76 4.33549 0.147558 0
M  V30 14828 H 1443.43 5.32728 1.44586 0
M  V30 14829 H 1445.91 3.54513 2.17852 0
M  V30 14830 H 1444.78 4.42872 3.24278 0
M  V30 14831 H 1445.04 2.7098 3.49317 0
M  V30 14832 N 1444.1 -0.461169 1.50702 0
M  V30 14833 C 1445.03 -1.56576 1.73223 0
M  V30 14834 C 1446.01 -1.59855 0.581401 0
M  V30 14835 O 1447.2 -1.75964 0.821602 0
M  V30 14836 C 1444.33 -2.94835 1.83548 0
M  V30 14837 C 1443.28 -3.06421 2.98815 0
M  V30 14838 C 1442.61 -4.46425 2.94293 0
M  V30 14839 C 1443.91 -2.82714 4.3917 0
M  V30 14840 H 1445.6 -1.37982 2.65709 0
M  V30 14841 H 1443.15 -0.662362 1.27862 0
M  V30 14842 H 1445.1 -3.72047 1.97887 0
M  V30 14843 H 1443.83 -3.14608 0.876906 0
M  V30 14844 H 1442.49 -2.31644 2.84142 0
M  V30 14845 H 1442.13 -4.63131 1.96262 0
M  V30 14846 H 1441.83 -4.55111 3.71682 0
M  V30 14847 H 1443.36 -5.25644 3.10695 0
M  V30 14848 H 1444.77 -3.4967 4.54317 0
M  V30 14849 H 1443.17 -3.02835 5.18084 0
M  V30 14850 H 1444.24 -1.78492 4.50853 0
M  V30 14851 N 1445.58 -1.40446 -0.715026 0
M  V30 14852 C 1446.54 -1.40506 -1.81082 0
M  V30 14853 C 1447.54 -0.298768 -1.58 0
M  V30 14854 O 1448.73 -0.5577 -1.65031 0
M  V30 14855 C 1445.87 -1.19735 -3.19181 0
M  V30 14856 H 1447.06 -2.38034 -1.82427 0
M  V30 14857 H 1444.61 -1.26303 -0.920718 0
M  V30 14858 H 1445.35 -0.229695 -3.23486 0
M  V30 14859 H 1445.13 -1.99871 -3.37334 0
M  V30 14860 H 1446.62 -1.22566 -3.99208 0
M  V30 14861 N 1447.06 0.947303 -1.25952 0
M  V30 14862 C 1448.28 1.73261 -1.13997 0
M  V30 14863 C 1448.71 1.85666 0.301639 0
M  V30 14864 O 1448.07 1.34244 1.21854 0
M  V30 14865 C 1448.12 3.12046 -1.8072 0
M  V30 14866 O 1447.22 3.97684 -1.09182 0
M  V30 14867 H 1446.56 0.53182 -0.397572 0
M  V30 14868 H 1449.09 1.18689 -1.66656 0
M  V30 14869 H 1449.1 3.62468 -1.87299 0
M  V30 14870 H 1447.78 3.02334 -2.856 0
M  V30 14871 H 1446.35 3.56141 -1.10536 0
M  V30 14872 N 1448.54 1.07657 1.15099 0
M  V30 14873 C 1449.79 0.800025 1.85591 0
M  V30 14874 C 1450.11 -0.675973 1.82909 0
M  V30 14875 O 1449.38 -1.48971 1.27218 0
M  V30 14876 H 1447.96 0.292958 0.687157 0
M  V30 14877 H 1450.62 1.36096 1.39513 0
M  V30 14878 H 1449.72 1.13733 2.90639 0
M  V30 14879 N 1450.02 -1.31994 0.861122 0
M  V30 14880 C 1450.93 -2.32495 0.313555 0
M  V30 14881 C 1451.94 -1.64331 -0.571966 0
M  V30 14882 O 1453.12 -1.9582 -0.470794 0
M  V30 14883 C 1450.18 -3.43311 -0.483603 0
M  V30 14884 C 1449.24 -4.27153 0.428825 0
M  V30 14885 C 1448.48 -5.32676 -0.330383 0
M  V30 14886 O 1448.7 -5.48665 -1.55957 0
M  V30 14887 O 1447.63 -6.01116 0.307174 0
M  V30 14888 H 1451.46 -2.81234 1.14636 0
M  V30 14889 H 1449.05 -1.35734 0.624239 0
M  V30 14890 H 1450.93 -4.10877 -0.935831 0
M  V30 14891 H 1449.6 -2.9675 -1.2931 0
M  V30 14892 H 1448.51 -3.62372 0.929366 0
M  V30 14893 H 1449.84 -4.77255 1.20368 0
M  V30 14894 N 1451.49 -0.619688 -1.44906 0
M  V30 14895 C 1452.77 -0.0510703 -1.95533 0
M  V30 14896 C 1453.15 1.42013 -1.56191 0
M  V30 14897 O 1452.5 2.12879 -0.830356 0
M  V30 14898 C 1452.71 -0.261896 -3.48016 0
M  V30 14899 C 1454.06 -0.149057 -4.24338 0
M  V30 14900 O 1455.08 -0.192655 -3.55679 0
M  V30 14901 O 1453.94 -0.0443345 -5.46482 0
M  V30 14902 H 1451.03 0.0288461 -0.826497 0
M  V30 14903 H 1453.58 -0.690594 -1.55013 0
M  V30 14904 H 1452.35 -1.28319 -3.69662 0
M  V30 14905 H 1451.98 0.412314 -3.95456 0
M  V30 14906 N 1452.97 1.53444 -0.359552 0
M  V30 14907 C 1454.22 2.01464 0.232366 0
M  V30 14908 C 1454.55 1.24656 1.48911 0
M  V30 14909 O 1453.83 0.338574 1.9153 0
M  V30 14910 C 1454.11 3.56172 0.530403 0
M  V30 14911 C 1453.96 4.43678 -0.739556 0
M  V30 14912 C 1455.28 4.19412 1.33347 0
M  V30 14913 H 1452.4 0.732314 0.0829802 0
M  V30 14914 H 1455.04 1.83752 -0.483253 0
M  V30 14915 H 1453.19 3.71396 1.14004 0
M  V30 14916 H 1454.86 4.40263 -1.37719 0
M  V30 14917 H 1453.11 4.11892 -1.36117 0
M  V30 14918 H 1453.78 5.49856 -0.486062 0
M  V30 14919 H 1456.25 4.07984 0.817816 0
M  V30 14920 H 1455.13 5.277 1.51075 0
M  V30 14921 H 1455.39 3.7508 2.34024 0
M  V30 14922 N 1454.45 0.0885642 1.57351 0
M  V30 14923 C 1455.4 -0.890284 2.14888 0
M  V30 14924 C 1456.39 -1.29671 1.09004 0
M  V30 14925 O 1457.6 -1.272 1.27359 0
M  V30 14926 H 1453.97 -0.305107 0.687324 0
M  V30 14927 H 1455.94 -0.380243 2.95967 0
M  V30 14928 C 1454.69 -2.14216 2.73874 0
M  V30 14929 H 1454.02 -1.8383 3.55031 0
M  V30 14930 H 1455.46 -2.8078 3.17708 0
M  V30 14931 C 1453.92 -2.91186 1.69448 0
M  V30 14932 O 1454.45 -3.85494 1.12949 0
M  V30 14933 N 1452.65 -2.54603 1.40091 0
M  V30 14934 H 1452.2 -1.77984 1.86225 0
M  V30 14935 H 1452.16 -3.06403 0.704577 0
M  V30 14936 N 1455.93 -1.56509 -0.185096 0
M  V30 14937 C 1457.17 -1.81474 -0.905263 0
M  V30 14938 C 1457.51 -0.664225 -1.82488 0
M  V30 14939 O 1456.78 0.33466 -1.91599 0
M  V30 14940 C 1457.07 -3.16754 -1.71287 0
M  V30 14941 C 1456.92 -4.42312 -0.817302 0
M  V30 14942 C 1458.24 -3.48828 -2.68342 0
M  V30 14943 H 1455.36 -0.660155 -0.327664 0
M  V30 14944 H 1458 -1.89219 -0.172129 0
M  V30 14945 H 1456.15 -3.10282 -2.33789 0
M  V30 14946 H 1457.82 -4.60839 -0.206218 0
M  V30 14947 H 1456.06 -4.33621 -0.124564 0
M  V30 14948 H 1456.73 -5.33487 -1.41758 0
M  V30 14949 H 1459.21 -3.55663 -2.15969 0
M  V30 14950 H 1458.09 -4.44585 -3.21924 0
M  V30 14951 H 1458.35 -2.72829 -3.47875 0
M  V30 14952 N 1457.41 0.45317 -1.50944 0
M  V30 14953 C 1458.65 1.20389 -1.62827 0
M  V30 14954 C 1458.98 1.91559 -0.336982 0
M  V30 14955 O 1458.24 1.83574 0.678153 0
M  V30 14956 C 1458.54 2.25747 -2.7708 0
M  V30 14957 C 1458.2 1.71703 -4.16928 0
M  V30 14958 C 1456.86 1.56686 -4.54976 0
M  V30 14959 C 1459.22 1.31804 -5.04259 0
M  V30 14960 C 1456.54 1.0022 -5.78077 0
M  V30 14961 C 1458.9 0.767738 -6.27924 0
M  V30 14962 C 1457.56 0.604341 -6.64759 0
M  V30 14963 H 1456.83 0.440536 -0.595827 0
M  V30 14964 H 1459.48 0.497234 -1.84932 0
M  V30 14965 H 1457.78 3.0239 -2.49134 0
M  V30 14966 H 1459.48 2.83625 -2.83475 0
M  V30 14967 H 1456.07 1.84364 -3.86921 0
M  V30 14968 H 1460.25 1.42233 -4.75482 0
M  V30 14969 H 1455.51 0.863228 -6.05275 0
M  V30 14970 H 1459.68 0.449994 -6.94945 0
M  V30 14971 H 1457.31 0.164663 -7.60022 0
M  V30 14972 N 1458.88 1.40823 0.707568 0
M  V30 14973 C 1460.13 1.39741 1.4697 0
M  V30 14974 C 1460.46 0.00231194 1.942 0
M  V30 14975 O 1459.74 -0.967798 1.68713 0
M  V30 14976 C 1460.02 2.39385 2.69011 0
M  V30 14977 C 1459.87 3.87953 2.27624 0
M  V30 14978 C 1461.19 2.3645 3.71186 0
M  V30 14979 H 1458.31 0.508904 0.533091 0
M  V30 14980 H 1460.95 1.72015 0.806888 0
M  V30 14981 H 1459.1 2.11993 3.25563 0
M  V30 14982 H 1460.78 4.26202 1.76492 0
M  V30 14983 H 1459.02 4.03399 1.59537 0
M  V30 14984 H 1459.69 4.53201 3.15139 0
M  V30 14985 H 1462.17 2.60731 3.24282 0
M  V30 14986 H 1461.04 3.08204 4.54204 0
M  V30 14987 H 1461.3 1.3789 4.20046 0
M  V30 14988 N 1460.36 -0.94061 1.26453 0
M  V30 14989 C 1461.3 -2.03945 1.0238 0
M  V30 14990 C 1462.27 -1.62518 -0.051622 0
M  V30 14991 O 1463.46 -1.88281 0.09091 0
M  V30 14992 C 1460.58 -3.34197 0.550464 0
M  V30 14993 C 1459.63 -3.94596 1.61853 0
M  V30 14994 S 1460.46 -4.28803 3.20762 0
M  V30 14995 C 1461.62 -5.62154 2.75198 0
M  V30 14996 H 1461.85 -2.24051 1.95419 0
M  V30 14997 H 1459.39 -1.08207 1.10139 0
M  V30 14998 H 1461.34 -4.09516 0.284031 0
M  V30 14999 H 1460 -3.12034 -0.359649 0
M  V30 15000 H 1459.2 -4.8855 1.23835 0
M  V30 15001 H 1458.8 -3.25812 1.83637 0
M  V30 15002 H 1461.09 -6.40889 2.19697 0
M  V30 15003 H 1462.03 -6.05057 3.67847 0
M  V30 15004 H 1462.44 -5.22058 2.14745 0
M  V30 15005 N 1461.84 -1.08266 -1.14527 0
M  V30 15006 C 1463.12 -0.724254 -1.81697 0
M  V30 15007 C 1463.5 0.792212 -1.95671 0
M  V30 15008 O 1462.85 1.71017 -1.51543 0
M  V30 15009 C 1463.06 -1.44949 -3.17475 0
M  V30 15010 C 1464.4 -1.60761 -3.9299 0
M  V30 15011 O 1465.43 -1.41103 -3.2706 0
M  V30 15012 O 1464.29 -1.93184 -5.11216 0
M  V30 15013 H 1461.38 -0.258814 -0.785458 0
M  V30 15014 H 1463.93 -1.18414 -1.21557 0
M  V30 15015 H 1462.7 -2.48262 -3.02459 0
M  V30 15016 H 1462.32 -0.980993 -3.85308 0
M  V30 15017 N 1463.32 1.31536 -0.86811 0
M  V30 15018 C 1464.55 2.00952 -0.492529 0
M  V30 15019 C 1464.96 1.65174 0.914487 0
M  V30 15020 O 1464.32 0.880002 1.59882 0
M  V30 15021 C 1464.37 3.55829 -0.637798 0
M  V30 15022 O 1464.09 3.90326 -1.9894 0
M  V30 15023 C 1465.59 4.42519 -0.262986 0
M  V30 15024 H 1462.81 0.642913 -0.192105 0
M  V30 15025 H 1465.36 1.6781 -1.16876 0
M  V30 15026 H 1463.51 3.87399 -0.0091406 0
M  V30 15027 H 1463.93 4.85043 -1.99583 0
M  V30 15028 H 1465.4 5.50433 -0.415591 0
M  V30 15029 H 1465.88 4.31895 0.797705 0
M  V30 15030 H 1466.48 4.16363 -0.867268 0
M  V30 15031 N 1464.8 0.627364 1.44575 0
M  V30 15032 C 1465.71 -0.0811184 2.3446 0
M  V30 15033 C 1466.72 -0.839668 1.52399 0
M  V30 15034 O 1467.9 -0.792784 1.8514 0
M  V30 15035 C 1464.96 -1.05296 3.30323 0
M  V30 15036 C 1464.03 -0.294201 4.28291 0
M  V30 15037 C 1463.26 -1.21975 5.19575 0
M  V30 15038 O 1463.48 -2.45834 5.14706 0
M  V30 15039 O 1462.42 -0.70611 5.97744 0
M  V30 15040 H 1466.24 0.658067 2.96485 0
M  V30 15041 H 1463.83 0.387565 1.44285 0
M  V30 15042 H 1465.71 -1.61218 3.89341 0
M  V30 15043 H 1464.38 -1.77283 2.70837 0
M  V30 15044 H 1463.29 0.307969 3.7283 0
M  V30 15045 H 1464.62 0.385567 4.90687 0
M  V30 15046 N 1466.28 -1.53251 0.367684 0
M  V30 15047 C 1467.52 -2.01585 -0.221679 0
M  V30 15048 C 1467.85 -1.25444 -1.48248 0
M  V30 15049 O 1467.13 -0.348726 -1.91348 0
M  V30 15050 C 1467.41 -3.56449 -0.511507 0
M  V30 15051 C 1467.27 -4.4328 0.763075 0
M  V30 15052 C 1468.58 -4.20113 -1.31121 0
M  V30 15053 H 1465.7 -0.732743 -0.0790954 0
M  V30 15054 H 1468.35 -1.83493 0.492991 0
M  V30 15055 H 1466.5 -3.71996 -1.12033 0
M  V30 15056 H 1468.17 -4.39526 1.40052 0
M  V30 15057 H 1466.41 -4.11164 1.38299 0
M  V30 15058 H 1467.08 -5.4959 0.515215 0
M  V30 15059 H 1469.56 -4.08412 -0.796169 0
M  V30 15060 H 1468.43 -5.28494 -1.48274 0
M  V30 15061 H 1468.69 -3.76316 -2.32032 0
M  V30 15062 N 1467.75 -0.0969077 -1.57302 0
M  V30 15063 C 1468.98 0.573872 -1.9847 0
M  V30 15064 C 1469.39 1.62149 -0.974894 0
M  V30 15065 O 1468.73 1.83649 0.0434873 0
M  V30 15066 C 1468.8 1.2781 -3.36013 0
M  V30 15067 C 1468.46 0.381022 -4.55409 0
M  V30 15068 C 1469.46 -0.371559 -5.18571 0
M  V30 15069 C 1467.14 0.29855 -5.01412 0
M  V30 15070 C 1469.14 -1.19457 -6.26106 0
M  V30 15071 C 1466.82 -0.528116 -6.08814 0
M  V30 15072 C 1467.82 -1.27333 -6.71026 0
M  V30 15073 O 1467.51 -2.08631 -7.76356 0
M  V30 15074 H 1467.24 0.158369 -0.657187 0
M  V30 15075 H 1469.8 -0.173415 -2.04667 0
M  V30 15076 H 1468.03 2.07199 -3.26505 0
M  V30 15077 H 1469.71 1.84359 -3.61617 0
M  V30 15078 H 1470.48 -0.317586 -4.83959 0
M  V30 15079 H 1466.36 0.868247 -4.5275 0
M  V30 15080 H 1469.9 -1.77673 -6.74595 0
M  V30 15081 H 1465.8 -0.583563 -6.42857 0
M  V30 15082 H 1466.57 -2.01333 -7.93352 0
M  V30 15083 N 1469.23 1.56605 0.176793 0
M  V30 15084 C 1470.46 1.8617 0.91408 0
M  V30 15085 C 1470.88 0.68262 1.75277 0
M  V30 15086 O 1470.24 -0.368391 1.77518 0
M  V30 15087 C 1470.29 3.14109 1.7711 0
M  V30 15088 O 1469.39 2.95947 2.87209 0
M  V30 15089 H 1468.73 0.612507 0.25638 0
M  V30 15090 H 1471.26 2.03837 0.176586 0
M  V30 15091 H 1471.27 3.45373 2.17213 0
M  V30 15092 H 1469.95 3.9954 1.15502 0
M  V30 15093 H 1468.52 2.76024 2.50729 0
M  V30 15094 N 1470.71 -0.445159 1.51182 0
M  V30 15095 C 1471.66 -1.5604 1.72494 0
M  V30 15096 C 1472.65 -1.58753 0.591101 0
M  V30 15097 O 1473.86 -1.62591 0.772285 0
M  V30 15098 H 1470.23 -0.518265 0.544891 0
M  V30 15099 H 1472.2 -1.35237 2.65995 0
M  V30 15100 C 1470.95 -2.93768 1.85999 0
M  V30 15101 H 1470.28 -2.9241 2.72647 0
M  V30 15102 H 1471.72 -3.71189 2.04926 0
M  V30 15103 C 1470.17 -3.31186 0.617853 0
M  V30 15104 O 1470.7 -4.01035 -0.231101 0
M  V30 15105 N 1468.91 -2.86868 0.464234 0
M  V30 15106 H 1468.46 -2.30198 1.15614 0
M  V30 15107 H 1468.42 -3.12267 -0.365643 0
M  V30 15108 N 1472.19 -1.41197 -0.700089 0
M  V30 15109 C 1473.42 -1.43658 -1.48896 0
M  V30 15110 C 1473.83 -0.0405771 -1.88756 0
M  V30 15111 O 1473.19 0.93909 -1.56484 0
M  V30 15112 C 1473.24 -2.34125 -2.75441 0
M  V30 15113 O 1472.96 -3.68291 -2.37261 0
M  V30 15114 C 1474.46 -2.45342 -3.69218 0
M  V30 15115 H 1471.68 -0.48945 -0.458999 0
M  V30 15116 H 1474.22 -1.85429 -0.862345 0
M  V30 15117 H 1472.38 -1.95674 -3.34351 0
M  V30 15118 H 1472.79 -4.16495 -3.18798 0
M  V30 15119 H 1474.27 -3.12818 -4.54807 0
M  V30 15120 H 1474.74 -1.48327 -4.13395 0
M  V30 15121 H 1475.35 -2.84409 -3.16214 0
M  V30 15122 N 1473.67 0.933891 -1.2695 0
M  V30 15123 C 1474.91 1.67759 -1.12701 0
M  V30 15124 C 1475.23 1.92207 0.328848 0
M  V30 15125 O 1474.5 1.52394 1.23097 0
M  V30 15126 H 1473.08 0.621729 -0.41408 0
M  V30 15127 H 1475.75 1.1217 -1.59386 0
M  V30 15128 H 1474.84 2.64834 -1.65135 0
M  V30 15129 N 1475.14 1.08871 1.13951 0
M  V30 15130 C 1476.39 0.819665 1.84732 0
M  V30 15131 C 1476.71 -0.656535 1.83615 0
M  V30 15132 O 1475.98 -1.47614 1.28791 0
M  V30 15133 H 1474.56 0.30023 0.684011 0
M  V30 15134 H 1477.22 1.37568 1.38062 0
M  V30 15135 H 1476.32 1.16809 2.89417 0
M  V30 15136 N 1476.62 -1.31073 0.875073 0
M  V30 15137 C 1477.55 -2.27335 0.291809 0
M  V30 15138 C 1478.57 -1.53298 -0.548036 0
M  V30 15139 O 1479.76 -1.7464 -0.369198 0
M  V30 15140 C 1476.86 -3.33465 -0.604521 0
M  V30 15141 C 1476.03 -4.36924 0.204029 0
M  V30 15142 C 1475.09 -5.2252 -0.621238 0
M  V30 15143 O 1474.11 -5.6918 -0.0474551 0
M  V30 15144 N 1475.32 -5.47397 -1.93227 0
M  V30 15145 H 1478.08 -2.78024 1.11906 0
M  V30 15146 H 1475.64 -1.44149 0.737064 0
M  V30 15147 H 1477.63 -3.87646 -1.16243 0
M  V30 15148 H 1476.2 -2.8278 -1.33244 0
M  V30 15149 H 1475.42 -3.82745 0.943389 0
M  V30 15150 H 1476.71 -5.03112 0.758644 0
M  V30 15151 H 1476.11 -5.11253 -2.4215 0
M  V30 15152 H 1474.67 -6.04493 -2.43785 0
M  V30 15153 N 1478.1 -0.635022 -1.4424 0
M  V30 15154 C 1479.33 -0.146549 -2.06882 0
M  V30 15155 C 1479.75 1.17143 -1.4717 0
M  V30 15156 O 1479.11 1.71952 -0.574636 0
M  V30 15157 C 1479.16 -0.0494694 -3.60566 0
M  V30 15158 O 1478.26 0.993423 -4.00256 0
M  V30 15159 H 1477.6 -0.0865505 -0.658335 0
M  V30 15160 H 1480.13 -0.872803 -1.85049 0
M  V30 15161 H 1480.14 0.139839 -4.0776 0
M  V30 15162 H 1478.82 -1.01169 -4.03407 0
M  V30 15163 H 1477.39 0.778372 -3.64686 0
M  V30 15164 N 1479.58 1.53054 -0.375806 0
M  V30 15165 C 1480.8 2.06296 0.213708 0
M  V30 15166 C 1481.23 1.24675 1.40846 0
M  V30 15167 O 1480.59 0.268371 1.79303 0
M  V30 15168 C 1480.63 3.55981 0.575301 0
M  V30 15169 O 1479.74 3.77023 1.67115 0
M  V30 15170 H 1479.08 0.66338 0.0286922 0
M  V30 15171 H 1481.61 1.97362 -0.539371 0
M  V30 15172 H 1481.62 3.99187 0.843431 0
M  V30 15173 H 1480.29 4.14829 -0.298258 0
M  V30 15174 H 1478.87 3.45712 1.39778 0
M  V30 15175 N 1481.06 0.105248 1.57248 0
M  V30 15176 C 1482 -0.850012 2.14577 0
M  V30 15177 C 1482.97 -1.27294 1.06703 0
M  V30 15178 O 1484.16 -1.35289 1.34542 0
M  V30 15179 C 1481.3 -2.09993 2.73856 0
M  V30 15180 C 1480.41 -1.72662 3.95995 0
M  V30 15181 C 1479.55 -2.92517 4.43404 0
M  V30 15182 C 1478.59 -2.5136 5.58108 0
M  V30 15183 N 1477.72 -3.64082 6.00324 0
M  V30 15184 H 1482.56 -0.354282 2.95887 0
M  V30 15185 H 1480.1 -0.163192 1.46192 0
M  V30 15186 H 1482.06 -2.83208 3.06348 0
M  V30 15187 H 1480.69 -2.57048 1.95259 0
M  V30 15188 H 1479.74 -0.893754 3.69752 0
M  V30 15189 H 1481.05 -1.38406 4.79213 0
M  V30 15190 H 1480.21 -3.73973 4.77734 0
M  V30 15191 H 1478.94 -3.2999 3.59107 0
M  V30 15192 H 1477.95 -1.68333 5.23397 0
M  V30 15193 H 1479.17 -2.15019 6.44161 0
M  V30 15194 H 1477.12 -4.01255 5.18971 0
M  V30 15195 H 1477.04 -3.33705 6.78363 0
M  V30 15196 H 1478.31 -4.46019 6.39287 0
M  V30 15197 N 1482.53 -1.56697 -0.168486 0
M  V30 15198 C 1483.5 -1.95744 -1.19235 0
M  V30 15199 C 1484.5 -0.841419 -1.37028 0
M  V30 15200 O 1485.69 -1.10842 -1.34386 0
M  V30 15201 C 1482.82 -2.25471 -2.55686 0
M  V30 15202 H 1484.01 -2.87368 -0.857892 0
M  V30 15203 H 1481.57 -1.50798 -0.411041 0
M  V30 15204 H 1482.3 -1.36571 -2.94141 0
M  V30 15205 H 1482.09 -3.06822 -2.44137 0
M  V30 15206 H 1483.58 -2.56593 -3.29469 0
M  V30 15207 N 1484.01 0.437135 -1.51416 0
M  V30 15208 C 1485.24 1.20898 -1.67903 0
M  V30 15209 C 1485.66 1.85009 -0.376458 0
M  V30 15210 O 1485.01 1.7072 0.645051 0
M  V30 15211 C 1485.06 2.29286 -2.79482 0
M  V30 15212 O 1484.78 1.67798 -4.04692 0
M  V30 15213 C 1486.29 3.19561 -3.07238 0
M  V30 15214 H 1483.51 0.364381 -0.563442 0
M  V30 15215 H 1486.05 0.517931 -1.97833 0
M  V30 15216 H 1484.2 2.94107 -2.5215 0
M  V30 15217 H 1484.62 2.39433 -4.6666 0
M  V30 15218 H 1486.09 3.91748 -3.88893 0
M  V30 15219 H 1486.57 3.80327 -2.19654 0
M  V30 15220 H 1487.18 2.60441 -3.3623 0
M  V30 15221 N 1485.49 1.41566 0.692592 0
M  V30 15222 C 1486.9 1.36606 1.27262 0
M  V30 15223 C 1487.25 0.0506082 1.96135 0
M  V30 15224 O 1486.38 -0.851071 1.98962 0
M  V30 15225 C 1486.97 2.47434 2.31434 0
M  V30 15226 C 1485.53 2.45863 2.85006 0
M  V30 15227 C 1484.68 2.2713 1.59083 0
M  V30 15228 H 1487.63 1.51038 0.487149 0
M  V30 15229 H 1487.65 2.16663 3.12789 0
M  V30 15230 H 1487.16 3.43161 1.81278 0
M  V30 15231 H 1485.26 1.53901 3.3933 0
M  V30 15232 H 1485.38 3.42279 3.35234 0
M  V30 15233 H 1483.74 1.75061 1.85002 0
M  V30 15234 H 1484.52 3.24887 1.10919 0
M  V30 15235 N 1486.97 -0.927146 1.27443 0
M  V30 15236 C 1488.2 -1.70896 1.16629 0
M  V30 15237 C 1488.61 -1.8676 -0.276811 0
M  V30 15238 O 1487.97 -1.38503 -1.18842 0
M  V30 15239 C 1488.02 -3.1083 1.84573 0
M  V30 15240 O 1487.74 -2.9571 3.23244 0
M  V30 15241 C 1489.24 -4.05159 1.79891 0
M  V30 15242 H 1486.46 -0.534638 0.405467 0
M  V30 15243 H 1489.01 -1.16134 1.68325 0
M  V30 15244 H 1487.16 -3.6245 1.3678 0
M  V30 15245 H 1487.57 -3.84181 3.57079 0
M  V30 15246 H 1489.05 -5.00859 2.32044 0
M  V30 15247 H 1489.53 -4.32426 0.768373 0
M  V30 15248 H 1490.13 -3.59464 2.273 0
M  V30 15249 N 1488.45 -1.09474 -1.13372 0
M  V30 15250 C 1489.69 -0.82945 -1.84295 0
M  V30 15251 C 1490.02 0.646788 -1.83961 0
M  V30 15252 O 1489.29 1.46929 -1.29572 0
M  V30 15253 H 1487.87 -0.303853 -0.682409 0
M  V30 15254 H 1490.53 -1.38298 -1.3733 0
M  V30 15255 H 1489.62 -1.18342 -2.88793 0
M  V30 15256 N 1489.92 1.30607 -0.882012 0
M  V30 15257 C 1490.89 2.26489 -0.351498 0
M  V30 15258 C 1491.89 1.52686 0.504348 0
M  V30 15259 O 1493.08 1.71385 0.311928 0
M  V30 15260 C 1490.21 3.37222 0.499435 0
M  V30 15261 H 1491.4 2.74929 -1.19809 0
M  V30 15262 H 1488.96 1.41746 -0.658616 0
M  V30 15263 H 1489.69 2.94093 1.36673 0
M  V30 15264 H 1489.48 3.91936 -0.11356 0
M  V30 15265 H 1490.97 4.08596 0.862497 0
M  V30 15266 N 1491.4 0.642663 1.43901 0
M  V30 15267 C 1492.65 0.152003 2.0223 0
M  V30 15268 C 1492.98 -1.22711 1.50518 0
M  V30 15269 O 1492.26 -1.817 0.693937 0
M  V30 15270 C 1492.54 0.151278 3.59782 0
M  V30 15271 C 1492.39 1.56356 4.2175 0
M  V30 15272 C 1493.71 -0.518016 4.37041 0
M  V30 15273 H 1490.83 0.0567094 0.734815 0
M  V30 15274 H 1493.47 0.821337 1.7133 0
M  V30 15275 H 1491.62 -0.418679 3.86237 0
M  V30 15276 H 1493.29 2.18329 4.06362 0
M  V30 15277 H 1491.54 2.11401 3.78803 0
M  V30 15278 H 1492.21 1.51499 5.30803 0
M  V30 15279 H 1494.68 -0.0331947 4.16087 0
M  V30 15280 H 1493.56 -0.487754 5.46729 0
M  V30 15281 H 1493.82 -1.59036 4.12504 0
M  V30 15282 N 1492.88 -1.52852 0.383918 0
M  V30 15283 C 1493.84 -2.24904 -0.441687 0
M  V30 15284 C 1494.84 -1.26345 -0.99466 0
M  V30 15285 O 1496.03 -1.50484 -0.877513 0
M  V30 15286 C 1493.17 -2.99994 -1.61915 0
M  V30 15287 H 1494.36 -2.99304 0.189047 0
M  V30 15288 H 1491.91 -1.55708 0.135932 0
M  V30 15289 H 1492.65 -2.29882 -2.28746 0
M  V30 15290 H 1492.43 -3.72328 -1.2294 0
M  V30 15291 H 1493.92 -3.54716 -2.20378 0
M  V30 15292 N 1494.36 -0.113586 -1.5719 0
M  V30 15293 C 1495.31 0.83862 -2.15025 0
M  V30 15294 C 1496.28 1.26726 -1.07376 0
M  V30 15295 O 1497.46 1.34574 -1.35257 0
M  V30 15296 C 1494.6 2.08538 -2.74965 0
M  V30 15297 C 1493.71 1.70559 -3.96905 0
M  V30 15298 C 1492.85 2.90161 -4.44949 0
M  V30 15299 C 1491.89 2.48396 -5.59433 0
M  V30 15300 N 1491.03 3.60894 -6.02246 0
M  V30 15301 H 1495.87 0.338585 -2.9607 0
M  V30 15302 H 1493.4 0.155437 -1.46276 0
M  V30 15303 H 1495.36 2.81579 -3.07846 0
M  V30 15304 H 1493.99 2.56009 -1.96619 0
M  V30 15305 H 1493.04 0.874133 -3.7022 0
M  V30 15306 H 1494.35 1.35863 -4.7994 0
M  V30 15307 H 1493.51 3.71434 -4.7971 0
M  V30 15308 H 1492.25 3.28081 -3.60852 0
M  V30 15309 H 1491.25 1.65555 -5.24282 0
M  V30 15310 H 1492.48 2.116 -6.45292 0
M  V30 15311 H 1490.42 3.98497 -5.21091 0
M  V30 15312 H 1490.34 3.30103 -6.80124 0
M  V30 15313 H 1491.61 4.42622 -6.41643 0
M  V30 15314 N 1495.84 1.56784 0.160173 0
M  V30 15315 C 1497.08 1.82621 0.874982 0
M  V30 15316 C 1497.41 0.692427 1.81757 0
M  V30 15317 O 1496.67 -0.319535 1.93074 0
M  V30 15318 C 1496.97 3.14703 1.69402 0
M  V30 15319 C 1496.63 4.41839 0.899373 0
M  V30 15320 C 1495.29 4.7637 0.680099 0
M  V30 15321 C 1497.65 5.20072 0.342747 0
M  V30 15322 C 1494.97 5.86603 -0.106723 0
M  V30 15323 C 1497.33 6.3113 -0.431044 0
M  V30 15324 C 1495.99 6.64219 -0.661017 0
M  V30 15325 H 1495.26 0.668256 0.320178 0
M  V30 15326 H 1497.91 1.90993 0.139305 0
M  V30 15327 H 1496.21 3.01723 2.49941 0
M  V30 15328 H 1497.91 3.31906 2.25032 0
M  V30 15329 H 1494.5 4.14761 1.08033 0
M  V30 15330 H 1498.68 4.9378 0.499467 0
M  V30 15331 H 1493.94 6.1069 -0.294528 0
M  V30 15332 H 1498.11 6.9095 -0.869557 0
M  V30 15333 H 1495.74 7.49473 -1.27257 0
M  V30 15334 N 1497.32 -0.429099 1.51646 0
M  V30 15335 C 1498.28 -1.50398 1.72954 0
M  V30 15336 C 1499.28 -1.49207 0.599491 0
M  V30 15337 O 1500.47 -1.51084 0.867143 0
M  V30 15338 C 1497.6 -2.89903 1.79358 0
M  V30 15339 H 1498.79 -1.32805 2.68892 0
M  V30 15340 H 1496.35 -0.658313 1.4176 0
M  V30 15341 H 1497.08 -3.12891 0.852639 0
M  V30 15342 H 1496.87 -2.92171 2.61492 0
M  V30 15343 H 1498.36 -3.67862 1.97654 0
M  V30 15344 N 1498.79 -1.41931 -0.685074 0
M  V30 15345 C 1499.76 -1.44315 -1.78061 0
M  V30 15346 C 1500.76 -0.332215 -1.57331 0
M  V30 15347 O 1501.95 -0.59258 -1.63811 0
M  V30 15348 C 1499.08 -1.26479 -3.16569 0
M  V30 15349 H 1500.27 -2.4185 -1.77337 0
M  V30 15350 H 1497.82 -1.28228 -0.893721 0
M  V30 15351 H 1498.56 -0.298259 -3.22926 0
M  V30 15352 H 1498.34 -2.06981 -3.33018 0
M  V30 15353 H 1499.83 -1.31006 -3.96519 0
M  V30 15354 N 1500.27 0.920374 -1.27933 0
M  V30 15355 C 1501.23 2.0035 -1.11321 0
M  V30 15356 C 1502.23 1.60706 -0.0549132 0
M  V30 15357 O 1503.42 1.71595 -0.300134 0
M  V30 15358 C 1500.56 3.33681 -0.69782 0
M  V30 15359 H 1501.75 2.16518 -2.07509 0
M  V30 15360 H 1499.3 1.10216 -1.10825 0
M  V30 15361 H 1500.04 3.23214 0.265122 0
M  V30 15362 H 1499.82 3.63815 -1.46223 0
M  V30 15363 H 1501.31 4.13208 -0.604048 0
M  V30 15364 N 1501.75 1.10074 1.1279 0
M  V30 15365 C 1503 0.839212 1.83852 0
M  V30 15366 C 1503.32 -0.637023 1.84301 0
M  V30 15367 O 1502.59 -1.46239 1.30349 0
M  V30 15368 H 1501.17 0.307468 0.680788 0
M  V30 15369 H 1503.83 1.39025 1.36595 0
M  V30 15370 H 1502.93 1.19872 2.88162 0
M  V30 15371 N 1503.23 -1.30138 0.888926 0
M  V30 15372 C 1504.17 -2.28023 0.356923 0
M  V30 15373 C 1505.14 -1.56551 -0.555066 0
M  V30 15374 O 1506.33 -1.84595 -0.482633 0
M  V30 15375 C 1503.47 -3.42546 -0.419056 0
M  V30 15376 C 1502.58 -4.28827 0.5226 0
M  V30 15377 C 1501.72 -5.30517 -0.269366 0
M  V30 15378 C 1500.76 -6.08449 0.667507 0
M  V30 15379 N 1499.89 -7.02043 -0.08938 0
M  V30 15380 H 1504.73 -2.72912 1.19678 0
M  V30 15381 H 1502.27 -1.34239 0.60152 0
M  V30 15382 H 1504.23 -4.07707 -0.884911 0
M  V30 15383 H 1502.86 -2.98716 -1.22346 0
M  V30 15384 H 1501.91 -3.63938 1.10695 0
M  V30 15385 H 1503.22 -4.83136 1.24018 0
M  V30 15386 H 1502.38 -6.01444 -0.796901 0
M  V30 15387 H 1501.12 -4.76911 -1.02014 0
M  V30 15388 H 1500.12 -5.36396 1.20664 0
M  V30 15389 H 1501.35 -6.64143 1.41744 0
M  V30 15390 H 1499.29 -6.50822 -0.822622 0
M  V30 15391 H 1499.21 -7.53859 0.568499 0
M  V30 15392 H 1500.48 -7.77206 -0.597529 0
M  V30 15393 N 1504.71 -0.650285 -1.43559 0
M  V30 15394 C 1506.12 -0.317586 -1.56408 0
M  V30 15395 C 1506.32 1.17844 -1.63447 0
M  V30 15396 O 1505.38 1.96318 -1.58794 0
M  V30 15397 C 1506.69 -1.02636 -2.82642 0
M  V30 15398 C 1508.24 -1.00633 -2.96381 0
M  V30 15399 C 1508.71 -1.69595 -4.25443 0
M  V30 15400 N 1510.2 -1.66345 -4.323 0
M  V30 15401 C 1510.94 -2.16581 -5.30924 0
M  V30 15402 N 1510.44 -2.75092 -6.35843 0
M  V30 15403 N 1512.23 -2.07098 -5.22558 0
M  V30 15404 H 1504.38 -1.62114 -1.37233 0
M  V30 15405 H 1506.64 -0.681588 -0.658895 0
M  V30 15406 H 1506.35 -2.08146 -2.83493 0
M  V30 15407 H 1506.22 -0.576081 -3.72775 0
M  V30 15408 H 1508.61 0.0403519 -2.95072 0
M  V30 15409 H 1508.69 -1.49528 -2.07545 0
M  V30 15410 H 1508.33 -2.74218 -4.27512 0
M  V30 15411 H 1508.26 -1.18168 -5.1317 0
M  V30 15412 H 1510.76 -1.23644 -3.571 0
M  V30 15413 H 1511.07 -3.11108 -7.07412 0
M  V30 15414 H 1509.41 -2.79152 -6.36474 0
M  V30 15415 H 1512.6 -1.61093 -4.39507 0
M  V30 15416 H 1512.78 -2.46557 -5.99261 0
M  V30 15417 N 1506.18 1.52647 -0.392018 0
M  V30 15418 C 1507.41 2.06032 0.189293 0
M  V30 15419 C 1507.83 1.26351 1.40288 0
M  V30 15420 O 1507.18 0.310877 1.79833 0
M  V30 15421 C 1507.23 3.57187 0.55672 0
M  V30 15422 O 1506.96 4.33851 -0.608657 0
M  V30 15423 C 1508.46 4.26929 1.1936 0
M  V30 15424 H 1505.68 0.670419 0.0279177 0
M  V30 15425 H 1508.22 1.96739 -0.558033 0
M  V30 15426 H 1506.38 3.66545 1.25394 0
M  V30 15427 H 1506.79 5.23606 -0.306039 0
M  V30 15428 H 1508.26 5.33924 1.40104 0
M  V30 15429 H 1508.74 3.82315 2.16175 0
M  V30 15430 H 1509.35 4.21895 0.537069 0
M  V30 15431 N 1507.66 0.121921 1.57128 0
M  V30 15432 C 1508.91 -0.534313 1.94909 0
M  V30 15433 C 1509.23 -1.67029 1.0063 0
M  V30 15434 O 1508.5 -1.95798 0.0631366 0
M  V30 15435 H 1507.08 -0.200372 0.719625 0
M  V30 15436 H 1509.74 0.191546 1.93956 0
M  V30 15437 H 1508.84 -0.926974 2.98016 0
M  V30 15438 N 1509.14 -1.56867 -0.151857 0
M  V30 15439 C 1510.09 -1.97899 -1.18763 0
M  V30 15440 C 1511.06 -0.845833 -1.42951 0
M  V30 15441 O 1512.24 -1.10751 -1.55367 0
M  V30 15442 C 1509.38 -2.36063 -2.5173 0
M  V30 15443 C 1508.5 -3.62647 -2.34757 0
M  V30 15444 C 1507.63 -3.89936 -3.60726 0
M  V30 15445 C 1506.67 -5.09806 -3.38769 0
M  V30 15446 N 1505.81 -5.33129 -4.56856 0
M  V30 15447 H 1510.65 -2.86187 -0.830713 0
M  V30 15448 H 1508.18 -1.41592 -0.398745 0
M  V30 15449 H 1510.14 -2.56218 -3.29254 0
M  V30 15450 H 1508.77 -1.50861 -2.85379 0
M  V30 15451 H 1507.82 -3.50297 -1.48312 0
M  V30 15452 H 1509.14 -4.50328 -2.1449 0
M  V30 15453 H 1508.29 -4.10563 -4.4668 0
M  V30 15454 H 1507.03 -3.00668 -3.83993 0
M  V30 15455 H 1506.03 -4.89057 -2.51203 0
M  V30 15456 H 1507.26 -6.00623 -3.16906 0
M  V30 15457 H 1505.2 -4.46815 -4.80305 0
M  V30 15458 H 1505.12 -6.1507 -4.39574 0
M  V30 15459 H 1506.39 -5.5825 -5.44038 0
M  V30 15460 N 1510.62 0.421051 -1.51871 0
M  V30 15461 C 1511.57 1.5122 -1.74359 0
M  V30 15462 C 1512.54 1.55432 -0.585667 0
M  V30 15463 O 1513.72 1.7219 -0.821912 0
M  V30 15464 C 1510.86 2.88787 -1.88935 0
M  V30 15465 C 1509.97 2.93977 -3.16546 0
M  V30 15466 C 1509.11 4.22768 -3.21622 0
M  V30 15467 C 1508.15 4.21888 -4.43483 0
M  V30 15468 N 1507.28 5.4223 -4.46017 0
M  V30 15469 H 1512.12 1.31348 -2.67492 0
M  V30 15470 H 1509.66 0.637779 -1.32555 0
M  V30 15471 H 1511.62 3.68629 -1.95368 0
M  V30 15472 H 1510.25 3.07181 -0.991942 0
M  V30 15473 H 1509.3 2.06699 -3.19343 0
M  V30 15474 H 1510.61 2.8919 -4.06412 0
M  V30 15475 H 1509.77 5.10995 -3.27061 0
M  V30 15476 H 1508.51 4.30234 -2.29674 0
M  V30 15477 H 1507.51 3.32052 -4.38202 0
M  V30 15478 H 1508.74 4.16072 -5.36713 0
M  V30 15479 H 1506.68 5.50386 -3.56947 0
M  V30 15480 H 1506.6 5.39389 -5.29713 0
M  V30 15481 H 1507.87 6.32443 -4.55671 0
M  V30 15482 N 1512.1 1.42293 0.677538 0
M  V30 15483 C 1513.37 1.331 1.43331 0
M  V30 15484 C 1513.75 -0.0329227 2.11074 0
M  V30 15485 O 1513.1 -1.04826 2.03036 0
M  V30 15486 C 1513.31 2.49725 2.438 0
M  V30 15487 C 1514.66 2.91716 3.08524 0
M  V30 15488 O 1515.68 2.49596 2.54127 0
M  V30 15489 O 1514.54 3.64609 4.07091 0
M  V30 15490 H 1511.64 0.524758 0.639185 0
M  V30 15491 H 1514.18 1.54294 0.706493 0
M  V30 15492 H 1512.95 3.40663 1.92522 0
M  V30 15493 H 1512.58 2.30503 3.23966 0
M  V30 15494 N 1513.57 -0.913576 1.28419 0
M  V30 15495 C 1514.5 -2.03275 1.14897 0
M  V30 15496 C 1515.49 -1.70036 0.0467034 0
M  V30 15497 O 1516.67 -1.92907 0.223725 0
M  V30 15498 C 1513.8 -3.37717 0.810217 0
M  V30 15499 C 1512.75 -3.85119 1.86728 0
M  V30 15500 C 1512.08 -5.16527 1.38215 0
M  V30 15501 C 1513.38 -4.06959 3.27386 0
M  V30 15502 H 1515.07 -2.14847 2.08522 0
M  V30 15503 H 1512.62 -1.03233 1.00394 0
M  V30 15504 H 1514.57 -4.15505 0.702382 0
M  V30 15505 H 1513.3 -3.26199 -0.161732 0
M  V30 15506 H 1511.96 -3.09536 1.96426 0
M  V30 15507 H 1511.6 -5.01413 0.399263 0
M  V30 15508 H 1511.3 -5.49213 2.08898 0
M  V30 15509 H 1512.83 -5.96871 1.28754 0
M  V30 15510 H 1514.24 -4.75272 3.20608 0
M  V30 15511 H 1512.64 -4.50977 3.95904 0
M  V30 15512 H 1513.71 -3.11764 3.71391 0
M  V30 15513 N 1515.05 -1.1067 -1.12204 0
M  V30 15514 C 1516.02 -0.761145 -2.16193 0
M  V30 15515 C 1517.02 0.215599 -1.59348 0
M  V30 15516 O 1518.21 -0.00786723 -1.74198 0
M  V30 15517 C 1515.34 -0.127863 -3.4066 0
M  V30 15518 H 1516.53 -1.68225 -2.48275 0
M  V30 15519 H 1514.08 -0.907542 -1.27253 0
M  V30 15520 H 1514.82 0.803851 -3.14179 0
M  V30 15521 H 1514.6 -0.83085 -3.83196 0
M  V30 15522 H 1516.09 0.0980593 -4.17485 0
M  V30 15523 N 1516.53 1.29665 -0.895815 0
M  V30 15524 C 1517.95 1.4824 -0.591355 0
M  V30 15525 C 1518.15 1.81839 0.86815 0
M  V30 15526 O 1517.2 1.91251 1.64861 0
M  V30 15527 C 1518.52 2.59814 -1.51384 0
M  V30 15528 C 1520.06 2.73691 -1.51862 0
M  V30 15529 C 1520.54 3.8839 -2.42729 0
M  V30 15530 N 1522.03 3.95717 -2.40754 0
M  V30 15531 C 1522.76 4.83804 -3.07769 0
M  V30 15532 N 1522.26 5.7661 -3.84048 0
M  V30 15533 N 1524.05 4.77263 -2.96946 0
M  V30 15534 H 1516.2 1.06131 -1.83984 0
M  V30 15535 H 1518.47 0.526819 -0.788141 0
M  V30 15536 H 1518.17 2.4184 -2.55355 0
M  V30 15537 H 1518.05 3.56532 -1.23147 0
M  V30 15538 H 1520.43 2.91064 -0.486375 0
M  V30 15539 H 1520.52 1.77561 -1.84135 0
M  V30 15540 H 1520.16 3.71773 -3.46045 0
M  V30 15541 H 1520.09 4.8388 -2.07767 0
M  V30 15542 H 1522.58 3.29334 -1.8533 0
M  V30 15543 H 1522.89 6.40611 -4.32247 0
M  V30 15544 H 1521.24 5.76507 -3.88155 0
M  V30 15545 H 1524.43 4.03744 -2.36871 0
M  V30 15546 H 1524.6 5.45701 -3.49448 0
M  V30 15547 N 1518.01 0.657889 1.43212 0
M  V30 15548 C 1518.94 -0.0807001 2.28057 0
M  V30 15549 C 1519.92 -0.825321 1.40097 0
M  V30 15550 O 1521.1 -0.823932 1.69539 0
M  V30 15551 C 1518.23 -1.12112 3.19607 0
M  V30 15552 C 1517.28 -0.474017 4.23858 0
M  V30 15553 S 1518.11 0.75589 5.30138 0
M  V30 15554 C 1519.27 -0.28388 6.25256 0
M  V30 15555 H 1519.5 0.639012 2.90351 0
M  V30 15556 H 1517.03 0.446876 1.47792 0
M  V30 15557 H 1518.99 -1.71637 3.72895 0
M  V30 15558 H 1517.65 -1.81318 2.56481 0
M  V30 15559 H 1516.84 -1.25849 4.88035 0
M  V30 15560 H 1516.45 0.0472307 3.7397 0
M  V30 15561 H 1518.74 -1.14869 6.67691 0
M  V30 15562 H 1519.68 0.322986 7.07363 0
M  V30 15563 H 1520.09 -0.621781 5.61065 0
M  V30 15564 N 1519.49 -1.52437 0.400108 0
M  V30 15565 C 1520.73 -2.0201 -0.17887 0
M  V30 15566 C 1521.07 -1.2856 -1.45554 0
M  V30 15567 O 1520.34 -0.389236 -1.90565 0
M  V30 15568 C 1520.62 -3.57453 -0.435784 0
M  V30 15569 C 1520.48 -4.41562 0.85693 0
M  V30 15570 C 1521.8 -4.228 -1.2218 0
M  V30 15571 H 1518.91 -0.734256 -0.063535 0
M  V30 15572 H 1521.56 -1.82406 0.531801 0
M  V30 15573 H 1519.71 -3.74288 -1.04117 0
M  V30 15574 H 1521.38 -4.36456 1.49344 0
M  V30 15575 H 1519.62 -4.08138 1.46989 0
M  V30 15576 H 1520.29 -5.48374 0.631675 0
M  V30 15577 H 1522.77 -4.10009 -0.709359 0
M  V30 15578 H 1521.64 -5.3152 -1.37031 0
M  V30 15579 H 1521.91 -3.81153 -2.23998 0
M  V30 15580 N 1520.96 -0.130252 -1.57061 0
M  V30 15581 C 1521.9 0.853341 -2.11644 0
M  V30 15582 C 1522.88 1.25349 -1.03568 0
M  V30 15583 O 1524.06 1.35256 -1.31294 0
M  V30 15584 C 1521.19 2.14354 -2.6224 0
M  V30 15585 C 1520.23 1.8906 -3.82307 0
M  V30 15586 S 1521.07 1.0967 -5.2415 0
M  V30 15587 C 1522.22 2.39845 -5.78122 0
M  V30 15588 H 1522.45 0.389112 -2.94743 0
M  V30 15589 H 1519.99 0.083734 -1.54173 0
M  V30 15590 H 1521.95 2.8848 -2.92044 0
M  V30 15591 H 1520.61 2.57894 -1.79303 0
M  V30 15592 H 1519.8 2.84687 -4.15896 0
M  V30 15593 H 1519.4 1.23051 -3.53178 0
M  V30 15594 H 1521.69 3.35612 -5.88533 0
M  V30 15595 H 1522.64 2.10785 -6.75999 0
M  V30 15596 H 1523.04 2.49727 -5.06257 0
M  V30 15597 N 1522.44 1.56945 0.143535 0
M  V30 15598 C 1523.67 1.87701 0.870401 0
M  V30 15599 C 1524.09 0.718833 1.7458 0
M  V30 15600 O 1523.44 -0.311286 1.79826 0
M  V30 15601 C 1523.49 3.1773 1.72424 0
M  V30 15602 O 1523.22 4.29086 0.884115 0
M  V30 15603 C 1524.72 3.62024 2.55839 0
M  V30 15604 H 1521.94 0.622083 0.251504 0
M  V30 15605 H 1524.48 2.04052 0.135285 0
M  V30 15606 H 1522.64 3.03122 2.41238 0
M  V30 15607 H 1523.05 5.0346 1.47065 0
M  V30 15608 H 1524.52 4.55834 3.11319 0
M  V30 15609 H 1525 2.87481 3.32041 0
M  V30 15610 H 1525.61 3.79338 1.9231 0
M  V30 15611 N 1523.92 -0.412991 1.52093 0
M  V30 15612 C 1525.15 -1.1804 1.69558 0
M  V30 15613 C 1525.56 -1.84858 0.403007 0
M  V30 15614 O 1524.9 -1.72541 -0.630506 0
M  V30 15615 C 1524.96 -2.28876 2.7723 0
M  V30 15616 C 1524.63 -1.82226 4.19098 0
M  V30 15617 C 1525.63 -1.31216 5.03069 0
M  V30 15618 C 1523.31 -1.89177 4.65314 0
M  V30 15619 C 1525.3 -0.877743 6.31328 0
M  V30 15620 C 1522.99 -1.45347 5.93563 0
M  V30 15621 C 1523.99 -0.947302 6.76399 0
M  V30 15622 O 1523.68 -0.515315 8.02247 0
M  V30 15623 H 1523.41 -0.360882 0.571612 0
M  V30 15624 H 1525.96 -0.492521 1.99408 0
M  V30 15625 H 1524.19 -3.01015 2.42748 0
M  V30 15626 H 1525.88 -2.9065 2.83333 0
M  V30 15627 H 1526.65 -1.25221 4.68556 0
M  V30 15628 H 1522.53 -2.27518 4.00945 0
M  V30 15629 H 1526.07 -0.481977 6.95933 0
M  V30 15630 H 1521.97 -1.51019 6.27585 0
M  V30 15631 H 1522.74 -0.638973 8.16002 0
M  V30 15632 N 1525.4 -1.4265 -0.669982 0
M  V30 15633 C 1526.65 -1.43093 -1.42719 0
M  V30 15634 C 1526.97 -0.0501228 -1.94936 0
M  V30 15635 O 1526.24 0.912077 -1.73372 0
M  V30 15636 H 1524.82 -0.526785 -0.529628 0
M  V30 15637 H 1527.48 -1.78113 -0.791324 0
M  V30 15638 H 1526.58 -2.13357 -2.27783 0
M  V30 15639 N 1526.88 0.906753 -1.28902 0
M  V30 15640 C 1528.11 1.68774 -1.1916 0
M  V30 15641 C 1528.52 1.87523 0.251339 0
M  V30 15642 O 1527.86 1.4071 1.18095 0
M  V30 15643 C 1527.92 3.09676 -1.82596 0
M  V30 15644 C 1527.58 3.14185 -3.31869 0
M  V30 15645 C 1528.58 2.94858 -4.282 0
M  V30 15646 C 1526.27 3.36476 -3.72947 0
M  V30 15647 C 1528.26 2.97744 -5.63584 0
M  V30 15648 C 1525.95 3.38993 -5.08456 0
M  V30 15649 C 1526.95 3.19648 -6.03584 0
M  V30 15650 O 1526.63 3.2194 -7.3662 0
M  V30 15651 H 1526.37 0.534133 -0.41434 0
M  V30 15652 H 1528.92 1.14282 -1.70671 0
M  V30 15653 H 1527.15 3.65739 -1.25587 0
M  V30 15654 H 1528.84 3.6983 -1.67273 0
M  V30 15655 H 1529.6 2.77456 -3.97798 0
M  V30 15656 H 1525.48 3.50576 -2.99362 0
M  V30 15657 H 1529.03 2.82563 -6.37812 0
M  V30 15658 H 1524.92 3.55924 -5.38506 0
M  V30 15659 H 1525.69 3.38255 -7.45336 0
M  V30 15660 N 1528.36 1.11264 1.11616 0
M  V30 15661 C 1529.6 0.861639 1.83585 0
M  V30 15662 C 1529.93 -0.611221 1.8433 0
M  V30 15663 O 1529.21 -1.45116 1.29505 0
M  V30 15664 C 1529.49 1.42157 3.30852 0
M  V30 15665 C 1529.35 2.96192 3.38512 0
M  V30 15666 C 1530.66 1.07099 4.2687 0
M  V30 15667 H 1527.78 0.314464 0.666545 0
M  V30 15668 H 1530.43 1.37722 1.30892 0
M  V30 15669 H 1528.58 0.983054 3.75857 0
M  V30 15670 H 1530.25 3.48634 3.0208 0
M  V30 15671 H 1528.49 3.32353 2.7879 0
M  V30 15672 H 1529.16 3.30457 4.42156 0
M  V30 15673 H 1531.64 1.44952 3.90036 0
M  V30 15674 H 1530.51 1.48957 5.28302 0
M  V30 15675 H 1530.77 -0.018482 4.42096 0
M  V30 15676 N 1529.83 -1.29188 0.902679 0
M  V30 15677 C 1531.06 -1.99286 0.544844 0
M  V30 15678 C 1531.47 -1.67721 -0.875572 0
M  V30 15679 O 1530.81 -0.920207 -1.5899 0
M  V30 15680 C 1530.88 -3.53374 0.660849 0
M  V30 15681 C 1530.54 -4.08502 2.04878 0
M  V30 15682 C 1531.54 -4.23173 3.02028 0
M  V30 15683 C 1529.22 -4.43461 2.35897 0
M  V30 15684 C 1531.22 -4.7204 4.28318 0
M  V30 15685 C 1528.9 -4.92024 3.6243 0
M  V30 15686 C 1529.9 -5.06269 4.58455 0
M  V30 15687 O 1529.59 -5.53778 5.8274 0
M  V30 15688 H 1529.32 -0.64339 0.207427 0
M  V30 15689 H 1531.88 -1.6562 1.21487 0
M  V30 15690 H 1530.11 -3.86643 -0.066216 0
M  V30 15691 H 1531.79 -4.04701 0.311732 0
M  V30 15692 H 1532.56 -3.96449 2.79379 0
M  V30 15693 H 1528.44 -4.31631 1.61913 0
M  V30 15694 H 1531.98 -4.83074 5.03275 0
M  V30 15695 H 1527.88 -5.18186 3.84907 0
M  V30 15696 H 1528.65 -5.72086 5.85372 0
M  V30 15697 N 1531.31 -0.665475 -1.42861 0
M  V30 15698 C 1532.56 -0.184156 -2.01962 0
M  V30 15699 C 1532.89 1.20301 -1.52451 0
M  V30 15700 O 1532.17 1.80573 -0.722756 0
M  V30 15701 C 1532.45 -0.208497 -3.59496 0
M  V30 15702 C 1532.3 -1.63045 -4.19209 0
M  V30 15703 C 1533.62 0.448421 -4.3781 0
M  V30 15704 H 1530.74 -0.0683924 -0.73382 0
M  V30 15705 H 1533.38 -0.84849 -1.70002 0
M  V30 15706 H 1531.53 0.357179 -3.86855 0
M  V30 15707 H 1533.2 -2.24766 -4.02837 0
M  V30 15708 H 1531.45 -2.17401 -3.75392 0
M  V30 15709 H 1532.12 -1.59924 -5.28326 0
M  V30 15710 H 1534.59 -0.0330053 -4.16087 0
M  V30 15711 H 1533.47 0.400713 -5.47435 0
M  V30 15712 H 1533.73 1.52454 -4.14982 0
M  V30 15713 N 1532.79 1.52222 -0.408187 0
M  V30 15714 C 1533.75 2.25578 0.405851 0
M  V30 15715 C 1534.75 1.27912 0.974434 0
M  V30 15716 O 1535.94 1.51861 0.853461 0
M  V30 15717 C 1533.07 3.02532 1.57122 0
M  V30 15718 H 1534.27 2.98965 -0.23664 0
M  V30 15719 H 1531.82 1.55472 -0.160687 0
M  V30 15720 H 1532.56 2.33492 2.2506 0
M  V30 15721 H 1532.34 3.74237 1.17001 0
M  V30 15722 H 1533.83 3.58177 2.14707 0
M  V30 15723 N 1534.27 0.138579 1.5699 0
M  V30 15724 C 1535.5 -0.521806 2.00212 0
M  V30 15725 C 1535.91 -1.58967 1.01857 0
M  V30 15726 O 1535.27 -1.82494 0.0143099 0
M  V30 15727 C 1535.32 -1.13014 3.4338 0
M  V30 15728 O 1535.04 -0.104938 4.37974 0
M  V30 15729 C 1536.54 -1.87195 4.01837 0
M  V30 15730 H 1533.76 -0.136564 0.656956 0
M  V30 15731 H 1536.3 0.230685 2.03195 0
M  V30 15732 H 1534.46 -1.8333 3.41275 0
M  V30 15733 H 1534.87 -0.54948 5.21614 0
M  V30 15734 H 1536.35 -2.25061 5.04035 0
M  V30 15735 H 1536.82 -2.75467 3.42074 0
M  V30 15736 H 1537.43 -1.21597 4.07547 0
M  V30 15737 N 1535.75 -1.57019 -0.13521 0
M  V30 15738 C 1536.99 -1.84262 -0.847071 0
M  V30 15739 C 1537.32 -0.721946 -1.80282 0
M  V30 15740 O 1536.6 0.273535 -1.92567 0
M  V30 15741 C 1536.88 -3.22043 -1.61123 0
M  V30 15742 C 1536.74 -4.44689 -0.67617 0
M  V30 15743 C 1538.05 -3.57188 -2.57108 0
M  V30 15744 H 1535.17 -0.670246 -0.306496 0
M  V30 15745 H 1537.82 -1.89671 -0.111843 0
M  V30 15746 H 1535.97 -3.17563 -2.23799 0
M  V30 15747 H 1537.64 -4.61262 -0.0595009 0
M  V30 15748 H 1535.88 -4.33798 0.0134526 0
M  V30 15749 H 1536.55 -5.37727 -1.24714 0
M  V30 15750 H 1539.03 -3.62354 -2.04545 0
M  V30 15751 H 1537.9 -4.54602 -3.07617 0
M  V30 15752 H 1538.16 -2.83758 -3.39019 0
M  V30 15753 N 1537.22 0.404919 -1.52309 0
M  V30 15754 C 1538.45 1.17764 -1.70723 0
M  V30 15755 C 1538.87 1.83403 -0.417744 0
M  V30 15756 O 1538.23 1.70181 0.625157 0
M  V30 15757 C 1538.28 2.2133 -2.84685 0
M  V30 15758 O 1537.38 3.27566 -2.50548 0
M  V30 15759 H 1536.73 0.343572 -0.568203 0
M  V30 15760 H 1539.26 0.474093 -1.99031 0
M  V30 15761 H 1539.27 2.6559 -3.09719 0
M  V30 15762 H 1537.94 1.72939 -3.78239 0
M  V30 15763 H 1536.52 2.88556 -2.36199 0
M  V30 15764 N 1538.7 1.43003 0.662408 0
M  V30 15765 C 1539.64 1.4189 1.78725 0
M  V30 15766 C 1540.61 0.281515 1.60144 0
M  V30 15767 O 1541.8 0.473677 1.82452 0
M  V30 15768 C 1538.92 1.22166 3.159 0
M  V30 15769 C 1537.97 2.39061 3.53203 0
M  V30 15770 S 1538.8 4.01607 3.54221 0
M  V30 15771 C 1539.96 3.84249 4.94068 0
M  V30 15772 H 1540.19 2.37073 1.79398 0
M  V30 15773 H 1537.73 1.29924 0.834214 0
M  V30 15774 H 1539.68 1.11474 3.95074 0
M  V30 15775 H 1538.34 0.285468 3.128 0
M  V30 15776 H 1537.54 2.21041 4.52943 0
M  V30 15777 H 1537.14 2.46331 2.81419 0
M  V30 15778 H 1539.43 3.46006 5.82483 0
M  V30 15779 H 1540.37 4.83709 5.17138 0
M  V30 15780 H 1540.78 3.16879 4.6717 0
M  V30 15781 N 1540.18 -0.899904 1.29381 0
M  V30 15782 C 1541.43 -1.64712 1.17109 0
M  V30 15783 C 1541.75 -1.93011 -0.277772 0
M  V30 15784 O 1541.02 -1.55604 -1.19013 0
M  V30 15785 H 1539.6 -0.610532 0.430418 0
M  V30 15786 H 1542.26 -1.07905 1.62304 0
M  V30 15787 H 1541.36 -2.60362 1.72098 0
M  V30 15788 N 1541.66 -1.11854 -1.11024 0
M  V30 15789 C 1542.89 -0.891419 -1.86379 0
M  V30 15790 C 1543.3 0.562516 -1.80644 0
M  V30 15791 O 1542.64 1.40037 -1.18893 0
M  V30 15792 C 1542.7 -1.28029 -3.3593 0
M  V30 15793 C 1542.37 -2.74427 -3.65429 0
M  V30 15794 C 1543.36 -3.72636 -3.62545 0
M  V30 15795 C 1541.05 -3.11182 -3.94298 0
M  V30 15796 C 1543.04 -5.05615 -3.88113 0
M  V30 15797 C 1540.73 -4.44345 -4.19524 0
M  V30 15798 C 1541.73 -5.41371 -4.16421 0
M  V30 15799 O 1541.41 -6.72135 -4.41009 0
M  V30 15800 H 1541.15 -0.318813 -0.596099 0
M  V30 15801 H 1543.7 -1.49069 -1.41307 0
M  V30 15802 H 1541.93 -0.624186 -3.81629 0
M  V30 15803 H 1543.62 -1.02827 -3.92659 0
M  V30 15804 H 1544.39 -3.45586 -3.40287 0
M  V30 15805 H 1540.26 -2.36274 -3.95848 0
M  V30 15806 H 1543.81 -5.81338 -3.85606 0
M  V30 15807 H 1539.71 -4.71127 -4.41259 0
M  V30 15808 H 1540.47 -6.77989 -4.58555 0
M  V30 15809 N 1543.14 1.28707 -0.909517 0
M  V30 15810 C 1544.36 1.99821 -0.555557 0
M  V30 15811 C 1544.79 1.67549 0.854931 0
M  V30 15812 O 1544.14 0.905521 1.57067 0
M  V30 15813 C 1544.19 3.52361 -0.766438 0
M  V30 15814 O 1543.3 4.12022 0.17654 0
M  V30 15815 H 1542.64 0.627918 -0.215905 0
M  V30 15816 H 1545.17 1.63965 -1.2238 0
M  V30 15817 H 1545.18 4.02379 -0.674894 0
M  V30 15818 H 1543.85 3.75184 -1.7947 0
M  V30 15819 H 1542.43 3.72882 0.0366216 0
M  V30 15820 N 1544.61 0.673042 1.42506 0
M  V30 15821 C 1545.56 -0.00638067 2.30799 0
M  V30 15822 C 1546.53 -0.794524 1.45865 0
M  V30 15823 O 1547.72 -0.767129 1.74699 0
M  V30 15824 C 1544.86 -0.952923 3.31683 0
M  V30 15825 C 1543.97 -0.158787 4.31708 0
M  V30 15826 C 1543.1 -1.10092 5.19666 0
M  V30 15827 C 1542.14 -0.29837 6.11372 0
M  V30 15828 N 1541.28 -1.19312 6.91888 0
M  V30 15829 H 1546.12 0.75237 2.88346 0
M  V30 15830 H 1543.66 0.382763 1.42033 0
M  V30 15831 H 1545.62 -1.51552 3.887 0
M  V30 15832 H 1544.25 -1.67832 2.75739 0
M  V30 15833 H 1543.3 0.520406 3.76823 0
M  V30 15834 H 1544.61 0.464385 4.96634 0
M  V30 15835 H 1543.76 -1.7335 5.81407 0
M  V30 15836 H 1542.5 -1.75798 4.54914 0
M  V30 15837 H 1541.51 0.347437 5.48701 0
M  V30 15838 H 1542.73 0.354569 6.78174 0
M  V30 15839 H 1540.68 -1.83661 6.29765 0
M  V30 15840 H 1540.6 -0.624986 7.53412 0
M  V30 15841 H 1541.86 -1.81323 7.58118 0
M  V30 15842 N 1546.09 -1.52004 0.416254 0
M  V30 15843 C 1547.02 -2.24913 -0.441208 0
M  V30 15844 C 1548.04 -1.28139 -1.0042 0
M  V30 15845 O 1549.23 -1.54037 -0.901928 0
M  V30 15846 C 1546.33 -2.97298 -1.62688 0
M  V30 15847 C 1545.5 -4.20999 -1.18652 0
M  V30 15848 C 1544.56 -4.76146 -2.2399 0
M  V30 15849 O 1543.58 -5.38541 -1.84288 0
M  V30 15850 N 1544.79 -4.58338 -3.56239 0
M  V30 15851 H 1547.55 -2.99137 0.183576 0
M  V30 15852 H 1545.11 -1.60051 0.244008 0
M  V30 15853 H 1547.1 -3.31082 -2.32737 0
M  V30 15854 H 1545.67 -2.26216 -2.15744 0
M  V30 15855 H 1544.89 -3.92948 -0.313877 0
M  V30 15856 H 1546.18 -5.01318 -0.869365 0
M  V30 15857 H 1545.58 -4.08592 -3.91241 0
M  V30 15858 H 1544.14 -4.96542 -4.22244 0
M  V30 15859 N 1547.57 -0.146903 -1.56914 0
M  V30 15860 C 1548.5 0.823803 -2.13883 0
M  V30 15861 C 1549.52 1.21081 -1.08826 0
M  V30 15862 O 1550.7 1.15491 -1.36103 0
M  V30 15863 C 1547.8 2.11686 -2.64655 0
M  V30 15864 C 1546.98 1.89723 -3.94112 0
M  V30 15865 C 1546.04 3.03016 -4.30195 0
M  V30 15866 O 1545.06 2.74711 -4.9852 0
M  V30 15867 N 1546.26 4.30187 -3.89768 0
M  V30 15868 H 1549.03 0.336904 -2.978 0
M  V30 15869 H 1546.59 0.0366704 -1.61858 0
M  V30 15870 H 1548.58 2.86525 -2.85807 0
M  V30 15871 H 1547.15 2.51639 -1.85464 0
M  V30 15872 H 1546.37 0.989208 -3.81587 0
M  V30 15873 H 1547.66 1.72387 -4.78707 0
M  V30 15874 H 1547.06 4.56051 -3.34715 0
M  V30 15875 H 1545.62 5.01807 -4.15972 0
M  V30 15876 N 1549.05 1.57088 0.126881 0
M  V30 15877 C 1550.3 1.84436 0.836048 0
M  V30 15878 C 1550.62 0.730824 1.80248 0
M  V30 15879 O 1549.88 -0.278509 1.93708 0
M  V30 15880 C 1550.18 3.18225 1.62688 0
M  V30 15881 C 1549.84 4.43648 0.80545 0
M  V30 15882 C 1548.51 4.77705 0.578901 0
M  V30 15883 C 1550.86 5.20682 0.232355 0
M  V30 15884 C 1548.19 5.86245 -0.231126 0
M  V30 15885 C 1550.54 6.30073 -0.564819 0
M  V30 15886 C 1549.2 6.62667 -0.801759 0
M  V30 15887 H 1548.47 0.674898 0.305932 0
M  V30 15888 H 1551.12 1.91245 0.0987618 0
M  V30 15889 H 1549.42 3.06956 2.43485 0
M  V30 15890 H 1551.12 3.36604 2.17942 0
M  V30 15891 H 1547.71 4.16959 0.99211 0
M  V30 15892 H 1551.89 4.94729 0.394616 0
M  V30 15893 H 1547.15 6.09928 -0.423998 0
M  V30 15894 H 1551.32 6.8895 -1.01592 0
M  V30 15895 H 1548.95 7.46605 -1.43126 0
M  V30 15896 N 1550.53 -0.396836 1.52522 0
M  V30 15897 C 1551.46 -1.49088 1.79708 0
M  V30 15898 C 1552.44 -1.57246 0.648678 0
M  V30 15899 O 1553.62 -1.72321 0.895495 0
M  V30 15900 C 1550.75 -2.86785 1.95887 0
M  V30 15901 C 1549.71 -2.93472 3.11542 0
M  V30 15902 C 1549.03 -4.33542 3.12963 0
M  V30 15903 C 1550.33 -2.63832 4.50766 0
M  V30 15904 H 1552.03 -1.26588 2.71322 0
M  V30 15905 H 1549.57 -0.607535 1.30557 0
M  V30 15906 H 1551.53 -3.63319 2.13489 0
M  V30 15907 H 1550.25 -3.10605 1.00955 0
M  V30 15908 H 1548.91 -2.19384 2.93711 0
M  V30 15909 H 1548.56 -4.5439 2.15729 0
M  V30 15910 H 1548.26 -4.38938 3.9065 0
M  V30 15911 H 1549.78 -5.11993 3.32709 0
M  V30 15912 H 1551.19 -3.30086 4.68739 0
M  V30 15913 H 1549.59 -2.80589 5.30462 0
M  V30 15914 H 1550.66 -1.59209 4.58018 0
M  V30 15915 N 1552.01 -1.43353 -0.654814 0
M  V30 15916 C 1552.95 -1.48387 -1.76776 0
M  V30 15917 C 1553.92 -0.333755 -1.62712 0
M  V30 15918 O 1555.11 -0.540683 -1.82979 0
M  V30 15919 C 1552.25 -1.41132 -3.14922 0
M  V30 15920 C 1551.36 -2.66336 -3.40131 0
M  V30 15921 C 1550.5 -2.5108 -4.68116 0
M  V30 15922 C 1549.53 -3.71561 -4.86425 0
M  V30 15923 N 1548.67 -3.55125 -6.05666 0
M  V30 15924 H 1553.51 -2.43487 -1.71808 0
M  V30 15925 H 1551.05 -1.20866 -0.838442 0
M  V30 15926 H 1553.01 -1.3492 -3.94782 0
M  V30 15927 H 1551.64 -0.496149 -3.18964 0
M  V30 15928 H 1550.69 -2.82834 -2.5438 0
M  V30 15929 H 1552 -3.55835 -3.49546 0
M  V30 15930 H 1551.15 -2.42567 -5.56099 0
M  V30 15931 H 1549.89 -1.59103 -4.61018 0
M  V30 15932 H 1548.9 -3.80484 -3.96877 0
M  V30 15933 H 1550.12 -4.64545 -4.95353 0
M  V30 15934 H 1548.07 -2.65881 -5.99703 0
M  V30 15935 H 1547.99 -4.38224 -6.16032 0
M  V30 15936 H 1549.25 -3.5046 -6.96274 0
M  V30 15937 N 1553.48 0.89303 -1.29857 0
M  V30 15938 C 1554.73 1.64657 -1.18389 0
M  V30 15939 C 1555.06 1.92417 0.262587 0
M  V30 15940 O 1554.34 1.53936 1.18887 0
M  V30 15941 C 1554.62 2.99148 -2.00456 0
M  V30 15942 C 1554.47 2.78411 -3.53281 0
M  V30 15943 C 1555.79 3.99968 -1.83613 0
M  V30 15944 H 1552.91 0.59752 -0.431438 0
M  V30 15945 H 1555.55 1.03397 -1.59402 0
M  V30 15946 H 1553.7 3.51435 -1.65607 0
M  V30 15947 H 1555.38 2.32974 -3.98147 0
M  V30 15948 H 1553.62 2.13067 -3.77869 0
M  V30 15949 H 1554.29 3.74008 -4.05983 0
M  V30 15950 H 1556.77 3.56813 -2.14064 0
M  V30 15951 H 1555.64 4.91997 -2.43373 0
M  V30 15952 H 1555.9 4.34928 -0.793098 0
M  V30 15953 N 1554.96 1.12442 1.10429 0
M  V30 15954 C 1555.89 0.814745 2.18824 0
M  V30 15955 C 1556.87 -0.221476 1.68652 0
M  V30 15956 O 1558.06 -0.0826537 1.94024 0
M  V30 15957 C 1555.19 0.268632 3.4626 0
M  V30 15958 C 1554.14 1.23792 4.09707 0
M  V30 15959 C 1553.47 0.552034 5.31843 0
M  V30 15960 C 1554.77 2.5926 4.53411 0
M  V30 15961 H 1556.46 1.72111 2.44986 0
M  V30 15962 H 1554.01 0.828968 1.17746 0
M  V30 15963 H 1555.96 0.0397207 4.21381 0
M  V30 15964 H 1554.68 -0.673079 3.19589 0
M  V30 15965 H 1553.34 1.45264 3.36592 0
M  V30 15966 H 1552.99 -0.394821 5.01448 0
M  V30 15967 H 1552.69 1.19861 5.75245 0
M  V30 15968 H 1554.22 0.332161 6.09696 0
M  V30 15969 H 1555.63 2.41816 5.19806 0
M  V30 15970 H 1554.03 3.19997 5.07663 0
M  V30 15971 H 1555.1 3.17699 3.66327 0
M  V30 15972 N 1556.44 -1.28223 0.91633 0
M  V30 15973 C 1557.39 -2.27215 0.40521 0
M  V30 15974 C 1558.36 -1.57693 -0.521734 0
M  V30 15975 O 1559.54 -1.85577 -0.443369 0
M  V30 15976 C 1556.68 -3.43358 -0.346303 0
M  V30 15977 C 1555.79 -4.27622 0.613443 0
M  V30 15978 C 1554.93 -5.30969 -0.156775 0
M  V30 15979 C 1553.97 -6.06897 0.796418 0
M  V30 15980 N 1553.11 -7.02075 0.0595539 0
M  V30 15981 H 1557.95 -2.70312 1.2544 0
M  V30 15982 H 1555.48 -1.32933 0.629859 0
M  V30 15983 H 1557.44 -4.09492 -0.798231 0
M  V30 15984 H 1556.07 -3.01244 -1.15982 0
M  V30 15985 H 1555.12 -3.61508 1.1839 0
M  V30 15986 H 1556.43 -4.80397 1.34239 0
M  V30 15987 H 1555.59 -6.02999 -0.669146 0
M  V30 15988 H 1554.33 -4.78968 -0.918755 0
M  V30 15989 H 1553.33 -5.33716 1.32014 0
M  V30 15990 H 1554.56 -6.60987 1.558 0
M  V30 15991 H 1552.5 -6.5242 -0.684388 0
M  V30 15992 H 1552.42 -7.52484 0.728275 0
M  V30 15993 H 1553.69 -7.78299 -0.432538 0
M  V30 15994 N 1557.92 -0.68059 -1.42147 0
M  V30 15995 C 1558.83 -0.00595573 -2.34599 0
M  V30 15996 C 1559.84 0.782528 -1.55411 0
M  V30 15997 O 1561.02 0.723524 -1.87955 0
M  V30 15998 C 1558.08 0.92964 -3.34004 0
M  V30 15999 C 1557.15 0.135041 -4.29088 0
M  V30 16000 C 1556.38 1.02607 -5.23744 0
M  V30 16001 O 1556.6 2.26562 -5.23475 0
M  V30 16002 O 1555.54 0.483774 -5.99953 0
M  V30 16003 H 1559.36 -0.767652 -2.93838 0
M  V30 16004 H 1556.95 -0.440849 -1.42748 0
M  V30 16005 H 1558.83 1.46657 -3.95057 0
M  V30 16006 H 1557.5 1.67109 -2.7723 0
M  V30 16007 H 1556.41 -0.44613 -3.7143 0
M  V30 16008 H 1557.74 -0.567417 -4.88918 0
M  V30 16009 N 1559.4 1.51781 -0.424309 0
M  V30 16010 C 1560.36 2.25996 0.381903 0
M  V30 16011 C 1561.36 1.28938 0.960813 0
M  V30 16012 O 1562.55 1.52757 0.837306 0
M  V30 16013 C 1559.68 3.04181 1.53904 0
M  V30 16014 H 1560.87 2.98697 -0.268336 0
M  V30 16015 H 1558.43 1.55293 -0.177167 0
M  V30 16016 H 1559.16 2.35866 2.22571 0
M  V30 16017 H 1558.95 3.75457 1.13025 0
M  V30 16018 H 1560.44 3.60434 2.10896 0
M  V30 16019 N 1560.87 0.155222 1.56834 0
M  V30 16020 C 1561.78 -0.794179 2.20749 0
M  V30 16021 C 1562.8 -1.26546 1.19424 0
M  V30 16022 O 1563.98 -1.32094 1.5203 0
M  V30 16023 C 1561.04 -2.01261 2.82303 0
M  V30 16024 C 1560.1 -1.58976 3.98779 0
M  V30 16025 C 1559.33 -2.75011 4.57389 0
M  V30 16026 O 1559.56 -3.91449 4.14879 0
M  V30 16027 O 1558.49 -2.50011 5.4752 0
M  V30 16028 H 1562.32 -0.280064 3.02406 0
M  V30 16029 H 1559.9 -0.0722048 1.49225 0
M  V30 16030 H 1561.78 -2.72551 3.21394 0
M  V30 16031 H 1560.46 -2.51609 2.03653 0
M  V30 16032 H 1559.37 -0.846848 3.64389 0
M  V30 16033 H 1560.7 -1.13336 4.78974 0
M  V30 16034 N 1562.35 -1.57153 -0.118549 0
M  V30 16035 C 1563.58 -1.89434 -0.844355 0
M  V30 16036 C 1564 -0.747203 -1.72622 0
M  V30 16037 O 1563.36 0.302252 -1.78763 0
M  V30 16038 C 1563.41 -3.20466 -1.65331 0
M  V30 16039 O 1562.51 -3.06403 -2.76027 0
M  V30 16040 H 1561.85 -0.621601 -0.23347 0
M  V30 16041 H 1564.38 -2.04351 -0.100811 0
M  V30 16042 H 1564.39 -3.53197 -2.04245 0
M  V30 16043 H 1563.07 -4.03551 -1.00594 0
M  V30 16044 H 1561.64 -2.85139 -2.40312 0
M  V30 16045 N 1563.83 0.388742 -1.5273 0
M  V30 16046 C 1565.08 1.13375 -1.67787 0
M  V30 16047 C 1565.4 1.89957 -0.417925 0
M  V30 16048 O 1564.66 1.86286 0.599682 0
M  V30 16049 C 1564.96 2.13792 -2.86405 0
M  V30 16050 C 1564.62 1.53865 -4.23835 0
M  V30 16051 C 1563.29 1.37248 -4.61212 0
M  V30 16052 C 1565.64 1.10298 -5.09395 0
M  V30 16053 C 1562.97 0.756119 -5.81807 0
M  V30 16054 C 1565.32 0.500723 -6.30615 0
M  V30 16055 C 1563.98 0.321851 -6.66724 0
M  V30 16056 H 1563.25 0.414868 -0.613975 0
M  V30 16057 H 1565.9 0.418351 -1.86874 0
M  V30 16058 H 1564.2 2.91551 -2.61735 0
M  V30 16059 H 1565.9 2.71346 -2.95249 0
M  V30 16060 H 1562.49 1.67787 -3.94393 0
M  V30 16061 H 1566.68 1.21938 -4.81087 0
M  V30 16062 H 1561.93 0.605734 -6.08392 0
M  V30 16063 H 1566.11 0.154839 -6.96228 0
M  V30 16064 H 1563.73 -0.157836 -7.60036 0
M  V30 16065 N 1565.31 1.43698 0.647203 0
M  V30 16066 C 1566.72 1.40586 1.22851 0
M  V30 16067 C 1567.07 0.112981 1.95874 0
M  V30 16068 O 1566.19 -0.787342 2.01569 0
M  V30 16069 C 1566.79 2.54672 2.23445 0
M  V30 16070 C 1565.35 2.54806 2.7704 0
M  V30 16071 C 1564.5 2.32076 1.51777 0
M  V30 16072 H 1567.45 1.52512 0.43885 0
M  V30 16073 H 1567.47 2.26505 3.05738 0
M  V30 16074 H 1566.98 3.48755 1.70269 0
M  V30 16075 H 1565.08 1.64619 3.34262 0
M  V30 16076 H 1565.19 3.52771 3.24175 0
M  V30 16077 H 1563.56 1.80858 1.79339 0
M  V30 16078 H 1564.34 3.28252 1.00527 0
M  V30 16079 N 1566.79 -0.886131 1.30328 0
M  V30 16080 C 1568.03 -1.6346 1.18849 0
M  V30 16081 C 1568.36 -1.93295 -0.257285 0
M  V30 16082 O 1567.63 -1.56858 -1.17356 0
M  V30 16083 H 1566.21 -0.605932 0.43687 0
M  V30 16084 H 1568.87 -1.06177 1.63439 0
M  V30 16085 H 1567.96 -2.58522 1.7485 0
M  V30 16086 N 1568.26 -1.13026 -1.09832 0
M  V30 16087 C 1569.68 -0.902826 -1.6342 0
M  V30 16088 C 1570.03 0.561547 -1.87992 0
M  V30 16089 O 1569.15 1.42735 -1.62652 0
M  V30 16090 C 1569.75 -1.6324 -2.96881 0
M  V30 16091 C 1568.31 -1.45095 -3.4731 0
M  V30 16092 C 1567.45 -1.66431 -2.21802 0
M  V30 16093 H 1570.4 -1.28414 -0.932492 0
M  V30 16094 H 1570.42 -1.08706 -3.64641 0
M  V30 16095 H 1569.94 -2.69816 -2.78964 0
M  V30 16096 H 1568.04 -0.408031 -3.70359 0
M  V30 16097 H 1568.15 -2.21123 -4.25019 0
M  V30 16098 H 1566.51 -1.08885 -2.30252 0
M  V30 16099 H 1567.3 -2.74317 -2.0641 0
M  V30 16100 N 1569.74 1.27735 -0.923117 0
M  V30 16101 C 1570.97 1.9922 -0.57672 0
M  V30 16102 C 1571.39 1.68446 0.837113 0
M  V30 16103 O 1570.75 0.922129 1.56098 0
M  V30 16104 C 1570.8 3.51528 -0.803768 0
M  V30 16105 O 1569.9 4.12186 0.132829 0
M  V30 16106 H 1569.24 0.625593 -0.222553 0
M  V30 16107 H 1571.77 1.62657 -1.24112 0
M  V30 16108 H 1571.78 4.01641 -0.717534 0
M  V30 16109 H 1570.46 3.7326 -1.83439 0
M  V30 16110 H 1569.04 3.729 -0.00292957 0
M  V30 16111 N 1571.22 0.688118 1.41784 0
M  V30 16112 C 1572.15 0.0323199 2.33478 0
M  V30 16113 C 1573.13 -0.775145 1.51412 0
M  V30 16114 O 1574.32 -0.72962 1.79973 0
M  V30 16115 C 1571.45 -0.910141 3.35162 0
M  V30 16116 C 1570.4 -0.210312 4.27483 0
M  V30 16117 C 1569.73 -1.26662 5.19481 0
M  V30 16118 C 1571.03 0.918839 5.14154 0
M  V30 16119 H 1572.72 0.798138 2.88566 0
M  V30 16120 H 1570.27 0.385262 1.38751 0
M  V30 16121 H 1572.22 -1.3781 3.98229 0
M  V30 16122 H 1570.94 -1.70754 2.78408 0
M  V30 16123 H 1569.6 0.237544 3.6583 0
M  V30 16124 H 1569.25 -2.05635 4.59046 0
M  V30 16125 H 1568.95 -0.803416 5.82082 0
M  V30 16126 H 1570.47 -1.73524 5.85424 0
M  V30 16127 H 1571.89 0.531499 5.70831 0
M  V30 16128 H 1570.29 1.30867 5.85657 0
M  V30 16129 H 1571.36 1.7618 4.51762 0
M  V30 16130 N 1572.7 -1.51554 0.432352 0
M  V30 16131 C 1573.94 -2.02344 -0.13598 0
M  V30 16132 C 1574.28 -1.31619 -1.42794 0
M  V30 16133 O 1573.55 -0.42957 -1.89697 0
M  V30 16134 C 1573.84 -3.58297 -0.359865 0
M  V30 16135 C 1573.69 -4.39645 0.950399 0
M  V30 16136 C 1575.01 -4.25297 -1.13184 0
M  V30 16137 H 1572.13 -0.735439 -0.0479461 0
M  V30 16138 H 1574.77 -1.81237 0.570373 0
M  V30 16139 H 1572.92 -3.76413 -0.961547 0
M  V30 16140 H 1574.59 -4.3319 1.58568 0
M  V30 16141 H 1572.83 -4.04928 1.55614 0
M  V30 16142 H 1573.5 -5.46911 0.747852 0
M  V30 16143 H 1575.98 -4.11421 -0.622231 0
M  V30 16144 H 1574.86 -5.34307 -1.25726 0
M  V30 16145 H 1575.12 -3.85818 -2.15862 0
M  V30 16146 N 1574.18 -0.163538 -1.56749 0
M  V30 16147 C 1575.43 0.483453 -1.9582 0
M  V30 16148 C 1575.74 1.64913 -1.05181 0
M  V30 16149 O 1576.94 2.36184 -1.33901 0
M  V30 16150 C 1575.4 0.911471 -3.48167 0
M  V30 16151 C 1575.01 -0.228178 -4.47419 0
M  V30 16152 C 1576.75 1.52732 -3.96072 0
M  V30 16153 C 1574.66 0.219036 -5.90994 0
M  V30 16154 H 1573.59 0.184383 -0.731108 0
M  V30 16155 H 1576.24 -0.250527 -1.81782 0
M  V30 16156 H 1574.62 1.7012 -3.57596 0
M  V30 16157 H 1575.8 -1.0054 -4.49698 0
M  V30 16158 H 1574.11 -0.753485 -4.09526 0
M  V30 16159 H 1576.71 1.87383 -5.00791 0
M  V30 16160 H 1577.05 2.42239 -3.38565 0
M  V30 16161 H 1577.58 0.802176 -3.89628 0
M  V30 16162 H 1574.32 -0.641066 -6.52358 0
M  V30 16163 H 1573.84 0.96178 -5.92039 0
M  V30 16164 H 1575.52 0.665524 -6.43568 0
M  V30 16165 N 1575.65 1.57214 0.110213 0
M  V30 16166 C 1576.62 2.00034 1.11888 0
M  V30 16167 C 1577.62 0.891697 1.33811 0
M  V30 16168 O 1578.81 1.15754 1.3018 0
M  V30 16169 C 1575.94 2.34806 2.47142 0
M  V30 16170 H 1577.13 2.90354 0.750647 0
M  V30 16171 H 1574.69 1.5222 0.35479 0
M  V30 16172 H 1575.42 1.47393 2.8887 0
M  V30 16173 H 1575.21 3.15671 2.32581 0
M  V30 16174 H 1576.7 2.68644 3.19719 0
M  V30 16175 N 1577.13 -0.380637 1.52934 0
M  V30 16176 C 1578.36 -1.14417 1.72024 0
M  V30 16177 C 1578.77 -1.83962 0.442128 0
M  V30 16178 O 1578.11 -1.73839 -0.593766 0
M  V30 16179 C 1578.18 -2.22944 2.82022 0
M  V30 16180 C 1577.84 -1.73295 4.22869 0
M  V30 16181 C 1578.84 -1.20515 5.05739 0
M  V30 16182 C 1576.52 -1.79264 4.69222 0
M  V30 16183 C 1578.52 -0.743632 6.33047 0
M  V30 16184 C 1576.2 -1.32724 5.96513 0
M  V30 16185 C 1577.2 -0.803615 6.78256 0
M  V30 16186 O 1576.89 -0.34503 8.03159 0
M  V30 16187 H 1576.62 -0.348676 0.579138 0
M  V30 16188 H 1579.17 -0.450113 2.00407 0
M  V30 16189 H 1577.4 -2.95798 2.49079 0
M  V30 16190 H 1579.09 -2.84575 2.89434 0
M  V30 16191 H 1579.86 -1.15254 4.71107 0
M  V30 16192 H 1575.74 -2.18962 4.0568 0
M  V30 16193 H 1579.28 -0.334251 6.96799 0
M  V30 16194 H 1575.18 -1.37673 6.30648 0
M  V30 16195 H 1575.95 -0.465743 8.17174 0
M  V30 16196 N 1578.61 -1.44039 -0.639573 0
M  V30 16197 C 1579.57 -1.49907 -1.7338 0
M  V30 16198 C 1580.57 -0.382101 -1.56194 0
M  V30 16199 O 1581.76 -0.644396 -1.61843 0
M  V30 16200 C 1578.9 -1.36486 -3.12385 0
M  V30 16201 H 1580.09 -2.4737 -1.69553 0
M  V30 16202 H 1577.64 -1.31006 -0.852474 0
M  V30 16203 H 1578.38 -0.400845 -3.21813 0
M  V30 16204 H 1578.16 -2.17471 -3.26265 0
M  V30 16205 H 1579.65 -1.43555 -3.9215 0
M  V30 16206 N 1580.09 0.879207 -1.30796 0
M  V30 16207 C 1581.32 1.66449 -1.22891 0
M  V30 16208 C 1581.73 1.87658 0.207306 0
M  V30 16209 O 1581.09 1.42818 1.13619 0
M  V30 16210 C 1581.14 3.03765 -1.95982 0
M  V30 16211 O 1580.86 2.8351 -3.33997 0
M  V30 16212 C 1582.36 3.98204 -1.94804 0
M  V30 16213 H 1579.58 0.51922 -0.425031 0
M  V30 16214 H 1582.13 1.09807 -1.72519 0
M  V30 16215 H 1580.28 3.57124 -1.50138 0
M  V30 16216 H 1580.69 3.70663 -3.71092 0
M  V30 16217 H 1582.17 4.91901 -2.50474 0
M  V30 16218 H 1582.65 4.29277 -0.928336 0
M  V30 16219 H 1583.25 3.50781 -2.40485 0
M  V30 16220 N 1581.57 1.13606 1.09231 0
M  V30 16221 C 1582.81 0.909321 1.83059 0
M  V30 16222 C 1583.17 -0.554485 1.83819 0
M  V30 16223 O 1584.37 -0.898864 2.53326 0
M  V30 16224 C 1582.64 1.4835 3.25157 0
M  V30 16225 S 1584.2 1.3971 4.15964 0
M  V30 16226 H 1581.02 0.327715 0.630971 0
M  V30 16227 H 1583.62 1.44796 1.31355 0
M  V30 16228 H 1582.33 2.54219 3.22181 0
M  V30 16229 H 1581.86 0.942887 3.81934 0
M  V30 16230 H 1583.87 0.37691 4.94766 0
M  V30 16231 N 1583.05 -1.27244 0.929878 0
M  V30 16232 C 1584.29 -1.93559 0.567267 0
M  V30 16233 C 1584.61 -1.73864 -0.896138 0
M  V30 16234 O 1585.81 -2.34538 -1.36763 0
M  V30 16235 C 1584.27 -3.46756 0.963743 0
M  V30 16236 C 1583.88 -3.75204 2.44798 0
M  V30 16237 C 1585.62 -4.19139 0.672487 0
M  V30 16238 C 1583.53 -5.21787 2.78375 0
M  V30 16239 H 1582.46 -0.724617 0.208437 0
M  V30 16240 H 1585.11 -1.44502 1.13099 0
M  V30 16241 H 1583.49 -3.94634 0.328654 0
M  V30 16242 H 1584.67 -3.38075 3.13116 0
M  V30 16243 H 1582.98 -3.16029 2.71136 0
M  V30 16244 H 1585.58 -5.27074 0.899816 0
M  V30 16245 H 1585.92 -4.14466 -0.390378 0
M  V30 16246 H 1586.45 -3.77091 1.26678 0
M  V30 16247 H 1583.19 -5.31552 3.83579 0
M  V30 16248 H 1582.71 -5.60054 2.14708 0
M  V30 16249 H 1584.39 -5.89685 2.66234 0
M  V30 16250 N 1584.52 -0.695628 -1.41417 0
M  V30 16251 C 1585.47 -0.0189456 -2.32592 0
M  V30 16252 C 1586.47 0.76848 -1.50966 0
M  V30 16253 O 1587.67 0.674096 -1.66901 0
M  V30 16254 H 1584.05 0.0126742 -0.751893 0
M  V30 16255 H 1586.02 -0.804968 -2.87337 0
M  V30 16256 C 1584.77 0.903458 -3.35757 0
M  V30 16257 H 1584.09 0.306963 -3.9862 0
M  V30 16258 H 1585.53 1.34525 -4.02093 0
M  V30 16259 C 1583.99 2.01966 -2.69651 0
M  V30 16260 O 1584.52 3.10845 -2.54438 0
M  V30 16261 N 1582.72 1.79741 -2.28345 0
M  V30 16262 H 1582.27 0.911929 -2.40918 0
M  V30 16263 H 1582.23 2.54609 -1.84449 0
M  V30 16264 N 1586 1.51322 -0.440383 0
M  V30 16265 C 1586.93 2.25587 0.40537 0
M  V30 16266 C 1587.95 1.29721 0.983686 0
M  V30 16267 O 1589.14 1.55453 0.877308 0
M  V30 16268 C 1586.24 2.99848 1.57938 0
M  V30 16269 C 1585.41 4.22834 1.11939 0
M  V30 16270 C 1584.47 4.79649 2.16387 0
M  V30 16271 O 1583.49 5.41405 1.75697 0
M  V30 16272 N 1584.7 4.63948 3.48902 0
M  V30 16273 H 1587.46 2.98807 -0.231143 0
M  V30 16274 H 1585.02 1.59642 -0.26944 0
M  V30 16275 H 1587.01 3.34743 2.2744 0
M  V30 16276 H 1585.58 2.29619 2.12117 0
M  V30 16277 H 1584.8 3.93398 0.251323 0
M  V30 16278 H 1586.09 5.02637 0.7895 0
M  V30 16279 H 1585.49 4.14764 3.84691 0
M  V30 16280 H 1584.05 5.03196 4.14291 0
M  V30 16281 N 1587.48 0.171848 1.5666 0
M  V30 16282 C 1588.73 -0.472034 1.9651 0
M  V30 16283 C 1589.05 -1.63743 1.05893 0
M  V30 16284 O 1588.32 -1.95498 0.125396 0
M  V30 16285 H 1586.9 -0.177377 0.725635 0
M  V30 16286 H 1589.56 0.253155 1.93249 0
M  V30 16287 H 1588.66 -0.831693 3.00814 0
M  V30 16288 N 1588.96 -1.5727 -0.101874 0
M  V30 16289 C 1589.89 -2.04614 -1.12496 0
M  V30 16290 C 1590.87 -0.933768 -1.42179 0
M  V30 16291 O 1592.05 -1.2046 -1.52325 0
M  V30 16292 C 1589.18 -2.46488 -2.44665 0
M  V30 16293 C 1588.14 -3.61327 -2.29406 0
M  V30 16294 C 1587.46 -3.89155 -3.66691 0
M  V30 16295 C 1588.76 -4.92455 -1.74026 0
M  V30 16296 H 1590.46 -2.90336 -0.731109 0
M  V30 16297 H 1588 -1.39676 -0.350239 0
M  V30 16298 H 1589.96 -2.78216 -3.16502 0
M  V30 16299 H 1588.68 -1.57757 -2.85972 0
M  V30 16300 H 1587.34 -3.29835 -1.60015 0
M  V30 16301 H 1586.99 -2.97603 -4.05514 0
M  V30 16302 H 1586.69 -4.66465 -3.57329 0
M  V30 16303 H 1588.21 -4.23352 -4.40006 0
M  V30 16304 H 1589.63 -5.22609 -2.35697 0
M  V30 16305 H 1588.02 -5.73882 -1.75441 0
M  V30 16306 H 1589.09 -4.79833 -0.699136 0
M  V30 16307 N 1590.44 0.372521 -1.53134 0
M  V30 16308 C 1591.85 0.713727 -1.42752 0
M  V30 16309 C 1592.05 1.93532 -0.561051 0
M  V30 16310 O 1591.11 2.52467 -0.0408195 0
M  V30 16311 C 1592.42 0.933418 -2.85846 0
M  V30 16312 C 1593.97 1.03386 -2.95432 0
M  V30 16313 C 1594.44 1.28607 -4.39573 0
M  V30 16314 N 1595.93 1.35393 -4.42971 0
M  V30 16315 C 1596.67 1.56604 -5.516 0
M  V30 16316 N 1596.17 1.75178 -6.70287 0
M  V30 16317 N 1597.96 1.58917 -5.39168 0
M  V30 16318 H 1590.11 -0.431068 -2.0798 0
M  V30 16319 H 1592.37 -0.130757 -0.938939 0
M  V30 16320 H 1592.08 0.107707 -3.51535 0
M  V30 16321 H 1591.95 1.84348 -3.29083 0
M  V30 16322 H 1594.34 1.85012 -2.29901 0
M  V30 16323 H 1594.42 0.101346 -2.55599 0
M  V30 16324 H 1594.06 0.47485 -5.05675 0
M  V30 16325 H 1593.99 2.2317 -4.76973 0
M  V30 16326 H 1596.49 1.22681 -3.57432 0
M  V30 16327 H 1596.8 1.90916 -7.48846 0
M  V30 16328 H 1595.14 1.7237 -6.73286 0
M  V30 16329 H 1598.33 1.4397 -4.4541 0
M  V30 16330 H 1598.51 1.75108 -6.23892 0
M  V30 16331 N 1591.91 1.44376 0.631925 0
M  V30 16332 C 1592.86 1.51181 1.74393 0
M  V30 16333 C 1593.83 0.359599 1.62161 0
M  V30 16334 O 1595.02 0.569725 1.82096 0
M  V30 16335 C 1592.16 1.46124 3.12637 0
M  V30 16336 C 1591.27 2.71714 3.35851 0
M  V30 16337 C 1590.4 2.58496 4.64062 0
M  V30 16338 C 1589.44 3.79252 4.80452 0
M  V30 16339 N 1588.58 3.64715 5.99939 0
M  V30 16340 H 1593.42 2.4619 1.67912 0
M  V30 16341 H 1590.96 1.22184 0.819108 0
M  V30 16342 H 1592.91 1.41183 3.92585 0
M  V30 16343 H 1591.54 0.546831 3.18135 0
M  V30 16344 H 1590.6 2.86845 2.49848 0
M  V30 16345 H 1591.91 3.61351 3.43841 0
M  V30 16346 H 1591.06 2.51383 5.5217 0
M  V30 16347 H 1589.8 1.66417 4.58428 0
M  V30 16348 H 1588.81 3.8675 3.90774 0
M  V30 16349 H 1590.03 4.72367 4.879 0
M  V30 16350 H 1587.98 2.75388 5.95397 0
M  V30 16351 H 1587.89 4.47969 6.08982 0
M  V30 16352 H 1589.16 3.61493 6.90611 0
M  V30 16353 N 1593.39 -0.872258 1.31261 0
M  V30 16354 C 1594.64 -1.6219 1.20576 0
M  V30 16355 C 1594.96 -1.93557 -0.236769 0
M  V30 16356 O 1594.23 -1.58094 -1.15686 0
M  V30 16357 H 1592.81 -0.601265 0.443272 0
M  V30 16358 H 1595.47 -1.04438 1.64556 0
M  V30 16359 H 1594.57 -2.56653 1.77582 0
M  V30 16360 N 1594.87 -1.14184 -1.08627 0
M  V30 16361 C 1595.8 -0.770338 -2.14805 0
M  V30 16362 C 1596.78 0.247269 -1.60709 0
M  V30 16363 O 1597.96 0.136851 -1.88003 0
M  V30 16364 C 1595.09 -0.143349 -3.38397 0
M  V30 16365 C 1594.14 -1.13077 -4.11237 0
M  V30 16366 S 1594.97 -2.667 -4.64361 0
M  V30 16367 C 1596.13 -2.05384 -5.91243 0
M  V30 16368 H 1596.36 -1.66968 -2.45986 0
M  V30 16369 H 1593.89 -0.962834 -1.20702 0
M  V30 16370 H 1595.85 0.211987 -4.09952 0
M  V30 16371 H 1594.51 0.733388 -3.05418 0
M  V30 16372 H 1593.7 -0.64004 -4.99919 0
M  V30 16373 H 1593.31 -1.42998 -3.45583 0
M  V30 16374 H 1595.6 -1.40791 -6.6271 0
M  V30 16375 H 1596.54 -2.92181 -6.45008 0
M  V30 16376 H 1596.95 -1.50209 -5.44149 0
M  V30 16377 N 1596.35 1.26749 -0.936613 0
M  V30 16378 C 1597.6 1.9358 -0.580605 0
M  V30 16379 C 1597.92 1.7389 0.882446 0
M  V30 16380 O 1597.19 1.09185 1.62652 0
M  V30 16381 H 1595.77 0.716363 -0.211739 0
M  V30 16382 H 1598.43 1.54281 -1.19095 0
M  V30 16383 H 1597.53 3.01819 -0.79448 0
M  V30 16384 N 1597.83 0.703118 1.41046 0
M  V30 16385 C 1598.77 0.0425767 2.30761 0
M  V30 16386 C 1599.74 -0.763406 1.47517 0
M  V30 16387 O 1600.93 -0.7299 1.76287 0
M  V30 16388 C 1598.07 -0.882353 3.33629 0
M  V30 16389 C 1597.18 -0.0671799 4.31948 0
M  V30 16390 C 1596.32 -0.990443 5.21885 0
M  V30 16391 C 1595.36 -0.168622 6.11868 0
M  V30 16392 N 1594.49 -1.04609 6.94263 0
M  V30 16393 H 1599.33 0.813363 2.86685 0
M  V30 16394 H 1596.87 0.412804 1.41189 0
M  V30 16395 H 1598.83 -1.43273 3.91827 0
M  V30 16396 H 1597.46 -1.61946 2.79237 0
M  V30 16397 H 1596.51 0.600219 3.75635 0
M  V30 16398 H 1597.82 0.569624 4.95537 0
M  V30 16399 H 1596.98 -1.60979 5.84954 0
M  V30 16400 H 1595.71 -1.66109 4.5854 0
M  V30 16401 H 1594.72 0.463746 5.47841 0
M  V30 16402 H 1595.94 0.49834 6.77269 0
M  V30 16403 H 1593.89 -1.70262 6.33519 0
M  V30 16404 H 1593.81 -0.465036 7.54568 0
M  V30 16405 H 1595.08 -1.65201 7.61793 0
M  V30 16406 N 1599.3 -1.51086 0.448402 0
M  V30 16407 C 1600.53 -2.07081 -0.115038 0
M  V30 16408 C 1600.95 -1.31253 -1.34737 0
M  V30 16409 O 1600.31 -0.353613 -1.77818 0
M  V30 16410 C 1600.36 -3.58321 -0.404803 0
M  V30 16411 O 1599.46 -3.84567 -1.48936 0
M  V30 16412 H 1598.81 -0.663993 0.00299118 0
M  V30 16413 H 1601.34 -1.94564 0.632921 0
M  V30 16414 H 1601.35 -4.02756 -0.652013 0
M  V30 16415 H 1600.02 -4.12934 0.495838 0
M  V30 16416 H 1598.6 -3.51987 -1.23124 0
M  V30 16417 N 1600.78 -0.180154 -1.56567 0
M  V30 16418 C 1601.71 0.77825 -2.15583 0
M  V30 16419 C 1602.73 1.18746 -1.1137 0
M  V30 16420 O 1603.92 1.12578 -1.38523 0
M  V30 16421 C 1601.02 2.06024 -2.69086 0
M  V30 16422 C 1600.19 1.8132 -3.98047 0
M  V30 16423 C 1599.25 2.93823 -4.36526 0
M  V30 16424 O 1598.27 2.64075 -5.04235 0
M  V30 16425 N 1599.48 4.21823 -3.98806 0
M  V30 16426 H 1602.24 0.273661 -2.98448 0
M  V30 16427 H 1599.8 0.00232952 -1.619 0
M  V30 16428 H 1601.79 2.80398 -2.9182 0
M  V30 16429 H 1600.36 2.47648 -1.9076 0
M  V30 16430 H 1599.58 0.908046 -3.83599 0
M  V30 16431 H 1600.87 1.62194 -4.82256 0
M  V30 16432 H 1600.27 4.48849 -3.44313 0
M  V30 16433 H 1598.83 4.92871 -4.26522 0
M  V30 16434 N 1602.26 1.57322 0.0935319 0
M  V30 16435 C 1603.54 1.77187 0.828503 0
M  V30 16436 C 1603.92 0.762216 1.96859 0
M  V30 16437 O 1603.27 -0.208982 2.27542 0
M  V30 16438 C 1603.48 3.23007 1.32163 0
M  V30 16439 C 1604.82 3.86233 1.76379 0
M  V30 16440 O 1605.85 3.26766 1.41783 0
M  V30 16441 O 1604.71 4.90808 2.40354 0
M  V30 16442 H 1601.8 0.726401 0.395311 0
M  V30 16443 H 1604.35 1.69533 0.0752924 0
M  V30 16444 H 1603.12 3.88029 0.504863 0
M  V30 16445 H 1602.74 3.353 2.13681 0
M  V30 16446 N 1603.74 -0.364395 1.53329 0
M  V30 16447 C 1604.98 -1.10855 1.6982 0
M  V30 16448 C 1605.32 -1.88931 0.449291 0
M  V30 16449 O 1604.59 -1.8646 -0.553437 0
M  V30 16450 C 1604.88 -2.06681 2.94881 0
M  V30 16451 C 1604.73 -1.32206 4.29932 0
M  V30 16452 C 1606.05 -3.06788 3.15546 0
M  V30 16453 H 1603.17 -0.401626 0.617953 0
M  V30 16454 H 1605.81 -0.389244 1.8597 0
M  V30 16455 H 1603.96 -2.68019 2.81244 0
M  V30 16456 H 1605.63 -0.73642 4.55384 0
M  V30 16457 H 1603.87 -0.623916 4.2929 0
M  V30 16458 H 1604.54 -2.0235 5.13574 0
M  V30 16459 H 1607.02 -2.55554 3.28377 0
M  V30 16460 H 1605.9 -3.71059 4.04483 0
M  V30 16461 H 1606.16 -3.77023 2.3088 0
M  V30 16462 N 1605.22 -1.44709 -0.62426 0
M  V30 16463 C 1606.15 -1.46578 -1.749 0
M  V30 16464 C 1607.13 -0.323875 -1.59342 0
M  V30 16465 O 1608.31 -0.521884 -1.81132 0
M  V30 16466 C 1605.44 -1.30499 -3.1255 0
M  V30 16467 C 1604.48 -2.48341 -3.4674 0
M  V30 16468 S 1605.32 -4.10857 -3.43448 0
M  V30 16469 C 1606.47 -3.97213 -4.83707 0
M  V30 16470 H 1606.71 -2.41747 -1.73049 0
M  V30 16471 H 1604.24 -1.3209 -0.799473 0
M  V30 16472 H 1606.2 -1.2191 -3.9198 0
M  V30 16473 H 1604.86 -0.368301 -3.11933 0
M  V30 16474 H 1604.05 -2.32972 -4.46923 0
M  V30 16475 H 1603.65 -2.53706 -2.74789 0
M  V30 16476 H 1605.95 -3.61328 -5.73104 0
M  V30 16477 H 1606.89 -4.9725 -5.04131 0
M  V30 16478 H 1607.3 -3.29154 -4.58604 0
M  V30 16479 N 1606.69 0.865285 -1.31722 0
M  V30 16480 C 1607.64 1.99433 -1.19704 0
M  V30 16481 C 1608.64 1.69079 -0.104255 0
M  V30 16482 O 1609.84 1.78017 -0.266466 0
M  V30 16483 H 1606.22 0.654244 -0.370768 0
M  V30 16484 H 1608.19 2.06699 -2.15216 0
M  V30 16485 C 1606.94 3.35142 -0.926027 0
M  V30 16486 H 1606.26 3.59022 -1.75906 0
M  V30 16487 H 1607.7 4.14722 -0.88214 0
M  V30 16488 C 1606.16 3.34848 0.37124 0
M  V30 16489 O 1606.69 3.77012 1.38654 0
M  V30 16490 N 1604.9 2.87979 0.389441 0
M  V30 16491 H 1604.44 2.53861 -0.437293 0
M  V30 16492 H 1604.4 2.88165 1.25731 0
M  V30 16493 N 1608.17 1.14759 1.0802 0
M  V30 16494 C 1609.4 0.941887 1.84218 0
M  V30 16495 C 1609.82 -0.509702 1.8179 0
M  V30 16496 O 1609.17 -1.35331 1.22441 0
M  V30 16497 C 1609.22 1.43978 3.31591 0
M  V30 16498 O 1608.94 2.83449 3.34048 0
M  V30 16499 C 1610.45 1.27459 4.24581 0
M  V30 16500 H 1607.67 0.334942 0.581425 0
M  V30 16501 H 1610.21 1.52367 1.36399 0
M  V30 16502 H 1608.36 0.900674 3.76785 0
M  V30 16503 H 1608.78 3.05878 4.26073 0
M  V30 16504 H 1610.25 1.67151 5.26084 0
M  V30 16505 H 1610.73 0.217925 4.38659 0
M  V30 16506 H 1611.34 1.80243 3.85217 0
M  V30 16507 N 1609.65 -1.26251 0.943322 0
M  V30 16508 C 1610.61 -2.24554 0.459158 0
M  V30 16509 C 1611.61 -1.54918 -0.430926 0
M  V30 16510 O 1612.8 -1.72678 -0.229803 0
M  V30 16511 C 1609.94 -3.39221 -0.337973 0
M  V30 16512 H 1611.13 -2.689 1.32789 0
M  V30 16513 H 1608.68 -1.38442 0.725495 0
M  V30 16514 H 1609.42 -3.00279 -1.22486 0
M  V30 16515 H 1609.2 -3.90947 0.300428 0
M  V30 16516 H 1610.69 -4.12246 -0.666568 0
M  V30 16517 N 1611.13 -0.710588 -1.40671 0
M  V30 16518 C 1612.38 -0.248316 -2.01274 0
M  V30 16519 C 1612.71 1.1539 -1.56201 0
M  V30 16520 O 1611.98 1.78182 -0.779838 0
M  V30 16521 C 1612.27 -0.322762 -3.58651 0
M  V30 16522 C 1612.12 -1.763 -4.1381 0
M  V30 16523 C 1613.44 0.308908 -4.39015 0
M  V30 16524 H 1610.56 -0.0917037 -0.731272 0
M  V30 16525 H 1613.2 -0.902145 -1.67216 0
M  V30 16526 H 1611.35 0.233923 -3.87795 0
M  V30 16527 H 1613.02 -2.37468 -3.95483 0
M  V30 16528 H 1611.26 -2.29233 -3.68286 0
M  V30 16529 H 1611.94 -1.76652 -5.22971 0
M  V30 16530 H 1614.41 -0.165363 -4.15771 0
M  V30 16531 H 1613.29 0.226347 -5.48433 0
M  V30 16532 H 1613.55 1.39174 -4.19622 0
M  V30 16533 N 1612.61 1.50847 -0.456408 0
M  V30 16534 C 1613.55 2.28202 0.345341 0
M  V30 16535 C 1614.52 1.32611 1.00017 0
M  V30 16536 O 1615.71 1.61535 1.01543 0
M  V30 16537 C 1612.85 3.14087 1.42981 0
M  V30 16538 C 1611.96 4.24693 0.791217 0
M  V30 16539 C 1611.1 4.97857 1.85234 0
M  V30 16540 C 1610.14 6.00357 1.1932 0
M  V30 16541 N 1609.27 6.66856 2.19652 0
M  V30 16542 H 1614.11 2.9627 -0.320646 0
M  V30 16543 H 1611.65 1.46115 -0.169973 0
M  V30 16544 H 1613.61 3.62222 2.07006 0
M  V30 16545 H 1612.24 2.48095 2.06516 0
M  V30 16546 H 1611.29 3.8038 0.0387694 0
M  V30 16547 H 1612.6 4.98068 0.270177 0
M  V30 16548 H 1611.76 5.49636 2.56875 0
M  V30 16549 H 1610.5 4.24155 2.40715 0
M  V30 16550 H 1609.5 5.47853 0.462341 0
M  V30 16551 H 1610.73 6.76025 0.645473 0
M  V30 16552 H 1608.67 5.95955 2.74178 0
M  V30 16553 H 1608.59 7.36059 1.72492 0
M  V30 16554 H 1609.86 7.23259 2.90719 0
M  V30 16555 N 1614.09 0.188454 1.56469 0
M  V30 16556 C 1615.31 -0.460975 2.02212 0
M  V30 16557 C 1615.74 -1.54856 1.06777 0
M  V30 16558 O 1615.09 -1.81231 0.0501425 0
M  V30 16559 C 1615.14 -1.00047 3.46443 0
M  V30 16560 O 1614.25 -2.1137 3.54114 0
M  V30 16561 H 1613.59 -0.108497 0.655076 0
M  V30 16562 H 1616.12 0.297381 2.02427 0
M  V30 16563 H 1616.13 -1.31876 3.86099 0
M  V30 16564 H 1614.8 -0.204273 4.15398 0
M  V30 16565 H 1613.38 -1.80456 3.26328 0
M  V30 16566 N 1615.56 -1.5737 -0.0851874 0
M  V30 16567 C 1616.81 -1.86219 -0.7853 0
M  V30 16568 C 1617.13 -0.77857 -1.78783 0
M  V30 16569 O 1616.4 0.194176 -1.94935 0
M  V30 16570 H 1614.98 -0.687134 -0.293013 0
M  V30 16571 H 1617.64 -1.94793 -0.0644597 0
M  V30 16572 H 1616.74 -2.83286 -1.30978 0
M  V30 16573 N 1617.04 0.356258 -1.53521 0
M  V30 16574 C 1618.27 1.11666 -1.73823 0
M  V30 16575 C 1618.68 1.83235 -0.471338 0
M  V30 16576 O 1618.02 1.74762 0.566035 0
M  V30 16577 C 1618.08 2.18429 -2.85533 0
M  V30 16578 C 1617.75 1.66545 -4.25572 0
M  V30 16579 C 1618.75 1.12454 -5.07592 0
M  V30 16580 C 1616.43 1.71776 -4.72015 0
M  V30 16581 C 1618.42 0.642826 -6.3415 0
M  V30 16582 C 1616.11 1.23217 -5.98549 0
M  V30 16583 C 1617.11 0.695609 -6.79449 0
M  V30 16584 O 1616.8 0.217211 -8.03606 0
M  V30 16585 H 1616.53 0.339418 -0.584612 0
M  V30 16586 H 1619.08 0.418173 -2.01098 0
M  V30 16587 H 1617.31 2.91798 -2.53753 0
M  V30 16588 H 1619 2.79934 -2.93925 0
M  V30 16589 H 1619.77 1.07745 -4.72881 0
M  V30 16590 H 1615.65 2.12481 -4.09112 0
M  V30 16591 H 1619.19 0.223354 -6.97242 0
M  V30 16592 H 1615.09 1.27623 -6.32758 0
M  V30 16593 H 1615.86 0.335679 -8.17811 0
M  V30 16594 N 1618.52 1.45038 0.616577 0
M  V30 16595 C 1619.77 1.49797 1.37595 0
M  V30 16596 C 1620.12 0.134243 1.91931 0
M  V30 16597 O 1619.41 -0.852613 1.71584 0
M  V30 16598 C 1619.61 2.50545 2.54876 0
M  V30 16599 C 1619.44 3.9658 2.12024 0
M  V30 16600 C 1618.21 4.64628 1.98618 0
M  V30 16601 C 1620.4 4.85377 1.70041 0
M  V30 16602 N 1618.39 5.95423 1.49481 0
M  V30 16603 C 1619.76 6.0573 1.32255 0
M  V30 16604 C 1621.81 4.72315 1.57552 0
M  V30 16605 C 1620.52 7.14469 0.832279 0
M  V30 16606 C 1622.54 5.81093 1.09929 0
M  V30 16607 C 1621.9 7.00596 0.731022 0
M  V30 16608 H 1618 0.603131 0.497752 0
M  V30 16609 H 1620.59 1.81456 0.70582 0
M  V30 16610 H 1618.76 2.20853 3.19497 0
M  V30 16611 H 1620.49 2.45508 3.21726 0
M  V30 16612 H 1617.24 4.1965 2.19524 0
M  V30 16613 H 1617.67 6.64949 1.2717 0
M  V30 16614 H 1622.31 3.80347 1.84652 0
M  V30 16615 H 1620.03 8.06234 0.548815 0
M  V30 16616 H 1623.61 5.73018 1.00704 0
M  V30 16617 H 1622.49 7.83335 0.368177 0
M  V30 16618 N 1620 -0.858287 1.32179 0
M  V30 16619 C 1621.41 -1.4281 1.20259 0
M  V30 16620 C 1621.76 -1.95313 -0.186332 0
M  V30 16621 O 1620.88 -1.87244 -1.08484 0
M  V30 16622 C 1621.48 -2.59589 2.17713 0
M  V30 16623 C 1620.04 -3.1258 2.09691 0
M  V30 16624 C 1619.19 -1.85317 2.06283 0
M  V30 16625 H 1622.14 -0.665769 1.4406 0
M  V30 16626 H 1622.16 -3.36639 1.77354 0
M  V30 16627 H 1621.67 -2.21346 3.18791 0
M  V30 16628 H 1619.77 -3.55416 1.11849 0
M  V30 16629 H 1619.88 -3.74071 2.99346 0
M  V30 16630 H 1618.25 -2.04766 1.51469 0
M  V30 16631 H 1619.03 -1.49296 3.09137 0
M  V30 16632 N 1621.48 -1.1533 -1.07409 0
M  V30 16633 C 1622.41 -0.872476 -2.16587 0
M  V30 16634 C 1623.39 0.176683 -1.6918 0
M  V30 16635 O 1624.57 0.0311826 -1.94175 0
M  V30 16636 C 1621.7 -0.360342 -3.45426 0
M  V30 16637 C 1620.66 -1.34611 -4.06281 0
M  V30 16638 C 1619.98 -0.692848 -5.30192 0
M  V30 16639 C 1621.28 -2.71191 -4.46378 0
M  V30 16640 H 1622.98 -1.78546 -2.40336 0
M  V30 16641 H 1620.52 -0.859895 -1.15507 0
M  V30 16642 H 1622.47 -0.151429 -4.21128 0
M  V30 16643 H 1621.2 0.588109 -3.21261 0
M  V30 16644 H 1619.86 -1.54137 -3.32622 0
M  V30 16645 H 1619.51 0.261732 -5.02319 0
M  V30 16646 H 1619.21 -1.35071 -5.71865 0
M  V30 16647 H 1620.73 -0.493695 -6.08601 0
M  V30 16648 H 1622.14 -2.55513 -5.13212 0
M  V30 16649 H 1620.54 -3.33345 -4.99 0
M  V30 16650 H 1621.61 -3.273 -3.57775 0
M  V30 16651 N 1622.95 1.25748 -0.950004 0
M  V30 16652 C 1624.2 1.93336 -0.602294 0
M  V30 16653 C 1624.53 1.74454 0.859994 0
M  V30 16654 O 1623.78 1.08032 1.6318 0
M  V30 16655 C 1624.08 3.45843 -0.901521 0
M  V30 16656 C 1623.75 3.84874 -2.3491 0
M  V30 16657 C 1622.41 3.9524 -2.74479 0
M  V30 16658 C 1624.76 4.04286 -3.28941 0
M  V30 16659 C 1622.09 4.22422 -4.07157 0
M  V30 16660 C 1624.44 4.32959 -4.61225 0
M  V30 16661 C 1623.11 4.41541 -5.00597 0
M  V30 16662 H 1622.38 0.707465 -0.220395 0
M  V30 16663 H 1625.02 1.49386 -1.19817 0
M  V30 16664 H 1623.33 3.91164 -0.2232 0
M  V30 16665 H 1625.03 3.96316 -0.611134 0
M  V30 16666 H 1621.62 3.77358 -2.03221 0
M  V30 16667 H 1625.8 3.95697 -2.99563 0
M  V30 16668 H 1621.06 4.27281 -4.37311 0
M  V30 16669 H 1625.23 4.46925 -5.3407 0
M  V30 16670 H 1622.86 4.62358 -6.03431 0
M  V30 16671 N 1624.43 0.718038 1.40292 0
M  V30 16672 C 1625.85 0.391848 1.54715 0
M  V30 16673 C 1626.05 -1.09911 1.68884 0
M  V30 16674 O 1625.1 -1.88518 1.6798 0
M  V30 16675 C 1626.42 1.16005 2.77423 0
M  V30 16676 C 1627.96 1.14659 2.91243 0
M  V30 16677 C 1628.44 1.897 4.16867 0
M  V30 16678 N 1629.93 1.86781 4.23872 0
M  V30 16679 C 1630.67 2.41665 5.19986 0
M  V30 16680 N 1630.16 3.05116 6.21994 0
M  V30 16681 N 1631.95 2.31794 5.12082 0
M  V30 16682 H 1624.11 1.68477 1.29342 0
M  V30 16683 H 1626.37 0.712248 0.625625 0
M  V30 16684 H 1626.07 2.21435 2.73239 0
M  V30 16685 H 1625.95 0.75328 3.69602 0
M  V30 16686 H 1628.34 0.100477 2.94929 0
M  V30 16687 H 1628.42 1.5926 2.00175 0
M  V30 16688 H 1628.06 2.94303 4.13942 0
M  V30 16689 H 1627.99 1.42518 5.06948 0
M  V30 16690 H 1630.48 1.40541 3.50794 0
M  V30 16691 H 1630.79 3.44505 6.91763 0
M  V30 16692 H 1629.14 3.09201 6.22431 0
M  V30 16693 H 1632.33 1.81879 4.31321 0
M  V30 16694 H 1632.5 2.74868 5.86815 0
M  V30 16695 N 1625.91 -1.50602 0.464402 0
M  V30 16696 C 1627.14 -2.06401 -0.0906449 0
M  V30 16697 C 1627.55 -1.32913 -1.3465 0
M  V30 16698 O 1626.89 -0.389959 -1.79513 0
M  V30 16699 C 1626.95 -3.56655 -0.451375 0
M  V30 16700 C 1626.62 -4.51584 0.701504 0
M  V30 16701 C 1627.61 -4.95259 1.5816 0
M  V30 16702 C 1625.3 -4.94354 0.88993 0
M  V30 16703 C 1627.29 -5.80404 2.63458 0
M  V30 16704 C 1624.98 -5.79283 1.94615 0
M  V30 16705 C 1625.98 -6.22208 2.81684 0
M  V30 16706 O 1625.67 -7.05446 3.85489 0
M  V30 16707 H 1625.4 -0.676 0.000751268 0
M  V30 16708 H 1627.95 -1.94836 0.650235 0
M  V30 16709 H 1626.18 -3.66098 -1.24535 0
M  V30 16710 H 1627.87 -3.94848 -0.940722 0
M  V30 16711 H 1628.64 -4.6289 1.44768 0
M  V30 16712 H 1624.52 -4.60467 0.221708 0
M  V30 16713 H 1628.06 -6.13829 3.3145 0
M  V30 16714 H 1623.96 -6.11064 2.08016 0
M  V30 16715 H 1624.73 -7.23682 3.82396 0
M  V30 16716 N 1627.39 -0.19675 -1.56367 0
M  V30 16717 C 1628.67 0.489288 -1.89381 0
M  V30 16718 C 1629.05 1.79529 -1.11052 0
M  V30 16719 O 1628.39 2.27513 -0.212117 0
M  V30 16720 C 1628.6 0.706459 -3.41775 0
M  V30 16721 C 1629.95 1.02508 -4.1204 0
M  V30 16722 O 1630.98 0.794123 -3.47235 0
M  V30 16723 O 1629.83 1.46207 -5.26579 0
M  V30 16724 H 1626.93 0.2553 -0.786607 0
M  V30 16725 H 1629.47 -0.237086 -1.68036 0
M  V30 16726 H 1628.25 -0.215762 -3.90705 0
M  V30 16727 H 1627.87 1.48523 -3.68818 0
M  V30 16728 N 1628.87 1.57413 0.0768405 0
M  V30 16729 C 1630.28 1.75776 0.629262 0
M  V30 16730 C 1630.63 0.821502 1.78173 0
M  V30 16731 O 1629.75 0.00437198 2.164 0
M  V30 16732 C 1630.35 3.18747 1.14828 0
M  V30 16733 C 1628.91 3.38472 1.64661 0
M  V30 16734 C 1628.05 2.71506 0.563884 0
M  V30 16735 H 1631.01 1.57996 -0.149312 0
M  V30 16736 H 1631.03 3.22628 2.01722 0
M  V30 16737 H 1630.54 3.86866 0.309282 0
M  V30 16738 H 1628.64 2.75461 2.50903 0
M  V30 16739 H 1628.75 4.4689 1.72703 0
M  V30 16740 H 1627.12 2.33917 1.00772 0
M  V30 16741 H 1627.9 3.42277 -0.264847 0
M  V30 16742 N 1630.34 -0.348112 1.53707 0
M  V30 16743 C 1631.76 -0.690926 1.43869 0
M  V30 16744 C 1631.96 -1.92614 0.59177 0
M  V30 16745 O 1631.02 -2.5237 0.0809797 0
M  V30 16746 C 1632.33 -0.887824 2.87295 0
M  V30 16747 C 1633.88 -0.986731 2.9704 0
M  V30 16748 C 1634.35 -1.21598 4.41563 0
M  V30 16749 N 1635.84 -1.28328 4.45069 0
M  V30 16750 C 1636.58 -1.47809 5.54022 0
M  V30 16751 N 1636.07 -1.64492 6.72989 0
M  V30 16752 N 1637.87 -1.5032 5.41628 0
M  V30 16753 H 1630.02 0.464101 2.07268 0
M  V30 16754 H 1632.28 0.145678 0.93674 0
M  V30 16755 H 1631.99 -0.0517672 3.51662 0
M  V30 16756 H 1631.86 -1.79089 3.31974 0
M  V30 16757 H 1634.25 -1.81331 2.32815 0
M  V30 16758 H 1634.33 -0.0606692 2.55728 0
M  V30 16759 H 1633.97 -0.394341 5.06367 0
M  V30 16760 H 1633.9 -2.15553 4.80463 0
M  V30 16761 H 1636.39 -1.16979 3.59339 0
M  V30 16762 H 1636.71 -1.78979 7.51789 0
M  V30 16763 H 1635.05 -1.61636 6.75943 0
M  V30 16764 H 1638.24 -1.36865 4.47644 0
M  V30 16765 H 1638.42 -1.6516 6.26599 0
M  V30 16766 N 1631.82 -1.45363 -0.608876 0
M  V30 16767 C 1632.75 -1.56778 -1.7304 0
M  V30 16768 C 1633.73 -0.419405 -1.64848 0
M  V30 16769 O 1634.92 -0.64238 -1.83268 0
M  V30 16770 C 1632.05 -1.5329 -3.1164 0
M  V30 16771 C 1631 -2.66832 -3.34641 0
M  V30 16772 C 1630.33 -2.48398 -4.735 0
M  V30 16773 C 1631.63 -4.0885 -3.25021 0
M  V30 16774 H 1633.32 -2.50656 -1.63743 0
M  V30 16775 H 1630.87 -1.20635 -0.786338 0
M  V30 16776 H 1632.82 -1.59873 -3.89895 0
M  V30 16777 H 1631.55 -0.559414 -3.21773 0
M  V30 16778 H 1630.2 -2.59675 -2.58775 0
M  V30 16779 H 1629.85 -1.49191 -4.80366 0
M  V30 16780 H 1629.55 -3.24537 -4.89846 0
M  V30 16781 H 1631.08 -2.56833 -5.53958 0
M  V30 16782 H 1632.49 -4.17257 -3.93153 0
M  V30 16783 H 1630.89 -4.85369 -3.52897 0
M  V30 16784 H 1631.96 -4.30849 -2.2248 0
M  V30 16785 N 1633.3 0.851265 -1.32632 0
M  V30 16786 C 1634.26 1.94168 -1.21785 0
M  V30 16787 C 1635.26 1.60189 -0.140023 0
M  V30 16788 O 1636.45 1.69763 -0.390671 0
M  V30 16789 C 1633.59 3.29513 -0.873717 0
M  V30 16790 H 1634.78 2.05214 -2.18695 0
M  V30 16791 H 1632.33 1.04186 -1.16512 0
M  V30 16792 H 1633.07 3.24165 0.0934202 0
M  V30 16793 H 1632.85 3.55552 -1.65302 0
M  V30 16794 H 1634.34 4.09425 -0.822231 0
M  V30 16795 N 1634.78 1.15898 1.06796 0
M  V30 16796 C 1635.74 0.863427 2.12315 0
M  V30 16797 C 1636.74 -0.139326 1.60195 0
M  V30 16798 O 1637.93 0.0909705 1.73962 0
M  V30 16799 C 1635.06 0.290251 3.39662 0
M  V30 16800 H 1636.26 1.79879 2.39966 0
M  V30 16801 H 1633.81 0.967223 1.22778 0
M  V30 16802 H 1634.54 -0.653037 3.17657 0
M  V30 16803 H 1634.33 1.01273 3.78796 0
M  V30 16804 H 1635.82 0.10124 4.17477 0
M  V30 16805 N 1636.26 -1.25243 0.956659 0
M  V30 16806 C 1637.19 -2.25019 0.435795 0
M  V30 16807 C 1638.2 -1.56473 -0.449435 0
M  V30 16808 O 1639.39 -1.76635 -0.257386 0
M  V30 16809 C 1636.49 -3.36634 -0.391226 0
M  V30 16810 C 1635.66 -4.34742 0.481483 0
M  V30 16811 C 1634.72 -5.25413 -0.287678 0
M  V30 16812 O 1633.75 -5.6833 0.314618 0
M  V30 16813 N 1634.95 -5.58578 -1.58023 0
M  V30 16814 H 1637.72 -2.70344 1.2936 0
M  V30 16815 H 1635.28 -1.3917 0.827245 0
M  V30 16816 H 1637.27 -3.94254 -0.913552 0
M  V30 16817 H 1635.84 -2.90682 -1.14991 0
M  V30 16818 H 1635.06 -3.75971 1.18489 0
M  V30 16819 H 1636.35 -4.97269 1.07707 0
M  V30 16820 H 1635.74 -5.25618 -2.09146 0
M  V30 16821 H 1634.3 -6.18774 -2.04848 0
M  V30 16822 N 1637.73 -0.725468 -1.3991 0
M  V30 16823 C 1638.98 -0.268719 -2.00306 0
M  V30 16824 C 1639.3 1.14511 -1.57836 0
M  V30 16825 O 1638.57 1.77808 -0.822263 0
M  V30 16826 H 1637.15 -0.0963614 -0.740759 0
M  V30 16827 H 1639.82 -0.933303 -1.71101 0
M  V30 16828 H 1638.91 -0.309587 -3.10561 0
M  V30 16829 N 1639.21 1.50354 -0.472382 0
M  V30 16830 C 1640.16 2.28555 0.321118 0
M  V30 16831 C 1641.13 1.33665 0.98605 0
M  V30 16832 O 1642.31 1.62603 0.998239 0
M  V30 16833 C 1639.45 3.15586 1.39641 0
M  V30 16834 C 1638.57 4.25508 0.746129 0
M  V30 16835 C 1637.7 4.99794 1.79943 0
M  V30 16836 C 1636.74 6.01589 1.12946 0
M  V30 16837 N 1635.88 6.69149 2.12567 0
M  V30 16838 H 1640.72 2.95913 -0.352051 0
M  V30 16839 H 1638.26 1.45926 -0.185461 0
M  V30 16840 H 1640.21 3.64397 2.03152 0
M  V30 16841 H 1638.84 2.50271 2.03873 0
M  V30 16842 H 1637.9 3.804 -0.00157718 0
M  V30 16843 H 1639.21 4.98326 0.217335 0
M  V30 16844 H 1638.36 5.5233 2.51031 0
M  V30 16845 H 1637.1 4.26684 2.36203 0
M  V30 16846 H 1636.11 5.48312 0.404207 0
M  V30 16847 H 1637.33 6.76672 0.573735 0
M  V30 16848 H 1635.28 5.9883 2.67841 0
M  V30 16849 H 1635.19 7.37847 1.64676 0
M  V30 16850 H 1636.46 7.26301 2.83031 0
M  V30 16851 N 1640.69 0.205039 1.56261 0
M  V30 16852 C 1641.64 -0.728433 2.209 0
M  V30 16853 C 1642.63 -1.21228 1.18322 0
M  V30 16854 O 1643.84 -1.17402 1.36443 0
M  V30 16855 H 1640.21 -0.253283 0.708062 0
M  V30 16856 H 1642.19 -0.159654 2.97973 0
M  V30 16857 C 1640.93 -1.93311 2.89009 0
M  V30 16858 H 1640.26 -1.56988 3.67688 0
M  V30 16859 H 1641.7 -2.5644 3.3766 0
M  V30 16860 C 1640.16 -2.77814 1.9058 0
M  V30 16861 O 1640.69 -3.76053 1.41233 0
M  V30 16862 N 1638.89 -2.4351 1.58591 0
M  V30 16863 H 1638.44 -1.6368 1.98914 0
M  V30 16864 H 1638.4 -3.00333 0.929918 0
M  V30 16865 N 1642.17 -1.57451 -0.0684915 0
M  V30 16866 C 1643.58 -1.76107 -0.619932 0
M  V30 16867 C 1643.93 -0.830939 -1.77735 0
M  V30 16868 O 1643.06 -0.0158481 -2.16394 0
M  V30 16869 C 1643.65 -3.19352 -1.13136 0
M  V30 16870 C 1642.21 -3.39341 -1.62864 0
M  V30 16871 C 1641.36 -2.71801 -0.549477 0
M  V30 16872 H 1644.31 -1.57915 0.157689 0
M  V30 16873 H 1644.33 -3.23693 -2.00008 0
M  V30 16874 H 1643.84 -3.87024 -0.288762 0
M  V30 16875 H 1641.94 -2.76787 -2.49438 0
M  V30 16876 H 1642.06 -4.47799 -1.70331 0
M  V30 16877 H 1640.42 -2.34448 -0.995302 0
M  V30 16878 H 1641.2 -3.42132 0.282995 0
M  V30 16879 N 1643.65 0.339955 -1.5389 0
M  V30 16880 C 1644.89 1.07979 -1.71309 0
M  V30 16881 C 1645.22 1.88531 -0.478147 0
M  V30 16882 O 1644.48 1.88099 0.540113 0
M  V30 16883 C 1644.78 2.04572 -2.93062 0
M  V30 16884 C 1644.44 1.40303 -4.28516 0
M  V30 16885 C 1643.1 1.22505 -4.65345 0
M  V30 16886 C 1645.46 0.940364 -5.12647 0
M  V30 16887 C 1642.78 0.570639 -5.83918 0
M  V30 16888 C 1645.14 0.299844 -6.31889 0
M  V30 16889 C 1643.8 0.109575 -6.6741 0
M  V30 16890 H 1643.07 0.395125 -0.626863 0
M  V30 16891 H 1645.72 0.358686 -1.88111 0
M  V30 16892 H 1644.02 2.83077 -2.70878 0
M  V30 16893 H 1645.72 2.61816 -3.03733 0
M  V30 16894 H 1642.31 1.55155 -3.99531 0
M  V30 16895 H 1646.49 1.06571 -4.84723 0
M  V30 16896 H 1641.75 0.411872 -6.10011 0
M  V30 16897 H 1645.92 -0.0667391 -6.96368 0
M  V30 16898 H 1643.55 -0.399556 -7.59149 0
M  V30 16899 N 1645.13 1.45684 0.601159 0
M  V30 16900 C 1646.06 1.50861 1.7255 0
M  V30 16901 C 1647.07 0.398728 1.57842 0
M  V30 16902 O 1648.26 0.66613 1.65605 0
M  V30 16903 C 1645.36 1.35535 3.10618 0
M  V30 16904 C 1644.53 2.60313 3.51505 0
M  V30 16905 C 1643.59 2.39451 4.68561 0
M  V30 16906 O 1642.62 3.13094 4.75353 0
M  V30 16907 N 1643.82 1.44426 5.62247 0
M  V30 16908 H 1646.58 2.47799 1.6857 0
M  V30 16909 H 1644.15 1.41505 0.786626 0
M  V30 16910 H 1646.14 1.19379 3.86692 0
M  V30 16911 H 1644.71 0.468492 3.09069 0
M  V30 16912 H 1643.93 2.9154 2.65327 0
M  V30 16913 H 1645.22 3.43242 3.75583 0
M  V30 16914 H 1644.61 0.836624 5.59479 0
M  V30 16915 H 1643.17 1.34239 6.37827 0
M  V30 16916 N 1646.6 -0.84422 1.33082 0
M  V30 16917 C 1647.53 -1.96899 1.25511 0
M  V30 16918 C 1648.51 -1.69549 0.13677 0
M  V30 16919 O 1649.7 -1.9145 0.325667 0
M  V30 16920 C 1646.83 -3.32947 0.988094 0
M  V30 16921 C 1645.78 -3.7468 2.06879 0
M  V30 16922 C 1645.11 -5.08475 1.65401 0
M  V30 16923 C 1646.41 -3.89033 3.48498 0
M  V30 16924 H 1648.1 -2.03491 2.19617 0
M  V30 16925 H 1645.65 -0.977659 1.05725 0
M  V30 16926 H 1647.6 -4.11198 0.921645 0
M  V30 16927 H 1646.33 -3.26598 0.0114067 0
M  V30 16928 H 1644.99 -2.98689 2.12557 0
M  V30 16929 H 1644.63 -4.98592 0.66449 0
M  V30 16930 H 1644.33 -5.37368 2.37717 0
M  V30 16931 H 1645.86 -5.89207 1.60212 0
M  V30 16932 H 1647.27 -4.57609 3.4535 0
M  V30 16933 H 1645.67 -4.29357 4.19253 0
M  V30 16934 H 1646.74 -2.91639 3.87395 0
M  V30 16935 N 1648.08 -1.16463 -1.0618 0
M  V30 16936 C 1649.36 -0.857038 -1.75824 0
M  V30 16937 C 1649.74 0.644886 -2.01009 0
M  V30 16938 O 1649.09 1.59305 -1.63812 0
M  V30 16939 C 1649.3 -1.681 -3.05849 0
M  V30 16940 C 1650.64 -1.8947 -3.79982 0
M  V30 16941 O 1651.67 -1.64975 -3.15692 0
M  V30 16942 O 1650.53 -2.30573 -4.95478 0
M  V30 16943 H 1647.62 -0.316364 -0.764096 0
M  V30 16944 H 1650.17 -1.27105 -1.12438 0
M  V30 16945 H 1648.94 -2.70014 -2.8321 0
M  V30 16946 H 1648.56 -1.2641 -3.7697 0
M  V30 16947 N 1649.56 1.24734 -0.963288 0
M  V30 16948 C 1650.78 1.97285 -0.639808 0
M  V30 16949 C 1651.21 1.71024 0.783099 0
M  V30 16950 O 1650.57 0.971324 1.53085 0
M  V30 16951 C 1650.62 3.48793 -0.915197 0
M  V30 16952 O 1649.72 4.124 0.00162805 0
M  V30 16953 H 1649.06 0.618196 -0.242343 0
M  V30 16954 H 1651.59 1.58627 -1.29224 0
M  V30 16955 H 1651.6 3.99155 -0.84495 0
M  V30 16956 H 1650.28 3.67235 -1.95221 0
M  V30 16957 H 1648.85 3.72702 -0.121563 0
M  V30 16958 N 1651.04 0.732878 1.39523 0
M  V30 16959 C 1651.98 0.0915149 2.30618 0
M  V30 16960 C 1652.95 -0.731943 1.49103 0
M  V30 16961 O 1654.14 -0.692343 1.77796 0
M  V30 16962 C 1651.28 -0.811387 3.35426 0
M  V30 16963 C 1650.39 0.0244578 4.31993 0
M  V30 16964 C 1649.53 -0.879521 5.23868 0
M  V30 16965 C 1648.57 -0.0387974 6.12088 0
M  V30 16966 N 1647.7 -0.898593 6.96326 0
M  V30 16967 H 1652.54 0.87399 2.84895 0
M  V30 16968 H 1650.08 0.442659 1.40282 0
M  V30 16969 H 1652.04 -1.3493 3.94778 0
M  V30 16970 H 1650.67 -1.55986 2.8261 0
M  V30 16971 H 1649.72 0.679762 3.74277 0
M  V30 16972 H 1651.03 0.674606 4.94217 0
M  V30 16973 H 1650.19 -1.48535 5.88237 0
M  V30 16974 H 1648.93 -1.56345 4.6196 0
M  V30 16975 H 1647.93 0.579847 5.46734 0
M  V30 16976 H 1649.16 0.641887 6.7606 0
M  V30 16977 H 1647.1 -1.56786 6.36988 0
M  V30 16978 H 1647.02 -0.304876 7.55385 0
M  V30 16979 H 1648.29 -1.49005 7.65126 0
M  V30 16980 N 1652.52 -1.50101 0.480349 0
M  V30 16981 C 1653.48 -2.27258 -0.297763 0
M  V30 16982 C 1654.48 -1.32415 -0.912296 0
M  V30 16983 O 1655.67 -1.5576 -0.780035 0
M  V30 16984 C 1652.8 -3.09684 -1.42508 0
M  V30 16985 H 1653.99 -2.97495 0.379011 0
M  V30 16986 H 1651.55 -1.54528 0.234681 0
M  V30 16987 H 1652.28 -2.43964 -2.13663 0
M  V30 16988 H 1652.07 -3.79393 -0.990125 0
M  V30 16989 H 1653.56 -3.68013 -1.97374 0
M  V30 16990 N 1653.99 -0.213323 -1.5615 0
M  V30 16991 C 1655.4 0.29602 -1.84338 0
M  V30 16992 C 1655.76 1.60073 -1.13451 0
M  V30 16993 O 1654.88 2.12645 -0.4014 0
M  V30 16994 C 1655.48 0.54387 -3.34406 0
M  V30 16995 C 1654.03 0.997539 -3.62941 0
M  V30 16996 C 1653.18 0.0560823 -2.77243 0
M  V30 16997 H 1656.13 -0.436707 -1.52573 0
M  V30 16998 H 1656.15 1.39093 -3.54166 0
M  V30 16999 H 1655.67 -0.405885 -3.85972 0
M  V30 17000 H 1653.77 1.96094 -3.16825 0
M  V30 17001 H 1653.88 0.877642 -4.70993 0
M  V30 17002 H 1652.24 0.561362 -2.48437 0
M  V30 17003 H 1653.03 -0.888442 -3.31605 0
M  V30 17004 N 1655.47 1.57485 0.0601405 0
M  V30 17005 C 1656.75 1.78904 0.790732 0
M  V30 17006 C 1657.13 0.803802 1.95198 0
M  V30 17007 O 1656.48 -0.16067 2.27934 0
M  V30 17008 C 1656.69 3.25738 1.25282 0
M  V30 17009 C 1658.04 3.89887 1.68147 0
M  V30 17010 O 1659.06 3.297 1.3482 0
M  V30 17011 O 1657.92 4.95796 2.29889 0
M  V30 17012 H 1655.01 0.734623 0.379814 0
M  V30 17013 H 1657.56 1.69654 0.0393151 0
M  V30 17014 H 1656.33 3.89013 0.422442 0
M  V30 17015 H 1655.95 3.39757 2.06521 0
M  V30 17016 N 1656.95 -0.331789 1.54068 0
M  V30 17017 C 1658.2 -1.06858 1.71539 0
M  V30 17018 C 1658.52 -1.88808 0.487506 0
M  V30 17019 O 1657.79 -1.8945 -0.498539 0
M  V30 17020 H 1656.37 -0.3975 0.632457 0
M  V30 17021 H 1659.03 -0.370216 1.91352 0
M  V30 17022 H 1658.13 -1.73929 2.59143 0
M  V30 17023 N 1658.43 -1.46001 -0.593424 0
M  V30 17024 C 1659.65 -1.54541 -1.38318 0
M  V30 17025 C 1660.08 -0.183555 -1.87202 0
M  V30 17026 O 1659.44 0.834407 -1.60958 0
M  V30 17027 C 1659.48 -2.54559 -2.55405 0
M  V30 17028 O 1658.59 -2.07321 -3.56499 0
M  V30 17029 H 1657.93 -0.520434 -0.412364 0
M  V30 17030 H 1660.46 -1.9148 -0.720862 0
M  V30 17031 H 1660.47 -2.73823 -3.02465 0
M  V30 17032 H 1659.14 -3.53461 -2.19176 0
M  V30 17033 H 1657.72 -1.97997 -3.15993 0
M  V30 17034 N 1659.91 0.83715 -1.33527 0
M  V30 17035 C 1661.15 1.59487 -1.25267 0
M  V30 17036 C 1661.49 1.93357 0.180741 0
M  V30 17037 O 1660.76 1.5884 1.12251 0
M  V30 17038 C 1661.04 2.90376 -2.12964 0
M  V30 17039 C 1660.9 2.63177 -3.64771 0
M  V30 17040 C 1662.22 3.9182 -2.00412 0
M  V30 17041 H 1659.33 0.578684 -0.456392 0
M  V30 17042 H 1661.98 0.965428 -1.63644 0
M  V30 17043 H 1660.13 3.44095 -1.80364 0
M  V30 17044 H 1661.8 2.15878 -4.0767 0
M  V30 17045 H 1660.04 1.96849 -3.86566 0
M  V30 17046 H 1660.71 3.56452 -4.21481 0
M  V30 17047 H 1663.19 3.47413 -2.29005 0
M  V30 17048 H 1662.06 4.81232 -2.64021 0
M  V30 17049 H 1662.33 4.31173 -0.976852 0
M  V30 17050 N 1661.38 1.17024 1.05561 0
M  V30 17051 C 1662.29 0.898107 2.16728 0
M  V30 17052 C 1663.31 -0.132369 1.73496 0
M  V30 17053 O 1664.49 0.0460203 2.01347 0
M  V30 17054 C 1661.55 0.411091 3.44254 0
M  V30 17055 C 1660.61 1.5077 4.01954 0
M  V30 17056 C 1659.85 1.04383 5.23393 0
M  V30 17057 O 1660.07 -0.10351 5.70306 0
M  V30 17058 O 1659 1.8353 5.73237 0
M  V30 17059 H 1662.83 1.82791 2.42531 0
M  V30 17060 H 1660.41 0.950816 1.15238 0
M  V30 17061 H 1662.3 0.146837 4.21144 0
M  V30 17062 H 1660.97 -0.490605 3.19961 0
M  V30 17063 H 1659.88 1.82579 3.26521 0
M  V30 17064 H 1661.21 2.38497 4.30558 0
M  V30 17065 N 1662.86 -1.24221 0.969889 0
M  V30 17066 C 1663.77 -2.29001 0.509467 0
M  V30 17067 C 1664.79 -1.68587 -0.430637 0
M  V30 17068 O 1665.96 -1.99106 -0.303142 0
M  V30 17069 C 1663.03 -3.46174 -0.190906 0
M  V30 17070 C 1662.09 -4.21982 0.789296 0
M  V30 17071 C 1661.32 -5.3356 0.122252 0
M  V30 17072 O 1661.55 -5.59909 -1.08896 0
M  V30 17073 O 1660.48 -5.9635 0.815517 0
M  V30 17074 H 1664.31 -2.70506 1.38058 0
M  V30 17075 H 1661.89 -1.29955 0.737028 0
M  V30 17076 H 1663.77 -4.1733 -0.584244 0
M  V30 17077 H 1662.45 -3.06642 -1.03695 0
M  V30 17078 H 1661.36 -3.53192 1.23313 0
M  V30 17079 H 1662.69 -4.65337 1.60382 0
M  V30 17080 N 1664.34 -0.740267 -1.39132 0
M  V30 17081 C 1665.59 -0.290523 -2.00405 0
M  V30 17082 C 1665.92 1.12383 -1.58746 0
M  V30 17083 O 1665.17 1.78148 -0.81005 0
M  V30 17084 C 1665.47 -0.346009 -3.55721 0
M  V30 17085 C 1665.14 -1.71412 -4.17048 0
M  V30 17086 C 1663.8 -2.08857 -4.33512 0
M  V30 17087 C 1666.15 -2.61216 -4.51016 0
M  V30 17088 C 1663.48 -3.35603 -4.81235 0
M  V30 17089 C 1665.83 -3.8734 -5.0015 0
M  V30 17090 C 1664.49 -4.2487 -5.14822 0
M  V30 17091 H 1663.76 -0.10631 -0.733334 0
M  V30 17092 H 1666.41 -0.948141 -1.66381 0
M  V30 17093 H 1664.72 0.395183 -3.89802 0
M  V30 17094 H 1666.41 0.020191 -4.00995 0
M  V30 17095 H 1663 -1.41301 -4.04638 0
M  V30 17096 H 1667.19 -2.33556 -4.3791 0
M  V30 17097 H 1662.44 -3.64617 -4.90779 0
M  V30 17098 H 1666.62 -4.57079 -5.25406 0
M  V30 17099 H 1664.24 -5.23147 -5.51562 0
M  V30 17100 N 1665.82 1.49844 -0.488302 0
M  V30 17101 C 1666.75 2.31737 0.286432 0
M  V30 17102 C 1667.73 1.39424 0.974418 0
M  V30 17103 O 1668.91 1.68339 0.968274 0
M  V30 17104 C 1666.04 3.19616 1.35878 0
M  V30 17105 C 1665 4.20619 0.791409 0
M  V30 17106 C 1664.32 4.9735 1.96333 0
M  V30 17107 C 1665.62 5.21882 -0.208975 0
M  V30 17108 H 1667.32 2.96755 -0.397092 0
M  V30 17109 H 1664.86 1.42709 -0.192413 0
M  V30 17110 H 1666.82 3.75711 1.90838 0
M  V30 17111 H 1665.54 2.52516 2.07131 0
M  V30 17112 H 1664.2 3.65651 0.263647 0
M  V30 17113 H 1663.85 4.26708 2.66325 0
M  V30 17114 H 1663.55 5.65684 1.58983 0
M  V30 17115 H 1665.07 5.56286 2.51751 0
M  V30 17116 H 1666.49 5.72746 0.252049 0
M  V30 17117 H 1664.88 5.98033 -0.497638 0
M  V30 17118 H 1665.95 4.7157 -1.12916 0
M  V30 17119 N 1667.3 0.221601 1.56034 0
M  V30 17120 C 1668.23 -0.728495 2.1626 0
M  V30 17121 C 1669.21 -1.19097 1.107 0
M  V30 17122 O 1670.39 -1.27371 1.38957 0
M  V30 17123 C 1667.52 -1.987 2.74292 0
M  V30 17124 C 1666.56 -1.66449 3.92679 0
M  V30 17125 S 1667.4 -0.78924 5.29652 0
M  V30 17126 C 1668.55 -2.05731 5.91122 0
M  V30 17127 H 1668.79 -0.216607 2.9651 0
M  V30 17128 H 1666.32 0.0062956 1.54399 0
M  V30 17129 H 1668.28 -2.70962 3.08366 0
M  V30 17130 H 1666.94 -2.47001 1.94034 0
M  V30 17131 H 1666.13 -2.59955 4.31786 0
M  V30 17132 H 1665.73 -1.0225 3.59751 0
M  V30 17133 H 1668.03 -3.00728 6.07099 0
M  V30 17134 H 1668.97 -1.71014 6.87139 0
M  V30 17135 H 1669.38 -2.19786 5.19956 0
M  V30 17136 N 1668.77 -1.57515 -0.0517878 0
M  V30 17137 C 1669.74 -2.04049 -1.04387 0
M  V30 17138 C 1670.74 -0.940745 -1.30409 0
M  V30 17139 O 1671.93 -1.20505 -1.25794 0
M  V30 17140 C 1669.06 -2.43816 -2.38257 0
M  V30 17141 H 1670.25 -2.9294 -0.642367 0
M  V30 17142 H 1667.81 -1.53432 -0.29805 0
M  V30 17143 H 1668.54 -1.58013 -2.832 0
M  V30 17144 H 1668.33 -3.24086 -2.20705 0
M  V30 17145 H 1669.82 -2.80325 -3.09528 0
M  V30 17146 N 1670.25 0.323614 -1.54242 0
M  V30 17147 C 1671.19 1.41936 -1.79963 0
M  V30 17148 C 1672.2 1.47845 -0.681604 0
M  V30 17149 O 1673.39 1.50569 -0.95871 0
M  V30 17150 C 1670.49 2.80472 -1.90233 0
M  V30 17151 C 1669.66 2.97768 -3.20395 0
M  V30 17152 C 1668.72 4.16664 -3.21368 0
M  V30 17153 O 1667.75 4.09827 -3.95007 0
M  V30 17154 N 1668.95 5.26196 -2.45148 0
M  V30 17155 H 1671.71 1.20235 -2.74524 0
M  V30 17156 H 1669.27 0.513599 -1.53538 0
M  V30 17157 H 1671.27 3.58219 -1.88312 0
M  V30 17158 H 1669.84 2.95224 -1.02769 0
M  V30 17159 H 1669.06 2.07322 -3.35278 0
M  V30 17160 H 1670.34 3.06219 -4.06334 0
M  V30 17161 H 1669.74 5.34626 -1.84909 0
M  V30 17162 H 1668.3 6.02362 -2.49004 0
M  V30 17163 N 1671.73 1.46313 0.585673 0
M  V30 17164 C 1672.68 1.57018 1.71604 0
M  V30 17165 C 1673.67 0.438838 1.63617 0
M  V30 17166 O 1674.88 0.615597 1.69146 0
M  V30 17167 H 1671.25 0.493616 0.567316 0
M  V30 17168 H 1673.23 2.52065 1.59706 0
M  V30 17169 C 1671.97 1.57482 3.09992 0
M  V30 17170 H 1671.3 2.43872 3.16806 0
M  V30 17171 H 1672.74 1.69027 3.88852 0
M  V30 17172 C 1671.2 0.302944 3.35535 0
M  V30 17173 O 1671.73 -0.608066 3.97071 0
M  V30 17174 N 1669.93 0.191781 2.89966 0
M  V30 17175 H 1669.48 0.934025 2.4007 0
M  V30 17176 H 1669.44 -0.658341 3.0743 0
M  V30 17177 N 1673.21 -0.830057 1.33969 0
M  V30 17178 C 1674.63 -1.12209 1.13496 0
M  V30 17179 C 1674.83 -2.01384 -0.0682972 0
M  V30 17180 O 1673.88 -2.4123 -0.745949 0
M  V30 17181 C 1675.19 -1.77568 2.42673 0
M  V30 17182 C 1676.74 -1.90095 2.48662 0
M  V30 17183 C 1677.22 -2.5887 3.77823 0
M  V30 17184 N 1678.71 -2.66375 3.78944 0
M  V30 17185 C 1679.44 -3.20301 4.75599 0
M  V30 17186 N 1678.94 -3.74846 5.82634 0
M  V30 17187 N 1680.73 -3.18636 4.63063 0
M  V30 17188 H 1672.88 -0.236752 2.11076 0
M  V30 17189 H 1675.15 -0.167572 0.933072 0
M  V30 17190 H 1674.85 -1.19505 3.30774 0
M  V30 17191 H 1674.73 -2.77505 2.55481 0
M  V30 17192 H 1677.11 -2.47308 1.61005 0
M  V30 17193 H 1677.19 -0.890808 2.39788 0
M  V30 17194 H 1676.84 -2.02313 4.65867 0
M  V30 17195 H 1676.77 -3.60373 3.83978 0
M  V30 17196 H 1679.26 -2.27705 3.01594 0
M  V30 17197 H 1679.57 -4.14224 6.52409 0
M  V30 17198 H 1677.92 -3.7311 5.86357 0
M  V30 17199 H 1681.11 -2.75286 3.78597 0
M  V30 17200 H 1681.28 -3.60359 5.38559 0
M  V30 17201 N 1674.69 -1.17582 -1.04939 0
M  V30 17202 C 1675.93 -0.965778 -1.77986 0
M  V30 17203 C 1676.26 0.505366 -1.8782 0
M  V30 17204 O 1675.52 1.39132 -1.37625 0
M  V30 17205 C 1675.82 -1.55507 -3.21796 0
M  V30 17206 C 1675.48 -3.05086 -3.32014 0
M  V30 17207 C 1674.14 -3.45914 -3.3451 0
M  V30 17208 C 1676.5 -4.01096 -3.32824 0
M  V30 17209 C 1673.82 -4.81344 -3.35447 0
M  V30 17210 C 1676.18 -5.3643 -3.353 0
M  V30 17211 C 1674.84 -5.76718 -3.36084 0
M  V30 17212 H 1674.11 -0.353403 -0.651297 0
M  V30 17213 H 1676.76 -1.46512 -1.23315 0
M  V30 17214 H 1675.06 -0.977509 -3.7941 0
M  V30 17215 H 1676.76 -1.36807 -3.76941 0
M  V30 17216 H 1673.35 -2.72541 -3.30786 0
M  V30 17217 H 1677.53 -3.7061 -3.30094 0
M  V30 17218 H 1672.79 -5.11868 -3.34366 0
M  V30 17219 H 1676.96 -6.106 -3.34874 0
M  V30 17220 H 1674.59 -6.81637 -3.36563 0
M  V30 17221 N 1676.17 1.23705 -0.976463 0
M  V30 17222 C 1677.13 2.23257 -0.518533 0
M  V30 17223 C 1678.13 1.56006 0.3897 0
M  V30 17224 O 1679.32 1.73226 0.18394 0
M  V30 17225 C 1676.45 3.39997 0.247916 0
M  V30 17226 H 1677.64 2.65284 -1.39872 0
M  V30 17227 H 1675.2 1.3647 -0.761946 0
M  V30 17228 H 1675.93 3.03421 1.14482 0
M  V30 17229 H 1675.72 3.90013 -0.403975 0
M  V30 17230 H 1677.21 4.13868 0.557034 0
M  V30 17231 N 1677.64 0.747635 1.38738 0
M  V30 17232 C 1678.89 0.301593 2.00545 0
M  V30 17233 C 1679.22 -1.11208 1.59205 0
M  V30 17234 O 1678.5 -1.76052 0.826806 0
M  V30 17235 C 1678.78 0.417739 3.57669 0
M  V30 17236 C 1678.63 1.87209 4.0899 0
M  V30 17237 C 1679.95 -0.192403 4.39679 0
M  V30 17238 H 1677.07 0.11106 0.728584 0
M  V30 17239 H 1679.71 0.946162 1.64766 0
M  V30 17240 H 1677.86 -0.131024 3.88279 0
M  V30 17241 H 1679.54 2.4787 3.89048 0
M  V30 17242 H 1677.78 2.38917 3.62079 0
M  V30 17243 H 1678.45 1.90455 5.18103 0
M  V30 17244 H 1680.93 0.27554 4.15187 0
M  V30 17245 H 1679.8 -0.0808605 5.4884 0
M  V30 17246 H 1680.06 -1.28 4.23165 0
M  V30 17247 N 1679.12 -1.49583 0.496242 0
M  V30 17248 C 1680.05 -2.31885 -0.274139 0
M  V30 17249 C 1681.03 -1.39939 -0.96701 0
M  V30 17250 O 1682.22 -1.6885 -0.959333 0
M  V30 17251 C 1679.35 -3.20332 -1.34181 0
M  V30 17252 C 1678.3 -4.21033 -0.769091 0
M  V30 17253 C 1677.63 -4.98385 -1.93693 0
M  V30 17254 C 1678.93 -5.21764 0.236648 0
M  V30 17255 H 1680.62 -2.9654 0.412824 0
M  V30 17256 H 1678.17 -1.42605 0.199979 0
M  V30 17257 H 1680.12 -3.76718 -1.88843 0
M  V30 17258 H 1678.84 -2.53611 -2.05789 0
M  V30 17259 H 1677.5 -3.65785 -0.244252 0
M  V30 17260 H 1677.15 -4.28115 -2.64058 0
M  V30 17261 H 1676.85 -5.66519 -1.55981 0
M  V30 17262 H 1678.38 -5.57613 -2.48798 0
M  V30 17263 H 1679.79 -5.72871 -0.221672 0
M  V30 17264 H 1678.19 -5.97761 0.529346 0
M  V30 17265 H 1679.26 -4.70964 1.15415 0
M  V30 17266 N 1680.6 -0.229873 -1.55915 0
M  V30 17267 C 1681.88 0.449007 -1.90377 0
M  V30 17268 C 1682.26 1.77133 -1.14835 0
M  V30 17269 O 1681.6 2.27012 -0.260328 0
M  V30 17270 C 1681.81 0.633805 -3.43197 0
M  V30 17271 C 1683.16 0.937453 -4.14122 0
M  V30 17272 O 1684.19 0.72029 -3.48841 0
M  V30 17273 O 1683.05 1.35005 -5.29562 0
M  V30 17274 H 1680.14 0.238557 -0.791846 0
M  V30 17275 H 1682.69 -0.272676 -1.67495 0
M  V30 17276 H 1681.46 -0.298587 -3.90159 0
M  V30 17277 H 1681.08 1.40667 -3.71885 0
M  V30 17278 N 1682.08 1.5754 0.0434337 0
M  V30 17279 C 1683.49 1.54537 0.398819 0
M  V30 17280 C 1683.69 0.954055 1.77483 0
M  V30 17281 O 1682.75 0.568839 2.46009 0
M  V30 17282 C 1684.06 2.99058 0.313848 0
M  V30 17283 C 1685.61 3.10536 0.39198 0
M  V30 17284 C 1686.09 4.56761 0.336614 0
M  V30 17285 N 1687.58 4.61505 0.395844 0
M  V30 17286 C 1688.31 5.72168 0.375669 0
M  V30 17287 N 1687.81 6.92112 0.30863 0
M  V30 17288 N 1689.6 5.60496 0.424335 0
M  V30 17289 H 1681.75 1.94333 -0.857225 0
M  V30 17290 H 1684.01 0.890708 -0.324566 0
M  V30 17291 H 1683.72 3.4599 -0.631159 0
M  V30 17292 H 1683.59 3.60402 1.11313 0
M  V30 17293 H 1685.98 2.6356 1.32742 0
M  V30 17294 H 1686.06 2.5205 -0.436391 0
M  V30 17295 H 1685.71 5.04402 -0.595093 0
M  V30 17296 H 1685.64 5.13142 1.1829 0
M  V30 17297 H 1688.13 3.75202 0.450753 0
M  V30 17298 H 1688.44 7.72225 0.29794 0
M  V30 17299 H 1686.79 6.94456 0.274891 0
M  V30 17300 H 1689.98 4.65688 0.474599 0
M  V30 17301 H 1690.15 6.46732 0.405143 0
M  V30 17302 N 1683.56 -0.31543 1.54411 0
M  V30 17303 C 1684.78 -1.0761 1.77299 0
M  V30 17304 C 1685.21 -1.80655 0.523963 0
M  V30 17305 O 1684.56 -1.73536 -0.524874 0
M  V30 17306 C 1684.61 -2.04355 2.97105 0
M  V30 17307 O 1683.72 -3.12401 2.69219 0
M  V30 17308 H 1683.06 -0.30986 0.587267 0
M  V30 17309 H 1685.59 -0.357246 2.01457 0
M  V30 17310 H 1685.6 -2.47081 3.24677 0
M  V30 17311 H 1684.27 -1.50592 3.87679 0
M  V30 17312 H 1682.85 -2.74294 2.52621 0
M  V30 17313 N 1685.03 -1.46622 -0.577906 0
M  V30 17314 C 1686.28 -1.52181 -1.33594 0
M  V30 17315 C 1686.61 -0.175484 -1.93707 0
M  V30 17316 O 1685.86 0.829407 -1.77255 0
M  V30 17317 C 1686.16 -2.57215 -2.48144 0
M  V30 17318 C 1685.83 -4.01095 -2.05993 0
M  V30 17319 C 1684.49 -4.40267 -1.94213 0
M  V30 17320 C 1686.84 -4.91459 -1.73543 0
M  V30 17321 C 1684.17 -5.67661 -1.48248 0
M  V30 17322 C 1686.52 -6.19296 -1.29055 0
M  V30 17323 C 1685.19 -6.57369 -1.15856 0
M  V30 17324 H 1684.46 -0.556868 -0.488855 0
M  V30 17325 H 1687.1 -1.80122 -0.65026 0
M  V30 17326 H 1685.41 -2.22952 -3.22179 0
M  V30 17327 H 1687.11 -2.58744 -3.06354 0
M  V30 17328 H 1683.7 -3.70134 -2.16098 0
M  V30 17329 H 1687.88 -4.61911 -1.81527 0
M  V30 17330 H 1683.14 -5.95928 -1.36676 0
M  V30 17331 H 1687.31 -6.88741 -1.03001 0
M  V30 17332 H 1684.94 -7.55977 -0.800148 0
M  V30 17333 N 1686.51 0.822941 -1.34408 0
M  V30 17334 C 1687.92 1.39571 -1.24003 0
M  V30 17335 C 1688.27 1.95739 0.134483 0
M  V30 17336 O 1687.4 1.90054 1.03481 0
M  V30 17337 C 1687.99 2.53726 -2.24519 0
M  V30 17338 C 1686.55 3.06911 -2.17905 0
M  V30 17339 C 1685.7 1.79783 -2.11124 0
M  V30 17340 H 1688.65 0.62734 -1.45774 0
M  V30 17341 H 1688.67 3.31818 -1.86217 0
M  V30 17342 H 1688.18 2.12816 -3.24547 0
M  V30 17343 H 1686.29 3.52326 -1.21233 0
M  V30 17344 H 1686.4 3.66003 -3.09158 0
M  V30 17345 H 1684.76 2.00679 -1.56845 0
M  V30 17346 H 1685.55 1.41047 -3.12987 0
M  V30 17347 N 1687.99 1.18137 1.04314 0
M  V30 17348 C 1688.9 0.921044 2.15764 0
M  V30 17349 C 1689.92 -0.11396 1.73626 0
M  V30 17350 O 1691.09 0.0673733 2.01287 0
M  V30 17351 C 1688.16 0.447581 3.43799 0
M  V30 17352 C 1687.22 1.55025 4.00332 0
M  V30 17353 C 1686.45 1.09928 5.22256 0
M  V30 17354 O 1686.67 -0.0430152 5.70384 0
M  V30 17355 O 1685.61 1.896 5.71258 0
M  V30 17356 H 1689.43 1.85353 2.40579 0
M  V30 17357 H 1687.02 0.962985 1.14223 0
M  V30 17358 H 1688.9 0.191497 4.20965 0
M  V30 17359 H 1687.58 -0.456641 3.20463 0
M  V30 17360 H 1686.48 1.86032 3.24566 0
M  V30 17361 H 1687.82 2.4305 4.28004 0
M  V30 17362 N 1689.47 -1.23186 0.98301 0
M  V30 17363 C 1690.75 -1.87121 0.569651 0
M  V30 17364 C 1691.13 -1.88355 -0.95319 0
M  V30 17365 O 1690.47 -1.36699 -1.831 0
M  V30 17366 C 1690.68 -3.28493 1.17871 0
M  V30 17367 C 1692.03 -4.05065 1.27308 0
M  V30 17368 O 1693.06 -3.37722 1.13236 0
M  V30 17369 O 1691.91 -5.2559 1.49723 0
M  V30 17370 H 1689.01 -0.804363 0.192171 0
M  V30 17371 H 1691.55 -1.31041 1.07826 0
M  V30 17372 H 1690.33 -3.22175 2.22078 0
M  V30 17373 H 1689.95 -3.92166 0.655087 0
M  V30 17374 N 1690.95 -0.754982 -1.38339 0
M  V30 17375 C 1691.91 -0.136457 -2.28793 0
M  V30 17376 C 1692.91 0.646016 -1.47252 0
M  V30 17377 O 1694.1 0.472077 -1.67681 0
M  V30 17378 C 1691.23 0.815058 -3.31013 0
M  V30 17379 H 1692.42 -0.933619 -2.84997 0
M  V30 17380 H 1689.98 -0.522082 -1.47323 0
M  V30 17381 H 1690.71 1.63785 -2.79902 0
M  V30 17382 H 1690.5 0.256363 -3.91261 0
M  V30 17383 H 1691.99 1.24378 -3.98648 0
M  V30 17384 N 1692.42 1.49318 -0.504168 0
M  V30 17385 C 1693.37 2.29185 0.272566 0
M  V30 17386 C 1694.34 1.35726 0.957476 0
M  V30 17387 O 1695.53 1.64684 0.963524 0
M  V30 17388 C 1692.67 3.18477 1.32916 0
M  V30 17389 C 1691.78 4.26995 0.655704 0
M  V30 17390 C 1690.91 5.03498 1.69301 0
M  V30 17391 C 1689.95 6.0385 1.0016 0
M  V30 17392 N 1689.09 6.73507 1.98325 0
M  V30 17393 H 1693.93 2.951 -0.41474 0
M  V30 17394 H 1691.47 1.455 -0.216372 0
M  V30 17395 H 1693.43 3.68624 1.95377 0
M  V30 17396 H 1692.06 2.54539 1.98519 0
M  V30 17397 H 1691.11 3.80311 -0.0822653 0
M  V30 17398 H 1692.42 4.98675 0.111584 0
M  V30 17399 H 1691.57 5.5753 2.39259 0
M  V30 17400 H 1690.31 4.31599 2.27099 0
M  V30 17401 H 1689.32 5.49046 0.287811 0
M  V30 17402 H 1690.54 6.77737 0.430073 0
M  V30 17403 H 1688.49 6.04376 2.55079 0
M  V30 17404 H 1688.41 7.41174 1.48988 0
M  V30 17405 H 1689.67 7.32141 2.67561 0
M  V30 17406 N 1693.9 0.238138 1.5579 0
M  V30 17407 C 1695.32 -0.116908 1.59171 0
M  V30 17408 C 1695.52 -1.57629 1.2552 0
M  V30 17409 O 1694.57 -2.31926 0.998332 0
M  V30 17410 C 1695.89 0.224366 2.99862 0
M  V30 17411 C 1697.44 0.16795 3.12549 0
M  V30 17412 C 1697.91 0.483132 4.55445 0
M  V30 17413 N 1699.4 0.43331 4.61169 0
M  V30 17414 C 1700.14 0.650461 5.69699 0
M  V30 17415 N 1699.63 0.930272 6.86526 0
M  V30 17416 N 1701.43 0.581764 5.59081 0
M  V30 17417 H 1693.58 1.18996 1.75936 0
M  V30 17418 H 1695.84 0.478169 0.818571 0
M  V30 17419 H 1695.55 1.23791 3.29194 0
M  V30 17420 H 1695.42 -0.452738 3.74473 0
M  V30 17421 H 1697.81 -0.836252 2.83003 0
M  V30 17422 H 1697.89 0.878776 2.40231 0
M  V30 17423 H 1697.53 1.48485 4.8571 0
M  V30 17424 H 1697.46 -0.249073 5.26011 0
M  V30 17425 H 1699.95 0.225412 3.77227 0
M  V30 17426 H 1700.27 1.08362 7.65165 0
M  V30 17427 H 1698.61 0.96765 6.88231 0
M  V30 17428 H 1701.8 0.363273 4.66688 0
M  V30 17429 H 1701.97 0.754398 6.43594 0
M  V30 17430 N 1695.38 -1.57561 -0.0350783 0
M  V30 17431 C 1696.31 -2.09201 -1.03716 0
M  V30 17432 C 1697.29 -0.993231 -1.3809 0
M  V30 17433 O 1698.48 -1.26812 -1.47079 0
M  V30 17434 C 1695.61 -2.56643 -2.3399 0
M  V30 17435 C 1694.56 -3.70731 -2.13874 0
M  V30 17436 C 1693.89 -4.04358 -3.49855 0
M  V30 17437 C 1695.19 -4.99393 -1.52982 0
M  V30 17438 H 1696.88 -2.93176 -0.60731 0
M  V30 17439 H 1694.43 -1.41036 -0.290683 0
M  V30 17440 H 1696.38 -2.9139 -3.04417 0
M  V30 17441 H 1695.1 -1.69744 -2.79024 0
M  V30 17442 H 1693.76 -3.36325 -1.45881 0
M  V30 17443 H 1693.41 -3.14534 -3.92527 0
M  V30 17444 H 1693.11 -4.81201 -3.37223 0
M  V30 17445 H 1694.63 -4.41633 -4.21654 0
M  V30 17446 H 1696.05 -5.32135 -2.13319 0
M  V30 17447 H 1694.45 -5.80807 -1.50943 0
M  V30 17448 H 1695.52 -4.82367 -0.494993 0
M  V30 17449 N 1696.86 0.307236 -1.54576 0
M  V30 17450 C 1698.27 0.652539 -1.45651 0
M  V30 17451 C 1698.47 1.90978 -0.64263 0
M  V30 17452 O 1697.53 2.52067 -0.147863 0
M  V30 17453 C 1698.84 0.811341 -2.89547 0
M  V30 17454 C 1700.39 0.90763 -2.99551 0
M  V30 17455 C 1700.87 1.09848 -4.44632 0
M  V30 17456 N 1702.36 1.16483 -4.48315 0
M  V30 17457 C 1703.09 1.33068 -5.57746 0
M  V30 17458 N 1702.59 1.46591 -6.77114 0
M  V30 17459 N 1704.38 1.35906 -5.45423 0
M  V30 17460 H 1696.53 -0.518891 -2.05964 0
M  V30 17461 H 1698.8 -0.170463 -0.932548 0
M  V30 17462 H 1698.5 -0.0414879 -3.51676 0
M  V30 17463 H 1698.38 1.70224 -3.36606 0
M  V30 17464 H 1700.76 1.75095 -2.37541 0
M  V30 17465 H 1700.84 -0.00715386 -2.55799 0
M  V30 17466 H 1700.49 0.259948 -5.07234 0
M  V30 17467 H 1700.42 2.02739 -4.86009 0
M  V30 17468 H 1702.91 1.07411 -3.62314 0
M  V30 17469 H 1703.22 1.58983 -7.5627 0
M  V30 17470 H 1701.57 1.43658 -6.79991 0
M  V30 17471 H 1704.76 1.24949 -4.51116 0
M  V30 17472 H 1704.93 1.48489 -6.30758 0
M  V30 17473 N 1698.34 1.46926 0.570122 0
M  V30 17474 C 1699.3 1.58009 1.6603 0
M  V30 17475 C 1700.3 0.456188 1.54193 0
M  V30 17476 O 1701.49 0.720879 1.58584 0
M  V30 17477 C 1698.62 1.51235 3.05517 0
M  V30 17478 H 1699.81 2.55178 1.57558 0
M  V30 17479 H 1697.37 1.34924 0.788998 0
M  V30 17480 H 1698.1 0.553929 3.19534 0
M  V30 17481 H 1697.89 2.3279 3.15518 0
M  V30 17482 H 1699.38 1.62101 3.84854 0
M  V30 17483 N 1699.82 -0.815801 1.34842 0
M  V30 17484 C 1700.75 -1.93493 1.22854 0
M  V30 17485 C 1701.76 -1.6207 0.15395 0
M  V30 17486 O 1702.95 -1.73811 0.406428 0
M  V30 17487 C 1700.05 -3.27622 0.867006 0
M  V30 17488 C 1699.22 -3.87017 2.03806 0
M  V30 17489 C 1698.28 -4.99536 1.65378 0
M  V30 17490 O 1697.31 -5.17453 2.37131 0
M  V30 17491 N 1698.51 -5.77674 0.572056 0
M  V30 17492 H 1701.27 -2.04307 2.19269 0
M  V30 17493 H 1698.84 -0.992752 1.27891 0
M  V30 17494 H 1700.83 -4.00353 0.59159 0
M  V30 17495 H 1699.4 -3.12599 -0.00717215 0
M  V30 17496 H 1698.62 -3.06592 2.4778 0
M  V30 17497 H 1699.91 -4.23431 2.82106 0
M  V30 17498 H 1699.3 -5.65695 -0.0242931 0
M  V30 17499 H 1697.86 -6.50825 0.356394 0
M  V30 17500 N 1701.29 -1.18689 -1.03686 0
M  V30 17501 C 1702.54 -0.98606 -1.77214 0
M  V30 17502 C 1702.87 0.482788 -1.88103 0
M  V30 17503 O 1702.15 1.3585 -1.39194 0
M  V30 17504 C 1702.43 -1.64611 -3.20274 0
M  V30 17505 C 1702.28 -3.18808 -3.17304 0
M  V30 17506 C 1703.6 -1.36251 -4.18478 0
M  V30 17507 H 1700.72 -0.359634 -0.643298 0
M  V30 17508 H 1703.36 -1.46412 -1.21094 0
M  V30 17509 H 1701.51 -1.23964 -3.68192 0
M  V30 17510 H 1703.19 -3.68615 -2.77346 0
M  V30 17511 H 1701.43 -3.50769 -2.55232 0
M  V30 17512 H 1702.1 -3.60131 -4.18341 0
M  V30 17513 H 1704.58 -1.71476 -3.79124 0
M  V30 17514 H 1703.45 -1.84997 -5.16786 0
M  V30 17515 H 1703.71 -0.286113 -4.41173 0
M  V30 17516 N 1702.77 1.22662 -0.989529 0
M  V30 17517 C 1703.73 2.22695 -0.542183 0
M  V30 17518 C 1704.73 1.56411 0.373132 0
M  V30 17519 O 1705.92 1.73412 0.165556 0
M  V30 17520 C 1703.06 3.40241 0.211841 0
M  V30 17521 H 1704.25 2.63786 -1.42678 0
M  V30 17522 H 1701.8 1.35654 -0.776377 0
M  V30 17523 H 1702.54 3.04618 1.11257 0
M  V30 17524 H 1702.32 3.89563 -0.445319 0
M  V30 17525 H 1703.81 4.14436 0.513107 0
M  V30 17526 N 1704.25 0.762308 1.37937 0
M  V30 17527 C 1705.2 0.115944 2.27705 0
M  V30 17528 C 1706.18 -0.684063 1.45634 0
M  V30 17529 O 1707.38 -0.548586 1.68284 0
M  V30 17530 C 1704.5 -0.76969 3.3456 0
M  V30 17531 C 1703.59 0.0376368 4.24083 0
M  V30 17532 N 1703.98 1.07849 4.94168 0
M  V30 17533 C 1702.28 -0.187824 4.45604 0
M  V30 17534 C 1702.98 1.56769 5.60177 0
M  V30 17535 N 1701.96 0.881477 5.36406 0
M  V30 17536 H 1705.76 0.912994 2.79359 0
M  V30 17537 H 1703.27 0.599168 1.50943 0
M  V30 17538 H 1705.27 -1.24844 3.97768 0
M  V30 17539 H 1703.93 -1.56559 2.84463 0
M  V30 17540 H 1704.94 1.46046 4.96881 0
M  V30 17541 H 1701.62 -0.95638 4.06398 0
M  V30 17542 H 1703.01 2.43517 6.26218 0
M  V30 17543 N 1705.73 -1.49049 0.51208 0
M  V30 17544 C 1706.64 -2.33102 -0.264695 0
M  V30 17545 C 1707.65 -1.45347 -0.956571 0
M  V30 17546 O 1708.83 -1.78355 -0.935501 0
M  V30 17547 C 1705.89 -3.21051 -1.30871 0
M  V30 17548 C 1704.96 -4.24666 -0.629094 0
M  V30 17549 C 1704.19 -5.08412 -1.62337 0
M  V30 17550 O 1704.41 -4.93847 -2.85432 0
M  V30 17551 O 1703.35 -5.90368 -1.17259 0
M  V30 17552 H 1707.17 -3.00732 0.423585 0
M  V30 17553 H 1704.76 -1.4688 0.273246 0
M  V30 17554 H 1706.64 -3.75503 -1.91248 0
M  V30 17555 H 1705.31 -2.56103 -1.97972 0
M  V30 17556 H 1704.22 -3.74097 0.0147056 0
M  V30 17557 H 1705.55 -4.922 -0.000339859 0
M  V30 17558 N 1707.21 -0.246397 -1.55662 0
M  V30 17559 C 1708.14 0.647563 -2.24341 0
M  V30 17560 C 1709.12 1.1817 -1.22352 0
M  V30 17561 O 1710.3 1.22114 -1.51003 0
M  V30 17562 C 1707.43 1.84485 -2.94249 0
M  V30 17563 C 1706.39 1.4435 -4.02923 0
M  V30 17564 C 1705.71 2.72158 -4.60255 0
M  V30 17565 C 1707.01 0.614951 -5.18667 0
M  V30 17566 H 1708.71 0.0748803 -2.99306 0
M  V30 17567 H 1706.25 0.034575 -1.43958 0
M  V30 17568 H 1708.2 2.47588 -3.40995 0
M  V30 17569 H 1706.93 2.4429 -2.16772 0
M  V30 17570 H 1705.59 0.835811 -3.56945 0
M  V30 17571 H 1705.24 3.3016 -3.79478 0
M  V30 17572 H 1704.94 2.46028 -5.33614 0
M  V30 17573 H 1706.46 3.36161 -5.09734 0
M  V30 17574 H 1707.87 1.15028 -5.61642 0
M  V30 17575 H 1706.27 0.449729 -5.98412 0
M  V30 17576 H 1707.34 -0.372943 -4.83464 0
M  V30 17577 N 1708.68 1.57577 0.026722 0
M  V30 17578 C 1709.96 1.80541 0.752606 0
M  V30 17579 C 1710.34 0.845025 1.93449 0
M  V30 17580 O 1709.69 -0.112286 2.28224 0
M  V30 17581 C 1709.9 3.28322 1.18345 0
M  V30 17582 C 1711.25 3.93366 1.59839 0
M  V30 17583 O 1712.27 3.32486 1.27796 0
M  V30 17584 O 1711.13 5.0056 2.19321 0
M  V30 17585 H 1708.22 0.742514 0.364146 0
M  V30 17586 H 1710.77 1.697 0.00332 0
M  V30 17587 H 1709.54 3.89822 0.339832 0
M  V30 17588 H 1709.16 3.44061 1.99267 0
M  V30 17589 N 1710.16 -0.299034 1.54737 0
M  V30 17590 C 1711.41 -1.03553 1.74369 0
M  V30 17591 C 1711.74 -1.86856 0.529019 0
M  V30 17592 O 1711.02 -1.8864 -0.473854 0
M  V30 17593 C 1711.3 -1.93988 3.03382 0
M  V30 17594 C 1711.15 -1.13852 4.35153 0
M  V30 17595 C 1712.47 -2.93128 3.28274 0
M  V30 17596 H 1709.59 -0.375055 0.634431 0
M  V30 17597 H 1712.23 -0.310018 1.87454 0
M  V30 17598 H 1710.38 -2.5585 2.92358 0
M  V30 17599 H 1712.05 -0.542614 4.58098 0
M  V30 17600 H 1710.3 -0.441278 4.3155 0
M  V30 17601 H 1710.97 -1.80385 5.21694 0
M  V30 17602 H 1713.44 -2.41396 3.38921 0
M  V30 17603 H 1712.32 -3.53569 4.19857 0
M  V30 17604 H 1712.58 -3.66892 2.46663 0
M  V30 17605 N 1711.64 -1.47227 -0.562322 0
M  V30 17606 C 1713.06 -1.32632 -0.887745 0
M  V30 17607 C 1713.26 -0.312972 -1.99055 0
M  V30 17608 O 1712.31 0.277309 -2.50973 0
M  V30 17609 C 1713.62 -2.71822 -1.28581 0
M  V30 17610 C 1715.17 -2.80068 -1.39753 0
M  V30 17611 C 1715.65 -4.19887 -1.82917 0
M  V30 17612 N 1717.14 -4.22404 -1.90077 0
M  V30 17613 C 1717.87 -5.27499 -2.24793 0
M  V30 17614 N 1717.37 -6.42904 -2.58159 0
M  V30 17615 N 1719.16 -5.14874 -2.25523 0
M  V30 17616 H 1711.31 -2.11752 0.165835 0
M  V30 17617 H 1713.58 -0.94793 0.0115238 0
M  V30 17618 H 1713.28 -3.47383 -0.549361 0
M  V30 17619 H 1713.16 -3.0326 -2.24306 0
M  V30 17620 H 1715.54 -2.04783 -2.1248 0
M  V30 17621 H 1715.62 -2.5229 -0.422286 0
M  V30 17622 H 1715.27 -4.95676 -1.10761 0
M  V30 17623 H 1715.2 -4.45086 -2.81436 0
M  V30 17624 H 1717.69 -3.39146 -1.66698 0
M  V30 17625 H 1718 -7.18857 -2.83662 0
M  V30 17626 H 1716.35 -6.46232 -2.55751 0
M  V30 17627 H 1719.54 -4.23745 -1.98892 0
M  V30 17628 H 1719.71 -5.96887 -2.5225 0
M  V30 17629 N 1713.12 0.808639 -1.35273 0
M  V30 17630 C 1714.36 1.56562 -1.28431 0
M  V30 17631 C 1714.69 1.93982 0.141842 0
M  V30 17632 O 1713.95 1.61409 1.10661 0
M  V30 17633 C 1714.25 2.86667 -2.1344 0
M  V30 17634 C 1713.91 2.68475 -3.6226 0
M  V30 17635 C 1712.57 2.63221 -4.02825 0
M  V30 17636 C 1714.93 2.51151 -4.56698 0
M  V30 17637 C 1712.25 2.38583 -5.35999 0
M  V30 17638 C 1714.61 2.28043 -5.90067 0
M  V30 17639 C 1713.27 2.2121 -6.2978 0
M  V30 17640 H 1712.54 0.572902 -0.469963 0
M  V30 17641 H 1715.19 0.934504 -1.6715 0
M  V30 17642 H 1713.49 3.54146 -1.67595 0
M  V30 17643 H 1715.19 3.44351 -2.05483 0
M  V30 17644 H 1711.78 2.7341 -3.30068 0
M  V30 17645 H 1715.96 2.54223 -4.26244 0
M  V30 17646 H 1711.22 2.31761 -5.65771 0
M  V30 17647 H 1715.39 2.13628 -6.62824 0
M  V30 17648 H 1713.02 2.01881 -7.32904 0
M  V30 17649 N 1714.6 1.19237 1.03055 0
M  V30 17650 C 1715.54 0.928588 2.11296 0
M  V30 17651 C 1716.51 -0.135941 1.65543 0
M  V30 17652 O 1717.7 0.00584847 1.90799 0
M  V30 17653 C 1714.84 0.471532 3.41863 0
M  V30 17654 C 1713.95 1.60264 4.01173 0
M  V30 17655 C 1713.09 1.09729 5.19743 0
M  V30 17656 C 1712.13 2.2024 5.71105 0
M  V30 17657 N 1711.26 1.71024 6.80952 0
M  V30 17658 H 1716.1 1.85536 2.33196 0
M  V30 17659 H 1713.64 0.925029 1.14375 0
M  V30 17660 H 1715.6 0.187949 4.16776 0
M  V30 17661 H 1714.23 -0.41825 3.20079 0
M  V30 17662 H 1713.28 2.00147 3.23489 0
M  V30 17663 H 1714.59 2.43531 4.35309 0
M  V30 17664 H 1713.75 0.768832 6.01809 0
M  V30 17665 H 1712.48 0.234324 4.87137 0
M  V30 17666 H 1711.49 2.53918 4.87653 0
M  V30 17667 H 1712.71 3.06989 6.05751 0
M  V30 17668 H 1710.66 0.870334 6.50201 0
M  V30 17669 H 1710.58 2.47882 7.14206 0
M  V30 17670 H 1711.85 1.41137 7.66616 0
M  V30 17671 N 1716.07 -1.22136 0.99602 0
M  V30 17672 C 1716.98 -2.27869 0.557927 0
M  V30 17673 C 1718 -1.69462 -0.394781 0
M  V30 17674 O 1719.18 -1.99704 -0.26084 0
M  V30 17675 C 1716.24 -3.46501 -0.117434 0
M  V30 17676 C 1715.3 -4.20213 0.878627 0
M  V30 17677 C 1714.54 -5.33181 0.2354 0
M  V30 17678 O 1714.76 -5.62093 -0.969954 0
M  V30 17679 O 1713.69 -5.94486 0.941828 0
M  V30 17680 H 1717.52 -2.67517 1.43765 0
M  V30 17681 H 1715.1 -1.28362 0.764428 0
M  V30 17682 H 1716.99 -4.18476 -0.49559 0
M  V30 17683 H 1715.66 -3.08772 -0.971674 0
M  V30 17684 H 1714.57 -3.50497 1.30777 0
M  V30 17685 H 1715.9 -4.6183 1.70217 0
M  V30 17686 N 1717.55 -0.769612 -1.37531 0
M  V30 17687 C 1718.48 -0.168389 -2.32892 0
M  V30 17688 C 1719.46 0.685549 -1.55673 0
M  V30 17689 O 1720.65 0.62345 -1.8392 0
M  V30 17690 C 1717.78 0.713183 -3.39898 0
M  V30 17691 C 1716.73 -0.0392808 -4.27982 0
M  V30 17692 C 1716.06 0.961596 -5.25982 0
M  V30 17693 C 1717.36 -1.21704 -5.07923 0
M  V30 17694 H 1719.05 -0.965022 -2.83421 0
M  V30 17695 H 1716.6 -0.465502 -1.36268 0
M  V30 17696 H 1718.55 1.14358 -4.05586 0
M  V30 17697 H 1717.28 1.54231 -2.87889 0
M  V30 17698 H 1715.93 -0.450429 -3.63822 0
M  V30 17699 H 1715.58 1.78522 -4.70254 0
M  V30 17700 H 1715.28 0.462679 -5.85776 0
M  V30 17701 H 1716.81 1.39097 -5.94545 0
M  V30 17702 H 1718.22 -0.863405 -5.66761 0
M  V30 17703 H 1716.62 -1.6479 -5.77031 0
M  V30 17704 H 1717.69 -2.02219 -4.40722 0
M  V30 17705 N 1719.03 1.48775 -0.519977 0
M  V30 17706 C 1719.94 2.33239 0.252329 0
M  V30 17707 C 1720.96 1.45852 0.948849 0
M  V30 17708 O 1722.13 1.78848 0.92603 0
M  V30 17709 C 1719.2 3.2174 1.29166 0
M  V30 17710 C 1718.26 4.24993 0.606564 0
M  V30 17711 C 1717.49 5.09266 1.59638 0
M  V30 17712 O 1717.71 4.95353 2.82809 0
M  V30 17713 O 1716.65 5.90981 1.14127 0
M  V30 17714 H 1720.47 3.00503 -0.439527 0
M  V30 17715 H 1718.06 1.46733 -0.281032 0
M  V30 17716 H 1719.94 3.76512 1.89254 0
M  V30 17717 H 1718.62 2.5715 1.96611 0
M  V30 17718 H 1717.52 3.74084 -0.0345447 0
M  V30 17719 H 1718.86 4.92193 -0.0257627 0
M  V30 17720 N 1720.51 0.254649 1.55529 0
M  V30 17721 C 1721.46 -0.655705 2.18368 0
M  V30 17722 C 1722.44 -1.13353 1.14192 0
M  V30 17723 O 1723.63 -1.08201 1.40077 0
M  V30 17724 C 1720.76 -1.84883 2.89263 0
M  V30 17725 C 1719.85 -1.38914 4.00704 0
M  V30 17726 N 1720.24 -0.6442 5.01681 0
M  V30 17727 C 1718.54 -1.67379 4.13401 0
M  V30 17728 C 1719.24 -0.405172 5.80287 0
M  V30 17729 N 1718.22 -0.971651 5.34846 0
M  V30 17730 H 1722.02 -0.0784898 2.93795 0
M  V30 17731 H 1719.53 0.0573 1.62299 0
M  V30 17732 H 1721.53 -2.51209 3.32716 0
M  V30 17733 H 1720.19 -2.43019 2.15341 0
M  V30 17734 H 1721.2 -0.293541 5.17067 0
M  V30 17735 H 1717.88 -2.26599 3.50656 0
M  V30 17736 H 1719.27 0.190059 6.71631 0
M  V30 17737 N 1721.99 -1.57589 -0.0183649 0
M  V30 17738 C 1722.92 -2.02659 -1.04903 0
M  V30 17739 C 1723.9 -0.912926 -1.34553 0
M  V30 17740 O 1725.08 -1.17961 -1.47029 0
M  V30 17741 C 1722.21 -2.40869 -2.38117 0
M  V30 17742 C 1721.25 -3.62785 -2.24253 0
M  V30 17743 S 1722.09 -5.11479 -1.58585 0
M  V30 17744 C 1723.24 -5.52942 -2.93268 0
M  V30 17745 H 1723.48 -2.89763 -0.665188 0
M  V30 17746 H 1721.01 -1.52697 -0.228676 0
M  V30 17747 H 1722.97 -2.63553 -3.14722 0
M  V30 17748 H 1721.63 -1.54197 -2.73646 0
M  V30 17749 H 1720.82 -3.87211 -3.2262 0
M  V30 17750 H 1720.42 -3.40007 -1.55792 0
M  V30 17751 H 1722.72 -5.5428 -3.8959 0
M  V30 17752 H 1723.66 -6.53123 -2.73563 0
M  V30 17753 H 1724.07 -4.80466 -2.96333 0
M  V30 17754 N 1723.46 0.290824 -1.54893 0
M  V30 17755 C 1724.43 1.34215 -1.85793 0
M  V30 17756 C 1725.43 1.43204 -0.731393 0
M  V30 17757 O 1726.62 1.42663 -0.999647 0
M  V30 17758 C 1723.75 2.72577 -2.0473 0
M  V30 17759 H 1724.94 1.08056 -2.79757 0
M  V30 17760 H 1722.5 0.528008 -1.47111 0
M  V30 17761 H 1723.23 3.03943 -1.13088 0
M  V30 17762 H 1723.02 2.67442 -2.86736 0
M  V30 17763 H 1724.51 3.48573 -2.29971 0
M  V30 17764 N 1724.94 1.47523 0.554506 0
M  V30 17765 C 1725.91 1.59761 1.64345 0
M  V30 17766 C 1726.91 0.472516 1.53701 0
M  V30 17767 O 1728.1 0.737659 1.57811 0
M  V30 17768 C 1725.23 1.54467 3.03896 0
M  V30 17769 H 1726.42 2.56834 1.54842 0
M  V30 17770 H 1723.97 1.35753 0.774643 0
M  V30 17771 H 1724.71 0.587789 3.18929 0
M  V30 17772 H 1724.49 2.36123 3.13031 0
M  V30 17773 H 1725.98 1.66174 3.83113 0
M  V30 17774 N 1726.42 -0.801453 1.357 0
M  V30 17775 C 1727.65 -1.59001 1.32386 0
M  V30 17776 C 1728.06 -1.88548 -0.0975432 0
M  V30 17777 O 1727.42 -1.49199 -1.05099 0
M  V30 17778 C 1727.47 -2.91822 2.13359 0
M  V30 17779 O 1727.19 -2.63554 3.49958 0
M  V30 17780 C 1728.69 -3.86169 2.17689 0
M  V30 17781 H 1725.91 -0.493557 0.45458 0
M  V30 17782 H 1728.46 -0.995616 1.78627 0
M  V30 17783 H 1726.61 -3.47763 1.70704 0
M  V30 17784 H 1727.03 -3.48397 3.92071 0
M  V30 17785 H 1728.5 -4.76461 2.78727 0
M  V30 17786 H 1728.98 -4.23134 1.17704 0
M  V30 17787 H 1729.58 -3.36163 2.60527 0
M  V30 17788 N 1727.9 -1.19782 -1.02421 0
M  V30 17789 C 1728.85 -0.936475 -2.12915 0
M  V30 17790 C 1729.84 0.10941 -1.69046 0
M  V30 17791 O 1731.05 -0.04026 -1.79955 0
M  V30 17792 H 1727.42 -0.285462 -0.695712 0
M  V30 17793 H 1729.39 -1.87485 -2.32146 0
M  V30 17794 C 1728.14 -0.496786 -3.44133 0
M  V30 17795 H 1727.46 -1.29314 -3.78309 0
M  V30 17796 H 1728.9 -0.353073 -4.22527 0
M  V30 17797 C 1727.36 0.789792 -3.27512 0
M  V30 17798 O 1727.89 1.85009 -3.56559 0
M  V30 17799 N 1726.1 0.748849 -2.80786 0
M  V30 17800 H 1725.65 -0.114256 -2.57346 0
M  V30 17801 H 1725.6 1.61005 -2.70046 0
M  V30 17802 N 1729.38 1.21606 -1.00248 0
M  V30 17803 C 1730.63 1.89922 -0.679152 0
M  V30 17804 C 1730.94 1.78793 0.793246 0
M  V30 17805 O 1732.15 2.42113 1.22856 0
M  V30 17806 C 1730.6 3.40548 -1.16427 0
M  V30 17807 C 1730.21 3.60293 -2.66257 0
M  V30 17808 C 1731.95 4.14506 -0.915714 0
M  V30 17809 C 1729.86 5.04669 -3.08323 0
M  V30 17810 H 1728.79 0.711232 -0.250329 0
M  V30 17811 H 1731.44 1.37663 -1.21331 0
M  V30 17812 H 1729.82 3.92046 -0.558177 0
M  V30 17813 H 1731 3.19245 -3.32294 0
M  V30 17814 H 1729.31 2.99683 -2.891 0
M  V30 17815 H 1731.91 5.20932 -1.20558 0
M  V30 17816 H 1732.25 4.16037 0.148068 0
M  V30 17817 H 1732.79 3.69064 -1.48448 0
M  V30 17818 H 1729.52 5.08284 -4.13917 0
M  V30 17819 H 1729.04 5.46583 -2.46996 0
M  V30 17820 H 1730.72 5.7316 -3.00162 0
M  V30 17821 N 1730.86 0.776895 1.37121 0
M  V30 17822 C 1732.1 0.343555 1.99564 0
M  V30 17823 C 1732.43 -1.08134 1.6167 0
M  V30 17824 O 1731.69 -1.75938 0.856998 0
M  V30 17825 C 1731.98 0.440201 3.54679 0
M  V30 17826 C 1731.65 1.82409 4.12356 0
M  V30 17827 C 1730.31 2.20277 4.27822 0
M  V30 17828 C 1732.66 2.73082 4.43932 0
M  V30 17829 C 1729.99 3.48244 4.72168 0
M  V30 17830 C 1732.34 4.00465 4.89705 0
M  V30 17831 C 1731.01 4.38371 5.03376 0
M  V30 17832 H 1730.28 0.125716 0.730258 0
M  V30 17833 H 1732.93 0.991921 1.63808 0
M  V30 17834 H 1731.23 -0.291695 3.90713 0
M  V30 17835 H 1732.93 0.0861328 4.00907 0
M  V30 17836 H 1729.52 1.5198 4.0075 0
M  V30 17837 H 1733.7 2.45085 4.31564 0
M  V30 17838 H 1728.96 3.77501 4.80939 0
M  V30 17839 H 1733.13 4.70849 5.13103 0
M  V30 17840 H 1730.76 5.37587 5.37498 0
M  V30 17841 N 1732.33 -1.48497 0.527859 0
M  V30 17842 C 1733.24 -2.3337 -0.239957 0
M  V30 17843 C 1734.26 -1.46353 -0.941101 0
M  V30 17844 O 1735.44 -1.79337 -0.916532 0
M  V30 17845 C 1732.5 -3.22421 -1.27458 0
M  V30 17846 C 1731.56 -4.25309 -0.584017 0
M  V30 17847 C 1730.79 -5.10105 -1.56935 0
M  V30 17848 O 1731.02 -4.96846 -2.80178 0
M  V30 17849 O 1729.95 -5.91578 -1.10991 0
M  V30 17850 H 1733.78 -3.00265 0.455458 0
M  V30 17851 H 1731.36 -1.46582 0.288809 0
M  V30 17852 H 1733.24 -3.7751 -1.87254 0
M  V30 17853 H 1731.92 -2.58189 -1.95244 0
M  V30 17854 H 1730.83 -3.7406 0.0543828 0
M  V30 17855 H 1732.16 -4.92173 0.0518646 0
M  V30 17856 N 1733.81 -0.262893 -1.55392 0
M  V30 17857 C 1735.04 0.363972 -2.04181 0
M  V30 17858 C 1735.46 1.49585 -1.14044 0
M  V30 17859 O 1734.82 1.80785 -0.136553 0
M  V30 17860 C 1734.87 0.834041 -3.50822 0
M  V30 17861 O 1733.97 1.94234 -3.63795 0
M  V30 17862 H 1733.31 0.0771193 -0.659506 0
M  V30 17863 H 1735.84 -0.393623 -2.00778 0
M  V30 17864 H 1735.85 1.13304 -3.91952 0
M  V30 17865 H 1734.53 0.00584833 -4.159 0
M  V30 17866 H 1733.1 1.64681 -3.34566 0
M  V30 17867 N 1735.29 1.57597 0.0100073 0
M  V30 17868 C 1736.54 1.90129 0.696935 0
M  V30 17869 C 1736.86 0.862514 1.7433 0
M  V30 17870 O 1736.12 -0.134054 1.9524 0
M  V30 17871 C 1736.42 3.29416 1.38635 0
M  V30 17872 C 1736.08 4.484 0.474144 0
M  V30 17873 C 1734.75 4.80683 0.222956 0
M  V30 17874 C 1737.1 5.20971 -0.154514 0
M  V30 17875 C 1734.43 5.82915 -0.665351 0
M  V30 17876 C 1736.78 6.24148 -1.03064 0
M  V30 17877 C 1735.44 6.54895 -1.2911 0
M  V30 17878 H 1734.71 0.695732 0.255027 0
M  V30 17879 H 1737.36 1.91451 -0.0433713 0
M  V30 17880 H 1735.66 3.24172 2.20045 0
M  V30 17881 H 1737.36 3.51843 1.92373 0
M  V30 17882 H 1733.95 4.2317 0.680087 0
M  V30 17883 H 1738.14 4.96293 0.0265512 0
M  V30 17884 H 1733.39 6.05103 -0.875259 0
M  V30 17885 H 1737.57 6.79516 -1.52417 0
M  V30 17886 H 1735.19 7.33931 -1.98113 0
M  V30 17887 N 1736.77 -0.282606 1.55045 0
M  V30 17888 C 1737.73 -1.33228 1.86502 0
M  V30 17889 C 1738.73 -1.42814 0.738977 0
M  V30 17890 O 1739.92 -1.42131 1.0072 0
M  V30 17891 C 1737.05 -2.71488 2.06173 0
M  V30 17892 H 1738.25 -1.06571 2.80326 0
M  V30 17893 H 1735.8 -0.520199 1.47389 0
M  V30 17894 H 1736.53 -3.03339 1.14699 0
M  V30 17895 H 1736.32 -2.65917 2.8815 0
M  V30 17896 H 1737.81 -3.47348 2.31817 0
M  V30 17897 N 1738.25 -1.47815 -0.546675 0
M  V30 17898 C 1739.66 -1.48715 -1.12875 0
M  V30 17899 C 1740.01 -0.247647 -1.94631 0
M  V30 17900 O 1739.13 0.646615 -2.06514 0
M  V30 17901 C 1739.73 -2.69459 -2.05371 0
M  V30 17902 C 1738.29 -2.73285 -2.58829 0
M  V30 17903 C 1737.43 -2.4198 -1.35429 0
M  V30 17904 H 1740.38 -1.55172 -0.332746 0
M  V30 17905 H 1740.41 -2.47028 -2.89408 0
M  V30 17906 H 1739.92 -3.59656 -1.4584 0
M  V30 17907 H 1738.02 -1.87254 -3.22128 0
M  V30 17908 H 1738.13 -3.74265 -2.99103 0
M  V30 17909 H 1736.5 -1.92783 -1.66454 0
M  V30 17910 H 1737.28 -3.34397 -0.776753 0
M  V30 17911 N 1739.72 0.794246 -1.36123 0
M  V30 17912 C 1740.69 1.88828 -1.2991 0
M  V30 17913 C 1741.69 1.59451 -0.207839 0
M  V30 17914 O 1742.88 1.67953 -0.462321 0
M  V30 17915 C 1740.01 3.25511 -1.01269 0
M  V30 17916 H 1741.2 1.95753 -2.27202 0
M  V30 17917 H 1738.75 0.991505 -1.20826 0
M  V30 17918 H 1739.49 3.2427 -0.0441535 0
M  V30 17919 H 1739.27 3.48221 -1.80234 0
M  V30 17920 H 1740.76 4.0557 -0.995142 0
M  V30 17921 N 1741.2 1.20323 1.01785 0
M  V30 17922 C 1742.45 1.01063 1.75016 0
M  V30 17923 C 1742.77 -0.458458 1.89534 0
M  V30 17924 O 1742.04 -1.3315 1.43694 0
M  V30 17925 H 1740.62 0.370957 0.648383 0
M  V30 17926 H 1743.28 1.51411 1.22722 0
M  V30 17927 H 1742.38 1.46792 2.75424 0
M  V30 17928 N 1742.68 -1.21073 1.00892 0
M  V30 17929 C 1743.93 -1.89866 0.69248 0
M  V30 17930 C 1744.25 -1.7874 -0.779562 0
M  V30 17931 O 1743.52 -1.18482 -1.56009 0
M  V30 17932 H 1742.1 -0.702799 0.253145 0
M  V30 17933 H 1744.76 -1.47075 1.27887 0
M  V30 17934 H 1743.86 -2.96673 0.969098 0
M  V30 17935 N 1744.16 -0.784156 -1.36707 0
M  V30 17936 C 1745.11 -0.177044 -2.3012 0
M  V30 17937 C 1746.08 0.6761 -1.51717 0
M  V30 17938 O 1747.26 0.625878 -1.80243 0
M  V30 17939 C 1744.4 0.686337 -3.38206 0
M  V30 17940 C 1743.51 -0.184772 -4.31605 0
M  V30 17941 C 1742.65 0.684485 -5.26772 0
M  V30 17942 C 1741.69 -0.188402 -6.1181 0
M  V30 17943 N 1740.82 0.639537 -6.99181 0
M  V30 17944 H 1745.66 -0.979125 -2.81455 0
M  V30 17945 H 1743.2 -0.494419 -1.38542 0
M  V30 17946 H 1745.16 1.20185 -3.99514 0
M  V30 17947 H 1743.79 1.4539 -2.88204 0
M  V30 17948 H 1742.84 -0.818204 -3.71496 0
M  V30 17949 H 1744.15 -0.857567 -4.91373 0
M  V30 17950 H 1743.31 1.26601 -5.93344 0
M  V30 17951 H 1742.05 1.39092 -4.67445 0
M  V30 17952 H 1741.05 -0.782364 -5.44205 0
M  V30 17953 H 1742.28 -0.89236 -6.73212 0
M  V30 17954 H 1740.22 1.33036 -6.42369 0
M  V30 17955 H 1740.14 0.0243097 -7.55996 0
M  V30 17956 H 1741.41 1.20505 -7.70129 0
M  V30 17957 N 1745.64 1.48215 -0.535727 0
M  V30 17958 C 1746.6 2.28206 0.213212 0
M  V30 17959 C 1747.6 1.3571 0.862522 0
M  V30 17960 O 1748.79 1.58547 0.721688 0
M  V30 17961 C 1745.92 3.1476 1.30917 0
M  V30 17962 H 1747.11 2.95884 -0.489163 0
M  V30 17963 H 1744.67 1.53551 -0.291872 0
M  V30 17964 H 1745.4 2.51726 2.04462 0
M  V30 17965 H 1745.19 3.82806 0.848633 0
M  V30 17966 H 1746.68 3.75085 1.83579 0
M  V30 17967 N 1747.11 0.27113 1.5525 0
M  V30 17968 C 1748.39 -0.398374 1.915 0
M  V30 17969 C 1748.77 -1.74026 1.19491 0
M  V30 17970 O 1748.12 -2.26242 0.320425 0
M  V30 17971 C 1748.33 -0.542589 3.44756 0
M  V30 17972 C 1749.68 -0.827326 4.16462 0
M  V30 17973 O 1750.7 -0.627548 3.50628 0
M  V30 17974 O 1749.56 -1.20917 5.32955 0
M  V30 17975 H 1746.65 -0.217479 0.797892 0
M  V30 17976 H 1749.2 0.316988 1.66713 0
M  V30 17977 H 1747.97 0.401926 3.8923 0
M  V30 17978 H 1747.6 -1.30757 3.75484 0
M  V30 17979 N 1748.59 -1.576 -0.00164943 0
M  V30 17980 C 1749.84 -1.9012 -0.685486 0
M  V30 17981 C 1750.16 -0.872245 -1.74404 0
M  V30 17982 O 1749.43 0.090572 -1.95691 0
M  V30 17983 H 1748.01 -0.701699 -0.256177 0
M  V30 17984 H 1750.67 -1.94861 0.0388866 0
M  V30 17985 H 1749.77 -2.89831 -1.15778 0
M  V30 17986 N 1750.07 0.274379 -1.55193 0
M  V30 17987 C 1751.3 1.02871 -1.8009 0
M  V30 17988 C 1751.72 1.79202 -0.571676 0
M  V30 17989 O 1751.08 1.74867 0.478679 0
M  V30 17990 C 1751.13 1.96406 -3.02418 0
M  V30 17991 O 1750.23 3.05154 -2.77408 0
M  V30 17992 H 1749.57 0.294181 -0.595276 0
M  V30 17993 H 1752.1 0.303708 -2.02333 0
M  V30 17994 H 1752.11 2.38385 -3.31114 0
M  V30 17995 H 1750.79 1.40261 -3.91535 0
M  V30 17996 H 1749.36 2.675 -2.59805 0
M  V30 17997 N 1751.55 1.48103 0.538828 0
M  V30 17998 C 1752.79 1.559 1.29704 0
M  V30 17999 C 1753.13 0.228359 1.92853 0
M  V30 18000 O 1752.4 -0.764825 1.78831 0
M  V30 18001 C 1752.69 2.69072 2.39316 0
M  V30 18002 C 1752.54 4.11812 1.80916 0
M  V30 18003 C 1753.86 2.78051 3.41138 0
M  V30 18004 H 1750.98 0.5675 0.470226 0
M  V30 18005 H 1753.62 1.80239 0.601163 0
M  V30 18006 H 1751.77 2.4845 2.98672 0
M  V30 18007 H 1753.44 4.4385 1.25679 0
M  V30 18008 H 1751.68 4.19227 1.11494 0
M  V30 18009 H 1752.35 4.86805 2.6024 0
M  V30 18010 H 1754.83 2.96707 2.91726 0
M  V30 18011 H 1753.71 3.58982 4.15239 0
M  V30 18012 H 1753.97 1.85849 4.01139 0
M  V30 18013 N 1753.03 -0.787016 1.36542 0
M  V30 18014 C 1754.3 -1.53325 1.21452 0
M  V30 18015 C 1754.68 -2.10166 -0.198313 0
M  V30 18016 O 1754.03 -1.94192 -1.20422 0
M  V30 18017 C 1754.24 -2.62629 2.29841 0
M  V30 18018 C 1755.59 -3.30446 2.66628 0
M  V30 18019 O 1756.61 -2.72914 2.28903 0
M  V30 18020 O 1755.47 -4.34424 3.31569 0
M  V30 18021 H 1752.57 -0.678361 0.473028 0
M  V30 18022 H 1755.11 -0.825292 1.4828 0
M  V30 18023 H 1753.88 -2.18639 3.24519 0
M  V30 18024 H 1753.51 -3.41042 2.04393 0
M  V30 18025 N 1754.5 -1.20861 -1.01145 0
M  V30 18026 C 1755.75 -1.02191 -1.74823 0
M  V30 18027 C 1756.08 0.445357 -1.89333 0
M  V30 18028 O 1755.33 1.34684 -1.41982 0
M  V30 18029 C 1755.63 -1.65666 -3.16685 0
M  V30 18030 C 1755.3 -3.15494 -3.2214 0
M  V30 18031 C 1753.96 -3.56381 -3.23336 0
M  V30 18032 C 1756.31 -4.11481 -3.19895 0
M  V30 18033 C 1753.64 -4.91772 -3.19964 0
M  V30 18034 C 1755.99 -5.46826 -3.18064 0
M  V30 18035 C 1754.66 -5.87118 -3.17566 0
M  V30 18036 H 1753.93 -0.373945 -0.639724 0
M  V30 18037 H 1756.57 -1.50361 -1.18592 0
M  V30 18038 H 1754.88 -1.09772 -3.76108 0
M  V30 18039 H 1756.58 -1.4873 -3.72398 0
M  V30 18040 H 1753.17 -2.82926 -3.21948 0
M  V30 18041 H 1757.35 -3.80924 -3.18136 0
M  V30 18042 H 1752.61 -5.22247 -3.17913 0
M  V30 18043 H 1756.78 -6.20945 -3.15279 0
M  V30 18044 H 1754.41 -6.92 -3.14707 0
M  V30 18045 N 1755.98 1.20536 -1.01532 0
M  V30 18046 C 1757.23 1.89496 -0.70254 0
M  V30 18047 C 1757.55 1.7915 0.770072 0
M  V30 18048 O 1756.82 1.19308 1.55379 0
M  V30 18049 H 1755.4 0.701447 -0.256868 0
M  V30 18050 H 1758.06 1.46394 -1.28665 0
M  V30 18051 H 1757.16 2.96155 -0.984817 0
M  V30 18052 N 1757.46 0.791395 1.36289 0
M  V30 18053 C 1758.37 0.192362 2.3381 0
M  V30 18054 C 1759.39 -0.656556 1.61138 0
M  V30 18055 O 1760.56 -0.571877 1.9311 0
M  V30 18056 C 1757.63 -0.661283 3.40335 0
M  V30 18057 C 1756.69 0.206361 4.28804 0
M  V30 18058 C 1755.92 -0.606636 5.30241 0
M  V30 18059 O 1756.14 -1.84247 5.39823 0
M  V30 18060 O 1755.08 -0.00549116 6.019 0
M  V30 18061 H 1758.9 0.998723 2.86809 0
M  V30 18062 H 1756.49 0.552889 1.38793 0
M  V30 18063 H 1758.37 -1.148 4.05461 0
M  V30 18064 H 1757.05 -1.4455 2.89632 0
M  V30 18065 H 1755.95 0.739877 3.66711 0
M  V30 18066 H 1757.29 0.954142 4.82863 0
M  V30 18067 N 1758.94 -1.47929 0.54358 0
M  V30 18068 C 1760.19 -2.02095 0.0144379 0
M  V30 18069 C 1760.51 -1.42166 -1.33469 0
M  V30 18070 O 1759.78 -0.591899 -1.86744 0
M  V30 18071 H 1758.36 -0.746996 0.00234858 0
M  V30 18072 H 1761.02 -1.81488 0.710498 0
M  V30 18073 H 1760.12 -3.11987 -0.0838074 0
M  V30 18074 N 1760.42 -0.27936 -1.55104 0
M  V30 18075 C 1761.38 0.593214 -2.2139 0
M  V30 18076 C 1762.38 1.07807 -1.19308 0
M  V30 18077 O 1763.57 0.97756 -1.44185 0
M  V30 18078 C 1760.7 1.81889 -2.88321 0
M  V30 18079 H 1761.9 0.0143941 -2.99897 0
M  V30 18080 H 1759.45 -0.0300083 -1.56271 0
M  V30 18081 H 1760.18 2.43811 -2.13838 0
M  V30 18082 H 1759.97 1.4791 -3.63132 0
M  V30 18083 H 1761.46 2.4393 -3.38951 0
M  V30 18084 N 1761.9 1.57599 -0.0067085 0
M  V30 18085 C 1762.81 2.1228 0.998709 0
M  V30 18086 C 1763.82 1.06964 1.37239 0
M  V30 18087 O 1765 1.38902 1.45836 0
M  V30 18088 C 1762.06 2.62076 2.26973 0
M  V30 18089 C 1761.12 3.8202 1.95855 0
M  V30 18090 C 1760.36 4.29431 3.16898 0
M  V30 18091 O 1760.58 3.76136 4.2881 0
M  V30 18092 O 1759.51 5.21518 3.00504 0
M  V30 18093 H 1763.34 2.9842 0.563849 0
M  V30 18094 H 1760.92 1.47881 0.212535 0
M  V30 18095 H 1762.81 2.94274 3.01631 0
M  V30 18096 H 1761.48 1.79031 2.69684 0
M  V30 18097 H 1760.39 3.54785 1.18653 0
M  V30 18098 H 1761.72 4.66159 1.57977 0
M  V30 18099 N 1763.37 -0.266145 1.55336 0
M  V30 18100 C 1764.62 -0.996831 1.76265 0
M  V30 18101 C 1764.95 -1.86035 0.567553 0
M  V30 18102 O 1764.2 -1.90462 -0.449754 0
M  V30 18103 C 1764.5 -1.90357 3.02488 0
M  V30 18104 C 1764.17 -1.19699 4.34722 0
M  V30 18105 C 1762.83 -1.00164 4.7066 0
M  V30 18106 C 1765.18 -0.694703 5.16549 0
M  V30 18107 C 1762.51 -0.291394 5.85976 0
M  V30 18108 C 1764.86 0.00198006 6.326 0
M  V30 18109 C 1763.53 0.20898 6.67173 0
M  V30 18110 H 1762.8 -0.364766 0.645001 0
M  V30 18111 H 1765.44 -0.268528 1.89608 0
M  V30 18112 H 1763.75 -2.69831 2.84075 0
M  V30 18113 H 1765.45 -2.47026 3.15878 0
M  V30 18114 H 1762.04 -1.35916 4.06479 0
M  V30 18115 H 1766.22 -0.833229 4.89256 0
M  V30 18116 H 1761.48 -0.120359 6.11282 0
M  V30 18117 H 1765.65 0.398909 6.95257 0
M  V30 18118 H 1763.28 0.761301 7.56378 0
M  V30 18119 N 1764.85 -1.48386 -0.530967 0
M  V30 18120 C 1766.09 -1.57951 -1.29734 0
M  V30 18121 C 1766.46 -0.247309 -1.90401 0
M  V30 18122 O 1767.66 -0.217934 -2.67915 0
M  V30 18123 C 1765.93 -2.68547 -2.35833 0
M  V30 18124 S 1767.49 -2.9787 -3.2221 0
M  V30 18125 H 1764.3 -0.55746 -0.441315 0
M  V30 18126 H 1766.91 -1.85903 -0.605005 0
M  V30 18127 H 1765.61 -3.63903 -1.89744 0
M  V30 18128 H 1765.14 -2.42493 -3.09775 0
M  V30 18129 H 1767.16 -2.37092 -4.35892 0
M  V30 18130 N 1766.33 0.779763 -1.36958 0
M  V30 18131 C 1767.56 1.56875 -1.34899 0
M  V30 18132 C 1767.97 1.88679 0.0675345 0
M  V30 18133 O 1767.33 1.50852 1.02712 0
M  V30 18134 C 1767.38 2.88391 -2.17975 0
M  V30 18135 O 1767.1 2.57954 -3.54107 0
M  V30 18136 C 1768.6 3.82657 -2.23805 0
M  V30 18137 H 1765.82 0.486262 -0.462374 0
M  V30 18138 H 1768.37 0.967072 -1.80189 0
M  V30 18139 H 1766.52 3.45003 -1.76215 0
M  V30 18140 H 1766.94 3.42115 -3.97564 0
M  V30 18141 H 1768.41 4.71967 -2.86272 0
M  V30 18142 H 1768.89 4.21208 -1.24421 0
M  V30 18143 H 1769.49 3.31976 -2.65843 0
M  V30 18144 N 1767.81 1.21396 1.00503 0
M  V30 18145 C 1769.22 0.971304 1.26641 0
M  V30 18146 C 1769.42 -0.342336 1.98571 0
M  V30 18147 O 1768.48 -1.068 2.28801 0
M  V30 18148 C 1769.79 2.16186 2.09008 0
M  V30 18149 C 1771.34 2.20411 2.22234 0
M  V30 18150 C 1771.82 3.38984 3.07983 0
M  V30 18151 N 1773.31 3.3907 3.15572 0
M  V30 18152 C 1774.04 4.27467 3.82177 0
M  V30 18153 N 1773.54 5.26062 4.50811 0
M  V30 18154 N 1775.33 4.15276 3.78817 0
M  V30 18155 H 1767.48 2.05875 0.522436 0
M  V30 18156 H 1769.74 0.901496 0.293272 0
M  V30 18157 H 1769.45 3.11383 1.63504 0
M  V30 18158 H 1769.32 2.15243 3.09758 0
M  V30 18159 H 1771.71 1.25769 2.66957 0
M  V30 18160 H 1771.79 2.25397 1.20954 0
M  V30 18161 H 1771.44 4.33919 2.63964 0
M  V30 18162 H 1771.37 3.31236 4.09378 0
M  V30 18163 H 1773.86 2.67718 2.66713 0
M  V30 18164 H 1774.17 5.89815 4.99338 0
M  V30 18165 H 1772.52 5.29987 4.49599 0
M  V30 18166 H 1775.71 3.37511 3.24351 0
M  V30 18167 H 1775.88 4.84375 4.30448 0
M  V30 18168 N 1769.29 -1.19996 1.0217 0
M  V30 18169 C 1770.56 -1.85214 0.628894 0
M  V30 18170 C 1770.94 -1.91292 -0.892784 0
M  V30 18171 O 1770.29 -1.42455 -1.78658 0
M  V30 18172 C 1770.5 -3.24576 1.28262 0
M  V30 18173 C 1771.85 -4.0081 1.4013 0
M  V30 18174 O 1772.87 -3.33948 1.23923 0
M  V30 18175 O 1771.73 -5.20561 1.66368 0
M  V30 18176 H 1768.83 -0.797842 0.217664 0
M  V30 18177 H 1771.37 -1.27544 1.1194 0
M  V30 18178 H 1770.14 -3.14947 2.32216 0
M  V30 18179 H 1769.77 -3.89884 0.77952 0
M  V30 18180 N 1770.76 -0.798611 -1.35867 0
M  V30 18181 C 1772.04 -0.298858 -1.93303 0
M  V30 18182 C 1772.42 1.21038 -1.72954 0
M  V30 18183 O 1771.77 2.00617 -1.09386 0
M  V30 18184 C 1771.98 -0.701532 -3.41876 0
M  V30 18185 C 1773.33 -0.686486 -4.19014 0
M  V30 18186 O 1774.35 -0.642577 -3.50356 0
M  V30 18187 O 1773.21 -0.737653 -5.41499 0
M  V30 18188 H 1770.3 -0.0762987 -0.823473 0
M  V30 18189 H 1772.85 -0.881773 -1.44993 0
M  V30 18190 H 1771.62 -1.74204 -3.50383 0
M  V30 18191 H 1771.24 -0.092994 -3.97491 0
M  V30 18192 N 1772.24 1.47639 -0.551417 0
M  V30 18193 C 1773.47 2.06878 -0.0298904 0
M  V30 18194 C 1773.88 1.40493 1.26123 0
M  V30 18195 O 1773.24 0.499513 1.75531 0
M  V30 18196 C 1773.29 3.61074 0.175449 0
M  V30 18197 O 1773.01 4.2497 -1.06454 0
M  V30 18198 C 1774.51 4.37166 0.734919 0
M  V30 18199 H 1771.73 0.669607 -0.0432142 0
M  V30 18200 H 1774.28 1.89726 -0.763178 0
M  V30 18201 H 1772.43 3.7776 0.858848 0
M  V30 18202 H 1772.85 5.17424 -0.858644 0
M  V30 18203 H 1774.32 5.45756 0.827915 0
M  V30 18204 H 1774.8 4.03052 1.74486 0
M  V30 18205 H 1775.4 4.2521 0.0874045 0
M  V30 18206 N 1773.72 0.287581 1.54954 0
M  V30 18207 C 1775.13 -0.207733 1.85541 0
M  V30 18208 C 1775.48 -1.54478 1.20959 0
M  V30 18209 O 1774.61 -2.10487 0.502399 0
M  V30 18210 C 1775.2 -0.383701 3.3662 0
M  V30 18211 C 1773.76 -0.82324 3.67287 0
M  V30 18212 C 1772.91 0.0762579 2.77195 0
M  V30 18213 H 1775.86 0.509004 1.50316 0
M  V30 18214 H 1775.88 -1.22036 3.60399 0
M  V30 18215 H 1775.39 0.589575 3.83596 0
M  V30 18216 H 1773.49 -1.80754 3.2582 0
M  V30 18217 H 1773.61 -0.651925 4.74644 0
M  V30 18218 H 1771.97 -0.44219 2.50832 0
M  V30 18219 H 1772.75 1.04564 3.26988 0
M  V30 18220 N 1775.2 -1.57593 0.0150662 0
M  V30 18221 C 1776.13 -2.04839 -1.0058 0
M  V30 18222 C 1777.11 -0.941261 -1.32586 0
M  V30 18223 O 1778.29 -1.21053 -1.44493 0
M  V30 18224 C 1775.42 -2.45866 -2.32954 0
M  V30 18225 C 1774.47 -3.6746 -2.16507 0
M  V30 18226 S 1775.3 -5.14728 -1.477 0
M  V30 18227 C 1776.46 -5.59038 -2.81473 0
M  V30 18228 H 1776.69 -2.91109 -0.603575 0
M  V30 18229 H 1774.22 -1.53148 -0.196235 0
M  V30 18230 H 1776.18 -2.7017 -3.09061 0
M  V30 18231 H 1774.84 -1.59967 -2.70313 0
M  V30 18232 H 1774.03 -3.93967 -3.14334 0
M  V30 18233 H 1773.64 -3.43235 -1.48545 0
M  V30 18234 H 1775.93 -5.62419 -3.77745 0
M  V30 18235 H 1776.87 -6.58778 -2.59648 0
M  V30 18236 H 1777.28 -4.86643 -2.86075 0
M  V30 18237 N 1776.68 0.257904 -1.55475 0
M  V30 18238 C 1777.61 1.34514 -1.8434 0
M  V30 18239 C 1778.59 1.46875 -0.697594 0
M  V30 18240 O 1779.77 1.63263 -0.942196 0
M  V30 18241 C 1776.9 2.71991 -2.01839 0
M  V30 18242 C 1775.94 2.76836 -3.24445 0
M  V30 18243 S 1776.78 2.34554 -4.81399 0
M  V30 18244 C 1777.93 3.73977 -5.01888 0
M  V30 18245 H 1778.17 1.09828 -2.7627 0
M  V30 18246 H 1775.7 0.458324 -1.47441 0
M  V30 18247 H 1777.66 3.51155 -2.12604 0
M  V30 18248 H 1776.32 2.9392 -1.10771 0
M  V30 18249 H 1775.51 3.77774 -3.33621 0
M  V30 18250 H 1775.11 2.05706 -3.12348 0
M  V30 18251 H 1777.41 4.69381 -4.88556 0
M  V30 18252 H 1778.35 3.69743 -6.03901 0
M  V30 18253 H 1778.76 3.6598 -4.29789 0
M  V30 18254 N 1778.15 1.48666 0.52309 0
M  V30 18255 C 1779.12 1.63211 1.60919 0
M  V30 18256 C 1780.12 0.505012 1.52664 0
M  V30 18257 O 1781.31 0.770967 1.56211 0
M  V30 18258 C 1778.44 1.60878 3.00551 0
M  V30 18259 H 1779.63 2.60061 1.4936 0
M  V30 18260 H 1777.19 1.37366 0.745674 0
M  V30 18261 H 1777.92 0.655306 3.1761 0
M  V30 18262 H 1777.71 2.4271 3.07952 0
M  V30 18263 H 1779.2 1.74263 3.79502 0
M  V30 18264 N 1779.63 -0.772489 1.37369 0
M  V30 18265 C 1781.05 -1.07294 1.18153 0
M  V30 18266 C 1781.25 -2.01493 0.0171782 0
M  V30 18267 O 1780.3 -2.44177 -0.642964 0
M  V30 18268 C 1781.62 -1.67116 2.49986 0
M  V30 18269 C 1783.17 -1.79377 2.56501 0
M  V30 18270 C 1783.64 -2.42612 3.88463 0
M  V30 18271 N 1785.13 -2.50063 3.89901 0
M  V30 18272 C 1785.87 -2.99841 4.88756 0
M  V30 18273 N 1785.36 -3.49798 5.98008 0
M  V30 18274 N 1787.16 -2.98709 4.76161 0
M  V30 18275 H 1779.31 -0.147014 2.11891 0
M  V30 18276 H 1781.57 -0.127846 0.93934 0
M  V30 18277 H 1781.28 -1.05369 3.35545 0
M  V30 18278 H 1781.15 -2.6642 2.67021 0
M  V30 18279 H 1783.54 -2.40257 1.71349 0
M  V30 18280 H 1783.62 -0.788304 2.4335 0
M  V30 18281 H 1783.26 -1.82372 4.74029 0
M  V30 18282 H 1783.19 -3.43763 3.98917 0
M  V30 18283 H 1785.68 -2.14709 3.1098 0
M  V30 18284 H 1786 -3.86181 6.69391 0
M  V30 18285 H 1784.34 -3.47905 6.01654 0
M  V30 18286 H 1787.53 -2.5898 3.89932 0
M  V30 18287 H 1787.7 -3.37193 5.53358 0
M  V30 18288 N 1781.11 -1.21927 -0.998575 0
M  V30 18289 C 1782.52 -1.03808 -1.5518 0
M  V30 18290 C 1782.87 0.400202 -1.92075 0
M  V30 18291 O 1782 1.28436 -1.74164 0
M  V30 18292 C 1782.59 -1.87814 -2.81978 0
M  V30 18293 C 1781.15 -1.74008 -3.33764 0
M  V30 18294 C 1780.3 -1.8463 -2.06899 0
M  V30 18295 H 1783.25 -1.35855 -0.820305 0
M  V30 18296 H 1783.27 -1.39219 -3.54116 0
M  V30 18297 H 1782.78 -2.92487 -2.55094 0
M  V30 18298 H 1780.88 -0.720445 -3.65569 0
M  V30 18299 H 1781 -2.56348 -4.0475 0
M  V30 18300 H 1779.36 -1.28007 -2.20196 0
M  V30 18301 H 1780.14 -2.90824 -1.82419 0
M  V30 18302 N 1782.59 1.19452 -1.02805 0
M  V30 18303 C 1783.87 1.84878 -0.638707 0
M  V30 18304 C 1784.25 1.91763 0.882627 0
M  V30 18305 O 1783.59 1.43401 1.779 0
M  V30 18306 C 1783.8 3.23891 -1.29982 0
M  V30 18307 C 1785.15 4.00061 -1.42254 0
M  V30 18308 O 1786.18 3.33286 -1.25693 0
M  V30 18309 O 1785.03 5.19671 -1.69127 0
M  V30 18310 H 1782.13 0.796676 -0.221892 0
M  V30 18311 H 1784.67 1.26949 -1.12615 0
M  V30 18312 H 1783.45 3.13711 -2.33883 0
M  V30 18313 H 1783.07 3.89465 -0.800186 0
M  V30 18314 N 1784.07 0.805805 1.35442 0
M  V30 18315 C 1785.29 0.397179 2.03561 0
M  V30 18316 C 1785.72 -0.983665 1.6033 0
M  V30 18317 O 1785.07 -1.63683 0.779586 0
M  V30 18318 C 1785.12 0.487813 3.57285 0
M  V30 18319 O 1784.23 -0.499039 4.09369 0
M  V30 18320 H 1783.57 0.166009 0.642913 0
M  V30 18321 H 1786.1 1.09147 1.73055 0
M  V30 18322 H 1786.11 0.357334 4.06432 0
M  V30 18323 H 1784.78 1.49501 3.88101 0
M  V30 18324 H 1783.36 -0.328864 3.71447 0
M  V30 18325 N 1785.54 -1.47344 0.559239 0
M  V30 18326 C 1786.79 -2.02068 0.035872 0
M  V30 18327 C 1787.11 -1.43573 -1.31953 0
M  V30 18328 O 1786.38 -0.611672 -1.86106 0
M  V30 18329 H 1784.96 -0.746929 0.0102713 0
M  V30 18330 H 1787.63 -1.80724 0.729707 0
M  V30 18331 H 1786.72 -3.12059 -0.0507123 0
M  V30 18332 N 1787.02 -0.295795 -1.54799 0
M  V30 18333 C 1787.93 0.592206 -2.27002 0
M  V30 18334 C 1788.95 1.1528 -1.30332 0
M  V30 18335 O 1790.12 1.1787 -1.63305 0
M  V30 18336 C 1787.19 1.75027 -2.99277 0
M  V30 18337 C 1786.25 1.22427 -4.11473 0
M  V30 18338 C 1785.48 2.32714 -4.80291 0
M  V30 18339 O 1785.71 3.52506 -4.48437 0
M  V30 18340 O 1784.64 1.997 -5.67806 0
M  V30 18341 H 1788.47 0.00666048 -3.03699 0
M  V30 18342 H 1786.05 -0.0624413 -1.49269 0
M  V30 18343 H 1787.93 2.42508 -3.44627 0
M  V30 18344 H 1786.61 2.32252 -2.25479 0
M  V30 18345 H 1785.52 0.515337 -3.70534 0
M  V30 18346 H 1786.85 0.697518 -4.87233 0
M  V30 18347 N 1788.5 1.57583 -0.0234236 0
M  V30 18348 C 1789.46 2.08797 0.945325 0
M  V30 18349 C 1790.46 1.00189 1.25773 0
M  V30 18350 O 1791.65 1.2637 1.19901 0
M  V30 18351 C 1788.79 2.54906 2.26353 0
M  V30 18352 H 1789.98 2.95671 0.50187 0
M  V30 18353 H 1787.53 1.54679 0.224507 0
M  V30 18354 H 1788.27 1.71345 2.75339 0
M  V30 18355 H 1788.05 3.34247 2.04991 0
M  V30 18356 H 1789.54 2.94774 2.95801 0
M  V30 18357 N 1789.98 -0.249655 1.5561 0
M  V30 18358 C 1791.22 -0.985467 1.79075 0
M  V30 18359 C 1791.58 -1.82629 0.592503 0
M  V30 18360 O 1792.78 -2.59366 0.705869 0
M  V30 18361 C 1791.06 -1.82549 3.07263 0
M  V30 18362 S 1792.61 -2.62078 3.51939 0
M  V30 18363 H 1789.43 -0.331525 0.628977 0
M  V30 18364 H 1792.03 -0.253591 1.93848 0
M  V30 18365 H 1790.74 -1.19744 3.92542 0
M  V30 18366 H 1790.27 -2.60017 2.9522 0
M  V30 18367 H 1792.28 -3.84983 3.13054 0
M  V30 18368 N 1791.46 -1.48941 -0.515198 0
M  V30 18369 C 1792.73 -1.48205 -1.27651 0
M  V30 18370 C 1793.11 -0.201866 -2.10133 0
M  V30 18371 O 1792.46 0.816115 -2.13429 0
M  V30 18372 C 1792.67 -2.75274 -2.14535 0
M  V30 18373 C 1794.02 -3.24198 -2.74192 0
M  V30 18374 O 1795.04 -2.76293 -2.24813 0
M  V30 18375 O 1793.9 -4.07593 -3.64047 0
M  V30 18376 H 1791 -0.592546 -0.576904 0
M  V30 18377 H 1793.54 -1.6119 -0.530636 0
M  V30 18378 H 1792.32 -3.59949 -1.53469 0
M  V30 18379 H 1791.94 -2.6508 -2.96342 0
M  V30 18380 N 1792.94 0.765193 -1.37777 0
M  V30 18381 C 1793.87 1.888 -1.29951 0
M  V30 18382 C 1794.88 1.61387 -0.213996 0
M  V30 18383 O 1796.07 1.72183 -0.470657 0
M  V30 18384 C 1793.17 3.24178 -0.988004 0
M  V30 18385 C 1792.34 3.79186 -2.18029 0
M  V30 18386 C 1791.4 4.93054 -1.83804 0
M  V30 18387 O 1790.43 5.08296 -2.56172 0
M  V30 18388 N 1791.63 5.75153 -0.786062 0
M  V30 18389 H 1794.39 1.96028 -2.267 0
M  V30 18390 H 1791.96 0.944602 -1.31487 0
M  V30 18391 H 1793.95 3.97881 -0.739771 0
M  V30 18392 H 1792.52 3.1241 -0.108852 0
M  V30 18393 H 1791.74 2.97185 -2.58988 0
M  V30 18394 H 1793.03 4.12669 -2.97627 0
M  V30 18395 H 1792.42 5.65395 -0.185678 0
M  V30 18396 H 1790.98 6.49054 -0.597697 0
M  V30 18397 N 1794.41 1.22455 0.992094 0
M  V30 18398 C 1795.36 0.992597 2.10357 0
M  V30 18399 C 1796.36 -0.0645514 1.69277 0
M  V30 18400 O 1797.56 0.0879577 1.79785 0
M  V30 18401 H 1793.94 0.303808 0.687899 0
M  V30 18402 H 1795.91 1.93574 2.27094 0
M  V30 18403 C 1794.66 0.587852 3.42695 0
M  V30 18404 H 1793.98 1.39298 3.74748 0
M  V30 18405 H 1795.42 0.464975 4.21443 0
M  V30 18406 C 1793.88 -0.702681 3.29491 0
M  V30 18407 O 1794.41 -1.7549 3.61339 0
M  V30 18408 N 1792.61 -0.674141 2.82672 0
M  V30 18409 H 1792.16 0.182446 2.56953 0
M  V30 18410 H 1792.12 -1.53789 2.7422 0
M  V30 18411 N 1795.89 -1.18905 1.03437 0
M  V30 18412 C 1797.31 -1.4075 0.752444 0
M  V30 18413 C 1797.51 -1.90361 -0.660679 0
M  V30 18414 O 1796.56 -2.08389 -1.42584 0
M  V30 18415 C 1797.88 -2.4138 1.79321 0
M  V30 18416 C 1799.42 -2.55118 1.81339 0
M  V30 18417 C 1799.9 -3.59007 2.8439 0
M  V30 18418 N 1801.39 -3.66508 2.83242 0
M  V30 18419 C 1802.13 -4.46602 3.59631 0
M  V30 18420 N 1801.62 -5.30355 4.45753 0
M  V30 18421 N 1803.41 -4.41304 3.48148 0
M  V30 18422 H 1795.57 -0.850259 1.94639 0
M  V30 18423 H 1797.83 -0.435962 0.841808 0
M  V30 18424 H 1797.53 -2.11963 2.80651 0
M  V30 18425 H 1797.41 -3.40636 1.62008 0
M  V30 18426 H 1799.8 -2.83856 0.806847 0
M  V30 18427 H 1799.88 -1.55996 2.02728 0
M  V30 18428 H 1799.52 -3.31011 3.8522 0
M  V30 18429 H 1799.45 -4.57792 2.60258 0
M  V30 18430 H 1801.94 -3.06697 2.20784 0
M  V30 18431 H 1802.25 -5.88603 5.00766 0
M  V30 18432 H 1800.6 -5.29797 4.49823 0
M  V30 18433 H 1803.79 -3.74918 2.80275 0
M  V30 18434 H 1803.96 -5.03483 4.07932 0
M  V30 18435 N 1797.37 -0.812977 -1.35013 0
M  V30 18436 C 1798.33 -0.233373 -2.28009 0
M  V30 18437 C 1799.33 0.58298 -1.4986 0
M  V30 18438 O 1800.52 0.400533 -1.69533 0
M  V30 18439 C 1797.65 0.673931 -3.34172 0
M  V30 18440 H 1798.85 -1.05366 -2.80781 0
M  V30 18441 H 1796.4 -0.584097 -1.44976 0
M  V30 18442 H 1797.14 1.51766 -2.86597 0
M  V30 18443 H 1796.92 0.0901848 -3.91996 0
M  V30 18444 H 1798.41 1.07358 -4.03564 0
M  V30 18445 N 1798.85 1.47045 -0.567045 0
M  V30 18446 C 1800.1 2.02046 -0.0465877 0
M  V30 18447 C 1800.42 1.44271 1.3119 0
M  V30 18448 O 1799.69 0.621533 1.85779 0
M  V30 18449 H 1798.27 0.746864 -0.0142323 0
M  V30 18450 H 1800.93 1.80335 -0.739281 0
M  V30 18451 H 1800.02 3.12081 0.0341623 0
M  V30 18452 N 1800.33 0.304 1.5464 0
M  V30 18453 C 1801.55 -0.306916 2.04611 0
M  V30 18454 C 1801.97 -1.4729 1.18114 0
M  V30 18455 O 1801.33 -1.81317 0.20743 0
M  V30 18456 C 1801.38 -0.760263 3.53415 0
M  V30 18457 O 1801.1 0.359321 4.36624 0
M  V30 18458 C 1802.6 -1.43602 4.19396 0
M  V30 18459 H 1799.82 -0.066247 0.667722 0
M  V30 18460 H 1802.36 0.444504 1.99611 0
M  V30 18461 H 1800.52 -1.4617 3.58766 0
M  V30 18462 H 1800.93 0.00582275 5.245 0
M  V30 18463 H 1802.41 -1.70436 5.25029 0
M  V30 18464 H 1802.88 -2.37705 3.69314 0
M  V30 18465 H 1803.49 -0.777683 4.18129 0
M  V30 18466 N 1801.8 -1.57568 0.0317802 0
M  V30 18467 C 1803.03 -1.9662 -0.659953 0
M  V30 18468 C 1803.45 -0.908334 -1.64715 0
M  V30 18469 O 1802.81 0.130491 -1.8083 0
M  V30 18470 C 1802.86 -3.34765 -1.34033 0
M  V30 18471 O 1801.96 -3.31317 -2.45566 0
M  V30 18472 H 1801.3 -0.641024 -0.17316 0
M  V30 18473 H 1803.83 -2.04382 0.0944231 0
M  V30 18474 H 1803.84 -3.71056 -1.69651 0
M  V30 18475 H 1802.52 -4.11302 -0.616716 0
M  V30 18476 H 1801.1 -3.06746 -2.1204 0
M  V30 18477 N 1803.28 0.241399 -1.5574 0
M  V30 18478 C 1804.19 1.32034 -1.93918 0
M  V30 18479 C 1805.21 1.52363 -0.840331 0
M  V30 18480 O 1806.38 1.65879 -1.1422 0
M  V30 18481 C 1803.45 2.6539 -2.2309 0
M  V30 18482 C 1802.51 2.53536 -3.46436 0
M  V30 18483 C 1801.74 3.80532 -3.74208 0
M  V30 18484 O 1801.97 4.82662 -3.03964 0
M  V30 18485 O 1800.9 3.78834 -4.67727 0
M  V30 18486 H 1804.73 1.02647 -2.85827 0
M  V30 18487 H 1802.31 0.442616 -1.42693 0
M  V30 18488 H 1804.19 3.44184 -2.43137 0
M  V30 18489 H 1802.87 2.94499 -1.34358 0
M  V30 18490 H 1801.78 1.73009 -3.3169 0
M  V30 18491 H 1803.11 2.29371 -4.35488 0
M  V30 18492 N 1804.76 1.49212 0.507292 0
M  V30 18493 C 1805.69 1.61529 1.62606 0
M  V30 18494 C 1806.71 0.498303 1.54986 0
M  V30 18495 O 1807.89 0.7701 1.61033 0
M  V30 18496 C 1804.99 1.55015 3.0137 0
M  V30 18497 C 1804.17 2.8214 3.34239 0
M  V30 18498 C 1803.23 2.68765 4.52385 0
M  V30 18499 O 1802.25 3.42691 4.54479 0
M  V30 18500 N 1803.45 1.7989 5.51924 0
M  V30 18501 H 1806.22 2.58018 1.52469 0
M  V30 18502 H 1803.78 1.46222 0.695042 0
M  V30 18503 H 1805.77 1.4373 3.78317 0
M  V30 18504 H 1804.34 0.6641 3.05464 0
M  V30 18505 H 1803.56 3.07823 2.46249 0
M  V30 18506 H 1804.85 3.66432 3.52994 0
M  V30 18507 H 1804.25 1.19074 5.53026 0
M  V30 18508 H 1802.81 1.74531 6.27999 0
M  V30 18509 N 1806.24 -0.757876 1.38181 0
M  V30 18510 C 1807.17 -1.88108 1.3095 0
M  V30 18511 C 1808.18 -1.61272 0.222551 0
M  V30 18512 O 1809.37 -1.71931 0.479782 0
M  V30 18513 C 1806.47 -3.2365 1.00518 0
M  V30 18514 C 1805.65 -3.78024 2.20037 0
M  V30 18515 C 1804.7 -4.92073 1.86416 0
M  V30 18516 O 1803.73 -5.0693 2.58864 0
M  V30 18517 N 1804.93 -5.74728 0.816553 0
M  V30 18518 H 1807.7 -1.94823 2.27737 0
M  V30 18519 H 1805.26 -0.937616 1.31986 0
M  V30 18520 H 1807.25 -3.97483 0.760861 0
M  V30 18521 H 1805.82 -3.12348 0.125418 0
M  V30 18522 H 1805.04 -2.95807 2.60561 0
M  V30 18523 H 1806.33 -4.11085 2.99811 0
M  V30 18524 H 1805.73 -5.65289 0.215659 0
M  V30 18525 H 1804.28 -6.48728 0.63211 0
M  V30 18526 N 1807.72 -1.22979 -0.985586 0
M  V30 18527 C 1808.96 -1.05667 -1.72275 0
M  V30 18528 C 1809.29 0.408045 -1.90683 0
M  V30 18529 O 1808.56 1.29293 -1.47174 0
M  V30 18530 H 1807.14 -0.388017 -0.63832 0
M  V30 18531 H 1809.8 -1.54612 -1.18665 0
M  V30 18532 H 1808.89 -1.54043 -2.71436 0
M  V30 18533 N 1809.19 1.18355 -1.04066 0
M  V30 18534 C 1810.47 1.8419 -0.65828 0
M  V30 18535 C 1810.85 1.92688 0.862238 0
M  V30 18536 O 1810.2 1.4528 1.76369 0
M  V30 18537 C 1810.41 3.22495 -1.3341 0
M  V30 18538 C 1811.76 3.9853 -1.46489 0
M  V30 18539 O 1812.78 3.31934 -1.29221 0
M  V30 18540 O 1811.64 5.17848 -1.74629 0
M  V30 18541 H 1808.73 0.794278 -0.230329 0
M  V30 18542 H 1811.28 1.25747 -1.13955 0
M  V30 18543 H 1810.05 3.11213 -2.37197 0
M  V30 18544 H 1809.68 3.88594 -0.841449 0
M  V30 18545 N 1810.67 0.820125 1.3458 0
M  V30 18546 C 1811.6 0.254709 2.32107 0
M  V30 18547 C 1812.58 -0.6273 1.58111 0
M  V30 18548 O 1813.77 -0.554759 1.86108 0
M  V30 18549 C 1810.9 -0.586541 3.42311 0
M  V30 18550 C 1809.85 0.198096 4.27541 0
M  V30 18551 C 1809.18 -0.765718 5.29189 0
M  V30 18552 C 1810.48 1.40472 5.03056 0
M  V30 18553 H 1812.17 1.06955 2.79644 0
M  V30 18554 H 1809.72 0.515756 1.34447 0
M  V30 18555 H 1811.67 -0.992259 4.09551 0
M  V30 18556 H 1810.4 -1.4344 2.93415 0
M  V30 18557 H 1809.05 0.585149 3.619 0
M  V30 18558 H 1808.7 -1.60946 4.76556 0
M  V30 18559 H 1808.4 -0.244954 5.87089 0
M  V30 18560 H 1809.93 -1.16935 5.99298 0
M  V30 18561 H 1811.34 1.07316 5.63166 0
M  V30 18562 H 1809.74 1.86092 5.70517 0
M  V30 18563 H 1810.81 2.18437 4.32913 0
M  V30 18564 N 1812.15 -1.46743 0.574835 0
M  V30 18565 C 1813.38 -2.07311 0.0608779 0
M  V30 18566 C 1813.8 -1.422 -1.23129 0
M  V30 18567 O 1813.16 -0.503042 -1.74181 0
M  V30 18568 C 1813.21 -3.60462 -0.0996676 0
M  V30 18569 O 1812.31 -3.95806 -1.15808 0
M  V30 18570 H 1811.65 -0.661351 0.0592542 0
M  V30 18571 H 1814.18 -1.885 0.795538 0
M  V30 18572 H 1814.19 -4.06833 -0.308329 0
M  V30 18573 H 1812.87 -4.07246 0.844018 0
M  V30 18574 H 1811.44 -3.61155 -0.928504 0
M  V30 18575 N 1813.63 -0.312197 -1.54477 0
M  V30 18576 C 1814.58 0.558894 -2.23931 0
M  V30 18577 C 1815.55 1.12071 -1.22594 0
M  V30 18578 O 1816.73 1.16316 -1.51245 0
M  V30 18579 C 1813.87 1.71948 -2.99212 0
M  V30 18580 C 1812.98 1.18799 -4.15344 0
M  V30 18581 C 1812.12 2.31334 -4.78182 0
M  V30 18582 C 1811.16 1.75375 -5.86438 0
M  V30 18583 N 1810.29 2.81528 -6.43184 0
M  V30 18584 H 1815.13 -0.0399708 -2.97973 0
M  V30 18585 H 1812.67 -0.0314967 -1.47066 0
M  V30 18586 H 1814.63 2.40225 -3.41098 0
M  V30 18587 H 1813.26 2.28981 -2.27525 0
M  V30 18588 H 1812.31 0.397122 -3.78321 0
M  V30 18589 H 1813.62 0.738426 -4.93304 0
M  V30 18590 H 1812.78 3.07537 -5.22978 0
M  V30 18591 H 1811.52 2.79622 -3.99578 0
M  V30 18592 H 1810.52 0.976658 -5.41056 0
M  V30 18593 H 1811.75 1.27978 -6.66932 0
M  V30 18594 H 1809.69 3.29129 -5.6746 0
M  V30 18595 H 1809.61 2.41101 -7.16524 0
M  V30 18596 H 1810.88 3.57595 -6.92637 0
M  V30 18597 N 1815.11 1.57549 -0.040136 0
M  V30 18598 C 1816.52 1.56434 0.316341 0
M  V30 18599 C 1816.72 1.04679 1.72176 0
M  V30 18600 O 1815.78 0.698444 2.42648 0
M  V30 18601 C 1817.09 3.00301 0.154883 0
M  V30 18602 C 1818.64 3.12177 0.226821 0
M  V30 18603 C 1819.11 4.57903 0.0940219 0
M  V30 18604 N 1820.61 4.62955 0.150654 0
M  V30 18605 C 1821.34 5.73355 0.0718466 0
M  V30 18606 N 1820.84 6.92775 -0.0586777 0
M  V30 18607 N 1822.63 5.61957 0.126632 0
M  V30 18608 H 1814.78 1.89516 -0.959032 0
M  V30 18609 H 1817.04 0.872251 -0.371324 0
M  V30 18610 H 1816.75 3.42158 -0.813674 0
M  V30 18611 H 1816.62 3.65795 0.920521 0
M  V30 18612 H 1819.01 2.70225 1.18584 0
M  V30 18613 H 1819.09 2.49383 -0.569384 0
M  V30 18614 H 1818.74 5.00538 -0.861629 0
M  V30 18615 H 1818.67 5.18691 0.909231 0
M  V30 18616 H 1821.16 3.77064 0.251232 0
M  V30 18617 H 1821.47 7.72719 -0.111818 0
M  V30 18618 H 1819.81 6.94937 -0.0936119 0
M  V30 18619 H 1823.01 4.67549 0.227081 0
M  V30 18620 H 1823.18 6.47971 0.0617551 0
M  V30 18621 N 1816.58 -0.233136 1.55866 0
M  V30 18622 C 1817.81 -0.976415 1.82411 0
M  V30 18623 C 1818.23 -1.78409 0.617724 0
M  V30 18624 O 1817.58 -1.77749 -0.413709 0
M  V30 18625 C 1817.64 -1.90328 3.07339 0
M  V30 18626 O 1817.36 -1.12828 4.23322 0
M  V30 18627 C 1818.86 -2.76142 3.46786 0
M  V30 18628 H 1816.08 -0.2867 0.606666 0
M  V30 18629 H 1818.62 -0.251863 2.02943 0
M  V30 18630 H 1816.78 -2.58193 2.88816 0
M  V30 18631 H 1817.19 -1.75643 4.94216 0
M  V30 18632 H 1818.66 -3.36901 4.37266 0
M  V30 18633 H 1819.14 -3.47953 2.68003 0
M  V30 18634 H 1819.75 -2.13708 3.67708 0
M  V30 18635 N 1818.06 -1.49479 -0.499372 0
M  V30 18636 C 1819.01 -1.66268 -1.60073 0
M  V30 18637 C 1819.98 -0.504137 -1.58265 0
M  V30 18638 O 1821.17 -0.731358 -1.76227 0
M  V30 18639 C 1818.31 -1.73678 -2.98211 0
M  V30 18640 C 1817.42 -3.00848 -3.10023 0
M  V30 18641 C 1816.55 -2.99227 -4.38904 0
M  V30 18642 C 1815.59 -4.20969 -4.44355 0
M  V30 18643 N 1814.73 -4.17249 -5.64666 0
M  V30 18644 H 1819.57 -2.60308 -1.45065 0
M  V30 18645 H 1817.11 -1.29063 -0.705774 0
M  V30 18646 H 1819.06 -1.75956 -3.7828 0
M  V30 18647 H 1817.69 -0.831037 -3.11919 0
M  V30 18648 H 1816.75 -3.08175 -2.23008 0
M  V30 18649 H 1818.06 -3.90841 -3.09911 0
M  V30 18650 H 1817.21 -3.00076 -5.27294 0
M  V30 18651 H 1815.95 -2.07015 -4.41584 0
M  V30 18652 H 1814.96 -4.20362 -3.54366 0
M  V30 18653 H 1816.18 -5.14376 -4.4339 0
M  V30 18654 H 1814.13 -3.27875 -5.68185 0
M  V30 18655 H 1814.04 -5.00979 -5.66177 0
M  V30 18656 H 1815.31 -4.22203 -6.55259 0
M  V30 18657 N 1819.54 0.750537 -1.38581 0
M  V30 18658 C 1820.49 1.86434 -1.36056 0
M  V30 18659 C 1821.46 1.64601 -0.222625 0
M  V30 18660 O 1822.64 1.86225 -0.41533 0
M  V30 18661 C 1819.78 3.23769 -1.19447 0
M  V30 18662 C 1818.9 3.57412 -2.42653 0
M  V30 18663 C 1818.03 4.84067 -2.18751 0
M  V30 18664 C 1817.07 5.10506 -3.37713 0
M  V30 18665 N 1816.21 6.28358 -3.13227 0
M  V30 18666 H 1821.05 1.87927 -2.31274 0
M  V30 18667 H 1818.58 0.91849 -1.14901 0
M  V30 18668 H 1820.54 4.03024 -1.07832 0
M  V30 18669 H 1819.17 3.21595 -0.278665 0
M  V30 18670 H 1818.22 2.72978 -2.64929 0
M  V30 18671 H 1819.54 3.72876 -3.31307 0
M  V30 18672 H 1818.69 5.71271 -2.0429 0
M  V30 18673 H 1817.43 4.70748 -1.27467 0
M  V30 18674 H 1816.43 4.2177 -3.5269 0
M  V30 18675 H 1817.66 5.25721 -4.29877 0
M  V30 18676 H 1815.61 6.16355 -2.24593 0
M  V30 18677 H 1815.52 6.44337 -3.95432 0
M  V30 18678 H 1816.79 7.18441 -3.02428 0
M  V30 18679 O 1821.06 1.34683 0.891216 0
M  V30 18680 H 1821.75 1.19102 1.52756 0
M  V30 END ATOM
M  V30 BEGIN BOND
M  V30 END BOND
M  V30 END CTAB
M  END
$$$$
