drugbank_target|P26514 Endo-1,4-beta-xylanase A (DB03366; DB03389; DB04465)
 OpenBabel12092120243D

  0  0  0     0  0            999 V3000
M  V30 BEGIN CTAB
M  V30 COUNTS 7028 7101 0 0 0
M  V30 BEGIN ATOM
M  V30 1 H -0.908 1.98254 -0.117106 0
M  V30 2 N 0 1.576 0 0
M  V30 3 C 0.933 2.03868 1.02534 0
M  V30 4 C 1.911 0.928543 1.3348 0
M  V30 5 O 3.095 1.19667 1.45644 0
M  V30 6 C 0.222 2.43627 2.35294 0
M  V30 7 C -0.732 3.65373 2.2001 0
M  V30 8 S 0.101 5.13292 1.52614 0
M  V30 9 C 1.257 5.56322 2.86805 0
M  V30 10 H 1.49 2.90518 0.631377 0
M  V30 11 H -0.977 1.52953 0.210867 0
M  V30 12 H 0.981 2.67203 3.11629 0
M  V30 13 H -0.358 1.57376 2.7183 0
M  V30 14 H -1.165 3.90944 3.18086 0
M  V30 15 H -1.563 3.418 1.51819 0
M  V30 16 H 0.729 5.58782 3.83104 0
M  V30 17 H 1.672 6.56266 2.65933 0
M  V30 18 H 2.08 4.83886 2.90714 0
M  V30 19 N 1.4781 -0.272755 1.55222 0
M  V30 20 C 2.7261 -1.00234 1.75492 0
M  V30 21 C 3.0471 -1.8681 0.5592 0
M  V30 22 O 2.3171 -1.91215 -0.425882 0
M  V30 23 H 0.8971 -0.373076 0.647166 0
M  V30 24 H 3.5591 -0.296926 1.92625 0
M  V30 25 H 2.6551 -1.63913 2.65592 0
M  V30 26 N 2.9562 -1.48159 -0.537278 0
M  V30 27 C 4.1812 -1.59707 -1.32319 0
M  V30 28 C 4.6062 -0.254859 -1.86365 0
M  V30 29 O 3.9642 0.772378 -1.64024 0
M  V30 30 C 4.0122 -2.6412 -2.45505 0
M  V30 31 O 3.1162 -2.20774 -3.48328 0
M  V30 32 H 2.4572 -0.535791 -0.392204 0
M  V30 33 H 4.9872 -1.94092 -0.647268 0
M  V30 34 H 4.9972 -2.85166 -2.91795 0
M  V30 35 H 3.6722 -3.61567 -2.05528 0
M  V30 36 H 2.2492 -2.09911 -3.08207 0
M  V30 37 N 4.4343 0.785586 -1.36625 0
M  V30 38 C 5.6643 1.5722 -1.34036 0
M  V30 39 C 6.0723 1.89033 0.0795062 0
M  V30 40 O 5.4153 1.50881 1.04789 0
M  V30 41 C 5.4773 2.91759 -2.10041 0
M  V30 42 C 5.1413 2.82654 -3.59104 0
M  V30 43 C 6.1383 2.54634 -4.53274 0
M  V30 44 C 3.8233 3.01111 -4.02042 0
M  V30 45 C 5.8173 2.45177 -5.88359 0
M  V30 46 C 3.5043 2.91276 -5.37216 0
M  V30 47 C 4.5023 2.63348 -6.30188 0
M  V30 48 O 4.1903 2.53514 -7.6288 0
M  V30 49 H 3.9223 0.494177 -0.461265 0
M  V30 50 H 6.4763 0.982632 -1.8037 0
M  V30 51 H 4.7063 3.52781 -1.58375 0
M  V30 52 H 6.3953 3.53059 -2.00261 0
M  V30 53 H 7.1613 2.40073 -4.21414 0
M  V30 54 H 3.0403 3.21854 -3.30047 0
M  V30 55 H 6.5843 2.23299 -6.60896 0
M  V30 56 H 2.4813 3.054 -5.68684 0
M  V30 57 H 3.2493 2.68967 -7.73045 0
M  V30 58 N 5.9124 1.20967 1.01018 0
M  V30 59 C 6.8754 0.965918 2.07853 0
M  V30 60 C 7.8754 -0.0610545 1.60684 0
M  V30 61 O 9.0654 0.175681 1.73312 0
M  V30 62 C 6.1974 0.455513 3.37843 0
M  V30 63 H 7.3904 1.91365 2.3091 0
M  V30 64 H 4.9434 1.02594 1.17916 0
M  V30 65 H 5.6784 -0.497381 3.20463 0
M  V30 66 H 5.4634 1.19622 3.73407 0
M  V30 67 H 6.9534 0.304667 4.16487 0
M  V30 68 N 7.3905 -1.2043 1.01659 0
M  V30 69 C 8.3205 -2.25466 0.607226 0
M  V30 70 C 9.3015 -1.65853 -0.377716 0
M  V30 71 O 10.4865 -1.92409 -0.263149 0
M  V30 72 C 7.6165 -3.47256 -0.0552949 0
M  V30 73 C 6.5705 -4.19462 0.850632 0
M  V30 74 C 5.8965 -5.34673 0.0538859 0
M  V30 75 C 7.1965 -4.75603 2.15868 0
M  V30 76 H 8.8905 -2.59962 1.48526 0
M  V30 77 H 6.4365 -1.2496 0.715605 0
M  V30 78 H 8.3895 -4.19917 -0.353233 0
M  V30 79 H 7.1135 -3.11924 -0.968045 0
M  V30 80 H 5.7725 -3.48667 1.13257 0
M  V30 81 H 5.4205 -4.95585 -0.860514 0
M  V30 82 H 5.1205 -5.83913 0.657192 0
M  V30 83 H 6.6445 -6.10138 -0.237598 0
M  V30 84 H 8.0585 -5.40083 1.92311 0
M  V30 85 H 6.4555 -5.3528 2.71284 0
M  V30 86 H 7.5255 -3.94346 2.82169 0
M  V30 87 N 8.8686 -0.792821 -1.36206 0
M  V30 88 C 10.2796 -0.429513 -1.81692 0
M  V30 89 C 10.6306 1.04695 -1.65932 0
M  V30 90 O 9.7556 1.81256 -1.18218 0
M  V30 91 C 10.3506 -0.772831 -3.29868 0
M  V30 92 C 8.9096 -0.462307 -3.7355 0
M  V30 93 C 8.0566 -1.00569 -2.5842 0
M  V30 94 H 11.0076 -0.985672 -1.24379 0
M  V30 95 H 11.0286 -0.0651928 -3.80444 0
M  V30 96 H 10.5406 -1.84747 -3.41307 0
M  V30 97 H 8.6416 0.604158 -3.67669 0
M  V30 98 H 8.7546 -0.985299 -4.68859 0
M  V30 99 H 7.1186 -0.428734 -2.51066 0
M  V30 100 H 7.9016 -2.08616 -2.72643 0
M  V30 101 N 10.3467 1.47872 -0.545128 0
M  V30 102 C 11.7627 1.5829 -0.204032 0
M  V30 103 C 11.9627 1.54529 1.29317 0
M  V30 104 O 11.0187 1.44232 2.07252 0
M  V30 105 C 12.3317 2.89304 -0.819987 0
M  V30 106 C 13.8797 3.02864 -0.790105 0
M  V30 107 C 14.3547 4.3656 -1.38491 0
M  V30 108 N 15.8457 4.43165 -1.34755 0
M  V30 109 C 16.5807 5.45153 -1.77753 0
M  V30 110 N 16.0767 6.54016 -2.2855 0
M  V30 111 N 17.8697 5.36125 -1.68897 0
M  V30 112 H 10.0207 1.4856 -1.51802 0
M  V30 113 H 12.2837 0.706305 -0.632327 0
M  V30 114 H 11.9897 2.97757 -1.87173 0
M  V30 115 H 11.8637 3.75957 -0.305915 0
M  V30 116 H 14.2507 2.94014 0.252913 0
M  V30 117 H 14.3317 2.17782 -1.34181 0
M  V30 118 H 13.9757 4.46164 -2.42693 0
M  V30 119 H 13.9057 5.20353 -0.808754 0
M  V30 120 H 16.3967 3.65083 -0.975855 0
M  V30 121 H 16.7097 7.27994 -2.59314 0
M  V30 122 H 15.0547 6.54938 -2.32553 0
M  V30 123 H 18.2457 4.49975 -1.28998 0
M  V30 124 H 18.4187 6.15472 -2.02726 0
M  V30 125 N 11.8248 0.280983 1.55075 0
M  V30 126 C 13.0498 -0.340154 2.04592 0
M  V30 127 C 13.4748 -1.48246 1.15779 0
M  V30 128 O 12.8328 -1.80614 0.15761 0
M  V30 129 C 12.8808 -0.793104 3.5177 0
M  V30 130 O 11.9848 -1.89981 3.66034 0
M  V30 131 H 11.3258 -0.0694289 0.66036 0
M  V30 132 H 13.8558 0.416993 2.00306 0
M  V30 133 H 13.8658 -1.08729 3.93245 0
M  V30 134 H 12.5408 0.0426163 4.15878 0
M  V30 135 H 11.1178 -1.60771 3.36463 0
M  V30 136 N 13.3029 -1.57598 0.00835791 0
M  V30 137 C 14.5509 -1.90551 -0.6734 0
M  V30 138 C 14.8719 -0.883301 -1.73847 0
M  V30 139 O 14.1419 0.0781442 -1.95744 0
M  V30 140 H 12.7219 -0.703312 -0.251717 0
M  V30 141 H 15.3839 -1.94833 0.0512592 0
M  V30 142 H 14.4799 -2.9056 -1.13935 0
M  V30 143 N 14.781 0.264519 -1.55364 0
M  V30 144 C 16.027 0.99646 -1.76631 0
M  V30 145 C 16.36 1.85632 -0.570478 0
M  V30 146 O 15.635 1.89647 0.43175 0
M  V30 147 C 15.918 1.87187 -3.07625 0
M  V30 148 C 15.771 1.04138 -4.37579 0
M  V30 149 C 17.09 2.85749 -3.34717 0
M  V30 150 H 14.209 0.360841 -0.642622 0
M  V30 151 H 16.851 0.268218 -1.88097 0
M  V30 152 H 15.001 2.49279 -2.9798 0
M  V30 153 H 16.673 0.440517 -4.59192 0
M  V30 154 H 14.916 0.345115 -4.32425 0
M  V30 155 H 15.587 1.68729 -5.2558 0
M  V30 156 H 18.063 2.33793 -3.4421 0
M  V30 157 H 16.939 3.44136 -4.27623 0
M  V30 158 H 17.2 3.61311 -2.54768 0
M  V30 159 N 16.2591 1.48442 0.529413 0
M  V30 160 C 17.6751 1.34575 0.858004 0
M  V30 161 C 17.8751 0.3572 1.98309 0
M  V30 162 O 16.9311 -0.221379 2.51528 0
M  V30 163 C 18.2441 2.74617 1.22499 0
M  V30 164 C 19.7921 2.83109 1.33484 0
M  V30 165 C 20.2671 4.23854 1.73526 0
M  V30 166 N 21.7581 4.2653 1.80628 0
M  V30 167 C 22.4931 5.32372 2.12997 0
M  V30 168 N 21.9891 6.48491 2.43786 0
M  V30 169 N 23.7821 5.19766 2.14008 0
M  V30 170 H 15.9331 2.1133 -0.212925 0
M  V30 171 H 18.1961 0.947439 -0.0326199 0
M  V30 172 H 17.9021 3.4852 0.471905 0
M  V30 173 H 17.7761 3.08177 2.17501 0
M  V30 174 H 20.1631 2.09462 2.0787 0
M  V30 175 H 20.2441 2.53168 0.366027 0
M  V30 176 H 19.8881 4.98018 0.997013 0
M  V30 177 H 19.8181 4.5124 2.71459 0
M  V30 178 H 22.3091 3.42772 1.59108 0
M  V30 179 H 22.6221 7.24993 2.67592 0
M  V30 180 H 20.9671 6.51765 2.41304 0
M  V30 181 H 24.1581 4.28066 1.89412 0
M  V30 182 H 24.3311 6.02354 2.38902 0
M  V30 183 N 17.7372 -0.778329 1.37039 0
M  V30 184 C 19.1532 -1.07796 1.17695 0
M  V30 185 C 19.3532 -2.01498 0.00860115 0
M  V30 186 O 18.4092 -2.43901 -0.653352 0
M  V30 187 C 19.7222 -1.68178 2.49272 0
M  V30 188 C 21.2702 -1.80467 2.55735 0
M  V30 189 C 21.7452 -2.44263 3.87427 0
M  V30 190 N 23.2362 -2.51721 3.88833 0
M  V30 191 C 23.9712 -3.01919 4.87476 0
M  V30 192 N 23.4672 -3.5234 5.96513 0
M  V30 193 N 25.2602 -3.00733 4.74885 0
M  V30 194 H 17.4112 -0.156032 2.11826 0
M  V30 195 H 19.6742 -0.131844 0.938787 0
M  V30 196 H 19.3802 -1.06796 3.35093 0
M  V30 197 H 19.2542 -2.67554 2.65885 0
M  V30 198 H 21.6412 -2.40984 1.70325 0
M  V30 199 H 21.7222 -0.798656 2.43013 0
M  V30 200 H 21.3662 -1.84388 4.73248 0
M  V30 201 H 21.2962 -3.45458 3.9745 0
M  V30 202 H 23.7872 -2.1603 3.10063 0
M  V30 203 H 24.1002 -3.89027 6.67741 0
M  V30 204 H 22.4452 -3.50462 6.00168 0
M  V30 205 H 25.6362 -2.60638 3.88826 0
M  V30 206 H 25.8092 -3.39545 5.51918 0
M  V30 207 N 19.2153 -1.21501 -1.00376 0
M  V30 208 C 20.4403 -1.05977 -1.78279 0
M  V30 209 C 20.8653 0.385994 -1.84097 0
M  V30 210 O 20.2233 1.27849 -1.28547 0
M  V30 211 C 20.2713 -1.66302 -3.19963 0
M  V30 212 O 19.3753 -0.909333 -4.0225 0
M  V30 213 H 18.7163 -0.372906 -0.549397 0
M  V30 214 H 21.2463 -1.6107 -1.26165 0
M  V30 215 H 21.2563 -1.70574 -3.70632 0
M  V30 216 H 19.9313 -2.71515 -3.15043 0
M  V30 217 H 18.5083 -0.941795 -3.60811 0
M  V30 218 N 20.6934 1.19889 -1.02296 0
M  V30 219 C 21.9424 1.88743 -0.711257 0
M  V30 220 C 22.2554 1.80112 0.762817 0
M  V30 221 O 23.4614 2.44161 1.18733 0
M  V30 222 C 21.9174 3.38525 -1.22185 0
M  V30 223 C 21.5254 3.55727 -2.72328 0
M  V30 224 C 23.2694 4.12893 -0.985864 0
M  V30 225 C 21.1764 4.99369 -3.16835 0
M  V30 226 H 20.1064 0.706885 -0.262353 0
M  V30 227 H 22.7574 1.35586 -1.23648 0
M  V30 228 H 21.1394 3.91044 -0.624571 0
M  V30 229 H 22.3134 3.13564 -3.3766 0
M  V30 230 H 20.6284 2.94739 -2.9414 0
M  V30 231 H 23.2254 5.18813 -1.29374 0
M  V30 232 H 23.5684 4.16228 0.0775055 0
M  V30 233 H 24.1014 3.66494 -1.54684 0
M  V30 234 H 20.8404 5.01193 -4.22476 0
M  V30 235 H 20.3604 5.42317 -2.56228 0
M  V30 236 H 22.0394 5.67988 -3.09837 0
M  V30 237 N 22.1715 0.800033 1.35784 0
M  V30 238 C 23.5875 0.482977 1.52117 0
M  V30 239 C 23.7875 -0.996948 1.75109 0
M  V30 240 O 22.8435 -1.78216 1.78872 0
M  V30 241 C 24.1565 1.32264 2.70049 0
M  V30 242 C 25.7045 1.31742 2.83924 0
M  V30 243 C 26.1795 2.14106 4.04874 0
M  V30 244 N 27.6705 2.11607 4.12039 0
M  V30 245 C 28.4055 2.72099 5.04727 0
M  V30 246 N 27.9015 3.41492 6.02789 0
M  V30 247 N 29.6945 2.61776 4.97423 0
M  V30 248 H 21.8455 1.75856 1.19115 0
M  V30 249 H 24.1085 0.748122 0.582252 0
M  V30 250 H 23.8145 2.37261 2.59616 0
M  V30 251 H 23.6885 0.971303 3.6448 0
M  V30 252 H 26.0755 0.275333 2.93813 0
M  V30 253 H 26.1565 1.70859 1.9037 0
M  V30 254 H 25.8005 3.18351 3.95746 0
M  V30 255 H 25.7305 1.72353 4.97596 0
M  V30 256 H 28.2215 1.61112 3.41835 0
M  V30 257 H 28.5345 3.84953 6.70098 0
M  V30 258 H 26.8795 3.45596 6.02983 0
M  V30 259 H 30.0705 2.07157 4.19766 0
M  V30 260 H 30.2435 3.0921 5.69468 0
M  V30 261 N 23.6496 -1.47581 0.552962 0
M  V30 262 C 24.8956 -2.02782 0.0273648 0
M  V30 263 C 25.2286 -1.42687 -1.31734 0
M  V30 264 O 24.5036 -0.580897 -1.85623 0
M  V30 265 C 24.7866 -3.60031 -0.0702371 0
M  V30 266 C 24.6396 -4.30566 1.30126 0
M  V30 267 C 25.9586 -4.33028 -0.785771 0
M  V30 268 H 23.0776 -0.736912 0.0114185 0
M  V30 269 H 25.7196 -1.76056 0.714432 0
M  V30 270 H 23.8696 -3.82932 -0.655382 0
M  V30 271 H 25.5416 -4.19018 1.92929 0
M  V30 272 H 23.7846 -3.91086 1.87709 0
M  V30 273 H 24.4556 -5.39114 1.18573 0
M  V30 274 H 26.9316 -4.15095 -0.288982 0
M  V30 275 H 25.8076 -5.42695 -0.823013 0
M  V30 276 H 26.0686 -4.01945 -1.841 0
M  V30 277 N 25.1277 -0.289203 -1.54924 0
M  V30 278 C 26.0577 0.58549 -2.2604 0
M  V30 279 C 27.0387 1.14753 -1.25562 0
M  V30 280 O 28.2237 1.17906 -1.54311 0
M  V30 281 C 25.3537 1.76305 -2.99222 0
M  V30 282 C 24.3077 1.33191 -4.06748 0
M  V30 283 C 23.6337 2.5937 -4.6758 0
M  V30 284 C 24.9337 0.471775 -5.20165 0
M  V30 285 H 26.6277 -0.00763532 -2.99399 0
M  V30 286 H 24.1737 -0.00511229 -1.43999 0
M  V30 287 H 26.1267 2.38097 -3.47689 0
M  V30 288 H 24.8507 2.38223 -2.23422 0
M  V30 289 H 23.5097 0.737121 -3.59113 0
M  V30 290 H 23.1577 3.19576 -3.88433 0
M  V30 291 H 22.8577 2.31228 -5.40192 0
M  V30 292 H 24.3817 3.21985 -5.18804 0
M  V30 293 H 25.7957 0.995056 -5.64599 0
M  V30 294 H 24.1927 0.284639 -5.99425 0
M  V30 295 H 25.2627 -0.506041 -4.82252 0
M  V30 296 N 26.6058 1.57591 -0.0167156 0
M  V30 297 C 27.5358 2.12496 0.967858 0
M  V30 298 C 28.5168 1.03807 1.34752 0
M  V30 299 O 29.7018 1.31577 1.42833 0
M  V30 300 C 26.8318 2.64194 2.25431 0
M  V30 301 C 25.7858 3.77559 2.01576 0
M  V30 302 C 25.1118 4.15636 3.36379 0
M  V30 303 C 26.4118 5.04151 1.36489 0
M  V30 304 H 28.1058 2.95013 0.510643 0
M  V30 305 H 25.6518 1.41915 0.244181 0
M  V30 306 H 27.6048 3.01236 2.94678 0
M  V30 307 H 26.3288 1.78821 2.73296 0
M  V30 308 H 24.9878 3.40937 1.34751 0
M  V30 309 H 24.6358 3.27263 3.81979 0
M  V30 310 H 24.3358 4.92022 3.21229 0
M  V30 311 H 25.8598 4.5525 4.06915 0
M  V30 312 H 27.2738 5.38857 1.95718 0
M  V30 313 H 25.6708 5.85453 1.31776 0
M  V30 314 H 26.7408 4.83733 0.336219 0
M  V30 315 N 28.0839 -0.256276 1.55502 0
M  V30 316 C 29.0139 -1.32102 1.92539 0
M  V30 317 C 29.9949 -1.50684 0.789194 0
M  V30 318 O 31.1799 -1.63449 1.04872 0
M  V30 319 C 28.3099 -2.67752 2.21192 0
M  V30 320 C 27.2639 -2.63878 3.36975 0
M  V30 321 C 26.5899 -4.03236 3.51147 0
M  V30 322 C 27.8899 -2.21682 4.72921 0
M  V30 323 H 29.5839 -1.01351 2.81724 0
M  V30 324 H 27.1299 -0.486105 1.35547 0
M  V30 325 H 29.0829 -3.42365 2.45691 0
M  V30 326 H 27.8069 -3.0012 1.28824 0
M  V30 327 H 26.4659 -1.91722 3.12471 0
M  V30 328 H 26.1139 -4.32854 2.56216 0
M  V30 329 H 25.8139 -4.01535 4.29003 0
M  V30 330 H 27.3379 -4.79563 3.77957 0
M  V30 331 H 28.7519 -2.86023 4.96854 0
M  V30 332 H 27.1489 -2.3111 5.53812 0
M  V30 333 H 28.2189 -1.16833 4.70615 0
M  V30 334 N 29.562 -1.4872 -0.521534 0
M  V30 335 C 30.525 -1.63379 -1.60748 0
M  V30 336 C 31.525 -0.50661 -1.52611 0
M  V30 337 O 32.715 -0.772601 -1.5613 0
M  V30 338 C 29.847 -1.61192 -3.00383 0
M  V30 339 H 31.04 -2.60217 -1.49087 0
M  V30 340 H 28.593 -1.37444 -0.744235 0
M  V30 341 H 29.328 -0.65863 -3.17541 0
M  V30 342 H 29.113 -2.43032 -3.07698 0
M  V30 343 H 30.603 -1.7466 -3.7932 0
M  V30 344 N 31.0401 0.771051 -1.3745 0
M  V30 345 C 31.9701 1.89827 -1.3597 0
M  V30 346 C 32.9511 1.68562 -0.228216 0
M  V30 347 O 34.1361 1.8941 -0.428675 0
M  V30 348 C 31.2661 3.2712 -1.16662 0
M  V30 349 C 30.2201 3.6295 -2.2683 0
M  V30 350 C 29.5461 4.98791 -1.92644 0
M  V30 351 C 30.8461 3.69627 -3.69017 0
M  V30 352 H 32.5401 1.91323 -2.30295 0
M  V30 353 H 30.0861 0.919082 -1.10855 0
M  V30 354 H 32.0391 4.05615 -1.14256 0
M  V30 355 H 30.7631 3.26059 -0.187926 0
M  V30 356 H 29.4221 2.86763 -2.28392 0
M  V30 357 H 29.0701 4.94271 -0.933021 0
M  V30 358 H 28.7701 5.23733 -2.66416 0
M  V30 359 H 30.2941 5.79685 -1.91826 0
M  V30 360 H 31.7081 4.38273 -3.69581 0
M  V30 361 H 30.1051 4.06067 -4.41848 0
M  V30 362 H 31.1751 2.70273 -4.02592 0
M  V30 363 N 32.5182 1.22032 0.997298 0
M  V30 364 C 33.7642 1.04376 1.73878 0
M  V30 365 C 34.0972 -0.420716 1.89588 0
M  V30 366 O 33.3722 -1.31202 1.43583 0
M  V30 367 C 33.6552 1.75047 3.14691 0
M  V30 368 C 33.5082 3.29062 3.06656 0
M  V30 369 C 34.8272 1.49928 4.13775 0
M  V30 370 H 31.9462 0.380578 0.631133 0
M  V30 371 H 34.5882 1.50312 1.16217 0
M  V30 372 H 32.7382 1.35996 3.63919 0
M  V30 373 H 34.4102 3.7753 2.65083 0
M  V30 374 H 32.6532 3.58967 2.43568 0
M  V30 375 H 33.3242 3.73683 4.06282 0
M  V30 376 H 35.8002 1.83842 3.73285 0
M  V30 377 H 34.6762 2.01878 5.10428 0
M  V30 378 H 34.9372 0.430929 4.39995 0
M  V30 379 N 33.9963 -1.19345 1.0293 0
M  V30 380 C 35.2423 -1.89318 0.727083 0
M  V30 381 C 35.5753 -1.79446 -0.742483 0
M  V30 382 O 34.8503 -1.1871 -1.54072 0
M  V30 383 C 35.1333 -3.40238 1.17942 0
M  V30 384 C 34.9863 -3.58979 2.71024 0
M  V30 385 C 36.3053 -4.33479 0.760548 0
M  V30 386 H 33.4243 -0.687475 0.265606 0
M  V30 387 H 36.0663 -1.40477 1.2793 0
M  V30 388 H 34.2163 -3.81964 0.709608 0
M  V30 389 H 35.8883 -3.26421 3.25955 0
M  V30 390 H 34.1313 -3.02018 3.11396 0
M  V30 391 H 34.8023 -4.64823 2.9773 0
M  V30 392 H 37.2783 -3.99469 1.16464 0
M  V30 393 H 36.1543 -5.37664 1.10493 0
M  V30 394 H 36.4153 -4.40813 -0.337063 0
M  V30 395 N 35.4744 -0.807222 -1.35358 0
M  V30 396 C 36.7224 -0.387122 -1.98358 0
M  V30 397 C 37.0434 1.04942 -1.64354 0
M  V30 398 O 36.3134 1.72615 -0.926339 0
M  V30 399 H 34.8934 -0.140154 -0.733734 0
M  V30 400 H 37.5554 -1.0332 -1.6526 0
M  V30 401 H 36.6514 -0.493352 -3.08176 0
M  V30 402 N 36.9525 1.47285 -0.560781 0
M  V30 403 C 38.1985 2.02764 -0.0381184 0
M  V30 404 C 38.5315 1.43384 1.30976 0
M  V30 405 O 37.8065 0.590733 1.85312 0
M  V30 406 C 38.0895 3.60064 0.0511427 0
M  V30 407 C 37.9425 4.2987 -1.32408 0
M  V30 408 C 39.2615 4.33439 0.762795 0
M  V30 409 H 36.3805 0.736841 -0.0153264 0
M  V30 410 H 39.0225 1.75675 -0.723759 0
M  V30 411 H 37.1725 3.83274 0.635065 0
M  V30 412 H 38.8445 4.17989 -1.95148 0
M  V30 413 H 37.0875 3.90085 -1.8978 0
M  V30 414 H 37.7585 5.38478 -1.21431 0
M  V30 415 H 40.2345 4.15243 0.266965 0
M  V30 416 H 39.1105 5.43124 0.794221 0
M  V30 417 H 39.3715 4.02915 1.81966 0
M  V30 418 N 38.4306 0.297415 1.54768 0
M  V30 419 C 39.3606 -0.573494 2.26348 0
M  V30 420 C 40.3416 -1.14085 1.26169 0
M  V30 421 O 41.5266 -1.17086 1.54934 0
M  V30 422 C 38.6566 -1.74716 3.00153 0
M  V30 423 C 37.6106 -1.31032 4.07449 0
M  V30 424 C 36.9366 -2.56887 4.68949 0
M  V30 425 C 38.2366 -0.444183 5.20408 0
M  V30 426 H 39.9306 0.0235131 2.99391 0
M  V30 427 H 37.4766 0.0127488 1.43994 0
M  V30 428 H 39.4296 -2.3625 3.48947 0
M  V30 429 H 38.1536 -2.37035 2.24682 0
M  V30 430 H 36.8126 -0.718066 3.59499 0
M  V30 431 H 36.4606 -3.17512 3.90122 0
M  V30 432 H 36.1606 -2.2836 5.41411 0
M  V30 433 H 37.6846 -3.19229 5.20505 0
M  V30 434 H 39.0986 -0.9651 5.65118 0
M  V30 435 H 37.4956 -0.252846 5.99567 0
M  V30 436 H 38.5656 0.531609 4.81977 0
M  V30 437 N 39.9087 -1.5758 0.0250728 0
M  V30 438 C 41.1567 -1.91255 -0.653151 0
M  V30 439 C 41.4777 -0.901691 -1.729 0
M  V30 440 O 40.7477 0.0573785 -1.95816 0
M  V30 441 H 39.3277 -0.705942 -0.244243 0
M  V30 442 H 41.9897 -1.94767 0.0719209 0
M  V30 443 H 41.0857 -2.91752 -1.10847 0
M  V30 444 N 41.3868 0.248026 -1.55636 0
M  V30 445 C 42.6148 0.993808 -1.81469 0
M  V30 446 C 43.0298 1.78991 -0.60064 0
M  V30 447 O 42.3868 1.77345 0.430682 0
M  V30 448 C 42.4378 1.93258 -3.05506 0
M  V30 449 O 42.1588 1.16869 -4.22224 0
M  V30 450 C 43.6598 2.79444 -3.4413 0
M  V30 451 H 40.8798 0.292486 -0.603898 0
M  V30 452 H 43.4238 0.271253 -2.02693 0
M  V30 453 H 41.5788 2.60943 -2.86335 0
M  V30 454 H 41.9928 1.80359 -4.92515 0
M  V30 455 H 43.4668 3.41066 -4.34026 0
M  V30 456 H 43.9438 3.50499 -2.64665 0
M  V30 457 H 44.5498 2.17214 -3.65648 0
M  V30 458 N 42.8649 1.48995 0.513639 0
M  V30 459 C 43.8279 1.64229 1.59879 0
M  V30 460 C 44.8279 0.514696 1.5234 0
M  V30 461 O 46.0179 0.78087 1.55718 0
M  V30 462 C 43.1499 1.62783 2.99524 0
M  V30 463 H 44.3429 2.61004 1.47705 0
M  V30 464 H 41.8959 1.37837 0.736936 0
M  V30 465 H 42.6309 0.675461 3.17188 0
M  V30 466 H 42.4159 2.4466 3.06404 0
M  V30 467 H 43.9059 1.76669 3.78388 0
M  V30 468 N 44.343 -0.763751 1.37857 0
M  V30 469 C 45.571 -1.55293 1.36718 0
M  V30 470 C 45.986 -1.88745 -0.0455434 0
M  V30 471 O 45.343 -1.52039 -1.00947 0
M  V30 472 C 45.394 -2.85831 2.2132 0
M  V30 473 O 45.115 -2.5381 3.57089 0
M  V30 474 C 46.616 -3.80023 2.28249 0
M  V30 475 H 43.836 -0.480841 0.468009 0
M  V30 476 H 46.38 -0.946009 1.81303 0
M  V30 477 H 44.535 -3.42926 1.80223 0
M  V30 478 H 44.949 -3.37459 4.01524 0
M  V30 479 H 46.423 -4.68599 2.91752 0
M  V30 480 H 46.9 -4.1973 1.2932 0
M  V30 481 H 47.506 -3.28855 2.69693 0
M  V30 482 N 45.8211 -1.22559 -0.990812 0
M  V30 483 C 46.7841 -0.998863 -2.0629 0
M  V30 484 C 47.7841 0.0354834 -1.60761 0
M  V30 485 O 48.9741 -0.203231 -1.7301 0
M  V30 486 C 46.1061 -0.509203 -3.37076 0
M  V30 487 H 47.2991 -1.95014 -2.27837 0
M  V30 488 H 44.8521 -1.04456 -1.16269 0
M  V30 489 H 45.5871 0.446335 -3.21214 0
M  V30 490 H 45.3721 -1.25547 -3.71457 0
M  V30 491 H 46.8621 -0.370888 -4.1595 0
M  V30 492 N 47.2992 1.18797 -1.03562 0
M  V30 493 C 48.2292 2.24472 -0.643019 0
M  V30 494 C 49.2102 1.66433 0.351283 0
M  V30 495 O 50.3952 1.92803 0.232505 0
M  V30 496 C 47.5252 3.473 4.24935e-05 0
M  V30 497 C 46.4792 4.18055 -0.917257 0
M  V30 498 C 45.8052 5.34519 -0.138941 0
M  V30 499 C 47.1052 4.72109 -2.23407 0
M  V30 500 H 48.7992 2.57566 -1.52643 0
M  V30 501 H 46.3452 1.23806 -0.735394 0
M  V30 502 H 48.2982 4.20426 0.286383 0
M  V30 503 H 47.0222 3.13424 0.918299 0
M  V30 504 H 45.6812 3.46821 -1.1879 0
M  V30 505 H 45.3292 4.96891 0.781562 0
M  V30 506 H 45.0292 5.82794 -0.750005 0
M  V30 507 H 46.5532 6.10438 0.1405 0
M  V30 508 H 47.9672 5.36955 -2.00879 0
M  V30 509 H 46.3642 5.30897 -2.79765 0
M  V30 510 H 47.4342 3.89807 -2.88407 0
M  V30 511 N 48.7773 0.814389 1.34928 0
M  V30 512 C 50.0263 0.394871 1.97797 0
M  V30 513 C 50.3393 -1.04555 1.65311 0
M  V30 514 O 51.5453 -1.56856 2.21604 0
M  V30 515 C 50.0013 0.655103 3.53888 0
M  V30 516 C 49.6093 2.10858 3.95276 0
M  V30 517 C 51.3533 0.301329 4.23429 0
M  V30 518 C 49.2603 2.31415 5.44244 0
M  V30 519 H 48.1903 0.143913 0.740139 0
M  V30 520 H 50.8413 0.999544 1.53888 0
M  V30 521 H 49.2233 -0.0196253 3.95995 0
M  V30 522 H 50.3973 2.82176 3.64298 0
M  V30 523 H 48.7123 2.42297 3.38646 0
M  V30 524 H 51.3093 0.432869 5.32945 0
M  V30 525 H 51.6523 -0.75331 4.09428 0
M  V30 526 H 52.1853 0.930288 3.86769 0
M  V30 527 H 48.9243 3.35353 5.63222 0
M  V30 528 H 48.4443 1.6463 5.76764 0
M  V30 529 H 50.1233 2.13352 6.10811 0
M  V30 530 N 50.2554 -1.46986 0.568584 0
M  V30 531 C 51.2184 -2.28624 -0.162366 0
M  V30 532 C 52.2184 -1.37596 -0.832103 0
M  V30 533 O 53.4084 -1.60115 -0.68622 0
M  V30 534 C 50.5404 -3.17596 -1.23878 0
M  V30 535 H 51.7334 -2.94722 0.554899 0
M  V30 536 H 49.2864 -1.52863 0.325976 0
M  V30 537 H 50.0214 -2.56214 -1.98808 0
M  V30 538 H 49.8064 -3.846 -0.763219 0
M  V30 539 H 51.2964 -3.79078 -1.75185 0
M  V30 540 N 51.7335 -0.305618 -1.54608 0
M  V30 541 C 53.1445 0.186098 -1.8577 0
M  V30 542 C 53.4955 1.53058 -1.22751 0
M  V30 543 O 52.6205 2.09888 -0.526893 0
M  V30 544 C 53.2155 0.344449 -3.37044 0
M  V30 545 C 51.7745 0.780384 -3.68221 0
M  V30 546 C 50.9215 -0.108554 -2.77087 0
M  V30 547 H 53.8725 -0.526485 -1.49712 0
M  V30 548 H 53.8935 1.17828 -3.61796 0
M  V30 549 H 53.4055 -0.634235 -3.82883 0
M  V30 550 H 51.5065 1.76945 -3.27904 0
M  V30 551 H 51.6195 0.596572 -4.75371 0
M  V30 552 H 49.9835 0.412931 -2.5133 0
M  V30 553 H 50.7665 -1.08368 -3.25747 0
M  V30 554 N 53.2116 1.57565 -0.0334293 0
M  V30 555 C 54.6226 1.79746 0.504798 0
M  V30 556 C 54.9736 0.944091 1.71992 0
M  V30 557 O 54.0986 0.155694 2.15839 0
M  V30 558 C 54.6936 3.25997 0.922567 0
M  V30 559 C 53.2526 3.49159 1.40588 0
M  V30 560 C 52.3996 2.74785 0.372633 0
M  V30 561 H 55.3506 1.56565 -0.259436 0
M  V30 562 H 55.3716 3.35945 1.78666 0
M  V30 563 H 54.8836 3.88081 0.0379825 0
M  V30 564 H 52.9846 2.92332 2.31025 0
M  V30 565 H 53.0976 4.57873 1.41028 0
M  V30 566 H 51.4616 2.40391 0.841672 0
M  V30 567 H 52.2446 3.39587 -0.503559 0
M  V30 568 N 54.6897 -0.239769 1.55765 0
M  V30 569 C 55.9377 -0.964892 1.77579 0
M  V30 570 C 56.2587 -1.85582 0.598699 0
M  V30 571 O 55.5287 -1.92075 -0.385226 0
M  V30 572 H 54.1087 -0.359265 0.654933 0
M  V30 573 H 56.7707 -0.256001 1.93211 0
M  V30 574 H 55.8667 -1.58243 2.69009 0
M  V30 575 N 56.1678 -1.49265 -0.50573 0
M  V30 576 C 57.1308 -1.65075 -1.59006 0
M  V30 577 C 58.1308 -0.522768 -1.52065 0
M  V30 578 O 59.3208 -0.789117 -1.55302 0
M  V30 579 C 56.4528 -1.64369 -2.98656 0
M  V30 580 H 57.6458 -2.61784 -1.46319 0
M  V30 581 H 55.1988 -1.38226 -0.729616 0
M  V30 582 H 55.9338 -0.692272 -3.16825 0
M  V30 583 H 55.7188 -2.46282 -3.05103 0
M  V30 584 H 57.2088 -1.78674 -3.77446 0
M  V30 585 N 57.6459 0.756429 -1.3826 0
M  V30 586 C 58.5959 1.86069 -1.31766 0
M  V30 587 C 59.5799 1.59621 -0.202483 0
M  V30 588 O 60.7719 1.7149 -0.438211 0
M  V30 589 C 57.9009 3.23742 -1.1422 0
M  V30 590 C 56.9869 3.56091 -2.30348 0
M  V30 591 N 57.3779 3.59517 -3.55783 0
M  V30 592 C 55.6759 3.86341 -2.22838 0
M  V30 593 C 56.3769 3.89052 -4.32451 0
M  V30 594 N 55.3529 4.05736 -3.61772 0
M  V30 595 H 59.1549 1.86992 -2.26741 0
M  V30 596 H 56.6689 0.953643 -1.31451 0
M  V30 597 H 58.6659 4.02761 -1.07652 0
M  V30 598 H 57.3259 3.24073 -0.201763 0
M  V30 599 H 58.3369 3.41347 -3.89491 0
M  V30 600 H 55.0139 3.94404 -1.36937 0
M  V30 601 H 56.4039 3.98349 -5.4108 0
M  V30 602 N 59.124 1.23083 0.984299 0
M  V30 603 C 60.087 1.00979 2.05757 0
M  V30 604 C 61.087 -0.0269573 1.60777 0
M  V30 605 O 62.277 0.212403 1.729 0
M  V30 606 C 59.409 0.527072 3.36801 0
M  V30 607 H 60.602 1.9622 2.26799 0
M  V30 608 H 58.155 1.05072 1.15714 0
M  V30 609 H 58.89 -0.429294 3.21446 0
M  V30 610 H 58.675 1.27515 3.70786 0
M  V30 611 H 60.165 0.392942 4.15747 0
M  V30 612 N 60.6021 -1.18246 1.0419 0
M  V30 613 C 61.5651 -2.20128 0.638452 0
M  V30 614 C 62.5651 -1.57885 -0.304805 0
M  V30 615 O 63.7551 -1.73967 -0.0900369 0
M  V30 616 C 60.8871 -3.4084 -0.0637751 0
M  V30 617 H 62.0801 -2.57336 1.54007 0
M  V30 618 H 59.6331 -1.32152 0.834598 0
M  V30 619 H 60.3681 -3.09166 -0.979136 0
M  V30 620 H 60.1531 -3.8726 0.614198 0
M  V30 621 H 61.6431 -4.16274 -0.332512 0
M  V30 622 N 62.0802 -0.821533 -1.34494 0
M  V30 623 C 62.9902 -0.244355 -2.33324 0
M  V30 624 C 64.0062 0.620527 -1.62559 0
M  V30 625 O 65.1822 0.528754 -1.94335 0
M  V30 626 C 62.2472 0.585368 -3.41723 0
M  V30 627 C 61.3082 -0.301752 -4.28238 0
M  V30 628 C 60.5412 0.488466 -5.3146 0
M  V30 629 O 60.7642 1.72186 -5.4379 0
M  V30 630 O 59.6982 -0.12848 -6.01763 0
M  V30 631 H 63.5242 -1.06231 -2.84515 0
M  V30 632 H 61.1092 -0.583645 -1.37528 0
M  V30 633 H 62.9912 1.05747 -4.07916 0
M  V30 634 H 61.6662 1.38068 -2.92778 0
M  V30 635 H 60.5732 -0.821315 -3.64973 0
M  V30 636 H 61.9062 -1.06138 -4.8062 0
M  V30 637 N 63.5583 1.46682 -0.576371 0
M  V30 638 C 64.7833 2.07304 -0.0630475 0
M  V30 639 C 65.2083 1.42329 1.2298 0
M  V30 640 O 64.5663 0.504865 1.74129 0
M  V30 641 C 64.6143 3.60472 0.095895 0
M  V30 642 O 63.7183 3.95927 1.15394 0
M  V30 643 H 63.0593 0.661288 -0.0599463 0
M  V30 644 H 65.5893 1.88417 -0.797511 0
M  V30 645 H 65.5993 4.06865 0.304071 0
M  V30 646 H 64.2743 4.07157 -0.84828 0
M  V30 647 H 62.8513 3.61252 0.924724 0
M  V30 648 N 65.0364 0.313813 1.54444 0
M  V30 649 C 66.2644 -0.293918 2.04802 0
M  V30 650 C 66.6794 -1.46537 1.19047 0
M  V30 651 O 66.0364 -1.81182 0.218939 0
M  V30 652 C 66.0874 -0.737806 3.53891 0
M  V30 653 O 65.8084 0.387038 4.36387 0
M  V30 654 C 67.3094 -1.40936 4.203 0
M  V30 655 H 64.5294 -0.0620057 0.668129 0
M  V30 656 H 67.0734 0.457169 1.99324 0
M  V30 657 H 65.2284 -1.43889 3.59687 0
M  V30 658 H 65.6424 0.0391274 5.24485 0
M  V30 659 H 67.1164 -1.67099 5.26101 0
M  V30 660 H 67.5934 -2.35355 3.70816 0
M  V30 661 H 68.1994 -0.751117 4.18615 0
M  V30 662 N 66.5145 -1.57545 0.0417849 0
M  V30 663 C 67.4445 -2.14009 -0.933929 0
M  V30 664 C 68.4255 -1.05938 -1.33083 0
M  V30 665 O 69.6105 -1.33833 -1.40721 0
M  V30 666 C 66.7405 -2.67747 -2.21199 0
M  V30 667 C 65.6945 -3.80718 -1.95544 0
M  V30 668 C 65.0205 -4.20935 -3.29724 0
M  V30 669 C 66.3205 -5.06258 -1.28452 0
M  V30 670 H 68.0145 -2.95788 -0.463645 0
M  V30 671 H 65.5605 -1.42285 -0.221573 0
M  V30 672 H 67.5135 -3.05886 -2.89848 0
M  V30 673 H 66.2375 -1.83147 -2.70416 0
M  V30 674 H 64.8965 -3.43037 -1.2931 0
M  V30 675 H 64.5445 -3.33298 -3.76724 0
M  V30 676 H 64.2445 -4.9707 -3.13361 0
M  V30 677 H 65.7685 -4.61666 -3.9962 0
M  V30 678 H 67.1825 -5.41903 -1.8712 0
M  V30 679 H 65.5795 -5.87475 -1.22445 0
M  V30 680 H 66.6495 -4.84207 -0.259219 0
M  V30 681 N 67.9926 0.231505 -1.5589 0
M  V30 682 C 69.2406 0.955461 -1.78088 0
M  V30 683 C 69.5616 1.85262 -0.608533 0
M  V30 684 O 68.8316 1.92277 0.375035 0
M  V30 685 H 67.4116 0.355787 -0.656829 0
M  V30 686 H 70.0736 0.245751 -1.93344 0
M  V30 687 H 69.1696 1.56814 -2.69844 0
M  V30 688 N 69.4707 1.49531 0.497807 0
M  V30 689 C 70.4337 1.65916 1.58128 0
M  V30 690 C 71.4337 0.530825 1.51786 0
M  V30 691 O 72.6237 0.797342 1.54881 0
M  V30 692 C 69.7557 1.65951 2.9778 0
M  V30 693 H 70.9487 2.62556 1.44929 0
M  V30 694 H 68.5017 1.38611 0.722275 0
M  V30 695 H 69.2367 0.709065 3.16453 0
M  V30 696 H 69.0217 2.47897 3.03792 0
M  V30 697 H 70.5117 1.80673 3.76493 0
M  V30 698 N 70.9488 -0.749086 1.3866 0
M  V30 699 C 71.9118 -1.84457 1.36045 0
M  V30 700 C 72.9118 -1.58682 0.260122 0
M  V30 701 O 74.1018 -1.66343 0.517261 0
M  V30 702 C 71.2338 -3.22008 1.11911 0
M  V30 703 H 72.4268 -1.88182 2.33512 0
M  V30 704 H 69.9798 -0.951266 1.24019 0
M  V30 705 H 70.7148 -3.2395 0.150686 0
M  V30 706 H 70.4998 -3.42111 1.91579 0
M  V30 707 H 71.9898 -4.0208 1.12788 0
M  V30 708 N 72.4269 -1.23603 -0.977757 0
M  V30 709 C 73.3899 -1.02069 -2.05218 0
M  V30 710 C 74.3899 0.0184305 -1.60789 0
M  V30 711 O 75.5799 -0.221569 -1.72785 0
M  V30 712 C 72.7119 -0.544926 -3.36517 0
M  V30 713 H 73.9049 -1.9742 -2.25755 0
M  V30 714 H 71.4579 -1.05684 -1.15155 0
M  V30 715 H 72.1929 0.412241 -3.21669 0
M  V30 716 H 71.9779 -1.2948 -3.70105 0
M  V30 717 H 73.4679 -0.414985 -4.15533 0
M  V30 718 N 73.905 1.17692 -1.04816 0
M  V30 719 C 74.868 2.19787 -0.650117 0
M  V30 720 C 75.868 1.58044 0.296427 0
M  V30 721 O 77.058 1.74012 0.0808097 0
M  V30 722 C 74.19 3.40869 0.0456987 0
M  V30 723 H 75.383 2.56516 -1.5537 0
M  V30 724 H 72.936 1.31708 -0.841594 0
M  V30 725 H 73.671 3.09681 0.962726 0
M  V30 726 H 73.456 3.86928 -0.634727 0
M  V30 727 H 74.946 4.16445 0.310432 0
M  V30 728 N 75.3831 0.828654 1.34056 0
M  V30 729 C 76.3151 0.212052 2.28217 0
M  V30 730 C 77.3281 -0.601362 1.51286 0
M  V30 731 O 78.5171 -0.430104 1.73241 0
M  V30 732 C 75.6171 -0.72088 3.31144 0
M  V30 733 C 74.7901 0.0509587 4.3737 0
M  V30 734 C 73.8491 -0.803766 5.20025 0
M  V30 735 O 72.8751 -0.246667 5.68665 0
M  V30 736 N 74.0771 -2.1227 5.40298 0
M  V30 737 H 76.8421 1.02105 2.81771 0
M  V30 738 H 74.4031 0.686153 1.46641 0
M  V30 739 H 76.3951 -1.29742 3.8334 0
M  V30 740 H 74.9651 -1.43061 2.77943 0
M  V30 741 H 74.1851 0.808831 3.85813 0
M  V30 742 H 75.4731 0.582065 5.0546 0
M  V30 743 H 74.8711 -2.59898 5.02464 0
M  V30 744 H 73.4281 -2.64796 5.95589 0
M  V30 745 N 76.8612 -1.46375 0.584142 0
M  V30 746 C 78.0862 -2.07268 0.0740405 0
M  V30 747 C 78.5112 -1.42979 -1.22223 0
M  V30 748 O 77.8692 -0.514092 -1.73859 0
M  V30 749 C 77.9172 -3.60518 -0.0767769 0
M  V30 750 O 77.0212 -3.96533 -1.13292 0
M  V30 751 H 76.3622 -0.660961 0.0634524 0
M  V30 752 H 78.8922 -1.87991 0.807492 0
M  V30 753 H 78.9022 -4.07021 -0.282489 0
M  V30 754 H 77.5772 -4.06702 0.86986 0
M  V30 755 H 76.1542 -3.61738 -0.905553 0
M  V30 756 N 78.3393 -0.321999 -1.54275 0
M  V30 757 C 79.5873 0.280489 -2.00144 0
M  V30 758 C 79.9083 1.52777 -1.21178 0
M  V30 759 O 79.1783 1.9338 -0.313187 0
M  V30 760 H 77.7583 0.106632 -0.73935 0
M  V30 761 H 80.4203 -0.438184 -1.8991 0
M  V30 762 H 79.5163 0.537972 -3.07428 0
M  V30 763 N 79.8174 1.5752 -0.0501392 0
M  V30 764 C 81.2334 1.56631 0.306402 0
M  V30 765 C 81.4334 1.0577 1.71508 0
M  V30 766 O 80.4894 0.713837 2.422 0
M  V30 767 C 81.8024 3.00393 0.135811 0
M  V30 768 C 83.3504 3.12315 0.206993 0
M  V30 769 C 83.8254 4.57954 0.064944 0
M  V30 770 N 85.3164 4.63041 0.121254 0
M  V30 771 C 86.0514 5.73389 0.0354381 0
M  V30 772 N 85.5474 6.92724 -0.102666 0
M  V30 773 N 87.3404 5.62026 0.090946 0
M  V30 774 H 79.4914 1.88903 -0.971046 0
M  V30 775 H 81.7544 0.869876 -0.376855 0
M  V30 776 H 81.4604 3.41635 -0.835384 0
M  V30 777 H 81.3344 3.66373 0.897275 0
M  V30 778 H 83.7214 2.70973 1.16866 0
M  V30 779 H 83.8024 2.49016 -0.585208 0
M  V30 780 H 83.4464 4.99981 -0.893394 0
M  V30 781 H 83.3764 5.19258 0.876277 0
M  V30 782 H 85.8674 3.77216 0.227284 0
M  V30 783 H 86.1804 7.72633 -0.160882 0
M  V30 784 H 84.5254 6.94864 -0.137737 0
M  V30 785 H 87.7164 4.67684 0.197388 0
M  V30 786 H 87.8894 6.47997 0.0206089 0
M  V30 787 N 81.2955 -0.223234 1.56011 0
M  V30 788 C 82.5255 -0.963413 1.82762 0
M  V30 789 C 82.9335 -1.78516 0.626804 0
M  V30 790 O 82.2765 -1.78974 -0.414014 0
M  V30 791 C 82.3385 -1.93126 3.0322 0
M  V30 792 C 82.0025 -1.2942 4.38291 0
M  V30 793 C 82.9995 -0.684916 5.15369 0
M  V30 794 C 80.6845 -1.30647 4.85012 0
M  V30 795 C 82.6785 -0.0963971 6.37327 0
M  V30 796 C 80.3655 -0.71411 6.06913 0
M  V30 797 C 81.3635 -0.110123 6.82911 0
M  V30 798 O 81.0515 0.47303 8.02507 0
M  V30 799 H 80.7835 -0.288011 0.611576 0
M  V30 800 H 83.3375 -0.244103 2.03944 0
M  V30 801 H 81.5675 -2.68952 2.77852 0
M  V30 802 H 83.2565 -2.53685 3.16857 0
M  V30 803 H 84.0225 -0.667774 4.80381 0
M  V30 804 H 79.9015 -1.76598 4.25833 0
M  V30 805 H 83.4455 0.375657 6.96588 0
M  V30 806 H 79.3425 -0.728659 6.41374 0
M  V30 807 H 80.1105 0.367186 8.17676 0
M  V30 808 N 82.7736 -1.49793 -0.48987 0
M  V30 809 C 84.0206 -1.59841 -1.24327 0
M  V30 810 C 84.3486 -0.290135 -1.92324 0
M  V30 811 O 83.6036 0.722749 -1.81865 0
M  V30 812 C 83.9026 -2.71488 -2.32441 0
M  V30 813 C 83.5686 -4.12614 -1.81826 0
M  V30 814 C 82.2306 -4.51017 -1.67742 0
M  V30 815 C 84.5826 -5.00892 -1.4407 0
M  V30 816 C 81.9106 -5.75459 -1.14297 0
M  V30 817 C 84.2626 -6.25863 -0.920742 0
M  V30 818 C 82.9266 -6.63086 -0.766383 0
M  V30 819 H 82.1966 -0.584899 -0.454944 0
M  V30 820 H 84.8436 -1.83663 -0.542215 0
M  V30 821 H 83.1486 -2.4168 -3.0838 0
M  V30 822 H 84.8456 -2.76469 -2.90458 0
M  V30 823 H 81.4356 -3.82307 -1.93751 0
M  V30 824 H 85.6196 -4.7187 -1.53794 0
M  V30 825 H 80.8756 -6.02989 -1.01068 0
M  V30 826 H 85.0496 -6.9364 -0.619448 0
M  V30 827 H 82.6766 -7.59393 -0.350083 0
M  V30 828 N 84.2517 0.741722 -1.39055 0
M  V30 829 C 85.4997 1.49818 -1.35643 0
M  V30 830 C 85.8207 1.94938 0.0491642 0
M  V30 831 O 85.0907 1.68505 0.999141 0
M  V30 832 H 83.6707 0.555755 -0.499144 0
M  V30 833 H 86.3327 0.880957 -1.73854 0
M  V30 834 H 85.4287 2.38348 -2.01486 0
M  V30 835 N 85.7298 1.2412 0.971189 0
M  V30 836 C 86.9578 1.10575 1.74874 0
M  V30 837 C 87.3728 -0.342017 1.85676 0
M  V30 838 O 86.7298 -1.23617 1.34258 0
M  V30 839 C 86.7808 1.73579 3.171 0
M  V30 840 O 86.5018 3.12695 3.06844 0
M  V30 841 C 88.0028 1.65598 4.11208 0
M  V30 842 H 85.2228 0.386504 0.548503 0
M  V30 843 H 87.7668 1.64156 1.21955 0
M  V30 844 H 85.9218 1.24009 3.67016 0
M  V30 845 H 86.3358 3.43412 3.96445 0
M  V30 846 H 87.8098 2.1437 5.08674 0
M  V30 847 H 88.2868 0.616532 4.34851 0
M  V30 848 H 88.8928 2.14578 3.67201 0
M  V30 849 N 87.2079 -1.17134 1.05439 0
M  V30 850 C 88.1709 -2.19439 0.661764 0
M  V30 851 C 89.1709 -1.58199 -0.288042 0
M  V30 852 O 90.3609 -1.74053 -0.0715803 0
M  V30 853 C 87.4929 -3.40889 -0.0276209 0
M  V30 854 H 88.6859 -2.55688 1.56728 0
M  V30 855 H 86.2389 -1.31259 0.848567 0
M  V30 856 H 86.9739 -3.10187 -0.94629 0
M  V30 857 H 86.7589 -3.86586 0.655238 0
M  V30 858 H 88.2489 -4.16603 -0.288342 0
M  V30 859 N 88.686 -0.835752 -1.33615 0
M  V30 860 C 89.935 -0.426289 -1.97144 0
M  V30 861 C 90.248 1.01912 -1.66953 0
M  V30 862 O 91.454 1.53311 -2.24072 0
M  V30 863 C 89.91 -0.711321 -3.52801 0
M  V30 864 C 89.518 -2.1712 -3.91871 0
M  V30 865 C 91.262 -0.368654 -4.22896 0
M  V30 866 C 89.169 -2.40044 -5.40493 0
M  V30 867 H 88.099 -0.15567 -0.737755 0
M  V30 868 H 90.75 -1.0239 -1.52278 0
M  V30 869 H 89.132 -0.0433766 -3.95976 0
M  V30 870 H 90.306 -2.87936 -3.59763 0
M  V30 871 H 88.621 -2.47654 -3.34749 0
M  V30 872 H 91.218 -0.517601 -5.32189 0
M  V30 873 H 91.561 0.688078 -4.10574 0
M  V30 874 H 92.094 -0.991702 -3.8524 0
M  V30 875 H 88.833 -3.44271 -5.57815 0
M  V30 876 H 88.353 -1.73785 -5.74072 0
M  V30 877 H 90.032 -2.23042 -6.0734 0
M  V30 878 N 90.1641 1.46063 -0.591896 0
M  V30 879 C 91.1271 2.28854 0.125973 0
M  V30 880 C 92.1271 1.38903 0.810107 0
M  V30 881 O 93.3171 1.61186 0.66066 0
M  V30 882 C 90.4491 3.19526 1.1881 0
M  V30 883 H 91.6421 2.93802 -0.601717 0
M  V30 884 H 89.1951 1.52325 -0.350254 0
M  V30 885 H 89.9301 2.59345 1.94707 0
M  V30 886 H 89.7151 3.85766 0.701936 0
M  V30 887 H 91.2051 3.81817 1.69132 0
M  V30 888 N 91.6422 0.330177 1.54103 0
M  V30 889 C 92.8672 -0.274893 2.0557 0
M  V30 890 C 93.2922 -1.44487 1.20437 0
M  V30 891 O 92.6502 -1.80021 0.214991 0
M  V30 892 C 92.6982 -0.68079 3.54115 0
M  V30 893 O 91.8022 -1.7824 3.71893 0
M  V30 894 H 91.1432 -0.0483849 0.662235 0
M  V30 895 H 93.6732 0.480508 1.98878 0
M  V30 896 H 93.6832 -0.961635 3.96505 0
M  V30 897 H 92.3582 0.174903 4.15532 0
M  V30 898 H 90.9352 -1.49985 3.41407 0
M  V30 899 N 93.1203 -1.57491 0.0584922 0
M  V30 900 C 94.3683 -1.92597 -0.612436 0
M  V30 901 C 94.6893 -0.938162 -1.70949 0
M  V30 902 O 93.9593 0.0158301 -1.95894 0
M  V30 903 H 92.5393 -0.710964 -0.229214 0
M  V30 904 H 95.2013 -1.94571 0.113218 0
M  V30 905 H 94.2973 -2.94038 -1.04633 0
M  V30 906 N 94.5984 0.214957 -1.56127 0
M  V30 907 C 96.0144 0.564948 -1.49267 0
M  V30 908 C 96.2144 1.86827 -0.754838 0
M  V30 909 O 95.2704 2.50745 -0.297198 0
M  V30 910 C 96.5834 0.638071 -2.93852 0
M  V30 911 C 98.1314 0.728253 -3.0441 0
M  V30 912 C 98.6064 0.832663 -4.50367 0
M  V30 913 N 100.097 0.896712 -4.54437 0
M  V30 914 C 100.832 0.997324 -5.6466 0
M  V30 915 N 100.328 1.06147 -6.8462 0
M  V30 916 N 102.121 1.03297 -5.52527 0
M  V30 917 H 94.2724 -0.640211 -2.02522 0
M  V30 918 H 96.5354 -0.225507 -0.920788 0
M  V30 919 H 96.2414 -0.250126 -3.50809 0
M  V30 920 H 96.1154 1.49947 -3.46115 0
M  V30 921 H 98.5024 1.60689 -2.47514 0
M  V30 922 H 98.5834 -0.158952 -2.55306 0
M  V30 923 H 98.2274 -0.0415417 -5.07883 0
M  V30 924 H 98.1574 1.73538 -4.97184 0
M  V30 925 H 100.648 0.857188 -3.6805 0
M  V30 926 H 100.961 1.1382 -7.64372 0
M  V30 927 H 99.3064 1.03049 -6.87318 0
M  V30 928 H 102.497 0.979558 -4.57736 0
M  V30 929 H 102.67 1.10793 -6.38458 0
M  V30 930 N 96.0765 1.50051 0.48192 0
M  V30 931 C 97.0065 1.71046 1.58951 0
M  V30 932 C 97.9875 0.559288 1.60642 0
M  V30 933 O 99.1725 0.797243 1.77081 0
M  V30 934 C 96.3025 1.79462 2.97339 0
M  V30 935 C 95.2565 2.94558 3.10515 0
M  V30 936 C 94.5825 2.88105 4.50444 0
M  V30 937 C 95.8825 4.35227 2.88747 0
M  V30 938 H 97.5765 2.6378 1.41635 0
M  V30 939 H 95.1225 1.26936 0.679942 0
M  V30 940 H 97.0755 1.92734 3.74742 0
M  V30 941 H 95.7995 0.833412 3.15788 0
M  V30 942 H 94.4585 2.80918 2.35543 0
M  V30 943 H 94.1065 1.89853 4.65795 0
M  V30 944 H 93.8065 3.65366 4.60197 0
M  V30 945 H 95.3305 3.03412 5.29881 0
M  V30 946 H 96.7445 4.49449 3.55905 0
M  V30 947 H 95.1415 5.13856 3.09955 0
M  V30 948 H 96.2115 4.48347 1.84696 0
M  V30 949 N 97.5546 -0.734337 1.39446 0
M  V30 950 C 98.7796 -1.52866 1.40167 0
M  V30 951 C 99.2046 -1.881 -0.00171513 0
M  V30 952 O 98.5626 -1.51957 -0.988879 0
M  V30 953 C 98.6106 -2.79235 2.28167 0
M  V30 954 O 97.7146 -3.75185 1.71201 0
M  V30 955 H 97.0556 -0.461618 0.477289 0
M  V30 956 H 99.5856 -0.905949 1.8345 0
M  V30 957 H 99.5956 -3.27963 2.42702 0
M  V30 958 H 98.2706 -2.52923 3.30156 0
M  V30 959 H 96.8476 -3.33958 1.65912 0
M  V30 960 N 99.0327 -1.24633 -0.964593 0
M  V30 961 C 100.31 -0.995809 -1.68354 0
M  V30 962 C 100.69 0.480964 -2.05548 0
M  V30 963 O 100.038 1.45599 -1.76105 0
M  V30 964 C 100.248 -1.92177 -2.91323 0
M  V30 965 C 101.596 -2.19446 -3.63495 0
M  V30 966 O 102.62 -1.89855 -3.01386 0
M  V30 967 O 101.479 -2.69714 -4.75307 0
M  V30 968 H 98.5727 -0.376854 -0.736146 0
M  V30 969 H 101.119 -1.35745 -1.0184 0
M  V30 970 H 99.8907 -2.91938 -2.60553 0
M  V30 971 H 99.5137 -1.56349 -3.65569 0
M  V30 972 N 100.511 1.16574 -1.06058 0
M  V30 973 C 101.736 1.91493 -0.796562 0
M  V30 974 C 102.161 1.76773 0.642868 0
M  V30 975 O 101.519 1.09142 1.44768 0
M  V30 976 C 101.567 3.40293 -1.19303 0
M  V30 977 O 100.671 4.11074 -0.330394 0
M  V30 978 H 100.012 0.596678 -0.291326 0
M  V30 979 H 102.542 1.47708 -1.41575 0
M  V30 980 H 102.552 3.91057 -1.16356 0
M  V30 981 H 101.227 3.50326 -2.24153 0
M  V30 982 H 99.8038 3.70513 -0.421225 0
M  V30 983 N 101.989 0.842826 1.3317 0
M  V30 984 C 103.217 0.454055 2.01856 0
M  V30 985 C 103.632 -0.94587 1.63397 0
M  V30 986 O 102.989 -1.61534 0.849302 0
M  V30 987 C 103.04 0.569715 3.56982 0
M  V30 988 O 102.761 1.91448 3.94055 0
M  V30 989 C 104.262 0.178412 4.42941 0
M  V30 990 H 101.482 0.17979 0.646465 0
M  V30 991 H 104.026 1.1365 1.70012 0
M  V30 992 H 102.181 -0.0648587 3.87346 0
M  V30 993 H 102.595 1.90282 4.88767 0
M  V30 994 H 104.069 0.310376 5.51127 0
M  V30 995 H 104.546 -0.880056 4.30293 0
M  V30 996 H 105.152 0.787579 4.17944 0
M  V30 997 N 103.467 -1.45747 0.599634 0
M  V30 998 C 104.697 -2.06369 0.0977132 0
M  V30 999 C 105.105 -1.44624 -1.21985 0
M  V30 1000 O 104.448 -0.551831 -1.75216 0
M  V30 1001 C 104.51 -3.59284 -0.124673 0
M  V30 1002 C 104.174 -4.43318 1.10987 0
M  V30 1003 C 105.171 -4.78796 2.02609 0
M  V30 1004 C 102.856 -4.84194 1.33647 0
M  V30 1005 C 104.85 -5.53997 3.15224 0
M  V30 1006 C 102.537 -5.5915 2.46565 0
M  V30 1007 C 103.535 -5.93968 3.37182 0
M  V30 1008 O 103.223 -6.67405 4.48136 0
M  V30 1009 H 102.955 -0.673122 0.0623153 0
M  V30 1010 H 105.509 -1.88104 0.824981 0
M  V30 1011 H 103.739 -3.75919 -0.906745 0
M  V30 1012 H 105.428 -4.01775 -0.577201 0
M  V30 1013 H 106.194 -4.47781 1.86325 0
M  V30 1014 H 102.073 -4.56534 0.64016 0
M  V30 1015 H 105.617 -5.81091 3.85978 0
M  V30 1016 H 101.514 -5.89579 2.62805 0
M  V30 1017 H 102.282 -6.85847 4.46717 0
M  V30 1018 N 104.945 -0.338344 -1.53925 0
M  V30 1019 C 106.173 0.261298 -2.05243 0
M  V30 1020 C 106.588 1.44625 -1.21363 0
M  V30 1021 O 105.945 1.80811 -0.247736 0
M  V30 1022 C 105.996 0.681412 -3.5502 0
M  V30 1023 O 105.717 -0.456414 -4.35716 0
M  V30 1024 C 107.218 1.34232 -4.22489 0
M  V30 1025 H 104.438 0.0513685 -0.669031 0
M  V30 1026 H 106.982 -0.488822 -1.98572 0
M  V30 1027 H 105.137 1.38148 -3.61931 0
M  V30 1028 H 105.551 -0.122564 -5.24357 0
M  V30 1029 H 107.025 1.58708 -5.28693 0
M  V30 1030 H 107.502 2.29426 -3.74514 0
M  V30 1031 H 108.108 0.684424 -4.19757 0
M  V30 1032 N 106.423 1.57458 -0.0668435 0
M  V30 1033 C 107.648 1.9804 0.616027 0
M  V30 1034 C 108.073 0.944771 1.62652 0
M  V30 1035 O 107.431 -0.0902094 1.81075 0
M  V30 1036 C 107.479 3.37665 1.26549 0
M  V30 1037 O 106.583 3.36701 2.38131 0
M  V30 1038 H 105.924 0.644719 0.158849 0
M  V30 1039 H 108.454 2.04121 -0.139891 0
M  V30 1040 H 108.464 3.7474 1.6135 0
M  V30 1041 H 107.139 4.12573 0.525016 0
M  V30 1042 H 105.716 3.1139 2.0516 0
M  V30 1043 N 107.901 -0.206675 1.56239 0
M  V30 1044 C 109.15 -0.926964 1.79138 0
M  V30 1045 C 109.463 -1.84901 0.638043 0
M  V30 1046 O 110.669 -2.60906 0.751033 0
M  V30 1047 C 109.125 -1.6986 3.17294 0
M  V30 1048 C 108.733 -0.821956 4.40395 0
M  V30 1049 C 110.477 -2.40922 3.4951 0
M  V30 1050 C 108.384 -1.59179 5.69575 0
M  V30 1051 H 107.314 -0.349864 0.667915 0
M  V30 1052 H 109.965 -0.180487 1.8261 0
M  V30 1053 H 108.347 -2.48853 3.08039 0
M  V30 1054 H 109.521 -0.0715019 4.60745 0
M  V30 1055 H 107.836 -0.222741 4.15804 0
M  V30 1056 H 110.433 -2.99047 4.43255 0
M  V30 1057 H 110.776 -3.14542 2.72707 0
M  V30 1058 H 111.309 -1.68905 3.60161 0
M  V30 1059 H 108.048 -0.898589 6.49312 0
M  V30 1060 H 107.568 -2.31648 5.53262 0
M  V30 1061 H 109.247 -2.14862 6.10281 0
M  V30 1062 N 109.379 -1.50304 -0.473955 0
M  V30 1063 C 110.342 -1.6841 -1.55469 0
M  V30 1064 C 111.342 -0.554905 -1.50922 0
M  V30 1065 O 112.532 -0.821882 -1.53593 0
M  V30 1066 C 109.664 -1.70667 -2.95102 0
M  V30 1067 H 110.857 -2.64828 -1.40733 0
M  V30 1068 H 108.41 -1.39742 -0.700132 0
M  V30 1069 H 109.145 -0.75932 -3.15285 0
M  V30 1070 H 108.93 -2.52698 -2.9981 0
M  V30 1071 H 110.42 -1.8664 -3.73571 0
M  V30 1072 N 110.857 0.726932 -1.39834 0
M  V30 1073 C 112.105 1.4837 -1.37225 0
M  V30 1074 C 112.426 1.94979 0.0284857 0
M  V30 1075 O 111.696 1.69555 0.981213 0
M  V30 1076 H 110.276 0.55043 -0.505011 0
M  V30 1077 H 112.938 0.862468 -1.74778 0
M  V30 1078 H 112.034 2.36198 -2.04003 0
M  V30 1079 N 112.336 1.25143 0.95797 0
M  V30 1080 C 113.752 1.01892 1.22842 0
M  V30 1081 C 113.952 -0.266311 1.99732 0
M  V30 1082 O 113.008 -0.979913 2.3271 0
M  V30 1083 C 114.321 2.24004 2.00606 0
M  V30 1084 C 115.869 2.28731 2.13662 0
M  V30 1085 C 116.344 3.5049 2.94823 0
M  V30 1086 N 117.835 3.50866 3.02403 0
M  V30 1087 C 118.57 4.4174 3.65586 0
M  V30 1088 N 118.066 5.42882 4.30408 0
M  V30 1089 N 119.859 4.29429 3.62694 0
M  V30 1090 H 112.01 2.07718 0.443493 0
M  V30 1091 H 114.273 0.912031 0.258657 0
M  V30 1092 H 113.979 3.17395 1.51503 0
M  V30 1093 H 113.853 2.26907 3.01319 0
M  V30 1094 H 116.24 1.35865 2.61963 0
M  V30 1095 H 116.321 2.29848 1.12265 0
M  V30 1096 H 115.965 4.43676 2.47213 0
M  V30 1097 H 115.895 3.46617 3.96439 0
M  V30 1098 H 118.386 2.777 2.56302 0
M  V30 1099 H 118.699 6.0844 4.76467 0
M  V30 1100 H 117.044 5.46758 4.29047 0
M  V30 1101 H 120.235 3.49643 3.11236 0
M  V30 1102 H 120.408 5.00448 4.1165 0
M  V30 1103 N 113.814 -1.1601 1.06675 0
M  V30 1104 C 114.724 -2.24156 0.692179 0
M  V30 1105 C 115.74 -1.71507 -0.293513 0
M  V30 1106 O 116.916 -2.009 -0.141861 0
M  V30 1107 C 113.981 -3.46587 0.0884131 0
M  V30 1108 C 113.042 -4.14257 1.12646 0
M  V30 1109 C 112.275 -5.30844 0.551416 0
M  V30 1110 O 112.498 -5.66858 -0.634656 0
M  V30 1111 O 111.432 -5.87848 1.29298 0
M  V30 1112 H 115.258 -2.58513 1.59388 0
M  V30 1113 H 112.843 -1.23599 0.83926 0
M  V30 1114 H 114.725 -4.20679 -0.246361 0
M  V30 1115 H 113.4 -3.13994 -0.786712 0
M  V30 1116 H 112.307 -3.42118 1.51348 0
M  V30 1117 H 113.64 -4.50914 1.97325 0
M  V30 1118 N 115.292 -0.849877 -1.32721 0
M  V30 1119 C 116.539 -0.450923 -1.97416 0
M  V30 1120 C 116.867 0.992376 -1.67279 0
M  V30 1121 O 116.122 1.71048 -0.950845 0
M  V30 1122 C 116.421 -0.631272 -3.51781 0
M  V30 1123 C 116.087 -2.04432 -4.01894 0
M  V30 1124 C 114.749 -2.4308 -4.1529 0
M  V30 1125 C 117.101 -2.96679 -4.28522 0
M  V30 1126 C 114.429 -3.73257 -4.52654 0
M  V30 1127 C 116.781 -4.26349 -4.67343 0
M  V30 1128 C 115.445 -4.64939 -4.78945 0
M  V30 1129 H 114.715 -0.165004 -0.722395 0
M  V30 1130 H 117.362 -1.07901 -1.58207 0
M  V30 1131 H 115.667 0.0800767 -3.91718 0
M  V30 1132 H 117.364 -0.302709 -3.99856 0
M  V30 1133 H 113.954 -1.73419 -3.91949 0
M  V30 1134 H 118.138 -2.68054 -4.17685 0
M  V30 1135 H 113.394 -4.02946 -4.59831 0
M  V30 1136 H 117.568 -4.97895 -4.86902 0
M  V30 1137 H 115.195 -5.65855 -5.07654 0
M  V30 1138 N 116.77 1.45427 -0.607355 0
M  V30 1139 C 117.718 2.32269 0.12411 0
M  V30 1140 C 118.712 1.45955 0.859854 0
M  V30 1141 O 119.918 1.6244 0.775447 0
M  V30 1142 H 116.293 0.749691 0.0588839 0
M  V30 1143 H 118.264 2.91743 -0.626762 0
M  V30 1144 C 117.013 3.29567 1.1082 0
M  V30 1145 H 116.336 3.95978 0.551492 0
M  V30 1146 H 117.776 3.93061 1.58995 0
M  V30 1147 C 116.235 2.56722 2.18164 0
M  V30 1148 O 116.765 2.34842 3.25902 0
M  V30 1149 N 114.971 2.16861 1.93442 0
M  V30 1150 H 114.518 2.34855 1.05834 0
M  V30 1151 H 114.476 1.68444 2.65469 0
M  V30 1152 N 118.248 0.346503 1.53744 0
M  V30 1153 C 119.181 -0.552023 2.21423 0
M  V30 1154 C 120.159 -1.09798 1.19929 0
M  V30 1155 O 121.343 -1.1577 1.4876 0
M  V30 1156 C 118.47 -1.75972 2.89398 0
M  V30 1157 C 117.516 -1.34295 4.04805 0
M  V30 1158 S 118.349 -0.360263 5.34287 0
M  V30 1159 C 119.505 -1.57473 6.05767 0
M  V30 1160 H 119.738 0.0228119 2.97291 0
M  V30 1161 H 117.271 0.130579 1.53847 0
M  V30 1162 H 119.229 -2.45256 3.2918 0
M  V30 1163 H 117.89 -2.30578 2.1329 0
M  V30 1164 H 117.083 -2.24349 4.51313 0
M  V30 1165 H 116.685 -0.729555 3.66815 0
M  V30 1166 H 118.977 -2.50875 6.29339 0
M  V30 1167 H 119.92 -1.15138 6.98676 0
M  V30 1168 H 120.328 -1.77212 5.35963 0
M  V30 1169 N 119.726 -1.57421 0.075193 0
M  V30 1170 C 120.972 -1.93905 -0.594025 0
M  V30 1171 C 121.305 -0.955701 -1.69056 0
M  V30 1172 O 120.58 0.0145373 -1.94495 0
M  V30 1173 C 120.863 -3.40638 -1.1678 0
M  V30 1174 C 120.716 -4.49733 -0.0776792 0
M  V30 1175 C 122.035 -3.88259 -2.07228 0
M  V30 1176 H 119.154 -0.705105 -0.214466 0
M  V30 1177 H 121.796 -1.8947 0.141854 0
M  V30 1178 H 119.946 -3.44549 -1.79494 0
M  V30 1179 H 121.618 -4.57942 0.555573 0
M  V30 1180 H 119.861 -4.29751 0.591286 0
M  V30 1181 H 120.532 -5.49549 -0.519603 0
M  V30 1182 H 123.008 -3.86376 -1.54445 0
M  V30 1183 H 121.884 -4.91533 -2.44308 0
M  V30 1184 H 122.145 -3.26396 -2.98191 0
M  V30 1185 N 121.204 0.198386 -1.56346 0
M  V30 1186 C 122.432 0.935572 -1.84539 0
M  V30 1187 C 122.847 1.76989 -0.657281 0
M  V30 1188 O 122.204 1.78626 0.374043 0
M  V30 1189 C 122.255 1.8344 -3.11499 0
M  V30 1190 O 121.976 1.03377 -4.25728 0
M  V30 1191 C 123.477 2.68355 -3.52846 0
M  V30 1192 H 120.697 0.273126 -0.612897 0
M  V30 1193 H 123.241 0.20663 -2.03453 0
M  V30 1194 H 121.396 2.51701 -2.94492 0
M  V30 1195 H 121.81 1.64599 -4.98003 0
M  V30 1196 H 123.284 3.27085 -4.44657 0
M  V30 1197 H 123.761 3.41901 -2.75681 0
M  V30 1198 H 124.367 2.05471 -3.72373 0
M  V30 1199 N 122.682 1.50554 0.465978 0
M  V30 1200 C 123.645 1.69233 1.54574 0
M  V30 1201 C 124.645 0.562901 1.50626 0
M  V30 1202 O 125.835 0.830016 1.53155 0
M  V30 1203 C 122.967 1.7223 2.94193 0
M  V30 1204 H 124.16 2.65571 1.39327 0
M  V30 1205 H 121.713 1.40111 0.692711 0
M  V30 1206 H 122.448 0.77603 3.14878 0
M  V30 1207 H 122.233 2.54285 2.98466 0
M  V30 1208 H 123.723 1.88618 3.72576 0
M  V30 1209 N 124.16 -0.719506 1.40217 0
M  V30 1210 C 125.07 -1.86378 1.42479 0
M  V30 1211 C 126.086 -1.71073 0.317834 0
M  V30 1212 O 127.262 -1.93406 0.561794 0
M  V30 1213 C 124.327 -3.22136 1.28178 0
M  V30 1214 C 123.388 -3.49723 2.48982 0
M  V30 1215 C 122.621 -4.79004 2.35353 0
M  V30 1216 O 122.844 -5.53821 1.36524 0
M  V30 1217 O 121.778 -5.06839 3.2465 0
M  V30 1218 H 125.604 -1.87425 2.38968 0
M  V30 1219 H 123.189 -0.869405 1.21498 0
M  V30 1220 H 125.071 -4.03234 1.22395 0
M  V30 1221 H 123.746 -3.21825 0.347934 0
M  V30 1222 H 122.653 -2.6865 2.60342 0
M  V30 1223 H 123.986 -3.54828 3.41113 0
M  V30 1224 N 125.638 -1.25649 -0.95132 0
M  V30 1225 C 126.586 -1.06118 -2.06982 0
M  V30 1226 C 127.58 0.00889169 -1.69398 0
M  V30 1227 O 128.786 -0.146988 -1.79399 0
M  V30 1228 H 125.161 -0.326248 -0.677544 0
M  V30 1229 H 127.132 -2.00932 -2.2061 0
M  V30 1230 C 125.881 -0.700145 -3.40578 0
M  V30 1231 H 125.204 -1.51537 -3.69968 0
M  V30 1232 H 126.644 -0.603211 -4.19687 0
M  V30 1233 C 125.103 0.59403 -3.31622 0
M  V30 1234 O 125.633 1.63522 -3.66911 0
M  V30 1235 N 123.839 0.58089 -2.84735 0
M  V30 1236 H 123.386 -0.266783 -2.56215 0
M  V30 1237 H 123.344 1.44695 -2.79125 0
M  V30 1238 N 127.117 1.15442 -1.07289 0
M  V30 1239 C 128.027 2.23786 -0.704057 0
M  V30 1240 C 129.043 1.7166 0.284413 0
M  V30 1241 O 130.219 2.00972 0.131205 0
M  V30 1242 C 127.284 3.46535 -0.106792 0
M  V30 1243 C 126.345 4.13654 -1.14842 0
M  V30 1244 C 125.578 5.30544 -0.57956 0
M  V30 1245 O 125.801 5.67187 0.604585 0
M  V30 1246 O 124.735 5.87154 -1.32414 0
M  V30 1247 H 128.561 2.57664 -1.60757 0
M  V30 1248 H 126.146 1.23152 -0.845803 0
M  V30 1249 H 128.028 4.20804 0.224048 0
M  V30 1250 H 126.703 3.14407 0.770049 0
M  V30 1251 H 125.61 3.4131 -1.5316 0
M  V30 1252 H 126.943 4.49861 -1.99714 0
M  V30 1253 N 128.595 0.856903 1.32268 0
M  V30 1254 C 129.528 0.247937 2.26849 0
M  V30 1255 C 130.506 -0.615382 1.50505 0
M  V30 1256 O 131.69 -0.571689 1.79622 0
M  V30 1257 C 128.817 -0.650093 3.32403 0
M  V30 1258 C 127.863 0.140138 4.2627 0
M  V30 1259 S 128.696 1.51004 5.13769 0
M  V30 1260 C 129.852 0.61778 6.22844 0
M  V30 1261 H 130.085 1.04971 2.78152 0
M  V30 1262 H 127.618 0.654665 1.39834 0
M  V30 1263 H 129.576 -1.16256 3.93694 0
M  V30 1264 H 128.237 -1.4257 2.7988 0
M  V30 1265 H 127.43 -0.543945 5.01056 0
M  V30 1266 H 127.032 0.584267 3.69408 0
M  V30 1267 H 129.324 -0.177053 6.77269 0
M  V30 1268 H 130.267 1.33636 6.95375 0
M  V30 1269 H 130.675 0.191124 5.64176 0
M  V30 1270 N 130.073 -1.45103 0.615059 0
M  V30 1271 C 131.02 -2.30586 -0.0993978 0
M  V30 1272 C 131.99 -1.42544 -0.852669 0
M  V30 1273 O 133.175 -1.71465 -0.836917 0
M  V30 1274 C 130.315 -3.27572 -1.08583 0
M  V30 1275 C 129.428 -4.30717 -0.332656 0
M  V30 1276 C 128.563 -5.14807 -1.30947 0
M  V30 1277 C 127.602 -6.09673 -0.544538 0
M  V30 1278 N 126.739 -6.86517 -1.47101 0
M  V30 1279 H 131.579 -2.91144 0.635542 0
M  V30 1280 H 129.116 -1.4346 0.325206 0
M  V30 1281 H 131.074 -3.82276 -1.67095 0
M  V30 1282 H 129.704 -2.68751 -1.78809 0
M  V30 1283 H 128.756 -3.78615 0.368107 0
M  V30 1284 H 130.068 -4.98102 0.263842 0
M  V30 1285 H 129.222 -5.73948 -1.96643 0
M  V30 1286 H 127.961 -4.47458 -1.9399 0
M  V30 1287 H 126.966 -5.49656 0.126003 0
M  V30 1288 H 128.191 -6.79052 0.080947 0
M  V30 1289 H 126.137 -6.21851 -2.08895 0
M  V30 1290 H 126.054 -7.50281 -0.928137 0
M  V30 1291 H 127.322 -7.50194 -2.11731 0
M  V30 1292 N 131.551 -0.354651 -1.53558 0
M  V30 1293 C 132.8 0.239504 -2.00273 0
M  V30 1294 C 133.113 1.50759 -1.24623 0
M  V30 1295 O 134.319 2.17968 -1.61871 0
M  V30 1296 C 132.775 0.477341 -3.5672 0
M  V30 1297 C 132.383 -0.775488 -4.41237 0
M  V30 1298 C 134.127 1.02975 -4.11821 0
M  V30 1299 C 132.034 -0.507838 -5.89216 0
M  V30 1300 H 130.964 0.0932743 -0.748208 0
M  V30 1301 H 133.615 -0.471701 -1.77334 0
M  V30 1302 H 131.997 1.24953 -3.7577 0
M  V30 1303 H 133.171 -1.54963 -4.33962 0
M  V30 1304 H 131.486 -1.25033 -3.97185 0
M  V30 1305 H 134.083 1.24513 -5.2 0
M  V30 1306 H 134.426 1.98862 -3.65731 0
M  V30 1307 H 134.959 0.317994 -3.96527 0
M  V30 1308 H 131.698 -1.43674 -6.39561 0
M  V30 1309 H 131.218 0.228011 -5.99366 0
M  V30 1310 H 132.897 -0.129238 -6.46871 0
M  V30 1311 N 133.029 1.57378 -0.0835403 0
M  V30 1312 C 134.306 1.85363 0.624507 0
M  V30 1313 C 134.686 0.978239 1.87066 0
M  V30 1314 O 134.034 0.0475908 2.2845 0
M  V30 1315 C 134.244 3.35795 0.950947 0
M  V30 1316 C 135.592 4.03581 1.31939 0
M  V30 1317 O 136.616 3.40609 1.04232 0
M  V30 1318 O 135.475 5.14672 1.83779 0
M  V30 1319 H 132.569 0.766162 0.311329 0
M  V30 1320 H 135.115 1.69307 -0.115362 0
M  V30 1321 H 133.887 3.91244 0.0663899 0
M  V30 1322 H 133.51 3.57154 1.74719 0
M  V30 1323 N 134.507 -0.190092 1.56449 0
M  V30 1324 C 135.47 -1.21925 1.9408 0
M  V30 1325 C 136.47 -1.38176 0.822431 0
M  V30 1326 O 137.66 -1.35903 1.08977 0
M  V30 1327 C 134.792 -2.58773 2.21922 0
M  V30 1328 H 135.985 -0.897464 2.86157 0
M  V30 1329 H 133.538 -0.43181 1.50217 0
M  V30 1330 H 134.273 -2.95998 1.32499 0
M  V30 1331 H 134.058 -2.48348 3.03424 0
M  V30 1332 H 135.548 -3.32978 2.52022 0
M  V30 1333 N 135.985 -1.50799 -0.457987 0
M  V30 1334 C 137.213 -1.66218 -1.23203 0
M  V30 1335 C 137.628 -0.350894 -1.85511 0
M  V30 1336 O 136.985 0.668546 -1.69814 0
M  V30 1337 C 137.036 -2.76291 -2.33121 0
M  V30 1338 O 136.757 -4.02338 -1.73366 0
M  V30 1339 C 138.258 -3.028 -3.2377 0
M  V30 1340 H 135.478 -0.558361 -0.372121 0
M  V30 1341 H 138.022 -1.97099 -0.545179 0
M  V30 1342 H 136.177 -2.48068 -2.97558 0
M  V30 1343 H 136.591 -4.63312 -2.4585 0
M  V30 1344 H 138.065 -3.8345 -3.97077 0
M  V30 1345 H 138.542 -2.14385 -3.83322 0
M  V30 1346 H 139.148 -3.32604 -2.65056 0
M  V30 1347 N 137.463 0.71206 -1.40597 0
M  V30 1348 C 138.373 1.8562 -1.43466 0
M  V30 1349 C 139.389 1.70902 -0.326902 0
M  V30 1350 O 140.565 1.93105 -0.572043 0
M  V30 1351 C 137.63 3.21451 -1.29884 0
M  V30 1352 C 136.691 3.48398 -2.50833 0
M  V30 1353 C 135.924 4.77749 -2.3789 0
M  V30 1354 O 136.147 5.53089 -1.39459 0
M  V30 1355 O 135.081 5.05111 -3.27333 0
M  V30 1356 H 138.907 1.86155 -2.39958 0
M  V30 1357 H 136.492 0.86295 -1.21957 0
M  V30 1358 H 138.374 4.02579 -1.24531 0
M  V30 1359 H 137.049 3.21636 -0.364997 0
M  V30 1360 H 135.956 2.67265 -2.61763 0
M  V30 1361 H 137.289 3.53014 -3.4299 0
M  V30 1362 N 138.941 1.26152 0.944643 0
M  V30 1363 C 140.352 1.10454 1.50522 0
M  V30 1364 C 140.703 -0.31635 1.93633 0
M  V30 1365 O 139.828 -1.20746 1.79581 0
M  V30 1366 C 140.423 1.99891 2.73549 0
M  V30 1367 C 138.982 1.88348 3.25886 0
M  V30 1368 C 138.129 1.93447 1.9868 0
M  V30 1369 H 141.08 1.39292 0.760489 0
M  V30 1370 H 141.101 1.54477 3.47732 0
M  V30 1371 H 140.613 3.03297 2.42141 0
M  V30 1372 H 138.714 0.878636 3.62092 0
M  V30 1373 H 138.827 2.73696 3.93227 0
M  V30 1374 H 137.191 1.37456 2.14425 0
M  V30 1375 H 137.974 2.98476 1.69607 0
M  V30 1376 N 140.419 -1.14872 1.07899 0
M  V30 1377 C 141.351 -2.19425 0.662231 0
M  V30 1378 C 142.364 -1.60231 -0.288079 0
M  V30 1379 O 143.553 -1.78336 -0.076534 0
M  V30 1380 C 140.653 -3.38867 -0.0470695 0
M  V30 1381 C 139.826 -4.27597 0.920831 0
M  V30 1382 C 138.885 -5.25616 0.247805 0
M  V30 1383 O 137.911 -5.62189 0.890599 0
M  V30 1384 N 139.113 -5.71746 -1.00435 0
M  V30 1385 H 141.878 -2.55797 1.56166 0
M  V30 1386 H 139.439 -1.30042 0.964404 0
M  V30 1387 H 141.431 -4.01497 -0.50813 0
M  V30 1388 H 140.001 -3.00864 -0.848523 0
M  V30 1389 H 139.221 -3.61982 1.56087 0
M  V30 1390 H 140.509 -4.83748 1.57688 0
M  V30 1391 H 139.907 -5.44153 -1.54642 0
M  V30 1392 H 138.464 -6.36389 -1.40899 0
M  V30 1393 N 141.898 -0.863906 -1.31812 0
M  V30 1394 C 143.314 -0.555004 -1.49639 0
M  V30 1395 C 143.514 0.912266 -1.79666 0
M  V30 1396 O 142.57 1.69479 -1.87171 0
M  V30 1397 C 143.883 -1.44998 -2.63431 0
M  V30 1398 C 145.431 -1.45138 -2.77316 0
M  V30 1399 C 145.906 -2.33179 -3.94197 0
M  V30 1400 N 147.397 -2.31025 -4.01474 0
M  V30 1401 C 148.132 -2.95871 -4.9117 0
M  V30 1402 N 147.628 -3.69863 -5.8581 0
M  V30 1403 N 149.421 -2.85211 -4.84367 0
M  V30 1404 H 141.572 -1.81339 -1.10589 0
M  V30 1405 H 143.835 -0.77505 -0.545895 0
M  V30 1406 H 143.541 -2.49377 -2.48 0
M  V30 1407 H 143.415 -1.14409 -3.59431 0
M  V30 1408 H 145.802 -0.415201 -2.92164 0
M  V30 1409 H 145.883 -1.79747 -1.82001 0
M  V30 1410 H 145.527 -3.3687 -3.80107 0
M  V30 1411 H 145.457 -1.95897 -4.88807 0
M  V30 1412 H 147.948 -1.77238 -3.33759 0
M  V30 1413 H 148.261 -4.16486 -6.50968 0
M  V30 1414 H 146.606 -3.73971 -5.85808 0
M  V30 1415 H 149.797 -2.26948 -4.09405 0
M  V30 1416 H 149.97 -3.36027 -5.54066 0
M  V30 1417 N 143.376 1.44774 -0.622745 0
M  V30 1418 C 144.624 2.01721 -0.123655 0
M  V30 1419 C 144.945 1.49172 1.25589 0
M  V30 1420 O 144.215 0.691974 1.83272 0
M  V30 1421 H 142.795 0.745777 -0.0427225 0
M  V30 1422 H 145.457 1.77382 -0.807559 0
M  V30 1423 H 144.553 3.11984 -0.0849534 0
M  V30 1424 N 144.854 0.36279 1.53368 0
M  V30 1425 C 145.786 -0.519668 2.23231 0
M  V30 1426 C 146.799 -1.04844 1.24546 0
M  V30 1427 O 147.988 -0.955296 1.50786 0
M  V30 1428 C 145.088 -1.72995 2.9142 0
M  V30 1429 C 144.261 -1.33316 4.16588 0
M  V30 1430 C 143.32 -2.40521 4.68013 0
M  V30 1431 O 142.346 -2.03027 5.3176 0
M  V30 1432 N 143.548 -3.72065 4.45587 0
M  V30 1433 H 146.313 0.078751 2.99597 0
M  V30 1434 H 143.874 0.187833 1.60807 0
M  V30 1435 H 145.866 -2.44184 3.22733 0
M  V30 1436 H 144.436 -2.2353 2.18525 0
M  V30 1437 H 143.656 -0.451236 3.91609 0
M  V30 1438 H 144.944 -1.04432 4.97967 0
M  V30 1439 H 144.342 -4.05304 3.94646 0
M  V30 1440 H 142.899 -4.39366 4.81457 0
M  V30 1441 N 146.332 -1.57332 0.0918853 0
M  V30 1442 C 147.579 -1.94236 -0.572577 0
M  V30 1443 C 147.907 -0.973398 -1.6839 0
M  V30 1444 O 147.162 0.00756912 -1.95699 0
M  V30 1445 C 147.461 -3.37689 -1.17051 0
M  V30 1446 C 147.127 -4.50527 -0.183304 0
M  V30 1447 C 145.789 -4.81119 0.0882276 0
M  V30 1448 C 148.141 -5.18883 0.49095 0
M  V30 1449 C 145.469 -5.77395 1.04076 0
M  V30 1450 C 147.821 -6.1618 1.43193 0
M  V30 1451 C 146.485 -6.45179 1.71173 0
M  V30 1452 H 145.755 -0.710762 -0.209521 0
M  V30 1453 H 148.402 -1.9077 0.167036 0
M  V30 1454 H 146.707 -3.37718 -1.9863 0
M  V30 1455 H 148.404 -3.63543 -1.69227 0
M  V30 1456 H 144.994 -4.26681 -0.405124 0
M  V30 1457 H 149.178 -4.95427 0.294312 0
M  V30 1458 H 144.434 -5.98179 1.26457 0
M  V30 1459 H 148.608 -6.68243 1.96023 0
M  V30 1460 H 146.235 -7.1959 2.4514 0
M  V30 1461 N 147.81 0.181792 -1.56548 0
M  V30 1462 C 148.758 1.24461 -1.965 0
M  V30 1463 C 149.752 1.464 -0.852261 0
M  V30 1464 O 150.958 1.47103 -1.03733 0
M  V30 1465 H 147.333 0.418138 -0.625031 0
M  V30 1466 H 149.304 0.880714 -2.85107 0
M  V30 1467 C 148.053 2.57891 -2.33212 0
M  V30 1468 H 147.376 2.41829 -3.18369 0
M  V30 1469 H 148.816 3.3097 -2.65019 0
M  V30 1470 C 147.275 3.15871 -1.17163 0
M  V30 1471 O 147.805 3.9913 -0.453708 0
M  V30 1472 N 146.011 2.74808 -0.944936 0
M  V30 1473 H 145.558 2.07205 -1.53049 0
M  V30 1474 H 145.516 3.13939 -0.170286 0
M  V30 1475 N 149.288 1.51039 0.449983 0
M  V30 1476 C 150.535 1.63081 1.20045 0
M  V30 1477 C 150.863 0.341024 1.91487 0
M  V30 1478 O 150.118 -0.674276 1.83717 0
M  V30 1479 C 150.417 2.77556 2.25161 0
M  V30 1480 C 150.083 4.17289 1.70823 0
M  V30 1481 C 148.745 4.55305 1.55725 0
M  V30 1482 C 151.097 5.04536 1.3074 0
M  V30 1483 C 148.425 5.78287 0.989999 0
M  V30 1484 C 150.777 6.28085 0.754482 0
M  V30 1485 C 149.441 6.64885 0.590308 0
M  V30 1486 H 148.711 0.596755 0.439277 0
M  V30 1487 H 151.358 1.85037 0.49333 0
M  V30 1488 H 149.663 2.49771 3.01863 0
M  V30 1489 H 151.36 2.84073 2.83026 0
M  V30 1490 H 147.95 3.8731 1.83546 0
M  V30 1491 H 152.134 4.75782 1.41229 0
M  V30 1492 H 147.39 6.05456 0.850451 0
M  V30 1493 H 151.564 6.95038 0.435324 0
M  V30 1494 H 149.191 7.60055 0.14862 0
M  V30 1495 N 150.766 -0.704594 1.40972 0
M  V30 1496 C 151.991 -1.49858 1.43378 0
M  V30 1497 C 152.416 -1.88061 0.038184 0
M  V30 1498 O 151.774 -1.5402 -0.956425 0
M  V30 1499 C 151.822 -2.74333 2.34038 0
M  V30 1500 O 150.926 -3.7147 1.7912 0
M  V30 1501 H 150.267 -0.45139 0.486974 0
M  V30 1502 H 152.797 -0.866832 1.8533 0
M  V30 1503 H 152.807 -3.22741 2.49604 0
M  V30 1504 H 151.482 -2.45863 3.35446 0
M  V30 1505 H 150.059 -3.30363 1.72958 0
M  V30 1506 N 152.244 -1.26651 -0.937939 0
M  V30 1507 C 153.469 -1.15279 -1.72411 0
M  V30 1508 C 153.894 0.287866 -1.85884 0
M  V30 1509 O 153.252 1.20855 -1.35143 0
M  V30 1510 C 153.3 -1.83028 -3.10698 0
M  V30 1511 O 152.404 -1.12128 -3.96864 0
M  V30 1512 H 151.745 -0.401504 -0.528858 0
M  V30 1513 H 154.275 -1.67531 -1.1745 0
M  V30 1514 H 154.285 -1.89981 -3.6107 0
M  V30 1515 H 152.96 -2.87833 -3.00208 0
M  V30 1516 H 151.537 -1.13173 -3.55312 0
M  V30 1517 N 153.722 1.14298 -1.08507 0
M  V30 1518 C 154.685 2.17607 -0.719711 0
M  V30 1519 C 155.685 1.58907 0.245997 0
M  V30 1520 O 156.875 1.74181 0.0254081 0
M  V30 1521 C 154.007 3.40842 -0.0627695 0
M  V30 1522 H 155.2 2.51443 -1.63452 0
M  V30 1523 H 152.753 1.28963 -0.88307 0
M  V30 1524 H 153.488 3.12587 0.863716 0
M  V30 1525 H 153.273 3.84713 -0.757504 0
M  V30 1526 H 154.763 4.17221 0.177786 0
M  V30 1527 N 155.201 0.870884 1.31352 0
M  V30 1528 C 156.478 0.402907 1.91405 0
M  V30 1529 C 156.858 -1.11512 1.79244 0
M  V30 1530 O 156.206 -1.94411 1.2007 0
M  V30 1531 C 156.416 0.885301 3.37585 0
M  V30 1532 C 157.764 0.911971 4.14691 0
M  V30 1533 O 158.788 0.831016 3.46371 0
M  V30 1534 O 157.647 1.02927 5.3672 0
M  V30 1535 H 154.741 0.120698 0.818145 0
M  V30 1536 H 157.287 0.958857 1.40014 0
M  V30 1537 H 156.059 1.92889 3.40455 0
M  V30 1538 H 155.682 0.307714 3.96407 0
M  V30 1539 N 156.679 -1.44442 0.630414 0
M  V30 1540 C 158.095 -1.56832 0.295973 0
M  V30 1541 C 158.295 -1.61806 -1.20088 0
M  V30 1542 O 157.351 -1.5607 -1.9849 0
M  V30 1543 C 158.664 -2.84031 0.987264 0
M  V30 1544 C 160.212 -2.97742 0.96534 0
M  V30 1545 C 160.687 -4.27743 1.63708 0
M  V30 1546 N 162.178 -4.34555 1.60364 0
M  V30 1547 C 162.913 -5.33862 2.09234 0
M  V30 1548 N 162.409 -6.39578 2.66292 0
M  V30 1549 N 164.202 -5.25366 1.99867 0
M  V30 1550 H 156.353 -1.39457 1.60205 0
M  V30 1551 H 158.616 -0.668237 0.672431 0
M  V30 1552 H 158.322 -2.86338 2.04215 0
M  V30 1553 H 158.196 -3.73534 0.524588 0
M  V30 1554 H 160.583 -2.94989 -0.0810639 0
M  V30 1555 H 160.664 -2.09589 1.4665 0
M  V30 1556 H 160.308 -4.31255 2.68293 0
M  V30 1557 H 160.238 -5.14752 1.11076 0
M  V30 1558 H 162.729 -3.58772 1.18705 0
M  V30 1559 H 163.042 -7.11637 3.01317 0
M  V30 1560 H 161.387 -6.40265 2.70343 0
M  V30 1561 H 164.578 -4.41688 1.55013 0
M  V30 1562 H 164.751 -6.02606 2.38265 0
M  V30 1563 N 158.157 -0.370918 -1.53173 0
M  V30 1564 C 159.403 0.217423 -2.01631 0
M  V30 1565 C 159.736 1.47983 -1.25756 0
M  V30 1566 O 159.011 1.91274 -0.352764 0
M  V30 1567 C 159.294 0.503982 -3.56556 0
M  V30 1568 C 159.147 -0.77243 -4.43118 0
M  V30 1569 C 160.466 1.30234 -4.20389 0
M  V30 1570 H 157.585 0.0775486 -0.732909 0
M  V30 1571 H 160.227 -0.496863 -1.83388 0
M  V30 1572 H 158.377 1.11248 -3.72231 0
M  V30 1573 H 160.049 -1.4098 -4.39229 0
M  V30 1574 H 158.292 -1.39167 -4.10871 0
M  V30 1575 H 158.963 -0.526815 -5.4948 0
M  V30 1576 H 161.439 0.787546 -4.08579 0
M  V30 1577 H 160.315 1.47158 -5.28806 0
M  V30 1578 H 160.576 2.31237 -3.76805 0
M  V30 1579 N 159.635 1.57281 -0.100228 0
M  V30 1580 C 160.865 1.98591 0.569681 0
M  V30 1581 C 161.273 0.978315 1.61943 0
M  V30 1582 O 160.616 -0.0396108 1.83657 0
M  V30 1583 C 160.678 3.36282 1.271 0
M  V30 1584 C 160.342 4.55488 0.371409 0
M  V30 1585 C 161.339 5.18491 -0.382504 0
M  V30 1586 C 159.024 5.01474 0.287965 0
M  V30 1587 C 161.018 6.25852 -1.20779 0
M  V30 1588 C 158.705 6.08701 -0.540965 0
M  V30 1589 C 159.703 6.70755 -1.28749 0
M  V30 1590 O 159.391 7.75914 -2.10269 0
M  V30 1591 H 159.123 0.65752 0.156982 0
M  V30 1592 H 161.677 2.0463 -0.177734 0
M  V30 1593 H 159.907 3.26941 2.0651 0
M  V30 1594 H 161.596 3.62005 1.83595 0
M  V30 1595 H 162.362 4.83891 -0.3278 0
M  V30 1596 H 158.241 4.52932 0.858689 0
M  V30 1597 H 161.785 6.74218 -1.79096 0
M  V30 1598 H 157.682 6.42732 -0.597131 0
M  V30 1599 H 158.45 7.92925 -2.03007 0
M  V30 1600 N 161.113 -0.173488 1.56642 0
M  V30 1601 C 162.061 -1.23417 1.97157 0
M  V30 1602 C 163.055 -1.45946 0.860013 0
M  V30 1603 O 164.261 -1.46551 1.04512 0
M  V30 1604 H 160.636 -0.414818 0.62724 0
M  V30 1605 H 162.607 -0.865582 2.8557 0
M  V30 1606 C 161.356 -2.5665 2.34576 0
M  V30 1607 H 160.679 -2.40137 3.19647 0
M  V30 1608 H 162.119 -3.2956 2.6677 0
M  V30 1609 C 160.578 -3.15245 1.18836 0
M  V30 1610 O 161.108 -3.98883 0.474869 0
M  V30 1611 N 159.314 -2.74303 0.959497 0
M  V30 1612 H 158.861 -2.0639 1.54146 0
M  V30 1613 H 158.819 -3.13844 0.186932 0
M  V30 1614 N 162.591 -1.51276 -0.441967 0
M  V30 1615 C 163.837 -1.6492 -1.1905 0
M  V30 1616 C 164.192 -0.358731 -1.89026 0
M  V30 1617 O 163.485 0.645193 -1.8041 0
M  V30 1618 C 163.679 -2.78746 -2.23686 0
M  V30 1619 C 163.508 -4.18737 -1.63979 0
M  V30 1620 C 162.278 -4.84739 -1.42674 0
M  V30 1621 C 164.476 -5.01988 -1.11858 0
M  V30 1622 N 162.458 -6.08858 -0.785159 0
M  V30 1623 C 163.829 -6.17071 -0.601989 0
M  V30 1624 C 165.884 -4.87551 -1.0099 0
M  V30 1625 C 164.587 -7.19299 0.0126012 0
M  V30 1626 C 166.613 -5.89983 -0.409206 0
M  V30 1627 C 165.975 -7.04333 0.0968651 0
M  V30 1628 H 162.074 -0.657416 -0.423471 0
M  V30 1629 H 164.658 -1.8849 -0.48782 0
M  V30 1630 H 162.829 -2.56848 -2.91348 0
M  V30 1631 H 164.561 -2.81595 -2.90666 0
M  V30 1632 H 161.316 -4.42528 -1.68719 0
M  V30 1633 H 161.74 -6.75282 -0.481942 0
M  V30 1634 H 166.382 -3.99401 -1.38703 0
M  V30 1635 H 164.1 -8.071 0.401879 0
M  V30 1636 H 167.686 -5.8088 -0.327079 0
M  V30 1637 H 166.566 -7.82238 0.554373 0
M  V30 1638 N 164.069 0.697108 -1.41344 0
M  V30 1639 C 165.032 1.79281 -1.42797 0
M  V30 1640 C 166.032 1.57607 -0.318837 0
M  V30 1641 O 167.222 1.64309 -0.578642 0
M  V30 1642 C 164.354 3.17632 -1.23785 0
M  V30 1643 H 165.547 1.79385 -2.40335 0
M  V30 1644 H 163.1 0.904582 -1.27464 0
M  V30 1645 H 163.835 3.23167 -0.270814 0
M  V30 1646 H 163.62 3.34765 -2.04144 0
M  V30 1647 H 165.11 3.97617 -1.27633 0
M  V30 1648 N 165.547 1.27147 0.931209 0
M  V30 1649 C 166.793 1.13446 1.68101 0
M  V30 1650 C 167.126 -0.319628 1.91552 0
M  V30 1651 O 166.401 -1.23407 1.50336 0
M  V30 1652 C 166.684 1.91482 3.0497 0
M  V30 1653 C 166.537 3.44855 2.88782 0
M  V30 1654 C 167.856 1.71651 4.05246 0
M  V30 1655 H 164.975 0.413498 0.610072 0
M  V30 1656 H 167.617 1.56261 1.08086 0
M  V30 1657 H 165.767 1.55095 3.56199 0
M  V30 1658 H 167.439 3.9105 2.44698 0
M  V30 1659 H 165.682 3.71373 2.24198 0
M  V30 1660 H 166.353 3.94694 3.85902 0
M  V30 1661 H 168.829 2.0337 3.63015 0
M  V30 1662 H 167.705 2.28651 4.99009 0
M  V30 1663 H 167.966 0.663555 4.37092 0
M  V30 1664 N 167.025 -1.13721 1.09112 0
M  V30 1665 C 167.957 -2.1871 0.685467 0
M  V30 1666 C 168.97 -1.60527 -0.271068 0
M  V30 1667 O 170.159 -1.78407 -0.0576148 0
M  V30 1668 C 167.259 -3.38898 -0.0111255 0
M  V30 1669 C 166.432 -4.26597 0.966131 0
M  V30 1670 C 165.491 -5.25324 0.303539 0
M  V30 1671 O 164.517 -5.61213 0.950177 0
M  V30 1672 N 165.719 -5.72779 -0.943651 0
M  V30 1673 H 168.484 -2.54126 1.58871 0
M  V30 1674 H 166.045 -1.29012 0.978143 0
M  V30 1675 H 168.037 -4.02014 -0.465517 0
M  V30 1676 H 166.607 -3.01747 -0.816565 0
M  V30 1677 H 165.827 -3.60306 1.59917 0
M  V30 1678 H 167.115 -4.82048 1.6281 0
M  V30 1679 H 166.513 -5.45762 -1.48862 0
M  V30 1680 H 165.07 -6.37847 -1.34142 0
M  V30 1681 N 168.503 -0.877838 -1.30888 0
M  V30 1682 C 169.451 -0.328662 -2.30266 0
M  V30 1683 C 170.445 0.560496 -1.59859 0
M  V30 1684 O 171.651 0.445722 -1.74394 0
M  V30 1685 H 168.026 -0.0876142 -0.746879 0
M  V30 1686 H 169.997 -1.18061 -2.74051 0
M  V30 1687 C 168.746 0.448071 -3.44801 0
M  V30 1688 H 168.069 -0.226859 -3.99156 0
M  V30 1689 H 169.509 0.797541 -4.16432 0
M  V30 1690 C 167.968 1.64239 -2.94155 0
M  V30 1691 O 168.498 2.74175 -2.93583 0
M  V30 1692 N 166.704 1.47716 -2.50256 0
M  V30 1693 H 166.251 0.582821 -2.5092 0
M  V30 1694 H 166.209 2.27765 -2.16727 0
M  V30 1695 N 169.982 1.44106 -0.638065 0
M  V30 1696 C 171.23 2.01579 -0.145043 0
M  V30 1697 C 171.551 1.50496 1.24 0
M  V30 1698 O 170.821 0.711374 1.82527 0
M  V30 1699 H 169.401 0.745282 -0.05063 0
M  V30 1700 H 172.063 1.76516 -0.826327 0
M  V30 1701 H 171.159 3.11877 -0.118039 0
M  V30 1702 N 171.46 0.379036 1.52974 0
M  V30 1703 C 172.407 -0.461048 2.26148 0
M  V30 1704 C 173.377 -1.06637 1.27349 0
M  V30 1705 O 174.562 -1.09633 1.56157 0
M  V30 1706 C 171.702 -1.58782 3.06402 0
M  V30 1707 C 170.815 -1.00636 4.20115 0
M  V30 1708 C 169.95 -2.10334 4.87784 0
M  V30 1709 C 168.989 -1.49724 5.93506 0
M  V30 1710 N 168.126 -2.5331 6.54812 0
M  V30 1711 H 172.966 0.169429 2.97518 0
M  V30 1712 H 170.503 0.0953806 1.4679 0
M  V30 1713 H 172.461 -2.25174 3.51215 0
M  V30 1714 H 171.091 -2.18876 2.37261 0
M  V30 1715 H 170.143 -0.232332 3.7969 0
M  V30 1716 H 171.455 -0.523343 4.96047 0
M  V30 1717 H 170.609 -2.84519 5.35849 0
M  V30 1718 H 169.348 -2.61992 4.11353 0
M  V30 1719 H 168.353 -0.740598 5.44789 0
M  V30 1720 H 169.578 -0.988732 6.71864 0
M  V30 1721 H 167.524 -3.04156 5.81227 0
M  V30 1722 H 167.441 -2.09734 7.26325 0
M  V30 1723 H 168.709 -3.27155 7.07524 0
M  V30 1724 N 172.938 -1.57226 0.108567 0
M  V30 1725 C 173.87 -2.11809 -0.875752 0
M  V30 1726 C 174.883 -1.05839 -1.23701 0
M  V30 1727 O 176.072 -1.33245 -1.18778 0
M  V30 1728 C 173.172 -2.59411 -2.18081 0
M  V30 1729 C 172.345 -3.89364 -1.99284 0
M  V30 1730 C 171.404 -4.22672 -3.13424 0
M  V30 1731 O 170.43 -4.91668 -2.86795 0
M  V30 1732 N 171.632 -3.79154 -4.3957 0
M  V30 1733 H 174.397 -2.9689 -0.409477 0
M  V30 1734 H 171.958 -1.61721 -0.076158 0
M  V30 1735 H 173.95 -2.7873 -2.93414 0
M  V30 1736 H 172.52 -1.79268 -2.5609 0
M  V30 1737 H 171.74 -3.79059 -1.08203 0
M  V30 1738 H 173.028 -4.74358 -1.84017 0
M  V30 1739 H 172.426 -3.23486 -4.64083 0
M  V30 1740 H 170.983 -4.03602 -5.11809 0
M  V30 1741 N 174.416 0.165178 -1.56732 0
M  V30 1742 C 175.662 0.882112 -1.82611 0
M  V30 1743 C 175.995 1.81628 -0.687378 0
M  V30 1744 O 175.27 1.92009 0.310267 0
M  V30 1745 C 175.553 1.67245 -3.18906 0
M  V30 1746 C 175.406 0.760987 -4.43316 0
M  V30 1747 C 176.725 2.63884 -3.52212 0
M  V30 1748 H 173.844 0.319242 -0.664269 0
M  V30 1749 H 176.486 0.148052 -1.89422 0
M  V30 1750 H 174.636 2.29824 -3.1323 0
M  V30 1751 H 176.308 0.147596 -4.61064 0
M  V30 1752 H 174.551 0.0694102 -4.33744 0
M  V30 1753 H 175.222 1.34962 -5.35247 0
M  V30 1754 H 177.698 2.11429 -3.58381 0
M  V30 1755 H 176.574 3.16245 -4.48643 0
M  V30 1756 H 176.835 3.44377 -2.77231 0
M  V30 1757 N 175.894 1.51508 0.433938 0
M  V30 1758 C 177.31 1.39759 0.770682 0
M  V30 1759 C 177.51 0.482594 1.95636 0
M  V30 1760 O 176.566 -0.0609691 2.52426 0
M  V30 1761 C 177.879 2.81851 1.04787 0
M  V30 1762 C 179.427 2.91025 1.1521 0
M  V30 1763 C 179.902 4.34032 1.46219 0
M  V30 1764 N 181.393 4.37154 1.53136 0
M  V30 1765 C 182.128 5.4484 1.78709 0
M  V30 1766 N 181.624 6.62682 2.02051 0
M  V30 1767 N 183.417 5.32324 1.80519 0
M  V30 1768 H 175.568 2.09548 -0.346892 0
M  V30 1769 H 177.831 0.943446 -0.0928074 0
M  V30 1770 H 177.537 3.50815 0.249304 0
M  V30 1771 H 177.411 3.21386 1.97461 0
M  V30 1772 H 179.798 2.22257 1.94128 0
M  V30 1773 H 179.879 2.54983 0.204281 0
M  V30 1774 H 179.523 5.03351 0.678274 0
M  V30 1775 H 179.453 4.6759 2.42212 0
M  V30 1776 H 181.944 3.52197 1.36987 0
M  V30 1777 H 182.257 7.40543 2.20943 0
M  V30 1778 H 180.602 6.65791 1.99366 0
M  V30 1779 H 183.793 4.39246 1.61805 0
M  V30 1780 H 183.966 6.16328 2.00111 0
M  V30 1781 N 177.372 -0.689602 1.41712 0
M  V30 1782 C 178.62 -1.4468 1.4111 0
M  V30 1783 C 178.941 -1.94986 0.0232196 0
M  V30 1784 O 178.211 -1.72097 -0.935913 0
M  V30 1785 H 176.791 -0.536847 0.519427 0
M  V30 1786 H 179.453 -0.815825 1.77004 0
M  V30 1787 H 178.549 -2.30706 2.10193 0
M  V30 1788 N 178.85 -1.27639 -0.924453 0
M  V30 1789 C 179.8 -1.07295 -2.01176 0
M  V30 1790 C 180.784 5.77352e-05 -1.609 0
M  V30 1791 O 181.976 -0.218855 -1.75642 0
M  V30 1792 C 179.105 -0.725592 -3.35544 0
M  V30 1793 C 178.191 -1.83691 -3.82254 0
M  V30 1794 N 178.582 -3.07697 -4.01443 0
M  V30 1795 C 176.88 -1.72433 -4.11319 0
M  V30 1796 C 177.581 -3.80037 -4.40394 0
M  V30 1797 N 176.557 -3.0782 -4.48049 0
M  V30 1798 H 180.359 -2.01399 -2.14046 0
M  V30 1799 H 177.873 -1.18401 -1.11153 0
M  V30 1800 H 179.87 -0.560959 -4.13109 0
M  V30 1801 H 178.53 0.207782 -3.24034 0
M  V30 1802 H 179.541 -3.43424 -3.8766 0
M  V30 1803 H 176.218 -0.862005 -4.08504 0
M  V30 1804 H 177.608 -4.86632 -4.63291 0
M  V30 1805 N 180.328 1.1314 -1.09713 0
M  V30 1806 C 181.556 1.88321 -0.856898 0
M  V30 1807 C 181.971 1.79276 0.592073 0
M  V30 1808 O 181.328 1.16142 1.40774 0
M  V30 1809 C 181.379 3.37812 -1.28706 0
M  V30 1810 O 181.1 3.46627 -2.67921 0
M  V30 1811 C 182.601 4.29952 -1.07964 0
M  V30 1812 H 179.821 0.596094 -0.308079 0
M  V30 1813 H 182.365 1.43205 -1.45988 0
M  V30 1814 H 180.52 3.805 -0.727912 0
M  V30 1815 H 180.934 4.39579 -2.8613 0
M  V30 1816 H 182.408 5.33159 -1.42986 0
M  V30 1817 H 182.885 4.39196 -0.0176577 0
M  V30 1818 H 183.491 3.93036 -1.62489 0
M  V30 1819 N 181.806 0.884767 1.30421 0
M  V30 1820 C 182.736 0.367574 2.30589 0
M  V30 1821 C 183.717 -0.549464 1.60981 0
M  V30 1822 O 184.902 -0.46336 1.88591 0
M  V30 1823 C 182.032 -0.418944 3.44764 0
M  V30 1824 C 180.986 0.406316 4.26067 0
M  V30 1825 C 180.312 -0.506793 5.32293 0
M  V30 1826 C 181.612 1.64832 4.95608 0
M  V30 1827 H 183.306 1.20462 2.74097 0
M  V30 1828 H 180.852 0.580695 1.31772 0
M  V30 1829 H 182.805 -0.791395 4.13902 0
M  V30 1830 H 181.529 -1.28964 3.0006 0
M  V30 1831 H 180.188 0.760903 3.58617 0
M  V30 1832 H 179.836 -1.37519 4.83836 0
M  V30 1833 H 179.536 0.0415828 5.87585 0
M  V30 1834 H 181.06 -0.875764 6.04287 0
M  V30 1835 H 182.474 1.34646 5.57264 0
M  V30 1836 H 180.871 2.13688 5.60765 0
M  V30 1837 H 181.941 2.39284 4.21748 0
M  V30 1838 N 183.284 -1.43765 0.645699 0
M  V30 1839 C 184.247 -2.29163 -0.0409488 0
M  V30 1840 C 185.247 -1.41813 -0.757996 0
M  V30 1841 O 186.437 -1.63527 -0.600382 0
M  V30 1842 C 183.569 -3.23716 -1.06869 0
M  V30 1843 H 184.762 -2.91366 0.710345 0
M  V30 1844 H 182.315 -1.5092 0.406547 0
M  V30 1845 H 183.05 -2.66393 -1.84947 0
M  V30 1846 H 182.835 -3.88105 -0.558277 0
M  V30 1847 H 184.325 -3.87831 -1.54845 0
M  V30 1848 N 184.763 -0.387143 -1.52771 0
M  V30 1849 C 186.009 0.188506 -2.02525 0
M  V30 1850 C 186.364 1.44649 -1.26864 0
M  V30 1851 O 185.657 1.88189 -0.359945 0
M  V30 1852 C 185.851 0.512209 -3.53711 0
M  V30 1853 C 185.68 -0.712855 -4.44014 0
M  V30 1854 C 184.45 -1.23147 -4.90064 0
M  V30 1855 C 186.648 -1.58453 -4.89282 0
M  V30 1856 N 184.63 -2.41431 -5.64433 0
M  V30 1857 C 186.001 -2.61381 -5.6221 0
M  V30 1858 C 188.056 -1.60488 -4.71326 0
M  V30 1859 C 186.759 -3.66227 -6.19088 0
M  V30 1860 C 188.785 -2.6424 -5.29085 0
M  V30 1861 C 188.147 -3.6589 -6.01917 0
M  V30 1862 H 184.246 0.0311236 -0.78138 0
M  V30 1863 H 186.83 -0.536548 -1.87161 0
M  V30 1864 H 185.001 1.20632 -3.69192 0
M  V30 1865 H 186.733 1.07482 -3.90166 0
M  V30 1866 H 183.488 -0.792795 -4.66917 0
M  V30 1867 H 183.912 -3.01274 -6.0627 0
M  V30 1868 H 188.554 -0.83247 -4.14524 0
M  V30 1869 H 186.272 -4.44337 -6.74974 0
M  V30 1870 H 189.858 -2.66695 -5.17074 0
M  V30 1871 H 188.738 -4.44855 -6.45813 0
M  V30 1872 N 186.241 1.57166 -0.116904 0
M  V30 1873 C 187.191 2.11756 0.845178 0
M  V30 1874 C 188.175 1.03783 1.22955 0
M  V30 1875 O 189.367 1.3002 1.20099 0
M  V30 1876 C 186.496 2.71886 2.09602 0
M  V30 1877 C 185.582 3.86937 1.7361 0
M  V30 1878 N 185.973 4.94073 1.08284 0
M  V30 1879 C 184.271 3.97082 2.03082 0
M  V30 1880 C 184.972 5.74477 0.913855 0
M  V30 1881 N 183.948 5.2423 1.43818 0
M  V30 1882 H 187.75 2.91967 0.336523 0
M  V30 1883 H 185.264 1.62174 0.0856332 0
M  V30 1884 H 187.261 3.09338 2.79492 0
M  V30 1885 H 185.921 1.93138 2.61013 0
M  V30 1886 H 186.932 5.12483 0.747067 0
M  V30 1887 H 183.609 3.29372 2.56554 0
M  V30 1888 H 184.999 6.70701 0.40125 0
M  V30 1889 N 187.719 -0.156864 1.56817 0
M  V30 1890 C 188.944 -0.890331 1.87318 0
M  V30 1891 C 189.369 -1.74394 0.704855 0
M  V30 1892 O 188.727 -1.77972 -0.345786 0
M  V30 1893 C 188.775 -1.73102 3.16336 0
M  V30 1894 O 187.879 -2.83422 2.99576 0
M  V30 1895 H 187.22 -0.24857 0.615718 0
M  V30 1896 H 189.75 -0.150649 2.04045 0
M  V30 1897 H 189.76 -2.12803 3.48107 0
M  V30 1898 H 188.435 -1.10412 4.00976 0
M  V30 1899 H 187.012 -2.47199 2.7919 0
M  V30 1900 N 189.197 -1.51736 -0.425897 0
M  V30 1901 C 190.129 -1.70083 -1.53638 0
M  V30 1902 C 191.142 -0.581349 -1.52066 0
M  V30 1903 O 192.331 -0.856017 -1.56635 0
M  V30 1904 C 189.431 -1.71078 -2.9255 0
M  V30 1905 C 188.604 -2.99795 -3.185 0
M  V30 1906 C 187.663 -2.92825 -4.37196 0
M  V30 1907 O 186.689 -3.66756 -4.35291 0
M  V30 1908 N 187.891 -2.0946 -5.41393 0
M  V30 1909 H 190.656 -2.65882 -1.383 0
M  V30 1910 H 188.217 -1.49765 -0.614988 0
M  V30 1911 H 190.209 -1.63969 -3.69995 0
M  V30 1912 H 188.779 -0.828242 -3.01428 0
M  V30 1913 H 187.999 -3.20684 -2.2925 0
M  V30 1914 H 189.287 -3.84977 -3.32671 0
M  V30 1915 H 188.685 -1.48792 -5.45781 0
M  V30 1916 H 187.242 -2.08221 -6.17647 0
M  V30 1917 N 190.675 0.682077 -1.42076 0
M  V30 1918 C 191.607 1.80755 -1.40926 0
M  V30 1919 C 192.62 1.59833 -0.309398 0
M  V30 1920 O 193.809 1.69087 -0.572014 0
M  V30 1921 C 190.909 3.17744 -1.17865 0
M  V30 1922 C 190.082 3.65578 -2.40149 0
M  V30 1923 C 189.141 4.81277 -2.12742 0
M  V30 1924 O 188.167 4.92197 -2.85887 0
M  V30 1925 N 189.369 5.69474 -1.12602 0
M  V30 1926 H 192.134 1.82229 -2.37935 0
M  V30 1927 H 189.695 0.864903 -1.36861 0
M  V30 1928 H 191.687 3.9279 -0.9746 0
M  V30 1929 H 190.257 3.11214 -0.294068 0
M  V30 1930 H 189.477 2.81291 -2.76169 0
M  V30 1931 H 190.765 3.94278 -3.21593 0
M  V30 1932 H 190.163 5.63297 -0.520899 0
M  V30 1933 H 188.72 6.44363 -0.981842 0
M  V30 1934 N 192.153 1.28127 0.917671 0
M  V30 1935 C 193.564 1.13622 1.48145 0
M  V30 1936 C 193.915 -0.275207 1.9426 0
M  V30 1937 O 193.04 -1.1691 1.82102 0
M  V30 1938 C 193.635 2.05648 2.69248 0
M  V30 1939 C 192.194 1.95219 3.21818 0
M  V30 1940 C 191.341 1.97618 1.94532 0
M  V30 1941 H 194.292 1.40874 0.730772 0
M  V30 1942 H 194.313 1.61818 3.44377 0
M  V30 1943 H 193.825 3.08365 2.35653 0
M  V30 1944 H 191.926 0.955244 3.60147 0
M  V30 1945 H 192.039 2.81976 3.87333 0
M  V30 1946 H 190.403 1.41973 2.11461 0
M  V30 1947 H 191.186 3.02007 1.63238 0
M  V30 1948 N 193.631 -1.12557 1.10312 0
M  V30 1949 C 194.879 -1.83675 0.843091 0
M  V30 1950 C 195.2 -1.84435 -0.633131 0
M  V30 1951 O 194.47 -1.30657 -1.45964 0
M  V30 1952 H 193.05 -0.680138 0.308904 0
M  V30 1953 H 195.712 -1.36301 1.39313 0
M  V30 1954 H 194.808 -2.87908 1.2048 0
M  V30 1955 N 195.109 -0.891671 -1.2995 0
M  V30 1956 C 196.355 -0.523649 -1.96544 0
M  V30 1957 C 196.71 0.918394 -1.69066 0
M  V30 1958 O 196.003 1.64122 -0.988659 0
M  V30 1959 C 196.197 -0.742868 -3.49594 0
M  V30 1960 C 196.026 -2.20467 -3.9195 0
M  V30 1961 C 194.796 -2.85055 -4.17219 0
M  V30 1962 C 196.994 -3.17912 -4.04273 0
M  V30 1963 N 194.976 -4.21762 -4.46083 0
M  V30 1964 C 196.347 -4.39712 -4.37097 0
M  V30 1965 C 198.402 -3.1361 -3.86721 0
M  V30 1966 C 197.105 -5.5776 -4.54199 0
M  V30 1967 C 199.131 -4.30936 -4.05028 0
M  V30 1968 C 198.493 -5.51504 -4.38204 0
M  V30 1969 H 194.592 -0.241072 -0.743914 0
M  V30 1970 H 197.176 -1.15081 -1.5705 0
M  V30 1971 H 195.347 -0.14515 -3.88129 0
M  V30 1972 H 197.079 -0.341081 -4.0326 0
M  V30 1973 H 193.834 -2.35889 -4.10674 0
M  V30 1974 H 194.258 -4.92382 -4.64638 0
M  V30 1975 H 198.9 -2.21489 -3.60142 0
M  V30 1976 H 196.618 -6.50379 -4.79618 0
M  V30 1977 H 200.204 -4.29085 -3.92909 0
M  V30 1978 H 199.084 -6.40778 -4.52077 0
M  V30 1979 N 196.587 1.43421 -0.653314 0
M  V30 1980 C 197.52 2.2803 0.0879804 0
M  V30 1981 C 198.498 1.39833 0.82979 0
M  V30 1982 O 199.682 1.69275 0.829341 0
M  V30 1983 C 196.809 3.19247 1.13132 0
M  V30 1984 C 195.855 4.23704 0.487546 0
M  V30 1985 S 196.688 5.30377 -0.738961 0
M  V30 1986 C 197.844 6.25162 0.30384 0
M  V30 1987 H 198.077 2.90554 -0.629739 0
M  V30 1988 H 195.61 1.47934 -0.442156 0
M  V30 1989 H 197.568 3.72346 1.72827 0
M  V30 1990 H 196.229 2.55901 1.82136 0
M  V30 1991 H 195.422 4.87631 1.27407 0
M  V30 1992 H 195.024 3.73983 -0.0352915 0
M  V30 1993 H 197.316 6.67321 1.17 0
M  V30 1994 H 198.259 7.07463 -0.300402 0
M  V30 1995 H 198.667 5.60864 0.63969 0
M  V30 1996 N 198.065 0.39524 1.52563 0
M  V30 1997 C 198.997 -0.472201 2.24283 0
M  V30 1998 C 200.01 -1.02178 1.26742 0
M  V30 1999 O 201.199 -0.923097 1.52778 0
M  V30 2000 C 198.299 -1.66775 2.95024 0
M  V30 2001 C 197.472 -1.2445 4.19322 0
M  V30 2002 C 196.531 -2.30539 4.7301 0
M  V30 2003 O 195.557 -1.91702 5.35947 0
M  V30 2004 N 196.759 -3.6253 4.53379 0
M  V30 2005 H 199.524 0.142282 2.99362 0
M  V30 2006 H 197.085 0.2219 1.60372 0
M  V30 2007 H 199.077 -2.37283 3.27839 0
M  V30 2008 H 197.647 -2.18845 2.23217 0
M  V30 2009 H 196.867 -0.368069 3.92478 0
M  V30 2010 H 198.155 -0.938457 5.0007 0
M  V30 2011 H 197.553 -3.96841 4.03154 0
M  V30 2012 H 196.11 -4.29055 4.90668 0
M  V30 2013 N 199.544 -1.57102 0.125237 0
M  V30 2014 C 200.769 -2.0019 -0.542101 0
M  V30 2015 C 201.194 -1.00449 -1.59034 0
M  V30 2016 O 200.552 0.0229423 -1.81285 0
M  V30 2017 C 200.6 -3.42129 -1.13929 0
M  V30 2018 O 199.704 -3.45307 -2.2547 0
M  V30 2019 H 199.045 -0.650171 -0.134812 0
M  V30 2020 H 201.575 -2.03461 0.215553 0
M  V30 2021 H 201.585 -3.80471 -1.4733 0
M  V30 2022 H 200.26 -4.14237 -0.371531 0
M  V30 2023 H 198.837 -3.1879 -1.93462 0
M  V30 2024 N 201.022 0.148545 -1.56898 0
M  V30 2025 C 201.952 1.18524 -2.01182 0
M  V30 2026 C 202.933 1.4489 -0.891123 0
M  V30 2027 O 204.118 1.55836 -1.15882 0
M  V30 2028 C 201.248 2.51879 -2.39112 0
M  V30 2029 C 200.202 2.40038 -3.54353 0
M  V30 2030 C 199.528 3.78089 -3.78091 0
M  V30 2031 C 200.828 1.88577 -4.87069 0
M  V30 2032 H 202.522 0.817029 -2.88036 0
M  V30 2033 H 200.068 0.391575 -1.38574 0
M  V30 2034 H 202.021 3.24627 -2.68692 0
M  V30 2035 H 200.745 2.90532 -1.49193 0
M  V30 2036 H 199.404 1.69742 -3.24936 0
M  V30 2037 H 199.052 4.14175 -2.85426 0
M  V30 2038 H 198.752 3.71028 -4.55645 0
M  V30 2039 H 200.276 4.52387 -4.10095 0
M  V30 2040 H 201.69 2.51117 -5.15377 0
M  V30 2041 H 200.087 1.9241 -5.68417 0
M  V30 2042 H 201.157 0.84136 -4.77545 0
M  V30 2043 N 202.5 1.5196 0.417844 0
M  V30 2044 C 203.725 1.69717 1.1921 0
M  V30 2045 C 204.15 0.402148 1.83751 0
M  V30 2046 O 203.508 -0.639593 1.69643 0
M  V30 2047 C 203.556 2.82794 2.2374 0
M  V30 2048 O 202.66 2.47756 3.29683 0
M  V30 2049 H 202.001 0.565263 0.348387 0
M  V30 2050 H 204.531 1.98621 0.490985 0
M  V30 2051 H 204.541 3.07452 2.68212 0
M  V30 2052 H 203.216 3.76756 1.76146 0
M  V30 2053 H 201.793 2.33739 2.90552 0
M  V30 2054 N 203.978 -0.674533 1.42435 0
M  V30 2055 C 205.226 -1.43175 1.42637 0
M  V30 2056 C 205.547 -1.94951 0.0438992 0
M  V30 2057 O 204.817 -1.7308 -0.917607 0
M  V30 2058 H 203.397 -0.531307 0.525092 0
M  V30 2059 H 206.059 -0.797006 1.77859 0
M  V30 2060 H 205.155 -2.28463 2.12629 0
M  V30 2061 N 205.456 -1.28612 -0.910864 0
M  V30 2062 C 206.681 -1.1891 -1.69927 0
M  V30 2063 C 207.106 0.248372 -1.86453 0
M  V30 2064 O 206.464 1.17961 -1.37676 0
M  V30 2065 C 206.512 -1.89578 -3.06745 0
M  V30 2066 O 205.616 -1.20521 -3.94396 0
M  V30 2067 H 204.957 -0.412632 -0.520222 0
M  V30 2068 H 207.487 -1.69985 -1.1387 0
M  V30 2069 H 207.497 -1.97597 -3.56958 0
M  V30 2070 H 206.172 -2.94136 -2.94035 0
M  V30 2071 H 204.749 -1.20684 -3.52831 0
M  V30 2072 N 206.934 1.1197 -1.10907 0
M  V30 2073 C 207.897 2.16031 -0.765707 0
M  V30 2074 C 208.897 1.59393 0.212235 0
M  V30 2075 O 210.087 1.74196 -0.0115441 0
M  V30 2076 C 207.219 3.40632 -0.135053 0
M  V30 2077 H 208.412 2.47919 -1.68748 0
M  V30 2078 H 205.965 1.27061 -0.910226 0
M  V30 2079 H 206.7 3.14348 0.797218 0
M  V30 2080 H 206.485 3.8302 -0.838937 0
M  V30 2081 H 207.975 4.17505 0.0892469 0
M  V30 2082 N 208.412 0.89855 1.29475 0
M  V30 2083 C 209.342 0.39201 2.30186 0
M  V30 2084 C 210.323 -0.532359 1.61555 0
M  V30 2085 O 211.508 -0.443331 1.89072 0
M  V30 2086 C 208.638 -0.382353 3.45189 0
M  V30 2087 C 207.592 0.451483 4.25612 0
M  V30 2088 C 206.918 -0.450307 5.328 0
M  V30 2089 C 208.218 1.70079 4.93832 0
M  V30 2090 H 209.912 1.23362 2.72804 0
M  V30 2091 H 207.458 0.594638 1.31149 0
M  V30 2092 H 209.411 -0.747451 4.14718 0
M  V30 2093 H 208.135 -1.25774 3.01411 0
M  V30 2094 H 206.794 0.798897 3.57789 0
M  V30 2095 H 206.442 -1.32379 4.85268 0
M  V30 2096 H 206.142 0.103902 5.87508 0
M  V30 2097 H 207.666 -0.811623 6.05182 0
M  V30 2098 H 209.08 1.40549 5.55805 0
M  V30 2099 H 207.477 2.19623 5.58467 0
M  V30 2100 H 208.547 2.43744 4.19186 0
M  V30 2101 N 209.89 -1.43072 0.660911 0
M  V30 2102 C 211.306 -1.56169 0.329173 0
M  V30 2103 C 211.506 -1.64317 -1.16629 0
M  V30 2104 O 210.562 -1.60245 -1.95135 0
M  V30 2105 C 211.875 -2.81873 1.04729 0
M  V30 2106 C 213.423 -2.95627 1.02828 0
M  V30 2107 C 213.898 -4.24174 1.72744 0
M  V30 2108 N 215.389 -4.31055 1.69545 0
M  V30 2109 C 216.124 -5.29304 2.20511 0
M  V30 2110 N 215.62 -6.33786 2.79799 0
M  V30 2111 N 217.413 -5.21008 2.10966 0
M  V30 2112 H 209.564 -1.36027 1.63127 0
M  V30 2113 H 211.827 -0.653823 0.686454 0
M  V30 2114 H 211.533 -2.81942 2.10242 0
M  V30 2115 H 211.407 -3.72338 0.603702 0
M  V30 2116 H 213.794 -2.95094 -0.0184742 0
M  V30 2117 H 213.875 -2.06431 1.51063 0
M  V30 2118 H 213.519 -4.25467 2.7738 0
M  V30 2119 H 213.449 -5.1228 1.2197 0
M  V30 2120 H 215.94 -3.56174 1.26288 0
M  V30 2121 H 216.253 -7.05086 3.16344 0
M  V30 2122 H 214.598 -6.34387 2.83863 0
M  V30 2123 H 217.789 -4.38301 1.64347 0
M  V30 2124 H 217.962 -5.97416 2.50993 0
M  V30 2125 N 211.368 -0.403325 -1.52352 0
M  V30 2126 C 212.3 0.4603 -2.2453 0
M  V30 2127 C 213.313 1.01505 -1.27282 0
M  V30 2128 O 214.502 0.914982 -1.53266 0
M  V30 2129 C 211.602 1.65208 -2.95905 0
M  V30 2130 C 210.775 1.22224 -4.19976 0
M  V30 2131 C 209.834 2.28028 -4.74226 0
M  V30 2132 O 208.86 1.88857 -5.36956 0
M  V30 2133 N 210.062 3.6012 -4.55295 0
M  V30 2134 H 212.827 -0.158156 -2.99282 0
M  V30 2135 H 210.388 -0.230402 -1.60252 0
M  V30 2136 H 212.38 2.35541 -3.29093 0
M  V30 2137 H 210.95 2.17658 -2.24374 0
M  V30 2138 H 210.17 0.34725 -3.92668 0
M  V30 2139 H 211.458 0.911924 -5.00561 0
M  V30 2140 H 210.856 3.94698 -4.05253 0
M  V30 2141 H 209.413 4.26447 -4.92936 0
M  V30 2142 N 212.846 1.57033 -0.133567 0
M  V30 2143 C 213.809 2.14897 0.796995 0
M  V30 2144 C 214.809 1.0874 1.18458 0
M  V30 2145 O 215.999 1.34446 1.1077 0
M  V30 2146 C 213.131 2.70112 2.07973 0
M  V30 2147 H 214.324 2.98457 0.293873 0
M  V30 2148 H 211.877 1.55871 0.115787 0
M  V30 2149 H 212.612 1.9018 2.62682 0
M  V30 2150 H 212.397 3.47764 1.81115 0
M  V30 2151 H 213.887 3.14738 2.74462 0
M  V30 2152 N 214.325 -0.140222 1.56975 0
M  V30 2153 C 215.258 -1.20266 1.93936 0
M  V30 2154 C 216.236 -1.41212 0.806099 0
M  V30 2155 O 217.42 -1.55713 1.06234 0
M  V30 2156 C 214.547 -2.56037 2.21726 0
M  V30 2157 C 213.593 -2.51646 3.44349 0
M  V30 2158 S 214.426 -1.97678 4.97678 0
M  V30 2159 C 215.582 -3.35165 5.28597 0
M  V30 2160 H 215.815 -0.887358 2.83749 0
M  V30 2161 H 213.348 -0.346119 1.50471 0
M  V30 2162 H 215.306 -3.34167 2.38416 0
M  V30 2163 H 213.967 -2.84755 1.32566 0
M  V30 2164 H 213.16 -3.51608 3.61092 0
M  V30 2165 H 212.762 -1.81628 3.26936 0
M  V30 2166 H 215.054 -4.31302 5.2248 0
M  V30 2167 H 215.997 -3.23269 6.30002 0
M  V30 2168 H 216.405 -3.32614 4.56101 0
M  V30 2169 N 215.803 -1.52179 -0.40978 0
M  V30 2170 C 217.052 -1.65434 -1.15388 0
M  V30 2171 C 217.365 -0.390056 -1.91671 0
M  V30 2172 O 218.571 -0.402399 -2.68501 0
M  V30 2173 C 217.027 -2.92279 -2.10003 0
M  V30 2174 C 216.635 -4.25813 -1.39239 0
M  V30 2175 C 218.379 -3.14897 -2.84675 0
M  V30 2176 C 216.286 -5.43782 -2.32498 0
M  V30 2177 H 215.216 -0.616267 -0.434432 0
M  V30 2178 H 217.867 -1.78666 -0.418401 0
M  V30 2179 H 216.249 -2.72744 -2.871 0
M  V30 2180 H 217.423 -4.55828 -0.675099 0
M  V30 2181 H 215.738 -4.09292 -0.766097 0
M  V30 2182 H 218.335 -4.0021 -3.54593 0
M  V30 2183 H 218.678 -2.29103 -3.47588 0
M  V30 2184 H 219.211 -3.34901 -2.14677 0
M  V30 2185 H 215.95 -6.3192 -1.74233 0
M  V30 2186 H 215.47 -5.18106 -3.02201 0
M  V30 2187 H 217.149 -5.76834 -2.93038 0
M  V30 2188 N 217.281 0.66697 -1.42791 0
M  V30 2189 C 218.558 1.4234 -1.34159 0
M  V30 2190 C 218.938 2.11093 0.0172729 0
M  V30 2191 O 218.286 2.03808 1.03318 0
M  V30 2192 C 218.496 2.41942 -2.51526 0
M  V30 2193 C 219.844 3.06353 -2.93995 0
M  V30 2194 O 220.868 2.52269 -2.51473 0
M  V30 2195 O 219.727 4.04376 -3.67617 0
M  V30 2196 H 216.821 0.635277 -0.529483 0
M  V30 2197 H 219.367 0.695034 -1.54814 0
M  V30 2198 H 218.139 1.89991 -3.42081 0
M  V30 2199 H 217.762 3.22249 -2.32898 0
M  V30 2200 N 218.759 1.29093 0.90403 0
M  V30 2201 C 219.709 1.10482 1.99443 0
M  V30 2202 C 220.693 0.0255401 1.6088 0
M  V30 2203 O 221.885 0.24677 1.75271 0
M  V30 2204 C 219.014 0.778882 3.34348 0
M  V30 2205 C 218.1 1.89749 3.79284 0
M  V30 2206 N 218.491 3.14045 3.96497 0
M  V30 2207 C 216.789 1.78955 4.08523 0
M  V30 2208 C 217.49 3.86996 4.34292 0
M  V30 2209 N 216.466 3.14909 4.43095 0
M  V30 2210 H 220.268 2.04778 2.10815 0
M  V30 2211 H 217.782 1.20155 1.09255 0
M  V30 2212 H 219.779 0.62661 4.12164 0
M  V30 2213 H 218.439 -0.156205 3.24324 0
M  V30 2214 H 219.45 3.49548 3.82148 0
M  V30 2215 H 216.127 0.926886 4.07081 0
M  V30 2216 H 217.517 4.93941 4.55491 0
M  V30 2217 N 220.237 -1.11381 1.11499 0
M  V30 2218 C 221.486 -1.82494 0.858993 0
M  V30 2219 C 221.799 -1.85605 -0.617278 0
M  V30 2220 O 223.005 -2.52824 -0.989552 0
M  V30 2221 C 221.461 -3.27745 1.48699 0
M  V30 2222 C 221.069 -3.32961 2.99735 0
M  V30 2223 C 222.813 -4.03754 1.31085 0
M  V30 2224 C 220.72 -4.72612 3.55516 0
M  V30 2225 H 219.65 -0.683802 0.317696 0
M  V30 2226 H 222.301 -1.25331 1.34031 0
M  V30 2227 H 220.683 -3.84844 0.933339 0
M  V30 2228 H 221.857 -2.85741 3.61509 0
M  V30 2229 H 220.172 -2.70433 3.16631 0
M  V30 2230 H 222.769 -5.06891 1.70192 0
M  V30 2231 H 223.112 -4.15527 0.253496 0
M  V30 2232 H 223.645 -3.53043 1.83318 0
M  V30 2233 H 220.384 -4.66036 4.60967 0
M  V30 2234 H 219.904 -5.2024 2.98513 0
M  V30 2235 H 221.583 -5.4157 3.53992 0
M  V30 2236 N 221.715 -0.905404 -1.28997 0
M  V30 2237 C 222.663 -0.377431 -2.29517 0
M  V30 2238 C 223.657 0.526461 -1.61012 0
M  V30 2239 O 224.863 0.40863 -1.753 0
M  V30 2240 H 221.238 -0.103437 -0.744852 0
M  V30 2241 H 223.209 -1.23848 -2.71485 0
M  V30 2242 C 221.958 0.374833 -3.45674 0
M  V30 2243 H 221.281 -0.311474 -3.98585 0
M  V30 2244 H 222.721 0.70903 -4.1803 0
M  V30 2245 C 221.18 1.57963 -2.97572 0
M  V30 2246 O 221.71 2.67886 -2.99333 0
M  V30 2247 N 219.916 1.42375 -2.53333 0
M  V30 2248 H 219.463 0.529466 -2.521 0
M  V30 2249 H 219.421 2.23117 -2.21509 0
M  V30 2250 N 223.193 1.4272 -0.668489 0
M  V30 2251 C 224.441 2.01226 -0.187769 0
M  V30 2252 C 224.762 1.53092 1.2078 0
M  V30 2253 O 224.032 0.74993 1.80977 0
M  V30 2254 H 222.612 0.744041 -0.0664272 0
M  V30 2255 H 225.274 1.74723 -0.863583 0
M  V30 2256 H 224.37 3.11556 -0.184166 0
M  V30 2257 N 224.671 0.411399 1.52136 0
M  V30 2258 C 225.917 -0.163888 2.02137 0
M  V30 2259 C 226.25 -1.44597 1.29636 0
M  V30 2260 O 225.525 -1.90272 0.403353 0
M  V30 2261 C 225.808 -0.40927 3.57767 0
M  V30 2262 C 225.661 0.889643 4.40914 0
M  V30 2263 C 226.98 -1.19042 4.23694 0
M  V30 2264 H 224.099 -0.0580896 0.734707 0
M  V30 2265 H 226.741 0.54531 1.82007 0
M  V30 2266 H 224.891 -1.0134 3.7505 0
M  V30 2267 H 226.563 1.52575 4.35337 0
M  V30 2268 H 224.806 1.50011 4.07037 0
M  V30 2269 H 225.477 0.672314 5.4789 0
M  V30 2270 H 227.953 -0.678942 4.10524 0
M  V30 2271 H 226.829 -1.33086 5.32522 0
M  V30 2272 H 227.09 -2.21166 3.82803 0
M  V30 2273 N 226.149 -1.5696 0.141893 0
M  V30 2274 C 227.082 -2.12271 -0.837627 0
M  V30 2275 C 228.06 -1.04495 -1.24578 0
M  V30 2276 O 229.244 -1.32293 -1.34278 0
M  V30 2277 C 226.371 -2.63822 -2.12404 0
M  V30 2278 C 225.417 -3.83698 -1.86221 0
M  V30 2279 S 226.25 -5.24948 -1.05781 0
M  V30 2280 C 227.406 -5.79884 -2.35552 0
M  V30 2281 H 227.639 -2.95023 -0.367249 0
M  V30 2282 H 225.172 -1.54231 -0.0723014 0
M  V30 2283 H 227.13 -2.94175 -2.86307 0
M  V30 2284 H 225.791 -1.8121 -2.56557 0
M  V30 2285 H 224.984 -4.17995 -2.81596 0
M  V30 2286 H 224.586 -3.5408 -1.20429 0
M  V30 2287 H 226.878 -5.91005 -3.31239 0
M  V30 2288 H 227.821 -6.77544 -2.05767 0
M  V30 2289 H 228.229 -5.08095 -2.45967 0
M  V30 2290 N 227.627 0.131896 -1.57047 0
M  V30 2291 C 228.59 1.14638 -1.98471 0
M  V30 2292 C 229.59 1.35029 -0.873148 0
M  V30 2293 O 230.78 1.31764 -1.13946 0
M  V30 2294 C 227.912 2.50358 -2.31373 0
M  V30 2295 H 229.105 0.79064 -2.8929 0
M  V30 2296 H 226.658 0.375761 -1.51716 0
M  V30 2297 H 227.393 2.90876 -1.43393 0
M  V30 2298 H 227.178 2.36915 -3.12432 0
M  V30 2299 H 228.668 3.23395 -2.64207 0
M  V30 2300 N 229.106 1.52395 0.401703 0
M  V30 2301 C 230.056 1.72649 1.48917 0
M  V30 2302 C 231.04 0.580436 1.50066 0
M  V30 2303 O 232.232 0.83779 1.55917 0
M  V30 2304 C 229.361 1.88729 2.86769 0
M  V30 2305 C 228.447 3.09228 2.90239 0
M  V30 2306 N 228.838 4.31805 2.63396 0
M  V30 2307 C 227.136 3.09214 3.21408 0
M  V30 2308 C 227.837 5.13326 2.73625 0
M  V30 2309 N 226.813 4.48735 3.06819 0
M  V30 2310 H 230.615 2.65058 1.26971 0
M  V30 2311 H 228.129 1.50528 0.609504 0
M  V30 2312 H 230.126 2.01358 3.65049 0
M  V30 2313 H 228.786 0.975252 3.09708 0
M  V30 2314 H 229.797 4.60154 2.37653 0
M  V30 2315 H 226.474 2.27774 3.49893 0
M  V30 2316 H 227.864 6.21003 2.56524 0
M  V30 2317 N 230.584 -0.659388 1.43143 0
M  V30 2318 C 231.814 -1.44513 1.47646 0
M  V30 2319 C 232.222 -1.88981 0.0910095 0
M  V30 2320 O 231.565 -1.59702 -0.907789 0
M  V30 2321 C 231.627 -2.71663 2.35456 0
M  V30 2322 C 231.291 -2.49175 3.83094 0
M  V30 2323 C 232.288 -2.1279 4.74359 0
M  V30 2324 C 229.973 -2.63691 4.27519 0
M  V30 2325 C 231.967 -1.9121 6.08044 0
M  V30 2326 C 229.654 -2.41726 5.61259 0
M  V30 2327 C 230.652 -2.0554 6.51339 0
M  V30 2328 O 230.34 -1.838 7.82606 0
M  V30 2329 H 230.072 -0.45064 0.503884 0
M  V30 2330 H 232.626 -0.816248 1.88485 0
M  V30 2331 H 230.856 -3.37089 1.89493 0
M  V30 2332 H 232.545 -3.33595 2.31235 0
M  V30 2333 H 233.311 -2.01157 4.41317 0
M  V30 2334 H 229.19 -2.90832 3.57684 0
M  V30 2335 H 232.734 -1.62889 6.78316 0
M  V30 2336 H 228.631 -2.52959 5.9387 0
M  V30 2337 H 229.399 -1.98275 7.94122 0
M  V30 2338 N 232.062 -1.29571 -0.897171 0
M  V30 2339 C 233.009 -1.14916 -2.00158 0
M  V30 2340 C 233.979 -0.0418149 -1.66047 0
M  V30 2341 O 235.164 -0.209793 -1.89643 0
M  V30 2342 C 232.304 -0.834307 -3.34863 0
M  V30 2343 C 231.417 -2.02234 -3.8174 0
M  V30 2344 C 230.552 -1.64664 -5.05034 0
M  V30 2345 C 229.591 -2.80033 -5.44286 0
M  V30 2346 N 228.728 -2.42843 -6.58765 0
M  V30 2347 H 233.568 -2.09403 -2.12025 0
M  V30 2348 H 231.105 -1.042 -1.0383 0
M  V30 2349 H 233.063 -0.632436 -4.12379 0
M  V30 2350 H 231.693 0.0736656 -3.22716 0
M  V30 2351 H 230.745 -2.33583 -3.00238 0
M  V30 2352 H 232.057 -2.88673 -4.06779 0
M  V30 2353 H 231.211 -1.4078 -5.9014 0
M  V30 2354 H 229.95 -0.753766 -4.8184 0
M  V30 2355 H 228.955 -3.04596 -4.57713 0
M  V30 2356 H 230.18 -3.69989 -5.6946 0
M  V30 2357 H 228.126 -1.56046 -6.3717 0
M  V30 2358 H 228.043 -3.22815 -6.83613 0
M  V30 2359 H 229.311 -2.22285 -7.47134 0
M  V30 2360 N 233.54 1.10788 -1.12088 0
M  V30 2361 C 234.788 1.8231 -0.872205 0
M  V30 2362 C 235.109 1.85419 0.603709 0
M  V30 2363 O 234.379 1.32963 1.43867 0
M  V30 2364 H 232.959 0.675137 -0.319686 0
M  V30 2365 H 235.621 1.34068 -1.41463 0
M  V30 2366 H 234.717 2.85955 -1.25045 0
M  V30 2367 N 235.018 0.912232 1.28515 0
M  V30 2368 C 235.965 0.397954 2.27343 0
M  V30 2369 C 236.935 -0.526766 1.57526 0
M  V30 2370 O 238.12 -0.449292 1.85435 0
M  V30 2371 C 235.26 -0.357263 3.43246 0
M  V30 2372 C 234.373 0.599788 4.27816 0
M  V30 2373 C 233.508 -0.173725 5.30916 0
M  V30 2374 C 232.547 0.777039 6.07148 0
M  V30 2375 N 231.684 0.0371398 7.0209 0
M  V30 2376 H 236.524 1.24577 2.70711 0
M  V30 2377 H 234.061 0.625612 1.33133 0
M  V30 2378 H 236.019 -0.8113 4.09236 0
M  V30 2379 H 234.649 -1.16943 3.00872 0
M  V30 2380 H 233.701 1.17235 3.61884 0
M  V30 2381 H 235.013 1.32704 4.80823 0
M  V30 2382 H 234.167 -0.688394 6.02782 0
M  V30 2383 H 232.906 -0.934041 4.78672 0
M  V30 2384 H 231.911 1.3031 5.34134 0
M  V30 2385 H 233.136 1.53689 6.61481 0
M  V30 2386 H 231.082 -0.705213 6.52198 0
M  V30 2387 H 230.999 0.704249 7.52713 0
M  V30 2388 H 232.267 -0.457383 7.78157 0
M  V30 2389 N 236.496 -1.42363 0.676048 0
M  V30 2390 C 237.745 -2.00745 0.196037 0
M  V30 2391 C 238.058 -1.54083 -1.20489 0
M  V30 2392 O 239.264 -2.04891 -1.78134 0
M  V30 2393 C 237.72 -3.58651 0.299616 0
M  V30 2394 C 237.328 -4.143 1.70468 0
M  V30 2395 C 239.072 -4.24326 -0.121619 0
M  V30 2396 C 236.979 -5.64574 1.76096 0
M  V30 2397 H 235.909 -0.750787 0.0695301 0
M  V30 2398 H 238.56 -1.63072 0.841412 0
M  V30 2399 H 236.942 -3.93833 -0.413673 0
M  V30 2400 H 238.116 -3.90575 2.44515 0
M  V30 2401 H 236.431 -3.61081 2.07387 0
M  V30 2402 H 239.028 -5.34607 -0.0997362 0
M  V30 2403 H 239.371 -3.99897 -1.15708 0
M  V30 2404 H 239.904 -3.94108 0.540706 0
M  V30 2405 H 236.643 -5.93804 2.77628 0
M  V30 2406 H 236.163 -5.90286 1.06406 0
M  V30 2407 H 237.842 -6.29013 1.51496 0
M  V30 2408 N 237.974 -0.419461 -1.51915 0
M  V30 2409 C 239.22 0.153166 -2.02221 0
M  V30 2410 C 239.553 1.43907 -1.30401 0
M  V30 2411 O 238.828 1.90055 -0.413438 0
M  V30 2412 C 239.111 0.390291 -3.57979 0
M  V30 2413 C 238.964 -0.913014 -4.40436 0
M  V30 2414 C 240.283 1.16794 -4.2432 0
M  V30 2415 H 237.402 0.0541924 -0.735005 0
M  V30 2416 H 240.044 -0.554955 -1.81715 0
M  V30 2417 H 238.194 0.993491 -3.75582 0
M  V30 2418 H 239.866 -1.54882 -4.34522 0
M  V30 2419 H 238.109 -1.52168 -4.06236 0
M  V30 2420 H 238.78 -0.701361 -5.47526 0
M  V30 2421 H 241.256 0.657161 -4.10878 0
M  V30 2422 H 240.132 1.3026 -5.3322 0
M  V30 2423 H 240.393 2.19132 -3.83971 0
M  V30 2424 N 239.452 1.56882 -0.150215 0
M  V30 2425 C 240.384 2.14057 0.819286 0
M  V30 2426 C 241.397 1.09082 1.20851 0
M  V30 2427 O 242.586 1.36347 1.15203 0
M  V30 2428 C 239.686 2.65102 2.11127 0
M  V30 2429 C 238.859 3.94511 1.88891 0
M  V30 2430 C 237.918 4.30834 3.02107 0
M  V30 2431 O 236.944 4.99099 2.73659 0
M  V30 2432 N 238.146 3.90676 4.29363 0
M  V30 2433 H 240.911 2.97871 0.330618 0
M  V30 2434 H 238.472 1.61866 0.0332538 0
M  V30 2435 H 240.464 2.86411 2.85921 0
M  V30 2436 H 239.034 1.85994 2.51247 0
M  V30 2437 H 238.254 3.81795 0.981152 0
M  V30 2438 H 239.542 4.7907 1.71376 0
M  V30 2439 H 238.94 3.35677 4.55343 0
M  V30 2440 H 237.497 4.1703 5.00928 0
M  V30 2441 N 240.93 -0.123565 1.57115 0
M  V30 2442 C 242.176 -0.828428 1.85765 0
M  V30 2443 C 242.531 -1.77709 0.737371 0
M  V30 2444 O 241.824 -1.89787 -0.262978 0
M  V30 2445 C 242.018 -1.62016 3.18568 0
M  V30 2446 C 241.847 -0.749663 4.43407 0
M  V30 2447 C 240.617 -0.406251 5.03664 0
M  V30 2448 C 242.815 -0.0693505 5.14253 0
M  V30 2449 N 240.797 0.475389 6.12057 0
M  V30 2450 C 242.168 0.671474 6.16353 0
M  V30 2451 C 244.223 0.00754393 4.97899 0
M  V30 2452 C 242.926 1.48197 7.03868 0
M  V30 2453 C 244.952 0.804845 5.85898 0
M  V30 2454 C 244.314 1.53388 6.87497 0
M  V30 2455 H 240.413 -0.280219 0.73007 0
M  V30 2456 H 242.997 -0.0924183 1.94481 0
M  V30 2457 H 241.168 -2.32724 3.10957 0
M  V30 2458 H 242.9 -2.27 3.35042 0
M  V30 2459 H 239.655 -0.747446 4.67665 0
M  V30 2460 H 240.079 0.907924 6.70884 0
M  V30 2461 H 244.721 -0.541741 4.19315 0
M  V30 2462 H 242.439 2.04242 7.81864 0
M  V30 2463 H 246.025 0.866642 5.75309 0
M  V30 2464 H 244.905 2.1409 7.5441 0
M  V30 2465 N 242.408 -1.52605 -0.393616 0
M  V30 2466 C 243.685 -1.58001 -1.15304 0
M  V30 2467 C 244.065 -0.370385 -2.07825 0
M  V30 2468 O 243.413 0.641638 -2.19306 0
M  V30 2469 C 243.623 -2.91652 -1.91677 0
M  V30 2470 C 244.971 -3.4522 -2.47201 0
M  V30 2471 O 245.995 -2.93495 -2.01839 0
M  V30 2472 O 244.854 -4.35579 -3.3005 0
M  V30 2473 H 241.948 -0.637068 -0.527327 0
M  V30 2474 H 244.494 -1.64939 -0.399141 0
M  V30 2475 H 243.266 -3.71136 -1.23992 0
M  V30 2476 H 242.889 -2.88077 -2.74039 0
M  V30 2477 N 243.887 0.651787 -1.4349 0
M  V30 2478 C 245.133 1.41376 -1.45398 0
M  V30 2479 C 245.466 1.94041 -0.0784823 0
M  V30 2480 O 244.741 1.72379 0.900878 0
M  V30 2481 C 245.024 2.59414 -2.49752 0
M  V30 2482 C 244.877 2.12232 -3.96582 0
M  V30 2483 C 246.196 3.61626 -2.50827 0
M  V30 2484 H 243.315 0.512719 -0.529422 0
M  V30 2485 H 245.957 0.738796 -1.75048 0
M  V30 2486 H 244.107 3.16997 -2.246 0
M  V30 2487 H 245.779 1.59639 -4.32797 0
M  V30 2488 H 244.022 1.43592 -4.09346 0
M  V30 2489 H 244.693 2.9712 -4.65214 0
M  V30 2490 H 247.169 3.13805 -2.7325 0
M  V30 2491 H 246.045 4.41766 -3.25783 0
M  V30 2492 H 246.306 4.14314 -1.5426 0
M  V30 2493 N 245.365 1.30045 0.890287 0
M  V30 2494 C 246.611 1.18737 1.64406 0
M  V30 2495 C 246.944 -0.258525 1.92472 0
M  V30 2496 O 246.219 -1.18562 1.54186 0
M  V30 2497 C 246.502 2.01087 2.98724 0
M  V30 2498 C 246.355 3.53867 2.77665 0
M  V30 2499 C 247.674 1.84457 3.9958 0
M  V30 2500 H 244.793 0.432698 0.596608 0
M  V30 2501 H 247.435 1.5962 1.0306 0
M  V30 2502 H 245.585 1.66349 3.51084 0
M  V30 2503 H 247.257 3.98637 2.32133 0
M  V30 2504 H 245.5 3.78318 2.12269 0
M  V30 2505 H 246.171 4.06772 3.7315 0
M  V30 2506 H 248.647 2.14817 3.56361 0
M  V30 2507 H 247.523 2.44411 4.91482 0
M  V30 2508 H 247.784 0.802276 4.3476 0
M  V30 2509 N 246.843 -1.10192 1.12674 0
M  V30 2510 C 247.791 -2.18694 0.792196 0
M  V30 2511 C 248.785 -1.67938 -0.222058 0
M  V30 2512 O 249.991 -1.79822 -0.0800074 0
M  V30 2513 H 246.366 -0.713223 0.238364 0
M  V30 2514 H 248.337 -2.44149 1.71564 0
M  V30 2515 C 247.086 -3.46682 0.265859 0
M  V30 2516 H 246.409 -3.86101 1.03761 0
M  V30 2517 H 247.849 -4.23942 0.0701128 0
M  V30 2518 C 246.308 -3.21506 -1.00675 0
M  V30 2519 O 246.838 -3.43408 -2.08408 0
M  V30 2520 N 245.044 -2.75158 -0.934692 0
M  V30 2521 H 244.591 -2.57535 -0.0578604 0
M  V30 2522 H 244.549 -2.58691 -1.7868 0
M  V30 2523 N 248.321 -0.919034 -1.28029 0
M  V30 2524 C 249.231 -0.416756 -2.30869 0
M  V30 2525 C 250.247 0.498235 -1.66714 0
M  V30 2526 O 251.423 0.383144 -1.97722 0
M  V30 2527 C 248.488 0.330274 -3.45123 0
M  V30 2528 C 247.549 -0.618578 -4.2482 0
M  V30 2529 C 246.782 0.0928959 -5.33619 0
M  V30 2530 O 247.005 1.31375 -5.55065 0
M  V30 2531 O 245.939 -0.574499 -5.99152 0
M  V30 2532 H 249.765 -1.27043 -2.75851 0
M  V30 2533 H 247.35 -0.684052 -1.3282 0
M  V30 2534 H 249.232 0.751972 -4.14636 0
M  V30 2535 H 247.907 1.1597 -3.02213 0
M  V30 2536 H 246.814 -1.08978 -3.57875 0
M  V30 2537 H 248.147 -1.41497 -4.71423 0
M  V30 2538 N 249.799 1.42003 -0.683588 0
M  V30 2539 C 250.762 2.29191 -0.0198243 0
M  V30 2540 C 251.762 1.43773 0.72013 0
M  V30 2541 O 252.952 1.65061 0.556815 0
M  V30 2542 C 250.084 3.26435 0.982487 0
M  V30 2543 H 251.277 2.8938 -0.787345 0
M  V30 2544 H 248.83 1.49789 -0.446418 0
M  V30 2545 H 249.565 2.71203 1.77819 0
M  V30 2546 H 249.35 3.89449 0.455182 0
M  V30 2547 H 250.84 3.918 1.44508 0
M  V30 2548 N 251.277 0.427512 1.51691 0
M  V30 2549 C 252.524 -0.142229 2.02 0
M  V30 2550 C 252.852 -1.43566 1.31221 0
M  V30 2551 O 252.107 -1.91298 0.412744 0
M  V30 2552 C 252.406 -0.418249 3.54944 0
M  V30 2553 C 252.072 0.788187 4.43958 0
M  V30 2554 C 250.734 1.11906 4.68007 0
M  V30 2555 C 253.086 1.59347 4.96244 0
M  V30 2556 C 250.414 2.25608 5.41588 0
M  V30 2557 C 252.766 2.7214 5.71072 0
M  V30 2558 C 251.43 3.05692 5.93387 0
M  V30 2559 H 250.7 -0.0520451 0.73917 0
M  V30 2560 H 253.347 0.572697 1.82736 0
M  V30 2561 H 251.652 -1.21496 3.72486 0
M  V30 2562 H 253.349 -0.872339 3.91397 0
M  V30 2563 H 249.939 0.520344 4.2543 0
M  V30 2564 H 254.123 1.35106 4.77556 0
M  V30 2565 H 249.379 2.51929 5.57083 0
M  V30 2566 H 253.553 3.34914 6.10578 0
M  V30 2567 H 251.18 3.9391 6.50184 0
M  V30 2568 N 252.755 -1.56801 0.158532 0
M  V30 2569 C 253.718 -2.16138 -0.762705 0
M  V30 2570 C 254.718 -1.1061 -1.16713 0
M  V30 2571 O 255.908 -1.36191 -1.08617 0
M  V30 2572 C 253.04 -2.73386 -2.03649 0
M  V30 2573 H 254.233 -2.98886 -0.246354 0
M  V30 2574 H 251.786 -1.56035 -0.0909744 0
M  V30 2575 H 252.521 -1.94335 -2.59623 0
M  V30 2576 H 252.306 -3.50601 -1.75559 0
M  V30 2577 H 253.796 -3.19065 -2.6942 0
M  V30 2578 N 254.233 0.115231 -1.57178 0
M  V30 2579 C 255.51 0.852873 -1.76027 0
M  V30 2580 C 255.89 1.97892 -0.73498 0
M  V30 2581 O 255.238 2.27232 0.24036 0
M  V30 2582 C 255.448 1.36608 -3.21153 0
M  V30 2583 C 256.796 1.81692 -3.83762 0
M  V30 2584 O 257.82 1.46278 -3.24779 0
M  V30 2585 O 256.679 2.47104 -4.87444 0
M  V30 2586 H 253.773 0.405296 -0.720877 0
M  V30 2587 H 256.319 0.0986785 -1.69413 0
M  V30 2588 H 255.091 0.558357 -3.87296 0
M  V30 2589 H 254.714 2.18287 -3.3232 0
M  V30 2590 N 255.711 1.52812 0.385517 0
M  V30 2591 C 256.959 1.67694 1.12797 0
M  V30 2592 C 257.28 0.421115 1.90399 0
M  V30 2593 O 256.55 -0.564551 1.87589 0
M  V30 2594 H 255.13 0.618155 0.419396 0
M  V30 2595 H 257.792 1.89938 0.436972 0
M  V30 2596 H 256.888 2.52896 1.82894 0
M  V30 2597 N 257.189 -0.644168 1.43834 0
M  V30 2598 C 258.414 -1.43642 1.49605 0
M  V30 2599 C 258.839 -1.8773 0.117913 0
M  V30 2600 O 258.197 -1.57938 -0.890239 0
M  V30 2601 C 258.245 -2.6416 2.45463 0
M  V30 2602 O 257.349 -3.63538 1.94714 0
M  V30 2603 H 256.69 -0.430329 0.50568 0
M  V30 2604 H 259.22 -0.787448 1.8884 0
M  V30 2605 H 259.23 -3.11864 2.63068 0
M  V30 2606 H 257.905 -2.31414 3.45572 0
M  V30 2607 H 256.482 -3.2273 1.86814 0
M  V30 2608 N 258.668 -1.30515 -0.883378 0
M  V30 2609 C 259.893 -1.22487 -1.67367 0
M  V30 2610 C 260.318 0.208767 -1.86938 0
M  V30 2611 O 259.676 1.15015 -1.40148 0
M  V30 2612 C 259.724 -1.96041 -3.02655 0
M  V30 2613 O 258.828 -1.28859 -3.91751 0
M  V30 2614 H 258.169 -0.423573 -0.511353 0
M  V30 2615 H 260.699 -1.72362 -1.10239 0
M  V30 2616 H 260.709 -2.05124 -3.52687 0
M  V30 2617 H 259.384 -3.00307 -2.8773 0
M  V30 2618 H 257.961 -1.28141 -3.50192 0
M  V30 2619 N 260.146 1.09593 -1.13257 0
M  V30 2620 C 261.394 1.81375 -0.891492 0
M  V30 2621 C 261.715 1.86049 0.584009 0
M  V30 2622 O 260.985 1.34481 1.42449 0
M  V30 2623 H 259.565 0.671708 -0.326828 0
M  V30 2624 H 262.227 1.3256 -1.42877 0
M  V30 2625 H 261.323 2.84612 -1.28071 0
M  V30 2626 N 261.624 0.925811 1.2754 0
M  V30 2627 C 262.587 0.428129 2.25166 0
M  V30 2628 C 263.587 -0.452261 1.54309 0
M  V30 2629 O 264.777 -0.253608 1.72344 0
M  V30 2630 C 261.909 -0.384749 3.38722 0
M  V30 2631 H 263.102 1.29066 2.70706 0
M  V30 2632 H 260.655 0.706323 1.3943 0
M  V30 2633 H 261.39 -1.26618 2.98561 0
M  V30 2634 H 261.175 0.246454 3.91325 0
M  V30 2635 H 262.665 -0.723389 4.11287 0
M  V30 2636 N 263.102 -1.41638 0.69111 0
M  V30 2637 C 264.518 -1.55435 0.362224 0
M  V30 2638 C 264.718 -1.66754 -1.13117 0
M  V30 2639 O 263.774 -1.64348 -1.91692 0
M  V30 2640 C 265.087 -2.79588 1.10684 0
M  V30 2641 C 266.635 -2.9338 1.09075 0
M  V30 2642 C 267.11 -4.20414 1.81703 0
M  V30 2643 N 268.601 -4.27362 1.7865 0
M  V30 2644 C 269.336 -5.24507 2.31689 0
M  V30 2645 N 268.832 -6.27708 2.93179 0
M  V30 2646 N 270.625 -5.16416 2.2197 0
M  V30 2647 H 262.776 -1.32536 1.65976 0
M  V30 2648 H 265.039 -0.639115 0.700168 0
M  V30 2649 H 264.745 -2.77419 2.16175 0
M  V30 2650 H 264.619 -3.70973 0.682545 0
M  V30 2651 H 267.006 -2.95067 0.0441238 0
M  V30 2652 H 267.087 -2.0318 1.55407 0
M  V30 2653 H 266.731 -4.19488 2.86343 0
M  V30 2654 H 266.661 -5.09578 1.32808 0
M  V30 2655 H 269.152 -3.53415 1.33815 0
M  V30 2656 H 269.465 -6.98217 3.31229 0
M  V30 2657 H 267.81 -6.28223 2.97255 0
M  V30 2658 H 271.001 -4.34716 1.73607 0
M  V30 2659 H 271.174 -5.91958 2.63609 0
M  V30 2660 N 264.58 -0.43555 -1.51462 0
M  V30 2661 C 265.996 -0.0877501 -1.59359 0
M  V30 2662 C 266.196 1.4027 -1.4466 0
M  V30 2663 O 265.252 2.17243 -1.28693 0
M  V30 2664 C 266.565 -0.606264 -2.94525 0
M  V30 2665 C 268.113 -0.566548 -3.0783 0
M  V30 2666 C 268.588 -1.06201 -4.45517 0
M  V30 2667 N 270.079 -1.01992 -4.51832 0
M  V30 2668 C 270.814 -1.37417 -5.5669 0
M  V30 2669 N 270.31 -1.80119 -6.68976 0
M  V30 2670 N 272.103 -1.29245 -5.47039 0
M  V30 2671 H 264.254 -1.40533 -1.59261 0
M  V30 2672 H 266.517 -0.578992 -0.750648 0
M  V30 2673 H 266.223 -1.64901 -3.10645 0
M  V30 2674 H 266.097 -0.0302097 -3.77188 0
M  V30 2675 H 268.484 0.467208 -2.91378 0
M  V30 2676 H 268.565 -1.17898 -2.2701 0
M  V30 2677 H 268.209 -2.09422 -4.62715 0
M  V30 2678 H 268.139 -0.426127 -5.24873 0
M  V30 2679 H 270.63 -0.706308 -3.71241 0
M  V30 2680 H 270.943 -2.05392 -7.45006 0
M  V30 2681 H 269.288 -1.84044 -6.70189 0
M  V30 2682 H 272.479 -0.957522 -4.58202 0
M  V30 2683 H 272.652 -1.57182 -6.28648 0
M  V30 2684 N 266.058 1.56714 -0.166846 0
M  V30 2685 C 267.335 1.88412 0.525373 0
M  V30 2686 C 267.715 1.07602 1.81618 0
M  V30 2687 O 267.063 0.168621 2.27877 0
M  V30 2688 C 267.273 3.40363 0.771613 0
M  V30 2689 C 268.621 4.10007 1.1036 0
M  V30 2690 O 269.645 3.45655 0.860304 0
M  V30 2691 O 268.504 5.2369 1.56239 0
M  V30 2692 H 265.598 0.781587 0.270278 0
M  V30 2693 H 268.144 1.68458 -0.204946 0
M  V30 2694 H 266.916 3.91046 -0.141093 0
M  V30 2695 H 266.539 3.65914 1.55541 0
M  V30 2696 N 267.536 -0.106894 1.57237 0
M  V30 2697 C 268.761 -0.830287 1.90055 0
M  V30 2698 C 269.186 -1.72064 0.75998 0
M  V30 2699 O 268.544 -1.78982 -0.288991 0
M  V30 2700 C 268.592 -1.6295 3.21683 0
M  V30 2701 O 267.696 -2.73748 3.08441 0
M  V30 2702 H 267.037 -0.228855 0.623315 0
M  V30 2703 H 269.567 -0.085658 2.04421 0
M  V30 2704 H 269.577 -2.01621 3.54701 0
M  V30 2705 H 268.252 -0.975989 4.04286 0
M  V30 2706 H 266.829 -2.38192 2.86913 0
M  V30 2707 N 269.014 -1.53014 -0.377408 0
M  V30 2708 C 269.962 -1.7927 -1.48206 0
M  V30 2709 C 270.956 -0.661195 -1.55963 0
M  V30 2710 O 272.162 -0.843908 -1.58991 0
M  V30 2711 H 268.537 -0.567425 -0.493491 0
M  V30 2712 H 270.508 -2.71753 -1.2326 0
M  V30 2713 C 269.257 -1.98894 -2.85196 0
M  V30 2714 H 268.58 -2.85395 -2.79981 0
M  V30 2715 H 270.02 -2.21249 -3.61698 0
M  V30 2716 C 268.479 -0.764691 -3.28107 0
M  V30 2717 O 269.009 0.0523226 -4.01666 0
M  V30 2718 N 267.215 -0.591493 -2.84517 0
M  V30 2719 H 266.762 -1.25749 -2.24822 0
M  V30 2720 H 266.72 0.226253 -3.13585 0
M  V30 2721 N 270.492 0.636531 -1.44174 0
M  V30 2722 C 271.422 1.76003 -1.53444 0
M  V30 2723 C 272.403 1.65619 -0.387841 0
M  V30 2724 O 273.588 1.84461 -0.607257 0
M  V30 2725 C 270.718 3.14511 -1.4731 0
M  V30 2726 C 269.672 3.39677 -2.60391 0
M  V30 2727 C 268.998 4.78159 -2.39308 0
M  V30 2728 C 270.298 3.32772 -4.02567 0
M  V30 2729 H 271.992 1.68501 -2.47483 0
M  V30 2730 H 269.538 0.809237 -1.19111 0
M  V30 2731 H 271.491 3.92878 -1.52397 0
M  V30 2732 H 270.215 3.22783 -0.49785 0
M  V30 2733 H 268.874 2.63688 -2.54684 0
M  V30 2734 H 268.522 4.83128 -1.39988 0
M  V30 2735 H 268.222 4.95956 -3.15122 0
M  V30 2736 H 269.746 5.58762 -2.46205 0
M  V30 2737 H 271.16 4.01051 -4.09672 0
M  V30 2738 H 269.557 3.62104 -4.7854 0
M  V30 2739 H 270.627 2.30669 -4.2652 0
M  V30 2740 N 271.97 1.30982 0.876444 0
M  V30 2741 C 272.902 1.13902 1.98894 0
M  V30 2742 C 273.915 0.0798815 1.62604 0
M  V30 2743 O 275.104 0.326743 1.75484 0
M  V30 2744 C 272.204 0.716699 3.31235 0
M  V30 2745 C 271.377 1.85945 3.95908 0
M  V30 2746 C 270.436 1.42426 5.06558 0
M  V30 2747 O 269.462 2.13287 5.27729 0
M  V30 2748 N 270.664 0.308025 5.79682 0
M  V30 2749 H 273.429 2.09724 2.14094 0
M  V30 2750 H 270.99 1.2323 1.05004 0
M  V30 2751 H 272.982 0.408403 4.02634 0
M  V30 2752 H 271.552 -0.149719 3.12241 0
M  V30 2753 H 270.772 2.33541 3.17573 0
M  V30 2754 H 272.06 2.62503 4.35855 0
M  V30 2755 H 271.458 -0.282241 5.64995 0
M  V30 2756 H 270.015 0.0592282 6.51773 0
M  V30 2757 N 273.449 -1.08991 1.13837 0
M  V30 2758 C 274.865 -1.33312 0.877506 0
M  V30 2759 C 275.065 -1.95587 -0.48456 0
M  V30 2760 O 274.121 -2.20509 -1.23013 0
M  V30 2761 C 275.434 -2.24045 2.0056 0
M  V30 2762 C 276.982 -2.37542 2.03821 0
M  V30 2763 C 277.457 -3.31614 3.15905 0
M  V30 2764 N 278.948 -3.39189 3.15445 0
M  V30 2765 C 279.683 -4.11992 3.98811 0
M  V30 2766 N 279.179 -4.87553 4.92203 0
M  V30 2767 N 280.972 -4.07762 3.86894 0
M  V30 2768 H 273.123 -0.669456 2.01574 0
M  V30 2769 H 275.386 -0.357482 0.878015 0
M  V30 2770 H 275.092 -1.85521 2.98789 0
M  V30 2771 H 274.966 -3.24466 1.92359 0
M  V30 2772 H 277.353 -2.75327 1.06202 0
M  V30 2773 H 277.434 -1.36884 2.16093 0
M  V30 2774 H 277.078 -2.94551 4.13766 0
M  V30 2775 H 277.008 -4.32186 3.0087 0
M  V30 2776 H 279.499 -2.85314 2.47799 0
M  V30 2777 H 279.812 -5.40549 5.52292 0
M  V30 2778 H 278.157 -4.86627 4.96205 0
M  V30 2779 H 281.348 -3.47833 3.13257 0
M  V30 2780 H 281.521 -4.64238 4.52092 0
M  V30 2781 N 274.927 -0.932562 -1.27047 0
M  V30 2782 C 276.152 -0.591474 -1.98787 0
M  V30 2783 C 276.577 0.824601 -1.69062 0
M  V30 2784 O 275.935 1.5541 -0.933677 0
M  V30 2785 C 275.983 -0.829808 -3.50922 0
M  V30 2786 O 275.087 0.102266 -4.12273 0
M  V30 2787 H 274.428 -0.227185 -0.623926 0
M  V30 2788 H 276.958 -1.25314 -1.61733 0
M  V30 2789 H 276.968 -0.747292 -4.01098 0
M  V30 2790 H 275.643 -1.86201 -3.7189 0
M  V30 2791 H 274.22 -0.0305761 -3.72887 0
M  V30 2792 N 276.405 1.4127 -0.698611 0
M  V30 2793 C 277.653 2.00782 -0.230409 0
M  V30 2794 C 277.974 1.5562 1.17505 0
M  V30 2795 O 277.244 0.78815 1.79346 0
M  V30 2796 H 275.824 0.742464 -0.0821944 0
M  V30 2797 H 278.486 1.72852 -0.90045 0
M  V30 2798 H 277.582 3.11095 -0.25021 0
M  V30 2799 N 277.883 0.443576 1.51229 0
M  V30 2800 C 278.831 -0.37904 2.29491 0
M  V30 2801 C 279.825 -1.0153 1.35603 0
M  V30 2802 O 281.031 -0.94955 1.52917 0
M  V30 2803 H 277.406 -0.141053 0.738653 0
M  V30 2804 H 279.377 0.301799 2.9687 0
M  V30 2805 C 278.126 -1.46426 3.15364 0
M  V30 2806 H 277.449 -0.984037 3.87501 0
M  V30 2807 H 278.889 -2.01297 3.7317 0
M  V30 2808 C 277.348 -2.45099 2.31146 0
M  V30 2809 O 277.878 -3.49773 1.9754 0
M  V30 2810 N 276.084 -2.16139 1.94249 0
M  V30 2811 H 275.631 -1.31044 2.21777 0
M  V30 2812 H 275.589 -2.82398 1.38198 0
M  V30 2813 N 279.361 -1.56624 0.175154 0
M  V30 2814 C 280.638 -1.88688 -0.515373 0
M  V30 2815 C 281.018 -1.08564 -1.81044 0
M  V30 2816 O 280.366 -0.180703 -2.27784 0
M  V30 2817 C 280.576 -3.40768 -0.753552 0
M  V30 2818 C 281.924 -4.10587 -1.08184 0
M  V30 2819 O 282.948 -3.46106 -0.841961 0
M  V30 2820 O 281.807 -5.24512 -1.53459 0
M  V30 2821 H 278.901 -0.78301 -0.26613 0
M  V30 2822 H 281.447 -1.68347 0.213877 0
M  V30 2823 H 280.219 -3.90965 0.161829 0
M  V30 2824 H 279.842 -3.66733 -1.53598 0
M  V30 2825 N 280.839 0.0985539 -1.57292 0
M  V30 2826 C 282.085 0.798769 -1.87059 0
M  V30 2827 C 282.44 1.76514 -0.76555 0
M  V30 2828 O 281.733 1.90181 0.232752 0
M  V30 2829 C 281.927 1.56927 -3.21105 0
M  V30 2830 C 281.756 0.679026 -4.44544 0
M  V30 2831 C 280.526 0.326071 -5.04247 0
M  V30 2832 C 282.724 -0.0124715 -5.14298 0
M  V30 2833 N 280.706 -0.572702 -6.11223 0
M  V30 2834 C 282.077 -0.769446 -6.15207 0
M  V30 2835 C 284.132 -0.0867545 -4.97824 0
M  V30 2836 C 282.835 -1.59376 -7.01421 0
M  V30 2837 C 284.861 -0.897955 -5.84543 0
M  V30 2838 C 284.223 -1.64306 -6.84969 0
M  V30 2839 H 280.322 0.268568 -0.734435 0
M  V30 2840 H 282.906 0.0614664 -1.94603 0
M  V30 2841 H 281.077 2.27748 -3.1462 0
M  V30 2842 H 282.809 2.21641 -3.38611 0
M  V30 2843 H 279.564 0.67295 -4.68795 0
M  V30 2844 H 279.988 -1.01454 -6.69355 0
M  V30 2845 H 284.63 0.474963 -4.20124 0
M  V30 2846 H 282.348 -2.16655 -7.78515 0
M  V30 2847 H 285.934 -0.958059 -5.73858 0
M  V30 2848 H 284.814 -2.26065 -7.50909 0
M  V30 2849 N 282.317 1.53212 0.369288 0
M  V30 2850 C 283.566 1.68436 1.10961 0
M  V30 2851 C 283.879 0.440738 1.9057 0
M  V30 2852 O 285.085 0.473446 2.6734 0
M  V30 2853 C 283.541 2.97744 2.0218 0
M  V30 2854 C 283.149 4.29355 1.279 0
M  V30 2855 C 284.893 3.22334 2.76226 0
M  V30 2856 C 282.8 5.49755 2.17999 0
M  V30 2857 H 281.73 0.627568 0.41794 0
M  V30 2858 H 284.381 1.79713 0.370884 0
M  V30 2859 H 282.763 2.8026 2.79768 0
M  V30 2860 H 283.937 4.57458 0.554007 0
M  V30 2861 H 282.252 4.11179 0.657311 0
M  V30 2862 H 284.849 4.09471 3.43857 0
M  V30 2863 H 285.192 2.38238 3.41392 0
M  V30 2864 H 285.725 3.40475 2.05723 0
M  V30 2865 H 282.464 6.36318 1.57417 0
M  V30 2866 H 281.984 5.25937 2.88359 0
M  V30 2867 H 283.663 5.84401 2.77641 0
M  V30 2868 N 283.795 -0.628877 1.44509 0
M  V30 2869 C 284.705 -1.7694 1.54044 0
M  V30 2870 C 285.721 -1.68705 0.425987 0
M  V30 2871 O 286.897 -1.89442 0.683656 0
M  V30 2872 C 283.962 -3.13332 1.48405 0
M  V30 2873 C 283.023 -3.33181 2.70719 0
M  V30 2874 C 282.256 -4.63067 2.6534 0
M  V30 2875 O 282.479 -5.44017 1.71469 0
M  V30 2876 O 281.413 -4.85167 3.56226 0
M  V30 2877 H 285.239 -1.71848 2.50403 0
M  V30 2878 H 282.824 -0.790378 1.26781 0
M  V30 2879 H 284.706 -3.94634 1.47791 0
M  V30 2880 H 283.381 -3.1896 0.551898 0
M  V30 2881 H 282.288 -2.51549 2.769 0
M  V30 2882 H 283.621 -3.32416 3.62988 0
M  V30 2883 N 285.273 -1.31445 -0.869486 0
M  V30 2884 C 286.519 -1.21337 -1.62496 0
M  V30 2885 C 286.852 0.227872 -1.92858 0
M  V30 2886 O 286.127 1.16094 -1.56053 0
M  V30 2887 C 286.41 -2.05814 -2.95487 0
M  V30 2888 C 286.263 -3.5824 -2.72 0
M  V30 2889 C 287.582 -1.9079 -3.96594 0
M  V30 2890 H 284.701 -0.442135 -0.589649 0
M  V30 2891 H 287.343 -1.6124 -1.00507 0
M  V30 2892 H 285.493 -1.71913 -3.48394 0
M  V30 2893 H 287.165 -4.0228 -2.25762 0
M  V30 2894 H 285.408 -3.81647 -2.06224 0
M  V30 2895 H 286.079 -4.12657 -3.66631 0
M  V30 2896 H 288.555 -2.20459 -3.52898 0
M  V30 2897 H 287.431 -2.52199 -4.87531 0
M  V30 2898 H 287.692 -0.871341 -4.33428 0
M  V30 2899 N 286.751 1.08385 -1.14413 0
M  V30 2900 C 287.714 2.13486 -0.834048 0
M  V30 2901 C 288.714 1.59988 0.161418 0
M  V30 2902 O 289.904 1.74071 -0.0669575 0
M  V30 2903 C 287.036 3.4003 -0.243354 0
M  V30 2904 H 288.229 2.42425 -1.7655 0
M  V30 2905 H 285.782 1.24101 -0.950189 0
M  V30 2906 H 286.517 3.16726 0.696807 0
M  V30 2907 H 286.302 3.80157 -0.960367 0
M  V30 2908 H 287.792 4.17577 -0.0436242 0
M  V30 2909 N 288.23 0.939286 1.26551 0
M  V30 2910 C 289.477 0.585847 1.9384 0
M  V30 2911 C 289.805 -0.874784 1.73718 0
M  V30 2912 O 289.06 -1.64092 1.06642 0
M  V30 2913 C 289.359 0.872106 3.46596 0
M  V30 2914 C 289.025 2.31632 3.86856 0
M  V30 2915 C 287.687 2.71111 3.97558 0
M  V30 2916 C 290.039 3.25494 4.07066 0
M  V30 2917 C 287.367 4.03553 4.25866 0
M  V30 2918 C 289.719 4.57531 4.36862 0
M  V30 2919 C 288.383 4.96828 4.45778 0
M  V30 2920 H 287.653 0.214377 0.709312 0
M  V30 2921 H 290.3 1.18544 1.50398 0
M  V30 2922 H 288.605 0.18996 3.91339 0
M  V30 2923 H 290.302 0.577442 3.96821 0
M  V30 2924 H 286.892 2.00008 3.79071 0
M  V30 2925 H 291.076 2.9619 3.98227 0
M  V30 2926 H 286.332 4.33665 4.30981 0
M  V30 2927 H 290.506 5.30254 4.51446 0
M  V30 2928 H 288.133 5.99482 4.67468 0
M  V30 2929 N 289.708 -1.40897 0.706093 0
M  V30 2930 C 291.124 -1.55042 0.37869 0
M  V30 2931 C 291.324 -1.67944 -1.11342 0
M  V30 2932 O 290.38 -1.66372 -1.89938 0
M  V30 2933 C 291.693 -2.78398 1.13643 0
M  V30 2934 C 293.241 -2.92206 1.12181 0
M  V30 2935 C 293.716 -4.18463 1.86152 0
M  V30 2936 N 295.207 -4.25443 1.83173 0
M  V30 2937 C 295.942 -5.2202 2.37239 0
M  V30 2938 N 295.438 -6.24563 2.99821 0
M  V30 2939 N 297.231 -5.14033 2.27435 0
M  V30 2940 H 289.382 -1.30769 1.67372 0
M  V30 2941 H 291.645 -0.631653 0.706907 0
M  V30 2942 H 291.351 -2.7511 2.19106 0
M  V30 2943 H 291.225 -3.70228 0.721853 0
M  V30 2944 H 293.612 -2.95004 0.0754171 0
M  V30 2945 H 293.693 -2.01521 1.57554 0
M  V30 2946 H 293.337 -4.16427 2.90776 0
M  V30 2947 H 293.267 -5.08141 1.38206 0
M  V30 2948 H 295.758 -3.51976 1.37556 0
M  V30 2949 H 296.071 -6.94665 3.38616 0
M  V30 2950 H 294.416 -6.25035 3.03902 0
M  V30 2951 H 297.607 -4.3285 1.78208 0
M  V30 2952 H 297.78 -5.89129 2.69873 0
M  V30 2953 N 291.186 -0.45159 -1.50991 0
M  V30 2954 C 292.414 0.108334 -2.06616 0
M  V30 2955 C 292.829 1.35224 -1.31757 0
M  V30 2956 O 292.186 1.78475 -0.381174 0
M  V30 2957 C 292.237 0.41619 -3.59096 0
M  V30 2958 O 291.958 -0.778361 -4.3113 0
M  V30 2959 C 293.459 1.02523 -4.31282 0
M  V30 2960 H 290.679 0.00159995 -0.670998 0
M  V30 2961 H 293.223 -0.634771 -1.94399 0
M  V30 2962 H 291.378 1.10921 -3.71181 0
M  V30 2963 H 291.792 -0.511181 -5.22003 0
M  V30 2964 H 293.266 1.19053 -5.39009 0
M  V30 2965 H 293.743 2.01013 -3.905 0
M  V30 2966 H 294.349 0.371173 -4.23677 0
M  V30 2967 N 292.664 1.56529 -0.183458 0
M  V30 2968 C 293.627 2.17324 0.728223 0
M  V30 2969 C 294.627 1.12453 1.14939 0
M  V30 2970 O 295.817 1.37902 1.06437 0
M  V30 2971 C 292.949 2.76591 1.99274 0
M  V30 2972 H 294.142 2.99241 0.198772 0
M  V30 2973 H 291.695 1.5616 0.0661391 0
M  V30 2974 H 292.43 1.98441 2.56499 0
M  V30 2975 H 292.215 3.5335 1.69959 0
M  V30 2976 H 293.705 3.23311 2.6431 0
M  V30 2977 N 294.142 -0.090211 1.57342 0
M  V30 2978 C 295.558 -0.444547 1.53284 0
M  V30 2979 C 295.758 -1.80238 0.900914 0
M  V30 2980 O 294.814 -2.4759 0.495513 0
M  V30 2981 C 296.127 -0.402543 2.97993 0
M  V30 2982 C 297.675 -0.48405 3.09234 0
M  V30 2983 C 298.15 -0.472144 4.5556 0
M  V30 2984 N 299.641 -0.532757 4.60126 0
M  V30 2985 C 300.376 -0.545462 5.708 0
M  V30 2986 N 299.872 -0.514082 6.9089 0
M  V30 2987 N 301.665 -0.59064 5.58988 0
M  V30 2988 H 293.816 0.799121 1.96794 0
M  V30 2989 H 296.079 0.297965 0.899956 0
M  V30 2990 H 295.785 0.528106 3.47712 0
M  V30 2991 H 295.659 -1.21969 3.56936 0
M  V30 2992 H 298.046 -1.40512 2.595 0
M  V30 2993 H 298.127 0.361328 2.53235 0
M  V30 2994 H 297.771 0.445 5.05947 0
M  V30 2995 H 297.701 -1.3348 5.09402 0
M  V30 2996 H 300.192 -0.562006 3.73698 0
M  V30 2997 H 300.505 -0.527195 7.71 0
M  V30 2998 H 298.85 -0.481054 6.93333 0
M  V30 2999 H 302.041 -0.61272 4.64073 0
M  V30 3000 H 302.214 -0.597073 6.45243 0
M  V30 3001 N 295.62 -1.53406 -0.361157 0
M  V30 3002 C 296.583 -1.79479 -1.42548 0
M  V30 3003 C 297.583 -0.665327 -1.4639 0
M  V30 3004 O 298.773 -0.933549 -1.47073 0
M  V30 3005 C 295.905 -1.92087 -2.8163 0
M  V30 3006 H 297.098 -2.74538 -1.20701 0
M  V30 3007 H 294.651 -1.4455 -0.594546 0
M  V30 3008 H 295.386 -0.991099 -3.08784 0
M  V30 3009 H 295.171 -2.74241 -2.80239 0
M  V30 3010 H 296.661 -2.13836 -3.58697 0
M  V30 3011 N 297.098 0.621204 -1.44841 0
M  V30 3012 C 298.061 1.71459 -1.521 0
M  V30 3013 C 299.061 1.55696 -0.401933 0
M  V30 3014 O 300.251 1.61011 -0.664925 0
M  V30 3015 C 297.383 3.10624 -1.40447 0
M  V30 3016 H 298.576 1.66394 -2.49506 0
M  V30 3017 H 296.129 0.835745 -1.3208 0
M  V30 3018 H 296.864 3.21277 -0.441737 0
M  V30 3019 H 296.649 3.23473 -2.21602 0
M  V30 3020 H 298.139 3.90293 -1.4853 0
M  V30 3021 N 298.576 1.31904 0.862503 0
M  V30 3022 C 299.853 1.12644 1.59908 0
M  V30 3023 C 300.233 -0.316104 2.0872 0
M  V30 3024 O 299.581 -1.31145 1.87118 0
M  V30 3025 C 299.791 2.1472 2.7513 0
M  V30 3026 C 301.139 2.47637 3.44907 0
M  V30 3027 O 302.163 2.13205 2.85346 0
M  V30 3028 O 301.022 3.06632 4.52371 0
M  V30 3029 H 298.116 0.43416 0.703871 0
M  V30 3030 H 300.662 1.43408 0.907314 0
M  V30 3031 H 299.434 3.1172 2.3653 0
M  V30 3032 H 299.057 1.84905 3.51989 0
M  V30 3033 N 300.054 -1.07777 1.14986 0
M  V30 3034 C 301.465 -1.61766 0.932127 0
M  V30 3035 C 301.816 -1.88974 -0.527581 0
M  V30 3036 O 300.941 -1.65198 -1.39781 0
M  V30 3037 C 301.536 -2.93891 1.68563 0
M  V30 3038 C 300.095 -3.44639 1.5133 0
M  V30 3039 C 299.242 -2.18767 1.704 0
M  V30 3040 H 302.193 -0.909201 1.30074 0
M  V30 3041 H 302.214 -3.62623 1.15259 0
M  V30 3042 H 301.726 -2.74057 2.74799 0
M  V30 3043 H 299.827 -3.69564 0.474702 0
M  V30 3044 H 299.94 -4.20966 2.28746 0
M  V30 3045 H 298.304 -2.28253 1.13016 0
M  V30 3046 H 299.087 -2.01433 2.77992 0
M  V30 3047 N 301.532 -0.945985 -1.26051 0
M  V30 3048 C 302.757 -0.612525 -1.98149 0
M  V30 3049 C 303.182 0.806623 -1.69927 0
M  V30 3050 O 302.54 1.54411 -0.950108 0
M  V30 3051 C 302.588 -0.866981 -3.50023 0
M  V30 3052 O 301.692 0.0585333 -4.12358 0
M  V30 3053 H 301.033 -0.23379 -0.621481 0
M  V30 3054 H 303.563 -1.27023 -1.60395 0
M  V30 3055 H 303.573 -0.789792 -4.00283 0
M  V30 3056 H 302.248 -1.90135 -3.69894 0
M  V30 3057 H 300.825 -0.0701241 -3.72834 0
M  V30 3058 N 303.011 1.40521 -0.713556 0
M  V30 3059 C 303.974 2.29098 -0.0684347 0
M  V30 3060 C 304.974 1.45268 0.689472 0
M  V30 3061 O 306.164 1.66205 0.521677 0
M  V30 3062 C 303.296 3.28446 0.913024 0
M  V30 3063 H 304.489 2.87645 -0.84855 0
M  V30 3064 H 302.042 1.48809 -0.47809 0
M  V30 3065 H 302.777 2.74913 1.72027 0
M  V30 3066 H 302.562 3.90327 0.372472 0
M  V30 3067 H 304.052 3.94777 1.36165 0
M  V30 3068 N 304.489 0.459591 1.5075 0
M  V30 3069 C 305.436 -0.340524 2.28274 0
M  V30 3070 C 306.406 -0.997371 1.32822 0
M  V30 3071 O 307.591 -1.01202 1.61749 0
M  V30 3072 C 304.731 -1.42317 3.14388 0
M  V30 3073 C 303.844 -0.782251 4.24859 0
M  V30 3074 C 302.979 -1.84182 4.98247 0
M  V30 3075 C 302.018 -1.18053 6.00608 0
M  V30 3076 N 301.155 -2.18244 6.67319 0
M  V30 3077 H 305.995 0.326899 2.96202 0
M  V30 3078 H 303.532 0.173057 1.46078 0
M  V30 3079 H 305.49 -2.06241 3.62658 0
M  V30 3080 H 304.12 -2.05992 2.4853 0
M  V30 3081 H 303.172 -0.0307404 3.80388 0
M  V30 3082 H 304.484 -0.259663 4.98124 0
M  V30 3083 H 303.638 -2.55714 5.50177 0
M  V30 3084 H 302.377 -2.39819 4.24662 0
M  V30 3085 H 301.382 -0.450776 5.47949 0
M  V30 3086 H 302.607 -0.631202 6.7616 0
M  V30 3087 H 300.553 -2.72919 5.96533 0
M  V30 3088 H 300.47 -1.70938 7.36421 0
M  V30 3089 H 301.738 -2.89191 7.23871 0
M  V30 3090 N 305.967 -1.56429 0.191757 0
M  V30 3091 C 306.897 -2.21937 -0.725696 0
M  V30 3092 C 307.878 -1.1814 -1.2238 0
M  V30 3093 O 309.063 -1.46636 -1.27325 0
M  V30 3094 C 306.193 -2.87611 -1.94672 0
M  V30 3095 C 305.147 -3.97623 -1.58366 0
M  V30 3096 C 304.473 -4.50446 -2.88102 0
M  V30 3097 C 305.773 -5.16197 -0.796133 0
M  V30 3098 H 307.467 -2.98861 -0.179606 0
M  V30 3099 H 305.013 -1.43749 -0.0849464 0
M  V30 3100 H 306.966 -3.3212 -2.59373 0
M  V30 3101 H 305.69 -2.08087 -2.51728 0
M  V30 3102 H 304.349 -3.53801 -0.960247 0
M  V30 3103 H 303.997 -3.67688 -3.43241 0
M  V30 3104 H 303.697 -5.24675 -2.64556 0
M  V30 3105 H 305.221 -4.97654 -3.53798 0
M  V30 3106 H 306.635 -5.57271 -1.34618 0
M  V30 3107 H 305.032 -5.96471 -0.658928 0
M  V30 3108 H 306.102 -4.84473 0.203478 0
M  V30 3109 N 307.445 0.0818655 -1.57387 0
M  V30 3110 C 308.685 0.788375 -1.88584 0
M  V30 3111 C 309.049 1.75248 -0.784351 0
M  V30 3112 O 310.25 2.50334 -0.979105 0
M  V30 3113 C 308.521 1.48654 -3.25018 0
M  V30 3114 S 310.08 2.22951 -3.7794 0
M  V30 3115 H 306.898 0.262383 -0.660815 0
M  V30 3116 H 309.5 0.0448995 -1.95448 0
M  V30 3117 H 308.204 0.770919 -4.03094 0
M  V30 3118 H 307.735 2.26965 -3.21326 0
M  V30 3119 H 309.75 3.49309 -3.52417 0
M  V30 3120 N 308.923 1.53595 0.353017 0
M  V30 3121 C 310.153 1.74058 1.11299 0
M  V30 3122 C 310.561 0.475205 1.83135 0
M  V30 3123 O 309.904 -0.562344 1.74881 0
M  V30 3124 C 309.966 2.85994 2.17825 0
M  V30 3125 C 309.63 4.25923 1.65647 0
M  V30 3126 C 310.627 5.07829 1.11383 0
M  V30 3127 C 308.312 4.72377 1.7078 0
M  V30 3128 C 310.306 6.34285 0.629439 0
M  V30 3129 C 307.993 5.98808 1.21953 0
M  V30 3130 C 308.991 6.79594 0.681265 0
M  V30 3131 O 308.679 8.03651 0.200248 0
M  V30 3132 H 308.411 0.585327 0.338183 0
M  V30 3133 H 310.965 2.01186 0.413927 0
M  V30 3134 H 309.195 2.54368 2.91262 0
M  V30 3135 H 310.884 2.94515 2.79313 0
M  V30 3136 H 311.65 4.73107 1.06746 0
M  V30 3137 H 307.529 4.0956 2.11617 0
M  V30 3138 H 311.073 6.97288 0.208636 0
M  V30 3139 H 306.97 6.33026 1.26287 0
M  V30 3140 H 307.738 8.1788 0.318416 0
M  V30 3141 N 310.401 -0.613514 1.45168 0
M  V30 3142 C 311.349 -1.74572 1.53712 0
M  V30 3143 C 312.343 -1.64426 0.407505 0
M  V30 3144 O 313.549 -1.70291 0.583176 0
M  V30 3145 H 309.924 -0.576641 0.48269 0
M  V30 3146 H 311.895 -1.64492 2.48968 0
M  V30 3147 C 310.644 -3.12943 1.51532 0
M  V30 3148 H 309.967 -3.21407 2.37776 0
M  V30 3149 H 311.407 -3.9201 1.61569 0
M  V30 3150 C 309.866 -3.36053 0.238798 0
M  V30 3151 O 310.396 -3.95837 -0.6838 0
M  V30 3152 N 308.602 -2.9028 0.136359 0
M  V30 3153 H 308.149 -2.41811 0.887999 0
M  V30 3154 H 308.107 -3.06116 -0.716944 0
M  V30 3155 N 311.879 -1.3236 -0.855495 0
M  V30 3156 C 313.156 -1.13491 -1.59309 0
M  V30 3157 C 313.536 0.30503 -2.08885 0
M  V30 3158 O 312.884 1.30151 -1.87811 0
M  V30 3159 C 313.094 -2.16176 -2.73987 0
M  V30 3160 C 314.442 -2.49463 -3.43589 0
M  V30 3161 O 315.466 -2.14715 -2.84211 0
M  V30 3162 O 314.325 -3.09027 -4.50738 0
M  V30 3163 H 311.419 -0.437887 -0.701559 0
M  V30 3164 H 313.965 -1.43887 -0.899696 0
M  V30 3165 H 312.737 -3.1297 -2.34873 0
M  V30 3166 H 312.36 -1.86769 -3.51003 0
M  V30 3167 N 313.357 1.07166 -1.15556 0
M  V30 3168 C 314.587 1.83248 -0.954133 0
M  V30 3169 C 314.995 1.82449 0.500911 0
M  V30 3170 O 314.338 1.23575 1.35923 0
M  V30 3171 C 314.4 3.31393 -1.39351 0
M  V30 3172 C 314.064 3.5591 -2.86666 0
M  V30 3173 C 315.061 3.49695 -3.8472 0
M  V30 3174 C 312.746 3.83515 -3.24379 0
M  V30 3175 C 314.74 3.70737 -5.18491 0
M  V30 3176 C 312.427 4.04209 -4.58321 0
M  V30 3177 C 313.425 3.97815 -5.55186 0
M  V30 3178 O 313.113 4.17954 -6.86709 0
M  V30 3179 H 312.845 0.584941 -0.338851 0
M  V30 3180 H 315.399 1.36169 -1.53777 0
M  V30 3181 H 313.629 3.79292 -0.75329 0
M  V30 3182 H 315.318 3.88945 -1.16089 0
M  V30 3183 H 316.084 3.28368 -3.56931 0
M  V30 3184 H 311.963 3.87605 -2.49567 0
M  V30 3185 H 315.507 3.65663 -5.94085 0
M  V30 3186 H 311.404 4.25023 -4.85825 0
M  V30 3187 H 312.172 4.35291 -6.93155 0
M  V30 3188 N 314.835 0.952656 1.25548 0
M  V30 3189 C 315.783 0.462354 2.27958 0
M  V30 3190 C 316.777 -0.46634 1.62855 0
M  V30 3191 O 317.983 -0.343287 1.76696 0
M  V30 3192 H 314.358 0.13101 0.7405 0
M  V30 3193 H 316.329 1.33839 2.66702 0
M  V30 3194 C 315.078 -0.24628 3.46827 0
M  V30 3195 H 314.401 0.459192 3.97154 0
M  V30 3196 H 315.841 -0.553393 4.20373 0
M  V30 3197 C 314.3 -1.4681 3.0323 0
M  V30 3198 O 314.83 -2.56591 3.09069 0
M  V30 3199 N 313.036 -1.32874 2.58443 0
M  V30 3200 H 312.583 -0.435536 2.53891 0
M  V30 3201 H 312.541 -2.14742 2.29637 0
M  V30 3202 N 316.313 -1.40141 0.720998 0
M  V30 3203 C 317.559 -2.01084 0.263231 0
M  V30 3204 C 317.892 -1.57052 -1.14229 0
M  V30 3205 O 317.167 -0.793027 -1.77599 0
M  V30 3206 C 317.45 -3.58401 0.349344 0
M  V30 3207 C 317.303 -4.12491 1.79363 0
M  V30 3208 C 318.622 -4.39231 -0.276351 0
M  V30 3209 H 315.741 -0.730572 0.0971228 0
M  V30 3210 H 318.383 -1.66543 0.914518 0
M  V30 3211 H 316.533 -3.87958 -0.205165 0
M  V30 3212 H 318.205 -3.93711 2.40394 0
M  V30 3213 H 316.448 -3.66576 2.31958 0
M  V30 3214 H 317.119 -5.21646 1.80524 0
M  V30 3215 H 319.595 -4.15637 0.196184 0
M  V30 3216 H 318.471 -5.48586 -0.185681 0
M  V30 3217 H 318.732 -4.20643 -1.36059 0
M  V30 3218 N 317.792 -0.46758 -1.50504 0
M  V30 3219 C 318.702 0.33382 -2.32213 0
M  V30 3220 C 319.718 0.999323 -1.42441 0
M  V30 3221 O 320.894 0.988068 -1.75497 0
M  V30 3222 C 317.959 1.4035 -3.17022 0
M  V30 3223 C 317.02 0.754961 -4.2261 0
M  V30 3224 C 316.253 1.77367 -5.03365 0
M  V30 3225 O 316.476 2.99976 -4.8515 0
M  V30 3226 O 315.41 1.34744 -5.86624 0
M  V30 3227 H 319.236 -0.334067 -3.01857 0
M  V30 3228 H 316.821 -0.229496 -1.47627 0
M  V30 3229 H 318.703 2.02318 -3.69656 0
M  V30 3230 H 317.378 2.05492 -2.5011 0
M  V30 3231 H 316.285 0.0964244 -3.73976 0
M  V30 3232 H 317.618 0.146545 -4.91982 0
M  V30 3233 N 319.27 1.56325 -0.20005 0
M  V30 3234 C 320.218 2.20666 0.735482 0
M  V30 3235 C 321.212 1.17934 1.21605 0
M  V30 3236 O 322.418 1.36068 1.17837 0
M  V30 3237 H 318.793 0.70725 0.255542 0
M  V30 3238 H 320.764 2.9792 0.169166 0
M  V30 3239 C 319.513 2.88391 1.94232 0
M  V30 3240 H 318.836 3.67185 1.58161 0
M  V30 3241 H 320.276 3.3684 2.57517 0
M  V30 3242 C 318.735 1.89692 2.78421 0
M  V30 3243 O 319.265 1.40032 3.76502 0
M  V30 3244 N 317.471 1.57813 2.44015 0
M  V30 3245 H 317.018 1.9839 1.64314 0
M  V30 3246 H 316.976 0.920325 3.00628 0
M  V30 3247 N 320.748 -0.0735177 1.57428 0
M  V30 3248 C 321.994 -0.768909 1.88307 0
M  V30 3249 C 322.349 -1.75273 0.793535 0
M  V30 3250 O 321.642 -1.90527 -0.202466 0
M  V30 3251 C 321.836 -1.51799 3.23561 0
M  V30 3252 C 321.665 -0.608217 4.45568 0
M  V30 3253 C 320.435 -0.245808 5.04702 0
M  V30 3254 C 322.633 0.0942904 5.14214 0
M  V30 3255 N 320.615 0.66987 6.10234 0
M  V30 3256 C 321.986 0.867222 6.13905 0
M  V30 3257 C 324.041 0.165943 4.97623 0
M  V30 3258 C 322.744 1.70515 6.98797 0
M  V30 3259 C 324.77 0.990837 5.83041 0
M  V30 3260 C 324.132 1.75182 6.82269 0
M  V30 3261 H 320.231 -0.25685 0.738615 0
M  V30 3262 H 322.815 -0.030499 1.94676 0
M  V30 3263 H 320.986 -2.22713 3.18203 0
M  V30 3264 H 322.718 -2.16226 3.42094 0
M  V30 3265 H 319.473 -0.598284 4.69806 0
M  V30 3266 H 319.897 1.1209 6.67656 0
M  V30 3267 H 324.539 -0.408064 4.20826 0
M  V30 3268 H 322.257 2.29013 7.7497 0
M  V30 3269 H 325.843 1.04923 5.72261 0
M  V30 3270 H 324.723 2.37983 7.47217 0
M  V30 3271 N 322.226 -1.5378 -0.344866 0
M  V30 3272 C 323.454 -1.74899 -1.10534 0
M  V30 3273 C 323.869 -0.487534 -1.82397 0
M  V30 3274 O 323.226 0.540741 -1.74305 0
M  V30 3275 C 323.277 -2.92822 -2.11984 0
M  V30 3276 O 322.998 -4.14089 -1.43044 0
M  V30 3277 C 324.499 -3.25982 -3.00417 0
M  V30 3278 H 321.719 -0.584426 -0.329678 0
M  V30 3279 H 324.263 -2.006 -0.397474 0
M  V30 3280 H 322.418 -2.69457 -2.78338 0
M  V30 3281 H 322.832 -4.80272 -2.10805 0
M  V30 3282 H 324.306 -4.11848 -3.67539 0
M  V30 3283 H 324.783 -2.42228 -3.66363 0
M  V30 3284 H 325.389 -3.51349 -2.39654 0
M  V30 3285 N 323.704 0.605807 -1.45491 0
M  V30 3286 C 324.95 1.36481 -1.50813 0
M  V30 3287 C 325.305 1.91826 -0.148469 0
M  V30 3288 O 324.598 1.72211 0.839869 0
M  V30 3289 C 324.792 2.53012 -2.52428 0
M  V30 3290 C 324.621 2.09078 -3.98141 0
M  V30 3291 C 323.391 1.95167 -4.66088 0
M  V30 3292 C 325.589 1.66438 -4.86624 0
M  V30 3293 N 323.571 1.45062 -5.96515 0
M  V30 3294 C 324.942 1.27761 -6.06694 0
M  V30 3295 C 326.997 1.54046 -4.7347 0
M  V30 3296 C 325.7 0.779286 -7.15066 0
M  V30 3297 C 327.726 1.05618 -5.81892 0
M  V30 3298 C 327.088 0.67906 -7.01119 0
M  V30 3299 H 323.187 0.493267 -0.606805 0
M  V30 3300 H 325.771 0.692347 -1.81974 0
M  V30 3301 H 323.942 3.17851 -2.23215 0
M  V30 3302 H 325.674 3.19897 -2.47887 0
M  V30 3303 H 322.429 2.16407 -4.21266 0
M  V30 3304 H 322.853 1.22237 -6.65873 0
M  V30 3305 H 327.495 1.81827 -3.81705 0
M  V30 3306 H 325.213 0.489026 -8.06619 0
M  V30 3307 H 328.799 0.964529 -5.73749 0
M  V30 3308 H 327.679 0.310091 -7.83587 0
M  V30 3309 N 325.182 1.32811 0.848464 0
M  V30 3310 C 326.145 1.22194 1.9391 0
M  V30 3311 C 327.145 0.143404 1.60159 0
M  V30 3312 O 328.335 0.394253 1.6968 0
M  V30 3313 C 325.467 0.88067 3.29328 0
M  V30 3314 H 326.66 2.19127 2.04752 0
M  V30 3315 H 324.213 1.16731 1.0394 0
M  V30 3316 H 324.948 -0.0865776 3.24184 0
M  V30 3317 H 324.733 1.66052 3.55203 0
M  V30 3318 H 326.223 0.830871 4.09251 0
M  V30 3319 N 326.66 -1.06551 1.16123 0
M  V30 3320 C 327.607 -2.13961 0.865414 0
M  V30 3321 C 328.577 -1.65066 -0.185055 0
M  V30 3322 O 329.762 -1.90732 -0.05083 0
M  V30 3323 C 326.902 -3.43113 0.369776 0
M  V30 3324 C 326.015 -4.05756 1.48276 0
M  V30 3325 C 325.15 -5.22773 0.942414 0
M  V30 3326 C 324.189 -5.77395 2.03179 0
M  V30 3327 N 323.326 -6.85731 1.50721 0
M  V30 3328 H 328.166 -2.38605 1.78527 0
M  V30 3329 H 325.703 -1.17072 0.890646 0
M  V30 3330 H 327.661 -4.17151 0.0640643 0
M  V30 3331 H 326.291 -3.18695 -0.513143 0
M  V30 3332 H 325.343 -3.29292 1.9045 0
M  V30 3333 H 326.655 -4.42351 2.30493 0
M  V30 3334 H 325.809 -6.03827 0.589729 0
M  V30 3335 H 324.548 -4.87618 0.0895191 0
M  V30 3336 H 323.553 -4.94981 2.3932 0
M  V30 3337 H 324.778 -6.14603 2.8886 0
M  V30 3338 H 322.724 -6.52499 0.676811 0
M  V30 3339 H 322.641 -7.21254 2.26557 0
M  V30 3340 H 323.909 -7.7047 1.18303 0
M  V30 3341 N 328.138 -0.959301 -1.25041 0
M  V30 3342 C 329.366 -0.633949 -1.96948 0
M  V30 3343 C 329.781 0.794916 -1.7125 0
M  V30 3344 O 329.138 1.53231 -0.991287 0
M  V30 3345 C 329.189 -0.888805 -3.50403 0
M  V30 3346 O 328.91 -2.26149 -3.75218 0
M  V30 3347 C 330.411 -0.576482 -4.39536 0
M  V30 3348 H 327.631 -0.237263 -0.627652 0
M  V30 3349 H 330.175 -1.28495 -1.59089 0
M  V30 3350 H 328.33 -0.284145 -3.86357 0
M  V30 3351 H 328.744 -2.33514 -4.6965 0
M  V30 3352 H 330.218 -0.805314 -5.46094 0
M  V30 3353 H 330.695 0.489075 -4.36468 0
M  V30 3354 H 331.301 -1.16067 -4.09156 0
M  V30 3355 N 329.616 1.39756 -0.72842 0
M  V30 3356 C 330.548 2.29157 -0.0446202 0
M  V30 3357 C 331.561 1.46484 0.710367 0
M  V30 3358 O 332.75 1.69632 0.55562 0
M  V30 3359 C 329.85 3.24987 0.961071 0
M  V30 3360 C 329.023 4.36572 0.268967 0
M  V30 3361 C 328.082 5.12756 1.18184 0
M  V30 3362 O 327.108 5.6534 0.661794 0
M  V30 3363 N 328.31 5.23331 2.51206 0
M  V30 3364 H 331.075 2.88482 -0.812295 0
M  V30 3365 H 328.636 1.51265 -0.577098 0
M  V30 3366 H 330.628 3.72827 1.57423 0
M  V30 3367 H 329.198 2.66739 1.63 0
M  V30 3368 H 328.418 3.90694 -0.524574 0
M  V30 3369 H 329.706 5.08363 -0.210934 0
M  V30 3370 H 329.104 4.82116 2.9594 0
M  V30 3371 H 327.661 5.74634 3.07634 0
M  V30 3372 N 331.094 0.475555 1.50254 0
M  V30 3373 C 332.057 -0.305016 2.27161 0
M  V30 3374 C 333.057 -0.916519 1.32123 0
M  V30 3375 O 334.247 -0.785003 1.5551 0
M  V30 3376 C 331.379 -1.43496 3.09227 0
M  V30 3377 H 332.572 0.369511 2.97615 0
M  V30 3378 H 330.125 0.229747 1.54602 0
M  V30 3379 H 330.86 -2.14441 2.43281 0
M  V30 3380 H 330.645 -1.00223 3.79075 0
M  V30 3381 H 332.135 -1.98548 3.67381 0
M  V30 3382 N 332.573 -1.56217 0.208337 0
M  V30 3383 C 333.506 -2.15633 -0.746842 0
M  V30 3384 C 334.484 -1.09685 -1.20034 0
M  V30 3385 O 335.668 -1.3787 -1.28547 0
M  V30 3386 C 332.795 -2.72594 -2.01023 0
M  V30 3387 C 331.841 -3.91251 -1.69779 0
M  V30 3388 S 332.674 -5.28962 -0.834209 0
M  V30 3389 C 333.83 -5.89353 -2.10745 0
M  V30 3390 H 334.063 -2.96315 -0.241789 0
M  V30 3391 H 331.596 -1.54398 -0.00682183 0
M  V30 3392 H 333.554 -3.06053 -2.73572 0
M  V30 3393 H 332.215 -1.91929 -2.48641 0
M  V30 3394 H 331.408 -4.29562 -2.63614 0
M  V30 3395 H 331.01 -3.58869 -1.05303 0
M  V30 3396 H 333.302 -6.04522 -3.05875 0
M  V30 3397 H 334.245 -6.85661 -1.76845 0
M  V30 3398 H 334.653 -5.1807 -2.24196 0
M  V30 3399 N 334.051 0.0651679 -1.57465 0
M  V30 3400 C 335.281 0.774683 -1.91526 0
M  V30 3401 C 335.689 1.71305 -0.803196 0
M  V30 3402 O 335.032 1.82231 0.231881 0
M  V30 3403 C 335.094 1.61645 -3.21109 0
M  V30 3404 C 334.758 0.846753 -4.49087 0
M  V30 3405 C 335.755 0.163024 -5.19644 0
M  V30 3406 C 333.44 0.811966 -4.95694 0
M  V30 3407 C 335.434 -0.54519 -6.35064 0
M  V30 3408 C 333.121 0.0999836 -6.11018 0
M  V30 3409 C 334.119 -0.577388 -6.80555 0
M  V30 3410 O 333.807 -1.27789 -7.93678 0
M  V30 3411 H 333.539 0.225031 -0.637446 0
M  V30 3412 H 336.093 0.0377134 -2.05365 0
M  V30 3413 H 334.323 2.39638 -3.03497 0
M  V30 3414 H 336.012 2.20525 -3.40769 0
M  V30 3415 H 336.778 0.181163 -4.84662 0
M  V30 3416 H 332.657 1.32867 -4.41438 0
M  V30 3417 H 336.201 -1.07446 -6.89276 0
M  V30 3418 H 332.098 0.0797945 -6.45451 0
M  V30 3419 H 332.866 -1.18784 -8.09835 0
M  V30 3420 N 335.529 1.53961 0.336706 0
M  V30 3421 C 336.477 1.83136 1.43401 0
M  V30 3422 C 337.471 0.702313 1.54156 0
M  V30 3423 O 338.677 0.885765 1.56698 0
M  V30 3424 H 335.052 0.580309 0.478273 0
M  V30 3425 H 337.023 2.74925 1.16012 0
M  V30 3426 C 335.772 2.06385 2.79822 0
M  V30 3427 H 335.095 2.92718 2.72316 0
M  V30 3428 H 336.535 2.30761 3.55704 0
M  V30 3429 C 334.994 0.851414 3.25964 0
M  V30 3430 O 335.524 0.0541904 4.01663 0
M  V30 3431 N 333.73 0.66672 2.82848 0
M  V30 3432 H 333.277 1.31665 2.21409 0
M  V30 3433 H 333.235 -0.143032 3.14074 0
M  V30 3434 N 337.007 -0.598083 1.45811 0
M  V30 3435 C 337.94 -1.7223 1.49706 0
M  V30 3436 C 338.918 -1.58732 0.352535 0
M  V30 3437 O 340.102 -1.80162 0.554438 0
M  V30 3438 C 337.229 -3.10148 1.3611 0
M  V30 3439 C 336.275 -3.42209 2.54549 0
M  V30 3440 S 337.108 -3.35989 4.16979 0
M  V30 3441 C 338.264 -4.76471 4.05865 0
M  V30 3442 H 338.497 -1.68665 2.44826 0
M  V30 3443 H 336.03 -0.775541 1.33509 0
M  V30 3444 H 337.988 -3.8972 1.28953 0
M  V30 3445 H 336.649 -3.11219 0.424451 0
M  V30 3446 H 335.842 -4.42652 2.40988 0
M  V30 3447 H 335.444 -2.70173 2.58617 0
M  V30 3448 H 337.736 -5.665 3.71596 0
M  V30 3449 H 338.679 -4.95089 5.06253 0
M  V30 3450 H 339.087 -4.52599 3.37364 0
M  V30 3451 N 338.485 -1.33259 -0.841409 0
M  V30 3452 C 339.731 -1.24757 -1.59886 0
M  V30 3453 C 340.064 0.186913 -1.93298 0
M  V30 3454 O 339.339 1.12757 -1.5848 0
M  V30 3455 C 339.622 -2.12036 -2.91055 0
M  V30 3456 C 339.475 -3.63929 -2.6434 0
M  V30 3457 C 340.794 -1.9916 -3.92458 0
M  V30 3458 H 337.913 -0.454542 -0.580138 0
M  V30 3459 H 340.555 -1.63335 -0.970647 0
M  V30 3460 H 338.705 -1.79265 -3.44669 0
M  V30 3461 H 340.377 -4.06978 -2.17178 0
M  V30 3462 H 338.62 -3.85935 -1.98082 0
M  V30 3463 H 339.291 -4.20341 -3.57796 0
M  V30 3464 H 341.767 -2.27895 -3.48143 0
M  V30 3465 H 340.643 -2.62484 -4.82072 0
M  V30 3466 H 340.904 -0.963082 -4.31482 0
M  V30 3467 N 339.963 1.05934 -1.16686 0
M  V30 3468 C 341.379 1.30938 -0.912542 0
M  V30 3469 C 341.579 1.96803 0.432533 0
M  V30 3470 O 340.635 2.23693 1.17123 0
M  V30 3471 C 341.948 2.18649 -2.06429 0
M  V30 3472 C 343.496 2.32055 -2.10047 0
M  V30 3473 C 343.971 3.23122 -3.24586 0
M  V30 3474 N 345.462 3.30706 -3.24327 0
M  V30 3475 C 346.197 4.01273 -4.09594 0
M  V30 3476 N 345.693 4.74332 -5.04956 0
M  V30 3477 N 347.486 3.97361 -3.97569 0
M  V30 3478 H 339.637 0.615777 -2.03278 0
M  V30 3479 H 341.9 0.334077 -0.887185 0
M  V30 3480 H 341.606 1.77534 -3.03603 0
M  V30 3481 H 341.48 3.19252 -2.00894 0
M  V30 3482 H 343.867 2.72415 -1.13464 0
M  V30 3483 H 343.948 1.31107 -2.19647 0
M  V30 3484 H 343.592 2.83477 -4.2143 0
M  V30 3485 H 343.522 4.24057 -3.12223 0
M  V30 3486 H 346.013 2.78644 -2.55276 0
M  V30 3487 H 346.326 5.25716 -5.6643 0
M  V30 3488 H 344.671 4.733 -5.08933 0
M  V30 3489 H 347.862 3.39405 -3.22369 0
M  V30 3490 H 348.035 4.52089 -4.64241 0
M  V30 3491 N 341.441 0.965919 1.2453 0
M  V30 3492 C 342.718 0.543777 1.87889 0
M  V30 3493 C 343.098 -0.97909 1.87021 0
M  V30 3494 O 342.446 -1.84969 1.3416 0
M  V30 3495 C 342.656 1.13327 3.30088 0
M  V30 3496 C 344.004 1.21707 4.06783 0
M  V30 3497 O 345.028 1.08566 3.39252 0
M  V30 3498 O 343.887 1.42456 5.27606 0
M  V30 3499 H 340.981 0.181054 0.806938 0
M  V30 3500 H 343.527 1.06007 1.32516 0
M  V30 3501 H 342.299 2.17612 3.25209 0
M  V30 3502 H 341.922 0.600911 3.93033 0
M  V30 3503 N 342.919 -1.39368 0.735821 0
M  V30 3504 C 344.166 -2.00497 0.284123 0
M  V30 3505 C 344.494 -1.58387 -1.12889 0
M  V30 3506 O 343.749 -0.804359 -1.78406 0
M  V30 3507 C 344.048 -3.5583 0.334651 0
M  V30 3508 C 343.714 -4.17593 1.7008 0
M  V30 3509 C 342.376 -4.34176 2.07472 0
M  V30 3510 C 344.728 -4.51848 2.59775 0
M  V30 3511 C 342.056 -4.82304 3.34065 0
M  V30 3512 C 344.408 -5.01384 3.85741 0
M  V30 3513 C 343.072 -5.16175 4.23225 0
M  V30 3514 H 342.342 -0.73367 0.103968 0
M  V30 3515 H 344.989 -1.66683 0.942825 0
M  V30 3516 H 343.294 -3.89674 -0.407625 0
M  V30 3517 H 344.991 -4.00986 -0.0329927 0
M  V30 3518 H 341.581 -4.05087 1.40008 0
M  V30 3519 H 345.765 -4.38653 2.32157 0
M  V30 3520 H 341.021 -4.91941 3.63049 0
M  V30 3521 H 345.195 -5.26863 4.55399 0
M  V30 3522 H 342.822 -5.5323 5.21384 0
M  V30 3523 N 344.397 -0.483516 -1.5 0
M  V30 3524 C 345.344 0.304164 -2.28787 0
M  V30 3525 C 346.314 0.976114 -1.34392 0
M  V30 3526 O 347.499 0.986156 -1.63339 0
M  V30 3527 C 344.639 1.37298 -3.16612 0
M  V30 3528 C 343.752 0.714561 -4.26049 0
M  V30 3529 C 342.887 1.76232 -5.01114 0
M  V30 3530 C 341.926 1.08483 -6.0241 0
M  V30 3531 N 341.063 2.076 -6.70706 0
M  V30 3532 H 345.903 -0.373981 -2.95644 0
M  V30 3533 H 343.44 -0.196275 -1.45785 0
M  V30 3534 H 345.398 2.00445 -3.65893 0
M  V30 3535 H 344.028 2.02012 -2.51776 0
M  V30 3536 H 343.08 -0.0297798 -3.80388 0
M  V30 3537 H 344.392 0.180383 -4.98474 0
M  V30 3538 H 343.546 2.46929 -5.54176 0
M  V30 3539 H 342.285 2.33033 -4.28424 0
M  V30 3540 H 341.29 0.363545 -5.48597 0
M  V30 3541 H 342.515 0.523551 -6.77079 0
M  V30 3542 H 340.461 2.63394 -6.00799 0
M  V30 3543 H 340.378 1.59201 -7.39047 0
M  V30 3544 H 341.646 2.77639 -7.2838 0
M  V30 3545 N 345.875 1.56104 -0.216619 0
M  V30 3546 C 346.807 2.17339 0.72776 0
M  V30 3547 C 347.82 1.14109 1.16116 0
M  V30 3548 O 349.009 1.4111 1.09317 0
M  V30 3549 C 346.109 2.73818 1.99693 0
M  V30 3550 C 345.282 4.02168 1.71988 0
M  V30 3551 C 344.341 4.43259 2.83562 0
M  V30 3552 O 343.367 5.10257 2.52244 0
M  V30 3553 N 344.569 4.08535 4.12407 0
M  V30 3554 H 347.334 2.99005 0.203983 0
M  V30 3555 H 344.895 1.61861 -0.0354289 0
M  V30 3556 H 346.887 2.9828 2.73516 0
M  V30 3557 H 345.457 1.96483 2.43132 0
M  V30 3558 H 344.677 3.85612 0.818337 0
M  V30 3559 H 345.965 4.85907 1.50903 0
M  V30 3560 H 345.363 3.54687 4.40696 0
M  V30 3561 H 343.92 4.37901 4.8279 0
M  V30 3562 N 347.353 -0.0568162 1.57498 0
M  V30 3563 C 348.769 -0.411933 1.54192 0
M  V30 3564 C 348.969 -1.78287 0.938942 0
M  V30 3565 O 348.025 -2.46483 0.547919 0
M  V30 3566 C 349.338 -0.339244 2.9878 0
M  V30 3567 C 350.886 -0.418348 3.10192 0
M  V30 3568 C 351.361 -0.375407 4.56459 0
M  V30 3569 N 352.852 -0.435038 4.61153 0
M  V30 3570 C 353.587 -0.424265 5.71828 0
M  V30 3571 N 353.083 -0.367418 6.91825 0
M  V30 3572 N 354.876 -0.471938 5.60115 0
M  V30 3573 H 347.027 0.840684 1.95055 0
M  V30 3574 H 349.29 0.316987 0.893433 0
M  V30 3575 H 348.996 0.601742 3.46514 0
M  V30 3576 H 348.87 -1.14371 3.59443 0
M  V30 3577 H 351.257 -1.34976 2.62422 0
M  V30 3578 H 351.338 0.414962 2.52412 0
M  V30 3579 H 350.982 0.552219 5.04889 0
M  V30 3580 H 350.912 -1.22645 5.12119 0
M  V30 3581 H 353.403 -0.482612 3.74806 0
M  V30 3582 H 353.716 -0.363535 7.71944 0
M  V30 3583 H 352.061 -0.333879 6.94198 0
M  V30 3584 H 355.252 -0.514145 4.65268 0
M  V30 3585 H 355.425 -0.460073 6.46365 0
M  V30 3586 N 348.832 -1.54138 -0.328536 0
M  V30 3587 C 350.08 -1.71765 -1.06496 0
M  V30 3588 C 350.401 -0.49149 -1.88704 0
M  V30 3589 O 349.671 0.494539 -1.89555 0
M  V30 3590 H 348.251 -0.633295 -0.396164 0
M  V30 3591 H 350.913 -1.91429 -0.366176 0
M  V30 3592 H 350.009 -2.5951 -1.73381 0
M  V30 3593 N 350.31 0.590341 -1.46126 0
M  V30 3594 C 351.556 1.35082 -1.51264 0
M  V30 3595 C 351.889 1.93534 -0.160711 0
M  V30 3596 O 351.164 1.76045 0.826956 0
M  V30 3597 C 351.447 2.48588 -2.6053 0
M  V30 3598 C 351.3 1.95221 -4.05227 0
M  V30 3599 C 352.619 3.50662 -2.6594 0
M  V30 3600 H 349.738 0.489803 -0.550692 0
M  V30 3601 H 352.38 0.663887 -1.78024 0
M  V30 3602 H 350.53 3.07186 -2.37843 0
M  V30 3603 H 352.202 1.41139 -4.39178 0
M  V30 3604 H 350.445 1.26101 -4.15068 0
M  V30 3605 H 351.116 2.77121 -4.77397 0
M  V30 3606 H 353.592 3.01934 -2.86313 0
M  V30 3607 H 352.468 4.27551 -3.44226 0
M  V30 3608 H 352.729 4.07399 -1.71694 0
M  V30 3609 N 351.788 1.33704 0.83433 0
M  V30 3610 C 353.199 1.22813 1.4062 0
M  V30 3611 C 353.55 -0.151107 1.95617 0
M  V30 3612 O 352.675 -1.05092 1.89168 0
M  V30 3613 C 353.27 2.22355 2.55624 0
M  V30 3614 C 351.829 2.1529 3.08751 0
M  V30 3615 C 350.976 2.09589 1.8157 0
M  V30 3616 H 353.927 1.45236 0.639702 0
M  V30 3617 H 353.948 1.83391 3.33389 0
M  V30 3618 H 353.46 3.22728 2.15566 0
M  V30 3619 H 351.561 1.18235 3.53343 0
M  V30 3620 H 351.674 3.06038 3.68616 0
M  V30 3621 H 350.038 1.55134 2.02004 0
M  V30 3622 H 350.821 3.11777 1.43701 0
M  V30 3623 N 353.266 -1.05314 1.17247 0
M  V30 3624 C 354.515 -1.77685 0.954521 0
M  V30 3625 C 354.828 -1.88616 -0.518025 0
M  V30 3626 O 356.034 -2.57714 -0.854144 0
M  V30 3627 C 354.49 -3.19402 1.65863 0
M  V30 3628 C 354.098 -3.16605 3.16963 0
M  V30 3629 C 355.842 -3.96237 1.52303 0
M  V30 3630 C 353.749 -4.53103 3.80068 0
M  V30 3631 H 352.679 -0.666 0.353496 0
M  V30 3632 H 355.33 -1.1805 1.40486 0
M  V30 3633 H 353.712 -3.79355 1.13602 0
M  V30 3634 H 354.886 -2.66176 3.76148 0
M  V30 3635 H 353.201 -2.53268 3.30521 0
M  V30 3636 H 355.798 -4.97157 1.96822 0
M  V30 3637 H 356.141 -4.136 0.473401 0
M  V30 3638 H 356.674 -3.42829 2.01775 0
M  V30 3639 H 353.413 -4.40946 4.85023 0
M  V30 3640 H 352.933 -5.03686 3.2567 0
M  V30 3641 H 354.612 -5.22045 3.82202 0
M  V30 3642 N 354.744 -0.972509 -1.24016 0
M  V30 3643 C 356.021 -0.553733 -1.87598 0
M  V30 3644 C 356.401 0.969158 -1.87538 0
M  V30 3645 O 355.749 1.84255 -1.35139 0
M  V30 3646 C 355.959 -1.15076 -3.29482 0
M  V30 3647 C 357.307 -1.23862 -4.06132 0
M  V30 3648 O 358.331 -1.10363 -3.38672 0
M  V30 3649 O 357.19 -1.45252 -5.26844 0
M  V30 3650 H 354.284 -0.185331 -0.805966 0
M  V30 3651 H 356.83 -1.06709 -1.31952 0
M  V30 3652 H 355.602 -2.19333 -3.2405 0
M  V30 3653 H 355.225 -0.621746 -3.92709 0
M  V30 3654 N 356.222 1.38976 -0.743202 0
M  V30 3655 C 357.462 2.02193 -0.29954 0
M  V30 3656 C 357.826 1.5771 1.09506 0
M  V30 3657 O 359.027 2.13184 1.63726 0
M  V30 3658 C 357.298 3.55077 -0.406822 0
M  V30 3659 S 358.857 4.38778 -0.0442109 0
M  V30 3660 H 355.675 0.701335 -0.116836 0
M  V30 3661 H 358.277 1.69651 -0.971529 0
M  V30 3662 H 356.981 3.84942 -1.42295 0
M  V30 3663 H 356.512 3.92383 0.282707 0
M  V30 3664 H 358.527 4.82222 1.16947 0
M  V30 3665 N 357.7 0.491464 1.49741 0
M  V30 3666 C 358.946 -0.0565092 2.02721 0
M  V30 3667 C 359.279 -1.37522 1.37118 0
M  V30 3668 O 358.554 -1.87866 0.503645 0
M  V30 3669 C 358.837 -0.219051 3.59433 0
M  V30 3670 C 358.69 1.12211 4.35579 0
M  V30 3671 C 360.009 -0.964157 4.29409 0
M  V30 3672 H 357.128 -0.0190627 0.736753 0
M  V30 3673 H 359.77 0.641021 1.7886 0
M  V30 3674 H 357.92 -0.813165 3.79895 0
M  V30 3675 H 359.592 1.75437 4.26637 0
M  V30 3676 H 357.835 1.71377 3.98513 0
M  V30 3677 H 358.506 0.961794 5.43556 0
M  V30 3678 H 360.982 -0.460378 4.13545 0
M  V30 3679 H 359.858 -1.04671 5.38828 0
M  V30 3680 H 360.119 -2.00563 3.93988 0
M  V30 3681 N 359.178 -1.55987 0.224894 0
M  V30 3682 C 360.426 -1.97998 -0.405099 0
M  V30 3683 C 360.747 -1.11387 -1.60056 0
M  V30 3684 O 360.017 -0.191645 -1.9496 0
M  V30 3685 H 358.597 -0.731235 -0.152658 0
M  V30 3686 H 361.259 -1.92279 0.318567 0
M  V30 3687 H 360.355 -3.03463 -0.729167 0
M  V30 3688 N 360.656 0.0484629 -1.57525 0
M  V30 3689 C 361.903 0.743125 -1.88372 0
M  V30 3690 C 362.231 1.76383 -0.819715 0
M  V30 3691 O 361.486 1.94855 0.181659 0
M  V30 3692 C 361.785 1.46632 -3.25935 0
M  V30 3693 C 361.451 0.583427 -4.4711 0
M  V30 3694 C 360.113 0.340191 -4.79996 0
M  V30 3695 C 362.465 -0.0273345 -5.21193 0
M  V30 3696 C 359.793 -0.522903 -5.84365 0
M  V30 3697 C 362.145 -0.878017 -6.26477 0
M  V30 3698 C 360.809 -1.1309 -6.5785 0
M  V30 3699 H 360.079 0.271929 -0.689301 0
M  V30 3700 H 362.726 0.00336166 -1.915 0
M  V30 3701 H 361.031 2.2789 -3.18706 0
M  V30 3702 H 362.728 2.00902 -3.47044 0
M  V30 3703 H 359.318 0.783151 -4.21384 0
M  V30 3704 H 363.502 0.147654 -4.9608 0
M  V30 3705 H 358.758 -0.727335 -6.07058 0
M  V30 3706 H 362.932 -1.35789 -6.83033 0
M  V30 3707 H 360.559 -1.80144 -7.38547 0
M  V30 3708 N 362.134 1.5431 0.320358 0
M  V30 3709 C 363.066 1.80262 1.41556 0
M  V30 3710 C 364.079 0.684723 1.477 0
M  V30 3711 O 365.268 0.961886 1.50366 0
M  V30 3712 C 362.368 1.90825 2.8007 0
M  V30 3713 C 361.541 3.21023 2.97091 0
M  V30 3714 C 360.6 3.22247 4.15985 0
M  V30 3715 O 359.626 3.95871 4.08992 0
M  V30 3716 N 360.828 2.46258 5.25678 0
M  V30 3717 H 363.593 2.74778 1.19655 0
M  V30 3718 H 361.154 1.53646 0.510358 0
M  V30 3719 H 363.146 1.89067 3.57821 0
M  V30 3720 H 361.716 1.03392 2.95006 0
M  V30 3721 H 360.936 3.35715 2.06614 0
M  V30 3722 H 362.224 4.0698 3.05361 0
M  V30 3723 H 361.622 1.86037 5.34235 0
M  V30 3724 H 360.179 2.50275 6.01835 0
M  V30 3725 N 363.613 -0.582584 1.46437 0
M  V30 3726 C 364.838 -1.37168 1.55563 0
M  V30 3727 C 365.263 -1.87061 0.19743 0
M  V30 3728 O 364.621 -1.61572 -0.822451 0
M  V30 3729 C 364.669 -2.53511 2.56446 0
M  V30 3730 O 363.773 -3.54953 2.09958 0
M  V30 3731 H 363.114 -0.408494 0.523477 0
M  V30 3732 H 365.644 -0.706646 1.9201 0
M  V30 3733 H 365.654 -3.00426 2.76058 0
M  V30 3734 H 364.329 -2.16549 3.55076 0
M  V30 3735 H 362.906 -3.14516 2.00334 0
M  V30 3736 N 365.091 -1.34144 -0.827227 0
M  V30 3737 C 366.041 -1.21923 -1.92663 0
M  V30 3738 C 367.025 -0.119294 -1.60457 0
M  V30 3739 O 368.217 -0.348539 -1.73534 0
M  V30 3740 C 365.346 -0.972492 -3.29238 0
M  V30 3741 C 364.432 -2.1154 -3.67576 0
M  V30 3742 N 364.823 -3.36627 -3.77512 0
M  V30 3743 C 363.121 -2.02468 -3.97395 0
M  V30 3744 C 363.822 -4.11658 -4.1099 0
M  V30 3745 N 362.798 -3.40207 -4.23981 0
M  V30 3746 H 366.6 -2.16721 -1.98517 0
M  V30 3747 H 364.114 -1.2632 -1.02064 0
M  V30 3748 H 366.111 -0.865847 -4.0781 0
M  V30 3749 H 364.771 -0.0331509 -3.24683 0
M  V30 3750 H 365.782 -3.71234 -3.61118 0
M  V30 3751 H 362.459 -1.16265 -4.00985 0
M  V30 3752 H 363.849 -5.19657 -4.25918 0
M  V30 3753 N 366.569 1.04691 -1.17803 0
M  V30 3754 C 367.816 1.77782 -0.969532 0
M  V30 3755 C 368.144 1.87926 0.501401 0
M  V30 3756 O 367.399 1.37918 1.38842 0
M  V30 3757 C 367.698 3.21467 -1.56186 0
M  V30 3758 C 367.364 3.3137 -3.05786 0
M  V30 3759 C 366.026 3.3378 -3.46619 0
M  V30 3760 C 368.378 3.31976 -4.01797 0
M  V30 3761 C 365.706 3.34431 -4.82051 0
M  V30 3762 C 368.058 3.34167 -5.37136 0
M  V30 3763 C 366.722 3.34866 -5.77426 0
M  V30 3764 H 365.992 0.650549 -0.354777 0
M  V30 3765 H 368.639 1.23006 -1.46772 0
M  V30 3766 H 366.944 3.79203 -0.985515 0
M  V30 3767 H 368.641 3.76652 -1.37602 0
M  V30 3768 H 365.231 3.3021 -2.73238 0
M  V30 3769 H 369.415 3.29311 -3.71306 0
M  V30 3770 H 364.671 3.33285 -5.12573 0
M  V30 3771 H 368.845 3.33585 -6.11305 0
M  V30 3772 H 366.472 3.35124 -6.82346 0
M  V30 3773 N 368.047 0.979072 1.23499 0
M  V30 3774 C 368.995 0.510604 2.26926 0
M  V30 3775 C 369.989 -0.431691 1.63807 0
M  V30 3776 O 371.195 -0.30573 1.77385 0
M  V30 3777 H 367.57 0.146688 0.737554 0
M  V30 3778 H 369.541 1.39466 2.63803 0
M  V30 3779 C 368.29 -0.172658 3.47271 0
M  V30 3780 H 367.613 0.543331 3.96091 0
M  V30 3781 H 369.053 -0.464101 4.21452 0
M  V30 3782 C 367.512 -1.40345 3.06276 0
M  V30 3783 O 368.042 -2.49978 3.14442 0
M  V30 3784 N 366.248 -1.27362 2.61203 0
M  V30 3785 H 365.795 -0.381584 2.54758 0
M  V30 3786 H 365.753 -2.09822 2.34141 0
M  V30 3787 N 369.525 -1.3858 0.750561 0
M  V30 3788 C 370.75 -2.04997 0.314812 0
M  V30 3789 C 371.175 -1.56235 -1.04749 0
M  V30 3790 O 370.533 -0.712981 -1.66692 0
M  V30 3791 C 370.581 -3.58961 0.343415 0
M  V30 3792 O 369.685 -4.07025 -0.663628 0
M  V30 3793 H 369.026 -0.649081 0.139962 0
M  V30 3794 H 371.556 -1.77313 1.02084 0
M  V30 3795 H 371.566 -4.07542 0.193233 0
M  V30 3796 H 370.241 -3.93811 1.33738 0
M  V30 3797 H 368.818 -3.6982 -0.478307 0
M  V30 3798 N 371.003 -0.499398 -1.49478 0
M  V30 3799 C 372.251 0.0455996 -2.02049 0
M  V30 3800 C 372.572 1.37633 -1.38138 0
M  V30 3801 O 371.842 1.8842 -0.536166 0
M  V30 3802 H 370.422 0.0198416 -0.746736 0
M  V30 3803 H 373.084 -0.656274 -1.83519 0
M  V30 3804 H 372.18 0.176445 -3.11601 0
M  V30 3805 N 372.481 1.55866 -0.233164 0
M  V30 3806 C 373.706 2.03449 0.402906 0
M  V30 3807 C 374.131 1.11166 1.51736 0
M  V30 3808 O 373.489 0.101996 1.81013 0
M  V30 3809 C 373.537 3.49165 0.9009 0
M  V30 3810 O 372.641 3.60019 2.01147 0
M  V30 3811 H 371.982 0.657913 0.0897025 0
M  V30 3812 H 374.512 2.01493 -0.355201 0
M  V30 3813 H 374.522 3.89716 1.2077 0
M  V30 3814 H 373.197 4.15813 0.0852889 0
M  V30 3815 H 371.774 3.3136 1.71042 0
M  V30 3816 N 373.959 -0.0401083 1.57549 0
M  V30 3817 C 375.37 -0.588097 1.77196 0
M  V30 3818 C 375.721 -1.76209 0.862832 0
M  V30 3819 O 374.846 -2.16331 0.0548389 0
M  V30 3820 C 375.441 -1.07363 3.21339 0
M  V30 3821 C 374 -1.56723 3.42221 0
M  V30 3822 C 373.147 -0.50041 2.72747 0
M  V30 3823 H 376.098 0.186119 1.57605 0
M  V30 3824 H 376.119 -1.94143 3.27244 0
M  V30 3825 H 375.631 -0.218975 3.87482 0
M  V30 3826 H 373.732 -2.4441 2.81237 0
M  V30 3827 H 373.845 -1.62234 4.50796 0
M  V30 3828 H 372.209 -0.952894 2.36203 0
M  V30 3829 H 372.992 0.344599 3.41566 0
M  V30 3830 N 375.437 -1.54477 -0.31217 0
M  V30 3831 C 376.667 -1.76948 -1.06645 0
M  V30 3832 C 377.075 -0.523593 -1.81811 0
M  V30 3833 O 376.418 0.51578 -1.76311 0
M  V30 3834 C 376.48 -2.91668 -2.10166 0
M  V30 3835 C 376.144 -4.30165 -1.54296 0
M  V30 3836 C 377.141 -5.10603 -0.978793 0
M  V30 3837 C 374.826 -4.76738 -1.58196 0
M  V30 3838 C 376.82 -6.3573 -0.461048 0
M  V30 3839 C 374.507 -6.01831 -1.06034 0
M  V30 3840 C 375.505 -6.81161 -0.500844 0
M  V30 3841 O 375.193 -8.03899 0.0128958 0
M  V30 3842 H 374.925 -0.594088 -0.322546 0
M  V30 3843 H 377.479 -2.02213 -0.360441 0
M  V30 3844 H 375.709 -2.62001 -2.84416 0
M  V30 3845 H 377.398 -3.01817 -2.71406 0
M  V30 3846 H 378.164 -4.75771 -0.941651 0
M  V30 3847 H 374.043 -4.15027 -2.00683 0
M  V30 3848 H 377.587 -6.97596 -0.0236894 0
M  V30 3849 H 373.484 -6.36152 -1.09459 0
M  V30 3850 H 374.252 -8.18437 -0.101457 0
M  V30 3851 N 376.915 0.57481 -1.46744 0
M  V30 3852 C 377.863 1.70435 -1.58286 0
M  V30 3853 C 378.857 1.63287 -0.450956 0
M  V30 3854 O 380.063 1.68685 -0.628121 0
M  V30 3855 H 376.438 0.56364 -0.497809 0
M  V30 3856 H 378.409 1.57833 -2.53242 0
M  V30 3857 C 377.158 3.08815 -1.59776 0
M  V30 3858 H 376.481 3.1499 -2.46214 0
M  V30 3859 H 377.921 3.87588 -1.71905 0
M  V30 3860 C 376.38 3.35301 -0.327812 0
M  V30 3861 O 376.91 3.97511 0.57861 0
M  V30 3862 N 375.116 2.89816 -0.213274 0
M  V30 3863 H 374.663 2.39371 -0.951798 0
M  V30 3864 H 374.621 3.0791 0.63553 0
M  V30 3865 N 378.394 1.34581 0.820102 0
M  V30 3866 C 379.619 1.30333 1.61332 0
M  V30 3867 C 380.044 -0.119339 1.87721 0
M  V30 3868 O 379.402 -1.08197 1.45475 0
M  V30 3869 C 379.45 2.10258 2.92957 0
M  V30 3870 O 378.554 1.47404 3.85157 0
M  V30 3871 H 377.895 0.447488 0.490561 0
M  V30 3872 H 380.425 1.77425 1.01889 0
M  V30 3873 H 380.435 2.21718 3.42498 0
M  V30 3874 H 379.11 3.13693 2.73074 0
M  V30 3875 H 377.687 1.44703 3.43679 0
M  V30 3876 N 379.872 -1.04064 1.18357 0
M  V30 3877 C 380.82 -2.14187 0.907007 0
M  V30 3878 C 381.814 -1.68879 -0.132725 0
M  V30 3879 O 383.02 -1.79993 0.0154248 0
M  V30 3880 H 379.395 -0.699585 0.275835 0
M  V30 3881 H 381.366 -2.34711 1.84264 0
M  V30 3882 C 380.115 -3.44785 0.449254 0
M  V30 3883 H 379.438 -3.80058 1.24081 0
M  V30 3884 H 380.878 -4.22974 0.294737 0
M  V30 3885 C 379.337 -3.26391 -0.834909 0
M  V30 3886 O 379.867 -3.53973 -1.89911 0
M  V30 3887 N 378.073 -2.79726 -0.787523 0
M  V30 3888 H 377.62 -2.5748 0.0787347 0
M  V30 3889 H 377.578 -2.67798 -1.64716 0
M  V30 3890 N 381.35 -0.985608 -1.22978 0
M  V30 3891 C 382.597 -0.657386 -1.91532 0
M  V30 3892 C 382.925 0.809707 -1.76845 0
M  V30 3893 O 382.18 1.60021 -1.12658 0
M  V30 3894 C 382.479 -1.00014 -3.43121 0
M  V30 3895 C 382.145 -2.4583 -3.77993 0
M  V30 3896 C 380.807 -2.85679 -3.87222 0
M  V30 3897 C 383.159 -3.40378 -3.94705 0
M  V30 3898 C 380.487 -4.19081 -4.10595 0
M  V30 3899 C 382.839 -4.73429 -4.1958 0
M  V30 3900 C 381.503 -5.1303 -4.27032 0
M  V30 3901 H 380.773 -0.240555 -0.700867 0
M  V30 3902 H 383.42 -1.24044 -1.45895 0
M  V30 3903 H 381.725 -0.335072 -3.90365 0
M  V30 3904 H 383.422 -0.724322 -3.94404 0
M  V30 3905 H 380.012 -2.13939 -3.71387 0
M  V30 3906 H 384.196 -3.10766 -3.8696 0
M  V30 3907 H 379.452 -4.49362 -4.14589 0
M  V30 3908 H 383.626 -5.46644 -4.31455 0
M  V30 3909 H 381.253 -6.16418 -4.44896 0
M  V30 3910 N 382.828 1.3818 -0.7579 0
M  V30 3911 C 384.244 1.5353 -0.435972 0
M  V30 3912 C 384.444 1.71961 1.05032 0
M  V30 3913 O 383.5 1.73307 1.83633 0
M  V30 3914 C 384.813 2.73989 -1.23898 0
M  V30 3915 C 386.361 2.87841 -1.22949 0
M  V30 3916 C 386.836 4.11266 -2.01554 0
M  V30 3917 N 388.327 4.18352 -1.98837 0
M  V30 3918 C 389.062 5.12856 -2.5645 0
M  V30 3919 N 388.558 6.13005 -3.22794 0
M  V30 3920 N 390.351 5.05238 -2.46356 0
M  V30 3921 H 382.502 1.24467 -1.7211 0
M  V30 3922 H 384.765 0.604982 -0.729864 0
M  V30 3923 H 384.471 2.66789 -2.29165 0
M  V30 3924 H 384.345 3.67294 -0.858764 0
M  V30 3925 H 386.732 2.9452 -0.184854 0
M  V30 3926 H 386.813 1.95534 -1.64924 0
M  V30 3927 H 386.457 4.05349 -3.06031 0
M  V30 3928 H 386.387 5.02661 -1.5697 0
M  V30 3929 H 388.878 3.46628 -1.50524 0
M  V30 3930 H 389.191 6.81619 -3.64165 0
M  V30 3931 H 387.536 6.13325 -3.2689 0
M  V30 3932 H 390.727 4.25938 -1.9415 0
M  V30 3933 H 390.9 5.78707 -2.91552 0
M  V30 3934 N 384.306 0.507319 1.49211 0
M  V30 3935 C 385.534 -0.0315749 2.06876 0
M  V30 3936 C 385.949 -1.30241 1.36685 0
M  V30 3937 O 385.306 -1.76937 0.447152 0
M  V30 3938 C 385.357 -0.282627 3.60393 0
M  V30 3939 O 385.078 0.937835 4.27944 0
M  V30 3940 C 386.579 -0.864453 4.3479 0
M  V30 3941 H 383.799 0.0233048 0.670595 0
M  V30 3942 H 386.343 0.706484 1.91909 0
M  V30 3943 H 384.498 -0.97068 3.75042 0
M  V30 3944 H 384.912 0.704567 5.19746 0
M  V30 3945 H 386.386 -0.989664 5.43056 0
M  V30 3946 H 386.863 -1.86382 3.97692 0
M  V30 3947 H 387.469 -0.213672 4.24763 0
M  V30 3948 N 385.784 -1.5574 0.241426 0
M  V30 3949 C 387.012 -2.03208 -0.389134 0
M  V30 3950 C 387.427 -1.12082 -1.51931 0
M  V30 3951 O 386.784 -0.134183 -1.82006 0
M  V30 3952 C 386.835 -3.50064 -0.902087 0
M  V30 3953 O 386.556 -4.37717 0.18305 0
M  V30 3954 C 388.057 -4.13268 -1.60389 0
M  V30 3955 H 385.277 -0.664509 -0.0931053 0
M  V30 3956 H 387.821 -2.0124 0.36369 0
M  V30 3957 H 385.976 -3.52583 -1.60511 0
M  V30 3958 H 386.39 -5.24097 -0.205579 0
M  V30 3959 H 387.864 -5.17733 -1.91458 0
M  V30 3960 H 388.341 -3.59434 -2.52397 0
M  V30 3961 H 388.947 -4.14655 -0.945576 0
M  V30 3962 N 387.262 0.0317525 -1.57568 0
M  V30 3963 C 388.192 1.03274 -2.0942 0
M  V30 3964 C 389.173 1.3788 -0.996143 0
M  V30 3965 O 390.358 1.46811 -1.27122 0
M  V30 3966 C 387.488 2.33448 -2.57137 0
M  V30 3967 C 386.442 2.13091 -3.71182 0
M  V30 3968 C 385.768 3.49001 -4.05095 0
M  V30 3969 C 387.068 1.51928 -4.99715 0
M  V30 3970 H 388.762 0.60112 -2.93303 0
M  V30 3971 H 386.308 0.287705 -1.41097 0
M  V30 3972 H 388.261 3.03802 -2.92032 0
M  V30 3973 H 386.985 2.78665 -1.70333 0
M  V30 3974 H 385.644 1.45171 -3.36632 0
M  V30 3975 H 385.292 3.91862 -3.15362 0
M  V30 3976 H 384.992 3.36207 -4.81911 0
M  V30 3977 H 386.516 4.20721 -4.42522 0
M  V30 3978 H 387.93 2.12196 -5.32584 0
M  V30 3979 H 386.327 1.49716 -5.81124 0
M  V30 3980 H 387.397 0.484811 -4.8247 0
M  V30 3981 N 388.74 1.54641 0.303973 0
M  V30 3982 C 389.672 1.81754 1.39636 0
M  V30 3983 C 390.685 0.70035 1.46966 0
M  V30 3984 O 391.874 0.97778 1.49338 0
M  V30 3985 C 388.974 1.93785 2.7803 0
M  V30 3986 C 388.147 3.24156 2.93669 0
M  V30 3987 C 387.206 3.26641 4.12544 0
M  V30 3988 O 386.232 4.00187 4.04771 0
M  V30 3989 N 387.434 2.5182 5.23036 0
M  V30 3990 H 390.199 2.76031 1.16734 0
M  V30 3991 H 387.76 1.54178 0.494033 0
M  V30 3992 H 389.752 1.92852 3.55795 0
M  V30 3993 H 388.322 1.06515 2.93893 0
M  V30 3994 H 387.542 3.37887 2.03042 0
M  V30 3995 H 388.83 4.10195 3.01027 0
M  V30 3996 H 388.228 1.91692 5.32232 0
M  V30 3997 H 386.785 2.56644 5.99147 0
M  V30 3998 N 390.218 -0.567019 1.47046 0
M  V30 3999 C 391.166 -1.69593 1.59188 0
M  V30 4000 C 392.16 -1.63046 0.459609 0
M  V30 4001 O 393.366 -1.6835 0.637058 0
M  V30 4002 H 389.741 -0.560993 0.500791 0
M  V30 4003 H 391.712 -1.56488 2.54075 0
M  V30 4004 C 390.461 -3.07964 1.61411 0
M  V30 4005 H 389.784 -3.13679 2.47881 0
M  V30 4006 H 391.224 -3.86671 1.73958 0
M  V30 4007 C 389.683 -3.35123 0.34559 0
M  V30 4008 O 390.213 -3.97812 -0.557521 0
M  V30 4009 N 388.419 -2.89699 0.22864 0
M  V30 4010 H 387.966 -2.38863 0.964479 0
M  V30 4011 H 387.924 -3.08242 -0.619192 0
M  V30 4012 N 391.696 -1.35014 -0.812953 0
M  V30 4013 C 392.943 -1.27931 -1.56971 0
M  V30 4014 C 393.271 0.148034 -1.93936 0
M  V30 4015 O 392.526 1.11175 -1.61054 0
M  V30 4016 C 392.825 -2.12524 -2.87347 0
M  V30 4017 C 392.491 -3.61401 -2.6963 0
M  V30 4018 C 391.153 -4.01983 -2.64506 0
M  V30 4019 C 393.505 -4.55894 -2.52607 0
M  V30 4020 C 390.833 -5.35235 -2.40293 0
M  V30 4021 C 393.185 -5.89336 -2.29925 0
M  V30 4022 C 391.849 -6.2907 -2.23219 0
M  V30 4023 H 391.119 -0.468131 -0.574399 0
M  V30 4024 H 393.766 -1.66851 -0.939836 0
M  V30 4025 H 392.071 -1.66463 -3.54679 0
M  V30 4026 H 393.768 -2.04383 -3.45005 0
M  V30 4027 H 390.358 -3.29193 -2.74463 0
M  V30 4028 H 394.542 -4.25431 -2.55583 0
M  V30 4029 H 389.798 -5.65028 -2.33566 0
M  V30 4030 H 393.972 -6.62139 -2.15743 0
M  V30 4031 H 391.599 -7.32256 -2.04219 0
M  V30 4032 N 393.175 1.03435 -1.18907 0
M  V30 4033 C 394.138 2.09756 -0.923844 0
M  V30 4034 C 395.138 1.60528 0.093416 0
M  V30 4035 O 396.328 1.73631 -0.140727 0
M  V30 4036 C 393.46 3.38692 -0.387354 0
M  V30 4037 H 394.653 2.34719 -1.86674 0
M  V30 4038 H 392.206 1.19959 -1.00197 0
M  V30 4039 H 392.941 3.19396 0.561845 0
M  V30 4040 H 392.726 3.75742 -1.12074 0
M  V30 4041 H 394.216 4.17016 -0.220694 0
M  V30 4042 N 394.653 0.992116 1.22453 0
M  V30 4043 C 395.616 0.546883 2.2258 0
M  V30 4044 C 396.616 -0.369829 1.56489 0
M  V30 4045 O 397.806 -0.161896 1.73446 0
M  V30 4046 C 394.938 -0.204659 3.40285 0
M  V30 4047 H 396.131 1.43234 2.63484 0
M  V30 4048 H 393.684 0.779239 1.3549 0
M  V30 4049 H 394.419 -1.10614 3.04853 0
M  V30 4050 H 394.204 0.45354 3.89468 0
M  V30 4051 H 395.694 -0.504358 4.14543 0
M  V30 4052 N 396.131 -1.37776 0.765217 0
M  V30 4053 C 397.061 -2.32945 0.160953 0
M  V30 4054 C 398.042 -1.55454 -0.690516 0
M  V30 4055 O 399.227 -1.83721 -0.629318 0
M  V30 4056 C 396.357 -3.39669 -0.724031 0
M  V30 4057 C 395.311 -4.27992 0.0256173 0
M  V30 4058 C 394.637 -5.25673 -0.978383 0
M  V30 4059 C 395.937 -5.08309 1.20082 0
M  V30 4060 H 397.631 -2.83728 0.955969 0
M  V30 4061 H 395.177 -1.36416 0.461149 0
M  V30 4062 H 397.13 -4.05219 -1.15652 0
M  V30 4063 H 395.854 -2.87396 -1.5515 0
M  V30 4064 H 394.513 -3.63964 0.438812 0
M  V30 4065 H 394.161 -4.69682 -1.80022 0
M  V30 4066 H 393.861 -5.85625 -0.481378 0
M  V30 4067 H 395.385 -5.94098 -1.40995 0
M  V30 4068 H 396.799 -5.67034 0.845307 0
M  V30 4069 H 395.196 -5.77554 1.62947 0
M  V30 4070 H 396.266 -4.41365 2.00811 0
M  V30 4071 N 397.609 -0.515225 -1.4894 0
M  V30 4072 C 398.857 0.0241671 -2.02086 0
M  V30 4073 C 399.178 1.3616 -1.3959 0
M  V30 4074 O 398.448 1.87841 -0.556121 0
M  V30 4075 H 397.028 0.0119203 -0.746905 0
M  V30 4076 H 399.69 -0.675702 -1.82812 0
M  V30 4077 H 398.786 0.143385 -3.1177 0
M  V30 4078 N 399.087 1.5561 -0.249682 0
M  V30 4079 C 400.333 1.99306 0.374841 0
M  V30 4080 C 400.666 1.13767 1.57387 0
M  V30 4081 O 399.941 0.201711 1.93451 0
M  V30 4082 C 400.224 3.51507 0.781986 0
M  V30 4083 C 400.077 4.4781 -0.422629 0
M  V30 4084 C 401.396 4.08884 1.62793 0
M  V30 4085 H 398.515 0.724572 0.134773 0
M  V30 4086 H 401.157 1.86719 -0.351549 0
M  V30 4087 H 399.307 3.62363 1.4009 0
M  V30 4088 H 400.979 4.48931 -1.06108 0
M  V30 4089 H 399.222 4.20518 -1.06524 0
M  V30 4090 H 399.893 5.51919 -0.0943766 0
M  V30 4091 H 402.369 4.01147 1.10547 0
M  V30 4092 H 401.245 5.1564 1.88166 0
M  V30 4093 H 401.506 3.57515 2.60068 0
M  V30 4094 N 400.565 -0.0233959 1.57583 0
M  V30 4095 C 401.842 -0.748794 1.807 0
M  V30 4096 C 402.222 -1.9327 0.849106 0
M  V30 4097 O 401.57 -2.28247 -0.107468 0
M  V30 4098 C 401.78 -1.17651 3.28571 0
M  V30 4099 C 403.128 -1.59008 3.93702 0
M  V30 4100 O 404.152 -1.27094 3.32755 0
M  V30 4101 O 403.011 -2.18264 5.01022 0
M  V30 4102 H 400.105 -0.362578 0.743281 0
M  V30 4103 H 402.651 0.000261958 1.697 0
M  V30 4104 H 401.423 -0.331603 3.89892 0
M  V30 4105 H 401.046 -1.98541 3.44481 0
M  V30 4106 N 402.043 -1.548 -0.295768 0
M  V30 4107 C 403.289 -1.74588 -1.03184 0
M  V30 4108 C 403.622 -0.532962 -1.86744 0
M  V30 4109 O 402.897 0.469872 -1.88739 0
M  V30 4110 C 403.18 -3.03791 -1.93347 0
M  V30 4111 C 403.033 -4.35392 -1.12933 0
M  V30 4112 C 404.352 -3.28892 -2.92435 0
M  V30 4113 H 401.471 -0.635221 -0.373715 0
M  V30 4114 H 404.113 -1.87519 -0.30606 0
M  V30 4115 H 402.263 -2.92898 -2.55232 0
M  V30 4116 H 403.935 -4.58211 -0.532943 0
M  V30 4117 H 402.178 -4.31642 -0.432168 0
M  V30 4118 H 402.849 -5.22074 -1.79284 0
M  V30 4119 H 405.325 -3.39429 -2.4068 0
M  V30 4120 H 404.201 -4.20603 -3.52682 0
M  V30 4121 H 404.462 -2.47437 -3.6637 0
M  V30 4122 N 403.521 0.559213 -1.47345 0
M  V30 4123 C 404.484 1.64854 -1.59235 0
M  V30 4124 C 405.484 1.53851 -0.467607 0
M  V30 4125 O 406.674 1.58045 -0.732617 0
M  V30 4126 C 403.806 3.04388 -1.53496 0
M  V30 4127 H 404.999 1.55662 -2.56339 0
M  V30 4128 H 402.552 0.778973 -1.35505 0
M  V30 4129 H 403.287 3.19115 -0.577604 0
M  V30 4130 H 403.072 3.13783 -2.35123 0
M  V30 4131 H 404.562 3.83642 -1.6495 0
M  V30 4132 N 404.999 1.35443 0.805782 0
M  V30 4133 C 406.248 1.28097 1.55801 0
M  V30 4134 C 406.561 -0.142428 1.95081 0
M  V30 4135 O 407.767 -0.33817 2.69386 0
M  V30 4136 C 406.223 2.24653 2.81174 0
M  V30 4137 C 405.831 3.72342 2.49129 0
M  V30 4138 C 407.575 2.2625 3.59181 0
M  V30 4139 C 405.482 4.60719 3.70799 0
M  V30 4140 H 404.412 0.475937 0.584808 0
M  V30 4141 H 407.063 1.60712 0.885661 0
M  V30 4142 H 405.445 1.85011 3.50124 0
M  V30 4143 H 406.619 4.20624 1.88181 0
M  V30 4144 H 404.934 3.73361 1.84366 0
M  V30 4145 H 407.531 2.89495 4.49552 0
M  V30 4146 H 407.874 1.26647 3.96568 0
M  V30 4147 H 408.407 2.64426 2.97193 0
M  V30 4148 H 405.146 5.61324 3.3852 0
M  V30 4149 H 404.666 4.17163 4.3097 0
M  V30 4150 H 406.345 4.76182 4.38018 0
M  V30 4151 N 406.477 -1.02803 1.19454 0
M  V30 4152 C 407.705 -1.79841 1.02297 0
M  V30 4153 C 408.12 -1.83879 -0.428259 0
M  V30 4154 O 407.477 -1.28345 -1.29745 0
M  V30 4155 C 407.528 -3.24852 1.58598 0
M  V30 4156 O 407.249 -3.21097 2.98041 0
M  V30 4157 C 408.75 -4.18485 1.46236 0
M  V30 4158 H 405.97 -0.565936 0.360496 0
M  V30 4159 H 408.514 -1.2948 1.58288 0
M  V30 4160 H 406.669 -3.72401 1.06753 0
M  V30 4161 H 407.083 -4.12033 3.24545 0
M  V30 4162 H 408.557 -5.18121 1.90407 0
M  V30 4163 H 409.034 -4.37254 0.41301 0
M  V30 4164 H 409.64 -3.76811 1.97215 0
M  V30 4165 N 407.956 -0.998596 -1.21925 0
M  V30 4166 C 408.866 -0.562736 -2.27751 0
M  V30 4167 C 409.882 0.391203 -1.69545 0
M  V30 4168 O 411.058 0.256625 -1.99758 0
M  V30 4169 C 408.123 0.11012 -3.46525 0
M  V30 4170 C 407.184 -0.887495 -4.20026 0
M  V30 4171 C 406.417 -0.246654 -5.3313 0
M  V30 4172 O 406.64 0.958088 -5.62296 0
M  V30 4173 O 405.574 -0.954374 -5.94286 0
M  V30 4174 H 409.4 -1.44329 -2.67213 0
M  V30 4175 H 406.985 -0.767135 -1.28201 0
M  V30 4176 H 408.867 0.486756 -4.18579 0
M  V30 4177 H 407.542 0.965154 -3.08976 0
M  V30 4178 H 406.449 -1.31517 -3.5022 0
M  V30 4179 H 407.782 -1.71191 -4.6147 0
M  V30 4180 N 409.434 1.37368 -0.772513 0
M  V30 4181 C 410.364 2.32856 -0.173304 0
M  V30 4182 C 411.345 1.55818 0.682262 0
M  V30 4183 O 412.53 1.84052 0.619566 0
M  V30 4184 C 409.66 3.40048 0.706007 0
M  V30 4185 C 408.614 4.27973 -0.0483144 0
M  V30 4186 C 407.94 5.26184 0.950491 0
M  V30 4187 C 409.24 5.07665 -1.22776 0
M  V30 4188 H 410.934 2.83217 -0.971002 0
M  V30 4189 H 408.48 1.3617 -0.468377 0
M  V30 4190 H 410.433 4.05827 1.13501 0
M  V30 4191 H 409.157 2.88214 1.53623 0
M  V30 4192 H 407.816 3.63726 -0.458107 0
M  V30 4193 H 407.464 4.7063 1.77529 0
M  V30 4194 H 407.164 5.85872 0.450314 0
M  V30 4195 H 408.688 5.94838 1.37842 0
M  V30 4196 H 410.102 5.66578 -0.875366 0
M  V30 4197 H 408.499 5.76681 -1.66007 0
M  V30 4198 H 409.569 4.40294 -2.03149 0
M  V30 4199 N 410.912 0.523116 1.48665 0
M  V30 4200 C 412.189 -0.0775449 1.95446 0
M  V30 4201 C 412.569 -1.5197 1.4652 0
M  V30 4202 O 411.917 -2.17876 0.688657 0
M  V30 4203 C 412.127 0.0326135 3.48985 0
M  V30 4204 C 413.475 -0.130141 4.24401 0
M  V30 4205 O 414.499 -0.0415142 3.56176 0
M  V30 4206 O 413.358 -0.31491 5.45592 0
M  V30 4207 H 410.452 -0.0831012 0.822814 0
M  V30 4208 H 412.998 0.587227 1.59216 0
M  V30 4209 H 411.77 1.03748 3.77296 0
M  V30 4210 H 411.393 -0.671317 3.91892 0
M  V30 4211 N 412.39 -1.55475 0.257931 0
M  V30 4212 C 413.639 -1.98383 -0.364275 0
M  V30 4213 C 413.952 -1.14952 -1.58258 0
M  V30 4214 O 415.158 -1.47924 -2.27664 0
M  V30 4215 C 413.614 -3.53037 -0.699479 0
M  V30 4216 C 413.222 -4.45223 0.498046 0
M  V30 4217 C 414.966 -4.04575 -1.28526 0
M  V30 4218 C 412.873 -5.91238 0.138383 0
M  V30 4219 H 411.803 -0.740911 -0.13988 0
M  V30 4220 H 414.454 -1.79936 0.359883 0
M  V30 4221 H 412.836 -3.6722 -1.48207 0
M  V30 4222 H 414.01 -4.42803 1.27522 0
M  V30 4223 H 412.325 -4.04226 0.999503 0
M  V30 4224 H 414.922 -5.11196 -1.56788 0
M  V30 4225 H 415.265 -3.5258 -2.21344 0
M  V30 4226 H 415.798 -3.93762 -0.565337 0
M  V30 4227 H 412.537 -6.47294 1.03398 0
M  V30 4228 H 412.057 -5.96768 -0.602374 0
M  V30 4229 H 413.736 -6.46413 -0.27553 0
M  V30 4230 N 413.868 0.0150385 -1.57593 0
M  V30 4231 C 414.8 1.03912 -2.04291 0
M  V30 4232 C 415.813 1.31618 -0.958146 0
M  V30 4233 O 417.002 1.28859 -1.23522 0
M  V30 4234 C 414.102 2.37749 -2.41514 0
M  V30 4235 C 413.275 2.29198 -3.72541 0
M  V30 4236 C 412.334 3.45598 -3.96797 0
M  V30 4237 O 411.36 3.24461 -4.67668 0
M  V30 4238 N 412.562 4.67945 -3.43523 0
M  V30 4239 H 415.327 0.64099 -2.92765 0
M  V30 4240 H 412.888 0.20272 -1.60626 0
M  V30 4241 H 414.88 3.14364 -2.54867 0
M  V30 4242 H 413.45 2.69357 -1.58637 0
M  V30 4243 H 412.67 1.3759 -3.69408 0
M  V30 4244 H 413.958 2.20642 -4.5847 0
M  V30 4245 H 413.356 4.88017 -2.86104 0
M  V30 4246 H 411.913 5.41878 -3.62232 0
M  V30 4247 N 415.346 1.54954 0.287554 0
M  V30 4248 C 416.594 1.74528 1.01904 0
M  V30 4249 C 416.915 0.541349 1.87335 0
M  V30 4250 O 416.185 -0.444108 1.908 0
M  V30 4251 H 414.765 0.643576 0.379235 0
M  V30 4252 H 417.427 1.92333 0.315294 0
M  V30 4253 H 416.523 2.64015 1.6644 0
M  V30 4254 N 416.824 -0.551391 1.4764 0
M  V30 4255 C 417.787 -1.64007 1.60107 0
M  V30 4256 C 418.787 -1.53601 0.47576 0
M  V30 4257 O 419.977 -1.57655 0.740988 0
M  V30 4258 C 417.109 -3.03569 1.55108 0
M  V30 4259 H 418.302 -1.543 2.57161 0
M  V30 4260 H 415.855 -0.771776 1.35917 0
M  V30 4261 H 416.59 -3.18804 0.594519 0
M  V30 4262 H 416.375 -3.12532 2.36783 0
M  V30 4263 H 417.865 -3.82762 1.66982 0
M  V30 4264 N 418.302 -1.35869 -0.798587 0
M  V30 4265 C 419.713 -1.26498 -1.37314 0
M  V30 4266 C 420.064 0.0991899 -1.95949 0
M  V30 4267 O 419.189 1.0004 -1.91888 0
M  V30 4268 C 419.784 -2.29054 -2.49639 0
M  V30 4269 C 418.343 -2.234 -3.02935 0
M  V30 4270 C 417.49 -2.14329 -1.75949 0
M  V30 4271 H 420.441 -1.46881 -0.600971 0
M  V30 4272 H 420.462 -1.92166 -3.28409 0
M  V30 4273 H 419.974 -3.2833 -2.06933 0
M  V30 4274 H 418.075 -1.27562 -3.50084 0
M  V30 4275 H 418.188 -3.15703 -3.60372 0
M  V30 4276 H 416.552 -1.60435 -1.9782 0
M  V30 4277 H 417.335 -3.15477 -1.35384 0
M  V30 4278 N 419.78 1.02168 -1.19998 0
M  V30 4279 C 420.743 2.08765 -0.94604 0
M  V30 4280 C 421.743 1.60618 0.0763846 0
M  V30 4281 O 422.933 1.73472 -0.159135 0
M  V30 4282 C 420.065 3.38262 -0.423255 0
M  V30 4283 H 421.258 2.32726 -1.89153 0
M  V30 4284 H 418.811 1.1889 -1.01464 0
M  V30 4285 H 419.546 3.19974 0.527938 0
M  V30 4286 H 419.331 3.74532 -1.16053 0
M  V30 4287 H 420.821 4.16759 -0.264911 0
M  V30 4288 N 421.258 1.00505 1.21394 0
M  V30 4289 C 422.483 0.706367 1.95001 0
M  V30 4290 C 422.908 -0.72463 1.73582 0
M  V30 4291 O 422.266 -1.49702 1.0227 0
M  V30 4292 C 422.314 1.03299 3.45487 0
M  V30 4293 O 421.418 0.138275 4.12168 0
M  V30 4294 H 420.759 0.263175 0.609619 0
M  V30 4295 H 423.289 1.34531 1.54151 0
M  V30 4296 H 423.299 0.979872 3.96059 0
M  V30 4297 H 421.974 2.07567 3.60401 0
M  V30 4298 H 420.551 0.247928 3.72075 0
M  V30 4299 N 422.737 -1.36956 0.779787 0
M  V30 4300 C 423.965 -2.03755 0.359398 0
M  V30 4301 C 424.38 -1.58807 -1.02106 0
M  V30 4302 O 423.737 -0.773024 -1.6532 0
M  V30 4303 C 423.788 -3.59251 0.402568 0
M  V30 4304 O 423.509 -4.02557 1.72858 0
M  V30 4305 C 425.01 -4.43291 -0.0284068 0
M  V30 4306 H 422.23 -0.654148 0.149437 0
M  V30 4307 H 424.774 -1.75128 1.05595 0
M  V30 4308 H 422.929 -3.86621 -0.245478 0
M  V30 4309 H 423.343 -4.97111 1.67275 0
M  V30 4310 H 424.817 -5.51975 0.0529466 0
M  V30 4311 H 425.294 -4.25719 -1.07982 0
M  V30 4312 H 425.9 -4.21163 0.591758 0
M  V30 4313 N 424.215 -0.530993 -1.48385 0
M  V30 4314 C 425.445 -0.00133928 -2.066 0
M  V30 4315 C 425.853 1.28599 -1.38777 0
M  V30 4316 O 425.196 1.77599 -0.469495 0
M  V30 4317 C 425.258 0.292137 -3.58311 0
M  V30 4318 C 424.922 -0.901864 -4.48013 0
M  V30 4319 C 425.919 -1.80053 -4.87726 0
M  V30 4320 C 423.604 -1.10915 -4.89901 0
M  V30 4321 C 425.598 -2.89038 -5.68098 0
M  V30 4322 C 423.285 -2.20213 -5.70043 0
M  V30 4323 C 424.283 -3.09107 -6.0905 0
M  V30 4324 O 423.971 -4.16514 -6.87583 0
M  V30 4325 H 423.703 -0.0308475 -0.675296 0
M  V30 4326 H 426.257 -0.736335 -1.91748 0
M  V30 4327 H 424.487 1.08112 -3.7128 0
M  V30 4328 H 426.176 0.763994 -3.98645 0
M  V30 4329 H 426.942 -1.65234 -4.55986 0
M  V30 4330 H 422.821 -0.426498 -4.59023 0
M  V30 4331 H 426.365 -3.58451 -5.98464 0
M  V30 4332 H 422.262 -2.35016 -6.01197 0
M  V30 4333 H 423.03 -4.14237 -7.05939 0
M  V30 4334 N 425.693 1.55336 -0.266172 0
M  V30 4335 C 426.656 2.20878 0.612001 0
M  V30 4336 C 427.656 1.18388 1.08816 0
M  V30 4337 O 428.846 1.4335 0.989774 0
M  V30 4338 C 425.978 2.86765 1.84332 0
M  V30 4339 H 427.171 2.99873 0.0398718 0
M  V30 4340 H 424.724 1.56291 -0.0167309 0
M  V30 4341 H 425.459 2.11759 2.45619 0
M  V30 4342 H 425.244 3.61862 1.5099 0
M  V30 4343 H 426.734 3.36867 2.46801 0
M  V30 4344 N 427.171 -0.0066808 1.57599 0
M  V30 4345 C 428.119 -1.01851 2.09115 0
M  V30 4346 C 429.113 -1.36021 1.00969 0
M  V30 4347 O 430.319 -1.34663 1.19439 0
M  V30 4348 H 426.694 -0.346083 0.667631 0
M  V30 4349 H 428.665 -0.558394 2.93129 0
M  V30 4350 C 427.414 -2.30374 2.60429 0
M  V30 4351 H 426.737 -2.04947 3.43273 0
M  V30 4352 H 428.177 -2.99466 3.00161 0
M  V30 4353 C 426.636 -3.00893 1.51542 0
M  V30 4354 O 427.166 -3.91614 0.894484 0
M  V30 4355 N 425.372 -2.62603 1.2445 0
M  V30 4356 H 424.919 -1.88911 1.75129 0
M  V30 4357 H 424.877 -3.10101 0.518137 0
M  V30 4358 N 428.649 -1.55105 -0.279332 0
M  V30 4359 C 429.895 -1.75672 -1.01327 0
M  V30 4360 C 430.228 -0.552739 -1.86168 0
M  V30 4361 O 429.503 0.449827 -1.89227 0
M  V30 4362 C 429.786 -3.05825 -1.90114 0
M  V30 4363 C 429.639 -4.36565 -1.08309 0
M  V30 4364 C 430.958 -3.31975 -2.8893 0
M  V30 4365 H 428.077 -0.639149 -0.366957 0
M  V30 4366 H 430.719 -1.87833 -0.286154 0
M  V30 4367 H 428.869 -2.95588 -2.52111 0
M  V30 4368 H 430.541 -4.58751 -0.484314 0
M  V30 4369 H 428.784 -4.32076 -0.386362 0
M  V30 4370 H 429.455 -5.23946 -1.73737 0
M  V30 4371 H 431.931 -3.41963 -2.37067 0
M  V30 4372 H 430.807 -4.2432 -3.48201 0
M  V30 4373 H 431.068 -2.51309 -3.63725 0
M  V30 4374 N 430.127 0.543554 -1.4793 0
M  V30 4375 C 431.355 1.32516 -1.58894 0
M  V30 4376 C 431.77 1.87215 -0.244131 0
M  V30 4377 O 431.127 1.65709 0.764652 0
M  V30 4378 C 431.178 2.48554 -2.62494 0
M  V30 4379 O 430.899 1.96112 -3.91755 0
M  V30 4380 C 432.4 3.40572 -2.8377 0
M  V30 4381 H 429.62 0.403472 -0.536145 0
M  V30 4382 H 432.164 0.657106 -1.93655 0
M  V30 4383 H 430.319 3.1127 -2.30629 0
M  V30 4384 H 430.733 2.71967 -4.4848 0
M  V30 4385 H 432.207 4.18375 -3.60093 0
M  V30 4386 H 432.684 3.94965 -1.92092 0
M  V30 4387 H 433.29 2.8366 -3.16887 0
M  V30 4388 N 431.605 1.3629 0.791371 0
M  V30 4389 C 432.553 1.30514 1.92533 0
M  V30 4390 C 433.547 0.197285 1.68247 0
M  V30 4391 O 434.753 0.364176 1.76278 0
M  V30 4392 H 431.128 0.406263 0.632815 0
M  V30 4393 H 433.099 2.26282 1.94523 0
M  V30 4394 C 431.848 1.10933 3.29529 0
M  V30 4395 H 431.171 1.95427 3.48781 0
M  V30 4396 H 432.611 1.10937 4.0923 0
M  V30 4397 C 431.07 -0.186123 3.36385 0
M  V30 4398 O 431.6 -1.17664 3.84081 0
M  V30 4399 N 429.806 -0.230128 2.89687 0
M  V30 4400 H 429.353 0.576545 2.51065 0
M  V30 4401 H 429.311 -1.09658 2.94657 0
M  V30 4402 N 433.083 -1.0153 1.20538 0
M  V30 4403 C 434.36 -1.72327 0.925343 0
M  V30 4404 C 434.74 -2.03383 -0.565547 0
M  V30 4405 O 434.088 -1.69934 -1.52757 0
M  V30 4406 C 434.298 -2.9902 1.79967 0
M  V30 4407 C 435.646 -3.72258 2.04228 0
M  V30 4408 O 436.67 -3.08979 1.77231 0
M  V30 4409 O 435.529 -4.86053 2.4983 0
M  V30 4410 H 432.623 -0.751099 0.346092 0
M  V30 4411 H 435.169 -1.07366 1.31417 0
M  V30 4412 H 433.941 -2.72402 2.80915 0
M  V30 4413 H 433.564 -3.71721 1.41099 0
M  V30 4414 N 434.561 -1.01147 -1.20859 0
M  V30 4415 C 435.801 -0.706331 -1.91808 0
M  V30 4416 C 436.165 0.749736 -1.76757 0
M  V30 4417 O 437.366 1.16716 -2.42138 0
M  V30 4418 C 435.637 -1.12371 -3.39275 0
M  V30 4419 S 437.196 -0.939764 -4.28619 0
M  V30 4420 H 434.014 -0.257665 -0.662669 0
M  V30 4421 H 436.616 -1.29766 -1.46223 0
M  V30 4422 H 435.32 -2.17943 -3.47749 0
M  V30 4423 H 434.851 -0.524952 -3.89882 0
M  V30 4424 H 436.866 0.159556 -4.95943 0
M  V30 4425 N 436.039 1.36541 -0.78704 0
M  V30 4426 C 436.969 2.32659 -0.197992 0
M  V30 4427 C 437.95 1.56533 0.665697 0
M  V30 4428 O 439.135 1.84698 0.60001 0
M  V30 4429 C 436.265 3.40778 0.669901 0
M  V30 4430 C 435.219 4.27897 -0.0937039 0
M  V30 4431 C 434.545 5.27163 0.894629 0
M  V30 4432 C 435.845 5.06334 -1.28154 0
M  V30 4433 H 437.539 2.82171 -1.00099 0
M  V30 4434 H 435.085 1.35665 -0.482793 0
M  V30 4435 H 437.038 4.07008 1.09191 0
M  V30 4436 H 435.762 2.89827 1.50558 0
M  V30 4437 H 434.421 3.6322 -0.49666 0
M  V30 4438 H 434.069 4.72486 1.72527 0
M  V30 4439 H 433.769 5.86317 0.388149 0
M  V30 4440 H 435.293 5.96266 1.31525 0
M  V30 4441 H 436.707 5.65617 -0.93541 0
M  V30 4442 H 435.104 5.74888 -1.72115 0
M  V30 4443 H 436.174 4.38114 -2.07807 0
M  V30 4444 N 437.518 0.538854 1.48102 0
M  V30 4445 C 438.481 -0.208395 2.28251 0
M  V30 4446 C 439.481 -0.859656 1.35892 0
M  V30 4447 O 440.671 -0.71834 1.58699 0
M  V30 4448 C 437.803 -1.30252 3.15035 0
M  V30 4449 H 438.996 0.495407 2.9578 0
M  V30 4450 H 436.549 0.295112 1.53489 0
M  V30 4451 H 437.284 -2.0393 2.52157 0
M  V30 4452 H 437.069 -0.840551 3.82985 0
M  V30 4453 H 438.559 -1.82787 3.75471 0
M  V30 4454 N 438.996 -1.55193 0.274407 0
M  V30 4455 C 440.242 -1.99877 -0.343086 0
M  V30 4456 C 440.575 -1.16256 -1.55558 0
M  V30 4457 O 439.85 -0.232462 -1.93106 0
M  V30 4458 C 440.133 -3.52706 -0.725965 0
M  V30 4459 C 439.986 -4.47081 0.493818 0
M  V30 4460 C 441.305 -4.11422 -1.56268 0
M  V30 4461 H 438.424 -0.726625 -0.123229 0
M  V30 4462 H 441.066 -1.86136 0.38121 0
M  V30 4463 H 439.216 -3.64546 -1.34307 0
M  V30 4464 H 440.888 -4.47186 1.13237 0
M  V30 4465 H 439.131 -4.1877 1.13201 0
M  V30 4466 H 439.802 -5.51699 0.18217 0
M  V30 4467 H 442.278 -4.02855 -1.04151 0
M  V30 4468 H 441.154 -5.18568 -1.79939 0
M  V30 4469 H 441.415 -3.61607 -2.54348 0
M  V30 4470 N 440.474 -0.00167713 -1.576 0
M  V30 4471 C 441.699 0.69739 -1.95323 0
M  V30 4472 C 442.124 1.6642 -0.876706 0
M  V30 4473 O 441.482 1.80548 0.165007 0
M  V30 4474 C 441.53 1.40403 -3.32144 0
M  V30 4475 O 440.634 2.5185 -3.26566 0
M  V30 4476 H 439.975 0.185373 -0.637599 0
M  V30 4477 H 442.505 -0.0553665 -2.04525 0
M  V30 4478 H 442.515 1.76707 -3.67748 0
M  V30 4479 H 441.19 0.695167 -4.10049 0
M  V30 4480 H 439.767 2.17861 -3.0264 0
M  V30 4481 N 441.952 1.55251 0.271103 0
M  V30 4482 C 443.368 1.47133 0.618393 0
M  V30 4483 C 443.568 0.686994 1.89427 0
M  V30 4484 O 442.624 0.206609 2.51653 0
M  V30 4485 C 443.937 2.91361 0.743593 0
M  V30 4486 C 445.485 3.01587 0.837522 0
M  V30 4487 C 445.96 4.47073 0.994483 0
M  V30 4488 N 447.451 4.50909 1.05996 0
M  V30 4489 C 448.186 5.60698 1.20024 0
M  V30 4490 N 447.682 6.80348 1.30759 0
M  V30 4491 N 449.475 5.48444 1.23149 0
M  V30 4492 H 441.626 2.04698 -0.566784 0
M  V30 4493 H 443.889 0.928319 -0.192165 0
M  V30 4494 H 443.595 3.51483 -0.123493 0
M  V30 4495 H 443.469 3.40484 1.62328 0
M  V30 4496 H 445.856 2.4156 1.69507 0
M  V30 4497 H 445.937 2.55713 -0.0668086 0
M  V30 4498 H 445.581 5.07703 0.141582 0
M  V30 4499 H 445.511 4.90605 1.91349 0
M  V30 4500 H 448.002 3.6472 0.989316 0
M  V30 4501 H 448.315 7.59772 1.41303 0
M  V30 4502 H 446.66 6.83156 1.27761 0
M  V30 4503 H 449.851 4.53907 1.14394 0
M  V30 4504 H 450.024 6.34049 1.33738 0
M  V30 4505 N 443.43 -0.535701 1.48216 0
M  V30 4506 C 444.67 -1.30238 1.57536 0
M  V30 4507 C 445.034 -1.90479 0.241229 0
M  V30 4508 O 446.235 -2.67983 0.20938 0
M  V30 4509 C 444.506 -2.3669 2.67792 0
M  V30 4510 S 446.065 -3.23159 2.9684 0
M  V30 4511 H 442.883 -0.443093 0.556048 0
M  V30 4512 H 445.485 -0.610937 1.85709 0
M  V30 4513 H 444.189 -1.90905 3.63296 0
M  V30 4514 H 443.72 -3.10548 2.41502 0
M  V30 4515 H 445.735 -4.36647 2.35699 0
M  V30 4516 N 444.908 -1.36708 -0.784132 0
M  V30 4517 C 445.838 -1.34153 -1.91116 0
M  V30 4518 C 446.819 -0.212121 -1.68772 0
M  V30 4519 O 448.004 -0.410581 -1.8981 0
M  V30 4520 C 445.134 -1.13535 -3.28218 0
M  V30 4521 C 444.088 -2.23356 -3.65097 0
M  V30 4522 C 443.414 -1.87875 -5.00607 0
M  V30 4523 C 444.714 -3.65473 -3.73131 0
M  V30 4524 H 446.408 -2.28459 -1.93512 0
M  V30 4525 H 443.954 -1.09973 -0.929618 0
M  V30 4526 H 445.907 -1.10381 -4.06687 0
M  V30 4527 H 444.631 -0.156804 -3.26223 0
M  V30 4528 H 443.29 -2.25645 -2.88929 0
M  V30 4529 H 442.938 -0.885814 -4.95139 0
M  V30 4530 H 442.638 -2.61406 -5.26252 0
M  V30 4531 H 444.162 -1.86286 -5.81489 0
M  V30 4532 H 445.576 -3.65382 -4.41779 0
M  V30 4533 H 443.973 -4.37953 -4.10265 0
M  V30 4534 H 445.043 -3.99995 -2.74102 0
M  V30 4535 N 446.386 1.0089 -1.21074 0
M  V30 4536 C 447.634 1.74262 -1.02358 0
M  V30 4537 C 447.955 1.89869 0.444393 0
M  V30 4538 O 447.225 1.44677 1.32081 0
M  V30 4539 H 445.805 0.645615 -0.375754 0
M  V30 4540 H 448.467 1.21596 -1.52317 0
M  V30 4541 H 447.563 2.74328 -1.4883 0
M  V30 4542 N 447.864 1.01787 1.20321 0
M  V30 4543 C 449.113 0.703249 1.89043 0
M  V30 4544 C 449.426 -0.770445 1.79787 0
M  V30 4545 O 450.632 -1.19767 2.43656 0
M  V30 4546 C 449.088 1.20749 3.3904 0
M  V30 4547 C 448.696 2.70817 3.56878 0
M  V30 4548 C 450.44 0.968352 4.13308 0
M  V30 4549 C 448.347 3.14716 5.00708 0
M  V30 4550 H 447.277 0.259354 0.707991 0
M  V30 4551 H 449.928 1.23072 1.36108 0
M  V30 4552 H 448.31 0.607989 3.91305 0
M  V30 4553 H 449.484 3.36327 3.14993 0
M  V30 4554 H 447.799 2.92888 2.95983 0
M  V30 4555 H 450.396 1.27173 5.19356 0
M  V30 4556 H 450.739 -0.095149 4.16191 0
M  V30 4557 H 451.272 1.53129 3.67146 0
M  V30 4558 H 448.011 4.20347 5.02979 0
M  V30 4559 H 447.531 2.53927 5.43398 0
M  V30 4560 H 449.21 3.07426 5.69296 0
M  V30 4561 N 449.342 -1.36122 0.79427 0
M  V30 4562 C 450.57 -2.03362 0.380989 0
M  V30 4563 C 450.985 -1.59881 -1.00416 0
M  V30 4564 O 450.342 -0.790515 -1.6449 0
M  V30 4565 C 450.393 -3.58804 0.440649 0
M  V30 4566 O 450.114 -4.007 1.77118 0
M  V30 4567 C 451.615 -4.43296 0.0186117 0
M  V30 4568 H 448.835 -0.652526 0.156367 0
M  V30 4569 H 451.379 -1.73998 1.07447 0
M  V30 4570 H 449.534 -3.8686 -0.204458 0
M  V30 4571 H 449.948 -4.95309 1.72538 0
M  V30 4572 H 451.422 -5.51887 0.111488 0
M  V30 4573 H 451.899 -4.2684 -1.03461 0
M  V30 4574 H 452.505 -4.20512 0.636395 0
M  V30 4575 N 450.82 -0.546701 -1.47814 0
M  V30 4576 C 452.066 -0.0187684 -2.02791 0
M  V30 4577 C 452.399 1.32338 -1.42128 0
M  V30 4578 O 451.674 1.85867 -0.573023 0
M  V30 4579 C 451.957 0.0854985 -3.59998 0
M  V30 4580 C 451.81 -1.283 -4.31114 0
M  V30 4581 C 453.129 0.80412 -4.32691 0
M  V30 4582 H 450.248 -0.0082946 -0.736953 0
M  V30 4583 H 452.89 -0.706962 -1.76358 0
M  V30 4584 H 451.04 0.671609 -3.82651 0
M  V30 4585 H 452.712 -1.91151 -4.19832 0
M  V30 4586 H 450.955 -1.86049 -3.91878 0
M  V30 4587 H 451.626 -1.16287 -5.39612 0
M  V30 4588 H 454.102 0.306576 -4.14969 0
M  V30 4589 H 452.978 0.846011 -5.42341 0
M  V30 4590 H 453.239 1.85802 -4.01161 0
M  V30 4591 N 452.299 1.55045 -0.282633 0
M  V30 4592 C 453.545 2.0078 0.325436 0
M  V30 4593 C 453.9 1.1676 1.52921 0
M  V30 4594 O 453.193 0.231475 1.90197 0
M  V30 4595 C 453.387 3.49422 0.750938 0
M  V30 4596 C 453.216 4.47827 -0.410056 0
M  V30 4597 C 451.986 4.97288 -0.896239 0
M  V30 4598 C 454.184 4.98903 -1.24902 0
M  V30 4599 N 452.166 5.79508 -2.02591 0
M  V30 4600 C 453.537 5.78644 -2.22646 0
M  V30 4601 C 455.592 4.81126 -1.2815 0
M  V30 4602 C 454.295 6.42502 -3.23393 0
M  V30 4603 C 456.321 5.45789 -2.27745 0
M  V30 4604 C 455.683 6.25348 -3.24222 0
M  V30 4605 H 451.782 0.77747 0.08405 0
M  V30 4606 H 454.366 1.90369 -0.408368 0
M  V30 4607 H 452.537 3.60159 1.45395 0
M  V30 4608 H 454.269 3.81978 1.33698 0
M  V30 4609 H 451.024 4.71219 -0.474277 0
M  V30 4610 H 451.448 6.25308 -2.59459 0
M  V30 4611 H 456.09 4.19215 -0.549397 0
M  V30 4612 H 453.808 7.03558 -3.97533 0
M  V30 4613 H 457.394 5.33972 -2.31009 0
M  V30 4614 H 456.274 6.74498 -4.00027 0
M  V30 4615 N 453.777 0.010035 1.57597 0
M  V30 4616 C 455.025 -0.671371 1.90623 0
M  V30 4617 C 455.346 -1.73753 0.885151 0
M  V30 4618 O 454.616 -1.95752 -0.0760611 0
M  V30 4619 H 453.196 -0.250968 0.703579 0
M  V30 4620 H 455.858 0.0533325 1.94827 0
M  V30 4621 H 454.954 -1.13626 2.90681 0
M  V30 4622 N 455.255 -1.55392 -0.262866 0
M  V30 4623 C 456.501 -1.76737 -0.99458 0
M  V30 4624 C 456.834 -0.572453 -1.85571 0
M  V30 4625 O 456.109 0.429732 -1.89693 0
M  V30 4626 C 456.392 -3.07824 -1.8686 0
M  V30 4627 C 456.245 -4.3769 -1.03672 0
M  V30 4628 C 457.564 -3.35021 -2.85393 0
M  V30 4629 H 454.683 -0.643005 -0.360157 0
M  V30 4630 H 457.325 -1.88126 -0.266216 0
M  V30 4631 H 455.475 -2.98245 -2.48962 0
M  V30 4632 H 457.147 -4.59238 -0.43563 0
M  V30 4633 H 455.39 -4.32461 -0.340513 0
M  V30 4634 H 456.061 -5.25759 -1.6817 0
M  V30 4635 H 458.537 -3.44458 -2.33426 0
M  V30 4636 H 457.413 -4.27989 -3.43681 0
M  V30 4637 H 457.674 -2.55153 -3.61039 0
M  V30 4638 N 456.733 0.527833 -1.48498 0
M  V30 4639 C 458.149 0.856571 -1.34666 0
M  V30 4640 C 458.349 1.98271 -0.35931 0
M  V30 4641 O 457.405 2.51551 0.218703 0
M  V30 4642 C 458.718 1.22207 -2.74747 0
M  V30 4643 C 460.266 1.33183 -2.83251 0
M  V30 4644 C 460.741 1.73075 -4.24039 0
M  V30 4645 N 462.232 1.80174 -4.26722 0
M  V30 4646 C 462.967 2.1243 -5.32598 0
M  V30 4647 N 462.463 2.43096 -6.4875 0
M  V30 4648 N 464.256 2.13454 -5.19994 0
M  V30 4649 H 456.407 -0.215174 -2.11307 0
M  V30 4650 H 458.67 -0.0336281 -0.947403 0
M  V30 4651 H 458.376 0.468195 -3.4857 0
M  V30 4652 H 458.25 2.17173 -3.08409 0
M  V30 4653 H 460.637 2.07647 -2.09683 0
M  V30 4654 H 460.718 0.363333 -2.53206 0
M  V30 4655 H 460.362 0.991712 -4.98124 0
M  V30 4656 H 460.292 2.70979 -4.51529 0
M  V30 4657 H 462.783 1.58744 -3.42942 0
M  V30 4658 H 463.096 2.6682 -7.25277 0
M  V30 4659 H 461.441 2.40611 -6.52021 0
M  V30 4660 H 464.632 1.88956 -4.28268 0
M  V30 4661 H 464.805 2.38261 -6.02608 0
M  V30 4662 N 458.211 1.37122 0.776871 0
M  V30 4663 C 459.488 1.22586 1.52421 0
M  V30 4664 C 459.868 -0.182726 2.10308 0
M  V30 4665 O 459.216 -1.18979 1.9508 0
M  V30 4666 C 459.426 2.31782 2.60918 0
M  V30 4667 C 460.774 2.69071 3.2846 0
M  V30 4668 O 461.798 2.3092 2.71209 0
M  V30 4669 O 460.657 3.3478 4.31954 0
M  V30 4670 H 457.751 0.478045 0.674835 0
M  V30 4671 H 460.297 1.48888 0.814275 0
M  V30 4672 H 459.069 3.26131 2.16227 0
M  V30 4673 H 458.692 2.06916 3.39517 0
M  V30 4674 N 459.689 -1.00246 1.21608 0
M  V30 4675 C 460.914 -1.78167 1.06167 0
M  V30 4676 C 461.339 -1.84138 -0.384035 0
M  V30 4677 O 460.697 -1.28683 -1.27712 0
M  V30 4678 C 460.745 -3.19786 1.66642 0
M  V30 4679 O 459.849 -4.02153 0.913613 0
M  V30 4680 H 459.19 -0.549 0.37349 0
M  V30 4681 H 461.72 -1.25994 1.61204 0
M  V30 4682 H 461.73 -3.70451 1.70969 0
M  V30 4683 H 460.405 -3.14754 2.7185 0
M  V30 4684 H 458.982 -3.60711 0.945635 0
M  V30 4685 N 461.167 -1.02423 -1.1978 0
M  V30 4686 C 462.444 -0.632802 -1.85081 0
M  V30 4687 C 462.824 0.888745 -1.9148 0
M  V30 4688 O 462.172 1.78357 -1.42832 0
M  V30 4689 C 462.382 -1.28947 -3.24305 0
M  V30 4690 C 463.73 -1.40976 -4.00513 0
M  V30 4691 O 464.754 -1.24628 -3.33686 0
M  V30 4692 O 463.613 -1.67467 -5.20209 0
M  V30 4693 H 460.707 -0.219348 -0.79738 0
M  V30 4694 H 463.253 -1.12209 -1.27307 0
M  V30 4695 H 462.025 -2.3288 -3.14456 0
M  V30 4696 H 461.648 -0.787748 -3.89718 0
M  V30 4697 N 462.645 1.35699 -0.801477 0
M  V30 4698 C 463.87 2.03687 -0.390678 0
M  V30 4699 C 464.295 1.60015 0.988778 0
M  V30 4700 O 463.653 0.774357 1.63931 0
M  V30 4701 C 463.701 3.57439 -0.476404 0
M  V30 4702 O 462.805 4.09208 0.512106 0
M  V30 4703 H 462.146 0.64344 -0.163956 0
M  V30 4704 H 464.676 1.73403 -1.08594 0
M  V30 4705 H 464.686 4.06544 -0.344357 0
M  V30 4706 H 463.361 3.88576 -1.48262 0
M  V30 4707 H 461.938 3.7134 0.340721 0
M  V30 4708 N 464.123 0.554532 1.47522 0
M  V30 4709 C 465.369 0.0377449 2.03365 0
M  V30 4710 C 465.724 -1.29654 1.42154 0
M  V30 4711 O 465.017 -1.83022 0.566865 0
M  V30 4712 C 465.211 -0.115927 3.57212 0
M  V30 4713 C 465.04 1.20191 4.33341 0
M  V30 4714 C 463.81 1.76849 4.73342 0
M  V30 4715 C 466.008 2.11849 4.68641 0
M  V30 4716 N 463.99 3.02665 5.34104 0
M  V30 4717 C 465.361 3.22245 5.29677 0
M  V30 4718 C 467.416 2.11876 4.5057 0
M  V30 4719 C 466.119 4.32763 5.74551 0
M  V30 4720 C 468.145 3.21405 4.9644 0
M  V30 4721 C 467.507 4.30519 5.57523 0
M  V30 4722 H 463.606 0.0559107 0.779999 0
M  V30 4723 H 466.19 0.741232 1.80038 0
M  V30 4724 H 464.361 -0.788533 3.80311 0
M  V30 4725 H 466.093 -0.634538 3.99695 0
M  V30 4726 H 462.848 1.30681 4.55214 0
M  V30 4727 H 463.272 3.66788 5.69031 0
M  V30 4728 H 467.914 1.28801 4.02704 0
M  V30 4729 H 465.632 5.166 6.2141 0
M  V30 4730 H 469.218 3.22509 4.8423 0
M  V30 4731 H 468.098 5.13873 5.92371 0
M  V30 4732 N 465.601 -1.54893 0.290851 0
M  V30 4733 C 467.017 -1.59476 -0.0628432 0
M  V30 4734 C 467.217 -1.30795 -1.5328 0
M  V30 4735 O 466.273 -1.07644 -2.28406 0
M  V30 4736 C 467.586 -2.98928 0.325962 0
M  V30 4737 C 469.134 -3.11799 0.273882 0
M  V30 4738 C 469.609 -4.53544 0.637359 0
M  V30 4739 N 471.1 -4.59433 0.589507 0
M  V30 4740 C 471.835 -5.67164 0.84335 0
M  V30 4741 N 471.331 -6.82975 1.16263 0
M  V30 4742 N 473.124 -5.56786 0.771091 0
M  V30 4743 H 465.275 -1.71798 1.24896 0
M  V30 4744 H 467.538 -0.801879 0.505663 0
M  V30 4745 H 467.244 -3.24805 1.34887 0
M  V30 4746 H 467.118 -3.75793 -0.325441 0
M  V30 4747 H 469.505 -2.85677 -0.739765 0
M  V30 4748 H 469.586 -2.37112 0.959766 0
M  V30 4749 H 469.23 -4.80394 1.64877 0
M  V30 4750 H 469.16 -5.26553 -0.0704866 0
M  V30 4751 H 471.651 -3.76245 0.353252 0
M  V30 4752 H 471.964 -7.61048 1.34257 0
M  V30 4753 H 470.309 -6.84552 1.20057 0
M  V30 4754 H 473.5 -4.65187 0.521383 0
M  V30 4755 H 473.673 -6.40664 0.972295 0
M  V30 4756 N 467.08 -0.0183926 -1.57589 0
M  V30 4757 C 468.305 0.676634 -1.96052 0
M  V30 4758 C 468.73 1.6548 -0.894307 0
M  V30 4759 O 468.088 1.80712 0.145849 0
M  V30 4760 C 468.136 1.36872 -3.33614 0
M  V30 4761 O 467.24 2.48372 -3.29219 0
M  V30 4762 H 466.581 0.1786 -0.63953 0
M  V30 4763 H 469.111 -0.077056 -2.04455 0
M  V30 4764 H 469.121 1.72797 -3.69601 0
M  V30 4765 H 467.796 0.651636 -4.10763 0
M  V30 4766 H 466.373 2.14639 -3.04934 0
M  V30 4767 N 468.558 1.5553 0.254621 0
M  V30 4768 C 469.468 1.92789 1.33677 0
M  V30 4769 C 470.484 0.827356 1.53071 0
M  V30 4770 O 471.66 1.12807 1.66843 0
M  V30 4771 C 468.725 2.20827 2.67275 0
M  V30 4772 C 467.786 3.4427 2.5647 0
M  V30 4773 C 467.019 3.70961 3.83697 0
M  V30 4774 O 467.242 2.99852 4.85227 0
M  V30 4775 O 466.176 4.64491 3.82794 0
M  V30 4776 H 470.002 2.84945 1.05071 0
M  V30 4777 H 467.587 1.42312 0.454723 0
M  V30 4778 H 469.469 2.40204 3.46237 0
M  V30 4779 H 468.144 1.31851 2.9563 0
M  V30 4780 H 467.051 3.30209 1.75821 0
M  V30 4781 H 468.384 4.33524 2.33062 0
M  V30 4782 N 470.036 -0.519951 1.48776 0
M  V30 4783 C 470.968 -1.63973 1.60142 0
M  V30 4784 C 471.981 -1.55404 0.485117 0
M  V30 4785 O 473.17 -1.61682 0.756391 0
M  V30 4786 C 470.27 -3.02676 1.52449 0
M  V30 4787 C 469.443 -3.36624 2.79291 0
M  V30 4788 C 468.502 -4.54652 2.64912 0
M  V30 4789 O 467.528 -4.57374 3.38818 0
M  V30 4790 N 468.73 -5.53432 1.75195 0
M  V30 4791 H 471.495 -1.54656 2.56713 0
M  V30 4792 H 469.056 -0.707439 1.45626 0
M  V30 4793 H 471.048 -3.79525 1.4051 0
M  V30 4794 H 469.618 -3.06018 0.638125 0
M  V30 4795 H 468.838 -2.48855 3.0572 0
M  V30 4796 H 470.126 -3.56094 3.6342 0
M  V30 4797 H 469.524 -5.54018 1.14371 0
M  V30 4798 H 468.081 -6.29459 1.69189 0
M  V30 4799 N 471.514 -1.37532 -0.769588 0
M  V30 4800 C 472.742 -1.36059 -1.55871 0
M  V30 4801 C 473.157 0.053544 -1.88724 0
M  V30 4802 O 472.514 1.01591 -1.5161 0
M  V30 4803 C 472.565 -2.20107 -2.86767 0
M  V30 4804 O 472.286 -3.56009 -2.55321 0
M  V30 4805 C 473.787 -2.26636 -3.80987 0
M  V30 4806 H 471.007 -0.465967 -0.482821 0
M  V30 4807 H 473.551 -1.80901 -0.953686 0
M  V30 4808 H 471.706 -1.78768 -3.43687 0
M  V30 4809 H 472.12 -4.0009 -3.39158 0
M  V30 4810 H 473.594 -2.89763 -4.69831 0
M  V30 4811 H 474.071 -1.2754 -4.20274 0
M  V30 4812 H 474.677 -2.68296 -3.29996 0
M  V30 4813 N 472.992 0.995999 -1.22138 0
M  V30 4814 C 474.403 1.54961 -1.04135 0
M  V30 4815 C 474.754 1.92159 0.396147 0
M  V30 4816 O 473.879 1.74435 1.28069 0
M  V30 4817 C 474.474 2.81581 -1.88408 0
M  V30 4818 C 473.033 3.33396 -1.74712 0
M  V30 4819 C 472.18 2.06509 -1.85066 0
M  V30 4820 H 475.131 0.817436 -1.36028 0
M  V30 4821 H 475.152 3.53822 -1.39966 0
M  V30 4822 H 474.664 2.54476 -2.93025 0
M  V30 4823 H 472.765 3.65416 -0.728159 0
M  V30 4824 H 472.878 4.04208 -2.57202 0
M  V30 4825 H 471.242 2.19925 -1.28472 0
M  V30 4826 H 472.025 1.81804 -2.91208 0
M  V30 4827 N 474.47 1.03057 1.19235 0
M  V30 4828 C 475.4 0.633497 2.24742 0
M  V30 4829 C 476.381 -0.358335 1.66283 0
M  V30 4830 O 477.566 -0.240676 1.92703 0
M  V30 4831 C 474.696 -0.0147648 3.47297 0
M  V30 4832 C 473.65 0.899527 4.18441 0
M  V30 4833 C 472.976 0.116281 5.34574 0
M  V30 4834 C 474.276 2.21404 4.73051 0
M  V30 4835 H 475.97 1.5155 2.58211 0
M  V30 4836 H 473.516 0.73014 1.24117 0
M  V30 4837 H 475.469 -0.304202 4.20301 0
M  V30 4838 H 474.193 -0.931577 3.13032 0
M  V30 4839 H 472.852 1.17319 3.47321 0
M  V30 4840 H 472.5 -0.802619 4.96555 0
M  V30 4841 H 472.2 0.725293 5.83107 0
M  V30 4842 H 473.724 -0.166376 6.10373 0
M  V30 4843 H 475.138 1.98601 5.37802 0
M  V30 4844 H 473.535 2.77512 5.32078 0
M  V30 4845 H 474.605 2.86752 3.91026 0
M  V30 4846 N 475.948 -1.35272 0.808662 0
M  V30 4847 C 476.878 -2.32315 0.234981 0
M  V30 4848 C 477.859 -1.57572 -0.64071 0
M  V30 4849 O 479.044 -1.8563 -0.570551 0
M  V30 4850 C 476.174 -3.41801 -0.615601 0
M  V30 4851 C 475.128 -4.27694 0.161767 0
M  V30 4852 C 474.454 -5.28519 -0.810649 0
M  V30 4853 C 475.754 -5.04231 1.36193 0
M  V30 4854 H 477.448 -2.80543 1.04575 0
M  V30 4855 H 474.994 -1.3488 0.504315 0
M  V30 4856 H 476.947 -4.08693 -1.02702 0
M  V30 4857 H 475.671 -2.92186 -1.45928 0
M  V30 4858 H 474.33 -3.62384 0.554382 0
M  V30 4859 H 473.978 -4.75171 -1.64988 0
M  V30 4860 H 473.678 -5.8686 -0.294822 0
M  V30 4861 H 475.202 -5.98283 -1.22023 0
M  V30 4862 H 476.616 -5.64058 1.02528 0
M  V30 4863 H 475.013 -5.72077 1.81239 0
M  V30 4864 H 476.083 -4.34753 2.14751 0
M  V30 4865 N 477.426 -0.562348 -1.47226 0
M  V30 4866 C 478.673 -0.0402165 -2.0246 0
M  V30 4867 C 479.001 1.31169 -1.43614 0
M  V30 4868 O 478.256 1.86805 -0.5833 0
M  V30 4869 C 478.555 0.0969817 -3.57268 0
M  V30 4870 C 478.221 -1.1847 -4.35058 0
M  V30 4871 C 476.883 -1.53588 -4.56031 0
M  V30 4872 C 479.235 -2.03378 -4.79882 0
M  V30 4873 C 476.563 -2.73452 -5.19077 0
M  V30 4874 C 478.915 -3.2245 -5.44251 0
M  V30 4875 C 477.579 -3.57876 -5.63455 0
M  V30 4876 H 476.849 -0.0147163 -0.740854 0
M  V30 4877 H 479.496 -0.734895 -1.76838 0
M  V30 4878 H 477.801 0.87466 -3.81912 0
M  V30 4879 H 479.498 0.516408 -3.97661 0
M  V30 4880 H 476.088 -0.90126 -4.19017 0
M  V30 4881 H 480.272 -1.77553 -4.63453 0
M  V30 4882 H 475.528 -3.01062 -5.32139 0
M  V30 4883 H 479.702 -3.88526 -5.77945 0
M  V30 4884 H 477.329 -4.50849 -6.12078 0
M  V30 4885 N 478.904 1.54736 -0.299062 0
M  V30 4886 C 479.852 2.24897 0.593658 0
M  V30 4887 C 480.846 1.25429 1.13859 0
M  V30 4888 O 482.052 1.43286 1.08945 0
M  V30 4889 H 478.427 0.72207 0.210046 0
M  V30 4890 H 480.398 2.98393 -0.0206421 0
M  V30 4891 C 479.147 3.00159 1.75499 0
M  V30 4892 H 478.47 3.76501 1.34489 0
M  V30 4893 H 479.91 3.52535 2.35574 0
M  V30 4894 C 478.369 2.07015 2.65794 0
M  V30 4895 O 478.899 1.63692 3.66835 0
M  V30 4896 N 477.105 1.73012 2.33485 0
M  V30 4897 H 476.652 2.08439 1.51364 0
M  V30 4898 H 476.61 1.10965 2.94167 0
M  V30 4899 N 480.382 0.0267497 1.57577 0
M  V30 4900 C 481.33 -0.973923 2.11229 0
M  V30 4901 C 482.324 -1.33849 1.03831 0
M  V30 4902 O 483.53 -1.321 1.22269 0
M  V30 4903 H 479.905 -0.331844 0.674821 0
M  V30 4904 H 481.876 -0.496092 2.94247 0
M  V30 4905 C 480.625 -2.24798 2.65257 0
M  V30 4906 H 479.948 -1.9762 3.47543 0
M  V30 4907 H 481.388 -2.93031 3.06445 0
M  V30 4908 C 479.847 -2.97611 1.57891 0
M  V30 4909 O 480.377 -3.89629 0.97735 0
M  V30 4910 N 478.583 -2.59905 1.29992 0
M  V30 4911 H 478.13 -1.85154 1.79097 0
M  V30 4912 H 478.088 -3.08932 0.583798 0
M  V30 4913 N 481.861 -1.55662 -0.24637 0
M  V30 4914 C 483.138 -1.68272 -0.997198 0
M  V30 4915 C 483.518 -0.566785 -2.03349 0
M  V30 4916 O 482.866 0.429688 -2.24424 0
M  V30 4917 C 483.076 -3.08594 -1.63006 0
M  V30 4918 C 484.424 -3.6721 -2.13171 0
M  V30 4919 O 485.448 -3.11397 -1.72946 0
M  V30 4920 O 484.307 -4.65054 -2.87031 0
M  V30 4921 H 481.401 -0.684429 -0.464205 0
M  V30 4922 H 483.947 -1.67993 -0.240114 0
M  V30 4923 H 482.719 -3.81264 -0.880527 0
M  V30 4924 H 482.342 -3.12886 -2.45333 0
M  V30 4925 N 483.339 0.512053 -1.4905 0
M  V30 4926 C 484.587 1.26436 -1.57665 0
M  V30 4927 C 484.908 1.93255 -0.260293 0
M  V30 4928 O 484.178 1.82206 0.719564 0
M  V30 4929 H 482.758 0.469658 -0.580888 0
M  V30 4930 H 485.42 0.594398 -1.85615 0
M  V30 4931 H 484.516 2.03417 -2.36702 0
M  V30 4932 N 484.817 1.37938 0.762283 0
M  V30 4933 C 486.042 1.37059 1.55659 0
M  V30 4934 C 486.467 -0.0396123 1.88058 0
M  V30 4935 O 485.825 -1.01929 1.49934 0
M  V30 4936 C 485.873 2.22494 2.83776 0
M  V30 4937 O 484.977 1.63607 3.78559 0
M  V30 4938 H 484.318 0.467892 0.47114 0
M  V30 4939 H 486.848 1.81587 0.942725 0
M  V30 4940 H 486.858 2.36045 3.32786 0
M  V30 4941 H 485.533 3.24993 2.59524 0
M  V30 4942 H 484.11 1.5915 3.37233 0
M  V30 4943 N 486.295 -0.989507 1.22664 0
M  V30 4944 C 487.242 -2.08024 0.999733 0
M  V30 4945 C 488.212 -1.65909 -0.0797047 0
M  V30 4946 O 489.397 -1.90669 0.0705715 0
M  V30 4947 C 486.537 -3.40067 0.587234 0
M  V30 4948 C 485.65 -3.95505 1.73781 0
M  V30 4949 C 484.785 -5.15722 1.27297 0
M  V30 4950 C 483.824 -5.63305 2.39488 0
M  V30 4951 N 482.961 -6.74758 1.94026 0
M  V30 4952 H 487.801 -2.26768 1.9334 0
M  V30 4953 H 485.338 -1.11171 0.963297 0
M  V30 4954 H 487.296 -4.15899 0.329227 0
M  V30 4955 H 485.926 -3.21314 -0.309426 0
M  V30 4956 H 484.978 -3.16513 2.11006 0
M  V30 4957 H 486.29 -4.26797 2.58158 0
M  V30 4958 H 485.444 -5.98854 0.972546 0
M  V30 4959 H 484.183 -4.86061 0.399445 0
M  V30 4960 H 483.188 -4.78759 2.70315 0
M  V30 4961 H 484.413 -5.94988 3.27362 0
M  V30 4962 H 482.359 -6.46874 1.09041 0
M  V30 4963 H 482.276 -7.05386 2.71968 0
M  V30 4964 H 483.544 -7.61387 1.67062 0
M  V30 4965 N 487.773 -1.03688 -1.18687 0
M  V30 4966 C 488.72 -0.624624 -2.22187 0
M  V30 4967 C 489.69 0.365636 -1.62026 0
M  V30 4968 O 490.875 0.260481 -1.89014 0
M  V30 4969 C 488.015 0.0101738 -3.45099 0
M  V30 4970 C 487.128 -1.02709 -4.19613 0
M  V30 4971 C 486.263 -0.361213 -5.2997 0
M  V30 4972 C 485.302 -1.38384 -5.96252 0
M  V30 4973 N 484.439 -0.743196 -6.98155 0
M  V30 4974 H 489.279 -1.51176 -2.56807 0
M  V30 4975 H 486.816 -0.75636 -1.26165 0
M  V30 4976 H 488.774 0.395528 -4.15321 0
M  V30 4977 H 487.404 0.860848 -3.1111 0
M  V30 4978 H 486.456 -1.53043 -3.48256 0
M  V30 4979 H 487.768 -1.80398 -4.65036 0
M  V30 4980 H 486.922 0.0785537 -6.06649 0
M  V30 4981 H 485.661 0.447799 -4.8564 0
M  V30 4982 H 484.666 -1.83378 -5.18317 0
M  V30 4983 H 485.891 -2.19448 -6.42666 0
M  V30 4984 H 483.837 0.0455789 -6.55984 0
M  V30 4985 H 483.754 -1.45784 -7.41811 0
M  V30 4986 H 485.022 -0.327698 -7.78811 0
M  V30 4987 N 489.251 1.34841 -0.815825 0
M  V30 4988 C 490.214 2.27959 -0.238185 0
M  V30 4989 C 491.214 1.49983 0.579816 0
M  V30 4990 O 492.404 1.69617 0.396953 0
M  V30 4991 C 489.536 3.34314 0.666876 0
M  V30 4992 H 490.729 2.80558 -1.05958 0
M  V30 4993 H 488.282 1.44852 -0.587156 0
M  V30 4994 H 489.017 2.86916 1.5116 0
M  V30 4995 H 488.802 3.92014 0.0819106 0
M  V30 4996 H 490.292 4.0379 1.06506 0
M  V30 4997 N 490.729 0.570148 1.46925 0
M  V30 4998 C 491.692 -0.159933 2.28641 0
M  V30 4999 C 492.692 -0.830638 1.37685 0
M  V30 5000 O 493.882 -0.684516 1.60187 0
M  V30 5001 C 491.014 -1.2354 3.17727 0
M  V30 5002 H 492.207 0.558035 2.94662 0
M  V30 5003 H 489.76 0.327603 1.52828 0
M  V30 5004 H 490.495 -1.98535 2.56426 0
M  V30 5005 H 490.28 -0.759125 3.84681 0
M  V30 5006 H 491.77 -1.74782 3.79264 0
M  V30 5007 N 492.207 -1.54576 0.307264 0
M  V30 5008 C 493.437 -2.04378 -0.302158 0
M  V30 5009 C 493.845 -1.18381 -1.47589 0
M  V30 5010 O 493.188 -0.20352 -1.82569 0
M  V30 5011 C 493.25 -3.50133 -0.815305 0
M  V30 5012 C 492.914 -4.56401 0.233977 0
M  V30 5013 C 493.911 -5.08884 1.06456 0
M  V30 5014 C 491.596 -5.0088 0.377478 0
M  V30 5015 C 493.59 -6.04394 2.02452 0
M  V30 5016 C 491.277 -5.96208 1.34088 0
M  V30 5017 C 492.275 -6.47849 2.16288 0
M  V30 5018 O 491.963 -7.41308 3.10994 0
M  V30 5019 H 491.695 -0.672502 -0.0686839 0
M  V30 5020 H 494.249 -2.00484 0.446682 0
M  V30 5021 H 492.479 -3.51371 -1.61478 0
M  V30 5022 H 494.168 -3.83098 -1.34129 0
M  V30 5023 H 494.934 -4.75311 0.964596 0
M  V30 5024 H 490.813 -4.60309 -0.252405 0
M  V30 5025 H 494.357 -6.44626 2.66652 0
M  V30 5026 H 490.254 -6.29198 1.44154 0
M  V30 5027 H 491.022 -7.5913 3.06045 0
M  V30 5028 N 493.685 -0.035106 -1.57561 0
M  V30 5029 C 494.913 0.652258 -1.9635 0
M  V30 5030 C 495.328 1.65317 -0.911897 0
M  V30 5031 O 494.685 1.82194 0.105657 0
M  V30 5032 C 494.736 1.35337 -3.35211 0
M  V30 5033 O 494.457 0.392548 -4.36338 0
M  V30 5034 C 495.958 2.13199 -3.88666 0
M  V30 5035 H 493.178 0.179444 -0.646561 0
M  V30 5036 H 495.722 -0.0966459 -2.04271 0
M  V30 5037 H 493.877 2.05362 -3.28489 0
M  V30 5038 H 494.291 0.891097 -5.16875 0
M  V30 5039 H 495.765 2.577 -4.88154 0
M  V30 5040 H 496.242 2.97353 -3.23231 0
M  V30 5041 H 496.848 1.48118 -3.98674 0
M  V30 5042 N 495.163 1.55791 0.238111 0
M  V30 5043 C 496.126 1.90239 1.27835 0
M  V30 5044 C 497.126 0.779552 1.4064 0
M  V30 5045 O 498.316 1.04747 1.3919 0
M  V30 5046 C 495.448 2.13859 2.65475 0
M  V30 5047 H 496.641 2.83262 0.985034 0
M  V30 5048 H 494.194 1.48818 0.477799 0
M  V30 5049 H 494.929 1.23334 2.99932 0
M  V30 5050 H 494.714 2.95643 2.57561 0
M  V30 5051 H 496.204 2.41664 3.40571 0
M  V30 5052 N 496.642 -0.504142 1.49319 0
M  V30 5053 C 497.888 -1.26033 1.58882 0
M  V30 5054 C 498.221 -1.92268 0.273274 0
M  V30 5055 O 497.496 -1.80567 -0.72291 0
M  V30 5056 C 497.779 -2.32976 2.7458 0
M  V30 5057 C 497.632 -1.71263 4.1592 0
M  V30 5058 C 498.951 -3.34561 2.85932 0
M  V30 5059 H 496.07 -0.456863 0.578312 0
M  V30 5060 H 498.712 -0.558965 1.81592 0
M  V30 5061 H 496.862 -2.92796 2.55348 0
M  V30 5062 H 498.534 -1.15294 4.4666 0
M  V30 5063 H 496.777 -1.01686 4.21714 0
M  V30 5064 H 497.448 -2.48816 4.92742 0
M  V30 5065 H 499.924 -2.84727 3.0343 0
M  V30 5066 H 498.8 -4.06754 3.68568 0
M  V30 5067 H 499.061 -3.96695 1.95154 0
M  V30 5068 N 498.12 -1.38341 -0.754957 0
M  V30 5069 C 499.05 -1.38176 -1.88227 0
M  V30 5070 C 500.031 -0.247873 -1.68284 0
M  V30 5071 O 501.216 -0.45075 -1.88896 0
M  V30 5072 C 498.346 -1.20471 -3.25736 0
M  V30 5073 C 497.3 -2.3105 -3.60278 0
M  V30 5074 C 496.626 -1.98452 -4.96509 0
M  V30 5075 C 497.926 -3.73305 -3.65295 0
M  V30 5076 H 499.62 -2.32512 -1.88622 0
M  V30 5077 H 497.166 -1.1192 -0.906082 0
M  V30 5078 H 499.119 -1.18982 -4.04254 0
M  V30 5079 H 497.843 -0.225965 -3.25817 0
M  V30 5080 H 496.502 -2.31723 -2.84078 0
M  V30 5081 H 496.15 -0.990641 -4.93148 0
M  V30 5082 H 495.85 -2.7251 -5.20588 0
M  V30 5083 H 497.374 -1.98578 -5.77407 0
M  V30 5084 H 498.788 -3.7467 -4.3393 0
M  V30 5085 H 497.185 -4.46557 -4.00883 0
M  V30 5086 H 498.255 -4.05719 -2.65556 0
M  V30 5087 N 499.598 0.982988 -1.23187 0
M  V30 5088 C 500.875 1.69814 -0.970707 0
M  V30 5089 C 501.255 2.04811 0.511424 0
M  V30 5090 O 500.603 1.73924 1.48198 0
M  V30 5091 C 500.813 2.94143 -1.87831 0
M  V30 5092 C 502.161 3.66712 -2.14026 0
M  V30 5093 O 503.185 3.04171 -1.8536 0
M  V30 5094 O 502.044 4.79258 -2.62629 0
M  V30 5095 H 499.138 0.741659 -0.365884 0
M  V30 5096 H 501.684 1.03844 -1.34218 0
M  V30 5097 H 500.456 2.64858 -2.88038 0
M  V30 5098 H 500.079 3.6785 -1.50905 0
M  V30 5099 N 501.076 1.04316 1.18135 0
M  V30 5100 C 502.039 0.640794 2.2006 0
M  V30 5101 C 503.039 -0.303124 1.57917 0
M  V30 5102 O 504.229 -0.0881855 1.73977 0
M  V30 5103 C 501.361 -0.060148 3.40847 0
M  V30 5104 H 502.554 1.54281 2.57172 0
M  V30 5105 H 500.107 0.836004 1.32063 0
M  V30 5106 H 500.842 -0.975845 3.0927 0
M  V30 5107 H 500.627 0.618319 3.87194 0
M  V30 5108 H 502.117 -0.328082 4.16309 0
M  V30 5109 N 502.554 -1.34406 0.822964 0
M  V30 5110 C 503.484 -2.32052 0.259608 0
M  V30 5111 C 504.465 -1.58243 -0.623961 0
M  V30 5112 O 505.65 -1.86224 -0.55083 0
M  V30 5113 C 502.78 -3.42434 -0.579314 0
M  V30 5114 C 501.734 -4.27499 0.20712 0
M  V30 5115 C 501.06 -5.29349 -0.754547 0
M  V30 5116 C 502.36 -5.02758 1.41533 0
M  V30 5117 H 504.054 -2.79418 1.07545 0
M  V30 5118 H 501.6 -1.34338 0.518593 0
M  V30 5119 H 503.553 -4.0976 -0.983612 0
M  V30 5120 H 502.277 -2.93717 -1.4282 0
M  V30 5121 H 500.936 -3.61776 0.592787 0
M  V30 5122 H 500.584 -4.76895 -1.59939 0
M  V30 5123 H 500.284 -5.8714 -0.232561 0
M  V30 5124 H 501.808 -5.99544 -1.1567 0
M  V30 5125 H 503.222 -5.62938 1.08504 0
M  V30 5126 H 501.619 -5.70123 1.87296 0
M  V30 5127 H 502.689 -4.32451 2.1935 0
M  V30 5128 N 504.032 -0.577932 -1.46621 0
M  V30 5129 C 504.98 0.170882 -2.31971 0
M  V30 5130 C 505.974 0.889086 -1.44193 0
M  V30 5131 O 507.18 0.808017 -1.60845 0
M  V30 5132 H 503.555 0.0739763 -0.748353 0
M  V30 5133 H 505.526 -0.567856 -2.92947 0
M  V30 5134 C 504.275 1.17438 -3.27267 0
M  V30 5135 H 503.598 0.63116 -3.94787 0
M  V30 5136 H 505.038 1.66882 -3.89778 0
M  V30 5137 C 503.497 2.23292 -2.52274 0
M  V30 5138 O 504.027 3.30567 -2.28229 0
M  V30 5139 N 502.233 1.97772 -2.12919 0
M  V30 5140 H 501.78 1.10545 -2.32675 0
M  V30 5141 H 501.738 2.68809 -1.63062 0
M  V30 5142 N 505.51 1.54411 -0.315457 0
M  V30 5143 C 506.758 2.00023 0.288971 0
M  V30 5144 C 507.079 1.20529 1.5329 0
M  V30 5145 O 506.349 0.304986 1.93511 0
M  V30 5146 H 504.929 0.738891 0.109766 0
M  V30 5147 H 507.591 1.90094 -0.430129 0
M  V30 5148 H 506.687 3.07198 0.550999 0
M  V30 5149 N 506.988 0.0434614 1.5754 0
M  V30 5150 C 508.236 -0.630786 1.92004 0
M  V30 5151 C 508.557 -1.71836 0.921807 0
M  V30 5152 O 507.827 -1.9587 -0.034522 0
M  V30 5153 H 506.407 -0.235988 0.708745 0
M  V30 5154 H 509.069 0.0946462 1.9467 0
M  V30 5155 H 508.165 -1.07434 2.93026 0
M  V30 5156 N 508.466 -1.55915 -0.229846 0
M  V30 5157 C 509.743 -1.6932 -0.979295 0
M  V30 5158 C 510.123 -0.588321 -2.02736 0
M  V30 5159 O 509.471 0.40586 -2.24867 0
M  V30 5160 C 509.681 -3.10305 -1.59724 0
M  V30 5161 C 511.029 -3.6945 -2.09264 0
M  V30 5162 O 512.053 -3.13214 -1.69633 0
M  V30 5163 O 510.912 -4.68072 -2.82082 0
M  V30 5164 H 508.006 -0.689314 -0.456919 0
M  V30 5165 H 510.552 -1.68238 -0.222283 0
M  V30 5166 H 509.324 -3.82177 -0.840039 0
M  V30 5167 H 508.947 -3.1547 -2.42001 0
M  V30 5168 N 509.944 0.496216 -1.49584 0
M  V30 5169 C 511.169 1.27865 -1.63295 0
M  V30 5170 C 511.594 1.85592 -0.306156 0
M  V30 5171 O 510.952 1.66092 0.726851 0
M  V30 5172 C 511 2.38128 -2.7079 0
M  V30 5173 O 510.104 3.42108 -2.30296 0
M  V30 5174 H 509.445 0.377279 -0.546403 0
M  V30 5175 H 511.975 0.593497 -1.95803 0
M  V30 5176 H 511.985 2.8382 -2.93104 0
M  V30 5177 H 510.66 1.95479 -3.67098 0
M  V30 5178 H 509.237 3.02301 -2.18331 0
M  V30 5179 N 511.423 1.38739 0.74761 0
M  V30 5180 C 512.648 1.38702 1.54197 0
M  V30 5181 C 513.073 -0.019664 1.8809 0
M  V30 5182 O 512.431 -1.00333 1.51006 0
M  V30 5183 C 512.479 2.25492 2.814 0
M  V30 5184 O 511.583 1.67613 3.76802 0
M  V30 5185 H 510.924 0.472863 0.466151 0
M  V30 5186 H 513.454 1.82577 0.923413 0
M  V30 5187 H 513.464 2.39561 3.30264 0
M  V30 5188 H 512.139 3.27727 2.56062 0
M  V30 5189 H 510.716 1.62718 3.35526 0
M  V30 5190 N 512.901 -0.976442 1.23707 0
M  V30 5191 C 513.811 -2.10359 1.03856 0
M  V30 5192 C 514.827 -1.73991 -0.0180919 0
M  V30 5193 O 516.003 -2.0061 0.178211 0
M  V30 5194 C 513.068 -3.40809 0.636387 0
M  V30 5195 C 512.129 -3.91179 1.76854 0
M  V30 5196 C 511.362 -5.15404 1.38546 0
M  V30 5197 O 511.585 -5.69754 0.27142 0
M  V30 5198 O 510.519 -5.5994 2.20797 0
M  V30 5199 H 514.345 -2.29997 1.98331 0
M  V30 5200 H 511.93 -1.08742 1.02448 0
M  V30 5201 H 513.812 -4.19269 0.423223 0
M  V30 5202 H 512.487 -3.22493 -0.279322 0
M  V30 5203 H 511.394 -3.13819 2.03638 0
M  V30 5204 H 512.727 -4.13958 2.6627 0
M  V30 5205 N 514.379 -1.04941 -1.1758 0
M  V30 5206 C 515.79 -0.784501 -1.69418 0
M  V30 5207 C 516.141 0.693625 -1.8353 0
M  V30 5208 O 515.266 1.53925 -1.52106 0
M  V30 5209 C 515.861 -1.41746 -3.07723 0
M  V30 5210 C 514.42 -1.20066 -3.56737 0
M  V30 5211 C 513.567 -1.5026 -2.33061 0
M  V30 5212 H 516.518 -1.21469 -1.02133 0
M  V30 5213 H 516.539 -0.825381 -3.7144 0
M  V30 5214 H 516.051 -2.49325 -2.9742 0
M  V30 5215 H 514.152 -0.144006 -3.72322 0
M  V30 5216 H 514.265 -1.90384 -4.39648 0
M  V30 5217 H 512.629 -0.922598 -2.37403 0
M  V30 5218 H 513.412 -2.58967 -2.25368 0
M  V30 5219 N 515.857 1.33968 -0.830081 0
M  V30 5220 C 517.268 1.80439 -0.479455 0
M  V30 5221 C 517.619 1.68756 1.00079 0
M  V30 5222 O 516.744 1.23171 1.77927 0
M  V30 5223 C 517.339 3.27611 -0.863505 0
M  V30 5224 C 515.898 3.72133 -0.565145 0
M  V30 5225 C 515.045 2.55549 -1.07657 0
M  V30 5226 H 517.996 1.21614 -1.0196 0
M  V30 5227 H 518.017 3.8012 -0.170083 0
M  V30 5228 H 517.529 3.36082 -1.94089 0
M  V30 5229 H 515.63 3.69196 0.502536 0
M  V30 5230 H 515.743 4.65963 -1.11422 0
M  V30 5231 H 514.107 2.49788 -0.497807 0
M  V30 5232 H 514.89 2.66786 -2.16055 0
M  V30 5233 N 517.335 0.585699 1.46312 0
M  V30 5234 C 518.298 -0.135673 2.28798 0
M  V30 5235 C 519.298 -0.815988 1.38558 0
M  V30 5236 O 520.488 -0.667487 1.60904 0
M  V30 5237 C 517.62 -1.20163 3.1902 0
M  V30 5238 H 518.813 0.589257 2.94054 0
M  V30 5239 H 516.366 0.343794 1.52472 0
M  V30 5240 H 517.101 -1.95804 2.58517 0
M  V30 5241 H 516.886 -0.718282 3.85465 0
M  V30 5242 H 518.376 -1.70749 3.81096 0
M  V30 5243 N 518.813 -1.54241 0.323641 0
M  V30 5244 C 520.09 -1.92741 -0.333181 0
M  V30 5245 C 520.47 -1.25326 -1.69872 0
M  V30 5246 O 519.818 -0.396991 -2.25025 0
M  V30 5247 C 520.028 -3.46399 -0.425322 0
M  V30 5248 C 521.376 -4.19029 -0.68557 0
M  V30 5249 O 522.4 -3.52555 -0.50824 0
M  V30 5250 O 521.259 -5.36751 -1.02767 0
M  V30 5251 H 518.353 -0.804811 -0.190286 0
M  V30 5252 H 520.899 -1.65542 0.373361 0
M  V30 5253 H 519.671 -3.87643 0.533737 0
M  V30 5254 H 519.294 -3.79704 -1.17944 0
M  V30 5255 N 520.291 -0.0518155 -1.57515 0
M  V30 5256 C 521.539 0.620595 -1.92336 0
M  V30 5257 C 521.86 1.71345 -0.930907 0
M  V30 5258 O 521.13 1.95885 0.0241341 0
M  V30 5259 H 519.71 0.232226 -0.709986 0
M  V30 5260 H 522.372 -0.104969 -1.94617 0
M  V30 5261 H 521.468 1.05879 -2.93592 0
M  V30 5262 N 521.769 1.56035 0.221574 0
M  V30 5263 C 523.017 1.78693 0.944102 0
M  V30 5264 C 523.338 0.620317 1.8487 0
M  V30 5265 O 522.608 -0.362784 1.92512 0
M  V30 5266 H 521.188 0.659082 0.351597 0
M  V30 5267 H 523.85 1.93497 0.233435 0
M  V30 5268 H 522.946 2.70837 1.55093 0
M  V30 5269 N 523.247 -0.488276 1.49845 0
M  V30 5270 C 524.179 -1.60539 1.63584 0
M  V30 5271 C 525.192 -1.5434 0.517972 0
M  V30 5272 O 526.381 -1.60041 0.790516 0
M  V30 5273 C 523.481 -2.99374 1.58835 0
M  V30 5274 C 522.654 -3.30624 2.86368 0
M  V30 5275 C 521.713 -4.4893 2.74496 0
M  V30 5276 O 520.739 -4.50085 3.48443 0
M  V30 5277 N 521.941 -5.49591 1.86894 0
M  V30 5278 H 524.706 -1.49176 2.59936 0
M  V30 5279 H 522.267 -0.67639 1.47094 0
M  V30 5280 H 524.259 -3.76459 1.48529 0
M  V30 5281 H 522.829 -3.04595 0.702892 0
M  V30 5282 H 522.049 -2.42314 3.1093 0
M  V30 5283 H 523.337 -3.48305 3.70892 0
M  V30 5284 H 522.735 -5.51467 1.26097 0
M  V30 5285 H 521.292 -6.25728 1.82503 0
M  V30 5286 N 524.725 -1.39134 -0.740242 0
M  V30 5287 C 525.974 -1.35384 -1.49512 0
M  V30 5288 C 526.287 0.04919 -1.95538 0
M  V30 5289 O 527.493 0.209257 -2.70692 0
M  V30 5290 C 525.949 -2.37812 -2.70136 0
M  V30 5291 C 525.557 -3.83804 -2.31081 0
M  V30 5292 C 527.301 -2.4313 -3.47977 0
M  V30 5293 C 525.208 -4.77886 -3.48395 0
M  V30 5294 H 524.138 -0.503297 -0.561434 0
M  V30 5295 H 526.789 -1.64754 -0.807974 0
M  V30 5296 H 525.171 -2.01505 -3.40899 0
M  V30 5297 H 526.345 -4.29123 -1.67898 0
M  V30 5298 H 524.66 -3.81732 -1.66343 0
M  V30 5299 H 527.257 -3.10614 -4.35228 0
M  V30 5300 H 527.6 -1.45423 -3.90074 0
M  V30 5301 H 528.133 -2.78304 -2.84239 0
M  V30 5302 H 524.872 -5.76836 -3.11353 0
M  V30 5303 H 524.392 -4.3725 -4.10576 0
M  V30 5304 H 526.071 -4.96538 -4.148 0
M  V30 5305 N 526.204 0.969867 -1.24223 0
M  V30 5306 C 527.151 2.06407 -1.0327 0
M  V30 5307 C 528.121 1.66014 0.0533 0
M  V30 5308 O 529.306 1.90533 -0.100896 0
M  V30 5309 C 526.446 3.3909 -0.641262 0
M  V30 5310 C 525.559 3.9269 -1.80051 0
M  V30 5311 C 524.694 5.13631 -1.35486 0
M  V30 5312 C 523.733 5.59423 -2.48419 0
M  V30 5313 N 522.87 6.71586 -2.04737 0
M  V30 5314 H 527.71 2.23663 -1.96923 0
M  V30 5315 H 525.247 1.09624 -0.980862 0
M  V30 5316 H 527.205 4.15323 -0.395351 0
M  V30 5317 H 525.835 3.21765 0.258269 0
M  V30 5318 H 524.887 3.13116 -2.16014 0
M  V30 5319 H 526.199 4.22636 -2.64916 0
M  V30 5320 H 525.353 5.97231 -1.0677 0
M  V30 5321 H 524.092 4.85364 -0.476722 0
M  V30 5322 H 523.097 4.74398 -2.77897 0
M  V30 5323 H 524.322 5.89705 -3.36786 0
M  V30 5324 H 522.268 6.45058 -1.19318 0
M  V30 5325 H 522.185 7.0097 -2.83156 0
M  V30 5326 H 523.453 7.58633 -1.79154 0
M  V30 5327 N 527.682 1.05563 1.17022 0
M  V30 5328 C 528.93 0.76642 1.87004 0
M  V30 5329 C 529.251 -0.708854 1.8166 0
M  V30 5330 O 528.521 -1.51242 1.2451 0
M  V30 5331 H 527.101 0.280516 0.692329 0
M  V30 5332 H 529.763 1.33557 1.41945 0
M  V30 5333 H 528.859 1.08472 2.92644 0
M  V30 5334 N 529.16 -1.33526 0.837174 0
M  V30 5335 C 530.406 -1.9813 0.432704 0
M  V30 5336 C 530.739 -1.66168 -1.00508 0
M  V30 5337 O 530.014 -0.94069 -1.70239 0
M  V30 5338 C 530.297 -3.54151 0.651834 0
M  V30 5339 C 530.15 -3.95806 2.13676 0
M  V30 5340 C 531.469 -4.39993 0.0968937 0
M  V30 5341 H 528.588 -0.719713 0.15869 0
M  V30 5342 H 531.23 -1.58193 1.05237 0
M  V30 5343 H 529.38 -3.88301 0.124369 0
M  V30 5344 H 531.052 -3.71921 2.72896 0
M  V30 5345 H 529.295 -3.45599 2.62191 0
M  V30 5346 H 529.966 -5.0447 2.24084 0
M  V30 5347 H 532.442 -4.12479 0.547733 0
M  V30 5348 H 531.318 -5.48186 0.279917 0
M  V30 5349 H 531.579 -4.3066 -0.9992 0
M  V30 5350 N 530.638 -0.59345 -1.46 0
M  V30 5351 C 531.886 -0.082988 -2.0193 0
M  V30 5352 C 532.207 1.28569 -1.46612 0
M  V30 5353 O 531.477 1.84629 -0.654909 0
M  V30 5354 H 530.057 -0.0276882 -0.746487 0
M  V30 5355 H 532.719 -0.771657 -1.78973 0
M  V30 5356 H 531.815 -0.022079 -3.12092 0
M  V30 5357 N 532.116 1.54067 -0.331816 0
M  V30 5358 C 533.341 2.05599 0.272705 0
M  V30 5359 C 533.766 1.2059 1.44359 0
M  V30 5360 O 533.124 0.216907 1.79998 0
M  V30 5361 C 533.172 3.54188 0.677021 0
M  V30 5362 O 532.276 3.72082 1.77844 0
M  V30 5363 H 531.617 0.662286 0.0476801 0
M  V30 5364 H 534.147 1.98826 -0.482624 0
M  V30 5365 H 534.157 3.96608 0.957415 0
M  V30 5366 H 532.832 4.15513 -0.179325 0
M  V30 5367 H 531.409 3.41566 1.49622 0
M  V30 5368 N 533.594 0.0601682 1.57485 0
M  V30 5369 C 534.842 -0.610386 1.92662 0
M  V30 5370 C 535.163 -1.70849 0.939981 0
M  V30 5371 O 534.433 -1.95895 -0.0137455 0
M  V30 5372 H 533.013 -0.228457 0.711208 0
M  V30 5373 H 535.675 0.115288 1.94559 0
M  V30 5374 H 534.771 -1.0432 2.94149 0
M  V30 5375 N 535.072 -1.5615 -0.213296 0
M  V30 5376 C 536.488 -1.49327 -0.56336 0
M  V30 5377 C 536.688 -0.756826 -1.86747 0
M  V30 5378 O 535.744 -0.299866 -2.50713 0
M  V30 5379 C 537.057 -2.9392 -0.634944 0
M  V30 5380 C 538.605 -3.04487 -0.725013 0
M  V30 5381 C 539.08 -4.50456 -0.82787 0
M  V30 5382 N 540.571 -4.54533 -0.891876 0
M  V30 5383 C 541.306 -5.64766 -0.991315 0
M  V30 5384 N 540.802 -6.84733 -1.05419 0
M  V30 5385 N 542.595 -5.52637 -1.02709 0
M  V30 5386 H 534.746 -2.02453 0.642366 0
M  V30 5387 H 537.009 -0.920548 0.226487 0
M  V30 5388 H 536.715 -3.50783 0.253859 0
M  V30 5389 H 536.589 -3.46274 -1.49579 0
M  V30 5390 H 538.976 -2.47685 -1.60425 0
M  V30 5391 H 539.057 -2.55289 0.161669 0
M  V30 5392 H 538.701 -5.07878 0.0469464 0
M  V30 5393 H 538.631 -4.97369 -1.73009 0
M  V30 5394 H 541.122 -3.68141 -0.85327 0
M  V30 5395 H 541.435 -7.64493 -1.13007 0
M  V30 5396 H 539.78 -6.87427 -1.02318 0
M  V30 5397 H 542.971 -4.5784 -0.974687 0
M  V30 5398 H 543.144 -6.38576 -1.10113 0
M  V30 5399 N 536.55 0.480323 -1.50102 0
M  V30 5400 C 537.79 1.24301 -1.62261 0
M  V30 5401 C 538.154 1.89452 -0.311758 0
M  V30 5402 O 539.355 2.67022 -0.308696 0
M  V30 5403 C 537.626 2.26588 -2.76392 0
M  V30 5404 S 539.185 3.11919 -3.08629 0
M  V30 5405 H 536.003 0.42215 -0.57211 0
M  V30 5406 H 538.605 0.541591 -1.87848 0
M  V30 5407 H 537.309 1.7729 -3.70131 0
M  V30 5408 H 536.84 3.01371 -2.52862 0
M  V30 5409 H 538.855 4.27598 -2.51742 0
M  V30 5410 N 538.028 1.39524 0.732853 0
M  V30 5411 C 538.958 1.41153 1.86005 0
M  V30 5412 C 539.939 0.274614 1.67869 0
M  V30 5413 O 541.124 0.480745 1.88155 0
M  V30 5414 C 538.254 1.25638 3.23778 0
M  V30 5415 C 537.208 2.36752 3.56556 0
M  V30 5416 C 536.534 2.06326 4.93289 0
M  V30 5417 C 537.834 3.79069 3.5931 0
M  V30 5418 H 539.528 2.35484 1.84899 0
M  V30 5419 H 537.074 1.13348 0.888162 0
M  V30 5420 H 539.027 1.25398 4.0231 0
M  V30 5421 H 537.751 0.277772 3.25417 0
M  V30 5422 H 536.41 2.36213 2.80355 0
M  V30 5423 H 536.058 1.06897 4.9151 0
M  V30 5424 H 535.758 2.80757 5.16187 0
M  V30 5425 H 537.282 2.07739 5.74175 0
M  V30 5426 H 538.696 3.81526 4.27914 0
M  V30 5427 H 537.093 4.52878 3.93728 0
M  V30 5428 H 538.163 4.09893 2.59068 0
M  V30 5429 N 539.506 -0.963266 1.24736 0
M  V30 5430 C 540.783 -1.68248 0.9976 0
M  V30 5431 C 541.163 -2.05599 -0.478776 0
M  V30 5432 O 540.511 -1.7626 -1.45412 0
M  V30 5433 C 540.721 -2.91118 1.92487 0
M  V30 5434 C 542.069 -3.63261 2.19833 0
M  V30 5435 O 543.093 -3.01184 1.90176 0
M  V30 5436 O 541.952 -4.75019 2.7022 0
M  V30 5437 H 539.046 -0.735744 0.377637 0
M  V30 5438 H 541.592 -1.01696 1.35853 0
M  V30 5439 H 540.364 -2.60242 2.92215 0
M  V30 5440 H 539.987 -3.65402 1.56738 0
M  V30 5441 N 540.985 -1.06182 -1.16461 0
M  V30 5442 C 542.231 -0.779015 -1.87241 0
M  V30 5443 C 542.564 0.692715 -1.81425 0
M  V30 5444 O 541.839 1.5074 -1.22913 0
M  V30 5445 C 542.122 -1.2728 -3.36856 0
M  V30 5446 C 541.975 -2.80821 -3.51368 0
M  V30 5447 C 543.294 -0.879799 -4.31216 0
M  V30 5448 H 540.413 -0.284464 -0.679889 0
M  V30 5449 H 543.055 -1.31755 -1.36896 0
M  V30 5450 H 541.205 -0.814673 -3.79862 0
M  V30 5451 H 542.877 -3.34833 -3.17308 0
M  V30 5452 H 541.12 -3.19606 -2.93316 0
M  V30 5453 H 541.791 -3.10435 -4.56436 0
M  V30 5454 H 544.267 -1.27436 -3.96105 0
M  V30 5455 H 543.143 -1.25278 -5.34412 0
M  V30 5456 H 543.404 0.215372 -4.41575 0
M  V30 5457 N 542.463 1.3308 -0.844243 0
M  V30 5458 C 543.874 1.7992 -0.498566 0
M  V30 5459 C 544.225 1.69808 0.982834 0
M  V30 5460 O 543.35 1.25051 1.7661 0
M  V30 5461 C 543.945 3.26677 -0.898204 0
M  V30 5462 C 542.504 3.71513 -0.604583 0
M  V30 5463 C 541.651 2.54393 -1.10362 0
M  V30 5464 H 544.602 1.20526 -1.03244 0
M  V30 5465 H 544.623 3.79918 -0.21039 0
M  V30 5466 H 544.135 3.34004 -1.97643 0
M  V30 5467 H 542.236 3.69708 0.46335 0
M  V30 5468 H 542.349 4.64755 -1.16358 0
M  V30 5469 H 540.713 2.49246 -0.524273 0
M  V30 5470 H 541.496 2.6448 -2.18873 0
M  V30 5471 N 543.941 0.601185 1.45683 0
M  V30 5472 C 545.218 0.0261659 1.95582 0
M  V30 5473 C 545.598 -1.4399 1.5437 0
M  V30 5474 O 544.946 -2.13919 0.80318 0
M  V30 5475 C 545.156 0.217557 3.48321 0
M  V30 5476 C 546.504 0.0950076 4.24494 0
M  V30 5477 O 547.528 0.147345 3.55895 0
M  V30 5478 O 546.387 -0.025261 5.46494 0
M  V30 5479 H 543.481 -0.0393688 0.826062 0
M  V30 5480 H 546.027 0.670798 1.55879 0
M  V30 5481 H 544.799 1.23601 3.71266 0
M  V30 5482 H 544.422 -0.46264 3.94899 0
M  V30 5483 N 545.419 -1.53889 0.339982 0
M  V30 5484 C 546.382 -2.23547 -0.50592 0
M  V30 5485 C 547.382 -1.23445 -1.03044 0
M  V30 5486 O 548.572 -1.47909 -0.920253 0
M  V30 5487 C 545.704 -2.95234 -1.7044 0
M  V30 5488 H 546.897 -2.99722 0.103247 0
M  V30 5489 H 544.45 -1.56033 0.0912804 0
M  V30 5490 H 545.185 -2.23236 -2.35236 0
M  V30 5491 H 544.97 -3.68654 -1.33553 0
M  V30 5492 H 546.46 -3.48258 -2.30447 0
M  V30 5493 N 546.897 -0.0685191 -1.57451 0
M  V30 5494 C 548.122 0.613919 -1.98106 0
M  V30 5495 C 548.547 1.62551 -0.946501 0
M  V30 5496 O 547.905 1.81085 0.0882824 0
M  V30 5497 C 547.953 1.26189 -3.378 0
M  V30 5498 O 547.057 2.37773 -3.36954 0
M  V30 5499 H 546.398 0.158163 -0.644888 0
M  V30 5500 H 548.928 -0.142063 -2.04106 0
M  V30 5501 H 548.938 1.60951 -3.74912 0
M  V30 5502 H 547.613 0.520625 -4.12629 0
M  V30 5503 H 546.19 2.04829 -3.11608 0
M  V30 5504 N 548.375 1.56261 0.205012 0
M  V30 5505 C 549.603 1.84141 0.943386 0
M  V30 5506 C 550.018 0.649772 1.77266 0
M  V30 5507 O 549.375 -0.381612 1.78466 0
M  V30 5508 C 549.426 3.10719 1.84759 0
M  V30 5509 O 549.147 4.25286 1.05181 0
M  V30 5510 C 550.648 3.51706 2.69848 0
M  V30 5511 H 547.868 0.611734 0.275721 0
M  V30 5512 H 550.412 2.03364 0.215253 0
M  V30 5513 H 548.567 2.93422 2.52947 0
M  V30 5514 H 548.981 4.97301 1.66709 0
M  V30 5515 H 550.455 4.43266 3.28967 0
M  V30 5516 H 550.932 2.7423 3.43067 0
M  V30 5517 H 551.538 3.71499 2.07047 0
M  V30 5518 N 549.853 -0.472356 1.50355 0
M  V30 5519 C 551.078 -1.25251 1.65309 0
M  V30 5520 C 551.503 -1.85081 0.335643 0
M  V30 5521 O 550.861 -1.67227 -0.700335 0
M  V30 5522 C 550.909 -2.3379 2.74544 0
M  V30 5523 O 550.013 -3.38401 2.35709 0
M  V30 5524 H 549.354 -0.368539 0.552336 0
M  V30 5525 H 551.884 -0.562271 1.96722 0
M  V30 5526 H 551.894 -2.79121 2.97583 0
M  V30 5527 H 550.569 -1.89614 3.70161 0
M  V30 5528 H 549.146 -2.9879 2.23112 0
M  V30 5529 N 551.331 -1.39911 -0.725443 0
M  V30 5530 C 552.608 -1.28158 -1.47766 0
M  V30 5531 C 552.988 0.104545 -2.10841 0
M  V30 5532 O 552.336 1.11657 -1.99361 0
M  V30 5533 C 552.546 -2.41306 -2.52135 0
M  V30 5534 C 553.894 -2.81076 -3.18247 0
M  V30 5535 O 554.918 -2.40827 -2.62452 0
M  V30 5536 O 553.777 -3.50581 -4.19231 0
M  V30 5537 H 550.871 -0.502761 -0.656628 0
M  V30 5538 H 553.417 -1.51808 -0.758456 0
M  V30 5539 H 552.189 -3.33932 -2.03974 0
M  V30 5540 H 551.812 -2.19374 -3.31603 0
M  V30 5541 N 552.809 0.956637 -1.25245 0
M  V30 5542 C 554.057 1.69764 -1.09657 0
M  V30 5543 C 554.378 1.91583 0.363464 0
M  V30 5544 O 553.648 1.50149 1.25825 0
M  V30 5545 H 552.228 0.629097 -0.402798 0
M  V30 5546 H 554.89 1.15026 -1.57337 0
M  V30 5547 H 553.986 2.67769 -1.60331 0
M  V30 5548 N 554.287 1.06798 1.15896 0
M  V30 5549 C 555.515 0.808694 1.90441 0
M  V30 5550 C 555.93 -0.637506 1.77711 0
M  V30 5551 O 555.287 -1.43684 1.12522 0
M  V30 5552 C 555.338 1.20068 3.40978 0
M  V30 5553 O 555.059 2.59013 3.53333 0
M  V30 5554 C 556.56 0.96987 4.3256 0
M  V30 5555 H 553.78 0.292809 0.603742 0
M  V30 5556 H 556.324 1.42296 1.46874 0
M  V30 5557 H 554.479 0.630842 3.82229 0
M  V30 5558 H 554.893 2.7485 4.46719 0
M  V30 5559 H 556.367 1.29371 5.36626 0
M  V30 5560 H 556.844 -0.0941209 4.39099 0
M  V30 5561 H 557.45 1.52433 3.97044 0
M  V30 5562 N 555.766 -1.3263 0.851289 0
M  V30 5563 C 556.698 -2.27824 0.250757 0
M  V30 5564 C 557.711 -1.52285 -0.575598 0
M  V30 5565 O 558.9 -1.73946 -0.400638 0
M  V30 5566 C 556 -3.3232 -0.664571 0
M  V30 5567 C 555.173 -4.37221 0.125187 0
M  V30 5568 C 554.232 -5.21314 -0.715385 0
M  V30 5569 O 553.258 -5.69002 -0.150111 0
M  V30 5570 N 554.46 -5.43823 -2.03069 0
M  V30 5571 H 557.225 -2.79997 1.06873 0
M  V30 5572 H 554.786 -1.45455 0.710943 0
M  V30 5573 H 556.778 -3.85486 -1.23216 0
M  V30 5574 H 555.348 -2.80331 -1.38323 0
M  V30 5575 H 554.568 -3.84384 0.874199 0
M  V30 5576 H 555.856 -5.04399 0.667774 0
M  V30 5577 H 555.254 -5.06803 -2.51332 0
M  V30 5578 H 553.811 -5.99998 -2.54648 0
M  V30 5579 N 557.244 -0.608902 -1.45362 0
M  V30 5580 C 558.174 0.0964526 -2.33301 0
M  V30 5581 C 559.155 0.857444 -1.46908 0
M  V30 5582 O 560.34 0.827735 -1.75676 0
M  V30 5583 C 557.47 1.09354 -3.29635 0
M  V30 5584 C 556.424 0.445676 -4.25673 0
M  V30 5585 C 555.75 1.5511 -5.11708 0
M  V30 5586 C 557.05 -0.633972 -5.18438 0
M  V30 5587 H 558.744 -0.637829 -2.92527 0
M  V30 5588 H 556.29 -0.308178 -1.40664 0
M  V30 5589 H 558.243 1.59556 -3.90025 0
M  V30 5590 H 556.967 1.85843 -2.6857 0
M  V30 5591 H 555.626 -0.0354897 -3.66583 0
M  V30 5592 H 555.274 2.30631 -4.4701 0
M  V30 5593 H 554.974 1.12311 -5.76767 0
M  V30 5594 H 556.498 2.05537 -5.74967 0
M  V30 5595 H 557.912 -0.215974 -5.72893 0
M  V30 5596 H 556.309 -0.983789 -5.91981 0
M  V30 5597 H 557.379 -1.51005 -4.60788 0
M  V30 5598 N 558.722 1.53707 -0.348139 0
M  V30 5599 C 559.654 2.22725 0.540946 0
M  V30 5600 C 560.667 1.2354 1.06027 0
M  V30 5601 O 561.856 1.49867 0.96964 0
M  V30 5602 C 558.956 2.89756 1.75768 0
M  V30 5603 C 558.129 4.15297 1.37285 0
M  V30 5604 C 557.188 4.65697 2.44976 0
M  V30 5605 O 556.214 5.29798 2.08092 0
M  V30 5606 N 557.416 4.42017 3.763 0
M  V30 5607 H 560.181 2.99658 -0.0501592 0
M  V30 5608 H 557.742 1.60979 -0.17248 0
M  V30 5609 H 559.734 3.20388 2.47252 0
M  V30 5610 H 558.304 2.16382 2.25605 0
M  V30 5611 H 557.524 3.9116 0.488584 0
M  V30 5612 H 558.812 4.96948 1.09179 0
M  V30 5613 H 558.21 3.9076 4.09051 0
M  V30 5614 H 556.767 4.77242 4.4394 0
M  V30 5615 N 560.2 0.0768682 1.57412 0
M  V30 5616 C 561.13 -0.886026 2.16037 0
M  V30 5617 C 562.111 -1.30691 1.08876 0
M  V30 5618 O 563.296 -1.37705 1.36934 0
M  V30 5619 C 560.426 -2.1518 2.72608 0
M  V30 5620 C 559.38 -1.87015 3.8498 0
M  V30 5621 C 558.706 -3.20266 4.28175 0
M  V30 5622 C 560.006 -1.17143 5.08994 0
M  V30 5623 H 561.7 -0.397642 2.96748 0
M  V30 5624 H 559.246 -0.189823 1.42743 0
M  V30 5625 H 561.199 -2.82962 3.12266 0
M  V30 5626 H 559.923 -2.66269 1.89125 0
M  V30 5627 H 558.582 -1.21636 3.45833 0
M  V30 5628 H 558.23 -3.69207 3.41607 0
M  V30 5629 H 557.93 -3.0221 5.03927 0
M  V30 5630 H 559.454 -3.89237 4.70454 0
M  V30 5631 H 560.868 -1.75003 5.45937 0
M  V30 5632 H 559.265 -1.09328 5.90057 0
M  V30 5633 H 560.335 -0.151295 4.84664 0
M  V30 5634 N 561.678 -1.56367 -0.196722 0
M  V30 5635 C 562.924 -1.81698 -0.914182 0
M  V30 5636 C 563.279 -0.65367 -1.80956 0
M  V30 5637 O 562.572 0.351224 -1.88353 0
M  V30 5638 C 562.766 -3.10663 -1.767 0
M  V30 5639 C 562.595 -4.39428 -0.955689 0
M  V30 5640 C 561.365 -5.01221 -0.64076 0
M  V30 5641 C 563.563 -5.1337 -0.309165 0
M  V30 5642 N 561.545 -6.13608 0.189358 0
M  V30 5643 C 562.916 -6.18815 0.383225 0
M  V30 5644 C 564.971 -4.97393 -0.224726 0
M  V30 5645 C 563.674 -7.10015 1.15201 0
M  V30 5646 C 565.7 -5.89014 0.530658 0
M  V30 5647 C 565.062 -6.93903 1.2115 0
M  V30 5648 H 561.161 -0.716203 -0.31397 0
M  V30 5649 H 563.745 -1.93838 -0.18304 0
M  V30 5650 H 561.916 -2.99762 -2.46976 0
M  V30 5651 H 563.648 -3.24088 -2.42382 0
M  V30 5652 H 560.403 -4.63669 -0.96479 0
M  V30 5653 H 560.827 -6.74389 0.593979 0
M  V30 5654 H 565.469 -4.16331 -0.736754 0
M  V30 5655 H 563.187 -7.9054 1.67547 0
M  V30 5656 H 566.773 -5.78726 0.597326 0
M  V30 5657 H 565.653 -7.63576 1.78665 0
M  V30 5658 N 563.156 0.464375 -1.50603 0
M  V30 5659 C 564.433 1.22549 -1.5245 0
M  V30 5660 C 564.813 2.09327 -0.273035 0
M  V30 5661 O 564.161 2.16074 0.743242 0
M  V30 5662 C 564.371 2.05074 -2.82393 0
M  V30 5663 C 565.719 2.63036 -3.33313 0
M  V30 5664 O 566.743 2.1531 -2.8376 0
M  V30 5665 O 565.602 3.5001 -4.19709 0
M  V30 5666 H 562.696 0.556471 -0.611775 0
M  V30 5667 H 565.242 0.475648 -1.62898 0
M  V30 5668 H 564.014 1.41169 -3.64948 0
M  V30 5669 H 563.637 2.87179 -2.7498 0
M  V30 5670 N 564.634 1.40294 0.718013 0
M  V30 5671 C 565.874 1.39888 1.49032 0
M  V30 5672 C 566.238 -0.000462935 1.92 0
M  V30 5673 O 567.439 -0.129622 2.68487 0
M  V30 5674 C 565.71 2.35868 2.68516 0
M  V30 5675 S 567.269 2.53799 3.57954 0
M  V30 5676 H 564.087 0.495849 0.509563 0
M  V30 5677 H 566.689 1.76541 0.839846 0
M  V30 5678 H 565.393 3.36375 2.35117 0
M  V30 5679 H 564.924 2.0049 3.38478 0
M  V30 5680 H 566.939 1.78859 4.62843 0
M  V30 5681 N 566.112 -0.949982 1.2575 0
M  V30 5682 C 567.062 -2.03297 1.03221 0
M  V30 5683 C 568.046 -1.60867 -0.0324751 0
M  V30 5684 O 569.238 -1.76047 0.183423 0
M  V30 5685 C 566.367 -3.36938 0.657841 0
M  V30 5686 C 565.453 -3.85878 1.75952 0
M  V30 5687 N 565.844 -4.0756 2.99547 0
M  V30 5688 C 564.142 -4.14709 1.64111 0
M  V30 5689 C 564.843 -4.47961 3.71087 0
M  V30 5690 N 563.819 -4.5416 2.98731 0
M  V30 5691 H 567.621 -2.1806 1.97045 0
M  V30 5692 H 565.135 -1.13516 1.16138 0
M  V30 5693 H 567.132 -4.14155 0.477614 0
M  V30 5694 H 565.792 -3.2355 -0.273025 0
M  V30 5695 H 566.803 -3.94501 3.35544 0
M  V30 5696 H 563.48 -4.10158 0.779527 0
M  V30 5697 H 564.87 -4.73002 4.77199 0
M  V30 5698 N 567.59 -1.07411 -1.15328 0
M  V30 5699 C 568.815 -0.818856 -1.90551 0
M  V30 5700 C 569.24 0.622194 -1.77512 0
M  V30 5701 O 568.598 1.43484 -1.10824 0
M  V30 5702 C 568.646 -1.23267 -3.38877 0
M  V30 5703 O 567.75 -0.378345 -4.10661 0
M  V30 5704 H 567.091 -0.29827 -0.593238 0
M  V30 5705 H 569.621 -1.43289 -1.46046 0
M  V30 5706 H 569.631 -1.20912 -3.89672 0
M  V30 5707 H 568.306 -2.28226 -3.47686 0
M  V30 5708 H 566.883 -0.464437 -3.69996 0
M  V30 5709 N 569.068 1.32177 -0.85831 0
M  V30 5710 C 570.316 1.96735 -0.462568 0
M  V30 5711 C 570.637 1.6824 0.985911 0
M  V30 5712 O 569.907 0.991564 1.68952 0
M  V30 5713 H 568.487 0.727849 -0.168064 0
M  V30 5714 H 571.149 1.61195 -1.09554 0
M  V30 5715 H 570.245 3.06068 -0.610647 0
M  V30 5716 N 570.547 0.616602 1.45037 0
M  V30 5717 C 571.775 0.121968 2.0654 0
M  V30 5718 C 572.19 -1.19743 1.45969 0
M  V30 5719 O 571.547 -1.73133 0.577168 0
M  V30 5720 C 571.598 -0.0145171 3.61497 0
M  V30 5721 O 571.319 1.25269 4.19809 0
M  V30 5722 C 572.82 -0.539555 4.40004 0
M  V30 5723 H 570.04 0.0729837 0.667019 0
M  V30 5724 H 572.584 0.846891 1.8614 0
M  V30 5725 H 570.739 -0.689809 3.81209 0
M  V30 5726 H 571.153 1.08816 5.13088 0
M  V30 5727 H 572.627 -0.584112 5.48901 0
M  V30 5728 H 573.104 -1.56368 4.10421 0
M  V30 5729 H 573.71 0.101995 4.25178 0
M  V30 5730 N 572.025 -1.5352 0.356285 0
M  V30 5731 C 572.973 -2.26945 -0.50978 0
M  V30 5732 C 573.967 -1.29569 -1.09125 0
M  V30 5733 O 575.173 -1.47231 -1.03552 0
M  V30 5734 H 571.548 -0.729368 -0.183102 0
M  V30 5735 H 573.519 -2.98111 0.131374 0
M  V30 5736 C 572.268 -3.06466 -1.64237 0
M  V30 5737 H 571.591 -3.81233 -1.20423 0
M  V30 5738 H 573.031 -3.61035 -2.22327 0
M  V30 5739 C 571.49 -2.16737 -2.57928 0
M  V30 5740 O 572.02 -1.77195 -3.60507 0
M  V30 5741 N 570.226 -1.81558 -2.26903 0
M  V30 5742 H 569.773 -2.13913 -1.43524 0
M  V30 5743 H 569.731 -1.21806 -2.89846 0
M  V30 5744 N 573.503 -0.0852151 -1.57369 0
M  V30 5745 C 574.435 0.907099 -2.10486 0
M  V30 5746 C 575.448 1.25259 -1.03991 0
M  V30 5747 O 576.637 1.20743 -1.31467 0
M  V30 5748 C 573.737 2.21908 -2.56145 0
M  V30 5749 C 572.91 2.05042 -3.86363 0
M  V30 5750 C 571.969 3.19664 -4.17973 0
M  V30 5751 O 570.995 2.94062 -4.87356 0
M  V30 5752 N 572.197 4.45151 -3.72587 0
M  V30 5753 H 574.962 0.453505 -2.96249 0
M  V30 5754 H 572.523 0.100157 -1.6159 0
M  V30 5755 H 574.515 2.97519 -2.74343 0
M  V30 5756 H 573.085 2.58723 -1.75446 0
M  V30 5757 H 572.305 1.13819 -3.77411 0
M  V30 5758 H 573.593 1.91039 -4.71574 0
M  V30 5759 H 572.991 4.68834 -3.16561 0
M  V30 5760 H 571.548 5.17744 -3.9596 0
M  V30 5761 N 574.981 1.5647 0.188427 0
M  V30 5762 C 575.913 1.91611 1.25769 0
M  V30 5763 C 576.926 0.807436 1.41366 0
M  V30 5764 O 578.115 1.08586 1.41673 0
M  V30 5765 C 575.215 2.13874 2.6289 0
M  V30 5766 C 574.388 3.45047 2.68815 0
M  V30 5767 C 573.447 3.56342 3.87178 0
M  V30 5768 O 572.473 4.29109 3.73971 0
M  V30 5769 N 573.675 2.89924 5.02916 0
M  V30 5770 H 576.44 2.8393 0.959373 0
M  V30 5771 H 574.001 1.57418 0.378306 0
M  V30 5772 H 575.993 2.18713 3.4051 0
M  V30 5773 H 574.563 1.28022 2.85183 0
M  V30 5774 H 573.783 3.52017 1.77419 0
M  V30 5775 H 575.071 4.31395 2.6977 0
M  V30 5776 H 574.469 2.30644 5.16546 0
M  V30 5777 H 573.026 3.0038 5.78459 0
M  V30 5778 N 576.459 -0.456382 1.50847 0
M  V30 5779 C 577.705 -1.20618 1.63777 0
M  V30 5780 C 578.06 -1.8936 0.340677 0
M  V30 5781 O 577.353 -1.79786 -0.662378 0
M  V30 5782 C 577.547 -2.26336 2.76599 0
M  V30 5783 C 577.376 -1.67968 4.17153 0
M  V30 5784 C 576.146 -1.47293 4.83356 0
M  V30 5785 C 578.344 -1.16643 5.00898 0
M  V30 5786 N 576.326 -0.843222 6.08081 0
M  V30 5787 C 577.697 -0.660843 6.16468 0
M  V30 5788 C 579.752 -1.05637 4.86565 0
M  V30 5789 C 578.455 -0.0560365 7.19278 0
M  V30 5790 C 580.481 -0.465485 5.89565 0
M  V30 5791 C 579.843 0.0296516 7.04394 0
M  V30 5792 H 575.942 -0.429725 0.653345 0
M  V30 5793 H 578.526 -0.505784 1.88016 0
M  V30 5794 H 576.697 -2.93785 2.54056 0
M  V30 5795 H 578.429 -2.9334 2.78808 0
M  V30 5796 H 575.184 -1.72934 4.40898 0
M  V30 5797 H 575.608 -0.546357 6.74792 0
M  V30 5798 H 580.25 -1.42508 3.98059 0
M  V30 5799 H 577.968 0.324845 8.07447 0
M  V30 5800 H 581.554 -0.382493 5.80541 0
M  V30 5801 H 580.434 0.479705 7.82731 0
M  V30 5802 N 577.937 -1.40673 -0.710563 0
M  V30 5803 C 578.9 -1.4108 -1.80635 0
M  V30 5804 C 579.9 -0.303783 -1.57904 0
M  V30 5805 O 581.09 -0.562937 -1.64853 0
M  V30 5806 C 578.222 -1.20748 -3.18799 0
M  V30 5807 H 579.415 -2.38612 -1.81671 0
M  V30 5808 H 576.968 -1.26595 -0.916704 0
M  V30 5809 H 577.703 -0.239964 -3.23411 0
M  V30 5810 H 577.488 -2.00941 -3.36698 0
M  V30 5811 H 578.978 -1.23833 -3.98817 0
M  V30 5812 N 579.415 0.9433 -1.26252 0
M  V30 5813 C 580.378 2.02326 -1.07689 0
M  V30 5814 C 581.378 1.60779 -0.0259174 0
M  V30 5815 O 582.568 1.72108 -0.269134 0
M  V30 5816 C 579.7 3.34886 -0.63752 0
M  V30 5817 H 580.893 2.20225 -2.0357 0
M  V30 5818 H 578.446 1.12197 -1.08819 0
M  V30 5819 H 579.181 3.22684 0.323377 0
M  V30 5820 H 578.966 3.66393 -1.39637 0
M  V30 5821 H 580.456 4.14231 -0.529418 0
M  V30 5822 N 580.893 1.08022 1.14757 0
M  V30 5823 C 582.121 0.828847 1.89572 0
M  V30 5824 C 582.536 -0.618621 1.78377 0
M  V30 5825 O 581.893 -1.42482 1.1404 0
M  V30 5826 C 581.944 1.23677 3.39685 0
M  V30 5827 O 581.665 2.62746 3.50566 0
M  V30 5828 C 583.166 1.01569 4.31507 0
M  V30 5829 H 580.386 0.299196 0.600602 0
M  V30 5830 H 582.93 1.43846 1.45357 0
M  V30 5831 H 581.085 0.671347 3.81539 0
M  V30 5832 H 581.499 2.79573 4.43778 0
M  V30 5833 H 582.973 1.35055 5.35223 0
M  V30 5834 H 583.45 -0.0475433 4.39174 0
M  V30 5835 H 584.056 1.56636 3.95405 0
M  V30 5836 N 582.371 -1.3172 0.865308 0
M  V30 5837 C 583.648 -1.91574 0.394789 0
M  V30 5838 C 584.028 -1.78769 -1.12271 0
M  V30 5839 O 583.376 -1.19245 -1.94918 0
M  V30 5840 C 583.586 -3.37957 0.870982 0
M  V30 5841 C 584.934 -4.15073 0.894384 0
M  V30 5842 O 585.958 -3.4672 0.816325 0
M  V30 5843 O 584.817 -5.37151 1.00651 0
M  V30 5844 H 581.911 -0.818649 0.117229 0
M  V30 5845 H 584.457 -1.4042 0.952913 0
M  V30 5846 H 583.229 -3.41269 1.91444 0
M  V30 5847 H 582.852 -3.96534 0.290907 0
M  V30 5848 N 583.85 -0.624285 -1.44708 0
M  V30 5849 C 584.812 0.0749638 -2.29077 0
M  V30 5850 C 585.812 0.778965 -1.40673 0
M  V30 5851 O 587.003 0.624591 -1.62618 0
M  V30 5852 C 584.135 1.11663 -3.22094 0
M  V30 5853 H 585.327 -0.667013 -2.92388 0
M  V30 5854 H 582.88 -0.384098 -1.51507 0
M  V30 5855 H 583.615 1.88881 -2.63618 0
M  V30 5856 H 583.401 0.61583 -3.87234 0
M  V30 5857 H 584.891 1.60585 -3.8549 0
M  V30 5858 N 585.328 1.53329 -0.364422 0
M  V30 5859 C 586.576 2.00842 0.225189 0
M  V30 5860 C 586.897 1.25345 1.49378 0
M  V30 5861 O 586.167 0.366396 1.92443 0
M  V30 5862 H 584.747 0.742009 0.0862027 0
M  V30 5863 H 587.409 1.8863 -0.490389 0
M  V30 5864 H 586.505 3.08795 0.452987 0
M  V30 5865 N 586.806 0.0935595 1.57322 0
M  V30 5866 C 587.716 -0.880192 2.17462 0
M  V30 5867 C 588.732 -1.31135 1.14366 0
M  V30 5868 O 589.908 -1.37958 1.46729 0
M  V30 5869 C 586.973 -2.12184 2.74188 0
M  V30 5870 C 586.034 -1.74503 3.92234 0
M  V30 5871 C 585.267 -2.92748 4.46245 0
M  V30 5872 O 585.49 -4.07427 3.99198 0
M  V30 5873 O 584.424 -2.71303 5.37288 0
M  V30 5874 H 588.25 -0.398516 3.01074 0
M  V30 5875 H 585.835 -0.130707 1.48827 0
M  V30 5876 H 587.717 -2.84953 3.10451 0
M  V30 5877 H 586.392 -2.59407 1.93623 0
M  V30 5878 H 585.299 -0.989186 3.60785 0
M  V30 5879 H 586.632 -1.32044 4.74157 0
M  V30 5880 N 588.284 -1.56567 -0.180126 0
M  V30 5881 C 589.214 -1.98753 -1.22553 0
M  V30 5882 C 590.195 -0.86175 -1.46656 0
M  V30 5883 O 591.38 -1.12719 -1.58139 0
M  V30 5884 C 588.51 -2.33988 -2.56645 0
M  V30 5885 C 587.464 -3.49445 -2.47128 0
M  V30 5886 C 586.79 -3.70397 -3.8563 0
M  V30 5887 C 588.09 -4.83171 -1.98352 0
M  V30 5888 H 589.784 -2.86332 -0.874896 0
M  V30 5889 H 587.33 -1.37757 -0.419414 0
M  V30 5890 H 589.283 -2.62097 -3.29974 0
M  V30 5891 H 588.007 -1.43309 -2.93479 0
M  V30 5892 H 586.666 -3.2145 -1.76254 0
M  V30 5893 H 586.314 -2.77023 -4.19842 0
M  V30 5894 H 586.014 -4.48077 -3.80132 0
M  V30 5895 H 587.538 -4.00897 -4.60558 0
M  V30 5896 H 588.952 -5.10213 -2.61449 0
M  V30 5897 H 587.349 -5.64425 -2.03823 0
M  V30 5898 H 588.419 -4.75753 -0.937402 0
M  V30 5899 N 589.762 0.448376 -1.51087 0
M  V30 5900 C 591.178 0.783984 -1.39017 0
M  V30 5901 C 591.378 1.96087 -0.463904 0
M  V30 5902 O 590.434 2.52357 0.0850534 0
M  V30 5903 C 591.747 1.07471 -2.80839 0
M  V30 5904 C 593.295 1.17981 -2.89913 0
M  V30 5905 C 593.77 1.50354 -4.32617 0
M  V30 5906 N 595.261 1.57301 -4.35673 0
M  V30 5907 C 595.996 1.839 -5.4311 0
M  V30 5908 N 595.492 2.08365 -6.60724 0
M  V30 5909 N 597.285 1.8559 -5.30578 0
M  V30 5910 H 589.436 -0.326881 -2.0987 0
M  V30 5911 H 591.699 -0.0838006 -0.944289 0
M  V30 5912 H 591.405 0.282768 -3.50561 0
M  V30 5913 H 591.279 2.00519 -3.19487 0
M  V30 5914 H 593.666 1.9624 -2.20395 0
M  V30 5915 H 593.747 0.228603 -2.54776 0
M  V30 5916 H 593.391 0.726273 -5.0268 0
M  V30 5917 H 593.321 2.46663 -4.65258 0
M  V30 5918 H 595.812 1.40342 -3.50874 0
M  V30 5919 H 596.125 2.27999 -7.38401 0
M  V30 5920 H 594.47 2.0571 -6.63859 0
M  V30 5921 H 597.661 1.65989 -4.37682 0
M  V30 5922 H 597.834 2.05983 -6.1439 0
M  V30 5923 N 591.24 1.41047 0.703093 0
M  V30 5924 C 592.486 1.40207 1.46526 0
M  V30 5925 C 592.819 0.00847763 1.94198 0
M  V30 5926 O 592.094 -0.962437 1.69019 0
M  V30 5927 C 592.377 2.40238 2.6825 0
M  V30 5928 C 592.23 3.88674 2.26391 0
M  V30 5929 C 593.549 2.37627 3.70434 0
M  V30 5930 H 590.668 0.510594 0.531472 0
M  V30 5931 H 593.31 1.72271 0.801422 0
M  V30 5932 H 591.46 2.13026 3.24888 0
M  V30 5933 H 593.132 4.2676 1.75138 0
M  V30 5934 H 591.375 4.03903 1.58255 0
M  V30 5935 H 592.046 4.542 3.13698 0
M  V30 5936 H 594.522 2.61759 3.23452 0
M  V30 5937 H 593.398 3.09645 4.53223 0
M  V30 5938 H 593.659 1.39223 4.19606 0
M  V30 5939 N 592.718 -0.936591 1.26751 0
M  V30 5940 C 593.948 -1.71509 1.15188 0
M  V30 5941 C 594.356 -1.86885 -0.295037 0
M  V30 5942 O 593.699 -1.37915 -1.21347 0
M  V30 5943 C 593.761 -3.13853 1.75318 0
M  V30 5944 C 593.425 -3.21845 3.24445 0
M  V30 5945 C 594.422 -3.04771 4.21201 0
M  V30 5946 C 592.107 -3.45088 3.64992 0
M  V30 5947 C 594.101 -3.10816 5.56482 0
M  V30 5948 C 591.788 -3.50767 5.00405 0
M  V30 5949 C 592.786 -3.33648 5.9596 0
M  V30 5950 O 592.474 -3.39045 7.28906 0
M  V30 5951 H 592.206 -0.543658 0.401761 0
M  V30 5952 H 594.76 -1.18234 1.67958 0
M  V30 5953 H 592.99 -3.6857 1.17016 0
M  V30 5954 H 594.679 -3.73634 1.58596 0
M  V30 5955 H 595.445 -2.86665 3.91214 0
M  V30 5956 H 591.324 -3.57467 2.91098 0
M  V30 5957 H 594.868 -2.97372 6.31043 0
M  V30 5958 H 590.765 -3.68396 5.30052 0
M  V30 5959 H 591.533 -3.55558 7.37238 0
M  V30 5960 N 594.196 -1.08629 -1.14182 0
M  V30 5961 C 595.444 -0.815731 -1.84906 0
M  V30 5962 C 595.765 0.660441 -1.83475 0
M  V30 5963 O 595.035 1.47888 -1.28476 0
M  V30 5964 H 593.615 -0.298773 -0.684648 0
M  V30 5965 H 596.277 -1.37274 -1.38354 0
M  V30 5966 H 595.373 -1.16193 -2.89665 0
M  V30 5967 N 595.674 1.31259 -0.872281 0
M  V30 5968 C 596.951 1.91362 -0.404943 0
M  V30 5969 C 597.331 1.79362 1.11321 0
M  V30 5970 O 596.679 1.20277 1.94283 0
M  V30 5971 C 596.889 3.3749 -0.888893 0
M  V30 5972 C 598.237 4.14593 -0.916384 0
M  V30 5973 O 599.261 3.46282 -0.834701 0
M  V30 5974 O 598.12 5.3661 -1.03498 0
M  V30 5975 H 595.214 0.818016 -0.121569 0
M  V30 5976 H 597.76 1.39912 -0.960346 0
M  V30 5977 H 596.532 3.40249 -1.93251 0
M  V30 5978 H 596.155 3.96375 -0.311932 0
M  V30 5979 N 597.152 0.631951 1.44375 0
M  V30 5980 C 598.099 -0.0724807 2.30686 0
M  V30 5981 C 599.069 -0.835975 1.43529 0
M  V30 5982 O 600.254 -0.816849 1.7243 0
M  V30 5983 C 597.394 -1.04753 3.28817 0
M  V30 5984 C 596.507 -0.282367 4.31076 0
M  V30 5985 C 595.642 -1.2493 5.163 0
M  V30 5986 C 594.681 -0.473349 6.10267 0
M  V30 5987 N 593.818 -1.39079 6.88187 0
M  V30 5988 H 598.658 0.669477 2.90383 0
M  V30 5989 H 596.195 0.341927 1.43071 0
M  V30 5990 H 598.153 -1.62623 3.842 0
M  V30 5991 H 596.783 -1.75661 2.70819 0
M  V30 5992 H 595.835 0.412268 3.78159 0
M  V30 5993 H 597.147 0.321955 4.9776 0
M  V30 5994 H 596.301 -1.89931 5.76204 0
M  V30 5995 H 595.04 -1.88755 4.49692 0
M  V30 5996 H 594.045 0.190142 5.49471 0
M  V30 5997 H 595.27 0.16019 6.78911 0
M  V30 5998 H 593.216 -2.01623 6.24247 0
M  V30 5999 H 593.133 -0.840513 7.51313 0
M  V30 6000 H 594.401 -2.02961 7.52613 0
M  V30 6001 N 598.631 -1.53133 0.372548 0
M  V30 6002 C 599.871 -2.03267 -0.214943 0
M  V30 6003 C 600.235 -1.25362 -1.45425 0
M  V30 6004 O 601.436 -1.65536 -2.11781 0
M  V30 6005 C 599.707 -3.53985 -0.492897 0
M  V30 6006 S 601.266 -4.25977 -1.05307 0
M  V30 6007 H 598.084 -0.708289 -0.062029 0
M  V30 6008 H 600.686 -1.88539 0.517025 0
M  V30 6009 H 599.39 -4.08282 0.416442 0
M  V30 6010 H 598.921 -3.72887 -1.25375 0
M  V30 6011 H 600.936 -4.37731 -2.33679 0
M  V30 6012 N 600.109 -0.101901 -1.5727 0
M  V30 6013 C 601.039 0.851544 -2.17419 0
M  V30 6014 C 602.02 1.28942 -1.10941 0
M  V30 6015 O 603.205 1.35509 -1.39107 0
M  V30 6016 C 600.335 2.10816 -2.75996 0
M  V30 6017 C 599.289 1.80867 -3.87906 0
M  V30 6018 C 598.615 3.13413 -4.33216 0
M  V30 6019 C 599.915 1.0903 -5.10793 0
M  V30 6020 H 601.609 0.350381 -2.97343 0
M  V30 6021 H 599.155 0.16709 -1.43027 0
M  V30 6022 H 601.108 2.77959 -3.16729 0
M  V30 6023 H 599.832 2.63227 -1.93337 0
M  V30 6024 H 598.491 1.16119 -3.47724 0
M  V30 6025 H 598.139 3.63725 -3.47438 0
M  V30 6026 H 597.839 2.94155 -5.08671 0
M  V30 6027 H 599.363 3.81704 -4.76586 0
M  V30 6028 H 600.777 1.66295 -5.48652 0
M  V30 6029 H 599.174 0.99927 -5.91722 0
M  V30 6030 H 600.244 0.0741704 -4.84843 0
M  V30 6031 N 601.587 1.56661 0.17182 0
M  V30 6032 C 602.864 1.72838 0.915778 0
M  V30 6033 C 603.244 0.66316 2.00413 0
M  V30 6034 O 602.592 -0.322123 2.26218 0
M  V30 6035 C 602.802 3.16019 1.48097 0
M  V30 6036 C 604.15 3.76962 1.95408 0
M  V30 6037 O 605.174 3.19294 1.57892 0
M  V30 6038 O 604.033 4.78219 2.64516 0
M  V30 6039 H 601.127 0.705797 0.431021 0
M  V30 6040 H 603.673 1.68947 0.159689 0
M  V30 6041 H 602.445 3.85031 0.697618 0
M  V30 6042 H 602.068 3.24234 2.30126 0
M  V30 6043 N 603.065 -0.440357 1.51323 0
M  V30 6044 C 604.028 -1.51679 1.71832 0
M  V30 6045 C 605.028 -1.49648 0.588386 0
M  V30 6046 O 606.218 -1.51724 0.855891 0
M  V30 6047 C 603.35 -2.91228 1.77199 0
M  V30 6048 H 604.543 -1.34799 2.67898 0
M  V30 6049 H 602.096 -0.66883 1.41267 0
M  V30 6050 H 602.831 -3.13516 0.829363 0
M  V30 6051 H 602.616 -2.94107 2.59314 0
M  V30 6052 H 604.106 -3.69321 1.94915 0
M  V30 6053 N 604.543 -1.41418 -0.695603 0
M  V30 6054 C 605.506 -1.42988 -1.79129 0
M  V30 6055 C 606.506 -0.320514 -1.57573 0
M  V30 6056 O 607.696 -0.58039 -1.64247 0
M  V30 6057 C 604.828 -1.24122 -3.175 0
M  V30 6058 H 606.021 -2.40526 -1.7913 0
M  V30 6059 H 603.574 -1.2756 -0.903225 0
M  V30 6060 H 604.309 -0.274253 -3.23138 0
M  V30 6061 H 604.094 -2.045 -3.34547 0
M  V30 6062 H 605.584 -1.28056 -3.97481 0
M  V30 6063 N 606.021 0.929856 -1.27246 0
M  V30 6064 C 607.269 1.674 -1.13233 0
M  V30 6065 C 607.59 1.92311 0.322744 0
M  V30 6066 O 606.86 1.52784 1.22612 0
M  V30 6067 H 605.44 0.620411 -0.416052 0
M  V30 6068 H 608.102 1.11663 -1.59741 0
M  V30 6069 H 607.198 2.64308 -1.65975 0
M  V30 6070 N 607.499 1.09233 1.13605 0
M  V30 6071 C 608.727 0.848908 1.88683 0
M  V30 6072 C 609.142 -0.599667 1.79024 0
M  V30 6073 O 608.499 -1.41265 1.15544 0
M  V30 6074 C 608.55 1.27273 3.38355 0
M  V30 6075 O 608.271 2.66449 3.47759 0
M  V30 6076 C 609.772 1.0614 4.30406 0
M  V30 6077 H 606.992 0.305549 0.597395 0
M  V30 6078 H 609.536 1.4538 1.43823 0
M  V30 6079 H 607.691 0.711776 3.80805 0
M  V30 6080 H 608.105 2.84264 4.40788 0
M  V30 6081 H 609.579 1.40725 5.33761 0
M  V30 6082 H 610.056 -0.000960332 4.392 0
M  V30 6083 H 610.662 1.60821 3.93722 0
M  V30 6084 N 608.977 -1.30795 0.87923 0
M  V30 6085 C 610.202 -2.01063 0.508769 0
M  V30 6086 C 610.627 -1.65508 -0.893803 0
M  V30 6087 O 609.985 -0.868616 -1.59138 0
M  V30 6088 C 610.033 -3.54054 0.683991 0
M  V30 6089 O 609.137 -4.11498 -0.272654 0
M  V30 6090 H 608.478 -0.632786 0.201191 0
M  V30 6091 H 611.008 -1.66776 1.18519 0
M  V30 6092 H 611.018 -4.03845 0.580798 0
M  V30 6093 H 609.693 -3.79271 1.70665 0
M  V30 6094 H 608.27 -3.72695 -0.12364 0
M  V30 6095 N 610.455 -0.639598 -1.44038 0
M  V30 6096 C 611.403 0.0723409 -2.32487 0
M  V30 6097 C 612.397 0.827129 -1.47834 0
M  V30 6098 O 613.603 0.73907 -1.64127 0
M  V30 6099 H 609.978 0.0421696 -0.750817 0
M  V30 6100 H 611.949 -0.691593 -2.90275 0
M  V30 6101 C 610.698 1.03452 -3.31953 0
M  V30 6102 H 610.021 0.46315 -3.97108 0
M  V30 6103 H 611.461 1.502 -3.96505 0
M  V30 6104 C 609.92 2.12392 -2.61518 0
M  V30 6105 O 610.45 3.2059 -2.42044 0
M  V30 6106 N 608.656 1.88563 -2.21116 0
M  V30 6107 H 608.203 1.00577 -2.37154 0
M  V30 6108 H 608.161 2.61651 -1.74316 0
M  V30 6109 N 611.933 1.52934 -0.380664 0
M  V30 6110 C 613.181 2.01069 0.203874 0
M  V30 6111 C 613.502 1.26922 1.4804 0
M  V30 6112 O 612.772 0.386787 1.92044 0
M  V30 6113 H 611.352 0.742882 0.0783279 0
M  V30 6114 H 614.014 1.88099 -0.510368 0
M  V30 6115 H 613.11 3.09258 0.42021 0
M  V30 6116 N 613.412 0.11024 1.57214 0
M  V30 6117 C 614.637 -0.561179 1.99664 0
M  V30 6118 C 615.062 -1.59985 0.989266 0
M  V30 6119 O 614.42 -1.81255 -0.0402399 0
M  V30 6120 C 614.468 -1.17189 3.41027 0
M  V30 6121 O 613.572 -2.28755 3.4314 0
M  V30 6122 H 612.913 -0.14101 0.648855 0
M  V30 6123 H 615.443 0.196128 2.03658 0
M  V30 6124 H 615.453 -1.50954 3.79047 0
M  V30 6125 H 614.128 -0.411041 4.13864 0
M  V30 6126 H 612.705 -1.96495 3.16929 0
M  V30 6127 N 614.89 -1.56749 -0.16351 0
M  V30 6128 C 615.837 -1.97011 -1.2023 0
M  V30 6129 C 616.807 -0.835186 -1.43575 0
M  V30 6130 O 617.992 -1.09594 -1.56185 0
M  V30 6131 C 615.132 -2.34186 -2.53478 0
M  V30 6132 C 614.245 -3.60893 -2.37446 0
M  V30 6133 C 613.38 -3.87245 -3.63614 0
M  V30 6134 C 612.419 -5.07274 -3.42548 0
M  V30 6135 N 611.556 -5.29719 -4.60806 0
M  V30 6136 H 616.396 -2.85562 -0.851958 0
M  V30 6137 H 613.933 -1.41292 -0.409257 0
M  V30 6138 H 615.891 -2.53764 -3.31149 0
M  V30 6139 H 614.521 -1.48736 -2.86492 0
M  V30 6140 H 613.573 -3.49185 -1.50911 0
M  V30 6141 H 614.885 -4.48722 -2.1783 0
M  V30 6142 H 614.039 -4.07232 -4.49719 0
M  V30 6143 H 612.778 -2.97806 -3.86216 0
M  V30 6144 H 611.783 -4.87177 -2.5483 0
M  V30 6145 H 613.008 -5.98251 -3.2136 0
M  V30 6146 H 610.954 -4.43233 -4.83612 0
M  V30 6147 H 610.871 -6.11786 -4.44132 0
M  V30 6148 H 612.139 -5.54192 -5.48171 0
M  V30 6149 N 616.368 0.432326 -1.51554 0
M  V30 6150 C 617.614 1.18309 -1.64714 0
M  V30 6151 C 617.947 1.90745 -0.364696 0
M  V30 6152 O 617.222 1.8381 0.635936 0
M  V30 6153 C 617.505 2.1961 -2.85383 0
M  V30 6154 C 617.358 1.51223 -4.23617 0
M  V30 6155 C 618.677 3.20538 -3.01569 0
M  V30 6156 H 615.796 0.428751 -0.599451 0
M  V30 6157 H 618.438 0.471689 -1.84052 0
M  V30 6158 H 616.588 2.8028 -2.69027 0
M  V30 6159 H 618.26 0.938516 -4.51652 0
M  V30 6160 H 616.503 0.814501 -4.26085 0
M  V30 6161 H 617.174 2.25024 -5.04052 0
M  V30 6162 H 619.65 2.69926 -3.16669 0
M  V30 6163 H 618.526 3.88706 -3.87555 0
M  V30 6164 H 618.787 3.86933 -2.13859 0
M  V30 6165 N 617.846 1.41785 0.688094 0
M  V30 6166 C 618.778 1.40159 1.81351 0
M  V30 6167 C 619.791 0.30262 1.59963 0
M  V30 6168 O 620.98 0.564841 1.69327 0
M  V30 6169 C 618.08 1.16517 3.1824 0
M  V30 6170 C 617.253 2.38597 3.66593 0
M  V30 6171 C 616.312 2.10699 4.82174 0
M  V30 6172 O 615.338 2.83798 4.93404 0
M  V30 6173 N 616.54 1.10187 5.69947 0
M  V30 6174 H 619.305 2.3716 1.83236 0
M  V30 6175 H 616.866 1.36494 0.870697 0
M  V30 6176 H 618.858 0.957941 3.93199 0
M  V30 6177 H 617.428 0.280873 3.11336 0
M  V30 6178 H 616.648 2.74974 2.82459 0
M  V30 6179 H 617.936 3.19919 3.95638 0
M  V30 6180 H 617.334 0.497016 5.63512 0
M  V30 6181 H 615.891 0.954518 6.44773 0
M  V30 6182 N 619.324 -0.923095 1.27737 0
M  V30 6183 C 620.573 -1.66581 1.13727 0
M  V30 6184 C 620.886 -1.9304 -0.315433 0
M  V30 6185 O 622.092 -2.65309 -0.57651 0
M  V30 6186 C 620.548 -3.00047 1.98745 0
M  V30 6187 C 620.156 -2.8127 3.48699 0
M  V30 6188 C 621.9 -3.77887 1.93395 0
M  V30 6189 C 619.807 -4.1032 4.25901 0
M  V30 6190 H 618.737 -0.624834 0.422017 0
M  V30 6191 H 621.388 -1.02514 1.52194 0
M  V30 6192 H 619.77 -3.65197 1.53125 0
M  V30 6193 H 620.944 -2.24859 4.02213 0
M  V30 6194 H 619.259 -2.16854 3.55476 0
M  V30 6195 H 621.856 -4.73526 2.48348 0
M  V30 6196 H 622.199 -4.06264 0.908605 0
M  V30 6197 H 622.732 -3.19541 2.36935 0
M  V30 6198 H 619.471 -3.8712 5.28978 0
M  V30 6199 H 618.991 -4.66377 3.77163 0
M  V30 6200 H 620.67 -4.78648 4.35321 0
M  V30 6201 N 620.802 -1.09834 -1.13024 0
M  V30 6202 C 622.032 -0.857657 -1.87957 0
M  V30 6203 C 622.44 0.595008 -1.796 0
M  V30 6204 O 621.783 1.42158 -1.16347 0
M  V30 6205 C 621.845 -1.21949 -3.38185 0
M  V30 6206 C 621.509 -2.67791 -3.7032 0
M  V30 6207 C 622.506 -3.66036 -3.69207 0
M  V30 6208 C 620.191 -3.04019 -3.99847 0
M  V30 6209 C 622.185 -4.98533 -3.9717 0
M  V30 6210 C 619.872 -4.36706 -4.27471 0
M  V30 6211 C 620.87 -5.33772 -4.26118 0
M  V30 6212 O 620.558 -6.64072 -4.53061 0
M  V30 6213 H 620.29 -0.308009 -0.601753 0
M  V30 6214 H 622.844 -1.46496 -1.43973 0
M  V30 6215 H 621.074 -0.555249 -3.82693 0
M  V30 6216 H 622.763 -0.957281 -3.9445 0
M  V30 6217 H 623.529 -3.39392 -3.46465 0
M  V30 6218 H 619.408 -2.29096 -4.00045 0
M  V30 6219 H 622.952 -5.74288 -3.96029 0
M  V30 6220 H 618.849 -4.63091 -4.49685 0
M  V30 6221 H 619.617 -6.69608 -4.7071 0
M  V30 6222 N 622.28 1.30327 -0.886154 0
M  V30 6223 C 623.505 2.0079 -0.519425 0
M  V30 6224 C 623.93 1.65979 0.885013 0
M  V30 6225 O 623.288 0.877043 1.58675 0
M  V30 6226 C 623.336 3.53686 -0.702758 0
M  V30 6227 O 622.44 4.11637 0.250828 0
M  V30 6228 H 621.781 0.63171 -0.204544 0
M  V30 6229 H 624.311 1.66145 -1.19402 0
M  V30 6230 H 624.321 4.03531 -0.602207 0
M  V30 6231 H 622.996 3.78361 -1.72673 0
M  V30 6232 H 621.573 3.72755 0.103873 0
M  V30 6233 N 623.758 0.647228 1.43697 0
M  V30 6234 C 624.998 0.16171 2.03759 0
M  V30 6235 C 625.362 -1.19951 1.49919 0
M  V30 6236 O 626.563 -1.77808 2.01588 0
M  V30 6237 C 624.834 0.16505 3.57019 0
M  V30 6238 S 626.393 -0.253497 4.38067 0
M  V30 6239 H 623.211 0.0689985 0.707644 0
M  V30 6240 H 625.813 0.854224 1.7585 0
M  V30 6241 H 624.517 1.15858 3.93707 0
M  V30 6242 H 624.048 -0.548194 3.89562 0
M  V30 6243 H 626.063 -1.49385 4.73179 0
M  V30 6244 N 625.236 -1.5273 0.388769 0
M  V30 6245 C 626.482 -2.02545 -0.186351 0
M  V30 6246 C 626.837 -1.27017 -1.44514 0
M  V30 6247 O 626.13 -0.361948 -1.8815 0
M  V30 6248 C 626.324 -3.53765 -0.508445 0
M  V30 6249 C 626.153 -4.43938 0.71758 0
M  V30 6250 C 624.923 -4.89933 1.23668 0
M  V30 6251 C 627.121 -4.89113 1.58974 0
M  V30 6252 N 625.103 -5.64176 2.42031 0
M  V30 6253 C 626.474 -5.61931 2.61979 0
M  V30 6254 C 628.529 -4.71155 1.60989 0
M  V30 6255 C 627.232 -6.18698 3.66886 0
M  V30 6256 C 629.258 -5.28804 2.64803 0
M  V30 6257 C 628.62 -6.01527 3.6653 0
M  V30 6258 H 624.719 -0.781413 -0.0302921 0
M  V30 6259 H 627.303 -1.87104 0.538539 0
M  V30 6260 H 625.474 -3.6932 -1.20239 0
M  V30 6261 H 627.206 -3.9028 -1.07067 0
M  V30 6262 H 623.961 -4.66833 0.797763 0
M  V30 6263 H 624.385 -6.05949 3.01919 0
M  V30 6264 H 629.027 -4.14435 0.836881 0
M  V30 6265 H 626.745 -6.74501 4.45055 0
M  V30 6266 H 630.331 -5.1679 2.67245 0
M  V30 6267 H 629.211 -6.45339 4.45542 0
M  V30 6268 N 626.714 -0.118576 -1.57153 0
M  V30 6269 C 627.962 0.538461 -1.94795 0
M  V30 6270 C 628.283 1.67243 -1.00274 0
M  V30 6271 O 627.553 1.95811 -0.0589692 0
M  V30 6272 H 626.133 0.201904 -0.719197 0
M  V30 6273 H 628.795 -0.187418 -1.93997 0
M  V30 6274 H 627.891 0.933315 -2.97818 0
M  V30 6275 N 628.193 1.56834 0.155195 0
M  V30 6276 C 629.441 1.82536 0.867462 0
M  V30 6277 C 629.762 0.698168 1.82073 0
M  V30 6278 O 629.032 -0.280807 1.93877 0
M  V30 6279 H 627.612 0.673401 0.323327 0
M  V30 6280 H 630.274 1.94313 0.151156 0
M  V30 6281 H 629.37 2.77171 1.43466 0
M  V30 6282 N 629.671 -0.424282 1.51781 0
M  V30 6283 C 630.948 -1.18464 1.55646 0
M  V30 6284 C 631.328 -2.08529 0.328438 0
M  V30 6285 O 630.676 -2.17969 -0.685693 0
M  V30 6286 C 630.886 -1.97514 2.87731 0
M  V30 6287 C 632.234 -2.54106 3.40169 0
M  V30 6288 O 633.258 -2.07711 2.89369 0
M  V30 6289 O 632.117 -3.38759 4.28841 0
M  V30 6290 H 629.211 -0.540055 0.626314 0
M  V30 6291 H 631.757 -0.432291 1.64102 0
M  V30 6292 H 630.529 -1.31444 3.68562 0
M  V30 6293 H 630.152 -2.79787 2.82498 0
M  V30 6294 N 631.149 -1.42148 -0.680565 0
M  V30 6295 C 632.097 -1.45401 -1.81552 0
M  V30 6296 C 633.091 -0.33036 -1.66147 0
M  V30 6297 O 634.297 -0.503103 -1.72826 0
M  V30 6298 H 630.672 -0.455265 -0.59853 0
M  V30 6299 H 632.643 -2.41024 -1.75926 0
M  V30 6300 C 631.392 -1.36769 -3.19671 0
M  V30 6301 H 630.715 -2.22525 -3.32149 0
M  V30 6302 H 632.155 -1.43106 -3.9912 0
M  V30 6303 C 630.614 -0.0817752 -3.36801 0
M  V30 6304 O 631.144 0.867707 -3.92216 0
M  V30 6305 N 629.35 -0.000799811 -2.906 0
M  V30 6306 H 628.897 -0.774231 -2.4569 0
M  V30 6307 H 628.855 0.858961 -3.02439 0
M  V30 6308 N 632.627 0.916307 -1.28225 0
M  V30 6309 C 633.559 2.02303 -1.07732 0
M  V30 6310 C 634.572 1.62773 -0.0298421 0
M  V30 6311 O 635.761 1.76406 -0.272626 0
M  V30 6312 C 632.861 3.33282 -0.614504 0
M  V30 6313 C 632.034 4.01439 -1.73682 0
M  V30 6314 C 631.093 5.10698 -1.26781 0
M  V30 6315 O 630.119 5.34038 -1.96958 0
M  V30 6316 N 631.321 5.80355 -0.129624 0
M  V30 6317 H 634.086 2.20442 -2.03041 0
M  V30 6318 H 631.647 1.08744 -1.19943 0
M  V30 6319 H 633.639 4.03699 -0.284397 0
M  V30 6320 H 632.209 3.11633 0.245664 0
M  V30 6321 H 631.429 3.24604 -2.23665 0
M  V30 6322 H 632.717 4.43721 -2.48976 0
M  V30 6323 H 632.115 5.6386 0.455847 0
M  V30 6324 H 630.672 6.51647 0.141224 0
M  V30 6325 N 634.105 1.10431 1.1244 0
M  V30 6326 C 635.052 0.753103 2.18167 0
M  V30 6327 C 636.022 -0.270549 1.63882 0
M  V30 6328 O 637.207 -0.149837 1.90211 0
M  V30 6329 C 634.347 0.191046 3.44571 0
M  V30 6330 C 633.46 1.26999 4.12911 0
M  V30 6331 C 632.595 0.669586 5.26963 0
M  V30 6332 C 631.634 1.72912 5.87169 0
M  V30 6333 N 630.771 1.14898 6.92635 0
M  V30 6334 H 635.611 1.65892 2.47556 0
M  V30 6335 H 633.148 0.828631 1.21541 0
M  V30 6336 H 635.106 -0.152712 4.1692 0
M  V30 6337 H 633.736 -0.677997 3.15599 0
M  V30 6338 H 632.788 1.73087 3.3874 0
M  V30 6339 H 634.1 2.07204 4.53727 0
M  V30 6340 H 633.254 0.275274 6.06075 0
M  V30 6341 H 631.993 -0.163895 4.87425 0
M  V30 6342 H 630.998 2.13286 5.06744 0
M  V30 6343 H 632.223 2.56544 6.28778 0
M  V30 6344 H 630.169 0.336956 6.55134 0
M  V30 6345 H 630.086 1.88786 7.32049 0
M  V30 6346 H 631.354 0.78121 7.75576 0
M  V30 6347 N 635.583 -1.29855 0.893053 0
M  V30 6348 C 636.829 -1.96488 0.52574 0
M  V30 6349 C 637.184 -1.69164 -0.916594 0
M  V30 6350 O 636.477 -0.990405 -1.64017 0
M  V30 6351 C 636.671 -3.49515 0.746588 0
M  V30 6352 C 636.5 -3.91715 2.20884 0
M  V30 6353 C 635.27 -4.16915 2.85499 0
M  V30 6354 C 637.468 -4.03934 3.18342 0
M  V30 6355 N 635.45 -4.45634 4.22236 0
M  V30 6356 C 636.821 -4.36629 4.40176 0
M  V30 6357 C 638.876 -3.86387 3.14021 0
M  V30 6358 C 637.579 -4.53605 5.58243 0
M  V30 6359 C 639.605 -4.04569 4.31367 0
M  V30 6360 C 638.967 -4.37617 5.5197 0
M  V30 6361 H 635.066 -0.743657 0.241863 0
M  V30 6362 H 637.65 -1.56927 1.15248 0
M  V30 6363 H 635.821 -3.88113 0.149281 0
M  V30 6364 H 637.553 -4.03224 0.345372 0
M  V30 6365 H 634.308 -4.10423 2.36326 0
M  V30 6366 H 634.732 -4.64114 4.92876 0
M  V30 6367 H 639.374 -3.59906 2.21873 0
M  V30 6368 H 637.092 -4.78925 6.50889 0
M  V30 6369 H 640.678 -3.92452 4.29503 0
M  V30 6370 H 639.558 -4.51395 6.41258 0
M  V30 6371 N 637.061 -0.65484 -1.43351 0
M  V30 6372 C 638.477 -0.32255 -1.56307 0
M  V30 6373 C 638.677 1.17324 -1.63821 0
M  V30 6374 O 637.733 1.95813 -1.59417 0
M  V30 6375 C 639.046 -1.03533 -2.82314 0
M  V30 6376 C 640.594 -1.01574 -2.9606 0
M  V30 6377 C 641.069 -1.70945 -4.24902 0
M  V30 6378 N 642.56 -1.67716 -4.3177 0
M  V30 6379 C 643.295 -2.18265 -5.30234 0
M  V30 6380 N 642.791 -2.7711 -6.34966 0
M  V30 6381 N 644.584 -2.08756 -5.21898 0
M  V30 6382 H 636.735 -1.62549 -1.36717 0
M  V30 6383 H 638.998 -0.683676 -0.656727 0
M  V30 6384 H 638.704 -2.09045 -2.8283 0
M  V30 6385 H 638.578 -0.587913 -3.7259 0
M  V30 6386 H 640.965 0.0309834 -2.95084 0
M  V30 6387 H 641.046 -1.50186 -2.07069 0
M  V30 6388 H 640.69 -2.75574 -4.26639 0
M  V30 6389 H 640.62 -1.19797 -5.12793 0
M  V30 6390 H 643.111 -1.24777 -3.56706 0
M  V30 6391 H 643.424 -3.13353 -7.06421 0
M  V30 6392 H 641.769 -2.81171 -6.35585 0
M  V30 6393 H 644.96 -1.62488 -4.38994 0
M  V30 6394 H 645.133 -2.48459 -5.98475 0
M  V30 6395 N 638.539 1.52521 -0.396863 0
M  V30 6396 C 639.469 2.29582 0.425941 0
M  V30 6397 C 640.45 1.33281 1.05689 0
M  V30 6398 O 641.635 1.62181 1.06823 0
M  V30 6399 C 638.765 3.10821 1.54943 0
M  V30 6400 C 637.719 4.15069 1.04413 0
M  V30 6401 C 637.045 4.84578 2.26028 0
M  V30 6402 C 638.345 5.22191 0.106767 0
M  V30 6403 H 640.039 2.98612 -0.217045 0
M  V30 6404 H 637.585 1.43611 -0.105826 0
M  V30 6405 H 639.538 3.63492 2.13193 0
M  V30 6406 H 638.262 2.39538 2.22011 0
M  V30 6407 H 636.921 3.63389 0.484118 0
M  V30 6408 H 636.569 4.09835 2.91623 0
M  V30 6409 H 636.269 5.55043 1.92876 0
M  V30 6410 H 637.793 5.40056 2.84906 0
M  V30 6411 H 639.207 5.70176 0.597685 0
M  V30 6412 H 637.604 5.99947 -0.135352 0
M  V30 6413 H 638.674 4.77531 -0.842134 0
M  V30 6414 N 640.017 0.126909 1.57088 0
M  V30 6415 C 640.965 -0.837618 2.16995 0
M  V30 6416 C 641.959 -1.26974 1.12133 0
M  V30 6417 O 643.165 -1.24056 1.30423 0
M  V30 6418 H 639.54 -0.288256 0.694559 0
M  V30 6419 H 641.511 -0.307957 2.96807 0
M  V30 6420 C 640.26 -2.07474 2.79016 0
M  V30 6421 H 639.583 -1.75117 3.59408 0
M  V30 6422 H 641.023 -2.72949 3.24461 0
M  V30 6423 C 639.482 -2.86967 1.76498 0
M  V30 6424 O 640.012 -3.82625 1.22316 0
M  V30 6425 N 638.218 -2.51111 1.46258 0
M  V30 6426 H 637.765 -1.73389 1.90509 0
M  V30 6427 H 637.723 -3.04594 0.779085 0
M  V30 6428 N 641.495 -1.56914 -0.146875 0
M  V30 6429 C 642.72 -1.87881 -0.878386 0
M  V30 6430 C 643.145 -0.715945 -1.73942 0
M  V30 6431 O 642.503 0.334447 -1.78189 0
M  V30 6432 C 642.551 -3.17431 -1.71084 0
M  V30 6433 O 641.655 -3.01374 -2.81509 0
M  V30 6434 H 640.996 -0.617289 -0.244644 0
M  V30 6435 H 643.526 -2.04136 -0.137654 0
M  V30 6436 H 643.536 -3.49455 -2.10582 0
M  V30 6437 H 642.211 -4.01671 -1.07856 0
M  V30 6438 H 640.788 -2.80758 -2.45416 0
M  V30 6439 N 642.974 0.416227 -1.52004 0
M  V30 6440 C 644.251 1.17637 -1.56272 0
M  V30 6441 C 644.631 2.08352 -0.339493 0
M  V30 6442 O 643.979 2.1833 0.674124 0
M  V30 6443 C 644.189 1.95986 -2.88774 0
M  V30 6444 C 645.537 2.52299 -3.41512 0
M  V30 6445 O 646.561 2.06174 -2.90467 0
M  V30 6446 O 645.42 3.3648 -4.30631 0
M  V30 6447 H 642.514 0.536726 -0.629169 0
M  V30 6448 H 645.06 0.423583 -1.64329 0
M  V30 6449 H 643.832 1.29487 -3.69254 0
M  V30 6450 H 643.455 2.78285 -2.83978 0
M  V30 6451 N 644.452 1.42507 0.673017 0
M  V30 6452 C 645.7 1.42789 1.43023 0
M  V30 6453 C 646.021 0.0459738 1.94946 0
M  V30 6454 O 645.291 -0.915765 1.73178 0
M  V30 6455 H 643.871 0.525657 0.530748 0
M  V30 6456 H 646.533 1.77944 0.795113 0
M  V30 6457 H 645.629 2.12872 2.28237 0
M  V30 6458 N 645.93 -0.909495 1.28709 0
M  V30 6459 C 647.155 -1.69801 1.1909 0
M  V30 6460 C 647.58 -1.86479 -0.246388 0
M  V30 6461 O 646.938 -1.37802 -1.17815 0
M  V30 6462 C 646.986 -3.06543 1.89904 0
M  V30 6463 O 646.09 -3.94268 1.2094 0
M  V30 6464 H 645.431 -0.519783 0.413185 0
M  V30 6465 H 647.961 -1.13689 1.70106 0
M  V30 6466 H 647.971 -3.56748 1.97977 0
M  V30 6467 H 646.646 -2.93722 2.94449 0
M  V30 6468 H 645.223 -3.52702 1.2106 0
M  V30 6469 N 647.408 -1.11026 -1.11852 0
M  V30 6470 C 648.654 -0.857729 -1.83768 0
M  V30 6471 C 648.987 0.615143 -1.842 0
M  V30 6472 O 648.262 1.45391 -1.29196 0
M  V30 6473 C 648.545 -1.41453 -3.31154 0
M  V30 6474 C 648.398 -2.95471 -3.39142 0
M  V30 6475 C 649.717 -1.0619 -4.27097 0
M  V30 6476 H 646.836 -0.313044 -0.667212 0
M  V30 6477 H 649.478 -1.37443 -1.31185 0
M  V30 6478 H 647.628 -0.975052 -3.76065 0
M  V30 6479 H 649.3 -3.4799 -3.02821 0
M  V30 6480 H 647.543 -3.31759 -2.79497 0
M  V30 6481 H 648.214 -3.29515 -4.42859 0
M  V30 6482 H 650.69 -1.44122 -3.90344 0
M  V30 6483 H 649.566 -1.47832 -5.28618 0
M  V30 6484 H 649.827 0.0278912 -4.42091 0
M  V30 6485 N 648.886 1.2938 -0.899927 0
M  V30 6486 C 650.132 1.9584 -0.526742 0
M  V30 6487 C 650.465 1.70774 0.924651 0
M  V30 6488 O 649.74 1.02084 1.65557 0
M  V30 6489 C 650.023 3.50638 -0.820062 0
M  V30 6490 C 649.876 3.85161 -2.32317 0
M  V30 6491 C 651.195 4.3903 -0.30671 0
M  V30 6492 H 648.314 0.711322 -0.192848 0
M  V30 6493 H 650.956 1.52992 -1.12665 0
M  V30 6494 H 649.106 3.87265 -0.309491 0
M  V30 6495 H 650.778 3.58477 -2.9033 0
M  V30 6496 H 649.021 3.32696 -2.78381 0
M  V30 6497 H 649.692 4.93204 -2.47898 0
M  V30 6498 H 652.168 4.09396 -0.743908 0
M  V30 6499 H 651.044 5.46226 -0.541144 0
M  V30 6500 H 651.305 4.34937 0.792588 0
M  V30 6501 N 650.364 0.662433 1.43002 0
M  V30 6502 C 651.612 0.179237 2.01304 0
M  V30 6503 C 651.933 -1.21428 1.52579 0
M  V30 6504 O 651.203 -1.81294 0.742252 0
M  V30 6505 H 649.783 0.0632725 0.744316 0
M  V30 6506 H 652.445 0.856169 1.75088 0
M  V30 6507 H 651.541 0.170957 3.11631 0
M  V30 6508 N 651.842 -1.52309 0.404946 0
M  V30 6509 C 653.088 -2.02065 -0.172455 0
M  V30 6510 C 653.421 -1.29022 -1.45145 0
M  V30 6511 O 652.696 -0.395284 -1.90441 0
M  V30 6512 C 652.979 -3.5759 -0.424433 0
M  V30 6513 C 652.832 -4.41287 0.870945 0
M  V30 6514 C 654.151 -4.23186 -1.20837 0
M  V30 6515 H 651.27 -0.734454 -0.0612035 0
M  V30 6516 H 653.912 -1.82236 0.53759 0
M  V30 6517 H 652.062 -3.74617 -1.02929 0
M  V30 6518 H 653.734 -4.3598 1.50729 0
M  V30 6519 H 651.977 -4.07669 1.48284 0
M  V30 6520 H 652.648 -5.48171 0.649083 0
M  V30 6521 H 655.124 -4.10232 -0.696338 0
M  V30 6522 H 654 -5.31953 -1.35343 0
M  V30 6523 H 654.261 -3.81862 -2.22786 0
M  V30 6524 N 653.32 -0.135238 -1.57019 0
M  V30 6525 C 654.252 0.839675 -2.13265 0
M  V30 6526 C 655.265 1.21887 -1.07923 0
M  V30 6527 O 656.454 1.16499 -1.35241 0
M  V30 6528 C 653.554 2.13647 -2.63075 0
M  V30 6529 C 652.727 1.92646 -3.92691 0
M  V30 6530 C 651.786 3.06205 -4.27931 0
M  V30 6531 O 650.812 2.78409 -4.96465 0
M  V30 6532 N 652.014 4.33072 -3.86561 0
M  V30 6533 H 654.779 0.359026 -2.97542 0
M  V30 6534 H 652.34 0.0486979 -1.61827 0
M  V30 6535 H 654.332 2.88641 -2.8367 0
M  V30 6536 H 652.902 2.5301 -1.83588 0
M  V30 6537 H 652.122 1.01754 -3.80841 0
M  V30 6538 H 653.41 1.75939 -4.77413 0
M  V30 6539 H 652.808 4.58526 -3.31316 0
M  V30 6540 H 651.365 5.04885 -4.12231 0
M  V30 6541 N 654.798 1.5699 0.138552 0
M  V30 6542 C 656.023 1.88344 0.86841 0
M  V30 6543 C 656.448 0.725159 1.7356 0
M  V30 6544 O 655.806 -0.324992 1.78363 0
M  V30 6545 C 655.854 3.18334 1.69398 0
M  V30 6546 O 654.958 3.02863 2.79907 0
M  V30 6547 H 654.299 0.618577 0.241367 0
M  V30 6548 H 656.829 2.04207 0.126826 0
M  V30 6549 H 656.839 3.50567 2.08726 0
M  V30 6550 H 655.514 4.02238 1.05725 0
M  V30 6551 H 654.091 2.82056 2.43924 0
M  V30 6552 N 656.276 -0.40816 1.52223 0
M  V30 6553 C 657.524 -1.15274 1.66001 0
M  V30 6554 C 657.845 -1.91003 0.392803 0
M  V30 6555 O 657.115 -1.8673 -0.592336 0
M  V30 6556 H 655.695 -0.428526 0.611861 0
M  V30 6557 H 658.357 -0.46512 1.89269 0
M  V30 6558 H 657.453 -1.86628 2.50153 0
M  V30 6559 N 657.755 -1.42862 -0.66545 0
M  V30 6560 C 658.685 -1.49867 -1.79059 0
M  V30 6561 C 659.666 -0.354394 -1.66367 0
M  V30 6562 O 660.851 -0.569969 -1.85647 0
M  V30 6563 C 657.981 -1.40943 -3.17415 0
M  V30 6564 C 656.935 -2.53495 -3.44854 0
M  V30 6565 C 656.261 -2.29626 -4.82883 0
M  V30 6566 C 657.561 -3.95781 -3.40815 0
M  V30 6567 H 659.255 -2.44037 -1.73453 0
M  V30 6568 H 656.801 -1.17456 -0.833071 0
M  V30 6569 H 658.754 -1.4445 -3.95869 0
M  V30 6570 H 657.478 -0.432716 -3.23721 0
M  V30 6571 H 656.137 -2.4932 -2.68766 0
M  V30 6572 H 655.785 -1.30226 -4.8585 0
M  V30 6573 H 655.485 -3.05065 -5.02204 0
M  V30 6574 H 657.009 -2.34897 -5.63609 0
M  V30 6575 H 658.423 -4.01508 -4.09224 0
M  V30 6576 H 656.82 -4.71148 -3.71672 0
M  V30 6577 H 657.89 -4.21786 -2.39216 0
M  V30 6578 N 659.233 0.902656 -1.29189 0
M  V30 6579 C 660.473 1.6672 -1.18254 0
M  V30 6580 C 660.837 1.90199 0.262336 0
M  V30 6581 O 662.038 2.6421 0.494612 0
M  V30 6582 C 660.309 2.98178 -1.9704 0
M  V30 6583 S 661.868 3.89226 -2.02605 0
M  V30 6584 H 658.686 0.572432 -0.421714 0
M  V30 6585 H 661.288 1.07279 -1.63436 0
M  V30 6586 H 659.992 2.788 -3.01163 0
M  V30 6587 H 659.523 3.62661 -1.5245 0
M  V30 6588 H 661.538 4.82913 -1.14059 0
M  V30 6589 N 660.711 1.11618 1.11262 0
M  V30 6590 C 661.641 0.79846 2.19424 0
M  V30 6591 C 662.622 -0.234003 1.68483 0
M  V30 6592 O 663.807 -0.0970704 1.93957 0
M  V30 6593 C 660.937 0.242892 3.4645 0
M  V30 6594 C 659.891 1.20744 4.10615 0
M  V30 6595 C 659.217 0.512494 5.32238 0
M  V30 6596 C 660.517 2.55884 4.55325 0
M  V30 6597 H 662.211 1.70286 2.46258 0
M  V30 6598 H 659.757 0.820195 1.18359 0
M  V30 6599 H 661.71 0.00840447 4.21399 0
M  V30 6600 H 660.434 -0.696811 3.1908 0
M  V30 6601 H 659.093 1.42759 3.37662 0
M  V30 6602 H 658.741 -0.432075 5.01141 0
M  V30 6603 H 658.441 1.15583 5.7612 0
M  V30 6604 H 659.965 0.286842 6.09926 0
M  V30 6605 H 661.379 2.37946 5.21588 0
M  V30 6606 H 659.776 3.16216 5.10027 0
M  V30 6607 H 660.846 3.14968 3.68678 0
M  V30 6608 N 662.189 -1.289 0.906776 0
M  V30 6609 C 663.466 -1.90221 0.455537 0
M  V30 6610 C 663.846 -1.82251 -1.06527 0
M  V30 6611 O 663.194 -1.25385 -1.91026 0
M  V30 6612 C 663.404 -3.35015 0.97806 0
M  V30 6613 C 664.752 -4.12018 1.02598 0
M  V30 6614 O 665.776 -3.43947 0.926218 0
M  V30 6615 O 664.635 -5.33677 1.17689 0
M  V30 6616 H 661.729 -0.814505 0.143214 0
M  V30 6617 H 664.275 -1.37317 0.997104 0
M  V30 6618 H 663.047 -3.35006 2.02204 0
M  V30 6619 H 662.67 -3.95408 0.416914 0
M  V30 6620 N 663.667 -0.670007 -1.42649 0
M  V30 6621 C 664.63 0.00204659 -2.292 0
M  V30 6622 C 665.63 0.733817 -1.4308 0
M  V30 6623 O 666.82 0.57254 -1.64522 0
M  V30 6624 C 663.952 1.01359 -3.25483 0
M  V30 6625 H 665.145 -0.759696 -2.90118 0
M  V30 6626 H 662.698 -0.432105 -1.50208 0
M  V30 6627 H 663.433 1.80399 -2.69493 0
M  V30 6628 H 663.218 0.492323 -3.88997 0
M  V30 6629 H 664.708 1.4824 -3.90403 0
M  V30 6630 N 665.145 1.52092 -0.413018 0
M  V30 6631 C 666.391 2.02154 0.161737 0
M  V30 6632 C 666.724 1.29789 1.44459 0
M  V30 6633 O 665.999 0.405378 1.90229 0
M  V30 6634 C 666.282 3.5781 0.405463 0
M  V30 6635 C 666.135 4.40819 -0.894335 0
M  V30 6636 C 667.454 4.23821 1.18591 0
M  V30 6637 H 664.573 0.734769 0.0573077 0
M  V30 6638 H 667.215 1.81948 -0.547247 0
M  V30 6639 H 665.365 3.75158 1.0094 0
M  V30 6640 H 667.037 4.35175 -1.53039 0
M  V30 6641 H 665.28 4.06877 -1.50444 0
M  V30 6642 H 665.951 5.47819 -0.678144 0
M  V30 6643 H 668.427 4.10596 0.674573 0
M  V30 6644 H 667.303 5.32663 1.3252 0
M  V30 6645 H 667.564 3.83038 2.20758 0
M  V30 6646 N 666.623 0.143563 1.56945 0
M  V30 6647 C 667.871 -0.507402 1.95627 0
M  V30 6648 C 668.192 -1.65626 1.02922 0
M  V30 6649 O 667.462 -1.95693 0.0901136 0
M  V30 6650 H 666.042 -0.190436 0.722318 0
M  V30 6651 H 668.704 0.218257 1.93674 0
M  V30 6652 H 667.8 -0.885816 2.99265 0
M  V30 6653 N 668.101 -1.57061 -0.130224 0
M  V30 6654 C 669.049 -2.00486 -1.17933 0
M  V30 6655 C 670.043 -0.899933 -1.43519 0
M  V30 6656 O 671.249 -1.08514 -1.43613 0
M  V30 6657 H 667.624 -0.638441 -0.397363 0
M  V30 6658 H 669.595 -2.87848 -0.786501 0
M  V30 6659 C 668.344 -2.41565 -2.50084 0
M  V30 6660 H 667.667 -3.26148 -2.31231 0
M  V30 6661 H 669.107 -2.75757 -3.22078 0
M  V30 6662 C 667.566 -1.27485 -3.11848 0
M  V30 6663 O 668.096 -0.584688 -3.97422 0
M  V30 6664 N 666.302 -1.03478 -2.71552 0
M  V30 6665 H 665.849 -1.59779 -2.02061 0
M  V30 6666 H 665.807 -0.27341 -3.13209 0
M  V30 6667 N 669.579 0.400081 -1.52437 0
M  V30 6668 C 670.827 1.14392 -1.6661 0
M  V30 6669 C 671.148 1.90792 -0.402927 0
M  V30 6670 O 670.418 1.87042 0.582425 0
M  V30 6671 H 668.998 0.425275 -0.614125 0
M  V30 6672 H 671.66 0.455076 -1.89513 0
M  V30 6673 H 670.756 1.85298 -2.51139 0
M  V30 6674 N 671.057 1.43213 0.657864 0
M  V30 6675 C 672.285 1.48015 1.44566 0
M  V30 6676 C 672.7 0.0965951 1.88553 0
M  V30 6677 O 672.057 -0.892221 1.59203 0
M  V30 6678 C 672.108 2.42199 2.68369 0
M  V30 6679 O 671.829 3.75173 2.26223 0
M  V30 6680 C 673.33 2.56195 3.61772 0
M  V30 6681 H 670.55 0.502861 0.444266 0
M  V30 6682 H 673.094 1.87907 0.806917 0
M  V30 6683 H 671.249 2.05514 3.28394 0
M  V30 6684 H 671.663 4.25776 3.06293 0
M  V30 6685 H 673.137 3.26182 4.4532 0
M  V30 6686 H 673.614 1.60534 4.0881 0
M  V30 6687 H 674.22 2.93671 3.07632 0
M  V30 6688 N 672.536 -0.895792 1.29666 0
M  V30 6689 C 673.499 -1.98189 1.15124 0
M  V30 6690 C 674.499 -1.60572 0.0855717 0
M  V30 6691 O 675.689 -1.70991 0.332826 0
M  V30 6692 C 672.821 -3.32289 0.761372 0
M  V30 6693 H 674.014 -2.12518 2.11603 0
M  V30 6694 H 671.567 -1.0808 1.12908 0
M  V30 6695 H 672.302 -3.23662 -0.203393 0
M  V30 6696 H 672.087 -3.60958 1.53139 0
M  V30 6697 H 673.577 -4.1198 0.682792 0
M  V30 6698 N 674.014 -1.12206 -1.10668 0
M  V30 6699 C 674.962 -0.782918 -2.19028 0
M  V30 6700 C 675.956 0.229175 -1.67843 0
M  V30 6701 O 677.162 0.0876295 -1.79787 0
M  V30 6702 H 673.537 -0.235339 -0.714227 0
M  V30 6703 H 675.508 -1.70527 -2.44874 0
M  V30 6704 C 674.257 -0.25116 -3.46792 0
M  V30 6705 H 673.58 -1.02123 -3.86537 0
M  V30 6706 H 675.02 -0.0521409 -4.23968 0
M  V30 6707 C 673.479 1.02037 -3.21076 0
M  V30 6708 O 674.009 2.09862 -3.42522 0
M  V30 6709 N 672.215 0.946348 -2.74759 0
M  V30 6710 H 671.762 0.068777 -2.57508 0
M  V30 6711 H 671.72 1.79775 -2.57931 0
M  V30 6712 N 675.492 1.28418 -0.913599 0
M  V30 6713 C 676.74 1.94596 -0.545594 0
M  V30 6714 C 677.061 1.7227 0.913668 0
M  V30 6715 O 676.331 1.06233 1.64595 0
M  V30 6716 H 674.911 0.720065 -0.198783 0
M  V30 6717 H 677.573 1.56404 -1.16292 0
M  V30 6718 H 676.669 3.03202 -0.739911 0
M  V30 6719 N 676.97 0.677563 1.42291 0
M  V30 6720 C 678.198 0.209459 2.05837 0
M  V30 6721 C 678.613 -1.13444 1.50917 0
M  V30 6722 O 677.97 -1.70529 0.65008 0
M  V30 6723 C 678.021 0.138819 3.61233 0
M  V30 6724 O 677.742 1.42962 4.14118 0
M  V30 6725 C 679.243 -0.352449 4.41897 0
M  V30 6726 H 676.463 0.101209 0.663323 0
M  V30 6727 H 679.007 0.925077 1.8238 0
M  V30 6728 H 677.162 -0.527505 3.83792 0
M  V30 6729 H 677.576 1.3048 5.08011 0
M  V30 6730 H 679.05 -0.350778 5.50884 0
M  V30 6731 H 679.527 -1.3882 4.16684 0
M  V30 6732 H 680.133 0.282236 4.24362 0
M  V30 6733 N 678.448 -1.51871 0.421078 0
M  V30 6734 C 679.378 -2.30231 -0.389363 0
M  V30 6735 C 680.359 -1.34946 -1.03555 0
M  V30 6736 O 681.544 -1.63859 -1.04229 0
M  V30 6737 C 678.674 -3.13247 -1.49979 0
M  V30 6738 C 677.628 -4.16677 -0.977966 0
M  V30 6739 C 676.954 -4.88112 -2.1829 0
M  V30 6740 C 678.254 -5.22295 -0.0236775 0
M  V30 6741 H 679.948 -2.98229 0.264524 0
M  V30 6742 H 677.494 -1.43424 0.12866 0
M  V30 6743 H 679.447 -3.66838 -2.07383 0
M  V30 6744 H 678.171 -2.4304 -2.18173 0
M  V30 6745 H 676.83 -3.64114 -0.426245 0
M  V30 6746 H 676.478 -4.14423 -2.85066 0
M  V30 6747 H 676.178 -5.58041 -1.84021 0
M  V30 6748 H 677.702 -5.44521 -2.76278 0
M  V30 6749 H 679.116 -5.71055 -0.506899 0
M  V30 6750 H 677.513 -5.99656 0.230782 0
M  V30 6751 H 678.583 -4.76131 0.917999 0
M  V30 6752 N 679.926 -0.151884 -1.56866 0
M  V30 6753 C 681.175 0.497992 -1.95456 0
M  V30 6754 C 681.488 1.6569 -1.03953 0
M  V30 6755 O 682.694 2.37173 -1.32142 0
M  V30 6756 C 681.15 0.93732 -3.4748 0
M  V30 6757 C 680.758 -0.194921 -4.47576 0
M  V30 6758 C 682.502 1.55671 -3.94926 0
M  V30 6759 C 680.409 0.26295 -5.90815 0
M  V30 6760 H 679.339 0.189811 -0.729717 0
M  V30 6761 H 681.99 -0.237011 -1.81963 0
M  V30 6762 H 680.372 1.72773 -3.56322 0
M  V30 6763 H 681.546 -0.971951 -4.50433 0
M  V30 6764 H 679.861 -0.72303 -4.10075 0
M  V30 6765 H 682.458 1.91099 -4.99385 0
M  V30 6766 H 682.801 2.44748 -3.36755 0
M  V30 6767 H 683.334 0.831109 -3.89021 0
M  V30 6768 H 680.073 -0.592568 -6.52816 0
M  V30 6769 H 679.593 1.00575 -5.91308 0
M  V30 6770 H 681.272 0.713333 -6.43056 0
M  V30 6771 N 681.404 1.57128 0.121893 0
M  V30 6772 C 682.336 1.96773 1.17529 0
M  V30 6773 C 683.349 0.866668 1.37814 0
M  V30 6774 O 684.538 1.14497 1.3694 0
M  V30 6775 C 681.638 2.24832 2.53582 0
M  V30 6776 C 680.811 3.56138 2.53939 0
M  V30 6777 C 679.87 3.72443 3.71716 0
M  V30 6778 O 678.896 4.44584 3.55434 0
M  V30 6779 N 680.098 3.10993 4.90167 0
M  V30 6780 H 682.863 2.87743 0.838086 0
M  V30 6781 H 680.424 1.58881 0.311199 0
M  V30 6782 H 682.416 2.32958 3.30927 0
M  V30 6783 H 680.986 1.40002 2.79496 0
M  V30 6784 H 680.206 3.59226 1.62329 0
M  V30 6785 H 681.494 4.42448 2.51231 0
M  V30 6786 H 680.892 2.52345 5.06299 0
M  V30 6787 H 679.449 3.24644 5.65198 0
M  V30 6788 N 682.882 -0.391992 1.52647 0
M  V30 6789 C 683.812 -1.48517 1.8018 0
M  V30 6790 C 684.793 -1.57039 0.653667 0
M  V30 6791 O 685.978 -1.72036 0.900962 0
M  V30 6792 C 683.108 -2.86161 1.96797 0
M  V30 6793 C 682.062 -2.92481 3.12472 0
M  V30 6794 C 681.388 -4.32546 3.14338 0
M  V30 6795 C 682.688 -2.624 4.51601 0
M  V30 6796 H 684.382 -1.25726 2.71723 0
M  V30 6797 H 681.928 -0.603387 1.30749 0
M  V30 6798 H 683.881 -3.62639 2.14641 0
M  V30 6799 H 682.605 -3.10283 1.01941 0
M  V30 6800 H 681.264 -2.18451 2.94406 0
M  V30 6801 H 680.912 -4.53703 2.1717 0
M  V30 6802 H 680.612 -4.37695 3.92042 0
M  V30 6803 H 682.136 -5.10934 3.34333 0
M  V30 6804 H 683.55 -3.28596 4.69785 0
M  V30 6805 H 681.947 -2.78903 5.3135 0
M  V30 6806 H 683.017 -1.57754 4.58521 0
M  V30 6807 N 684.36 -1.4356 -0.65026 0
M  V30 6808 C 685.59 -1.48563 -1.4357 0
M  V30 6809 C 685.998 -0.103041 -1.88919 0
M  V30 6810 O 685.341 0.897602 -1.60277 0
M  V30 6811 C 685.403 -2.37181 -2.70158 0
M  V30 6812 C 685.067 -3.84673 -2.4673 0
M  V30 6813 C 686.064 -4.75704 -2.09765 0
M  V30 6814 C 683.749 -4.29189 -2.60963 0
M  V30 6815 C 685.743 -6.09249 -1.87334 0
M  V30 6816 C 683.43 -5.62787 -2.38147 0
M  V30 6817 C 684.428 -6.52634 -2.01389 0
M  V30 6818 O 684.116 -7.83761 -1.78813 0
M  V30 6819 H 683.848 -0.506743 -0.447423 0
M  V30 6820 H 686.402 -1.89001 -0.80423 0
M  V30 6821 H 684.632 -1.91636 -3.35876 0
M  V30 6822 H 686.321 -2.33354 -3.32116 0
M  V30 6823 H 687.087 -4.42589 -1.98343 0
M  V30 6824 H 682.966 -3.59529 -2.88548 0
M  V30 6825 H 686.51 -6.7934 -1.58567 0
M  V30 6826 H 682.407 -5.95469 -2.49173 0
M  V30 6827 H 683.175 -7.95368 -1.93214 0
M  V30 6828 N 685.838 0.888903 -1.30139 0
M  V30 6829 C 687.066 1.67358 -1.21651 0
M  V30 6830 C 687.481 1.87499 0.221246 0
M  V30 6831 O 686.838 1.41969 1.14677 0
M  V30 6832 C 686.889 3.05213 -1.93719 0
M  V30 6833 O 686.61 2.85984 -3.31881 0
M  V30 6834 C 688.111 3.9964 -1.9184 0
M  V30 6835 H 685.331 0.522365 -0.42116 0
M  V30 6836 H 687.875 1.11086 -1.71698 0
M  V30 6837 H 686.03 3.5823 -1.4748 0
M  V30 6838 H 686.444 3.73411 -3.68327 0
M  V30 6839 H 687.918 4.93749 -2.46811 0
M  V30 6840 H 688.395 4.29955 -0.896409 0
M  V30 6841 H 689.001 3.52558 -2.37872 0
M  V30 6842 N 687.317 1.12792 1.10072 0
M  V30 6843 C 688.557 0.895691 1.8373 0
M  V30 6844 C 688.921 -0.568131 1.83402 0
M  V30 6845 O 690.122 -0.917666 2.52651 0
M  V30 6846 C 688.393 1.4593 3.2625 0
M  V30 6847 S 689.952 1.36615 4.16991 0
M  V30 6848 H 686.77 0.323017 0.633389 0
M  V30 6849 H 689.372 1.43816 1.32428 0
M  V30 6850 H 688.076 2.51818 3.24062 0
M  V30 6851 H 687.607 0.914478 3.82624 0
M  V30 6852 H 689.622 0.340131 4.95033 0
M  V30 6853 N 688.795 -1.27931 0.920396 0
M  V30 6854 C 690.02 -1.99343 0.572478 0
M  V30 6855 C 690.445 -1.68267 -0.840696 0
M  V30 6856 O 689.803 -0.918805 -1.56294 0
M  V30 6857 C 689.851 -3.51698 0.796284 0
M  V30 6858 O 688.955 -4.12157 -0.141602 0
M  V30 6859 H 688.296 -0.626065 0.221221 0
M  V30 6860 H 690.826 -1.62921 1.23765 0
M  V30 6861 H 690.836 -4.01793 0.708984 0
M  V30 6862 H 689.511 -3.73649 1.82644 0
M  V30 6863 H 688.088 -3.729 -0.005007 0
M  V30 6864 N 690.273 -0.685099 -1.4193 0
M  V30 6865 C 691.221 -0.00165985 -2.326 0
M  V30 6866 C 692.215 0.779678 -1.50391 0
M  V30 6867 O 693.421 0.68648 -1.66395 0
M  V30 6868 H 689.796 0.0182616 -0.751778 0
M  V30 6869 H 691.767 -0.783592 -2.87928 0
M  V30 6870 C 690.516 0.928385 -3.35077 0
M  V30 6871 H 689.839 0.336578 -3.98381 0
M  V30 6872 H 691.279 1.37509 -4.01083 0
M  V30 6873 C 689.738 2.03964 -2.68142 0
M  V30 6874 O 690.268 3.12727 -2.5212 0
M  V30 6875 N 688.474 1.81433 -2.27003 0
M  V30 6876 H 688.021 0.929807 -2.40234 0
M  V30 6877 H 687.979 2.55973 -1.82552 0
M  V30 6878 N 691.751 1.51645 -0.429126 0
M  V30 6879 C 692.999 2.01616 0.139802 0
M  V30 6880 C 693.32 1.31568 1.43927 0
M  V30 6881 O 692.59 0.447688 1.90716 0
M  V30 6882 H 691.17 0.744998 0.054654 0
M  V30 6883 H 693.832 1.8638 -0.569952 0
M  V30 6884 H 692.928 3.10439 0.321609 0
M  V30 6885 N 693.229 0.160201 1.56784 0
M  V30 6886 C 694.454 -0.497373 2.01348 0
M  V30 6887 C 694.879 -1.56757 1.03966 0
M  V30 6888 O 694.237 -1.81292 0.0174455 0
M  V30 6889 C 694.285 -1.0628 3.44582 0
M  V30 6890 O 693.389 -2.17723 3.50244 0
M  V30 6891 H 692.73 -0.120295 0.653012 0
M  V30 6892 H 695.26 0.260821 2.02931 0
M  V30 6893 H 695.27 -1.38819 3.83658 0
M  V30 6894 H 693.945 -0.279166 4.14962 0
M  V30 6895 H 692.522 -1.86313 3.2302 0
M  V30 6896 N 694.707 -1.5719 -0.113559 0
M  V30 6897 C 695.655 -2.01725 -1.158 0
M  V30 6898 C 696.649 -0.915105 -1.42556 0
M  V30 6899 O 697.855 -1.10031 -1.42454 0
M  V30 6900 H 694.23 -0.64262 -0.390569 0
M  V30 6901 H 696.201 -2.88666 -0.755926 0
M  V30 6902 C 694.95 -2.44203 -2.47507 0
M  V30 6903 H 694.273 -3.28582 -2.27758 0
M  V30 6904 H 695.713 -2.79158 -3.19135 0
M  V30 6905 C 694.172 -1.30785 -3.10478 0
M  V30 6906 O 694.702 -0.626807 -3.9678 0
M  V30 6907 N 692.908 -1.06352 -2.7044 0
M  V30 6908 H 692.455 -1.61913 -2.00355 0
M  V30 6909 H 692.413 -0.306614 -3.12901 0
M  V30 6910 N 696.185 0.383891 -1.52853 0
M  V30 6911 C 697.117 1.48889 -1.74255 0
M  V30 6912 C 698.13 1.50405 -0.623063 0
M  V30 6913 O 699.319 1.54215 -0.898887 0
M  V30 6914 C 696.419 2.87721 -1.79081 0
M  V30 6915 C 695.592 3.10111 -3.08464 0
M  V30 6916 C 694.651 4.28954 -3.0477 0
M  V30 6917 O 693.677 4.25012 -3.78621 0
M  V30 6918 N 694.879 5.35411 -2.24311 0
M  V30 6919 H 697.644 1.30915 -2.69595 0
M  V30 6920 H 695.205 0.573454 -1.51404 0
M  V30 6921 H 697.197 3.65333 -1.7411 0
M  V30 6922 H 695.767 2.99029 -0.911052 0
M  V30 6923 H 694.987 2.20319 -3.26884 0
M  V30 6924 H 696.275 3.21928 -3.94005 0
M  V30 6925 H 695.673 5.41471 -1.63787 0
M  V30 6926 H 694.23 6.1167 -2.25175 0
M  V30 6927 N 697.663 1.43903 0.642637 0
M  V30 6928 C 699.079 1.27536 0.959519 0
M  V30 6929 C 699.279 0.202751 2.00477 0
M  V30 6930 O 698.335 -0.415256 2.49062 0
M  V30 6931 C 699.648 2.6432 1.43372 0
M  V30 6932 C 701.196 2.71937 1.54981 0
M  V30 6933 C 701.671 4.09164 2.05789 0
M  V30 6934 N 703.162 4.11282 2.13076 0
M  V30 6935 C 703.897 5.14303 2.53534 0
M  V30 6936 N 703.393 6.27693 2.93212 0
M  V30 6937 N 705.186 5.01657 2.53567 0
M  V30 6938 H 697.337 2.12344 -0.0488376 0
M  V30 6939 H 699.6 0.947124 0.0407559 0
M  V30 6940 H 699.306 3.43826 0.740048 0
M  V30 6941 H 699.18 2.90432 2.40685 0
M  V30 6942 H 701.567 1.92757 2.23448 0
M  V30 6943 H 701.648 2.49578 0.560739 0
M  V30 6944 H 701.292 4.88815 1.37921 0
M  V30 6945 H 701.222 4.28893 3.05546 0
M  V30 6946 H 703.713 3.2944 1.85143 0
M  V30 6947 H 704.026 7.02125 3.22863 0
M  V30 6948 H 702.371 6.31149 2.90991 0
M  V30 6949 H 705.562 4.12134 2.21952 0
M  V30 6950 H 705.735 5.82072 2.84774 0
M  V30 6951 N 699.141 -0.881989 1.30609 0
M  V30 6952 C 700.387 -1.63649 1.20791 0
M  V30 6953 C 700.742 -1.90966 -0.234437 0
M  V30 6954 O 700.035 -1.52163 -1.16434 0
M  V30 6955 C 700.229 -2.97999 1.97311 0
M  V30 6956 C 700.058 -2.83798 3.48839 0
M  V30 6957 C 698.828 -2.83622 4.18195 0
M  V30 6958 C 701.026 -2.59529 4.44015 0
M  V30 6959 N 699.008 -2.60344 5.55962 0
M  V30 6960 C 700.379 -2.45401 5.69366 0
M  V30 6961 C 702.434 -2.44777 4.33576 0
M  V30 6962 C 701.137 -2.18023 6.85462 0
M  V30 6963 C 703.163 -2.18785 5.49443 0
M  V30 6964 C 702.525 -2.05436 6.73777 0
M  V30 6965 H 698.624 -0.603687 0.497077 0
M  V30 6966 H 701.208 -1.03908 1.64655 0
M  V30 6967 H 699.379 -3.55767 1.55834 0
M  V30 6968 H 701.111 -3.6266 1.79611 0
M  V30 6969 H 697.866 -2.95562 3.70054 0
M  V30 6970 H 698.29 -2.51709 6.28468 0
M  V30 6971 H 702.932 -2.53831 3.38126 0
M  V30 6972 H 700.65 -2.07707 7.8095 0
M  V30 6973 H 704.236 -2.08188 5.43276 0
M  V30 6974 H 703.116 -1.85605 7.61919 0
M  V30 6975 N 700.619 -1.13374 -1.09472 0
M  V30 6976 C 701.847 -0.918351 -1.85402 0
M  V30 6977 C 702.262 0.53281 -1.81126 0
M  V30 6978 O 701.619 1.36879 -1.20708 0
M  V30 6979 C 701.67 -1.39743 -3.33398 0
M  V30 6980 O 701.391 -2.79172 -3.37631 0
M  V30 6981 C 702.892 -1.22042 -4.2617 0
M  V30 6982 H 700.112 -0.327511 -0.585643 0
M  V30 6983 H 702.656 -1.50617 -1.38328 0
M  V30 6984 H 700.811 -0.852619 -3.77901 0
M  V30 6985 H 701.225 -3.00428 -4.29934 0
M  V30 6986 H 702.699 -1.60438 -5.2817 0
M  V30 6987 H 703.176 -0.162047 -4.38901 0
M  V30 6988 H 703.782 -1.75323 -3.87482 0
M  V30 6989 N 702.098 1.27442 -0.927168 0
M  V30 6990 C 703.514 1.46754 -0.627329 0
M  V30 6991 C 703.714 1.83902 0.823549 0
M  V30 6992 O 702.77 1.95215 1.60148 0
M  V30 6993 C 704.083 2.56045 -1.57674 0
M  V30 6994 C 705.631 2.69906 -1.58491 0
M  V30 6995 C 706.106 3.82355 -2.52128 0
M  V30 6996 N 707.597 3.89728 -2.50332 0
M  V30 6997 C 708.332 4.76155 -3.19475 0
M  V30 6998 N 707.828 5.67073 -3.97995 0
M  V30 6999 N 709.621 4.6988 -3.08496 0
M  V30 7000 H 701.772 1.01613 -1.86517 0
M  V30 7001 H 704.035 0.507443 -0.800753 0
M  V30 7002 H 703.741 2.35542 -2.61176 0
M  V30 7003 H 703.615 3.53423 -1.31804 0
M  V30 7004 H 706.002 2.89792 -0.557208 0
M  V30 7005 H 706.083 1.73018 -1.8841 0
M  V30 7006 H 705.727 3.63224 -3.55008 0
M  V30 7007 H 705.657 4.7867 -2.19505 0
M  V30 7008 H 708.148 3.24717 -1.93306 0
M  V30 7009 H 708.461 6.2988 -4.4774 0
M  V30 7010 H 706.806 5.6687 -4.02098 0
M  V30 7011 H 709.997 3.97848 -2.46646 0
M  V30 7012 H 710.17 5.37017 -3.62652 0
M  V30 7013 N 703.576 0.692616 1.41565 0
M  V30 7014 C 704.804 0.231279 2.05603 0
M  V30 7015 C 705.219 -1.11837 1.52111 0
M  V30 7016 O 704.576 -1.6983 0.66813 0
M  V30 7017 C 704.627 0.177125 3.61066 0
M  V30 7018 O 704.348 1.47346 4.12578 0
M  V30 7019 C 705.849 -0.30556 4.42246 0
M  V30 7020 H 703.069 0.108238 0.662213 0
M  V30 7021 H 705.613 0.944369 1.81389 0
M  V30 7022 H 703.768 -0.486769 3.8433 0
M  V30 7023 H 704.182 1.35861 5.06599 0
M  V30 7024 H 705.656 -0.29233 5.51225 0
M  V30 7025 H 706.133 -1.34393 4.18133 0
M  V30 7026 H 706.739 0.327229 4.24039 0
M  V30 7027 O 705.093 -1.50756 0.579208 0
M  V30 7028 H 705.784 -1.93523 0.0829038 0
M  V30 END ATOM
M  V30 BEGIN BOND
M  V30 END BOND
M  V30 END CTAB
M  END
$$$$
