drugbank_target|Q92598 Heat shock protein 105 kDa (DB12695)
 OpenBabel12092121073D

  0  0  0     0  0            999 V3000
M  V30 BEGIN CTAB
M  V30 COUNTS 13539 13662 0 0 0
M  V30 BEGIN ATOM
M  V30 1 H -0.908 1.98254 -0.117106 0
M  V30 2 N 0 1.576 0 0
M  V30 3 C 0.933 2.03868 1.02534 0
M  V30 4 C 1.911 0.928543 1.3348 0
M  V30 5 O 3.095 1.19667 1.45644 0
M  V30 6 C 0.222 2.43627 2.35294 0
M  V30 7 C -0.732 3.65373 2.2001 0
M  V30 8 S 0.101 5.13292 1.52614 0
M  V30 9 C 1.257 5.56322 2.86805 0
M  V30 10 H 1.49 2.90518 0.631377 0
M  V30 11 H -0.977 1.52953 0.210867 0
M  V30 12 H 0.981 2.67203 3.11629 0
M  V30 13 H -0.358 1.57376 2.7183 0
M  V30 14 H -1.165 3.90944 3.18086 0
M  V30 15 H -1.563 3.418 1.51819 0
M  V30 16 H 0.729 5.58782 3.83104 0
M  V30 17 H 1.672 6.56266 2.65933 0
M  V30 18 H 2.08 4.83886 2.90714 0
M  V30 19 N 1.4781 -0.272755 1.55222 0
M  V30 20 C 2.7031 -1.02683 1.80197 0
M  V30 21 C 3.1281 -1.79142 0.573551 0
M  V30 22 O 2.4861 -1.74917 -0.476849 0
M  V30 23 C 2.5341 -1.9609 3.02624 0
M  V30 24 O 1.6381 -3.04863 2.77727 0
M  V30 25 H 0.9791 -0.293557 0.595584 0
M  V30 26 H 3.5091 -0.30159 2.02365 0
M  V30 27 H 3.5191 -2.38039 3.31363 0
M  V30 28 H 2.1941 -1.39851 3.91682 0
M  V30 29 H 0.7711 -2.67228 2.60084 0
M  V30 30 N 2.9562 -1.48159 -0.537278 0
M  V30 31 C 4.2022 -1.56035 -1.29541 0
M  V30 32 C 4.5352 -0.230377 -1.92829 0
M  V30 33 O 3.8102 0.762952 -1.78911 0
M  V30 34 C 4.0932 -2.69323 -2.39034 0
M  V30 35 C 3.9462 -4.12002 -1.80485 0
M  V30 36 C 5.2652 -2.78408 -3.40847 0
M  V30 37 H 2.3842 -0.567992 -0.469632 0
M  V30 38 H 5.0262 -1.80302 -0.599277 0
M  V30 39 H 3.1762 -2.48763 -2.98412 0
M  V30 40 H 4.8482 -4.43981 -1.25215 0
M  V30 41 H 3.0912 -4.19344 -1.11055 0
M  V30 42 H 3.7622 -4.87077 -2.59731 0
M  V30 43 H 6.2382 -2.97012 -2.91416 0
M  V30 44 H 5.1142 -3.59416 -4.14863 0
M  V30 45 H 5.3752 -1.86269 -4.00944 0
M  V30 46 N 4.4343 0.785586 -1.36625 0
M  V30 47 C 5.6803 1.54591 -1.31261 0
M  V30 48 C 6.0133 1.93906 0.106823 0
M  V30 49 O 5.2883 1.63007 1.06108 0
M  V30 50 C 5.5713 2.82038 -2.23889 0
M  V30 51 C 5.4243 2.49066 -3.74548 0
M  V30 52 C 6.7433 3.83887 -2.15217 0
M  V30 53 H 3.8623 0.560846 -0.478143 0
M  V30 54 H 6.5043 0.902278 -1.67209 0
M  V30 55 H 4.6543 3.36961 -1.93363 0
M  V30 56 H 6.3263 2.00164 -4.15611 0
M  V30 57 H 4.5693 1.81954 -3.93796 0
M  V30 58 H 5.2403 3.40109 -4.34776 0
M  V30 59 H 7.7163 3.38421 -2.42096 0
M  V30 60 H 6.5923 4.70806 -2.82193 0
M  V30 61 H 6.8533 4.27131 -1.14068 0
M  V30 62 N 5.9124 1.20967 1.01018 0
M  V30 63 C 7.1604 1.02172 1.74371 0
M  V30 64 C 7.4814 -0.446414 1.89821 0
M  V30 65 O 6.7514 -1.32234 1.44537 0
M  V30 66 H 5.3314 0.375066 0.646014 0
M  V30 67 H 7.9934 1.52187 1.21758 0
M  V30 68 H 7.0894 1.48538 2.74487 0
M  V30 69 N 7.3905 -1.2043 1.01659 0
M  V30 70 C 8.3205 -2.25466 0.607226 0
M  V30 71 C 9.3015 -1.65853 -0.377716 0
M  V30 72 O 10.4865 -1.92409 -0.263149 0
M  V30 73 C 7.6165 -3.47256 -0.0552949 0
M  V30 74 C 6.5705 -4.19462 0.850632 0
M  V30 75 C 5.8965 -5.34673 0.0538859 0
M  V30 76 C 7.1965 -4.75603 2.15868 0
M  V30 77 H 8.8905 -2.59962 1.48526 0
M  V30 78 H 6.4365 -1.2496 0.715605 0
M  V30 79 H 8.3895 -4.19917 -0.353233 0
M  V30 80 H 7.1135 -3.11924 -0.968045 0
M  V30 81 H 5.7725 -3.48667 1.13257 0
M  V30 82 H 5.4205 -4.95585 -0.860514 0
M  V30 83 H 5.1205 -5.83913 0.657192 0
M  V30 84 H 6.6445 -6.10138 -0.237598 0
M  V30 85 H 8.0585 -5.40083 1.92311 0
M  V30 86 H 6.4555 -5.3528 2.71284 0
M  V30 87 H 7.5255 -3.94346 2.82169 0
M  V30 88 N 8.8686 -0.792821 -1.36206 0
M  V30 89 C 10.1456 -0.290627 -1.93429 0
M  V30 90 C 10.5256 1.21773 -1.72437 0
M  V30 91 O 9.8736 2.0108 -1.08531 0
M  V30 92 C 10.0836 -0.686973 -3.42172 0
M  V30 93 C 11.4316 -0.668643 -4.19302 0
M  V30 94 O 12.4556 -0.627658 -3.50626 0
M  V30 95 O 11.3146 -0.714597 -5.41808 0
M  V30 96 H 8.4086 -0.0727927 -0.82379 0
M  V30 97 H 10.9546 -0.875593 -1.45367 0
M  V30 98 H 9.7266 -1.72711 -3.51122 0
M  V30 99 H 9.3496 -0.0760733 -3.97527 0
M  V30 100 N 10.3467 1.47872 -0.545128 0
M  V30 101 C 11.5927 2.02793 -0.0166104 0
M  V30 102 C 11.9257 1.41987 1.32489 0
M  V30 103 O 11.2007 0.571045 1.85928 0
M  V30 104 C 11.4837 3.59989 0.0893294 0
M  V30 105 C 11.3367 4.3125 -1.27841 0
M  V30 106 C 12.6557 4.32606 0.808724 0
M  V30 107 H 9.7747 0.736962 -0.00751035 0
M  V30 108 H 12.4167 1.76433 -0.705085 0
M  V30 109 H 10.5667 3.82579 0.675681 0
M  V30 110 H 12.2387 4.20035 -1.90704 0
M  V30 111 H 10.4817 3.92076 -1.85632 0
M  V30 112 H 11.1527 5.39736 -1.15713 0
M  V30 113 H 13.6287 4.14936 0.310992 0
M  V30 114 H 12.5047 5.42251 0.851782 0
M  V30 115 H 12.7657 4.00963 1.86229 0
M  V30 116 N 11.8248 0.280983 1.55075 0
M  V30 117 C 13.0728 -0.333455 1.9933 0
M  V30 118 C 13.3938 -1.55937 1.17085 0
M  V30 119 O 12.6638 -1.94143 0.261805 0
M  V30 120 H 11.2438 -0.126197 0.736263 0
M  V30 121 H 13.9058 0.387678 1.91005 0
M  V30 122 H 13.0018 -0.619292 3.05894 0
M  V30 123 N 13.3029 -1.57598 0.00835791 0
M  V30 124 C 14.5279 -1.95617 -0.689103 0
M  V30 125 C 14.9529 -0.883753 -1.66046 0
M  V30 126 O 14.3109 0.157352 -1.80616 0
M  V30 127 C 14.3589 -3.32736 -1.38994 0
M  V30 128 O 13.4629 -3.27631 -2.50463 0
M  V30 129 H 12.8039 -0.638379 -0.182668 0
M  V30 130 H 15.3339 -2.045 0.064036 0
M  V30 131 H 15.3439 -3.68494 -1.75147 0
M  V30 132 H 14.0189 -4.1034 -0.677778 0
M  V30 133 H 12.5959 -3.03561 -2.16576 0
M  V30 134 N 14.781 0.264519 -1.55364 0
M  V30 135 C 15.713 1.34965 -1.85248 0
M  V30 136 C 16.726 1.45136 -0.737525 0
M  V30 137 O 17.915 1.46801 -1.01547 0
M  V30 138 C 15.015 2.73008 -2.00797 0
M  V30 139 C 14.188 2.85324 -3.31525 0
M  V30 140 C 13.247 4.04097 -3.37034 0
M  V30 141 O 12.273 3.94455 -4.10358 0
M  V30 142 N 13.475 5.16458 -2.65049 0
M  V30 143 H 16.24 1.09672 -2.78913 0
M  V30 144 H 13.801 0.454635 -1.55386 0
M  V30 145 H 15.793 3.50772 -2.01844 0
M  V30 146 H 14.363 2.91087 -1.1396 0
M  V30 147 H 13.583 1.94377 -3.42945 0
M  V30 148 H 14.871 2.9049 -4.17724 0
M  V30 149 H 14.269 5.27181 -2.05175 0
M  V30 150 H 12.826 5.92422 -2.71809 0
M  V30 151 N 16.2591 1.48442 0.529413 0
M  V30 152 C 17.4841 1.60406 1.31471 0
M  V30 153 C 17.9091 0.264738 1.86228 0
M  V30 154 O 17.2671 -0.763668 1.64432 0
M  V30 155 C 17.3151 2.65419 2.44101 0
M  V30 156 O 16.4191 2.22618 3.47153 0
M  V30 157 H 15.7601 0.537863 0.389357 0
M  V30 158 H 18.2901 1.94432 0.636965 0
M  V30 159 H 18.3001 2.86709 2.90279 0
M  V30 160 H 16.9751 3.62652 2.03608 0
M  V30 161 H 15.5521 2.11543 3.0709 0
M  V30 162 N 17.7372 -0.778329 1.37039 0
M  V30 163 C 18.9772 -1.54973 1.33276 0
M  V30 164 C 19.3412 -1.91816 -0.0839376 0
M  V30 165 O 20.5422 -2.6767 -0.246228 0
M  V30 166 C 18.8132 -2.78517 2.23971 0
M  V30 167 S 20.3722 -3.6865 2.37997 0
M  V30 168 H 17.1902 -0.530639 0.473226 0
M  V30 169 H 19.7922 -0.915806 1.72723 0
M  V30 170 H 18.4962 -2.4952 3.25835 0
M  V30 171 H 18.0272 -3.46875 1.85584 0
M  V30 172 H 20.0422 -4.70182 1.58567 0
M  V30 173 N 19.2153 -1.21501 -1.00376 0
M  V30 174 C 20.4453 -1.05746 -1.77486 0
M  V30 175 C 20.8533 0.395655 -1.85017 0
M  V30 176 O 20.1963 1.28626 -1.31152 0
M  V30 177 C 20.2583 -1.58092 -3.22873 0
M  V30 178 C 19.9223 -3.06568 -3.38917 0
M  V30 179 C 20.9193 -4.04106 -3.271 0
M  V30 180 C 18.6043 -3.45799 -3.64319 0
M  V30 181 C 20.5983 -5.38862 -3.40451 0
M  V30 182 C 18.2853 -4.80707 -3.77311 0
M  V30 183 C 19.2833 -5.77047 -3.65384 0
M  V30 184 O 18.9713 -7.09507 -3.77961 0
M  V30 185 H 18.7033 -0.371778 -0.564586 0
M  V30 186 H 21.2573 -1.61319 -1.27143 0
M  V30 187 H 19.4873 -0.969163 -3.74358 0
M  V30 188 H 21.1763 -1.38162 -3.81662 0
M  V30 189 H 21.9423 -3.75141 -3.07399 0
M  V30 190 H 17.8213 -2.71344 -3.72684 0
M  V30 191 H 21.3653 -6.14041 -3.31058 0
M  V30 192 H 17.2623 -5.09357 -3.96517 0
M  V30 193 H 18.0303 -7.16935 -3.94901 0
M  V30 194 N 20.6934 1.19889 -1.02296 0
M  V30 195 C 21.9424 1.88743 -0.711257 0
M  V30 196 C 22.2554 1.80112 0.762817 0
M  V30 197 O 23.4614 2.44161 1.18733 0
M  V30 198 C 21.9174 3.38525 -1.22185 0
M  V30 199 C 21.5254 3.55727 -2.72328 0
M  V30 200 C 23.2694 4.12893 -0.985864 0
M  V30 201 C 21.1764 4.99369 -3.16835 0
M  V30 202 H 20.1064 0.706885 -0.262353 0
M  V30 203 H 22.7574 1.35586 -1.23648 0
M  V30 204 H 21.1394 3.91044 -0.624571 0
M  V30 205 H 22.3134 3.13564 -3.3766 0
M  V30 206 H 20.6284 2.94739 -2.9414 0
M  V30 207 H 23.2254 5.18813 -1.29374 0
M  V30 208 H 23.5684 4.16228 0.0775055 0
M  V30 209 H 24.1014 3.66494 -1.54684 0
M  V30 210 H 20.8404 5.01193 -4.22476 0
M  V30 211 H 20.3604 5.42317 -2.56228 0
M  V30 212 H 22.0394 5.67988 -3.09837 0
M  V30 213 N 22.1715 0.800033 1.35784 0
M  V30 214 C 23.1345 0.211565 2.28221 0
M  V30 215 C 24.1345 -0.59728 1.49296 0
M  V30 216 O 25.3245 -0.416721 1.69142 0
M  V30 217 C 22.4565 -0.705846 3.33513 0
M  V30 218 H 23.6495 1.02677 2.81776 0
M  V30 219 H 21.2025 0.570211 1.45528 0
M  V30 220 H 21.9375 -1.54498 2.85133 0
M  V30 221 H 21.7225 -0.127655 3.91892 0
M  V30 222 H 23.2125 -1.11211 4.02519 0
M  V30 223 N 23.6496 -1.47581 0.552962 0
M  V30 224 C 24.8956 -2.02782 0.0273648 0
M  V30 225 C 25.2286 -1.42687 -1.31734 0
M  V30 226 O 24.5036 -0.580897 -1.85623 0
M  V30 227 C 24.7866 -3.60031 -0.0702371 0
M  V30 228 C 24.6396 -4.30566 1.30126 0
M  V30 229 C 25.9586 -4.33028 -0.785771 0
M  V30 230 H 23.0776 -0.736912 0.0114185 0
M  V30 231 H 25.7196 -1.76056 0.714432 0
M  V30 232 H 23.8696 -3.82932 -0.655382 0
M  V30 233 H 25.5416 -4.19018 1.92929 0
M  V30 234 H 23.7846 -3.91086 1.87709 0
M  V30 235 H 24.4556 -5.39114 1.18573 0
M  V30 236 H 26.9316 -4.15095 -0.288982 0
M  V30 237 H 25.8076 -5.42695 -0.823013 0
M  V30 238 H 26.0686 -4.01945 -1.841 0
M  V30 239 N 25.1277 -0.289203 -1.54924 0
M  V30 240 C 26.0907 0.579144 -2.21762 0
M  V30 241 C 27.0907 1.07047 -1.1999 0
M  V30 242 O 28.2807 0.968384 -1.44803 0
M  V30 243 C 25.4127 1.80055 -2.8947 0
M  V30 244 H 26.6057 -0.00464908 -2.999 0
M  V30 245 H 24.1587 -0.0399306 -1.56249 0
M  V30 246 H 24.8937 2.42449 -2.15381 0
M  V30 247 H 24.6787 1.45602 -3.64064 0
M  V30 248 H 26.1687 2.41773 -3.40493 0
M  V30 249 N 26.6058 1.57591 -0.0167156 0
M  V30 250 C 28.0218 1.55946 0.339557 0
M  V30 251 C 28.2218 1.02109 1.73713 0
M  V30 252 O 27.2778 0.662303 2.43659 0
M  V30 253 C 28.5908 3.00037 0.199499 0
M  V30 254 C 30.1388 3.11805 0.273193 0
M  V30 255 C 30.6138 4.57713 0.162068 0
M  V30 256 N 32.1048 4.6268 0.219444 0
M  V30 257 C 32.8398 5.73185 0.157054 0
M  V30 258 N 32.3358 6.92786 0.0442936 0
M  V30 259 N 34.1288 5.61707 0.21014 0
M  V30 260 H 26.2798 1.90921 -0.930758 0
M  V30 261 H 28.5428 0.877674 -0.358319 0
M  V30 262 H 28.2488 3.4333 -0.76273 0
M  V30 263 H 28.1228 3.64387 0.974786 0
M  V30 264 H 30.5098 2.68433 1.22587 0
M  V30 265 H 30.5908 2.50201 -0.532256 0
M  V30 266 H 30.2348 5.01763 -0.78714 0
M  V30 267 H 30.1648 5.17283 0.986222 0
M  V30 268 H 32.6558 3.76649 0.307246 0
M  V30 269 H 32.9688 7.728 0.00304069 0
M  V30 270 H 31.3138 6.94999 0.00968457 0
M  V30 271 H 34.5048 4.6716 0.296546 0
M  V30 272 H 34.6778 6.47807 0.158054 0
M  V30 273 N 28.0839 -0.256276 1.55502 0
M  V30 274 C 29.0469 -1.30047 1.88734 0
M  V30 275 C 30.0469 -1.4154 0.763086 0
M  V30 276 O 31.2369 -1.40403 1.03115 0
M  V30 277 C 28.3689 -2.67953 2.10747 0
M  V30 278 H 29.5619 -1.01802 2.82093 0
M  V30 279 H 27.1149 -0.495134 1.4825 0
M  V30 280 H 27.8499 -3.01351 1.19825 0
M  V30 281 H 27.6349 -2.60993 2.92617 0
M  V30 282 H 29.1249 -3.43368 2.37673 0
M  V30 283 N 29.562 -1.4872 -0.521534 0
M  V30 284 C 30.81 -1.56857 -1.27437 0
M  V30 285 C 31.131 -0.247982 -1.93417 0
M  V30 286 O 30.401 0.731151 -1.81744 0
M  V30 287 H 28.981 -0.577885 -0.473347 0
M  V30 288 H 31.643 -1.85233 -0.606205 0
M  V30 289 H 30.739 -2.35402 -2.0492 0
M  V30 290 N 31.0401 0.771051 -1.3745 0
M  V30 291 C 32.2881 1.52661 -1.32435 0
M  V30 292 C 32.6091 1.9479 0.0905024 0
M  V30 293 O 31.8791 1.66348 1.03466 0
M  V30 294 H 30.4591 0.566218 -0.487244 0
M  V30 295 H 33.1211 0.917636 -1.71946 0
M  V30 296 H 32.2171 2.42568 -1.96385 0
M  V30 297 N 32.5182 1.22032 0.997298 0
M  V30 298 C 33.7672 1.03637 1.73038 0
M  V30 299 C 34.0802 -0.429475 1.90827 0
M  V30 300 O 35.2862 -0.732995 2.61418 0
M  V30 301 C 33.7422 1.80582 3.11317 0
M  V30 302 C 33.3502 3.31387 3.01474 0
M  V30 303 C 35.0942 1.70621 3.88701 0
M  V30 304 C 33.0012 4.00791 4.3488 0
M  V30 305 H 31.9312 0.384179 0.648785 0
M  V30 306 H 34.5822 1.4584 1.11368 0
M  V30 307 H 32.9642 1.31175 3.73643 0
M  V30 308 H 34.1382 3.88155 2.4834 0
M  V30 309 H 32.4532 3.41976 2.37575 0
M  V30 310 H 35.0502 2.19799 4.87434 0
M  V30 311 H 35.3932 0.665823 4.10941 0
M  V30 312 H 35.9262 2.17547 3.33044 0
M  V30 313 H 32.6652 5.05064 4.1784 0
M  V30 314 H 32.1852 3.48811 4.87945 0
M  V30 315 H 33.8642 4.06139 5.03647 0
M  V30 316 N 33.9963 -1.19345 1.0293 0
M  V30 317 C 34.9063 -2.26245 0.620515 0
M  V30 318 C 35.9223 -1.70486 -0.347928 0
M  V30 319 O 37.0983 -2.00347 -0.205704 0
M  V30 320 C 34.1633 -3.46693 -0.0218957 0
M  V30 321 C 33.2243 -4.17632 0.994102 0
M  V30 322 C 32.4573 -5.32329 0.382253 0
M  V30 323 O 32.6803 -5.64552 -0.814676 0
M  V30 324 O 31.6143 -5.91664 1.10531 0
M  V30 325 H 35.4403 -2.63453 1.51083 0
M  V30 326 H 33.0253 -1.26207 0.799513 0
M  V30 327 H 34.9073 -4.19683 -0.380072 0
M  V30 328 H 33.5823 -3.11333 -0.886209 0
M  V30 329 H 32.4893 -3.4676 1.40387 0
M  V30 330 H 33.8223 -4.56964 1.8288 0
M  V30 331 N 35.4744 -0.807222 -1.35358 0
M  V30 332 C 36.7024 -0.400377 -2.02989 0
M  V30 333 C 37.1174 0.988859 -1.60832 0
M  V30 334 O 36.4744 1.63729 -0.806175 0
M  V30 335 C 36.5254 -0.474867 -3.58368 0
M  V30 336 O 36.2464 -1.80933 -3.98992 0
M  V30 337 C 37.7474 -0.0609112 -4.43258 0
M  V30 338 H 34.9674 -0.162587 -0.651004 0
M  V30 339 H 37.5114 -1.09102 -1.72965 0
M  V30 340 H 35.6664 0.167534 -3.87038 0
M  V30 341 H 36.0804 -1.77256 -4.9364 0
M  V30 342 H 37.5544 -0.164145 -5.51756 0
M  V30 343 H 38.0314 0.993831 -4.27808 0
M  V30 344 H 38.6374 -0.676492 -4.19885 0
M  V30 345 N 36.9525 1.47285 -0.560781 0
M  V30 346 C 38.2015 2.01668 -0.035895 0
M  V30 347 C 38.5145 1.44021 1.32353 0
M  V30 348 O 39.7205 1.90088 1.93853 0
M  V30 349 C 38.1765 3.59897 -0.0136659 0
M  V30 350 C 37.7845 4.26536 -1.37006 0
M  V30 351 C 39.5285 4.22017 0.458425 0
M  V30 352 C 37.4355 5.76782 -1.30675 0
M  V30 353 H 36.3655 0.753938 -0.00964879 0
M  V30 354 H 39.0165 1.69243 -0.709166 0
M  V30 355 H 37.3985 3.89301 0.725325 0
M  V30 356 H 38.5725 4.0877 -2.12705 0
M  V30 357 H 36.8875 3.76419 -1.78038 0
M  V30 358 H 39.4845 5.32124 0.524247 0
M  V30 359 H 39.8275 3.89437 1.4712 0
M  V30 360 H 40.3605 3.97159 -0.225818 0
M  V30 361 H 37.0995 6.13988 -2.29564 0
M  V30 362 H 36.6195 5.96875 -0.591622 0
M  V30 363 H 38.2985 6.39063 -1.01033 0
M  V30 364 N 38.4306 0.297415 1.54768 0
M  V30 365 C 39.3936 -0.567375 2.22066 0
M  V30 366 C 40.3936 -1.06409 1.20556 0
M  V30 367 O 41.5836 -0.960691 1.45315 0
M  V30 368 C 38.7156 -1.78517 2.90421 0
M  V30 369 H 39.9086 0.0205534 2.99893 0
M  V30 370 H 37.4616 0.0482163 1.56226 0
M  V30 371 H 38.1966 -2.41303 2.16664 0
M  V30 372 H 37.9816 -1.43669 3.64831 0
M  V30 373 H 39.4716 -2.39964 3.41771 0
M  V30 374 N 39.9087 -1.5758 0.0250728 0
M  V30 375 C 40.8567 -2.11125 -0.97617 0
M  V30 376 C 41.8507 -1.03689 -1.33959 0
M  V30 377 O 43.0567 -1.22128 -1.3223 0
M  V30 378 H 39.4317 -0.674468 -0.332561 0
M  V30 379 H 41.4027 -2.94194 -0.499223 0
M  V30 380 C 40.1517 -2.65017 -2.2508 0
M  V30 381 H 39.4747 -3.47333 -1.9799 0
M  V30 382 H 40.9147 -3.06133 -2.93357 0
M  V30 383 C 39.3737 -1.57574 -2.97779 0
M  V30 384 O 39.9037 -0.973203 -3.89733 0
M  V30 385 N 38.1097 -1.29716 -2.60043 0
M  V30 386 H 37.6567 -1.789 -1.85345 0
M  V30 387 H 37.6147 -0.58051 -3.08994 0
M  V30 388 N 41.3868 0.248026 -1.55636 0
M  V30 389 C 42.2968 1.32859 -1.93354 0
M  V30 390 C 43.3128 1.52719 -0.833838 0
M  V30 391 O 44.4888 1.66363 -1.13513 0
M  V30 392 C 41.5538 2.66337 -2.21958 0
M  V30 393 C 40.6148 2.55008 -3.45354 0
M  V30 394 C 39.8478 3.82121 -3.72584 0
M  V30 395 O 40.0708 4.83951 -3.01907 0
M  V30 396 O 39.0048 3.80822 -4.6611 0
M  V30 397 H 42.8308 1.03862 -2.85388 0
M  V30 398 H 40.4158 0.448686 -1.42503 0
M  V30 399 H 42.2978 3.45216 -2.4167 0
M  V30 400 H 40.9728 2.95068 -1.33103 0
M  V30 401 H 39.8798 1.7442 -3.30951 0
M  V30 402 H 41.2128 2.31222 -4.34508 0
M  V30 403 N 42.8649 1.48995 0.513639 0
M  V30 404 C 44.1119 1.57843 1.26854 0
M  V30 405 C 44.4399 0.259501 1.92761 0
M  V30 406 O 43.6949 -0.75159 1.80692 0
M  V30 407 C 43.9939 2.67756 2.36731 0
M  V30 408 C 43.6599 4.09669 1.88368 0
M  V30 409 C 42.3219 4.48291 1.74896 0
M  V30 410 C 44.6739 4.98537 1.52021 0
M  V30 411 C 42.0019 5.73568 1.23438 0
M  V30 412 C 44.3539 6.24319 1.0202 0
M  V30 413 C 43.0179 6.61783 0.871778 0
M  V30 414 H 42.2879 0.577587 0.464192 0
M  V30 415 H 44.9349 1.82778 0.571366 0
M  V30 416 H 43.2399 2.36743 3.12185 0
M  V30 417 H 44.9369 2.71813 2.9482 0
M  V30 418 H 41.5269 3.79176 1.99808 0
M  V30 419 H 45.7109 4.69363 1.61281 0
M  V30 420 H 40.9669 6.01304 1.10648 0
M  V30 421 H 45.1409 6.92566 0.729722 0
M  V30 422 H 42.7679 7.5874 0.470852 0
M  V30 423 N 44.343 -0.763751 1.37857 0
M  V30 424 C 45.568 -1.55805 1.36893 0
M  V30 425 C 45.993 -1.88054 -0.0416135 0
M  V30 426 O 45.351 -1.49825 -1.02089 0
M  V30 427 C 45.399 -2.84012 2.22192 0
M  V30 428 O 44.503 -3.78732 1.63204 0
M  V30 429 H 43.844 -0.471638 0.46739 0
M  V30 430 H 46.374 -0.944657 1.81487 0
M  V30 431 H 46.384 -3.33037 2.35691 0
M  V30 432 H 45.059 -2.59869 3.24716 0
M  V30 433 H 43.636 -3.37402 1.58791 0
M  V30 434 N 45.8211 -1.22559 -0.990812 0
M  V30 435 C 47.0981 -0.959875 -1.70428 0
M  V30 436 C 47.4781 0.524455 -2.04481 0
M  V30 437 O 46.8261 1.49302 -1.72977 0
M  V30 438 C 47.0361 -1.85955 -2.95333 0
M  V30 439 C 48.3841 -2.11687 -3.68068 0
M  V30 440 O 49.4081 -1.8342 -3.05345 0
M  V30 441 O 48.2671 -2.59572 -4.80921 0
M  V30 442 H 45.3611 -0.361154 -0.743974 0
M  V30 443 H 47.9071 -1.33554 -1.04697 0
M  V30 444 H 46.6791 -2.86346 -2.66687 0
M  V30 445 H 46.3021 -1.4856 -3.68803 0
M  V30 446 N 47.2992 1.18797 -1.03562 0
M  V30 447 C 48.7152 1.40671 -0.753917 0
M  V30 448 C 48.9152 1.9043 0.658686 0
M  V30 449 O 47.9712 2.08538 1.42366 0
M  V30 450 C 49.2842 2.41192 -1.79574 0
M  V30 451 C 50.8322 2.54928 -1.81606 0
M  V30 452 C 51.3072 3.58709 -2.84766 0
M  V30 453 N 52.7982 3.66212 -2.83625 0
M  V30 454 C 53.5332 4.46225 -3.60098 0
M  V30 455 N 53.0292 5.29888 -4.46308 0
M  V30 456 N 54.8222 4.40939 -3.4861 0
M  V30 457 H 46.9732 0.848221 -1.94728 0
M  V30 458 H 49.2362 0.435081 -0.842264 0
M  V30 459 H 48.9422 2.11669 -2.80872 0
M  V30 460 H 48.8162 3.40467 -1.62365 0
M  V30 461 H 51.2032 2.83771 -0.809817 0
M  V30 462 H 51.2842 1.55784 -2.02891 0
M  V30 463 H 50.9282 3.30607 -3.85566 0
M  V30 464 H 50.8582 4.57519 -2.60737 0
M  V30 465 H 53.3492 3.06466 -2.21105 0
M  V30 466 H 53.6622 5.88078 -5.01382 0
M  V30 467 H 52.0072 5.29326 -4.50377 0
M  V30 468 H 55.1982 3.74624 -2.80668 0
M  V30 469 H 55.3712 5.03056 -4.08459 0
M  V30 470 N 48.7773 0.814389 1.34928 0
M  V30 471 C 50.0173 0.404165 2.00364 0
M  V30 472 C 50.3813 -1.01166 1.63185 0
M  V30 473 O 51.5823 -1.52431 2.21401 0
M  V30 474 C 49.8533 0.590718 3.52484 0
M  V30 475 S 51.4123 0.272075 4.37956 0
M  V30 476 H 48.2303 0.15311 0.694319 0
M  V30 477 H 50.8323 1.05834 1.64376 0
M  V30 478 H 49.5363 1.62099 3.77031 0
M  V30 479 H 49.0673 -0.0785013 3.93322 0
M  V30 480 H 51.0823 -0.917405 4.87645 0
M  V30 481 N 50.2554 -1.46986 0.568584 0
M  V30 482 C 51.4834 -2.0683 0.0539956 0
M  V30 483 C 51.8984 -1.41953 -1.24478 0
M  V30 484 O 51.2554 -0.519933 -1.74937 0
M  V30 485 C 51.3064 -3.61254 -0.133362 0
M  V30 486 O 51.0274 -4.237 1.11399 0
M  V30 487 C 52.5284 -4.37992 -0.683927 0
M  V30 488 H 49.7484 -0.669058 0.0510141 0
M  V30 489 H 52.2924 -1.88824 0.785234 0
M  V30 490 H 50.4474 -3.78735 -0.81477 0
M  V30 491 H 50.8614 -5.16388 0.91888 0
M  V30 492 H 52.3354 -5.46684 -0.764263 0
M  V30 493 H 52.8124 -4.05058 -1.69778 0
M  V30 494 H 53.4184 -4.25283 -0.0378494 0
M  V30 495 N 51.7335 -0.305618 -1.54608 0
M  V30 496 C 53.1445 0.186098 -1.8577 0
M  V30 497 C 53.4955 1.53058 -1.22751 0
M  V30 498 O 52.6205 2.09888 -0.526893 0
M  V30 499 C 53.2155 0.344449 -3.37044 0
M  V30 500 C 51.7745 0.780384 -3.68221 0
M  V30 501 C 50.9215 -0.108554 -2.77087 0
M  V30 502 H 53.8725 -0.526485 -1.49712 0
M  V30 503 H 53.8935 1.17828 -3.61796 0
M  V30 504 H 53.4055 -0.634235 -3.82883 0
M  V30 505 H 51.5065 1.76945 -3.27904 0
M  V30 506 H 51.6195 0.596572 -4.75371 0
M  V30 507 H 49.9835 0.412931 -2.5133 0
M  V30 508 H 50.7665 -1.08368 -3.25747 0
M  V30 509 N 53.2116 1.57565 -0.0334293 0
M  V30 510 C 54.4366 1.96689 0.657895 0
M  V30 511 C 54.8616 0.910057 1.64619 0
M  V30 512 O 54.2196 -0.128598 1.80843 0
M  V30 513 C 54.2676 3.34905 1.33683 0
M  V30 514 O 53.3716 3.31574 2.45219 0
M  V30 515 H 52.7126 0.641205 0.172489 0
M  V30 516 H 55.2426 2.04372 -0.0965621 0
M  V30 517 H 55.2526 3.71234 1.69262 0
M  V30 518 H 53.9276 4.11366 0.612411 0
M  V30 519 H 52.5046 3.06968 2.11719 0
M  V30 520 N 54.6897 -0.239769 1.55765 0
M  V30 521 C 55.9357 -0.968234 1.78194 0
M  V30 522 C 56.2687 -1.84701 0.599938 0
M  V30 523 O 55.5437 -1.9031 -0.401524 0
M  V30 524 C 55.8267 -1.8227 3.10564 0
M  V30 525 C 55.6797 -0.971633 4.3918 0
M  V30 526 C 56.9987 -2.80388 3.39221 0
M  V30 527 H 54.1177 -0.350572 0.648281 0
M  V30 528 H 56.7597 -0.238259 1.885 0
M  V30 529 H 54.9097 -2.44507 3.01908 0
M  V30 530 H 56.5817 -0.367408 4.59835 0
M  V30 531 H 54.8247 -0.276276 4.32919 0
M  V30 532 H 55.4957 -1.60346 5.28198 0
M  V30 533 H 57.9717 -2.28287 3.47885 0
M  V30 534 H 56.8477 -3.3729 4.33044 0
M  V30 535 H 57.1087 -3.57212 2.60484 0
M  V30 536 N 56.1678 -1.49265 -0.50573 0
M  V30 537 C 57.4168 -1.57761 -1.25675 0
M  V30 538 C 57.7298 -0.267371 -1.93764 0
M  V30 539 O 58.9358 -0.230827 -2.70517 0
M  V30 540 C 57.3918 -2.78332 -2.28165 0
M  V30 541 C 56.9998 -4.16096 -1.66037 0
M  V30 542 C 58.7438 -2.96155 -3.04125 0
M  V30 543 C 56.6508 -5.27895 -2.6661 0
M  V30 544 H 55.5808 -0.587391 -0.472745 0
M  V30 545 H 58.2318 -1.75644 -0.53118 0
M  V30 546 H 56.6138 -2.53934 -3.03865 0
M  V30 547 H 57.7878 -4.50612 -0.963622 0
M  V30 548 H 56.1028 -4.03591 -1.02484 0
M  V30 549 H 58.6998 -3.76849 -3.79327 0
M  V30 550 H 59.0428 -2.06534 -3.61455 0
M  V30 551 H 59.5758 -3.2057 -2.35541 0
M  V30 552 H 56.3148 -6.1956 -2.14068 0
M  V30 553 H 55.8348 -4.97839 -3.34539 0
M  V30 554 H 57.5138 -5.57031 -3.29129 0
M  V30 555 N 57.6459 0.756429 -1.3826 0
M  V30 556 C 58.8709 1.55077 -1.37717 0
M  V30 557 C 59.2959 1.88073 0.03164 0
M  V30 558 O 58.6539 1.50364 1.01293 0
M  V30 559 C 58.7019 2.8283 -2.23695 0
M  V30 560 O 57.8059 3.77862 -1.6521 0
M  V30 561 H 57.1469 0.469152 -0.469885 0
M  V30 562 H 59.6769 0.935019 -1.81985 0
M  V30 563 H 59.6869 3.31783 -2.37453 0
M  V30 564 H 58.3619 2.58144 -3.2609 0
M  V30 565 H 56.9389 3.36555 -1.60578 0
M  V30 566 N 59.124 1.23083 0.984299 0
M  V30 567 C 60.371 1.06057 1.72505 0
M  V30 568 C 60.699 -0.403105 1.90277 0
M  V30 569 O 59.954 -1.3149 1.44944 0
M  V30 570 C 60.253 1.72673 3.1292 0
M  V30 571 C 59.919 3.22586 3.15038 0
M  V30 572 C 58.581 3.63489 3.15324 0
M  V30 573 C 60.933 4.185 3.10657 0
M  V30 574 C 58.261 4.98772 3.08939 0
M  V30 575 C 60.613 5.53769 3.05814 0
M  V30 576 C 59.277 5.94041 3.04419 0
M  V30 577 H 58.547 0.388091 0.631242 0
M  V30 578 H 61.194 1.52963 1.15215 0
M  V30 579 H 59.499 1.18116 3.73572 0
M  V30 580 H 61.196 1.56982 3.68996 0
M  V30 581 H 57.786 2.90022 3.15571 0
M  V30 582 H 61.97 3.87911 3.09579 0
M  V30 583 H 57.226 5.29193 3.0621 0
M  V30 584 H 61.4 6.27808 3.0138 0
M  V30 585 H 59.027 6.98833 2.99227 0
M  V30 586 N 60.6021 -1.18246 1.0419 0
M  V30 587 C 61.8501 -1.87886 0.744543 0
M  V30 588 C 62.1711 -1.8082 -0.730006 0
M  V30 589 O 61.4411 -1.22736 -1.52685 0
M  V30 590 H 60.0211 -0.695556 0.272417 0
M  V30 591 H 62.6831 -1.43494 1.31892 0
M  V30 592 H 61.7791 -2.9389 1.05049 0
M  V30 593 N 62.0802 -0.821533 -1.34494 0
M  V30 594 C 63.3052 -0.420873 -2.03085 0
M  V30 595 C 63.7302 0.964915 -1.61465 0
M  V30 596 O 63.0882 1.62763 -0.798607 0
M  V30 597 C 63.1362 -0.529414 -3.56693 0
M  V30 598 O 62.2402 0.451302 -4.09923 0
M  V30 599 H 61.5812 -0.173489 -0.640935 0
M  V30 600 H 64.1112 -1.11157 -1.71771 0
M  V30 601 H 64.1212 -0.404671 -4.05988 0
M  V30 602 H 62.7962 -1.54014 -3.86332 0
M  V30 603 H 61.3732 0.285558 -3.71805 0
M  V30 604 N 63.5583 1.46682 -0.576371 0
M  V30 605 C 64.5053 2.30241 0.160499 0
M  V30 606 C 65.4753 1.40233 0.890162 0
M  V30 607 O 66.6603 1.69186 0.882084 0
M  V30 608 C 63.8003 3.24578 1.1723 0
M  V30 609 C 62.9133 4.29684 0.446736 0
M  V30 610 C 62.0483 5.11154 1.44551 0
M  V30 611 C 61.0873 6.08015 0.70599 0
M  V30 612 N 60.2243 6.82376 1.65251 0
M  V30 613 H 65.0643 2.92727 -0.558127 0
M  V30 614 H 62.6013 1.44272 -0.287056 0
M  V30 615 H 64.5593 3.77711 1.77172 0
M  V30 616 H 63.1893 2.63916 1.85872 0
M  V30 617 H 62.2413 3.79458 -0.267594 0
M  V30 618 H 63.5533 4.98626 -0.131686 0
M  V30 619 H 62.7073 5.68533 2.11791 0
M  V30 620 H 61.4463 4.42158 2.05786 0
M  V30 621 H 60.4513 5.49796 0.0197725 0
M  V30 622 H 61.6763 6.79028 0.09912 0
M  V30 623 H 59.6223 6.16094 2.25308 0
M  V30 624 H 59.5393 7.47556 1.12673 0
M  V30 625 H 60.8073 7.44316 2.31546 0
M  V30 626 N 65.0364 0.313813 1.54444 0
M  V30 627 C 65.9844 -0.572171 2.25453 0
M  V30 628 C 66.9784 -1.12657 1.2651 0
M  V30 629 O 68.1844 -1.07573 1.44319 0
M  V30 630 H 64.5594 -0.203146 0.724041 0
M  V30 631 H 66.5304 0.0491145 2.9836 0
M  V30 632 C 65.2794 -1.72626 3.0182 0
M  V30 633 H 64.6024 -1.30891 3.77767 0
M  V30 634 H 66.0424 -2.32199 3.54767 0
M  V30 635 C 64.5014 -2.63806 2.09542 0
M  V30 636 O 65.0314 -3.65256 1.67185 0
M  V30 637 N 63.2374 -2.31824 1.75232 0
M  V30 638 H 62.7844 -1.49368 2.09873 0
M  V30 639 H 62.7424 -2.93095 1.13767 0
M  V30 640 N 66.5145 -1.57545 0.0417849 0
M  V30 641 C 67.9305 -1.56467 -0.314704 0
M  V30 642 C 68.1305 -1.04859 -1.72066 0
M  V30 643 O 67.1865 -0.700983 -2.42575 0
M  V30 644 C 68.4995 -3.00317 -0.15174 0
M  V30 645 C 70.0475 -3.12201 -0.223553 0
M  V30 646 C 70.5225 -4.57913 -0.0892295 0
M  V30 647 N 72.0135 -4.6297 -0.145808 0
M  V30 648 C 72.7485 -5.73362 -0.0658459 0
M  V30 649 N 72.2445 -6.92769 0.0659282 0
M  V30 650 N 74.0375 -5.6197 -0.12075 0
M  V30 651 H 66.1885 -1.89416 0.961014 0
M  V30 652 H 68.4515 -0.871862 0.372237 0
M  V30 653 H 68.1575 -3.42073 0.817254 0
M  V30 654 H 68.0315 -3.65892 -0.916692 0
M  V30 655 H 70.4185 -2.70349 -1.18301 0
M  V30 656 H 70.4995 -2.49323 0.571994 0
M  V30 657 H 70.1435 -5.00448 0.866867 0
M  V30 658 H 70.0735 -5.18786 -0.903802 0
M  V30 659 H 72.5645 -3.7709 -0.247286 0
M  V30 660 H 72.8775 -7.72707 0.119905 0
M  V30 661 H 71.2225 -6.94927 0.100885 0
M  V30 662 H 74.4135 -4.67572 -0.222187 0
M  V30 663 H 74.5865 -6.47977 -0.0549735 0
M  V30 664 N 67.9926 0.231505 -1.5589 0
M  V30 665 C 69.2206 0.974505 -1.82513 0
M  V30 666 C 69.6356 1.78344 -0.619591 0
M  V30 667 O 68.9926 1.77792 0.411848 0
M  V30 668 C 69.0436 1.90007 -3.07538 0
M  V30 669 O 68.7646 1.12385 -4.2344 0
M  V30 670 C 70.2656 2.75779 -3.47075 0
M  V30 671 H 67.4856 0.286065 -0.606966 0
M  V30 672 H 70.0296 0.249739 -2.02969 0
M  V30 673 H 68.1846 2.57891 -2.89086 0
M  V30 674 H 68.5986 1.75125 -4.944 0
M  V30 675 H 70.0726 3.36443 -4.37619 0
M  V30 676 H 70.5496 3.47672 -2.68367 0
M  V30 677 H 71.1556 2.13323 -3.67931 0
M  V30 678 N 69.4707 1.49531 0.497807 0
M  V30 679 C 70.7197 1.58426 1.24837 0
M  V30 680 C 71.0327 0.277643 1.93619 0
M  V30 681 O 72.2387 0.24517 2.70391 0
M  V30 682 C 70.6947 2.79538 2.26686 0
M  V30 683 C 70.3027 4.16971 1.63828 0
M  V30 684 C 72.0467 2.97764 3.0255 0
M  V30 685 C 69.9537 5.29301 2.63807 0
M  V30 686 H 68.8837 0.58989 0.469623 0
M  V30 687 H 71.5347 1.75923 0.521857 0
M  V30 688 H 69.9167 2.55542 3.02514 0
M  V30 689 H 71.0907 4.51116 0.939711 0
M  V30 690 H 69.4057 4.04129 1.00342 0
M  V30 691 H 72.0027 3.78856 3.77323 0
M  V30 692 H 72.3457 2.08448 3.60354 0
M  V30 693 H 72.8787 3.21815 2.33838 0
M  V30 694 H 69.6177 6.20687 2.10779 0
M  V30 695 H 69.1377 4.99606 3.31894 0
M  V30 696 H 70.8167 5.58768 3.2617 0
M  V30 697 N 70.9488 -0.749086 1.3866 0
M  V30 698 C 72.1968 -1.50535 1.34847 0
M  V30 699 C 72.5178 -1.94909 -0.0595016 0
M  V30 700 O 71.7878 -1.67973 -1.00806 0
M  V30 701 H 70.3678 -0.558395 0.49619 0
M  V30 702 H 73.0298 -0.890165 1.73384 0
M  V30 703 H 72.1258 -2.39413 2.00219 0
M  V30 704 N 72.4269 -1.23603 -0.977757 0
M  V30 705 C 73.6729 -1.07129 -1.72195 0
M  V30 706 C 74.0059 0.390501 -1.90233 0
M  V30 707 O 73.2809 1.28902 -1.45653 0
M  V30 708 C 73.5639 -1.80031 -3.11867 0
M  V30 709 C 73.4169 -3.33899 -3.01383 0
M  V30 710 C 74.7359 -1.56492 -4.11337 0
M  V30 711 H 71.8549 -0.390571 -0.624999 0
M  V30 712 H 74.4969 -1.52142 -1.13811 0
M  V30 713 H 72.6469 -1.41768 -3.6171 0
M  V30 714 H 74.3189 -3.81699 -2.59043 0
M  V30 715 H 72.5619 -3.62796 -2.37827 0
M  V30 716 H 73.2329 -3.801 -4.00285 0
M  V30 717 H 75.7089 -1.89757 -3.70313 0
M  V30 718 H 74.5849 -2.09973 -5.07151 0
M  V30 719 H 74.8459 -0.500874 -4.39254 0
M  V30 720 N 73.905 1.17692 -1.04816 0
M  V30 721 C 74.868 2.19787 -0.650117 0
M  V30 722 C 75.868 1.58044 0.296427 0
M  V30 723 O 77.058 1.74012 0.0808097 0
M  V30 724 C 74.19 3.40869 0.0456987 0
M  V30 725 H 75.383 2.56516 -1.5537 0
M  V30 726 H 72.936 1.31708 -0.841594 0
M  V30 727 H 73.671 3.09681 0.962726 0
M  V30 728 H 73.456 3.86928 -0.634727 0
M  V30 729 H 74.946 4.16445 0.310432 0
M  V30 730 N 75.3831 0.828654 1.34056 0
M  V30 731 C 76.3461 0.259927 2.27721 0
M  V30 732 C 77.3461 -0.565478 1.50529 0
M  V30 733 O 78.5361 -0.38075 1.69988 0
M  V30 734 C 75.6681 -0.634944 3.34935 0
M  V30 735 H 76.8611 1.0863 2.79534 0
M  V30 736 H 74.4141 0.600951 1.44285 0
M  V30 737 H 75.1491 -1.48416 2.88346 0
M  V30 738 H 74.9341 -0.0444999 3.92075 0
M  V30 739 H 76.4241 -1.02648 4.04788 0
M  V30 740 N 76.8612 -1.46375 0.584142 0
M  V30 741 C 77.8082 -2.30323 -0.148286 0
M  V30 742 C 78.7782 -1.40703 -0.882713 0
M  V30 743 O 79.9632 -1.69651 -0.873099 0
M  V30 744 C 77.1032 -3.25196 -1.15507 0
M  V30 745 C 76.2162 -4.29915 -0.423943 0
M  V30 746 C 75.3512 -5.11914 -1.41838 0
M  V30 747 C 74.3902 -6.08381 -0.673736 0
M  V30 748 N 73.5272 -6.83242 -1.6163 0
M  V30 749 H 78.3672 -2.92427 0.573644 0
M  V30 750 H 75.9042 -1.44118 0.294703 0
M  V30 751 H 77.8622 -3.78646 -1.75166 0
M  V30 752 H 76.4922 -2.64898 -1.8447 0
M  V30 753 H 75.5442 -3.7931 0.287714 0
M  V30 754 H 76.8562 -4.98549 0.158128 0
M  V30 755 H 76.0102 -5.69648 -2.08773 0
M  V30 756 H 74.7492 -4.43243 -2.03438 0
M  V30 757 H 73.7542 -5.49799 0.00938483 0
M  V30 758 H 74.9792 -6.79071 -0.0631082 0
M  V30 759 H 72.9252 -6.1728 -2.22038 0
M  V30 760 H 72.8422 -7.48144 -1.08707 0
M  V30 761 H 74.1102 -7.45534 -2.27596 0
M  V30 762 N 78.3393 -0.321999 -1.54275 0
M  V30 763 C 79.2873 0.560206 -2.25753 0
M  V30 764 C 80.2813 1.11984 -1.27106 0
M  V30 765 O 81.4873 1.06806 -1.44888 0
M  V30 766 H 77.8623 0.199304 -0.725108 0
M  V30 767 H 79.8333 -0.0649365 -2.98329 0
M  V30 768 C 78.5823 1.71023 -3.02731 0
M  V30 769 H 77.9053 1.28885 -3.78456 0
M  V30 770 H 79.3453 2.30314 -3.55993 0
M  V30 771 C 77.8043 2.62692 -2.10938 0
M  V30 772 O 78.3343 3.64364 -1.6912 0
M  V30 773 N 76.5403 2.30891 -1.76459 0
M  V30 774 H 76.0873 1.48253 -2.10663 0
M  V30 775 H 76.0453 2.92487 -1.1532 0
M  V30 776 N 79.8174 1.5752 -0.0501392 0
M  V30 777 C 80.7494 2.08413 0.95376 0
M  V30 778 C 81.7624 1.01175 1.27544 0
M  V30 779 O 82.9514 1.28744 1.23641 0
M  V30 780 C 80.0514 2.51138 2.27559 0
M  V30 781 C 79.2244 3.817 2.13598 0
M  V30 782 C 78.2834 4.10749 3.28895 0
M  V30 783 O 77.3094 4.80685 3.04845 0
M  V30 784 N 78.5114 3.62579 4.5334 0
M  V30 785 H 81.2764 2.95165 0.519383 0
M  V30 786 H 78.8374 1.61327 0.136127 0
M  V30 787 H 80.8294 2.67648 3.03557 0
M  V30 788 H 79.3994 1.6964 2.62567 0
M  V30 789 H 78.6194 3.74782 1.22197 0
M  V30 790 H 79.9074 4.67201 2.01496 0
M  V30 791 H 79.3054 3.06039 4.75769 0
M  V30 792 H 77.8624 3.84329 5.26436 0
M  V30 793 N 81.2955 -0.223234 1.56011 0
M  V30 794 C 82.2275 -1.30006 1.88762 0
M  V30 795 C 83.2405 -1.43129 0.775746 0
M  V30 796 O 84.4295 -1.44057 1.05403 0
M  V30 797 C 81.5295 -2.67589 2.07965 0
M  V30 798 C 80.7025 -2.76434 3.38973 0
M  V30 799 C 79.7615 -3.95019 3.47629 0
M  V30 800 O 78.7875 -3.83436 4.20672 0
M  V30 801 N 79.9895 -5.09249 2.78649 0
M  V30 802 H 82.7545 -1.02238 2.81722 0
M  V30 803 H 80.3155 -0.413278 1.56536 0
M  V30 804 H 82.3075 -3.45297 2.11073 0
M  V30 805 H 80.8775 -2.87964 1.21638 0
M  V30 806 H 80.0975 -1.85216 3.47978 0
M  V30 807 H 81.3855 -2.79313 4.25278 0
M  V30 808 H 80.7835 -5.21556 2.19081 0
M  V30 809 H 79.3405 -5.85007 2.8742 0
M  V30 810 N 82.7736 -1.49793 -0.48987 0
M  V30 811 C 84.0226 -1.59085 -1.23995 0
M  V30 812 C 84.3356 -0.287907 -1.9347 0
M  V30 813 O 85.5416 -0.259506 -2.70257 0
M  V30 814 C 83.9976 -2.80736 -2.252 0
M  V30 815 C 83.6056 -4.17833 -1.61614 0
M  V30 816 C 85.3496 -2.99364 -3.00967 0
M  V30 817 C 83.2566 -5.30693 -2.60996 0
M  V30 818 H 82.1866 -0.592372 -0.466488 0
M  V30 819 H 84.8376 -1.76197 -0.51252 0
M  V30 820 H 83.2196 -2.57142 -3.01154 0
M  V30 821 H 84.3936 -4.51608 -0.915774 0
M  V30 822 H 82.7086 -4.04656 -0.981977 0
M  V30 823 H 85.3056 -3.80851 -3.75308 0
M  V30 824 H 85.6486 -2.10356 -3.59244 0
M  V30 825 H 86.1816 -3.2305 -2.32128 0
M  V30 826 H 82.9206 -6.21796 -2.07485 0
M  V30 827 H 82.4406 -5.01359 -3.2924 0
M  V30 828 H 84.1196 -5.6049 -3.23202 0
M  V30 829 N 84.2517 0.741722 -1.39055 0
M  V30 830 C 85.4797 1.53098 -1.39171 0
M  V30 831 C 85.8947 1.88794 0.0155099 0
M  V30 832 O 85.2517 1.53626 0.985159 0
M  V30 833 C 85.3027 2.82274 -2.2584 0
M  V30 834 O 85.0237 2.48097 -3.61081 0
M  V30 835 C 86.5247 3.76343 -2.34266 0
M  V30 836 H 83.7447 0.473335 -0.4756 0
M  V30 837 H 86.2887 0.917045 -1.82785 0
M  V30 838 H 84.4437 3.40015 -1.85656 0
M  V30 839 H 84.8577 3.31029 -4.06842 0
M  V30 840 H 86.3317 4.63898 -2.9917 0
M  V30 841 H 86.8087 4.17619 -1.35982 0
M  V30 842 H 87.4147 3.24523 -2.74891 0
M  V30 843 N 85.7298 1.2412 0.971189 0
M  V30 844 C 86.6798 0.997551 2.05019 0
M  V30 845 C 87.6638 -0.0597747 1.60789 0
M  V30 846 O 88.8558 0.153516 1.76333 0
M  V30 847 C 85.9848 0.600557 3.38006 0
M  V30 848 C 85.0708 1.69377 3.88809 0
M  V30 849 N 85.4618 2.92586 4.12586 0
M  V30 850 C 83.7598 1.57048 4.17435 0
M  V30 851 C 84.4608 3.63431 4.54195 0
M  V30 852 N 83.4368 2.90979 4.59165 0
M  V30 853 H 87.2388 1.93316 2.21374 0
M  V30 854 H 84.7528 1.14194 1.1547 0
M  V30 855 H 86.7498 0.40725 4.14906 0
M  V30 856 H 85.4098 -0.327903 3.2304 0
M  V30 857 H 86.4208 3.288 4.00139 0
M  V30 858 H 83.0978 0.709798 4.11422 0
M  V30 859 H 84.4878 4.69102 4.81033 0
M  V30 860 N 87.2079 -1.17134 1.05439 0
M  V30 861 C 88.1709 -2.19439 0.661764 0
M  V30 862 C 89.1709 -1.58199 -0.288042 0
M  V30 863 O 90.3609 -1.74053 -0.0715803 0
M  V30 864 C 87.4929 -3.40889 -0.0276209 0
M  V30 865 H 88.6859 -2.55688 1.56728 0
M  V30 866 H 86.2389 -1.31259 0.848567 0
M  V30 867 H 86.9739 -3.10187 -0.94629 0
M  V30 868 H 86.7589 -3.86586 0.655238 0
M  V30 869 H 88.2489 -4.16603 -0.288342 0
M  V30 870 N 88.686 -0.835752 -1.33615 0
M  V30 871 C 89.634 -0.255238 -2.31195 0
M  V30 872 C 90.628 0.61107 -1.57995 0
M  V30 873 O 91.834 0.500979 -1.72888 0
M  V30 874 H 88.209 -0.0638085 -0.749288 0
M  V30 875 H 90.18 -1.09283 -2.77669 0
M  V30 876 C 88.929 0.55754 -3.43201 0
M  V30 877 H 88.252 -0.0997553 -3.99676 0
M  V30 878 H 89.692 0.929622 -4.13683 0
M  V30 879 C 88.151 1.73515 -2.88781 0
M  V30 880 O 88.681 2.83376 -2.84712 0
M  V30 881 N 86.887 1.55603 -2.4543 0
M  V30 882 H 86.434 0.662354 -2.48939 0
M  V30 883 H 86.392 2.34545 -2.09371 0
M  V30 884 N 90.1641 1.46063 -0.591896 0
M  V30 885 C 91.1121 2.32124 0.148739 0
M  V30 886 C 92.1061 1.45035 0.875286 0
M  V30 887 O 93.3121 1.61609 0.792632 0
M  V30 888 H 89.6871 0.749024 0.066832 0
M  V30 889 H 91.6581 2.92392 -0.595783 0
M  V30 890 C 90.4071 3.28373 1.1431 0
M  V30 891 H 89.7301 3.95371 0.59346 0
M  V30 892 H 91.1701 3.91352 1.63155 0
M  V30 893 C 89.6291 2.54393 2.20875 0
M  V30 894 O 90.1591 2.31373 3.28374 0
M  V30 895 N 88.3651 2.14797 1.95731 0
M  V30 896 H 87.9121 2.33719 1.08319 0
M  V30 897 H 87.8701 1.65619 2.67241 0
M  V30 898 N 91.6422 0.330177 1.54103 0
M  V30 899 C 92.8702 -0.272179 2.05102 0
M  V30 900 C 93.2852 -1.45267 1.20595 0
M  V30 901 O 92.6422 -1.8094 0.238144 0
M  V30 902 C 92.6932 -0.70023 3.54653 0
M  V30 903 O 92.4142 0.433301 4.35952 0
M  V30 904 C 93.9152 -1.3647 4.21771 0
M  V30 905 H 91.1352 -0.0549159 0.668749 0
M  V30 906 H 93.6792 0.478285 1.98828 0
M  V30 907 H 91.8342 -1.40066 3.61193 0
M  V30 908 H 92.2482 0.0947539 5.24414 0
M  V30 909 H 93.7222 -1.61509 5.27843 0
M  V30 910 H 94.1992 -2.31409 3.73292 0
M  V30 911 H 94.8052 -0.706675 4.19388 0
M  V30 912 N 93.1203 -1.57491 0.0584922 0
M  V30 913 C 94.3663 -1.93264 -0.614558 0
M  V30 914 C 94.6993 -0.937717 -1.7006 0
M  V30 915 O 93.9743 0.0351652 -1.94468 0
M  V30 916 C 94.2573 -3.3938 -1.20386 0
M  V30 917 C 94.1103 -4.49625 -0.125375 0
M  V30 918 C 95.4293 -3.86039 -2.11334 0
M  V30 919 H 92.5483 -0.702791 -0.221933 0
M  V30 920 H 95.1903 -1.8961 0.12175 0
M  V30 921 H 93.3403 -3.42626 -1.83139 0
M  V30 922 H 95.0123 -4.58506 0.506971 0
M  V30 923 H 93.2553 -4.30354 0.545672 0
M  V30 924 H 93.9263 -5.48967 -0.577861 0
M  V30 925 H 96.4023 -3.84716 -1.58534 0
M  V30 926 H 95.2783 -4.88914 -2.49507 0
M  V30 927 H 95.5393 -3.23215 -3.01636 0
M  V30 928 N 94.5984 0.214957 -1.56127 0
M  V30 929 C 95.8234 0.95924 -1.83884 0
M  V30 930 C 96.2484 1.7689 -0.639644 0
M  V30 931 O 95.6064 1.76566 0.411601 0
M  V30 932 C 95.6544 1.84723 -3.09693 0
M  V30 933 O 94.7584 2.94346 -2.8885 0
M  V30 934 H 94.0994 0.27125 -0.606069 0
M  V30 935 H 96.6294 0.226276 -2.03345 0
M  V30 936 H 96.6394 2.25576 -3.39969 0
M  V30 937 H 95.3144 1.25218 -3.96602 0
M  V30 938 H 93.8914 2.57391 -2.69823 0
M  V30 939 N 96.0765 1.50051 0.48192 0
M  V30 940 C 97.0245 1.68635 1.60203 0
M  V30 941 C 98.0185 0.552184 1.60148 0
M  V30 942 O 99.2245 0.732377 1.64427 0
M  V30 943 H 95.5995 0.532081 0.531407 0
M  V30 944 H 97.5705 2.62616 1.41688 0
M  V30 945 C 96.3195 1.78775 2.9822 0
M  V30 946 H 95.6425 2.6543 2.98976 0
M  V30 947 H 97.0825 1.95806 3.7608 0
M  V30 948 C 95.5415 0.536849 3.32595 0
M  V30 949 O 96.0715 -0.328897 4.00351 0
M  V30 950 N 94.2775 0.394091 2.87915 0
M  V30 951 H 93.8245 1.09962 2.32951 0
M  V30 952 H 93.7825 -0.441737 3.11281 0
M  V30 953 N 97.5546 -0.734337 1.39446 0
M  V30 954 C 98.8016 -1.49391 1.36706 0
M  V30 955 C 99.1296 -1.94465 -0.0367813 0
M  V30 956 O 98.3846 -1.67154 -1.01774 0
M  V30 957 C 98.6836 -2.74711 2.28623 0
M  V30 958 C 98.3496 -2.48501 3.76242 0
M  V30 959 C 97.0116 -2.41062 4.16464 0
M  V30 960 C 99.3636 -2.26098 4.69606 0
M  V30 961 C 96.6916 -2.09262 5.48112 0
M  V30 962 C 99.0436 -1.95814 6.01531 0
M  V30 963 C 97.7076 -1.86845 6.40816 0
M  V30 964 H 96.9776 -0.546661 0.500243 0
M  V30 965 H 99.6246 -0.842788 1.71957 0
M  V30 966 H 97.9296 -3.44569 1.86492 0
M  V30 967 H 99.6266 -3.32741 2.23796 0
M  V30 968 H 96.2166 -2.55169 3.44364 0
M  V30 969 H 100.401 -2.30812 4.39363 0
M  V30 970 H 95.6566 -2.00841 5.77471 0
M  V30 971 H 99.8306 -1.77488 6.73403 0
M  V30 972 H 97.4576 -1.6197 7.42745 0
M  V30 973 N 99.0327 -1.24633 -0.964593 0
M  V30 974 C 99.9797 -1.04144 -2.05968 0
M  V30 975 C 100.95 0.046262 -1.66036 0
M  V30 976 O 102.135 -0.108972 -1.90489 0
M  V30 977 C 99.2747 -0.65563 -3.38815 0
M  V30 978 C 98.3877 -1.81714 -3.91923 0
M  V30 979 C 97.5227 -1.37662 -5.13052 0
M  V30 980 C 96.5617 -2.50788 -5.58365 0
M  V30 981 N 95.6987 -2.07582 -6.70712 0
M  V30 982 H 100.539 -1.9787 -2.22827 0
M  V30 983 H 98.0757 -0.9855 -1.09208 0
M  V30 984 H 100.034 -0.412954 -4.15151 0
M  V30 985 H 98.6637 0.244627 -3.21872 0
M  V30 986 H 97.7157 -2.1734 -3.12198 0
M  V30 987 H 99.0277 -2.66705 -4.21509 0
M  V30 988 H 98.1817 -1.093 -5.96773 0
M  V30 989 H 96.9207 -0.497293 -4.85158 0
M  V30 990 H 95.9257 -2.79906 -4.73215 0
M  V30 991 H 97.1507 -3.39283 -5.88272 0
M  V30 992 H 95.0967 -1.22051 -6.44546 0
M  V30 993 H 95.0137 -2.86125 -6.99763 0
M  V30 994 H 96.2817 -1.82369 -7.57867 0
M  V30 995 N 100.511 1.16574 -1.06058 0
M  V30 996 C 101.927 1.3904 -0.783585 0
M  V30 997 C 102.127 1.91784 0.618145 0
M  V30 998 O 101.183 2.11511 1.37911 0
M  V30 999 C 102.496 2.37329 -1.84649 0
M  V30 1000 C 104.044 2.51018 -1.86973 0
M  V30 1001 C 104.519 3.52588 -2.92311 0
M  V30 1002 N 106.01 3.60113 -2.91329 0
M  V30 1003 C 106.745 4.38486 -3.69482 0
M  V30 1004 N 106.241 5.20302 -4.57447 0
M  V30 1005 N 108.034 4.33446 -3.57885 0
M  V30 1006 H 100.185 0.806725 -1.96483 0
M  V30 1007 H 102.448 0.417117 -0.851303 0
M  V30 1008 H 102.154 2.05663 -2.85299 0
M  V30 1009 H 102.028 3.36946 -1.6955 0
M  V30 1010 H 104.415 2.81989 -0.869827 0
M  V30 1011 H 104.496 1.51445 -2.0615 0
M  V30 1012 H 104.14 3.22354 -3.92492 0
M  V30 1013 H 104.07 4.51886 -2.70383 0
M  V30 1014 H 106.561 3.01707 -2.27555 0
M  V30 1015 H 106.874 5.77311 -5.13743 0
M  V30 1016 H 105.219 5.19653 -4.61503 0
M  V30 1017 H 108.41 3.68586 -2.88551 0
M  V30 1018 H 108.583 4.94279 -4.19037 0
M  V30 1019 N 101.989 0.842826 1.3317 0
M  V30 1020 C 103.236 0.440447 1.97652 0
M  V30 1021 C 103.564 -1.00123 1.6675 0
M  V30 1022 O 102.819 -1.7155 0.941761 0
M  V30 1023 C 103.118 0.612607 3.52111 0
M  V30 1024 C 102.784 2.02297 4.02972 0
M  V30 1025 C 101.446 2.40874 4.16573 0
M  V30 1026 C 103.798 2.94402 4.30089 0
M  V30 1027 C 101.126 3.70852 4.54627 0
M  V30 1028 C 103.478 4.23865 4.69597 0
M  V30 1029 C 102.142 4.62392 4.81404 0
M  V30 1030 H 101.412 0.161171 0.72326 0
M  V30 1031 H 104.059 1.07061 1.58777 0
M  V30 1032 H 102.364 -0.100849 3.9167 0
M  V30 1033 H 104.061 0.2815 4.00011 0
M  V30 1034 H 100.651 1.71338 3.92863 0
M  V30 1035 H 104.835 2.65835 4.19101 0
M  V30 1036 H 100.091 4.00501 4.61962 0
M  V30 1037 H 104.265 4.95306 4.89536 0
M  V30 1038 H 101.892 5.63154 5.10648 0
M  V30 1039 N 103.467 -1.45747 0.599634 0
M  V30 1040 C 104.417 -2.27538 -0.145107 0
M  V30 1041 C 105.401 -1.3686 -0.846055 0
M  V30 1042 O 106.593 -1.6091 -0.737357 0
M  V30 1043 C 103.722 -3.23569 -1.14708 0
M  V30 1044 C 102.808 -4.21734 -0.447383 0
M  V30 1045 N 103.199 -5.03257 0.506535 0
M  V30 1046 C 101.497 -4.40536 -0.695966 0
M  V30 1047 C 102.198 -5.74426 0.917068 0
M  V30 1048 N 101.174 -5.42966 0.26253 0
M  V30 1049 H 104.976 -2.87965 0.587672 0
M  V30 1050 H 102.49 -1.56803 0.422697 0
M  V30 1051 H 104.487 -3.8089 -1.69495 0
M  V30 1052 H 103.147 -2.64702 -1.8805 0
M  V30 1053 H 104.158 -5.10319 0.882899 0
M  V30 1054 H 100.835 -3.92802 -1.41467 0
M  V30 1055 H 102.225 -6.4995 1.70338 0
M  V30 1056 N 104.945 -0.338344 -1.53925 0
M  V30 1057 C 106.193 0.259245 -2.0043 0
M  V30 1058 C 106.514 1.51484 -1.22791 0
M  V30 1059 O 105.784 1.93037 -0.33368 0
M  V30 1060 H 104.364 0.0987845 -0.740439 0
M  V30 1061 H 107.026 -0.458302 -1.89435 0
M  V30 1062 H 106.122 0.505334 -3.07982 0
M  V30 1063 N 106.423 1.57458 -0.0668435 0
M  V30 1064 C 107.839 1.56947 0.289772 0
M  V30 1065 C 108.039 1.07584 1.70376 0
M  V30 1066 O 107.095 0.739486 2.41429 0
M  V30 1067 C 108.408 3.0052 0.103943 0
M  V30 1068 C 109.956 3.12517 0.173857 0
M  V30 1069 C 110.431 4.57997 0.0163682 0
M  V30 1070 N 111.922 4.63144 0.0721352 0
M  V30 1071 C 112.657 5.73394 -0.0253794 0
M  V30 1072 N 112.153 6.92576 -0.176133 0
M  V30 1073 N 113.946 5.62091 0.0313305 0
M  V30 1074 H 106.097 1.87863 -0.991027 0
M  V30 1075 H 108.36 0.86583 -0.38606 0
M  V30 1076 H 108.066 3.40729 -0.871572 0
M  V30 1077 H 107.94 3.67304 0.858366 0
M  V30 1078 H 110.327 2.72197 1.13985 0
M  V30 1079 H 110.408 2.48381 -0.611586 0
M  V30 1080 H 110.052 4.99005 -0.946374 0
M  V30 1081 H 109.982 5.20158 0.821153 0
M  V30 1082 H 112.473 3.77436 0.187263 0
M  V30 1083 H 112.786 7.72418 -0.242821 0
M  V30 1084 H 111.131 6.94678 -0.211429 0
M  V30 1085 H 114.322 4.67867 0.147773 0
M  V30 1086 H 114.495 6.47982 -0.048121 0
M  V30 1087 N 107.901 -0.206675 1.56239 0
M  V30 1088 C 108.864 -1.23976 1.92776 0
M  V30 1089 C 109.864 -1.39041 0.807729 0
M  V30 1090 O 111.054 -1.37051 1.0753 0
M  V30 1091 C 108.186 -2.61112 2.19165 0
M  V30 1092 H 109.379 -0.927764 2.85189 0
M  V30 1093 H 106.932 -0.447718 1.4975 0
M  V30 1094 H 107.667 -2.97386 1.29352 0
M  V30 1095 H 107.452 -2.51552 3.00772 0
M  V30 1096 H 108.942 -3.35633 2.48476 0
M  V30 1097 N 109.379 -1.50304 -0.473955 0
M  V30 1098 C 110.626 -1.6115 -1.22625 0
M  V30 1099 C 110.954 -0.310517 -1.92005 0
M  V30 1100 O 110.209 0.703419 -1.82621 0
M  V30 1101 C 110.508 -2.73938 -2.29549 0
M  V30 1102 C 110.174 -4.14519 -1.7744 0
M  V30 1103 C 108.836 -4.5277 -1.62949 0
M  V30 1104 C 111.188 -5.02392 -1.3875 0
M  V30 1105 C 108.516 -5.76639 -1.08187 0
M  V30 1106 C 110.868 -6.26805 -0.854309 0
M  V30 1107 C 109.532 -6.63861 -0.696011 0
M  V30 1108 H 108.802 -0.589691 -0.448715 0
M  V30 1109 H 111.449 -1.84228 -0.522705 0
M  V30 1110 H 109.754 -2.44937 -3.05799 0
M  V30 1111 H 111.451 -2.79534 -2.87509 0
M  V30 1112 H 108.041 -3.8434 -1.89685 0
M  V30 1113 H 112.225 -4.73474 -1.4878 0
M  V30 1114 H 107.481 -6.04027 -0.946666 0
M  V30 1115 H 111.655 -6.94258 -0.545843 0
M  V30 1116 H 109.282 -7.59722 -0.26952 0
M  V30 1117 N 110.857 0.726932 -1.39834 0
M  V30 1118 C 111.805 1.86235 -1.39353 0
M  V30 1119 C 112.799 1.67144 -0.275555 0
M  V30 1120 O 114.005 1.74387 -0.44601 0
M  V30 1121 H 110.38 0.613174 -0.43534 0
M  V30 1122 H 112.351 1.83756 -2.35109 0
M  V30 1123 C 111.1 3.23995 -1.26185 0
M  V30 1124 H 110.423 3.39285 -2.11484 0
M  V30 1125 H 111.863 4.03609 -1.29907 0
M  V30 1126 C 110.322 3.36888 0.0290018 0
M  V30 1127 O 110.852 3.89152 0.99619 0
M  V30 1128 N 109.058 2.90446 0.0947437 0
M  V30 1129 H 108.605 2.48102 -0.693035 0
M  V30 1130 H 108.563 2.99451 0.957932 0
M  V30 1131 N 112.336 1.25143 0.95797 0
M  V30 1132 C 113.613 1.00472 1.67823 0
M  V30 1133 C 113.993 -0.470056 2.058 0
M  V30 1134 O 113.341 -1.44663 1.76875 0
M  V30 1135 C 113.551 1.9372 2.90299 0
M  V30 1136 C 114.899 2.21371 3.62326 0
M  V30 1137 O 115.923 1.91451 3.00375 0
M  V30 1138 O 114.782 2.72231 4.7387 0
M  V30 1139 H 111.876 0.380752 0.734137 0
M  V30 1140 H 114.422 1.36283 1.01119 0
M  V30 1141 H 113.194 2.93316 2.59001 0
M  V30 1142 H 112.817 1.58286 3.64735 0
M  V30 1143 N 113.814 -1.1601 1.06675 0
M  V30 1144 C 115.225 -1.68235 0.809565 0
M  V30 1145 C 115.576 -1.8454 -0.666303 0
M  V30 1146 O 114.701 -1.54374 -1.5165 0
M  V30 1147 C 115.296 -3.05585 1.46299 0
M  V30 1148 C 113.855 -3.54915 1.25349 0
M  V30 1149 C 113.002 -2.30804 1.53703 0
M  V30 1150 H 115.953 -1.00318 1.22971 0
M  V30 1151 H 115.974 -3.70174 0.880431 0
M  V30 1152 H 115.486 -2.93686 2.53713 0
M  V30 1153 H 113.587 -3.72067 0.199261 0
M  V30 1154 H 113.7 -4.36774 1.9689 0
M  V30 1155 H 112.064 -2.36007 0.957739 0
M  V30 1156 H 112.847 -2.21499 2.62284 0
M  V30 1157 N 115.292 -0.849877 -1.32721 0
M  V30 1158 C 116.539 -0.450923 -1.97416 0
M  V30 1159 C 116.867 0.992376 -1.67279 0
M  V30 1160 O 116.122 1.71048 -0.950845 0
M  V30 1161 C 116.421 -0.631272 -3.51781 0
M  V30 1162 C 116.087 -2.04432 -4.01894 0
M  V30 1163 C 114.749 -2.4308 -4.1529 0
M  V30 1164 C 117.101 -2.96679 -4.28522 0
M  V30 1165 C 114.429 -3.73257 -4.52654 0
M  V30 1166 C 116.781 -4.26349 -4.67343 0
M  V30 1167 C 115.445 -4.64939 -4.78945 0
M  V30 1168 H 114.715 -0.165004 -0.722395 0
M  V30 1169 H 117.362 -1.07901 -1.58207 0
M  V30 1170 H 115.667 0.0800767 -3.91718 0
M  V30 1171 H 117.364 -0.302709 -3.99856 0
M  V30 1172 H 113.954 -1.73419 -3.91949 0
M  V30 1173 H 118.138 -2.68054 -4.17685 0
M  V30 1174 H 113.394 -4.02946 -4.59831 0
M  V30 1175 H 117.568 -4.97895 -4.86902 0
M  V30 1176 H 115.195 -5.65855 -5.07654 0
M  V30 1177 N 116.77 1.45427 -0.607355 0
M  V30 1178 C 118.019 2.01452 -0.100036 0
M  V30 1179 C 118.332 1.48159 1.27704 0
M  V30 1180 O 119.538 1.96159 1.87707 0
M  V30 1181 C 117.994 3.59672 -0.128158 0
M  V30 1182 C 117.602 4.21962 -1.50507 0
M  V30 1183 C 119.346 4.23262 0.323932 0
M  V30 1184 C 117.253 5.72333 -1.48959 0
M  V30 1185 H 116.183 0.75325 -0.0336299 0
M  V30 1186 H 118.834 1.66901 -0.76265 0
M  V30 1187 H 117.216 3.91411 0.601105 0
M  V30 1188 H 118.39 4.01796 -2.25602 0
M  V30 1189 H 116.705 3.70565 -1.89923 0
M  V30 1190 H 119.302 5.33522 0.354691 0
M  V30 1191 H 119.645 3.93921 1.34656 0
M  V30 1192 H 120.178 3.96239 -0.352056 0
M  V30 1193 H 116.917 6.06373 -2.48981 0
M  V30 1194 H 116.437 5.94691 -0.781214 0
M  V30 1195 H 118.116 6.35525 -1.21313 0
M  V30 1196 N 118.248 0.346503 1.53744 0
M  V30 1197 C 119.18 -0.543316 2.22667 0
M  V30 1198 C 120.193 -1.06159 1.23427 0
M  V30 1199 O 121.382 -0.971235 1.49764 0
M  V30 1200 C 118.482 -1.76076 2.89569 0
M  V30 1201 C 117.655 -1.37727 4.15151 0
M  V30 1202 C 116.714 -2.45471 4.65436 0
M  V30 1203 O 115.74 -2.08655 5.29577 0
M  V30 1204 N 116.942 -3.7677 4.41616 0
M  V30 1205 H 119.707 0.0469703 2.99663 0
M  V30 1206 H 117.268 0.170766 1.60997 0
M  V30 1207 H 119.26 -2.47593 3.20125 0
M  V30 1208 H 117.83 -2.25835 2.16142 0
M  V30 1209 H 117.05 -0.492746 3.91108 0
M  V30 1210 H 118.338 -1.09708 4.96832 0
M  V30 1211 H 117.736 -4.09467 3.90325 0
M  V30 1212 H 116.293 -4.44448 4.7677 0
M  V30 1213 N 119.726 -1.57421 0.075193 0
M  V30 1214 C 120.673 -2.12915 -0.890843 0
M  V30 1215 C 121.643 -1.04252 -1.29309 0
M  V30 1216 O 122.828 -1.31933 -1.37834 0
M  V30 1217 C 119.968 -2.69795 -2.15186 0
M  V30 1218 C 119.081 -3.92624 -1.80194 0
M  V30 1219 C 118.216 -4.37736 -3.00933 0
M  V30 1220 C 117.255 -5.53205 -2.61974 0
M  V30 1221 N 116.392 -5.9326 -3.75483 0
M  V30 1222 H 121.232 -2.95156 -0.410735 0
M  V30 1223 H 118.769 -1.45854 -0.191086 0
M  V30 1224 H 120.727 -3.00883 -2.89008 0
M  V30 1225 H 119.357 -1.90313 -2.60731 0
M  V30 1226 H 118.409 -3.67977 -0.964218 0
M  V30 1227 H 119.721 -4.76482 -1.47534 0
M  V30 1228 H 118.875 -4.70503 -3.8303 0
M  V30 1229 H 117.614 -3.52739 -3.36789 0
M  V30 1230 H 116.619 -5.20086 -1.783 0
M  V30 1231 H 117.844 -6.39936 -2.27284 0
M  V30 1232 H 115.79 -5.11212 -4.11094 0
M  V30 1233 H 115.707 -6.71865 -3.46602 0
M  V30 1234 H 116.975 -6.30651 -4.58148 0
M  V30 1235 N 121.204 0.198386 -1.56346 0
M  V30 1236 C 122.114 1.2664 -1.97483 0
M  V30 1237 C 123.13 1.49989 -0.882002 0
M  V30 1238 O 124.306 1.62668 -1.18748 0
M  V30 1239 C 121.371 2.59141 -2.30319 0
M  V30 1240 C 120.432 2.43892 -3.53292 0
M  V30 1241 C 119.665 3.70074 -3.84553 0
M  V30 1242 O 119.888 4.74101 -3.1715 0
M  V30 1243 O 118.822 3.658 -4.7799 0
M  V30 1244 H 122.648 0.947304 -2.88548 0
M  V30 1245 H 120.233 0.403123 -1.43859 0
M  V30 1246 H 122.115 3.37352 -2.5253 0
M  V30 1247 H 120.79 2.90684 -1.42423 0
M  V30 1248 H 119.697 1.63803 -3.36332 0
M  V30 1249 H 121.03 2.17282 -4.41644 0
M  V30 1250 N 122.682 1.50554 0.465978 0
M  V30 1251 C 123.629 1.6979 1.56333 0
M  V30 1252 C 124.599 0.539239 1.57103 0
M  V30 1253 O 125.784 0.770401 1.74555 0
M  V30 1254 C 122.924 1.80273 2.94271 0
M  V30 1255 C 122.037 3.07674 3.0325 0
M  V30 1256 C 121.172 3.08922 4.32135 0
M  V30 1257 C 120.211 4.30755 4.34875 0
M  V30 1258 N 119.348 4.29714 5.55239 0
M  V30 1259 H 124.188 2.63472 1.39235 0
M  V30 1260 H 121.725 1.30602 0.676873 0
M  V30 1261 H 123.683 1.84332 3.74269 0
M  V30 1262 H 122.313 0.900258 3.09992 0
M  V30 1263 H 121.365 3.13062 2.16094 0
M  V30 1264 H 122.677 3.97642 3.01135 0
M  V30 1265 H 121.831 3.11738 5.20485 0
M  V30 1266 H 120.57 2.16792 4.36866 0
M  V30 1267 H 119.575 4.28146 3.44922 0
M  V30 1268 H 120.8 5.24117 4.31831 0
M  V30 1269 H 118.746 3.4044 5.60746 0
M  V30 1270 H 118.663 5.13456 5.54886 0
M  V30 1271 H 119.931 4.36683 6.457 0
M  V30 1272 N 124.16 -0.719506 1.40217 0
M  V30 1273 C 125.07 -1.86378 1.42479 0
M  V30 1274 C 126.086 -1.71073 0.317834 0
M  V30 1275 O 127.262 -1.93406 0.561794 0
M  V30 1276 C 124.327 -3.22136 1.28178 0
M  V30 1277 C 123.388 -3.49723 2.48982 0
M  V30 1278 C 122.621 -4.79004 2.35353 0
M  V30 1279 O 122.844 -5.53821 1.36524 0
M  V30 1280 O 121.778 -5.06839 3.2465 0
M  V30 1281 H 125.604 -1.87425 2.38968 0
M  V30 1282 H 123.189 -0.869405 1.21498 0
M  V30 1283 H 125.071 -4.03234 1.22395 0
M  V30 1284 H 123.746 -3.21825 0.347934 0
M  V30 1285 H 122.653 -2.6865 2.60342 0
M  V30 1286 H 123.986 -3.54828 3.41113 0
M  V30 1287 N 125.638 -1.25649 -0.95132 0
M  V30 1288 C 126.586 -1.06118 -2.06982 0
M  V30 1289 C 127.58 0.00889169 -1.69398 0
M  V30 1290 O 128.786 -0.146988 -1.79399 0
M  V30 1291 H 125.161 -0.326248 -0.677544 0
M  V30 1292 H 127.132 -2.00932 -2.2061 0
M  V30 1293 C 125.881 -0.700145 -3.40578 0
M  V30 1294 H 125.204 -1.51537 -3.69968 0
M  V30 1295 H 126.644 -0.603211 -4.19687 0
M  V30 1296 C 125.103 0.59403 -3.31622 0
M  V30 1297 O 125.633 1.63522 -3.66911 0
M  V30 1298 N 123.839 0.58089 -2.84735 0
M  V30 1299 H 123.386 -0.266783 -2.56215 0
M  V30 1300 H 123.344 1.44695 -2.79125 0
M  V30 1301 N 127.117 1.15442 -1.07289 0
M  V30 1302 C 128.047 2.22312 -0.714107 0
M  V30 1303 C 129.028 1.67467 0.298155 0
M  V30 1304 O 130.213 1.93445 0.171048 0
M  V30 1305 C 127.343 3.47124 -0.110448 0
M  V30 1306 C 126.297 4.14926 -1.04979 0
M  V30 1307 C 125.623 5.33807 -0.308924 0
M  V30 1308 C 126.923 4.64762 -2.38314 0
M  V30 1309 H 128.617 2.5258 -1.6076 0
M  V30 1310 H 126.163 1.21404 -0.77441 0
M  V30 1311 H 128.116 4.21124 0.152482 0
M  V30 1312 H 126.84 3.16187 0.81812 0
M  V30 1313 H 125.499 3.42866 -1.29764 0
M  V30 1314 H 125.147 4.99126 0.623084 0
M  V30 1315 H 124.847 5.80113 -0.935036 0
M  V30 1316 H 126.371 6.10576 -0.0537771 0
M  V30 1317 H 127.785 5.30292 -2.1786 0
M  V30 1318 H 126.182 5.21728 -2.96514 0
M  V30 1319 H 127.252 3.80434 -3.00663 0
M  V30 1320 N 128.595 0.856903 1.32268 0
M  V30 1321 C 129.82 0.474569 2.01897 0
M  V30 1322 C 130.245 -0.921766 1.63967 0
M  V30 1323 O 129.603 -1.60589 0.84148 0
M  V30 1324 C 129.651 0.623799 3.55164 0
M  V30 1325 O 128.755 -0.342459 4.10976 0
M  V30 1326 H 128.096 0.190422 0.63611 0
M  V30 1327 H 130.626 1.15672 1.68764 0
M  V30 1328 H 130.636 0.512169 4.04773 0
M  V30 1329 H 129.311 1.64202 3.82113 0
M  V30 1330 H 127.888 -0.18688 3.72431 0
M  V30 1331 N 130.073 -1.45103 0.615059 0
M  V30 1332 C 131.303 -2.06254 0.119596 0
M  V30 1333 C 131.711 -1.4591 -1.20445 0
M  V30 1334 O 131.054 -0.570384 -1.7462 0
M  V30 1335 C 131.116 -3.59396 -0.0865591 0
M  V30 1336 C 130.78 -4.42116 1.15683 0
M  V30 1337 C 131.777 -4.7662 2.07676 0
M  V30 1338 C 129.462 -4.82749 1.38775 0
M  V30 1339 C 131.456 -5.50622 3.21082 0
M  V30 1340 C 129.143 -5.56504 2.52481 0
M  V30 1341 C 130.141 -5.90358 3.43463 0
M  V30 1342 O 129.829 -6.62615 4.55189 0
M  V30 1343 H 129.561 -0.672423 0.0694512 0
M  V30 1344 H 132.115 -1.87219 0.844885 0
M  V30 1345 H 130.345 -3.76859 -0.866823 0
M  V30 1346 H 132.034 -4.02365 -0.534555 0
M  V30 1347 H 132.8 -4.4578 1.91063 0
M  V30 1348 H 128.679 -4.55829 0.688545 0
M  V30 1349 H 132.223 -5.76965 3.92119 0
M  V30 1350 H 128.12 -5.86759 2.69043 0
M  V30 1351 H 128.888 -6.81071 4.53966 0
M  V30 1352 N 131.551 -0.354651 -1.53558 0
M  V30 1353 C 132.828 0.294281 -1.93374 0
M  V30 1354 C 133.208 1.67313 -1.28723 0
M  V30 1355 O 132.556 2.24179 -0.442247 0
M  V30 1356 C 132.766 0.355445 -3.47185 0
M  V30 1357 C 134.114 0.601007 -4.20325 0
M  V30 1358 O 135.138 0.437106 -3.53508 0
M  V30 1359 O 133.997 0.919322 -5.38712 0
M  V30 1360 H 131.091 0.174033 -0.808481 0
M  V30 1361 H 133.637 -0.406638 -1.64756 0
M  V30 1362 H 132.409 -0.611729 -3.86489 0
M  V30 1363 H 132.032 1.1027 -3.82003 0
M  V30 1364 N 133.029 1.57378 -0.0835403 0
M  V30 1365 C 133.959 2.1641 0.87686 0
M  V30 1366 C 134.94 1.09429 1.30228 0
M  V30 1367 O 136.125 1.37516 1.37124 0
M  V30 1368 C 133.255 2.73517 2.14022 0
M  V30 1369 C 132.209 3.85769 1.85381 0
M  V30 1370 C 131.535 4.29529 3.18448 0
M  V30 1371 C 132.835 5.09486 1.14984 0
M  V30 1372 H 134.529 2.96914 0.385059 0
M  V30 1373 H 132.075 1.42823 0.18377 0
M  V30 1374 H 134.028 3.13463 2.81636 0
M  V30 1375 H 132.752 1.90252 2.65465 0
M  V30 1376 H 131.411 3.46345 1.20169 0
M  V30 1377 H 131.059 3.43169 3.67755 0
M  V30 1378 H 130.759 5.05204 3.00071 0
M  V30 1379 H 132.283 4.72099 3.8724 0
M  V30 1380 H 133.697 5.46674 1.72687 0
M  V30 1381 H 132.094 5.90515 1.06826 0
M  V30 1382 H 133.164 4.84724 0.130749 0
M  V30 1383 N 134.507 -0.190092 1.56449 0
M  V30 1384 C 135.753 -0.911052 1.81184 0
M  V30 1385 C 136.086 -1.82699 0.658396 0
M  V30 1386 O 135.361 -1.91491 -0.340775 0
M  V30 1387 C 135.644 -1.72297 3.16205 0
M  V30 1388 C 135.497 -0.831419 4.42049 0
M  V30 1389 C 136.816 -2.69454 3.47969 0
M  V30 1390 H 133.935 -0.32977 0.659106 0
M  V30 1391 H 136.577 -0.178169 1.89163 0
M  V30 1392 H 134.727 -2.34778 3.09534 0
M  V30 1393 H 136.399 -0.220929 4.60771 0
M  V30 1394 H 134.642 -0.138406 4.33579 0
M  V30 1395 H 135.313 -1.43461 5.33032 0
M  V30 1396 H 137.789 -2.17104 3.54972 0
M  V30 1397 H 136.665 -3.23342 4.43555 0
M  V30 1398 H 136.926 -3.48744 2.71717 0
M  V30 1399 N 135.985 -1.50799 -0.457987 0
M  V30 1400 C 137.396 -1.55152 -1.0385 0
M  V30 1401 C 137.747 -0.362719 -1.92818 0
M  V30 1402 O 136.872 0.522915 -2.09987 0
M  V30 1403 C 137.467 -2.81173 -1.89017 0
M  V30 1404 C 136.026 -2.88164 -2.42154 0
M  V30 1405 C 135.173 -2.49591 -1.20829 0
M  V30 1406 H 138.124 -1.56874 -0.240068 0
M  V30 1407 H 138.145 -2.63769 -2.74238 0
M  V30 1408 H 137.657 -3.67677 -1.24238 0
M  V30 1409 H 135.758 -2.06042 -3.10447 0
M  V30 1410 H 135.871 -3.91356 -2.76364 0
M  V30 1411 H 134.235 -2.02322 -1.54719 0
M  V30 1412 H 135.018 -3.38418 -0.576927 0
M  V30 1413 N 137.463 0.71206 -1.40597 0
M  V30 1414 C 138.393 1.83889 -1.43899 0
M  V30 1415 C 139.374 1.67442 -0.299504 0
M  V30 1416 O 140.559 1.87421 -0.508624 0
M  V30 1417 C 137.689 3.21877 -1.30431 0
M  V30 1418 C 136.643 3.53002 -2.42019 0
M  V30 1419 C 135.969 4.90172 -2.13626 0
M  V30 1420 C 137.269 3.53643 -3.84362 0
M  V30 1421 H 138.963 1.81383 -2.38203 0
M  V30 1422 H 136.509 0.871237 -1.14654 0
M  V30 1423 H 138.462 4.00404 -1.31357 0
M  V30 1424 H 137.186 3.24968 -0.326049 0
M  V30 1425 H 135.845 2.76818 -2.40349 0
M  V30 1426 H 135.493 4.89869 -1.14182 0
M  V30 1427 H 135.193 5.11962 -2.88389 0
M  V30 1428 H 136.717 5.71028 -2.1624 0
M  V30 1429 H 138.131 4.22203 -3.87837 0
M  V30 1430 H 136.528 3.86961 -4.58673 0
M  V30 1431 H 137.598 2.52954 -4.13693 0
M  V30 1432 N 138.941 1.26152 0.944643 0
M  V30 1433 C 139.888 1.07408 2.04285 0
M  V30 1434 C 140.858 -0.0198413 1.66088 0
M  V30 1435 O 142.043 0.139264 1.90291 0
M  V30 1436 C 139.183 0.70945 3.37729 0
M  V30 1437 C 138.296 1.87926 3.88983 0
M  V30 1438 C 137.431 1.45807 5.10797 0
M  V30 1439 C 136.47 2.5964 5.54305 0
M  V30 1440 N 135.607 2.18226 6.67324 0
M  V30 1441 H 140.447 2.01389 2.1965 0
M  V30 1442 H 137.984 1.00275 1.07626 0
M  V30 1443 H 139.942 0.478948 4.14442 0
M  V30 1444 H 138.572 -0.193389 3.2222 0
M  V30 1445 H 137.624 2.22279 3.08701 0
M  V30 1446 H 138.936 2.73377 4.17213 0
M  V30 1447 H 138.09 1.18781 5.94959 0
M  V30 1448 H 136.829 0.574414 4.84305 0
M  V30 1449 H 135.834 2.87399 4.68702 0
M  V30 1450 H 137.059 3.48599 5.828 0
M  V30 1451 H 135.005 1.3229 6.42523 0
M  V30 1452 H 134.922 2.97221 6.95123 0
M  V30 1453 H 136.19 1.94403 7.54869 0
M  V30 1454 N 140.419 -1.14872 1.07899 0
M  V30 1455 C 141.367 -2.21857 0.698727 0
M  V30 1456 C 142.361 -1.66845 -0.293086 0
M  V30 1457 O 143.567 -1.79321 -0.156204 0
M  V30 1458 H 139.942 -0.722691 0.207899 0
M  V30 1459 H 141.913 -2.51205 1.61054 0
M  V30 1460 C 140.662 -3.47498 0.11858 0
M  V30 1461 H 139.985 -3.90154 0.872914 0
M  V30 1462 H 141.425 -4.23858 -0.109759 0
M  V30 1463 C 139.884 -3.16947 -1.1422 0
M  V30 1464 O 140.414 -3.3426 -2.22785 0
M  V30 1465 N 138.62 -2.70946 -1.05055 0
M  V30 1466 H 138.167 -2.57058 -0.167038 0
M  V30 1467 H 138.125 -2.50879 -1.89491 0
M  V30 1468 N 141.898 -0.863906 -1.31812 0
M  V30 1469 C 143.146 -0.470904 -1.96537 0
M  V30 1470 C 143.467 0.978771 -1.68657 0
M  V30 1471 O 142.737 1.6853 -0.998717 0
M  V30 1472 H 141.317 -0.171148 -0.72713 0
M  V30 1473 H 143.979 -1.10236 -1.60729 0
M  V30 1474 H 143.075 -0.623616 -3.05806 0
M  V30 1475 N 143.376 1.44774 -0.622745 0
M  V30 1476 C 144.624 2.01721 -0.123655 0
M  V30 1477 C 144.945 1.49172 1.25589 0
M  V30 1478 O 144.215 0.691974 1.83272 0
M  V30 1479 H 142.795 0.745777 -0.0427225 0
M  V30 1480 H 145.457 1.77382 -0.807559 0
M  V30 1481 H 144.553 3.11984 -0.0849534 0
M  V30 1482 N 144.854 0.36279 1.53368 0
M  V30 1483 C 146.1 -0.228113 2.01513 0
M  V30 1484 C 146.433 -1.48648 1.2497 0
M  V30 1485 O 145.708 -1.91459 0.342616 0
M  V30 1486 C 145.991 -0.522884 3.56284 0
M  V30 1487 C 145.844 0.74892 4.43521 0
M  V30 1488 C 147.163 -1.32461 4.19693 0
M  V30 1489 H 144.282 -0.0814343 0.732487 0
M  V30 1490 H 146.924 0.48713 1.83649 0
M  V30 1491 H 145.074 -1.1322 3.71636 0
M  V30 1492 H 146.746 1.38648 4.39971 0
M  V30 1493 H 144.989 1.36986 4.11603 0
M  V30 1494 H 145.66 0.497667 5.49752 0
M  V30 1495 H 148.136 -0.809203 4.08156 0
M  V30 1496 H 147.012 -1.49961 5.28018 0
M  V30 1497 H 147.273 -2.33232 3.75573 0
M  V30 1498 N 146.332 -1.57332 0.0918853 0
M  V30 1499 C 147.58 -1.93853 -0.571446 0
M  V30 1500 C 147.901 -0.974212 -1.6892 0
M  V30 1501 O 147.171 -0.0257254 -1.95883 0
M  V30 1502 H 145.751 -0.715666 -0.214082 0
M  V30 1503 H 148.413 -1.94287 0.154464 0
M  V30 1504 H 147.509 -2.96191 -0.983729 0
M  V30 1505 N 147.81 0.181792 -1.56548 0
M  V30 1506 C 149.059 0.898348 -1.8059 0
M  V30 1507 C 149.372 1.83862 -0.667379 0
M  V30 1508 O 150.578 2.59678 -0.792446 0
M  V30 1509 C 149.034 1.64791 -3.19956 0
M  V30 1510 C 148.642 0.751789 -4.41647 0
M  V30 1511 C 150.386 2.35331 -3.53298 0
M  V30 1512 C 148.293 1.50098 -5.72035 0
M  V30 1513 H 147.223 0.339194 -0.673397 0
M  V30 1514 H 149.874 0.151413 -1.82874 0
M  V30 1515 H 148.256 2.43921 -3.11959 0
M  V30 1516 H 149.43 -0.0018076 -4.608 0
M  V30 1517 H 147.745 0.156562 -4.16106 0
M  V30 1518 H 150.342 2.91958 -4.47956 0
M  V30 1519 H 150.685 3.10164 -2.77676 0
M  V30 1520 H 151.218 1.63154 -3.62803 0
M  V30 1521 H 147.957 0.795175 -6.50659 0
M  V30 1522 H 147.477 2.22817 -5.56878 0
M  V30 1523 H 149.156 2.05125 -6.13622 0
M  V30 1524 N 149.288 1.51039 0.449983 0
M  V30 1525 C 150.235 1.71439 1.54523 0
M  V30 1526 C 151.205 0.555871 1.56522 0
M  V30 1527 O 152.39 0.788871 1.73728 0
M  V30 1528 C 149.53 1.83384 2.92343 0
M  V30 1529 C 148.643 3.10873 2.9997 0
M  V30 1530 C 147.778 3.13488 4.28834 0
M  V30 1531 C 146.817 4.35343 4.30282 0
M  V30 1532 N 145.954 4.35579 5.5065 0
M  V30 1533 H 150.794 2.64934 1.36433 0
M  V30 1534 H 148.331 1.31312 0.662982 0
M  V30 1535 H 150.289 1.88291 3.72293 0
M  V30 1536 H 148.919 0.933086 3.0902 0
M  V30 1537 H 147.971 3.15336 2.12761 0
M  V30 1538 H 149.283 4.00814 2.96901 0
M  V30 1539 H 148.437 3.17241 5.17149 0
M  V30 1540 H 147.176 2.21414 4.34543 0
M  V30 1541 H 146.181 4.3178 3.40362 0
M  V30 1542 H 147.406 5.28668 4.26248 0
M  V30 1543 H 145.352 3.46369 5.57104 0
M  V30 1544 H 145.269 5.19313 5.49409 0
M  V30 1545 H 146.537 4.43507 6.41032 0
M  V30 1546 N 150.766 -0.704594 1.40972 0
M  V30 1547 C 152.012 -1.46675 1.40051 0
M  V30 1548 C 152.345 -1.94199 0.00641102 0
M  V30 1549 O 151.62 -1.68916 -0.964235 0
M  V30 1550 C 151.903 -2.68505 2.39952 0
M  V30 1551 C 151.756 -2.26805 3.88432 0
M  V30 1552 C 153.075 -3.70686 2.37233 0
M  V30 1553 H 150.194 -0.532015 0.510028 0
M  V30 1554 H 152.836 -0.803255 1.72185 0
M  V30 1555 H 150.986 -3.25114 2.1268 0
M  V30 1556 H 152.658 -1.75592 4.26574 0
M  V30 1557 H 150.901 -1.58685 4.03734 0
M  V30 1558 H 151.572 -3.14181 4.53866 0
M  V30 1559 H 154.048 -3.23731 2.61415 0
M  V30 1560 H 152.924 -4.53553 3.09162 0
M  V30 1561 H 153.185 -4.19754 1.38777 0
M  V30 1562 N 152.244 -1.26651 -0.937939 0
M  V30 1563 C 153.177 -1.02811 -2.03728 0
M  V30 1564 C 154.155 0.0481915 -1.62529 0
M  V30 1565 O 155.339 -0.0948839 -1.88261 0
M  V30 1566 C 152.466 -0.557517 -3.3408 0
M  V30 1567 C 151.512 -1.62686 -3.94253 0
M  V30 1568 S 152.345 -3.21667 -4.28125 0
M  V30 1569 C 153.501 -2.76384 -5.61572 0
M  V30 1570 H 153.734 -1.95891 -2.23638 0
M  V30 1571 H 151.267 -1.10367 -1.07974 0
M  V30 1572 H 153.225 -0.292674 -4.09455 0
M  V30 1573 H 151.886 0.353062 -3.12109 0
M  V30 1574 H 151.079 -1.24866 -4.88287 0
M  V30 1575 H 150.681 -1.84324 -3.25424 0
M  V30 1576 H 152.973 -2.2105 -6.40424 0
M  V30 1577 H 153.916 -3.69123 -6.0428 0
M  V30 1578 H 154.324 -2.15847 -5.21604 0
M  V30 1579 N 153.722 1.14298 -1.08507 0
M  V30 1580 C 154.952 1.88945 -0.835663 0
M  V30 1581 C 155.36 1.78894 0.615928 0
M  V30 1582 O 154.703 1.1468 1.43506 0
M  V30 1583 C 154.765 3.39585 -1.17994 0
M  V30 1584 C 154.429 3.7342 -2.63451 0
M  V30 1585 C 155.426 3.73454 -3.61702 0
M  V30 1586 C 153.111 4.03368 -2.99332 0
M  V30 1587 C 155.105 4.02961 -4.93864 0
M  V30 1588 C 152.792 4.32538 -4.31687 0
M  V30 1589 C 153.79 4.32318 -5.28763 0
M  V30 1590 O 153.478 4.6078 -6.58739 0
M  V30 1591 H 153.21 0.605307 -0.300965 0
M  V30 1592 H 155.764 1.45673 -1.44806 0
M  V30 1593 H 153.994 3.83315 -0.51055 0
M  V30 1594 H 155.683 3.9554 -0.911182 0
M  V30 1595 H 156.449 3.50403 -3.35325 0
M  V30 1596 H 152.328 4.02692 -2.24411 0
M  V30 1597 H 155.872 4.02704 -5.69627 0
M  V30 1598 H 151.769 4.55059 -4.57812 0
M  V30 1599 H 152.537 4.78492 -6.64069 0
M  V30 1600 N 155.201 0.870884 1.31352 0
M  V30 1601 C 156.134 0.271983 2.26573 0
M  V30 1602 C 157.112 -0.599385 1.51149 0
M  V30 1603 O 158.296 -0.552605 1.80218 0
M  V30 1604 C 155.423 -0.614801 3.33073 0
M  V30 1605 C 154.469 0.185342 4.26097 0
M  V30 1606 S 155.302 1.56444 5.12138 0
M  V30 1607 C 156.458 0.683807 6.22153 0
M  V30 1608 H 156.691 1.07916 2.77023 0
M  V30 1609 H 154.224 0.669459 1.39132 0
M  V30 1610 H 156.182 -1.12074 3.94905 0
M  V30 1611 H 154.843 -1.39593 2.81376 0
M  V30 1612 H 154.036 -0.490771 5.01605 0
M  V30 1613 H 153.638 0.623415 3.68768 0
M  V30 1614 H 155.93 -0.10521 6.77418 0
M  V30 1615 H 156.873 1.41004 6.93919 0
M  V30 1616 H 157.281 0.250952 5.63942 0
M  V30 1617 N 156.679 -1.44442 0.630414 0
M  V30 1618 C 157.927 -2.01653 0.134351 0
M  V30 1619 C 158.248 -1.49836 -1.24796 0
M  V30 1620 O 157.518 -0.701684 -1.82902 0
M  V30 1621 H 156.098 -0.74554 0.0466769 0
M  V30 1622 H 158.76 -1.76952 0.816955 0
M  V30 1623 H 157.856 -3.11935 0.101498 0
M  V30 1624 N 158.157 -0.370918 -1.53173 0
M  V30 1625 C 159.067 0.480823 -2.2962 0
M  V30 1626 C 160.083 1.08789 -1.35798 0
M  V30 1627 O 161.259 1.09768 -1.68858 0
M  V30 1628 C 158.324 1.60227 -3.07454 0
M  V30 1629 C 157.385 1.0222 -4.16953 0
M  V30 1630 C 156.618 2.0902 -4.91066 0
M  V30 1631 O 156.841 3.30222 -4.65091 0
M  V30 1632 O 155.775 1.71778 -5.76867 0
M  V30 1633 H 159.601 -0.141421 -3.03371 0
M  V30 1634 H 157.186 -0.135146 -1.48787 0
M  V30 1635 H 159.068 2.25417 -3.56041 0
M  V30 1636 H 157.743 2.20982 -2.36535 0
M  V30 1637 H 156.65 0.334064 -3.72605 0
M  V30 1638 H 157.983 0.459131 -4.90054 0
M  V30 1639 N 159.635 1.57281 -0.100228 0
M  V30 1640 C 160.545 2.17833 0.870965 0
M  V30 1641 C 161.561 1.14921 1.30649 0
M  V30 1642 O 162.737 1.47313 1.37335 0
M  V30 1643 C 159.802 2.75085 2.1102 0
M  V30 1644 C 158.863 3.9297 1.72838 0
M  V30 1645 C 158.096 4.47482 2.90854 0
M  V30 1646 O 158.319 4.00922 4.05731 0
M  V30 1647 O 157.253 5.38433 2.69023 0
M  V30 1648 H 161.079 3.0124 0.38575 0
M  V30 1649 H 158.664 1.48881 0.124397 0
M  V30 1650 H 160.546 3.11656 2.83634 0
M  V30 1651 H 159.221 1.94721 2.58584 0
M  V30 1652 H 158.128 3.61201 0.973883 0
M  V30 1653 H 159.461 4.74713 1.30033 0
M  V30 1654 N 161.113 -0.173488 1.56642 0
M  V30 1655 C 162.063 -1.21941 1.92651 0
M  V30 1656 C 163.047 -1.39912 0.794577 0
M  V30 1657 O 164.239 -1.41919 1.05773 0
M  V30 1658 C 161.368 -2.55935 2.28806 0
M  V30 1659 C 160.454 -2.41667 3.48508 0
M  V30 1660 N 160.845 -1.9711 4.65813 0
M  V30 1661 C 159.143 -2.72499 3.53072 0
M  V30 1662 C 159.844 -1.95253 5.47952 0
M  V30 1663 N 158.82 -2.37575 4.88937 0
M  V30 1664 H 162.622 -0.866581 2.80834 0
M  V30 1665 H 160.136 -0.381776 1.57849 0
M  V30 1666 H 162.133 -3.31511 2.52797 0
M  V30 1667 H 160.793 -2.92022 1.41961 0
M  V30 1668 H 161.804 -1.67481 4.90072 0
M  V30 1669 H 158.481 -3.12639 2.767 0
M  V30 1670 H 159.871 -1.6252 6.51948 0
M  V30 1671 N 162.591 -1.51276 -0.441967 0
M  V30 1672 C 163.521 -1.752 -1.54361 0
M  V30 1673 C 164.502 -0.601682 -1.59103 0
M  V30 1674 O 165.687 -0.843913 -1.74905 0
M  V30 1675 C 162.817 -1.87282 -2.92477 0
M  V30 1676 C 161.771 -3.02687 -3.02596 0
M  V30 1677 C 161.097 -2.99947 -4.42647 0
M  V30 1678 C 162.397 -4.4273 -2.77106 0
M  V30 1679 H 164.091 -2.67442 -1.34592 0
M  V30 1680 H 161.637 -1.28694 -0.646048 0
M  V30 1681 H 163.59 -2.02602 -3.695 0
M  V30 1682 H 162.314 -0.916844 -3.13467 0
M  V30 1683 H 160.973 -2.87065 -2.28012 0
M  V30 1684 H 160.621 -2.02136 -4.60597 0
M  V30 1685 H 160.321 -3.77439 -4.50348 0
M  V30 1686 H 161.845 -3.17354 -5.2165 0
M  V30 1687 H 163.259 -4.58727 -3.43864 0
M  V30 1688 H 161.656 -5.21893 -2.96222 0
M  V30 1689 H 162.726 -4.53087 -1.72744 0
M  V30 1690 N 164.069 0.697108 -1.41344 0
M  V30 1691 C 165.316 1.45714 -1.40619 0
M  V30 1692 C 165.644 1.94494 -0.0147907 0
M  V30 1693 O 164.899 1.69794 0.973066 0
M  V30 1694 C 165.198 2.68553 -2.35826 0
M  V30 1695 C 164.864 2.38438 -3.82698 0
M  V30 1696 C 163.526 2.29936 -4.22709 0
M  V30 1697 C 165.878 2.13567 -4.75435 0
M  V30 1698 C 163.206 1.94656 -5.53467 0
M  V30 1699 C 165.558 1.79797 -6.06511 0
M  V30 1700 C 164.222 1.69789 -6.45545 0
M  V30 1701 H 163.492 0.533206 -0.51456 0
M  V30 1702 H 166.139 0.796901 -1.74131 0
M  V30 1703 H 164.444 3.39503 -1.95563 0
M  V30 1704 H 166.141 3.2669 -2.32539 0
M  V30 1705 H 162.731 2.4595 -3.51008 0
M  V30 1706 H 166.915 2.19082 -4.45328 0
M  V30 1707 H 162.171 1.8546 -5.82593 0
M  V30 1708 H 166.345 1.59572 -6.77872 0
M  V30 1709 H 163.972 1.4222 -7.46778 0
M  V30 1710 N 165.547 1.27147 0.931209 0
M  V30 1711 C 166.772 1.16191 1.71797 0
M  V30 1712 C 167.197 -0.278004 1.86034 0
M  V30 1713 O 166.555 -1.20137 1.35782 0
M  V30 1714 C 166.603 1.84673 3.09723 0
M  V30 1715 O 165.707 1.14231 3.96264 0
M  V30 1716 H 165.048 0.404303 0.526721 0
M  V30 1717 H 167.578 1.68152 1.1656 0
M  V30 1718 H 167.588 1.91893 3.60057 0
M  V30 1719 H 166.263 2.89421 2.98677 0
M  V30 1720 H 164.84 1.15056 3.54706 0
M  V30 1721 N 167.025 -1.13721 1.09112 0
M  V30 1722 C 168.271 -1.85198 0.826414 0
M  V30 1723 C 168.604 -1.83129 -0.646319 0
M  V30 1724 O 167.879 -1.2671 -1.47563 0
M  V30 1725 C 168.162 -3.33507 1.35812 0
M  V30 1726 C 168.015 -3.44108 2.89672 0
M  V30 1727 C 169.334 -4.28838 0.989256 0
M  V30 1728 H 166.453 -0.67243 0.301675 0
M  V30 1729 H 169.095 -1.33499 1.35197 0
M  V30 1730 H 167.245 -3.77666 0.911082 0
M  V30 1731 H 168.917 -3.08684 3.428 0
M  V30 1732 H 167.16 -2.85087 3.26967 0
M  V30 1733 H 167.831 -4.48388 3.21951 0
M  V30 1734 H 170.307 -3.92734 1.37475 0
M  V30 1735 H 169.183 -5.31051 1.38838 0
M  V30 1736 H 169.444 -4.4198 -0.102924 0
M  V30 1737 N 168.503 -0.877838 -1.30888 0
M  V30 1738 C 169.413 -0.343096 -2.32078 0
M  V30 1739 C 170.429 0.551022 -1.65045 0
M  V30 1740 O 171.605 0.445854 -1.96403 0
M  V30 1741 C 168.67 0.439905 -3.43898 0
M  V30 1742 C 167.731 -0.483111 -4.26573 0
M  V30 1743 C 166.964 0.262616 -5.33053 0
M  V30 1744 O 167.187 1.48967 -5.50604 0
M  V30 1745 O 166.121 -0.383593 -6.00676 0
M  V30 1746 H 169.947 -1.18203 -2.79753 0
M  V30 1747 H 167.532 -0.64145 -1.34929 0
M  V30 1748 H 169.414 0.883504 -4.12034 0
M  V30 1749 H 168.089 1.25526 -2.98371 0
M  V30 1750 H 166.996 -0.975374 -3.61161 0
M  V30 1751 H 168.329 -1.26427 -4.75686 0
M  V30 1752 N 169.982 1.44106 -0.638065 0
M  V30 1753 C 170.914 2.28976 0.101205 0
M  V30 1754 C 171.927 1.4167 0.802088 0
M  V30 1755 O 173.116 1.65755 0.662375 0
M  V30 1756 C 170.216 3.18217 1.16581 0
M  V30 1757 C 169.389 4.33978 0.546066 0
M  V30 1758 C 168.448 5.04202 1.50554 0
M  V30 1759 O 167.474 5.59986 1.01999 0
M  V30 1760 N 168.676 5.06296 2.8398 0
M  V30 1761 H 171.441 2.93064 -0.627186 0
M  V30 1762 H 169.002 1.54629 -0.479731 0
M  V30 1763 H 170.994 3.62061 1.80815 0
M  V30 1764 H 169.564 2.55833 1.79634 0
M  V30 1765 H 168.784 3.93239 -0.275046 0
M  V30 1766 H 170.072 5.08675 0.112793 0
M  V30 1767 H 169.47 4.62319 3.26002 0
M  V30 1768 H 168.027 5.53907 3.43556 0
M  V30 1769 N 171.46 0.379036 1.52974 0
M  V30 1770 C 172.709 -0.207612 2.00629 0
M  V30 1771 C 173.022 -1.48758 1.27006 0
M  V30 1772 O 174.228 -2.15365 1.65318 0
M  V30 1773 C 172.684 -0.42053 3.57435 0
M  V30 1774 C 172.292 0.845587 4.39948 0
M  V30 1775 C 174.036 -0.964102 4.13407 0
M  V30 1776 C 171.943 0.601513 5.88333 0
M  V30 1777 H 170.873 -0.0813591 0.749598 0
M  V30 1778 H 173.524 0.499853 1.76561 0
M  V30 1779 H 171.906 -1.18959 3.7771 0
M  V30 1780 H 173.08 1.61848 4.31442 0
M  V30 1781 H 171.395 1.31336 3.95145 0
M  V30 1782 H 173.992 -1.16225 5.21916 0
M  V30 1783 H 174.335 -1.93019 3.68849 0
M  V30 1784 H 174.868 -0.25487 3.96983 0
M  V30 1785 H 171.607 1.53831 6.37194 0
M  V30 1786 H 171.127 -0.132628 5.99653 0
M  V30 1787 H 172.806 0.232134 6.46583 0
M  V30 1788 N 172.938 -1.57226 0.108567 0
M  V30 1789 C 174.166 -1.99179 -0.559954 0
M  V30 1790 C 174.581 -0.988022 -1.60884 0
M  V30 1791 O 173.938 0.0205512 -1.82488 0
M  V30 1792 C 173.989 -3.41159 -1.19552 0
M  V30 1793 O 173.71 -4.37694 -0.188577 0
M  V30 1794 C 175.211 -3.98188 -1.94837 0
M  V30 1795 H 172.431 -0.654228 -0.149088 0
M  V30 1796 H 174.975 -2.03598 0.19183 0
M  V30 1797 H 173.13 -3.37711 -1.89815 0
M  V30 1798 H 173.544 -5.20469 -0.649014 0
M  V30 1799 H 175.018 -4.99644 -2.34648 0
M  V30 1800 H 175.495 -3.3675 -2.81951 0
M  V30 1801 H 176.101 -4.0515 -1.2936 0
M  V30 1802 N 174.416 0.165178 -1.56732 0
M  V30 1803 C 175.379 1.18822 -1.95995 0
M  V30 1804 C 176.379 1.3685 -0.84431 0
M  V30 1805 O 177.569 1.34152 -1.11126 0
M  V30 1806 C 174.701 2.5521 -2.26011 0
M  V30 1807 H 175.894 0.851825 -2.87548 0
M  V30 1808 H 173.447 0.407857 -1.50885 0
M  V30 1809 H 174.182 2.93852 -1.37191 0
M  V30 1810 H 173.967 2.43489 -3.07336 0
M  V30 1811 H 175.457 3.28927 -2.57288 0
M  V30 1812 N 175.894 1.51508 0.433938 0
M  V30 1813 C 176.827 1.67756 1.54704 0
M  V30 1814 C 177.805 0.525127 1.53887 0
M  V30 1815 O 178.989 0.749393 1.72963 0
M  V30 1816 C 176.116 1.69424 2.9328 0
M  V30 1817 C 175.162 2.90673 3.12108 0
M  V30 1818 S 175.995 4.51431 2.88046 0
M  V30 1819 C 177.151 4.55849 4.28897 0
M  V30 1820 H 177.384 2.61904 1.40689 0
M  V30 1821 H 174.917 1.41235 0.62386 0
M  V30 1822 H 176.875 1.7107 3.73156 0
M  V30 1823 H 175.536 0.764464 3.04655 0
M  V30 1824 H 174.729 2.88251 4.13434 0
M  V30 1825 H 174.331 2.86786 2.40062 0
M  V30 1826 H 176.623 4.31699 5.22152 0
M  V30 1827 H 177.566 5.57676 4.36351 0
M  V30 1828 H 177.974 3.85137 4.12711 0
M  V30 1829 N 177.372 -0.689602 1.41712 0
M  V30 1830 C 178.302 -1.81577 1.46806 0
M  V30 1831 C 179.283 -1.66945 0.326105 0
M  V30 1832 O 180.468 -1.86588 0.538377 0
M  V30 1833 C 177.598 -3.19762 1.35535 0
M  V30 1834 C 176.552 -3.49107 2.47605 0
M  V30 1835 C 175.878 -4.86711 2.21397 0
M  V30 1836 C 177.178 -3.47483 3.89939 0
M  V30 1837 H 178.872 -1.7757 2.41058 0
M  V30 1838 H 176.418 -0.852887 1.16025 0
M  V30 1839 H 178.371 -3.98263 1.3771 0
M  V30 1840 H 177.095 -3.24409 0.377708 0
M  V30 1841 H 175.754 -2.72959 2.44722 0
M  V30 1842 H 175.402 -4.8799 1.21961 0
M  V30 1843 H 175.102 -5.0731 2.96497 0
M  V30 1844 H 176.626 -5.67515 2.25297 0
M  V30 1845 H 178.04 -4.1598 3.94505 0
M  V30 1846 H 176.437 -3.79615 4.64771 0
M  V30 1847 H 177.507 -2.46341 4.17665 0
M  V30 1848 N 178.85 -1.27639 -0.924453 0
M  V30 1849 C 179.78 -1.13166 -2.04244 0
M  V30 1850 C 180.761 -0.032256 -1.70069 0
M  V30 1851 O 181.946 -0.207328 -1.9309 0
M  V30 1852 C 179.076 -0.781496 -3.38393 0
M  V30 1853 C 178.03 -1.83449 -3.86692 0
M  V30 1854 C 177.356 -1.33822 -5.17683 0
M  V30 1855 C 178.656 -3.23917 -4.09726 0
M  V30 1856 H 180.35 -2.06689 -2.1661 0
M  V30 1857 H 177.896 -0.995136 -1.04082 0
M  V30 1858 H 179.849 -0.667057 -4.16087 0
M  V30 1859 H 178.573 0.189439 -3.2605 0
M  V30 1860 H 177.232 -1.93789 -3.11193 0
M  V30 1861 H 176.88 -0.35665 -5.01734 0
M  V30 1862 H 176.58 -2.04224 -5.50968 0
M  V30 1863 H 178.104 -1.23679 -5.97943 0
M  V30 1864 H 179.518 -3.16559 -4.77978 0
M  V30 1865 H 177.915 -3.92059 -4.54324 0
M  V30 1866 H 178.985 -3.68729 -3.14908 0
M  V30 1867 N 180.328 1.1314 -1.09713 0
M  V30 1868 C 181.556 1.88321 -0.856898 0
M  V30 1869 C 181.971 1.79276 0.592073 0
M  V30 1870 O 181.328 1.16142 1.40774 0
M  V30 1871 C 181.379 3.37812 -1.28706 0
M  V30 1872 O 181.1 3.46627 -2.67921 0
M  V30 1873 C 182.601 4.29952 -1.07964 0
M  V30 1874 H 179.821 0.596094 -0.308079 0
M  V30 1875 H 182.365 1.43205 -1.45988 0
M  V30 1876 H 180.52 3.805 -0.727912 0
M  V30 1877 H 180.934 4.39579 -2.8613 0
M  V30 1878 H 182.408 5.33159 -1.42986 0
M  V30 1879 H 182.885 4.39196 -0.0176577 0
M  V30 1880 H 183.491 3.93036 -1.62489 0
M  V30 1881 N 181.806 0.884767 1.30421 0
M  V30 1882 C 182.753 0.349642 2.28136 0
M  V30 1883 C 183.723 -0.560061 1.56373 0
M  V30 1884 O 184.908 -0.488524 1.8444 0
M  V30 1885 C 182.048 -0.42999 3.42411 0
M  V30 1886 C 181.161 0.508907 4.28992 0
M  V30 1887 C 180.296 -0.286301 5.30428 0
M  V30 1888 C 179.335 0.648079 6.08659 0
M  V30 1889 N 178.472 -0.111792 7.02011 0
M  V30 1890 H 183.312 1.18807 2.73293 0
M  V30 1891 H 180.849 0.597231 1.3443 0
M  V30 1892 H 182.807 -0.897923 4.07423 0
M  V30 1893 H 181.437 -1.23299 2.98324 0
M  V30 1894 H 180.489 1.09533 3.64289 0
M  V30 1895 H 181.801 1.22475 4.8353 0
M  V30 1896 H 180.955 -0.816098 6.01186 0
M  V30 1897 H 179.694 -1.03536 4.76583 0
M  V30 1898 H 178.699 1.18951 5.36778 0
M  V30 1899 H 179.924 1.39623 6.64592 0
M  V30 1900 H 177.87 -0.843395 6.50556 0
M  V30 1901 H 177.787 0.544429 7.54037 0
M  V30 1902 H 179.055 -0.622339 7.77012 0
M  V30 1903 N 183.284 -1.43765 0.645699 0
M  V30 1904 C 184.214 -2.33471 -0.0370477 0
M  V30 1905 C 185.195 -1.49042 -0.819779 0
M  V30 1906 O 186.38 -1.77726 -0.782758 0
M  V30 1907 C 183.51 -3.32311 -1.0093 0
M  V30 1908 C 182.464 -4.2667 -0.337201 0
M  V30 1909 C 181.79 -5.1549 -1.42037 0
M  V30 1910 C 183.09 -5.16657 0.765706 0
M  V30 1911 H 184.784 -2.90809 0.712069 0
M  V30 1912 H 182.33 -1.39834 0.343876 0
M  V30 1913 H 184.283 -3.9396 -1.49578 0
M  V30 1914 H 183.007 -2.73213 -1.78948 0
M  V30 1915 H 181.666 -3.66374 0.128771 0
M  V30 1916 H 181.314 -4.52735 -2.1918 0
M  V30 1917 H 181.014 -5.79438 -0.975966 0
M  V30 1918 H 182.538 -5.80012 -1.90838 0
M  V30 1919 H 183.952 -5.72158 0.361702 0
M  V30 1920 H 182.349 -5.89286 1.13413 0
M  V30 1921 H 183.419 -4.56796 1.62683 0
M  V30 1922 N 184.763 -0.387143 -1.52771 0
M  V30 1923 C 185.71 0.449048 -2.26389 0
M  V30 1924 C 186.68 1.05961 -1.27912 0
M  V30 1925 O 187.865 1.08804 -1.56737 0
M  V30 1926 C 185.005 1.57155 -3.0724 0
M  V30 1927 C 184.118 0.984066 -4.20643 0
M  V30 1928 C 183.253 2.07745 -4.88892 0
M  V30 1929 C 182.292 1.46574 -5.94292 0
M  V30 1930 N 181.429 2.49834 -6.56146 0
M  V30 1931 H 186.269 -0.185205 -2.97424 0
M  V30 1932 H 183.806 -0.103164 -1.46738 0
M  V30 1933 H 185.764 2.23309 -3.52405 0
M  V30 1934 H 184.394 2.17615 -2.38419 0
M  V30 1935 H 183.446 0.212193 -3.79808 0
M  V30 1936 H 184.758 0.497029 -4.96318 0
M  V30 1937 H 183.912 2.81673 -5.3735 0
M  V30 1938 H 182.651 2.59807 -4.12737 0
M  V30 1939 H 181.656 0.711696 -5.45174 0
M  V30 1940 H 182.881 0.953088 -6.72379 0
M  V30 1941 H 180.827 3.0107 -5.82832 0
M  V30 1942 H 180.744 2.05879 -7.27427 0
M  V30 1943 H 182.012 3.23399 -7.09249 0
M  V30 1944 N 186.241 1.57166 -0.116904 0
M  V30 1945 C 187.151 2.18745 0.847812 0
M  V30 1946 C 188.167 1.163 1.29423 0
M  V30 1947 O 189.343 1.48761 1.35765 0
M  V30 1948 C 186.408 2.77307 2.0809 0
M  V30 1949 C 185.469 3.94781 1.68661 0
M  V30 1950 C 184.702 4.50541 2.86091 0
M  V30 1951 O 184.925 4.05202 4.01456 0
M  V30 1952 O 183.859 5.41256 2.63298 0
M  V30 1953 H 187.685 3.01632 0.353778 0
M  V30 1954 H 185.27 1.49005 0.108599 0
M  V30 1955 H 187.152 3.14647 2.80313 0
M  V30 1956 H 185.827 1.97452 2.56504 0
M  V30 1957 H 184.734 3.62214 0.935518 0
M  V30 1958 H 186.067 4.76065 1.24991 0
M  V30 1959 N 187.719 -0.156864 1.56817 0
M  V30 1960 C 188.947 -0.886316 1.86955 0
M  V30 1961 C 189.362 -1.75185 0.703975 0
M  V30 1962 O 188.719 -1.79555 -0.326552 0
M  V30 1963 C 188.77 -1.75117 3.16253 0
M  V30 1964 O 188.491 -0.920537 4.2832 0
M  V30 1965 C 189.992 -2.58905 3.59837 0
M  V30 1966 H 187.212 -0.25678 0.619923 0
M  V30 1967 H 189.756 -0.152615 2.0393 0
M  V30 1968 H 187.911 -2.43805 3.01062 0
M  V30 1969 H 188.325 -1.51337 5.02192 0
M  V30 1970 H 189.799 -3.1518 4.53172 0
M  V30 1971 H 190.276 -3.34472 2.84649 0
M  V30 1972 H 190.882 -1.95526 3.7769 0
M  V30 1973 N 189.197 -1.51736 -0.425897 0
M  V30 1974 C 190.16 -1.73271 -1.50032 0
M  V30 1975 C 191.16 -0.602639 -1.4908 0
M  V30 1976 O 192.35 -0.87033 -1.509 0
M  V30 1977 C 189.482 -1.79969 -2.89523 0
M  V30 1978 H 190.675 -2.69172 -1.32237 0
M  V30 1979 H 188.228 -1.41899 -0.65532 0
M  V30 1980 H 188.963 -0.859241 -3.1271 0
M  V30 1981 H 188.748 -2.62109 -2.91619 0
M  V30 1982 H 190.238 -1.9843 -3.67444 0
M  V30 1983 N 190.675 0.682077 -1.42076 0
M  V30 1984 C 191.585 1.82535 -1.47371 0
M  V30 1985 C 192.601 1.7017 -0.363079 0
M  V30 1986 O 193.777 1.91848 -0.612875 0
M  V30 1987 C 190.842 3.18624 -1.36674 0
M  V30 1988 C 189.903 3.42999 -2.58167 0
M  V30 1989 C 189.136 4.72595 -2.4797 0
M  V30 1990 O 189.359 5.50006 -1.5116 0
M  V30 1991 O 188.293 4.98054 -3.37974 0
M  V30 1992 H 192.119 1.81023 -2.43853 0
M  V30 1993 H 189.704 0.836887 -1.2376 0
M  V30 1994 H 191.586 3.99847 -1.33043 0
M  V30 1995 H 190.261 3.20789 -0.433138 0
M  V30 1996 H 189.168 2.61653 -2.67373 0
M  V30 1997 H 190.501 3.45659 -3.50401 0
M  V30 1998 N 192.153 1.28127 0.917671 0
M  V30 1999 C 193.101 1.11569 2.04096 0
M  V30 2000 C 194.095 0.0360242 1.69362 0
M  V30 2001 O 195.301 0.194501 1.78946 0
M  V30 2002 H 191.676 0.344097 0.668656 0
M  V30 2003 H 193.647 2.06711 2.15205 0
M  V30 2004 C 192.396 0.790197 3.38602 0
M  V30 2005 H 191.719 1.61293 3.6582 0
M  V30 2006 H 193.159 0.714271 4.1794 0
M  V30 2007 C 191.618 -0.505897 3.3308 0
M  V30 2008 O 192.148 -1.53736 3.71117 0
M  V30 2009 N 190.354 -0.505193 2.86175 0
M  V30 2010 H 189.901 0.334621 2.55417 0
M  V30 2011 H 189.859 -1.37243 2.82863 0
M  V30 2012 N 193.631 -1.12557 1.10312 0
M  V30 2013 C 194.856 -1.88405 0.867085 0
M  V30 2014 C 195.281 -1.79038 -0.576817 0
M  V30 2015 O 194.639 -1.14439 -1.40618 0
M  V30 2016 C 194.687 -3.3563 1.31851 0
M  V30 2017 O 193.791 -4.09565 0.482734 0
M  V30 2018 H 193.132 -0.585455 0.313271 0
M  V30 2019 H 195.662 -1.42352 1.4696 0
M  V30 2020 H 195.672 -3.86469 1.3079 0
M  V30 2021 H 194.347 -3.41765 2.37001 0
M  V30 2022 H 192.924 -3.68695 0.558448 0
M  V30 2023 N 195.109 -0.891671 -1.2995 0
M  V30 2024 C 196.039 -0.379797 -2.30391 0
M  V30 2025 C 197.02 0.540919 -1.6127 0
M  V30 2026 O 198.205 0.453352 -1.88834 0
M  V30 2027 C 195.335 0.400654 -3.44981 0
M  V30 2028 C 194.289 -0.428905 -4.25846 0
M  V30 2029 C 193.615 0.478557 -5.32554 0
M  V30 2030 C 194.915 -1.67458 -4.94727 0
M  V30 2031 H 196.609 -1.21914 -2.73454 0
M  V30 2032 H 194.155 -0.587675 -1.31462 0
M  V30 2033 H 196.108 0.769434 -4.14316 0
M  V30 2034 H 194.832 1.27371 -3.0074 0
M  V30 2035 H 193.491 -0.779911 -3.58208 0
M  V30 2036 H 193.139 1.34951 -4.84559 0
M  V30 2037 H 192.839 -0.0727433 -5.87555 0
M  V30 2038 H 194.363 0.843705 -6.04743 0
M  V30 2039 H 195.777 -1.376 -5.56542 0
M  V30 2040 H 194.174 -2.16659 -5.59624 0
M  V30 2041 H 195.244 -2.41518 -4.20473 0
M  V30 2042 N 196.587 1.43421 -0.653314 0
M  V30 2043 C 197.534 2.30768 0.0382271 0
M  V30 2044 C 198.504 1.44755 0.814576 0
M  V30 2045 O 199.689 1.73624 0.791162 0
M  V30 2046 C 196.829 3.30336 0.998599 0
M  V30 2047 C 195.942 4.31448 0.218342 0
M  V30 2048 C 195.077 5.18098 1.17252 0
M  V30 2049 C 194.116 6.10902 0.382702 0
M  V30 2050 N 193.253 6.90176 1.28848 0
M  V30 2051 H 198.093 2.89357 -0.712511 0
M  V30 2052 H 195.63 1.42548 -0.363128 0
M  V30 2053 H 197.588 3.86572 1.56901 0
M  V30 2054 H 196.218 2.73397 1.71621 0
M  V30 2055 H 195.27 3.77506 -0.46836 0
M  V30 2056 H 196.582 4.97227 -0.395812 0
M  V30 2057 H 195.736 5.7896 1.81356 0
M  V30 2058 H 194.475 4.52444 1.82058 0
M  V30 2059 H 193.48 5.49128 -0.27169 0
M  V30 2060 H 194.705 6.78598 -0.260957 0
M  V30 2061 H 192.651 6.27171 1.92334 0
M  V30 2062 H 192.568 7.52478 0.728887 0
M  V30 2063 H 193.836 7.55543 1.91766 0
M  V30 2064 N 198.065 0.39524 1.52563 0
M  V30 2065 C 199.012 -0.437036 2.26624 0
M  V30 2066 C 199.982 -1.05281 1.28472 0
M  V30 2067 O 201.167 -1.07971 1.57311 0
M  V30 2068 C 198.307 -1.55524 3.08069 0
M  V30 2069 C 197.42 -0.961745 4.21158 0
M  V30 2070 C 196.555 -2.05149 4.89987 0
M  V30 2071 C 195.594 -1.4342 5.95061 0
M  V30 2072 N 194.731 -2.46351 6.57462 0
M  V30 2073 H 199.571 0.200976 2.97322 0
M  V30 2074 H 197.108 0.110944 1.46681 0
M  V30 2075 H 199.066 -2.21437 3.53584 0
M  V30 2076 H 197.696 -2.16348 2.3957 0
M  V30 2077 H 196.748 -0.192048 3.79915 0
M  V30 2078 H 198.06 -0.470701 4.96574 0
M  V30 2079 H 197.214 -2.78819 5.38837 0
M  V30 2080 H 195.953 -2.57615 4.14109 0
M  V30 2081 H 194.958 -0.682774 5.45544 0
M  V30 2082 H 196.183 -0.917416 6.72875 0
M  V30 2083 H 194.129 -2.97975 5.8442 0
M  V30 2084 H 194.046 -2.02019 7.28508 0
M  V30 2085 H 195.314 -3.19633 7.10954 0
M  V30 2086 N 199.544 -1.57102 0.125237 0
M  V30 2087 C 200.955 -1.82384 -0.399142 0
M  V30 2088 C 201.306 -1.04276 -1.66195 0
M  V30 2089 O 200.431 -0.281269 -2.14564 0
M  V30 2090 C 201.026 -3.30821 -0.730932 0
M  V30 2091 C 199.585 -3.56762 -1.19992 0
M  V30 2092 C 198.732 -2.7649 -0.211792 0
M  V30 2093 H 201.683 -1.54786 0.350277 0
M  V30 2094 H 201.704 -3.4579 -1.58775 0
M  V30 2095 H 201.216 -3.87643 0.188345 0
M  V30 2096 H 199.317 -3.05305 -2.13588 0
M  V30 2097 H 199.43 -4.65317 -1.14093 0
M  V30 2098 H 197.794 -2.4489 -0.700085 0
M  V30 2099 H 198.577 -3.36073 0.700691 0
M  V30 2100 N 201.022 0.148545 -1.56898 0
M  V30 2101 C 202.268 0.862694 -1.83536 0
M  V30 2102 C 202.601 1.80889 -0.706604 0
M  V30 2103 O 201.876 1.92328 0.289885 0
M  V30 2104 C 202.159 1.63853 -3.20662 0
M  V30 2105 C 202.012 0.713925 -4.44098 0
M  V30 2106 C 203.331 2.60133 -3.54991 0
M  V30 2107 H 200.45 0.312179 -0.667618 0
M  V30 2108 H 203.092 0.127953 -1.89569 0
M  V30 2109 H 201.242 2.26489 -3.1565 0
M  V30 2110 H 202.914 0.098686 -4.61194 0
M  V30 2111 H 201.157 0.0234019 -4.33794 0
M  V30 2112 H 201.828 1.29278 -5.36648 0
M  V30 2113 H 204.304 2.07616 -3.60603 0
M  V30 2114 H 203.18 3.11468 -4.51972 0
M  V30 2115 H 203.441 3.41417 -2.80868 0
M  V30 2116 N 202.5 1.5196 0.417844 0
M  V30 2117 C 203.728 1.69426 1.18753 0
M  V30 2118 C 204.143 0.399955 1.84515 0
M  V30 2119 O 203.5 -0.623288 1.71527 0
M  V30 2120 C 203.551 2.82375 2.25714 0
M  V30 2121 O 203.272 4.06793 1.62638 0
M  V30 2122 C 204.773 3.11277 3.15628 0
M  V30 2123 H 201.993 0.568031 0.357186 0
M  V30 2124 H 204.537 1.98475 0.49273 0
M  V30 2125 H 202.692 2.5587 2.90877 0
M  V30 2126 H 203.106 4.69667 2.3348 0
M  V30 2127 H 204.58 3.93843 3.86771 0
M  V30 2128 H 205.057 2.24473 3.77503 0
M  V30 2129 H 205.663 3.39515 2.56144 0
M  V30 2130 N 203.978 -0.674533 1.42435 0
M  V30 2131 C 205.255 -1.4305 1.33402 0
M  V30 2132 C 205.635 -2.11081 -0.0284674 0
M  V30 2133 O 204.983 -2.03257 -1.04397 0
M  V30 2134 C 205.193 -2.43272 2.50239 0
M  V30 2135 C 206.541 -3.07907 2.92367 0
M  V30 2136 O 207.565 -2.53599 2.50132 0
M  V30 2137 O 206.424 -4.0632 3.65467 0
M  V30 2138 H 203.518 -0.638076 0.526106 0
M  V30 2139 H 206.064 -0.703235 1.54443 0
M  V30 2140 H 204.836 -1.91803 3.41068 0
M  V30 2141 H 204.459 -3.23479 2.31186 0
M  V30 2142 N 205.456 -1.28612 -0.910864 0
M  V30 2143 C 206.696 -1.1719 -1.67469 0
M  V30 2144 C 207.06 0.274441 -1.90028 0
M  V30 2145 O 208.261 0.511425 -2.6389 0
M  V30 2146 C 206.532 -1.95137 -2.99427 0
M  V30 2147 S 208.091 -2.00122 -3.90508 0
M  V30 2148 H 204.909 -0.41806 -0.575106 0
M  V30 2149 H 207.511 -1.6275 -1.08317 0
M  V30 2150 H 206.215 -2.99381 -2.80712 0
M  V30 2151 H 205.746 -1.50137 -3.63624 0
M  V30 2152 H 207.761 -1.10981 -4.8363 0
M  V30 2153 N 206.934 1.1197 -1.10907 0
M  V30 2154 C 208.18 1.8386 -0.855773 0
M  V30 2155 C 208.513 1.84134 0.617103 0
M  V30 2156 O 207.788 1.29041 1.45529 0
M  V30 2157 C 208.071 3.31305 -1.411 0
M  V30 2158 C 207.924 3.39456 -2.9511 0
M  V30 2159 C 209.243 4.2721 -1.05736 0
M  V30 2160 H 206.362 0.667545 -0.312334 0
M  V30 2161 H 209.004 1.31331 -1.37303 0
M  V30 2162 H 207.154 3.76169 -0.97105 0
M  V30 2163 H 208.826 3.03191 -3.47668 0
M  V30 2164 H 207.069 2.79849 -3.31462 0
M  V30 2165 H 207.74 4.43209 -3.29044 0
M  V30 2166 H 210.216 3.90497 -1.43706 0
M  V30 2167 H 209.092 5.28775 -1.47269 0
M  V30 2168 H 209.353 4.42088 0.0325958 0
M  V30 2169 N 208.412 0.89855 1.29475 0
M  V30 2170 C 209.661 0.519863 1.94885 0
M  V30 2171 C 209.974 -0.9383 1.71625 0
M  V30 2172 O 211.18 -1.42445 2.31131 0
M  V30 2173 C 209.636 0.878836 3.49005 0
M  V30 2174 C 209.244 2.35569 3.81066 0
M  V30 2175 C 210.988 0.570004 4.20656 0
M  V30 2176 C 208.895 2.65558 5.28425 0
M  V30 2177 H 207.825 0.190692 0.729488 0
M  V30 2178 H 210.476 1.09539 1.47219 0
M  V30 2179 H 208.858 0.232253 3.95318 0
M  V30 2180 H 210.032 3.04773 3.45616 0
M  V30 2181 H 208.347 2.63343 3.22552 0
M  V30 2182 H 210.944 0.770925 5.29113 0
M  V30 2183 H 211.287 -0.491404 4.1339 0
M  V30 2184 H 211.82 1.17438 3.8007 0
M  V30 2185 H 208.559 3.70493 5.40754 0
M  V30 2186 H 208.079 2.00977 5.65127 0
M  V30 2187 H 209.758 2.51765 5.96006 0
M  V30 2188 N 209.89 -1.43072 0.660911 0
M  V30 2189 C 211.115 -2.06584 0.183805 0
M  V30 2190 C 211.54 -1.49257 -1.14472 0
M  V30 2191 O 210.898 -0.605528 -1.70889 0
M  V30 2192 C 210.946 -3.60418 0.114434 0
M  V30 2193 O 210.05 -4.01981 -0.921137 0
M  V30 2194 H 209.391 -0.656669 0.0983994 0
M  V30 2195 H 211.921 -1.83447 0.906006 0
M  V30 2196 H 211.931 -4.07946 -0.0663394 0
M  V30 2197 H 210.606 -4.01519 1.08422 0
M  V30 2198 H 209.183 -3.66029 -0.71253 0
M  V30 2199 N 211.368 -0.403325 -1.52352 0
M  V30 2200 C 212.614 0.174605 -2.02047 0
M  V30 2201 C 212.947 1.45282 -1.28867 0
M  V30 2202 O 212.222 1.90483 -0.393257 0
M  V30 2203 C 212.505 0.428238 -3.57545 0
M  V30 2204 C 212.358 -0.866248 -4.4138 0
M  V30 2205 C 213.677 1.21287 -4.23057 0
M  V30 2206 H 210.796 0.0619851 -0.734389 0
M  V30 2207 H 213.438 -0.53565 -1.82293 0
M  V30 2208 H 211.588 1.03327 -3.74507 0
M  V30 2209 H 213.26 -1.50265 -4.3614 0
M  V30 2210 H 211.503 -1.47851 -4.07827 0
M  V30 2211 H 212.174 -0.643249 -5.48239 0
M  V30 2212 H 214.65 0.700703 -4.10158 0
M  V30 2213 H 213.526 1.35909 -5.31808 0
M  V30 2214 H 213.787 2.23193 -3.81625 0
M  V30 2215 N 212.846 1.57033 -0.133567 0
M  V30 2216 C 214.257 1.82593 0.389464 0
M  V30 2217 C 214.608 1.05156 1.6564 0
M  V30 2218 O 213.733 0.292644 2.14412 0
M  V30 2219 C 214.328 3.31204 0.713377 0
M  V30 2220 C 212.887 3.57393 1.18098 0
M  V30 2221 C 212.034 2.76598 0.197126 0
M  V30 2222 H 214.985 1.54598 -0.358481 0
M  V30 2223 H 215.006 3.46627 1.56939 0
M  V30 2224 H 214.518 3.87537 -0.2089 0
M  V30 2225 H 212.619 3.06433 2.11966 0
M  V30 2226 H 212.732 4.65915 1.11624 0
M  V30 2227 H 211.096 2.45257 0.687088 0
M  V30 2228 H 211.879 3.35697 -0.718504 0
M  V30 2229 N 214.325 -0.140222 1.56975 0
M  V30 2230 C 215.55 -0.870414 1.88251 0
M  V30 2231 C 215.975 -1.73637 0.723312 0
M  V30 2232 O 215.333 -1.78329 -0.32689 0
M  V30 2233 C 215.381 -1.69737 3.18154 0
M  V30 2234 O 214.485 -2.80229 3.02565 0
M  V30 2235 H 213.826 -0.242025 0.61832 0
M  V30 2236 H 216.356 -0.128999 2.04193 0
M  V30 2237 H 216.366 -2.09099 3.50345 0
M  V30 2238 H 215.041 -1.06152 4.02125 0
M  V30 2239 H 213.618 -2.44224 2.81796 0
M  V30 2240 N 215.803 -1.52179 -0.40978 0
M  V30 2241 C 217.05 -1.66206 -1.15679 0
M  V30 2242 C 217.378 -0.391674 -1.90516 0
M  V30 2243 O 216.633 0.62533 -1.8544 0
M  V30 2244 C 216.932 -2.83428 -2.17723 0
M  V30 2245 C 216.598 -4.21672 -1.59699 0
M  V30 2246 C 215.26 -4.59274 -1.43599 0
M  V30 2247 C 217.612 -5.07825 -1.17317 0
M  V30 2248 C 214.94 -5.80709 -0.836328 0
M  V30 2249 C 217.292 -6.29864 -0.587691 0
M  V30 2250 C 215.956 -6.66216 -0.413818 0
M  V30 2251 H 215.226 -0.608192 -0.423301 0
M  V30 2252 H 217.873 -1.86279 -0.444097 0
M  V30 2253 H 216.178 -2.57687 -2.95135 0
M  V30 2254 H 217.875 -2.91477 -2.75394 0
M  V30 2255 H 214.465 -3.9204 -1.73213 0
M  V30 2256 H 218.649 -4.79359 -1.28565 0
M  V30 2257 H 213.905 -6.07498 -0.689626 0
M  V30 2258 H 218.079 -6.95948 -0.250894 0
M  V30 2259 H 215.706 -7.60182 0.0529471 0
M  V30 2260 N 217.281 0.66697 -1.42791 0
M  V30 2261 C 218.528 1.42699 -1.43678 0
M  V30 2262 C 218.856 1.94419 -0.0560425 0
M  V30 2263 O 218.111 1.7182 0.936831 0
M  V30 2264 C 218.41 2.6349 -2.4147 0
M  V30 2265 C 218.076 2.30267 -3.8767 0
M  V30 2266 C 216.738 2.20918 -4.27491 0
M  V30 2267 C 219.09 2.03435 -4.79858 0
M  V30 2268 C 216.418 1.82873 -5.57471 0
M  V30 2269 C 218.77 1.66892 -6.10188 0
M  V30 2270 C 217.434 1.56058 -6.49001 0
M  V30 2271 H 216.704 0.522171 -0.525755 0
M  V30 2272 H 219.351 0.759785 -1.75783 0
M  V30 2273 H 217.656 3.35279 -2.0272 0
M  V30 2274 H 219.353 3.21684 -2.39417 0
M  V30 2275 H 215.943 2.38449 -3.56146 0
M  V30 2276 H 220.127 2.09586 -4.49875 0
M  V30 2277 H 215.383 1.7306 -5.86396 0
M  V30 2278 H 219.557 1.45157 -6.81104 0
M  V30 2279 H 217.184 1.26348 -7.49627 0
M  V30 2280 N 218.759 1.29093 0.90403 0
M  V30 2281 C 219.987 1.19689 1.68766 0
M  V30 2282 C 220.402 -0.243113 1.87228 0
M  V30 2283 O 219.759 -1.16326 1.40621 0
M  V30 2284 C 219.81 1.90144 3.07453 0
M  V30 2285 O 219.531 3.2852 2.89838 0
M  V30 2286 C 221.032 1.87162 4.01852 0
M  V30 2287 H 218.252 0.415035 0.527244 0
M  V30 2288 H 220.796 1.7039 1.13082 0
M  V30 2289 H 218.951 1.43289 3.59926 0
M  V30 2290 H 219.365 3.63944 3.77684 0
M  V30 2291 H 220.839 2.41032 4.96596 0
M  V30 2292 H 221.316 0.84617 4.30972 0
M  V30 2293 H 221.922 2.33741 3.5531 0
M  V30 2294 N 220.237 -1.11381 1.11499 0
M  V30 2295 C 221.514 -1.7955 0.775965 0
M  V30 2296 C 221.894 -1.97859 -0.73588 0
M  V30 2297 O 221.242 -1.56376 -1.66609 0
M  V30 2298 C 221.452 -3.13196 1.53977 0
M  V30 2299 C 222.8 -3.88227 1.71944 0
M  V30 2300 O 223.824 -3.22887 1.50407 0
M  V30 2301 O 222.683 -5.05477 2.07738 0
M  V30 2302 H 219.777 -0.777728 0.28119 0
M  V30 2303 H 222.323 -1.18118 1.21845 0
M  V30 2304 H 221.095 -2.95229 2.56818 0
M  V30 2305 H 220.718 -3.82342 1.09088 0
M  V30 2306 N 221.715 -0.905404 -1.28997 0
M  V30 2307 C 222.678 -0.392253 -2.25819 0
M  V30 2308 C 223.678 0.476753 -1.5357 0
M  V30 2309 O 224.868 0.280994 -1.71919 0
M  V30 2310 C 222 0.438588 -3.38067 0
M  V30 2311 H 223.193 -1.24743 -2.72725 0
M  V30 2312 H 220.746 -0.684051 -1.40536 0
M  V30 2313 H 221.481 1.31352 -2.96508 0
M  V30 2314 H 221.266 -0.184167 -3.91667 0
M  V30 2315 H 222.756 0.78873 -4.10084 0
M  V30 2316 N 223.193 1.4272 -0.668489 0
M  V30 2317 C 224.103 2.34596 0.0139753 0
M  V30 2318 C 225.119 1.5474 0.795703 0
M  V30 2319 O 226.295 1.87334 0.739466 0
M  V30 2320 C 223.36 3.33202 0.957982 0
M  V30 2321 C 222.421 4.28957 0.17149 0
M  V30 2322 C 221.654 5.22853 1.07053 0
M  V30 2323 O 221.877 5.21531 2.31001 0
M  V30 2324 O 220.811 5.9952 0.534727 0
M  V30 2325 H 224.637 2.9448 -0.742661 0
M  V30 2326 H 222.222 1.43117 -0.428705 0
M  V30 2327 H 224.104 3.93796 1.50008 0
M  V30 2328 H 222.779 2.758 1.69458 0
M  V30 2329 H 221.686 3.71796 -0.414558 0
M  V30 2330 H 223.019 4.89383 -0.52586 0
M  V30 2331 N 224.671 0.411399 1.52136 0
M  V30 2332 C 226.087 0.0623865 1.59478 0
M  V30 2333 C 226.287 -1.42554 1.4241 0
M  V30 2334 O 225.343 -2.19263 1.2522 0
M  V30 2335 C 226.656 0.559331 2.95452 0
M  V30 2336 C 228.204 0.517503 3.08692 0
M  V30 2337 C 228.679 0.990994 4.4715 0
M  V30 2338 N 230.17 0.947908 4.53397 0
M  V30 2339 C 230.905 1.28544 5.58806 0
M  V30 2340 N 230.401 1.69454 6.71757 0
M  V30 2341 N 232.194 1.20526 5.49026 0
M  V30 2342 H 224.345 1.37982 1.61477 0
M  V30 2343 H 226.608 0.566977 0.759764 0
M  V30 2344 H 226.314 1.59938 3.1323 0
M  V30 2345 H 226.188 -0.0298014 3.77188 0
M  V30 2346 H 228.575 -0.513505 2.90598 0
M  V30 2347 H 228.656 1.14272 2.28857 0
M  V30 2348 H 228.3 2.02034 4.65988 0
M  V30 2349 H 228.23 0.34257 5.25485 0
M  V30 2350 H 230.721 0.647157 3.72317 0
M  V30 2351 H 231.034 1.93513 7.48179 0
M  V30 2352 H 229.379 1.73359 6.73032 0
M  V30 2353 H 232.57 0.884505 4.59667 0
M  V30 2354 H 232.743 1.47161 6.31069 0
M  V30 2355 N 226.149 -1.5696 0.141893 0
M  V30 2356 C 227.565 -1.58151 -0.21456 0
M  V30 2357 C 227.765 -1.1559 -1.65049 0
M  V30 2358 O 226.821 -0.853832 -2.37626 0
M  V30 2359 C 228.134 -3.00674 0.0395576 0
M  V30 2360 C 229.682 -3.1299 -0.0245529 0
M  V30 2361 C 230.157 -4.57554 0.202167 0
M  V30 2362 N 231.648 -4.62961 0.148919 0
M  V30 2363 C 232.383 -5.7262 0.298924 0
M  V30 2364 N 231.879 -6.90947 0.50637 0
M  V30 2365 N 233.672 -5.61601 0.236886 0
M  V30 2366 H 225.823 -1.8292 1.07953 0
M  V30 2367 H 228.086 -0.846425 0.42693 0
M  V30 2368 H 227.792 -3.36183 1.03315 0
M  V30 2369 H 227.666 -3.70981 -0.682143 0
M  V30 2370 H 230.053 -2.77326 -1.00869 0
M  V30 2371 H 230.134 -2.4518 0.729396 0
M  V30 2372 H 229.778 -4.93922 1.18338 0
M  V30 2373 H 229.708 -5.23484 -0.572044 0
M  V30 2374 H 232.199 -3.77899 -0.00697015 0
M  V30 2375 H 232.512 -7.7038 0.611076 0
M  V30 2376 H 230.857 -6.92878 0.542628 0
M  V30 2377 H 234.048 -4.68039 0.0756209 0
M  V30 2378 H 234.221 -6.47015 0.357227 0
M  V30 2379 N 227.627 0.131896 -1.57047 0
M  V30 2380 C 228.852 0.860418 -1.8871 0
M  V30 2381 C 229.277 1.73251 -0.73251 0
M  V30 2382 O 228.635 1.785 0.317429 0
M  V30 2383 C 228.683 1.68047 -3.19049 0
M  V30 2384 O 227.787 2.7862 -3.04047 0
M  V30 2385 H 227.128 0.238743 -0.619595 0
M  V30 2386 H 229.658 0.118169 -2.04258 0
M  V30 2387 H 229.668 2.07238 -3.51449 0
M  V30 2388 H 228.343 1.04018 -4.02682 0
M  V30 2389 H 226.92 2.42726 -2.83088 0
M  V30 2390 N 229.106 1.52395 0.401703 0
M  V30 2391 C 230.352 1.67065 1.14966 0
M  V30 2392 C 230.685 0.403052 1.89971 0
M  V30 2393 O 229.96 -0.598774 1.85054 0
M  V30 2394 C 230.243 2.8975 2.13815 0
M  V30 2395 C 230.096 4.26578 1.42658 0
M  V30 2396 C 231.415 3.07965 3.14397 0
M  V30 2397 H 228.534 0.607968 0.416587 0
M  V30 2398 H 231.176 1.84965 0.434511 0
M  V30 2399 H 229.326 2.74619 2.74803 0
M  V30 2400 H 230.998 4.53451 0.847329 0
M  V30 2401 H 229.241 4.27639 0.72849 0
M  V30 2402 H 229.912 5.08483 2.14823 0
M  V30 2403 H 232.388 3.22043 2.63491 0
M  V30 2404 H 231.264 3.95308 3.80819 0
M  V30 2405 H 231.525 2.21611 3.82545 0
M  V30 2406 N 230.584 -0.659388 1.43143 0
M  V30 2407 C 231.514 -1.78422 1.50625 0
M  V30 2408 C 232.495 -1.66216 0.361443 0
M  V30 2409 O 233.68 -1.85404 0.577834 0
M  V30 2410 C 230.81 -3.16815 1.42287 0
M  V30 2411 C 229.764 -3.43777 2.54954 0
M  V30 2412 C 229.09 -4.81905 2.31671 0
M  V30 2413 C 230.39 -3.39134 3.97222 0
M  V30 2414 H 232.084 -1.72417 2.44771 0
M  V30 2415 H 229.63 -0.828084 1.17808 0
M  V30 2416 H 231.583 -3.95253 1.46127 0
M  V30 2417 H 230.307 -3.23534 0.446435 0
M  V30 2418 H 228.966 -2.67707 2.50457 0
M  V30 2419 H 228.614 -4.85294 1.32284 0
M  V30 2420 H 228.314 -5.00906 3.07192 0
M  V30 2421 H 229.838 -5.62609 2.37284 0
M  V30 2422 H 231.252 -4.07518 4.03239 0
M  V30 2423 H 229.649 -3.69671 4.72719 0
M  V30 2424 H 230.719 -2.37426 4.22797 0
M  V30 2425 N 232.062 -1.29571 -0.897171 0
M  V30 2426 C 233.339 -1.08365 -1.62839 0
M  V30 2427 C 233.719 0.371331 -2.07808 0
M  V30 2428 O 233.067 1.3606 -1.83576 0
M  V30 2429 C 233.277 -2.0735 -2.80726 0
M  V30 2430 C 234.625 -2.38406 -3.51351 0
M  V30 2431 O 235.649 -2.05564 -2.90898 0
M  V30 2432 O 234.508 -2.9453 -4.60341 0
M  V30 2433 H 231.602 -0.415345 -0.715134 0
M  V30 2434 H 234.148 -1.40952 -0.945018 0
M  V30 2435 H 232.92 -3.05339 -2.44711 0
M  V30 2436 H 232.543 -1.75507 -3.56767 0
M  V30 2437 N 233.54 1.10788 -1.12088 0
M  V30 2438 C 234.503 2.15207 -0.788577 0
M  V30 2439 C 235.503 1.59609 0.195317 0
M  V30 2440 O 236.693 1.74174 -0.0300193 0
M  V30 2441 C 233.825 3.4047 -0.171174 0
M  V30 2442 H 235.018 2.46116 -1.71368 0
M  V30 2443 H 232.571 1.26089 -0.923652 0
M  V30 2444 H 233.306 3.15176 0.763832 0
M  V30 2445 H 233.091 3.82109 -0.879514 0
M  V30 2446 H 234.581 4.17576 0.04496 0
M  V30 2447 N 235.018 0.912232 1.28515 0
M  V30 2448 C 235.981 0.404223 2.25607 0
M  V30 2449 C 236.981 -0.468602 1.53821 0
M  V30 2450 O 238.171 -0.271873 1.72065 0
M  V30 2451 C 235.303 -0.420653 3.38295 0
M  V30 2452 H 236.496 1.26188 2.7206 0
M  V30 2453 H 234.049 0.691495 1.40171 0
M  V30 2454 H 234.784 -1.29777 2.97201 0
M  V30 2455 H 234.569 0.204935 3.91564 0
M  V30 2456 H 236.059 -0.766971 4.10496 0
M  V30 2457 N 236.496 -1.42363 0.676048 0
M  V30 2458 C 237.428 -2.29164 -0.0404605 0
M  V30 2459 C 238.441 -1.43747 -0.764245 0
M  V30 2460 O 239.63 -1.67453 -0.618195 0
M  V30 2461 C 236.73 -3.21196 -1.08103 0
M  V30 2462 C 235.903 -4.35273 -0.430812 0
M  V30 2463 C 234.962 -5.08017 -1.37133 0
M  V30 2464 O 233.988 -5.62494 -0.87116 0
M  V30 2465 N 235.19 -5.13647 -2.70456 0
M  V30 2466 H 237.955 -2.91298 0.704667 0
M  V30 2467 H 235.516 -1.53303 0.520559 0
M  V30 2468 H 237.508 -3.66728 -1.71152 0
M  V30 2469 H 236.078 -2.60505 -1.72788 0
M  V30 2470 H 235.298 -3.92372 0.379209 0
M  V30 2471 H 236.586 -5.08795 0.0221132 0
M  V30 2472 H 235.984 -4.708 -3.1363 0
M  V30 2473 H 234.541 -5.62821 -3.28749 0
M  V30 2474 N 237.974 -0.419461 -1.51915 0
M  V30 2475 C 239.223 0.154346 -2.01109 0
M  V30 2476 C 239.536 1.45338 -1.30905 0
M  V30 2477 O 240.742 2.10906 -1.7097 0
M  V30 2478 C 239.198 0.325615 -3.58424 0
M  V30 2479 C 238.806 -0.961934 -4.37551 0
M  V30 2480 C 240.55 0.854155 -4.15818 0
M  V30 2481 C 238.457 -0.757287 -5.86531 0
M  V30 2482 H 237.387 0.0614563 -0.751491 0
M  V30 2483 H 240.038 -0.54649 -1.75173 0
M  V30 2484 H 238.42 1.08903 -3.80731 0
M  V30 2485 H 239.594 -1.7323 -4.26999 0
M  V30 2486 H 237.909 -1.41766 -3.91524 0
M  V30 2487 H 240.506 1.02346 -5.24814 0
M  V30 2488 H 240.849 1.83172 -3.73837 0
M  V30 2489 H 241.382 0.149528 -3.97519 0
M  V30 2490 H 238.121 -1.70671 -6.32892 0
M  V30 2491 H 237.641 -0.0264061 -5.99794 0
M  V30 2492 H 239.32 -0.403482 -6.45741 0
M  V30 2493 N 239.452 1.56882 -0.150215 0
M  V30 2494 C 240.698 1.96518 0.500834 0
M  V30 2495 C 241.031 1.03527 1.64304 0
M  V30 2496 O 240.306 0.0782751 1.94342 0
M  V30 2497 C 240.589 3.45822 1.00395 0
M  V30 2498 C 240.442 4.49591 -0.136983 0
M  V30 2499 C 241.761 3.97704 1.88467 0
M  V30 2500 H 238.88 0.714535 0.18058 0
M  V30 2501 H 241.522 1.88577 -0.232091 0
M  V30 2502 H 239.672 3.5272 1.62851 0
M  V30 2503 H 241.344 4.5477 -0.77343 0
M  V30 2504 H 239.587 4.26441 -0.795652 0
M  V30 2505 H 240.258 5.51402 0.256815 0
M  V30 2506 H 242.734 3.93304 1.35834 0
M  V30 2507 H 241.61 5.0263 2.20578 0
M  V30 2508 H 241.871 3.40252 2.82279 0
M  V30 2509 N 240.93 -0.123565 1.57115 0
M  V30 2510 C 242.178 -0.83051 1.84247 0
M  V30 2511 C 242.499 -1.80629 0.73471 0
M  V30 2512 O 241.769 -1.94403 -0.241688 0
M  V30 2513 H 240.349 -0.309694 0.679778 0
M  V30 2514 H 243.011 -0.111976 1.94578 0
M  V30 2515 H 242.107 -1.37852 2.80006 0
M  V30 2516 N 242.408 -1.52605 -0.393616 0
M  V30 2517 C 243.338 -1.80022 -1.48709 0
M  V30 2518 C 244.319 -0.651995 -1.57108 0
M  V30 2519 O 245.504 -0.89913 -1.72132 0
M  V30 2520 C 242.634 -1.96492 -2.86371 0
M  V30 2521 C 241.588 -3.12161 -2.92813 0
M  V30 2522 C 240.914 -3.13877 -4.3288 0
M  V30 2523 C 242.214 -4.51322 -2.6288 0
M  V30 2524 H 243.908 -2.71589 -1.26015 0
M  V30 2525 H 241.454 -1.30684 -0.604778 0
M  V30 2526 H 243.407 -2.14255 -3.62867 0
M  V30 2527 H 242.131 -1.01611 -3.10391 0
M  V30 2528 H 240.79 -2.94173 -2.18764 0
M  V30 2529 H 240.438 -2.16687 -4.53933 0
M  V30 2530 H 240.138 -3.91576 -4.38112 0
M  V30 2531 H 241.662 -3.33789 -5.1129 0
M  V30 2532 H 243.076 -4.69435 -3.29096 0
M  V30 2533 H 241.473 -5.31053 -2.79468 0
M  V30 2534 H 242.543 -4.58353 -1.58242 0
M  V30 2535 N 243.887 0.651787 -1.4349 0
M  V30 2536 C 244.835 1.78586 -1.49029 0
M  V30 2537 C 245.829 1.65448 -0.363767 0
M  V30 2538 O 247.035 1.71777 -0.537821 0
M  V30 2539 H 243.41 0.589236 -0.467231 0
M  V30 2540 H 245.381 1.71035 -2.44519 0
M  V30 2541 C 244.13 3.16851 -1.43181 0
M  V30 2542 H 243.453 3.27598 -2.29171 0
M  V30 2543 H 244.893 3.96156 -1.51118 0
M  V30 2544 C 243.352 3.36568 -0.149616 0
M  V30 2545 O 243.882 3.93885 0.788509 0
M  V30 2546 N 242.088 2.90539 -0.0593484 0
M  V30 2547 H 241.635 2.4408 -0.823575 0
M  V30 2548 H 241.593 3.04108 0.797853 0
M  V30 2549 N 245.365 1.30045 0.890287 0
M  V30 2550 C 246.605 1.19839 1.65584 0
M  V30 2551 C 246.969 -0.244175 1.90441 0
M  V30 2552 O 248.17 -0.469378 2.6467 0
M  V30 2553 C 246.441 1.99876 2.96284 0
M  V30 2554 S 248 2.06309 3.87275 0
M  V30 2555 H 244.818 0.427157 0.568382 0
M  V30 2556 H 247.42 1.64453 1.05715 0
M  V30 2557 H 246.124 3.03809 2.75913 0
M  V30 2558 H 245.655 1.55903 3.61189 0
M  V30 2559 H 247.67 1.18661 4.81803 0
M  V30 2560 N 246.843 -1.10192 1.12674 0
M  V30 2561 C 247.773 -2.18652 0.819362 0
M  V30 2562 C 248.754 -1.68698 -0.217915 0
M  V30 2563 O 249.939 -1.94041 -0.0785581 0
M  V30 2564 C 247.069 -3.46202 0.27594 0
M  V30 2565 C 246.023 -4.09444 1.24656 0
M  V30 2566 C 245.349 -5.31725 0.563258 0
M  V30 2567 C 246.649 -4.52863 2.60217 0
M  V30 2568 H 248.343 -2.44622 1.72628 0
M  V30 2569 H 245.889 -1.17571 0.831451 0
M  V30 2570 H 247.842 -4.21372 0.0486149 0
M  V30 2571 H 246.566 -3.1973 -0.666331 0
M  V30 2572 H 245.225 -3.36284 1.45974 0
M  V30 2573 H 244.873 -5.0153 -0.384235 0
M  V30 2574 H 244.573 -5.74991 1.21075 0
M  V30 2575 H 246.097 -6.09624 0.34503 0
M  V30 2576 H 247.511 -5.19294 2.42913 0
M  V30 2577 H 245.908 -5.06986 3.21068 0
M  V30 2578 H 246.978 -3.65656 3.18471 0
M  V30 2579 N 248.321 -0.919034 -1.28029 0
M  V30 2580 C 249.737 -0.617972 -1.4715 0
M  V30 2581 C 249.937 0.835242 -1.83374 0
M  V30 2582 O 248.993 1.61388 -1.94191 0
M  V30 2583 C 250.306 -1.56041 -2.57044 0
M  V30 2584 C 251.854 -1.56769 -2.7091 0
M  V30 2585 C 252.329 -2.49688 -3.83953 0
M  V30 2586 N 253.82 -2.47845 -3.91314 0
M  V30 2587 C 254.555 -3.16437 -4.78179 0
M  V30 2588 N 254.051 -3.94376 -5.69596 0
M  V30 2589 N 255.844 -3.05498 -4.71834 0
M  V30 2590 H 247.995 -1.85866 -1.02798 0
M  V30 2591 H 250.258 -0.797506 -0.512531 0
M  V30 2592 H 249.964 -2.59671 -2.372 0
M  V30 2593 H 249.838 -1.29551 -3.54255 0
M  V30 2594 H 252.225 -0.538745 -2.90141 0
M  V30 2595 H 252.306 -1.87305 -1.74214 0
M  V30 2596 H 251.95 -3.52688 -3.65477 0
M  V30 2597 H 251.88 -2.16453 -4.80058 0
M  V30 2598 H 254.371 -1.91234 -3.25941 0
M  V30 2599 H 254.684 -4.43721 -6.32718 0
M  V30 2600 H 253.029 -3.98481 -5.69419 0
M  V30 2601 H 256.22 -2.44108 -3.99411 0
M  V30 2602 H 256.393 -3.59225 -5.39316 0
M  V30 2603 N 249.799 1.42003 -0.683588 0
M  V30 2604 C 250.729 2.33487 -0.024866 0
M  V30 2605 C 251.71 1.51163 0.779975 0
M  V30 2606 O 252.895 1.79739 0.735362 0
M  V30 2607 C 250.025 3.3487 0.920836 0
M  V30 2608 C 248.979 4.27414 0.223958 0
M  V30 2609 C 248.305 5.19074 1.2832 0
M  V30 2610 C 249.605 5.14445 -0.90242 0
M  V30 2611 H 251.299 2.88819 -0.788921 0
M  V30 2612 H 248.845 1.38873 -0.38083 0
M  V30 2613 H 250.798 3.97787 1.39081 0
M  V30 2614 H 249.522 2.77861 1.71642 0
M  V30 2615 H 248.181 3.65904 -0.225864 0
M  V30 2616 H 247.829 4.58387 2.071 0
M  V30 2617 H 247.529 5.81822 0.821995 0
M  V30 2618 H 249.053 5.84867 1.75392 0
M  V30 2619 H 250.467 5.70998 -0.513272 0
M  V30 2620 H 248.864 5.86072 -1.28997 0
M  V30 2621 H 249.934 4.52322 -1.74737 0
M  V30 2622 N 251.277 0.427512 1.51691 0
M  V30 2623 C 252.21 -0.433876 2.24037 0
M  V30 2624 C 253.188 -1.03287 1.25581 0
M  V30 2625 O 254.372 -1.07722 1.54688 0
M  V30 2626 C 251.499 -1.60385 2.98319 0
M  V30 2627 C 250.545 -1.12648 4.11355 0
M  V30 2628 S 251.378 -0.076543 5.35445 0
M  V30 2629 C 252.534 -1.25141 6.13262 0
M  V30 2630 H 252.767 0.180367 2.96752 0
M  V30 2631 H 250.3 0.211946 1.52938 0
M  V30 2632 H 252.258 -2.27462 3.41718 0
M  V30 2633 H 250.919 -2.18948 2.25213 0
M  V30 2634 H 250.112 -2.0011 4.62571 0
M  V30 2635 H 249.714 -0.534088 3.70167 0
M  V30 2636 H 252.006 -2.17162 6.41753 0
M  V30 2637 H 252.949 -0.779411 7.03797 0
M  V30 2638 H 253.357 -1.48553 5.44603 0
M  V30 2639 N 252.755 -1.56801 0.158532 0
M  V30 2640 C 253.703 -2.18638 -0.793729 0
M  V30 2641 C 254.697 -1.14669 -1.24689 0
M  V30 2642 O 255.903 -1.32895 -1.21403 0
M  V30 2643 H 252.278 -0.700226 -0.274204 0
M  V30 2644 H 254.249 -2.97367 -0.248095 0
M  V30 2645 C 252.998 -2.83139 -2.0181 0
M  V30 2646 H 252.321 -3.62863 -1.67841 0
M  V30 2647 H 253.761 -3.29894 -2.66357 0
M  V30 2648 C 252.22 -1.82244 -2.83353 0
M  V30 2649 O 252.75 -1.3 -3.80083 0
M  V30 2650 N 250.956 -1.51288 -2.48114 0
M  V30 2651 H 250.503 -1.93964 -1.69516 0
M  V30 2652 H 250.461 -0.840296 -3.02963 0
M  V30 2653 N 254.233 0.115231 -1.57178 0
M  V30 2654 C 255.51 0.852873 -1.76027 0
M  V30 2655 C 255.89 1.97892 -0.73498 0
M  V30 2656 O 255.238 2.27232 0.24036 0
M  V30 2657 C 255.448 1.36608 -3.21153 0
M  V30 2658 C 256.796 1.81692 -3.83762 0
M  V30 2659 O 257.82 1.46278 -3.24779 0
M  V30 2660 O 256.679 2.47104 -4.87444 0
M  V30 2661 H 253.773 0.405296 -0.720877 0
M  V30 2662 H 256.319 0.0986785 -1.69413 0
M  V30 2663 H 255.091 0.558357 -3.87296 0
M  V30 2664 H 254.714 2.18287 -3.3232 0
M  V30 2665 N 255.711 1.52812 0.385517 0
M  V30 2666 C 256.644 1.72592 1.49289 0
M  V30 2667 C 257.622 0.573819 1.52138 0
M  V30 2668 O 258.806 0.80404 1.70492 0
M  V30 2669 C 255.933 1.78669 2.87741 0
M  V30 2670 C 254.979 3.00455 3.02703 0
M  V30 2671 S 255.812 4.60366 2.73538 0
M  V30 2672 C 256.968 4.69263 4.14177 0
M  V30 2673 H 257.201 2.66248 1.32285 0
M  V30 2674 H 254.734 1.43148 0.578611 0
M  V30 2675 H 256.692 1.82855 3.67524 0
M  V30 2676 H 255.353 0.861 3.02069 0
M  V30 2677 H 254.546 3.01258 4.04054 0
M  V30 2678 H 254.148 2.94278 2.30817 0
M  V30 2679 H 256.44 4.48092 5.08153 0
M  V30 2680 H 257.383 5.71276 4.18388 0
M  V30 2681 H 257.791 3.98072 4.00249 0
M  V30 2682 N 257.189 -0.644168 1.43834 0
M  V30 2683 C 258.417 -1.43147 1.49387 0
M  V30 2684 C 258.832 -1.88452 0.114583 0
M  V30 2685 O 258.189 -1.60047 -0.876989 0
M  V30 2686 C 258.24 -2.66046 2.44748 0
M  V30 2687 O 257.961 -2.22633 3.77314 0
M  V30 2688 C 259.462 -3.59311 2.59635 0
M  V30 2689 H 256.682 -0.439447 0.507077 0
M  V30 2690 H 259.226 -0.78895 1.88669 0
M  V30 2691 H 257.381 -3.26418 2.08638 0
M  V30 2692 H 257.795 -3.02216 4.28679 0
M  V30 2693 H 259.269 -4.42187 3.30416 0
M  V30 2694 H 259.746 -4.07259 1.64427 0
M  V30 2695 H 260.352 -3.04816 2.96593 0
M  V30 2696 N 258.668 -1.30515 -0.883378 0
M  V30 2697 C 259.631 -1.1701 -1.97082 0
M  V30 2698 C 260.631 -0.10089 -1.60483 0
M  V30 2699 O 261.821 -0.349127 -1.70666 0
M  V30 2700 C 258.953 -0.793045 -3.31547 0
M  V30 2701 H 260.146 -2.13622 -2.10489 0
M  V30 2702 H 257.699 -1.13935 -1.06998 0
M  V30 2703 H 258.434 0.172499 -3.23841 0
M  V30 2704 H 258.219 -1.56576 -3.5948 0
M  V30 2705 H 259.709 -0.722073 -4.1131 0
M  V30 2706 N 260.146 1.09593 -1.13257 0
M  V30 2707 C 261.392 1.82003 -0.89458 0
M  V30 2708 C 261.725 1.85402 0.577906 0
M  V30 2709 O 261 1.32099 1.42759 0
M  V30 2710 C 261.283 3.28237 -1.48096 0
M  V30 2711 C 261.136 3.3312 -3.02244 0
M  V30 2712 C 262.455 4.24871 -1.14774 0
M  V30 2713 H 259.574 0.66077 -0.326424 0
M  V30 2714 H 262.216 1.28389 -1.40058 0
M  V30 2715 H 260.366 3.74024 -1.05062 0
M  V30 2716 H 262.038 2.95748 -3.54021 0
M  V30 2717 H 260.281 2.72756 -3.37323 0
M  V30 2718 H 260.952 4.3613 -3.38371 0
M  V30 2719 H 263.428 3.87361 -1.51957 0
M  V30 2720 H 262.304 5.25532 -1.58452 0
M  V30 2721 H 262.565 4.42058 -0.0611849 0
M  V30 2722 N 261.624 0.925811 1.2754 0
M  V30 2723 C 262.587 0.428129 2.25166 0
M  V30 2724 C 263.587 -0.452261 1.54309 0
M  V30 2725 O 264.777 -0.253608 1.72344 0
M  V30 2726 C 261.909 -0.384749 3.38722 0
M  V30 2727 H 263.102 1.29066 2.70706 0
M  V30 2728 H 260.655 0.706323 1.3943 0
M  V30 2729 H 261.39 -1.26618 2.98561 0
M  V30 2730 H 261.175 0.246454 3.91325 0
M  V30 2731 H 262.665 -0.723389 4.11287 0
M  V30 2732 N 263.102 -1.41638 0.69111 0
M  V30 2733 C 264.032 -2.3347 0.037248 0
M  V30 2734 C 265.013 -1.51575 -0.771947 0
M  V30 2735 O 266.198 -1.80126 -0.72582 0
M  V30 2736 C 263.328 -3.35354 -0.903064 0
M  V30 2737 C 262.282 -4.27526 -0.201288 0
M  V30 2738 C 261.608 -5.19747 -1.25565 0
M  V30 2739 C 262.908 -5.13959 0.929689 0
M  V30 2740 H 264.602 -2.88397 0.804227 0
M  V30 2741 H 262.148 -1.38669 0.388189 0
M  V30 2742 H 264.101 -3.98519 -1.36969 0
M  V30 2743 H 262.825 -2.78767 -1.70166 0
M  V30 2744 H 261.484 -3.65779 0.245265 0
M  V30 2745 H 261.132 -4.59479 -2.04666 0
M  V30 2746 H 260.832 -5.8225 -0.791128 0
M  V30 2747 H 262.356 -5.85789 -1.72288 0
M  V30 2748 H 263.77 -5.70718 0.543546 0
M  V30 2749 H 262.167 -5.85379 1.32103 0
M  V30 2750 H 263.237 -4.51389 1.77133 0
M  V30 2751 N 264.58 -0.43555 -1.51462 0
M  V30 2752 C 265.528 0.391205 -2.29287 0
M  V30 2753 C 266.522 1.02247 -1.35062 0
M  V30 2754 O 267.728 0.957646 -1.52411 0
M  V30 2755 H 264.103 0.144968 -0.737895 0
M  V30 2756 H 266.074 -0.286051 -2.97026 0
M  V30 2757 C 264.823 1.48096 -3.14583 0
M  V30 2758 H 264.146 1.00457 -3.86973 0
M  V30 2759 H 265.586 2.03273 -3.72097 0
M  V30 2760 C 264.045 2.46321 -2.29843 0
M  V30 2761 O 264.575 3.50815 -1.95682 0
M  V30 2762 N 262.781 2.17166 -1.931 0
M  V30 2763 H 262.328 1.32218 -2.21079 0
M  V30 2764 H 262.286 2.83127 -1.36698 0
M  V30 2765 N 266.058 1.56714 -0.166846 0
M  V30 2766 C 267.288 2.00828 0.48494 0
M  V30 2767 C 267.696 1.04612 1.57648 0
M  V30 2768 O 267.039 0.0383201 1.8366 0
M  V30 2769 C 267.101 3.4137 1.12723 0
M  V30 2770 C 266.765 4.56654 0.177886 0
M  V30 2771 C 267.762 5.16402 -0.60207 0
M  V30 2772 C 265.447 5.02244 0.0750139 0
M  V30 2773 C 267.441 6.20167 -1.47215 0
M  V30 2774 C 265.128 6.05859 -0.798649 0
M  V30 2775 C 266.126 6.64691 -1.57082 0
M  V30 2776 O 265.814 7.66297 -2.42989 0
M  V30 2777 H 265.546 0.663587 0.128953 0
M  V30 2778 H 268.1 2.03692 -0.264365 0
M  V30 2779 H 266.33 3.35406 1.92457 0
M  V30 2780 H 268.019 3.69466 1.68076 0
M  V30 2781 H 268.785 4.82065 -0.53274 0
M  V30 2782 H 264.664 4.56167 0.665812 0
M  V30 2783 H 268.208 6.66016 -2.07531 0
M  V30 2784 H 264.105 6.39621 -0.869199 0
M  V30 2785 H 264.873 7.83601 -2.36455 0
M  V30 2786 N 267.536 -0.106894 1.57237 0
M  V30 2787 C 268.784 -0.810921 1.85117 0
M  V30 2788 C 269.105 -1.7984 0.753827 0
M  V30 2789 O 268.375 -1.94649 -0.221056 0
M  V30 2790 H 266.955 -0.302466 0.683025 0
M  V30 2791 H 269.617 -0.0913324 1.94686 0
M  V30 2792 H 268.713 -1.34875 2.81452 0
M  V30 2793 N 269.014 -1.53014 -0.377408 0
M  V30 2794 C 270.263 -1.67845 -1.11853 0
M  V30 2795 C 270.576 -0.430625 -1.90801 0
M  V30 2796 O 271.782 -0.459261 -2.67587 0
M  V30 2797 C 270.238 -2.96668 -2.03756 0
M  V30 2798 C 269.846 -4.28671 -1.30175 0
M  V30 2799 C 271.59 -3.20865 -2.77932 0
M  V30 2800 C 269.497 -5.48591 -2.20911 0
M  V30 2801 H 268.427 -0.625343 -0.421263 0
M  V30 2802 H 271.078 -1.79514 -0.380409 0
M  V30 2803 H 269.46 -2.78773 -2.8125 0
M  V30 2804 H 270.634 -4.57157 -0.578259 0
M  V30 2805 H 268.949 -4.10825 -0.679108 0
M  V30 2806 H 271.546 -4.07642 -3.46024 0
M  V30 2807 H 271.889 -2.36424 -3.4265 0
M  V30 2808 H 272.422 -3.39379 -2.07525 0
M  V30 2809 H 269.161 -6.35474 -1.6079 0
M  V30 2810 H 268.681 -5.244 -2.91144 0
M  V30 2811 H 270.36 -5.8292 -2.80736 0
M  V30 2812 N 270.492 0.636531 -1.44174 0
M  V30 2813 C 271.722 1.42146 -1.49927 0
M  V30 2814 C 272.13 1.88812 -0.121063 0
M  V30 2815 O 271.473 1.61126 0.882267 0
M  V30 2816 C 271.535 2.67883 -2.39748 0
M  V30 2817 C 271.199 2.43048 -3.8701 0
M  V30 2818 C 272.196 2.05216 -4.77684 0
M  V30 2819 C 269.881 2.56856 -4.3166 0
M  V30 2820 C 271.875 1.81512 -6.11009 0
M  V30 2821 C 269.562 2.32766 -5.65034 0
M  V30 2822 C 270.56 1.95152 -6.54526 0
M  V30 2823 O 270.248 1.71326 -7.85431 0
M  V30 2824 H 269.98 0.442567 -0.51099 0
M  V30 2825 H 272.534 0.786158 -1.8976 0
M  V30 2826 H 270.764 3.34032 -1.94832 0
M  V30 2827 H 272.453 3.29874 -2.36513 0
M  V30 2828 H 273.219 1.94111 -4.44462 0
M  V30 2829 H 269.098 2.85104 -3.62266 0
M  V30 2830 H 272.642 1.52077 -6.80822 0
M  V30 2831 H 268.539 2.43479 -5.97819 0
M  V30 2832 H 269.307 1.85616 -7.97176 0
M  V30 2833 N 271.97 1.30982 0.876444 0
M  V30 2834 C 272.917 1.18085 1.98304 0
M  V30 2835 C 273.887 0.0682263 1.6596 0
M  V30 2836 O 275.072 0.239937 1.89285 0
M  V30 2837 C 272.212 0.887475 3.33493 0
M  V30 2838 C 271.325 2.08281 3.78475 0
M  V30 2839 C 270.46 1.72678 5.0235 0
M  V30 2840 C 269.499 2.88657 5.39762 0
M  V30 2841 N 268.636 2.53292 6.54819 0
M  V30 2842 H 273.476 2.1275 2.08666 0
M  V30 2843 H 271.013 1.05839 1.02159 0
M  V30 2844 H 272.971 0.697961 4.1132 0
M  V30 2845 H 271.601 -0.022315 3.22792 0
M  V30 2846 H 270.653 2.3833 2.96484 0
M  V30 2847 H 271.965 2.95108 4.02135 0
M  V30 2848 H 271.119 1.50151 5.87826 0
M  V30 2849 H 269.858 0.830327 4.8058 0
M  V30 2850 H 268.863 3.1184 4.52809 0
M  V30 2851 H 270.088 3.79002 5.63502 0
M  V30 2852 H 268.034 1.66163 6.34607 0
M  V30 2853 H 267.951 3.3365 6.7839 0
M  V30 2854 H 269.219 2.34143 7.43503 0
M  V30 2855 N 273.449 -1.08991 1.13837 0
M  V30 2856 C 274.381 -2.15606 0.777612 0
M  V30 2857 C 275.394 -1.61533 -0.202739 0
M  V30 2858 O 276.583 -1.78491 0.0181055 0
M  V30 2859 C 273.683 -3.3864 0.132623 0
M  V30 2860 C 272.856 -4.22115 1.1462 0
M  V30 2861 C 271.915 -5.23564 0.526074 0
M  V30 2862 O 270.941 -5.56678 1.18735 0
M  V30 2863 N 272.143 -5.76266 -0.699866 0
M  V30 2864 H 274.908 -2.47159 1.69506 0
M  V30 2865 H 272.469 -1.24747 1.03198 0
M  V30 2866 H 274.461 -4.03626 -0.29459 0
M  V30 2867 H 273.031 -3.04938 -0.687849 0
M  V30 2868 H 272.251 -3.53199 1.75055 0
M  V30 2869 H 273.539 -4.74709 1.83109 0
M  V30 2870 H 272.937 -5.51585 -1.25581 0
M  V30 2871 H 271.494 -6.42963 -1.06968 0
M  V30 2872 N 274.927 -0.932562 -1.27047 0
M  V30 2873 C 276.204 -0.49377 -1.89265 0
M  V30 2874 C 276.584 1.02833 -1.8436 0
M  V30 2875 O 275.932 1.88461 -1.29209 0
M  V30 2876 C 276.142 -1.04536 -3.32976 0
M  V30 2877 C 277.49 -1.10879 -4.09867 0
M  V30 2878 O 278.514 -0.995327 -3.42011 0
M  V30 2879 O 277.373 -1.28417 -5.31198 0
M  V30 2880 H 274.467 -0.159596 -0.811454 0
M  V30 2881 H 277.013 -1.02457 -1.3528 0
M  V30 2882 H 275.785 -2.08913 -3.30864 0
M  V30 2883 H 275.408 -0.496494 -3.94488 0
M  V30 2884 N 276.405 1.4127 -0.698611 0
M  V30 2885 C 277.335 2.33447 -0.049629 0
M  V30 2886 C 278.316 1.51982 0.763898 0
M  V30 2887 O 279.501 1.80509 0.716257 0
M  V30 2888 C 276.631 3.35828 0.885267 0
M  V30 2889 C 275.585 4.27627 0.178613 0
M  V30 2890 C 274.911 5.20406 1.22807 0
M  V30 2891 C 276.211 5.13459 -0.956933 0
M  V30 2892 H 277.905 2.87966 -0.81951 0
M  V30 2893 H 275.451 1.38461 -0.395538 0
M  V30 2894 H 277.404 3.9924 1.34854 0
M  V30 2895 H 276.128 2.79666 1.68685 0
M  V30 2896 H 274.787 3.65643 -0.26466 0
M  V30 2897 H 274.435 4.60558 2.02226 0
M  V30 2898 H 274.135 5.82661 0.760239 0
M  V30 2899 H 275.659 5.86695 1.69179 0
M  V30 2900 H 277.073 5.70421 -0.573805 0
M  V30 2901 H 275.47 5.8467 -1.35205 0
M  V30 2902 H 276.54 4.50443 -1.79524 0
M  V30 2903 N 277.883 0.443576 1.51229 0
M  V30 2904 C 279.294 -0.0180867 1.86691 0
M  V30 2905 C 279.645 -1.41384 1.36033 0
M  V30 2906 O 278.77 -2.04291 0.713722 0
M  V30 2907 C 279.365 -0.039597 3.38777 0
M  V30 2908 C 277.924 -0.445692 3.73752 0
M  V30 2909 C 277.071 0.357584 2.74985 0
M  V30 2910 H 280.022 0.659138 1.44364 0
M  V30 2911 H 280.043 -0.847761 3.70936 0
M  V30 2912 H 279.555 0.976382 3.75617 0
M  V30 2913 H 277.656 -1.46704 3.42503 0
M  V30 2914 H 277.769 -0.166155 4.78812 0
M  V30 2915 H 276.133 -0.184973 2.54027 0
M  V30 2916 H 276.916 1.37256 3.14668 0
M  V30 2917 N 279.361 -1.56624 0.175154 0
M  V30 2918 C 280.586 -2.01813 -0.478137 0
M  V30 2919 C 281.011 -1.05457 -1.55757 0
M  V30 2920 O 280.369 -0.0347439 -1.81267 0
M  V30 2921 C 280.417 -3.45581 -1.02987 0
M  V30 2922 O 279.521 -3.52305 -2.14371 0
M  V30 2923 H 278.862 -0.65413 -0.114059 0
M  V30 2924 H 281.392 -2.02673 0.280173 0
M  V30 2925 H 281.402 -3.84965 -1.35151 0
M  V30 2926 H 280.077 -4.1521 -0.239556 0
M  V30 2927 H 278.654 -3.24783 -1.83222 0
M  V30 2928 N 280.839 0.0985539 -1.57292 0
M  V30 2929 C 281.769 1.12064 -2.04851 0
M  V30 2930 C 282.75 1.41981 -0.936767 0
M  V30 2931 O 283.935 1.52071 -1.20781 0
M  V30 2932 C 281.065 2.44144 -2.47004 0
M  V30 2933 C 280.019 2.28643 -3.6181 0
M  V30 2934 C 279.345 3.65869 -3.89929 0
M  V30 2935 C 280.645 1.72986 -4.92822 0
M  V30 2936 H 282.339 0.724979 -2.9049 0
M  V30 2937 H 279.885 0.34729 -1.39749 0
M  V30 2938 H 281.838 3.15914 -2.78884 0
M  V30 2939 H 280.562 2.85639 -1.5836 0
M  V30 2940 H 279.221 1.59318 -3.30172 0
M  V30 2941 H 278.869 4.04885 -2.98458 0
M  V30 2942 H 278.569 3.56344 -4.67218 0
M  V30 2943 H 280.093 4.39112 -4.2428 0
M  V30 2944 H 281.507 2.34593 -5.23105 0
M  V30 2945 H 279.904 1.74229 -5.74251 0
M  V30 2946 H 280.974 0.689007 -4.7998 0
M  V30 2947 N 282.317 1.53212 0.369288 0
M  V30 2948 C 283.594 1.59815 1.12776 0
M  V30 2949 C 283.974 0.403402 2.0721 0
M  V30 2950 O 283.322 -0.606667 2.20299 0
M  V30 2951 C 283.532 2.94664 1.87013 0
M  V30 2952 C 284.88 3.49109 2.41677 0
M  V30 2953 O 285.904 2.96669 1.97144 0
M  V30 2954 O 284.763 4.40775 3.23079 0
M  V30 2955 H 281.857 0.645376 0.517125 0
M  V30 2956 H 284.403 1.65553 0.37285 0
M  V30 2957 H 283.175 3.73061 1.18071 0
M  V30 2958 H 282.798 2.92401 2.69421 0
M  V30 2959 N 283.795 -0.628877 1.44509 0
M  V30 2960 C 284.705 -1.7694 1.54044 0
M  V30 2961 C 285.721 -1.68705 0.425987 0
M  V30 2962 O 286.897 -1.89442 0.683656 0
M  V30 2963 C 283.962 -3.13332 1.48405 0
M  V30 2964 C 283.023 -3.33181 2.70719 0
M  V30 2965 C 282.256 -4.63067 2.6534 0
M  V30 2966 O 282.479 -5.44017 1.71469 0
M  V30 2967 O 281.413 -4.85167 3.56226 0
M  V30 2968 H 285.239 -1.71848 2.50403 0
M  V30 2969 H 282.824 -0.790378 1.26781 0
M  V30 2970 H 284.706 -3.94634 1.47791 0
M  V30 2971 H 283.381 -3.1896 0.551898 0
M  V30 2972 H 282.288 -2.51549 2.769 0
M  V30 2973 H 283.621 -3.32416 3.62988 0
M  V30 2974 N 285.273 -1.31445 -0.869486 0
M  V30 2975 C 286.22 -1.19135 -1.97675 0
M  V30 2976 C 287.19 -0.0770266 -1.65921 0
M  V30 2977 O 288.375 -0.249972 -1.89155 0
M  V30 2978 C 285.515 -0.905149 -3.33018 0
M  V30 2979 C 284.628 -2.10285 -3.77365 0
M  V30 2980 C 283.763 -1.75339 -5.01427 0
M  V30 2981 C 282.802 -2.91515 -5.38224 0
M  V30 2982 N 281.939 -2.56762 -6.53466 0
M  V30 2983 H 286.779 -2.13853 -2.07535 0
M  V30 2984 H 284.316 -1.06379 -1.01597 0
M  V30 2985 H 286.274 -0.719765 -4.10944 0
M  V30 2986 H 284.904 0.00519624 -3.228 0
M  V30 2987 H 283.956 -2.39899 -2.95216 0
M  V30 2988 H 285.268 -2.97237 -4.00564 0
M  V30 2989 H 284.422 -1.53266 -5.87022 0
M  V30 2990 H 283.161 -0.855801 -4.80133 0
M  V30 2991 H 282.166 -3.14237 -4.51149 0
M  V30 2992 H 283.391 -3.81985 -5.61484 0
M  V30 2993 H 281.337 -1.69526 -6.33717 0
M  V30 2994 H 281.254 -3.37243 -6.76612 0
M  V30 2995 H 282.522 -2.38083 -7.42251 0
M  V30 2996 N 286.751 1.08385 -1.14413 0
M  V30 2997 C 288.162 1.62258 -0.923535 0
M  V30 2998 C 288.513 1.88691 0.537595 0
M  V30 2999 O 287.638 1.64454 1.40655 0
M  V30 3000 C 288.233 2.94781 -1.67002 0
M  V30 3001 C 286.792 3.45437 -1.495 0
M  V30 3002 C 285.939 2.19668 -1.69238 0
M  V30 3003 H 288.89 0.916086 -1.2959 0
M  V30 3004 H 288.911 3.63229 -1.13334 0
M  V30 3005 H 288.423 2.7551 -2.73342 0
M  V30 3006 H 286.524 3.6981 -0.455097 0
M  V30 3007 H 286.637 4.22173 -2.2651 0
M  V30 3008 H 285.001 2.28849 -1.11804 0
M  V30 3009 H 285.784 2.02905 -2.7692 0
M  V30 3010 N 288.23 0.939286 1.26551 0
M  V30 3011 C 289.646 0.641304 1.46149 0
M  V30 3012 C 289.846 -0.805964 1.84679 0
M  V30 3013 O 288.902 -1.58278 1.96734 0
M  V30 3014 C 290.215 1.6011 2.54529 0
M  V30 3015 C 291.763 1.6106 2.68382 0
M  V30 3016 C 292.238 2.55765 3.79932 0
M  V30 3017 N 293.729 2.5404 3.87322 0
M  V30 3018 C 294.464 3.24004 4.73085 0
M  V30 3019 N 293.96 4.03388 5.63249 0
M  V30 3020 N 295.753 3.12965 4.66914 0
M  V30 3021 H 287.904 1.87478 0.998285 0
M  V30 3022 H 290.167 0.805559 0.499779 0
M  V30 3023 H 289.873 2.63412 2.33039 0
M  V30 3024 H 289.747 1.35171 3.52149 0
M  V30 3025 H 292.134 0.584835 2.89247 0
M  V30 3026 H 292.215 1.90053 1.71212 0
M  V30 3027 H 291.859 3.58458 3.5982 0
M  V30 3028 H 291.789 2.24063 4.76554 0
M  V30 3029 H 294.28 1.96396 3.22858 0
M  V30 3030 H 294.593 4.5373 6.25579 0
M  V30 3031 H 292.938 4.07489 5.63008 0
M  V30 3032 H 296.129 2.50432 3.95476 0
M  V30 3033 H 296.302 3.67759 5.33533 0
M  V30 3034 N 289.708 -1.40897 0.706093 0
M  V30 3035 C 290.957 -2.00284 0.238574 0
M  V30 3036 C 291.27 -1.56604 -1.17194 0
M  V30 3037 O 292.476 -2.08624 -1.73748 0
M  V30 3038 C 290.932 -3.57934 0.375623 0
M  V30 3039 C 290.54 -4.10591 1.79217 0
M  V30 3040 C 292.284 -4.24488 -0.0315857 0
M  V30 3041 C 290.191 -5.60712 1.88032 0
M  V30 3042 H 289.121 -0.749144 0.0854398 0
M  V30 3043 H 291.772 -1.61251 0.875813 0
M  V30 3044 H 290.154 -3.94622 -0.330042 0
M  V30 3045 H 291.328 -3.85301 2.52745 0
M  V30 3046 H 289.643 -3.56601 2.15 0
M  V30 3047 H 292.24 -5.34698 0.0136842 0
M  V30 3048 H 292.583 -4.02261 -1.072 0
M  V30 3049 H 293.116 -3.92873 0.624181 0
M  V30 3050 H 289.855 -5.87781 2.90161 0
M  V30 3051 H 289.375 -5.87896 1.18903 0
M  V30 3052 H 291.054 -6.25658 1.64805 0
M  V30 3053 N 291.186 -0.45159 -1.50991 0
M  V30 3054 C 292.432 0.110237 -2.025 0
M  V30 3055 C 292.765 1.41109 -1.33424 0
M  V30 3056 O 292.04 1.89135 -0.453659 0
M  V30 3057 C 292.323 0.314271 -3.58726 0
M  V30 3058 C 292.176 -1.00623 -4.38401 0
M  V30 3059 C 293.495 1.07767 -4.26702 0
M  V30 3060 H 290.614 0.0385897 -0.735989 0
M  V30 3061 H 293.256 -0.593374 -1.80497 0
M  V30 3062 H 291.406 0.913601 -3.77605 0
M  V30 3063 H 293.078 -1.64064 -4.31139 0
M  V30 3064 H 291.321 -1.6075 -4.02917 0
M  V30 3065 H 291.992 -0.817341 -5.45915 0
M  V30 3066 H 294.468 0.56986 -4.12179 0
M  V30 3067 H 293.344 1.18921 -5.35863 0
M  V30 3068 H 293.605 2.10939 -3.88532 0
M  V30 3069 N 292.664 1.56529 -0.183458 0
M  V30 3070 C 293.91 1.97537 0.459036 0
M  V30 3071 C 294.243 1.06989 1.62071 0
M  V30 3072 O 293.518 0.11948 1.94133 0
M  V30 3073 C 293.801 3.47874 0.930368 0
M  V30 3074 C 293.654 4.492 -0.232317 0
M  V30 3075 C 294.973 4.01612 1.79989 0
M  V30 3076 H 292.092 0.718204 0.165383 0
M  V30 3077 H 294.734 1.88042 -0.272038 0
M  V30 3078 H 292.884 3.56095 1.55333 0
M  V30 3079 H 294.556 4.53027 -0.86972 0
M  V30 3080 H 292.799 4.24657 -0.885928 0
M  V30 3081 H 293.47 5.51823 0.139796 0
M  V30 3082 H 295.946 3.96097 1.27461 0
M  V30 3083 H 294.822 5.07195 2.09867 0
M  V30 3084 H 295.083 3.46163 2.74998 0
M  V30 3085 N 294.142 -0.090211 1.57342 0
M  V30 3086 C 295.389 -0.792807 1.86335 0
M  V30 3087 C 295.717 -1.78494 0.772662 0
M  V30 3088 O 294.972 -1.94305 -0.233258 0
M  V30 3089 C 295.271 -1.55222 3.21933 0
M  V30 3090 C 294.937 -0.701765 4.45406 0
M  V30 3091 C 293.599 -0.467334 4.78925 0
M  V30 3092 C 295.951 -0.11086 5.21082 0
M  V30 3093 C 293.279 0.367785 5.85546 0
M  V30 3094 C 295.631 0.711609 6.28585 0
M  V30 3095 C 294.295 0.956086 6.60617 0
M  V30 3096 H 293.565 -0.290109 0.681849 0
M  V30 3097 H 296.212 -0.0541332 1.91423 0
M  V30 3098 H 294.517 -2.3626 3.12551 0
M  V30 3099 H 296.214 -2.10032 3.41595 0
M  V30 3100 H 292.804 -0.894598 4.1916 0
M  V30 3101 H 296.988 -0.279129 4.95514 0
M  V30 3102 H 292.244 0.566128 6.08773 0
M  V30 3103 H 296.418 1.17632 6.86393 0
M  V30 3104 H 294.045 1.60499 7.43064 0
M  V30 3105 N 295.62 -1.53406 -0.361157 0
M  V30 3106 C 296.866 -1.70054 -1.10496 0
M  V30 3107 C 297.199 -0.453278 -1.88836 0
M  V30 3108 O 296.474 0.5495 -1.86576 0
M  V30 3109 C 296.757 -2.95317 -2.06058 0
M  V30 3110 C 296.61 -4.3021 -1.31298 0
M  V30 3111 C 297.929 -3.16193 -3.06121 0
M  V30 3112 H 295.048 -0.618799 -0.400321 0
M  V30 3113 H 297.69 -1.86052 -0.385318 0
M  V30 3114 H 295.84 -2.81809 -2.67425 0
M  V30 3115 H 297.512 -4.55538 -0.726807 0
M  V30 3116 H 295.755 -4.29421 -0.614853 0
M  V30 3117 H 296.426 -5.14 -2.01265 0
M  V30 3118 H 298.902 -3.28916 -2.5486 0
M  V30 3119 H 297.778 -4.05266 -3.70204 0
M  V30 3120 H 298.039 -2.31676 -3.76535 0
M  V30 3121 N 297.098 0.621204 -1.44841 0
M  V30 3122 C 298.375 1.38 -1.38619 0
M  V30 3123 C 298.755 2.11041 -0.0498935 0
M  V30 3124 O 298.103 2.06992 0.967816 0
M  V30 3125 C 298.313 2.33817 -2.59096 0
M  V30 3126 C 299.661 2.96844 -3.03593 0
M  V30 3127 O 300.685 2.44141 -2.59371 0
M  V30 3128 O 299.544 3.92476 -3.80296 0
M  V30 3129 H 296.638 0.61811 -0.549426 0
M  V30 3130 H 299.184 0.645429 -1.56947 0
M  V30 3131 H 297.956 1.79012 -3.47952 0
M  V30 3132 H 297.579 3.14676 -2.43032 0
M  V30 3133 N 298.576 1.31904 0.862503 0
M  V30 3134 C 299.509 1.14514 1.97388 0
M  V30 3135 C 300.487 0.0466493 1.62533 0
M  V30 3136 O 301.671 0.204484 1.87388 0
M  V30 3137 C 298.798 0.751347 3.30261 0
M  V30 3138 C 297.844 1.85395 3.84098 0
M  V30 3139 S 298.677 3.46081 4.08642 0
M  V30 3140 C 299.833 3.08655 5.44502 0
M  V30 3141 H 300.066 2.08597 2.11836 0
M  V30 3142 H 297.599 1.16475 1.01356 0
M  V30 3143 H 299.557 0.530901 4.07052 0
M  V30 3144 H 298.218 -0.170493 3.13637 0
M  V30 3145 H 297.411 1.53122 4.80177 0
M  V30 3146 H 297.013 2.02984 3.14123 0
M  V30 3147 H 299.305 2.58012 6.26447 0
M  V30 3148 H 300.248 4.03726 5.81731 0
M  V30 3149 H 300.656 2.45891 5.08132 0
M  V30 3150 N 300.054 -1.07777 1.14986 0
M  V30 3151 C 301.302 -1.79934 0.920235 0
M  V30 3152 C 301.623 -1.86955 -0.554336 0
M  V30 3153 O 300.893 -1.36731 -1.40291 0
M  V30 3154 H 299.473 -0.666424 0.337473 0
M  V30 3155 H 302.135 -1.3027 1.44968 0
M  V30 3156 H 301.231 -2.82539 1.32583 0
M  V30 3157 N 301.532 -0.945985 -1.26051 0
M  V30 3158 C 302.482 -0.430164 -2.23905 0
M  V30 3159 C 303.466 0.47579 -1.53704 0
M  V30 3160 O 304.658 0.310252 -1.7426 0
M  V30 3161 C 301.787 0.298957 -3.41996 0
M  V30 3162 C 300.873 -0.624566 -4.19476 0
M  V30 3163 N 301.264 -1.75245 -4.74471 0
M  V30 3164 C 299.562 -0.431082 -4.43912 0
M  V30 3165 C 300.263 -2.32834 -5.3307 0
M  V30 3166 N 299.239 -1.61583 -5.1903 0
M  V30 3167 H 303.041 -1.29107 -2.64024 0
M  V30 3168 H 300.555 -0.802428 -1.41191 0
M  V30 3169 H 302.552 0.685565 -4.11225 0
M  V30 3170 H 301.212 1.15657 -3.03403 0
M  V30 3171 H 302.223 -2.13449 -4.71868 0
M  V30 3172 H 298.9 0.384364 -4.15727 0
M  V30 3173 H 300.29 -3.27893 -5.86461 0
M  V30 3174 N 303.011 1.40521 -0.713556 0
M  V30 3175 C 304.236 2.05759 -0.26035 0
M  V30 3176 C 304.661 1.53403 1.08854 0
M  V30 3177 O 304.019 0.668535 1.68524 0
M  V30 3178 C 304.067 3.59745 -0.248122 0
M  V30 3179 O 303.171 4.05123 0.77131 0
M  V30 3180 H 302.512 0.652564 -0.122703 0
M  V30 3181 H 305.042 1.79958 -0.973467 0
M  V30 3182 H 305.052 4.07911 -0.0851129 0
M  V30 3183 H 303.727 3.97218 -1.2325 0
M  V30 3184 H 302.304 3.68422 0.57619 0
M  V30 3185 N 304.489 0.459591 1.5075 0
M  V30 3186 C 305.452 -0.329093 2.26825 0
M  V30 3187 C 306.452 -0.930481 1.31144 0
M  V30 3188 O 307.642 -0.801453 1.54669 0
M  V30 3189 C 304.774 -1.46768 3.07688 0
M  V30 3190 H 305.967 0.337924 2.9799 0
M  V30 3191 H 303.52 0.213336 1.54837 0
M  V30 3192 H 304.255 -2.17009 2.40993 0
M  V30 3193 H 304.04 -1.04238 3.77991 0
M  V30 3194 H 305.53 -2.02433 3.65254 0
M  V30 3195 N 305.967 -1.56429 0.191757 0
M  V30 3196 C 307.214 -1.97485 -0.447891 0
M  V30 3197 C 307.542 -1.07852 -1.61859 0
M  V30 3198 O 306.797 -0.116903 -1.95351 0
M  V30 3199 C 307.096 -3.44449 -0.953384 0
M  V30 3200 C 306.762 -4.50781 0.103586 0
M  V30 3201 C 305.424 -4.79584 0.394023 0
M  V30 3202 C 307.776 -5.1471 0.819946 0
M  V30 3203 C 305.104 -5.69607 1.40585 0
M  V30 3204 C 307.456 -6.05827 1.8209 0
M  V30 3205 C 306.12 -6.32987 2.11857 0
M  V30 3206 H 305.39 -0.722648 -0.163895 0
M  V30 3207 H 308.037 -1.89322 0.28802 0
M  V30 3208 H 306.342 -3.49666 -1.76751 0
M  V30 3209 H 308.039 -3.73569 -1.45765 0
M  V30 3210 H 304.629 -4.28394 -0.132951 0
M  V30 3211 H 308.813 -4.92552 0.608789 0
M  V30 3212 H 304.069 -5.88926 1.64243 0
M  V30 3213 H 308.243 -6.54424 2.38123 0
M  V30 3214 H 305.87 -7.02544 2.90407 0
M  V30 3215 N 307.445 0.0818655 -1.57387 0
M  V30 3216 C 308.377 1.12484 -1.997 0
M  V30 3217 C 309.39 1.35564 -0.90146 0
M  V30 3218 O 310.579 1.33982 -1.17945 0
M  V30 3219 C 307.679 2.47778 -2.31213 0
M  V30 3220 C 306.852 2.44793 -3.62485 0
M  V30 3221 C 305.911 3.62117 -3.81782 0
M  V30 3222 O 304.937 3.44005 -4.53486 0
M  V30 3223 N 306.139 4.82094 -3.23367 0
M  V30 3224 H 308.904 0.764585 -2.89783 0
M  V30 3225 H 306.465 0.270664 -1.59621 0
M  V30 3226 H 308.457 3.24891 -2.41304 0
M  V30 3227 H 307.027 2.75843 -1.4707 0
M  V30 3228 H 306.247 1.53134 -3.6324 0
M  V30 3229 H 307.535 2.39889 -4.48699 0
M  V30 3230 H 306.933 4.99713 -2.65148 0
M  V30 3231 H 305.49 5.56753 -3.38923 0
M  V30 3232 N 308.923 1.53595 0.353017 0
M  V30 3233 C 310.169 1.70638 1.09593 0
M  V30 3234 C 310.502 0.463286 1.88593 0
M  V30 3235 O 309.777 -0.539597 1.86865 0
M  V30 3236 C 310.06 2.96406 2.04489 0
M  V30 3237 C 309.913 4.30901 1.29014 0
M  V30 3238 C 311.232 3.17812 3.0444 0
M  V30 3239 H 308.351 0.620913 0.397034 0
M  V30 3240 H 310.993 1.86254 0.375446 0
M  V30 3241 H 309.143 2.83223 2.65927 0
M  V30 3242 H 310.815 4.55917 0.702638 0
M  V30 3243 H 309.058 4.29741 0.592071 0
M  V30 3244 H 309.729 5.1506 1.98537 0
M  V30 3245 H 312.205 3.30263 2.53112 0
M  V30 3246 H 311.081 4.07223 3.6805 0
M  V30 3247 H 311.342 2.33669 3.75301 0
M  V30 3248 N 310.401 -0.613514 1.45168 0
M  V30 3249 C 311.626 -1.40437 1.52618 0
M  V30 3250 C 312.051 -1.87438 0.157707 0
M  V30 3251 O 311.409 -1.59791 -0.856537 0
M  V30 3252 C 311.457 -2.58894 2.51011 0
M  V30 3253 O 310.561 -3.59326 2.02382 0
M  V30 3254 H 309.902 -0.419506 0.514695 0
M  V30 3255 H 312.432 -0.747215 1.90467 0
M  V30 3256 H 312.442 -3.06214 2.69624 0
M  V30 3257 H 311.117 -2.24032 3.50403 0
M  V30 3258 H 309.694 -3.18695 1.93618 0
M  V30 3259 N 311.879 -1.3236 -0.855495 0
M  V30 3260 C 312.842 -1.21164 -1.94556 0
M  V30 3261 C 313.842 -0.134908 -1.60233 0
M  V30 3262 O 315.032 -0.385249 -1.69887 0
M  V30 3263 C 312.164 -0.863192 -3.29791 0
M  V30 3264 H 313.357 -2.18038 -2.05911 0
M  V30 3265 H 310.91 -1.16179 -1.04557 0
M  V30 3266 H 311.645 0.103769 -3.24134 0
M  V30 3267 H 311.43 -1.64166 -3.56078 0
M  V30 3268 H 312.92 -0.809156 -4.09686 0
M  V30 3269 N 313.357 1.07166 -1.15556 0
M  V30 3270 C 314.597 1.81391 -0.94216 0
M  V30 3271 C 314.961 1.84788 0.521272 0
M  V30 3272 O 316.162 2.54904 0.85307 0
M  V30 3273 C 314.433 3.22431 -1.54185 0
M  V30 3274 S 315.992 4.13379 -1.47183 0
M  V30 3275 H 312.81 0.624963 -0.339031 0
M  V30 3276 H 315.412 1.28725 -1.4714 0
M  V30 3277 H 314.116 3.17548 -2.59984 0
M  V30 3278 H 313.647 3.80172 -1.01156 0
M  V30 3279 H 315.662 4.94007 -0.466004 0
M  V30 3280 N 314.835 0.952656 1.25548 0
M  V30 3281 C 315.798 0.475794 2.24207 0
M  V30 3282 C 316.798 -0.419428 1.55234 0
M  V30 3283 O 317.988 -0.216994 1.72843 0
M  V30 3284 C 315.12 -0.312814 3.39462 0
M  V30 3285 H 316.313 1.34779 2.67908 0
M  V30 3286 H 313.866 0.735739 1.37901 0
M  V30 3287 H 314.601 -1.20257 3.01179 0
M  V30 3288 H 314.386 0.329404 3.90714 0
M  V30 3289 H 315.876 -0.635986 4.12729 0
M  V30 3290 N 316.313 -1.40141 0.720998 0
M  V30 3291 C 317.56 -2.00787 0.262842 0
M  V30 3292 C 317.888 -1.5718 -1.14563 0
M  V30 3293 O 317.143 -0.785391 -1.79249 0
M  V30 3294 C 317.442 -3.56165 0.296892 0
M  V30 3295 C 317.108 -4.19373 1.65641 0
M  V30 3296 C 315.77 -4.36352 2.02855 0
M  V30 3297 C 318.122 -4.54578 2.54968 0
M  V30 3298 C 315.45 -4.8582 3.28931 0
M  V30 3299 C 317.802 -5.05447 3.80402 0
M  V30 3300 C 316.466 -5.20635 4.17726 0
M  V30 3301 H 315.736 -0.734731 0.0961807 0
M  V30 3302 H 318.383 -1.67673 0.925093 0
M  V30 3303 H 316.688 -3.8922 -0.448932 0
M  V30 3304 H 318.385 -4.00929 -0.0755208 0
M  V30 3305 H 314.975 -4.06549 1.35704 0
M  V30 3306 H 319.159 -4.41091 2.27491 0
M  V30 3307 H 314.415 -4.95764 3.57811 0
M  V30 3308 H 318.589 -5.31663 4.49786 0
M  V30 3309 H 316.216 -5.58728 5.15487 0
M  V30 3310 N 317.792 -0.46758 -1.50504 0
M  V30 3311 C 318.74 0.342482 -2.30065 0
M  V30 3312 C 319.734 0.993596 -1.37201 0
M  V30 3313 O 320.94 0.925102 -1.54408 0
M  V30 3314 H 317.315 0.129283 -0.740803 0
M  V30 3315 H 319.286 -0.34899 -2.96352 0
M  V30 3316 C 318.035 1.4139 -3.17654 0
M  V30 3317 H 317.358 0.922264 -3.89017 0
M  V30 3318 H 318.798 1.95335 -3.76325 0
M  V30 3319 C 317.257 2.4139 -2.35016 0
M  V30 3320 O 317.787 3.46586 -2.03079 0
M  V30 3321 N 315.993 2.13021 -1.97662 0
M  V30 3322 H 315.54 1.27499 -2.23834 0
M  V30 3323 H 315.498 2.80164 -1.42673 0
M  V30 3324 N 319.27 1.56325 -0.20005 0
M  V30 3325 C 320.217 2.1932 0.718833 0
M  V30 3326 C 321.187 1.14198 1.20615 0
M  V30 3327 O 322.372 1.42469 1.26914 0
M  V30 3328 C 319.512 2.86041 1.93066 0
M  V30 3329 C 318.625 4.05702 1.48425 0
M  V30 3330 C 317.76 4.60266 2.65196 0
M  V30 3331 C 316.799 5.72273 2.17185 0
M  V30 3332 N 315.936 6.21221 3.27152 0
M  V30 3333 H 320.776 2.97486 0.17489 0
M  V30 3334 H 318.313 1.46911 0.0745794 0
M  V30 3335 H 320.271 3.22897 2.64184 0
M  V30 3336 H 318.901 2.1043 2.44783 0
M  V30 3337 H 317.953 3.74475 0.668755 0
M  V30 3338 H 319.265 4.86699 1.09204 0
M  V30 3339 H 318.419 4.99453 3.4443 0
M  V30 3340 H 317.158 3.78386 3.07693 0
M  V30 3341 H 316.163 5.3261 1.36407 0
M  V30 3342 H 317.388 6.55974 1.75713 0
M  V30 3343 H 315.334 5.42263 3.69171 0
M  V30 3344 H 315.251 6.97284 2.92116 0
M  V30 3345 H 316.519 6.65063 4.06585 0
M  V30 3346 N 320.748 -0.0735177 1.57428 0
M  V30 3347 C 321.996 -0.771472 1.86796 0
M  V30 3348 C 322.317 -1.78201 0.791804 0
M  V30 3349 O 321.587 -1.95074 -0.179718 0
M  V30 3350 H 320.167 -0.28791 0.689287 0
M  V30 3351 H 322.829 -0.0500161 1.94836 0
M  V30 3352 H 321.925 -1.28874 2.8425 0
M  V30 3353 N 322.226 -1.5378 -0.344866 0
M  V30 3354 C 323.173 -1.81676 -1.42346 0
M  V30 3355 C 324.143 -0.662376 -1.52321 0
M  V30 3356 O 325.328 -0.906675 -1.67881 0
M  V30 3357 C 322.468 -2.03087 -2.79015 0
M  V30 3358 C 321.581 -3.30799 -2.77842 0
M  V30 3359 C 320.716 -3.42285 -4.0622 0
M  V30 3360 C 319.755 -4.6395 -3.9927 0
M  V30 3361 N 318.892 -4.72477 -5.19336 0
M  V30 3362 H 323.732 -2.73703 -1.17858 0
M  V30 3363 H 321.269 -1.35568 -0.570949 0
M  V30 3364 H 323.227 -2.1349 -3.58438 0
M  V30 3365 H 321.857 -1.14375 -3.01858 0
M  V30 3366 H 320.909 -3.29244 -1.90533 0
M  V30 3367 H 322.221 -4.20314 -2.68584 0
M  V30 3368 H 321.375 -3.52113 -4.94066 0
M  V30 3369 H 320.114 -2.50823 -4.18258 0
M  V30 3370 H 319.119 -4.54201 -3.09809 0
M  V30 3371 H 320.344 -5.56775 -3.88817 0
M  V30 3372 H 318.29 -3.83924 -5.3192 0
M  V30 3373 H 318.207 -5.55927 -5.12329 0
M  V30 3374 H 319.475 -4.86613 -6.08957 0
M  V30 3375 N 323.704 0.605807 -1.45491 0
M  V30 3376 C 324.634 1.72709 -1.57143 0
M  V30 3377 C 325.615 1.6476 -0.422884 0
M  V30 3378 O 326.8 1.83132 -0.646247 0
M  V30 3379 C 323.93 3.11316 -1.53948 0
M  V30 3380 C 322.884 3.34077 -2.67537 0
M  V30 3381 C 322.21 4.72975 -2.49397 0
M  V30 3382 C 323.51 3.24158 -4.09535 0
M  V30 3383 H 325.204 1.63214 -2.51001 0
M  V30 3384 H 322.75 0.78379 -1.208 0
M  V30 3385 H 324.703 3.89557 -1.60696 0
M  V30 3386 H 323.427 3.21655 -0.566205 0
M  V30 3387 H 322.086 2.58227 -2.6022 0
M  V30 3388 H 321.734 4.8005 -1.50205 0
M  V30 3389 H 321.434 4.8916 -3.25571 0
M  V30 3390 H 322.958 5.53414 -2.58002 0
M  V30 3391 H 324.372 3.92271 -4.18086 0
M  V30 3392 H 322.769 3.51872 -4.86113 0
M  V30 3393 H 323.839 2.2157 -4.31317 0
M  V30 3394 N 325.182 1.32811 0.848464 0
M  V30 3395 C 326.129 1.22265 1.95755 0
M  V30 3396 C 327.099 0.103413 1.65778 0
M  V30 3397 O 328.284 0.280033 1.88734 0
M  V30 3398 C 325.424 0.958014 3.31536 0
M  V30 3399 C 324.537 2.16262 3.73971 0
M  V30 3400 C 323.672 1.83295 4.98575 0
M  V30 3401 C 322.711 3.00041 5.33518 0
M  V30 3402 N 321.848 2.67125 6.49299 0
M  V30 3403 H 326.688 2.17128 2.04107 0
M  V30 3404 H 324.225 1.07982 0.998913 0
M  V30 3405 H 326.183 0.785052 4.09747 0
M  V30 3406 H 324.813 0.046159 3.22767 0
M  V30 3407 H 323.865 2.44565 2.91362 0
M  V30 3408 H 325.177 3.03572 3.95785 0
M  V30 3409 H 324.331 1.62586 5.84509 0
M  V30 3410 H 323.07 0.932078 4.7871 0
M  V30 3411 H 322.075 3.21374 4.46093 0
M  V30 3412 H 323.3 3.90869 5.55336 0
M  V30 3413 H 321.246 1.79586 6.3094 0
M  V30 3414 H 321.163 3.47965 6.71161 0
M  V30 3415 H 322.431 2.49861 7.3837 0
M  V30 3416 N 326.66 -1.06551 1.16123 0
M  V30 3417 C 327.906 -1.79567 0.94252 0
M  V30 3418 C 328.239 -1.86869 -0.528547 0
M  V30 3419 O 327.514 -1.35838 -1.39206 0
M  V30 3420 C 327.797 -3.24195 1.56747 0
M  V30 3421 C 327.65 -3.24989 3.10969 0
M  V30 3422 C 328.969 -4.21678 1.25998 0
M  V30 3423 H 326.088 -0.651883 0.343828 0
M  V30 3424 H 328.73 -1.2463 1.43413 0
M  V30 3425 H 326.88 -3.71107 1.14942 0
M  V30 3426 H 328.552 -2.86258 3.61737 0
M  V30 3427 H 326.795 -2.63716 3.44436 0
M  V30 3428 H 327.466 -4.27005 3.49815 0
M  V30 3429 H 329.942 -3.83196 1.62174 0
M  V30 3430 H 328.818 -5.21146 1.7233 0
M  V30 3431 H 329.079 -4.4174 0.178367 0
M  V30 3432 N 328.138 -0.959301 -1.25041 0
M  V30 3433 C 329.068 -0.501388 -2.28053 0
M  V30 3434 C 330.049 0.454673 -1.63911 0
M  V30 3435 O 331.234 0.352618 -1.90972 0
M  V30 3436 C 328.364 0.217224 -3.4662 0
M  V30 3437 C 327.318 -0.654034 -4.22973 0
M  V30 3438 C 326.644 0.195589 -5.34342 0
M  V30 3439 C 327.944 -1.93447 -4.85155 0
M  V30 3440 H 329.638 -1.36238 -2.66608 0
M  V30 3441 H 327.184 -0.656534 -1.28163 0
M  V30 3442 H 329.137 0.548732 -4.17812 0
M  V30 3443 H 327.861 1.1125 -3.07068 0
M  V30 3444 H 326.52 -0.968693 -3.5357 0
M  V30 3445 H 326.168 1.09076 -4.91031 0
M  V30 3446 H 325.868 -0.384091 -5.86343 0
M  V30 3447 H 327.392 0.521958 -6.08365 0
M  V30 3448 H 328.806 -1.66908 -5.48466 0
M  V30 3449 H 327.203 -2.46018 -5.47353 0
M  V30 3450 H 328.273 -2.63466 -4.07079 0
M  V30 3451 N 329.616 1.39756 -0.72842 0
M  V30 3452 C 330.864 2.00248 -0.272946 0
M  V30 3453 C 331.185 1.58077 1.14178 0
M  V30 3454 O 330.455 0.826014 1.77634 0
M  V30 3455 H 329.035 0.740554 -0.0979247 0
M  V30 3456 H 331.697 1.70903 -0.936912 0
M  V30 3457 H 330.793 3.10495 -0.316142 0
M  V30 3458 N 331.094 0.475555 1.50254 0
M  V30 3459 C 332.322 -0.0754493 2.06762 0
M  V30 3460 C 332.737 -1.33111 1.33891 0
M  V30 3461 O 332.094 -1.77846 0.40952 0
M  V30 3462 C 332.145 -0.359008 3.59713 0
M  V30 3463 O 331.866 0.846851 4.29837 0
M  V30 3464 C 333.367 -0.956484 4.32858 0
M  V30 3465 H 330.587 0.00907525 0.670939 0
M  V30 3466 H 333.131 0.665618 1.93364 0
M  V30 3467 H 331.286 -1.05001 3.72899 0
M  V30 3468 H 331.7 0.594162 5.21124 0
M  V30 3469 H 333.174 -1.10463 5.40834 0
M  V30 3470 H 333.651 -1.94775 3.93649 0
M  V30 3471 H 334.257 -0.303723 4.24214 0
M  V30 3472 N 332.573 -1.56217 0.208337 0
M  V30 3473 C 333.536 -2.18455 -0.693557 0
M  V30 3474 C 334.536 -1.14268 -1.13135 0
M  V30 3475 O 335.726 -1.39577 -1.0423 0
M  V30 3476 C 332.858 -2.79727 -1.94848 0
M  V30 3477 H 334.051 -2.99519 -0.15114 0
M  V30 3478 H 331.604 -1.56245 -0.041287 0
M  V30 3479 H 332.339 -2.02497 -2.53309 0
M  V30 3480 H 332.124 -3.56009 -1.64316 0
M  V30 3481 H 333.614 -3.27475 -2.59133 0
M  V30 3482 N 334.051 0.0651679 -1.57465 0
M  V30 3483 C 335.298 0.763063 -1.87573 0
M  V30 3484 C 335.626 1.77242 -0.800961 0
M  V30 3485 O 334.881 1.94651 0.202316 0
M  V30 3486 C 335.18 1.50081 -3.24362 0
M  V30 3487 C 334.846 0.630816 -4.46466 0
M  V30 3488 C 333.508 0.391082 -4.79608 0
M  V30 3489 C 335.86 0.0279465 -5.21193 0
M  V30 3490 C 333.188 -0.460894 -5.84887 0
M  V30 3491 C 335.54 -0.811522 -6.27373 0
M  V30 3492 C 334.204 -1.06106 -6.59013 0
M  V30 3493 H 333.474 0.279224 -0.686378 0
M  V30 3494 H 336.121 0.0236726 -1.91485 0
M  V30 3495 H 334.426 2.31258 -3.16271 0
M  V30 3496 H 336.123 2.04571 -3.44894 0
M  V30 3497 H 332.713 0.8278 -4.2053 0
M  V30 3498 H 336.897 0.200262 -4.95896 0
M  V30 3499 H 332.153 -0.662907 -6.07796 0
M  V30 3500 H 336.327 -1.28537 -6.84435 0
M  V30 3501 H 333.954 -1.723 -7.40417 0
M  V30 3502 N 335.529 1.53961 0.336706 0
M  V30 3503 C 336.806 1.62171 1.09361 0
M  V30 3504 C 337.186 0.447263 2.06307 0
M  V30 3505 O 336.534 -0.559802 2.21537 0
M  V30 3506 C 336.744 2.98565 1.80721 0
M  V30 3507 C 338.092 3.54157 2.34218 0
M  V30 3508 O 339.116 3.00784 1.90807 0
M  V30 3509 O 337.975 4.47528 3.13657 0
M  V30 3510 H 335.069 0.6562 0.503319 0
M  V30 3511 H 337.615 1.66307 0.33765 0
M  V30 3512 H 336.387 3.75482 1.10132 0
M  V30 3513 H 336.01 2.9805 2.63158 0
M  V30 3514 N 337.007 -0.598083 1.45811 0
M  V30 3515 C 338.418 -1.18011 1.44673 0
M  V30 3516 C 338.769 -1.95378 0.179364 0
M  V30 3517 O 337.894 -2.04124 -0.718509 0
M  V30 3518 C 338.489 -2.14677 2.62105 0
M  V30 3519 C 337.048 -2.68236 2.64057 0
M  V30 3520 C 336.195 -1.43816 2.37091 0
M  V30 3521 H 339.146 -0.38686 1.53913 0
M  V30 3522 H 339.167 -2.97878 2.36746 0
M  V30 3523 H 338.679 -1.5834 3.5433 0
M  V30 3524 H 336.78 -3.28486 1.75864 0
M  V30 3525 H 336.893 -3.12021 3.63566 0
M  V30 3526 H 335.257 -1.731 1.86838 0
M  V30 3527 H 336.04 -0.893333 3.31473 0
M  V30 3528 N 338.485 -1.33259 -0.841409 0
M  V30 3529 C 339.732 -1.24572 -1.5965 0
M  V30 3530 C 340.06 0.189137 -1.93578 0
M  V30 3531 O 339.315 1.14566 -1.5866 0
M  V30 3532 C 339.614 -2.06381 -2.9179 0
M  V30 3533 C 339.28 -3.556 -2.77235 0
M  V30 3534 C 337.942 -3.96282 -2.72973 0
M  V30 3535 C 340.294 -4.50433 -2.62221 0
M  V30 3536 C 337.622 -5.30017 -2.51592 0
M  V30 3537 C 339.974 -5.84327 -2.42374 0
M  V30 3538 C 338.638 -6.24194 -2.36512 0
M  V30 3539 H 337.908 -0.455842 -0.5842 0
M  V30 3540 H 340.555 -1.6482 -0.975016 0
M  V30 3541 H 338.86 -1.58903 -3.5813 0
M  V30 3542 H 340.557 -1.97019 -3.49263 0
M  V30 3543 H 337.147 -3.23298 -2.81384 0
M  V30 3544 H 341.331 -4.19914 -2.64549 0
M  V30 3545 H 336.587 -5.59947 -2.45499 0
M  V30 3546 H 340.761 -6.57414 -2.29739 0
M  V30 3547 H 338.388 -7.27759 -2.19706 0
M  V30 3548 N 339.963 1.05934 -1.16686 0
M  V30 3549 C 340.893 2.1546 -0.899949 0
M  V30 3550 C 341.874 1.69391 0.155154 0
M  V30 3551 O 343.059 1.94199 0.00648693 0
M  V30 3552 C 340.189 3.44939 -0.404241 0
M  V30 3553 C 339.143 4.04536 -1.39767 0
M  V30 3554 C 338.469 5.29268 -0.760216 0
M  V30 3555 C 339.769 4.42893 -2.76845 0
M  V30 3556 H 341.463 2.38046 -1.81588 0
M  V30 3557 H 339.009 1.14404 -0.874514 0
M  V30 3558 H 340.962 4.20901 -0.204971 0
M  V30 3559 H 339.686 3.21983 0.547206 0
M  V30 3560 H 338.345 3.30635 -1.58355 0
M  V30 3561 H 337.993 5.02611 0.197831 0
M  V30 3562 H 337.693 5.70101 -1.42332 0
M  V30 3563 H 339.217 6.07924 -0.57105 0
M  V30 3564 H 340.631 5.09921 -2.62019 0
M  V30 3565 H 339.028 4.94721 -3.39663 0
M  V30 3566 H 340.098 3.53584 -3.31823 0
M  V30 3567 N 341.441 0.965919 1.2453 0
M  V30 3568 C 342.689 0.625593 1.92174 0
M  V30 3569 C 343.01 -0.841652 1.75901 0
M  V30 3570 O 342.28 -1.60061 1.12948 0
M  V30 3571 H 340.86 0.228388 0.71123 0
M  V30 3572 H 343.522 1.2266 1.51461 0
M  V30 3573 H 342.618 0.864653 2.99884 0
M  V30 3574 N 342.919 -1.39368 0.735821 0
M  V30 3575 C 344.167 -2.00101 0.283562 0
M  V30 3576 C 344.488 -1.5868 -1.13338 0
M  V30 3577 O 343.758 -0.835423 -1.77193 0
M  V30 3578 H 342.338 -0.740024 0.101851 0
M  V30 3579 H 345 -1.70404 0.945962 0
M  V30 3580 H 344.096 -3.10323 0.332604 0
M  V30 3581 N 344.397 -0.483516 -1.5 0
M  V30 3582 C 345.344 0.304164 -2.28787 0
M  V30 3583 C 346.314 0.976114 -1.34392 0
M  V30 3584 O 347.499 0.986156 -1.63339 0
M  V30 3585 C 344.639 1.37298 -3.16612 0
M  V30 3586 C 343.752 0.714561 -4.26049 0
M  V30 3587 C 342.887 1.76232 -5.01114 0
M  V30 3588 C 341.926 1.08483 -6.0241 0
M  V30 3589 N 341.063 2.076 -6.70706 0
M  V30 3590 H 345.903 -0.373981 -2.95644 0
M  V30 3591 H 343.44 -0.196275 -1.45785 0
M  V30 3592 H 345.398 2.00445 -3.65893 0
M  V30 3593 H 344.028 2.02012 -2.51776 0
M  V30 3594 H 343.08 -0.0297798 -3.80388 0
M  V30 3595 H 344.392 0.180383 -4.98474 0
M  V30 3596 H 343.546 2.46929 -5.54176 0
M  V30 3597 H 342.285 2.33033 -4.28424 0
M  V30 3598 H 341.29 0.363545 -5.48597 0
M  V30 3599 H 342.515 0.523551 -6.77079 0
M  V30 3600 H 340.461 2.63394 -6.00799 0
M  V30 3601 H 340.378 1.59201 -7.39047 0
M  V30 3602 H 341.646 2.77639 -7.2838 0
M  V30 3603 N 345.875 1.56104 -0.216619 0
M  V30 3604 C 346.823 2.21434 0.712036 0
M  V30 3605 C 347.817 1.19218 1.20348 0
M  V30 3606 O 349.023 1.3731 1.16387 0
M  V30 3607 H 345.398 0.70992 0.248026 0
M  V30 3608 H 347.369 2.98083 0.137558 0
M  V30 3609 C 346.118 2.90434 1.91163 0
M  V30 3610 H 345.441 3.68842 1.54258 0
M  V30 3611 H 346.881 3.39552 2.5393 0
M  V30 3612 C 345.34 1.92635 2.76394 0
M  V30 3613 O 345.87 1.44017 3.74996 0
M  V30 3614 N 344.076 1.60392 2.42328 0
M  V30 3615 H 343.623 2.00122 1.622 0
M  V30 3616 H 343.581 0.952159 2.99635 0
M  V30 3617 N 347.353 -0.0568162 1.57498 0
M  V30 3618 C 348.6 -0.753104 1.87975 0
M  V30 3619 C 348.928 -1.76815 0.81035 0
M  V30 3620 O 348.183 -1.94756 -0.19199 0
M  V30 3621 C 348.482 -1.48359 3.25153 0
M  V30 3622 C 348.148 -0.60713 4.46794 0
M  V30 3623 C 346.81 -0.365642 4.79809 0
M  V30 3624 C 349.162 -0.000305978 5.212 0
M  V30 3625 C 346.49 0.491905 5.84634 0
M  V30 3626 C 348.842 0.844781 6.26934 0
M  V30 3627 C 347.506 1.096 6.58441 0
M  V30 3628 H 346.776 -0.27558 0.687849 0
M  V30 3629 H 349.423 -0.0135173 1.91495 0
M  V30 3630 H 347.728 -2.29577 3.17492 0
M  V30 3631 H 349.425 -2.02739 3.45974 0
M  V30 3632 H 346.015 -0.805487 4.20963 0
M  V30 3633 H 350.199 -0.173961 4.95995 0
M  V30 3634 H 345.455 0.695131 6.07436 0
M  V30 3635 H 349.629 1.32165 6.83744 0
M  V30 3636 H 347.256 1.76224 7.39492 0
M  V30 3637 N 348.832 -1.54138 -0.328536 0
M  V30 3638 C 350.109 -1.62749 -1.08499 0
M  V30 3639 C 350.489 -0.458198 -2.06067 0
M  V30 3640 O 349.837 0.548046 -2.2183 0
M  V30 3641 C 350.047 -2.99519 -1.79135 0
M  V30 3642 C 351.395 -3.55394 -2.32337 0
M  V30 3643 O 352.419 -3.01792 -1.89209 0
M  V30 3644 O 351.278 -4.49186 -3.11279 0
M  V30 3645 H 348.372 -0.65886 -0.499832 0
M  V30 3646 H 350.918 -1.66484 -0.328826 0
M  V30 3647 H 349.69 -3.76061 -1.08139 0
M  V30 3648 H 349.313 -2.99441 -2.61574 0
M  V30 3649 N 350.31 0.590341 -1.46126 0
M  V30 3650 C 351.22 1.72793 -1.58681 0
M  V30 3651 C 352.236 1.67516 -0.470566 0
M  V30 3652 O 353.412 1.87562 -0.733642 0
M  V30 3653 C 350.477 3.09287 -1.5666 0
M  V30 3654 C 349.538 3.25886 -2.79458 0
M  V30 3655 C 348.771 4.55869 -2.77524 0
M  V30 3656 O 348.994 5.3928 -1.85832 0
M  V30 3657 O 347.928 4.75552 -3.68964 0
M  V30 3658 H 351.754 1.65149 -2.54872 0
M  V30 3659 H 349.339 0.756486 -1.28832 0
M  V30 3660 H 351.221 3.90577 -1.58202 0
M  V30 3661 H 349.896 3.17385 -0.636271 0
M  V30 3662 H 348.803 2.44119 -2.83472 0
M  V30 3663 H 350.136 3.22675 -3.71674 0
M  V30 3664 N 351.788 1.33704 0.83433 0
M  V30 3665 C 352.735 1.24335 1.94447 0
M  V30 3666 C 353.705 0.120991 1.65659 0
M  V30 3667 O 354.89 0.300035 1.88426 0
M  V30 3668 C 352.03 0.993124 3.30501 0
M  V30 3669 C 351.143 2.20217 3.71657 0
M  V30 3670 C 350.278 1.88572 4.96602 0
M  V30 3671 C 349.317 3.05683 5.30306 0
M  V30 3672 N 348.454 2.73997 6.46429 0
M  V30 3673 H 353.294 2.1928 2.01792 0
M  V30 3674 H 350.831 1.09035 0.987404 0
M  V30 3675 H 352.789 0.828467 4.08892 0
M  V30 3676 H 351.419 0.0803902 3.227 0
M  V30 3677 H 350.471 2.47642 2.88752 0
M  V30 3678 H 351.783 3.07752 3.92543 0
M  V30 3679 H 350.937 1.68776 5.82752 0
M  V30 3680 H 349.676 0.982799 4.77695 0
M  V30 3681 H 348.681 3.26088 4.42659 0
M  V30 3682 H 349.906 3.96737 5.51159 0
M  V30 3683 H 347.852 1.86268 6.28999 0
M  V30 3684 H 347.769 3.55064 6.67432 0
M  V30 3685 H 349.037 2.57679 7.35678 0
M  V30 3686 N 353.266 -1.05314 1.17247 0
M  V30 3687 C 354.196 -2.1498 0.911362 0
M  V30 3688 C 355.177 -1.69471 -0.146169 0
M  V30 3689 O 356.362 -1.942 0.003812 0
M  V30 3690 C 353.492 -3.4472 0.422528 0
M  V30 3691 C 352.446 -4.03789 1.4191 0
M  V30 3692 C 351.772 -5.28858 0.788274 0
M  V30 3693 C 353.072 -4.41418 2.7919 0
M  V30 3694 H 354.766 -2.3708 1.82848 0
M  V30 3695 H 352.312 -1.13938 0.880569 0
M  V30 3696 H 354.265 -4.20787 0.227289 0
M  V30 3697 H 352.989 -3.22269 -0.530123 0
M  V30 3698 H 351.648 -3.2979 1.60106 0
M  V30 3699 H 351.296 -5.02709 -0.171173 0
M  V30 3700 H 350.996 -5.69338 1.45353 0
M  V30 3701 H 352.52 -6.07612 0.603282 0
M  V30 3702 H 353.934 -5.08524 2.64719 0
M  V30 3703 H 352.331 -4.92913 3.42282 0
M  V30 3704 H 353.401 -3.51819 3.33693 0
M  V30 3705 N 354.744 -0.972509 -1.24016 0
M  V30 3706 C 355.99 -0.637978 -1.92504 0
M  V30 3707 C 356.323 0.825383 -1.75787 0
M  V30 3708 O 355.598 1.59442 -1.11393 0
M  V30 3709 C 355.881 -1.01942 -3.45369 0
M  V30 3710 C 355.734 -2.53983 -3.71231 0
M  V30 3711 C 357.053 -0.55751 -4.36555 0
M  V30 3712 H 354.172 -0.233248 -0.699117 0
M  V30 3713 H 356.814 -1.21238 -1.46292 0
M  V30 3714 H 354.964 -0.530656 -3.84859 0
M  V30 3715 H 356.636 -3.10374 -3.41271 0
M  V30 3716 H 354.879 -2.96968 -3.16216 0
M  V30 3717 H 355.55 -2.75723 -4.78206 0
M  V30 3718 H 358.026 -0.977029 -4.04467 0
M  V30 3719 H 356.902 -0.85292 -5.42233 0
M  V30 3720 H 357.163 0.542328 -4.38761 0
M  V30 3721 N 356.222 1.38976 -0.743202 0
M  V30 3722 C 357.132 2.3434 -0.110399 0
M  V30 3723 C 358.148 1.58741 0.712559 0
M  V30 3724 O 359.324 1.9099 0.639125 0
M  V30 3725 C 356.389 3.37812 0.780012 0
M  V30 3726 C 355.45 4.29263 -0.0561319 0
M  V30 3727 C 354.683 5.27793 0.791875 0
M  V30 3728 O 354.906 5.33043 2.03031 0
M  V30 3729 O 353.84 6.01512 0.216183 0
M  V30 3730 H 357.666 2.90129 -0.897714 0
M  V30 3731 H 355.251 1.40643 -0.503966 0
M  V30 3732 H 357.133 4.01194 1.28923 0
M  V30 3733 H 355.808 2.84395 1.546 0
M  V30 3734 H 354.715 3.69076 -0.611056 0
M  V30 3735 H 356.048 4.85907 -0.784531 0
M  V30 3736 N 357.7 0.491464 1.49741 0
M  V30 3737 C 358.65 -0.311086 2.25868 0
M  V30 3738 C 359.634 -0.943857 1.30308 0
M  V30 3739 O 360.826 -0.853035 1.55088 0
M  V30 3740 C 357.955 -1.38059 3.14316 0
M  V30 3741 C 357.041 -0.754541 4.17334 0
M  V30 3742 N 357.432 0.137216 5.05614 0
M  V30 3743 C 355.73 -1.01621 4.34269 0
M  V30 3744 C 356.431 0.494614 5.79593 0
M  V30 3745 N 355.407 -0.135169 5.43432 0
M  V30 3746 H 359.209 0.37555 2.91491 0
M  V30 3747 H 356.723 0.306917 1.59473 0
M  V30 3748 H 358.72 -1.96891 3.67477 0
M  V30 3749 H 357.38 -2.06901 2.50244 0
M  V30 3750 H 358.391 0.50741 5.15408 0
M  V30 3751 H 355.068 -1.69808 3.81407 0
M  V30 3752 H 356.458 1.2236 6.60665 0
M  V30 3753 N 359.178 -1.55987 0.224894 0
M  V30 3754 C 360.425 -1.9839 -0.4059 0
M  V30 3755 C 360.753 -1.11261 -1.59535 0
M  V30 3756 O 360.008 -0.158314 -1.95059 0
M  V30 3757 C 360.307 -3.46394 -0.880106 0
M  V30 3758 C 359.973 -4.5046 0.19918 0
M  V30 3759 C 358.635 -4.7864 0.495661 0
M  V30 3760 C 360.987 -5.12855 0.928939 0
M  V30 3761 C 358.315 -5.66497 1.52636 0
M  V30 3762 C 360.667 -6.01828 1.949 0
M  V30 3763 C 359.331 -6.28351 2.25236 0
M  V30 3764 H 358.601 -0.725961 -0.148529 0
M  V30 3765 H 361.248 -1.88668 0.328113 0
M  V30 3766 H 359.553 -3.53337 -1.69294 0
M  V30 3767 H 361.25 -3.76577 -1.37808 0
M  V30 3768 H 357.84 -4.28579 -0.0420526 0
M  V30 3769 H 362.024 -4.9115 0.713129 0
M  V30 3770 H 357.28 -5.8531 1.76698 0
M  V30 3771 H 361.454 -6.49225 2.51951 0
M  V30 3772 H 359.081 -6.96226 3.05244 0
M  V30 3773 N 360.656 0.0484629 -1.57525 0
M  V30 3774 C 361.896 0.748196 -1.90214 0
M  V30 3775 C 362.26 1.73545 -0.821347 0
M  V30 3776 O 363.461 2.48201 -1.03198 0
M  V30 3777 C 361.732 1.41727 -3.28098 0
M  V30 3778 S 363.291 2.14884 -3.82584 0
M  V30 3779 H 360.109 0.248307 -0.666232 0
M  V30 3780 H 362.711 0.00343188 -1.955 0
M  V30 3781 H 361.415 0.685244 -4.04639 0
M  V30 3782 H 360.946 2.20099 -3.26068 0
M  V30 3783 H 362.961 3.41755 -3.59747 0
M  V30 3784 N 362.134 1.5431 0.320358 0
M  V30 3785 C 363.097 1.83195 1.3774 0
M  V30 3786 C 364.097 0.703906 1.44575 0
M  V30 3787 O 365.287 0.972214 1.44546 0
M  V30 3788 C 362.419 1.99487 2.76438 0
M  V30 3789 H 363.612 2.77642 1.1338 0
M  V30 3790 H 361.165 1.46076 0.556012 0
M  V30 3791 H 361.9 1.07262 3.06048 0
M  V30 3792 H 361.685 2.81575 2.7287 0
M  V30 3793 H 363.175 2.23271 3.52902 0
M  V30 3794 N 363.613 -0.582584 1.46437 0
M  V30 3795 C 364.523 -1.71949 1.59595 0
M  V30 3796 C 365.539 -1.67264 0.479443 0
M  V30 3797 O 366.715 -1.87171 0.743579 0
M  V30 3798 C 363.78 -3.08452 1.58298 0
M  V30 3799 C 362.841 -3.244 2.81182 0
M  V30 3800 C 362.074 -4.54391 2.79937 0
M  V30 3801 O 362.297 -5.38287 1.8869 0
M  V30 3802 O 361.231 -4.73588 3.71481 0
M  V30 3803 H 365.057 -1.63795 2.55744 0
M  V30 3804 H 362.642 -0.749643 1.29231 0
M  V30 3805 H 364.524 -3.89732 1.60271 0
M  V30 3806 H 363.199 -3.17043 0.653094 0
M  V30 3807 H 362.106 -2.42613 2.84763 0
M  V30 3808 H 363.439 -3.20699 3.7338 0
M  V30 3809 N 365.091 -1.34144 -0.827227 0
M  V30 3810 C 366.338 -1.26258 -1.58319 0
M  V30 3811 C 366.666 0.168595 -1.93768 0
M  V30 3812 O 365.921 1.12877 -1.59866 0
M  V30 3813 C 366.22 -2.09464 -2.89585 0
M  V30 3814 C 365.886 -3.58521 -2.73448 0
M  V30 3815 C 364.548 -3.99155 -2.68754 0
M  V30 3816 C 366.9 -4.53189 -2.57428 0
M  V30 3817 C 364.228 -5.32656 -2.45957 0
M  V30 3818 C 366.58 -5.86864 -2.36163 0
M  V30 3819 C 365.244 -6.26667 -2.29879 0
M  V30 3820 H 364.514 -0.462013 -0.579332 0
M  V30 3821 H 367.161 -1.65845 -0.95748 0
M  V30 3822 H 365.466 -1.62692 -3.56425 0
M  V30 3823 H 367.163 -2.00712 -3.47154 0
M  V30 3824 H 363.753 -3.26264 -2.77939 0
M  V30 3825 H 367.937 -4.22696 -2.60081 0
M  V30 3826 H 363.193 -5.62519 -2.39546 0
M  V30 3827 H 367.367 -6.59813 -2.22754 0
M  V30 3828 H 364.994 -7.30049 -2.11975 0
M  V30 3829 N 366.569 1.04691 -1.17803 0
M  V30 3830 C 367.516 2.12557 -0.899343 0
M  V30 3831 C 368.486 1.65339 0.158771 0
M  V30 3832 O 369.671 1.90789 0.0204797 0
M  V30 3833 C 366.811 3.42481 -0.424315 0
M  V30 3834 C 365.924 4.03346 -1.54713 0
M  V30 3835 C 365.059 5.21208 -1.02546 0
M  V30 3836 C 364.098 5.74089 -2.12339 0
M  V30 3837 N 363.235 6.83247 -1.61612 0
M  V30 3838 H 368.075 2.35734 -1.823 0
M  V30 3839 H 365.612 1.1564 -0.909159 0
M  V30 3840 H 367.57 4.16996 -0.130421 0
M  V30 3841 H 366.2 3.19471 0.462377 0
M  V30 3842 H 365.252 3.2622 -1.95664 0
M  V30 3843 H 366.564 4.38628 -2.37501 0
M  V30 3844 H 365.718 6.02812 -0.685718 0
M  V30 3845 H 364.457 4.87414 -0.167084 0
M  V30 3846 H 363.462 4.91111 -2.47165 0
M  V30 3847 H 364.687 6.0993 -2.98601 0
M  V30 3848 H 362.633 6.5134 -0.780533 0
M  V30 3849 H 362.55 7.17559 -2.38003 0
M  V30 3850 H 363.818 7.68491 -1.30545 0
M  V30 3851 N 368.047 0.979072 1.23499 0
M  V30 3852 C 369.275 0.665202 1.95915 0
M  V30 3853 C 369.69 -0.767571 1.72493 0
M  V30 3854 O 369.047 -1.51635 1.01554 0
M  V30 3855 C 369.098 0.944438 3.48945 0
M  V30 3856 O 368.819 2.3209 3.71572 0
M  V30 3857 C 370.32 0.646336 4.38563 0
M  V30 3858 H 367.54 0.247218 0.623798 0
M  V30 3859 H 370.084 1.31009 1.57025 0
M  V30 3860 H 368.239 0.345575 3.85856 0
M  V30 3861 H 368.653 2.40957 4.65876 0
M  V30 3862 H 370.127 0.892091 5.44744 0
M  V30 3863 H 370.604 -0.419575 4.37191 0
M  V30 3864 H 371.21 1.22562 4.07258 0
M  V30 3865 N 369.525 -1.3858 0.750561 0
M  V30 3866 C 370.472 -2.30483 0.120835 0
M  V30 3867 C 371.442 -1.50022 -0.712923 0
M  V30 3868 O 372.627 -1.78662 -0.669676 0
M  V30 3869 C 369.767 -3.36431 -0.768666 0
M  V30 3870 C 368.88 -4.31927 0.0793922 0
M  V30 3871 C 368.015 -5.24944 -0.81283 0
M  V30 3872 C 367.054 -6.12088 0.0390447 0
M  V30 3873 N 366.191 -6.97412 -0.809969 0
M  V30 3874 H 371.031 -2.83761 0.91015 0
M  V30 3875 H 368.568 -1.39707 0.460463 0
M  V30 3876 H 370.526 -3.96462 -1.29898 0
M  V30 3877 H 369.156 -2.8457 -1.5238 0
M  V30 3878 H 368.208 -3.73382 0.727303 0
M  V30 3879 H 369.52 -4.93319 0.737401 0
M  V30 3880 H 368.674 -5.90078 -1.41042 0
M  V30 3881 H 367.413 -4.63911 -1.50458 0
M  V30 3882 H 366.418 -5.45952 0.649328 0
M  V30 3883 H 367.643 -6.75189 0.727809 0
M  V30 3884 H 365.589 -6.38931 -1.48672 0
M  V30 3885 H 365.506 -7.55712 -0.208789 0
M  V30 3886 H 366.774 -7.66959 -1.39263 0
M  V30 3887 N 371.003 -0.499398 -1.49478 0
M  V30 3888 C 372.233 0.0424839 -2.06556 0
M  V30 3889 C 372.641 1.31514 -1.36018 0
M  V30 3890 O 371.984 1.78555 -0.431718 0
M  V30 3891 C 372.046 0.368074 -3.57611 0
M  V30 3892 C 371.71 -0.806631 -4.49825 0
M  V30 3893 C 372.707 -1.69667 -4.91436 0
M  V30 3894 C 370.392 -1.00498 -4.92144 0
M  V30 3895 C 372.386 -2.76923 -5.74101 0
M  V30 3896 C 370.073 -2.08072 -5.74586 0
M  V30 3897 C 371.071 -2.96119 -6.15469 0
M  V30 3898 O 370.759 -4.01836 -6.96264 0
M  V30 3899 H 370.491 -0.0165165 -0.675798 0
M  V30 3900 H 373.045 -0.695497 -1.93267 0
M  V30 3901 H 371.275 1.15963 -3.68903 0
M  V30 3902 H 372.964 0.848381 -3.96935 0
M  V30 3903 H 373.73 -1.55524 -4.59388 0
M  V30 3904 H 369.609 -0.329036 -4.59824 0
M  V30 3905 H 373.153 -3.45676 -6.05932 0
M  V30 3906 H 369.05 -2.22211 -6.06047 0
M  V30 3907 H 369.818 -3.9917 -7.14567 0
M  V30 3908 N 372.481 1.55866 -0.233164 0
M  V30 3909 C 373.428 2.20796 0.67215 0
M  V30 3910 C 374.398 1.16731 1.18166 0
M  V30 3911 O 375.583 1.45129 1.23864 0
M  V30 3912 C 372.723 2.90072 1.86955 0
M  V30 3913 C 371.836 4.08759 1.39786 0
M  V30 3914 C 370.971 4.65787 2.55374 0
M  V30 3915 C 370.01 5.76752 2.04998 0
M  V30 3916 N 369.147 6.28021 3.13901 0
M  V30 3917 H 373.987 2.9779 0.111749 0
M  V30 3918 H 371.524 1.47036 0.0434007 0
M  V30 3919 H 373.482 3.28428 2.57276 0
M  V30 3920 H 372.112 2.15575 2.40265 0
M  V30 3921 H 371.164 3.7581 0.589173 0
M  V30 3922 H 372.476 4.88906 0.98856 0
M  V30 3923 H 371.63 5.06646 3.33758 0
M  V30 3924 H 370.369 3.84828 2.99598 0
M  V30 3925 H 369.374 5.35383 1.25079 0
M  V30 3926 H 370.599 6.59553 1.61759 0
M  V30 3927 H 368.545 5.49971 3.57586 0
M  V30 3928 H 368.462 7.03323 2.7726 0
M  V30 3929 H 369.73 6.73538 3.92386 0
M  V30 3930 N 373.959 -0.0401083 1.57549 0
M  V30 3931 C 374.889 -1.04384 2.08869 0
M  V30 3932 C 375.87 -1.38407 0.988817 0
M  V30 3933 O 377.055 -1.47483 1.26342 0
M  V30 3934 C 374.185 -2.34808 2.55895 0
M  V30 3935 C 373.139 -2.15057 3.70047 0
M  V30 3936 C 372.465 -3.51145 4.03239 0
M  V30 3937 C 373.765 -1.54576 4.98902 0
M  V30 3938 H 375.459 -0.616666 2.92981 0
M  V30 3939 H 373.005 -0.295184 1.40942 0
M  V30 3940 H 374.958 -3.05346 2.90417 0
M  V30 3941 H 373.682 -2.79565 1.68853 0
M  V30 3942 H 372.341 -1.46954 3.35857 0
M  V30 3943 H 371.989 -3.93529 3.13279 0
M  V30 3944 H 371.689 -3.38758 4.80122 0
M  V30 3945 H 373.213 -4.23062 4.40285 0
M  V30 3946 H 374.627 -2.15017 5.31451 0
M  V30 3947 H 373.024 -1.52796 5.80322 0
M  V30 3948 H 374.094 -0.51039 4.82206 0
M  V30 3949 N 375.437 -1.54477 -0.31217 0
M  V30 3950 C 376.714 -1.63891 -1.06767 0
M  V30 3951 C 377.094 -0.480028 -2.0557 0
M  V30 3952 O 376.442 0.524487 -2.22399 0
M  V30 3953 C 376.652 -3.01402 -1.75948 0
M  V30 3954 C 378 -3.57838 -2.28554 0
M  V30 3955 O 379.024 -3.03782 -1.85998 0
M  V30 3956 O 377.883 -4.52462 -3.06497 0
M  V30 3957 H 374.977 -0.664125 -0.492816 0
M  V30 3958 H 377.523 -1.66823 -0.311149 0
M  V30 3959 H 376.295 -3.77187 -1.04144 0
M  V30 3960 H 375.918 -3.02199 -2.58383 0
M  V30 3961 N 376.915 0.57481 -1.46744 0
M  V30 3962 C 377.878 1.66533 -1.57478 0
M  V30 3963 C 378.878 1.54338 -0.451263 0
M  V30 3964 O 380.068 1.58814 -0.715813 0
M  V30 3965 C 377.2 3.05999 -1.50259 0
M  V30 3966 H 378.393 1.58372 -2.54673 0
M  V30 3967 H 375.946 0.793301 -1.34672 0
M  V30 3968 H 376.681 3.19709 -0.543725 0
M  V30 3969 H 376.466 3.16259 -2.31781 0
M  V30 3970 H 377.956 3.8537 -1.60872 0
M  V30 3971 N 378.394 1.34581 0.820102 0
M  V30 3972 C 379.341 1.2639 1.93117 0
M  V30 3973 C 380.311 0.138554 1.65521 0
M  V30 3974 O 381.496 0.320004 1.88097 0
M  V30 3975 C 378.636 1.02812 3.29429 0
M  V30 3976 C 377.749 2.24146 3.693 0
M  V30 3977 C 376.884 1.93829 4.94574 0
M  V30 3978 C 375.923 3.1129 5.27034 0
M  V30 3979 N 375.06 2.80838 6.43486 0
M  V30 3980 H 379.9 2.21408 1.99455 0
M  V30 3981 H 377.437 1.10077 0.975784 0
M  V30 3982 H 379.395 0.871788 4.0799 0
M  V30 3983 H 378.025 0.114612 3.22596 0
M  V30 3984 H 377.077 2.50691 2.86109 0
M  V30 3985 H 378.389 3.11899 3.89257 0
M  V30 3986 H 377.543 1.74948 5.80929 0
M  V30 3987 H 376.282 1.03341 4.76626 0
M  V30 3988 H 375.287 3.30764 4.39175 0
M  V30 3989 H 376.512 4.02561 5.4692 0
M  V30 3990 H 374.458 1.92929 6.26988 0
M  V30 3991 H 374.375 3.62123 6.63629 0
M  V30 3992 H 375.643 2.65467 7.32903 0
M  V30 3993 N 379.872 -1.04064 1.18357 0
M  V30 3994 C 381.097 -1.81454 1.00445 0
M  V30 3995 C 381.522 -1.82823 -0.442423 0
M  V30 3996 O 380.88 -1.24555 -1.31741 0
M  V30 3997 C 380.928 -3.24925 1.56384 0
M  V30 3998 O 380.032 -4.04856 0.785209 0
M  V30 3999 H 379.373 -0.560604 0.355835 0
M  V30 4000 H 381.903 -1.31059 1.57114 0
M  V30 4001 H 381.913 -3.75702 1.59097 0
M  V30 4002 H 380.588 -3.23244 2.61699 0
M  V30 4003 H 379.165 -3.63537 0.830399 0
M  V30 4004 N 381.35 -0.985608 -1.22978 0
M  V30 4005 C 382.297 -0.529825 -2.24636 0
M  V30 4006 C 383.267 0.434028 -1.60329 0
M  V30 4007 O 384.452 0.340414 -1.87739 0
M  V30 4008 C 381.592 0.156533 -3.44745 0
M  V30 4009 C 380.705 -0.848197 -4.23591 0
M  V30 4010 C 379.84 -0.136109 -5.31026 0
M  V30 4011 C 378.879 -1.1297 -6.01585 0
M  V30 4012 N 378.016 -0.446415 -7.00679 0
M  V30 4013 H 382.856 -1.40148 -2.62988 0
M  V30 4014 H 380.393 -0.702168 -1.29259 0
M  V30 4015 H 382.351 0.571324 -4.1327 0
M  V30 4016 H 380.981 0.992025 -3.07179 0
M  V30 4017 H 380.033 -1.38135 -3.54433 0
M  V30 4018 H 381.345 -1.60512 -4.72268 0
M  V30 4019 H 380.499 0.335784 -6.0577 0
M  V30 4020 H 379.238 0.653373 -4.83304 0
M  V30 4021 H 378.243 -1.6123 -5.25628 0
M  V30 4022 H 379.468 -1.91993 -6.51395 0
M  V30 4023 H 377.414 0.323763 -6.55201 0
M  V30 4024 H 377.331 -1.1419 -7.47326 0
M  V30 4025 H 378.599 0.00291697 -7.795 0
M  V30 4026 N 382.828 1.3818 -0.7579 0
M  V30 4027 C 384.077 1.99261 -0.312744 0
M  V30 4028 C 384.39 1.60846 1.11301 0
M  V30 4029 O 385.596 2.14929 1.65885 0
M  V30 4030 C 384.052 3.56294 -0.50821 0
M  V30 4031 C 383.66 4.03657 -1.94333 0
M  V30 4032 C 385.404 4.24313 -0.125982 0
M  V30 4033 C 383.311 5.53347 -2.08712 0
M  V30 4034 H 382.241 0.745456 -0.113185 0
M  V30 4035 H 384.892 1.57889 -0.935056 0
M  V30 4036 H 383.274 3.95575 0.183353 0
M  V30 4037 H 384.448 3.75655 -2.66871 0
M  V30 4038 H 382.763 3.48376 -2.28086 0
M  V30 4039 H 385.36 5.34279 -0.212125 0
M  V30 4040 H 385.703 4.05962 0.921964 0
M  V30 4041 H 386.236 3.90285 -0.769563 0
M  V30 4042 H 382.975 5.76607 -3.11777 0
M  V30 4043 H 382.495 5.83078 -1.4064 0
M  V30 4044 H 384.174 6.19111 -1.87912 0
M  V30 4045 N 384.306 0.507319 1.49211 0
M  V30 4046 C 385.722 0.163682 1.58758 0
M  V30 4047 C 385.922 -1.33208 1.51188 0
M  V30 4048 O 384.978 -2.10855 1.38911 0
M  V30 4049 C 386.291 0.746095 2.91297 0
M  V30 4050 C 387.839 0.712773 3.04776 0
M  V30 4051 C 388.314 1.27336 4.39943 0
M  V30 4052 N 389.805 1.23433 4.46451 0
M  V30 4053 C 390.54 1.63821 5.495 0
M  V30 4054 N 390.036 2.11832 6.5962 0
M  V30 4055 N 391.829 1.55198 5.4025 0
M  V30 4056 H 383.98 1.47972 1.52375 0
M  V30 4057 H 386.243 0.614147 0.722168 0
M  V30 4058 H 385.949 1.79534 3.02424 0
M  V30 4059 H 385.823 0.210137 3.76614 0
M  V30 4060 H 388.21 -0.327656 2.93275 0
M  V30 4061 H 388.291 1.28595 2.21127 0
M  V30 4062 H 387.935 2.3126 4.52196 0
M  V30 4063 H 387.865 0.676066 5.22242 0
M  V30 4064 H 390.356 0.882627 3.67448 0
M  V30 4065 H 390.669 2.40703 7.34358 0
M  V30 4066 H 389.014 2.1581 6.60644 0
M  V30 4067 H 392.205 1.17505 4.53112 0
M  V30 4068 H 392.378 1.86997 6.20432 0
M  V30 4069 N 385.784 -1.5574 0.241426 0
M  V30 4070 C 386.747 -2.19877 -0.647063 0
M  V30 4071 C 387.747 -1.16642 -1.10686 0
M  V30 4072 O 388.937 -1.41757 -1.01245 0
M  V30 4073 C 386.069 -2.83797 -1.88871 0
M  V30 4074 H 387.262 -2.99772 -0.087574 0
M  V30 4075 H 384.815 -1.56298 -0.00813574 0
M  V30 4076 H 385.55 -2.07824 -2.48957 0
M  V30 4077 H 385.335 -3.59414 -1.56728 0
M  V30 4078 H 386.825 -3.32898 -2.52129 0
M  V30 4079 N 387.262 0.0317525 -1.57568 0
M  V30 4080 C 388.192 1.03274 -2.0942 0
M  V30 4081 C 389.173 1.3788 -0.996143 0
M  V30 4082 O 390.358 1.46811 -1.27122 0
M  V30 4083 C 387.488 2.33448 -2.57137 0
M  V30 4084 C 386.442 2.13091 -3.71182 0
M  V30 4085 C 385.768 3.49001 -4.05095 0
M  V30 4086 C 387.068 1.51928 -4.99715 0
M  V30 4087 H 388.762 0.60112 -2.93303 0
M  V30 4088 H 386.308 0.287705 -1.41097 0
M  V30 4089 H 388.261 3.03802 -2.92032 0
M  V30 4090 H 386.985 2.78665 -1.70333 0
M  V30 4091 H 385.644 1.45171 -3.36632 0
M  V30 4092 H 385.292 3.91862 -3.15362 0
M  V30 4093 H 384.992 3.36207 -4.81911 0
M  V30 4094 H 386.516 4.20721 -4.42522 0
M  V30 4095 H 387.93 2.12196 -5.32584 0
M  V30 4096 H 386.327 1.49716 -5.81124 0
M  V30 4097 H 387.397 0.484811 -4.8247 0
M  V30 4098 N 388.74 1.54641 0.303973 0
M  V30 4099 C 389.67 1.88386 1.3796 0
M  V30 4100 C 390.651 0.742485 1.5304 0
M  V30 4101 O 391.836 0.997959 1.66597 0
M  V30 4102 C 388.966 2.12854 2.74427 0
M  V30 4103 C 387.92 3.28702 2.74115 0
M  V30 4104 C 387.246 3.38582 4.13844 0
M  V30 4105 C 388.546 4.65881 2.3612 0
M  V30 4106 H 390.24 2.78474 1.09966 0
M  V30 4107 H 387.786 1.33988 0.527556 0
M  V30 4108 H 389.739 2.35047 3.49758 0
M  V30 4109 H 388.463 1.19535 3.03939 0
M  V30 4110 H 387.122 3.06428 2.0124 0
M  V30 4111 H 386.77 2.42784 4.40528 0
M  V30 4112 H 386.47 4.16453 4.14537 0
M  V30 4113 H 387.994 3.63031 4.90959 0
M  V30 4114 H 389.408 4.87823 3.01167 0
M  V30 4115 H 387.805 5.46444 2.48031 0
M  V30 4116 H 388.875 4.66799 1.3125 0
M  V30 4117 N 390.218 -0.567019 1.47046 0
M  V30 4118 C 391.634 -0.891975 1.32348 0
M  V30 4119 C 391.834 -1.99154 0.306616 0
M  V30 4120 O 390.89 -2.50883 -0.28532 0
M  V30 4121 C 392.203 -1.29449 2.7141 0
M  V30 4122 C 393.751 -1.40646 2.79621 0
M  V30 4123 C 394.226 -1.84257 4.19301 0
M  V30 4124 N 395.717 -1.91424 4.21795 0
M  V30 4125 C 396.452 -2.26476 5.26779 0
M  V30 4126 N 395.948 -2.60211 6.42077 0
M  V30 4127 N 397.741 -2.27166 5.14152 0
M  V30 4128 H 389.892 0.159074 2.11803 0
M  V30 4129 H 392.155 0.00849752 0.947962 0
M  V30 4130 H 391.861 -0.560448 3.47206 0
M  V30 4131 H 391.735 -2.25273 3.02542 0
M  V30 4132 H 394.122 -2.13133 2.04104 0
M  V30 4133 H 394.203 -0.430339 2.52154 0
M  V30 4134 H 393.847 -1.12343 4.95319 0
M  V30 4135 H 393.777 -2.82855 4.44185 0
M  V30 4136 H 396.268 -1.6778 3.38612 0
M  V30 4137 H 396.581 -2.85956 7.17948 0
M  V30 4138 H 394.926 -2.57813 6.45413 0
M  V30 4139 H 398.117 -2.00244 4.23107 0
M  V30 4140 H 398.29 -2.54154 5.96079 0
M  V30 4141 N 391.696 -1.35014 -0.812953 0
M  V30 4142 C 392.626 -1.30069 -1.93919 0
M  V30 4143 C 393.607 -0.176275 -1.69184 0
M  V30 4144 O 394.792 -0.370227 -1.90638 0
M  V30 4145 C 391.922 -1.06547 -3.30552 0
M  V30 4146 C 390.876 -2.15561 -3.69753 0
M  V30 4147 C 390.202 -1.77214 -5.04479 0
M  V30 4148 C 391.502 -3.57476 -3.808 0
M  V30 4149 H 393.196 -2.24303 -1.98314 0
M  V30 4150 H 390.742 -1.07977 -0.952736 0
M  V30 4151 H 392.695 -1.01729 -4.08937 0
M  V30 4152 H 391.419 -0.0875719 -3.26483 0
M  V30 4153 H 390.078 -2.19466 -2.9365 0
M  V30 4154 H 389.726 -0.780589 -4.96906 0
M  V30 4155 H 389.426 -2.50184 -5.31678 0
M  V30 4156 H 390.95 -1.7391 -5.8531 0
M  V30 4157 H 392.364 -3.55929 -4.4943 0
M  V30 4158 H 390.761 -4.29152 -4.19462 0
M  V30 4159 H 391.831 -3.94091 -2.82525 0
M  V30 4160 N 393.175 1.03435 -1.18907 0
M  V30 4161 C 394.405 1.8012 -1.01195 0
M  V30 4162 C 394.813 1.8395 0.442613 0
M  V30 4163 O 394.156 1.27836 1.31923 0
M  V30 4164 C 394.218 3.26792 -1.49823 0
M  V30 4165 C 393.882 3.46609 -2.97844 0
M  V30 4166 C 394.879 3.37278 -3.95651 0
M  V30 4167 C 392.564 3.73001 -3.36416 0
M  V30 4168 C 394.558 3.54054 -5.30023 0
M  V30 4169 C 392.245 3.89423 -4.70949 0
M  V30 4170 C 393.243 3.79951 -5.67562 0
M  V30 4171 O 392.931 3.95895 -6.99659 0
M  V30 4172 H 392.663 0.573865 -0.357289 0
M  V30 4173 H 395.217 1.31207 -1.58031 0
M  V30 4174 H 393.447 3.76703 -0.873578 0
M  V30 4175 H 395.136 3.85055 -1.28404 0
M  V30 4176 H 395.902 3.16846 -3.67197 0
M  V30 4177 H 391.781 3.79469 -2.61772 0
M  V30 4178 H 395.325 3.46577 -6.05417 0
M  V30 4179 H 391.222 4.09351 -4.99101 0
M  V30 4180 H 391.99 4.13019 -7.06653 0
M  V30 4181 N 394.653 0.992116 1.22453 0
M  V30 4182 C 395.585 0.500024 2.23679 0
M  V30 4183 C 396.598 -0.404463 1.57696 0
M  V30 4184 O 397.787 -0.206722 1.77299 0
M  V30 4185 C 394.887 -0.294711 3.37616 0
M  V30 4186 C 394.06 0.605723 4.33186 0
M  V30 4187 C 393.119 -0.13717 5.26021 0
M  V30 4188 O 392.145 0.477164 5.67196 0
M  V30 4189 N 393.347 -1.4197 5.62872 0
M  V30 4190 H 396.112 1.37045 2.66531 0
M  V30 4191 H 393.673 0.866741 1.36745 0
M  V30 4192 H 395.665 -0.800329 3.96707 0
M  V30 4193 H 394.235 -1.06623 2.93854 0
M  V30 4194 H 393.455 1.29202 3.72425 0
M  V30 4195 H 394.743 1.21896 4.93983 0
M  V30 4196 H 394.141 -1.94015 5.31389 0
M  V30 4197 H 392.698 -1.87052 6.24383 0
M  V30 4198 N 396.131 -1.37776 0.765217 0
M  V30 4199 C 397.041 -2.34135 0.147666 0
M  V30 4200 C 398.057 -1.59854 -0.687215 0
M  V30 4201 O 399.233 -1.91983 -0.608659 0
M  V30 4202 C 396.298 -3.3901 -0.72617 0
M  V30 4203 C 395.359 -4.2912 0.124417 0
M  V30 4204 C 394.592 -5.28986 -0.707807 0
M  V30 4205 O 394.815 -5.36205 -1.94525 0
M  V30 4206 O 393.749 -6.01779 -0.12046 0
M  V30 4207 H 397.575 -2.88664 0.943758 0
M  V30 4208 H 395.16 -1.39824 0.526277 0
M  V30 4209 H 397.042 -4.03195 -1.22524 0
M  V30 4210 H 395.717 -2.86819 -1.50056 0
M  V30 4211 H 394.624 -3.68057 0.669696 0
M  V30 4212 H 395.957 -4.84598 0.861736 0
M  V30 4213 N 397.609 -0.515225 -1.4894 0
M  V30 4214 C 398.849 0.0223983 -2.04388 0
M  V30 4215 C 399.213 1.32961 -1.38511 0
M  V30 4216 O 400.414 1.95236 -1.8476 0
M  V30 4217 C 398.685 0.157056 -3.57055 0
M  V30 4218 S 400.244 0.646875 -4.34006 0
M  V30 4219 H 397.062 -0.00500662 -0.710982 0
M  V30 4220 H 399.664 -0.69243 -1.82827 0
M  V30 4221 H 398.368 -0.799412 -4.02539 0
M  V30 4222 H 397.899 0.896704 -3.83044 0
M  V30 4223 H 399.914 1.91381 -4.57808 0
M  V30 4224 N 399.087 1.5561 -0.249682 0
M  V30 4225 C 399.997 2.25143 0.659375 0
M  V30 4226 C 401.013 1.2685 1.19101 0
M  V30 4227 O 402.189 1.59732 1.22669 0
M  V30 4228 C 399.254 2.93945 1.8384 0
M  V30 4229 C 398.315 4.07655 1.34596 0
M  V30 4230 C 397.548 4.73167 2.46878 0
M  V30 4231 O 397.771 4.37768 3.65671 0
M  V30 4232 O 396.705 5.61623 2.16478 0
M  V30 4233 H 400.531 3.03545 0.0968698 0
M  V30 4234 H 398.116 1.49389 -0.018074 0
M  V30 4235 H 399.998 3.37271 2.52638 0
M  V30 4236 H 398.673 2.18481 2.38847 0
M  V30 4237 H 397.58 3.68839 0.625174 0
M  V30 4238 H 398.913 4.84946 0.841941 0
M  V30 4239 N 400.565 -0.0233959 1.57583 0
M  V30 4240 C 401.512 -1.02224 2.06927 0
M  V30 4241 C 402.482 -1.35575 0.959617 0
M  V30 4242 O 403.667 -1.45815 1.23055 0
M  V30 4243 C 400.807 -2.31636 2.5581 0
M  V30 4244 C 399.92 -2.04394 3.80588 0
M  V30 4245 C 399.055 -3.27717 4.18061 0
M  V30 4246 C 398.094 -2.96056 5.3574 0
M  V30 4247 N 397.231 -4.11847 5.68618 0
M  V30 4248 H 402.071 -0.594504 2.9201 0
M  V30 4249 H 399.608 -0.281921 1.44373 0
M  V30 4250 H 401.566 -3.07258 2.82221 0
M  V30 4251 H 400.196 -2.72122 1.73636 0
M  V30 4252 H 399.248 -1.19244 3.61227 0
M  V30 4253 H 400.56 -1.77042 4.66323 0
M  V30 4254 H 399.714 -4.11702 4.4563 0
M  V30 4255 H 398.453 -3.58188 3.30988 0
M  V30 4256 H 397.458 -2.10474 5.07918 0
M  V30 4257 H 398.683 -2.66857 6.24471 0
M  V30 4258 H 396.629 -4.42258 4.84504 0
M  V30 4259 H 396.546 -3.87938 6.48876 0
M  V30 4260 H 397.814 -4.96689 6.00766 0
M  V30 4261 N 402.043 -1.548 -0.295768 0
M  V30 4262 C 402.973 -1.89115 -1.36959 0
M  V30 4263 C 403.954 -0.75059 -1.52644 0
M  V30 4264 O 405.139 -1.00678 -1.66065 0
M  V30 4265 C 402.269 -2.14307 -2.73295 0
M  V30 4266 C 401.223 -3.30151 -2.72368 0
M  V30 4267 C 400.549 -3.40772 -4.12042 0
M  V30 4268 C 401.849 -4.67126 -2.33646 0
M  V30 4269 H 403.543 -2.79053 -1.08488 0
M  V30 4270 H 401.089 -1.34266 -0.520443 0
M  V30 4271 H 403.042 -2.36898 -3.48507 0
M  V30 4272 H 401.766 -1.21145 -3.03301 0
M  V30 4273 H 400.425 -3.0749 -1.99613 0
M  V30 4274 H 400.073 -2.45117 -4.39234 0
M  V30 4275 H 399.773 -4.18645 -4.12322 0
M  V30 4276 H 401.297 -3.6563 -4.89027 0
M  V30 4277 H 402.711 -4.89414 -2.98575 0
M  V30 4278 H 401.108 -5.47751 -2.45129 0
M  V30 4279 H 402.178 -4.67489 -1.28772 0
M  V30 4280 N 403.521 0.559213 -1.47345 0
M  V30 4281 C 404.468 1.66645 -1.59682 0
M  V30 4282 C 405.438 1.60168 -0.43994 0
M  V30 4283 O 406.623 1.79031 -0.659736 0
M  V30 4284 C 403.763 3.04969 -1.61518 0
M  V30 4285 C 402.876 3.21897 -2.88108 0
M  V30 4286 C 402.011 4.50608 -2.81294 0
M  V30 4287 C 401.05 4.60961 -4.02717 0
M  V30 4288 N 400.187 5.81024 -3.94151 0
M  V30 4289 H 405.027 1.55439 -2.54249 0
M  V30 4290 H 402.564 0.757219 -1.26113 0
M  V30 4291 H 404.522 3.85064 -1.60566 0
M  V30 4292 H 403.152 3.15015 -0.704645 0
M  V30 4293 H 402.204 2.35248 -2.98936 0
M  V30 4294 H 403.516 3.25412 -3.78032 0
M  V30 4295 H 402.67 5.3896 -2.7858 0
M  V30 4296 H 401.409 4.49568 -1.89049 0
M  V30 4297 H 400.414 3.71021 -4.05738 0
M  V30 4298 H 401.639 4.63761 -4.96087 0
M  V30 4299 H 399.585 5.80938 -3.04708 0
M  V30 4300 H 399.502 5.85909 -4.77752 0
M  V30 4301 H 400.77 6.71744 -3.9545 0
M  V30 4302 N 404.999 1.35443 0.805782 0
M  V30 4303 C 405.946 1.28431 1.91766 0
M  V30 4304 C 406.916 0.156102 1.65365 0
M  V30 4305 O 408.101 0.339936 1.87747 0
M  V30 4306 C 405.241 1.06301 3.2832 0
M  V30 4307 C 404.354 2.2805 3.66902 0
M  V30 4308 C 403.489 1.99064 4.92491 0
M  V30 4309 C 402.528 3.16863 5.23703 0
M  V30 4310 N 401.665 2.87647 6.40471 0
M  V30 4311 H 406.505 2.23511 1.97096 0
M  V30 4312 H 404.042 1.11105 0.964054 0
M  V30 4313 H 406 0.915012 4.07042 0
M  V30 4314 H 404.63 0.148822 3.22457 0
M  V30 4315 H 403.682 2.53711 2.83434 0
M  V30 4316 H 404.994 3.1601 3.85927 0
M  V30 4317 H 404.148 1.81099 5.7904 0
M  V30 4318 H 402.887 1.0839 4.75503 0
M  V30 4319 H 401.892 3.35404 4.35642 0
M  V30 4320 H 403.117 4.08339 5.4262 0
M  V30 4321 H 401.063 1.99568 6.24907 0
M  V30 4322 H 400.98 3.69141 6.59751 0
M  V30 4323 H 402.248 2.73226 7.30047 0
M  V30 4324 N 406.477 -1.02803 1.19454 0
M  V30 4325 C 407.407 -2.12999 0.956758 0
M  V30 4326 C 408.388 -1.69743 -0.110188 0
M  V30 4327 O 409.573 -1.94148 0.0450038 0
M  V30 4328 C 406.703 -3.43746 0.495553 0
M  V30 4329 C 405.657 -4.00688 1.50443 0
M  V30 4330 C 404.983 -5.27067 0.900275 0
M  V30 4331 C 406.283 -4.35397 2.8849 0
M  V30 4332 H 407.977 -2.33148 1.87836 0
M  V30 4333 H 405.523 -1.12045 0.904539 0
M  V30 4334 H 407.476 -4.2021 0.316493 0
M  V30 4335 H 406.2 -3.23321 -0.461646 0
M  V30 4336 H 404.859 -3.2632 1.67065 0
M  V30 4337 H 404.507 -5.02959 -0.064503 0
M  V30 4338 H 404.207 -5.66127 1.57397 0
M  V30 4339 H 405.731 -6.06196 0.73203 0
M  V30 4340 H 407.145 -5.02795 2.75446 0
M  V30 4341 H 405.542 -4.85541 3.52661 0
M  V30 4342 H 406.612 -3.44662 3.41081 0
M  V30 4343 N 407.956 -0.998596 -1.21925 0
M  V30 4344 C 408.889 -0.498517 -2.22688 0
M  V30 4345 C 409.867 0.444301 -1.56412 0
M  V30 4346 O 411.051 0.368518 -1.84863 0
M  V30 4347 C 408.178 0.276639 -3.37568 0
M  V30 4348 C 407.224 -0.61302 -4.22071 0
M  V30 4349 S 408.057 -2.07168 -4.93803 0
M  V30 4350 C 409.213 -1.30617 -6.12119 0
M  V30 4351 H 409.446 -1.35234 -2.64762 0
M  V30 4352 H 406.979 -0.806018 -1.31692 0
M  V30 4353 H 408.937 0.717817 -4.04175 0
M  V30 4354 H 407.598 1.10581 -2.93991 0
M  V30 4355 H 406.791 -0.0162909 -5.03997 0
M  V30 4356 H 406.393 -0.991202 -3.60626 0
M  V30 4357 H 408.685 -0.57675 -6.75041 0
M  V30 4358 H 409.628 -2.10091 -6.76215 0
M  V30 4359 H 410.036 -0.816957 -5.58557 0
M  V30 4360 N 409.434 1.37368 -0.772513 0
M  V30 4361 C 410.659 2.0447 -0.347386 0
M  V30 4362 C 411.084 1.57882 1.0225 0
M  V30 4363 O 410.442 0.73941 1.65537 0
M  V30 4364 C 410.49 3.58369 -0.400479 0
M  V30 4365 O 409.594 4.0803 0.598789 0
M  V30 4366 H 408.935 0.646773 -0.15027 0
M  V30 4367 H 411.465 1.75667 -1.04892 0
M  V30 4368 H 411.475 4.07183 -0.258045 0
M  V30 4369 H 410.15 3.91633 -1.39986 0
M  V30 4370 H 408.727 3.70534 0.419411 0
M  V30 4371 N 410.912 0.523116 1.48665 0
M  V30 4372 C 412.137 -0.0117284 2.07397 0
M  V30 4373 C 412.562 -1.28031 1.37803 0
M  V30 4374 O 411.92 -1.75836 0.441762 0
M  V30 4375 C 411.968 -0.225786 3.59892 0
M  V30 4376 O 411.072 -1.29592 3.91509 0
M  V30 4377 H 410.413 0.0360673 0.66302 0
M  V30 4378 H 412.943 0.729066 1.9117 0
M  V30 4379 H 412.953 -0.450552 4.05505 0
M  V30 4380 H 411.628 0.700944 4.09951 0
M  V30 4381 H 410.205 -1.05436 3.57684 0
M  V30 4382 N 412.39 -1.55475 0.257931 0
M  V30 4383 C 413.338 -2.23244 -0.653076 0
M  V30 4384 C 414.332 -1.22366 -1.17144 0
M  V30 4385 O 415.538 -1.40347 -1.12706 0
M  V30 4386 H 411.913 -0.716247 -0.229117 0
M  V30 4387 H 413.884 -2.98343 -0.0584788 0
M  V30 4388 C 412.633 -2.95401 -1.83395 0
M  V30 4389 H 411.956 -3.72802 -1.44424 0
M  V30 4390 H 413.396 -3.46165 -2.44838 0
M  V30 4391 C 411.855 -1.99895 -2.71189 0
M  V30 4392 O 412.385 -1.53909 -3.71046 0
M  V30 4393 N 410.591 -1.6676 -2.3799 0
M  V30 4394 H 410.138 -2.04352 -1.56837 0
M  V30 4395 H 410.096 -1.03127 -2.97005 0
M  V30 4396 N 413.868 0.0150385 -1.57593 0
M  V30 4397 C 415.093 0.718067 -1.94573 0
M  V30 4398 C 415.518 1.6734 -0.859005 0
M  V30 4399 O 414.876 1.80362 0.184147 0
M  V30 4400 C 414.924 1.43918 -3.30636 0
M  V30 4401 O 414.028 2.55299 -3.23876 0
M  V30 4402 H 413.369 0.192125 -0.635597 0
M  V30 4403 H 415.899 -0.0336708 -2.04572 0
M  V30 4404 H 415.909 1.80598 -3.65853 0
M  V30 4405 H 414.584 0.738619 -4.09289 0
M  V30 4406 H 413.161 2.21058 -3.00312 0
M  V30 4407 N 415.346 1.54954 0.287554 0
M  V30 4408 C 416.574 1.78881 1.03967 0
M  V30 4409 C 416.989 0.554894 1.80462 0
M  V30 4410 O 416.346 -0.475676 1.76192 0
M  V30 4411 C 416.397 3.00488 2.0097 0
M  V30 4412 O 416.118 4.19113 1.27577 0
M  V30 4413 C 417.619 3.36907 2.88112 0
M  V30 4414 H 414.839 0.596259 0.307761 0
M  V30 4415 H 417.383 2.01937 0.322749 0
M  V30 4416 H 415.538 2.79601 2.68145 0
M  V30 4417 H 415.952 4.87765 1.92835 0
M  V30 4418 H 417.426 4.25205 3.52001 0
M  V30 4419 H 417.903 2.55659 3.57121 0
M  V30 4420 H 418.509 3.60001 2.26449 0
M  V30 4421 N 416.824 -0.551391 1.4764 0
M  V30 4422 C 418.101 -1.31229 1.45046 0
M  V30 4423 C 418.481 -2.10563 0.150527 0
M  V30 4424 O 417.829 -2.11374 -0.867956 0
M  V30 4425 C 418.039 -2.21189 2.69956 0
M  V30 4426 C 419.387 -2.82021 3.1741 0
M  V30 4427 O 420.411 -2.31488 2.70724 0
M  V30 4428 O 419.27 -3.73885 3.98588 0
M  V30 4429 H 416.364 -0.591193 0.578291 0
M  V30 4430 H 418.91 -0.569813 1.59847 0
M  V30 4431 H 417.682 -1.62207 3.56096 0
M  V30 4432 H 417.305 -3.02722 2.57769 0
M  V30 4433 N 418.302 -1.35869 -0.798587 0
M  V30 4434 C 419.232 -1.32118 -1.92528 0
M  V30 4435 C 420.213 -0.194209 -1.68988 0
M  V30 4436 O 421.398 -0.390426 -1.90235 0
M  V30 4437 C 418.528 -1.10047 -3.29404 0
M  V30 4438 C 417.482 -2.19471 -3.67446 0
M  V30 4439 C 416.808 -1.82555 -5.02571 0
M  V30 4440 C 418.108 -3.61495 -3.76987 0
M  V30 4441 H 419.802 -2.26394 -1.95924 0
M  V30 4442 H 417.348 -1.08981 -0.94123 0
M  V30 4443 H 419.301 -1.06061 -4.07835 0
M  V30 4444 H 418.025 -0.122195 -3.26371 0
M  V30 4445 H 416.684 -2.22568 -2.91306 0
M  V30 4446 H 416.332 -0.833249 -4.9605 0
M  V30 4447 H 416.032 -2.5581 -5.28995 0
M  V30 4448 H 417.556 -1.80108 -5.83432 0
M  V30 4449 H 418.97 -3.60676 -4.4563 0
M  V30 4450 H 417.367 -4.33577 -4.14887 0
M  V30 4451 H 418.437 -3.97065 -2.78329 0
M  V30 4452 N 419.78 1.02168 -1.19998 0
M  V30 4453 C 421.191 1.57135 -1.00825 0
M  V30 4454 C 421.542 1.91276 0.436818 0
M  V30 4455 O 420.667 1.71679 1.3174 0
M  V30 4456 C 421.262 2.85514 -1.82393 0
M  V30 4457 C 419.821 3.37027 -1.67601 0
M  V30 4458 C 418.968 2.10388 -1.80644 0
M  V30 4459 H 421.919 0.846106 -1.34264 0
M  V30 4460 H 421.94 3.56711 -1.32429 0
M  V30 4461 H 421.452 2.60634 -2.87561 0
M  V30 4462 H 419.553 3.66878 -0.650485 0
M  V30 4463 H 419.666 4.09572 -2.4857 0
M  V30 4464 H 418.03 2.22601 -1.23778 0
M  V30 4465 H 418.813 1.8794 -2.87286 0
M  V30 4466 N 421.258 1.00505 1.21394 0
M  V30 4467 C 422.188 0.585684 2.26035 0
M  V30 4468 C 423.169 -0.393525 1.65485 0
M  V30 4469 O 424.354 -0.281497 1.92149 0
M  V30 4470 C 421.484 -0.0884283 3.47187 0
M  V30 4471 C 420.438 0.810567 4.20254 0
M  V30 4472 C 419.764 0.00286382 5.347 0
M  V30 4473 C 421.064 2.1132 4.77641 0
M  V30 4474 H 422.758 1.46039 2.61368 0
M  V30 4475 H 420.304 0.703648 1.25638 0
M  V30 4476 H 422.257 -0.393286 4.19561 0
M  V30 4477 H 420.981 -0.997766 3.10986 0
M  V30 4478 H 419.64 1.09925 3.49731 0
M  V30 4479 H 419.288 -0.907765 4.94741 0
M  V30 4480 H 418.988 0.601444 5.84514 0
M  V30 4481 H 420.512 -0.295808 6.09883 0
M  V30 4482 H 421.926 1.87148 5.41893 0
M  V30 4483 H 420.323 2.66164 5.37845 0
M  V30 4484 H 421.393 2.78393 3.9702 0
M  V30 4485 N 422.737 -1.36956 0.779787 0
M  V30 4486 C 423.685 -2.32053 0.15942 0
M  V30 4487 C 424.679 -1.55333 -0.675878 0
M  V30 4488 O 425.885 -1.70668 -0.57204 0
M  V30 4489 H 422.26 -0.751286 0.0327707 0
M  V30 4490 H 424.231 -2.8195 0.977078 0
M  V30 4491 C 422.98 -3.40602 -0.698977 0
M  V30 4492 H 422.303 -3.99746 -0.0655966 0
M  V30 4493 H 423.743 -4.09486 -1.09989 0
M  V30 4494 C 422.202 -2.81359 -1.85307 0
M  V30 4495 O 422.732 -2.72751 -2.94906 0
M  V30 4496 N 420.938 -2.38786 -1.65619 0
M  V30 4497 H 420.485 -2.45987 -0.764725 0
M  V30 4498 H 420.443 -1.99493 -2.43002 0
M  V30 4499 N 424.215 -0.530993 -1.48385 0
M  V30 4500 C 425.464 0.00474348 -2.01699 0
M  V30 4501 C 425.777 1.35227 -1.41325 0
M  V30 4502 O 426.983 1.97643 -1.86144 0
M  V30 4503 C 425.439 0.0588473 -3.59852 0
M  V30 4504 C 425.047 -1.28385 -4.2921 0
M  V30 4505 C 426.791 0.543358 -4.21008 0
M  V30 4506 C 424.698 -1.19028 -5.79298 0
M  V30 4507 H 423.628 0.00554317 -0.75398 0
M  V30 4508 H 426.279 -0.674924 -1.70637 0
M  V30 4509 H 424.661 0.803612 -3.8776 0
M  V30 4510 H 425.835 -2.04426 -4.12973 0
M  V30 4511 H 424.15 -1.70418 -3.7993 0
M  V30 4512 H 426.747 0.631351 -5.3096 0
M  V30 4513 H 427.09 1.54937 -3.86394 0
M  V30 4514 H 427.623 -0.145754 -3.97533 0
M  V30 4515 H 424.362 -2.17147 -6.18488 0
M  V30 4516 H 423.882 -0.471246 -5.97946 0
M  V30 4517 H 425.561 -0.881365 -6.40969 0
M  V30 4518 N 425.693 1.55336 -0.266172 0
M  V30 4519 C 426.603 2.2583 0.635458 0
M  V30 4520 C 427.619 1.28106 1.17749 0
M  V30 4521 O 428.795 1.61024 1.20968 0
M  V30 4522 C 425.86 2.95879 1.80712 0
M  V30 4523 C 424.921 4.09059 1.30265 0
M  V30 4524 C 424.154 4.75759 2.41846 0
M  V30 4525 O 424.377 4.41622 3.61007 0
M  V30 4526 O 423.311 5.63888 2.1051 0
M  V30 4527 H 427.137 3.03631 0.0646693 0
M  V30 4528 H 424.722 1.49361 -0.0339177 0
M  V30 4529 H 426.604 3.39932 2.49047 0
M  V30 4530 H 425.279 2.21002 2.36516 0
M  V30 4531 H 424.186 3.69482 0.586019 0
M  V30 4532 H 425.519 4.85811 0.790458 0
M  V30 4533 N 427.171 -0.0066808 1.57599 0
M  V30 4534 C 428.411 -0.697501 1.92131 0
M  V30 4535 C 428.775 -1.71306 0.867071 0
M  V30 4536 O 429.976 -2.45377 1.09743 0
M  V30 4537 C 428.247 -1.32978 3.3174 0
M  V30 4538 S 429.806 -2.04665 3.88146 0
M  V30 4539 H 426.624 -0.230555 0.672581 0
M  V30 4540 H 429.226 0.0484026 1.9544 0
M  V30 4541 H 427.93 -0.57772 4.06313 0
M  V30 4542 H 427.461 -2.11376 3.31789 0
M  V30 4543 H 429.476 -3.32097 3.68682 0
M  V30 4544 N 428.649 -1.55105 -0.279332 0
M  V30 4545 C 429.896 -1.75412 -1.01177 0
M  V30 4546 C 430.224 -0.551728 -1.86511 0
M  V30 4547 O 429.479 0.465919 -1.90073 0
M  V30 4548 C 429.778 -3.0086 -1.92919 0
M  V30 4549 C 429.444 -4.33689 -1.23387 0
M  V30 4550 C 428.106 -4.69792 -1.04159 0
M  V30 4551 C 430.458 -5.15941 -0.738562 0
M  V30 4552 C 427.786 -5.85707 -0.341166 0
M  V30 4553 C 430.138 -6.32579 -0.0517636 0
M  V30 4554 C 428.802 -6.67326 0.152292 0
M  V30 4555 H 428.072 -0.641879 -0.370233 0
M  V30 4556 H 430.719 -1.89373 -0.284627 0
M  V30 4557 H 429.024 -2.81773 -2.72234 0
M  V30 4558 H 430.721 -3.13768 -2.49701 0
M  V30 4559 H 427.311 -4.05309 -1.39364 0
M  V30 4560 H 431.495 -4.8853 -0.874764 0
M  V30 4561 H 426.751 -6.11157 -0.172287 0
M  V30 4562 H 430.925 -6.9557 0.339828 0
M  V30 4563 H 428.552 -7.56998 0.697014 0
M  V30 4564 N 430.127 0.543554 -1.4793 0
M  V30 4565 C 431.06 1.66556 -1.55995 0
M  V30 4566 C 432.038 1.57315 -0.411205 0
M  V30 4567 O 433.222 1.7798 -0.620922 0
M  V30 4568 C 430.349 3.04883 -1.47527 0
M  V30 4569 C 429.395 3.32526 -2.67074 0
M  V30 4570 S 430.228 3.20282 -4.29162 0
M  V30 4571 C 431.384 4.61079 -4.23269 0
M  V30 4572 H 431.617 1.59462 -2.50917 0
M  V30 4573 H 429.15 0.725456 -1.36296 0
M  V30 4574 H 431.108 3.84665 -1.43328 0
M  V30 4575 H 429.769 3.09429 -0.539665 0
M  V30 4576 H 428.962 4.33403 -2.5725 0
M  V30 4577 H 428.564 2.60389 -2.68466 0
M  V30 4578 H 430.856 5.52318 -3.92365 0
M  V30 4579 H 431.799 4.75959 -5.24279 0
M  V30 4580 H 432.207 4.39766 -3.5393 0
M  V30 4581 N 431.605 1.3629 0.791371 0
M  V30 4582 C 432.553 1.30514 1.92533 0
M  V30 4583 C 433.547 0.197285 1.68247 0
M  V30 4584 O 434.753 0.364176 1.76278 0
M  V30 4585 H 431.128 0.406263 0.632815 0
M  V30 4586 H 433.099 2.26282 1.94523 0
M  V30 4587 C 431.848 1.10933 3.29529 0
M  V30 4588 H 431.171 1.95427 3.48781 0
M  V30 4589 H 432.611 1.10937 4.0923 0
M  V30 4590 C 431.07 -0.186123 3.36385 0
M  V30 4591 O 431.6 -1.17664 3.84081 0
M  V30 4592 N 429.806 -0.230128 2.89687 0
M  V30 4593 H 429.353 0.576545 2.51065 0
M  V30 4594 H 429.311 -1.09658 2.94657 0
M  V30 4595 N 433.083 -1.0153 1.20538 0
M  V30 4596 C 434.36 -1.72327 0.925343 0
M  V30 4597 C 434.74 -2.03383 -0.565547 0
M  V30 4598 O 434.088 -1.69934 -1.52757 0
M  V30 4599 C 434.298 -2.9902 1.79967 0
M  V30 4600 C 435.646 -3.72258 2.04228 0
M  V30 4601 O 436.67 -3.08979 1.77231 0
M  V30 4602 O 435.529 -4.86053 2.4983 0
M  V30 4603 H 432.623 -0.751099 0.346092 0
M  V30 4604 H 435.169 -1.07366 1.31417 0
M  V30 4605 H 433.941 -2.72402 2.80915 0
M  V30 4606 H 433.564 -3.71721 1.41099 0
M  V30 4607 N 434.561 -1.01147 -1.20859 0
M  V30 4608 C 435.508 -0.577354 -2.23462 0
M  V30 4609 C 436.478 0.399922 -1.61214 0
M  V30 4610 O 437.663 0.300515 -1.88419 0
M  V30 4611 C 434.803 0.083372 -3.44999 0
M  V30 4612 C 433.916 -0.937856 -4.21697 0
M  V30 4613 C 433.051 -0.248717 -5.30617 0
M  V30 4614 C 432.09 -1.25705 -5.99053 0
M  V30 4615 N 431.227 -0.594939 -6.99575 0
M  V30 4616 H 436.067 -1.45695 -2.59956 0
M  V30 4617 H 433.604 -0.729428 -1.27741 0
M  V30 4618 H 435.562 0.483535 -4.14388 0
M  V30 4619 H 434.192 0.926645 -3.09214 0
M  V30 4620 H 433.244 -1.45622 -3.51423 0
M  V30 4621 H 434.556 -1.70493 -4.68757 0
M  V30 4622 H 433.71 0.207215 -6.06346 0
M  V30 4623 H 432.449 0.55071 -4.84581 0
M  V30 4624 H 431.454 -1.72343 -5.2209 0
M  V30 4625 H 432.679 -2.05767 -6.47176 0
M  V30 4626 H 430.625 0.184713 -6.5574 0
M  V30 4627 H 430.542 -1.30017 -7.44736 0
M  V30 4628 H 431.81 -0.162427 -7.79331 0
M  V30 4629 N 436.039 1.36541 -0.78704 0
M  V30 4630 C 437.316 1.9355 -0.282424 0
M  V30 4631 C 437.696 1.71919 1.22503 0
M  V30 4632 O 437.044 1.07677 2.01539 0
M  V30 4633 C 437.254 3.4246 -0.672462 0
M  V30 4634 C 438.602 4.19582 -0.650863 0
M  V30 4635 O 439.626 3.50889 -0.612789 0
M  V30 4636 O 438.485 5.42106 -0.691623 0
M  V30 4637 H 435.579 0.824091 -0.0693 0
M  V30 4638 H 438.125 1.45736 -0.869423 0
M  V30 4639 H 436.897 3.51851 -1.71221 0
M  V30 4640 H 436.52 3.97556 -0.0592211 0
M  V30 4641 N 437.518 0.538854 1.48102 0
M  V30 4642 C 438.764 0.00801365 2.02798 0
M  V30 4643 C 439.097 -1.3309 1.41424 0
M  V30 4644 O 438.372 -1.86169 0.563158 0
M  V30 4645 C 438.655 -0.104589 3.59948 0
M  V30 4646 C 438.508 1.26012 4.31788 0
M  V30 4647 C 439.827 -0.827055 4.32259 0
M  V30 4648 H 436.946 0.00438624 0.736987 0
M  V30 4649 H 439.588 0.6976 1.7673 0
M  V30 4650 H 437.738 -0.691893 3.82289 0
M  V30 4651 H 439.41 1.88922 4.2084 0
M  V30 4652 H 437.653 1.83968 3.92859 0
M  V30 4653 H 438.324 1.13424 5.40221 0
M  V30 4654 H 440.8 -0.328578 4.14801 0
M  V30 4655 H 439.676 -0.87476 5.41885 0
M  V30 4656 H 439.937 -1.87927 4.0017 0
M  V30 4657 N 438.996 -1.55193 0.274407 0
M  V30 4658 C 440.221 -2.04446 -0.348824 0
M  V30 4659 C 440.646 -1.15149 -1.48735 0
M  V30 4660 O 440.004 -0.149952 -1.80679 0
M  V30 4661 C 440.052 -3.51431 -0.808009 0
M  V30 4662 O 439.156 -3.65225 -1.91531 0
M  V30 4663 H 438.497 -0.66006 -0.0722276 0
M  V30 4664 H 441.027 -2.00481 0.408498 0
M  V30 4665 H 441.037 -3.92781 -1.10395 0
M  V30 4666 H 439.712 -4.15892 0.0249865 0
M  V30 4667 H 438.289 -3.35778 -1.62196 0
M  V30 4668 N 440.474 -0.00167713 -1.576 0
M  V30 4669 C 441.722 0.681471 -1.90264 0
M  V30 4670 C 442.043 1.7422 -0.875924 0
M  V30 4671 O 441.313 1.95709 0.0864412 0
M  V30 4672 H 439.893 0.254696 -0.702239 0
M  V30 4673 H 442.555 -0.0429996 -1.94853 0
M  V30 4674 H 441.651 1.15166 -2.90075 0
M  V30 4675 N 441.952 1.55251 0.271103 0
M  V30 4676 C 442.899 1.88261 1.33516 0
M  V30 4677 C 443.869 0.734296 1.48988 0
M  V30 4678 O 445.054 0.985741 1.63364 0
M  V30 4679 C 442.194 2.16168 2.69008 0
M  V30 4680 C 441.307 3.43678 2.61743 0
M  V30 4681 C 440.442 3.61276 3.89427 0
M  V30 4682 C 439.481 4.82472 3.7668 0
M  V30 4683 N 438.618 4.96717 4.96202 0
M  V30 4684 H 443.458 2.79015 1.04665 0
M  V30 4685 H 440.995 1.38137 0.505618 0
M  V30 4686 H 442.953 2.30349 3.47844 0
M  V30 4687 H 441.583 1.28646 2.96057 0
M  V30 4688 H 440.635 3.37959 1.74607 0
M  V30 4689 H 441.947 4.3265 2.48224 0
M  V30 4690 H 441.101 3.75284 4.76704 0
M  V30 4691 H 439.84 2.70492 4.05814 0
M  V30 4692 H 438.845 4.68465 2.87786 0
M  V30 4693 H 440.07 5.74692 3.61809 0
M  V30 4694 H 438.016 4.08865 5.12997 0
M  V30 4695 H 437.933 5.79738 4.85222 0
M  V30 4696 H 439.201 5.15113 5.85046 0
M  V30 4697 N 443.43 -0.535701 1.48216 0
M  V30 4698 C 444.363 -1.65726 1.56876 0
M  V30 4699 C 445.341 -1.57094 0.419542 0
M  V30 4700 O 446.525 -1.77648 0.630352 0
M  V30 4701 C 443.652 -3.04096 1.49142 0
M  V30 4702 C 442.698 -3.31105 2.68834 0
M  V30 4703 S 443.531 -3.18001 4.30854 0
M  V30 4704 C 444.687 -4.58828 4.25709 0
M  V30 4705 H 444.92 -1.58129 2.51759 0
M  V30 4706 H 442.453 -0.718218 1.36678 0
M  V30 4707 H 444.411 -3.839 1.45366 0
M  V30 4708 H 443.072 -3.09139 0.556067 0
M  V30 4709 H 442.265 -4.32033 2.59545 0
M  V30 4710 H 441.867 -2.58961 2.69843 0
M  V30 4711 H 444.159 -5.5023 3.95289 0
M  V30 4712 H 445.102 -4.73172 5.26796 0
M  V30 4713 H 445.51 -4.37883 3.56257 0
M  V30 4714 N 444.908 -1.36708 -0.784132 0
M  V30 4715 C 445.856 -1.31533 -1.91838 0
M  V30 4716 C 446.85 -0.206205 -1.6814 0
M  V30 4717 O 448.056 -0.373519 -1.76082 0
M  V30 4718 H 444.431 -0.409613 -0.630651 0
M  V30 4719 H 446.402 -2.2731 -1.9332 0
M  V30 4720 C 445.151 -1.12679 -3.28936 0
M  V30 4721 H 444.474 -1.97274 -3.4774 0
M  V30 4722 H 445.914 -1.13106 -4.08636 0
M  V30 4723 C 444.373 0.168281 -3.36479 0
M  V30 4724 O 444.903 1.15625 -3.84699 0
M  V30 4725 N 443.109 0.214762 -2.89805 0
M  V30 4726 H 442.656 -0.589852 -2.50756 0
M  V30 4727 H 442.614 1.08094 -2.95234 0
M  V30 4728 N 446.386 1.0089 -1.21074 0
M  V30 4729 C 447.802 1.2695 -0.967257 0
M  V30 4730 C 448.002 1.9846 0.348673 0
M  V30 4731 O 447.058 2.28459 1.0753 0
M  V30 4732 C 448.371 2.09697 -2.15517 0
M  V30 4733 C 449.919 2.22937 -2.197 0
M  V30 4734 C 450.394 3.09064 -3.37999 0
M  V30 4735 N 451.885 3.16653 -3.38061 0
M  V30 4736 C 452.62 3.8354 -4.26245 0
M  V30 4737 N 452.116 4.52488 -5.2462 0
M  V30 4738 N 453.909 3.80141 -4.14064 0
M  V30 4739 H 446.06 0.529005 -2.05707 0
M  V30 4740 H 448.323 0.296148 -0.900556 0
M  V30 4741 H 448.029 1.64497 -3.10859 0
M  V30 4742 H 447.903 3.10444 -2.14253 0
M  V30 4743 H 450.29 2.67357 -1.24916 0
M  V30 4744 H 450.371 1.21673 -2.2501 0
M  V30 4745 H 450.015 2.65347 -4.33074 0
M  V30 4746 H 449.945 4.10433 -3.29928 0
M  V30 4747 H 452.436 2.67566 -2.66865 0
M  V30 4748 H 452.749 5.01219 -5.88217 0
M  V30 4749 H 451.094 4.51288 -5.28549 0
M  V30 4750 H 454.285 3.25427 -3.36474 0
M  V30 4751 H 454.458 4.31992 -4.82998 0
M  V30 4752 N 447.864 1.01787 1.20321 0
M  V30 4753 C 449.089 0.727009 1.9424 0
M  V30 4754 C 449.514 -0.706179 1.74341 0
M  V30 4755 O 448.872 -1.48609 1.03852 0
M  V30 4756 C 448.92 1.06958 3.44372 0
M  V30 4757 O 448.024 0.181983 4.11998 0
M  V30 4758 H 447.365 0.269626 0.606793 0
M  V30 4759 H 449.895 1.36158 1.52716 0
M  V30 4760 H 449.905 1.02182 3.94997 0
M  V30 4761 H 448.58 2.11378 3.58179 0
M  V30 4762 H 447.157 0.287378 3.71791 0
M  V30 4763 N 449.342 -1.36122 0.79427 0
M  V30 4764 C 450.274 -2.28683 0.153903 0
M  V30 4765 C 451.287 -1.49707 -0.639669 0
M  V30 4766 O 452.476 -1.7209 -0.474054 0
M  V30 4767 C 449.576 -3.29202 -0.804921 0
M  V30 4768 C 448.749 -4.37358 -0.060366 0
M  V30 4769 C 447.808 -5.17811 -0.935849 0
M  V30 4770 O 446.834 -5.67853 -0.391309 0
M  V30 4771 N 448.036 -5.34721 -2.25951 0
M  V30 4772 H 450.801 -2.84278 0.949008 0
M  V30 4773 H 448.362 -1.4834 0.648611 0
M  V30 4774 H 450.354 -3.79914 -1.39455 0
M  V30 4775 H 448.924 -2.74212 -1.50088 0
M  V30 4776 H 448.144 -3.87746 0.710382 0
M  V30 4777 H 449.432 -5.06777 0.45324 0
M  V30 4778 H 448.83 -4.95687 -2.72601 0
M  V30 4779 H 447.387 -5.88657 -2.79867 0
M  V30 4780 N 450.82 -0.546701 -1.47814 0
M  V30 4781 C 452.067 -0.0187407 -2.02491 0
M  V30 4782 C 452.395 1.32685 -1.42215 0
M  V30 4783 O 451.65 1.87413 -0.563454 0
M  V30 4784 C 451.949 0.134869 -3.57145 0
M  V30 4785 C 451.615 -1.13849 -4.3629 0
M  V30 4786 C 450.277 -1.48743 -4.57634 0
M  V30 4787 C 452.629 -1.98277 -4.82012 0
M  V30 4788 C 449.957 -2.67932 -5.21948 0
M  V30 4789 C 452.309 -3.16659 -5.4764 0
M  V30 4790 C 450.973 -3.51879 -5.67219 0
M  V30 4791 H 450.243 -0.0068577 -0.740968 0
M  V30 4792 H 452.89 -0.716097 -1.77607 0
M  V30 4793 H 451.195 0.915118 -3.80963 0
M  V30 4794 H 452.892 0.558556 -3.97091 0
M  V30 4795 H 449.482 -0.856767 -4.19949 0
M  V30 4796 H 453.666 -1.72628 -4.6531 0
M  V30 4797 H 448.922 -2.95401 -5.35302 0
M  V30 4798 H 453.096 -3.82374 -5.82033 0
M  V30 4799 H 450.723 -4.44331 -6.16825 0
M  V30 4800 N 452.299 1.55045 -0.282633 0
M  V30 4801 C 453.209 2.26491 0.61147 0
M  V30 4802 C 454.225 1.29348 1.16384 0
M  V30 4803 O 455.401 1.62298 1.19253 0
M  V30 4804 C 452.466 2.97779 1.77563 0
M  V30 4805 C 451.527 4.10418 1.25919 0
M  V30 4806 C 450.76 4.78297 2.36786 0
M  V30 4807 O 450.983 4.45426 3.56303 0
M  V30 4808 O 449.917 5.66089 2.04517 0
M  V30 4809 H 453.743 3.03683 0.0324615 0
M  V30 4810 H 451.328 1.49317 -0.0497576 0
M  V30 4811 H 453.21 3.42554 2.45427 0
M  V30 4812 H 451.885 2.23498 2.34159 0
M  V30 4813 H 450.792 3.70082 0.546797 0
M  V30 4814 H 452.125 4.86622 0.738887 0
M  V30 4815 N 453.777 0.010035 1.57597 0
M  V30 4816 C 454.687 -0.994226 2.12491 0
M  V30 4817 C 455.703 -1.37013 1.07254 0
M  V30 4818 O 456.879 -1.45542 1.3921 0
M  V30 4819 C 453.944 -2.2642 2.62555 0
M  V30 4820 C 453.005 -1.95049 3.82432 0
M  V30 4821 C 452.238 -3.15991 4.30099 0
M  V30 4822 O 452.461 -4.28015 3.7704 0
M  V30 4823 O 451.395 -2.99403 5.22151 0
M  V30 4824 H 455.221 -0.557549 2.98538 0
M  V30 4825 H 452.806 -0.209413 1.47925 0
M  V30 4826 H 454.688 -3.01009 2.9491 0
M  V30 4827 H 453.363 -2.69306 1.796 0
M  V30 4828 H 452.27 -1.17904 3.55034 0
M  V30 4829 H 453.603 -1.56992 4.66491 0
M  V30 4830 N 455.255 -1.55392 -0.262866 0
M  V30 4831 C 456.185 -1.91978 -1.32917 0
M  V30 4832 C 457.166 -0.7828 -1.51017 0
M  V30 4833 O 458.351 -1.04178 -1.63892 0
M  V30 4834 C 455.481 -2.20055 -2.68687 0
M  V30 4835 C 454.435 -3.35854 -2.65304 0
M  V30 4836 C 453.761 -3.49435 -4.04721 0
M  V30 4837 C 455.061 -4.71977 -2.23685 0
M  V30 4838 H 456.755 -2.81292 -1.02544 0
M  V30 4839 H 454.301 -1.3534 -0.491846 0
M  V30 4840 H 456.254 -2.44237 -3.43404 0
M  V30 4841 H 454.978 -1.27551 -3.00663 0
M  V30 4842 H 453.637 -3.11655 -1.93045 0
M  V30 4843 H 453.285 -2.54379 -4.33936 0
M  V30 4844 H 452.985 -4.27297 -4.0335 0
M  V30 4845 H 454.509 -3.7592 -4.81161 0
M  V30 4846 H 455.923 -4.95637 -2.88127 0
M  V30 4847 H 454.32 -5.52828 -2.33456 0
M  V30 4848 H 455.39 -4.70115 -1.18827 0
M  V30 4849 N 456.733 0.527833 -1.48498 0
M  V30 4850 C 457.973 1.29401 -1.58224 0
M  V30 4851 C 458.337 1.90348 -0.251327 0
M  V30 4852 O 459.538 2.67868 -0.223588 0
M  V30 4853 C 457.809 2.35266 -2.69044 0
M  V30 4854 S 459.368 3.2158 -2.98549 0
M  V30 4855 H 456.186 0.440138 -0.558391 0
M  V30 4856 H 458.788 0.601079 -1.8603 0
M  V30 4857 H 457.492 1.88975 -3.64303 0
M  V30 4858 H 457.023 3.09263 -2.43146 0
M  V30 4859 H 459.038 4.35391 -2.38011 0
M  V30 4860 N 458.211 1.37122 0.776871 0
M  V30 4861 C 459.174 1.32301 1.8716 0
M  V30 4862 C 460.174 0.228099 1.59174 0
M  V30 4863 O 461.364 0.483642 1.67352 0
M  V30 4864 C 458.496 1.054 3.24197 0
M  V30 4865 H 459.689 2.29673 1.92848 0
M  V30 4866 H 457.242 1.22077 0.97606 0
M  V30 4867 H 457.977 0.0853872 3.24188 0
M  V30 4868 H 457.762 1.84648 3.45901 0
M  V30 4869 H 459.252 1.04664 4.04271 0
M  V30 4870 N 459.689 -1.00246 1.21608 0
M  V30 4871 C 460.599 -2.12515 0.993709 0
M  V30 4872 C 461.615 -1.73913 -0.0549939 0
M  V30 4873 O 462.791 -2.00943 0.135619 0
M  V30 4874 C 459.856 -3.42083 0.563953 0
M  V30 4875 C 458.917 -3.94843 1.68516 0
M  V30 4876 C 458.15 -5.18226 1.27582 0
M  V30 4877 O 458.373 -5.70201 0.150506 0
M  V30 4878 O 457.307 -5.64497 2.0887 0
M  V30 4879 H 461.133 -2.34152 1.93407 0
M  V30 4880 H 458.718 -1.10891 1.00118 0
M  V30 4881 H 460.6 -4.20073 0.334194 0
M  V30 4882 H 459.275 -3.21828 -0.347665 0
M  V30 4883 H 458.182 -3.18068 1.96935 0
M  V30 4884 H 459.515 -4.19512 2.5743 0
M  V30 4885 N 461.167 -1.02423 -1.1978 0
M  V30 4886 C 462.097 -0.62157 -2.25075 0
M  V30 4887 C 463.078 0.367148 -1.6609 0
M  V30 4888 O 464.263 0.250892 -1.92573 0
M  V30 4889 C 461.393 0.0331826 -3.47284 0
M  V30 4890 C 460.347 -0.877323 -4.18912 0
M  V30 4891 C 459.673 -0.0879296 -5.34628 0
M  V30 4892 C 460.973 -2.18892 -4.74219 0
M  V30 4893 H 462.667 -1.50179 -2.59011 0
M  V30 4894 H 460.213 -0.723547 -1.24502 0
M  V30 4895 H 462.166 0.326488 -4.20133 0
M  V30 4896 H 460.89 0.948164 -3.12534 0
M  V30 4897 H 459.549 -1.15475 -3.47938 0
M  V30 4898 H 459.197 0.828941 -4.96123 0
M  V30 4899 H 458.897 -0.694359 -5.83483 0
M  V30 4900 H 460.421 0.198743 -6.10276 0
M  V30 4901 H 461.835 -1.95746 -5.38847 0
M  V30 4902 H 460.232 -2.74686 -5.33542 0
M  V30 4903 H 461.302 -2.84674 -3.92541 0
M  V30 4904 N 462.645 1.35699 -0.801477 0
M  V30 4905 C 463.575 2.32436 -0.222658 0
M  V30 4906 C 464.556 1.5723 0.649057 0
M  V30 4907 O 465.741 1.85324 0.580387 0
M  V30 4908 C 462.871 3.41469 0.633719 0
M  V30 4909 C 461.825 4.27774 -0.139083 0
M  V30 4910 C 461.151 5.28082 0.838666 0
M  V30 4911 C 462.451 5.04946 -1.33517 0
M  V30 4912 H 464.145 2.81094 -1.03086 0
M  V30 4913 H 461.691 1.35146 -0.497155 0
M  V30 4914 H 463.644 4.08143 1.04868 0
M  V30 4915 H 462.368 2.91408 1.47475 0
M  V30 4916 H 461.027 3.62673 -0.535156 0
M  V30 4917 H 460.675 4.7429 1.67506 0
M  V30 4918 H 460.375 5.86695 0.32594 0
M  V30 4919 H 461.899 5.97628 1.25194 0
M  V30 4920 H 463.313 5.64593 -0.995349 0
M  V30 4921 H 461.71 5.7303 -1.78202 0
M  V30 4922 H 462.78 4.35886 -2.12442 0
M  V30 4923 N 464.123 0.554532 1.47522 0
M  V30 4924 C 465.055 -0.232106 2.28022 0
M  V30 4925 C 466.068 -0.881865 1.36847 0
M  V30 4926 O 467.257 -0.756168 1.61692 0
M  V30 4927 C 464.357 -1.34604 3.11022 0
M  V30 4928 C 463.53 -0.793582 4.30141 0
M  V30 4929 C 462.589 -1.79168 4.94758 0
M  V30 4930 O 461.615 -1.33886 5.5323 0
M  V30 4931 N 462.817 -3.12495 4.89211 0
M  V30 4932 H 465.582 0.458407 2.96173 0
M  V30 4933 H 463.143 0.390433 1.57122 0
M  V30 4934 H 465.135 -2.01243 3.51118 0
M  V30 4935 H 463.705 -1.93983 2.45131 0
M  V30 4936 H 462.925 0.0495025 3.94169 0
M  V30 4937 H 464.213 -0.403776 5.07195 0
M  V30 4938 H 463.611 -3.51931 4.42901 0
M  V30 4939 H 462.168 -3.74698 5.33333 0
M  V30 4940 N 465.601 -1.54893 0.290851 0
M  V30 4941 C 466.548 -2.23138 -0.58974 0
M  V30 4942 C 467.518 -1.21036 -1.13752 0
M  V30 4943 O 468.703 -1.49626 -1.18392 0
M  V30 4944 C 465.843 -2.96811 -1.76061 0
M  V30 4945 C 464.956 -4.13665 -1.24519 0
M  V30 4946 C 464.091 -4.74944 -2.3791 0
M  V30 4947 C 463.13 -5.83963 -1.83451 0
M  V30 4948 N 462.267 -6.39239 -2.90376 0
M  V30 4949 H 467.107 -2.98 -0.00114915 0
M  V30 4950 H 464.644 -1.47096 0.0112006 0
M  V30 4951 H 466.602 -3.37751 -2.44909 0
M  V30 4952 H 465.232 -2.24344 -2.32098 0
M  V30 4953 H 464.284 -3.77737 -0.449288 0
M  V30 4954 H 465.596 -4.92238 -0.806424 0
M  V30 4955 H 464.75 -5.18684 -3.14724 0
M  V30 4956 H 463.489 -3.95682 -2.85109 0
M  V30 4957 H 462.494 -5.39657 -1.05122 0
M  V30 4958 H 463.719 -6.65103 -1.37169 0
M  V30 4959 H 461.665 -5.62864 -3.36927 0
M  V30 4960 H 461.582 -7.13129 -2.50965 0
M  V30 4961 H 462.85 -6.87637 -3.67118 0
M  V30 4962 N 467.08 -0.0183926 -1.57589 0
M  V30 4963 C 468.329 0.66185 -1.90532 0
M  V30 4964 C 468.642 1.73904 -0.895366 0
M  V30 4965 O 469.848 2.47518 -1.11566 0
M  V30 4966 C 468.304 1.22844 -3.38286 0
M  V30 4967 C 467.912 0.185103 -4.47617 0
M  V30 4968 C 469.656 1.88581 -3.80312 0
M  V30 4969 C 467.563 0.762723 -5.86461 0
M  V30 4970 H 466.493 0.250972 -0.711006 0
M  V30 4971 H 469.144 -0.0819435 -1.83317 0
M  V30 4972 H 467.526 2.0235 -3.40398 0
M  V30 4973 H 468.7 -0.58671 -4.5705 0
M  V30 4974 H 467.015 -0.372889 -4.14727 0
M  V30 4975 H 469.612 2.32735 -4.81392 0
M  V30 4976 H 469.955 2.72408 -3.14801 0
M  V30 4977 H 470.488 1.15782 -3.80578 0
M  V30 4978 H 467.227 -0.0371713 -6.55489 0
M  V30 4979 H 466.747 1.50327 -5.80656 0
M  V30 4980 H 468.426 1.25576 -6.34697 0
M  V30 4981 N 468.558 1.5553 0.254621 0
M  V30 4982 C 469.468 1.92789 1.33677 0
M  V30 4983 C 470.484 0.827356 1.53071 0
M  V30 4984 O 471.66 1.12807 1.66843 0
M  V30 4985 C 468.725 2.20827 2.67275 0
M  V30 4986 C 467.786 3.4427 2.5647 0
M  V30 4987 C 467.019 3.70961 3.83697 0
M  V30 4988 O 467.242 2.99852 4.85227 0
M  V30 4989 O 466.176 4.64491 3.82794 0
M  V30 4990 H 470.002 2.84945 1.05071 0
M  V30 4991 H 467.587 1.42312 0.454723 0
M  V30 4992 H 469.469 2.40204 3.46237 0
M  V30 4993 H 468.144 1.31851 2.9563 0
M  V30 4994 H 467.051 3.30209 1.75821 0
M  V30 4995 H 468.384 4.33524 2.33062 0
M  V30 4996 N 470.036 -0.519951 1.48776 0
M  V30 4997 C 471.282 -1.27711 1.57536 0
M  V30 4998 C 471.615 -1.92547 0.252866 0
M  V30 4999 O 470.89 -1.7979 -0.742021 0
M  V30 5000 C 471.173 -2.35875 2.72094 0
M  V30 5001 C 471.026 -1.75664 4.1408 0
M  V30 5002 C 472.345 -3.37575 2.82367 0
M  V30 5003 H 469.464 -0.462971 0.573434 0
M  V30 5004 H 472.106 -0.578194 1.80989 0
M  V30 5005 H 470.256 -2.95488 2.52228 0
M  V30 5006 H 471.928 -1.20025 4.45412 0
M  V30 5007 H 470.171 -1.06154 4.20611 0
M  V30 5008 H 470.842 -2.54029 4.90075 0
M  V30 5009 H 473.318 -2.87929 3.00393 0
M  V30 5010 H 472.194 -4.1064 3.64233 0
M  V30 5011 H 472.455 -3.98743 1.90936 0
M  V30 5012 N 471.514 -1.37532 -0.769588 0
M  V30 5013 C 472.925 -1.29382 -1.346 0
M  V30 5014 C 473.276 0.0576039 -1.96115 0
M  V30 5015 O 472.401 0.95947 -1.93967 0
M  V30 5016 C 472.996 -2.34298 -2.44724 0
M  V30 5017 C 471.555 -2.29776 -2.98128 0
M  V30 5018 C 470.702 -2.18013 -1.71364 0
M  V30 5019 H 473.653 -1.48123 -0.56968 0
M  V30 5020 H 473.674 -1.99089 -3.24259 0
M  V30 5021 H 473.186 -3.32645 -1.99922 0
M  V30 5022 H 471.287 -1.34959 -3.47299 0
M  V30 5023 H 471.4 -3.23276 -3.53595 0
M  V30 5024 H 469.764 -1.64595 -1.94372 0
M  V30 5025 H 470.547 -3.18278 -1.28662 0
M  V30 5026 N 472.992 0.995999 -1.22138 0
M  V30 5027 C 473.922 2.10387 -1.01289 0
M  V30 5028 C 474.903 1.69975 0.0651454 0
M  V30 5029 O 476.088 1.9396 -0.0964628 0
M  V30 5030 C 473.218 3.42312 -0.586517 0
M  V30 5031 C 472.172 3.96558 -1.61014 0
M  V30 5032 C 471.498 5.24494 -1.0397 0
M  V30 5033 C 472.798 4.27595 -2.99933 0
M  V30 5034 H 474.492 2.28086 -1.93951 0
M  V30 5035 H 472.038 1.09607 -0.933928 0
M  V30 5036 H 473.991 4.19223 -0.427793 0
M  V30 5037 H 472.715 3.24431 0.375761 0
M  V30 5038 H 471.374 3.21776 -1.75658 0
M  V30 5039 H 471.022 5.02953 -0.0688703 0
M  V30 5040 H 470.722 5.61755 -1.72352 0
M  V30 5041 H 472.246 6.04042 -0.892494 0
M  V30 5042 H 473.66 4.95315 -2.8868 0
M  V30 5043 H 472.057 4.76021 -3.6541 0
M  V30 5044 H 473.127 3.35498 -3.50099 0
M  V30 5045 N 474.47 1.03057 1.19235 0
M  V30 5046 C 475.7 0.746613 1.92638 0
M  V30 5047 C 476.108 -0.698708 1.75826 0
M  V30 5048 O 475.451 -1.487 1.07861 0
M  V30 5049 C 475.513 1.02024 3.44719 0
M  V30 5050 C 475.177 2.45745 3.85303 0
M  V30 5051 C 476.174 3.43887 3.8992 0
M  V30 5052 C 473.859 2.8019 4.16892 0
M  V30 5053 C 475.853 4.74529 4.2556 0
M  V30 5054 C 473.54 4.1104 4.52205 0
M  V30 5055 C 474.538 5.0802 4.56513 0
M  V30 5056 O 474.226 6.36527 4.91008 0
M  V30 5057 H 473.958 0.272401 0.618687 0
M  V30 5058 H 476.512 1.37853 1.52269 0
M  V30 5059 H 474.742 0.331184 3.85279 0
M  V30 5060 H 476.431 0.725677 3.9936 0
M  V30 5061 H 477.197 3.18614 3.65664 0
M  V30 5062 H 473.076 2.05382 4.12722 0
M  V30 5063 H 476.62 5.50222 4.28838 0
M  V30 5064 H 472.517 4.36086 4.7592 0
M  V30 5065 H 473.285 6.41025 5.08949 0
M  V30 5066 N 475.948 -1.35272 0.808662 0
M  V30 5067 C 477.173 -2.03477 0.401475 0
M  V30 5068 C 477.598 -1.60537 -0.980279 0
M  V30 5069 O 476.956 -0.78304 -1.63518 0
M  V30 5070 C 477.004 -3.57181 0.495354 0
M  V30 5071 O 476.108 -4.09474 -0.490397 0
M  V30 5072 H 475.449 -0.642561 0.167366 0
M  V30 5073 H 477.979 -1.72824 1.09512 0
M  V30 5074 H 477.989 -4.06356 0.365912 0
M  V30 5075 H 476.664 -3.87784 1.5032 0
M  V30 5076 H 475.241 -3.71516 -0.321023 0
M  V30 5077 N 477.426 -0.562348 -1.47226 0
M  V30 5078 C 478.356 0.170627 -2.32876 0
M  V30 5079 C 479.337 0.903748 -1.44106 0
M  V30 5080 O 480.522 0.883206 -1.72954 0
M  V30 5081 C 477.652 1.19786 -3.25989 0
M  V30 5082 C 476.606 0.580875 -4.2404 0
M  V30 5083 C 475.932 1.71311 -5.06514 0
M  V30 5084 C 477.232 -0.468714 -5.20193 0
M  V30 5085 H 478.926 -0.544441 -2.94408 0
M  V30 5086 H 476.472 -0.263271 -1.41573 0
M  V30 5087 H 478.425 1.71884 -3.84752 0
M  V30 5088 H 477.149 1.94294 -2.62521 0
M  V30 5089 H 475.808 0.0811538 -3.6651 0
M  V30 5090 H 475.456 2.44736 -4.39447 0
M  V30 5091 H 475.156 1.30604 -5.72902 0
M  V30 5092 H 476.68 2.23725 -5.68137 0
M  V30 5093 H 478.094 -0.0336028 -5.7329 0
M  V30 5094 H 476.491 -0.794957 -5.94811 0
M  V30 5095 H 477.561 -1.36269 -4.65359 0
M  V30 5096 N 478.904 1.54736 -0.299062 0
M  V30 5097 C 479.834 2.26409 0.571085 0
M  V30 5098 C 480.815 1.2629 1.13951 0
M  V30 5099 O 482 1.55059 1.16921 0
M  V30 5100 C 479.13 3.00338 1.74396 0
M  V30 5101 C 478.084 4.07588 1.30599 0
M  V30 5102 C 477.41 4.69222 2.56387 0
M  V30 5103 C 478.71 5.20455 0.438645 0
M  V30 5104 H 480.404 2.99388 -0.0266991 0
M  V30 5105 H 477.95 1.43993 -0.0142812 0
M  V30 5106 H 479.903 3.49198 2.35878 0
M  V30 5107 H 478.627 2.24934 2.36796 0
M  V30 5108 H 477.286 3.59575 0.71424 0
M  V30 5109 H 476.934 3.9046 3.17097 0
M  V30 5110 H 476.634 5.41653 2.27784 0
M  V30 5111 H 478.158 5.20844 3.18675 0
M  V30 5112 H 479.572 5.65221 0.959085 0
M  V30 5113 H 477.969 5.99594 0.246466 0
M  V30 5114 H 479.039 4.8192 -0.536738 0
M  V30 5115 N 480.382 0.0267497 1.57577 0
M  V30 5116 C 481.292 -0.971633 2.13533 0
M  V30 5117 C 482.308 -1.35868 1.08701 0
M  V30 5118 O 483.484 -1.44058 1.40746 0
M  V30 5119 C 480.549 -2.23622 2.64941 0
M  V30 5120 C 479.61 -1.90982 3.8448 0
M  V30 5121 C 478.843 -3.11411 4.33427 0
M  V30 5122 O 479.066 -4.23992 3.81558 0
M  V30 5123 O 478 -2.93848 5.25297 0
M  V30 5124 H 481.826 -0.525853 2.99113 0
M  V30 5125 H 479.411 -0.193712 1.48139 0
M  V30 5126 H 481.293 -2.97864 2.98086 0
M  V30 5127 H 479.968 -2.67386 1.82446 0
M  V30 5128 H 478.875 -1.14132 3.56265 0
M  V30 5129 H 480.208 -1.52036 4.6813 0
M  V30 5130 N 481.861 -1.55662 -0.24637 0
M  V30 5131 C 482.793 -1.86811 -1.32794 0
M  V30 5132 C 483.806 -0.754413 -1.44265 0
M  V30 5133 O 484.995 -1.03253 -1.45606 0
M  V30 5134 C 482.095 -2.0397 -2.70646 0
M  V30 5135 C 481.268 -3.34832 -2.81436 0
M  V30 5136 C 480.327 -3.41727 -4.00136 0
M  V30 5137 O 479.353 -4.14934 -3.89639 0
M  V30 5138 N 480.555 -2.71058 -5.1333 0
M  V30 5139 H 483.32 -2.80174 -1.06409 0
M  V30 5140 H 480.881 -1.55906 -0.43647 0
M  V30 5141 H 482.873 -2.05924 -3.48393 0
M  V30 5142 H 481.443 -1.1735 -2.89738 0
M  V30 5143 H 480.663 -3.4519 -1.90361 0
M  V30 5144 H 481.951 -4.21085 -2.85595 0
M  V30 5145 H 481.349 -2.11314 -5.2475 0
M  V30 5146 H 479.906 -2.78704 -5.89209 0
M  V30 5147 N 483.339 0.512053 -1.4905 0
M  V30 5148 C 484.567 1.29116 -1.61669 0
M  V30 5149 C 484.982 1.86655 -0.283787 0
M  V30 5150 O 484.339 1.67293 0.729331 0
M  V30 5151 C 484.39 2.4293 -2.67707 0
M  V30 5152 O 484.111 1.87758 -3.95826 0
M  V30 5153 C 485.612 3.34476 -2.90931 0
M  V30 5154 H 482.832 0.392009 -0.544583 0
M  V30 5155 H 485.376 0.615881 -1.95006 0
M  V30 5156 H 483.531 3.06308 -2.37179 0
M  V30 5157 H 483.945 2.62393 -4.54148 0
M  V30 5158 H 485.419 4.10642 -3.68886 0
M  V30 5159 H 485.896 3.90801 -2.00427 0
M  V30 5160 H 486.502 2.76874 -3.22832 0
M  V30 5161 N 484.817 1.37938 0.762283 0
M  V30 5162 C 485.767 1.30976 1.86626 0
M  V30 5163 C 486.751 0.195714 1.59705 0
M  V30 5164 O 487.943 0.430937 1.71674 0
M  V30 5165 C 485.072 1.12847 3.24223 0
M  V30 5166 C 484.158 2.28836 3.57064 0
M  V30 5167 N 484.549 3.54256 3.61022 0
M  V30 5168 C 482.847 2.21198 3.87282 0
M  V30 5169 C 483.548 4.30798 3.90881 0
M  V30 5170 N 482.524 3.60049 4.07266 0
M  V30 5171 H 486.326 2.25946 1.87951 0
M  V30 5172 H 483.84 1.31046 0.959206 0
M  V30 5173 H 485.837 1.05943 4.03214 0
M  V30 5174 H 484.497 0.188024 3.24155 0
M  V30 5175 H 485.508 3.8804 3.42995 0
M  V30 5176 H 482.185 1.35264 3.94981 0
M  V30 5177 H 483.575 5.39386 4.00639 0
M  V30 5178 N 486.295 -0.989507 1.22664 0
M  V30 5179 C 487.225 -2.09847 1.02404 0
M  V30 5180 C 488.206 -1.70007 -0.0561303 0
M  V30 5181 O 489.391 -1.93906 0.106748 0
M  V30 5182 C 486.521 -3.41996 0.604663 0
M  V30 5183 C 485.475 -3.95699 1.63115 0
M  V30 5184 C 484.801 -5.23936 1.0675 0
M  V30 5185 C 486.101 -4.25999 3.02196 0
M  V30 5186 H 487.795 -2.27054 1.95158 0
M  V30 5187 H 485.341 -1.09111 0.939727 0
M  V30 5188 H 487.294 -4.1899 0.45002 0
M  V30 5189 H 486.018 -3.24626 -0.35855 0
M  V30 5190 H 484.677 -3.2084 1.77362 0
M  V30 5191 H 484.325 -5.02909 0.0955422 0
M  V30 5192 H 484.025 -5.60833 1.75328 0
M  V30 5193 H 485.549 -6.0356 0.924516 0
M  V30 5194 H 486.963 -4.93777 2.91303 0
M  V30 5195 H 485.36 -4.74076 3.67929 0
M  V30 5196 H 486.43 -3.33636 3.51873 0
M  V30 5197 N 487.773 -1.03688 -1.18687 0
M  V30 5198 C 488.72 -0.624624 -2.22187 0
M  V30 5199 C 489.69 0.365636 -1.62026 0
M  V30 5200 O 490.875 0.260481 -1.89014 0
M  V30 5201 C 488.015 0.0101738 -3.45099 0
M  V30 5202 C 487.128 -1.02709 -4.19613 0
M  V30 5203 C 486.263 -0.361213 -5.2997 0
M  V30 5204 C 485.302 -1.38384 -5.96252 0
M  V30 5205 N 484.439 -0.743196 -6.98155 0
M  V30 5206 H 489.279 -1.51176 -2.56807 0
M  V30 5207 H 486.816 -0.75636 -1.26165 0
M  V30 5208 H 488.774 0.395528 -4.15321 0
M  V30 5209 H 487.404 0.860848 -3.1111 0
M  V30 5210 H 486.456 -1.53043 -3.48256 0
M  V30 5211 H 487.768 -1.80398 -4.65036 0
M  V30 5212 H 486.922 0.0785537 -6.06649 0
M  V30 5213 H 485.661 0.447799 -4.8564 0
M  V30 5214 H 484.666 -1.83378 -5.18317 0
M  V30 5215 H 485.891 -2.19448 -6.42666 0
M  V30 5216 H 483.837 0.0455789 -6.55984 0
M  V30 5217 H 483.754 -1.45784 -7.41811 0
M  V30 5218 H 485.022 -0.327698 -7.78811 0
M  V30 5219 N 489.251 1.34841 -0.815825 0
M  V30 5220 C 490.497 1.98793 -0.401129 0
M  V30 5221 C 490.83 1.64548 1.03139 0
M  V30 5222 O 490.105 0.913487 1.71714 0
M  V30 5223 C 490.388 3.55143 -0.595409 0
M  V30 5224 C 490.241 3.99155 -2.07352 0
M  V30 5225 C 491.56 4.40092 -0.0268823 0
M  V30 5226 H 488.679 0.722146 -0.14722 0
M  V30 5227 H 491.321 1.59847 -1.02707 0
M  V30 5228 H 489.471 3.8845 -0.0625779 0
M  V30 5229 H 491.143 3.76216 -2.66945 0
M  V30 5230 H 489.386 3.49726 -2.56659 0
M  V30 5231 H 490.057 5.07971 -2.1603 0
M  V30 5232 H 492.533 4.13298 -0.482042 0
M  V30 5233 H 491.409 5.48562 -0.19267 0
M  V30 5234 H 491.67 4.29016 1.06759 0
M  V30 5235 N 490.729 0.570148 1.46925 0
M  V30 5236 C 491.639 -0.173061 2.33961 0
M  V30 5237 C 492.655 -0.898825 1.48987 0
M  V30 5238 O 493.831 -0.864825 1.81887 0
M  V30 5239 C 490.896 -1.18177 3.25937 0
M  V30 5240 C 489.957 -0.462041 4.26806 0
M  V30 5241 C 489.19 -1.4227 5.14388 0
M  V30 5242 O 489.413 -2.65842 5.04662 0
M  V30 5243 O 488.347 -0.940127 5.94513 0
M  V30 5244 H 492.173 0.541216 2.98839 0
M  V30 5245 H 489.758 0.330647 1.45695 0
M  V30 5246 H 491.64 -1.76372 3.82715 0
M  V30 5247 H 490.315 -1.87774 2.63671 0
M  V30 5248 H 489.222 0.161429 3.73752 0
M  V30 5249 H 490.555 0.192719 4.91823 0
M  V30 5250 N 492.207 -1.54576 0.307264 0
M  V30 5251 C 493.484 -1.92377 -0.353605 0
M  V30 5252 C 493.864 -1.23517 -1.71192 0
M  V30 5253 O 493.212 -0.373101 -2.25433 0
M  V30 5254 C 493.422 -3.45928 -0.462039 0
M  V30 5255 C 494.77 -4.18278 -0.729975 0
M  V30 5256 O 495.794 -3.51997 -0.545605 0
M  V30 5257 O 494.653 -5.3563 -1.08454 0
M  V30 5258 H 491.747 -0.802747 -0.198812 0
M  V30 5259 H 494.293 -1.65929 0.355783 0
M  V30 5260 H 493.065 -3.88187 0.492592 0
M  V30 5261 H 492.688 -3.78431 -1.21965 0
M  V30 5262 N 493.685 -0.035106 -1.57561 0
M  V30 5263 C 494.931 0.64318 -1.92331 0
M  V30 5264 C 495.264 1.71434 -0.912368 0
M  V30 5265 O 494.539 1.94395 0.0640303 0
M  V30 5266 C 494.822 1.25411 -3.37556 0
M  V30 5267 C 494.675 0.192109 -4.4939 0
M  V30 5268 C 495.994 2.17041 -3.82859 0
M  V30 5269 H 493.113 0.232341 -0.699419 0
M  V30 5270 H 495.755 -0.0935889 -1.89769 0
M  V30 5271 H 493.905 1.88205 -3.39869 0
M  V30 5272 H 495.577 -0.438849 -4.59208 0
M  V30 5273 H 493.82 -0.481725 -4.31117 0
M  V30 5274 H 494.491 0.659292 -5.48049 0
M  V30 5275 H 496.967 1.64228 -3.8232 0
M  V30 5276 H 495.843 2.56738 -4.85157 0
M  V30 5277 H 496.104 3.06401 -3.18702 0
M  V30 5278 N 495.163 1.55791 0.238111 0
M  V30 5279 C 496.388 1.8244 0.986432 0
M  V30 5280 C 496.813 0.613314 1.7782 0
M  V30 5281 O 496.171 -0.437767 1.75935 0
M  V30 5282 C 496.219 3.06917 1.893 0
M  V30 5283 O 495.323 2.84449 2.98601 0
M  V30 5284 H 494.664 0.601975 0.280218 0
M  V30 5285 H 497.194 2.02987 0.256437 0
M  V30 5286 H 497.204 3.36583 2.30598 0
M  V30 5287 H 495.879 3.947 1.31091 0
M  V30 5288 H 494.456 2.65972 2.61368 0
M  V30 5289 N 496.642 -0.504142 1.49319 0
M  V30 5290 C 497.605 -1.5883 1.65244 0
M  V30 5291 C 498.605 -1.52009 0.524386 0
M  V30 5292 O 499.795 -1.55218 0.79077 0
M  V30 5293 C 496.927 -2.98481 1.64687 0
M  V30 5294 H 498.12 -1.4604 2.61939 0
M  V30 5295 H 495.673 -0.728144 1.38303 0
M  V30 5296 H 496.408 -3.16751 0.695644 0
M  V30 5297 H 496.193 -3.0484 2.46607 0
M  V30 5298 H 497.683 -3.77256 1.79075 0
M  V30 5299 N 498.12 -1.38341 -0.754957 0
M  V30 5300 C 499.366 -1.34672 -1.51628 0
M  V30 5301 C 499.699 0.0636036 -1.94096 0
M  V30 5302 O 498.974 1.0245 -1.6533 0
M  V30 5303 C 499.257 -2.30116 -2.76981 0
M  V30 5304 C 499.11 -3.80003 -2.4066 0
M  V30 5305 C 500.429 -2.23715 -3.78998 0
M  V30 5306 H 497.548 -0.490517 -0.550056 0
M  V30 5307 H 500.19 -1.69178 -0.864807 0
M  V30 5308 H 498.34 -2.00821 -3.3257 0
M  V30 5309 H 500.012 -4.19966 -1.90856 0
M  V30 5310 H 498.255 -3.97751 -1.73137 0
M  V30 5311 H 498.926 -4.42244 -3.30339 0
M  V30 5312 H 501.402 -2.49574 -3.32945 0
M  V30 5313 H 500.278 -2.9261 -4.64403 0
M  V30 5314 H 500.539 -1.23554 -4.24484 0
M  V30 5315 N 499.598 0.982988 -1.23187 0
M  V30 5316 C 500.508 2.10907 -1.02739 0
M  V30 5317 C 501.524 1.73979 0.0273188 0
M  V30 5318 O 502.7 2.00702 -0.16757 0
M  V30 5319 C 499.765 3.41142 -0.618304 0
M  V30 5320 C 498.826 3.92112 -1.74777 0
M  V30 5321 C 498.059 5.16131 -1.3581 0
M  V30 5322 O 498.282 5.6989 -0.241201 0
M  V30 5323 O 497.216 5.61103 -2.17824 0
M  V30 5324 H 501.042 2.31046 -1.97108 0
M  V30 5325 H 498.627 1.09284 -1.01869 0
M  V30 5326 H 500.509 4.19488 -0.400982 0
M  V30 5327 H 499.184 3.2234 0.296421 0
M  V30 5328 H 498.091 3.14895 -2.0197 0
M  V30 5329 H 499.424 4.15364 -2.64071 0
M  V30 5330 N 501.076 1.04316 1.18135 0
M  V30 5331 C 502.325 0.74319 1.87509 0
M  V30 5332 C 502.638 -0.732136 1.81381 0
M  V30 5333 O 503.844 -1.14572 2.46141 0
M  V30 5334 C 502.3 1.27913 3.36402 0
M  V30 5335 C 501.908 2.78326 3.51053 0
M  V30 5336 C 503.652 1.0558 4.11161 0
M  V30 5337 C 501.559 3.25266 4.93919 0
M  V30 5338 H 500.489 0.274313 0.702331 0
M  V30 5339 H 503.14 1.25931 1.33467 0
M  V30 5340 H 501.522 0.690853 3.89927 0
M  V30 5341 H 502.696 3.42933 3.07788 0
M  V30 5342 H 501.011 2.991 2.89704 0
M  V30 5343 H 503.608 1.38161 5.16542 0
M  V30 5344 H 503.951 -0.00684729 4.16299 0
M  V30 5345 H 504.484 1.60882 3.63816 0
M  V30 5346 H 501.223 4.30922 4.9395 0
M  V30 5347 H 500.743 2.65396 5.3789 0
M  V30 5348 H 502.422 3.19433 5.62647 0
M  V30 5349 N 502.554 -1.34406 0.822964 0
M  V30 5350 C 503.8 -1.98578 0.411666 0
M  V30 5351 C 504.133 -1.65093 -1.02264 0
M  V30 5352 O 503.408 -0.92258 -1.71227 0
M  V30 5353 C 503.691 -3.54823 0.614235 0
M  V30 5354 C 503.544 -3.9805 2.09466 0
M  V30 5355 C 504.863 -4.40071 0.050221 0
M  V30 5356 H 501.982 -0.721355 0.151047 0
M  V30 5357 H 504.624 -1.59301 1.03554 0
M  V30 5358 H 502.774 -3.88411 0.0831774 0
M  V30 5359 H 504.446 -3.74795 2.68936 0
M  V30 5360 H 502.689 -3.4836 2.5851 0
M  V30 5361 H 503.36 -5.06819 2.18721 0
M  V30 5362 H 505.836 -4.13037 0.503953 0
M  V30 5363 H 504.712 -5.48452 0.221759 0
M  V30 5364 H 504.973 -4.29576 -1.04482 0
M  V30 5365 N 504.032 -0.577932 -1.46621 0
M  V30 5366 C 505.28 -0.061566 -2.02006 0
M  V30 5367 C 505.601 1.30117 -1.4524 0
M  V30 5368 O 504.871 1.85313 -0.63529 0
M  V30 5369 H 503.451 -0.0197692 -0.746738 0
M  V30 5370 H 506.113 -0.752631 -1.79782 0
M  V30 5371 H 505.209 0.0110238 -3.12098 0
M  V30 5372 N 505.51 1.54411 -0.315457 0
M  V30 5373 C 506.758 2.00023 0.288971 0
M  V30 5374 C 507.079 1.20529 1.5329 0
M  V30 5375 O 506.349 0.304986 1.93511 0
M  V30 5376 H 504.929 0.738891 0.109766 0
M  V30 5377 H 507.591 1.90094 -0.430129 0
M  V30 5378 H 506.687 3.07198 0.550999 0
M  V30 5379 N 506.988 0.0434614 1.5754 0
M  V30 5380 C 507.951 -0.918696 2.09982 0
M  V30 5381 C 508.951 -1.24488 1.01781 0
M  V30 5382 O 510.141 -1.18284 1.27885 0
M  V30 5383 C 507.273 -2.23093 2.57764 0
M  V30 5384 H 508.466 -0.464229 2.96285 0
M  V30 5385 H 506.019 -0.204818 1.54952 0
M  V30 5386 H 506.754 -2.73137 1.74832 0
M  V30 5387 H 506.539 -2.00724 3.36827 0
M  V30 5388 H 508.029 -2.92028 2.98512 0
M  V30 5389 N 508.466 -1.55915 -0.229846 0
M  V30 5390 C 509.694 -1.82617 -0.972562 0
M  V30 5391 C 510.109 -0.621488 -1.78278 0
M  V30 5392 O 509.466 0.409956 -1.77836 0
M  V30 5393 C 509.517 -3.0774 -1.89679 0
M  V30 5394 O 509.238 -4.23559 -1.11934 0
M  V30 5395 C 510.739 -3.47368 -2.75409 0
M  V30 5396 H 507.959 -0.60727 -0.285419 0
M  V30 5397 H 510.503 -2.02996 -0.247579 0
M  V30 5398 H 508.658 -2.89361 -2.57583 0
M  V30 5399 H 509.072 -4.94586 -1.74599 0
M  V30 5400 H 510.546 -4.37977 -3.35977 0
M  V30 5401 H 511.023 -2.68737 -3.47386 0
M  V30 5402 H 511.629 -3.68158 -2.12931 0
M  V30 5403 N 509.944 0.496216 -1.49584 0
M  V30 5404 C 511.36 0.827814 -1.36453 0
M  V30 5405 C 511.56 1.97464 -0.401285 0
M  V30 5406 O 510.616 2.51958 0.165296 0
M  V30 5407 C 511.929 1.16352 -2.77277 0
M  V30 5408 C 513.477 1.27145 -2.86013 0
M  V30 5409 C 513.952 1.64042 -4.27615 0
M  V30 5410 N 515.443 1.71082 -4.30448 0
M  V30 5411 C 516.178 2.01085 -5.36984 0
M  V30 5412 N 515.674 2.2928 -6.5376 0
M  V30 5413 N 517.467 2.02376 -5.24405 0
M  V30 5414 H 509.618 -0.259947 -2.10803 0
M  V30 5415 H 511.881 -0.0537163 -0.946477 0
M  V30 5416 H 511.587 0.394153 -3.49484 0
M  V30 5417 H 511.461 2.10582 -3.12946 0
M  V30 5418 H 513.848 2.03152 -2.1404 0
M  V30 5419 H 513.929 0.309542 -2.5392 0
M  V30 5420 H 513.573 0.88583 -5.00115 0
M  V30 5421 H 513.503 2.6134 -4.57175 0
M  V30 5422 H 515.994 1.51434 -3.46232 0
M  V30 5423 H 516.307 2.51376 -7.30774 0
M  V30 5424 H 514.652 2.26726 -6.56978 0
M  V30 5425 H 517.843 1.79829 -4.32179 0
M  V30 5426 H 518.016 2.25425 -6.07526 0
M  V30 5427 N 511.423 1.38739 0.74761 0
M  V30 5428 C 512.672 1.3459 1.50228 0
M  V30 5429 C 512.985 -0.0595592 1.95509 0
M  V30 5430 O 514.191 -0.22361 2.70578 0
M  V30 5431 C 512.647 2.36377 2.71393 0
M  V30 5432 C 512.255 3.82573 2.33113 0
M  V30 5433 C 513.999 2.41281 3.49262 0
M  V30 5434 C 511.906 4.76032 3.50924 0
M  V30 5435 H 510.836 0.500312 0.564096 0
M  V30 5436 H 513.487 1.64324 0.8167 0
M  V30 5437 H 511.869 1.99694 3.41962 0
M  V30 5438 H 513.043 4.28227 1.70171 0
M  V30 5439 H 511.358 3.80844 1.68365 0
M  V30 5440 H 513.955 3.08301 4.36869 0
M  V30 5441 H 514.298 1.43353 3.9084 0
M  V30 5442 H 514.831 2.76793 2.85711 0
M  V30 5443 H 511.57 5.75177 3.14408 0
M  V30 5444 H 511.09 4.35066 4.12889 0
M  V30 5445 H 512.769 4.94331 4.17427 0
M  V30 5446 N 512.901 -0.976442 1.23707 0
M  V30 5447 C 514.312 -1.53284 1.06587 0
M  V30 5448 C 514.663 -1.92765 -0.365526 0
M  V30 5449 O 513.788 -1.7645 -1.25277 0
M  V30 5450 C 514.383 -2.78548 1.92864 0
M  V30 5451 C 512.942 -3.30574 1.79994 0
M  V30 5452 C 512.089 -2.03538 1.88328 0
M  V30 5453 H 515.04 -0.795692 1.37311 0
M  V30 5454 H 515.061 -3.5155 1.45577 0
M  V30 5455 H 514.573 -2.49782 2.97037 0
M  V30 5456 H 512.674 -3.64211 0.786202 0
M  V30 5457 H 512.787 -4.00065 2.636 0
M  V30 5458 H 511.151 -2.17853 1.31954 0
M  V30 5459 H 511.934 -1.77149 2.94063 0
M  V30 5460 N 514.379 -1.04941 -1.1758 0
M  V30 5461 C 515.342 -0.652456 -2.19717 0
M  V30 5462 C 516.342 0.294745 -1.58076 0
M  V30 5463 O 517.532 0.0789579 -1.74021 0
M  V30 5464 C 514.664 0.0420712 -3.40874 0
M  V30 5465 H 515.857 -1.55642 -2.5635 0
M  V30 5466 H 513.41 -0.842995 -1.31618 0
M  V30 5467 H 514.145 0.95943 -3.09783 0
M  V30 5468 H 513.93 -0.638844 -3.86861 0
M  V30 5469 H 515.42 0.306 -4.16477 0
M  V30 5470 N 515.857 1.33968 -0.830081 0
M  V30 5471 C 517.103 1.98357 -0.422191 0
M  V30 5472 C 517.436 1.65633 1.01387 0
M  V30 5473 O 516.711 0.931648 1.70735 0
M  V30 5474 C 516.994 3.54492 -0.633043 0
M  V30 5475 C 516.847 3.96934 -2.11574 0
M  V30 5476 C 518.166 4.40039 -0.0735584 0
M  V30 5477 H 515.285 0.720544 -0.154871 0
M  V30 5478 H 517.927 1.58749 -1.04397 0
M  V30 5479 H 516.077 3.88361 -0.103775 0
M  V30 5480 H 517.749 3.73363 -2.7092 0
M  V30 5481 H 515.992 3.46984 -2.60354 0
M  V30 5482 H 516.663 5.05651 -2.21406 0
M  V30 5483 H 519.139 4.12764 -0.52585 0
M  V30 5484 H 518.015 5.48327 -0.250841 0
M  V30 5485 H 518.276 4.30124 1.02202 0
M  V30 5486 N 517.335 0.585699 1.46312 0
M  V30 5487 C 518.282 -0.145835 2.30339 0
M  V30 5488 C 519.252 -0.881215 1.40797 0
M  V30 5489 O 520.437 -0.871293 1.69744 0
M  V30 5490 C 517.577 -1.15161 3.25318 0
M  V30 5491 C 516.69 -0.419367 4.2996 0
M  V30 5492 C 515.825 -1.41293 5.12064 0
M  V30 5493 C 514.864 -0.667261 6.08452 0
M  V30 5494 N 514.001 -1.60903 6.83414 0
M  V30 5495 H 518.841 0.576755 2.92365 0
M  V30 5496 H 516.378 0.296237 1.44086 0
M  V30 5497 H 518.336 -1.74763 3.78832 0
M  V30 5498 H 516.966 -1.84188 2.65094 0
M  V30 5499 H 516.018 0.291751 3.7928 0
M  V30 5500 H 517.33 0.163433 4.98532 0
M  V30 5501 H 516.484 -2.08167 5.6987 0
M  V30 5502 H 515.223 -2.02966 4.43459 0
M  V30 5503 H 514.228 0.0152356 5.49798 0
M  V30 5504 H 515.453 -0.0558817 6.79077 0
M  V30 5505 H 513.399 -2.21381 6.17516 0
M  V30 5506 H 513.316 -1.07911 7.48259 0
M  V30 5507 H 514.584 -2.26802 7.45775 0
M  V30 5508 N 518.813 -1.54241 0.323641 0
M  V30 5509 C 519.723 -2.28033 -0.551205 0
M  V30 5510 C 520.739 -1.32388 -1.12913 0
M  V30 5511 O 521.915 -1.65403 -1.14908 0
M  V30 5512 C 518.98 -3.02382 -1.69606 0
M  V30 5513 C 518.041 -4.13612 -1.14993 0
M  V30 5514 C 517.274 -4.84407 -2.24022 0
M  V30 5515 O 517.497 -4.54716 -3.44368 0
M  V30 5516 O 516.431 -5.71312 -1.89436 0
M  V30 5517 H 520.257 -3.03662 0.048066 0
M  V30 5518 H 517.842 -1.49133 0.0893289 0
M  V30 5519 H 519.724 -3.48941 -2.36259 0
M  V30 5520 H 518.399 -2.29628 -2.28151 0
M  V30 5521 H 517.306 -3.71402 -0.448484 0
M  V30 5522 H 518.639 -4.8841 -0.609608 0
M  V30 5523 N 520.291 -0.0518155 -1.57515 0
M  V30 5524 C 521.707 0.304735 -1.56664 0
M  V30 5525 C 521.907 1.71395 -1.05953 0
M  V30 5526 O 520.963 2.42123 -0.716414 0
M  V30 5527 C 522.276 0.132614 -3.00407 0
M  V30 5528 C 523.824 0.20367 -3.12337 0
M  V30 5529 C 524.299 0.0600706 -4.57961 0
M  V30 5530 N 525.79 0.116326 -4.63054 0
M  V30 5531 C 526.525 0.0293363 -5.73392 0
M  V30 5532 N 526.021 -0.110038 -6.92713 0
M  V30 5533 N 527.814 0.0849651 -5.62036 0
M  V30 5534 H 519.965 -0.973056 -1.888 0
M  V30 5535 H 522.228 -0.377781 -0.869474 0
M  V30 5536 H 521.934 -0.839019 -3.41546 0
M  V30 5537 H 521.808 0.893376 -3.66468 0
M  V30 5538 H 524.195 1.16578 -2.71097 0
M  V30 5539 H 524.276 -0.587857 -2.48954 0
M  V30 5540 H 523.92 -0.898715 -4.99886 0
M  V30 5541 H 523.85 0.87075 -5.19351 0
M  V30 5542 H 526.341 0.22327 -3.7724 0
M  V30 5543 H 526.654 -0.169104 -7.72615 0
M  V30 5544 H 524.999 -0.145132 -6.94848 0
M  V30 5545 H 528.19 0.192411 -4.67704 0
M  V30 5546 H 528.363 0.0137131 -6.47999 0
M  V30 5547 N 521.769 1.56035 0.221574 0
M  V30 5548 C 523.018 1.78245 0.944016 0
M  V30 5549 C 523.331 0.620371 1.85501 0
M  V30 5550 O 524.537 0.726103 2.6161 0
M  V30 5551 C 522.993 3.15659 1.7288 0
M  V30 5552 C 522.601 4.39591 0.863942 0
M  V30 5553 C 524.345 3.47195 2.44246 0
M  V30 5554 C 522.252 5.6803 1.64607 0
M  V30 5555 H 521.182 0.664547 0.356222 0
M  V30 5556 H 523.833 1.8243 0.197904 0
M  V30 5557 H 522.215 3.0565 2.51781 0
M  V30 5558 H 523.389 4.60655 0.115464 0
M  V30 5559 H 521.704 4.15572 0.262407 0
M  V30 5560 H 524.301 4.40381 3.03263 0
M  V30 5561 H 524.644 2.69693 3.1713 0
M  V30 5562 H 525.177 3.58533 1.72334 0
M  V30 5563 H 521.916 6.48425 0.960507 0
M  V30 5564 H 521.436 5.51027 2.36917 0
M  V30 5565 H 523.115 6.08203 2.20675 0
M  V30 5566 N 523.247 -0.488276 1.49845 0
M  V30 5567 C 524.21 -1.57069 1.66919 0
M  V30 5568 C 525.21 -1.51445 0.540479 0
M  V30 5569 O 526.4 -1.5437 0.807188 0
M  V30 5570 C 523.532 -2.96718 1.67844 0
M  V30 5571 H 524.725 -1.43254 2.63474 0
M  V30 5572 H 522.278 -0.713435 1.39068 0
M  V30 5573 H 523.013 -3.15996 0.7292 0
M  V30 5574 H 522.798 -3.02208 2.49826 0
M  V30 5575 H 524.288 -3.75335 1.83066 0
M  V30 5576 N 524.725 -1.39134 -0.740242 0
M  V30 5577 C 525.672 -1.37434 -1.8542 0
M  V30 5578 C 526.642 -0.234822 -1.64432 0
M  V30 5579 O 527.827 -0.429125 -1.85912 0
M  V30 5580 C 524.967 -1.21844 -3.22875 0
M  V30 5581 C 524.08 -2.45296 -3.55603 0
M  V30 5582 C 523.215 -2.22334 -4.82432 0
M  V30 5583 C 522.254 -3.41488 -5.07988 0
M  V30 5584 N 521.391 -3.17877 -6.26018 0
M  V30 5585 H 526.231 -2.3266 -1.86207 0
M  V30 5586 H 523.768 -1.15578 -0.909946 0
M  V30 5587 H 525.726 -1.10818 -4.02213 0
M  V30 5588 H 524.356 -0.3025 -3.21379 0
M  V30 5589 H 523.408 -2.66945 -2.71006 0
M  V30 5590 H 524.72 -3.34063 -3.7041 0
M  V30 5591 H 523.874 -2.0852 -5.69741 0
M  V30 5592 H 522.613 -1.30954 -4.6979 0
M  V30 5593 H 521.618 -3.55807 -4.19144 0
M  V30 5594 H 522.843 -4.33763 -5.22519 0
M  V30 5595 H 520.789 -2.29156 -6.14673 0
M  V30 5596 H 520.706 -4.00198 -6.41387 0
M  V30 5597 H 521.974 -3.07746 -7.16179 0
M  V30 5598 N 526.204 0.969867 -1.24223 0
M  V30 5599 C 527.451 1.71256 -1.08063 0
M  V30 5600 C 527.779 1.90734 0.380872 0
M  V30 5601 O 527.034 1.46469 1.29789 0
M  V30 5602 C 527.333 3.10883 -1.76314 0
M  V30 5603 C 526.999 3.11252 -3.26241 0
M  V30 5604 C 525.661 3.1106 -3.67144 0
M  V30 5605 C 528.013 3.05751 -4.22097 0
M  V30 5606 C 525.341 3.03097 -5.02344 0
M  V30 5607 C 527.693 2.9933 -5.57301 0
M  V30 5608 C 526.357 2.97466 -5.97554 0
M  V30 5609 H 525.627 0.62667 -0.395431 0
M  V30 5610 H 528.274 1.13422 -1.54297 0
M  V30 5611 H 526.579 3.72168 -1.22468 0
M  V30 5612 H 528.276 3.67138 -1.61277 0
M  V30 5613 H 524.866 3.12165 -2.93685 0
M  V30 5614 H 529.05 3.05031 -3.91497 0
M  V30 5615 H 524.306 3.00013 -5.32731 0
M  V30 5616 H 528.48 2.94033 -6.31283 0
M  V30 5617 H 526.107 2.91051 -7.02277 0
M  V30 5618 N 527.682 1.05563 1.17022 0
M  V30 5619 C 528.929 0.767937 1.87374 0
M  V30 5620 C 529.257 -0.705224 1.81265 0
M  V30 5621 O 528.512 -1.5318 1.21796 0
M  V30 5622 C 528.811 1.19849 3.36706 0
M  V30 5623 C 528.477 2.6745 3.63017 0
M  V30 5624 C 527.139 3.0777 3.69907 0
M  V30 5625 C 529.491 3.62811 3.74189 0
M  V30 5626 C 526.819 4.42307 3.85463 0
M  V30 5627 C 529.171 4.97087 3.91264 0
M  V30 5628 C 527.835 5.37055 3.96394 0
M  V30 5629 H 527.105 0.281008 0.68565 0
M  V30 5630 H 529.752 1.32339 1.38415 0
M  V30 5631 H 528.057 0.562096 3.87747 0
M  V30 5632 H 529.754 0.953038 3.8951 0
M  V30 5633 H 526.344 2.35228 3.58282 0
M  V30 5634 H 530.528 3.32798 3.68183 0
M  V30 5635 H 525.784 4.72769 3.87684 0
M  V30 5636 H 529.958 5.70869 3.9885 0
M  V30 5637 H 527.585 6.41308 4.082 0
M  V30 5638 N 529.16 -1.33526 0.837174 0
M  V30 5639 C 530.408 -1.97446 0.431211 0
M  V30 5640 C 530.729 -1.6665 -1.01255 0
M  V30 5641 O 529.999 -0.964559 -1.70508 0
M  V30 5642 H 528.579 -0.73043 0.156463 0
M  V30 5643 H 531.241 -1.62918 1.06976 0
M  V30 5644 H 530.337 -3.07001 0.561877 0
M  V30 5645 N 530.638 -0.59345 -1.46 0
M  V30 5646 C 531.585 0.133618 -2.30413 0
M  V30 5647 C 532.555 0.873736 -1.41262 0
M  V30 5648 O 533.74 0.862279 -1.70204 0
M  V30 5649 C 530.88 1.13434 -3.25924 0
M  V30 5650 C 529.993 0.39656 -4.30176 0
M  V30 5651 C 529.128 1.38575 -5.12806 0
M  V30 5652 C 528.167 0.634984 -6.08797 0
M  V30 5653 N 527.304 1.57276 -6.84258 0
M  V30 5654 H 532.144 -0.592252 -2.92055 0
M  V30 5655 H 529.681 -0.303874 -1.43927 0
M  V30 5656 H 531.639 1.72752 -3.79753 0
M  V30 5657 H 530.269 1.82779 -2.66067 0
M  V30 5658 H 529.321 -0.311861 -3.79119 0
M  V30 5659 H 530.633 -0.189869 -4.98438 0
M  V30 5660 H 529.787 2.05141 -5.70966 0
M  V30 5661 H 528.526 2.00611 -4.44529 0
M  V30 5662 H 527.531 -0.0443925 -5.49782 0
M  V30 5663 H 528.756 0.0198678 -6.79097 0
M  V30 5664 H 526.702 2.18103 -6.18682 0
M  V30 5665 H 526.619 1.03941 -7.48821 0
M  V30 5666 H 527.887 2.22844 -7.46968 0
M  V30 5667 N 532.116 1.54067 -0.331816 0
M  V30 5668 C 533.393 1.92915 0.322955 0
M  V30 5669 C 533.773 1.26225 1.69205 0
M  V30 5670 O 533.121 0.408919 2.24811 0
M  V30 5671 C 533.331 3.46619 0.406946 0
M  V30 5672 C 534.679 4.19386 0.663339 0
M  V30 5673 O 535.703 3.5282 0.489536 0
M  V30 5674 O 534.562 5.37288 0.999193 0
M  V30 5675 H 531.656 0.805808 0.186016 0
M  V30 5676 H 534.202 1.65342 -0.382135 0
M  V30 5677 H 532.974 3.87354 -0.554287 0
M  V30 5678 H 532.597 3.80324 1.15929 0
M  V30 5679 N 533.594 0.0601682 1.57485 0
M  V30 5680 C 534.843 -0.611101 1.9222 0
M  V30 5681 C 535.156 -1.71469 0.941159 0
M  V30 5682 O 536.362 -2.44473 1.18089 0
M  V30 5683 C 534.818 -1.13832 3.41424 0
M  V30 5684 C 534.426 -0.0663596 4.47951 0
M  V30 5685 C 536.17 -1.78432 3.85178 0
M  V30 5686 C 534.077 -0.606965 5.88277 0
M  V30 5687 H 533.007 -0.232033 0.71741 0
M  V30 5688 H 535.658 0.130518 1.83035 0
M  V30 5689 H 534.04 -1.93254 3.45643 0
M  V30 5690 H 535.214 0.707682 4.55333 0
M  V30 5691 H 533.529 0.482715 4.13593 0
M  V30 5692 H 536.126 -2.1989 4.87394 0
M  V30 5693 H 536.469 -2.63966 3.21913 0
M  V30 5694 H 537.002 -1.05651 3.83514 0
M  V30 5695 H 533.741 0.21095 6.5516 0
M  V30 5696 H 533.261 -1.34879 5.84438 0
M  V30 5697 H 534.94 -1.08704 6.37803 0
M  V30 5698 N 535.072 -1.5615 -0.213296 0
M  V30 5699 C 536.297 -1.83986 -0.957282 0
M  V30 5700 C 536.722 -0.641526 -1.76822 0
M  V30 5701 O 536.08 0.409722 -1.7661 0
M  V30 5702 C 536.128 -3.09889 -1.84393 0
M  V30 5703 O 535.232 -2.89163 -2.94038 0
M  V30 5704 H 534.573 -0.606357 -0.270605 0
M  V30 5705 H 537.103 -2.03369 -0.224111 0
M  V30 5706 H 537.113 -3.40209 -2.25215 0
M  V30 5707 H 535.788 -3.96735 -1.24795 0
M  V30 5708 H 534.365 -2.70097 -2.57103 0
M  V30 5709 N 536.55 0.480323 -1.50102 0
M  V30 5710 C 537.778 1.25657 -1.64371 0
M  V30 5711 C 538.193 1.86011 -0.323316 0
M  V30 5712 O 537.55 1.68803 0.693682 0
M  V30 5713 C 537.601 2.37197 -2.728 0
M  V30 5714 O 537.322 1.7932 -3.9972 0
M  V30 5715 C 538.823 3.2823 -2.9796 0
M  V30 5716 H 536.043 0.380369 -0.552775 0
M  V30 5717 H 538.587 0.574379 -1.96268 0
M  V30 5718 H 536.742 3.01208 -2.43623 0
M  V30 5719 H 537.156 2.52701 -4.59611 0
M  V30 5720 H 538.63 4.02725 -3.77513 0
M  V30 5721 H 539.107 3.86462 -2.08671 0
M  V30 5722 H 539.713 2.69964 -3.28633 0
M  V30 5723 N 538.028 1.39524 0.732853 0
M  V30 5724 C 539.256 1.40143 1.52209 0
M  V30 5725 C 539.671 -0.00348836 1.888 0
M  V30 5726 O 539.028 -0.975357 1.5425 0
M  V30 5727 C 539.079 2.27632 2.8083 0
M  V30 5728 O 538.8 3.62654 2.45792 0
M  V30 5729 C 540.301 2.36658 3.74844 0
M  V30 5730 H 537.521 0.478604 0.470297 0
M  V30 5731 H 540.065 1.83366 0.905388 0
M  V30 5732 H 538.22 1.87818 3.38826 0
M  V30 5733 H 538.634 4.08941 3.28431 0
M  V30 5734 H 540.108 3.02118 4.61984 0
M  V30 5735 H 540.585 1.38638 4.16745 0
M  V30 5736 H 541.191 2.76951 3.22766 0
M  V30 5737 N 539.506 -0.963266 1.24736 0
M  V30 5738 C 540.436 -2.07628 1.06832 0
M  V30 5739 C 541.417 -1.70088 -0.0200566 0
M  V30 5740 O 542.602 -1.93636 0.147854 0
M  V30 5741 C 539.732 -3.40636 0.677069 0
M  V30 5742 C 538.686 -3.9215 1.71471 0
M  V30 5743 C 538.012 -5.21553 1.1784 0
M  V30 5744 C 539.312 -4.19493 3.11164 0
M  V30 5745 H 541.006 -2.22864 1.9993 0
M  V30 5746 H 538.552 -1.07093 0.96266 0
M  V30 5747 H 540.505 -4.17941 0.538792 0
M  V30 5748 H 539.229 -3.25313 -0.289612 0
M  V30 5749 H 537.888 -3.17005 1.84128 0
M  V30 5750 H 537.536 -5.02593 0.202195 0
M  V30 5751 H 537.236 -5.56988 1.87185 0
M  V30 5752 H 538.76 -6.01463 1.05233 0
M  V30 5753 H 540.174 -4.87487 3.01711 0
M  V30 5754 H 538.571 -4.66165 3.77902 0
M  V30 5755 H 539.641 -3.26097 3.58871 0
M  V30 5756 N 540.985 -1.06182 -1.16461 0
M  V30 5757 C 541.933 -0.665716 -2.2287 0
M  V30 5758 C 542.927 0.317822 -1.66392 0
M  V30 5759 O 544.133 0.182807 -1.79069 0
M  V30 5760 H 540.508 -0.197148 -0.725697 0
M  V30 5761 H 542.479 -1.57307 -2.53569 0
M  V30 5762 C 541.228 -0.0669803 -3.47635 0
M  V30 5763 H 540.551 -0.814899 -3.91407 0
M  V30 5764 H 541.991 0.172669 -4.23648 0
M  V30 5765 C 540.45 1.18913 -3.15216 0
M  V30 5766 O 540.98 2.27723 -3.30916 0
M  V30 5767 N 539.186 1.09066 -2.69357 0
M  V30 5768 H 538.733 0.20518 -2.56782 0
M  V30 5769 H 538.691 1.93195 -2.48039 0
M  V30 5770 N 542.463 1.3308 -0.844243 0
M  V30 5771 C 543.426 2.27403 -0.286485 0
M  V30 5772 C 544.426 1.51179 0.547872 0
M  V30 5773 O 545.616 1.70421 0.360886 0
M  V30 5774 C 542.748 3.35653 0.595813 0
M  V30 5775 H 543.941 2.78248 -1.11885 0
M  V30 5776 H 541.494 1.43574 -0.617749 0
M  V30 5777 H 542.229 2.90058 1.4504 0
M  V30 5778 H 542.014 3.921 -0.00125994 0
M  V30 5779 H 543.504 4.05958 0.979168 0
M  V30 5780 N 543.941 0.601185 1.45683 0
M  V30 5781 C 545.218 0.0261659 1.95582 0
M  V30 5782 C 545.598 -1.4399 1.5437 0
M  V30 5783 O 544.946 -2.13919 0.80318 0
M  V30 5784 C 545.156 0.217557 3.48321 0
M  V30 5785 C 546.504 0.0950076 4.24494 0
M  V30 5786 O 547.528 0.147345 3.55895 0
M  V30 5787 O 546.387 -0.025261 5.46494 0
M  V30 5788 H 543.481 -0.0393688 0.826062 0
M  V30 5789 H 546.027 0.670798 1.55879 0
M  V30 5790 H 544.799 1.23601 3.71266 0
M  V30 5791 H 544.422 -0.46264 3.94899 0
M  V30 5792 N 545.419 -1.53889 0.339982 0
M  V30 5793 C 546.329 -2.28604 -0.526988 0
M  V30 5794 C 547.345 -1.33578 -1.11503 0
M  V30 5795 O 548.521 -1.66612 -1.13148 0
M  V30 5796 C 545.586 -3.04164 -1.66389 0
M  V30 5797 C 544.647 -4.14809 -1.10599 0
M  V30 5798 C 543.88 -4.86756 -2.18871 0
M  V30 5799 O 544.103 -4.58343 -3.39526 0
M  V30 5800 O 543.037 -5.73289 -1.83366 0
M  V30 5801 H 546.863 -3.03594 0.0802707 0
M  V30 5802 H 544.448 -1.4903 0.105141 0
M  V30 5803 H 546.33 -3.51427 -2.32544 0
M  V30 5804 H 545.005 -2.32035 -2.25703 0
M  V30 5805 H 543.912 -3.71857 -0.409067 0
M  V30 5806 H 545.245 -4.89029 -0.557771 0
M  V30 5807 N 546.897 -0.0685191 -1.57451 0
M  V30 5808 C 547.86 0.885173 -2.11417 0
M  V30 5809 C 548.86 1.22853 -1.03748 0
M  V30 5810 O 550.05 1.16235 -1.2975 0
M  V30 5811 C 547.182 2.18964 -2.61281 0
M  V30 5812 H 548.375 0.417034 -2.96986 0
M  V30 5813 H 545.928 0.18014 -1.55258 0
M  V30 5814 H 546.663 2.70321 -1.79156 0
M  V30 5815 H 546.448 1.9534 -3.39977 0
M  V30 5816 H 547.938 2.87242 -3.0312 0
M  V30 5817 N 548.375 1.56261 0.205012 0
M  V30 5818 C 549.621 1.80306 0.9283 0
M  V30 5819 C 549.954 0.640932 1.83319 0
M  V30 5820 O 549.229 -0.359032 1.91158 0
M  V30 5821 C 549.512 3.14547 1.75306 0
M  V30 5822 C 549.365 4.41236 0.873562 0
M  V30 5823 C 550.684 3.45382 2.72762 0
M  V30 5824 H 547.803 0.655929 0.336044 0
M  V30 5825 H 550.445 1.88984 0.196211 0
M  V30 5826 H 548.595 3.0728 2.37721 0
M  V30 5827 H 550.267 4.60539 0.264887 0
M  V30 5828 H 548.51 4.33427 0.179773 0
M  V30 5829 H 549.181 5.31639 1.48541 0
M  V30 5830 H 551.657 3.52884 2.20481 0
M  V30 5831 H 550.533 4.40449 3.2756 0
M  V30 5832 H 550.794 2.68377 3.51321 0
M  V30 5833 N 549.853 -0.472356 1.50355 0
M  V30 5834 C 550.816 -1.5529 1.68576 0
M  V30 5835 C 551.816 -1.50863 0.556511 0
M  V30 5836 O 553.006 -1.53505 0.823516 0
M  V30 5837 C 550.138 -2.94921 1.70981 0
M  V30 5838 H 551.331 -1.40451 2.64978 0
M  V30 5839 H 548.884 -0.698645 1.39816 0
M  V30 5840 H 549.619 -3.15204 0.762675 0
M  V30 5841 H 549.404 -2.99541 2.53017 0
M  V30 5842 H 550.894 -3.73372 1.87037 0
M  V30 5843 N 551.331 -1.39911 -0.725443 0
M  V30 5844 C 552.747 -1.21725 -1.03224 0
M  V30 5845 C 552.947 -0.0855224 -2.01318 0
M  V30 5846 O 552.003 0.55976 -2.46217 0
M  V30 5847 C 553.316 -2.55511 -1.58539 0
M  V30 5848 C 554.864 -2.62439 -1.70572 0
M  V30 5849 C 555.339 -3.9647 -2.29294 0
M  V30 5850 N 556.83 -3.98159 -2.36692 0
M  V30 5851 C 557.565 -4.98647 -2.83088 0
M  V30 5852 N 557.061 -6.0953 -3.2931 0
M  V30 5853 N 558.854 -4.8602 -2.82384 0
M  V30 5854 H 551.005 -2.12267 -0.075048 0
M  V30 5855 H 553.268 -0.943136 -0.0959066 0
M  V30 5856 H 552.974 -3.38926 -0.939249 0
M  V30 5857 H 552.848 -2.75905 -2.57208 0
M  V30 5858 H 555.235 -1.79401 -2.34306 0
M  V30 5859 H 555.316 -2.45885 -0.705297 0
M  V30 5860 H 554.96 -4.79942 -1.66186 0
M  V30 5861 H 554.89 -4.10349 -3.30032 0
M  V30 5862 H 557.381 -3.18085 -2.04035 0
M  V30 5863 H 557.694 -6.82106 -3.6325 0
M  V30 5864 H 556.039 -6.1311 -3.27294 0
M  V30 5865 H 559.23 -3.98493 -2.45603 0
M  V30 5866 H 559.403 -5.64478 -3.18226 0
M  V30 5867 N 552.809 0.956637 -1.25245 0
M  V30 5868 C 554.057 1.69764 -1.09657 0
M  V30 5869 C 554.378 1.91583 0.363464 0
M  V30 5870 O 553.648 1.50149 1.25825 0
M  V30 5871 H 552.228 0.629097 -0.402798 0
M  V30 5872 H 554.89 1.15026 -1.57337 0
M  V30 5873 H 553.986 2.67769 -1.60331 0
M  V30 5874 N 554.287 1.06798 1.15896 0
M  V30 5875 C 555.527 0.797041 1.8822 0
M  V30 5876 C 555.891 -0.664549 1.80133 0
M  V30 5877 O 557.092 -1.0503 2.47431 0
M  V30 5878 C 555.363 1.28431 3.33527 0
M  V30 5879 S 556.922 1.14319 4.23647 0
M  V30 5880 H 553.74 0.288988 0.649621 0
M  V30 5881 H 556.342 1.36594 1.39865 0
M  V30 5882 H 555.046 2.34286 3.36954 0
M  V30 5883 H 554.577 0.710371 3.86933 0
M  V30 5884 H 556.592 0.0772467 4.9614 0
M  V30 5885 N 555.766 -1.3263 0.851289 0
M  V30 5886 C 556.729 -2.27247 0.298541 0
M  V30 5887 C 557.729 -1.51467 -0.539847 0
M  V30 5888 O 558.919 -1.7061 -0.351843 0
M  V30 5889 C 556.051 -3.35964 -0.578004 0
M  V30 5890 H 557.244 -2.7765 1.13359 0
M  V30 5891 H 554.797 -1.43245 0.625354 0
M  V30 5892 H 555.532 -2.90823 -1.435 0
M  V30 5893 H 555.317 -3.92094 0.0220539 0
M  V30 5894 H 556.807 -4.06472 -0.957626 0
M  V30 5895 N 557.244 -0.608902 -1.45362 0
M  V30 5896 C 558.174 0.0964526 -2.33301 0
M  V30 5897 C 559.155 0.857444 -1.46908 0
M  V30 5898 O 560.34 0.827735 -1.75676 0
M  V30 5899 C 557.47 1.09354 -3.29635 0
M  V30 5900 C 556.424 0.445676 -4.25673 0
M  V30 5901 C 555.75 1.5511 -5.11708 0
M  V30 5902 C 557.05 -0.633972 -5.18438 0
M  V30 5903 H 558.744 -0.637829 -2.92527 0
M  V30 5904 H 556.29 -0.308178 -1.40664 0
M  V30 5905 H 558.243 1.59556 -3.90025 0
M  V30 5906 H 556.967 1.85843 -2.6857 0
M  V30 5907 H 555.626 -0.0354897 -3.66583 0
M  V30 5908 H 555.274 2.30631 -4.4701 0
M  V30 5909 H 554.974 1.12311 -5.76767 0
M  V30 5910 H 556.498 2.05537 -5.74967 0
M  V30 5911 H 557.912 -0.215974 -5.72893 0
M  V30 5912 H 556.309 -0.983789 -5.91981 0
M  V30 5913 H 557.379 -1.51005 -4.60788 0
M  V30 5914 N 558.722 1.53707 -0.348139 0
M  V30 5915 C 559.654 2.22725 0.540946 0
M  V30 5916 C 560.667 1.2354 1.06027 0
M  V30 5917 O 561.856 1.49867 0.96964 0
M  V30 5918 C 558.956 2.89756 1.75768 0
M  V30 5919 C 558.129 4.15297 1.37285 0
M  V30 5920 C 557.188 4.65697 2.44976 0
M  V30 5921 O 556.214 5.29798 2.08092 0
M  V30 5922 N 557.416 4.42017 3.763 0
M  V30 5923 H 560.181 2.99658 -0.0501592 0
M  V30 5924 H 557.742 1.60979 -0.17248 0
M  V30 5925 H 559.734 3.20388 2.47252 0
M  V30 5926 H 558.304 2.16382 2.25605 0
M  V30 5927 H 557.524 3.9116 0.488584 0
M  V30 5928 H 558.812 4.96948 1.09179 0
M  V30 5929 H 558.21 3.9076 4.09051 0
M  V30 5930 H 556.767 4.77242 4.4394 0
M  V30 5931 N 560.2 0.0768682 1.57412 0
M  V30 5932 C 561.44 -0.594676 1.95558 0
M  V30 5933 C 561.804 -1.66469 0.956658 0
M  V30 5934 O 563.005 -2.39215 1.22595 0
M  V30 5935 C 561.276 -1.15206 3.38323 0
M  V30 5936 S 562.835 -1.83803 3.9845 0
M  V30 5937 H 559.653 -0.194579 0.683857 0
M  V30 5938 H 562.255 0.151933 1.94909 0
M  V30 5939 H 560.959 -0.36153 4.08805 0
M  V30 5940 H 560.49 -1.93491 3.42527 0
M  V30 5941 H 562.505 -3.12087 3.85767 0
M  V30 5942 N 561.678 -1.56367 -0.196722 0
M  V30 5943 C 562.641 -1.93561 -1.22746 0
M  V30 5944 C 563.641 -0.816566 -1.38524 0
M  V30 5945 O 564.831 -1.084 -1.36363 0
M  V30 5946 C 561.963 -2.20823 -2.59712 0
M  V30 5947 H 563.156 -2.85774 -0.909586 0
M  V30 5948 H 560.709 -1.50032 -0.438174 0
M  V30 5949 H 561.444 -1.31243 -2.96557 0
M  V30 5950 H 561.229 -3.02368 -2.49632 0
M  V30 5951 H 562.719 -2.50608 -3.34044 0
M  V30 5952 N 563.156 0.464375 -1.50603 0
M  V30 5953 C 564.405 1.21277 -1.61167 0
M  V30 5954 C 564.718 1.92953 -0.320704 0
M  V30 5955 O 565.924 2.69778 -0.30534 0
M  V30 5956 C 564.38 2.20403 -2.84518 0
M  V30 5957 C 563.988 1.54499 -4.20516 0
M  V30 5958 C 565.732 2.95843 -3.0443 0
M  V30 5959 C 563.639 2.51951 -5.35047 0
M  V30 5960 H 562.569 0.456367 -0.600204 0
M  V30 5961 H 565.22 0.48254 -1.77042 0
M  V30 5962 H 563.602 2.96746 -2.62217 0
M  V30 5963 H 564.776 0.83899 -4.53098 0
M  V30 5964 H 563.091 0.913152 -4.06264 0
M  V30 5965 H 565.688 3.6879 -3.87167 0
M  V30 5966 H 566.031 3.55622 -2.16423 0
M  V30 5967 H 566.564 2.26611 -3.26944 0
M  V30 5968 H 563.303 1.96901 -6.25228 0
M  V30 5969 H 562.823 3.20683 -5.06875 0
M  V30 5970 H 564.502 3.13643 -5.65895 0
M  V30 5971 N 564.634 1.40294 0.718013 0
M  V30 5972 C 565.564 1.43118 1.84498 0
M  V30 5973 C 566.545 0.292403 1.67568 0
M  V30 5974 O 567.73 0.500675 1.87635 0
M  V30 5975 C 564.86 1.29065 3.22427 0
M  V30 5976 C 563.814 2.40521 3.54025 0
M  V30 5977 C 563.14 2.11546 4.91073 0
M  V30 5978 C 564.44 3.82859 3.55269 0
M  V30 5979 H 566.134 2.37432 1.82391 0
M  V30 5980 H 563.68 1.14283 0.87609 0
M  V30 5981 H 565.633 1.29658 4.00957 0
M  V30 5982 H 564.357 0.312271 3.25104 0
M  V30 5983 H 563.016 2.39173 2.77834 0
M  V30 5984 H 562.664 1.12104 4.90348 0
M  V30 5985 H 562.364 2.86216 5.1318 0
M  V30 5986 H 563.888 2.13817 5.71939 0
M  V30 5987 H 565.302 3.86044 4.23843 0
M  V30 5988 H 563.699 4.57029 3.88902 0
M  V30 5989 H 564.769 4.12617 2.54706 0
M  V30 5990 N 566.112 -0.949982 1.2575 0
M  V30 5991 C 567.337 -1.73503 1.13628 0
M  V30 5992 C 567.762 -1.85601 -0.30559 0
M  V30 5993 O 567.12 -1.33984 -1.22139 0
M  V30 5994 C 567.168 -3.1243 1.80055 0
M  V30 5995 O 566.272 -3.97916 1.08336 0
M  V30 5996 H 565.613 -0.532665 0.396439 0
M  V30 5997 H 568.143 -1.19043 1.66403 0
M  V30 5998 H 568.153 -3.62866 1.86527 0
M  V30 5999 H 566.828 -3.02941 2.84956 0
M  V30 6000 H 565.405 -3.56375 1.09777 0
M  V30 6001 N 567.59 -1.07411 -1.15328 0
M  V30 6002 C 569.001 -0.820261 -1.67716 0
M  V30 6003 C 569.352 0.654539 -1.8496 0
M  V30 6004 O 568.477 1.50664 -1.55337 0
M  V30 6005 C 569.072 -1.48242 -3.04647 0
M  V30 6006 C 567.631 -1.27606 -3.5411 0
M  V30 6007 C 566.778 -1.5517 -2.29821 0
M  V30 6008 H 569.729 -1.23608 -0.995332 0
M  V30 6009 H 569.75 -0.903984 -3.69606 0
M  V30 6010 H 569.262 -2.55578 -2.92064 0
M  V30 6011 H 567.363 -0.222948 -3.71932 0
M  V30 6012 H 567.476 -1.99667 -4.35511 0
M  V30 6013 H 565.84 -0.972747 -2.35393 0
M  V30 6014 H 566.623 -2.63689 -2.19824 0
M  V30 6015 N 569.068 1.32177 -0.85831 0
M  V30 6016 C 570.031 2.27086 -0.310588 0
M  V30 6017 C 571.031 1.51751 0.531806 0
M  V30 6018 O 572.221 1.70794 0.34279 0
M  V30 6019 C 569.353 3.36266 0.560179 0
M  V30 6020 H 570.546 2.77045 -1.1483 0
M  V30 6021 H 568.099 1.42911 -0.632942 0
M  V30 6022 H 568.834 2.9158 1.41956 0
M  V30 6023 H 568.619 3.92077 -0.0428473 0
M  V30 6024 H 570.109 4.06974 0.936056 0
M  V30 6025 N 570.547 0.616602 1.45037 0
M  V30 6026 C 571.794 0.115331 2.02171 0
M  V30 6027 C 572.122 -1.25748 1.48383 0
M  V30 6028 O 571.377 -1.84511 0.652229 0
M  V30 6029 C 571.676 0.0356829 3.57382 0
M  V30 6030 C 571.342 1.34535 4.30362 0
M  V30 6031 C 570.004 1.70408 4.50016 0
M  V30 6032 C 572.356 2.21049 4.72003 0
M  V30 6033 C 569.684 2.92529 5.0857 0
M  V30 6034 C 572.036 3.42427 5.31908 0
M  V30 6035 C 570.7 3.78541 5.49784 0
M  V30 6036 H 569.97 0.0422024 0.739797 0
M  V30 6037 H 572.617 0.80002 1.73988 0
M  V30 6038 H 570.922 -0.732314 3.84895 0
M  V30 6039 H 572.619 -0.368463 3.99304 0
M  V30 6040 H 569.209 1.05615 4.15383 0
M  V30 6041 H 573.393 1.94632 4.56544 0
M  V30 6042 H 568.649 3.20605 5.20598 0
M  V30 6043 H 572.823 4.09709 5.63127 0
M  V30 6044 H 570.45 4.73255 5.94923 0
M  V30 6045 N 572.025 -1.5352 0.356285 0
M  V30 6046 C 572.972 -2.25439 -0.494569 0
M  V30 6047 C 573.942 -1.25752 -1.08516 0
M  V30 6048 O 575.127 -1.54513 -1.1194 0
M  V30 6049 C 572.267 -3.04011 -1.63313 0
M  V30 6050 C 571.38 -4.18574 -1.06862 0
M  V30 6051 C 570.515 -4.84607 -2.17552 0
M  V30 6052 C 569.554 -5.91218 -1.58518 0
M  V30 6053 N 568.691 -6.50979 -2.63003 0
M  V30 6054 H 573.531 -2.97737 0.125244 0
M  V30 6055 H 571.068 -1.46916 0.0735789 0
M  V30 6056 H 573.026 -3.47834 -2.30363 0
M  V30 6057 H 571.656 -2.33986 -2.22374 0
M  V30 6058 H 570.708 -3.79303 -0.288672 0
M  V30 6059 H 572.02 -4.95215 -0.596924 0
M  V30 6060 H 571.174 -5.31566 -2.92442 0
M  V30 6061 H 569.913 -4.07418 -2.6807 0
M  V30 6062 H 568.918 -5.4363 -0.821391 0
M  V30 6063 H 570.143 -6.70322 -1.08836 0
M  V30 6064 H 568.089 -5.76648 -3.12751 0
M  V30 6065 H 568.006 -7.23131 -2.20493 0
M  V30 6066 H 569.274 -7.02589 -3.37623 0
M  V30 6067 N 573.503 -0.0852151 -1.57369 0
M  V30 6068 C 574.749 0.581666 -1.94279 0
M  V30 6069 C 575.082 1.68444 -0.966446 0
M  V30 6070 O 574.357 1.945 0.00215277 0
M  V30 6071 C 574.64 1.14609 -3.41375 0
M  V30 6072 C 574.493 0.0490414 -4.49773 0
M  V30 6073 C 575.812 2.04751 -3.8957 0
M  V30 6074 H 572.931 0.209972 -0.706456 0
M  V30 6075 H 575.573 -0.153915 -1.89376 0
M  V30 6076 H 573.723 1.77297 -3.45685 0
M  V30 6077 H 575.395 -0.584721 -4.57579 0
M  V30 6078 H 573.638 -0.618638 -4.29366 0
M  V30 6079 H 574.309 0.484601 -5.49869 0
M  V30 6080 H 576.785 1.51981 -3.87351 0
M  V30 6081 H 575.661 2.41173 -4.93079 0
M  V30 6082 H 575.922 2.96107 -3.28288 0
M  V30 6083 N 574.981 1.5647 0.188427 0
M  V30 6084 C 576.397 1.50204 0.539532 0
M  V30 6085 C 576.597 0.78644 1.85519 0
M  V30 6086 O 575.653 0.339714 2.50204 0
M  V30 6087 C 576.966 2.94893 0.588103 0
M  V30 6088 C 578.514 3.05602 0.67648 0
M  V30 6089 C 578.989 4.51716 0.756101 0
M  V30 6090 N 580.48 4.55894 0.819451 0
M  V30 6091 C 581.215 5.66272 0.90134 0
M  V30 6092 N 580.711 6.86323 0.945118 0
M  V30 6093 N 582.504 5.54201 0.939043 0
M  V30 6094 H 574.655 2.01406 -0.674493 0
M  V30 6095 H 576.918 0.916828 -0.241103 0
M  V30 6096 H 576.624 3.50334 -0.309633 0
M  V30 6097 H 576.498 3.4861 1.44051 0
M  V30 6098 H 578.885 2.50206 1.56465 0
M  V30 6099 H 578.966 2.54999 -0.202262 0
M  V30 6100 H 578.61 5.07739 -0.12774 0
M  V30 6101 H 578.54 5.00058 1.65074 0
M  V30 6102 H 581.031 3.69452 0.794594 0
M  V30 6103 H 581.344 7.66194 1.0083 0
M  V30 6104 H 579.689 6.88968 0.913683 0
M  V30 6105 H 582.88 4.59333 0.901725 0
M  V30 6106 H 583.053 6.40247 0.999402 0
M  V30 6107 N 576.459 -0.456382 1.50847 0
M  V30 6108 C 577.369 -1.57805 1.73594 0
M  V30 6109 C 578.385 -1.62599 0.619476 0
M  V30 6110 O 579.561 -1.80195 0.899532 0
M  V30 6111 C 576.626 -2.93926 1.8387 0
M  V30 6112 C 575.687 -2.99402 3.07663 0
M  V30 6113 C 574.92 -4.29031 3.1744 0
M  V30 6114 O 575.143 -5.20358 2.33631 0
M  V30 6115 O 574.077 -4.40401 4.10281 0
M  V30 6116 H 577.903 -1.41531 2.68705 0
M  V30 6117 H 575.488 -0.637422 1.3512 0
M  V30 6118 H 577.37 -3.74747 1.92725 0
M  V30 6119 H 576.045 -3.10368 0.91944 0
M  V30 6120 H 574.952 -2.17606 3.043 0
M  V30 6121 H 576.285 -2.87901 3.99216 0
M  V30 6122 N 577.937 -1.40673 -0.710563 0
M  V30 6123 C 579.184 -1.39222 -1.47049 0
M  V30 6124 C 579.512 0.0037691 -1.945 0
M  V30 6125 O 578.767 0.989224 -1.68857 0
M  V30 6126 C 579.066 -2.33253 -2.70791 0
M  V30 6127 C 578.732 -3.80406 -2.42079 0
M  V30 6128 C 577.394 -4.20496 -2.33959 0
M  V30 6129 C 579.746 -4.73375 -2.18094 0
M  V30 6130 C 577.074 -5.51584 -1.99929 0
M  V30 6131 C 579.426 -6.04768 -1.85576 0
M  V30 6132 C 578.09 -6.43895 -1.75941 0
M  V30 6133 H 577.36 -0.509449 -0.538092 0
M  V30 6134 H 580.007 -1.73363 -0.81348 0
M  V30 6135 H 578.312 -1.92314 -3.41354 0
M  V30 6136 H 580.009 -2.29412 -3.28894 0
M  V30 6137 H 576.599 -3.48645 -2.49288 0
M  V30 6138 H 580.783 -4.43217 -2.23321 0
M  V30 6139 H 576.039 -5.80797 -1.91011 0
M  V30 6140 H 580.213 -6.76318 -1.66033 0
M  V30 6141 H 577.84 -7.45387 -1.4934 0
M  V30 6142 N 579.415 0.9433 -1.26252 0
M  V30 6143 C 580.64 1.72898 -1.14547 0
M  V30 6144 C 581.065 1.85761 0.295743 0
M  V30 6145 O 580.423 1.3463 1.21427 0
M  V30 6146 C 580.471 3.11471 -1.8171 0
M  V30 6147 O 579.575 3.97336 -1.10445 0
M  V30 6148 H 578.916 0.530555 -0.399259 0
M  V30 6149 H 581.446 1.18159 -1.67032 0
M  V30 6150 H 581.456 3.61872 -1.88449 0
M  V30 6151 H 580.131 3.01425 -2.86558 0
M  V30 6152 H 578.708 3.55788 -1.11666 0
M  V30 6153 N 580.893 1.08022 1.14757 0
M  V30 6154 C 582.139 0.808705 1.85978 0
M  V30 6155 C 582.472 -0.663764 1.82504 0
M  V30 6156 O 581.747 -1.48765 1.25296 0
M  V30 6157 C 582.03 1.32623 3.34788 0
M  V30 6158 C 581.883 2.86375 3.46856 0
M  V30 6159 C 583.202 0.948291 4.29762 0
M  V30 6160 H 580.321 0.295244 0.675278 0
M  V30 6161 H 582.963 1.33917 1.34783 0
M  V30 6162 H 581.113 0.875002 3.78518 0
M  V30 6163 H 582.785 3.39839 3.11941 0
M  V30 6164 H 581.028 3.24232 2.88194 0
M  V30 6165 H 581.699 3.17658 4.51439 0
M  V30 6166 H 584.175 1.33722 3.94028 0
M  V30 6167 H 583.051 1.33765 5.32352 0
M  V30 6168 H 583.312 -0.145094 4.41862 0
M  V30 6169 N 582.371 -1.3172 0.865308 0
M  V30 6170 C 583.599 -2.01057 0.488251 0
M  V30 6171 C 584.014 -1.64979 -0.918 0
M  V30 6172 O 583.371 -0.876597 -1.60069 0
M  V30 6173 C 583.422 -3.55964 0.630224 0
M  V30 6174 O 583.143 -3.90749 1.98109 0
M  V30 6175 C 584.644 -4.42574 0.253567 0
M  V30 6176 H 581.864 -0.64332 0.190736 0
M  V30 6177 H 584.408 -1.68058 1.16519 0
M  V30 6178 H 582.563 -3.874 0.000895422 0
M  V30 6179 H 582.977 -4.85467 1.9855 0
M  V30 6180 H 584.451 -5.50521 0.403875 0
M  V30 6181 H 584.928 -4.31724 -0.806895 0
M  V30 6182 H 585.534 -4.16547 0.858404 0
M  V30 6183 N 583.85 -0.624285 -1.44708 0
M  V30 6184 C 585.127 -0.0572781 -1.95516 0
M  V30 6185 C 585.507 1.41516 -1.56641 0
M  V30 6186 O 584.855 2.12614 -0.837111 0
M  V30 6187 C 585.065 -0.272944 -3.47931 0
M  V30 6188 C 586.413 -0.162529 -4.24289 0
M  V30 6189 O 587.437 -0.203946 -3.55616 0
M  V30 6190 O 586.296 -0.0616847 -5.46465 0
M  V30 6191 H 583.389 0.0262219 -0.826584 0
M  V30 6192 H 585.936 -0.695512 -1.54793 0
M  V30 6193 H 584.707 -1.29492 -3.69253 0
M  V30 6194 H 584.331 0.399756 -3.95585 0
M  V30 6195 N 585.328 1.53329 -0.364422 0
M  V30 6196 C 586.291 2.24323 0.470292 0
M  V30 6197 C 587.291 1.25068 1.01067 0
M  V30 6198 O 588.481 1.49354 0.896605 0
M  V30 6199 C 585.613 2.97908 1.65722 0
M  V30 6200 H 586.806 2.9952 -0.150917 0
M  V30 6201 H 584.359 1.55868 -0.116092 0
M  V30 6202 H 585.094 2.2695 2.31655 0
M  V30 6203 H 584.879 3.70732 1.27671 0
M  V30 6204 H 586.369 3.5188 2.24878 0
M  V30 6205 N 586.806 0.0935595 1.57322 0
M  V30 6206 C 588.052 -0.571355 1.94585 0
M  V30 6207 C 588.385 -1.67929 0.975366 0
M  V30 6208 O 587.66 -1.94498 0.00816206 0
M  V30 6209 C 587.943 -1.12797 3.41978 0
M  V30 6210 C 587.796 -0.0251881 4.49793 0
M  V30 6211 C 589.115 -2.02682 3.90651 0
M  V30 6212 H 586.234 -0.206223 0.70756 0
M  V30 6213 H 588.876 0.163956 1.89291 0
M  V30 6214 H 587.026 -1.75461 3.4662 0
M  V30 6215 H 588.698 0.608979 4.57263 0
M  V30 6216 H 586.941 0.641399 4.29032 0
M  V30 6217 H 587.612 -0.455433 5.50118 0
M  V30 6218 H 590.088 -1.49925 3.88152 0
M  V30 6219 H 588.964 -2.38555 4.94351 0
M  V30 6220 H 589.225 -2.94362 3.29854 0
M  V30 6221 N 588.284 -1.56567 -0.180126 0
M  V30 6222 C 589.695 -1.7126 -0.743422 0
M  V30 6223 C 590.046 -0.70263 -1.83187 0
M  V30 6224 O 589.171 0.137856 -2.1596 0
M  V30 6225 C 589.766 -3.10512 -1.35528 0
M  V30 6226 C 588.325 -3.26919 -1.8655 0
M  V30 6227 C 587.472 -2.67213 -0.741099 0
M  V30 6228 H 590.423 -1.58636 0.0451543 0
M  V30 6229 H 590.444 -3.08673 -2.22489 0
M  V30 6230 H 589.956 -3.83997 -0.562862 0
M  V30 6231 H 588.057 -2.58376 -2.68464 0
M  V30 6232 H 588.17 -4.34574 -2.01699 0
M  V30 6233 H 586.534 -2.26788 -1.15927 0
M  V30 6234 H 587.317 -3.43277 0.0393291 0
M  V30 6235 N 589.762 0.448376 -1.51087 0
M  V30 6236 C 591.009 1.19872 -1.63209 0
M  V30 6237 C 591.337 1.91451 -0.343062 0
M  V30 6238 O 590.592 1.83789 0.672321 0
M  V30 6239 C 590.891 2.24866 -2.77795 0
M  V30 6240 C 590.557 1.70378 -4.17471 0
M  V30 6241 C 589.219 1.55241 -4.55471 0
M  V30 6242 C 591.571 1.30203 -5.04675 0
M  V30 6243 C 588.899 0.983844 -5.78392 0
M  V30 6244 C 591.251 0.747798 -6.28165 0
M  V30 6245 C 589.915 0.583233 -6.64947 0
M  V30 6246 H 589.185 0.438642 -0.597222 0
M  V30 6247 H 591.832 0.49136 -1.85089 0
M  V30 6248 H 590.137 3.01598 -2.50092 0
M  V30 6249 H 591.834 2.82723 -2.84374 0
M  V30 6250 H 588.424 1.83134 -3.87505 0
M  V30 6251 H 592.608 1.40723 -4.75932 0
M  V30 6252 H 587.864 0.844007 -6.05546 0
M  V30 6253 H 592.038 0.427927 -6.95084 0
M  V30 6254 H 589.665 0.140532 -7.6007 0
M  V30 6255 N 591.24 1.41047 0.703093 0
M  V30 6256 C 592.651 1.35657 1.28274 0
M  V30 6257 C 593.002 0.0360309 1.96167 0
M  V30 6258 O 592.127 -0.865833 1.98324 0
M  V30 6259 C 592.722 2.45707 2.33267 0
M  V30 6260 C 591.281 2.43738 2.86825 0
M  V30 6261 C 590.428 2.25941 1.60767 0
M  V30 6262 H 593.379 1.50672 0.49836 0
M  V30 6263 H 593.4 2.14333 3.14391 0
M  V30 6264 H 592.912 3.41805 1.83824 0
M  V30 6265 H 591.013 1.51375 3.40465 0
M  V30 6266 H 591.126 3.39779 3.37768 0
M  V30 6267 H 589.49 1.73681 1.86298 0
M  V30 6268 H 590.273 3.24054 1.1333 0
M  V30 6269 N 592.718 -0.936591 1.26751 0
M  V30 6270 C 593.967 -1.67778 1.11953 0
M  V30 6271 C 594.28 -1.92694 -0.33589 0
M  V30 6272 O 595.486 -2.64682 -0.604618 0
M  V30 6273 C 593.942 -3.02138 1.95551 0
M  V30 6274 C 593.55 -2.84953 3.45696 0
M  V30 6275 C 595.294 -3.79917 1.89377 0
M  V30 6276 C 593.201 -4.14814 4.21525 0
M  V30 6277 H 592.131 -0.629275 0.415366 0
M  V30 6278 H 594.782 -1.04122 1.51099 0
M  V30 6279 H 593.164 -3.668 1.49243 0
M  V30 6280 H 594.338 -2.29112 3.99805 0
M  V30 6281 H 592.653 -2.20612 3.53156 0
M  V30 6282 H 595.25 -4.76134 2.43312 0
M  V30 6283 H 595.593 -4.07204 0.865464 0
M  V30 6284 H 596.126 -3.22037 2.33532 0
M  V30 6285 H 592.865 -3.92709 5.24843 0
M  V30 6286 H 592.385 -4.70352 3.72195 0
M  V30 6287 H 594.064 -4.83239 4.3022 0
M  V30 6288 N 594.196 -1.08629 -1.14182 0
M  V30 6289 C 595.421 -0.83902 -1.89671 0
M  V30 6290 C 595.846 0.603332 -1.78161 0
M  V30 6291 O 595.204 1.42301 -1.12339 0
M  V30 6292 C 595.252 -1.26854 -3.37551 0
M  V30 6293 O 594.356 -0.42188 -4.10236 0
M  V30 6294 H 593.697 -0.304545 -0.590041 0
M  V30 6295 H 596.227 -1.4483 -1.44518 0
M  V30 6296 H 596.237 -1.25038 -3.88368 0
M  V30 6297 H 594.912 -2.31901 -3.45246 0
M  V30 6298 H 593.489 -0.503654 -3.69483 0
M  V30 6299 N 595.674 1.31259 -0.872281 0
M  V30 6300 C 596.604 2.30929 -0.345554 0
M  V30 6301 C 597.585 1.60449 0.5648 0
M  V30 6302 O 598.77 1.8814 0.481335 0
M  V30 6303 C 595.9 3.44348 0.451823 0
M  V30 6304 C 594.854 4.26435 -0.365641 0
M  V30 6305 C 594.18 5.31785 0.557562 0
M  V30 6306 C 595.48 4.97159 -1.60095 0
M  V30 6307 H 597.174 2.75234 -1.17841 0
M  V30 6308 H 594.72 1.3232 -0.568094 0
M  V30 6309 H 596.673 4.13128 0.830854 0
M  V30 6310 H 595.397 2.98816 1.31821 0
M  V30 6311 H 594.056 3.59326 -0.726649 0
M  V30 6312 H 593.704 4.82502 1.4213 0
M  V30 6313 H 593.404 5.87598 0.0144878 0
M  V30 6314 H 594.928 6.03424 0.933387 0
M  V30 6315 H 596.342 5.58523 -1.29323 0
M  V30 6316 H 594.739 5.62779 -2.08327 0
M  V30 6317 H 595.809 4.24012 -2.35249 0
M  V30 6318 N 597.152 0.631951 1.44375 0
M  V30 6319 C 598.401 0.134214 2.01253 0
M  V30 6320 C 598.714 -1.25171 1.50305 0
M  V30 6321 O 599.92 -1.8435 1.99317 0
M  V30 6322 C 598.376 0.189187 3.59402 0
M  V30 6323 C 597.984 1.57647 4.19346 0
M  V30 6324 C 599.728 -0.252044 4.23751 0
M  V30 6325 C 597.635 1.58651 5.69722 0
M  V30 6326 H 596.565 0.0464101 0.75257 0
M  V30 6327 H 599.216 0.790868 1.65582 0
M  V30 6328 H 597.598 -0.534584 3.92375 0
M  V30 6329 H 598.772 2.32389 3.97909 0
M  V30 6330 H 597.087 1.96186 3.67288 0
M  V30 6331 H 599.684 -0.264084 5.34047 0
M  V30 6332 H 600.027 -1.27951 3.96149 0
M  V30 6333 H 600.56 0.41926 3.95584 0
M  V30 6334 H 597.299 2.59237 6.0206 0
M  V30 6335 H 596.819 0.882039 5.93279 0
M  V30 6336 H 598.498 1.32082 6.33375 0
M  V30 6337 N 598.631 -1.53133 0.372548 0
M  V30 6338 C 599.877 -2.02336 -0.207823 0
M  V30 6339 C 600.232 -1.25477 -1.45853 0
M  V30 6340 O 599.525 -0.341971 -1.88524 0
M  V30 6341 C 599.719 -3.53206 -0.545938 0
M  V30 6342 C 599.548 -4.44674 0.670454 0
M  V30 6343 C 598.318 -4.91217 1.18465 0
M  V30 6344 C 600.516 -4.90772 1.53777 0
M  V30 6345 N 598.498 -5.66711 2.36034 0
M  V30 6346 C 599.869 -5.64678 2.56004 0
M  V30 6347 C 601.924 -4.72836 1.55983 0
M  V30 6348 C 600.627 -6.22555 3.60303 0
M  V30 6349 C 602.653 -5.31583 2.59179 0
M  V30 6350 C 602.015 -6.05381 3.6013 0
M  V30 6351 H 598.114 -0.781048 -0.0385783 0
M  V30 6352 H 600.698 -1.87665 0.518664 0
M  V30 6353 H 598.869 -3.68024 -1.24149 0
M  V30 6354 H 600.601 -3.89123 -1.112 0
M  V30 6355 H 597.356 -4.67652 0.748205 0
M  V30 6356 H 597.78 -6.09117 2.95475 0
M  V30 6357 H 602.422 -4.15299 0.792877 0
M  V30 6358 H 600.14 -6.79183 4.37876 0
M  V30 6359 H 603.726 -5.19595 2.61749 0
M  V30 6360 H 602.606 -6.50028 4.38672 0
M  V30 6361 N 600.109 -0.101901 -1.5727 0
M  V30 6362 C 601.057 0.872034 -2.15635 0
M  V30 6363 C 602.051 1.28742 -1.10099 0
M  V30 6364 O 603.257 1.26116 -1.28432 0
M  V30 6365 H 599.632 0.299269 -0.689886 0
M  V30 6366 H 601.603 0.355137 -2.96279 0
M  V30 6367 C 600.352 2.11886 -2.7568 0
M  V30 6368 H 599.675 1.80813 -3.56576 0
M  V30 6369 H 601.115 2.78077 -3.20077 0
M  V30 6370 C 599.574 2.89739 -1.7191 0
M  V30 6371 O 600.104 3.84522 -1.16213 0
M  V30 6372 N 598.31 2.53407 -1.42245 0
M  V30 6373 H 597.857 1.76398 -1.87727 0
M  V30 6374 H 597.815 3.05795 -0.730529 0
M  V30 6375 N 601.587 1.56661 0.17182 0
M  V30 6376 C 602.537 1.92781 1.21736 0
M  V30 6377 C 603.521 0.796065 1.39827 0
M  V30 6378 O 604.713 1.05924 1.41806 0
M  V30 6379 C 601.842 2.29079 2.55691 0
M  V30 6380 C 600.928 3.48765 2.41296 0
M  V30 6381 N 601.319 4.66022 1.96614 0
M  V30 6382 C 599.617 3.53362 2.72124 0
M  V30 6383 C 600.318 5.48159 1.94669 0
M  V30 6384 N 599.294 4.89189 2.37054 0
M  V30 6385 H 603.096 2.80926 0.863592 0
M  V30 6386 H 600.61 1.57889 0.380096 0
M  V30 6387 H 602.607 2.5315 3.31241 0
M  V30 6388 H 601.267 1.42272 2.91871 0
M  V30 6389 H 602.278 4.9025 1.66959 0
M  V30 6390 H 598.955 2.77033 3.12345 0
M  V30 6391 H 600.345 6.52121 1.61826 0
M  V30 6392 N 603.065 -0.440357 1.51323 0
M  V30 6393 C 604.342 -1.20109 1.5438 0
M  V30 6394 C 604.722 -2.08866 0.306303 0
M  V30 6395 O 604.07 -2.1723 -0.708773 0
M  V30 6396 C 604.28 -2.00555 2.8562 0
M  V30 6397 C 605.628 -2.577 3.37455 0
M  V30 6398 O 606.652 -2.10769 2.8715 0
M  V30 6399 O 605.511 -3.43289 4.25224 0
M  V30 6400 H 602.605 -0.546668 0.620551 0
M  V30 6401 H 605.151 -0.449672 1.63634 0
M  V30 6402 H 603.923 -1.35346 3.67147 0
M  V30 6403 H 603.546 -2.82768 2.79514 0
M  V30 6404 N 604.543 -1.41418 -0.695603 0
M  V30 6405 C 605.768 -1.44329 -1.48942 0
M  V30 6406 C 606.193 -0.0501579 -1.88033 0
M  V30 6407 O 605.551 0.946598 -1.54626 0
M  V30 6408 C 605.599 -2.3578 -2.72837 0
M  V30 6409 O 604.703 -1.81482 -3.70322 0
M  V30 6410 H 604.044 -0.489838 -0.44828 0
M  V30 6411 H 606.574 -1.85878 -0.855014 0
M  V30 6412 H 606.584 -2.51654 -3.21145 0
M  V30 6413 H 605.259 -3.37005 -2.43722 0
M  V30 6414 H 603.836 -1.75058 -3.29255 0
M  V30 6415 N 606.021 0.929856 -1.27246 0
M  V30 6416 C 606.931 2.0636 -1.11592 0
M  V30 6417 C 607.947 1.73938 -0.046496 0
M  V30 6418 O 609.123 1.9981 -0.252544 0
M  V30 6419 C 606.188 3.38213 -0.762437 0
M  V30 6420 C 605.249 3.84346 -1.9125 0
M  V30 6421 C 604.482 5.09906 -1.57579 0
M  V30 6422 O 604.705 5.68354 -0.482694 0
M  V30 6423 O 603.639 5.51359 -2.41426 0
M  V30 6424 H 607.465 2.22478 -2.0673 0
M  V30 6425 H 605.05 1.04865 -1.06413 0
M  V30 6426 H 606.932 4.1741 -0.57854 0
M  V30 6427 H 605.607 3.23307 0.159439 0
M  V30 6428 H 604.514 3.06045 -2.15144 0
M  V30 6429 H 605.847 4.0379 -2.81451 0
M  V30 6430 N 607.499 1.09233 1.13605 0
M  V30 6431 C 608.776 0.739633 1.81077 0
M  V30 6432 C 609.156 -0.775595 1.96336 0
M  V30 6433 O 608.504 -1.69726 1.52988 0
M  V30 6434 C 608.714 1.47636 3.16235 0
M  V30 6435 C 610.062 1.64087 3.91613 0
M  V30 6436 O 611.086 1.43871 3.25852 0
M  V30 6437 O 609.945 1.97511 5.0956 0
M  V30 6438 H 607.039 0.265464 0.783236 0
M  V30 6439 H 609.585 1.19441 1.20549 0
M  V30 6440 H 608.357 2.50818 3.00344 0
M  V30 6441 H 607.98 1.01362 3.84462 0
M  V30 6442 N 608.977 -1.30795 0.87923 0
M  V30 6443 C 610.205 -2.00527 0.509548 0
M  V30 6444 C 610.62 -1.65944 -0.90045 0
M  V30 6445 O 609.977 -0.893525 -1.5913 0
M  V30 6446 C 610.028 -3.55276 0.667943 0
M  V30 6447 O 609.749 -3.88625 2.02242 0
M  V30 6448 C 611.25 -4.4228 0.300494 0
M  V30 6449 H 608.47 -0.641261 0.197549 0
M  V30 6450 H 611.014 -1.66813 1.18295 0
M  V30 6451 H 609.169 -3.87377 0.0419843 0
M  V30 6452 H 609.583 -4.83334 2.03688 0
M  V30 6453 H 611.057 -5.50061 0.462242 0
M  V30 6454 H 611.534 -4.32556 -0.76106 0
M  V30 6455 H 612.14 -4.15613 0.902536 0
M  V30 6456 N 610.455 -0.639598 -1.44038 0
M  V30 6457 C 611.365 0.0612377 -2.3452 0
M  V30 6458 C 612.381 0.826717 -1.53106 0
M  V30 6459 O 613.557 0.777059 -1.85806 0
M  V30 6460 C 610.622 1.02492 -3.31204 0
M  V30 6461 C 609.683 0.25788 -4.28525 0
M  V30 6462 C 608.916 1.17566 -5.2059 0
M  V30 6463 O 609.139 2.41461 -5.16771 0
M  V30 6464 O 608.073 0.655407 -5.98321 0
M  V30 6465 H 611.899 -0.68318 -2.95916 0
M  V30 6466 H 609.484 -0.399784 -1.43952 0
M  V30 6467 H 611.366 1.57911 -3.90694 0
M  V30 6468 H 610.041 1.7498 -2.7233 0
M  V30 6469 H 608.948 -0.339566 -3.72556 0
M  V30 6470 H 610.281 -0.427154 -4.90343 0
M  V30 6471 N 611.933 1.52934 -0.380664 0
M  V30 6472 C 613.181 2.01069 0.203874 0
M  V30 6473 C 613.502 1.26922 1.4804 0
M  V30 6474 O 612.772 0.386787 1.92044 0
M  V30 6475 H 611.352 0.742882 0.0783279 0
M  V30 6476 H 614.014 1.88099 -0.510368 0
M  V30 6477 H 613.11 3.09258 0.42021 0
M  V30 6478 N 613.412 0.11024 1.57214 0
M  V30 6479 C 614.658 -0.550684 1.9518 0
M  V30 6480 C 614.991 -1.66885 0.993122 0
M  V30 6481 O 614.266 -1.94479 0.0287907 0
M  V30 6482 C 614.549 -1.09163 3.43155 0
M  V30 6483 C 614.402 0.0225198 4.49794 0
M  V30 6484 C 615.721 -1.98527 3.92778 0
M  V30 6485 H 612.84 -0.198706 0.709708 0
M  V30 6486 H 615.482 0.184024 1.89107 0
M  V30 6487 H 613.632 -1.71775 3.48462 0
M  V30 6488 H 615.304 0.657443 4.56591 0
M  V30 6489 H 613.547 0.686868 4.28328 0
M  V30 6490 H 614.218 -0.39706 5.5057 0
M  V30 6491 H 616.694 -1.458 3.8972 0
M  V30 6492 H 615.57 -2.33298 4.96853 0
M  V30 6493 H 615.831 -2.90846 3.32958 0
M  V30 6494 N 614.89 -1.56749 -0.16351 0
M  V30 6495 C 615.84 -1.93424 -1.20712 0
M  V30 6496 C 616.824 -0.803469 -1.39403 0
M  V30 6497 O 618.016 -1.06675 -1.41243 0
M  V30 6498 C 615.145 -2.30431 -2.54473 0
M  V30 6499 C 614.231 -3.5004 -2.39443 0
M  V30 6500 N 614.622 -4.67058 -1.9414 0
M  V30 6501 C 612.92 -3.548 -2.70246 0
M  V30 6502 C 613.621 -5.49184 -1.9176 0
M  V30 6503 N 612.597 -4.9044 -2.34457 0
M  V30 6504 H 616.399 -2.8138 -0.848681 0
M  V30 6505 H 613.913 -1.58089 -0.371717 0
M  V30 6506 H 615.91 -2.54903 -3.29894 0
M  V30 6507 H 614.57 -1.43818 -2.91112 0
M  V30 6508 H 615.581 -4.91128 -1.64357 0
M  V30 6509 H 612.258 -2.78685 -3.10871 0
M  V30 6510 H 613.648 -6.5297 -1.58366 0
M  V30 6511 N 616.368 0.432326 -1.51554 0
M  V30 6512 C 617.278 1.55023 -1.76082 0
M  V30 6513 C 618.294 1.61593 -0.645265 0
M  V30 6514 O 619.47 1.78742 -0.928086 0
M  V30 6515 C 616.535 2.90964 -1.88523 0
M  V30 6516 C 615.596 2.9447 -3.12388 0
M  V30 6517 C 614.829 4.23926 -3.24225 0
M  V30 6518 O 615.052 5.16576 -2.4188 0
M  V30 6519 O 613.986 4.33818 -4.17235 0
M  V30 6520 H 617.812 1.37238 -2.70923 0
M  V30 6521 H 615.397 0.615845 -1.36117 0
M  V30 6522 H 617.279 3.71633 -1.98662 0
M  V30 6523 H 615.954 3.08865 -0.9687 0
M  V30 6524 H 614.861 2.12737 -3.07723 0
M  V30 6525 H 616.194 2.81514 -4.03746 0
M  V30 6526 N 617.846 1.41785 0.688094 0
M  V30 6527 C 619.092 1.41753 1.4503 0
M  V30 6528 C 619.425 0.0290745 1.94178 0
M  V30 6529 O 618.7 -0.944456 1.7003 0
M  V30 6530 C 618.983 2.43069 2.65686 0
M  V30 6531 C 618.836 3.91053 2.22256 0
M  V30 6532 C 620.155 2.41543 3.67893 0
M  V30 6533 H 617.274 0.516202 0.526027 0
M  V30 6534 H 619.916 1.73111 0.783105 0
M  V30 6535 H 618.066 2.1646 3.2261 0
M  V30 6536 H 619.738 4.28594 1.70602 0
M  V30 6537 H 617.981 4.05559 1.53963 0
M  V30 6538 H 618.652 4.57501 3.08863 0
M  V30 6539 H 621.128 2.65175 3.20658 0
M  V30 6540 H 620.004 3.14434 4.49914 0
M  V30 6541 H 620.265 1.43666 4.18106 0
M  V30 6542 N 619.324 -0.923095 1.27737 0
M  V30 6543 C 620.571 -1.67127 1.14345 0
M  V30 6544 C 620.899 -1.92017 -0.30982 0
M  V30 6545 O 620.154 -1.51185 -1.24264 0
M  V30 6546 C 620.453 -3.04125 1.8773 0
M  V30 6547 C 620.119 -2.98929 3.37568 0
M  V30 6548 C 618.781 -2.9722 3.78436 0
M  V30 6549 C 621.133 -2.89875 4.33154 0
M  V30 6550 C 618.461 -2.84244 5.13247 0
M  V30 6551 C 620.813 -2.7844 5.68026 0
M  V30 6552 C 619.477 -2.75083 6.08182 0
M  V30 6553 H 618.747 -0.611562 0.418417 0
M  V30 6554 H 621.394 -1.07618 1.584 0
M  V30 6555 H 619.699 -3.67366 1.36196 0
M  V30 6556 H 621.396 -3.609 1.74792 0
M  V30 6557 H 617.986 -3.0105 3.05069 0
M  V30 6558 H 622.17 -2.9029 4.02548 0
M  V30 6559 H 617.426 -2.80034 5.43499 0
M  V30 6560 H 621.6 -2.70401 6.4176 0
M  V30 6561 H 619.227 -2.64786 7.12596 0
M  V30 6562 N 620.802 -1.09834 -1.13024 0
M  V30 6563 C 622.027 -0.85909 -1.88771 0
M  V30 6564 C 622.452 0.584402 -1.78791 0
M  V30 6565 O 621.81 1.41101 -1.13842 0
M  V30 6566 C 621.858 -1.30427 -3.36186 0
M  V30 6567 O 620.962 -0.465368 -4.09766 0
M  V30 6568 H 620.303 -0.310786 -0.586778 0
M  V30 6569 H 622.833 -1.46355 -1.42973 0
M  V30 6570 H 622.843 -1.2915 -3.8702 0
M  V30 6571 H 621.518 -2.3555 -3.42767 0
M  V30 6572 H 620.095 -0.542814 -3.68928 0
M  V30 6573 N 622.28 1.30327 -0.886154 0
M  V30 6574 C 623.696 1.48676 -0.580323 0
M  V30 6575 C 623.896 1.81189 0.881639 0
M  V30 6576 O 622.952 1.90021 1.66278 0
M  V30 6577 C 624.265 2.60932 -1.49449 0
M  V30 6578 C 625.813 2.74812 -1.49824 0
M  V30 6579 C 626.288 3.90183 -2.39836 0
M  V30 6580 N 627.779 3.97495 -2.37806 0
M  V30 6581 C 628.514 4.86078 -3.04165 0
M  V30 6582 N 628.01 5.79448 -3.79753 0
M  V30 6583 N 629.803 4.79456 -2.93391 0
M  V30 6584 H 621.954 1.07495 -1.8319 0
M  V30 6585 H 624.217 0.532661 -0.784204 0
M  V30 6586 H 623.923 2.43731 -2.5355 0
M  V30 6587 H 623.797 3.57437 -1.20494 0
M  V30 6588 H 626.184 2.91418 -0.464731 0
M  V30 6589 H 626.265 1.78924 -1.82811 0
M  V30 6590 H 625.909 3.74334 -3.43273 0
M  V30 6591 H 625.839 4.85411 -2.04166 0
M  V30 6592 H 628.33 3.30703 -1.82877 0
M  V30 6593 H 628.643 6.43805 -4.27475 0
M  V30 6594 H 626.988 5.79376 -3.8386 0
M  V30 6595 H 630.179 4.05494 -2.33864 0
M  V30 6596 H 630.352 5.48283 -3.45383 0
M  V30 6597 N 623.758 0.647228 1.43697 0
M  V30 6598 C 624.706 -0.0600105 2.32523 0
M  V30 6599 C 625.7 -0.819277 1.48271 0
M  V30 6600 O 626.906 -0.730356 1.64517 0
M  V30 6601 H 623.281 -0.0381872 0.75103 0
M  V30 6602 H 625.252 0.706978 2.89904 0
M  V30 6603 C 624.001 -1.0169 3.32497 0
M  V30 6604 H 623.324 -0.442083 3.97348 0
M  V30 6605 H 624.764 -1.48095 3.97296 0
M  V30 6606 C 623.223 -2.11002 2.6264 0
M  V30 6607 O 623.753 -3.19302 2.4374 0
M  V30 6608 N 621.959 -1.87388 2.22113 0
M  V30 6609 H 621.506 -0.993174 2.37684 0
M  V30 6610 H 621.464 -2.60723 1.75701 0
M  V30 6611 N 625.236 -1.5273 0.388769 0
M  V30 6612 C 626.186 -2.23238 -0.463567 0
M  V30 6613 C 627.17 -1.23606 -1.03007 0
M  V30 6614 O 628.362 -1.48945 -0.956261 0
M  V30 6615 C 625.491 -3.04228 -1.5906 0
M  V30 6616 C 624.577 -4.11255 -1.03587 0
M  V30 6617 N 624.968 -5.0538 -0.206038 0
M  V30 6618 C 623.266 -4.26376 -1.30841 0
M  V30 6619 C 623.967 -5.81613 0.100359 0
M  V30 6620 N 622.943 -5.41264 -0.503447 0
M  V30 6621 H 626.745 -2.93367 0.176978 0
M  V30 6622 H 624.259 -1.61188 0.198046 0
M  V30 6623 H 626.256 -3.53277 -2.21362 0
M  V30 6624 H 624.916 -2.35634 -2.23398 0
M  V30 6625 H 625.927 -5.17663 0.156659 0
M  V30 6626 H 622.604 -3.69011 -1.95287 0
M  V30 6627 H 623.994 -6.67442 0.772676 0
M  V30 6628 N 626.714 -0.118576 -1.57153 0
M  V30 6629 C 627.677 0.817464 -2.14127 0
M  V30 6630 C 628.677 1.1949 -1.07604 0
M  V30 6631 O 629.867 1.12048 -1.33382 0
M  V30 6632 C 626.999 2.10541 -2.68115 0
M  V30 6633 H 628.192 0.322339 -2.98163 0
M  V30 6634 H 625.745 0.130655 -1.55753 0
M  V30 6635 H 626.48 2.64485 -1.87665 0
M  V30 6636 H 626.265 1.84425 -3.4602 0
M  V30 6637 H 627.755 2.77453 -3.12105 0
M  V30 6638 N 628.193 1.56834 0.155195 0
M  V30 6639 C 629.156 1.96748 1.17571 0
M  V30 6640 C 630.156 0.853006 1.3631 0
M  V30 6641 O 631.346 1.11978 1.33441 0
M  V30 6642 C 628.478 2.27631 2.53765 0
M  V30 6643 H 629.671 2.88085 0.833498 0
M  V30 6644 H 627.224 1.51141 0.398242 0
M  V30 6645 H 627.959 1.39059 2.92973 0
M  V30 6646 H 627.744 3.0888 2.41527 0
M  V30 6647 H 629.234 2.59377 3.27282 0
M  V30 6648 N 629.671 -0.424282 1.51781 0
M  V30 6649 C 631.082 -1.00368 1.57427 0
M  V30 6650 C 631.433 -1.91962 0.40558 0
M  V30 6651 O 630.558 -2.111 -0.47601 0
M  V30 6652 C 631.153 -1.82707 2.85313 0
M  V30 6653 C 629.712 -2.35675 2.93487 0
M  V30 6654 C 628.859 -1.1524 2.5222 0
M  V30 6655 H 631.81 -0.205064 1.5737 0
M  V30 6656 H 631.831 -2.68294 2.69812 0
M  V30 6657 H 631.343 -1.16017 3.70353 0
M  V30 6658 H 629.444 -3.05781 2.12906 0
M  V30 6659 H 629.557 -2.67578 3.97415 0
M  V30 6660 H 627.921 -1.50174 2.05718 0
M  V30 6661 H 628.704 -0.5014 3.39619 0
M  V30 6662 N 631.149 -1.42148 -0.680565 0
M  V30 6663 C 632.396 -1.4231 -1.44063 0
M  V30 6664 C 632.724 -0.037488 -1.94464 0
M  V30 6665 O 631.979 0.953184 -1.70918 0
M  V30 6666 C 632.278 -2.38945 -2.65782 0
M  V30 6667 C 631.944 -3.85455 -2.33956 0
M  V30 6668 C 630.606 -4.25364 -2.24987 0
M  V30 6669 C 632.958 -4.77895 -2.08004 0
M  V30 6670 C 630.286 -5.55701 -1.88184 0
M  V30 6671 C 632.638 -6.08568 -1.72706 0
M  V30 6672 C 631.302 -6.47482 -1.62244 0
M  V30 6673 H 630.572 -0.520748 -0.527164 0
M  V30 6674 H 633.219 -1.7505 -0.776524 0
M  V30 6675 H 631.524 -1.99511 -3.37198 0
M  V30 6676 H 633.221 -2.36336 -3.23954 0
M  V30 6677 H 629.811 -3.53855 -2.41836 0
M  V30 6678 H 633.995 -4.47854 -2.1387 0
M  V30 6679 H 629.251 -5.84718 -1.78648 0
M  V30 6680 H 633.425 -6.79688 -1.5165 0
M  V30 6681 H 631.052 -7.48387 -1.33496 0
M  V30 6682 N 632.627 0.916307 -1.28225 0
M  V30 6683 C 633.852 1.7043 -1.18188 0
M  V30 6684 C 634.277 1.86346 0.256274 0
M  V30 6685 O 633.635 1.37175 1.18544 0
M  V30 6686 C 633.683 3.07546 -1.88275 0
M  V30 6687 O 632.787 3.94904 -1.18848 0
M  V30 6688 H 632.128 0.521967 -0.410423 0
M  V30 6689 H 634.658 1.14589 -1.69501 0
M  V30 6690 H 634.668 3.57793 -1.96082 0
M  V30 6691 H 633.343 2.95279 -2.92887 0
M  V30 6692 H 631.92 3.53339 -1.19187 0
M  V30 6693 N 634.105 1.10431 1.1244 0
M  V30 6694 C 635.052 0.753103 2.18167 0
M  V30 6695 C 636.022 -0.270549 1.63882 0
M  V30 6696 O 637.207 -0.149837 1.90211 0
M  V30 6697 C 634.347 0.191046 3.44571 0
M  V30 6698 C 633.46 1.26999 4.12911 0
M  V30 6699 C 632.595 0.669586 5.26963 0
M  V30 6700 C 631.634 1.72912 5.87169 0
M  V30 6701 N 630.771 1.14898 6.92635 0
M  V30 6702 H 635.611 1.65892 2.47556 0
M  V30 6703 H 633.148 0.828631 1.21541 0
M  V30 6704 H 635.106 -0.152712 4.1692 0
M  V30 6705 H 633.736 -0.677997 3.15599 0
M  V30 6706 H 632.788 1.73087 3.3874 0
M  V30 6707 H 634.1 2.07204 4.53727 0
M  V30 6708 H 633.254 0.275274 6.06075 0
M  V30 6709 H 631.993 -0.163895 4.87425 0
M  V30 6710 H 630.998 2.13286 5.06744 0
M  V30 6711 H 632.223 2.56544 6.28778 0
M  V30 6712 H 630.169 0.336956 6.55134 0
M  V30 6713 H 630.086 1.88786 7.32049 0
M  V30 6714 H 631.354 0.78121 7.75576 0
M  V30 6715 N 635.583 -1.29855 0.893053 0
M  V30 6716 C 636.829 -1.96116 0.516349 0
M  V30 6717 C 637.162 -1.70281 -0.933695 0
M  V30 6718 O 636.437 -1.01205 -1.66096 0
M  V30 6719 C 636.72 -3.51068 0.801455 0
M  V30 6720 C 636.573 -3.86387 2.30272 0
M  V30 6721 C 637.892 -4.39186 0.283423 0
M  V30 6722 H 635.011 -0.712335 0.189072 0
M  V30 6723 H 637.653 -1.53587 1.11852 0
M  V30 6724 H 635.803 -3.87424 0.288949 0
M  V30 6725 H 637.475 -3.60012 2.88425 0
M  V30 6726 H 635.718 -3.34167 2.76613 0
M  V30 6727 H 636.389 -4.94512 2.45279 0
M  V30 6728 H 638.865 -4.09785 0.722187 0
M  V30 6729 H 637.741 -5.46505 0.512169 0
M  V30 6730 H 638.002 -4.34511 -0.815643 0
M  V30 6731 N 637.061 -0.65484 -1.43351 0
M  V30 6732 C 637.991 0.0221809 -2.33489 0
M  V30 6733 C 638.972 0.810272 -1.49561 0
M  V30 6734 O 640.157 0.771426 -1.78221 0
M  V30 6735 C 637.287 0.988117 -3.32947 0
M  V30 6736 C 636.241 0.310026 -4.26876 0
M  V30 6737 C 635.567 1.38752 -5.16384 0
M  V30 6738 C 636.867 -0.798589 -5.16159 0
M  V30 6739 H 638.561 -0.730571 -2.9035 0
M  V30 6740 H 636.107 -0.352773 -1.39612 0
M  V30 6741 H 638.06 1.47067 -3.94904 0
M  V30 6742 H 636.784 1.77205 -2.74346 0
M  V30 6743 H 635.443 -0.152097 -3.66284 0
M  V30 6744 H 635.091 2.16293 -4.54121 0
M  V30 6745 H 634.791 0.939051 -5.80048 0
M  V30 6746 H 636.315 1.87141 -5.81215 0
M  V30 6747 H 637.729 -0.398126 -5.71916 0
M  V30 6748 H 636.126 -1.17163 -5.88552 0
M  V30 6749 H 637.196 -1.65588 -4.55751 0
M  V30 6750 N 638.539 1.52521 -0.396863 0
M  V30 6751 C 639.767 2.06091 0.18275 0
M  V30 6752 C 640.182 1.26796 1.39886 0
M  V30 6753 O 639.539 0.316585 1.79733 0
M  V30 6754 C 639.59 3.57362 0.545377 0
M  V30 6755 O 639.311 4.33656 -0.622428 0
M  V30 6756 C 640.812 4.27305 1.18004 0
M  V30 6757 H 638.032 0.670504 0.025789 0
M  V30 6758 H 640.576 1.96561 -0.564276 0
M  V30 6759 H 638.731 3.66941 1.2423 0
M  V30 6760 H 639.145 5.23507 -0.322662 0
M  V30 6761 H 640.619 5.34366 1.38408 0
M  V30 6762 H 641.096 3.83 2.1496 0
M  V30 6763 H 641.702 4.22064 0.523671 0
M  V30 6764 N 640.017 0.126909 1.57088 0
M  V30 6765 C 641.264 -0.529168 1.95464 0
M  V30 6766 C 641.592 -1.6618 1.01067 0
M  V30 6767 O 640.847 -1.95667 0.0360254 0
M  V30 6768 C 641.146 -1.095 3.40212 0
M  V30 6769 C 640.812 -0.0829015 4.50824 0
M  V30 6770 C 639.474 0.195377 4.80803 0
M  V30 6771 C 641.826 0.606411 5.1766 0
M  V30 6772 C 639.154 1.16912 5.74933 0
M  V30 6773 C 641.506 1.56884 6.12838 0
M  V30 6774 C 640.17 1.85502 6.41206 0
M  V30 6775 H 639.44 -0.193636 0.715252 0
M  V30 6776 H 642.087 0.209489 1.90351 0
M  V30 6777 H 640.392 -1.91058 3.42059 0
M  V30 6778 H 642.089 -1.61087 3.67222 0
M  V30 6779 H 638.679 -0.309979 4.27478 0
M  V30 6780 H 642.863 0.404597 4.94648 0
M  V30 6781 H 638.119 1.3975 5.95214 0
M  V30 6782 H 642.293 2.10859 6.6371 0
M  V30 6783 H 639.92 2.61109 7.13951 0
M  V30 6784 N 641.495 -1.56914 -0.146875 0
M  V30 6785 C 642.425 -2.01308 -1.1831 0
M  V30 6786 C 643.406 -0.892664 -1.44795 0
M  V30 6787 O 644.591 -1.16048 -1.55713 0
M  V30 6788 C 641.721 -2.3938 -2.51624 0
M  V30 6789 C 640.675 -3.54608 -2.3966 0
M  V30 6790 C 640.001 -3.78493 -3.77686 0
M  V30 6791 C 641.301 -4.87269 -1.88058 0
M  V30 6792 H 642.995 -2.88123 -0.813964 0
M  V30 6793 H 640.541 -1.38615 -0.3901 0
M  V30 6794 H 642.494 -2.69037 -3.24341 0
M  V30 6795 H 641.218 -1.49502 -2.90373 0
M  V30 6796 H 639.877 -3.25116 -1.69396 0
M  V30 6797 H 639.525 -2.85866 -4.13871 0
M  V30 6798 H 639.225 -4.56039 -3.70543 0
M  V30 6799 H 640.749 -4.10576 -4.51951 0
M  V30 6800 H 642.163 -5.15644 -2.50568 0
M  V30 6801 H 640.56 -5.68622 -1.91805 0
M  V30 6802 H 641.63 -4.77634 -0.836277 0
M  V30 6803 N 642.974 0.416227 -1.52004 0
M  V30 6804 C 644.39 0.754319 -1.40649 0
M  V30 6805 C 644.59 1.95059 -0.505392 0
M  V30 6806 O 643.646 2.5248 0.0315057 0
M  V30 6807 C 644.959 1.0149 -2.83055 0
M  V30 6808 C 646.507 1.11805 -2.9235 0
M  V30 6809 C 646.982 1.41144 -4.35709 0
M  V30 6810 N 648.473 1.48024 -4.38911 0
M  V30 6811 C 649.208 1.72338 -5.46889 0
M  V30 6812 N 648.704 1.94303 -6.64995 0
M  V30 6813 N 650.497 1.74294 -5.34395 0
M  V30 6814 H 642.648 -0.371324 -2.09129 0
M  V30 6815 H 644.911 -0.103811 -0.942299 0
M  V30 6816 H 644.617 0.208345 -3.51082 0
M  V30 6817 H 644.491 1.93697 -3.23668 0
M  V30 6818 H 646.878 1.91521 -2.24508 0
M  V30 6819 H 646.959 0.17451 -2.55204 0
M  V30 6820 H 646.603 0.619484 -5.04108 0
M  V30 6821 H 646.533 2.36739 -4.70385 0
M  V30 6822 H 649.024 1.32868 -3.53772 0
M  V30 6823 H 649.337 2.12286 -7.43071 0
M  V30 6824 H 647.682 1.91582 -6.68073 0
M  V30 6825 H 650.873 1.56667 -4.41104 0
M  V30 6826 H 651.046 1.92904 -6.18621 0
M  V30 6827 N 644.452 1.42507 0.673017 0
M  V30 6828 C 645.868 1.25472 0.986355 0
M  V30 6829 C 646.068 0.160181 2.00862 0
M  V30 6830 O 645.124 -0.467993 2.48125 0
M  V30 6831 C 646.437 2.61219 1.48947 0
M  V30 6832 C 647.985 2.68589 1.60715 0
M  V30 6833 C 648.46 4.04707 2.14422 0
M  V30 6834 N 649.951 4.0667 2.21752 0
M  V30 6835 C 650.686 5.0881 2.64386 0
M  V30 6836 N 650.182 6.21332 3.0646 0
M  V30 6837 N 651.975 4.96166 2.64151 0
M  V30 6838 H 644.126 2.124 -0.00378532 0
M  V30 6839 H 646.389 0.946046 0.0608367 0
M  V30 6840 H 646.095 3.42179 0.812812 0
M  V30 6841 H 645.969 2.85261 2.46791 0
M  V30 6842 H 648.356 1.87974 2.27486 0
M  V30 6843 H 648.437 2.48333 0.613552 0
M  V30 6844 H 648.081 4.8578 1.48258 0
M  V30 6845 H 648.011 4.22315 3.14575 0
M  V30 6846 H 650.502 3.25438 1.92089 0
M  V30 6847 H 650.815 6.95118 3.37684 0
M  V30 6848 H 649.16 6.24835 3.04313 0
M  V30 6849 H 652.351 4.07334 2.30644 0
M  V30 6850 H 652.524 5.759 2.97057 0
M  V30 6851 N 645.93 -0.909495 1.28709 0
M  V30 6852 C 647.178 -1.65577 1.15882 0
M  V30 6853 C 647.499 -1.928 -0.292108 0
M  V30 6854 O 646.769 -1.54716 -1.20166 0
M  V30 6855 H 645.349 -0.613714 0.425869 0
M  V30 6856 H 648.011 -1.09108 1.61498 0
M  V30 6857 H 647.107 -2.61634 1.70159 0
M  V30 6858 N 647.408 -1.11026 -1.11852 0
M  V30 6859 C 648.819 -0.873203 -1.65021 0
M  V30 6860 C 649.17 0.595364 -1.86949 0
M  V30 6861 O 648.295 1.45645 -1.60051 0
M  V30 6862 C 648.89 -1.57859 -2.99777 0
M  V30 6863 C 647.449 -1.38807 -3.49871 0
M  V30 6864 C 646.596 -1.62403 -2.24768 0
M  V30 6865 H 649.547 -1.26712 -0.955503 0
M  V30 6866 H 649.568 -1.02111 -3.66543 0
M  V30 6867 H 649.08 -2.6474 -2.83786 0
M  V30 6868 H 647.181 -0.341163 -3.71035 0
M  V30 6869 H 647.294 -2.13421 -4.28938 0
M  V30 6870 H 645.658 -1.04714 -2.32179 0
M  V30 6871 H 646.441 -2.70549 -2.11324 0
M  V30 6872 N 648.886 1.2938 -0.899927 0
M  V30 6873 C 650.133 1.9555 -0.525963 0
M  V30 6874 C 650.461 1.70945 0.927789 0
M  V30 6875 O 649.716 1.01545 1.67293 0
M  V30 6876 C 650.015 3.49114 -0.765113 0
M  V30 6877 C 649.681 3.93796 -2.19626 0
M  V30 6878 C 648.343 4.05707 -2.58758 0
M  V30 6879 C 650.695 4.16883 -3.12823 0
M  V30 6880 C 648.023 4.38074 -3.90267 0
M  V30 6881 C 650.375 4.50725 -4.4388 0
M  V30 6882 C 649.039 4.60845 -4.82885 0
M  V30 6883 H 648.309 0.715569 -0.192463 0
M  V30 6884 H 650.956 1.53972 -1.13863 0
M  V30 6885 H 649.261 3.91738 -0.069531 0
M  V30 6886 H 650.958 3.98409 -0.455144 0
M  V30 6887 H 647.548 3.85042 -1.88256 0
M  V30 6888 H 651.732 4.07147 -2.83804 0
M  V30 6889 H 646.988 4.44112 -4.20207 0
M  V30 6890 H 651.162 4.67538 -5.16121 0
M  V30 6891 H 648.789 4.85681 -5.84823 0
M  V30 6892 N 650.364 0.662433 1.43002 0
M  V30 6893 C 651.274 -0.0239199 2.34588 0
M  V30 6894 C 652.29 -0.802255 1.54402 0
M  V30 6895 O 653.466 -0.747401 1.87018 0
M  V30 6896 C 650.531 -0.972098 3.32793 0
M  V30 6897 C 649.592 -0.189673 4.28881 0
M  V30 6898 C 648.825 -1.09269 5.22395 0
M  V30 6899 O 649.048 -2.33209 5.20547 0
M  V30 6900 O 647.982 -0.560136 5.99288 0
M  V30 6901 H 651.808 0.730171 2.94792 0
M  V30 6902 H 649.393 0.422635 1.43297 0
M  V30 6903 H 651.275 -1.51676 3.93157 0
M  V30 6904 H 649.95 -1.70626 2.75079 0
M  V30 6905 H 648.857 0.398794 3.71968 0
M  V30 6906 H 650.19 0.50511 4.89601 0
M  V30 6907 N 651.842 -1.52309 0.404946 0
M  V30 6908 C 652.772 -2.29805 -0.41376 0
M  V30 6909 C 653.753 -1.3384 -1.0498 0
M  V30 6910 O 654.938 -1.62745 -1.05961 0
M  V30 6911 C 652.068 -3.11639 -1.53292 0
M  V30 6912 C 651.022 -4.15616 -1.02211 0
M  V30 6913 C 650.348 -4.8577 -2.23455 0
M  V30 6914 C 651.648 -5.2224 -0.0790725 0
M  V30 6915 H 653.342 -2.98493 0.232878 0
M  V30 6916 H 650.888 -1.43552 0.113441 0
M  V30 6917 H 652.841 -3.64618 -2.11262 0
M  V30 6918 H 651.565 -2.40712 -2.20738 0
M  V30 6919 H 650.224 -3.63641 -0.46484 0
M  V30 6920 H 649.872 -4.11376 -2.89445 0
M  V30 6921 H 649.572 -5.56058 -1.89929 0
M  V30 6922 H 651.096 -5.4156 -2.82038 0
M  V30 6923 H 652.51 -5.70485 -0.567438 0
M  V30 6924 H 650.907 -5.99867 0.167167 0
M  V30 6925 H 651.977 -4.77078 0.867447 0
M  V30 6926 N 653.32 -0.135238 -1.57019 0
M  V30 6927 C 654.23 0.822226 -2.19719 0
M  V30 6928 C 655.246 1.28057 -1.17802 0
M  V30 6929 O 656.422 1.3402 -1.50335 0
M  V30 6930 C 653.487 2.0484 -2.79717 0
M  V30 6931 C 652.548 1.64042 -3.96723 0
M  V30 6932 C 651.781 2.80814 -4.53849 0
M  V30 6933 O 652.004 3.967 -4.0986 0
M  V30 6934 O 650.938 2.56963 -5.44292 0
M  V30 6935 H 654.764 0.318552 -3.02025 0
M  V30 6936 H 652.349 0.0912021 -1.49121 0
M  V30 6937 H 654.231 2.76622 -3.17897 0
M  V30 6938 H 652.906 2.54182 -2.00432 0
M  V30 6939 H 651.813 0.893182 -3.63281 0
M  V30 6940 H 653.146 1.19426 -4.77492 0
M  V30 6941 N 654.798 1.5699 0.138552 0
M  V30 6942 C 655.761 1.97984 1.15478 0
M  V30 6943 C 656.761 0.867416 1.35398 0
M  V30 6944 O 657.951 1.13387 1.32246 0
M  V30 6945 C 655.083 2.3031 2.51337 0
M  V30 6946 H 656.276 2.88953 0.802896 0
M  V30 6947 H 653.829 1.51555 0.382189 0
M  V30 6948 H 654.564 1.42159 2.91481 0
M  V30 6949 H 654.349 3.11425 2.38237 0
M  V30 6950 H 655.839 2.62834 3.24512 0
M  V30 6951 N 656.276 -0.40816 1.52223 0
M  V30 6952 C 657.523 -1.15502 1.66329 0
M  V30 6953 C 657.851 -1.90474 0.393701 0
M  V30 6954 O 657.106 -1.85507 -0.623356 0
M  V30 6955 C 657.405 -2.17422 2.83659 0
M  V30 6956 C 657.071 -1.5925 4.21841 0
M  V30 6957 C 655.733 -1.4311 4.59427 0
M  V30 6958 C 658.085 -1.16776 5.0795 0
M  V30 6959 C 655.413 -0.830148 5.80797 0
M  V30 6960 C 657.765 -0.580988 6.29926 0
M  V30 6961 C 656.429 -0.406729 6.6626 0
M  V30 6962 H 655.699 -0.422653 0.608642 0
M  V30 6963 H 658.346 -0.442114 1.86327 0
M  V30 6964 H 656.651 -2.94861 2.58001 0
M  V30 6965 H 658.348 -2.75084 2.9177 0
M  V30 6966 H 654.938 -1.72796 3.92224 0
M  V30 6967 H 659.122 -1.28055 4.79495 0
M  V30 6968 H 654.378 -0.68316 6.07571 0
M  V30 6969 H 658.552 -0.243488 6.95974 0
M  V30 6970 H 656.179 0.0610366 7.60175 0
M  V30 6971 N 657.755 -1.42862 -0.66545 0
M  V30 6972 C 658.985 -1.47032 -1.45138 0
M  V30 6973 C 659.393 -0.0829977 -1.89018 0
M  V30 6974 O 658.736 0.914551 -1.59316 0
M  V30 6975 C 658.798 -2.34302 -2.72659 0
M  V30 6976 C 658.462 -3.82034 -2.50796 0
M  V30 6977 C 659.459 -4.73453 -2.14799 0
M  V30 6978 C 657.144 -4.26397 -2.655 0
M  V30 6979 C 659.138 -6.07228 -1.93785 0
M  V30 6980 C 656.825 -5.6023 -2.44103 0
M  V30 6981 C 657.823 -6.50462 -2.08299 0
M  V30 6982 O 657.511 -7.8182 -1.87116 0
M  V30 6983 H 657.243 -0.501969 -0.452772 0
M  V30 6984 H 659.797 -1.88137 -0.82423 0
M  V30 6985 H 658.027 -1.88063 -3.37889 0
M  V30 6986 H 659.716 -2.29818 -3.34572 0
M  V30 6987 H 660.482 -4.4046 -2.03026 0
M  V30 6988 H 656.361 -3.56448 -2.92345 0
M  V30 6989 H 659.905 -6.7762 -1.65763 0
M  V30 6990 H 655.802 -5.92793 -2.55475 0
M  V30 6991 H 656.57 -7.93274 -2.01639 0
M  V30 6992 N 659.233 0.902656 -1.29189 0
M  V30 6993 C 660.458 1.69167 -1.19989 0
M  V30 6994 C 660.883 1.86607 0.236495 0
M  V30 6995 O 660.241 1.38425 1.17082 0
M  V30 6996 C 660.289 3.05532 -1.91527 0
M  V30 6997 O 659.393 3.93621 -1.2303 0
M  V30 6998 H 658.734 0.517584 -0.415936 0
M  V30 6999 H 661.264 1.12785 -1.70706 0
M  V30 7000 H 661.274 3.55693 -1.99866 0
M  V30 7001 H 659.949 2.92156 -2.96003 0
M  V30 7002 H 658.526 3.52055 -1.22928 0
M  V30 7003 N 660.711 1.11618 1.11262 0
M  V30 7004 C 661.988 0.777876 1.79467 0
M  V30 7005 C 662.368 -0.733774 1.97937 0
M  V30 7006 O 661.716 -1.66443 1.56554 0
M  V30 7007 C 661.926 1.5431 3.13032 0
M  V30 7008 C 663.274 1.72357 3.88044 0
M  V30 7009 O 664.298 1.5075 3.22727 0
M  V30 7010 O 663.157 2.08276 5.05256 0
M  V30 7011 H 660.251 0.282018 0.777428 0
M  V30 7012 H 662.797 1.21971 1.17988 0
M  V30 7013 H 661.569 2.57132 2.94956 0
M  V30 7014 H 661.192 1.09495 3.82226 0
M  V30 7015 N 662.189 -1.289 0.906776 0
M  V30 7016 C 663.6 -1.77336 0.58384 0
M  V30 7017 C 663.951 -1.74304 -0.900697 0
M  V30 7018 O 663.076 -1.33335 -1.70443 0
M  V30 7019 C 663.671 -3.22019 1.05304 0
M  V30 7020 C 662.23 -3.68205 0.781148 0
M  V30 7021 C 661.377 -2.48837 1.22373 0
M  V30 7022 H 664.328 -1.15462 1.08877 0
M  V30 7023 H 664.349 -3.78481 0.391414 0
M  V30 7024 H 663.861 -3.24194 2.13353 0
M  V30 7025 H 661.962 -3.71497 -0.28643 0
M  V30 7026 H 662.075 -4.58675 1.384 0
M  V30 7027 H 660.439 -2.46461 0.642594 0
M  V30 7028 H 661.222 -2.53736 2.31242 0
M  V30 7029 N 663.667 -0.670007 -1.42649 0
M  V30 7030 C 664.599 0.0501746 -2.29145 0
M  V30 7031 C 665.612 0.770331 -1.43422 0
M  V30 7032 O 666.801 0.625288 -1.6719 0
M  V30 7033 C 663.901 1.09463 -3.20735 0
M  V30 7034 C 663.074 0.44926 -4.35087 0
M  V30 7035 C 662.133 1.39285 -5.07431 0
M  V30 7036 O 661.159 0.894997 -5.6212 0
M  V30 7037 N 662.361 2.72631 -5.12496 0
M  V30 7038 H 665.126 -0.692312 -2.91594 0
M  V30 7039 H 662.687 -0.514056 -1.53522 0
M  V30 7040 H 664.679 1.72705 -3.65999 0
M  V30 7041 H 663.249 1.73891 -2.59771 0
M  V30 7042 H 662.469 -0.362573 -3.92529 0
M  V30 7043 H 663.757 -0.000544776 -5.088 0
M  V30 7044 H 663.155 3.15623 -4.69467 0
M  V30 7045 H 661.712 3.31132 -5.61422 0
M  V30 7046 N 665.145 1.52092 -0.413018 0
M  V30 7047 C 666.393 2.01456 0.161178 0
M  V30 7048 C 666.714 1.30034 1.45314 0
M  V30 7049 O 665.984 0.427435 1.9118 0
M  V30 7050 H 664.564 0.744376 0.0625526 0
M  V30 7051 H 667.226 1.86974 -0.550151 0
M  V30 7052 H 666.322 3.1008 0.354517 0
M  V30 7053 N 666.623 0.143563 1.56945 0
M  V30 7054 C 667.869 -0.50916 1.96304 0
M  V30 7055 C 668.202 -1.64741 1.0283 0
M  V30 7056 O 667.477 -1.94374 0.0700361 0
M  V30 7057 C 667.76 -1.0186 3.45393 0
M  V30 7058 C 667.613 0.117923 4.49645 0
M  V30 7059 C 668.932 -1.90151 3.96901 0
M  V30 7060 H 666.051 -0.183608 0.713763 0
M  V30 7061 H 668.693 0.224095 1.88674 0
M  V30 7062 H 666.843 -1.64345 3.52027 0
M  V30 7063 H 668.515 0.754145 4.55094 0
M  V30 7064 H 666.758 0.777568 4.26774 0
M  V30 7065 H 667.429 -0.280187 5.51288 0
M  V30 7066 H 669.905 -1.375 3.92725 0
M  V30 7067 H 668.781 -2.22707 5.0169 0
M  V30 7068 H 669.042 -2.83718 3.39052 0
M  V30 7069 N 668.101 -1.57061 -0.130224 0
M  V30 7070 C 669.512 -1.73539 -0.68856 0
M  V30 7071 C 669.863 -0.760554 -1.80859 0
M  V30 7072 O 668.988 0.0690796 -2.1629 0
M  V30 7073 C 669.583 -3.14666 -1.25581 0
M  V30 7074 C 668.142 -3.32689 -1.76055 0
M  V30 7075 C 667.289 -2.69436 -0.655712 0
M  V30 7076 H 670.24 -1.58412 0.0956002 0
M  V30 7077 H 670.261 -3.15595 -2.12556 0
M  V30 7078 H 669.773 -3.85593 -0.440412 0
M  V30 7079 H 667.874 -2.66786 -2.60108 0
M  V30 7080 H 667.987 -4.4077 -1.87772 0
M  V30 7081 H 666.351 -2.30362 -1.08654 0
M  V30 7082 H 667.134 -3.42979 0.14852 0
M  V30 7083 N 669.579 0.400081 -1.52437 0
M  V30 7084 C 670.809 1.16598 -1.70553 0
M  V30 7085 C 671.217 1.8451 -0.418665 0
M  V30 7086 O 670.56 1.73069 0.615855 0
M  V30 7087 C 670.622 2.26517 -2.7916 0
M  V30 7088 C 670.286 1.78666 -4.20628 0
M  V30 7089 C 671.283 1.26946 -5.04163 0
M  V30 7090 C 668.968 1.85225 -4.66902 0
M  V30 7091 C 670.962 0.824187 -6.32049 0
M  V30 7092 C 668.649 1.40309 -5.94774 0
M  V30 7093 C 669.647 0.889922 -6.77178 0
M  V30 7094 O 669.335 0.447281 -8.02655 0
M  V30 7095 H 669.067 0.356023 -0.574651 0
M  V30 7096 H 671.621 0.475598 -1.99818 0
M  V30 7097 H 669.851 2.98946 -2.45292 0
M  V30 7098 H 671.54 2.88237 -2.85787 0
M  V30 7099 H 672.306 1.21244 -4.69601 0
M  V30 7100 H 668.185 2.24111 -4.02859 0
M  V30 7101 H 671.729 0.422958 -6.96317 0
M  V30 7102 H 667.626 1.45693 -6.28843 0
M  V30 7103 H 668.394 0.569768 -8.16514 0
M  V30 7104 N 671.057 1.43213 0.657864 0
M  V30 7105 C 672.468 1.39669 1.23893 0
M  V30 7106 C 672.819 0.0984217 1.95953 0
M  V30 7107 O 671.944 -0.8023 2.00978 0
M  V30 7108 C 672.539 2.53004 2.25332 0
M  V30 7109 C 671.098 2.5274 2.78926 0
M  V30 7110 C 670.245 2.30941 1.53497 0
M  V30 7111 H 673.196 1.52181 0.450172 0
M  V30 7112 H 673.217 2.24226 3.07413 0
M  V30 7113 H 672.729 3.4748 1.72856 0
M  V30 7114 H 670.83 1.6213 3.35477 0
M  V30 7115 H 670.943 3.50352 3.26787 0
M  V30 7116 H 669.307 1.7952 1.80678 0
M  V30 7117 H 670.09 3.27496 1.02963 0
M  V30 7118 N 672.536 -0.895792 1.29666 0
M  V30 7119 C 673.446 -2.03329 1.17024 0
M  V30 7120 C 674.462 -1.73753 0.0925962 0
M  V30 7121 O 675.638 -1.99071 0.305431 0
M  V30 7122 C 672.703 -3.36072 0.851841 0
M  V30 7123 C 671.764 -3.7914 2.01373 0
M  V30 7124 C 670.997 -5.05549 1.71043 0
M  V30 7125 O 671.22 -5.66874 0.633213 0
M  V30 7126 O 670.154 -5.44764 2.5596 0
M  V30 7127 H 673.98 -2.16918 2.12556 0
M  V30 7128 H 671.565 -1.02007 1.09156 0
M  V30 7129 H 673.447 -4.15729 0.689006 0
M  V30 7130 H 672.122 -3.23616 -0.0736634 0
M  V30 7131 H 671.029 -3.00233 2.23183 0
M  V30 7132 H 672.362 -3.96186 2.92058 0
M  V30 7133 N 674.014 -1.12206 -1.10668 0
M  V30 7134 C 674.977 -0.790867 -2.15123 0
M  V30 7135 C 675.977 0.193618 -1.5963 0
M  V30 7136 O 677.167 -0.0318728 -1.74171 0
M  V30 7137 C 674.299 -0.174797 -3.40452 0
M  V30 7138 H 675.492 -1.7163 -2.45933 0
M  V30 7139 H 673.045 -0.924993 -1.2599 0
M  V30 7140 H 673.78 0.760478 -3.15257 0
M  V30 7141 H 673.565 -0.88358 -3.82015 0
M  V30 7142 H 675.055 0.0405162 -4.1758 0
M  V30 7143 N 675.492 1.28418 -0.913599 0
M  V30 7144 C 676.439 2.27301 -0.400373 0
M  V30 7145 C 677.409 1.57582 0.52509 0
M  V30 7146 O 678.594 1.85482 0.447318 0
M  V30 7147 C 675.734 3.43284 0.35361 0
M  V30 7148 C 674.847 4.27752 -0.604341 0
M  V30 7149 C 673.982 5.30934 0.168075 0
M  V30 7150 C 673.021 6.07065 -0.783499 0
M  V30 7151 N 672.158 7.02086 -0.0446112 0
M  V30 7152 H 676.998 2.70579 -1.24865 0
M  V30 7153 H 674.535 1.33067 -0.627028 0
M  V30 7154 H 676.493 4.09322 0.806945 0
M  V30 7155 H 675.123 3.00997 1.16623 0
M  V30 7156 H 674.175 3.61759 -1.17621 0
M  V30 7157 H 675.487 4.80682 -1.33216 0
M  V30 7158 H 674.641 6.02855 0.681979 0
M  V30 7159 H 673.38 4.78771 0.928947 0
M  V30 7160 H 672.385 5.33995 -1.30878 0
M  V30 7161 H 673.61 6.61317 -1.54392 0
M  V30 7162 H 671.556 6.52273 0.698272 0
M  V30 7163 H 671.473 7.52637 -0.712258 0
M  V30 7164 H 672.741 7.78205 0.449102 0
M  V30 7165 N 676.97 0.677563 1.42291 0
M  V30 7166 C 678.219 0.198173 2.00724 0
M  V30 7167 C 678.532 -1.20325 1.54211 0
M  V30 7168 O 679.738 -1.77916 2.05081 0
M  V30 7169 C 678.194 0.303432 3.58619 0
M  V30 7170 C 677.802 1.70909 4.14119 0
M  V30 7171 C 679.546 -0.117103 4.24338 0
M  V30 7172 C 677.453 1.76696 5.64387 0
M  V30 7173 H 676.383 0.070329 0.750713 0
M  V30 7174 H 679.034 0.843147 1.62982 0
M  V30 7175 H 677.416 -0.409482 3.93877 0
M  V30 7176 H 678.59 2.44931 3.90315 0
M  V30 7177 H 676.905 2.07771 3.6086 0
M  V30 7178 H 679.502 -0.0940471 5.34617 0
M  V30 7179 H 679.845 -1.15283 4.00019 0
M  V30 7180 H 680.378 0.5449 3.9405 0
M  V30 7181 H 677.117 2.7826 5.93508 0
M  V30 7182 H 676.637 1.07034 5.90173 0
M  V30 7183 H 678.316 1.52166 6.28852 0
M  V30 7184 N 678.448 -1.51871 0.421078 0
M  V30 7185 C 679.696 -2.01539 -0.150492 0
M  V30 7186 C 680.017 -1.30803 -1.44623 0
M  V30 7187 O 679.287 -0.437568 -1.90951 0
M  V30 7188 H 677.867 -0.744698 -0.0586041 0
M  V30 7189 H 680.529 -1.8668 0.560059 0
M  V30 7190 H 679.625 -3.10264 -0.338068 0
M  V30 7191 N 679.926 -0.151884 -1.56866 0
M  V30 7192 C 681.342 0.204486 -1.58285 0
M  V30 7193 C 681.542 1.6431 -1.16639 0
M  V30 7194 O 680.598 2.37077 -0.868946 0
M  V30 7195 C 681.911 -0.0587019 -3.00643 0
M  V30 7196 C 683.459 0.00462303 -3.13 0
M  V30 7197 C 683.934 -0.231297 -4.57416 0
M  V30 7198 N 685.425 -0.178394 -4.62856 0
M  V30 7199 C 686.16 -0.335379 -5.72418 0
M  V30 7200 N 685.656 -0.550355 -6.90611 0
M  V30 7201 N 687.449 -0.272641 -5.61438 0
M  V30 7202 H 679.6 -1.09116 -1.82229 0
M  V30 7203 H 681.863 -0.432311 -0.843689 0
M  V30 7204 H 681.569 -1.05453 -3.35518 0
M  V30 7205 H 681.443 0.658508 -3.71407 0
M  V30 7206 H 683.83 0.991009 -2.77962 0
M  V30 7207 H 683.911 -0.744992 -2.44711 0
M  V30 7208 H 683.555 -1.2148 -4.93158 0
M  V30 7209 H 683.485 0.5387 -5.23837 0
M  V30 7210 H 685.976 -0.0170923 -3.77896 0
M  V30 7211 H 686.289 -0.660116 -7.69976 0
M  V30 7212 H 684.634 -0.586736 -6.92519 0
M  V30 7213 H 687.825 -0.105421 -4.67981 0
M  V30 7214 H 687.998 -0.398418 -6.46774 0
M  V30 7215 N 681.404 1.57128 0.121893 0
M  V30 7216 C 682.651 1.847 0.830188 0
M  V30 7217 C 682.979 0.736543 1.80015 0
M  V30 7218 O 682.234 -0.272358 1.93796 0
M  V30 7219 C 682.533 3.1874 1.61677 0
M  V30 7220 C 682.199 4.43901 0.791361 0
M  V30 7221 C 680.861 4.77887 0.563731 0
M  V30 7222 C 683.213 5.20753 0.215823 0
M  V30 7223 C 680.541 5.86168 -0.249737 0
M  V30 7224 C 682.893 6.29891 -0.584821 0
M  V30 7225 C 681.557 6.6241 -0.822794 0
M  V30 7226 H 680.827 0.675866 0.303787 0
M  V30 7227 H 683.474 1.91276 0.0926894 0
M  V30 7228 H 681.779 3.07728 2.42509 0
M  V30 7229 H 683.476 3.37295 2.16872 0
M  V30 7230 H 680.066 4.17272 0.978867 0
M  V30 7231 H 684.25 4.94851 0.378907 0
M  V30 7232 H 679.506 6.0979 -0.44336 0
M  V30 7233 H 683.68 6.88624 -1.03779 0
M  V30 7234 H 681.307 7.46147 -1.45496 0
M  V30 7235 N 682.882 -0.391992 1.52647 0
M  V30 7236 C 684.128 -1.139 1.67793 0
M  V30 7237 C 684.461 -1.89711 0.41514 0
M  V30 7238 O 683.736 -1.85431 -0.586979 0
M  V30 7239 C 684.019 -2.11966 2.91105 0
M  V30 7240 C 683.872 -1.39939 4.27478 0
M  V30 7241 C 685.191 -3.1243 3.09961 0
M  V30 7242 H 682.31 -0.412707 0.610608 0
M  V30 7243 H 684.952 -0.422725 1.85238 0
M  V30 7244 H 683.102 -2.73048 2.76364 0
M  V30 7245 H 684.774 -0.818439 4.53982 0
M  V30 7246 H 683.017 -0.701246 4.28095 0
M  V30 7247 H 683.688 -2.1158 5.09841 0
M  V30 7248 H 686.164 -2.61435 3.23714 0
M  V30 7249 H 685.04 -3.78294 3.97725 0
M  V30 7250 H 685.301 -3.81127 2.24042 0
M  V30 7251 N 684.36 -1.4356 -0.65026 0
M  V30 7252 C 685.606 -1.45549 -1.41221 0
M  V30 7253 C 685.939 -0.0805472 -1.94033 0
M  V30 7254 O 685.214 0.899043 -1.72475 0
M  V30 7255 C 685.497 -2.50028 -2.59148 0
M  V30 7256 C 685.35 -3.96808 -2.1181 0
M  V30 7257 C 686.669 -2.51212 -3.61359 0
M  V30 7258 H 683.788 -0.529967 -0.512156 0
M  V30 7259 H 686.43 -1.75127 -0.736933 0
M  V30 7260 H 684.58 -2.24937 -3.16758 0
M  V30 7261 H 686.252 -4.32966 -1.59178 0
M  V30 7262 H 684.495 -4.09498 -1.43156 0
M  V30 7263 H 685.166 -4.6553 -2.96625 0
M  V30 7264 H 687.642 -2.73583 -3.13515 0
M  V30 7265 H 686.518 -3.26252 -4.41419 0
M  V30 7266 H 686.779 -1.54701 -4.1415 0
M  V30 7267 N 685.838 0.888903 -1.30139 0
M  V30 7268 C 686.77 1.99972 -1.11999 0
M  V30 7269 C 687.783 1.62673 -0.0643619 0
M  V30 7270 O 688.972 1.75788 -0.309983 0
M  V30 7271 C 686.072 3.31904 -0.685059 0
M  V30 7272 C 685.245 3.97665 -1.82158 0
M  V30 7273 C 684.304 5.07894 -1.37585 0
M  V30 7274 O 683.33 5.2974 -2.08241 0
M  V30 7275 N 684.532 5.7995 -0.252697 0
M  V30 7276 H 687.297 2.16085 -2.07671 0
M  V30 7277 H 684.858 1.06175 -1.22223 0
M  V30 7278 H 686.85 4.03005 -0.369964 0
M  V30 7279 H 685.42 3.12084 0.179507 0
M  V30 7280 H 684.64 3.19787 -2.305 0
M  V30 7281 H 685.928 4.3834 -2.58332 0
M  V30 7282 H 685.326 5.647 0.336141 0
M  V30 7283 H 683.883 6.518 0.00296813 0
M  V30 7284 N 687.317 1.12792 1.10072 0
M  V30 7285 C 688.265 0.794523 2.18609 0
M  V30 7286 C 689.259 -0.220271 1.67962 0
M  V30 7287 O 690.465 -0.0780938 1.79831 0
M  V30 7288 H 686.84 0.239123 0.712969 0
M  V30 7289 H 688.811 1.71823 2.43966 0
M  V30 7290 C 687.56 0.269548 3.46654 0
M  V30 7291 H 686.883 1.04171 3.8599 0
M  V30 7292 H 688.323 0.0746242 4.23934 0
M  V30 7293 C 686.782 -1.00333 3.21613 0
M  V30 7294 O 687.312 -2.08042 3.4363 0
M  V30 7295 N 685.518 -0.931763 2.75257 0
M  V30 7296 H 685.065 -0.0551197 2.57541 0
M  V30 7297 H 685.023 -1.78405 2.58881 0
M  V30 7298 N 688.795 -1.27931 0.920396 0
M  V30 7299 C 690.041 -1.94977 0.557832 0
M  V30 7300 C 690.374 -1.72224 -0.897365 0
M  V30 7301 O 689.649 -1.04705 -1.63912 0
M  V30 7302 C 689.932 -3.49289 0.875741 0
M  V30 7303 C 689.785 -3.81416 2.38416 0
M  V30 7304 C 691.104 -4.38486 0.376517 0
M  V30 7305 H 688.223 -0.708164 0.20414 0
M  V30 7306 H 690.865 -1.5118 1.15085 0
M  V30 7307 H 689.015 -3.86724 0.371062 0
M  V30 7308 H 690.687 -3.53813 2.95997 0
M  V30 7309 H 688.93 -3.28225 2.83639 0
M  V30 7310 H 689.601 -4.89198 2.55713 0
M  V30 7311 H 692.077 -4.08161 0.808945 0
M  V30 7312 H 690.953 -5.45296 0.627976 0
M  V30 7313 H 691.214 -4.36143 -0.723293 0
M  V30 7314 N 690.273 -0.685099 -1.4193 0
M  V30 7315 C 691.498 -0.218842 -2.06242 0
M  V30 7316 C 691.923 1.11923 -1.51178 0
M  V30 7317 O 691.281 1.69837 -0.634446 0
M  V30 7318 C 691.329 -0.175592 -3.60172 0
M  V30 7319 O 690.433 0.852776 -4.03487 0
M  V30 7320 H 689.774 -0.109531 -0.654904 0
M  V30 7321 H 692.304 -0.937013 -1.81882 0
M  V30 7322 H 692.314 -0.00291151 -4.08 0
M  V30 7323 H 690.989 -1.15222 -3.99621 0
M  V30 7324 H 689.566 0.650301 -3.67186 0
M  V30 7325 N 691.751 1.51645 -0.429126 0
M  V30 7326 C 692.714 2.26116 0.374726 0
M  V30 7327 C 693.714 1.29242 0.956714 0
M  V30 7328 O 694.904 1.53022 0.832452 0
M  V30 7329 C 692.036 3.04669 1.52937 0
M  V30 7330 H 693.229 2.9861 -0.277818 0
M  V30 7331 H 690.782 1.55236 -0.182097 0
M  V30 7332 H 691.517 2.36571 2.21821 0
M  V30 7333 H 691.302 3.75814 1.11833 0
M  V30 7334 H 692.792 3.61102 2.09751 0
M  V30 7335 N 693.229 0.160201 1.56784 0
M  V30 7336 C 694.161 -0.80564 2.14574 0
M  V30 7337 C 695.174 -1.20154 1.09849 0
M  V30 7338 O 696.363 -1.14333 1.37078 0
M  V30 7339 C 693.463 -2.09434 2.6644 0
M  V30 7340 C 692.636 -1.86375 3.95706 0
M  V30 7341 C 691.695 -2.99358 4.32749 0
M  V30 7342 O 690.721 -2.70475 5.00831 0
M  V30 7343 N 691.923 -4.26867 3.93402 0
M  V30 7344 H 694.688 -0.311644 2.98075 0
M  V30 7345 H 692.249 -0.0229465 1.61884 0
M  V30 7346 H 694.241 -2.84091 2.88226 0
M  V30 7347 H 692.811 -2.50057 1.8759 0
M  V30 7348 H 692.031 -0.956821 3.82412 0
M  V30 7349 H 693.319 -1.68322 4.80151 0
M  V30 7350 H 692.717 -4.53197 3.38569 0
M  V30 7351 H 691.274 -4.98263 4.20211 0
M  V30 7352 N 694.707 -1.5719 -0.113559 0
M  V30 7353 C 695.654 -2.00736 -1.13901 0
M  V30 7354 C 696.624 -0.88044 -1.40846 0
M  V30 7355 O 697.809 -1.14507 -1.5262 0
M  V30 7356 C 694.949 -2.42132 -2.45899 0
M  V30 7357 C 694.062 -3.68264 -2.25844 0
M  V30 7358 C 693.197 -3.98617 -3.5111 0
M  V30 7359 C 692.236 -5.17915 -3.26236 0
M  V30 7360 N 691.373 -5.44111 -4.4372 0
M  V30 7361 H 696.213 -2.88128 -0.760677 0
M  V30 7362 H 693.75 -1.42523 -0.364099 0
M  V30 7363 H 695.708 -2.6417 -3.22908 0
M  V30 7364 H 694.338 -1.57775 -2.81615 0
M  V30 7365 H 693.39 -3.53809 -1.39726 0
M  V30 7366 H 694.702 -4.55425 -2.03444 0
M  V30 7367 H 693.856 -4.21333 -4.36536 0
M  V30 7368 H 692.595 -3.09942 -3.76546 0
M  V30 7369 H 691.6 -4.95038 -2.39202 0
M  V30 7370 H 692.825 -6.08172 -3.02165 0
M  V30 7371 H 690.771 -4.58394 -4.69266 0
M  V30 7372 H 690.688 -6.25606 -4.24444 0
M  V30 7373 H 691.956 -5.71351 -5.30263 0
M  V30 7374 N 696.185 0.383891 -1.52853 0
M  V30 7375 C 697.462 1.14296 -1.58732 0
M  V30 7376 C 697.842 2.07585 -0.383611 0
M  V30 7377 O 697.19 2.1971 0.627661 0
M  V30 7378 C 697.4 1.89816 -2.92867 0
M  V30 7379 C 698.748 2.44998 -3.46787 0
M  V30 7380 O 699.772 1.99966 -2.94774 0
M  V30 7381 O 698.631 3.2727 -4.37672 0
M  V30 7382 H 695.725 0.52326 -0.640413 0
M  V30 7383 H 698.271 0.388631 -1.6519 0
M  V30 7384 H 697.043 1.21626 -3.71918 0
M  V30 7385 H 696.666 2.72199 -2.89816 0
M  V30 7386 N 697.663 1.43903 0.642637 0
M  V30 7387 C 698.911 1.45791 1.39962 0
M  V30 7388 C 699.232 0.0873144 1.94804 0
M  V30 7389 O 698.502 -0.878825 1.75081 0
M  V30 7390 H 697.082 0.536797 0.519479 0
M  V30 7391 H 699.744 1.7959 0.757189 0
M  V30 7392 H 698.84 2.17665 2.2367 0
M  V30 7393 N 699.141 -0.881989 1.30609 0
M  V30 7394 C 700.051 -2.02076 1.19174 0
M  V30 7395 C 701.067 -1.73645 0.11102 0
M  V30 7396 O 702.243 -1.98735 0.326528 0
M  V30 7397 C 699.308 -3.3515 0.887438 0
M  V30 7398 C 698.369 -3.76983 2.05383 0
M  V30 7399 C 697.602 -5.03707 1.76395 0
M  V30 7400 O 697.825 -5.66171 0.693302 0
M  V30 7401 O 696.759 -5.42019 2.61723 0
M  V30 7402 H 700.585 -2.14652 2.14845 0
M  V30 7403 H 698.17 -1.00843 1.10232 0
M  V30 7404 H 700.052 -4.14975 0.73306 0
M  V30 7405 H 698.727 -3.23676 -0.0393354 0
M  V30 7406 H 697.634 -2.97849 2.26355 0
M  V30 7407 H 698.967 -3.93066 2.96243 0
M  V30 7408 N 700.619 -1.13374 -1.09472 0
M  V30 7409 C 701.566 -0.810682 -2.16094 0
M  V30 7410 C 702.536 0.227003 -1.64541 0
M  V30 7411 O 703.721 0.0993538 -1.90541 0
M  V30 7412 C 700.861 -0.282336 -3.43943 0
M  V30 7413 C 699.974 -1.37902 -4.09398 0
M  V30 7414 C 699.109 -0.809066 -5.25002 0
M  V30 7415 C 698.148 -1.88419 -5.82379 0
M  V30 7416 N 697.285 -1.33221 -6.89345 0
M  V30 7417 H 702.125 -1.72397 -2.43071 0
M  V30 7418 H 699.662 -0.860564 -1.19301 0
M  V30 7419 H 701.62 0.0421189 -4.17179 0
M  V30 7420 H 700.25 0.594083 -3.17286 0
M  V30 7421 H 699.302 -1.82008 -3.34032 0
M  V30 7422 H 700.614 -2.19161 -4.48074 0
M  V30 7423 H 699.768 -0.435867 -6.05132 0
M  V30 7424 H 698.507 0.0346058 -4.87688 0
M  V30 7425 H 697.512 -2.26646 -5.00911 0
M  V30 7426 H 698.737 -2.73125 -6.21755 0
M  V30 7427 H 696.683 -0.510535 -6.5401 0
M  V30 7428 H 696.6 -2.08129 -7.26786 0
M  V30 7429 H 697.868 -0.986565 -7.73232 0
M  V30 7430 N 702.098 1.27442 -0.927168 0
M  V30 7431 C 703.323 1.99036 -0.583042 0
M  V30 7432 C 703.748 1.68711 0.83176 0
M  V30 7433 O 703.106 0.927081 1.55804 0
M  V30 7434 C 703.154 3.51271 -0.814925 0
M  V30 7435 O 702.258 4.12226 0.119742 0
M  V30 7436 H 701.599 0.624883 -0.224538 0
M  V30 7437 H 704.129 1.62263 -1.24628 0
M  V30 7438 H 704.139 4.01411 -0.730282 0
M  V30 7439 H 702.814 3.72676 -1.84623 0
M  V30 7440 H 701.391 3.72897 -0.0147688 0
M  V30 7441 N 703.576 0.692616 1.41565 0
M  V30 7442 C 704.992 0.363878 1.55397 0
M  V30 7443 C 705.192 -1.1294 1.66874 0
M  V30 7444 O 704.248 -1.91517 1.64552 0
M  V30 7445 C 705.561 1.10982 2.7947 0
M  V30 7446 C 707.109 1.09387 2.93263 0
M  V30 7447 C 707.584 1.8215 4.20221 0
M  V30 7448 N 709.075 1.79105 4.27172 0
M  V30 7449 C 709.81 2.32247 5.2426 0
M  V30 7450 N 709.306 2.93847 6.27396 0
M  V30 7451 N 711.099 2.22519 5.1618 0
M  V30 7452 H 703.25 1.66116 1.3236 0
M  V30 7453 H 705.513 0.700848 0.63837 0
M  V30 7454 H 705.219 2.1647 2.77188 0
M  V30 7455 H 705.093 0.686492 3.709 0
M  V30 7456 H 707.48 0.0472638 2.95062 0
M  V30 7457 H 707.561 1.55623 2.03015 0
M  V30 7458 H 707.205 2.86789 4.19183 0
M  V30 7459 H 707.135 1.33351 5.09436 0
M  V30 7460 H 709.626 1.34191 3.53272 0
M  V30 7461 H 709.939 3.31972 6.97864 0
M  V30 7462 H 708.284 2.97924 6.27906 0
M  V30 7463 H 711.475 1.7407 4.34531 0
M  V30 7464 H 711.648 2.64239 5.91677 0
M  V30 7465 N 705.054 -1.51416 0.437162 0
M  V30 7466 C 706.3 -2.02386 -0.129555 0
M  V30 7467 C 706.633 -1.32071 -1.42376 0
M  V30 7468 O 705.908 -0.43559 -1.8956 0
M  V30 7469 C 706.191 -3.5841 -0.348487 0
M  V30 7470 C 706.044 -4.39341 0.964352 0
M  V30 7471 C 707.363 -4.25654 -1.11834 0
M  V30 7472 H 704.482 -0.735587 -0.0456109 0
M  V30 7473 H 707.124 -1.81055 0.576124 0
M  V30 7474 H 705.274 -3.76716 -0.949592 0
M  V30 7475 H 706.946 -4.32685 1.59942 0
M  V30 7476 H 705.189 -4.04432 1.56898 0
M  V30 7477 H 705.86 -5.4667 0.765212 0
M  V30 7478 H 708.336 -4.11617 -0.609165 0
M  V30 7479 H 707.212 -5.34704 -1.24029 0
M  V30 7480 H 707.473 -3.86502 -2.14636 0
M  V30 7481 N 706.532 -0.168513 -1.56696 0
M  V30 7482 C 707.479 0.762875 -2.17828 0
M  V30 7483 C 708.449 1.22892 -1.11745 0
M  V30 7484 O 709.634 1.29759 -1.39883 0
M  V30 7485 C 706.774 1.9879 -2.82093 0
M  V30 7486 C 705.887 1.56568 -4.02629 0
M  V30 7487 C 705.022 2.74416 -4.54829 0
M  V30 7488 C 704.061 2.28671 -5.67782 0
M  V30 7489 N 703.198 3.39602 -6.14504 0
M  V30 7490 H 708.038 0.23479 -2.97074 0
M  V30 7491 H 705.575 0.104163 -1.46731 0
M  V30 7492 H 707.533 2.70636 -3.17509 0
M  V30 7493 H 706.163 2.48973 -2.05456 0
M  V30 7494 H 705.215 0.744067 -3.73052 0
M  V30 7495 H 706.527 1.18988 -4.844 0
M  V30 7496 H 705.681 3.54423 -4.92412 0
M  V30 7497 H 704.42 3.15254 -3.7211 0
M  V30 7498 H 703.425 1.4711 -5.29753 0
M  V30 7499 H 704.65 1.88894 -6.52301 0
M  V30 7500 H 702.596 3.80021 -5.34715 0
M  V30 7501 H 702.513 3.06105 -6.91257 0
M  V30 7502 H 703.781 4.19902 -6.56737 0
M  V30 7503 N 708.01 1.57248 0.105221 0
M  V30 7504 C 709.256 1.85845 0.811753 0
M  V30 7505 C 709.589 0.756219 1.78871 0
M  V30 7506 O 708.864 -0.236736 1.93054 0
M  V30 7507 C 709.147 3.25059 1.54947 0
M  V30 7508 C 709 4.45898 0.591185 0
M  V30 7509 C 710.319 3.6203 2.50245 0
M  V30 7510 H 707.438 0.675973 0.293649 0
M  V30 7511 H 710.08 1.89849 0.0756269 0
M  V30 7512 H 708.23 3.21776 2.17698 0
M  V30 7513 H 709.902 4.61291 -0.0285352 0
M  V30 7514 H 708.145 4.33693 -0.0962343 0
M  V30 7515 H 708.816 5.40009 1.1443 0
M  V30 7516 H 711.292 3.66192 1.97593 0
M  V30 7517 H 710.168 4.60389 2.98886 0
M  V30 7518 H 710.429 2.90176 3.33542 0
M  V30 7519 N 709.488 -0.375779 1.53054 0
M  V30 7520 C 710.435 -1.45978 1.78771 0
M  V30 7521 C 711.405 -1.53625 0.631552 0
M  V30 7522 O 712.59 -1.69674 0.872667 0
M  V30 7523 C 709.73 -2.8305 1.97425 0
M  V30 7524 C 708.843 -2.84451 3.25134 0
M  V30 7525 C 707.978 -4.13034 3.34031 0
M  V30 7526 C 707.017 -4.08536 4.55812 0
M  V30 7527 N 706.154 -5.2875 4.61918 0
M  V30 7528 H 710.994 -1.23349 2.71273 0
M  V30 7529 H 708.531 -0.598147 1.3439 0
M  V30 7530 H 710.489 -3.62666 2.06225 0
M  V30 7531 H 709.119 -3.04101 1.0827 0
M  V30 7532 H 708.171 -1.97127 3.25338 0
M  V30 7533 H 709.483 -2.76998 4.14818 0
M  V30 7534 H 708.637 -5.0106 3.42087 0
M  V30 7535 H 707.376 -4.23226 2.42345 0
M  V30 7536 H 706.381 -3.18897 4.47867 0
M  V30 7537 H 707.606 -3.99955 5.48828 0
M  V30 7538 H 705.552 -5.39547 3.73129 0
M  V30 7539 H 705.469 -5.23426 5.45492 0
M  V30 7540 H 706.737 -6.18637 4.74245 0
M  V30 7541 N 710.966 -1.44241 -0.634997 0
M  V30 7542 C 712.212 -1.47038 -1.39669 0
M  V30 7543 C 712.545 -0.101122 -1.93937 0
M  V30 7544 O 711.82 0.880699 -1.73418 0
M  V30 7545 C 712.103 -2.52763 -2.56482 0
M  V30 7546 C 711.956 -3.99032 -2.07589 0
M  V30 7547 C 713.275 -2.55031 -3.58674 0
M  V30 7548 H 710.394 -0.53537 -0.506506 0
M  V30 7549 H 713.036 -1.75898 -0.718317 0
M  V30 7550 H 711.186 -2.28284 -3.14354 0
M  V30 7551 H 712.858 -4.3463 -1.54577 0
M  V30 7552 H 711.101 -4.10994 -1.38804 0
M  V30 7553 H 711.772 -4.68649 -2.91671 0
M  V30 7554 H 714.248 -2.76893 -3.10595 0
M  V30 7555 H 713.124 -3.30916 -4.37934 0
M  V30 7556 H 713.385 -1.59085 -4.12486 0
M  V30 7557 N 712.444 0.87505 -1.31075 0
M  V30 7558 C 713.86 1.15997 -1.09622 0
M  V30 7559 C 714.06 2.01036 0.136611 0
M  V30 7560 O 713.116 2.38559 0.827397 0
M  V30 7561 C 714.429 1.85702 -2.36506 0
M  V30 7562 C 715.977 1.98425 -2.42067 0
M  V30 7563 C 716.452 2.71544 -3.68819 0
M  V30 7564 N 717.943 2.79084 -3.69684 0
M  V30 7565 C 718.678 3.36259 -4.64454 0
M  V30 7566 N 718.174 3.94406 -5.69575 0
M  V30 7567 N 719.967 3.34169 -4.51982 0
M  V30 7568 H 712.118 0.308258 -2.10151 0
M  V30 7569 H 714.381 0.199145 -0.926847 0
M  V30 7570 H 714.087 1.30663 -3.26527 0
M  V30 7571 H 713.961 2.86017 -2.45915 0
M  V30 7572 H 716.348 2.5263 -1.52518 0
M  V30 7573 H 716.429 0.971682 -2.36626 0
M  V30 7574 H 716.073 2.18008 -4.58732 0
M  V30 7575 H 716.003 3.73198 -3.71525 0
M  V30 7576 H 718.494 2.3781 -2.93691 0
M  V30 7577 H 718.807 4.36129 -6.37974 0
M  V30 7578 H 717.152 3.92797 -5.73355 0
M  V30 7579 H 720.343 2.87977 -3.69035 0
M  V30 7580 H 720.516 3.78431 -5.26017 0
M  V30 7581 N 713.922 1.13953 1.08869 0
M  V30 7582 C 715.168 0.906151 1.8143 0
M  V30 7583 C 715.501 -0.566089 1.85766 0
M  V30 7584 O 714.776 -1.41915 1.33006 0
M  V30 7585 C 715.059 1.50183 3.27287 0
M  V30 7586 C 714.912 3.04359 3.31189 0
M  V30 7587 C 716.231 1.17477 4.24131 0
M  V30 7588 H 713.35 0.330624 0.658678 0
M  V30 7589 H 715.992 1.40873 1.27495 0
M  V30 7590 H 714.142 1.07442 3.73348 0
M  V30 7591 H 715.814 3.55896 2.93488 0
M  V30 7592 H 714.057 3.39053 2.70602 0
M  V30 7593 H 714.728 3.41141 4.33966 0
M  V30 7594 H 717.204 1.5442 3.86385 0
M  V30 7595 H 716.08 1.61795 5.24513 0
M  V30 7596 H 716.341 0.0893312 4.4201 0
M  V30 7597 N 715.4 -1.26948 0.933913 0
M  V30 7598 C 716.348 -2.2862 0.428463 0
M  V30 7599 C 717.342 -1.62144 -0.490464 0
M  V30 7600 O 718.548 -1.76167 -0.36948 0
M  V30 7601 H 714.923 -0.742363 0.120003 0
M  V30 7602 H 716.894 -2.68659 1.29865 0
M  V30 7603 C 715.643 -3.46423 -0.29774 0
M  V30 7604 H 714.966 -3.97792 0.400183 0
M  V30 7605 H 716.406 -4.19505 -0.615736 0
M  V30 7606 C 714.865 -3.01017 -1.51295 0
M  V30 7607 O 715.395 -3.05226 -2.61151 0
M  V30 7608 N 713.601 -2.56442 -1.36696 0
M  V30 7609 H 713.148 -2.53217 -0.473178 0
M  V30 7610 H 713.106 -2.26424 -2.18127 0
M  V30 7611 N 716.879 -0.700114 -1.41195 0
M  V30 7612 C 718.107 -0.242179 -2.05478 0
M  V30 7613 C 718.522 1.11029 -1.52702 0
M  V30 7614 O 717.879 1.69473 -0.677127 0
M  V30 7615 C 717.93 -0.196271 -3.60967 0
M  V30 7616 O 717.651 -1.49532 -4.11791 0
M  V30 7617 C 719.152 0.282102 -4.42401 0
M  V30 7618 H 716.372 -0.111749 -0.661629 0
M  V30 7619 H 718.916 -0.953975 -1.80885 0
M  V30 7620 H 717.071 0.46638 -3.84582 0
M  V30 7621 H 717.485 -1.38545 -5.05871 0
M  V30 7622 H 718.959 0.263093 -5.51373 0
M  V30 7623 H 719.436 1.32174 -4.1884 0
M  V30 7624 H 720.042 -0.349712 -4.2386 0
M  V30 7625 N 718.357 1.51182 -0.445186 0
M  V30 7626 C 719.307 2.24804 0.380394 0
M  V30 7627 C 720.291 1.27344 0.983482 0
M  V30 7628 O 721.483 1.52392 0.900322 0
M  V30 7629 C 718.612 3.09922 1.4766 0
M  V30 7630 C 717.698 4.14816 0.882517 0
M  V30 7631 N 718.089 5.05797 0.0183278 0
M  V30 7632 C 716.387 4.30938 1.14927 0
M  V30 7633 C 717.088 5.8084 -0.316152 0
M  V30 7634 N 716.064 5.42759 0.302214 0
M  V30 7635 H 719.866 2.92508 -0.285737 0
M  V30 7636 H 717.38 1.60342 -0.257733 0
M  V30 7637 H 719.377 3.61249 2.08098 0
M  V30 7638 H 718.037 2.43763 2.14498 0
M  V30 7639 H 719.048 5.16725 -0.348679 0
M  V30 7640 H 715.725 3.76005 1.81457 0
M  V30 7641 H 717.115 6.64115 -1.01986 0
M  V30 7642 N 719.835 0.176821 1.56605 0
M  V30 7643 C 721.083 -0.465793 1.96659 0
M  V30 7644 C 721.404 -1.63406 1.06412 0
M  V30 7645 O 720.674 -1.95457 0.131603 0
M  V30 7646 H 719.254 -0.175072 0.726195 0
M  V30 7647 H 721.916 0.25929 1.93168 0
M  V30 7648 H 721.012 -0.822138 3.01077 0
M  V30 7649 N 721.313 -1.57302 -0.09688 0
M  V30 7650 C 722.562 -1.85183 -0.799388 0
M  V30 7651 C 722.875 -0.765818 -1.79985 0
M  V30 7652 O 724.081 -0.931696 -2.55013 0
M  V30 7653 C 722.537 -3.28399 -1.47249 0
M  V30 7654 C 722.145 -4.45066 -0.511888 0
M  V30 7655 C 723.889 -3.65506 -2.15883 0
M  V30 7656 C 721.796 -5.79315 -1.18948 0
M  V30 7657 H 720.726 -0.690752 -0.302287 0
M  V30 7658 H 723.377 -1.83425 -0.0523104 0
M  V30 7659 H 721.759 -3.24692 -2.26697 0
M  V30 7660 H 722.933 -4.60116 0.250962 0
M  V30 7661 H 721.248 -4.16343 0.0686576 0
M  V30 7662 H 723.845 -4.63087 -2.67309 0
M  V30 7663 H 724.188 -2.94041 -2.94696 0
M  V30 7664 H 724.721 -3.71094 -1.43298 0
M  V30 7665 H 721.46 -6.54007 -0.442198 0
M  V30 7666 H 720.98 -5.68111 -1.9238 0
M  V30 7667 H 722.659 -6.23816 -1.71646 0
M  V30 7668 N 722.791 0.367657 -1.53252 0
M  V30 7669 C 724.038 1.11052 -1.69333 0
M  V30 7670 C 724.366 1.89363 -0.444064 0
M  V30 7671 O 723.621 1.87094 0.573953 0
M  V30 7672 C 723.92 2.09825 -2.89324 0
M  V30 7673 C 723.586 1.4801 -4.25915 0
M  V30 7674 C 722.248 1.30879 -4.6306 0
M  V30 7675 C 724.6 1.03268 -5.10867 0
M  V30 7676 C 721.928 0.675868 -5.82794 0
M  V30 7677 C 724.28 0.41377 -6.31245 0
M  V30 7678 C 722.944 0.229939 -6.67104 0
M  V30 7679 H 722.214 0.406367 -0.619634 0
M  V30 7680 H 724.861 0.392558 -1.87433 0
M  V30 7681 H 723.166 2.87917 -2.65728 0
M  V30 7682 H 724.863 2.67252 -2.98961 0
M  V30 7683 H 721.453 1.62336 -3.96667 0
M  V30 7684 H 725.637 1.15297 -4.82722 0
M  V30 7685 H 720.893 0.521833 -6.09169 0
M  V30 7686 H 725.067 0.0588768 -6.96375 0
M  V30 7687 H 722.694 -0.262562 -7.59746 0
M  V30 7688 N 724.269 1.44576 0.627338 0
M  V30 7689 C 725.497 1.51048 1.41394 0
M  V30 7690 C 725.912 0.136568 1.88305 0
M  V30 7691 O 725.269 -0.858251 1.6106 0
M  V30 7692 C 725.32 2.47837 2.63172 0
M  V30 7693 O 725.041 3.79887 2.18215 0
M  V30 7694 C 726.542 2.63811 3.56257 0
M  V30 7695 H 723.762 0.512171 0.4335 0
M  V30 7696 H 726.306 1.89576 0.766878 0
M  V30 7697 H 724.461 2.12433 3.23961 0
M  V30 7698 H 724.875 4.32177 2.97192 0
M  V30 7699 H 726.349 3.35554 4.38301 0
M  V30 7700 H 726.826 1.69169 4.05313 0
M  V30 7701 H 727.432 3.0013 3.01333 0
M  V30 7702 N 725.747 -0.868086 1.31537 0
M  V30 7703 C 726.996 -1.61607 1.20689 0
M  V30 7704 C 727.309 -1.94204 -0.233275 0
M  V30 7705 O 728.515 -2.67515 -0.463465 0
M  V30 7706 C 726.971 -2.91348 2.11292 0
M  V30 7707 C 726.579 -2.66227 3.60315 0
M  V30 7708 C 728.323 -3.69344 2.09249 0
M  V30 7709 C 726.23 -3.91887 4.42921 0
M  V30 7710 H 725.16 -0.606373 0.448138 0
M  V30 7711 H 727.811 -0.959666 1.56405 0
M  V30 7712 H 726.193 -3.58374 1.68477 0
M  V30 7713 H 727.367 -2.07597 4.11388 0
M  V30 7714 H 725.682 -2.01582 3.64354 0
M  V30 7715 H 728.279 -4.62567 2.68209 0
M  V30 7716 H 728.622 -4.02044 1.0801 0
M  V30 7717 H 729.155 -3.09205 2.50274 0
M  V30 7718 H 725.894 -3.64336 5.44922 0
M  V30 7719 H 725.414 -4.49961 3.96605 0
M  V30 7720 H 727.093 -4.59754 4.55231 0
M  V30 7721 N 727.225 -1.14528 -1.08264 0
M  V30 7722 C 728.45 -0.938381 -1.84957 0
M  V30 7723 C 728.875 0.508044 -1.81109 0
M  V30 7724 O 728.233 1.36146 -1.19724 0
M  V30 7725 C 728.281 -1.44568 -3.30352 0
M  V30 7726 O 727.385 -0.638745 -4.07423 0
M  V30 7727 H 726.726 -0.335394 -0.573068 0
M  V30 7728 H 729.256 -1.52287 -1.36637 0
M  V30 7729 H 729.266 -1.45449 -3.81194 0
M  V30 7730 H 727.941 -2.49876 -3.32468 0
M  V30 7731 H 726.518 -0.698801 -3.66294 0
M  V30 7732 N 728.703 1.26451 -0.940633 0
M  V30 7733 C 729.931 1.97868 -0.604642 0
M  V30 7734 C 730.346 1.70051 0.820251 0
M  V30 7735 O 729.703 0.96843 1.54686 0
M  V30 7736 C 729.754 3.51684 -0.836689 0
M  V30 7737 O 729.475 3.78533 -2.20554 0
M  V30 7738 C 730.976 4.40343 -0.511169 0
M  V30 7739 H 728.196 0.631105 -0.227919 0
M  V30 7740 H 730.74 1.60979 -1.26119 0
M  V30 7741 H 728.895 3.86736 -0.226759 0
M  V30 7742 H 729.309 4.73065 -2.26517 0
M  V30 7743 H 730.783 5.47229 -0.724157 0
M  V30 7744 H 731.26 4.35694 0.553815 0
M  V30 7745 H 731.866 4.10834 -1.0998 0
M  V30 7746 N 730.181 0.707592 1.40822 0
M  V30 7747 C 731.144 0.0587224 2.29125 0
M  V30 7748 C 732.144 -0.695624 1.44975 0
M  V30 7749 O 733.334 -0.528718 1.65983 0
M  V30 7750 C 730.466 -0.926939 3.28056 0
M  V30 7751 H 731.659 0.836349 2.88002 0
M  V30 7752 H 729.212 0.471778 1.4901 0
M  V30 7753 H 729.947 -1.7319 2.74182 0
M  V30 7754 H 729.732 -0.389015 3.90165 0
M  V30 7755 H 731.222 -1.37837 3.94196 0
M  V30 7756 N 731.66 -1.50943 0.453197 0
M  V30 7757 C 732.885 -2.07116 -0.108463 0
M  V30 7758 C 733.31 -1.31681 -1.3432 0
M  V30 7759 O 732.668 -0.359256 -1.77705 0
M  V30 7760 C 732.716 -3.58447 -0.393424 0
M  V30 7761 O 731.82 -3.85038 -1.47714 0
M  V30 7762 H 731.161 -0.66398 0.0050993 0
M  V30 7763 H 733.691 -1.94362 0.639095 0
M  V30 7764 H 733.701 -4.02961 -0.639222 0
M  V30 7765 H 732.376 -4.12774 0.508946 0
M  V30 7766 H 730.953 -3.52376 -1.22006 0
M  V30 7767 N 733.138 -0.185124 -1.56509 0
M  V30 7768 C 734.071 0.77877 -2.145 0
M  V30 7769 C 735.049 1.21649 -1.07891 0
M  V30 7770 O 736.233 1.30579 -1.35946 0
M  V30 7771 C 733.36 2.05048 -2.69579 0
M  V30 7772 C 732.406 1.75569 -3.88687 0
M  V30 7773 S 733.239 0.912642 -5.27666 0
M  V30 7774 C 734.395 2.19471 -5.8616 0
M  V30 7775 H 734.628 0.285751 -2.95924 0
M  V30 7776 H 732.161 0.0297417 -1.54371 0
M  V30 7777 H 734.119 2.78085 -3.01958 0
M  V30 7778 H 732.78 2.51462 -1.88216 0
M  V30 7779 H 731.973 2.69962 -4.25601 0
M  V30 7780 H 731.575 1.10619 -3.57267 0
M  V30 7781 H 733.867 3.14815 -5.99915 0
M  V30 7782 H 734.81 1.87005 -6.8296 0
M  V30 7783 H 735.218 2.31862 -5.14685 0
M  V30 7784 N 734.616 1.57351 0.0885366 0
M  V30 7785 C 735.862 1.86696 0.791996 0
M  V30 7786 C 736.195 0.775148 1.78059 0
M  V30 7787 O 735.47 -0.216247 1.93294 0
M  V30 7788 C 735.753 3.26684 1.51491 0
M  V30 7789 C 735.606 4.465 0.543858 0
M  V30 7790 C 736.925 3.64664 2.46391 0
M  V30 7791 H 734.044 0.679049 0.286463 0
M  V30 7792 H 736.686 1.89919 0.0554866 0
M  V30 7793 H 734.836 3.24067 2.14273 0
M  V30 7794 H 736.508 4.61235 -0.0774597 0
M  V30 7795 H 734.751 4.33567 -0.142228 0
M  V30 7796 H 735.422 5.41192 1.08696 0
M  V30 7797 H 737.898 3.68267 1.93698 0
M  V30 7798 H 736.774 4.63534 2.93986 0
M  V30 7799 H 737.035 2.93698 3.30445 0
M  V30 7800 N 736.094 -0.359525 1.53444 0
M  V30 7801 C 737.004 -1.46445 1.83278 0
M  V30 7802 C 738.02 -1.5833 0.721629 0
M  V30 7803 O 739.196 -1.7411 1.01231 0
M  V30 7804 C 736.261 -2.81638 2.02191 0
M  V30 7805 C 735.322 -2.7923 3.26082 0
M  V30 7806 C 734.555 -4.07974 3.44082 0
M  V30 7807 O 734.778 -5.04447 2.66251 0
M  V30 7808 O 733.712 -4.13417 4.37458 0
M  V30 7809 H 737.538 -1.24156 2.77162 0
M  V30 7810 H 735.123 -0.550201 1.389 0
M  V30 7811 H 737.005 -3.61732 2.16167 0
M  V30 7812 H 735.68 -3.03892 1.11496 0
M  V30 7813 H 734.587 -1.97813 3.17523 0
M  V30 7814 H 735.92 -2.6193 4.16718 0
M  V30 7815 N 737.572 -1.44907 -0.619662 0
M  V30 7816 C 738.519 -1.52654 -1.73105 0
M  V30 7817 C 739.489 -0.373334 -1.6185 0
M  V30 7818 O 740.674 -0.585143 -1.81606 0
M  V30 7819 C 737.814 -1.48769 -3.11387 0
M  V30 7820 C 736.927 -2.74551 -3.33535 0
M  V30 7821 C 736.062 -2.62421 -4.61854 0
M  V30 7822 C 735.101 -3.83312 -4.77219 0
M  V30 7823 N 734.238 -3.69789 -5.96826 0
M  V30 7824 H 739.078 -2.47605 -1.65819 0
M  V30 7825 H 736.615 -1.22875 -0.808719 0
M  V30 7826 H 738.573 -1.44507 -3.91374 0
M  V30 7827 H 737.203 -0.573783 -3.1766 0
M  V30 7828 H 736.255 -2.88953 -2.47408 0
M  V30 7829 H 737.567 -3.64253 -3.40765 0
M  V30 7830 H 736.721 -2.56056 -5.50019 0
M  V30 7831 H 735.46 -1.70298 -4.57001 0
M  V30 7832 H 734.465 -3.90049 -3.87481 0
M  V30 7833 H 735.69 -4.76486 -4.83878 0
M  V30 7834 H 733.636 -2.80426 -5.93041 0
M  V30 7835 H 733.553 -4.53116 -6.05163 0
M  V30 7836 H 734.821 -3.67335 -6.87521 0
M  V30 7837 N 739.05 0.861098 -1.31996 0
M  V30 7838 C 740.296 1.61721 -1.22369 0
M  V30 7839 C 740.629 1.93 0.215587 0
M  V30 7840 O 739.904 1.56789 1.15098 0
M  V30 7841 C 740.187 2.9417 -2.07691 0
M  V30 7842 C 740.04 2.69714 -3.59965 0
M  V30 7843 C 741.359 3.95372 -1.93312 0
M  V30 7844 H 738.478 0.586822 -0.44588 0
M  V30 7845 H 741.12 0.994788 -1.61876 0
M  V30 7846 H 739.27 3.47292 -1.74128 0
M  V30 7847 H 740.942 2.23196 -4.03709 0
M  V30 7848 H 739.185 2.03789 -3.82952 0
M  V30 7849 H 739.856 3.63996 -4.14983 0
M  V30 7850 H 742.332 3.51487 -2.22701 0
M  V30 7851 H 741.208 4.85916 -2.55298 0
M  V30 7852 H 741.469 4.32865 -0.898922 0
M  V30 7853 N 740.528 1.15101 1.07655 0
M  V30 7854 C 741.939 0.933848 1.61667 0
M  V30 7855 C 742.29 -0.525569 1.8903 0
M  V30 7856 O 741.415 -1.39605 1.65346 0
M  V30 7857 C 742.01 1.68876 2.93711 0
M  V30 7858 C 740.569 1.51697 3.44478 0
M  V30 7859 C 739.716 1.70633 2.18586 0
M  V30 7860 H 742.667 1.30171 0.907816 0
M  V30 7861 H 742.688 1.15645 3.625 0
M  V30 7862 H 742.2 2.7509 2.73764 0
M  V30 7863 H 740.301 0.478635 3.69513 0
M  V30 7864 H 740.414 2.29194 4.20722 0
M  V30 7865 H 738.778 1.13259 2.28132 0
M  V30 7866 H 739.561 2.78206 2.01137 0
M  V30 7867 N 742.006 -1.2595 0.947325 0
M  V30 7868 C 743.234 -1.97544 0.615127 0
M  V30 7869 C 743.649 -1.70484 -0.811221 0
M  V30 7870 O 743.006 -0.97662 -1.5417 0
M  V30 7871 C 743.057 -3.51236 0.855328 0
M  V30 7872 O 742.778 -3.77359 2.22558 0
M  V30 7873 C 744.279 -4.40066 0.534515 0
M  V30 7874 H 741.499 -0.629888 0.231263 0
M  V30 7875 H 744.043 -1.60308 1.26971 0
M  V30 7876 H 742.198 -3.8661 0.247266 0
M  V30 7877 H 742.612 -4.71857 2.29022 0
M  V30 7878 H 744.086 -5.46838 0.753168 0
M  V30 7879 H 744.563 -4.35982 -0.530701 0
M  V30 7880 H 745.169 -4.10245 1.12158 0
M  V30 7881 N 743.484 -0.715051 -1.40445 0
M  V30 7882 C 744.394 -0.0631624 -2.34515 0
M  V30 7883 C 745.41 0.744397 -1.57273 0
M  V30 7884 O 746.586 0.677475 -1.89663 0
M  V30 7885 C 743.651 0.847915 -3.36172 0
M  V30 7886 C 742.712 0.0303655 -4.29289 0
M  V30 7887 C 741.945 0.898051 -5.2609 0
M  V30 7888 O 742.168 2.13729 -5.28844 0
M  V30 7889 O 741.102 0.337328 -6.00954 0
M  V30 7890 H 744.928 -0.839078 -2.91879 0
M  V30 7891 H 742.513 -0.475527 -1.4163 0
M  V30 7892 H 744.395 1.3698 -3.98515 0
M  V30 7893 H 743.07 1.60299 -2.81222 0
M  V30 7894 H 741.977 -0.536573 -3.70232 0
M  V30 7895 H 743.31 -0.686474 -4.87389 0
M  V30 7896 N 744.962 1.50701 -0.461195 0
M  V30 7897 C 745.872 2.32069 0.343661 0
M  V30 7898 C 746.888 1.42016 1.00535 0
M  V30 7899 O 748.064 1.75077 0.995498 0
M  V30 7900 C 745.129 3.16424 1.41692 0
M  V30 7901 C 744.19 4.22286 0.772869 0
M  V30 7902 C 743.423 5.02609 1.79499 0
M  V30 7903 O 743.646 4.83874 3.0203 0
M  V30 7904 O 742.58 5.86047 1.3723 0
M  V30 7905 H 746.406 3.01996 -0.321268 0
M  V30 7906 H 743.991 1.47723 -0.223235 0
M  V30 7907 H 745.873 3.68795 2.03883 0
M  V30 7908 H 744.548 2.49236 2.0655 0
M  V30 7909 H 743.455 3.73931 0.112277 0
M  V30 7910 H 744.788 4.91915 0.167399 0
M  V30 7911 N 746.441 0.193421 1.56409 0
M  V30 7912 C 747.389 -0.744829 2.20352 0
M  V30 7913 C 748.383 -1.22104 1.17418 0
M  V30 7914 O 749.589 -1.18413 1.35567 0
M  V30 7915 H 745.964 -0.258538 0.70616 0
M  V30 7916 H 747.935 -0.181794 2.97846 0
M  V30 7917 C 746.684 -1.95453 2.87565 0
M  V30 7918 H 746.007 -1.59716 3.66512 0
M  V30 7919 H 747.447 -2.58942 3.35745 0
M  V30 7920 C 745.906 -2.79223 1.8851 0
M  V30 7921 O 746.436 -3.77093 1.38434 0
M  V30 7922 N 744.642 -2.44682 1.56777 0
M  V30 7923 H 744.189 -1.65153 1.97692 0
M  V30 7924 H 744.147 -3.01016 0.907573 0
M  V30 7925 N 747.919 -1.57396 -0.0801906 0
M  V30 7926 C 748.829 -2.06451 -1.11423 0
M  V30 7927 C 749.845 -0.992352 -1.42928 0
M  V30 7928 O 751.021 -1.30651 -1.53272 0
M  V30 7929 C 748.086 -2.49164 -2.41077 0
M  V30 7930 C 747.147 -3.70641 -2.16619 0
M  V30 7931 C 746.38 -4.11307 -3.40092 0
M  V30 7932 O 746.603 -3.51922 -4.48895 0
M  V30 7933 O 745.537 -5.04157 -3.288 0
M  V30 7934 H 749.363 -2.94857 -0.727519 0
M  V30 7935 H 746.948 -1.46484 -0.293743 0
M  V30 7936 H 748.83 -2.77196 -3.17396 0
M  V30 7937 H 747.505 -1.6389 -2.79145 0
M  V30 7938 H 746.412 -3.47703 -1.38033 0
M  V30 7939 H 747.745 -4.5674 -1.83437 0
M  V30 7940 N 749.397 0.351382 -1.53633 0
M  V30 7941 C 750.33 1.45407 -1.75875 0
M  V30 7942 C 751.308 1.50822 -0.607566 0
M  V30 7943 O 752.492 1.68658 -0.841818 0
M  V30 7944 C 749.619 2.8369 -1.85034 0
M  V30 7945 C 748.665 2.95935 -3.07123 0
M  V30 7946 S 749.498 2.63215 -4.66345 0
M  V30 7947 C 750.654 4.03622 -4.78373 0
M  V30 7948 H 750.887 1.26322 -2.69128 0
M  V30 7949 H 748.42 0.546581 -1.44402 0
M  V30 7950 H 750.378 3.6336 -1.90996 0
M  V30 7951 H 749.039 3.00076 -0.928074 0
M  V30 7952 H 748.232 3.97243 -3.10183 0
M  V30 7953 H 747.834 2.24205 -2.99346 0
M  V30 7954 H 750.126 4.98046 -4.593 0
M  V30 7955 H 751.069 4.05559 -5.80454 0
M  V30 7956 H 751.477 3.91282 -4.06889 0
M  V30 7957 N 750.875 1.45233 0.611969 0
M  V30 7958 C 752.1 1.52767 1.40274 0
M  V30 7959 C 752.525 0.159701 1.87421 0
M  V30 7960 O 751.883 -0.854837 1.59882 0
M  V30 7961 C 751.931 2.51286 2.58626 0
M  V30 7962 O 751.035 2.02764 3.59111 0
M  V30 7963 H 750.376 0.515141 0.418958 0
M  V30 7964 H 752.906 1.90547 0.745188 0
M  V30 7965 H 752.916 2.69949 3.05927 0
M  V30 7966 H 751.591 3.50641 2.23659 0
M  V30 7967 H 750.168 1.93957 3.18489 0
M  V30 7968 N 752.353 -0.854086 1.3245 0
M  V30 7969 C 753.578 -1.64597 1.26185 0
M  V30 7970 C 754.003 -1.87357 -0.167074 0
M  V30 7971 O 753.361 -1.42675 -1.11864 0
M  V30 7972 C 753.409 -2.98213 2.02734 0
M  V30 7973 O 752.513 -3.88784 1.37554 0
M  V30 7974 H 751.854 -0.50179 0.434859 0
M  V30 7975 H 754.384 -1.06372 1.74775 0
M  V30 7976 H 754.394 -3.4803 2.1293 0
M  V30 7977 H 753.069 -2.80969 3.06642 0
M  V30 7978 H 751.646 -3.4725 1.3591 0
M  V30 7979 N 753.831 -1.1567 -1.07043 0
M  V30 7980 C 754.741 -0.870435 -2.17855 0
M  V30 7981 C 755.757 0.154452 -1.73313 0
M  V30 7982 O 756.933 -0.0203759 -2.0139 0
M  V30 7983 C 753.998 -0.367219 -3.4475 0
M  V30 7984 C 753.059 -1.45639 -4.03841 0
M  V30 7985 C 752.292 -0.977092 -5.2468 0
M  V30 7986 O 752.515 0.176127 -5.70128 0
M  V30 7987 O 751.449 -1.76215 -5.75527 0
M  V30 7988 H 755.275 -1.79687 -2.44839 0
M  V30 7989 H 752.86 -0.936064 -1.1644 0
M  V30 7990 H 754.742 -0.0931947 -4.21297 0
M  V30 7991 H 753.417 0.53131 -3.1931 0
M  V30 7992 H 752.324 -1.78406 -3.28819 0
M  V30 7993 H 753.657 -2.32995 -4.3356 0
M  V30 7994 N 755.309 1.25446 -0.953992 0
M  V30 7995 C 756.272 2.24156 -0.478179 0
M  V30 7996 C 757.272 1.55278 0.417776 0
M  V30 7997 O 758.462 1.72866 0.215155 0
M  V30 7998 C 755.594 3.39495 0.309202 0
M  V30 7999 H 756.787 2.67764 -1.35064 0
M  V30 8000 H 754.34 1.37822 -0.737206 0
M  V30 8001 H 755.075 3.01307 1.19936 0
M  V30 8002 H 754.86 3.90679 -0.333562 0
M  V30 8003 H 756.35 4.12796 0.631594 0
M  V30 8004 N 756.787 0.722489 1.40064 0
M  V30 8005 C 758.064 0.191829 1.94657 0
M  V30 8006 C 758.444 -1.30389 1.66018 0
M  V30 8007 O 757.792 -2.06342 0.981588 0
M  V30 8008 C 758.002 0.511978 3.45224 0
M  V30 8009 C 759.35 0.454426 4.22161 0
M  V30 8010 O 760.374 0.448438 3.53366 0
M  V30 8011 O 759.233 0.437986 5.44742 0
M  V30 8012 H 756.327 0.0307821 0.826427 0
M  V30 8013 H 758.873 0.800493 1.49634 0
M  V30 8014 H 757.645 1.54622 3.59455 0
M  V30 8015 H 757.268 -0.126296 3.97399 0
M  V30 8016 N 758.265 -1.50454 0.469181 0
M  V30 8017 C 759.198 -2.25149 -0.371928 0
M  V30 8018 C 760.176 -1.28382 -0.997845 0
M  V30 8019 O 761.36 -1.57599 -1.03415 0
M  V30 8020 C 758.487 -3.02629 -1.52097 0
M  V30 8021 C 757.533 -4.14305 -1.01262 0
M  V30 8022 S 758.366 -5.35453 0.0711459 0
M  V30 8023 C 759.522 -6.1648 -1.08181 0
M  V30 8024 H 759.755 -2.96142 0.262134 0
M  V30 8025 H 757.288 -1.52296 0.254042 0
M  V30 8026 H 759.246 -3.47861 -2.17952 0
M  V30 8027 H 757.907 -2.31165 -2.12654 0
M  V30 8028 H 757.1 -4.67913 -1.87278 0
M  V30 8029 H 756.702 -3.71499 -0.431804 0
M  V30 8030 H 758.994 -6.47497 -1.99382 0
M  V30 8031 H 759.937 -7.05679 -0.585028 0
M  V30 8032 H 760.345 -5.48492 -1.33478 0
M  V30 8033 N 759.743 -0.201713 -1.56304 0
M  V30 8034 C 760.653 0.728296 -2.23009 0
M  V30 8035 C 761.669 1.22945 -1.23128 0
M  V30 8036 O 762.845 1.27523 -1.55884 0
M  V30 8037 C 759.91 1.92792 -2.88153 0
M  V30 8038 C 758.971 1.47068 -4.03323 0
M  V30 8039 C 758.204 2.61312 -4.65351 0
M  V30 8040 O 758.427 3.7896 -4.26317 0
M  V30 8041 O 757.361 2.33646 -5.54701 0
M  V30 8042 H 761.187 0.190166 -3.03104 0
M  V30 8043 H 758.772 0.0278725 -1.49374 0
M  V30 8044 H 760.654 2.6289 -3.29343 0
M  V30 8045 H 759.329 2.45452 -2.11033 0
M  V30 8046 H 758.236 0.738299 -3.66742 0
M  V30 8047 H 759.569 0.990666 -4.82127 0
M  V30 8048 N 761.222 1.57436 0.0718424 0
M  V30 8049 C 762.462 1.89082 0.776351 0
M  V30 8050 C 762.826 0.795494 1.74745 0
M  V30 8051 O 764.027 0.995025 2.49705 0
M  V30 8052 C 762.298 3.25958 1.46582 0
M  V30 8053 S 763.857 3.79352 2.2054 0
M  V30 8054 H 760.675 0.662472 0.25817 0
M  V30 8055 H 763.277 1.95473 0.0324536 0
M  V30 8056 H 761.981 4.03577 0.745237 0
M  V30 8057 H 761.512 3.22764 2.24915 0
M  V30 8058 H 763.527 3.54634 3.47058 0
M  V30 8059 N 762.7 -0.34323 1.53817 0
M  V30 8060 C 763.63 -1.42709 1.84814 0
M  V30 8061 C 764.611 -1.5488 0.703297 0
M  V30 8062 O 765.796 -1.69082 0.955237 0
M  V30 8063 C 762.926 -2.79756 2.05801 0
M  V30 8064 C 761.88 -2.82392 3.21619 0
M  V30 8065 C 761.206 -4.22326 3.2794 0
M  V30 8066 C 762.506 -2.479 4.59721 0
M  V30 8067 H 764.2 -1.17018 2.75585 0
M  V30 8068 H 761.746 -0.561485 1.32602 0
M  V30 8069 H 763.699 -3.55627 2.26069 0
M  V30 8070 H 762.423 -3.06883 1.11761 0
M  V30 8071 H 761.082 -2.08974 3.01207 0
M  V30 8072 H 760.73 -4.46564 2.31494 0
M  V30 8073 H 760.43 -4.25001 4.05768 0
M  V30 8074 H 761.954 -5.00039 3.50419 0
M  V30 8075 H 763.368 -3.13484 4.80001 0
M  V30 8076 H 761.765 -2.61857 5.39954 0
M  V30 8077 H 762.835 -1.43087 4.63308 0
M  V30 8078 N 764.178 -1.45556 -0.604258 0
M  V30 8079 C 765.126 -1.5482 -1.7359 0
M  V30 8080 C 766.12 -0.417966 -1.64163 0
M  V30 8081 O 767.326 -0.594007 -1.69916 0
M  V30 8082 H 763.701 -0.486352 -0.573556 0
M  V30 8083 H 765.672 -2.5001 -1.62903 0
M  V30 8084 C 764.421 -1.53521 -3.11972 0
M  V30 8085 H 763.744 -2.39818 -3.19886 0
M  V30 8086 H 765.184 -1.64061 -3.90973 0
M  V30 8087 C 763.643 -0.260191 -3.35894 0
M  V30 8088 O 764.173 0.658582 -3.96265 0
M  V30 8089 N 762.379 -0.154839 -2.90187 0
M  V30 8090 H 761.926 -0.903378 -2.4124 0
M  V30 8091 H 761.884 0.697437 -3.06567 0
M  V30 8092 N 765.656 0.84705 -1.32902 0
M  V30 8093 C 766.588 1.96308 -1.18304 0
M  V30 8094 C 767.601 1.62386 -0.116082 0
M  V30 8095 O 768.79 1.74713 -0.365751 0
M  V30 8096 C 765.89 3.29556 -0.790305 0
M  V30 8097 C 765.063 3.91668 -1.94717 0
M  V30 8098 C 764.122 5.0326 -1.53674 0
M  V30 8099 O 763.148 5.22847 -2.24989 0
M  V30 8100 N 764.35 5.78852 -0.437075 0
M  V30 8101 H 767.115 2.09369 -2.14441 0
M  V30 8102 H 764.676 1.02233 -1.25539 0
M  V30 8103 H 766.668 4.01624 -0.49799 0
M  V30 8104 H 765.238 3.12497 0.0801286 0
M  V30 8105 H 764.458 3.12292 -2.40557 0
M  V30 8106 H 765.746 4.299 -2.72146 0
M  V30 8107 H 765.144 5.65484 0.156316 0
M  V30 8108 H 763.701 6.51479 -0.204399 0
M  V30 8109 N 767.134 1.16236 1.06428 0
M  V30 8110 C 768.55 0.906983 1.31324 0
M  V30 8111 C 768.75 -0.440872 1.96618 0
M  V30 8112 O 767.806 -1.1807 2.23194 0
M  V30 8113 C 769.119 2.05501 2.19522 0
M  V30 8114 C 770.667 2.09061 2.32943 0
M  V30 8115 C 771.142 3.23214 3.24495 0
M  V30 8116 N 772.633 3.22922 3.32078 0
M  V30 8117 C 773.368 4.07889 4.03006 0
M  V30 8118 N 772.864 5.02941 4.76469 0
M  V30 8119 N 774.657 3.95881 3.99043 0
M  V30 8120 H 766.808 2.03015 0.624388 0
M  V30 8121 H 769.071 0.88576 0.337835 0
M  V30 8122 H 768.777 3.02847 1.78819 0
M  V30 8123 H 768.651 1.99538 3.201 0
M  V30 8124 H 771.038 1.12308 2.72893 0
M  V30 8125 H 771.119 2.19089 1.32037 0
M  V30 8126 H 770.763 4.20225 2.85261 0
M  V30 8127 H 770.693 3.10423 4.25377 0
M  V30 8128 H 773.184 2.54093 2.79724 0
M  V30 8129 H 773.497 5.64196 5.28112 0
M  V30 8130 H 771.842 5.06922 4.75453 0
M  V30 8131 H 775.033 3.20927 3.40769 0
M  V30 8132 H 775.206 4.62321 4.54052 0
M  V30 8133 N 768.612 -1.24939 0.960631 0
M  V30 8134 C 770.023 -1.74701 0.658529 0
M  V30 8135 C 770.374 -1.77967 -0.825959 0
M  V30 8136 O 769.499 -1.40444 -1.64634 0
M  V30 8137 C 770.094 -3.17263 1.18867 0
M  V30 8138 C 768.653 -3.64561 0.936614 0
M  V30 8139 C 767.8 -2.43423 1.32817 0
M  V30 8140 H 770.751 -1.10741 1.13676 0
M  V30 8141 H 770.772 -3.76481 0.551589 0
M  V30 8142 H 770.284 -3.14854 2.26912 0
M  V30 8143 H 768.385 -3.72378 -0.128608 0
M  V30 8144 H 768.498 -4.52392 1.57729 0
M  V30 8145 H 766.862 -2.43513 0.746548 0
M  V30 8146 H 767.645 -2.437 2.41796 0
M  V30 8147 N 770.09 -0.729906 -1.39679 0
M  V30 8148 C 771.501 -0.346241 -1.83461 0
M  V30 8149 C 771.852 1.1215 -1.60987 0
M  V30 8150 O 770.977 1.86456 -1.09832 0
M  V30 8151 C 771.572 -0.621656 -3.33048 0
M  V30 8152 C 770.131 -0.291543 -3.75269 0
M  V30 8153 C 769.278 -0.886844 -2.62736 0
M  V30 8154 H 772.229 -0.927949 -1.28743 0
M  V30 8155 H 772.25 0.108301 -3.80346 0
M  V30 8156 H 771.762 -1.68996 -3.49373 0
M  V30 8157 H 769.863 0.771133 -3.64533 0
M  V30 8158 H 769.976 -0.770544 -4.72863 0
M  V30 8159 H 768.34 -0.313839 -2.52759 0
M  V30 8160 H 769.123 -1.95971 -2.81869 0
M  V30 8161 N 771.568 1.50203 -0.477153 0
M  V30 8162 C 772.478 2.32421 0.319027 0
M  V30 8163 C 773.494 1.43075 0.990233 0
M  V30 8164 O 774.67 1.76123 0.976873 0
M  V30 8165 C 771.735 3.17909 1.38328 0
M  V30 8166 C 770.796 4.23082 0.728036 0
M  V30 8167 C 770.029 5.04484 1.74158 0
M  V30 8168 O 770.252 4.8705 2.96881 0
M  V30 8169 O 769.186 5.8747 1.31006 0
M  V30 8170 H 773.012 3.01638 -0.353281 0
M  V30 8171 H 770.597 1.47478 -0.238891 0
M  V30 8172 H 772.479 3.70937 1.9996 0
M  V30 8173 H 771.154 2.51413 2.03895 0
M  V30 8174 H 770.061 3.7403 0.07261 0
M  V30 8175 H 771.394 4.92065 0.115216 0
M  V30 8176 N 773.046 0.209999 1.56195 0
M  V30 8177 C 773.994 -0.721416 2.2113 0
M  V30 8178 C 774.988 -1.20852 1.18706 0
M  V30 8179 O 776.194 -1.16968 1.36815 0
M  V30 8180 H 772.569 -0.251033 0.708863 0
M  V30 8181 H 774.54 -0.150193 2.98022 0
M  V30 8182 C 773.289 -1.92392 2.89621 0
M  V30 8183 H 772.612 -1.5582 3.68185 0
M  V30 8184 H 774.052 -2.55367 3.38473 0
M  V30 8185 C 772.511 -2.77208 1.91461 0
M  V30 8186 O 773.041 -3.75603 1.42426 0
M  V30 8187 N 771.247 -2.43006 1.59363 0
M  V30 8188 H 770.794 -1.63047 1.99433 0
M  V30 8189 H 770.752 -3.00036 0.939449 0
M  V30 8190 N 774.524 -1.57472 -0.0634922 0
M  V30 8191 C 775.935 -1.76303 -0.614337 0
M  V30 8192 C 776.286 -0.836578 -1.77471 0
M  V30 8193 O 775.411 -0.0227184 -2.16388 0
M  V30 8194 C 776.006 -3.19709 -1.12122 0
M  V30 8195 C 774.565 -3.39856 -1.61786 0
M  V30 8196 C 773.712 -2.71975 -0.540845 0
M  V30 8197 H 776.663 -1.57864 0.162702 0
M  V30 8198 H 776.684 -3.24326 -1.98979 0
M  V30 8199 H 776.196 -3.87114 -0.276472 0
M  V30 8200 H 774.297 -2.77578 -2.48558 0
M  V30 8201 H 774.41 -4.48338 -1.68908 0
M  V30 8202 H 772.774 -2.34763 -0.987854 0
M  V30 8203 H 773.557 -3.4204 0.293856 0
M  V30 8204 N 776.003 0.335068 -1.53997 0
M  V30 8205 C 777.28 1.09188 -1.62288 0
M  V30 8206 C 777.66 2.0626 -0.449458 0
M  V30 8207 O 777.008 2.21596 0.557444 0
M  V30 8208 C 777.218 1.80403 -2.98757 0
M  V30 8209 C 778.566 2.33841 -3.54406 0
M  V30 8210 O 779.59 1.90487 -3.00987 0
M  V30 8211 O 778.449 3.1318 -4.47862 0
M  V30 8212 H 775.543 0.502621 -0.656736 0
M  V30 8213 H 778.089 0.33588 -1.66343 0
M  V30 8214 H 776.861 1.09732 -3.75599 0
M  V30 8215 H 776.484 2.62841 -2.9833 0
M  V30 8216 N 777.481 1.45874 0.596531 0
M  V30 8217 C 778.709 1.54013 1.38158 0
M  V30 8218 C 779.124 0.17648 1.87973 0
M  V30 8219 O 778.481 -0.823895 1.62844 0
M  V30 8220 C 778.532 2.53363 2.57855 0
M  V30 8221 O 778.253 3.8443 2.10108 0
M  V30 8222 C 779.754 2.71308 3.50581 0
M  V30 8223 H 776.974 0.521251 0.422538 0
M  V30 8224 H 779.518 1.9116 0.726493 0
M  V30 8225 H 777.673 2.19257 3.19382 0
M  V30 8226 H 778.087 4.38384 2.87958 0
M  V30 8227 H 779.561 3.44776 4.31084 0
M  V30 8228 H 780.038 1.77728 4.01633 0
M  V30 8229 H 780.644 3.06455 2.94899 0
M  V30 8230 N 778.959 -0.83999 1.33349 0
M  V30 8231 C 780.236 -1.57973 1.15342 0
M  V30 8232 C 780.616 -2.09226 -0.280632 0
M  V30 8233 O 779.964 -1.89317 -1.2795 0
M  V30 8234 C 780.174 -2.71446 2.19359 0
M  V30 8235 C 781.522 -3.40654 2.53456 0
M  V30 8236 O 782.546 -2.81686 2.18017 0
M  V30 8237 O 781.405 -4.47101 3.14266 0
M  V30 8238 H 778.499 -0.6964 0.446044 0
M  V30 8239 H 781.045 -0.882843 1.44927 0
M  V30 8240 H 779.817 -2.31205 3.1569 0
M  V30 8241 H 779.44 -3.488 1.90852 0
M  V30 8242 N 780.437 -1.16799 -1.0581 0
M  V30 8243 C 781.384 -0.87902 -2.13405 0
M  V30 8244 C 782.354 0.174541 -1.6518 0
M  V30 8245 O 783.539 0.0386843 -1.90761 0
M  V30 8246 C 780.679 -0.391616 -3.42871 0
M  V30 8247 C 779.792 -1.50857 -4.04804 0
M  V30 8248 C 778.927 -0.975682 -5.22163 0
M  V30 8249 C 777.966 -2.06851 -5.76089 0
M  V30 8250 N 777.103 -1.55085 -6.84758 0
M  V30 8251 H 781.943 -1.80043 -2.37463 0
M  V30 8252 H 779.48 -0.898083 -1.16503 0
M  V30 8253 H 781.438 -0.0906247 -4.17102 0
M  V30 8254 H 780.068 0.49284 -3.19016 0
M  V30 8255 H 779.12 -1.92542 -3.28073 0
M  V30 8256 H 780.432 -2.33305 -4.40874 0
M  V30 8257 H 779.586 -0.628165 -6.03439 0
M  V30 8258 H 778.325 -0.120566 -4.87551 0
M  V30 8259 H 777.33 -2.42467 -4.93447 0
M  V30 8260 H 778.555 -2.92768 -6.12751 0
M  V30 8261 H 776.501 -0.718345 -6.52055 0
M  V30 8262 H 776.418 -2.31145 -7.19797 0
M  V30 8263 H 777.686 -1.23206 -7.69702 0
M  V30 8264 N 781.915 1.24427 -0.967243 0
M  V30 8265 C 782.863 2.27403 -0.488927 0
M  V30 8266 C 783.857 1.63388 0.447302 0
M  V30 8267 O 785.063 1.77085 0.322643 0
M  V30 8268 H 781.438 0.738921 -0.139643 0
M  V30 8269 H 783.409 2.65122 -1.36942 0
M  V30 8270 C 782.158 3.4709 0.205787 0
M  V30 8271 H 781.481 3.96591 -0.50551 0
M  V30 8272 H 782.921 4.2099 0.504296 0
M  V30 8273 C 781.38 3.04923 1.43261 0
M  V30 8274 O 781.91 3.12043 2.52967 0
M  V30 8275 N 780.116 2.59976 1.29849 0
M  V30 8276 H 779.663 2.54382 0.405876 0
M  V30 8277 H 779.621 2.32128 2.12047 0
M  V30 8278 N 783.393 0.737304 1.3929 0
M  V30 8279 C 784.639 0.286681 2.00763 0
M  V30 8280 C 784.972 -1.12388 1.58375 0
M  V30 8281 O 784.247 -1.76661 0.813699 0
M  V30 8282 C 784.53 0.391147 3.57969 0
M  V30 8283 C 784.383 1.84165 4.1037 0
M  V30 8284 C 785.702 -0.225072 4.39524 0
M  V30 8285 H 782.821 0.105642 0.729389 0
M  V30 8286 H 785.463 0.933892 1.65464 0
M  V30 8287 H 783.613 -0.159875 3.88171 0
M  V30 8288 H 785.285 2.44972 3.90879 0
M  V30 8289 H 783.528 2.3622 3.63844 0
M  V30 8290 H 784.199 1.866 5.19504 0
M  V30 8291 H 786.675 0.244677 4.1538 0
M  V30 8292 H 785.551 -0.121646 5.48765 0
M  V30 8293 H 785.812 -1.31141 4.22202 0
M  V30 8294 N 784.871 -1.49948 0.485112 0
M  V30 8295 C 785.803 -2.26691 -0.338222 0
M  V30 8296 C 786.816 -1.32584 -0.944742 0
M  V30 8297 O 788.005 -1.57989 -0.830772 0
M  V30 8298 C 785.105 -3.04405 -1.48966 0
M  V30 8299 C 784.278 -4.25971 -0.993371 0
M  V30 8300 C 783.337 -4.85861 -2.02052 0
M  V30 8301 O 782.363 -5.46382 -1.59547 0
M  V30 8302 N 783.565 -4.74101 -3.34975 0
M  V30 8303 H 786.33 -2.97989 0.319748 0
M  V30 8304 H 783.891 -1.58772 0.316714 0
M  V30 8305 H 785.883 -3.41348 -2.17403 0
M  V30 8306 H 784.453 -2.35815 -2.05207 0
M  V30 8307 H 783.673 -3.93971 -0.134424 0
M  V30 8308 H 784.961 -5.0476 -0.639934 0
M  V30 8309 H 784.359 -4.26002 -3.72208 0
M  V30 8310 H 782.916 -5.15274 -3.9917 0
M  V30 8311 N 786.349 -0.21828 -1.56081 0
M  V30 8312 C 787.281 0.725447 -2.17416 0
M  V30 8313 C 788.294 1.15995 -1.14233 0
M  V30 8314 O 789.483 1.09166 -1.41227 0
M  V30 8315 C 786.583 1.99401 -2.7403 0
M  V30 8316 C 785.756 1.7156 -4.02351 0
M  V30 8317 C 784.815 2.8309 -4.43561 0
M  V30 8318 O 783.841 2.51701 -5.10525 0
M  V30 8319 N 785.043 4.11972 -4.08973 0
M  V30 8320 H 787.808 0.200801 -2.99027 0
M  V30 8321 H 785.369 -0.0371514 -1.61857 0
M  V30 8322 H 787.361 2.73198 -2.98571 0
M  V30 8323 H 785.931 2.42923 -1.96742 0
M  V30 8324 H 785.151 0.814233 -3.85699 0
M  V30 8325 H 786.439 1.50385 -4.86068 0
M  V30 8326 H 785.837 4.40319 -3.55156 0
M  V30 8327 H 784.394 4.82323 -4.38415 0
M  V30 8328 N 787.827 1.57504 0.0551401 0
M  V30 8329 C 789.104 1.79155 0.785048 0
M  V30 8330 C 789.484 0.809995 1.94942 0
M  V30 8331 O 788.832 -0.153432 2.27984 0
M  V30 8332 C 789.042 3.26134 1.24247 0
M  V30 8333 C 790.39 3.90419 1.66908 0
M  V30 8334 O 791.414 3.30126 1.33772 0
M  V30 8335 O 790.273 4.96523 2.28314 0
M  V30 8336 H 787.367 0.735825 0.377479 0
M  V30 8337 H 789.913 1.69666 0.0339285 0
M  V30 8338 H 788.685 3.89145 0.410089 0
M  V30 8339 H 788.308 3.40411 2.05441 0
M  V30 8340 N 789.305 -0.326896 1.54172 0
M  V30 8341 C 790.253 -1.42232 1.84046 0
M  V30 8342 C 791.247 -1.53705 0.712115 0
M  V30 8343 O 792.453 -1.56131 0.895724 0
M  V30 8344 H 788.828 -0.474568 0.583343 0
M  V30 8345 H 790.799 -1.14259 2.75658 0
M  V30 8346 C 789.548 -2.78502 2.08163 0
M  V30 8347 H 788.871 -2.70447 2.94446 0
M  V30 8348 H 790.311 -3.54228 2.33021 0
M  V30 8349 C 788.77 -3.25415 0.872152 0
M  V30 8350 O 789.3 -4.01621 0.0797648 0
M  V30 8351 N 787.506 -2.82418 0.684716 0
M  V30 8352 H 787.053 -2.20566 1.33072 0
M  V30 8353 H 787.011 -3.14159 -0.123031 0
M  V30 8354 N 790.784 -1.46188 -0.588786 0
M  V30 8355 C 792.009 -1.5498 -1.37826 0
M  V30 8356 C 792.434 -0.189498 -1.87143 0
M  V30 8357 O 791.792 0.829293 -1.61222 0
M  V30 8358 C 791.84 -2.55369 -2.54596 0
M  V30 8359 O 790.944 -2.08452 -3.55839 0
M  V30 8360 H 790.285 -0.521741 -0.41071 0
M  V30 8361 H 792.815 -1.91708 -0.714779 0
M  V30 8362 H 792.825 -2.74782 -3.01594 0
M  V30 8363 H 791.5 -3.54155 -2.18052 0
M  V30 8364 H 790.077 -1.98999 -3.15363 0
M  V30 8365 N 792.262 0.832906 -1.33792 0
M  V30 8366 C 793.172 1.97514 -1.26592 0
M  V30 8367 C 794.188 1.73114 -0.175391 0
M  V30 8368 O 795.364 1.97387 -0.400062 0
M  V30 8369 C 792.429 3.31625 -1.01121 0
M  V30 8370 C 791.49 3.69101 -2.19233 0
M  V30 8371 C 790.723 4.96813 -1.94968 0
M  V30 8372 O 790.946 5.63208 -0.902955 0
M  V30 8373 O 789.88 5.31932 -2.8166 0
M  V30 8374 H 793.706 2.0653 -2.22664 0
M  V30 8375 H 791.291 0.966826 -1.13898 0
M  V30 8376 H 793.173 4.11968 -0.886571 0
M  V30 8377 H 791.848 3.23599 -0.080822 0
M  V30 8378 H 790.755 2.89243 -2.37253 0
M  V30 8379 H 792.088 3.818 -3.10628 0
M  V30 8380 N 793.74 1.17359 1.05189 0
M  V30 8381 C 794.703 0.892604 2.11105 0
M  V30 8382 C 795.703 -0.117236 1.60372 0
M  V30 8383 O 796.893 0.114936 1.7382 0
M  V30 8384 C 794.025 0.337032 3.3923 0
M  V30 8385 H 795.218 1.83169 2.37464 0
M  V30 8386 H 792.771 0.984051 1.21434 0
M  V30 8387 H 793.506 -0.609198 3.18527 0
M  V30 8388 H 793.291 1.06484 3.77364 0
M  V30 8389 H 794.781 0.158763 4.17298 0
M  V30 8390 N 795.218 -1.23913 0.973828 0
M  V30 8391 C 796.466 -1.91771 0.637817 0
M  V30 8392 C 796.787 -1.76434 -0.830435 0
M  V30 8393 O 796.057 -1.13965 -1.59339 0
M  V30 8394 H 794.637 -0.709761 0.232912 0
M  V30 8395 H 797.299 -1.50677 1.23622 0
M  V30 8396 H 796.395 -2.99327 0.883731 0
M  V30 8397 N 796.696 -0.74468 -1.38897 0
M  V30 8398 C 797.924 -0.307428 -2.04603 0
M  V30 8399 C 798.339 1.06115 -1.56157 0
M  V30 8400 O 797.696 1.67233 -0.730701 0
M  V30 8401 C 797.747 -0.31101 -3.6016 0
M  V30 8402 O 797.468 -1.62557 -4.06825 0
M  V30 8403 C 798.969 0.141213 -4.43075 0
M  V30 8404 H 796.189 -0.132741 -0.657739 0
M  V30 8405 H 798.733 -1.01104 -1.77759 0
M  V30 8406 H 796.888 0.343792 -3.85872 0
M  V30 8407 H 797.302 -1.54569 -5.01207 0
M  V30 8408 H 798.776 0.0875449 -5.51931 0
M  V30 8409 H 799.253 1.18782 -4.22833 0
M  V30 8410 H 799.859 -0.484383 -4.22533 0
M  V30 8411 N 798.174 1.49689 -0.493057 0
M  V30 8412 C 799.106 2.26867 0.326195 0
M  V30 8413 C 800.119 1.33083 0.937697 0
M  V30 8414 O 801.308 1.58427 0.822382 0
M  V30 8415 C 798.408 3.0519 1.4735 0
M  V30 8416 C 797.581 4.26491 0.970767 0
M  V30 8417 C 796.64 4.86926 1.99473 0
M  V30 8418 O 795.666 5.47221 1.56647 0
M  V30 8419 N 796.868 4.75871 3.32456 0
M  V30 8420 H 799.633 2.97816 -0.335547 0
M  V30 8421 H 797.194 1.58602 -0.325129 0
M  V30 8422 H 799.186 3.42496 2.15589 0
M  V30 8423 H 797.756 2.369 2.03954 0
M  V30 8424 H 796.976 3.94036 0.113529 0
M  V30 8425 H 798.264 5.05092 0.613156 0
M  V30 8426 H 797.662 4.2797 3.69944 0
M  V30 8427 H 796.219 5.17383 3.96431 0
M  V30 8428 N 799.652 0.226554 1.55963 0
M  V30 8429 C 801.063 -0.280381 1.84583 0
M  V30 8430 C 801.414 -1.59105 1.14804 0
M  V30 8431 O 800.539 -2.12297 0.419414 0
M  V30 8432 C 801.134 -0.515499 3.34855 0
M  V30 8433 C 799.693 -0.966733 3.63774 0
M  V30 8434 C 798.84 -0.0325753 2.77281 0
M  V30 8435 H 801.791 0.449626 1.52197 0
M  V30 8436 H 801.812 -1.36085 3.55332 0
M  V30 8437 H 801.324 0.438594 3.85614 0
M  V30 8438 H 799.425 -1.93401 3.18476 0
M  V30 8439 H 799.538 -0.837679 4.7172 0
M  V30 8440 H 797.902 -0.540279 2.48904 0
M  V30 8441 H 798.685 0.916524 3.30839 0
M  V30 8442 N 801.13 -1.57531 -0.0467866 0
M  V30 8443 C 802.062 -2.02156 -1.08007 0
M  V30 8444 C 803.075 -0.931434 -1.33522 0
M  V30 8445 O 804.264 -1.209 -1.31321 0
M  V30 8446 C 801.364 -2.36675 -2.42566 0
M  V30 8447 C 800.537 -3.67848 -2.36658 0
M  V30 8448 C 799.596 -3.89754 -3.53523 0
M  V30 8449 O 798.622 -4.61036 -3.33818 0
M  V30 8450 N 799.824 -3.34025 -4.74771 0
M  V30 8451 H 802.589 -2.91414 -0.699845 0
M  V30 8452 H 800.15 -1.60185 -0.235041 0
M  V30 8453 H 802.142 -2.48482 -3.19435 0
M  V30 8454 H 800.712 -1.53178 -2.72498 0
M  V30 8455 H 799.932 -3.66561 -1.45005 0
M  V30 8456 H 801.22 -4.53931 -2.29835 0
M  V30 8457 H 800.618 -2.76214 -4.93683 0
M  V30 8458 H 799.175 -3.51241 -5.49066 0
M  V30 8459 N 802.608 0.318715 -1.54344 0
M  V30 8460 C 803.854 1.05765 -1.73037 0
M  V30 8461 C 804.187 1.87514 -0.505181 0
M  V30 8462 O 803.462 1.88021 0.497838 0
M  V30 8463 C 803.745 1.97836 -3.00887 0
M  V30 8464 C 803.598 1.19384 -4.33668 0
M  V30 8465 C 804.917 2.97285 -3.24514 0
M  V30 8466 H 802.036 0.383104 -0.629603 0
M  V30 8467 H 804.678 0.333864 -1.87044 0
M  V30 8468 H 802.828 2.59552 -2.89076 0
M  V30 8469 H 804.5 0.600906 -4.57369 0
M  V30 8470 H 802.743 0.496198 -4.30953 0
M  V30 8471 H 803.414 1.87014 -5.19355 0
M  V30 8472 H 805.89 2.45693 -3.35819 0
M  V30 8473 H 804.766 3.58887 -4.15321 0
M  V30 8474 H 805.027 3.70003 -2.41971 0
M  V30 8475 N 804.086 1.46499 0.581025 0
M  V30 8476 C 805.018 1.53225 1.70455 0
M  V30 8477 C 806.031 0.420443 1.57277 0
M  V30 8478 O 807.22 0.688888 1.64671 0
M  V30 8479 C 804.32 1.39803 3.08721 0
M  V30 8480 C 803.493 2.65132 3.47884 0
M  V30 8481 C 802.552 2.45886 4.65217 0
M  V30 8482 O 801.578 3.19615 4.70993 0
M  V30 8483 N 802.78 1.5216 5.60203 0
M  V30 8484 H 805.545 2.50098 1.65139 0
M  V30 8485 H 803.106 1.42576 0.76705 0
M  V30 8486 H 805.098 1.24697 3.8501 0
M  V30 8487 H 803.668 0.51104 3.08394 0
M  V30 8488 H 802.888 2.95169 2.61284 0
M  V30 8489 H 804.176 3.48385 3.70817 0
M  V30 8490 H 803.574 0.913646 5.58273 0
M  V30 8491 H 802.131 1.43017 6.35916 0
M  V30 8492 N 805.565 -0.825799 1.34232 0
M  V30 8493 C 806.793 -1.61363 1.29497 0
M  V30 8494 C 807.208 -1.88341 -0.131536 0
M  V30 8495 O 806.565 -1.47279 -1.07773 0
M  V30 8496 C 806.616 -2.95623 2.08061 0
M  V30 8497 O 806.337 -2.69824 3.45147 0
M  V30 8498 C 807.838 -3.90032 2.10688 0
M  V30 8499 H 805.058 -0.501676 0.445603 0
M  V30 8500 H 807.602 -1.02767 1.76803 0
M  V30 8501 H 805.757 -3.50785 1.64404 0
M  V30 8502 H 806.171 -3.55412 3.85723 0
M  V30 8503 H 807.645 -4.81411 2.70087 0
M  V30 8504 H 808.122 -4.25188 1.10052 0
M  V30 8505 H 808.728 -3.40807 2.54422 0
M  V30 8506 N 807.043 -1.17915 -1.04565 0
M  V30 8507 C 808.32 -0.881187 -1.74627 0
M  V30 8508 C 808.7 0.617123 -2.01878 0
M  V30 8509 O 808.048 1.57032 -1.65991 0
M  V30 8510 C 808.258 -1.72299 -3.03503 0
M  V30 8511 C 809.606 -1.94688 -3.77335 0
M  V30 8512 O 810.63 -1.6931 -3.13389 0
M  V30 8513 O 809.489 -2.37379 -4.92253 0
M  V30 8514 H 806.583 -0.326864 -0.759664 0
M  V30 8515 H 809.129 -1.28642 -1.10676 0
M  V30 8516 H 807.901 -2.73891 -2.79462 0
M  V30 8517 H 807.524 -1.31593 -3.75192 0
M  V30 8518 N 808.521 1.23394 -0.980386 0
M  V30 8519 C 809.484 2.23092 -0.525619 0
M  V30 8520 C 810.484 1.56129 0.384745 0
M  V30 8521 O 811.674 1.73284 0.178439 0
M  V30 8522 C 808.806 3.40074 0.23712 0
M  V30 8523 H 809.999 2.64839 -1.40714 0
M  V30 8524 H 807.552 1.36227 -0.766275 0
M  V30 8525 H 808.287 3.03783 1.13518 0
M  V30 8526 H 808.072 3.89883 -0.416356 0
M  V30 8527 H 809.562 4.14043 0.543892 0
M  V30 8528 N 809.999 0.752036 1.385 0
M  V30 8529 C 810.931 0.0835089 2.29048 0
M  V30 8530 C 811.944 -0.685402 1.47669 0
M  V30 8531 O 813.133 -0.526748 1.70551 0
M  V30 8532 C 810.233 -0.905772 3.26572 0
M  V30 8533 C 809.406 -0.194828 4.36966 0
M  V30 8534 C 808.465 -1.09464 5.14688 0
M  V30 8535 O 807.491 -0.565743 5.66381 0
M  V30 8536 N 808.693 -2.42287 5.2752 0
M  V30 8537 H 811.458 0.861142 2.87062 0
M  V30 8538 H 809.019 0.602689 1.50264 0
M  V30 8539 H 811.011 -1.51072 3.75446 0
M  V30 8540 H 809.581 -1.58449 2.69467 0
M  V30 8541 H 808.801 0.590812 3.89747 0
M  V30 8542 H 810.089 0.297189 5.07931 0
M  V30 8543 H 809.487 -2.87715 4.8707 0
M  V30 8544 H 808.044 -2.97836 5.79773 0
M  V30 8545 N 811.477 -1.49425 0.500989 0
M  V30 8546 C 812.409 -2.27037 -0.314159 0
M  V30 8547 C 813.422 -1.33578 -0.930626 0
M  V30 8548 O 814.611 -1.58861 -0.813968 0
M  V30 8549 C 811.711 -3.05968 -1.45729 0
M  V30 8550 C 810.884 -4.27 -0.948135 0
M  V30 8551 C 809.943 -4.87977 -1.96888 0
M  V30 8552 O 808.969 -5.48044 -1.53743 0
M  V30 8553 N 810.171 -4.77627 -3.29928 0
M  V30 8554 H 812.936 -2.97634 0.351336 0
M  V30 8555 H 810.497 -1.58427 0.333536 0
M  V30 8556 H 812.489 -3.43634 -2.1377 0
M  V30 8557 H 811.059 -2.37978 -2.02695 0
M  V30 8558 H 810.279 -3.94091 -0.0926311 0
M  V30 8559 H 811.567 -5.0541 -0.586362 0
M  V30 8560 H 810.965 -4.29926 -3.67669 0
M  V30 8561 H 809.522 -5.19478 -3.93682 0
M  V30 8562 N 812.955 -0.234822 -1.55841 0
M  V30 8563 C 814.183 0.397745 -2.03041 0
M  V30 8564 C 814.598 1.52405 -1.11437 0
M  V30 8565 O 813.955 1.82061 -0.126466 0
M  V30 8566 C 814.006 0.916919 -3.49678 0
M  V30 8567 O 813.727 -0.164493 -4.37791 0
M  V30 8568 C 815.228 1.62139 -4.12584 0
M  V30 8569 H 812.448 0.0959214 -0.664108 0
M  V30 8570 H 814.992 -0.355156 -2.01392 0
M  V30 8571 H 813.147 1.62004 -3.519 0
M  V30 8572 H 813.561 0.227794 -5.24005 0
M  V30 8573 H 815.035 1.93651 -5.16917 0
M  V30 8574 H 815.512 2.53918 -3.58361 0
M  V30 8575 H 816.118 0.963145 -4.14251 0
M  V30 8576 N 814.433 1.57553 0.0384317 0
M  V30 8577 C 815.658 1.93485 0.746872 0
M  V30 8578 C 816.083 0.834069 1.68597 0
M  V30 8579 O 815.441 -0.210902 1.80069 0
M  V30 8580 C 815.489 3.28463 1.4881 0
M  V30 8581 O 814.593 3.20051 2.60079 0
M  V30 8582 H 813.934 0.632675 0.201539 0
M  V30 8583 H 816.464 2.046 -0.00329815 0
M  V30 8584 H 816.474 3.63132 1.86009 0
M  V30 8585 H 815.149 4.08147 0.799297 0
M  V30 8586 H 813.726 2.96998 2.25492 0
M  V30 8587 N 815.911 -0.310526 1.54511 0
M  V30 8588 C 816.843 -1.40405 1.8116 0
M  V30 8589 C 817.856 -1.47261 0.694114 0
M  V30 8590 O 819.045 -1.49751 0.971441 0
M  V30 8591 C 816.145 -2.78849 1.92604 0
M  V30 8592 C 815.318 -2.95041 3.22908 0
M  V30 8593 C 814.377 -4.13925 3.24889 0
M  V30 8594 O 813.403 -4.06463 3.98467 0
M  V30 8595 N 814.605 -5.24099 2.496 0
M  V30 8596 H 817.37 -1.17903 2.75534 0
M  V30 8597 H 814.931 -0.500564 1.53967 0
M  V30 8598 H 816.923 -3.5661 1.91342 0
M  V30 8599 H 815.493 -2.94342 1.05268 0
M  V30 8600 H 814.713 -2.04472 3.37023 0
M  V30 8601 H 816.001 -3.02763 4.08916 0
M  V30 8602 H 815.399 -5.33039 1.89435 0
M  V30 8603 H 813.956 -6.0023 2.54102 0
M  V30 8604 N 817.389 -1.46805 -0.573248 0
M  V30 8605 C 818.614 -1.56433 -1.36175 0
M  V30 8606 C 819.039 -0.209336 -1.86932 0
M  V30 8607 O 818.397 0.812146 -1.62092 0
M  V30 8608 C 818.445 -2.58055 -2.51873 0
M  V30 8609 O 817.549 -2.12214 -3.53609 0
M  V30 8610 H 816.89 -0.526068 -0.405153 0
M  V30 8611 H 819.42 -1.92456 -0.694405 0
M  V30 8612 H 819.43 -2.77966 -2.98662 0
M  V30 8613 H 818.105 -3.56448 -2.14284 0
M  V30 8614 H 816.682 -2.02333 -3.13234 0
M  V30 8615 N 818.867 0.818669 -1.34668 0
M  V30 8616 C 820.278 1.39177 -1.24446 0
M  V30 8617 C 820.629 1.9578 0.128268 0
M  V30 8618 O 819.754 1.90382 1.02877 0
M  V30 8619 C 820.349 2.53012 -2.25323 0
M  V30 8620 C 818.908 3.06218 -2.18878 0
M  V30 8621 C 818.055 1.79112 -2.11694 0
M  V30 8622 H 821.006 0.622709 -1.45973 0
M  V30 8623 H 821.027 3.31226 -1.8727 0
M  V30 8624 H 820.539 2.11784 -3.25221 0
M  V30 8625 H 818.64 3.51939 -1.22351 0
M  V30 8626 H 818.753 3.65019 -3.10319 0
M  V30 8627 H 817.117 2.0018 -1.57481 0
M  V30 8628 H 817.9 1.40053 -3.13433 0
M  V30 8629 N 820.346 1.18468 1.03938 0
M  V30 8630 C 821.757 0.984808 1.58614 0
M  V30 8631 C 822.108 -0.465165 1.90606 0
M  V30 8632 O 821.233 -1.34274 1.69704 0
M  V30 8633 C 821.828 1.78135 2.8819 0
M  V30 8634 C 820.387 1.62579 3.39478 0
M  V30 8635 C 819.534 1.77501 2.13046 0
M  V30 8636 H 822.485 1.32993 0.865944 0
M  V30 8637 H 822.506 1.27119 3.58638 0
M  V30 8638 H 822.018 2.83661 2.64874 0
M  V30 8639 H 820.119 0.59595 3.67803 0
M  V30 8640 H 820.232 2.42463 4.13217 0
M  V30 8641 H 818.596 1.2046 2.24414 0
M  V30 8642 H 819.379 2.84464 1.92185 0
M  V30 8643 N 821.824 -1.22873 0.986916 0
M  V30 8644 C 823.049 -1.96028 0.677341 0
M  V30 8645 C 823.474 -1.72487 -0.750319 0
M  V30 8646 O 822.832 -1.00036 -1.51203 0
M  V30 8647 C 822.88 -3.46983 0.981593 0
M  V30 8648 O 821.984 -4.12328 0.0770729 0
M  V30 8649 H 821.325 -0.613458 0.254096 0
M  V30 8650 H 823.855 -1.56132 1.32227 0
M  V30 8651 H 823.865 -3.9747 0.920969 0
M  V30 8652 H 822.54 -3.63442 2.02194 0
M  V30 8653 H 821.117 -3.72402 0.192666 0
M  V30 8654 N 823.302 -0.75937 -1.38099 0
M  V30 8655 C 824.713 -0.385078 -1.82686 0
M  V30 8656 C 825.064 1.0871 -1.6333 0
M  V30 8657 O 824.189 1.84084 -1.13762 0
M  V30 8658 C 824.784 -0.692161 -3.31654 0
M  V30 8659 C 823.343 -0.371077 -3.74566 0
M  V30 8660 C 822.49 -0.942375 -2.60796 0
M  V30 8661 H 825.441 -0.955048 -1.26746 0
M  V30 8662 H 825.462 0.0276001 -3.8049 0
M  V30 8663 H 824.974 -1.76369 -3.4571 0
M  V30 8664 H 823.075 0.693637 -3.66087 0
M  V30 8665 H 823.188 -0.870672 -4.71122 0
M  V30 8666 H 821.552 -0.367383 -2.52036 0
M  V30 8667 H 822.335 -2.01905 -2.77649 0
M  V30 8668 N 824.78 1.49157 -0.508906 0
M  V30 8669 C 825.69 2.33045 0.269656 0
M  V30 8670 C 826.706 1.45143 0.959662 0
M  V30 8671 O 827.882 1.78155 0.939295 0
M  V30 8672 C 824.947 3.20772 1.31554 0
M  V30 8673 C 824.008 4.24531 0.638131 0
M  V30 8674 C 823.241 5.08065 1.63418 0
M  V30 8675 O 823.464 4.93238 2.86483 0
M  V30 8676 O 822.398 5.90117 1.18516 0
M  V30 8677 H 826.224 3.00821 -0.417183 0
M  V30 8678 H 823.809 1.46938 -0.270119 0
M  V30 8679 H 825.691 3.75095 1.92047 0
M  V30 8680 H 824.366 2.55681 1.98516 0
M  V30 8681 H 823.273 3.74099 -0.00674357 0
M  V30 8682 H 824.606 4.92199 0.0108155 0
M  V30 8683 N 826.258 0.243083 1.55714 0
M  V30 8684 C 827.188 -0.652336 2.24203 0
M  V30 8685 C 828.169 -1.1843 1.221 0
M  V30 8686 O 829.354 -1.22435 1.50743 0
M  V30 8687 C 826.484 -1.85111 2.93856 0
M  V30 8688 C 825.438 -1.45208 4.02615 0
M  V30 8689 C 824.764 -2.73137 4.59674 0
M  V30 8690 C 826.064 -0.625988 5.18535 0
M  V30 8691 H 827.758 -0.0812504 2.9929 0
M  V30 8692 H 825.304 -0.0376388 1.43951 0
M  V30 8693 H 827.257 -2.48314 3.40468 0
M  V30 8694 H 825.981 -2.44751 2.16251 0
M  V30 8695 H 824.64 -0.843406 3.56766 0
M  V30 8696 H 824.288 -3.30967 3.78774 0
M  V30 8697 H 823.988 -2.47163 5.33089 0
M  V30 8698 H 825.512 -3.37245 5.09017 0
M  V30 8699 H 826.926 -1.16223 5.61396 0
M  V30 8700 H 825.323 -0.462465 5.98315 0
M  V30 8701 H 826.393 0.362652 4.83542 0
M  V30 8702 N 827.736 -1.57571 -0.0300757 0
M  V30 8703 C 828.964 -1.93485 -0.732891 0
M  V30 8704 C 829.379 -0.842758 -1.68947 0
M  V30 8705 O 828.736 0.180904 -1.81601 0
M  V30 8706 C 828.787 -3.29328 -1.49082 0
M  V30 8707 O 828.508 -4.34341 -0.572639 0
M  V30 8708 C 830.009 -3.79517 -2.29088 0
M  V30 8709 H 827.229 -0.638588 -0.206026 0
M  V30 8710 H 829.773 -2.04496 0.0120966 0
M  V30 8711 H 827.928 -3.19716 -2.1877 0
M  V30 8712 H 828.342 -5.12748 -1.10406 0
M  V30 8713 H 829.816 -4.77081 -2.77665 0
M  V30 8714 H 830.293 -3.10659 -3.10464 0
M  V30 8715 H 830.899 -3.92208 -1.64477 0
M  V30 8716 N 829.214 0.302327 -1.54673 0
M  V30 8717 C 830.439 1.06103 -1.78205 0
M  V30 8718 C 830.864 1.80204 -0.53926 0
M  V30 8719 O 830.222 1.73975 0.510142 0
M  V30 8720 C 830.27 2.01829 -2.98827 0
M  V30 8721 O 829.374 3.10108 -2.71858 0
M  V30 8722 H 828.715 0.30487 -0.589873 0
M  V30 8723 H 831.245 0.340153 -2.01753 0
M  V30 8724 H 831.255 2.44319 -3.2676 0
M  V30 8725 H 829.93 1.473 -3.88942 0
M  V30 8726 H 828.507 2.72142 -2.54937 0
M  V30 8727 N 830.692 1.47107 0.565454 0
M  V30 8728 C 831.602 1.61591 1.70075 0
M  V30 8729 C 832.618 0.498931 1.66693 0
M  V30 8730 O 833.794 0.765372 1.8629 0
M  V30 8731 C 830.859 1.61887 3.06583 0
M  V30 8732 C 829.92 2.84949 3.21096 0
M  V30 8733 C 829.153 2.85221 4.51093 0
M  V30 8734 O 829.376 1.94959 5.36048 0
M  V30 8735 O 828.31 3.76982 4.69221 0
M  V30 8736 H 832.136 2.57638 1.60799 0
M  V30 8737 H 829.721 1.30097 0.73451 0
M  V30 8738 H 831.603 1.64809 3.87835 0
M  V30 8739 H 830.278 0.69005 3.16259 0
M  V30 8740 H 829.185 2.87575 2.39273 0
M  V30 8741 H 830.518 3.77098 3.1632 0
M  V30 8742 N 832.17 -0.811516 1.35101 0
M  V30 8743 C 833.08 -1.95475 1.29718 0
M  V30 8744 C 834.096 -1.72813 0.202909 0
M  V30 8745 O 835.272 -1.96725 0.431414 0
M  V30 8746 C 832.337 -3.29975 1.06385 0
M  V30 8747 C 831.398 -3.65566 2.25077 0
M  V30 8748 C 830.631 -4.93648 2.02848 0
M  V30 8749 O 830.854 -5.617 0.992442 0
M  V30 8750 O 829.788 -5.27384 2.90087 0
M  V30 8751 H 833.614 -2.02961 2.25921 0
M  V30 8752 H 831.199 -0.948583 1.15422 0
M  V30 8753 H 833.081 -4.10506 0.951999 0
M  V30 8754 H 831.756 -3.2343 0.132294 0
M  V30 8755 H 830.663 -2.85432 2.41825 0
M  V30 8756 H 831.996 -3.7681 3.16662 0
M  V30 8757 N 833.648 -1.19017 -1.03309 0
M  V30 8758 C 834.596 -0.920627 -2.13605 0
M  V30 8759 C 835.59 0.121969 -1.6896 0
M  V30 8760 O 836.796 -0.0268854 -1.7998 0
M  V30 8761 H 833.171 -0.280284 -0.697814 0
M  V30 8762 H 835.142 -1.85755 -2.33533 0
M  V30 8763 C 833.891 -0.471198 -3.44492 0
M  V30 8764 H 833.214 -1.26499 -3.7926 0
M  V30 8765 H 834.654 -0.321663 -4.22778 0
M  V30 8766 C 833.113 0.81411 -3.26916 0
M  V30 8767 O 833.643 1.87654 -3.55175 0
M  V30 8768 N 831.849 0.769695 -2.80221 0
M  V30 8769 H 831.396 -0.0951278 -2.57424 0
M  V30 8770 H 831.354 1.63008 -2.68842 0
M  V30 8771 N 835.127 1.22348 -0.993418 0
M  V30 8772 C 836.074 2.24294 -0.544118 0
M  V30 8773 C 837.044 1.60602 0.42381 0
M  V30 8774 O 838.229 1.87952 0.328453 0
M  V30 8775 C 835.369 3.44837 0.134578 0
M  V30 8776 C 834.482 4.23043 -0.875151 0
M  V30 8777 C 833.617 5.30928 -0.169919 0
M  V30 8778 C 832.656 6.00853 -1.16798 0
M  V30 8779 N 831.793 7.00381 -0.491021 0
M  V30 8780 H 836.633 2.6209 -1.4182 0
M  V30 8781 H 834.17 1.2881 -0.710384 0
M  V30 8782 H 836.128 4.13625 0.544998 0
M  V30 8783 H 834.758 3.07804 0.972446 0
M  V30 8784 H 833.81 3.53546 -1.40389 0
M  V30 8785 H 835.122 4.71237 -1.63516 0
M  V30 8786 H 834.276 6.05972 0.297205 0
M  V30 8787 H 833.015 4.8371 0.622586 0
M  V30 8788 H 832.02 5.24591 -1.64573 0
M  V30 8789 H 833.245 6.50159 -1.96137 0
M  V30 8790 H 831.191 6.55393 0.282037 0
M  V30 8791 H 831.108 7.46584 -1.18947 0
M  V30 8792 H 832.376 7.79486 -0.0467169 0
M  V30 8793 N 836.605 0.766683 1.37694 0
M  V30 8794 C 837.854 0.325425 1.99057 0
M  V30 8795 C 838.167 -1.10275 1.61551 0
M  V30 8796 O 839.373 -1.64513 2.1598 0
M  V30 8797 C 837.829 0.530886 3.55963 0
M  V30 8798 C 837.437 1.96899 4.02411 0
M  V30 8799 C 839.181 0.152997 4.24224 0
M  V30 8800 C 837.088 2.12232 5.52007 0
M  V30 8801 H 836.018 0.117929 0.744721 0
M  V30 8802 H 838.669 0.945091 1.5729 0
M  V30 8803 H 837.051 -0.158162 3.95684 0
M  V30 8804 H 838.225 2.69258 3.73948 0
M  V30 8805 H 836.54 2.303 3.46916 0
M  V30 8806 H 839.137 0.24614 5.34133 0
M  V30 8807 H 839.48 -0.896096 4.06541 0
M  V30 8808 H 840.013 0.794398 3.89787 0
M  V30 8809 H 836.752 3.15442 5.7461 0
M  V30 8810 H 836.272 1.4435 5.82171 0
M  V30 8811 H 837.951 1.9185 6.17902 0
M  V30 8812 N 838.083 -1.48885 0.516809 0
M  V30 8813 C 839.494 -1.86557 0.0729921 0
M  V30 8814 C 839.845 -1.42767 -1.34581 0
M  V30 8815 O 838.97 -0.812514 -2.00567 0
M  V30 8816 C 839.565 -3.38567 0.125686 0
M  V30 8817 C 838.124 -3.75481 -0.262867 0
M  V30 8818 C 837.271 -2.72913 0.491281 0
M  V30 8819 H 840.222 -1.40978 0.728767 0
M  V30 8820 H 840.243 -3.74629 -0.665831 0
M  V30 8821 H 839.755 -3.70408 1.15842 0
M  V30 8822 H 837.856 -3.49251 -1.29824 0
M  V30 8823 H 837.969 -4.79052 0.067579 0
M  V30 8824 H 836.333 -2.54627 -0.0608525 0
M  V30 8825 H 837.116 -3.07599 1.5244 0
M  V30 8826 N 839.561 -0.251338 -1.55583 0
M  V30 8827 C 840.838 0.422729 -1.90977 0
M  V30 8828 C 841.218 1.75534 -1.17265 0
M  V30 8829 O 840.566 2.26632 -0.291588 0
M  V30 8830 C 840.776 0.586448 -3.44037 0
M  V30 8831 C 842.124 0.880294 -4.15375 0
M  V30 8832 O 843.148 0.672148 -3.49801 0
M  V30 8833 O 842.007 1.27694 -5.31372 0
M  V30 8834 H 839.101 0.227622 -0.795058 0
M  V30 8835 H 841.647 -0.295733 -1.67103 0
M  V30 8836 H 840.419 -0.352327 -3.89711 0
M  V30 8837 H 840.042 1.35528 -3.73789 0
M  V30 8838 N 841.039 1.57585 0.0217189 0
M  V30 8839 C 842.002 2.06004 1.00474 0
M  V30 8840 C 843.002 0.965461 1.2859 0
M  V30 8841 O 844.192 1.22884 1.23471 0
M  V30 8842 C 841.324 2.48319 2.33561 0
M  V30 8843 H 842.517 2.94112 0.586346 0
M  V30 8844 H 840.07 1.53973 0.268716 0
M  V30 8845 H 840.805 1.63389 2.80133 0
M  V30 8846 H 840.59 3.28239 2.1448 0
M  V30 8847 H 842.08 2.86181 3.04122 0
M  V30 8848 N 842.517 -0.29412 1.54831 0
M  V30 8849 C 843.794 -1.04847 1.65126 0
M  V30 8850 C 844.174 -2.04996 0.503986 0
M  V30 8851 O 843.522 -2.22996 -0.498496 0
M  V30 8852 C 843.732 -1.72418 3.03435 0
M  V30 8853 C 845.08 -2.24362 3.60481 0
M  V30 8854 O 846.104 -1.8244 3.05932 0
M  V30 8855 O 844.963 -3.01196 4.56008 0
M  V30 8856 H 842.057 -0.485032 0.669831 0
M  V30 8857 H 844.603 -0.291659 1.67175 0
M  V30 8858 H 843.375 -0.997351 3.78376 0
M  V30 8859 H 842.998 -2.54839 3.05193 0
M  V30 8860 N 843.995 -1.47404 -0.557645 0
M  V30 8861 C 844.942 -1.59859 -1.66475 0
M  V30 8862 C 845.912 -0.441644 -1.60121 0
M  V30 8863 O 847.097 -0.661641 -1.78961 0
M  V30 8864 C 844.237 -1.61843 -3.04797 0
M  V30 8865 C 843.35 -2.8845 -3.2159 0
M  V30 8866 C 842.485 -2.81773 -4.50308 0
M  V30 8867 C 841.524 -4.03208 -4.60532 0
M  V30 8868 N 840.661 -3.94769 -5.80604 0
M  V30 8869 H 845.501 -2.54415 -1.55168 0
M  V30 8870 H 843.038 -1.26194 -0.755876 0
M  V30 8871 H 844.996 -1.60976 -3.84893 0
M  V30 8872 H 843.626 -0.707997 -3.1494 0
M  V30 8873 H 842.678 -2.99186 -2.34929 0
M  V30 8874 H 843.99 -3.78379 -3.25009 0
M  V30 8875 H 843.144 -2.79153 -5.38663 0
M  V30 8876 H 841.883 -1.89527 -4.49367 0
M  V30 8877 H 840.888 -4.06133 -3.70589 0
M  V30 8878 H 842.113 -4.9658 -4.63233 0
M  V30 8879 H 840.059 -3.05326 -5.80613 0
M  V30 8880 H 839.976 -4.78375 -5.854 0
M  V30 8881 H 841.244 -3.96165 -6.71322 0
M  V30 8882 N 845.473 0.80434 -1.35529 0
M  V30 8883 C 846.436 1.89788 -1.28503 0
M  V30 8884 C 847.436 1.59601 -0.195983 0
M  V30 8885 O 848.626 1.68292 -0.449827 0
M  V30 8886 C 845.758 3.26255 -0.98847 0
M  V30 8887 H 846.951 1.97436 -2.25741 0
M  V30 8888 H 844.504 1.00046 -1.20086 0
M  V30 8889 H 845.239 3.24294 -0.0200541 0
M  V30 8890 H 845.024 3.49551 -1.77641 0
M  V30 8891 H 846.514 4.06298 -0.964975 0
M  V30 8892 N 846.951 1.19563 1.02676 0
M  V30 8893 C 847.899 0.931942 2.13114 0
M  V30 8894 C 848.893 -0.113007 1.69023 0
M  V30 8895 O 850.099 0.0364298 1.79963 0
M  V30 8896 H 846.474 0.283981 0.696318 0
M  V30 8897 H 848.445 1.86991 2.32545 0
M  V30 8898 C 847.194 0.489461 3.44238 0
M  V30 8899 H 846.517 1.28508 3.78584 0
M  V30 8900 H 847.957 0.34408 4.22602 0
M  V30 8901 C 846.416 -0.796761 3.27343 0
M  V30 8902 O 846.946 -1.85767 3.56165 0
M  V30 8903 N 845.152 -0.754824 2.80626 0
M  V30 8904 H 844.699 0.108778 2.5737 0
M  V30 8905 H 844.657 -1.6158 2.69702 0
M  V30 8906 N 848.429 -1.21819 0.999893 0
M  V30 8907 C 849.339 -2.27691 0.565159 0
M  V30 8908 C 850.355 -1.69587 -0.389398 0
M  V30 8909 O 851.531 -1.99786 -0.254499 0
M  V30 8910 C 848.596 -3.46537 -0.106432 0
M  V30 8911 C 847.657 -4.19932 0.891964 0
M  V30 8912 C 846.89 -5.33103 0.252327 0
M  V30 8913 O 847.113 -5.62398 -0.952103 0
M  V30 8914 O 846.047 -5.94184 0.960698 0
M  V30 8915 H 849.873 -2.67059 1.44613 0
M  V30 8916 H 847.458 -1.28119 0.768499 0
M  V30 8917 H 849.34 -4.18631 -0.482301 0
M  V30 8918 H 848.015 -3.09079 -0.961865 0
M  V30 8919 H 846.922 -3.5008 1.3189 0
M  V30 8920 H 848.255 -4.61287 1.71682 0
M  V30 8921 N 849.908 -0.773975 -1.37286 0
M  V30 8922 C 850.855 -0.159938 -2.30245 0
M  V30 8923 C 851.825 0.687356 -1.51211 0
M  V30 8924 O 853.01 0.639255 -1.79773 0
M  V30 8925 C 850.15 0.711452 -3.37687 0
M  V30 8926 C 849.263 -0.152692 -4.3173 0
M  V30 8927 C 848.398 0.723613 -5.26248 0
M  V30 8928 C 847.437 -0.14293 -6.11933 0
M  V30 8929 N 846.574 0.691479 -6.98687 0
M  V30 8930 H 851.414 -0.958182 -2.82175 0
M  V30 8931 H 848.951 -0.48411 -1.38906 0
M  V30 8932 H 850.909 1.2315 -3.9861 0
M  V30 8933 H 849.539 1.47528 -2.87116 0
M  V30 8934 H 848.591 -0.790574 -3.72094 0
M  V30 8935 H 849.903 -0.821027 -4.91997 0
M  V30 8936 H 849.057 1.31006 -5.92387 0
M  V30 8937 H 847.796 1.42562 -4.66398 0
M  V30 8938 H 846.801 -0.7419 -5.44771 0
M  V30 8939 H 848.026 -0.842305 -6.73856 0
M  V30 8940 H 845.972 1.37806 -6.41362 0
M  V30 8941 H 845.889 0.0804911 -7.55957 0
M  V30 8942 H 847.157 1.26225 -7.69212 0
M  V30 8943 N 851.386 1.48609 -0.524698 0
M  V30 8944 C 852.333 2.29539 0.240956 0
M  V30 8945 C 853.303 1.37033 0.938681 0
M  V30 8946 O 854.488 1.65996 0.940737 0
M  V30 8947 C 851.628 3.20278 1.28514 0
M  V30 8948 C 850.741 4.27858 0.596798 0
M  V30 8949 C 849.876 5.05784 1.62346 0
M  V30 8950 C 848.915 6.05173 0.918287 0
M  V30 8951 N 848.052 6.76176 1.89025 0
M  V30 8952 H 852.892 2.945 -0.455368 0
M  V30 8953 H 850.429 1.45188 -0.236403 0
M  V30 8954 H 852.387 3.71281 1.90279 0
M  V30 8955 H 851.017 2.57251 1.94992 0
M  V30 8956 H 850.069 3.80162 -0.134668 0
M  V30 8957 H 851.381 4.98782 0.0428506 0
M  V30 8958 H 850.535 5.60775 2.31553 0
M  V30 8959 H 849.274 4.34687 2.2113 0
M  V30 8960 H 848.279 5.49391 0.21212 0
M  V30 8961 H 849.504 6.78265 0.336633 0
M  V30 8962 H 847.45 6.07834 2.46726 0
M  V30 8963 H 847.367 7.43157 1.3876 0
M  V30 8964 H 848.635 7.35759 2.57446 0
M  V30 8965 N 852.864 0.259585 1.55447 0
M  V30 8966 C 854.11 -0.362143 1.9954 0
M  V30 8967 C 854.443 -1.5666 1.14767 0
M  V30 8968 O 853.718 -1.93319 0.214025 0
M  V30 8969 C 854.001 -0.759588 3.51998 0
M  V30 8970 C 853.854 0.451134 4.47532 0
M  V30 8971 C 855.173 -1.60186 4.09913 0
M  V30 8972 H 852.292 -0.130157 0.725416 0
M  V30 8973 H 854.934 0.363431 1.86492 0
M  V30 8974 H 853.084 -1.3778 3.63248 0
M  V30 8975 H 854.756 1.08965 4.48246 0
M  V30 8976 H 852.999 1.092 4.19831 0
M  V30 8977 H 853.67 0.129518 5.51848 0
M  V30 8978 H 856.146 -1.0799 4.01842 0
M  V30 8979 H 855.022 -1.84879 5.16828 0
M  V30 8980 H 855.283 -2.57787 3.59163 0
M  V30 8981 N 854.342 -1.57594 -0.0133615 0
M  V30 8982 C 855.619 -1.81173 -0.737273 0
M  V30 8983 C 855.999 -0.861395 -1.92726 0
M  V30 8984 O 855.347 0.0929324 -2.28311 0
M  V30 8985 C 855.557 -3.29314 -1.15557 0
M  V30 8986 C 856.905 -3.94707 -1.56498 0
M  V30 8987 O 857.929 -3.33557 -1.24973 0
M  V30 8988 O 856.788 -5.02402 -2.15069 0
M  V30 8989 H 853.882 -0.745575 -0.357837 0
M  V30 8990 H 856.428 -1.69696 0.0110674 0
M  V30 8991 H 855.2 -3.90096 -0.30677 0
M  V30 8992 H 854.823 -3.45739 -1.96343 0
M  V30 8993 N 855.82 0.285905 -1.54985 0
M  V30 8994 C 856.752 1.37505 -1.83371 0
M  V30 8995 C 857.765 1.46138 -0.717454 0
M  V30 8996 O 858.954 1.48186 -0.995142 0
M  V30 8997 C 856.054 2.7575 -1.97016 0
M  V30 8998 C 855.227 2.89866 -3.27561 0
M  V30 8999 C 854.286 4.08704 -3.31433 0
M  V30 9000 O 853.312 4.00073 -4.04883 0
M  V30 9001 N 854.514 5.20062 -2.57907 0
M  V30 9002 H 857.279 1.13505 -2.77375 0
M  V30 9003 H 854.84 0.476006 -1.54744 0
M  V30 9004 H 856.832 3.5352 -1.96991 0
M  V30 9005 H 855.402 2.9263 -1.09938 0
M  V30 9006 H 854.622 1.99085 -3.40234 0
M  V30 9007 H 855.91 2.96219 -4.13681 0
M  V30 9008 H 855.308 5.29958 -1.97891 0
M  V30 9009 H 853.865 5.96111 -2.63619 0
M  V30 9010 N 857.298 1.47698 0.54982 0
M  V30 9011 C 858.709 1.48474 1.13191 0
M  V30 9012 C 859.06 0.243504 1.94683 0
M  V30 9013 O 858.185 -0.651009 2.06375 0
M  V30 9014 C 858.78 2.69022 2.05944 0
M  V30 9015 C 857.339 2.72733 2.5941 0
M  V30 9016 C 856.486 2.41691 1.35944 0
M  V30 9017 H 859.437 1.55101 0.336048 0
M  V30 9018 H 859.458 2.46412 2.89934 0
M  V30 9019 H 858.97 3.59345 1.46605 0
M  V30 9020 H 857.071 1.86568 3.22526 0
M  V30 9021 H 857.184 3.73628 2.99899 0
M  V30 9022 H 855.548 1.92428 1.66864 0
M  V30 9023 H 856.331 3.34231 0.783869 0
M  V30 9024 N 858.776 -0.797141 1.35954 0
M  V30 9025 C 860.187 -1.37179 1.26644 0
M  V30 9026 C 860.538 -1.9596 -0.0971046 0
M  V30 9027 O 859.663 -1.91994 -0.998355 0
M  V30 9028 C 860.258 -2.49395 2.2932 0
M  V30 9029 C 858.817 -3.02697 2.23722 0
M  V30 9030 C 857.964 -1.75721 2.14517 0
M  V30 9031 H 860.915 -0.599407 1.46945 0
M  V30 9032 H 860.936 -3.28204 1.92515 0
M  V30 9033 H 860.448 -2.06584 3.2855 0
M  V30 9034 H 858.549 -3.49948 1.27934 0
M  V30 9035 H 858.662 -3.60036 3.16087 0
M  V30 9036 H 857.026 -1.97649 1.60646 0
M  V30 9037 H 857.809 -1.35049 3.15621 0
M  V30 9038 N 860.254 -1.20106 -1.0204 0
M  V30 9039 C 861.164 -0.962051 -2.13967 0
M  V30 9040 C 862.18 0.0808053 -1.73812 0
M  V30 9041 O 863.356 -0.105774 -2.01122 0
M  V30 9042 C 860.421 -0.513108 -3.42882 0
M  V30 9043 C 859.482 -1.62636 -3.97301 0
M  V30 9044 C 858.715 -1.19875 -5.20063 0
M  V30 9045 O 858.938 -0.0658423 -5.70362 0
M  V30 9046 O 857.872 -2.00467 -5.67536 0
M  V30 9047 H 861.698 -1.8991 -2.36998 0
M  V30 9048 H 859.283 -0.984608 -1.12365 0
M  V30 9049 H 861.165 -0.271797 -4.20523 0
M  V30 9050 H 859.84 0.395402 -3.21276 0
M  V30 9051 H 858.747 -1.92192 -3.20957 0
M  V30 9052 H 860.08 -2.51174 -4.23288 0
M  V30 9053 N 861.732 1.21287 -1.00634 0
M  V30 9054 C 862.695 2.21927 -0.572821 0
M  V30 9055 C 863.695 1.5691 0.351541 0
M  V30 9056 O 864.885 1.73623 0.141643 0
M  V30 9057 C 862.017 3.40501 0.164932 0
M  V30 9058 H 863.21 2.61795 -1.463 0
M  V30 9059 H 860.763 1.34571 -0.794998 0
M  V30 9060 H 861.498 3.06123 1.07049 0
M  V30 9061 H 861.283 3.88912 -0.498962 0
M  V30 9062 H 862.773 4.15103 0.455945 0
M  V30 9063 N 863.21 0.781244 1.36873 0
M  V30 9064 C 864.157 0.172146 2.30157 0
M  V30 9065 C 865.127 -0.679328 1.51573 0
M  V30 9066 O 866.312 -0.629713 1.80109 0
M  V30 9067 C 863.452 -0.693534 3.38059 0
M  V30 9068 C 862.565 0.175586 4.31643 0
M  V30 9069 C 861.7 -0.695695 5.26625 0
M  V30 9070 C 860.739 0.17538 6.11849 0
M  V30 9071 N 859.876 -0.654416 6.99043 0
M  V30 9072 H 864.716 0.973133 2.81663 0
M  V30 9073 H 862.253 0.491469 1.38647 0
M  V30 9074 H 864.211 -1.21035 3.99257 0
M  V30 9075 H 862.841 -1.46003 2.87894 0
M  V30 9076 H 861.893 0.810295 3.7167 0
M  V30 9077 H 863.205 0.847107 4.91554 0
M  V30 9078 H 862.359 -1.27863 5.93073 0
M  V30 9079 H 861.098 -1.40087 4.67148 0
M  V30 9080 H 860.103 0.77078 5.4437 0
M  V30 9081 H 861.328 0.87803 6.734 0
M  V30 9082 H 859.274 -1.34403 6.42084 0
M  V30 9083 H 859.191 -0.0403998 7.55989 0
M  V30 9084 H 860.459 -1.22144 7.69871 0
M  V30 9085 N 864.689 -1.48329 0.532571 0
M  V30 9086 C 865.636 -2.29663 -0.228779 0
M  V30 9087 C 866.606 -1.37529 -0.931401 0
M  V30 9088 O 867.791 -1.66493 -0.931921 0
M  V30 9089 C 864.931 -3.20955 -1.26814 0
M  V30 9090 C 864.044 -4.28168 -0.574099 0
M  V30 9091 C 863.179 -5.06638 -1.59661 0
M  V30 9092 C 862.218 -6.05651 -0.88618 0
M  V30 9093 N 861.355 -6.77169 -1.85436 0
M  V30 9094 H 866.195 -2.94255 0.47098 0
M  V30 9095 H 863.732 -1.45061 0.2441 0
M  V30 9096 H 865.69 -3.72285 -1.88307 0
M  V30 9097 H 864.32 -2.58281 -1.93625 0
M  V30 9098 H 863.372 -3.80085 0.154827 0
M  V30 9099 H 864.684 -4.98797 -0.0163984 0
M  V30 9100 H 863.838 -5.61995 -2.28576 0
M  V30 9101 H 862.577 -4.35854 -2.18821 0
M  V30 9102 H 861.582 -5.49495 -0.182981 0
M  V30 9103 H 862.807 -6.78434 -0.300659 0
M  V30 9104 H 860.753 -6.09134 -2.43499 0
M  V30 9105 H 860.67 -7.43882 -1.34816 0
M  V30 9106 H 861.938 -7.37114 -2.53541 0
M  V30 9107 N 866.167 -0.267825 -1.55308 0
M  V30 9108 C 867.578 0.231344 -1.85261 0
M  V30 9109 C 867.929 1.56006 -1.18982 0
M  V30 9110 O 867.054 2.1111 -0.475554 0
M  V30 9111 C 867.649 0.426537 -3.36104 0
M  V30 9112 C 866.208 0.869945 -3.66209 0
M  V30 9113 C 865.355 -0.0409522 -2.7727 0
M  V30 9114 H 868.306 -0.489821 -1.50952 0
M  V30 9115 H 868.327 1.26616 -3.58816 0
M  V30 9116 H 867.839 -0.540678 -3.84315 0
M  V30 9117 H 865.94 1.84889 -3.23492 0
M  V30 9118 H 866.053 0.712316 -4.73775 0
M  V30 9119 H 864.417 0.474097 -2.50249 0
M  V30 9120 H 865.2 -1.00392 -3.28293 0
M  V30 9121 N 867.645 1.57599 0.00500368 0
M  V30 9122 C 868.592 2.08106 0.998025 0
M  V30 9123 C 869.562 0.975374 1.34446 0
M  V30 9124 O 870.747 1.24749 1.44369 0
M  V30 9125 C 867.887 2.58496 2.28635 0
M  V30 9126 C 867 3.82947 1.99939 0
M  V30 9127 C 866.135 4.21857 3.22816 0
M  V30 9128 C 865.174 5.39159 2.89783 0
M  V30 9129 N 864.311 5.73386 4.05183 0
M  V30 9130 H 869.151 2.92684 0.560385 0
M  V30 9131 H 866.688 1.44692 0.265053 0
M  V30 9132 H 868.646 2.85787 3.03943 0
M  V30 9133 H 867.276 1.768 2.70077 0
M  V30 9134 H 866.328 3.62594 1.1502 0
M  V30 9135 H 867.64 4.68358 1.71588 0
M  V30 9136 H 866.794 4.50404 4.06474 0
M  V30 9137 H 865.533 3.35145 3.54301 0
M  V30 9138 H 864.538 5.1034 2.04532 0
M  V30 9139 H 865.763 6.27543 2.59551 0
M  V30 9140 H 863.709 4.89632 4.36574 0
M  V30 9141 H 863.626 6.53359 3.80339 0
M  V30 9142 H 864.894 6.06522 4.89644 0
M  V30 9143 N 869.123 -0.277682 1.55134 0
M  V30 9144 C 870.372 -1.00766 1.74726 0
M  V30 9145 C 870.685 -1.87617 0.553092 0
M  V30 9146 O 871.891 -2.64058 0.631318 0
M  V30 9147 C 870.347 -1.84147 3.09221 0
M  V30 9148 C 869.955 -1.02186 4.3619 0
M  V30 9149 C 871.699 -2.56604 3.38164 0
M  V30 9150 C 869.606 -1.84978 5.61727 0
M  V30 9151 H 868.536 -0.379948 0.651273 0
M  V30 9152 H 871.187 -0.263543 1.81598 0
M  V30 9153 H 869.569 -2.62637 2.96375 0
M  V30 9154 H 870.743 -0.281459 4.5994 0
M  V30 9155 H 869.058 -0.412054 4.14356 0
M  V30 9156 H 871.655 -3.18942 4.29162 0
M  V30 9157 H 871.998 -3.26647 2.58085 0
M  V30 9158 H 872.531 -1.85147 3.52087 0
M  V30 9159 H 869.27 -1.19365 6.4454 0
M  V30 9160 H 868.79 -2.56628 5.42128 0
M  V30 9161 H 870.469 -2.42458 5.99853 0
M  V30 9162 N 870.601 -1.47988 -0.541979 0
M  V30 9163 C 871.548 -1.61615 -1.6477 0
M  V30 9164 C 872.518 -0.458602 -1.59644 0
M  V30 9165 O 873.703 -0.680585 -1.78249 0
M  V30 9166 C 870.843 -1.65066 -3.03063 0
M  V30 9167 C 869.956 -2.91845 -3.18513 0
M  V30 9168 C 869.091 -2.86534 -4.47294 0
M  V30 9169 C 868.13 -4.0807 -4.5623 0
M  V30 9170 N 867.267 -4.00905 -5.76385 0
M  V30 9171 H 872.107 -2.56046 -1.52461 0
M  V30 9172 H 869.644 -1.26989 -0.742449 0
M  V30 9173 H 871.602 -1.65049 -3.83164 0
M  V30 9174 H 870.232 -0.74136 -3.14171 0
M  V30 9175 H 869.284 -3.01661 -2.31743 0
M  V30 9176 H 870.596 -3.81804 -3.20978 0
M  V30 9177 H 869.75 -2.84851 -5.35672 0
M  V30 9178 H 868.489 -1.94283 -4.47332 0
M  V30 9179 H 867.494 -4.10041 -3.66261 0
M  V30 9180 H 868.719 -5.01465 -4.5794 0
M  V30 9181 H 866.665 -3.11467 -5.77342 0
M  V30 9182 H 866.582 -4.84557 -5.80293 0
M  V30 9183 H 867.85 -4.03263 -6.67083 0
M  V30 9184 N 872.079 0.78992 -1.36375 0
M  V30 9185 C 873.325 1.55007 -1.3077 0
M  V30 9186 C 873.658 1.93871 0.112979 0
M  V30 9187 O 872.933 1.6267 1.06625 0
M  V30 9188 C 873.216 2.82748 -2.22993 0
M  V30 9189 C 873.069 2.50253 -3.73756 0
M  V30 9190 C 874.388 3.84569 -2.13998 0
M  V30 9191 H 871.507 0.562362 -0.476359 0
M  V30 9192 H 874.149 0.907582 -1.66922 0
M  V30 9193 H 872.299 3.37573 -1.92292 0
M  V30 9194 H 873.971 2.01482 -4.14973 0
M  V30 9195 H 872.214 1.83203 -3.93216 0
M  V30 9196 H 872.885 3.41487 -4.33694 0
M  V30 9197 H 875.361 3.39188 -2.4102 0
M  V30 9198 H 874.237 4.717 -2.80697 0
M  V30 9199 H 874.498 4.27491 -1.12711 0
M  V30 9200 N 873.557 1.20646 1.01402 0
M  V30 9201 C 874.803 1.0197 1.753 0
M  V30 9202 C 875.136 -0.446803 1.8899 0
M  V30 9203 O 874.411 -1.33169 1.41762 0
M  V30 9204 C 874.694 1.70693 3.17074 0
M  V30 9205 C 874.547 3.24805 3.11162 0
M  V30 9206 C 875.866 1.44212 4.15802 0
M  V30 9207 H 872.985 0.371844 0.636318 0
M  V30 9208 H 875.627 1.48696 1.18277 0
M  V30 9209 H 873.777 1.30968 3.65759 0
M  V30 9210 H 875.449 3.73841 2.70261 0
M  V30 9211 H 873.692 3.55576 2.48492 0
M  V30 9212 H 874.363 3.68049 4.11393 0
M  V30 9213 H 876.839 1.7868 3.75783 0
M  V30 9214 H 875.715 1.94825 5.13161 0
M  V30 9215 H 875.976 0.370252 4.40547 0
M  V30 9216 N 875.035 -1.20752 1.01276 0
M  V30 9217 C 875.983 -2.25432 0.572989 0
M  V30 9218 C 876.977 -1.64935 -0.386354 0
M  V30 9219 O 878.183 -1.7816 -0.256696 0
M  V30 9220 H 874.558 -0.733229 0.166972 0
M  V30 9221 H 876.529 -2.59856 1.46687 0
M  V30 9222 C 875.278 -3.47615 -0.0768249 0
M  V30 9223 H 874.601 -3.94442 0.652354 0
M  V30 9224 H 876.041 -4.22572 -0.3477 0
M  V30 9225 C 874.5 -3.1003 -1.31845 0
M  V30 9226 O 875.03 -3.21216 -2.41211 0
M  V30 9227 N 873.236 -2.64616 -1.20111 0
M  V30 9228 H 872.783 -2.55714 -0.311184 0
M  V30 9229 H 872.741 -2.39838 -2.03286 0
M  V30 9230 N 876.513 -0.788492 -1.36457 0
M  V30 9231 C 877.759 -0.360995 -1.99561 0
M  V30 9232 C 878.092 1.06433 -1.62437 0
M  V30 9233 O 877.367 1.7352 -0.878705 0
M  V30 9234 C 877.65 -0.523735 -3.56271 0
M  V30 9235 C 877.503 -1.99268 -4.03252 0
M  V30 9236 C 878.822 0.0617908 -4.40057 0
M  V30 9237 H 875.941 -0.13264 -0.724966 0
M  V30 9238 H 878.583 -0.994659 -1.61884 0
M  V30 9239 H 876.733 0.0156979 -3.88497 0
M  V30 9240 H 878.405 -2.59311 -3.81518 0
M  V30 9241 H 876.648 -2.49561 -3.54826 0
M  V30 9242 H 877.319 -2.05752 -5.12221 0
M  V30 9243 H 879.795 -0.398674 -4.14186 0
M  V30 9244 H 878.671 -0.0821089 -5.48839 0
M  V30 9245 H 878.932 1.15381 -4.26778 0
M  V30 9246 N 877.991 1.48044 -0.54043 0
M  V30 9247 C 878.901 2.33565 0.220163 0
M  V30 9248 C 879.917 1.47146 0.928659 0
M  V30 9249 O 881.093 1.80107 0.901295 0
M  V30 9250 C 878.158 3.2349 1.2472 0
M  V30 9251 C 877.219 4.25789 0.547938 0
M  V30 9252 C 876.452 5.11417 1.52605 0
M  V30 9253 O 876.675 4.99204 2.75956 0
M  V30 9254 O 875.609 5.92498 1.05972 0
M  V30 9255 H 879.435 2.99868 -0.480898 0
M  V30 9256 H 877.02 1.46332 -0.301226 0
M  V30 9257 H 878.902 3.79084 1.84047 0
M  V30 9258 H 877.577 2.59835 1.93048 0
M  V30 9259 H 876.484 3.74001 -0.0860941 0
M  V30 9260 H 877.817 4.92111 -0.0935896 0
M  V30 9261 N 879.47 0.276058 1.55163 0
M  V30 9262 C 880.4 -0.604633 2.25536 0
M  V30 9263 C 881.381 -1.15813 1.24585 0
M  V30 9264 O 882.566 -1.1921 1.53306 0
M  V30 9265 C 879.696 -1.78836 2.97716 0
M  V30 9266 C 878.65 -1.36635 4.05604 0
M  V30 9267 C 877.976 -2.63325 4.65364 0
M  V30 9268 C 879.276 -0.515858 5.19746 0
M  V30 9269 H 880.97 -0.0177483 2.99395 0
M  V30 9270 H 878.516 -0.00709627 1.43998 0
M  V30 9271 H 880.469 -2.41036 3.45658 0
M  V30 9272 H 879.193 -2.40109 2.21394 0
M  V30 9273 H 877.852 -0.767541 3.58475 0
M  V30 9274 H 877.5 -3.22858 3.85709 0
M  V30 9275 H 877.2 -2.358 5.38212 0
M  V30 9276 H 878.724 -3.26372 5.16056 0
M  V30 9277 H 880.138 -1.04289 5.63735 0
M  V30 9278 H 878.535 -0.335449 5.99162 0
M  V30 9279 H 879.605 0.465137 4.82664 0
M  V30 9280 N 880.948 -1.576 0.00335426 0
M  V30 9281 C 882.359 -1.7875 -0.539008 0
M  V30 9282 C 882.71 -0.911097 -1.73763 0
M  V30 9283 O 881.835 -0.114476 -2.16097 0
M  V30 9284 C 882.43 -3.24177 -0.984611 0
M  V30 9285 C 880.989 -3.46412 -1.47226 0
M  V30 9286 C 880.136 -2.74024 -0.425004 0
M  V30 9287 H 883.087 -1.57032 0.229511 0
M  V30 9288 H 883.108 -3.32474 -1.85044 0
M  V30 9289 H 882.62 -3.87938 -0.112035 0
M  V30 9290 H 880.721 -2.8787 -2.36562 0
M  V30 9291 H 880.834 -4.55098 -1.49741 0
M  V30 9292 H 879.198 -2.38741 -0.887394 0
M  V30 9293 H 879.981 -3.40486 0.438662 0
M  V30 9294 N 882.426 0.269451 -1.5528 0
M  V30 9295 C 883.675 0.998381 -1.75258 0
M  V30 9296 C 883.988 1.87321 -0.563034 0
M  V30 9297 O 885.194 2.63719 -0.645313 0
M  V30 9298 C 883.65 1.82505 -3.10193 0
M  V30 9299 C 883.258 0.99871 -4.36726 0
M  V30 9300 C 885.002 2.54807 -3.3952 0
M  V30 9301 C 882.909 1.81997 -5.627 0
M  V30 9302 H 881.839 0.376488 -0.653278 0
M  V30 9303 H 884.49 0.253909 -1.81735 0
M  V30 9304 H 882.872 2.61061 -2.97763 0
M  V30 9305 H 884.046 0.257064 -4.60082 0
M  V30 9306 H 882.361 0.390074 -4.14569 0
M  V30 9307 H 884.958 3.16662 -4.30847 0
M  V30 9308 H 885.301 3.25273 -2.59813 0
M  V30 9309 H 885.834 1.83278 -3.53064 0
M  V30 9310 H 882.573 1.15945 -6.45164 0
M  V30 9311 H 882.093 2.53749 -5.43481 0
M  V30 9312 H 883.772 2.39274 -6.0113 0
M  V30 9313 N 883.904 1.48273 0.534124 0
M  V30 9314 C 884.814 1.65162 1.66609 0
M  V30 9315 C 885.83 0.534177 1.65598 0
M  V30 9316 O 887.006 0.804715 1.84625 0
M  V30 9317 C 884.071 1.68354 3.03081 0
M  V30 9318 C 883.132 2.91696 3.1498 0
M  V30 9319 C 882.365 2.94725 4.44941 0
M  V30 9320 O 882.588 2.06285 5.31792 0
M  V30 9321 O 881.522 3.8685 4.61119 0
M  V30 9322 H 885.348 2.60991 1.55298 0
M  V30 9323 H 882.933 1.31626 0.706749 0
M  V30 9324 H 884.815 1.72998 3.84252 0
M  V30 9325 H 883.49 0.756978 3.14725 0
M  V30 9326 H 882.397 2.92586 2.33119 0
M  V30 9327 H 883.73 3.83722 3.0825 0
M  V30 9328 N 885.382 -0.782676 1.36792 0
M  V30 9329 C 886.345 -1.8772 1.31507 0
M  V30 9330 C 887.345 -1.59269 0.221349 0
M  V30 9331 O 888.535 -1.67555 0.476544 0
M  V30 9332 C 885.667 -3.24641 1.04025 0
M  V30 9333 H 886.86 -1.9382 2.28853 0
M  V30 9334 H 884.413 -0.981226 1.21662 0
M  V30 9335 H 885.148 -3.24221 0.0716439 0
M  V30 9336 H 884.933 -3.46681 1.8318 0
M  V30 9337 H 886.423 -4.04711 1.02949 0
M  V30 9338 N 886.86 -1.21182 -1.00761 0
M  V30 9339 C 887.808 -0.965728 -2.11604 0
M  V30 9340 C 888.802 0.0861028 -1.69181 0
M  V30 9341 O 890.008 -0.0650558 -1.79882 0
M  V30 9342 H 886.383 -0.295023 -0.691712 0
M  V30 9343 H 888.354 -1.90667 -2.2954 0
M  V30 9344 C 887.103 -0.544164 -3.43415 0
M  V30 9345 H 886.426 -1.34515 -3.76491 0
M  V30 9346 H 887.866 -0.411268 -4.22001 0
M  V30 9347 C 886.325 0.744583 -3.28569 0
M  V30 9348 O 886.855 1.80078 -3.59075 0
M  V30 9349 N 885.061 0.710083 -2.81791 0
M  V30 9350 H 884.608 -0.14971 -2.57165 0
M  V30 9351 H 884.566 1.57268 -2.72239 0
M  V30 9352 N 888.338 1.20213 -1.01915 0
M  V30 9353 C 889.268 2.25336 -0.612023 0
M  V30 9354 C 890.249 1.65933 0.374186 0
M  V30 9355 O 891.434 1.92464 0.259053 0
M  V30 9356 C 888.564 3.47267 0.047904 0
M  V30 9357 C 887.518 4.1928 -0.859557 0
M  V30 9358 C 886.844 5.3466 -0.0652655 0
M  V30 9359 C 888.144 4.75143 -2.1688 0
M  V30 9360 H 889.838 2.59645 -1.49079 0
M  V30 9361 H 887.384 1.24808 -0.718263 0
M  V30 9362 H 889.337 4.19991 0.344294 0
M  V30 9363 H 888.061 3.12129 0.961404 0
M  V30 9364 H 886.72 3.48425 -1.13999 0
M  V30 9365 H 886.368 4.95767 0.849964 0
M  V30 9366 H 886.068 5.83772 -0.669618 0
M  V30 9367 H 887.592 6.10187 0.224612 0
M  V30 9368 H 889.006 5.39672 -1.9346 0
M  V30 9369 H 887.403 5.34702 -2.72422 0
M  V30 9370 H 888.473 3.93744 -2.83008 0
M  V30 9371 N 889.816 0.795718 1.36037 0
M  V30 9372 C 891.062 0.371574 1.99367 0
M  V30 9373 C 891.395 -1.0557 1.62999 0
M  V30 9374 O 890.67 -1.73051 0.887895 0
M  V30 9375 C 890.953 0.542622 3.55988 0
M  V30 9376 C 890.806 2.01404 4.0219 0
M  V30 9377 C 892.125 -0.0384527 4.40083 0
M  V30 9378 H 889.244 0.136483 0.724252 0
M  V30 9379 H 891.886 1.00323 1.61355 0
M  V30 9380 H 890.036 0.0049053 3.885 0
M  V30 9381 H 891.708 2.6133 3.80137 0
M  V30 9382 H 889.951 2.51439 3.53498 0
M  V30 9383 H 890.622 2.08466 5.11122 0
M  V30 9384 H 893.098 0.420634 4.13968 0
M  V30 9385 H 891.974 0.111214 5.48787 0
M  V30 9386 H 892.235 -1.13116 4.27384 0
M  V30 9387 N 891.294 -1.47756 0.548274 0
M  V30 9388 C 892.54 -2.03379 0.0291238 0
M  V30 9389 C 892.895 -1.41603 -1.30255 0
M  V30 9390 O 892.188 -0.559102 -1.83261 0
M  V30 9391 C 892.382 -3.5716 -0.131069 0
M  V30 9392 C 892.211 -4.33846 1.18353 0
M  V30 9393 C 890.981 -4.74087 1.74841 0
M  V30 9394 C 893.179 -4.69535 2.09861 0
M  V30 9395 N 891.161 -5.35382 3.00398 0
M  V30 9396 C 892.532 -5.31039 3.19997 0
M  V30 9397 C 894.587 -4.51464 2.09964 0
M  V30 9398 C 893.29 -5.7638 4.30323 0
M  V30 9399 C 895.316 -4.97798 3.19297 0
M  V30 9400 C 894.678 -5.59343 4.28152 0
M  V30 9401 H 890.777 -0.780229 0.0526037 0
M  V30 9402 H 893.361 -1.80351 0.733593 0
M  V30 9403 H 891.532 -3.79974 -0.804647 0
M  V30 9404 H 893.264 -3.99422 -0.651476 0
M  V30 9405 H 890.019 -4.55764 1.2875 0
M  V30 9406 H 890.443 -5.7058 3.64372 0
M  V30 9407 H 895.085 -4.03246 1.27093 0
M  V30 9408 H 892.803 -6.23594 5.13961 0
M  V30 9409 H 896.389 -4.85593 3.20454 0
M  V30 9410 H 895.269 -5.94544 5.11358 0
M  V30 9411 N 892.772 -0.284283 -1.55015 0
M  V30 9412 C 893.704 0.63258 -2.20298 0
M  V30 9413 C 894.717 1.11045 -1.1905 0
M  V30 9414 O 895.906 1.03078 -1.4573 0
M  V30 9415 C 893.006 1.87599 -2.82241 0
M  V30 9416 C 892.179 1.5434 -4.09265 0
M  V30 9417 C 891.238 2.64023 -4.55169 0
M  V30 9418 O 890.264 2.29821 -5.20741 0
M  V30 9419 N 891.466 3.94255 -4.26079 0
M  V30 9420 H 894.231 0.0737928 -2.99609 0
M  V30 9421 H 891.792 -0.105767 -1.61554 0
M  V30 9422 H 893.784 2.60289 -3.0989 0
M  V30 9423 H 892.354 2.3436 -2.06868 0
M  V30 9424 H 891.574 0.649912 -3.88806 0
M  V30 9425 H 892.862 1.29634 -4.92009 0
M  V30 9426 H 892.26 4.24859 -3.73512 0
M  V30 9427 H 890.817 4.63295 -4.58477 0
M  V30 9428 N 894.251 1.57596 -0.0117121 0
M  V30 9429 C 895.181 2.12188 0.9746 0
M  V30 9430 C 896.162 1.03379 1.35081 0
M  V30 9431 O 897.347 1.31123 1.4325 0
M  V30 9432 C 894.477 2.63477 2.26268 0
M  V30 9433 C 893.431 3.76917 2.02774 0
M  V30 9434 C 892.757 4.14566 3.37697 0
M  V30 9435 C 894.057 5.03715 1.38089 0
M  V30 9436 H 895.751 2.9485 0.520007 0
M  V30 9437 H 893.297 1.41836 0.248685 0
M  V30 9438 H 895.25 3.00299 2.95633 0
M  V30 9439 H 893.974 1.77953 2.73862 0
M  V30 9440 H 892.633 3.40507 1.35832 0
M  V30 9441 H 892.281 3.26048 3.83016 0
M  V30 9442 H 891.981 4.91 3.22789 0
M  V30 9443 H 893.505 4.53956 4.08358 0
M  V30 9444 H 894.919 5.38233 1.97428 0
M  V30 9445 H 893.316 5.85032 1.33634 0
M  V30 9446 H 894.386 4.83624 0.351575 0
M  V30 9447 N 895.729 -0.261212 1.5542 0
M  V30 9448 C 896.977 -0.989272 1.76232 0
M  V30 9449 C 897.298 -1.86389 0.573067 0
M  V30 9450 O 896.568 -1.91526 -0.41166 0
M  V30 9451 H 895.148 -0.368256 0.64992 0
M  V30 9452 H 897.81 -0.282603 1.9284 0
M  V30 9453 H 896.906 -1.61935 2.66802 0
M  V30 9454 N 897.207 -1.48554 -0.526253 0
M  V30 9455 C 898.154 -1.63354 -1.63046 0
M  V30 9456 C 899.124 -0.475509 -1.59148 0
M  V30 9457 O 900.309 -0.699453 -1.77517 0
M  V30 9458 C 897.449 -1.68271 -3.01295 0
M  V30 9459 C 896.562 -2.95207 -3.15399 0
M  V30 9460 C 895.697 -2.91262 -4.4423 0
M  V30 9461 C 894.736 -4.12886 -4.51876 0
M  V30 9462 N 893.873 -4.06996 -5.721 0
M  V30 9463 H 898.713 -2.57649 -1.49737 0
M  V30 9464 H 896.25 -1.27769 -0.728938 0
M  V30 9465 H 898.208 -1.69104 -3.81392 0
M  V30 9466 H 896.838 -0.774641 -3.13367 0
M  V30 9467 H 895.89 -3.04102 -2.2853 0
M  V30 9468 H 897.202 -3.85187 -3.1691 0
M  V30 9469 H 896.356 -2.90516 -5.32621 0
M  V30 9470 H 895.095 -1.99016 -4.45246 0
M  V30 9471 H 894.1 -4.13902 -3.61891 0
M  V30 9472 H 895.325 -5.06294 -4.52596 0
M  V30 9473 H 893.271 -3.17573 -5.74006 0
M  V30 9474 H 893.188 -4.90685 -5.75121 0
M  V30 9475 H 894.456 -4.10315 -6.62768 0
M  V30 9476 N 898.685 0.775411 -1.37205 0
M  V30 9477 C 899.962 1.5229 -1.22748 0
M  V30 9478 C 900.342 2.10327 0.180487 0
M  V30 9479 O 899.69 1.95206 1.18772 0
M  V30 9480 C 899.9 2.60671 -2.3206 0
M  V30 9481 C 901.248 3.28173 -2.6942 0
M  V30 9482 O 902.272 2.70963 -2.31208 0
M  V30 9483 O 901.131 4.31598 -3.3524 0
M  V30 9484 H 898.225 0.674326 -0.478762 0
M  V30 9485 H 900.771 0.812691 -1.48975 0
M  V30 9486 H 899.543 2.1588 -3.26361 0
M  V30 9487 H 899.166 3.39296 -2.07277 0
M  V30 9488 N 900.163 1.21714 1.00117 0
M  V30 9489 C 901.093 1.00397 2.10815 0
M  V30 9490 C 902.074 -0.0723502 1.69946 0
M  V30 9491 O 903.259 0.0882398 1.93999 0
M  V30 9492 C 900.389 0.572001 3.42557 0
M  V30 9493 C 899.343 1.59331 3.97237 0
M  V30 9494 C 898.669 1.01746 5.2493 0
M  V30 9495 C 899.969 2.98117 4.28863 0
M  V30 9496 H 901.663 1.92983 2.28906 0
M  V30 9497 H 899.209 0.929273 1.10002 0
M  V30 9498 H 901.162 0.410018 4.19401 0
M  V30 9499 H 899.886 -0.38951 3.24269 0
M  V30 9500 H 898.545 1.74293 3.22518 0
M  V30 9501 H 898.193 0.0475491 5.02978 0
M  V30 9502 H 897.893 1.69969 5.62481 0
M  V30 9503 H 899.417 0.866881 6.04415 0
M  V30 9504 H 900.831 2.86578 4.96534 0
M  V30 9505 H 899.228 3.63389 4.77565 0
M  V30 9506 H 900.298 3.48674 3.36979 0
M  V30 9507 N 901.641 -1.19671 1.02551 0
M  V30 9508 C 902.571 -2.25009 0.623965 0
M  V30 9509 C 903.552 -1.66129 -0.36538 0
M  V30 9510 O 904.737 -1.92599 -0.248842 0
M  V30 9511 C 901.867 -3.47287 -0.0294869 0
M  V30 9512 C 900.821 -4.18818 0.881781 0
M  V30 9513 C 900.147 -5.34618 0.0936189 0
M  V30 9514 C 901.447 -4.73986 2.19396 0
M  V30 9515 H 903.141 -2.58851 1.50454 0
M  V30 9516 H 900.687 -1.24425 0.724872 0
M  V30 9517 H 902.64 -4.20168 -0.322016 0
M  V30 9518 H 901.364 -3.12635 -0.944838 0
M  V30 9519 H 900.023 -3.47815 1.15845 0
M  V30 9520 H 899.671 -4.9621 -0.823661 0
M  V30 9521 H 899.371 -5.83409 0.700568 0
M  V30 9522 H 900.895 -6.10297 -0.192249 0
M  V30 9523 H 902.309 -5.38639 1.96319 0
M  V30 9524 H 900.706 -5.3325 2.75254 0
M  V30 9525 H 901.776 -3.92238 2.85092 0
M  V30 9526 N 903.119 -0.802921 -1.35613 0
M  V30 9527 C 904.067 -0.198783 -2.31749 0
M  V30 9528 C 905.061 0.649416 -1.56458 0
M  V30 9529 O 906.267 0.542989 -1.71615 0
M  V30 9530 H 902.642 -0.0455177 -0.750621 0
M  V30 9531 H 904.613 -1.02479 -2.80251 0
M  V30 9532 C 903.362 0.641066 -3.41739 0
M  V30 9533 H 902.685 -0.00226244 -3.998 0
M  V30 9534 H 904.125 1.03022 -4.11294 0
M  V30 9535 C 902.584 1.80505 -2.84464 0
M  V30 9536 O 903.114 2.90235 -2.77717 0
M  V30 9537 N 901.32 1.61542 -2.41563 0
M  V30 9538 H 900.867 0.722863 -2.4725 0
M  V30 9539 H 900.825 2.39581 -2.03589 0
M  V30 9540 N 904.597 1.47463 -0.556102 0
M  V30 9541 C 905.53 2.26934 0.240027 0
M  V30 9542 C 906.508 1.33981 0.921297 0
M  V30 9543 O 907.692 1.63361 0.940506 0
M  V30 9544 C 904.819 3.10982 1.34194 0
M  V30 9545 C 903.865 4.19504 0.769342 0
M  V30 9546 S 904.698 5.34127 -0.383209 0
M  V30 9547 C 905.854 6.21739 0.720548 0
M  V30 9548 H 906.087 2.9411 -0.434348 0
M  V30 9549 H 903.62 1.50556 -0.342402 0
M  V30 9550 H 905.578 3.59976 1.973 0
M  V30 9551 H 904.239 2.4317 1.98814 0
M  V30 9552 H 903.432 4.78036 1.59679 0
M  V30 9553 H 903.034 3.73385 0.214475 0
M  V30 9554 H 905.326 6.58021 1.61292 0
M  V30 9555 H 906.269 7.0789 0.172602 0
M  V30 9556 H 906.677 5.55342 1.01272 0
M  V30 9557 N 906.075 0.2925 1.54862 0
M  V30 9558 C 907.305 -0.321646 2.04081 0
M  V30 9559 C 907.713 -1.48712 1.16967 0
M  V30 9560 O 907.056 -1.82755 0.18609 0
M  V30 9561 C 907.118 -0.848678 3.49339 0
M  V30 9562 C 906.782 0.190416 4.56603 0
M  V30 9563 C 907.779 1.01595 5.09877 0
M  V30 9564 C 905.464 0.329666 5.01217 0
M  V30 9565 C 907.458 1.96676 6.06298 0
M  V30 9566 C 905.145 1.28393 5.9746 0
M  V30 9567 C 906.143 2.10097 6.49883 0
M  V30 9568 O 905.831 3.03907 7.44242 0
M  V30 9569 H 905.563 -0.075098 0.671816 0
M  V30 9570 H 908.117 0.427531 2.00901 0
M  V30 9571 H 906.347 -1.64823 3.49815 0
M  V30 9572 H 908.036 -1.37779 3.81801 0
M  V30 9573 H 908.802 0.919197 4.7621 0
M  V30 9574 H 904.681 -0.296317 4.60047 0
M  V30 9575 H 908.225 2.60488 6.47141 0
M  V30 9576 H 904.122 1.38144 6.30545 0
M  V30 9577 H 904.89 2.98787 7.62016 0
M  V30 9578 N 907.553 -1.57587 0.0200696 0
M  V30 9579 C 908.802 -1.90602 -0.659822 0
M  V30 9580 C 909.115 -0.897216 -1.73808 0
M  V30 9581 O 910.321 -1.11829 -2.47399 0
M  V30 9582 C 908.777 -3.38416 -1.22484 0
M  V30 9583 C 908.385 -4.47637 -0.180339 0
M  V30 9584 C 910.129 -3.80513 -1.88176 0
M  V30 9585 C 908.036 -5.86542 -0.756482 0
M  V30 9586 H 906.966 -0.711272 -0.250216 0
M  V30 9587 H 909.617 -1.83308 0.0838942 0
M  V30 9588 H 907.999 -3.40613 -2.01987 0
M  V30 9589 H 909.173 -4.56987 0.591573 0
M  V30 9590 H 907.488 -4.14687 0.377302 0
M  V30 9591 H 910.085 -4.8164 -2.32222 0
M  V30 9592 H 910.428 -3.15091 -2.72073 0
M  V30 9593 H 910.961 -3.80701 -1.15377 0
M  V30 9594 H 907.7 -6.55485 0.0441468 0
M  V30 9595 H 907.22 -5.80816 -1.49709 0
M  V30 9596 H 908.899 -6.3483 -1.249 0
M  V30 9597 N 909.032 0.252966 -1.55557 0
M  V30 9598 C 909.942 1.33472 -1.92931 0
M  V30 9599 C 910.958 1.52983 -0.828985 0
M  V30 9600 O 912.134 1.66723 -1.12984 0
M  V30 9601 C 909.199 2.6704 -2.21112 0
M  V30 9602 C 908.26 2.56103 -3.44542 0
M  V30 9603 C 907.493 3.83302 -3.71369 0
M  V30 9604 O 907.716 4.84907 -3.00368 0
M  V30 9605 O 906.65 3.823 -4.64898 0
M  V30 9606 H 910.476 1.04768 -2.85057 0
M  V30 9607 H 908.061 0.453208 -1.4236 0
M  V30 9608 H 909.943 3.45981 -2.40572 0
M  V30 9609 H 908.618 2.95489 -1.32166 0
M  V30 9610 H 907.525 1.7547 -3.30396 0
M  V30 9611 H 908.858 2.32601 -4.33772 0
M  V30 9612 N 910.51 1.48831 0.518367 0
M  V30 9613 C 911.738 1.6112 1.298 0
M  V30 9614 C 912.153 0.275872 1.86774 0
M  V30 9615 O 911.51 -0.736416 1.66983 0
M  V30 9616 C 911.561 2.66675 2.44063 0
M  V30 9617 O 911.282 3.95027 1.89434 0
M  V30 9618 C 912.783 2.8951 3.35706 0
M  V30 9619 H 910.003 0.542916 0.394314 0
M  V30 9620 H 912.547 1.94743 0.624142 0
M  V30 9621 H 910.702 2.35879 3.07311 0
M  V30 9622 H 911.116 4.53031 2.64316 0
M  V30 9623 H 912.59 3.67142 4.12202 0
M  V30 9624 H 913.067 1.98768 3.91648 0
M  V30 9625 H 913.673 3.21656 2.7824 0
M  V30 9626 N 911.988 -0.768124 1.37614 0
M  V30 9627 C 912.898 -1.91249 1.35871 0
M  V30 9628 C 913.914 -1.7208 0.257786 0
M  V30 9629 O 915.09 -1.95253 0.493782 0
M  V30 9630 C 912.155 -3.26423 1.16829 0
M  V30 9631 C 911.216 -3.5822 2.36594 0
M  V30 9632 C 910.449 -4.86945 2.1845 0
M  V30 9633 O 910.672 -5.58258 1.17064 0
M  V30 9634 O 909.606 -5.17888 3.06718 0
M  V30 9635 H 913.432 -1.95671 2.32264 0
M  V30 9636 H 911.017 -0.911382 1.18382 0
M  V30 9637 H 912.899 -4.07269 1.08212 0
M  V30 9638 H 911.574 -3.22845 0.235123 0
M  V30 9639 H 910.481 -2.77594 2.50783 0
M  V30 9640 H 911.814 -3.66545 3.2849 0
M  V30 9641 N 913.466 -1.22244 -0.994698 0
M  V30 9642 C 914.714 -1.04384 -1.73056 0
M  V30 9643 C 915.035 0.422204 -1.90374 0
M  V30 9644 O 914.305 1.30383 -1.46209 0
M  V30 9645 H 912.885 -0.383263 -0.641185 0
M  V30 9646 H 915.547 -1.53725 -1.1981 0
M  V30 9647 H 914.643 -1.52021 -2.72573 0
M  V30 9648 N 914.944 1.19125 -1.03184 0
M  V30 9649 C 915.891 2.2245 -0.6152 0
M  V30 9650 C 916.861 1.61869 0.372502 0
M  V30 9651 O 918.046 1.88901 0.268491 0
M  V30 9652 C 915.186 3.45091 0.0248027 0
M  V30 9653 C 914.299 4.20044 -1.0093 0
M  V30 9654 C 913.434 5.30119 -0.338744 0
M  V30 9655 C 912.473 5.96833 -1.35855 0
M  V30 9656 N 911.61 6.98464 -0.713594 0
M  V30 9657 H 916.45 2.57445 -1.50086 0
M  V30 9658 H 913.987 1.26485 -0.751005 0
M  V30 9659 H 915.945 4.15149 0.413131 0
M  V30 9660 H 914.575 3.10742 0.874028 0
M  V30 9661 H 913.627 3.48901 -1.51566 0
M  V30 9662 H 914.939 4.65796 -1.78425 0
M  V30 9663 H 914.093 6.0661 0.104269 0
M  V30 9664 H 912.832 4.85446 0.468382 0
M  V30 9665 H 911.837 5.1909 -1.81179 0
M  V30 9666 H 913.062 6.4359 -2.16722 0
M  V30 9667 H 911.008 6.55959 0.0733863 0
M  V30 9668 H 910.925 7.42422 -1.42638 0
M  V30 9669 H 912.193 7.78943 -0.294681 0
M  V30 9670 N 916.422 0.810101 1.35185 0
M  V30 9671 C 917.355 0.168416 2.27578 0
M  V30 9672 C 918.333 -0.667664 1.4826 0
M  V30 9673 O 919.517 -0.634184 1.77512 0
M  V30 9674 C 916.644 -0.765994 3.29925 0
M  V30 9675 C 915.69 -0.00908802 4.26499 0
M  V30 9676 S 916.523 1.32936 5.18737 0
M  V30 9677 C 917.679 0.399485 6.24624 0
M  V30 9678 H 917.912 0.951753 2.81654 0
M  V30 9679 H 915.445 0.60534 1.42039 0
M  V30 9680 H 917.403 -1.2996 3.89385 0
M  V30 9681 H 916.064 -1.52275 2.7472 0
M  V30 9682 H 915.257 -0.718919 4.98846 0
M  V30 9683 H 914.859 0.454663 3.71226 0
M  V30 9684 H 917.151 -0.413904 6.76234 0
M  V30 9685 H 918.094 1.09225 6.99625 0
M  V30 9686 H 918.502 -0.00638358 5.645 0
M  V30 9687 N 917.9 -1.47166 0.563914 0
M  V30 9688 C 919.149 -2.0166 0.0401871 0
M  V30 9689 C 919.462 -1.44303 -1.32046 0
M  V30 9690 O 920.668 -1.905 -1.93448 0
M  V30 9691 C 919.124 -3.59894 0.0213257 0
M  V30 9692 C 918.732 -4.26244 1.37914 0
M  V30 9693 C 920.476 -4.22114 -0.449442 0
M  V30 9694 C 918.383 -5.76503 1.31902 0
M  V30 9695 H 917.313 -0.753916 0.0112534 0
M  V30 9696 H 919.964 -1.69091 0.712766 0
M  V30 9697 H 918.346 -3.89454 -0.717038 0
M  V30 9698 H 919.52 -4.08317 2.13574 0
M  V30 9699 H 917.835 -3.76039 1.78839 0
M  V30 9700 H 920.432 -5.32234 -0.51292 0
M  V30 9701 H 920.775 -3.89749 -1.46291 0
M  V30 9702 H 921.308 -3.9711 0.23427 0
M  V30 9703 H 918.047 -6.13498 2.3087 0
M  V30 9704 H 917.567 -5.96748 0.604324 0
M  V30 9705 H 919.246 -6.38846 1.02392 0
M  V30 9706 N 919.378 -0.300708 -1.54705 0
M  V30 9707 C 920.311 0.617513 -2.19686 0
M  V30 9708 C 921.289 1.1331 -1.16617 0
M  V30 9709 O 922.473 1.20135 -1.45258 0
M  V30 9710 C 919.6 1.84486 -2.84047 0
M  V30 9711 C 918.646 1.46253 -4.0064 0
M  V30 9712 S 919.479 0.518718 -5.32982 0
M  V30 9713 C 920.635 1.75387 -6.00825 0
M  V30 9714 H 920.868 0.0654548 -2.97228 0
M  V30 9715 H 918.401 -0.0848492 -1.54167 0
M  V30 9716 H 920.359 2.54921 -3.21754 0
M  V30 9717 H 919.02 2.36808 -2.06351 0
M  V30 9718 H 918.213 2.37648 -4.44454 0
M  V30 9719 H 917.815 0.838129 -3.64488 0
M  V30 9720 H 920.107 2.69448 -6.21614 0
M  V30 9721 H 921.05 1.35829 -6.9495 0
M  V30 9722 H 921.458 1.93045 -5.30466 0
M  V30 9723 N 920.856 1.57574 -0.0284266 0
M  V30 9724 C 921.788 2.07079 0.982391 0
M  V30 9725 C 922.801 0.994078 1.28926 0
M  V30 9726 O 923.99 1.27028 1.25404 0
M  V30 9727 C 921.09 2.47978 2.30998 0
M  V30 9728 C 920.263 3.7872 2.18838 0
M  V30 9729 C 919.322 4.06177 3.34524 0
M  V30 9730 O 918.348 4.76438 3.11441 0
M  V30 9731 N 919.55 3.56297 4.58293 0
M  V30 9732 H 922.315 2.94421 0.560011 0
M  V30 9733 H 919.876 1.61124 0.158347 0
M  V30 9734 H 921.868 2.63439 3.07216 0
M  V30 9735 H 920.438 1.66005 2.64879 0
M  V30 9736 H 919.658 3.73062 1.27351 0
M  V30 9737 H 920.946 4.6438 2.07915 0
M  V30 9738 H 920.344 2.99453 4.79942 0
M  V30 9739 H 918.901 3.77038 5.31682 0
M  V30 9740 N 922.334 -0.244713 1.55689 0
M  V30 9741 C 923.611 -0.995407 1.68378 0
M  V30 9742 C 923.991 -2.03288 0.568949 0
M  V30 9743 O 923.339 -2.24469 -0.427299 0
M  V30 9744 C 923.549 -1.62678 3.08767 0
M  V30 9745 C 924.897 -2.1278 3.67437 0
M  V30 9746 O 925.921 -1.72614 3.11581 0
M  V30 9747 O 924.78 -2.86536 4.65359 0
M  V30 9748 H 921.874 -0.463476 0.684923 0
M  V30 9749 H 924.42 -0.238326 1.68018 0
M  V30 9750 H 923.192 -0.876469 3.81358 0
M  V30 9751 H 922.815 -2.45 3.13146 0
M  V30 9752 N 923.813 -1.49104 -0.510467 0
M  V30 9753 C 924.76 -1.65074 -1.61305 0
M  V30 9754 C 925.73 -0.492362 -1.58635 0
M  V30 9755 O 926.915 -0.718241 -1.76765 0
M  V30 9756 C 924.055 -1.71457 -2.99493 0
M  V30 9757 C 923.168 -2.98536 -3.12251 0
M  V30 9758 C 922.303 -2.95957 -4.41116 0
M  V30 9759 C 921.342 -4.17655 -4.47471 0
M  V30 9760 N 920.479 -4.13041 -5.67751 0
M  V30 9761 H 925.319 -2.59222 -1.46996 0
M  V30 9762 H 922.856 -1.28535 -0.715346 0
M  V30 9763 H 924.814 -1.7314 -3.79577 0
M  V30 9764 H 923.444 -0.807834 -3.12528 0
M  V30 9765 H 922.496 -3.06509 -2.25292 0
M  V30 9766 H 923.808 -3.88527 -3.12807 0
M  V30 9767 H 922.962 -2.96149 -5.2951 0
M  V30 9768 H 921.701 -2.03728 -4.4311 0
M  V30 9769 H 920.706 -4.17717 -3.57481 0
M  V30 9770 H 921.931 -5.11066 -4.472 0
M  V30 9771 H 919.877 -3.23643 -5.70606 0
M  V30 9772 H 919.794 -4.96757 -5.69884 0
M  V30 9773 H 921.062 -4.17322 -6.58379 0
M  V30 9774 N 925.291 0.760815 -1.38019 0
M  V30 9775 C 926.221 1.88811 -1.37377 0
M  V30 9776 C 927.202 1.68388 -0.240737 0
M  V30 9777 O 928.387 1.89086 -0.442739 0
M  V30 9778 C 925.517 3.26244 -1.1909 0
M  V30 9779 C 924.471 3.61254 -2.29521 0
M  V30 9780 C 923.797 4.97346 -1.96345 0
M  V30 9781 C 925.097 3.66874 -3.71753 0
M  V30 9782 H 926.791 1.89606 -2.31711 0
M  V30 9783 H 924.337 0.910818 -1.11535 0
M  V30 9784 H 926.29 4.04755 -1.17267 0
M  V30 9785 H 925.014 3.2591 -0.212152 0
M  V30 9786 H 923.673 2.85057 -2.30517 0
M  V30 9787 H 923.321 4.93564 -0.969728 0
M  V30 9788 H 923.021 5.21739 -2.703 0
M  V30 9789 H 924.545 5.78244 -1.96129 0
M  V30 9790 H 925.959 4.35514 -3.72828 0
M  V30 9791 H 924.356 4.02772 -4.44853 0
M  V30 9792 H 925.426 2.67273 -4.0459 0
M  V30 9793 N 926.769 1.22769 0.988202 0
M  V30 9794 C 927.679 1.01844 2.11341 0
M  V30 9795 C 928.695 -0.0346937 1.73965 0
M  V30 9796 O 929.871 0.159061 2.00771 0
M  V30 9797 C 926.936 0.603837 3.41401 0
M  V30 9798 C 925.997 1.73113 3.92849 0
M  V30 9799 C 925.23 1.33621 5.16702 0
M  V30 9800 O 925.453 0.217041 5.69987 0
M  V30 9801 O 924.387 2.15444 5.62021 0
M  V30 9802 H 928.213 1.96127 2.31879 0
M  V30 9803 H 925.798 1.01405 1.09715 0
M  V30 9804 H 927.68 0.383196 4.19654 0
M  V30 9805 H 926.355 -0.310082 3.22211 0
M  V30 9806 H 925.262 2.00634 3.15748 0
M  V30 9807 H 926.595 2.62308 4.1648 0
M  V30 9808 N 928.247 -1.18576 1.03814 0
M  V30 9809 C 929.194 -2.2212 0.626988 0
M  V30 9810 C 930.164 -1.62064 -0.363912 0
M  V30 9811 O 931.349 -1.89041 -0.258469 0
M  V30 9812 C 928.489 -3.45099 -0.00650133 0
M  V30 9813 C 927.602 -4.19503 1.03156 0
M  V30 9814 C 926.737 -5.29932 0.366852 0
M  V30 9815 C 925.776 -5.96104 1.39018 0
M  V30 9816 N 924.913 -6.98076 0.750625 0
M  V30 9817 H 929.753 -2.56646 1.51449 0
M  V30 9818 H 927.29 -1.26084 0.757702 0
M  V30 9819 H 929.248 -4.15363 -0.391108 0
M  V30 9820 H 927.878 -3.11201 -0.857536 0
M  V30 9821 H 926.93 -3.48092 1.53414 0
M  V30 9822 H 928.242 -4.64843 1.80893 0
M  V30 9823 H 927.396 -6.06657 -0.0720979 0
M  V30 9824 H 926.135 -4.85687 -0.442631 0
M  V30 9825 H 925.14 -5.18122 1.8393 0
M  V30 9826 H 926.365 -6.42432 2.20132 0
M  V30 9827 H 924.311 -6.55989 -0.0385981 0
M  V30 9828 H 924.228 -7.41655 1.46574 0
M  V30 9829 H 925.496 -7.78776 0.335986 0
M  V30 9830 N 929.725 -0.817259 -1.34754 0
M  V30 9831 C 930.635 -0.236946 -2.334 0
M  V30 9832 C 931.651 0.625685 -1.62361 0
M  V30 9833 O 932.827 0.534921 -1.94166 0
M  V30 9834 C 929.892 0.596215 -3.41535 0
M  V30 9835 C 928.953 -0.288154 -4.28332 0
M  V30 9836 C 928.186 0.505337 -5.31302 0
M  V30 9837 O 928.409 1.73912 -5.43241 0
M  V30 9838 O 927.343 -0.109374 -6.01801 0
M  V30 9839 H 931.169 -1.05327 -2.84851 0
M  V30 9840 H 928.754 -0.579275 -1.37713 0
M  V30 9841 H 930.636 1.07041 -4.07578 0
M  V30 9842 H 929.311 1.38997 -2.92338 0
M  V30 9843 H 928.218 -0.809724 -3.65232 0
M  V30 9844 H 929.551 -1.04612 -4.80955 0
M  V30 9845 N 931.203 1.46865 -0.571711 0
M  V30 9846 C 932.619 1.57897 -0.23255 0
M  V30 9847 C 932.819 1.56836 1.26509 0
M  V30 9848 O 931.875 1.47947 2.04617 0
M  V30 9849 C 933.188 2.87778 -0.872036 0
M  V30 9850 C 934.736 3.01389 -0.844605 0
M  V30 9851 C 935.211 4.33991 -1.46343 0
M  V30 9852 N 936.702 4.40662 -1.42727 0
M  V30 9853 C 937.437 5.41858 -1.87557 0
M  V30 9854 N 936.933 6.49787 -2.4031 0
M  V30 9855 N 938.726 5.32992 -1.7854 0
M  V30 9856 H 930.877 1.45798 -1.54457 0
M  V30 9857 H 933.14 0.694785 -0.644964 0
M  V30 9858 H 932.846 2.94332 -1.92513 0
M  V30 9859 H 932.72 3.75345 -0.373677 0
M  V30 9860 H 935.107 2.94423 0.19984 0
M  V30 9861 H 935.188 2.15327 -1.38087 0
M  V30 9862 H 934.832 4.41714 -2.50701 0
M  V30 9863 H 934.762 5.18809 -0.902479 0
M  V30 9864 H 937.253 3.63263 -1.04155 0
M  V30 9865 H 937.566 7.23199 -2.72403 0
M  V30 9866 H 935.911 6.50637 -2.44329 0
M  V30 9867 H 939.102 4.47575 -1.37093 0
M  V30 9868 H 939.275 6.11716 -2.13794 0
M  V30 9869 N 932.681 0.308908 1.54543 0
M  V30 9870 C 933.629 -0.579326 2.2527 0
M  V30 9871 C 934.623 -1.13058 1.26152 0
M  V30 9872 O 935.829 -1.08031 1.43977 0
M  V30 9873 H 932.204 -0.205444 0.723392 0
M  V30 9874 H 934.175 0.0396415 2.98374 0
M  V30 9875 C 932.924 -1.73584 3.01271 0
M  V30 9876 H 932.247 -1.32089 3.77349 0
M  V30 9877 H 933.687 -2.33324 3.54028 0
M  V30 9878 C 932.146 -2.6447 2.08703 0
M  V30 9879 O 932.676 -3.65785 1.66025 0
M  V30 9880 N 930.882 -2.32379 1.74495 0
M  V30 9881 H 930.429 -1.50034 2.09398 0
M  V30 9882 H 930.387 -2.93454 1.12836 0
M  V30 9883 N 934.159 -1.57557 0.0367827 0
M  V30 9884 C 935.436 -1.83427 -0.679261 0
M  V30 9885 C 935.816 -0.922274 -1.89888 0
M  V30 9886 O 935.164 0.02025 -2.28491 0
M  V30 9887 C 935.374 -3.32823 -1.05022 0
M  V30 9888 C 936.722 -3.99486 -1.43861 0
M  V30 9889 O 937.746 -3.37364 -1.14297 0
M  V30 9890 O 936.605 -5.0899 -1.98977 0
M  V30 9891 H 933.699 -0.756581 -0.333936 0
M  V30 9892 H 936.245 -1.69575 0.0650494 0
M  V30 9893 H 935.017 -3.90874 -0.182509 0
M  V30 9894 H 934.64 -3.5181 -1.85244 0
M  V30 9895 N 935.637 0.236453 -1.55816 0
M  V30 9896 C 936.6 1.27633 -1.90375 0
M  V30 9897 C 937.6 1.40557 -0.781048 0
M  V30 9898 O 938.79 1.39078 -1.04895 0
M  V30 9899 C 935.922 2.65247 -2.14142 0
M  V30 9900 H 937.115 0.982019 -2.83366 0
M  V30 9901 H 934.668 0.476215 -1.48869 0
M  V30 9902 H 935.403 2.99801 -1.23653 0
M  V30 9903 H 935.188 2.57246 -2.95917 0
M  V30 9904 H 936.678 3.40313 -2.42026 0
M  V30 9905 N 937.115 1.49373 0.502552 0
M  V30 9906 C 938.062 1.65927 1.60427 0
M  V30 9907 C 939.032 0.500768 1.58371 0
M  V30 9908 O 940.217 0.727606 1.76382 0
M  V30 9909 C 937.357 1.73043 2.9858 0
M  V30 9910 C 936.47 3.00187 3.10663 0
M  V30 9911 C 935.605 2.98292 4.3954 0
M  V30 9912 C 934.644 4.20022 4.4525 0
M  V30 9913 N 933.781 4.16046 5.65553 0
M  V30 9914 H 938.621 2.59998 1.45619 0
M  V30 9915 H 936.158 1.28912 0.708519 0
M  V30 9916 H 938.116 1.7515 3.78653 0
M  V30 9917 H 936.746 0.824397 3.12095 0
M  V30 9918 H 935.798 3.07699 2.23663 0
M  V30 9919 H 937.11 3.9018 3.10742 0
M  V30 9920 H 936.264 2.98953 5.27932 0
M  V30 9921 H 935.003 2.06075 4.42023 0
M  V30 9922 H 934.008 4.19607 3.5526 0
M  V30 9923 H 935.233 5.13431 4.44484 0
M  V30 9924 H 933.179 3.26665 5.68881 0
M  V30 9925 H 933.096 4.99773 5.67242 0
M  V30 9926 H 934.364 4.20807 6.56156 0
M  V30 9927 N 938.594 -0.753485 1.38421 0
M  V30 9928 C 939.542 -1.8886 1.35774 0
M  V30 9929 C 940.536 -1.67639 0.243608 0
M  V30 9930 O 941.742 -1.75206 0.412649 0
M  V30 9931 H 938.117 -0.62137 0.42356 0
M  V30 9932 H 940.088 -1.88209 2.3156 0
M  V30 9933 C 938.837 -3.26344 1.19979 0
M  V30 9934 H 938.16 -3.43259 2.04971 0
M  V30 9935 H 939.6 -4.06015 1.22181 0
M  V30 9936 C 938.059 -3.36771 -0.0932867 0
M  V30 9937 O 938.589 -3.8718 -1.07027 0
M  V30 9938 N 936.795 -2.90212 -0.150154 0
M  V30 9939 H 936.342 -2.4938 0.645562 0
M  V30 9940 H 936.3 -2.97569 -1.0149 0
M  V30 9941 N 940.072 -1.23292 -0.981677 0
M  V30 9942 C 941.035 -1.01417 -2.05542 0
M  V30 9943 C 942.035 0.0235354 -1.60783 0
M  V30 9944 O 943.225 -0.216082 -1.72855 0
M  V30 9945 C 940.357 -0.534239 -3.36688 0
M  V30 9946 H 941.55 -1.96702 -2.26381 0
M  V30 9947 H 939.103 -1.05318 -1.1549 0
M  V30 9948 H 939.838 0.422452 -3.21537 0
M  V30 9949 H 939.623 -1.28304 -3.70514 0
M  V30 9950 H 941.113 -0.40179 -4.15663 0
M  V30 9951 N 941.55 1.18024 -1.04442 0
M  V30 9952 C 942.796 1.88377 -0.751133 0
M  V30 9953 C 943.129 1.80377 0.719571 0
M  V30 9954 O 942.404 1.20662 1.52548 0
M  V30 9955 C 942.687 3.38708 -1.22265 0
M  V30 9956 C 942.54 3.55499 -2.75574 0
M  V30 9957 C 943.859 4.32475 -0.815688 0
M  V30 9958 H 940.978 0.684037 -0.27434 0
M  V30 9959 H 943.62 1.38837 -1.29709 0
M  V30 9960 H 941.77 3.8103 -0.758192 0
M  V30 9961 H 943.442 3.22244 -3.30086 0
M  V30 9962 H 941.685 2.98028 -3.15217 0
M  V30 9963 H 942.356 4.60994 -3.03625 0
M  V30 9964 H 944.832 3.97953 -1.21542 0
M  V30 9965 H 943.708 5.36213 -1.17331 0
M  V30 9966 H 943.969 4.41207 0.280901 0
M  V30 9967 N 943.028 0.824394 1.34319 0
M  V30 9968 C 943.938 0.24932 2.33271 0
M  V30 9969 C 944.954 -0.617066 1.62691 0
M  V30 9970 O 946.13 -0.524616 1.94447 0
M  V30 9971 C 943.195 -0.578094 3.41846 0
M  V30 9972 C 942.256 0.310866 4.28173 0
M  V30 9973 C 941.489 -0.477153 5.31563 0
M  V30 9974 O 941.712 -1.71028 5.44156 0
M  V30 9975 O 940.646 0.141287 6.01734 0
M  V30 9976 H 944.472 1.06837 2.84288 0
M  V30 9977 H 942.057 0.58657 1.37403 0
M  V30 9978 H 943.939 -1.04878 4.0814 0
M  V30 9979 H 942.614 -1.37444 2.93071 0
M  V30 9980 H 941.521 0.829081 3.64797 0
M  V30 9981 H 942.854 1.07161 4.80393 0
M  V30 9982 N 944.506 -1.46559 0.579492 0
M  V30 9983 C 945.416 -2.34066 -0.15816 0
M  V30 9984 C 946.432 -1.49556 -0.88932 0
M  V30 9985 O 947.608 -1.82434 -0.853226 0
M  V30 9986 C 944.673 -3.26683 -1.161 0
M  V30 9987 C 943.734 -4.27092 -0.434855 0
M  V30 9988 C 942.967 -5.15283 -1.38992 0
M  V30 9989 O 943.19 -5.06345 -2.62623 0
M  V30 9990 O 942.124 -5.95099 -0.902253 0
M  V30 9991 H 945.95 -2.98488 0.560234 0
M  V30 9992 H 943.535 -1.45482 0.339918 0
M  V30 9993 H 945.417 -3.8383 -1.73932 0
M  V30 9994 H 944.092 -2.64862 -1.86091 0
M  V30 9995 H 942.999 -3.73641 0.185224 0
M  V30 9996 H 944.332 -4.9169 0.224031 0
M  V30 9997 N 945.984 -0.3171 -1.54377 0
M  V30 9998 C 947.214 0.289138 -2.04567 0
M  V30 9999 C 947.622 1.46833 -1.19318 0
M  V30 10000 O 946.965 1.82436 -0.215141 0
M  V30 10001 C 947.027 0.792994 -3.50645 0
M  V30 10002 C 946.691 -0.263033 -4.56242 0
M  V30 10003 C 947.688 -1.09694 -5.08196 0
M  V30 10004 C 945.373 -0.409364 -5.00629 0
M  V30 10005 C 947.367 -2.06297 -6.03092 0
M  V30 10006 C 945.054 -1.37882 -5.95342 0
M  V30 10007 C 946.052 -2.20409 -6.46459 0
M  V30 10008 O 945.74 -3.15708 -7.39313 0
M  V30 10009 H 945.472 0.0644005 -0.672925 0
M  V30 10010 H 948.026 -0.459438 -2.00196 0
M  V30 10011 H 946.256 1.59237 -3.52392 0
M  V30 10012 H 947.945 1.31687 -3.83944 0
M  V30 10013 H 948.711 -0.994842 -4.74687 0
M  V30 10014 H 944.59 0.223091 -4.6046 0
M  V30 10015 H 948.134 -2.70751 -6.42915 0
M  V30 10016 H 944.031 -1.48158 -6.28267 0
M  V30 10017 H 944.799 -3.10873 -7.57166 0
M  V30 10018 N 947.462 1.57535 -0.0451378 0
M  V30 10019 C 948.708 1.92736 0.630921 0
M  V30 10020 C 949.041 0.923265 1.70849 0
M  V30 10021 O 948.316 -0.0516512 1.94431 0
M  V30 10022 C 948.599 3.38348 1.23259 0
M  V30 10023 C 948.452 4.49503 0.16349 0
M  V30 10024 C 949.771 3.84233 2.14599 0
M  V30 10025 H 946.89 0.700884 0.227883 0
M  V30 10026 H 949.532 1.89706 -0.10567 0
M  V30 10027 H 947.682 3.41061 1.86037 0
M  V30 10028 H 949.354 4.58919 -0.46808 0
M  V30 10029 H 947.597 4.30802 -0.509166 0
M  V30 10030 H 948.268 5.48457 0.624382 0
M  V30 10031 H 950.744 3.83358 1.6179 0
M  V30 10032 H 949.62 4.86781 2.53644 0
M  V30 10033 H 949.881 3.20646 3.04366 0
M  V30 10034 N 948.94 -0.228186 1.55939 0
M  V30 10035 C 950.17 -0.969211 1.82455 0
M  V30 10036 C 950.578 -1.78714 0.621133 0
M  V30 10037 O 949.921 -1.78841 -0.419694 0
M  V30 10038 C 949.983 -1.94088 3.02605 0
M  V30 10039 C 949.647 -1.30811 4.37878 0
M  V30 10040 C 950.644 -0.701275 5.15149 0
M  V30 10041 C 948.329 -1.32187 4.84595 0
M  V30 10042 C 950.323 -0.116631 6.37293 0
M  V30 10043 C 948.01 -0.733375 6.06683 0
M  V30 10044 C 949.008 -0.131804 6.82873 0
M  V30 10045 O 948.696 0.447549 8.02653 0
M  V30 10046 H 948.428 -0.289951 0.610659 0
M  V30 10047 H 950.982 -0.250576 2.03866 0
M  V30 10048 H 949.212 -2.69833 2.76996 0
M  V30 10049 H 950.901 -2.5469 3.1605 0
M  V30 10050 H 951.667 -0.683022 4.80166 0
M  V30 10051 H 947.546 -1.77949 4.25271 0
M  V30 10052 H 951.09 0.353539 6.96704 0
M  V30 10053 H 946.987 -0.749019 6.4114 0
M  V30 10054 H 947.755 0.341224 8.17788 0
M  V30 10055 N 950.418 -1.49637 -0.494624 0
M  V30 10056 C 951.328 -1.69522 -1.62172 0
M  V30 10057 C 952.344 -0.577894 -1.64123 0
M  V30 10058 O 953.52 -0.853382 -1.82426 0
M  V30 10059 C 950.585 -1.7633 -2.9851 0
M  V30 10060 C 949.646 -2.99944 -3.07135 0
M  V30 10061 C 948.879 -3.06419 -4.36971 0
M  V30 10062 O 949.102 -2.20312 -5.26136 0
M  V30 10063 O 948.036 -3.9894 -4.507 0
M  V30 10064 H 951.862 -2.65017 -1.48324 0
M  V30 10065 H 949.447 -1.33454 -0.671603 0
M  V30 10066 H 951.329 -1.83125 -3.7953 0
M  V30 10067 H 950.004 -0.840155 -3.12607 0
M  V30 10068 H 948.911 -2.98664 -2.2528 0
M  V30 10069 H 950.244 -3.9176 -2.97968 0
M  V30 10070 N 951.896 0.746133 -1.38819 0
M  V30 10071 C 953.143 1.50545 -1.35434 0
M  V30 10072 C 953.471 1.94427 0.0532669 0
M  V30 10073 O 952.726 1.66285 1.03188 0
M  V30 10074 C 953.025 2.76639 -2.26286 0
M  V30 10075 C 952.691 2.51682 -3.74122 0
M  V30 10076 C 951.353 2.44584 -4.14406 0
M  V30 10077 C 953.705 2.30071 -4.67672 0
M  V30 10078 C 951.033 2.13902 -5.46318 0
M  V30 10079 C 953.385 2.00907 -5.99849 0
M  V30 10080 C 952.049 1.92271 -6.39209 0
M  V30 10081 H 951.319 0.550883 -0.49559 0
M  V30 10082 H 953.966 0.857337 -1.71237 0
M  V30 10083 H 952.271 3.46138 -1.83564 0
M  V30 10084 H 953.968 3.34626 -2.20967 0
M  V30 10085 H 950.558 2.5808 -3.42188 0
M  V30 10086 H 954.742 2.34528 -4.3739 0
M  V30 10087 H 949.998 2.0573 -5.75748 0
M  V30 10088 H 954.172 1.83191 -6.71874 0
M  V30 10089 H 951.799 1.68261 -7.41345 0
M  V30 10090 N 953.375 1.23811 0.975125 0
M  V30 10091 C 954.791 1.0019 1.24234 0
M  V30 10092 C 954.991 -0.293811 1.99346 0
M  V30 10093 O 954.047 -1.01189 2.31337 0
M  V30 10094 C 955.36 2.21218 2.03674 0
M  V30 10095 C 956.908 2.25764 2.16793 0
M  V30 10096 C 957.383 3.46394 2.99626 0
M  V30 10097 N 958.874 3.46665 3.07209 0
M  V30 10098 C 959.609 4.3666 3.71639 0
M  V30 10099 N 959.105 5.36899 4.37849 0
M  V30 10100 N 960.898 4.2439 3.68578 0
M  V30 10101 H 953.049 2.07087 0.472076 0
M  V30 10102 H 955.312 0.90838 0.271201 0
M  V30 10103 H 955.018 3.15277 1.55862 0
M  V30 10104 H 954.892 2.22733 3.04417 0
M  V30 10105 H 957.279 1.32242 2.63811 0
M  V30 10106 H 957.36 2.28279 1.15422 0
M  V30 10107 H 957.004 4.40227 2.53304 0
M  V30 10108 H 956.934 3.41121 4.01178 0
M  V30 10109 H 959.425 2.74142 2.60105 0
M  V30 10110 H 959.738 6.01816 4.84807 0
M  V30 10111 H 958.083 5.40793 4.36541 0
M  V30 10112 H 961.274 3.4532 3.16025 0
M  V30 10113 H 961.447 4.94727 4.18508 0
M  V30 10114 N 954.853 -1.17469 1.05066 0
M  V30 10115 C 956.13 -1.83625 0.673872 0
M  V30 10116 C 956.51 -1.93412 -0.845871 0
M  V30 10117 O 955.858 -1.4677 -1.75131 0
M  V30 10118 C 956.068 -3.21352 1.36139 0
M  V30 10119 C 957.416 -3.97274 1.49863 0
M  V30 10120 O 958.44 -3.30827 1.3203 0
M  V30 10121 O 957.299 -5.16349 1.79013 0
M  V30 10122 H 954.393 -0.792297 0.237055 0
M  V30 10123 H 956.939 -1.24776 1.15017 0
M  V30 10124 H 955.711 -3.0919 2.39827 0
M  V30 10125 H 955.334 -3.87867 0.874364 0
M  V30 10126 N 956.331 -0.831506 -1.3388 0
M  V30 10127 C 957.278 -0.257449 -2.2936 0
M  V30 10128 C 958.248 0.622604 -1.5399 0
M  V30 10129 O 959.433 0.562432 -1.82322 0
M  V30 10130 C 956.573 0.567587 -3.404 0
M  V30 10131 C 955.686 -0.335666 -4.30694 0
M  V30 10132 C 954.821 0.499762 -5.28844 0
M  V30 10133 C 953.86 -0.402343 -6.10776 0
M  V30 10134 N 952.997 0.39452 -7.00991 0
M  V30 10135 H 957.837 -1.077 -2.77857 0
M  V30 10136 H 955.374 -0.542589 -1.36727 0
M  V30 10137 H 957.332 1.06133 -4.03474 0
M  V30 10138 H 955.962 1.35217 -2.93115 0
M  V30 10139 H 955.014 -0.94768 -3.68406 0
M  V30 10140 H 956.326 -1.02896 -4.88072 0
M  V30 10141 H 955.48 1.05763 -5.9741 0
M  V30 10142 H 954.219 1.22652 -4.72025 0
M  V30 10143 H 953.224 -0.972288 -5.41135 0
M  V30 10144 H 954.449 -1.12735 -6.69677 0
M  V30 10145 H 952.395 1.1048 -6.4663 0
M  V30 10146 H 952.312 -0.240209 -7.55618 0
M  V30 10147 H 953.58 0.934867 -7.73874 0
M  V30 10148 N 957.809 1.4625 -0.587256 0
M  V30 10149 C 958.739 2.33132 0.131076 0
M  V30 10150 C 959.72 1.45619 0.879158 0
M  V30 10151 O 960.905 1.74428 0.853723 0
M  V30 10152 C 958.035 3.27975 1.14236 0
M  V30 10153 C 956.989 4.24965 0.508819 0
M  V30 10154 C 956.315 5.09349 1.62689 0
M  V30 10155 C 957.615 5.19322 -0.55694 0
M  V30 10156 H 959.309 2.93442 -0.594333 0
M  V30 10157 H 956.855 1.41106 -0.287263 0
M  V30 10158 H 958.808 3.87614 1.65328 0
M  V30 10159 H 957.532 2.65781 1.8981 0
M  V30 10160 H 956.191 3.66595 0.0189337 0
M  V30 10161 H 955.839 4.43537 2.37242 0
M  V30 10162 H 955.539 5.75036 1.20861 0
M  V30 10163 H 957.063 5.71852 2.14049 0
M  V30 10164 H 958.477 5.73151 -0.130903 0
M  V30 10165 H 956.874 5.93376 -0.895801 0
M  V30 10166 H 957.944 4.62979 -1.44148 0
M  V30 10167 N 959.287 0.325282 1.54207 0
M  V30 10168 C 960.527 -0.277347 2.0251 0
M  V30 10169 C 960.891 -1.49211 1.20831 0
M  V30 10170 O 962.092 -2.16771 1.58945 0
M  V30 10171 C 960.363 -0.601517 3.52302 0
M  V30 10172 S 961.922 -1.18356 4.22537 0
M  V30 10173 H 958.74 -0.08378 0.706047 0
M  V30 10174 H 961.342 0.458804 1.9004 0
M  V30 10175 H 960.046 0.290696 4.09369 0
M  V30 10176 H 959.577 -1.36782 3.68855 0
M  V30 10177 H 961.592 -2.47029 4.30338 0
M  V30 10178 N 960.765 -1.57509 0.0534917 0
M  V30 10179 C 962.013 -1.92402 -0.618548 0
M  V30 10180 C 962.334 -0.93273 -1.71246 0
M  V30 10181 O 961.604 0.0220495 -1.95888 0
M  V30 10182 H 960.184 -0.710233 -0.23147 0
M  V30 10183 H 962.846 -1.94606 0.10704 0
M  V30 10184 H 961.942 -2.93704 -1.05566 0
M  V30 10185 N 962.243 0.219913 -1.56058 0
M  V30 10186 C 963.654 0.786766 -1.69313 0
M  V30 10187 C 964.005 1.84916 -0.655782 0
M  V30 10188 O 963.13 2.1554 0.192772 0
M  V30 10189 C 963.725 1.43387 -3.06962 0
M  V30 10190 C 962.284 1.94809 -3.22066 0
M  V30 10191 C 961.431 0.808863 -2.65241 0
M  V30 10192 H 964.382 -0.00476777 -1.58699 0
M  V30 10193 H 964.403 2.30272 -3.02911 0
M  V30 10194 H 963.915 0.660405 -3.8244 0
M  V30 10195 H 962.016 2.74952 -2.5146 0
M  V30 10196 H 962.129 2.12694 -4.293 0
M  V30 10197 H 960.493 1.21661 -2.23765 0
M  V30 10198 H 961.276 0.0480458 -3.43266 0
M  V30 10199 N 963.721 1.49897 0.486681 0
M  V30 10200 C 964.951 1.63599 1.2617 0
M  V30 10201 C 965.359 0.312365 1.86604 0
M  V30 10202 O 964.702 -0.713911 1.6926 0
M  V30 10203 C 964.764 2.65736 2.42125 0
M  V30 10204 C 964.428 4.09711 2.0245 0
M  V30 10205 C 965.425 4.9607 1.55596 0
M  V30 10206 C 963.11 4.55534 2.11647 0
M  V30 10207 C 965.104 6.26295 1.18462 0
M  V30 10208 C 962.791 5.85768 1.74124 0
M  V30 10209 C 963.789 6.70973 1.27608 0
M  V30 10210 O 963.477 7.98778 0.905991 0
M  V30 10211 H 963.209 0.55333 0.388332 0
M  V30 10212 H 965.763 1.96768 0.589195 0
M  V30 10213 H 963.993 2.27778 3.12497 0
M  V30 10214 H 965.682 2.68819 3.04123 0
M  V30 10215 H 966.448 4.61891 1.47925 0
M  V30 10216 H 962.327 3.8937 2.46803 0
M  V30 10217 H 965.871 6.92754 0.820839 0
M  V30 10218 H 961.768 6.19473 1.8145 0
M  V30 10219 H 962.536 8.11914 1.03621 0
M  V30 10220 N 965.199 -0.738761 1.39212 0
M  V30 10221 C 966.109 -1.88324 1.39897 0
M  V30 10222 C 967.125 -1.71494 0.294229 0
M  V30 10223 O 968.301 -1.94162 0.535087 0
M  V30 10224 C 965.366 -3.23871 1.23726 0
M  V30 10225 C 964.427 -3.53121 2.44139 0
M  V30 10226 C 963.66 -4.82202 2.2873 0
M  V30 10227 O 963.883 -5.55649 1.28879 0
M  V30 10228 O 962.817 -5.11265 3.17634 0
M  V30 10229 H 966.643 -1.90701 2.36362 0
M  V30 10230 H 964.228 -0.886067 1.20288 0
M  V30 10231 H 966.11 -4.04882 1.16826 0
M  V30 10232 H 964.785 -3.22274 0.303551 0
M  V30 10233 H 963.692 -2.72212 2.56615 0
M  V30 10234 H 965.025 -3.59495 3.36191 0
M  V30 10235 N 966.677 -1.24326 -0.968545 0
M  V30 10236 C 967.624 -1.0349 -2.06297 0
M  V30 10237 C 968.594 0.0515333 -1.6602 0
M  V30 10238 O 969.779 -0.102924 -1.90522 0
M  V30 10239 C 966.919 -0.64487 -3.39021 0
M  V30 10240 C 966.032 -1.80469 -3.92498 0
M  V30 10241 C 965.167 -1.36032 -5.13487 0
M  V30 10242 C 964.206 -2.49014 -5.59159 0
M  V30 10243 N 963.343 -2.05451 -6.71367 0
M  V30 10244 H 968.183 -1.97161 -2.23454 0
M  V30 10245 H 965.72 -0.982028 -1.0952 0
M  V30 10246 H 967.678 -0.399771 -4.1528 0
M  V30 10247 H 966.308 0.254845 -3.21792 0
M  V30 10248 H 965.36 -2.16348 -3.12886 0
M  V30 10249 H 966.672 -2.65365 -4.22354 0
M  V30 10250 H 965.826 -1.07405 -5.97117 0
M  V30 10251 H 964.565 -0.481887 -4.85313 0
M  V30 10252 H 963.57 -2.78402 -4.74102 0
M  V30 10253 H 964.795 -3.37413 -5.89346 0
M  V30 10254 H 962.741 -1.20004 -6.4493 0
M  V30 10255 H 962.658 -2.83901 -7.00668 0
M  V30 10256 H 963.926 -1.79962 -7.58442 0
M  V30 10257 N 968.156 1.1691 -1.05688 0
M  V30 10258 C 969.403 1.87292 -0.76993 0
M  V30 10259 C 969.731 1.81339 0.703295 0
M  V30 10260 O 968.986 1.21959 1.5305 0
M  V30 10261 C 969.285 3.36578 -1.20207 0
M  V30 10262 C 968.951 3.62732 -2.67836 0
M  V30 10263 C 967.613 3.69579 -3.08163 0
M  V30 10264 C 969.965 3.73803 -3.63209 0
M  V30 10265 C 967.293 3.84992 -4.42717 0
M  V30 10266 C 969.645 3.90735 -4.97503 0
M  V30 10267 C 968.309 3.95823 -5.37476 0
M  V30 10268 H 967.579 0.68535 -0.281737 0
M  V30 10269 H 970.226 1.38274 -1.32486 0
M  V30 10270 H 968.531 3.87687 -0.566222 0
M  V30 10271 H 970.228 3.89409 -0.957183 0
M  V30 10272 H 966.818 3.58031 -2.35609 0
M  V30 10273 H 971.002 3.67829 -3.3319 0
M  V30 10274 H 966.258 3.87181 -4.73182 0
M  V30 10275 H 970.432 3.98243 -5.71293 0
M  V30 10276 H 968.059 4.07518 -6.41742 0
M  V30 10277 N 969.634 0.838594 1.33437 0
M  V30 10278 C 970.883 0.430484 1.97053 0
M  V30 10279 C 971.196 -1.01556 1.6717 0
M  V30 10280 O 972.402 -1.52834 2.24397 0
M  V30 10281 C 970.858 0.718828 3.52648 0
M  V30 10282 C 970.466 2.17953 3.91408 0
M  V30 10283 C 972.21 0.377654 4.22817 0
M  V30 10284 C 970.117 2.41194 5.39981 0
M  V30 10285 H 969.047 0.157239 0.737422 0
M  V30 10286 H 971.698 1.02714 1.5206 0
M  V30 10287 H 970.08 0.0518042 3.95966 0
M  V30 10288 H 971.254 2.88701 3.59149 0
M  V30 10289 H 969.569 2.48366 3.34221 0
M  V30 10290 H 972.166 0.528926 5.32077 0
M  V30 10291 H 972.509 -0.679338 4.1072 0
M  V30 10292 H 973.042 0.999899 3.85028 0
M  V30 10293 H 969.781 3.45457 5.57081 0
M  V30 10294 H 969.301 1.75007 5.73701 0
M  V30 10295 H 970.98 2.24334 6.06863 0
M  V30 10296 N 971.112 -1.45937 0.595003 0
M  V30 10297 C 972.352 -2.0421 0.0881479 0
M  V30 10298 C 972.716 -1.45498 -1.25277 0
M  V30 10299 O 973.917 -1.95047 -1.8496 0
M  V30 10300 C 972.188 -3.57382 0.0362346 0
M  V30 10301 S 973.747 -4.36869 -0.41126 0
M  V30 10302 H 970.565 -0.709672 0.0434424 0
M  V30 10303 H 973.167 -1.78815 0.790273 0
M  V30 10304 H 971.871 -3.97628 1.0159 0
M  V30 10305 H 971.402 -3.87332 -0.688278 0
M  V30 10306 H 973.417 -4.67486 -1.66347 0
M  V30 10307 N 972.59 -0.333456 -1.54032 0
M  V30 10308 C 973.5 0.536674 -2.28379 0
M  V30 10309 C 974.516 1.12068 -1.33104 0
M  V30 10310 O 975.692 1.13853 -1.66131 0
M  V30 10311 C 972.757 1.67677 -3.03456 0
M  V30 10312 C 971.818 1.12357 -4.14336 0
M  V30 10313 C 971.051 2.20933 -4.85823 0
M  V30 10314 O 971.274 3.41466 -4.569 0
M  V30 10315 O 970.208 1.85795 -5.72507 0
M  V30 10316 H 974.034 -0.0674003 -3.03625 0
M  V30 10317 H 971.619 -0.098823 -1.49073 0
M  V30 10318 H 973.501 2.34032 -3.50438 0
M  V30 10319 H 972.176 2.26684 -2.31076 0
M  V30 10320 H 971.083 0.424827 -3.7168 0
M  V30 10321 H 972.416 0.578497 -4.88789 0
M  V30 10322 N 974.068 1.57479 -0.061844 0
M  V30 10323 C 975 2.09116 0.938245 0
M  V30 10324 C 976.013 1.0212 1.26788 0
M  V30 10325 O 977.202 1.2966 1.22681 0
M  V30 10326 C 974.302 2.52822 2.25686 0
M  V30 10327 C 973.475 3.83277 2.10755 0
M  V30 10328 C 972.534 4.13182 3.25833 0
M  V30 10329 O 971.56 4.82937 3.01265 0
M  V30 10330 N 972.762 3.65938 4.50633 0
M  V30 10331 H 975.527 2.95543 0.497433 0
M  V30 10332 H 973.088 1.61423 0.124134 0
M  V30 10333 H 975.08 2.69896 3.01559 0
M  V30 10334 H 973.65 1.71586 2.61299 0
M  V30 10335 H 972.87 3.7568 1.19409 0
M  V30 10336 H 974.158 4.68686 1.98018 0
M  V30 10337 H 973.556 3.09566 4.73482 0
M  V30 10338 H 972.113 3.8823 5.23565 0
M  V30 10339 N 975.546 -0.211634 1.56173 0
M  V30 10340 C 976.823 -0.959467 1.70451 0
M  V30 10341 C 977.203 -2.02036 0.611942 0
M  V30 10342 O 976.551 -2.25325 -0.37959 0
M  V30 10343 C 976.761 -1.56092 3.12148 0
M  V30 10344 C 978.109 -2.04939 3.71867 0
M  V30 10345 O 979.133 -1.65966 3.15172 0
M  V30 10346 O 977.992 -2.766 4.71333 0
M  V30 10347 H 975.086 -0.448844 0.6946 0
M  V30 10348 H 977.632 -0.202633 1.68486 0
M  V30 10349 H 976.404 -0.79538 3.83131 0
M  V30 10350 H 976.027 -2.38303 3.18273 0
M  V30 10351 N 977.024 -1.50153 -0.478725 0
M  V30 10352 C 977.974 -1.64848 -1.57509 0
M  V30 10353 C 978.958 -0.503327 -1.52825 0
M  V30 10354 O 980.15 -0.75737 -1.59978 0
M  V30 10355 C 977.279 -1.73893 -2.96 0
M  V30 10356 C 976.365 -2.9406 -3.05597 0
M  V30 10357 N 976.756 -4.17844 -2.85027 0
M  V30 10358 C 975.054 -2.92459 -3.36725 0
M  V30 10359 C 975.755 -4.98739 -2.9939 0
M  V30 10360 N 974.731 -4.32542 -3.29255 0
M  V30 10361 H 978.533 -2.58254 -1.40293 0
M  V30 10362 H 976.047 -1.47232 -0.685307 0
M  V30 10363 H 978.044 -1.82523 -3.74821 0
M  V30 10364 H 976.704 -0.816402 -3.14269 0
M  V30 10365 H 977.715 -4.47465 -2.60759 0
M  V30 10366 H 974.392 -2.09675 -3.6103 0
M  V30 10367 H 975.782 -6.07146 -2.8779 0
M  V30 10368 N 978.502 0.731368 -1.39602 0
M  V30 10369 C 979.434 1.85575 -1.34516 0
M  V30 10370 C 980.447 1.60818 -0.253287 0
M  V30 10371 O 981.636 1.70984 -0.512505 0
M  V30 10372 C 978.736 3.21673 -1.06676 0
M  V30 10373 C 977.909 3.73757 -2.27211 0
M  V30 10374 C 976.968 4.88426 -1.95773 0
M  V30 10375 O 975.994 5.01898 -2.68491 0
M  V30 10376 N 977.196 5.73065 -0.926083 0
M  V30 10377 H 979.961 1.90442 -2.31413 0
M  V30 10378 H 977.522 0.912258 -1.33752 0
M  V30 10379 H 979.514 3.95959 -0.836577 0
M  V30 10380 H 978.084 3.12052 -0.185003 0
M  V30 10381 H 977.304 2.90781 -2.66158 0
M  V30 10382 H 978.592 4.05289 -3.07601 0
M  V30 10383 H 977.99 5.64774 -0.323497 0
M  V30 10384 H 976.547 6.47403 -0.755795 0
M  V30 10385 N 979.98 1.24838 0.961938 0
M  V30 10386 C 980.928 1.0436 2.07874 0
M  V30 10387 C 981.922 -0.0232531 1.69384 0
M  V30 10388 O 983.128 0.131773 1.79517 0
M  V30 10389 H 979.503 0.320492 0.680286 0
M  V30 10390 H 981.474 1.99055 2.22306 0
M  V30 10391 C 980.223 0.671246 3.41159 0
M  V30 10392 H 979.546 1.48395 3.7124 0
M  V30 10393 H 980.986 0.567608 4.20184 0
M  V30 10394 C 979.445 -0.622124 3.31106 0
M  V30 10395 O 979.975 -1.66627 3.65511 0
M  V30 10396 N 978.181 -0.605009 2.84232 0
M  V30 10397 H 977.728 0.245052 2.56432 0
M  V30 10398 H 977.686 -1.47056 2.77888 0
M  V30 10399 N 981.458 -1.16348 1.06306 0
M  V30 10400 C 982.705 -1.86881 0.779852 0
M  V30 10401 C 983.033 -1.8171 -0.693668 0
M  V30 10402 O 982.288 -1.22769 -1.52401 0
M  V30 10403 C 982.587 -3.35936 1.21991 0
M  V30 10404 C 982.253 -3.61307 2.69756 0
M  V30 10405 C 980.915 -3.6794 3.10119 0
M  V30 10406 C 983.267 -3.71871 3.65187 0
M  V30 10407 C 980.595 -3.82639 4.44752 0
M  V30 10408 C 982.947 -3.88091 4.99568 0
M  V30 10409 C 981.611 -3.92967 5.39568 0
M  V30 10410 H 980.881 -0.683847 0.285368 0
M  V30 10411 H 983.528 -1.37569 1.33218 0
M  V30 10412 H 981.833 -3.87381 0.586774 0
M  V30 10413 H 983.53 -3.88895 0.977821 0
M  V30 10414 H 980.12 -3.56777 2.37504 0
M  V30 10415 H 984.304 -3.66057 3.35136 0
M  V30 10416 H 979.56 -3.84666 4.75228 0
M  V30 10417 H 983.734 -3.95207 5.73397 0
M  V30 10418 H 981.361 -4.04109 6.43895 0
M  V30 10419 N 982.937 -0.845659 -1.3299 0
M  V30 10420 C 983.867 -0.298957 -2.31578 0
M  V30 10421 C 984.848 0.597012 -1.59279 0
M  V30 10422 O 986.033 0.519142 -1.87132 0
M  V30 10423 C 983.163 0.521109 -3.43368 0
M  V30 10424 C 982.117 -0.279651 -4.27085 0
M  V30 10425 C 981.443 0.664591 -5.30554 0
M  V30 10426 C 982.743 -1.50046 -5.00283 0
M  V30 10427 H 984.437 -1.12272 -2.77552 0
M  V30 10428 H 981.983 -0.54132 -1.33438 0
M  V30 10429 H 983.936 0.913921 -4.1137 0
M  V30 10430 H 982.66 1.37815 -2.96099 0
M  V30 10431 H 981.319 -0.654106 -3.60717 0
M  V30 10432 H 980.967 1.51822 -4.79541 0
M  V30 10433 H 980.667 0.132871 -5.8745 0
M  V30 10434 H 982.191 1.05477 -6.01421 0
M  V30 10435 H 983.605 -1.18044 -5.61016 0
M  V30 10436 H 982.002 -1.96946 -5.66862 0
M  V30 10437 H 983.072 -2.26659 -4.28665 0
M  V30 10438 N 984.415 1.45619 -0.602734 0
M  V30 10439 C 985.831 1.57368 -0.26599 0
M  V30 10440 C 986.031 1.59485 1.23154 0
M  V30 10441 O 985.087 1.52254 2.01432 0
M  V30 10442 C 986.4 2.85863 -0.932881 0
M  V30 10443 C 987.948 2.9953 -0.908344 0
M  V30 10444 C 988.423 4.30789 -1.55515 0
M  V30 10445 N 989.914 4.37536 -1.52042 0
M  V30 10446 C 990.649 5.37758 -1.99008 0
M  V30 10447 N 990.145 6.44544 -2.54038 0
M  V30 10448 N 991.938 5.29085 -1.89805 0
M  V30 10449 H 984.089 1.42489 -1.57514 0
M  V30 10450 H 986.352 0.680948 -0.659556 0
M  V30 10451 H 986.058 2.90183 -1.98713 0
M  V30 10452 H 985.932 3.74467 -0.453209 0
M  V30 10453 H 988.319 2.9478 0.137344 0
M  V30 10454 H 988.4 2.12349 -1.42623 0
M  V30 10455 H 988.044 4.36297 -2.60014 0
M  V30 10456 H 987.974 5.16778 -1.01232 0
M  V30 10457 H 990.465 3.60972 -1.11837 0
M  V30 10458 H 990.778 7.17258 -2.87682 0
M  V30 10459 H 989.123 6.45308 -2.58075 0
M  V30 10460 H 992.314 4.44566 -1.46556 0
M  V30 10461 H 992.487 6.07043 -2.26722 0
M  V30 10462 N 985.893 0.34162 1.53853 0
M  V30 10463 C 986.823 -0.508431 2.27897 0
M  V30 10464 C 987.804 -1.10425 1.29384 0
M  V30 10465 O 988.989 -1.126 1.58224 0
M  V30 10466 C 986.119 -1.66048 3.05034 0
M  V30 10467 C 985.073 -1.19309 4.11035 0
M  V30 10468 C 984.399 -2.4335 4.76114 0
M  V30 10469 C 985.699 -0.294952 5.21467 0
M  V30 10470 H 987.393 0.109251 2.99201 0
M  V30 10471 H 984.939 0.0539847 1.43899 0
M  V30 10472 H 986.892 -2.26158 3.5557 0
M  V30 10473 H 985.616 -2.30503 2.31379 0
M  V30 10474 H 984.275 -0.614809 3.61408 0
M  V30 10475 H 983.923 -3.06208 3.99056 0
M  V30 10476 H 983.623 -2.1276 5.47729 0
M  V30 10477 H 985.147 -3.0419 5.29434 0
M  V30 10478 H 986.561 -0.80285 5.67651 0
M  V30 10479 H 984.958 -0.0810221 6.00045 0
M  V30 10480 H 986.028 0.669433 4.80257 0
M  V30 10481 N 987.371 -1.57444 0.0701946 0
M  V30 10482 C 988.301 -2.15659 -0.895176 0
M  V30 10483 C 989.282 -1.08321 -1.31151 0
M  V30 10484 O 990.467 -1.36349 -1.38284 0
M  V30 10485 C 987.597 -2.71693 -2.16334 0
M  V30 10486 C 986.551 -3.84183 -1.88645 0
M  V30 10487 C 985.877 -4.26814 -3.22078 0
M  V30 10488 C 987.177 -5.08493 -1.19299 0
M  V30 10489 H 988.871 -2.96576 -0.410217 0
M  V30 10490 H 986.417 -1.42662 -0.195872 0
M  V30 10491 H 988.37 -3.11064 -2.84284 0
M  V30 10492 H 987.094 -1.87994 -2.67069 0
M  V30 10493 H 985.753 -3.45314 -1.23101 0
M  V30 10494 H 985.401 -3.40039 -3.70651 0
M  V30 10495 H 985.101 -5.02642 -3.04344 0
M  V30 10496 H 986.625 -4.68799 -3.91228 0
M  V30 10497 H 988.039 -5.4519 -1.77316 0
M  V30 10498 H 986.436 -5.89588 -1.11828 0
M  V30 10499 H 987.506 -4.84595 -0.171839 0
M  V30 10500 N 988.849 0.203349 -1.56283 0
M  V30 10501 C 990.077 0.941426 -1.84241 0
M  V30 10502 C 990.492 1.77197 -0.651658 0
M  V30 10503 O 989.849 1.78506 0.379713 0
M  V30 10504 C 989.9 1.84429 -3.10915 0
M  V30 10505 O 989.621 1.04729 -4.25398 0
M  V30 10506 C 991.122 2.69474 -3.51993 0
M  V30 10507 H 988.342 0.27507 -0.612027 0
M  V30 10508 H 990.886 0.213088 -2.03387 0
M  V30 10509 H 989.041 2.52635 -2.93691 0
M  V30 10510 H 989.455 1.66179 -4.97478 0
M  V30 10511 H 990.929 3.28495 -4.43616 0
M  V30 10512 H 991.406 3.42775 -2.74594 0
M  V30 10513 H 992.012 2.06652 -3.71719 0
M  V30 10514 N 990.327 1.50405 0.470755 0
M  V30 10515 C 991.237 1.7208 1.59454 0
M  V30 10516 C 992.253 0.603932 1.63183 0
M  V30 10517 O 993.429 0.882296 1.81046 0
M  V30 10518 C 990.494 1.81057 2.95667 0
M  V30 10519 C 989.555 3.04792 3.02324 0
M  V30 10520 C 988.788 3.13332 4.3204 0
M  V30 10521 O 989.011 2.28655 5.22564 0
M  V30 10522 O 987.945 4.0606 4.44296 0
M  V30 10523 H 991.771 2.67343 1.44089 0
M  V30 10524 H 989.356 1.34505 0.650286 0
M  V30 10525 H 991.238 1.8914 3.76569 0
M  V30 10526 H 989.913 0.889782 3.11231 0
M  V30 10527 H 988.82 3.0221 2.205 0
M  V30 10528 H 990.153 3.96451 2.91698 0
M  V30 10529 N 991.805 -0.723954 1.39988 0
M  V30 10530 C 993.033 -1.51313 1.4111 0
M  V30 10531 C 993.448 -1.88798 0.00853333 0
M  V30 10532 O 992.805 -1.54868 -0.965516 0
M  V30 10533 C 992.856 -2.79375 2.29416 0
M  V30 10534 O 992.577 -2.43478 3.64211 0
M  V30 10535 C 994.078 -3.7333 2.3904 0
M  V30 10536 H 991.298 -0.46724 0.481589 0
M  V30 10537 H 993.842 -0.893694 1.83938 0
M  V30 10538 H 991.997 -3.37624 1.89971 0
M  V30 10539 H 992.411 -3.25821 4.11024 0
M  V30 10540 H 993.885 -4.60051 3.05053 0
M  V30 10541 H 994.362 -4.15854 1.41289 0
M  V30 10542 H 994.968 -3.20996 2.79001 0
M  V30 10543 N 993.283 -1.25346 -0.955304 0
M  V30 10544 C 994.193 -1.07412 -2.08566 0
M  V30 10545 C 995.209 -0.0114424 -1.73996 0
M  V30 10546 O 996.385 -0.212236 -2.00279 0
M  V30 10547 C 993.45 -0.694141 -3.3968 0
M  V30 10548 C 992.511 -1.83468 -3.88121 0
M  V30 10549 C 991.744 -1.47274 -5.12978 0
M  V30 10550 O 991.967 -0.368086 -5.69211 0
M  V30 10551 O 990.901 -2.30269 -5.56111 0
M  V30 10552 H 994.727 -2.02206 -2.26598 0
M  V30 10553 H 992.312 -1.04279 -1.06988 0
M  V30 10554 H 994.194 -0.494325 -4.18491 0
M  V30 10555 H 992.869 0.224545 -3.2292 0
M  V30 10556 H 991.776 -2.08935 -3.10318 0
M  V30 10557 H 993.109 -2.73258 -4.09379 0
M  V30 10558 N 994.761 1.15782 -1.06922 0
M  V30 10559 C 996.038 1.8253 -0.703 0
M  V30 10560 C 996.418 1.94733 0.814994 0
M  V30 10561 O 995.766 1.49537 1.72774 0
M  V30 10562 C 995.976 3.19145 -1.41234 0
M  V30 10563 C 997.324 3.94839 -1.56164 0
M  V30 10564 O 998.348 3.28685 -1.37277 0
M  V30 10565 O 997.207 5.13436 -1.87205 0
M  V30 10566 H 994.301 0.788425 -0.24963 0
M  V30 10567 H 996.847 1.22931 -1.16988 0
M  V30 10568 H 995.619 3.05336 -2.44715 0
M  V30 10569 H 995.242 3.86427 -0.935959 0
M  V30 10570 N 996.239 0.8527 1.3254 0
M  V30 10571 C 997.485 0.46507 1.98012 0
M  V30 10572 C 997.84 -0.968179 1.66265 0
M  V30 10573 O 997.133 -1.66985 0.9395 0
M  V30 10574 C 997.327 0.638757 3.51646 0
M  V30 10575 C 997.156 2.08734 3.98322 0
M  V30 10576 C 995.926 2.72544 4.25497 0
M  V30 10577 C 998.124 3.0577 4.13533 0
M  V30 10578 N 996.106 4.08333 4.58408 0
M  V30 10579 C 997.477 4.26542 4.49958 0
M  V30 10580 C 999.532 3.01991 3.95861 0
M  V30 10581 C 998.235 5.4403 4.70557 0
M  V30 10582 C 1000.26 4.18722 4.17643 0
M  V30 10583 C 999.623 5.38252 4.54383 0
M  V30 10584 H 995.722 0.218881 0.750743 0
M  V30 10585 H 998.306 1.10368 1.60397 0
M  V30 10586 H 996.477 0.0298629 3.88389 0
M  V30 10587 H 998.209 0.221215 4.04095 0
M  V30 10588 H 994.964 2.23594 4.17496 0
M  V30 10589 H 995.388 4.78372 4.79051 0
M  V30 10590 H 1000.03 2.107 3.66559 0
M  V30 10591 H 997.748 6.35854 4.98714 0
M  V30 10592 H 1001.33 4.17232 4.05474 0
M  V30 10593 H 1000.21 6.27075 4.709 0
M  V30 10594 N 997.718 -1.45297 0.610449 0
M  V30 10595 C 998.648 -2.33311 -0.0939698 0
M  V30 10596 C 999.629 -1.46999 -0.85588 0
M  V30 10597 O 1000.81 -1.75764 -0.825865 0
M  V30 10598 C 997.944 -3.29751 -1.09003 0
M  V30 10599 C 996.898 -4.2572 -0.441146 0
M  V30 10600 C 996.224 -5.11873 -1.54566 0
M  V30 10601 C 997.524 -5.1837 0.639489 0
M  V30 10602 H 999.218 -2.92459 0.640941 0
M  V30 10603 H 996.764 -1.40631 0.309675 0
M  V30 10604 H 998.717 -3.90195 -1.59141 0
M  V30 10605 H 997.441 -2.68768 -1.85557 0
M  V30 10606 H 996.1 -3.66579 0.0393908 0
M  V30 10607 H 995.748 -4.47256 -2.30155 0
M  V30 10608 H 995.448 -5.76886 -1.11698 0
M  V30 10609 H 996.972 -5.75185 -2.04925 0
M  V30 10610 H 998.386 -5.7287 0.22207 0
M  V30 10611 H 996.783 -5.91876 0.990089 0
M  V30 10612 H 997.853 -4.60627 1.51495 0
M  V30 10613 N 999.196 -0.349774 -1.5367 0
M  V30 10614 C 1000.43 0.245682 -2.05134 0
M  V30 10615 C 1000.83 1.44269 -1.22406 0
M  V30 10616 O 1000.18 1.81938 -0.25379 0
M  V30 10617 C 1000.24 0.718439 -3.52248 0
M  V30 10618 C 999.903 -0.35975 -4.55582 0
M  V30 10619 C 1000.9 -1.20449 -5.05755 0
M  V30 10620 C 998.585 -0.515463 -4.99648 0
M  V30 10621 C 1000.58 -2.19043 -5.98581 0
M  V30 10622 C 998.266 -1.50479 -5.92283 0
M  V30 10623 C 999.264 -2.34072 -6.41638 0
M  V30 10624 O 998.952 -3.31319 -7.3245 0
M  V30 10625 H 998.684 0.0501122 -0.67414 0
M  V30 10626 H 1001.24 -0.5018 -1.99176 0
M  V30 10627 H 999.468 1.51727 -3.55691 0
M  V30 10628 H 1001.16 1.23513 -3.86651 0
M  V30 10629 H 1001.92 -1.09531 -4.7247 0
M  V30 10630 H 997.802 0.12537 -4.60829 0
M  V30 10631 H 1001.35 -2.84327 -6.37027 0
M  V30 10632 H 997.243 -1.61451 -6.24983 0
M  V30 10633 H 998.011 -3.26863 -7.50402 0
M  V30 10634 N 1000.67 1.57404 -0.0785433 0
M  V30 10635 C 1001.58 2.16612 0.900902 0
M  V30 10636 C 1002.6 1.13109 1.32221 0
M  V30 10637 O 1003.78 1.45406 1.39352 0
M  V30 10638 C 1000.84 2.7215 2.14791 0
M  V30 10639 C 999.902 3.90551 1.78237 0
M  V30 10640 C 999.135 4.43431 2.96993 0
M  V30 10641 O 999.358 3.95292 4.11218 0
M  V30 10642 O 998.292 5.34674 2.76418 0
M  V30 10643 H 1002.12 3.0068 0.427227 0
M  V30 10644 H 999.703 1.48696 0.144902 0
M  V30 10645 H 1001.58 3.07718 2.87902 0
M  V30 10646 H 1000.26 1.91139 2.61243 0
M  V30 10647 H 999.167 3.59825 1.02357 0
M  V30 10648 H 1000.5 4.72876 1.36562 0
M  V30 10649 N 1002.15 -0.195058 1.56388 0
M  V30 10650 C 1003.06 -1.26219 1.97752 0
M  V30 10651 C 1004.08 -1.49801 0.885192 0
M  V30 10652 O 1005.25 -1.62415 1.19094 0
M  V30 10653 C 1002.32 -2.5865 2.3087 0
M  V30 10654 C 1001.38 -2.4314 3.5381 0
M  V30 10655 C 1000.61 -3.69255 3.85339 0
M  V30 10656 O 1000.84 -4.73425 3.18159 0
M  V30 10657 O 999.77 -3.64782 4.78767 0
M  V30 10658 H 1003.6 -0.941161 2.88749 0
M  V30 10659 H 1001.18 -0.40006 1.43944 0
M  V30 10660 H 1003.06 -3.36814 2.53247 0
M  V30 10661 H 1001.74 -2.9038 1.43042 0
M  V30 10662 H 1000.64 -1.63086 3.3668 0
M  V30 10663 H 1001.98 -2.16341 4.42105 0
M  V30 10664 N 1003.63 -1.50653 -0.462772 0
M  V30 10665 C 1004.88 -1.61737 -1.21184 0
M  V30 10666 C 1005.2 -0.32369 -1.92295 0
M  V30 10667 O 1004.47 0.659269 -1.84473 0
M  V30 10668 H 1003.05 -0.596015 -0.450306 0
M  V30 10669 H 1005.71 -1.87469 -0.533051 0
M  V30 10670 H 1004.81 -2.43262 -1.95525 0
M  V30 10671 N 1005.11 0.71652 -1.4037 0
M  V30 10672 C 1006.02 1.86074 -1.42876 0
M  V30 10673 C 1007.03 1.71005 -0.321475 0
M  V30 10674 O 1008.21 1.93286 -0.565909 0
M  V30 10675 C 1005.28 3.21862 -1.28863 0
M  V30 10676 C 1004.34 3.49193 -2.49726 0
M  V30 10677 C 1003.57 4.78502 -2.36372 0
M  V30 10678 O 1003.79 5.53529 -1.37703 0
M  V30 10679 O 1002.73 5.06147 -3.25728 0
M  V30 10680 H 1006.55 1.86916 -2.39366 0
M  V30 10681 H 1004.14 0.866818 -1.21683 0
M  V30 10682 H 1006.02 4.02972 -1.23253 0
M  V30 10683 H 1004.69 3.2175 -0.354783 0
M  V30 10684 H 1003.6 2.68095 -2.60913 0
M  V30 10685 H 1004.93 3.54101 -3.41868 0
M  V30 10686 N 1006.59 1.25851 0.948643 0
M  V30 10687 C 1007.86 1.01717 1.67072 0
M  V30 10688 C 1008.24 -0.454749 2.06144 0
M  V30 10689 O 1007.59 -1.43345 1.77945 0
M  V30 10690 C 1007.8 1.95872 2.88852 0
M  V30 10691 C 1009.15 2.24057 3.60671 0
M  V30 10692 O 1010.17 1.93678 2.98944 0
M  V30 10693 O 1009.03 2.75745 4.71833 0
M  V30 10694 H 1006.13 0.386198 0.731287 0
M  V30 10695 H 1008.67 1.37031 1.00104 0
M  V30 10696 H 1007.44 2.95233 2.56814 0
M  V30 10697 H 1007.07 1.60992 3.63548 0
M  V30 10698 N 1008.06 -1.15214 1.07534 0
M  V30 10699 C 1009 -2.19634 0.655261 0
M  V30 10700 C 1010.01 -1.60139 -0.293165 0
M  V30 10701 O 1011.2 -1.78311 -0.0821957 0
M  V30 10702 C 1008.3 -3.38851 -0.0578281 0
M  V30 10703 C 1007.47 -4.27888 0.90725 0
M  V30 10704 C 1006.53 -5.25692 0.231115 0
M  V30 10705 O 1005.56 -5.62469 0.872746 0
M  V30 10706 N 1006.76 -5.71424 -1.0225 0
M  V30 10707 H 1009.52 -2.56292 1.55353 0
M  V30 10708 H 1007.08 -1.30347 0.960271 0
M  V30 10709 H 1009.08 -4.01334 -0.520874 0
M  V30 10710 H 1007.65 -3.00593 -0.858071 0
M  V30 10711 H 1006.87 -3.62475 1.54937 0
M  V30 10712 H 1008.15 -4.84246 1.56151 0
M  V30 10713 H 1007.55 -5.43659 -1.56369 0
M  V30 10714 H 1006.11 -6.35938 -1.42919 0
M  V30 10715 N 1009.54 -0.859717 -1.32086 0
M  V30 10716 C 1010.51 -0.313005 -2.27053 0
M  V30 10717 C 1011.51 0.530191 -1.51808 0
M  V30 10718 O 1012.7 0.340972 -1.7083 0
M  V30 10719 C 1009.83 0.5566 -3.36325 0
M  V30 10720 H 1011.02 -1.15125 -2.76923 0
M  V30 10721 H 1008.57 -0.634463 -1.42843 0
M  V30 10722 H 1009.31 1.41645 -2.91731 0
M  V30 10723 H 1009.09 -0.0470197 -3.92072 0
M  V30 10724 H 1010.58 0.931725 -4.07073 0
M  V30 10725 N 1011.02 1.44971 -0.618145 0
M  V30 10726 C 1011.97 2.30606 0.09449 0
M  V30 10727 C 1012.94 1.42725 0.849633 0
M  V30 10728 O 1014.12 1.71643 0.833266 0
M  V30 10729 C 1011.26 3.27803 1.07886 0
M  V30 10730 C 1010.38 4.30787 0.323488 0
M  V30 10731 C 1009.51 5.15085 1.29851 0
M  V30 10732 C 1008.55 6.09788 0.531561 0
M  V30 10733 N 1007.69 6.86829 1.4564 0
M  V30 10734 H 1012.53 2.91008 -0.641738 0
M  V30 10735 H 1010.06 1.43391 -0.328259 0
M  V30 10736 H 1012.02 3.82631 1.66281 0
M  V30 10737 H 1010.65 2.69131 1.78237 0
M  V30 10738 H 1009.7 3.78536 -0.376164 0
M  V30 10739 H 1011.02 4.98044 -0.274443 0
M  V30 10740 H 1010.17 5.74365 1.95421 0
M  V30 10741 H 1008.91 4.4787 1.93037 0
M  V30 10742 H 1007.91 5.49628 -0.137702 0
M  V30 10743 H 1009.14 6.79033 -0.0953993 0
M  V30 10744 H 1007.08 6.22295 2.07571 0
M  V30 10745 H 1007 7.50477 0.912167 0
M  V30 10746 H 1008.27 7.50642 2.10134 0
M  V30 10747 N 1012.5 0.357919 1.53482 0
M  V30 10748 C 1013.43 -0.526753 2.23065 0
M  V30 10749 C 1014.44 -1.05239 1.24212 0
M  V30 10750 O 1015.63 -0.960078 1.50482 0
M  V30 10751 C 1012.73 -1.73919 2.9087 0
M  V30 10752 C 1011.91 -1.34638 4.16163 0
M  V30 10753 C 1010.96 -2.42005 4.67247 0
M  V30 10754 O 1009.99 -2.04714 5.31113 0
M  V30 10755 N 1011.19 -3.73478 4.44404 0
M  V30 10756 H 1013.96 0.0692386 2.9962 0
M  V30 10757 H 1011.52 0.182726 1.60866 0
M  V30 10758 H 1013.51 -2.45207 3.21956 0
M  V30 10759 H 1012.08 -2.24223 2.17814 0
M  V30 10760 H 1011.3 -0.463667 3.91464 0
M  V30 10761 H 1012.59 -1.06012 4.97633 0
M  V30 10762 H 1011.99 -4.06555 3.93357 0
M  V30 10763 H 1010.54 -4.40893 4.80059 0
M  V30 10764 N 1013.98 -1.5736 0.0868897 0
M  V30 10765 C 1014.94 -2.12436 -0.860439 0
M  V30 10766 C 1015.94 -1.05175 -1.21634 0
M  V30 10767 O 1017.13 -1.31098 -1.14713 0
M  V30 10768 C 1014.26 -2.63818 -2.159 0
M  V30 10769 H 1015.45 -2.97453 -0.382346 0
M  V30 10770 H 1013.01 -1.55458 -0.162009 0
M  V30 10771 H 1013.74 -1.82298 -2.68212 0
M  V30 10772 H 1013.53 -3.42234 -1.91359 0
M  V30 10773 H 1015.02 -3.06452 -2.83685 0
M  V30 10774 N 1015.45 0.186762 -1.56489 0
M  V30 10775 C 1016.68 0.920495 -1.84961 0
M  V30 10776 C 1017.09 1.77004 -0.668297 0
M  V30 10777 O 1016.44 1.79891 0.37213 0
M  V30 10778 C 1016.5 1.85997 -3.07645 0
M  V30 10779 C 1016.16 1.19156 -4.41193 0
M  V30 10780 C 1017.16 0.564446 -5.16827 0
M  V30 10781 C 1014.84 1.19292 -4.87929 0
M  V30 10782 C 1016.84 -0.0523768 -6.37378 0
M  V30 10783 C 1014.52 0.572266 -6.08415 0
M  V30 10784 C 1015.52 -0.049294 -6.82982 0
M  V30 10785 O 1015.21 -0.660201 -8.01184 0
M  V30 10786 H 1014.94 0.273659 -0.618132 0
M  V30 10787 H 1017.5 0.196437 -2.04459 0
M  V30 10788 H 1015.73 2.62394 -2.84053 0
M  V30 10789 H 1017.42 2.46221 -3.22692 0
M  V30 10790 H 1018.18 0.555474 -4.81809 0
M  V30 10791 H 1014.06 1.66611 -4.29839 0
M  V30 10792 H 1017.6 -0.538133 -6.95521 0
M  V30 10793 H 1013.5 0.578769 -6.429 0
M  V30 10794 H 1014.27 -0.557926 -8.16596 0
M  V30 10795 N 1016.93 1.50896 0.454776 0
M  V30 10796 C 1018.18 1.6294 1.20741 0
M  V30 10797 C 1018.51 0.336339 1.91265 0
M  V30 10798 O 1017.79 -0.663153 1.82846 0
M  V30 10799 C 1018.07 2.82092 2.23822 0
M  V30 10800 C 1017.92 4.21326 1.57495 0
M  V30 10801 C 1019.24 2.96777 3.24979 0
M  V30 10802 H 1016.36 0.59302 0.437603 0
M  V30 10803 H 1019 1.83331 0.498959 0
M  V30 10804 H 1017.15 2.64837 2.84243 0
M  V30 10805 H 1018.82 4.50209 1.00546 0
M  V30 10806 H 1017.07 4.24829 0.877664 0
M  V30 10807 H 1017.74 5.00656 2.32482 0
M  V30 10808 H 1020.21 3.12627 2.74597 0
M  V30 10809 H 1019.09 3.81742 3.94416 0
M  V30 10810 H 1019.35 2.08091 3.90065 0
M  V30 10811 N 1018.41 -0.709066 1.40748 0
M  V30 10812 C 1019.69 -1.4626 1.29874 0
M  V30 10813 C 1020.07 -2.10949 -0.0799322 0
M  V30 10814 O 1019.42 -2.00651 -1.09323 0
M  V30 10815 C 1019.63 -2.49302 2.44232 0
M  V30 10816 C 1020.97 -3.14945 2.84771 0
M  V30 10817 O 1022 -2.59623 2.43873 0
M  V30 10818 O 1020.86 -4.15111 3.5545 0
M  V30 10819 H 1017.95 -0.650716 0.51039 0
M  V30 10820 H 1020.5 -0.740687 1.52682 0
M  V30 10821 H 1019.27 -2.00063 3.36289 0
M  V30 10822 H 1018.89 -3.29021 2.23229 0
M  V30 10823 N 1019.89 -1.26353 -0.941956 0
M  V30 10824 C 1020.84 -1.07842 -2.04056 0
M  V30 10825 C 1021.81 0.0163064 -1.66092 0
M  V30 10826 O 1022.99 -0.143313 -1.90261 0
M  V30 10827 C 1020.13 -0.716636 -3.37577 0
M  V30 10828 C 1019.24 -1.88754 -3.88582 0
M  V30 10829 C 1018.38 -1.46893 -5.10486 0
M  V30 10830 C 1017.42 -2.60819 -5.53751 0
M  V30 10831 N 1016.56 -2.19646 -6.66858 0
M  V30 10832 H 1021.4 -2.01856 -2.19221 0
M  V30 10833 H 1018.93 -1.00504 -1.07412 0
M  V30 10834 H 1020.89 -0.487768 -4.14339 0
M  V30 10835 H 1019.52 0.18653 -3.22261 0
M  V30 10836 H 1018.57 -2.22936 -3.08227 0
M  V30 10837 H 1019.88 -2.74264 -4.1663 0
M  V30 10838 H 1019.04 -1.20047 -5.94705 0
M  V30 10839 H 1017.78 -0.584721 -4.84182 0
M  V30 10840 H 1016.78 -2.88396 -4.6809 0
M  V30 10841 H 1018.01 -3.49838 -5.82057 0
M  V30 10842 H 1015.95 -1.33657 -6.4224 0
M  V30 10843 H 1015.87 -2.987 -6.94489 0
M  V30 10844 H 1017.14 -1.96009 -7.54454 0
M  V30 10845 N 1021.37 1.14642 -1.08144 0
M  V30 10846 C 1022.3 2.21775 -0.730609 0
M  V30 10847 C 1023.28 1.67683 0.285702 0
M  V30 10848 O 1024.46 1.93567 0.156667 0
M  V30 10849 C 1021.59 3.47033 -0.136242 0
M  V30 10850 C 1020.55 4.14134 -1.0806 0
M  V30 10851 C 1019.87 5.33563 -0.348585 0
M  V30 10852 C 1021.17 4.62978 -2.41761 0
M  V30 10853 H 1022.87 2.51378 -1.62633 0
M  V30 10854 H 1020.41 1.20825 -0.783411 0
M  V30 10855 H 1022.37 4.21226 0.121182 0
M  V30 10856 H 1021.09 3.16786 0.7946 0
M  V30 10857 H 1019.75 3.41892 -1.32308 0
M  V30 10858 H 1019.4 4.99575 0.585974 0
M  V30 10859 H 1019.1 5.79402 -0.978122 0
M  V30 10860 H 1020.62 6.10519 -0.0991508 0
M  V30 10861 H 1022.04 5.28659 -2.21795 0
M  V30 10862 H 1020.43 5.1951 -3.00383 0
M  V30 10863 H 1021.5 3.78189 -3.03482 0
M  V30 10864 N 1022.85 0.866709 1.31628 0
M  V30 10865 C 1023.76 0.323408 2.3236 0
M  V30 10866 C 1024.77 -0.564995 1.64572 0
M  V30 10867 O 1025.95 -0.462489 1.96018 0
M  V30 10868 C 1023.01 -0.469045 3.43513 0
M  V30 10869 C 1022.07 0.446928 4.26967 0
M  V30 10870 C 1021.31 -0.307799 5.32812 0
M  V30 10871 O 1021.53 -1.5363 5.49321 0
M  V30 10872 O 1020.46 0.332653 6.0098 0
M  V30 10873 H 1024.29 1.15827 2.80745 0
M  V30 10874 H 1021.87 0.629987 1.35468 0
M  V30 10875 H 1023.76 -0.918405 4.1127 0
M  V30 10876 H 1022.43 -1.28051 2.97296 0
M  V30 10877 H 1021.34 0.944719 3.61975 0
M  V30 10878 H 1022.67 1.2239 4.76741 0
M  V30 10879 N 1024.32 -1.44642 0.625825 0
M  V30 10880 C 1025.23 -2.34451 -0.0836134 0
M  V30 10881 C 1026.25 -1.5231 -0.841289 0
M  V30 10882 O 1027.43 -1.85056 -0.794754 0
M  V30 10883 C 1024.49 -3.30211 -1.05648 0
M  V30 10884 C 1023.55 -4.28259 -0.298759 0
M  V30 10885 C 1022.78 -5.19444 -1.22528 0
M  V30 10886 O 1023.01 -5.14444 -2.46382 0
M  V30 10887 O 1021.94 -5.97668 -0.71247 0
M  V30 10888 H 1025.77 -2.96555 0.654912 0
M  V30 10889 H 1023.35 -1.44327 0.386029 0
M  V30 10890 H 1025.23 -3.8917 -1.61632 0
M  V30 10891 H 1023.91 -2.70648 -1.77571 0
M  V30 10892 H 1022.82 -3.72863 0.304001 0
M  V30 10893 H 1024.15 -4.90728 0.380345 0
M  V30 10894 N 1025.8 -0.366053 -1.5329 0
M  V30 10895 C 1026.73 0.47211 -2.28677 0
M  V30 10896 C 1027.71 1.08353 -1.31125 0
M  V30 10897 O 1028.9 1.10069 -1.59995 0
M  V30 10898 C 1026.03 1.61174 -3.07637 0
M  V30 10899 C 1024.98 1.12755 -4.12881 0
M  V30 10900 C 1024.31 2.35745 -4.79925 0
M  V30 10901 C 1025.61 0.211954 -5.2187 0
M  V30 10902 H 1027.3 -0.156838 -2.98989 0
M  V30 10903 H 1024.85 -0.0768709 -1.43795 0
M  V30 10904 H 1026.8 2.20473 -3.59123 0
M  V30 10905 H 1025.52 2.26793 -2.35016 0
M  V30 10906 H 1024.18 0.557234 -3.6234 0
M  V30 10907 H 1023.83 2.99821 -4.03877 0
M  V30 10908 H 1023.53 2.04019 -5.51044 0
M  V30 10909 H 1025.06 2.95729 -5.34207 0
M  V30 10910 H 1026.47 0.71244 -5.68856 0
M  V30 10911 H 1024.87 -0.0144501 -6.00098 0
M  V30 10912 H 1025.94 -0.745753 -4.79131 0
M  V30 10913 N 1027.28 1.57312 -0.0952337 0
M  V30 10914 C 1028.21 2.09691 0.900274 0
M  V30 10915 C 1029.19 1.0075 1.27625 0
M  V30 10916 O 1030.37 1.28249 1.38147 0
M  V30 10917 C 1027.5 2.574 2.20142 0
M  V30 10918 C 1026.55 3.78 1.9753 0
M  V30 10919 S 1027.38 5.21577 1.21318 0
M  V30 10920 C 1028.54 5.72636 2.52663 0
M  V30 10921 H 1028.77 2.93803 0.45467 0
M  V30 10922 H 1026.3 1.53948 0.118056 0
M  V30 10923 H 1028.26 2.85546 2.94914 0
M  V30 10924 H 1026.92 1.73514 2.61824 0
M  V30 10925 H 1026.11 4.09451 2.93881 0
M  V30 10926 H 1025.72 3.50349 1.30888 0
M  V30 10927 H 1028.01 5.80911 3.48638 0
M  V30 10928 H 1028.95 6.71136 2.25791 0
M  V30 10929 H 1029.36 5.00569 2.60943 0
M  V30 10930 N 1028.76 -0.17846 1.56586 0
M  V30 10931 C 1029.7 -1.22104 1.95855 0
M  V30 10932 C 1030.67 -1.44366 0.821447 0
M  V30 10933 O 1031.86 -1.57224 1.08098 0
M  V30 10934 C 1029 -2.55701 2.31757 0
M  V30 10935 C 1028.11 -2.40879 3.5861 0
M  V30 10936 C 1027.25 -3.67293 3.83757 0
M  V30 10937 C 1026.29 -3.47373 5.03982 0
M  V30 10938 N 1025.42 -4.65839 5.25298 0
M  V30 10939 H 1030.26 -0.879168 2.84736 0
M  V30 10940 H 1027.8 -0.422721 1.40895 0
M  V30 10941 H 1029.76 -3.33556 2.50592 0
M  V30 10942 H 1028.39 -2.87898 1.45995 0
M  V30 10943 H 1027.44 -1.54236 3.47729 0
M  V30 10944 H 1028.75 -2.22102 4.46623 0
M  V30 10945 H 1027.91 -4.53584 4.02922 0
M  V30 10946 H 1026.65 -3.89041 2.94107 0
M  V30 10947 H 1025.65 -2.59467 4.84723 0
M  V30 10948 H 1026.88 -3.27055 5.95157 0
M  V30 10949 H 1024.82 -4.8782 4.38598 0
M  V30 10950 H 1024.74 -4.4995 6.0752 0
M  V30 10951 H 1026.01 -5.53435 5.48936 0
M  V30 10952 N 1030.24 -1.51135 -0.446768 0
M  V30 10953 C 1031.48 -1.62571 -1.19388 0
M  V30 10954 C 1031.8 -0.3432 -1.92566 0
M  V30 10955 O 1033 -0.336804 -2.69403 0
M  V30 10956 C 1031.46 -2.87071 -2.17068 0
M  V30 10957 C 1031.07 -4.22291 -1.49581 0
M  V30 10958 C 1032.81 -3.07862 -2.9227 0
M  V30 10959 C 1030.72 -5.3795 -2.45689 0
M  V30 10960 H 1029.65 -0.60549 -0.449331 0
M  V30 10961 H 1032.3 -1.77593 -0.461846 0
M  V30 10962 H 1030.68 -2.65662 -2.93666 0
M  V30 10963 H 1031.86 -4.54046 -0.786054 0
M  V30 10964 H 1030.17 -4.07302 -0.865677 0
M  V30 10965 H 1032.77 -3.91444 -3.64246 0
M  V30 10966 H 1033.11 -2.20559 -3.53072 0
M  V30 10967 H 1033.64 -3.29566 -2.2278 0
M  V30 10968 H 1030.38 -6.27484 -1.89591 0
M  V30 10969 H 1029.9 -5.10583 -3.14746 0
M  V30 10970 H 1031.58 -5.69517 -3.07017 0
M  V30 10971 N 1031.71 0.701592 -1.41122 0
M  V30 10972 C 1032.96 1.45871 -1.39879 0
M  V30 10973 C 1033.28 1.94999 -0.00668769 0
M  V30 10974 O 1032.55 1.71298 0.95047 0
M  V30 10975 H 1031.13 0.541231 -0.514857 0
M  V30 10976 H 1033.79 0.830803 -1.76306 0
M  V30 10977 H 1032.89 2.32479 -2.0823 0
M  V30 10978 N 1033.19 1.2685 0.935242 0
M  V30 10979 C 1034.42 1.15538 1.71635 0
M  V30 10980 C 1034.83 -0.288698 1.8658 0
M  V30 10981 O 1034.19 -1.19721 1.37743 0
M  V30 10982 C 1034.24 1.8259 3.11999 0
M  V30 10983 O 1033.96 3.21355 2.97763 0
M  V30 10984 C 1035.46 1.77307 4.06297 0
M  V30 10985 H 1032.68 0.402055 0.537208 0
M  V30 10986 H 1035.23 1.67582 1.17203 0
M  V30 10987 H 1033.38 1.3447 3.63313 0
M  V30 10988 H 1033.8 3.54626 3.86446 0
M  V30 10989 H 1035.27 2.28851 5.02326 0
M  V30 10990 H 1035.75 0.740823 4.32907 0
M  V30 10991 H 1036.35 2.25007 3.60904 0
M  V30 10992 N 1034.67 -1.14067 1.0875 0
M  V30 10993 C 1036.08 -1.66747 0.839778 0
M  V30 10994 C 1036.43 -1.85711 -0.632909 0
M  V30 10995 O 1035.56 -1.57084 -1.48841 0
M  V30 10996 C 1036.15 -3.02896 1.51787 0
M  V30 10997 C 1034.71 -3.52596 1.3173 0
M  V30 10998 C 1033.86 -2.27994 1.57841 0
M  V30 10999 H 1036.81 -0.980838 1.24761 0
M  V30 11000 H 1036.83 -3.68526 0.947057 0
M  V30 11001 H 1036.34 -2.89062 2.58969 0
M  V30 11002 H 1034.44 -3.71647 0.266339 0
M  V30 11003 H 1034.56 -4.33151 2.04736 0
M  V30 11004 H 1032.92 -2.34241 1.00015 0
M  V30 11005 H 1033.7 -2.16732 2.66237 0
M  V30 11006 N 1036.15 -0.873678 -1.31166 0
M  V30 11007 C 1037.39 -0.487178 -1.96861 0
M  V30 11008 C 1037.73 0.95887 -1.68877 0
M  V30 11009 O 1037 1.6758 -0.987279 0
M  V30 11010 C 1037.29 -0.74925 -3.52219 0
M  V30 11011 C 1037.14 -2.2451 -3.89763 0
M  V30 11012 C 1038.46 -0.218194 -4.39559 0
M  V30 11013 H 1035.58 -0.178477 -0.715063 0
M  V30 11014 H 1038.22 -1.0956 -1.55231 0
M  V30 11015 H 1036.37 -0.231403 -3.8781 0
M  V30 11016 H 1038.04 -2.83049 -3.64254 0
M  V30 11017 H 1036.28 -2.71621 -3.38237 0
M  V30 11018 H 1036.95 -2.37911 -4.98099 0
M  V30 11019 H 1039.43 -0.661274 -4.10812 0
M  V30 11020 H 1038.31 -0.430983 -5.47205 0
M  V30 11021 H 1038.57 0.880056 -4.33252 0
M  V30 11022 N 1037.63 1.44308 -0.633487 0
M  V30 11023 C 1038.57 2.30694 0.0700257 0
M  V30 11024 C 1039.54 1.43618 0.834447 0
M  V30 11025 O 1040.73 1.72517 0.815014 0
M  V30 11026 C 1037.87 3.28929 1.04403 0
M  V30 11027 C 1036.98 4.31106 0.277779 0
M  V30 11028 C 1036.12 5.16433 1.24381 0
M  V30 11029 C 1035.16 6.10317 0.466855 0
M  V30 11030 N 1034.29 6.88335 1.38347 0
M  V30 11031 H 1039.13 2.90311 -0.672567 0
M  V30 11032 H 1036.67 1.43034 -0.343449 0
M  V30 11033 H 1038.63 3.84373 1.62214 0
M  V30 11034 H 1037.26 2.71006 1.75372 0
M  V30 11035 H 1036.31 3.78115 -0.416292 0
M  V30 11036 H 1037.62 4.97725 -0.327251 0
M  V30 11037 H 1036.78 5.76406 1.89318 0
M  V30 11038 H 1035.51 4.49893 1.88276 0
M  V30 11039 H 1034.52 5.49451 -0.195989 0
M  V30 11040 H 1035.74 6.78894 -0.167414 0
M  V30 11041 H 1033.69 6.24461 2.00959 0
M  V30 11042 H 1033.61 7.51402 0.832517 0
M  V30 11043 H 1034.88 7.52829 2.0216 0
M  V30 11044 N 1039.1 0.374177 1.53094 0
M  V30 11045 C 1040.35 -0.213131 2.01677 0
M  V30 11046 C 1040.68 -1.47715 1.26071 0
M  V30 11047 O 1039.96 -1.91199 0.356834 0
M  V30 11048 C 1040.24 -0.496392 3.56662 0
M  V30 11049 C 1040.09 0.781859 4.42953 0
M  V30 11050 C 1041.41 -1.29339 4.20666 0
M  V30 11051 H 1038.53 -0.0759885 0.733072 0
M  V30 11052 H 1041.17 0.500765 1.83282 0
M  V30 11053 H 1039.32 -1.10455 3.72467 0
M  V30 11054 H 1041 1.41914 4.38928 0
M  V30 11055 H 1039.24 1.40041 4.10574 0
M  V30 11056 H 1039.91 0.538508 5.49367 0
M  V30 11057 H 1042.39 -0.778848 4.08746 0
M  V30 11058 H 1041.26 -1.46033 5.29118 0
M  V30 11059 H 1041.52 -2.30435 3.77296 0
M  V30 11060 N 1040.58 -1.57259 0.103575 0
M  V30 11061 C 1042 -1.57581 -0.253062 0
M  V30 11062 C 1042.2 -1.11531 -1.67819 0
M  V30 11063 O 1041.25 -0.795632 -2.39637 0
M  V30 11064 C 1042.57 -3.00681 -0.0337753 0
M  V30 11065 C 1044.12 -3.12837 -0.10087 0
M  V30 11066 C 1044.59 -4.57911 0.0905295 0
M  V30 11067 N 1046.08 -4.63186 0.0359789 0
M  V30 11068 C 1046.82 -5.73179 0.159199 0
M  V30 11069 N 1046.31 -6.91976 0.337728 0
M  V30 11070 N 1048.11 -5.62011 0.0998662 0
M  V30 11071 H 1040.26 -1.85499 1.0346 0
M  V30 11072 H 1042.52 -0.856584 0.406163 0
M  V30 11073 H 1042.23 -3.38602 0.950858 0
M  V30 11074 H 1042.1 -3.69207 -0.772406 0
M  V30 11075 H 1044.49 -2.74783 -1.07601 0
M  V30 11076 H 1044.57 -2.46886 0.66939 0
M  V30 11077 H 1044.21 -4.9666 1.06258 0
M  V30 11078 H 1044.14 -5.21933 -0.699528 0
M  V30 11079 H 1046.63 -3.7777 -0.099121 0
M  V30 11080 H 1046.95 -7.71641 0.423032 0
M  V30 11081 H 1045.29 -6.93996 0.373504 0
M  V30 11082 H 1048.48 -4.68084 -0.0385356 0
M  V30 11083 H 1048.65 -6.47693 0.199342 0
M  V30 11084 N 1042.06 0.170153 -1.56679 0
M  V30 11085 C 1043.31 0.886592 -1.8206 0
M  V30 11086 C 1043.64 1.82194 -0.680839 0
M  V30 11087 O 1042.89 1.92866 0.331822 0
M  V30 11088 C 1043.19 1.71402 -3.13618 0
M  V30 11089 C 1042.86 0.927489 -4.41258 0
M  V30 11090 C 1041.52 0.710417 -4.75927 0
M  V30 11091 C 1043.87 0.375855 -5.19843 0
M  V30 11092 C 1041.2 -0.0693691 -5.86659 0
M  V30 11093 C 1043.55 -0.390849 -6.31391 0
M  V30 11094 C 1042.21 -0.61871 -6.64626 0
M  V30 11095 H 1041.48 0.324427 -0.666204 0
M  V30 11096 H 1044.13 0.151464 -1.909 0
M  V30 11097 H 1042.44 2.51858 -3.00125 0
M  V30 11098 H 1044.13 2.27141 -3.30466 0
M  V30 11099 H 1040.72 1.10672 -4.14065 0
M  V30 11100 H 1044.91 0.530897 -4.93452 0
M  V30 11101 H 1040.16 -0.255637 -6.10865 0
M  V30 11102 H 1044.34 -0.825544 -6.9149 0
M  V30 11103 H 1041.96 -1.22482 -7.50268 0
M  V30 11104 N 1043.54 1.5137 0.438746 0
M  V30 11105 C 1044.47 1.68774 1.55074 0
M  V30 11106 C 1045.48 0.568436 1.52554 0
M  V30 11107 O 1046.67 0.842707 1.57355 0
M  V30 11108 C 1043.77 1.68592 2.9399 0
M  V30 11109 C 1042.95 2.97084 3.2103 0
M  V30 11110 C 1042 2.89108 4.39663 0
M  V30 11111 O 1041.03 3.63052 4.38385 0
M  V30 11112 N 1042.23 2.04863 5.4315 0
M  V30 11113 H 1045 2.647 1.40549 0
M  V30 11114 H 1042.56 1.49238 0.627663 0
M  V30 11115 H 1044.55 1.60826 3.71372 0
M  V30 11116 H 1043.12 0.802657 3.02119 0
M  V30 11117 H 1042.34 3.18729 2.3196 0
M  V30 11118 H 1043.63 3.82143 3.35923 0
M  V30 11119 H 1043.03 1.4416 5.47023 0
M  V30 11120 H 1041.58 2.02977 6.1939 0
M  V30 11121 N 1045.02 -0.694098 1.41492 0
M  V30 11122 C 1045.93 -1.83778 1.45818 0
M  V30 11123 C 1046.94 -1.70471 0.348639 0
M  V30 11124 O 1048.12 -1.92361 0.596588 0
M  V30 11125 C 1045.18 -3.19771 1.33967 0
M  V30 11126 C 1044.24 -3.45175 2.5525 0
M  V30 11127 C 1043.48 -4.74681 2.43955 0
M  V30 11128 O 1043.7 -5.51268 1.46491 0
M  V30 11129 O 1042.63 -5.00901 3.33739 0
M  V30 11130 H 1046.46 -1.83084 2.42309 0
M  V30 11131 H 1044.05 -0.847349 1.23046 0
M  V30 11132 H 1045.93 -4.00961 1.29648 0
M  V30 11133 H 1044.6 -3.21145 0.405926 0
M  V30 11134 H 1043.51 -2.6391 2.65146 0
M  V30 11135 H 1044.84 -3.48617 3.47458 0
M  V30 11136 N 1046.49 -1.27344 -0.928501 0
M  V30 11137 C 1047.46 -1.10043 -2.01055 0
M  V30 11138 C 1048.46 -0.0446793 -1.60738 0
M  V30 11139 O 1049.65 -0.289202 -1.71783 0
M  V30 11140 C 1046.78 -0.676559 -3.34119 0
M  V30 11141 H 1047.97 -2.06126 -2.17835 0
M  V30 11142 H 1045.53 -1.10121 -1.10919 0
M  V30 11143 H 1046.26 0.285697 -3.23039 0
M  V30 11144 H 1046.05 -1.43903 -3.64739 0
M  V30 11145 H 1047.54 -0.577725 -4.13584 0
M  V30 11146 N 1047.97 1.13488 -1.09353 0
M  V30 11147 C 1048.88 2.2248 -0.744307 0
M  V30 11148 C 1049.9 1.72145 0.253404 0
M  V30 11149 O 1051.07 2.01176 0.0949339 0
M  V30 11150 C 1048.14 3.46286 -0.16928 0
M  V30 11151 C 1047.2 4.11516 -1.22284 0
M  V30 11152 C 1046.43 5.29412 -0.675161 0
M  V30 11153 O 1046.66 5.68185 0.502182 0
M  V30 11154 O 1045.59 5.8467 -1.42983 0
M  V30 11155 H 1049.42 2.54723 -1.65378 0
M  V30 11156 H 1047 1.21607 -0.867879 0
M  V30 11157 H 1048.88 4.2114 0.14811 0
M  V30 11158 H 1047.56 3.15745 0.713214 0
M  V30 11159 H 1046.47 3.38492 -1.59292 0
M  V30 11160 H 1047.8 4.46186 -2.07796 0
M  V30 11161 N 1049.45 0.880621 1.30701 0
M  V30 11162 C 1050.36 0.348034 2.32004 0
M  V30 11163 C 1051.38 -0.547508 1.65162 0
M  V30 11164 O 1052.55 -0.441673 1.96497 0
M  V30 11165 C 1049.62 -0.432585 3.43991 0
M  V30 11166 C 1048.68 0.492189 4.26469 0
M  V30 11167 C 1047.91 -0.25127 5.33108 0
M  V30 11168 O 1048.14 -1.47795 5.5092 0
M  V30 11169 O 1047.07 0.396376 6.00593 0
M  V30 11170 H 1050.9 1.18798 2.79501 0
M  V30 11171 H 1048.48 0.64432 1.34792 0
M  V30 11172 H 1050.36 -0.874733 4.12221 0
M  V30 11173 H 1049.04 -1.2489 2.98637 0
M  V30 11174 H 1047.94 0.983058 3.60953 0
M  V30 11175 H 1049.28 1.27439 4.75416 0
M  V30 11176 N 1050.93 -1.4397 0.641131 0
M  V30 11177 C 1052.35 -1.56607 0.30762 0
M  V30 11178 C 1052.55 -1.62694 -1.18882 0
M  V30 11179 O 1051.6 -1.57541 -1.97325 0
M  V30 11180 C 1052.91 -2.83289 1.00834 0
M  V30 11181 C 1054.46 -2.97016 0.98744 0
M  V30 11182 C 1054.94 -4.26514 1.66882 0
M  V30 11183 N 1056.43 -4.33351 1.63589 0
M  V30 11184 C 1057.16 -5.32292 2.13196 0
M  V30 11185 N 1056.66 -6.37582 2.71038 0
M  V30 11186 N 1058.45 -5.23866 2.03766 0
M  V30 11187 H 1050.6 -1.38262 1.61237 0
M  V30 11188 H 1052.87 -0.663221 0.677378 0
M  V30 11189 H 1052.57 -2.84812 2.06337 0
M  V30 11190 H 1052.45 -3.73134 0.552333 0
M  V30 11191 H 1054.83 -2.95041 -0.0591395 0
M  V30 11192 H 1054.91 -2.08493 1.48203 0
M  V30 11193 H 1054.56 -4.2925 2.71491 0
M  V30 11194 H 1054.49 -5.13912 1.14898 0
M  V30 11195 H 1056.98 -3.5788 1.21368 0
M  V30 11196 H 1057.29 -7.09378 3.06597 0
M  V30 11197 H 1055.64 -6.38239 2.75093 0
M  V30 11198 H 1058.83 -4.40524 1.58291 0
M  V30 11199 H 1059 -6.00819 2.42737 0
M  V30 11200 N 1052.41 -0.382291 -1.52893 0
M  V30 11201 C 1053.82 0.0932841 -1.86467 0
M  V30 11202 C 1054.17 1.4675 -1.30226 0
M  V30 11203 O 1053.29 2.07001 -0.63084 0
M  V30 11204 C 1053.89 0.176048 -3.38342 0
M  V30 11205 C 1052.45 0.595904 -3.71653 0
M  V30 11206 C 1051.6 -0.246511 -2.76202 0
M  V30 11207 H 1054.55 -0.600443 -1.46903 0
M  V30 11208 H 1054.57 0.996512 -3.67219 0
M  V30 11209 H 1054.08 -0.824264 -3.79246 0
M  V30 11210 H 1052.18 1.60384 -3.36315 0
M  V30 11211 H 1052.29 0.358919 -4.77754 0
M  V30 11212 H 1050.66 0.287162 -2.53076 0
M  V30 11213 H 1051.44 -1.24467 -3.19942 0
M  V30 11214 N 1053.89 1.57202 -0.111913 0
M  V30 11215 C 1054.83 2.14936 0.840908 0
M  V30 11216 C 1055.8 1.07242 1.2684 0
M  V30 11217 O 1056.99 1.35114 1.34718 0
M  V30 11218 C 1054.13 2.74743 2.0883 0
M  V30 11219 C 1053.24 3.96723 1.70982 0
M  V30 11220 C 1052.38 4.4464 2.90634 0
M  V30 11221 C 1051.41 5.59169 2.48992 0
M  V30 11222 N 1050.55 6.01862 3.61534 0
M  V30 11223 H 1055.39 2.96034 0.341735 0
M  V30 11224 H 1052.93 1.4626 0.156993 0
M  V30 11225 H 1054.89 3.07546 2.81907 0
M  V30 11226 H 1053.52 1.96346 2.56218 0
M  V30 11227 H 1052.57 3.70127 0.878072 0
M  V30 11228 H 1053.88 4.79795 1.36373 0
M  V30 11229 H 1053.03 4.79315 3.71944 0
M  V30 11230 H 1051.77 3.60503 3.28464 0
M  V30 11231 H 1050.78 5.24106 1.66113 0
M  V30 11232 H 1052 6.45067 2.12287 0
M  V30 11233 H 1049.95 5.20667 3.99051 0
M  V30 11234 H 1049.87 6.79772 3.30827 0
M  V30 11235 H 1051.13 6.41172 4.43305 0
M  V30 11236 N 1055.36 -0.161842 1.56767 0
M  V30 11237 C 1056.3 -1.22927 1.9226 0
M  V30 11238 C 1057.27 -1.42309 0.786562 0
M  V30 11239 O 1058.46 -1.57163 1.04078 0
M  V30 11240 C 1055.59 -2.59069 2.18177 0
M  V30 11241 C 1054.63 -2.56368 3.40849 0
M  V30 11242 S 1055.46 -2.04518 4.94907 0
M  V30 11243 C 1056.62 -3.42418 5.23928 0
M  V30 11244 H 1056.85 -0.926377 2.82499 0
M  V30 11245 H 1054.39 -0.366822 1.49979 0
M  V30 11246 H 1056.34 -3.37421 2.33789 0
M  V30 11247 H 1055.01 -2.86554 1.28629 0
M  V30 11248 H 1054.2 -3.56551 3.56213 0
M  V30 11249 H 1053.8 -1.86116 3.24402 0
M  V30 11250 H 1056.09 -4.38461 5.16486 0
M  V30 11251 H 1057.04 -3.3192 6.25487 0
M  V30 11252 H 1057.44 -3.38868 4.51474 0
M  V30 11253 N 1056.84 -1.516 -0.430713 0
M  V30 11254 C 1058.09 -1.64596 -1.17959 0
M  V30 11255 C 1058.42 -0.365382 -1.91037 0
M  V30 11256 O 1057.67 0.650826 -1.84561 0
M  V30 11257 C 1057.97 -2.804 -2.21609 0
M  V30 11258 C 1057.64 -4.19431 -1.65495 0
M  V30 11259 C 1056.3 -4.57252 -1.49915 0
M  V30 11260 C 1058.65 -5.0616 -1.24304 0
M  V30 11261 C 1055.98 -5.79501 -0.916276 0
M  V30 11262 C 1058.33 -6.28995 -0.674437 0
M  V30 11263 C 1056.99 -6.65582 -0.505591 0
M  V30 11264 H 1056.26 -0.602301 -0.431642 0
M  V30 11265 H 1058.91 -1.8565 -0.469726 0
M  V30 11266 H 1057.22 -2.53595 -2.98658 0
M  V30 11267 H 1058.91 -2.87654 -2.79385 0
M  V30 11268 H 1055.5 -3.89615 -1.78599 0
M  V30 11269 H 1059.69 -4.77541 -1.35159 0
M  V30 11270 H 1054.94 -6.0649 -0.77328 0
M  V30 11271 H 1059.12 -6.95536 -0.346779 0
M  V30 11272 H 1056.74 -7.60182 -0.0518188 0
M  V30 11273 N 1058.32 0.686584 -1.41858 0
M  V30 11274 C 1059.23 1.83002 -1.46791 0
M  V30 11275 C 1060.25 1.70284 -0.357675 0
M  V30 11276 O 1061.42 1.92042 -0.606781 0
M  V30 11277 C 1058.49 3.19056 -1.35661 0
M  V30 11278 C 1057.55 3.43817 -2.57077 0
M  V30 11279 C 1056.78 4.7338 -2.46469 0
M  V30 11280 O 1057 5.50483 -1.49413 0
M  V30 11281 O 1055.94 4.99124 -3.36391 0
M  V30 11282 H 1059.76 1.81797 -2.43277 0
M  V30 11283 H 1057.35 0.840812 -1.23494 0
M  V30 11284 H 1059.23 4.00267 -1.31773 0
M  V30 11285 H 1057.91 3.20925 -0.422951 0
M  V30 11286 H 1056.81 2.625 -2.66541 0
M  V30 11287 H 1058.15 3.4677 -3.49302 0
M  V30 11288 N 1059.8 1.27835 0.921735 0
M  V30 11289 C 1060.71 1.12904 2.05645 0
M  V30 11290 C 1061.72 0.0575704 1.73905 0
M  V30 11291 O 1062.9 0.265261 1.99645 0
M  V30 11292 C 1059.96 0.783957 3.3772 0
M  V30 11293 C 1059.03 1.93694 3.8312 0
M  V30 11294 C 1058.26 1.60823 5.08893 0
M  V30 11295 O 1058.48 0.518873 5.68035 0
M  V30 11296 O 1057.42 2.44932 5.49811 0
M  V30 11297 H 1061.24 2.08143 2.21157 0
M  V30 11298 H 1058.83 1.07078 1.04185 0
M  V30 11299 H 1060.71 0.605107 4.17033 0
M  V30 11300 H 1059.38 -0.138849 3.23402 0
M  V30 11301 H 1058.29 2.17089 3.04669 0
M  V30 11302 H 1059.62 2.84016 4.0199 0
M  V30 11303 N 1061.28 -1.12907 1.09954 0
M  V30 11304 C 1062.21 -2.20585 0.765799 0
M  V30 11305 C 1063.19 -1.68117 -0.258989 0
M  V30 11306 O 1064.37 -1.93792 -0.125853 0
M  V30 11307 C 1061.5 -3.46772 0.191435 0
M  V30 11308 C 1060.46 -4.12363 1.14635 0
M  V30 11309 C 1059.78 -5.3294 0.433426 0
M  V30 11310 C 1061.08 -4.59073 2.49096 0
M  V30 11311 H 1062.78 -2.48759 1.66612 0
M  V30 11312 H 1060.32 -1.19563 0.802534 0
M  V30 11313 H 1062.27 -4.21365 -0.0541535 0
M  V30 11314 H 1061 -3.18011 -0.744101 0
M  V30 11315 H 1059.66 -3.39744 1.37731 0
M  V30 11316 H 1059.31 -5.00444 -0.506422 0
M  V30 11317 H 1059.01 -5.77772 1.07018 0
M  V30 11318 H 1060.53 -6.10284 0.196267 0
M  V30 11319 H 1061.94 -5.25063 2.30177 0
M  V30 11320 H 1060.34 -5.14665 3.0861 0
M  V30 11321 H 1061.41 -3.73313 3.0946 0
M  V30 11322 N 1062.75 -0.88754 -1.30232 0
M  V30 11323 C 1064 -0.506277 -1.95656 0
M  V30 11324 C 1064.32 0.948191 -1.70395 0
M  V30 11325 O 1063.59 1.66701 -1.02895 0
M  V30 11326 H 1062.17 -0.184235 -0.723924 0
M  V30 11327 H 1064.83 -1.13118 -1.58715 0
M  V30 11328 H 1063.93 -0.678673 -3.04632 0
M  V30 11329 N 1064.23 1.43628 -0.648757 0
M  V30 11330 C 1065.16 2.29045 0.0841858 0
M  V30 11331 C 1066.18 1.42262 0.791537 0
M  V30 11332 O 1067.37 1.66243 0.650039 0
M  V30 11333 C 1064.47 3.19075 1.14212 0
M  V30 11334 C 1063.64 4.34372 0.513799 0
M  V30 11335 C 1062.7 5.05307 1.46803 0
M  V30 11336 O 1061.72 5.60729 0.978346 0
M  V30 11337 N 1062.93 5.08393 2.80209 0
M  V30 11338 H 1065.69 2.9259 -0.648948 0
M  V30 11339 H 1063.25 1.54268 -0.491209 0
M  V30 11340 H 1065.24 3.63395 1.78119 0
M  V30 11341 H 1063.81 2.57161 1.77728 0
M  V30 11342 H 1063.03 3.93024 -0.304262 0
M  V30 11343 H 1064.32 5.08745 0.0749871 0
M  V30 11344 H 1063.72 4.64729 3.22557 0
M  V30 11345 H 1062.28 5.56445 3.3943 0
M  V30 11346 N 1065.71 0.390394 1.52688 0
M  V30 11347 C 1067.13 0.0404028 1.59549 0
M  V30 11348 C 1067.33 -1.44503 1.40432 0
M  V30 11349 O 1066.38 -2.20968 1.22187 0
M  V30 11350 C 1067.7 0.518561 2.96195 0
M  V30 11351 C 1069.24 0.474913 3.09376 0
M  V30 11352 C 1069.72 0.929278 4.48473 0
M  V30 11353 N 1071.21 0.885335 4.5466 0
M  V30 11354 C 1071.94 1.2083 5.60524 0
M  V30 11355 N 1071.44 1.6018 6.74028 0
M  V30 11356 N 1073.23 1.12949 5.50635 0
M  V30 11357 H 1065.38 1.35743 1.63363 0
M  V30 11358 H 1067.65 0.556453 0.767505 0
M  V30 11359 H 1067.35 1.55606 3.15404 0
M  V30 11360 H 1067.23 -0.081779 3.77111 0
M  V30 11361 H 1069.61 -0.553503 2.89863 0
M  V30 11362 H 1069.7 1.11107 2.3041 0
M  V30 11363 H 1069.34 1.95593 4.68728 0
M  V30 11364 H 1069.27 0.270121 5.25907 0
M  V30 11365 H 1071.76 0.595787 3.73174 0
M  V30 11366 H 1072.07 1.83184 7.50775 0
M  V30 11367 H 1070.42 1.64067 6.75357 0
M  V30 11368 H 1073.61 0.821074 4.60843 0
M  V30 11369 H 1073.78 1.3845 6.33037 0
M  V30 11370 N 1067.19 -1.57141 0.120249 0
M  V30 11371 C 1068.12 -2.18398 -0.826112 0
M  V30 11372 C 1069.1 -1.12439 -1.27638 0
M  V30 11373 O 1070.28 -1.40679 -1.33877 0
M  V30 11374 C 1067.41 -2.78438 -2.0758 0
M  V30 11375 C 1066.37 -3.89991 -1.76327 0
M  V30 11376 C 1065.69 -4.36844 -3.08336 0
M  V30 11377 C 1066.99 -5.12031 -1.03062 0
M  V30 11378 H 1068.69 -2.97731 -0.315656 0
M  V30 11379 H 1066.23 -1.43213 -0.150387 0
M  V30 11380 H 1068.19 -3.19951 -2.74243 0
M  V30 11381 H 1066.91 -1.96396 -2.60953 0
M  V30 11382 H 1065.57 -3.49055 -1.12053 0
M  V30 11383 H 1065.22 -3.51659 -3.59646 0
M  V30 11384 H 1064.92 -5.1207 -2.88199 0
M  V30 11385 H 1066.44 -4.81009 -3.76116 0
M  V30 11386 H 1067.86 -5.50555 -1.59881 0
M  V30 11387 H 1066.25 -5.92848 -0.930146 0
M  V30 11388 H 1067.32 -4.84897 -0.017582 0
M  V30 11389 N 1068.67 0.153526 -1.5685 0
M  V30 11390 C 1069.6 1.2147 -1.94365 0
M  V30 11391 C 1070.61 1.39532 -0.838726 0
M  V30 11392 O 1071.8 1.39219 -1.11715 0
M  V30 11393 C 1068.9 2.5806 -2.19677 0
M  V30 11394 C 1068.07 2.61062 -3.50949 0
M  V30 11395 C 1067.13 3.79144 -3.64878 0
M  V30 11396 O 1066.16 3.64319 -4.37333 0
M  V30 11397 N 1067.36 4.96333 -3.01054 0
M  V30 11398 H 1070.13 0.895889 -2.85996 0
M  V30 11399 H 1067.69 0.343147 -1.58222 0
M  V30 11400 H 1069.68 3.35553 -2.26243 0
M  V30 11401 H 1068.25 2.8226 -1.34343 0
M  V30 11402 H 1067.47 1.69533 -3.55882 0
M  V30 11403 H 1068.76 2.60094 -4.37297 0
M  V30 11404 H 1068.15 5.1128 -2.42093 0
M  V30 11405 H 1066.71 5.71625 -3.13191 0
M  V30 11406 N 1070.14 1.51827 0.422667 0
M  V30 11407 C 1071.09 1.7058 1.51282 0
M  V30 11408 C 1072.08 0.5597 1.50851 0
M  V30 11409 O 1073.27 0.816223 1.57057 0
M  V30 11410 C 1070.4 1.84759 2.89342 0
M  V30 11411 C 1069.49 3.05199 2.94473 0
M  V30 11412 N 1069.88 4.28135 2.69322 0
M  V30 11413 C 1068.17 3.04755 3.25638 0
M  V30 11414 C 1068.88 5.09507 2.80674 0
M  V30 11415 N 1067.85 4.44464 3.12974 0
M  V30 11416 H 1071.65 2.63283 1.30611 0
M  V30 11417 H 1069.17 1.49674 0.630191 0
M  V30 11418 H 1071.16 1.96308 3.67789 0
M  V30 11419 H 1069.82 0.932478 3.11022 0
M  V30 11420 H 1070.84 4.56835 2.43972 0
M  V30 11421 H 1067.51 2.2293 3.52999 0
M  V30 11422 H 1068.9 6.17409 2.65058 0
M  V30 11423 N 1071.62 -0.679052 1.4222 0
M  V30 11424 C 1072.85 -1.46534 1.45641 0
M  V30 11425 C 1073.26 -1.89088 0.0649574 0
M  V30 11426 O 1072.6 -1.58436 -0.929712 0
M  V30 11427 C 1072.67 -2.74882 2.3169 0
M  V30 11428 C 1072.33 -2.5443 3.79624 0
M  V30 11429 C 1073.33 -2.19307 4.71382 0
M  V30 11430 C 1071.01 -2.69557 4.23845 0
M  V30 11431 C 1073.01 -1.99571 6.05351 0
M  V30 11432 C 1070.69 -2.49437 5.57875 0
M  V30 11433 C 1071.69 -2.14497 6.48444 0
M  V30 11434 O 1071.38 -1.94567 7.79999 0
M  V30 11435 H 1071.11 -0.457542 0.497626 0
M  V30 11436 H 1073.66 -0.842145 1.87342 0
M  V30 11437 H 1071.89 -3.39669 1.8483 0
M  V30 11438 H 1073.58 -3.3675 2.26615 0
M  V30 11439 H 1074.35 -2.0722 4.38503 0
M  V30 11440 H 1070.23 -2.95733 3.53642 0
M  V30 11441 H 1073.77 -1.72222 6.76007 0
M  V30 11442 H 1069.67 -2.61119 5.90328 0
M  V30 11443 H 1070.44 -2.092 7.91314 0
M  V30 11444 N 1073.1 -1.28322 -0.914942 0
M  V30 11445 C 1074.06 -1.12169 -1.99877 0
M  V30 11446 C 1075.06 -0.0617252 -1.60681 0
M  V30 11447 O 1076.25 -0.307405 -1.71466 0
M  V30 11448 C 1073.39 -0.711959 -3.33383 0
M  V30 11449 H 1074.58 -2.08425 -2.15636 0
M  V30 11450 H 1072.13 -1.11291 -1.09745 0
M  V30 11451 H 1072.87 0.251418 -3.23324 0
M  V30 11452 H 1072.65 -1.47764 -3.63192 0
M  V30 11453 H 1074.14 -0.621558 -4.12948 0
M  V30 11454 N 1074.58 1.12322 -1.10551 0
M  V30 11455 C 1075.53 2.18087 -0.755424 0
M  V30 11456 C 1076.5 1.6391 0.268805 0
M  V30 11457 O 1077.68 1.90227 0.147813 0
M  V30 11458 C 1074.82 3.4455 -0.194713 0
M  V30 11459 C 1073.93 4.12775 -1.27439 0
M  V30 11460 C 1073.07 5.26891 -0.675194 0
M  V30 11461 C 1072.11 5.86985 -1.73536 0
M  V30 11462 N 1071.24 6.92512 -1.15635 0
M  V30 11463 H 1076.08 2.47379 -1.66155 0
M  V30 11464 H 1073.62 1.21452 -0.829924 0
M  V30 11465 H 1075.58 4.16936 0.148275 0
M  V30 11466 H 1074.21 3.15671 0.674638 0
M  V30 11467 H 1073.26 3.38556 -1.73448 0
M  V30 11468 H 1074.57 4.53506 -2.07687 0
M  V30 11469 H 1073.73 6.06046 -0.281723 0
M  V30 11470 H 1072.47 4.87442 0.158708 0
M  V30 11471 H 1071.47 5.06517 -2.13825 0
M  V30 11472 H 1072.7 6.28505 -2.57213 0
M  V30 11473 H 1070.64 6.55098 -0.343928 0
M  V30 11474 H 1070.56 7.31848 -1.89565 0
M  V30 11475 H 1071.83 7.75492 -0.789463 0
M  V30 11476 N 1076.06 0.894434 1.2976 0
M  V30 11477 C 1077.31 0.513673 1.95049 0
M  V30 11478 C 1077.62 -0.943744 1.71327 0
M  V30 11479 O 1078.82 -1.43179 2.30678 0
M  V30 11480 C 1077.28 0.867751 3.49282 0
M  V30 11481 C 1076.89 2.34358 3.81812 0
M  V30 11482 C 1078.63 0.556645 4.20835 0
M  V30 11483 C 1076.54 2.63879 5.29265 0
M  V30 11484 H 1075.47 0.188375 0.73009 0
M  V30 11485 H 1078.12 1.09071 1.47566 0
M  V30 11486 H 1076.5 0.2197 3.9539 0
M  V30 11487 H 1077.68 3.03674 3.46581 0
M  V30 11488 H 1075.99 2.62318 3.23386 0
M  V30 11489 H 1078.59 0.754123 5.29355 0
M  V30 11490 H 1078.93 -0.504526 4.13231 0
M  V30 11491 H 1079.46 1.1623 3.80441 0
M  V30 11492 H 1076.2 3.68774 5.41928 0
M  V30 11493 H 1075.72 1.99182 5.65762 0
M  V30 11494 H 1077.4 2.49871 5.96803 0
M  V30 11495 N 1077.53 -1.43282 0.656365 0
M  V30 11496 C 1078.5 -2.29188 -0.0239173 0
M  V30 11497 C 1079.5 -1.42373 -0.747436 0
M  V30 11498 O 1080.69 -1.63969 -0.588213 0
M  V30 11499 C 1077.82 -3.24501 -1.0446 0
M  V30 11500 H 1079.01 -2.9083 0.731978 0
M  V30 11501 H 1076.57 -1.50614 0.417752 0
M  V30 11502 H 1077.3 -2.6776 -1.82962 0
M  V30 11503 H 1077.09 -3.88509 -0.52942 0
M  V30 11504 H 1078.58 -3.88971 -1.51958 0
M  V30 11505 N 1079.01 -0.398486 -1.52479 0
M  V30 11506 C 1079.98 0.420206 -2.25315 0
M  V30 11507 C 1080.98 0.982559 -1.27289 0
M  V30 11508 O 1082.17 0.863113 -1.51314 0
M  V30 11509 C 1079.3 1.59045 -3.01525 0
M  V30 11510 H 1080.49 -0.217599 -2.9911 0
M  V30 11511 H 1078.04 -0.150784 -1.55571 0
M  V30 11512 H 1078.78 2.26542 -2.32054 0
M  V30 11513 H 1078.56 1.19382 -3.73484 0
M  V30 11514 H 1080.05 2.16984 -3.56802 0
M  V30 11515 N 1080.49 1.57075 -0.12858 0
M  V30 11516 C 1081.77 1.87075 0.571162 0
M  V30 11517 C 1082.15 1.03141 1.84188 0
M  V30 11518 O 1081.5 0.113001 2.2822 0
M  V30 11519 C 1081.71 3.3838 0.854383 0
M  V30 11520 C 1083.05 4.07194 1.20326 0
M  V30 11521 O 1084.08 3.43454 0.944338 0
M  V30 11522 O 1082.94 5.19725 1.68963 0
M  V30 11523 H 1080.03 0.774764 0.289258 0
M  V30 11524 H 1082.58 1.68908 -0.163806 0
M  V30 11525 H 1081.35 3.91273 -0.0456925 0
M  V30 11526 H 1080.97 3.62012 1.64418 0
M  V30 11527 N 1081.97 -0.145205 1.5693 0
M  V30 11528 C 1083.22 -0.857516 1.83447 0
M  V30 11529 C 1083.54 -1.81088 0.709739 0
M  V30 11530 O 1082.8 -1.9337 -0.301097 0
M  V30 11531 C 1083.1 -1.66391 3.16305 0
M  V30 11532 C 1082.76 -0.857171 4.42678 0
M  V30 11533 C 1081.43 -0.634611 4.76997 0
M  V30 11534 C 1083.78 -0.293105 5.20375 0
M  V30 11535 C 1081.11 0.162693 5.86474 0
M  V30 11536 C 1083.46 0.491248 6.3069 0
M  V30 11537 C 1082.12 0.724368 6.63558 0
M  V30 11538 H 1081.39 -0.313787 0.671281 0
M  V30 11539 H 1084.04 -0.121074 1.91117 0
M  V30 11540 H 1082.34 -2.47051 3.04094 0
M  V30 11541 H 1084.04 -2.21855 3.34038 0
M  V30 11542 H 1080.63 -1.0407 4.15773 0
M  V30 11543 H 1084.82 -0.452326 4.94234 0
M  V30 11544 H 1080.07 0.352788 6.10381 0
M  V30 11545 H 1084.25 0.935449 6.90089 0
M  V30 11546 H 1081.87 1.34403 7.48224 0
M  V30 11547 N 1083.45 -1.52049 -0.414609 0
M  V30 11548 C 1084.86 -1.40729 -0.752822 0
M  V30 11549 C 1085.06 -0.507468 -1.95005 0
M  V30 11550 O 1084.12 0.0288189 -2.52484 0
M  V30 11551 C 1085.43 -2.83163 -1.01189 0
M  V30 11552 C 1086.98 -2.92469 -1.11494 0
M  V30 11553 C 1087.46 -4.35859 -1.4068 0
M  V30 11554 N 1088.95 -4.39069 -1.47557 0
M  V30 11555 C 1089.68 -5.47072 -1.71756 0
M  V30 11556 N 1089.18 -6.65201 -1.93595 0
M  V30 11557 N 1090.97 -5.3458 -1.73726 0
M  V30 11558 H 1083.12 -2.09089 0.373549 0
M  V30 11559 H 1085.38 -0.942188 0.104814 0
M  V30 11560 H 1085.09 -3.51104 -0.204609 0
M  V30 11561 H 1084.96 -3.23874 -1.93353 0
M  V30 11562 H 1087.35 -2.24711 -1.91282 0
M  V30 11563 H 1087.43 -2.55222 -0.171794 0
M  V30 11564 H 1087.08 -5.04174 -0.614119 0
M  V30 11565 H 1087.01 -4.70637 -2.36238 0
M  V30 11566 H 1089.5 -3.53913 -1.32491 0
M  V30 11567 H 1089.81 -7.43297 -2.11495 0
M  V30 11568 H 1088.16 -6.68276 -1.90871 0
M  V30 11569 H 1091.35 -4.41271 -1.56198 0
M  V30 11570 H 1091.52 -6.18826 -1.92246 0
M  V30 11571 N 1084.93 0.6715 -1.42579 0
M  V30 11572 C 1085.87 1.80623 -1.46554 0
M  V30 11573 C 1086.87 1.65934 -0.340932 0
M  V30 11574 O 1088.07 1.72502 -0.514098 0
M  V30 11575 H 1084.45 0.595619 -0.459067 0
M  V30 11576 H 1086.42 1.74388 -2.42139 0
M  V30 11577 C 1085.17 3.18794 -1.38801 0
M  V30 11578 H 1084.49 3.30725 -2.24635 0
M  V30 11579 H 1085.93 3.98201 -1.45645 0
M  V30 11580 C 1084.39 3.36742 -0.103219 0
M  V30 11581 O 1084.92 3.92761 0.842715 0
M  V30 11582 N 1083.13 2.90594 -0.0193034 0
M  V30 11583 H 1082.67 2.45192 -0.78986 0
M  V30 11584 H 1082.63 3.0298 0.839686 0
M  V30 11585 N 1086.4 1.28806 0.908124 0
M  V30 11586 C 1087.35 1.13215 2.01125 0
M  V30 11587 C 1088.32 0.0277357 1.66077 0
M  V30 11588 O 1089.51 0.193707 1.89814 0
M  V30 11589 C 1086.65 0.805887 3.35558 0
M  V30 11590 C 1085.76 1.9899 3.83441 0
M  V30 11591 C 1084.89 1.60376 5.06412 0
M  V30 11592 C 1083.93 2.75409 5.46641 0
M  V30 11593 N 1083.07 2.37249 6.60801 0
M  V30 11594 H 1087.91 2.07598 2.13792 0
M  V30 11595 H 1085.45 1.03316 1.0471 0
M  V30 11596 H 1087.4 0.597451 4.129 0
M  V30 11597 H 1086.03 -0.101023 3.22642 0
M  V30 11598 H 1085.09 2.31029 3.02208 0
M  V30 11599 H 1086.4 2.85214 4.09212 0
M  V30 11600 H 1085.55 1.35772 5.91313 0
M  V30 11601 H 1084.29 0.712888 4.82462 0
M  V30 11602 H 1083.3 3.00705 4.60279 0
M  V30 11603 H 1084.52 3.65148 5.72577 0
M  V30 11604 H 1082.47 1.50638 6.3847 0
M  V30 11605 H 1082.38 3.17008 6.86325 0
M  V30 11606 H 1083.65 2.15943 7.48992 0
M  V30 11607 N 1087.88 -1.11734 1.11145 0
M  V30 11608 C 1089.16 -1.79795 0.770261 0
M  V30 11609 C 1089.54 -1.97624 -0.742158 0
M  V30 11610 O 1088.89 -1.55847 -1.67105 0
M  V30 11611 C 1089.1 -3.13684 1.52982 0
M  V30 11612 C 1090.44 -3.88771 1.70711 0
M  V30 11613 O 1091.47 -3.23363 1.49381 0
M  V30 11614 O 1090.33 -5.06134 2.06132 0
M  V30 11615 H 1087.42 -0.778617 0.27872 0
M  V30 11616 H 1089.97 -1.18504 1.2147 0
M  V30 11617 H 1088.74 -2.96043 2.55879 0
M  V30 11618 H 1088.36 -3.82687 1.07873 0
M  V30 11619 N 1089.36 -0.901303 -1.29284 0
M  V30 11620 C 1090.27 -0.3849 -2.31421 0
M  V30 11621 C 1091.29 0.521163 -1.66012 0
M  V30 11622 O 1092.46 0.410356 -1.97175 0
M  V30 11623 C 1089.53 0.377804 -3.44635 0
M  V30 11624 C 1088.59 -0.559974 -4.25632 0
M  V30 11625 C 1087.82 0.166425 -5.3344 0
M  V30 11626 O 1088.04 1.39012 -5.53202 0
M  V30 11627 O 1086.98 -0.491875 -5.99887 0
M  V30 11628 H 1090.8 -1.2323 -2.77575 0
M  V30 11629 H 1088.39 -0.665683 -1.3375 0
M  V30 11630 H 1090.27 0.809041 -4.13561 0
M  V30 11631 H 1088.95 1.20124 -3.00586 0
M  V30 11632 H 1087.85 -1.04036 -3.59343 0
M  V30 11633 H 1089.19 -1.34987 -4.73328 0
M  V30 11634 N 1090.84 1.42931 -0.663954 0
M  V30 11635 C 1091.78 2.3079 0.0210764 0
M  V30 11636 C 1092.75 1.45356 0.803796 0
M  V30 11637 O 1093.94 1.74207 0.778237 0
M  V30 11638 C 1091.08 3.31069 0.974023 0
M  V30 11639 C 1090.19 4.31598 0.186273 0
M  V30 11640 C 1089.33 5.18955 1.13399 0
M  V30 11641 C 1088.37 6.1117 0.337292 0
M  V30 11642 N 1087.5 6.91114 1.23715 0
M  V30 11643 H 1092.34 2.88819 -0.733995 0
M  V30 11644 H 1089.88 1.42274 -0.373711 0
M  V30 11645 H 1091.84 3.87727 1.54024 0
M  V30 11646 H 1090.47 2.74665 1.69585 0
M  V30 11647 H 1089.52 3.77147 -0.496402 0
M  V30 11648 H 1090.83 4.96919 -0.432753 0
M  V30 11649 H 1089.99 5.80292 1.77049 0
M  V30 11650 H 1088.73 4.53785 1.78691 0
M  V30 11651 H 1087.73 5.48911 -0.312492 0
M  V30 11652 H 1088.96 6.78386 -0.31138 0
M  V30 11653 H 1086.9 6.28583 1.87668 0
M  V30 11654 H 1086.82 7.52999 0.672946 0
M  V30 11655 H 1088.09 7.56948 1.86146 0
M  V30 11656 N 1092.32 0.406567 1.52266 0
M  V30 11657 C 1093.55 -0.169378 2.05905 0
M  V30 11658 C 1093.95 -1.39626 1.27676 0
M  V30 11659 O 1093.3 -1.80871 0.32114 0
M  V30 11660 C 1093.36 -0.587209 3.54672 0
M  V30 11661 C 1093.02 0.528588 4.53933 0
M  V30 11662 C 1094.02 1.39137 5.00936 0
M  V30 11663 C 1091.7 0.700549 4.97391 0
M  V30 11664 C 1093.7 2.41108 5.90039 0
M  V30 11665 C 1091.39 1.72357 5.8629 0
M  V30 11666 C 1092.38 2.57725 6.32509 0
M  V30 11667 O 1092.07 3.58275 7.19649 0
M  V30 11668 H 1091.8 -0.0250574 0.675535 0
M  V30 11669 H 1094.36 0.575377 1.97177 0
M  V30 11670 H 1092.59 -1.38421 3.61077 0
M  V30 11671 H 1094.28 -1.09078 3.90969 0
M  V30 11672 H 1095.04 1.26991 4.68079 0
M  V30 11673 H 1090.92 0.0457503 4.60977 0
M  V30 11674 H 1094.47 3.07774 6.26036 0
M  V30 11675 H 1090.36 1.84535 6.1856 0
M  V30 11676 H 1091.13 3.54489 7.37753 0
M  V30 11677 N 1093.79 -1.57004 0.136909 0
M  V30 11678 C 1094.74 -2.17524 -0.823784 0
M  V30 11679 C 1095.74 -1.1294 -1.26258 0
M  V30 11680 O 1096.94 -1.3121 -1.23223 0
M  V30 11681 H 1093.32 -0.696381 -0.283827 0
M  V30 11682 H 1095.29 -2.96997 -0.289052 0
M  V30 11683 C 1094.04 -2.80331 -2.05693 0
M  V30 11684 H 1093.36 -3.60515 -1.72825 0
M  V30 11685 H 1094.8 -3.26192 -2.70878 0
M  V30 11686 C 1093.26 -1.78322 -2.85837 0
M  V30 11687 O 1093.79 -1.2475 -3.81838 0
M  V30 11688 N 1092 -1.47854 -2.50175 0
M  V30 11689 H 1091.54 -1.9161 -1.72173 0
M  V30 11690 H 1091.5 -0.798464 -3.04092 0
M  V30 11691 N 1095.27 0.136881 -1.57004 0
M  V30 11692 C 1096.22 1.17411 -1.95445 0
M  V30 11693 C 1097.21 1.38019 -0.827015 0
M  V30 11694 O 1098.4 1.39412 -1.09057 0
M  V30 11695 C 1095.53 2.50525 -2.34717 0
M  V30 11696 C 1094.61 2.33467 -3.54054 0
M  V30 11697 N 1095 1.86184 -4.70286 0
M  V30 11698 C 1093.3 2.64185 -3.59336 0
M  V30 11699 C 1094 1.82411 -5.5236 0
M  V30 11700 N 1092.98 2.26098 -4.94349 0
M  V30 11701 H 1096.78 0.8008 -2.8278 0
M  V30 11702 H 1094.3 0.344831 -1.58697 0
M  V30 11703 H 1096.29 3.2552 -2.60465 0
M  V30 11704 H 1094.95 2.8863 -1.48738 0
M  V30 11705 H 1095.96 1.55998 -4.93847 0
M  V30 11706 H 1092.64 3.06096 -2.83922 0
M  V30 11707 H 1094.03 1.4726 -6.55564 0
M  V30 11708 N 1096.75 1.52266 0.40654 0
M  V30 11709 C 1098 1.6568 1.15035 0
M  V30 11710 C 1098.31 0.394135 1.91588 0
M  V30 11711 O 1099.52 0.408113 2.68415 0
M  V30 11712 C 1097.97 2.92725 2.0938 0
M  V30 11713 C 1097.58 4.26108 1.38332 0
M  V30 11714 C 1099.33 3.15502 2.84004 0
M  V30 11715 C 1097.23 5.44275 2.3134 0
M  V30 11716 H 1096.16 0.61719 0.43312 0
M  V30 11717 H 1098.81 1.78755 0.414598 0
M  V30 11718 H 1097.2 2.73355 2.86519 0
M  V30 11719 H 1098.37 4.55971 0.665396 0
M  V30 11720 H 1096.69 4.09454 0.757384 0
M  V30 11721 H 1099.28 4.00964 3.5374 0
M  V30 11722 H 1099.63 2.29842 3.471 0
M  V30 11723 H 1100.16 3.35357 2.13964 0
M  V30 11724 H 1096.9 6.3229 1.72887 0
M  V30 11725 H 1096.42 5.18749 3.01098 0
M  V30 11726 H 1098.1 5.77457 2.91809 0
M  V30 11727 N 1098.23 -0.663929 1.42933 0
M  V30 11728 C 1099.51 -1.42054 1.34462 0
M  V30 11729 C 1099.89 -2.11096 -0.0127801 0
M  V30 11730 O 1099.23 -2.04027 -1.02884 0
M  V30 11731 C 1099.44 -2.41406 2.5204 0
M  V30 11732 C 1100.79 -3.05726 2.94647 0
M  V30 11733 O 1101.82 -2.51733 2.52009 0
M  V30 11734 O 1100.67 -4.03593 3.68477 0
M  V30 11735 H 1097.77 -0.634149 0.530834 0
M  V30 11736 H 1100.31 -0.691738 1.54962 0
M  V30 11737 H 1099.09 -1.89263 3.42484 0
M  V30 11738 H 1098.71 -3.21752 2.33584 0
M  V30 11739 N 1099.71 -1.29285 -0.901281 0
M  V30 11740 C 1100.62 -1.16161 -2.03823 0
M  V30 11741 C 1101.63 -0.0852298 -1.73791 0
M  V30 11742 O 1102.81 -0.29699 -1.99198 0
M  V30 11743 C 1099.87 -0.837586 -3.3643 0
M  V30 11744 C 1098.93 -1.99764 -3.7999 0
M  V30 11745 C 1098.17 -1.68898 -5.0627 0
M  V30 11746 O 1098.39 -0.609177 -5.67138 0
M  V30 11747 O 1097.32 -2.53648 -5.45845 0
M  V30 11748 H 1101.15 -2.11635 -2.17817 0
M  V30 11749 H 1098.74 -1.08722 -1.02468 0
M  V30 11750 H 1100.62 -0.671376 -4.16017 0
M  V30 11751 H 1099.29 0.0873811 -3.23582 0
M  V30 11752 H 1098.2 -2.21908 -3.01177 0
M  V30 11753 H 1099.53 -2.90376 -3.9742 0
M  V30 11754 N 1101.18 1.11143 -1.11736 0
M  V30 11755 C 1102.41 1.87285 -0.891007 0
M  V30 11756 C 1102.83 1.79758 0.553971 0
M  V30 11757 O 1102.19 1.16221 1.39149 0
M  V30 11758 C 1102.24 3.33924 -1.36114 0
M  V30 11759 O 1101.34 4.08917 -0.534851 0
M  V30 11760 H 1100.69 0.581418 -0.320701 0
M  V30 11761 H 1103.22 1.40469 -1.4876 0
M  V30 11762 H 1103.23 3.84772 -1.35701 0
M  V30 11763 H 1101.9 3.38719 -2.41334 0
M  V30 11764 H 1100.48 3.67954 -0.605355 0
M  V30 11765 N 1102.66 0.908147 1.28804 0
M  V30 11766 C 1103.57 0.397167 2.31214 0
M  V30 11767 C 1104.59 -0.512352 1.66286 0
M  V30 11768 O 1105.76 -0.399893 1.9739 0
M  V30 11769 C 1102.83 -0.359522 3.44831 0
M  V30 11770 C 1101.89 0.582539 4.25329 0
M  V30 11771 C 1101.12 -0.138133 5.33521 0
M  V30 11772 O 1101.35 -1.36076 5.53931 0
M  V30 11773 O 1100.28 0.523682 5.99618 0
M  V30 11774 H 1104.11 1.247 2.76918 0
M  V30 11775 H 1101.69 0.672766 1.33395 0
M  V30 11776 H 1103.57 -0.787098 4.13984 0
M  V30 11777 H 1102.25 -1.18528 3.01219 0
M  V30 11778 H 1101.16 1.0594 3.58786 0
M  V30 11779 H 1102.49 1.37495 4.72605 0
M  V30 11780 N 1104.14 -1.42577 0.671525 0
M  V30 11781 C 1105.07 -2.28124 -0.0589347 0
M  V30 11782 C 1106.05 -1.40878 -0.811915 0
M  V30 11783 O 1107.24 -1.70318 -0.807717 0
M  V30 11784 C 1104.36 -3.20662 -1.09057 0
M  V30 11785 C 1103.41 -4.24291 -0.43355 0
M  V30 11786 S 1104.24 -5.29393 0.806442 0
M  V30 11787 C 1105.4 -6.25498 -0.224204 0
M  V30 11788 H 1105.63 -2.89728 0.666689 0
M  V30 11789 H 1103.16 -1.47359 0.460959 0
M  V30 11790 H 1105.12 -3.74516 -1.68071 0
M  V30 11791 H 1103.78 -2.582 -1.78862 0
M  V30 11792 H 1102.98 -4.89213 -1.21186 0
M  V30 11793 H 1102.58 -3.73908 0.0829136 0
M  V30 11794 H 1104.87 -6.68757 -1.08492 0
M  V30 11795 H 1105.81 -7.07023 0.390469 0
M  V30 11796 H 1106.22 -5.61633 -0.568214 0
M  V30 11797 N 1105.62 -0.414636 -1.52048 0
M  V30 11798 C 1106.57 0.408141 -2.27163 0
M  V30 11799 C 1107.54 1.03636 -1.29803 0
M  V30 11800 O 1108.72 1.05959 -1.58674 0
M  V30 11801 C 1105.86 1.51588 -3.10024 0
M  V30 11802 C 1104.97 0.908034 -4.22349 0
M  V30 11803 C 1104.11 1.98893 -4.9256 0
M  V30 11804 C 1103.15 1.35831 -5.96839 0
M  V30 11805 N 1102.28 2.37958 -6.60545 0
M  V30 11806 H 1107.12 -0.238822 -2.97041 0
M  V30 11807 H 1104.66 -0.129614 -1.46528 0
M  V30 11808 H 1106.62 2.16916 -3.56375 0
M  V30 11809 H 1105.25 2.13279 -2.42305 0
M  V30 11810 H 1104.3 0.143652 -3.80129 0
M  V30 11811 H 1105.61 0.407426 -4.97133 0
M  V30 11812 H 1104.77 2.71935 -5.42343 0
M  V30 11813 H 1103.51 2.5232 -4.17356 0
M  V30 11814 H 1102.51 0.613246 -5.46369 0
M  V30 11815 H 1103.74 0.831655 -6.73988 0
M  V30 11816 H 1101.68 2.90508 -5.88167 0
M  V30 11817 H 1101.6 1.92725 -7.31022 0
M  V30 11818 H 1102.87 3.10553 -7.14966 0
M  V30 11819 N 1107.1 1.56929 -0.145233 0
M  V30 11820 C 1108.04 2.16671 0.795128 0
M  V30 11821 C 1109.01 1.09908 1.24537 0
M  V30 11822 O 1110.2 1.37941 1.31821 0
M  V30 11823 C 1107.34 2.79111 2.02956 0
M  V30 11824 C 1106.45 4.00261 1.62528 0
M  V30 11825 C 1105.59 4.50705 2.81137 0
M  V30 11826 C 1104.63 5.64324 2.37075 0
M  V30 11827 N 1103.76 6.09395 3.48687 0
M  V30 11828 H 1108.6 2.96692 0.278865 0
M  V30 11829 H 1106.14 1.4656 0.125934 0
M  V30 11830 H 1108.1 3.13456 2.7532 0
M  V30 11831 H 1106.73 2.01737 2.51996 0
M  V30 11832 H 1105.78 3.71906 0.799365 0
M  V30 11833 H 1107.09 4.8258 1.26166 0
M  V30 11834 H 1106.25 4.87096 3.61693 0
M  V30 11835 H 1104.98 3.67389 3.20744 0
M  V30 11836 H 1103.99 5.27511 1.54958 0
M  V30 11837 H 1105.21 6.49425 1.98556 0
M  V30 11838 H 1103.16 5.29014 3.87917 0
M  V30 11839 H 1103.08 6.86636 3.16333 0
M  V30 11840 H 1104.35 6.50431 4.29605 0
M  V30 11841 N 1108.58 -0.128553 1.57075 0
M  V30 11842 C 1109.82 -0.839252 1.8462 0
M  V30 11843 C 1110.15 -1.79974 0.729582 0
M  V30 11844 O 1109.43 -1.92681 -0.265369 0
M  V30 11845 C 1109.71 -1.59756 3.22723 0
M  V30 11846 C 1109.57 -0.657313 4.44971 0
M  V30 11847 C 1110.88 -2.55592 3.58275 0
M  V30 11848 H 1108 -0.303652 0.671539 0
M  V30 11849 H 1110.65 -0.103802 1.89716 0
M  V30 11850 H 1108.8 -2.22451 3.18509 0
M  V30 11851 H 1110.47 -0.0399471 4.61283 0
M  V30 11852 H 1108.71 0.0318416 4.33788 0
M  V30 11853 H 1109.38 -1.22433 5.38251 0
M  V30 11854 H 1111.86 -2.03007 3.63218 0
M  V30 11855 H 1110.73 -3.05687 4.55902 0
M  V30 11856 H 1110.99 -3.37813 2.85193 0
M  V30 11857 N 1110.05 -1.5248 -0.398459 0
M  V30 11858 C 1110.96 -1.79492 -1.51062 0
M  V30 11859 C 1111.98 -0.681101 -1.60116 0
M  V30 11860 O 1113.16 -0.967671 -1.7663 0
M  V30 11861 C 1110.22 -1.94958 -2.86692 0
M  V30 11862 C 1109.28 -3.1887 -2.87438 0
M  V30 11863 C 1108.51 -3.33588 -4.16599 0
M  V30 11864 O 1108.74 -2.53327 -5.11059 0
M  V30 11865 O 1107.67 -4.26795 -4.24416 0
M  V30 11866 H 1111.5 -2.73913 -1.31169 0
M  V30 11867 H 1109.08 -1.37455 -0.585372 0
M  V30 11868 H 1110.96 -2.06891 -3.67116 0
M  V30 11869 H 1109.64 -1.03726 -3.06631 0
M  V30 11870 H 1108.55 -3.12386 -2.0583 0
M  V30 11871 H 1109.88 -4.09917 -2.7245 0
M  V30 11872 N 1111.53 0.65634 -1.43283 0
M  V30 11873 C 1112.48 1.76934 -1.48199 0
M  V30 11874 C 1113.45 1.62748 -0.332023 0
M  V30 11875 O 1114.63 1.83036 -0.538735 0
M  V30 11876 C 1111.77 3.15072 -1.40797 0
M  V30 11877 C 1110.89 3.40414 -2.65974 0
M  V30 11878 C 1110.02 4.68383 -2.50582 0
M  V30 11879 C 1109.06 4.8682 -3.71043 0
M  V30 11880 N 1108.2 6.06043 -3.5448 0
M  V30 11881 H 1113.04 1.72067 -2.43304 0
M  V30 11882 H 1110.57 0.839728 -1.20777 0
M  V30 11883 H 1112.53 3.94925 -1.345 0
M  V30 11884 H 1111.16 3.19017 -0.492754 0
M  V30 11885 H 1110.21 2.54681 -2.82563 0
M  V30 11886 H 1111.53 3.49925 -3.55463 0
M  V30 11887 H 1110.68 5.56357 -2.41975 0
M  V30 11888 H 1109.42 4.61187 -1.58612 0
M  V30 11889 H 1108.42 3.97282 -3.80062 0
M  V30 11890 H 1109.65 4.95847 -4.64017 0
M  V30 11891 H 1107.6 5.99985 -2.65242 0
M  V30 11892 H 1107.51 6.16498 -4.37568 0
M  V30 11893 H 1108.78 6.96647 -3.49719 0
M  V30 11894 N 1113.01 1.29761 0.894412 0
M  V30 11895 C 1114.23 1.21064 1.68399 0
M  V30 11896 C 1114.66 -0.224608 1.86754 0
M  V30 11897 O 1114.02 -1.16199 1.39167 0
M  V30 11898 C 1114.07 1.93468 3.04306 0
M  V30 11899 O 1113.17 1.25533 3.9283 0
M  V30 11900 H 1112.51 0.419223 0.514925 0
M  V30 11901 H 1115.04 1.71421 1.11696 0
M  V30 11902 H 1115.05 2.02127 3.54413 0
M  V30 11903 H 1113.73 2.97857 2.90265 0
M  V30 11904 H 1112.3 1.25168 3.51266 0
M  V30 11905 N 1114.49 -1.10549 1.12324 0
M  V30 11906 C 1115.73 -1.82755 0.879117 0
M  V30 11907 C 1116.07 -1.84905 -0.593604 0
M  V30 11908 O 1115.34 -1.30884 -1.43873 0
M  V30 11909 C 1115.62 -3.29481 1.45308 0
M  V30 11910 C 1115.48 -3.3567 2.99408 0
M  V30 11911 C 1116.8 -4.25828 1.11167 0
M  V30 11912 H 1113.92 -0.663513 0.32081 0
M  V30 11913 H 1116.56 -1.29572 1.38965 0
M  V30 11914 H 1114.71 -3.74902 1.01887 0
M  V30 11915 H 1116.38 -2.98739 3.515 0
M  V30 11916 H 1114.62 -2.75606 3.34998 0
M  V30 11917 H 1115.29 -4.38983 3.34661 0
M  V30 11918 H 1117.77 -3.88635 1.48667 0
M  V30 11919 H 1116.65 -5.26857 1.53991 0
M  V30 11920 H 1116.91 -4.42094 0.0237046 0
M  V30 11921 N 1115.97 -0.914965 -1.28321 0
M  V30 11922 C 1116.91 -0.394477 -2.29231 0
M  V30 11923 C 1117.91 0.514481 -1.61398 0
M  V30 11924 O 1119.11 0.395591 -1.75599 0
M  V30 11925 H 1115.49 -0.108969 -0.744063 0
M  V30 11926 H 1117.46 -1.25862 -2.70557 0
M  V30 11927 C 1116.21 0.349134 -3.45943 0
M  V30 11928 H 1115.53 -0.341087 -3.98342 0
M  V30 11929 H 1116.97 0.677944 -4.18545 0
M  V30 11930 C 1115.43 1.55747 -2.98738 0
M  V30 11931 O 1115.96 2.65654 -3.01315 0
M  V30 11932 N 1114.17 1.40488 -2.54384 0
M  V30 11933 H 1113.71 0.510716 -2.52487 0
M  V30 11934 H 1113.67 2.21464 -2.23161 0
M  V30 11935 N 1117.44 1.42219 -0.679077 0
M  V30 11936 C 1118.35 2.346 -0.00345919 0
M  V30 11937 C 1119.37 1.55327 0.784181 0
M  V30 11938 O 1120.55 1.87878 0.725524 0
M  V30 11939 C 1117.61 3.33905 0.933194 0
M  V30 11940 C 1116.67 4.29073 0.139607 0
M  V30 11941 C 1115.9 5.23634 1.03165 0
M  V30 11942 O 1116.13 5.23234 2.27119 0
M  V30 11943 O 1115.06 5.99901 0.490159 0
M  V30 11944 H 1118.89 2.9392 -0.764525 0
M  V30 11945 H 1116.47 1.42794 -0.439329 0
M  V30 11946 H 1118.35 3.949 1.47077 0
M  V30 11947 H 1117.03 2.77052 1.67404 0
M  V30 11948 H 1115.94 3.71478 -0.442177 0
M  V30 11949 H 1117.27 4.88979 -0.562214 0
M  V30 11950 N 1118.92 0.422693 1.51826 0
M  V30 11951 C 1120.17 -0.148861 2.02253 0
M  V30 11952 C 1120.5 -1.43629 1.30707 0
M  V30 11953 O 1119.78 -1.89967 0.417482 0
M  V30 11954 C 1120.06 -0.382672 3.58061 0
M  V30 11955 C 1119.91 0.922386 4.40241 0
M  V30 11956 C 1121.23 -1.1589 4.24567 0
M  V30 11957 H 1118.35 -0.0526279 0.735119 0
M  V30 11958 H 1120.99 0.558821 1.81596 0
M  V30 11959 H 1119.14 -0.985495 3.75793 0
M  V30 11960 H 1120.81 1.55806 4.34191 0
M  V30 11961 H 1119.06 1.53032 4.05911 0
M  V30 11962 H 1119.73 0.713012 5.47376 0
M  V30 11963 H 1122.2 -0.648415 4.11017 0
M  V30 11964 H 1121.08 -1.29125 5.33496 0
M  V30 11965 H 1121.34 -2.18315 3.84436 0
M  V30 11966 N 1120.4 -1.5685 0.153553 0
M  V30 11967 C 1121.33 -2.12888 -0.821829 0
M  V30 11968 C 1122.31 -1.05418 -1.23798 0
M  V30 11969 O 1123.49 -1.33288 -1.33292 0
M  V30 11970 C 1120.62 -2.65394 -2.10438 0
M  V30 11971 C 1119.67 -3.85071 -1.83364 0
M  V30 11972 S 1120.5 -5.2572 -1.01877 0
M  V30 11973 C 1121.66 -5.81619 -2.31236 0
M  V30 11974 H 1121.89 -2.95288 -0.345314 0
M  V30 11975 H 1119.42 -1.5428 -0.0608377 0
M  V30 11976 H 1121.38 -2.96294 -2.84113 0
M  V30 11977 H 1120.04 -1.83112 -2.55204 0
M  V30 11978 H 1119.23 -4.20076 -2.78482 0
M  V30 11979 H 1118.84 -3.54965 -1.17794 0
M  V30 11980 H 1121.13 -5.9345 -3.26838 0
M  V30 11981 H 1122.07 -6.79054 -2.00727 0
M  V30 11982 H 1122.48 -5.09909 -2.42184 0
M  V30 11983 N 1121.88 0.120221 -1.57141 0
M  V30 11984 C 1122.79 1.16641 -2.03549 0
M  V30 11985 C 1123.8 1.45407 -0.955656 0
M  V30 11986 O 1124.98 1.56547 -1.26708 0
M  V30 11987 C 1122.04 2.4734 -2.42948 0
M  V30 11988 C 1121.11 2.25982 -3.65008 0
M  V30 11989 C 1120.34 3.50449 -4.02518 0
M  V30 11990 O 1120.56 4.57706 -3.40384 0
M  V30 11991 O 1119.5 3.41524 -4.95626 0
M  V30 11992 H 1123.32 0.802323 -2.9291 0
M  V30 11993 H 1120.91 0.330927 -1.45689 0
M  V30 11994 H 1122.79 3.24348 -2.69029 0
M  V30 11995 H 1121.46 2.83225 -1.56733 0
M  V30 11996 H 1120.37 1.46837 -3.44078 0
M  V30 11997 H 1121.7 1.95002 -4.51924 0
M  V30 11998 N 1123.36 1.52689 0.390367 0
M  V30 11999 C 1124.6 1.68866 1.13383 0
M  V30 12000 C 1124.96 0.422683 1.877 0
M  V30 12001 O 1124.25 -0.583587 1.82496 0
M  V30 12002 C 1124.44 2.86177 2.14096 0
M  V30 12003 C 1124.27 4.24062 1.49672 0
M  V30 12004 C 1123.04 4.89303 1.26139 0
M  V30 12005 C 1125.24 5.05496 0.947554 0
M  V30 12006 N 1123.22 6.11172 0.578051 0
M  V30 12007 C 1124.59 6.18758 0.392199 0
M  V30 12008 C 1126.65 4.90697 0.843832 0
M  V30 12009 C 1125.35 7.18842 -0.256734 0
M  V30 12010 C 1127.38 5.91032 0.208722 0
M  V30 12011 C 1126.74 7.03599 -0.33587 0
M  V30 12012 H 1122.84 0.671411 0.400914 0
M  V30 12013 H 1125.42 1.90037 0.423563 0
M  V30 12014 H 1123.59 2.66589 2.82462 0
M  V30 12015 H 1125.33 2.91298 2.80941 0
M  V30 12016 H 1122.08 4.48 1.53601 0
M  V30 12017 H 1122.51 6.76529 0.252464 0
M  V30 12018 H 1127.15 4.03879 1.25067 0
M  V30 12019 H 1124.87 8.05271 -0.675589 0
M  V30 12020 H 1128.45 5.81655 0.129732 0
M  V30 12021 H 1127.33 7.79906 -0.819557 0
M  V30 12022 N 1124.83 -0.648732 1.43629 0
M  V30 12023 C 1125.77 -1.77363 1.43589 0
M  V30 12024 C 1126.75 -1.59869 0.296783 0
M  V30 12025 O 1127.93 -1.81991 0.491065 0
M  V30 12026 C 1125.06 -3.1472 1.25175 0
M  V30 12027 C 1124.1 -3.50906 2.4242 0
M  V30 12028 S 1124.94 -3.50372 4.04968 0
M  V30 12029 C 1126.09 -4.90379 3.88946 0
M  V30 12030 H 1126.32 -1.77127 2.38774 0
M  V30 12031 H 1123.86 -0.821778 1.30714 0
M  V30 12032 H 1125.82 -3.93993 1.15239 0
M  V30 12033 H 1124.48 -3.12513 0.315303 0
M  V30 12034 H 1123.67 -4.50813 2.25353 0
M  V30 12035 H 1123.27 -2.79056 2.49006 0
M  V30 12036 H 1125.56 -5.79155 3.51548 0
M  V30 12037 H 1126.51 -5.12498 4.88622 0
M  V30 12038 H 1126.91 -4.64125 3.21323 0
M  V30 12039 N 1126.31 -1.30234 -0.887518 0
M  V30 12040 C 1127.26 -1.16302 -2.01436 0
M  V30 12041 C 1128.25 -0.0755422 -1.69231 0
M  V30 12042 O 1129.46 -0.236213 -1.78443 0
M  V30 12043 H 1125.84 -0.35961 -0.660443 0
M  V30 12044 H 1127.81 -2.11677 -2.10322 0
M  V30 12045 C 1126.56 -0.869009 -3.36665 0
M  V30 12046 H 1125.88 -1.69787 -3.61956 0
M  V30 12047 H 1127.32 -0.811621 -4.16159 0
M  V30 12048 C 1125.78 0.428021 -3.3417 0
M  V30 12049 O 1126.31 1.45033 -3.74604 0
M  V30 12050 N 1124.51 0.438264 -2.87276 0
M  V30 12051 H 1124.06 -0.394142 -2.54567 0
M  V30 12052 H 1124.02 1.30604 -2.85989 0
M  V30 12053 N 1127.79 1.09952 -1.12909 0
M  V30 12054 C 1128.74 2.18525 -0.796849 0
M  V30 12055 C 1129.73 1.67985 0.218483 0
M  V30 12056 O 1130.94 1.79839 0.07618 0
M  V30 12057 H 1127.31 0.712714 -0.239882 0
M  V30 12058 H 1129.28 2.43783 -1.72083 0
M  V30 12059 C 1128.03 3.46625 -0.273237 0
M  V30 12060 H 1127.36 3.85879 -1.04582 0
M  V30 12061 H 1128.8 4.23926 -0.0791355 0
M  V30 12062 C 1127.26 3.2172 0.999903 0
M  V30 12063 O 1127.79 3.43851 2.07676 0
M  V30 12064 N 1125.99 2.75356 0.928833 0
M  V30 12065 H 1125.54 2.57547 0.052379 0
M  V30 12066 H 1125.5 2.5907 1.78129 0
M  V30 12067 N 1129.27 0.921757 1.27833 0
M  V30 12068 C 1130.51 0.559906 1.94918 0
M  V30 12069 C 1130.85 -0.895532 1.72319 0
M  V30 12070 O 1130.12 -1.638 1.04879 0
M  V30 12071 C 1130.41 0.879458 3.49196 0
M  V30 12072 C 1130.26 2.38821 3.81162 0
M  V30 12073 C 1131.58 0.381183 4.38446 0
M  V30 12074 H 1128.7 0.204893 0.707946 0
M  V30 12075 H 1131.34 1.15246 1.51058 0
M  V30 12076 H 1129.49 0.375177 3.86684 0
M  V30 12077 H 1131.16 2.96373 3.53498 0
M  V30 12078 H 1129.4 2.83988 3.27923 0
M  V30 12079 H 1130.07 2.56234 4.88926 0
M  V30 12080 H 1132.55 0.813289 4.08075 0
M  V30 12081 H 1131.43 0.633778 5.45229 0
M  V30 12082 H 1131.69 -0.718651 4.3622 0
M  V30 12083 N 1130.75 -1.41857 0.686609 0
M  V30 12084 C 1131.68 -2.28174 -0.0347358 0
M  V30 12085 C 1132.66 -1.41732 -0.796928 0
M  V30 12086 O 1133.84 -1.71165 -0.789607 0
M  V30 12087 C 1130.97 -3.21801 -1.0565 0
M  V30 12088 C 1130.01 -4.24727 -0.388523 0
M  V30 12089 S 1130.85 -5.28508 0.862546 0
M  V30 12090 C 1132 -6.25701 -0.157849 0
M  V30 12091 H 1132.24 -2.89005 0.697381 0
M  V30 12092 H 1129.77 -1.46861 0.476562 0
M  V30 12093 H 1131.73 -3.76278 -1.64089 0
M  V30 12094 H 1130.39 -2.60082 -1.76114 0
M  V30 12095 H 1129.58 -4.90471 -1.15991 0
M  V30 12096 H 1129.18 -3.73799 0.122567 0
M  V30 12097 H 1131.48 -6.6987 -1.01393 0
M  V30 12098 H 1132.42 -7.06569 0.465437 0
M  V30 12099 H 1132.83 -5.62204 -0.508614 0
M  V30 12100 N 1132.22 -0.430739 -1.51599 0
M  V30 12101 C 1133.17 0.398482 -2.29161 0
M  V30 12102 C 1134.17 1.02676 -1.34737 0
M  V30 12103 O 1135.37 0.96248 -1.52106 0
M  V30 12104 H 1131.75 0.14731 -0.737431 0
M  V30 12105 H 1133.72 -0.276619 -2.97115 0
M  V30 12106 C 1132.47 1.49094 -3.14112 0
M  V30 12107 H 1131.79 1.01685 -3.86652 0
M  V30 12108 H 1133.23 2.04453 -3.7145 0
M  V30 12109 C 1131.69 2.47049 -2.29059 0
M  V30 12110 O 1132.22 3.51435 -1.94567 0
M  V30 12111 N 1130.43 2.17778 -1.92409 0
M  V30 12112 H 1129.97 1.3292 -2.20658 0
M  V30 12113 H 1129.93 2.8356 -1.35798 0
M  V30 12114 N 1133.7 1.56767 -0.161869 0
M  V30 12115 C 1134.67 2.16299 0.758104 0
M  V30 12116 C 1135.67 1.10859 1.16478 0
M  V30 12117 O 1136.86 1.36422 1.08327 0
M  V30 12118 C 1133.99 2.73819 2.03067 0
M  V30 12119 H 1135.18 2.98938 0.239992 0
M  V30 12120 H 1132.73 1.56054 0.0876532 0
M  V30 12121 H 1133.47 1.94887 2.59209 0
M  V30 12122 H 1133.25 3.50974 1.74813 0
M  V30 12123 H 1134.74 3.19638 2.68741 0
M  V30 12124 N 1135.18 -0.111886 1.57202 0
M  V30 12125 C 1136.11 -1.16274 1.97517 0
M  V30 12126 C 1137.13 -1.37259 0.875425 0
M  V30 12127 O 1138.31 -1.36208 1.15367 0
M  V30 12128 C 1135.41 -2.52145 2.26442 0
M  V30 12129 C 1134.59 -2.51666 3.57747 0
M  V30 12130 C 1133.65 -3.69337 3.74802 0
M  V30 12131 O 1132.67 -3.52596 4.46839 0
M  V30 12132 N 1133.87 -4.88177 3.14108 0
M  V30 12133 H 1136.64 -0.819747 2.88271 0
M  V30 12134 H 1134.2 -0.301076 1.59076 0
M  V30 12135 H 1136.19 -3.29437 2.3506 0
M  V30 12136 H 1134.76 -2.78599 1.41779 0
M  V30 12137 H 1133.98 -1.60038 3.60252 0
M  V30 12138 H 1135.27 -2.48408 4.44039 0
M  V30 12139 H 1134.67 -5.04682 2.55564 0
M  V30 12140 H 1133.23 -5.6312 3.28237 0
M  V30 12141 N 1136.66 -1.52894 -0.382264 0
M  V30 12142 C 1137.62 -1.77497 -1.45008 0
M  V30 12143 C 1138.62 -0.64509 -1.47293 0
M  V30 12144 O 1139.81 -0.913192 -1.48346 0
M  V30 12145 C 1136.94 -1.88188 -2.8425 0
M  V30 12146 H 1138.14 -2.72849 -1.24473 0
M  V30 12147 H 1135.69 -1.43717 -0.61441 0
M  V30 12148 H 1136.42 -0.948451 -3.10121 0
M  V30 12149 H 1136.21 -2.70353 -2.83992 0
M  V30 12150 H 1137.7 -2.08873 -3.6161 0
M  V30 12151 N 1138.14 0.641106 -1.43971 0
M  V30 12152 C 1139.08 1.75352 -1.50068 0
M  V30 12153 C 1140.05 1.62386 -0.349266 0
M  V30 12154 O 1141.24 1.82455 -0.558118 0
M  V30 12155 C 1138.38 3.13561 -1.4413 0
M  V30 12156 C 1137.49 3.37574 -2.6957 0
M  V30 12157 C 1136.63 4.65698 -2.55535 0
M  V30 12158 C 1135.67 4.82857 -3.76186 0
M  V30 12159 N 1134.8 6.02249 -3.60888 0
M  V30 12160 H 1139.64 1.69477 -2.45116 0
M  V30 12161 H 1137.18 0.826871 -1.2166 0
M  V30 12162 H 1139.14 3.93476 -1.38681 0
M  V30 12163 H 1137.77 3.18476 -0.526563 0
M  V30 12164 H 1136.82 2.5167 -2.85248 0
M  V30 12165 H 1138.13 3.46135 -3.59154 0
M  V30 12166 H 1137.29 5.53759 -2.47862 0
M  V30 12167 H 1136.03 4.59479 -1.63495 0
M  V30 12168 H 1135.03 3.93229 -3.84254 0
M  V30 12169 H 1136.26 4.90898 -4.6925 0
M  V30 12170 H 1134.2 5.97138 -2.71591 0
M  V30 12171 H 1134.12 6.11822 -4.44083 0
M  V30 12172 H 1135.39 6.92898 -3.57088 0
M  V30 12173 N 1139.62 1.30703 0.880598 0
M  V30 12174 C 1140.56 1.17455 1.98678 0
M  V30 12175 C 1141.53 0.0629569 1.65981 0
M  V30 12176 O 1142.72 0.233926 1.89361 0
M  V30 12177 C 1139.86 0.876882 3.33774 0
M  V30 12178 C 1138.97 2.07078 3.79134 0
M  V30 12179 C 1138.11 1.71082 5.02896 0
M  V30 12180 C 1137.14 2.86942 5.40676 0
M  V30 12181 N 1136.28 2.51212 6.55619 0
M  V30 12182 H 1141.12 2.12086 2.09341 0
M  V30 12183 H 1138.66 1.05514 1.02495 0
M  V30 12184 H 1140.62 0.684899 4.1154 0
M  V30 12185 H 1139.25 -0.0325633 3.22784 0
M  V30 12186 H 1138.3 2.37388 2.97239 0
M  V30 12187 H 1139.61 2.9383 4.0307 0
M  V30 12188 H 1138.76 1.48284 5.883 0
M  V30 12189 H 1137.5 0.815064 4.80841 0
M  V30 12190 H 1136.51 3.10401 4.53797 0
M  V30 12191 H 1137.73 3.77211 5.64703 0
M  V30 12192 H 1135.68 1.64147 6.35131 0
M  V30 12193 H 1135.6 3.31495 6.79446 0
M  V30 12194 H 1136.86 2.31781 7.44243 0
M  V30 12195 N 1141.09 -1.09351 1.1349 0
M  V30 12196 C 1142.32 -1.85844 0.92069 0
M  V30 12197 C 1142.74 -1.80616 -0.525303 0
M  V30 12198 O 1142.1 -1.1842 -1.37282 0
M  V30 12199 C 1142.15 -3.31716 1.4141 0
M  V30 12200 O 1141.25 -4.08014 0.599838 0
M  V30 12201 H 1140.59 -0.576242 0.32991 0
M  V30 12202 H 1143.12 -1.38084 1.50976 0
M  V30 12203 H 1143.13 -3.82564 1.41805 0
M  V30 12204 H 1141.81 -3.34837 2.46692 0
M  V30 12205 H 1140.39 -3.66944 0.663816 0
M  V30 12206 N 1142.57 -0.928524 -1.27343 0
M  V30 12207 C 1143.5 -0.445627 -2.29208 0
M  V30 12208 C 1144.48 0.494508 -1.62753 0
M  V30 12209 O 1145.67 0.399082 -1.90055 0
M  V30 12210 C 1142.8 0.301684 -3.45987 0
M  V30 12211 C 1141.75 -0.550695 -4.24442 0
M  V30 12212 C 1141.08 0.325833 -5.33706 0
M  V30 12213 C 1142.38 -1.81559 -4.89728 0
M  V30 12214 H 1144.07 -1.29696 -2.69851 0
M  V30 12215 H 1141.62 -0.625085 -1.29725 0
M  V30 12216 H 1143.57 0.650455 -4.1635 0
M  V30 12217 H 1142.29 1.18705 -3.04264 0
M  V30 12218 H 1140.95 -0.882185 -3.55827 0
M  V30 12219 H 1140.6 1.21018 -4.88225 0
M  V30 12220 H 1140.3 -0.240994 -5.87106 0
M  V30 12221 H 1141.83 0.670156 -6.06911 0
M  V30 12222 H 1143.24 -1.53483 -5.52373 0
M  V30 12223 H 1141.64 -2.32598 -5.53189 0
M  V30 12224 H 1142.71 -2.53461 -4.13383 0
M  V30 12225 N 1144.05 1.41491 -0.694123 0
M  V30 12226 C 1145.33 1.95004 -0.152571 0
M  V30 12227 C 1145.71 1.63357 1.33707 0
M  V30 12228 O 1145.05 0.939815 2.08278 0
M  V30 12229 C 1145.26 3.46186 -0.44232 0
M  V30 12230 C 1146.61 4.22991 -0.369279 0
M  V30 12231 O 1147.64 3.54198 -0.377152 0
M  V30 12232 O 1146.5 5.45514 -0.328145 0
M  V30 12233 H 1143.59 0.826879 -0.0141253 0
M  V30 12234 H 1146.14 1.51216 -0.770183 0
M  V30 12235 H 1144.91 3.62497 -1.47348 0
M  V30 12236 H 1144.53 3.97064 0.206337 0
M  V30 12237 N 1145.53 0.438773 1.51369 0
M  V30 12238 C 1146.46 -0.407771 2.25543 0
M  V30 12239 C 1147.47 -0.985065 1.29616 0
M  V30 12240 O 1148.66 -0.878961 1.55359 0
M  V30 12241 C 1145.76 -1.58257 2.9968 0
M  V30 12242 C 1144.93 -1.12389 4.22714 0
M  V30 12243 C 1143.99 -2.16897 4.79418 0
M  V30 12244 O 1143.02 -1.76273 5.41218 0
M  V30 12245 N 1144.22 -3.49396 4.63576 0
M  V30 12246 H 1146.99 0.227963 2.98832 0
M  V30 12247 H 1144.55 0.267741 1.59671 0
M  V30 12248 H 1146.54 -2.27796 3.34501 0
M  V30 12249 H 1145.11 -2.12362 2.29393 0
M  V30 12250 H 1144.33 -0.255509 3.93371 0
M  V30 12251 H 1145.62 -0.794848 5.02553 0
M  V30 12252 H 1145.02 -3.85132 4.14355 0
M  V30 12253 H 1143.57 -4.14826 5.02755 0
M  V30 12254 N 1147.01 -1.56678 0.170181 0
M  V30 12255 C 1148.28 -1.88524 -0.521362 0
M  V30 12256 C 1148.66 -1.07989 -1.81388 0
M  V30 12257 O 1148.01 -0.17347 -2.27841 0
M  V30 12258 C 1148.22 -3.40527 -0.764367 0
M  V30 12259 C 1149.57 -4.10241 -1.09487 0
M  V30 12260 O 1150.59 -3.45837 -0.852945 0
M  V30 12261 O 1149.45 -5.24022 -1.55124 0
M  V30 12262 H 1146.55 -0.782161 -0.268614 0
M  V30 12263 H 1149.09 -1.68414 0.208531 0
M  V30 12264 H 1147.86 -3.91015 0.149416 0
M  V30 12265 H 1147.49 -3.66244 -1.54762 0
M  V30 12266 N 1148.48 0.103547 -1.57259 0
M  V30 12267 C 1149.89 0.659006 -1.74683 0
M  V30 12268 C 1150.25 1.79542 -0.791142 0
M  V30 12269 O 1149.37 2.16376 0.0323585 0
M  V30 12270 C 1149.97 1.20222 -3.16752 0
M  V30 12271 C 1148.52 1.70382 -3.35629 0
M  V30 12272 C 1147.67 0.609886 -2.7051 0
M  V30 12273 H 1150.62 -0.122474 -1.58227 0
M  V30 12274 H 1150.64 2.07169 -3.19157 0
M  V30 12275 H 1150.16 0.374901 -3.86285 0
M  V30 12276 H 1148.26 2.55542 -2.71162 0
M  V30 12277 H 1148.37 1.80263 -4.43894 0
M  V30 12278 H 1146.73 1.04728 -2.32173 0
M  V30 12279 H 1147.52 -0.206713 -3.42677 0
M  V30 12280 N 1149.96 1.53094 0.37415 0
M  V30 12281 C 1151.21 1.69111 1.11934 0
M  V30 12282 C 1151.54 0.437252 1.89213 0
M  V30 12283 O 1150.82 -0.565298 1.86104 0
M  V30 12284 C 1151.1 2.93559 2.08554 0
M  V30 12285 C 1150.95 4.29082 1.3494 0
M  V30 12286 C 1152.27 3.13586 3.08791 0
M  V30 12287 H 1149.39 0.615383 0.405553 0
M  V30 12288 H 1152.03 1.85719 0.401078 0
M  V30 12289 H 1150.18 2.79531 2.69805 0
M  V30 12290 H 1151.85 4.54906 0.765402 0
M  V30 12291 H 1150.1 4.28884 0.651238 0
M  V30 12292 H 1150.77 5.12275 2.05616 0
M  V30 12293 H 1153.24 3.26743 2.57639 0
M  V30 12294 H 1152.12 4.02112 3.73627 0
M  V30 12295 H 1152.38 2.28475 3.78486 0
M  V30 12296 N 1151.44 -0.633461 1.44309 0
M  V30 12297 C 1152.69 -1.39513 1.47187 0
M  V30 12298 C 1153.02 -1.93926 0.103186 0
M  V30 12299 O 1152.29 -1.73512 -0.878853 0
M  V30 12300 C 1152.58 -2.56213 2.53036 0
M  V30 12301 C 1152.43 -2.07164 3.99253 0
M  V30 12302 C 1153.75 -3.58403 2.55412 0
M  V30 12303 H 1150.87 -0.505936 0.535908 0
M  V30 12304 H 1153.51 -0.716445 1.75975 0
M  V30 12305 H 1151.66 -3.14111 2.28619 0
M  V30 12306 H 1153.33 -1.54115 4.34795 0
M  V30 12307 H 1151.57 -1.38367 4.11141 0
M  V30 12308 H 1152.25 -2.91172 4.6896 0
M  V30 12309 H 1154.72 -3.103 2.77224 0
M  V30 12310 H 1153.6 -4.37581 3.31382 0
M  V30 12311 H 1153.86 -4.12316 1.59523 0
M  V30 12312 N 1152.92 -1.31168 -0.873655 0
M  V30 12313 C 1154.33 -1.09745 -1.1588 0
M  V30 12314 C 1154.53 0.134471 -2.01051 0
M  V30 12315 O 1153.59 0.824857 -2.38647 0
M  V30 12316 C 1154.9 -2.36704 -1.85451 0
M  V30 12317 C 1156.45 -2.42278 -1.98167 0
M  V30 12318 C 1156.93 -3.69108 -2.71152 0
M  V30 12319 N 1158.42 -3.69981 -2.7869 0
M  V30 12320 C 1159.15 -4.64811 -3.35765 0
M  V30 12321 N 1158.65 -5.69995 -3.938 0
M  V30 12322 N 1160.44 -4.52337 -3.33688 0
M  V30 12323 H 1152.59 -2.10184 -0.306021 0
M  V30 12324 H 1154.86 -0.927058 -0.198159 0
M  V30 12325 H 1154.56 -3.26666 -1.30316 0
M  V30 12326 H 1154.44 -2.46219 -2.85755 0
M  V30 12327 H 1156.82 -1.52787 -2.52468 0
M  V30 12328 H 1156.9 -2.3673 -0.969164 0
M  V30 12329 H 1156.55 -4.58963 -2.1752 0
M  V30 12330 H 1156.48 -3.71922 -3.72803 0
M  V30 12331 H 1158.97 -2.93944 -2.37498 0
M  V30 12332 H 1159.28 -6.38438 -4.3545 0
M  V30 12333 H 1157.63 -5.73773 -3.92186 0
M  V30 12334 H 1160.82 -3.69341 -2.87584 0
M  V30 12335 H 1160.99 -5.2642 -3.77871 0
M  V30 12336 N 1154.4 1.08748 -1.14068 0
M  V30 12337 C 1155.36 2.1375 -0.827266 0
M  V30 12338 C 1156.36 1.59936 0.166496 0
M  V30 12339 O 1157.55 1.74092 -0.0614305 0
M  V30 12340 C 1154.68 3.40106 -0.232557 0
M  V30 12341 H 1155.87 2.42985 -1.7578 0
M  V30 12342 H 1153.43 1.24402 -0.946244 0
M  V30 12343 H 1154.16 3.16503 0.706859 0
M  V30 12344 H 1153.95 3.8046 -0.948293 0
M  V30 12345 H 1155.44 4.17589 -0.0303662 0
M  V30 12346 N 1155.87 0.935264 1.26849 0
M  V30 12347 C 1156.81 0.397539 2.25726 0
M  V30 12348 C 1157.82 -0.475928 1.55688 0
M  V30 12349 O 1159.01 -0.287329 1.76172 0
M  V30 12350 C 1156.11 -0.448308 3.35922 0
M  V30 12351 C 1155.28 0.407624 4.35496 0
M  V30 12352 C 1154.34 -0.376815 5.24849 0
M  V30 12353 O 1153.37 0.218109 5.68782 0
M  V30 12354 N 1154.57 -1.67481 5.55815 0
M  V30 12355 H 1157.33 1.24753 2.72501 0
M  V30 12356 H 1154.89 0.803505 1.40554 0
M  V30 12357 H 1156.89 -0.980338 3.92647 0
M  V30 12358 H 1155.46 -1.19908 2.88688 0
M  V30 12359 H 1154.68 1.12091 3.77928 0
M  V30 12360 H 1155.96 0.992512 4.99026 0
M  V30 12361 H 1155.36 -2.18037 5.21993 0
M  V30 12362 H 1153.92 -2.15321 6.15207 0
M  V30 12363 N 1157.35 -1.41121 0.701616 0
M  V30 12364 C 1158.26 -2.34565 0.0407815 0
M  V30 12365 C 1159.28 -1.56555 -0.75937 0
M  V30 12366 O 1160.45 -1.89008 -0.695542 0
M  V30 12367 C 1157.52 -3.35347 -0.879954 0
M  V30 12368 C 1156.58 -4.29241 -0.0713279 0
M  V30 12369 C 1155.81 -5.25209 -0.948211 0
M  V30 12370 O 1156.04 -5.26781 -2.18766 0
M  V30 12371 O 1154.97 -6.00605 -0.394657 0
M  V30 12372 H 1158.8 -2.92666 0.811188 0
M  V30 12373 H 1156.38 -1.42077 0.461991 0
M  V30 12374 H 1158.26 -3.9719 -1.40776 0
M  V30 12375 H 1156.94 -2.7968 -1.62975 0
M  V30 12376 H 1155.85 -3.70727 0.50122 0
M  V30 12377 H 1157.18 -4.88022 0.639935 0
M  V30 12378 N 1158.83 -0.446794 -1.51134 0
M  V30 12379 C 1160.08 0.118047 -2.01354 0
M  V30 12380 C 1160.39 1.42953 -1.33505 0
M  V30 12381 O 1161.6 2.07788 -1.74747 0
M  V30 12382 C 1160.05 0.260912 -3.58953 0
M  V30 12383 C 1159.66 -1.0407 -4.35745 0
M  V30 12384 C 1161.41 0.779014 -4.17291 0
M  V30 12385 C 1159.31 -0.862958 -5.8507 0
M  V30 12386 H 1158.24 0.0478915 -0.752478 0
M  V30 12387 H 1160.89 -0.577997 -1.74159 0
M  V30 12388 H 1159.28 1.02018 -3.82633 0
M  V30 12389 H 1160.45 -1.80903 -4.23805 0
M  V30 12390 H 1158.77 -1.48805 -3.88904 0
M  V30 12391 H 1161.36 0.928636 -5.26574 0
M  V30 12392 H 1161.71 1.76399 -3.7708 0
M  V30 12393 H 1162.24 0.0778022 -3.97724 0
M  V30 12394 H 1158.98 -1.82059 -6.2971 0
M  V30 12395 H 1158.5 -0.134588 -5.99649 0
M  V30 12396 H 1160.18 -0.51989 -6.44908 0
M  V30 12397 N 1160.31 1.56586 -0.178487 0
M  V30 12398 C 1161.26 2.18309 0.74899 0
M  V30 12399 C 1162.23 1.12525 1.22178 0
M  V30 12400 O 1163.41 1.40706 1.28866 0
M  V30 12401 C 1160.55 2.83353 1.9699 0
M  V30 12402 C 1159.66 4.03618 1.54002 0
M  V30 12403 C 1158.8 4.56567 2.71514 0
M  V30 12404 C 1157.84 5.69226 2.25051 0
M  V30 12405 N 1156.97 6.16654 3.35682 0
M  V30 12406 H 1161.81 2.97217 0.21587 0
M  V30 12407 H 1159.35 1.46794 0.0948182 0
M  V30 12408 H 1161.31 3.19226 2.68609 0
M  V30 12409 H 1159.94 2.07037 2.4766 0
M  V30 12410 H 1158.99 3.73518 0.720298 0
M  V30 12411 H 1160.3 4.85148 1.15901 0
M  V30 12412 H 1159.46 4.94659 3.5128 0
M  V30 12413 H 1158.2 3.7411 3.12879 0
M  V30 12414 H 1157.2 5.30679 1.43734 0
M  V30 12415 H 1158.43 6.5349 1.84736 0
M  V30 12416 H 1156.37 5.37124 3.76609 0
M  V30 12417 H 1156.29 6.93192 3.01697 0
M  V30 12418 H 1157.56 6.59397 4.15711 0
M  V30 12419 N 1161.79 -0.095206 1.57312 0
M  V30 12420 C 1163.01 -0.81227 1.90289 0
M  V30 12421 C 1163.43 -1.72287 0.772178 0
M  V30 12422 O 1162.79 -1.80698 -0.255841 0
M  V30 12423 C 1162.84 -1.62572 3.22882 0
M  V30 12424 O 1162.56 -0.75175 4.31602 0
M  V30 12425 C 1164.06 -2.44585 3.6972 0
M  V30 12426 H 1161.28 -0.232256 0.629522 0
M  V30 12427 H 1163.82 -0.0724733 2.04372 0
M  V30 12428 H 1161.98 -2.31803 3.10397 0
M  V30 12429 H 1162.39 -1.31514 5.07744 0
M  V30 12430 H 1163.87 -2.97155 4.65191 0
M  V30 12431 H 1164.34 -3.23044 2.97555 0
M  V30 12432 H 1164.95 -1.80554 3.85072 0
M  V30 12433 N 1163.26 -1.53291 -0.366026 0
M  V30 12434 C 1164.21 -1.79697 -1.44836 0
M  V30 12435 C 1165.18 -0.641321 -1.5322 0
M  V30 12436 O 1166.37 -0.883453 -1.69115 0
M  V30 12437 C 1163.51 -1.99223 -2.81788 0
M  V30 12438 C 1162.62 -3.26938 -2.82375 0
M  V30 12439 C 1161.75 -3.36654 -4.10898 0
M  V30 12440 C 1160.79 -4.58404 -4.05626 0
M  V30 12441 N 1159.93 -4.65275 -5.25798 0
M  V30 12442 H 1164.77 -2.72053 -1.21619 0
M  V30 12443 H 1162.31 -1.34768 -0.589577 0
M  V30 12444 H 1164.27 -2.0853 -3.61346 0
M  V30 12445 H 1162.9 -1.10204 -3.03406 0
M  V30 12446 H 1161.95 -3.26587 -1.95052 0
M  V30 12447 H 1163.26 -4.16573 -2.74351 0
M  V30 12448 H 1162.41 -3.4527 -4.98872 0
M  V30 12449 H 1161.15 -2.45035 -4.21674 0
M  V30 12450 H 1160.16 -4.49888 -3.16039 0
M  V30 12451 H 1161.38 -5.51364 -3.96453 0
M  V30 12452 H 1159.33 -3.76557 -5.3716 0
M  V30 12453 H 1159.25 -5.48814 -5.19942 0
M  V30 12454 H 1160.51 -4.78175 -6.15605 0
M  V30 12455 N 1164.74 0.6258 -1.44643 0
M  V30 12456 C 1165.99 1.38125 -1.46984 0
M  V30 12457 C 1166.3 1.95299 -0.108429 0
M  V30 12458 O 1167.51 2.71498 -0.00940005 0
M  V30 12459 C 1165.97 2.50108 -2.58793 0
M  V30 12460 C 1165.57 1.99424 -4.01166 0
M  V30 12461 C 1167.32 3.27269 -2.70361 0
M  V30 12462 C 1165.23 3.08781 -5.04389 0
M  V30 12463 H 1164.16 0.519083 -0.546872 0
M  V30 12464 H 1166.81 0.67268 -1.70726 0
M  V30 12465 H 1165.19 3.23565 -2.28302 0
M  V30 12466 H 1166.36 1.32797 -4.4125 0
M  V30 12467 H 1164.68 1.35063 -3.93887 0
M  V30 12468 H 1167.27 4.08802 -3.44652 0
M  V30 12469 H 1167.62 3.77097 -1.76362 0
M  V30 12470 H 1168.15 2.60905 -3.00289 0
M  V30 12471 H 1164.89 2.63891 -6.00035 0
M  V30 12472 H 1164.41 3.74033 -4.68892 0
M  V30 12473 H 1166.09 3.73469 -5.28328 0
M  V30 12474 N 1166.22 1.31629 0.866686 0
M  V30 12475 C 1167.17 1.19556 1.97421 0
M  V30 12476 C 1168.14 0.0805578 1.65905 0
M  V30 12477 O 1169.32 0.253997 1.89102 0
M  V30 12478 C 1166.46 0.912234 3.32825 0
M  V30 12479 C 1165.58 2.11088 3.76916 0
M  V30 12480 C 1164.71 1.76406 5.01053 0
M  V30 12481 C 1163.75 2.9266 5.37602 0
M  V30 12482 N 1162.89 2.58152 6.52918 0
M  V30 12483 H 1167.73 2.14294 2.0708 0
M  V30 12484 H 1165.26 1.06595 1.0137 0
M  V30 12485 H 1167.22 0.72851 4.1079 0
M  V30 12486 H 1165.85 0.00167404 3.228 0
M  V30 12487 H 1164.9 2.40527 2.94705 0
M  V30 12488 H 1166.22 2.98089 3.99931 0
M  V30 12489 H 1165.37 1.54515 5.86694 0
M  V30 12490 H 1164.11 0.866018 4.79949 0
M  V30 12491 H 1163.11 3.15196 4.50479 0
M  V30 12492 H 1164.34 3.83179 5.6067 0
M  V30 12493 H 1162.28 1.70874 6.33355 0
M  V30 12494 H 1162.2 3.38682 6.75892 0
M  V30 12495 H 1163.47 2.39662 7.41743 0
M  V30 12496 N 1167.7 -1.08142 1.14644 0
M  V30 12497 C 1168.61 -2.18675 0.849607 0
M  V30 12498 C 1169.63 -1.73158 -0.170983 0
M  V30 12499 O 1170.8 -2.014 0.0011579 0
M  V30 12500 C 1167.87 -3.45084 0.334305 0
M  V30 12501 C 1166.93 -4.05213 1.41779 0
M  V30 12502 C 1166.16 -5.25588 0.926981 0
M  V30 12503 O 1166.38 -5.69934 -0.230522 0
M  V30 12504 O 1165.32 -5.77183 1.70715 0
M  V30 12505 H 1169.14 -2.46542 1.77343 0
M  V30 12506 H 1166.73 -1.17328 0.924911 0
M  V30 12507 H 1168.61 -4.21367 0.0529893 0
M  V30 12508 H 1167.29 -3.18788 -0.561755 0
M  V30 12509 H 1166.19 -3.30507 1.7526 0
M  V30 12510 H 1167.53 -4.35764 2.28847 0
M  V30 12511 N 1169.18 -0.941978 -1.26351 0
M  V30 12512 C 1170.11 -0.469913 -2.28723 0
M  V30 12513 C 1171.09 0.477218 -1.63269 0
M  V30 12514 O 1172.27 0.378902 -1.90468 0
M  V30 12515 C 1169.4 0.264971 -3.46288 0
M  V30 12516 C 1168.36 -0.595682 -4.23834 0
M  V30 12517 C 1167.68 0.269208 -5.34022 0
M  V30 12518 C 1168.98 -1.86743 -4.87775 0
M  V30 12519 H 1170.68 -1.32551 -2.6846 0
M  V30 12520 H 1168.22 -0.638809 -1.29055 0
M  V30 12521 H 1170.18 0.606259 -4.17016 0
M  V30 12522 H 1168.9 1.15471 -3.05506 0
M  V30 12523 H 1167.56 -0.919875 -3.54872 0
M  V30 12524 H 1167.21 1.15832 -4.89481 0
M  V30 12525 H 1166.91 -0.30325 -5.86817 0
M  V30 12526 H 1168.43 0.605748 -6.07588 0
M  V30 12527 H 1169.85 -1.59333 -5.50714 0
M  V30 12528 H 1168.24 -2.38452 -5.50691 0
M  V30 12529 H 1169.31 -2.57831 -4.10671 0
M  V30 12530 N 1170.66 1.40747 -0.709091 0
M  V30 12531 C 1171.6 2.32564 -0.0411392 0
M  V30 12532 C 1172.6 1.51692 0.75404 0
M  V30 12533 O 1173.8 1.67537 0.658139 0
M  V30 12534 H 1170.18 0.75198 0.00549889 0
M  V30 12535 H 1172.15 2.86556 -0.83235 0
M  V30 12536 C 1170.9 3.36604 0.871378 0
M  V30 12537 H 1170.22 3.98895 0.268912 0
M  V30 12538 H 1171.66 4.03359 1.30682 0
M  V30 12539 C 1170.12 2.71566 1.99384 0
M  V30 12540 O 1170.65 2.57392 3.08403 0
M  V30 12541 N 1168.86 2.3005 1.77554 0
M  V30 12542 H 1168.4 2.41778 0.888898 0
M  V30 12543 H 1168.36 1.8687 2.52838 0
M  V30 12544 N 1172.13 0.454803 1.50895 0
M  V30 12545 C 1173.08 -0.361974 2.29766 0
M  V30 12546 C 1174.08 -1.00519 1.36353 0
M  V30 12547 O 1175.28 -0.938159 1.53618 0
M  V30 12548 H 1171.66 -0.135559 0.739681 0
M  V30 12549 H 1173.63 0.323853 2.96637 0
M  V30 12550 C 1172.38 -1.44078 3.16444 0
M  V30 12551 H 1171.7 -0.955212 3.88221 0
M  V30 12552 H 1173.14 -1.98518 3.74655 0
M  V30 12553 C 1171.6 -2.43374 2.32961 0
M  V30 12554 O 1172.13 -3.48295 2.00133 0
M  V30 12555 N 1170.33 -2.14689 1.95849 0
M  V30 12556 H 1169.88 -1.29392 2.22745 0
M  V30 12557 H 1169.84 -2.81363 1.40292 0
M  V30 12558 N 1173.61 -1.56489 0.186789 0
M  V30 12559 C 1174.84 -2.01722 -0.459993 0
M  V30 12560 C 1175.25 -1.06697 -1.5576 0
M  V30 12561 O 1174.61 -0.0704212 -1.82364 0
M  V30 12562 C 1174.66 -3.46693 -1.02401 0
M  V30 12563 O 1174.38 -4.3809 0.0297916 0
M  V30 12564 C 1175.88 -4.07403 -1.7475 0
M  V30 12565 H 1173.1 -0.660845 -0.116298 0
M  V30 12566 H 1175.65 -2.02389 0.293059 0
M  V30 12567 H 1173.8 -3.46752 -1.72749 0
M  V30 12568 H 1174.22 -5.23057 -0.388821 0
M  V30 12569 H 1175.69 -5.10718 -2.09455 0
M  V30 12570 H 1176.17 -3.50383 -2.64818 0
M  V30 12571 H 1176.77 -4.11093 -1.09007 0
M  V30 12572 N 1175.09 0.086862 -1.5736 0
M  V30 12573 C 1176.33 0.794358 -1.88333 0
M  V30 12574 C 1176.69 1.75496 -0.778783 0
M  V30 12575 O 1177.89 2.50643 -0.971152 0
M  V30 12576 C 1176.17 1.49686 -3.24544 0
M  V30 12577 S 1177.72 2.2415 -3.7723 0
M  V30 12578 H 1174.54 0.264479 -0.659979 0
M  V30 12579 H 1177.14 0.0511046 -1.95433 0
M  V30 12580 H 1175.85 0.783713 -4.02847 0
M  V30 12581 H 1175.38 2.27984 -3.20604 0
M  V30 12582 H 1177.39 3.50426 -3.51306 0
M  V30 12583 N 1176.57 1.53483 0.357892 0
M  V30 12584 C 1177.48 1.83434 1.4625 0
M  V30 12585 C 1178.49 0.723313 1.58254 0
M  V30 12586 O 1179.67 1.01416 1.74002 0
M  V30 12587 C 1176.73 2.0249 2.81423 0
M  V30 12588 C 1175.8 3.26378 2.78883 0
M  V30 12589 C 1175.03 3.44516 4.07608 0
M  V30 12590 O 1175.25 2.66787 5.04163 0
M  V30 12591 O 1174.19 4.37898 4.12952 0
M  V30 12592 H 1178.01 2.77294 1.23861 0
M  V30 12593 H 1175.6 1.38958 0.548722 0
M  V30 12594 H 1177.48 2.16552 3.61501 0
M  V30 12595 H 1176.15 1.11819 3.03773 0
M  V30 12596 H 1175.06 3.17733 1.97475 0
M  V30 12597 H 1176.39 4.16996 2.61486 0
M  V30 12598 N 1178.05 -0.61812 1.44973 0
M  V30 12599 C 1179.46 -1.19994 1.43033 0
M  V30 12600 C 1179.81 -1.95607 0.152422 0
M  V30 12601 O 1178.93 -2.03114 -0.746571 0
M  V30 12602 C 1179.53 -2.18269 2.59122 0
M  V30 12603 C 1178.09 -2.7185 2.60336 0
M  V30 12604 C 1177.23 -1.4707 2.35086 0
M  V30 12605 H 1180.18 -0.408034 1.53365 0
M  V30 12606 H 1180.21 -3.01113 2.32619 0
M  V30 12607 H 1179.72 -1.63208 3.52115 0
M  V30 12608 H 1177.82 -3.30878 1.7132 0
M  V30 12609 H 1177.93 -3.17001 3.59231 0
M  V30 12610 H 1176.3 -1.75658 1.84435 0
M  V30 12611 H 1177.08 -0.938928 3.30211 0
M  V30 12612 N 1179.52 -1.32087 -0.859693 0
M  V30 12613 C 1180.77 -1.22542 -1.6159 0
M  V30 12614 C 1181.1 0.213533 -1.93022 0
M  V30 12615 O 1180.38 1.14931 -1.56911 0
M  V30 12616 C 1180.66 -2.08004 -2.93949 0
M  V30 12617 C 1180.51 -3.60252 -2.6933 0
M  V30 12618 C 1181.83 -1.93732 -3.95166 0
M  V30 12619 H 1178.95 -0.446504 -0.586347 0
M  V30 12620 H 1181.59 -1.61982 -0.993064 0
M  V30 12621 H 1179.74 -1.74498 -3.47106 0
M  V30 12622 H 1181.42 -4.03947 -2.22766 0
M  V30 12623 H 1179.66 -3.83169 -2.03382 0
M  V30 12624 H 1180.33 -4.1537 -3.63555 0
M  V30 12625 H 1182.81 -2.23075 -3.5125 0
M  V30 12626 H 1181.68 -2.55815 -4.85644 0
M  V30 12627 H 1181.94 -0.903528 -4.32769 0
M  V30 12628 N 1181 1.07532 -1.15215 0
M  V30 12629 C 1182.25 1.8036 -0.927263 0
M  V30 12630 C 1182.58 1.86414 0.544371 0
M  V30 12631 O 1181.86 1.34653 1.40353 0
M  V30 12632 C 1182.14 3.25512 -1.53992 0
M  V30 12633 C 1181.99 3.27614 -3.08203 0
M  V30 12634 C 1183.31 4.22731 -1.22418 0
M  V30 12635 H 1180.43 0.654775 -0.338289 0
M  V30 12636 H 1183.07 1.25842 -1.42351 0
M  V30 12637 H 1181.22 3.72068 -1.11791 0
M  V30 12638 H 1182.89 2.89315 -3.59297 0
M  V30 12639 H 1181.14 2.66627 -3.42188 0
M  V30 12640 H 1181.81 4.29956 -3.46182 0
M  V30 12641 H 1184.28 3.84557 -1.58919 0
M  V30 12642 H 1183.16 5.22589 -1.67906 0
M  V30 12643 H 1183.42 4.41875 -0.14091 0
M  V30 12644 N 1182.48 0.948665 1.2585 0
M  V30 12645 C 1183.71 0.617229 1.97479 0
M  V30 12646 C 1184.12 -0.809406 1.7057 0
M  V30 12647 O 1183.48 -1.54066 0.97826 0
M  V30 12648 C 1183.53 0.859065 3.51144 0
M  V30 12649 O 1183.25 2.2296 3.77121 0
M  V30 12650 C 1184.75 0.539197 4.40009 0
M  V30 12651 H 1181.97 0.231933 0.629641 0
M  V30 12652 H 1184.52 1.27141 1.60173 0
M  V30 12653 H 1182.67 0.25138 3.86584 0
M  V30 12654 H 1183.09 2.29524 4.71613 0
M  V30 12655 H 1184.56 0.758986 5.46757 0
M  V30 12656 H 1185.04 -0.526062 4.36038 0
M  V30 12657 H 1185.64 1.12594 4.10125 0
M  V30 12658 N 1183.96 -1.40369 0.716545 0
M  V30 12659 C 1184.89 -2.29186 0.0251905 0
M  V30 12660 C 1185.9 -1.45877 -0.722761 0
M  V30 12661 O 1187.09 -1.69155 -0.569982 0
M  V30 12662 C 1184.19 -3.24161 -0.988589 0
M  V30 12663 C 1183.37 -4.36329 -0.30597 0
M  V30 12664 C 1182.42 -5.11736 -1.22527 0
M  V30 12665 O 1181.45 -5.64758 -0.7097 0
M  V30 12666 N 1182.65 -5.21183 -2.55634 0
M  V30 12667 H 1185.42 -2.8916 0.787808 0
M  V30 12668 H 1182.98 -1.51749 0.564253 0
M  V30 12669 H 1184.97 -3.71479 -1.60578 0
M  V30 12670 H 1183.54 -2.65347 -1.65256 0
M  V30 12671 H 1182.76 -3.91125 0.491432 0
M  V30 12672 H 1184.05 -5.08523 0.167827 0
M  V30 12673 H 1183.45 -4.7959 -3.00017 0
M  V30 12674 H 1182 -5.72005 -3.12495 0
M  V30 12675 N 1185.44 -0.462799 -1.50652 0
M  V30 12676 C 1186.85 -0.00568907 -1.86699 0
M  V30 12677 C 1187.2 1.39641 -1.37822 0
M  V30 12678 O 1186.32 2.03366 -0.739679 0
M  V30 12679 C 1186.92 -0.00354783 -3.388 0
M  V30 12680 C 1185.48 0.398061 -3.74289 0
M  V30 12681 C 1184.62 -0.392574 -2.74507 0
M  V30 12682 H 1187.58 -0.677469 -1.43513 0
M  V30 12683 H 1187.6 0.800456 -3.71985 0
M  V30 12684 H 1187.11 -1.02414 -3.74344 0
M  V30 12685 H 1185.21 1.42331 -3.44344 0
M  V30 12686 H 1185.32 0.105168 -4.78985 0
M  V30 12687 H 1183.69 0.152608 -2.54242 0
M  V30 12688 H 1184.47 -1.41252 -3.12894 0
M  V30 12689 N 1186.91 1.56388 -0.195085 0
M  V30 12690 C 1187.86 2.19091 0.725793 0
M  V30 12691 C 1188.83 1.13814 1.20977 0
M  V30 12692 O 1190.02 1.42065 1.27366 0
M  V30 12693 C 1187.16 2.85427 1.93973 0
M  V30 12694 C 1186.27 4.05229 1.49712 0
M  V30 12695 C 1185.4 4.59421 2.66656 0
M  V30 12696 C 1184.44 5.71581 2.19001 0
M  V30 12697 N 1183.58 6.2018 3.29123 0
M  V30 12698 H 1188.42 2.97429 0.184334 0
M  V30 12699 H 1185.96 1.46886 0.0792434 0
M  V30 12700 H 1187.92 3.22057 2.65208 0
M  V30 12701 H 1186.55 2.09652 2.4545 0
M  V30 12702 H 1185.6 3.74261 0.680641 0
M  V30 12703 H 1186.91 4.8635 1.10749 0
M  V30 12704 H 1186.06 4.98357 3.46014 0
M  V30 12705 H 1184.8 3.77407 3.08893 0
M  V30 12706 H 1183.81 5.32174 1.38097 0
M  V30 12707 H 1185.03 6.55413 1.77795 0
M  V30 12708 H 1182.98 5.41088 3.70891 0
M  V30 12709 H 1182.9 6.96353 2.94328 0
M  V30 12710 H 1184.16 6.63769 4.08694 0
M  V30 12711 N 1188.39 -0.0785156 1.57404 0
M  V30 12712 C 1189.8 -0.631132 1.75709 0
M  V30 12713 C 1190.15 -1.78261 0.819605 0
M  V30 12714 O 1189.28 -2.164 0.00206912 0
M  V30 12715 C 1189.87 -1.15168 3.18625 0
M  V30 12716 C 1188.43 -1.65021 3.38297 0
M  V30 12717 C 1187.58 -0.566773 2.71446 0
M  V30 12718 H 1190.53 0.147631 1.58012 0
M  V30 12719 H 1190.55 -2.02065 3.22413 0
M  V30 12720 H 1190.06 -0.313399 3.86833 0
M  V30 12721 H 1188.17 -2.51196 2.75194 0
M  V30 12722 H 1188.28 -1.73179 4.46706 0
M  V30 12723 H 1186.64 -1.01021 2.33809 0
M  V30 12724 H 1187.43 0.261204 3.42305 0
M  V30 12725 N 1189.87 -1.5367 -0.349747 0
M  V30 12726 C 1190.82 -1.81223 -1.42922 0
M  V30 12727 C 1191.79 -0.657536 -1.52531 0
M  V30 12728 O 1192.97 -0.90134 -1.68168 0
M  V30 12729 C 1190.11 -2.022 -2.79659 0
M  V30 12730 C 1189.23 -3.29915 -2.78891 0
M  V30 12731 C 1188.36 -3.40993 -4.07305 0
M  V30 12732 C 1187.4 -4.6268 -4.00741 0
M  V30 12733 N 1186.54 -4.70826 -5.20833 0
M  V30 12734 H 1191.38 -2.73328 -1.18727 0
M  V30 12735 H 1188.91 -1.35386 -0.57525 0
M  V30 12736 H 1190.87 -2.12351 -3.59114 0
M  V30 12737 H 1189.5 -1.13416 -3.0222 0
M  V30 12738 H 1188.55 -3.28637 -1.91577 0
M  V30 12739 H 1189.87 -4.19459 -2.69917 0
M  V30 12740 H 1189.02 -3.50542 -4.95182 0
M  V30 12741 H 1187.76 -2.49493 -4.19052 0
M  V30 12742 H 1186.76 -4.53215 -3.11249 0
M  V30 12743 H 1187.99 -5.55538 -3.90582 0
M  V30 12744 H 1185.93 -3.82233 -5.33136 0
M  V30 12745 H 1185.85 -5.54297 -5.14092 0
M  V30 12746 H 1187.12 -4.84677 -6.10499 0
M  V30 12747 N 1191.35 0.610423 -1.45298 0
M  V30 12748 C 1192.6 1.36558 -1.48441 0
M  V30 12749 C 1192.91 1.95173 -0.129137 0
M  V30 12750 O 1194.12 2.71473 -0.0381956 0
M  V30 12751 C 1192.57 2.47349 -2.61431 0
M  V30 12752 C 1192.18 1.95158 -4.03258 0
M  V30 12753 C 1193.92 3.24383 -2.73817 0
M  V30 12754 C 1191.83 3.03414 -5.07635 0
M  V30 12755 H 1190.76 0.513253 -0.552347 0
M  V30 12756 H 1193.41 0.654535 -1.7143 0
M  V30 12757 H 1191.79 3.21125 -2.31721 0
M  V30 12758 H 1192.97 1.2811 -4.42634 0
M  V30 12759 H 1191.28 1.30878 -3.95297 0
M  V30 12760 H 1193.88 4.05123 -3.48969 0
M  V30 12761 H 1194.22 3.75205 -1.80352 0
M  V30 12762 H 1194.76 2.57705 -3.03039 0
M  V30 12763 H 1191.5 2.57512 -6.028 0
M  V30 12764 H 1191.02 3.69039 -4.72833 0
M  V30 12765 H 1192.69 3.67844 -5.32259 0
M  V30 12766 N 1192.83 1.32541 0.852676 0
M  V30 12767 C 1193.74 1.23646 1.99371 0
M  V30 12768 C 1194.75 0.149673 1.73355 0
M  V30 12769 O 1195.93 0.370716 1.97959 0
M  V30 12770 C 1192.99 0.961873 3.3309 0
M  V30 12771 C 1192.05 2.1373 3.72315 0
M  V30 12772 C 1191.29 1.87572 4.99652 0
M  V30 12773 O 1191.51 0.819247 5.64486 0
M  V30 12774 O 1190.44 2.73732 5.36054 0
M  V30 12775 H 1194.27 2.19573 2.09813 0
M  V30 12776 H 1191.86 1.12451 0.983627 0
M  V30 12777 H 1193.74 0.825316 4.13239 0
M  V30 12778 H 1192.41 0.0327745 3.23683 0
M  V30 12779 H 1191.32 2.32933 2.92733 0
M  V30 12780 H 1192.65 3.04925 3.86369 0
M  V30 12781 N 1194.3 -1.0692 1.15784 0
M  V30 12782 C 1195.53 -1.83849 0.959903 0
M  V30 12783 C 1195.95 -1.8169 -0.486873 0
M  V30 12784 O 1195.31 -1.21305 -1.34739 0
M  V30 12785 C 1195.36 -3.28642 1.48414 0
M  V30 12786 O 1194.46 -4.0665 0.686249 0
M  V30 12787 H 1193.81 -0.569115 0.342059 0
M  V30 12788 H 1196.34 -1.34851 1.53871 0
M  V30 12789 H 1196.35 -3.7947 1.49888 0
M  V30 12790 H 1195.02 -3.29529 2.53739 0
M  V30 12791 H 1193.6 -3.65453 0.741501 0
M  V30 12792 N 1195.78 -0.955326 -1.25345 0
M  V30 12793 C 1197.19 -0.651118 -1.74978 0
M  V30 12794 C 1197.54 0.833495 -1.77616 0
M  V30 12795 O 1196.67 1.65228 -1.39745 0
M  V30 12796 C 1197.26 -1.17521 -3.17764 0
M  V30 12797 C 1195.82 -0.921151 -3.64954 0
M  V30 12798 C 1194.97 -1.31784 -2.43984 0
M  V30 12799 H 1197.92 -1.13205 -1.11222 0
M  V30 12800 H 1197.94 -0.535625 -3.76711 0
M  V30 12801 H 1197.45 -2.25575 -3.15813 0
M  V30 12802 H 1195.56 0.144392 -3.7232 0
M  V30 12803 H 1195.67 -1.5581 -4.53056 0
M  V30 12804 H 1194.03 -0.736219 -2.43828 0
M  V30 12805 H 1194.82 -2.40761 -2.44723 0
M  V30 12806 N 1197.26 1.39987 -0.723979 0
M  V30 12807 C 1198.21 2.30672 -0.0768286 0
M  V30 12808 C 1199.18 1.48634 0.741422 0
M  V30 12809 O 1200.36 1.77351 0.703649 0
M  V30 12810 C 1197.5 3.34902 0.832729 0
M  V30 12811 C 1196.62 4.32 0.00304942 0
M  V30 12812 C 1195.75 5.23298 0.91286 0
M  V30 12813 C 1194.79 6.12051 0.0777706 0
M  V30 12814 N 1193.93 6.9574 0.942912 0
M  V30 12815 H 1198.77 2.85446 -0.855832 0
M  V30 12816 H 1196.3 1.40561 -0.433718 0
M  V30 12817 H 1198.26 3.93911 1.37441 0
M  V30 12818 H 1196.89 2.81611 1.57782 0
M  V30 12819 H 1195.94 3.74702 -0.655916 0
M  V30 12820 H 1197.26 4.94637 -0.643124 0
M  V30 12821 H 1196.41 5.87279 1.52277 0
M  V30 12822 H 1195.15 4.60956 1.59284 0
M  V30 12823 H 1194.15 5.47092 -0.545022 0
M  V30 12824 H 1195.38 6.76455 -0.598827 0
M  V30 12825 H 1193.33 6.35977 1.60838 0
M  V30 12826 H 1193.24 7.55176 0.352968 0
M  V30 12827 H 1194.51 7.64162 1.53874 0
M  V30 12828 N 1198.74 0.470782 1.50404 0
M  V30 12829 C 1199.67 -0.313458 2.31386 0
M  V30 12830 C 1200.65 -0.990623 1.38278 0
M  V30 12831 O 1201.84 -0.987854 1.67198 0
M  V30 12832 C 1198.97 -1.39599 3.18009 0
M  V30 12833 C 1197.92 -0.840443 4.19667 0
M  V30 12834 C 1197.25 -2.02124 4.95025 0
M  V30 12835 C 1198.55 0.148055 5.2209 0
M  V30 12836 H 1200.24 0.362432 2.97198 0
M  V30 12837 H 1197.79 0.175745 1.42924 0
M  V30 12838 H 1199.74 -1.9521 3.73458 0
M  V30 12839 H 1198.46 -2.10064 2.50081 0
M  V30 12840 H 1197.12 -0.306302 3.65318 0
M  V30 12841 H 1196.77 -2.71286 4.23571 0
M  V30 12842 H 1196.47 -1.65574 5.6379 0
M  V30 12843 H 1197.99 -2.58226 5.5331 0
M  V30 12844 H 1199.41 -0.318874 5.72413 0
M  V30 12845 H 1197.8 0.427811 5.98573 0
M  V30 12846 H 1198.87 1.07404 4.72855 0
M  V30 12847 N 1200.22 -1.56282 0.203376 0
M  V30 12848 C 1201.13 -2.23086 -0.725922 0
M  V30 12849 C 1202.14 -1.23258 -1.22814 0
M  V30 12850 O 1203.32 -1.5602 -1.27357 0
M  V30 12851 C 1200.38 -2.88358 -1.92485 0
M  V30 12852 C 1199.45 -4.03479 -1.46639 0
M  V30 12853 C 1198.68 -4.65629 -2.60816 0
M  V30 12854 O 1198.9 -4.2672 -3.78506 0
M  V30 12855 O 1197.84 -5.54949 -2.33056 0
M  V30 12856 H 1201.66 -3.03124 -0.18694 0
M  V30 12857 H 1199.25 -1.49377 -0.0262829 0
M  V30 12858 H 1201.13 -3.29623 -2.62539 0
M  V30 12859 H 1199.8 -2.11294 -2.45228 0
M  V30 12860 H 1198.71 -3.66821 -0.734396 0
M  V30 12861 H 1200.04 -4.82232 -0.985535 0
M  V30 12862 N 1201.7 0.070167 -1.57444 0
M  V30 12863 C 1203.11 0.424991 -1.53838 0
M  V30 12864 C 1203.31 1.79076 -0.923793 0
M  V30 12865 O 1202.37 2.46939 -0.527002 0
M  V30 12866 C 1203.68 0.364562 -2.98482 0
M  V30 12867 C 1205.23 0.444631 -3.09826 0
M  V30 12868 C 1205.7 0.414093 -4.56124 0
M  V30 12869 N 1207.19 0.474119 -4.60767 0
M  V30 12870 C 1207.93 0.472729 -5.71448 0
M  V30 12871 N 1207.43 0.426059 -6.91489 0
M  V30 12872 N 1209.22 0.519408 -5.59695 0
M  V30 12873 H 1201.37 -0.824117 -1.9576 0
M  V30 12874 H 1203.63 -0.309401 -0.896089 0
M  V30 12875 H 1203.34 -0.572343 -3.47012 0
M  V30 12876 H 1203.21 1.17414 -3.5846 0
M  V30 12877 H 1205.6 1.37196 -2.61269 0
M  V30 12878 H 1205.68 -0.393547 -2.52755 0
M  V30 12879 H 1205.32 -0.509394 -5.05339 0
M  V30 12880 H 1205.25 1.26983 -5.11061 0
M  V30 12881 H 1207.75 0.514371 -3.74383 0
M  V30 12882 H 1208.06 0.428969 -7.71609 0
M  V30 12883 H 1206.4 0.392722 -6.9389 0
M  V30 12884 H 1209.59 0.553573 -4.64815 0
M  V30 12885 H 1209.77 0.514856 -6.45951 0
M  V30 12886 N 1203.17 1.53854 0.341593 0
M  V30 12887 C 1204.4 1.75134 1.10162 0
M  V30 12888 C 1204.82 0.491415 1.82292 0
M  V30 12889 O 1204.17 -0.53703 1.7442 0
M  V30 12890 C 1204.22 2.93273 2.1136 0
M  V30 12891 O 1203.95 4.14393 1.42162 0
M  V30 12892 C 1205.45 3.26621 2.99723 0
M  V30 12893 H 1202.67 0.585126 0.328434 0
M  V30 12894 H 1205.21 2.00684 0.393204 0
M  V30 12895 H 1203.37 2.70048 2.77764 0
M  V30 12896 H 1203.78 4.8072 2.09783 0
M  V30 12897 H 1205.25 4.12629 3.66662 0
M  V30 12898 H 1205.73 2.43008 3.65847 0
M  V30 12899 H 1206.34 3.51858 2.38906 0
M  V30 12900 N 1204.65 -0.602709 1.4562 0
M  V30 12901 C 1206.06 -1.1847 1.44297 0
M  V30 12902 C 1206.41 -1.95434 0.17316 0
M  V30 12903 O 1205.54 -2.03894 -0.724986 0
M  V30 12904 C 1206.13 -2.15508 2.61422 0
M  V30 12905 C 1204.69 -2.69073 2.63204 0
M  V30 12906 C 1203.84 -1.44568 2.36633 0
M  V30 12907 H 1206.79 -0.391745 1.53789 0
M  V30 12908 H 1206.81 -2.98628 2.35799 0
M  V30 12909 H 1206.32 -1.59464 3.53826 0
M  V30 12910 H 1204.42 -3.29042 1.7482 0
M  V30 12911 H 1204.54 -3.13173 3.62573 0
M  V30 12912 H 1202.9 -1.73692 1.86287 0
M  V30 12913 H 1203.68 -0.903852 3.31188 0
M  V30 12914 N 1206.13 -1.32992 -0.845635 0
M  V30 12915 C 1207.08 -1.22652 -1.97634 0
M  V30 12916 C 1208.07 -0.129344 -1.68905 0
M  V30 12917 O 1209.28 -0.292863 -1.77602 0
M  V30 12918 H 1205.65 -0.380439 -0.648668 0
M  V30 12919 H 1207.62 -2.18261 -2.03481 0
M  V30 12920 C 1206.37 -0.975677 -3.3373 0
M  V30 12921 H 1205.7 -1.81217 -3.56371 0
M  V30 12922 H 1207.14 -0.943608 -4.13367 0
M  V30 12923 C 1205.59 0.321491 -3.35363 0
M  V30 12924 O 1206.12 1.33042 -3.79029 0
M  V30 12925 N 1204.33 0.346648 -2.88525 0
M  V30 12926 H 1203.88 -0.474931 -2.53184 0
M  V30 12927 H 1203.84 1.2144 -2.9 0
M  V30 12928 N 1207.61 1.06304 -1.1635 0
M  V30 12929 C 1208.86 1.78747 -0.943074 0
M  V30 12930 C 1209.18 1.87646 0.530483 0
M  V30 12931 O 1208.45 1.38506 1.38538 0
M  V30 12932 H 1207.03 0.662072 -0.345932 0
M  V30 12933 H 1209.69 1.28413 -1.46615 0
M  V30 12934 H 1208.78 2.80828 -1.3617 0
M  V30 12935 N 1209.09 0.96196 1.24836 0
M  V30 12936 C 1210.5 0.660388 1.7463 0
M  V30 12937 C 1210.85 -0.824064 1.78055 0
M  V30 12938 O 1209.97 -1.64485 1.40619 0
M  V30 12939 C 1210.57 1.19205 3.17137 0
M  V30 12940 C 1209.13 0.940493 3.64461 0
M  V30 12941 C 1208.27 1.33076 2.43282 0
M  V30 12942 H 1211.22 1.13794 1.1062 0
M  V30 12943 H 1211.25 0.555595 3.76422 0
M  V30 12944 H 1210.76 2.27247 3.14612 0
M  V30 12945 H 1208.86 -0.124645 3.72391 0
M  V30 12946 H 1208.97 1.5821 4.52224 0
M  V30 12947 H 1207.34 0.749139 2.43434 0
M  V30 12948 H 1208.12 2.42055 2.43442 0
M  V30 12949 N 1210.56 -1.39601 0.731392 0
M  V30 12950 C 1211.51 -2.32469 0.0781328 0
M  V30 12951 C 1212.51 -1.52873 -0.729811 0
M  V30 12952 O 1213.71 -1.68563 -0.631402 0
M  V30 12953 H 1210.09 -0.751972 0.00646515 0
M  V30 12954 H 1212.06 -2.85196 0.877833 0
M  V30 12955 C 1210.81 -3.37948 -0.817717 0
M  V30 12956 H 1210.13 -3.99272 -0.205417 0
M  V30 12957 H 1211.57 -4.05387 -1.24248 0
M  V30 12958 C 1210.03 -2.74703 -1.95038 0
M  V30 12959 O 1210.56 -2.62266 -3.04269 0
M  V30 12960 N 1208.76 -2.32845 -1.73872 0
M  V30 12961 H 1208.31 -2.43161 -0.850321 0
M  V30 12962 H 1208.27 -1.90869 -2.49833 0
M  V30 12963 N 1212.04 -0.478751 -1.50152 0
M  V30 12964 C 1213.29 0.07531 -2.01559 0
M  V30 12965 C 1213.6 1.40089 -1.36508 0
M  V30 12966 O 1214.81 2.04035 -1.79115 0
M  V30 12967 C 1213.27 0.184714 -3.59426 0
M  V30 12968 C 1212.87 -1.13289 -4.33439 0
M  V30 12969 C 1214.62 0.690326 -4.18849 0
M  V30 12970 C 1212.53 -0.986866 -5.83108 0
M  V30 12971 H 1211.46 0.0319196 -0.753324 0
M  V30 12972 H 1214.11 -0.614809 -1.72894 0
M  V30 12973 H 1212.49 0.938788 -3.84711 0
M  V30 12974 H 1213.66 -1.89852 -4.19872 0
M  V30 12975 H 1211.98 -1.57021 -3.8566 0
M  V30 12976 H 1214.57 0.816733 -5.28426 0
M  V30 12977 H 1214.92 1.68361 -3.80737 0
M  V30 12978 H 1215.45 -0.00657846 -3.97799 0
M  V30 12979 H 1212.19 -1.95375 -6.25707 0
M  V30 12980 H 1211.71 -0.261752 -5.99229 0
M  V30 12981 H 1213.39 -0.656567 -6.4366 0
M  V30 12982 N 1213.52 1.56172 -0.211661 0
M  V30 12983 C 1214.8 1.8984 0.471195 0
M  V30 12984 C 1215.18 1.1276 1.78461 0
M  V30 12985 O 1214.53 0.233817 2.27301 0
M  V30 12986 C 1214.74 3.42434 0.673814 0
M  V30 12987 C 1216.08 4.13 0.985719 0
M  V30 12988 O 1217.11 3.47977 0.760953 0
M  V30 12989 O 1215.97 5.2795 1.41176 0
M  V30 12990 H 1213.06 0.789008 0.247782 0
M  V30 12991 H 1215.61 1.67802 -0.25311 0
M  V30 12992 H 1214.38 3.90481 -0.253034 0
M  V30 12993 H 1214 3.70218 1.44997 0
M  V30 12994 N 1215 -0.0618163 1.57479 0
M  V30 12995 C 1215.95 -1.0724 2.04373 0
M  V30 12996 C 1216.92 -1.37875 0.926271 0
M  V30 12997 O 1218.1 -1.48772 1.19463 0
M  V30 12998 C 1215.24 -2.37805 2.50085 0
M  V30 12999 C 1214.35 -2.13614 3.7549 0
M  V30 13000 C 1213.49 -3.37814 4.09945 0
M  V30 13001 C 1212.53 -3.09032 5.28361 0
M  V30 13002 N 1211.66 -4.25591 5.58406 0
M  V30 13003 H 1216.5 -0.665536 2.90473 0
M  V30 13004 H 1214.04 -0.317043 1.43643 0
M  V30 13005 H 1216 -3.14048 2.74644 0
M  V30 13006 H 1214.63 -2.76275 1.66948 0
M  V30 13007 H 1213.68 -1.28017 3.58212 0
M  V30 13008 H 1214.99 -1.88361 4.61867 0
M  V30 13009 H 1214.15 -4.22447 4.35458 0
M  V30 13010 H 1212.89 -3.66153 3.22154 0
M  V30 13011 H 1211.89 -2.22797 5.02635 0
M  V30 13012 H 1213.12 -2.82006 6.17778 0
M  V30 13013 H 1211.06 -4.53941 4.73575 0
M  V30 13014 H 1210.98 -4.03646 6.39223 0
M  V30 13015 H 1212.25 -5.11191 5.88476 0
M  V30 13016 N 1216.48 -1.54033 -0.333429 0
M  V30 13017 C 1217.42 -1.82729 -1.40992 0
M  V30 13018 C 1218.39 -0.673677 -1.51825 0
M  V30 13019 O 1219.58 -0.919126 -1.67203 0
M  V30 13020 C 1216.72 -2.05155 -2.77498 0
M  V30 13021 C 1215.83 -3.32854 -2.75376 0
M  V30 13022 C 1214.97 -3.45294 -4.03665 0
M  V30 13023 C 1214.01 -4.66905 -3.95811 0
M  V30 13024 N 1213.14 -4.76323 -5.1581 0
M  V30 13025 H 1217.98 -2.74572 -1.15821 0
M  V30 13026 H 1215.52 -1.35988 -0.560859 0
M  V30 13027 H 1217.48 -2.16148 -3.56841 0
M  V30 13028 H 1216.11 -1.16615 -3.01 0
M  V30 13029 H 1215.16 -3.30651 -1.88081 0
M  V30 13030 H 1216.47 -4.22299 -2.65453 0
M  V30 13031 H 1215.63 -3.55775 -4.91436 0
M  V30 13032 H 1214.36 -2.53924 -4.16382 0
M  V30 13033 H 1213.37 -4.56491 -3.06425 0
M  V30 13034 H 1214.59 -5.59649 -3.84668 0
M  V30 13035 H 1212.54 -3.87866 -5.29052 0
M  V30 13036 H 1212.46 -5.59719 -5.08184 0
M  V30 13037 H 1213.73 -4.91125 -6.05324 0
M  V30 13038 N 1217.95 0.594978 -1.45938 0
M  V30 13039 C 1218.86 1.73296 -1.58132 0
M  V30 13040 C 1219.88 1.67665 -0.465245 0
M  V30 13041 O 1221.06 1.87794 -0.727684 0
M  V30 13042 C 1218.12 3.09783 -1.55677 0
M  V30 13043 C 1217.18 3.26772 -2.78422 0
M  V30 13044 C 1216.42 4.56748 -2.76075 0
M  V30 13045 O 1216.64 5.39867 -1.84119 0
M  V30 13046 O 1215.57 4.76721 -3.67452 0
M  V30 13047 H 1219.4 1.65957 -2.54346 0
M  V30 13048 H 1216.98 0.760572 -1.28591 0
M  V30 13049 H 1218.87 3.91077 -1.56961 0
M  V30 13050 H 1217.54 3.17585 -0.626191 0
M  V30 13051 H 1216.45 2.45018 -2.82696 0
M  V30 13052 H 1217.78 3.23853 -3.70648 0
M  V30 13053 N 1219.43 1.33438 0.838571 0
M  V30 13054 C 1220.34 1.25753 1.98049 0
M  V30 13055 C 1221.36 0.168051 1.73187 0
M  V30 13056 O 1222.53 0.391691 1.97554 0
M  V30 13057 C 1219.6 0.997148 3.32051 0
M  V30 13058 C 1218.66 2.17667 3.70027 0
M  V30 13059 C 1217.89 1.92861 4.97635 0
M  V30 13060 O 1218.12 0.879072 5.63585 0
M  V30 13061 O 1217.05 2.79402 5.33121 0
M  V30 13062 H 1220.88 2.21786 2.07472 0
M  V30 13063 H 1218.46 1.13488 0.971645 0
M  V30 13064 H 1220.34 0.869099 4.1234 0
M  V30 13065 H 1219.02 0.0671036 3.2363 0
M  V30 13066 H 1217.93 2.36025 2.90246 0
M  V30 13067 H 1219.26 3.09006 3.83114 0
M  V30 13068 N 1220.91 -1.05686 1.16912 0
M  V30 13069 C 1222.19 -1.7546 0.864483 0
M  V30 13070 C 1222.57 -2.0128 -0.636359 0
M  V30 13071 O 1221.92 -1.64485 -1.58609 0
M  V30 13072 C 1222.13 -3.05134 1.69395 0
M  V30 13073 C 1223.47 -3.79176 1.91079 0
M  V30 13074 O 1224.5 -3.1499 1.66312 0
M  V30 13075 O 1223.36 -4.94496 2.32671 0
M  V30 13076 H 1220.45 -0.762748 0.319601 0
M  V30 13077 H 1223 -1.11899 1.27581 0
M  V30 13078 H 1221.77 -2.82063 2.71212 0
M  V30 13079 H 1221.39 -3.76431 1.28007 0
M  V30 13080 N 1222.39 -0.968567 -1.24324 0
M  V30 13081 C 1223.32 -0.518323 -2.27674 0
M  V30 13082 C 1224.3 0.442479 -1.64244 0
M  V30 13083 O 1225.48 0.338416 -1.91229 0
M  V30 13084 C 1222.61 0.191459 -3.46772 0
M  V30 13085 C 1221.57 -0.685449 -4.22476 0
M  V30 13086 C 1220.89 0.155873 -5.34473 0
M  V30 13087 C 1222.19 -1.97047 -4.83704 0
M  V30 13088 H 1223.89 -1.38215 -2.65588 0
M  V30 13089 H 1221.43 -0.66604 -1.27671 0
M  V30 13090 H 1223.39 0.517667 -4.18208 0
M  V30 13091 H 1222.11 1.08965 -3.07887 0
M  V30 13092 H 1220.77 -0.994942 -3.52841 0
M  V30 13093 H 1220.42 1.05424 -4.91828 0
M  V30 13094 H 1220.12 -0.427655 -5.86042 0
M  V30 13095 H 1221.64 0.476733 -6.08736 0
M  V30 13096 H 1223.06 -1.70979 -5.4721 0
M  V30 13097 H 1221.45 -2.50079 -5.45509 0
M  V30 13098 H 1222.52 -2.66484 -4.0511 0
M  V30 13099 N 1223.87 1.39211 -0.738786 0
M  V30 13100 C 1224.78 2.34374 -0.102958 0
M  V30 13101 C 1225.79 1.58514 0.717596 0
M  V30 13102 O 1226.97 1.90786 0.645186 0
M  V30 13103 C 1224.03 3.37562 0.790733 0
M  V30 13104 C 1223.09 4.29279 -0.0425028 0
M  V30 13105 C 1222.33 5.27539 0.808628 0
M  V30 13106 O 1222.55 5.32396 2.04722 0
M  V30 13107 O 1221.48 6.0144 0.235279 0
M  V30 13108 H 1225.31 2.90412 -0.888498 0
M  V30 13109 H 1222.9 1.40803 -0.499498 0
M  V30 13110 H 1224.78 4.00783 1.30196 0
M  V30 13111 H 1223.45 2.83903 1.55502 0
M  V30 13112 H 1222.36 3.69268 -0.599335 0
M  V30 13113 H 1223.69 4.86154 -0.7691 0
M  V30 13114 N 1225.34 0.486708 1.49896 0
M  V30 13115 C 1226.62 -0.125183 1.95199 0
M  V30 13116 C 1227 -1.55498 1.42771 0
M  V30 13117 O 1226.35 -2.1949 0.635322 0
M  V30 13118 C 1226.56 -0.0524982 3.48961 0
M  V30 13119 C 1227.91 -0.233595 4.23957 0
M  V30 13120 O 1228.93 -0.128357 3.55969 0
M  V30 13121 O 1227.79 -0.447862 5.44662 0
M  V30 13122 H 1224.88 -0.103141 0.820543 0
M  V30 13123 H 1227.43 0.548226 1.60601 0
M  V30 13124 H 1226.2 0.945163 3.79714 0
M  V30 13125 H 1225.83 -0.766683 3.90138 0
M  V30 13126 N 1226.82 -1.56058 0.219941 0
M  V30 13127 C 1227.77 -2.20218 -0.690846 0
M  V30 13128 C 1228.74 -1.15725 -1.19151 0
M  V30 13129 O 1229.93 -1.44073 -1.2509 0
M  V30 13130 C 1227.07 -2.88477 -1.89408 0
M  V30 13131 C 1226.18 -4.07559 -1.43246 0
M  V30 13132 C 1225.31 -4.63605 -2.59314 0
M  V30 13133 C 1224.35 -5.74993 -2.0988 0
M  V30 13134 N 1223.49 -6.25337 -3.19214 0
M  V30 13135 H 1228.33 -2.97685 -0.136992 0
M  V30 13136 H 1225.87 -1.46994 -0.055865 0
M  V30 13137 H 1227.82 -3.26235 -2.60051 0
M  V30 13138 H 1226.45 -2.1353 -2.42084 0
M  V30 13139 H 1225.51 -3.75297 -0.621013 0
M  V30 13140 H 1226.82 -4.8805 -1.02997 0
M  V30 13141 H 1225.97 -5.03798 -3.38041 0
M  V30 13142 H 1224.71 -3.82274 -3.0285 0
M  V30 13143 H 1223.72 -5.34304 -1.29613 0
M  V30 13144 H 1224.94 -6.58158 -1.67345 0
M  V30 13145 H 1222.89 -5.4692 -3.62236 0
M  V30 13146 H 1222.8 -7.00947 -2.83213 0
M  V30 13147 H 1224.07 -6.70187 -3.98083 0
M  V30 13148 N 1228.3 0.053464 -1.57509 0
M  V30 13149 C 1229.25 1.08014 -2.05999 0
M  V30 13150 C 1230.24 1.38958 -0.968862 0
M  V30 13151 O 1231.45 1.3815 -1.15389 0
M  V30 13152 H 1227.82 0.36575 -0.657062 0
M  V30 13153 H 1229.8 0.645169 -2.91342 0
M  V30 13154 C 1228.54 2.38004 -2.53475 0
M  V30 13155 H 1227.87 2.15048 -3.37038 0
M  V30 13156 H 1229.31 3.08244 -2.91138 0
M  V30 13157 C 1227.77 3.05259 -1.42543 0
M  V30 13158 O 1228.3 3.94097 -0.777832 0
M  V30 13159 N 1226.5 2.66182 -1.16599 0
M  V30 13160 H 1226.05 1.94027 -1.69444 0
M  V30 13161 H 1226.01 3.11503 -0.42585 0
M  V30 13162 N 1229.78 1.54207 0.325255 0
M  V30 13163 C 1230.73 1.84197 1.42036 0
M  V30 13164 C 1231.72 0.71375 1.53629 0
M  V30 13165 O 1232.93 0.897385 1.56035 0
M  V30 13166 H 1229.3 0.583848 0.473947 0
M  V30 13167 H 1231.27 2.7578 1.13965 0
M  V30 13168 C 1230.02 2.08459 2.78281 0
M  V30 13169 H 1229.35 2.94734 2.70133 0
M  V30 13170 H 1230.79 2.33398 3.5398 0
M  V30 13171 C 1229.24 0.875615 3.25322 0
M  V30 13172 O 1229.77 0.0840387 4.01612 0
M  V30 13173 N 1227.98 0.687721 2.82345 0
M  V30 13174 H 1227.53 1.33307 2.20425 0
M  V30 13175 H 1227.49 -0.119687 3.14172 0
M  V30 13176 N 1231.26 -0.58723 1.46251 0
M  V30 13177 C 1232.5 -1.3456 1.51327 0
M  V30 13178 C 1232.83 -1.93815 0.163146 0
M  V30 13179 O 1232.09 -1.76723 -0.840677 0
M  V30 13180 C 1232.39 -2.49776 2.5563 0
M  V30 13181 C 1232.05 -2.08543 3.99776 0
M  V30 13182 C 1230.71 -1.97013 4.39021 0
M  V30 13183 C 1233.07 -1.76669 4.90344 0
M  V30 13184 C 1230.39 -1.5186 5.66706 0
M  V30 13185 C 1232.75 -1.32996 6.18462 0
M  V30 13186 C 1231.41 -1.20039 6.56618 0
M  V30 13187 H 1230.68 -0.492391 0.553744 0
M  V30 13188 H 1233.33 -0.661715 1.79704 0
M  V30 13189 H 1231.63 -3.23592 2.20897 0
M  V30 13190 H 1233.33 -3.07995 2.56788 0
M  V30 13191 H 1229.92 -2.18451 3.68751 0
M  V30 13192 H 1234.1 -1.84465 4.60746 0
M  V30 13193 H 1229.36 -1.40467 5.95045 0
M  V30 13194 H 1233.53 -1.07385 6.88071 0
M  V30 13195 H 1231.16 -0.848268 7.55452 0
M  V30 13196 N 1232.74 -1.33881 -0.831482 0
M  V30 13197 C 1233.98 -1.25507 -1.58406 0
M  V30 13198 C 1234.3 0.177137 -1.94194 0
M  V30 13199 O 1233.57 1.10769 -1.61576 0
M  V30 13200 H 1232.15 -0.461551 -0.587349 0
M  V30 13201 H 1234.82 -1.6769 -0.99328 0
M  V30 13202 H 1233.91 -1.85391 -2.51071 0
M  V30 13203 N 1234.21 1.05064 -1.1747 0
M  V30 13204 C 1235.18 2.1101 -0.89485 0
M  V30 13205 C 1236.18 1.60384 0.11553 0
M  V30 13206 O 1237.37 1.73808 -0.116785 0
M  V30 13207 C 1234.5 3.39194 -0.340642 0
M  V30 13208 H 1235.69 2.37269 -1.83421 0
M  V30 13209 H 1233.24 1.21329 -0.985343 0
M  V30 13210 H 1233.98 3.18591 0.605808 0
M  V30 13211 H 1233.76 3.77251 -1.06885 0
M  V30 13212 H 1235.25 4.17281 -0.163204 0
M  V30 13213 N 1235.69 0.975146 1.23809 0
M  V30 13214 C 1236.6 0.51917 2.28783 0
M  V30 13215 C 1237.62 -0.423487 1.68768 0
M  V30 13216 O 1238.79 -0.294699 1.99232 0
M  V30 13217 C 1235.86 -0.176229 3.46252 0
M  V30 13218 C 1234.92 0.807177 4.21643 0
M  V30 13219 C 1234.15 0.144869 5.33503 0
M  V30 13220 O 1234.38 -1.06522 5.60365 0
M  V30 13221 O 1233.31 0.84079 5.95999 0
M  V30 13222 H 1237.14 1.39204 2.69919 0
M  V30 13223 H 1234.72 0.74253 1.29641 0
M  V30 13224 H 1236.6 -0.566547 4.17574 0
M  V30 13225 H 1235.28 -1.02394 3.07078 0
M  V30 13226 H 1234.18 1.2481 3.52666 0
M  V30 13227 H 1235.52 1.62354 4.64653 0
M  V30 13228 N 1237.17 -1.38817 0.746158 0
M  V30 13229 C 1238.58 -1.83045 0.367629 0
M  V30 13230 C 1238.93 -1.62285 -1.10263 0
M  V30 13231 O 1238.06 -1.12001 -1.85162 0
M  V30 13232 C 1238.65 -3.323 0.660482 0
M  V30 13233 C 1237.21 -3.74903 0.335318 0
M  V30 13234 C 1236.36 -2.61683 0.917446 0
M  V30 13235 H 1239.31 -1.27651 0.94291 0
M  V30 13236 H 1239.33 -3.80446 -0.0639061 0
M  V30 13237 H 1238.84 -3.47377 1.73062 0
M  V30 13238 H 1236.94 -3.65408 -0.728538 0
M  V30 13239 H 1237.06 -4.71932 0.825677 0
M  V30 13240 H 1235.42 -2.52376 0.343316 0
M  V30 13241 H 1236.2 -2.79563 1.99247 0
M  V30 13242 N 1238.65 -0.49465 -1.49636 0
M  V30 13243 C 1240.06 -0.0452894 -1.86645 0
M  V30 13244 C 1240.41 1.36686 -1.40753 0
M  V30 13245 O 1239.53 2.01751 -0.78265 0
M  V30 13246 C 1240.13 -0.0754115 -3.38716 0
M  V30 13247 C 1238.69 0.318579 -3.75049 0
M  V30 13248 C 1237.84 -0.450712 -2.73613 0
M  V30 13249 H 1240.79 -0.707758 -1.42044 0
M  V30 13250 H 1240.81 0.721372 -3.73599 0
M  V30 13251 H 1240.32 -1.10331 -3.72087 0
M  V30 13252 H 1238.42 1.34995 -3.47285 0
M  V30 13253 H 1238.53 0.00354416 -4.791 0
M  V30 13254 H 1236.9 0.0986455 -2.54509 0
M  V30 13255 H 1237.68 -1.47857 -3.09828 0
M  V30 13256 N 1240.13 1.55939 -0.228214 0
M  V30 13257 C 1241.08 2.17223 0.692674 0
M  V30 13258 C 1242.06 1.12252 1.15275 0
M  V30 13259 O 1243.25 1.3822 1.10563 0
M  V30 13260 C 1240.38 2.86084 1.89766 0
M  V30 13261 C 1239.47 3.98288 1.45695 0
M  V30 13262 N 1239.86 5.00515 0.729258 0
M  V30 13263 C 1238.16 4.105 1.74372 0
M  V30 13264 C 1238.86 5.79516 0.503606 0
M  V30 13265 N 1237.83 5.33119 1.06229 0
M  V30 13266 H 1241.63 2.9362 0.128345 0
M  V30 13267 H 1239.15 1.62373 -0.0297445 0
M  V30 13268 H 1241.15 3.28404 2.5682 0
M  V30 13269 H 1239.81 2.11185 2.46639 0
M  V30 13270 H 1240.82 5.16495 0.381261 0
M  V30 13271 H 1237.49 3.46759 2.32518 0
M  V30 13272 H 1238.88 6.71857 -0.0760344 0
M  V30 13273 N 1241.6 -0.0451101 1.57535 0
M  V30 13274 C 1242.54 -1.07792 2.02271 0
M  V30 13275 C 1243.55 -1.33423 0.932854 0
M  V30 13276 O 1244.74 -1.31193 1.2104 0
M  V30 13277 C 1241.84 -2.42314 2.36933 0
M  V30 13278 C 1241.01 -2.36266 3.68099 0
M  V30 13279 C 1240.07 -3.53108 3.9013 0
M  V30 13280 O 1239.1 -3.33327 4.61391 0
M  V30 13281 N 1240.3 -4.74415 3.3453 0
M  V30 13282 H 1243.06 -0.696744 2.91489 0
M  V30 13283 H 1240.62 -0.233336 1.6021 0
M  V30 13284 H 1242.62 -3.19171 2.48821 0
M  V30 13285 H 1241.19 -2.72335 1.53468 0
M  V30 13286 H 1240.41 -1.44615 3.66715 0
M  V30 13287 H 1241.69 -2.29351 4.54175 0
M  V30 13288 H 1241.09 -4.93388 2.76739 0
M  V30 13289 H 1239.65 -5.48692 3.51825 0
M  V30 13290 N 1243.08 -1.54377 -0.317073 0
M  V30 13291 C 1244.03 -1.84948 -1.41057 0
M  V30 13292 C 1245.02 -0.721887 -1.53249 0
M  V30 13293 O 1246.23 -0.905648 -1.55557 0
M  V30 13294 H 1242.61 -0.586353 -0.470844 0
M  V30 13295 H 1244.58 -2.7638 -1.12501 0
M  V30 13296 C 1243.33 -2.09932 -2.77171 0
M  V30 13297 H 1242.65 -2.96162 -2.68566 0
M  V30 13298 H 1244.09 -2.35272 -3.52737 0
M  V30 13299 C 1242.55 -0.892855 -3.24853 0
M  V30 13300 O 1243.08 -0.105336 -4.01562 0
M  V30 13301 N 1241.28 -0.702685 -2.81976 0
M  V30 13302 H 1240.83 -1.34474 -2.19715 0
M  V30 13303 H 1240.79 0.103024 -3.14231 0
M  V30 13304 N 1244.56 0.579466 -1.4656 0
M  V30 13305 C 1245.81 1.33492 -1.51738 0
M  V30 13306 C 1246.13 1.94241 -0.171926 0
M  V30 13307 O 1245.4 1.78737 0.801875 0
M  V30 13308 H 1243.98 0.49565 -0.558874 0
M  V30 13309 H 1246.64 0.678394 -1.82712 0
M  V30 13310 H 1245.74 2.13995 -2.27183 0
M  V30 13311 N 1246.04 1.3432 0.824371 0
M  V30 13312 C 1246.95 1.27847 1.96704 0
M  V30 13313 C 1247.96 0.18641 1.72999 0
M  V30 13314 O 1249.14 0.412623 1.97128 0
M  V30 13315 C 1246.21 1.03231 3.30975 0
M  V30 13316 C 1245.27 2.21579 3.67697 0
M  V30 13317 C 1244.5 1.98128 4.95561 0
M  V30 13318 O 1244.72 0.938798 5.62621 0
M  V30 13319 O 1243.66 2.85041 5.30128 0
M  V30 13320 H 1247.48 2.23974 2.05108 0
M  V30 13321 H 1245.07 1.14512 0.959554 0
M  V30 13322 H 1246.95 0.912784 4.11395 0
M  V30 13323 H 1245.62 0.101425 3.23541 0
M  V30 13324 H 1244.53 2.3909 2.87727 0
M  V30 13325 H 1245.86 3.13052 3.79815 0
M  V30 13326 N 1247.52 -1.0444 1.18026 0
M  V30 13327 C 1248.76 -1.79143 0.984238 0
M  V30 13328 C 1249.12 -1.85955 -0.478002 0
M  V30 13329 O 1250.32 -2.56826 -0.793345 0
M  V30 13330 C 1248.59 -3.18744 1.61669 0
M  V30 13331 S 1250.15 -4.09832 1.56791 0
M  V30 13332 H 1246.97 -0.61688 0.353525 0
M  V30 13333 H 1249.57 -1.25256 1.50104 0
M  V30 13334 H 1248.28 -3.11394 2.67324 0
M  V30 13335 H 1247.81 -3.77708 1.10001 0
M  V30 13336 H 1249.82 -4.92785 0.581175 0
M  V30 13337 N 1248.99 -0.981699 -1.2329 0
M  V30 13338 C 1250.22 -0.668399 -1.95489 0
M  V30 13339 C 1250.63 0.768976 -1.72868 0
M  V30 13340 O 1249.98 1.52925 -1.01783 0
M  V30 13341 C 1250.04 -0.880535 -3.4855 0
M  V30 13342 C 1249.7 -2.30023 -3.9489 0
M  V30 13343 C 1250.7 -3.27899 -4.03458 0
M  V30 13344 C 1248.38 -2.63167 -4.27842 0
M  V30 13345 C 1250.38 -4.56999 -4.44332 0
M  V30 13346 C 1248.06 -3.92489 -4.68397 0
M  V30 13347 C 1249.06 -4.89216 -4.76609 0
M  V30 13348 O 1248.75 -6.16229 -5.16253 0
M  V30 13349 H 1248.48 -0.247255 -0.629159 0
M  V30 13350 H 1251.04 -1.31606 -1.57699 0
M  V30 13351 H 1249.27 -0.175698 -3.86301 0
M  V30 13352 H 1250.96 -0.564198 -4.0196 0
M  V30 13353 H 1251.72 -3.03624 -3.78203 0
M  V30 13354 H 1247.6 -1.88588 -4.20661 0
M  V30 13355 H 1251.14 -5.32498 -4.50656 0
M  V30 13356 H 1247.04 -4.16558 -4.93102 0
M  V30 13357 H 1247.81 -6.20001 -5.34361 0
M  V30 13358 N 1250.47 1.3842 -0.753509 0
M  V30 13359 C 1251.88 1.82847 -0.377331 0
M  V30 13360 C 1252.23 1.62867 1.09401 0
M  V30 13361 O 1251.36 1.12981 1.84565 0
M  V30 13362 C 1251.95 3.31945 -0.678095 0
M  V30 13363 C 1250.51 3.7472 -0.355196 0
M  V30 13364 C 1249.66 2.61193 -0.931311 0
M  V30 13365 H 1252.61 1.2715 -0.949667 0
M  V30 13366 H 1252.63 3.80475 0.0437292 0
M  V30 13367 H 1252.14 3.46455 -1.74902 0
M  V30 13368 H 1250.25 3.65789 0.70915 0
M  V30 13369 H 1250.36 4.71487 -0.850693 0
M  V30 13370 H 1248.72 2.5219 -0.356695 0
M  V30 13371 H 1249.51 2.78503 -2.00727 0
M  V30 13372 N 1251.95 0.502579 1.49372 0
M  V30 13373 C 1252.9 -0.288693 2.30801 0
M  V30 13374 C 1253.89 -0.961303 1.39482 0
M  V30 13375 O 1255.1 -0.888812 1.56525 0
M  V30 13376 H 1251.47 -0.111958 0.743619 0
M  V30 13377 H 1253.44 0.418062 2.95457 0
M  V30 13378 C 1252.19 -1.33938 3.20867 0
M  V30 13379 H 1251.52 -0.831219 3.91064 0
M  V30 13380 H 1252.96 -1.86498 3.80781 0
M  V30 13381 C 1251.42 -2.35839 2.40586 0
M  V30 13382 O 1251.95 -3.41752 2.11113 0
M  V30 13383 N 1250.15 -2.0835 2.0258 0
M  V30 13384 H 1249.7 -1.2224 2.26749 0
M  V30 13385 H 1249.66 -2.76758 1.49173 0
M  V30 13386 N 1253.43 -1.55816 0.23648 0
M  V30 13387 C 1254.34 -2.24576 -0.678439 0
M  V30 13388 C 1255.35 -1.25836 -1.20172 0
M  V30 13389 O 1256.53 -1.58686 -1.24019 0
M  V30 13390 C 1253.6 -2.92376 -1.86325 0
M  V30 13391 C 1252.66 -4.06499 -1.38047 0
M  V30 13392 C 1251.89 -4.71057 -2.50881 0
M  V30 13393 O 1252.11 -4.34652 -3.69369 0
M  V30 13394 O 1251.05 -5.59768 -2.21232 0
M  V30 13395 H 1254.87 -3.03452 -0.122601 0
M  V30 13396 H 1252.46 -1.49399 0.00540803 0
M  V30 13397 H 1254.34 -3.35117 -2.55488 0
M  V30 13398 H 1253.01 -2.16448 -2.40691 0
M  V30 13399 H 1251.92 -3.68296 -0.656422 0
M  V30 13400 H 1253.25 -4.84214 -0.883024 0
M  V30 13401 N 1254.91 0.036755 -1.57557 0
M  V30 13402 C 1255.85 1.03975 -2.06053 0
M  V30 13403 C 1256.82 1.36384 -0.948089 0
M  V30 13404 O 1258.01 1.46853 -1.21815 0
M  V30 13405 C 1255.15 2.33796 -2.53837 0
M  V30 13406 C 1254.26 2.07614 -3.78841 0
M  V30 13407 C 1253.4 3.3125 -4.15267 0
M  V30 13408 C 1252.44 3.00587 -5.33211 0
M  V30 13409 N 1251.57 4.16653 -5.65106 0
M  V30 13410 H 1256.41 0.61924 -2.91495 0
M  V30 13411 H 1253.95 0.294151 -1.44129 0
M  V30 13412 H 1255.91 3.09639 -2.79606 0
M  V30 13413 H 1254.54 2.73584 -1.71323 0
M  V30 13414 H 1253.59 1.22302 -3.60203 0
M  V30 13415 H 1254.9 1.80989 -4.64806 0
M  V30 13416 H 1254.06 4.15466 -4.42123 0
M  V30 13417 H 1252.79 3.60981 -3.27939 0
M  V30 13418 H 1251.8 2.14772 -5.06115 0
M  V30 13419 H 1253.02 2.72142 -6.22186 0
M  V30 13420 H 1250.97 4.4635 -4.80737 0
M  V30 13421 H 1250.89 3.93425 -6.45564 0
M  V30 13422 H 1252.16 5.01764 -5.96534 0
M  V30 13423 N 1256.39 1.54543 0.308881 0
M  V30 13424 C 1257.33 1.85693 1.40074 0
M  V30 13425 C 1258.33 0.730004 1.52864 0
M  V30 13426 O 1259.53 0.913884 1.55075 0
M  V30 13427 H 1255.91 0.588842 0.467728 0
M  V30 13428 H 1257.88 2.76973 1.11034 0
M  V30 13429 C 1256.63 2.11399 2.76054 0
M  V30 13430 H 1255.95 2.97583 2.66992 0
M  V30 13431 H 1257.39 2.37139 3.51484 0
M  V30 13432 C 1255.85 0.91007 3.24375 0
M  V30 13433 O 1256.38 0.12663 4.015 0
M  V30 13434 N 1254.59 0.717629 2.816 0
M  V30 13435 H 1254.13 1.35637 2.18998 0
M  V30 13436 H 1254.09 -0.0863585 3.14281 0
M  V30 13437 N 1257.86 -0.571685 1.46866 0
M  V30 13438 C 1259.09 -1.36008 1.56578 0
M  V30 13439 C 1259.51 -1.86909 0.211326 0
M  V30 13440 O 1258.87 -1.62179 -0.810421 0
M  V30 13441 C 1258.92 -2.51598 2.58323 0
M  V30 13442 O 1258.02 -3.53383 2.1259 0
M  V30 13443 H 1257.36 -0.404593 0.526498 0
M  V30 13444 H 1259.89 -0.692357 1.92529 0
M  V30 13445 H 1259.9 -2.98366 2.78283 0
M  V30 13446 H 1258.58 -2.13904 3.56676 0
M  V30 13447 H 1257.16 -3.13019 2.02666 0
M  V30 13448 N 1259.34 -1.34755 -0.817236 0
M  V30 13449 C 1260.59 -1.2762 -1.5761 0
M  V30 13450 C 1260.92 0.152017 -1.93604 0
M  V30 13451 O 1260.2 1.09881 -1.60488 0
M  V30 13452 C 1260.48 -2.17251 -2.87183 0
M  V30 13453 C 1260.33 -3.68638 -2.57733 0
M  V30 13454 C 1261.65 -2.06206 -3.88802 0
M  V30 13455 H 1258.77 -0.464933 -0.571845 0
M  V30 13456 H 1261.41 -1.6506 -0.941028 0
M  V30 13457 H 1259.56 -1.85452 -3.41379 0
M  V30 13458 H 1261.23 -4.10829 -2.09802 0
M  V30 13459 H 1259.48 -3.89445 -1.91089 0
M  V30 13460 H 1260.15 -4.26726 -3.50156 0
M  V30 13461 H 1262.62 -2.34137 -3.43975 0
M  V30 13462 H 1261.5 -2.71136 -4.77259 0
M  V30 13463 H 1261.76 -1.04075 -4.29675 0
M  V30 13464 N 1260.82 1.03812 -1.18578 0
M  V30 13465 C 1261.77 2.13994 -0.911563 0
M  V30 13466 C 1262.76 1.68907 0.129131 0
M  V30 13467 O 1263.97 1.7999 -0.0192557 0
M  V30 13468 H 1260.34 0.698996 -0.277324 0
M  V30 13469 H 1262.31 2.34318 -1.84763 0
M  V30 13470 C 1261.06 3.44689 -0.456591 0
M  V30 13471 H 1260.39 3.79793 -1.2489 0
M  V30 13472 H 1261.83 4.22911 -0.303738 0
M  V30 13473 C 1260.28 3.26568 0.827961 0
M  V30 13474 O 1260.81 3.54376 1.89158 0
M  V30 13475 N 1259.02 2.79893 0.781567 0
M  V30 13476 H 1258.57 2.57462 -0.0842145 0
M  V30 13477 H 1258.53 2.68148 1.64146 0
M  V30 13478 N 1262.3 0.988223 1.22768 0
M  V30 13479 C 1263.23 0.47962 2.23103 0
M  V30 13480 C 1264.21 -0.457546 1.5603 0
M  V30 13481 O 1265.39 -0.384178 1.84544 0
M  V30 13482 C 1262.52 -0.305248 3.37322 0
M  V30 13483 C 1261.57 0.577215 4.22576 0
M  V30 13484 S 1262.4 2.02974 4.95542 0
M  V30 13485 C 1263.55 1.25423 6.13205 0
M  V30 13486 H 1263.79 1.32985 2.65899 0
M  V30 13487 H 1261.32 0.794824 1.3237 0
M  V30 13488 H 1263.28 -0.752057 4.03552 0
M  V30 13489 H 1261.94 -1.1307 2.93043 0
M  V30 13490 H 1261.13 -0.0264391 5.03993 0
M  V30 13491 H 1260.73 0.960593 3.61453 0
M  V30 13492 H 1263.03 0.519499 6.75505 0
M  V30 13493 H 1263.97 2.04351 6.77972 0
M  V30 13494 H 1264.38 0.769573 5.5923 0
M  V30 13495 N 1263.78 -1.38018 0.760839 0
M  V30 13496 C 1265.05 -1.94054 0.245437 0
M  V30 13497 C 1265.43 -1.6955 -1.25761 0
M  V30 13498 O 1264.78 -1.03812 -2.03557 0
M  V30 13499 C 1264.99 -3.43681 0.606986 0
M  V30 13500 C 1266.34 -4.20748 0.570673 0
M  V30 13501 O 1267.36 -3.51995 0.545715 0
M  V30 13502 O 1266.22 -5.43327 0.588043 0
M  V30 13503 H 1263.32 -0.825264 0.0535607 0
M  V30 13504 H 1265.86 -1.47369 0.841453 0
M  V30 13505 H 1264.63 -3.55054 1.64476 0
M  V30 13506 H 1264.26 -3.97597 -0.0166576 0
M  V30 13507 N 1265.25 -0.510493 -1.49103 0
M  V30 13508 C 1266.18 0.251999 -2.32136 0
M  V30 13509 C 1267.16 0.953613 -1.40855 0
M  V30 13510 O 1268.35 0.943178 -1.69758 0
M  V30 13511 C 1265.48 1.31118 -3.21598 0
M  V30 13512 C 1264.43 0.72888 -4.21748 0
M  V30 13513 C 1263.76 1.88928 -5.0021 0
M  V30 13514 C 1265.06 -0.286425 -5.21514 0
M  V30 13515 H 1266.75 -0.441102 -2.96133 0
M  V30 13516 H 1264.3 -0.213577 -1.42407 0
M  V30 13517 H 1266.25 1.8524 -3.78503 0
M  V30 13518 H 1264.98 2.0336 -2.55563 0
M  V30 13519 H 1263.64 0.209336 -3.66002 0
M  V30 13520 H 1263.28 2.59961 -4.30615 0
M  V30 13521 H 1262.98 1.50568 -5.67981 0
M  V30 13522 H 1264.51 2.43465 -5.59962 0
M  V30 13523 H 1265.92 0.166997 -5.73057 0
M  V30 13524 H 1264.32 -0.586361 -5.97228 0
M  V30 13525 H 1265.39 -1.19904 -4.69842 0
M  V30 13526 N 1266.73 1.55688 -0.24474 0
M  V30 13527 C 1268.01 1.90796 0.430821 0
M  V30 13528 C 1268.39 1.1652 1.76029 0
M  V30 13529 O 1267.74 0.281978 2.26753 0
M  V30 13530 C 1267.95 3.43786 0.601027 0
M  V30 13531 C 1269.29 4.14998 0.897894 0
M  V30 13532 O 1270.32 3.49513 0.68697 0
M  V30 13533 O 1269.18 5.30826 1.29945 0
M  V30 13534 H 1266.27 0.794086 0.230991 0
M  V30 13535 H 1268.82 1.67227 -0.288646 0
M  V30 13536 H 1267.59 3.89856 -0.335804 0
M  V30 13537 H 1267.21 3.73211 1.37112 0
M  V30 13538 O 1268.25 0.109283 1.6113 0
M  V30 13539 H 1268.94 -0.490999 1.87374 0
M  V30 END ATOM
M  V30 BEGIN BOND
M  V30 END BOND
M  V30 END CTAB
M  END
$$$$
