drugbank_target|Q9HBL8 NmrA-like family domain-containing protein 1 (DB08784)
 OpenBabel12092120533D

  0  0  0     0  0            999 V3000
M  V30 BEGIN CTAB
M  V30 COUNTS 4720 4765 0 0 0
M  V30 BEGIN ATOM
M  V30 1 H -0.908 1.98254 -0.117106 0
M  V30 2 N 0 1.576 0 0
M  V30 3 C 0.933 2.03868 1.02534 0
M  V30 4 C 1.911 0.928543 1.3348 0
M  V30 5 O 3.095 1.19667 1.45644 0
M  V30 6 C 0.222 2.43627 2.35294 0
M  V30 7 C -0.732 3.65373 2.2001 0
M  V30 8 S 0.101 5.13292 1.52614 0
M  V30 9 C 1.257 5.56322 2.86805 0
M  V30 10 H 1.49 2.90518 0.631377 0
M  V30 11 H -0.977 1.52953 0.210867 0
M  V30 12 H 0.981 2.67203 3.11629 0
M  V30 13 H -0.358 1.57376 2.7183 0
M  V30 14 H -1.165 3.90944 3.18086 0
M  V30 15 H -1.563 3.418 1.51819 0
M  V30 16 H 0.729 5.58782 3.83104 0
M  V30 17 H 1.672 6.56266 2.65933 0
M  V30 18 H 2.08 4.83886 2.90714 0
M  V30 19 N 1.4781 -0.272755 1.55222 0
M  V30 20 C 2.7241 -1.00581 1.761 0
M  V30 21 C 3.0571 -1.85932 0.560625 0
M  V30 22 O 2.3321 -1.89416 -0.441801 0
M  V30 23 C 2.6151 -1.88816 3.06628 0
M  V30 24 C 2.4681 -1.06457 4.37021 0
M  V30 25 C 3.7871 -2.8752 3.33197 0
M  V30 26 H 0.9061 -0.364244 0.640699 0
M  V30 27 H 3.5481 -0.278189 1.87952 0
M  V30 28 H 1.6981 -2.50856 2.96654 0
M  V30 29 H 3.3701 -0.464863 4.58952 0
M  V30 30 H 1.6131 -0.368043 4.32236 0
M  V30 31 H 2.2841 -1.71514 5.24678 0
M  V30 32 H 4.7601 -2.35615 3.42965 0
M  V30 33 H 3.6361 -3.46399 4.25792 0
M  V30 34 H 3.8971 -3.62657 2.52849 0
M  V30 35 N 2.9562 -1.48159 -0.537278 0
M  V30 36 C 4.2332 -1.46291 -1.29839 0
M  V30 37 C 4.6132 -0.170613 -2.10409 0
M  V30 38 O 3.9612 0.847746 -2.12192 0
M  V30 39 C 4.1712 -2.72055 -2.18603 0
M  V30 40 C 5.5192 -3.20087 -2.7898 0
M  V30 41 O 6.5432 -2.72921 -2.28894 0
M  V30 42 O 5.4022 -4.02138 -3.70064 0
M  V30 43 H 2.4962 -0.583906 -0.585647 0
M  V30 44 H 5.0422 -1.60384 -0.554534 0
M  V30 45 H 3.8142 -3.57628 -1.58801 0
M  V30 46 H 3.4372 -2.60646 -3.00249 0
M  V30 47 N 4.4343 0.785586 -1.36625 0
M  V30 48 C 5.3813 1.89838 -1.31264 0
M  V30 49 C 6.3513 1.65115 -0.180633 0
M  V30 50 O 7.5363 1.87222 -0.36777 0
M  V30 51 C 4.6763 3.26706 -1.11163 0
M  V30 52 C 3.7893 3.63476 -2.33472 0
M  V30 53 C 2.9243 4.89481 -2.06353 0
M  V30 54 C 1.9633 5.18941 -3.24602 0
M  V30 55 N 1.1003 6.36131 -2.97123 0
M  V30 56 H 5.9403 1.93756 -2.26413 0
M  V30 57 H 3.4773 0.947454 -1.12524 0
M  V30 58 H 5.4353 4.05639 -0.975337 0
M  V30 59 H 4.0653 3.222 -0.196674 0
M  V30 60 H 3.1173 2.79636 -2.57891 0
M  V30 61 H 4.4293 3.81193 -3.21704 0
M  V30 62 H 3.5833 5.76288 -1.89675 0
M  V30 63 H 2.3223 4.73841 -1.15437 0
M  V30 64 H 1.3273 4.30615 -3.41834 0
M  V30 65 H 2.5523 5.36498 -4.16349 0
M  V30 66 H 0.4983 6.21875 -2.08823 0
M  V30 67 H 0.4153 6.54198 -3.78894 0
M  V30 68 H 1.6833 7.2591 -2.84033 0
M  V30 69 N 5.9124 1.20967 1.01018 0
M  V30 70 C 6.8594 0.964281 2.09691 0
M  V30 71 C 7.8294 -0.107853 1.65749 0
M  V30 72 O 9.0144 0.0381987 1.90762 0
M  V30 73 C 6.1544 0.52943 3.41015 0
M  V30 74 C 5.2674 1.67043 3.98398 0
M  V30 75 C 4.4024 1.18525 5.17808 0
M  V30 76 C 3.4414 2.29892 5.67288 0
M  V30 77 N 2.5784 1.82546 6.77954 0
M  V30 78 H 7.4184 1.89463 2.30017 0
M  V30 79 H 4.9554 0.944289 1.1279 0
M  V30 80 H 6.9134 0.258588 4.16398 0
M  V30 81 H 5.5434 -0.363919 3.20742 0
M  V30 82 H 4.5954 2.05603 3.20049 0
M  V30 83 H 5.9074 2.50877 4.31117 0
M  V30 84 H 5.0614 0.870762 6.00419 0
M  V30 85 H 3.8004 0.316887 4.86669 0
M  V30 86 H 2.8054 2.6215 4.83278 0
M  V30 87 H 4.0304 3.17216 6.00459 0
M  V30 88 H 1.9764 0.980454 6.48632 0
M  V30 89 H 1.8934 2.59956 7.09901 0
M  V30 90 H 3.1614 1.54115 7.64113 0
M  V30 91 N 7.3905 -1.2043 1.01659 0
M  V30 92 C 8.3205 -2.25466 0.607226 0
M  V30 93 C 9.3015 -1.65853 -0.377716 0
M  V30 94 O 10.4865 -1.92409 -0.263149 0
M  V30 95 C 7.6165 -3.47256 -0.0552949 0
M  V30 96 C 6.5705 -4.19462 0.850632 0
M  V30 97 C 5.8965 -5.34673 0.0538859 0
M  V30 98 C 7.1965 -4.75603 2.15868 0
M  V30 99 H 8.8905 -2.59962 1.48526 0
M  V30 100 H 6.4365 -1.2496 0.715605 0
M  V30 101 H 8.3895 -4.19917 -0.353233 0
M  V30 102 H 7.1135 -3.11924 -0.968045 0
M  V30 103 H 5.7725 -3.48667 1.13257 0
M  V30 104 H 5.4205 -4.95585 -0.860514 0
M  V30 105 H 5.1205 -5.83913 0.657192 0
M  V30 106 H 6.6445 -6.10138 -0.237598 0
M  V30 107 H 8.0585 -5.40083 1.92311 0
M  V30 108 H 6.4555 -5.3528 2.71284 0
M  V30 109 H 7.5255 -3.94346 2.82169 0
M  V30 110 N 8.8686 -0.792821 -1.36206 0
M  V30 111 C 10.1146 -0.36733 -1.99446 0
M  V30 112 C 10.4476 1.05917 -1.62774 0
M  V30 113 O 9.7226 1.7324 -0.88421 0
M  V30 114 C 10.0056 -0.535044 -3.56103 0
M  V30 115 C 9.8586 -2.00548 -4.02617 0
M  V30 116 C 11.1776 0.0478191 -4.40074 0
M  V30 117 H 8.2966 -0.134941 -0.724541 0
M  V30 118 H 10.9386 -0.999794 -1.61568 0
M  V30 119 H 9.0886 0.00336329 -3.885 0
M  V30 120 H 10.7606 -2.60521 -3.80692 0
M  V30 121 H 9.0036 -2.50686 -3.54032 0
M  V30 122 H 9.6746 -2.07377 -5.11565 0
M  V30 123 H 12.1506 -0.411822 -4.14057 0
M  V30 124 H 11.0266 -0.0995336 -5.4881 0
M  V30 125 H 11.2876 1.14025 -4.27142 0
M  V30 126 N 10.3467 1.47872 -0.545128 0
M  V30 127 C 11.5927 2.02793 -0.0166104 0
M  V30 128 C 11.9257 1.41987 1.32489 0
M  V30 129 O 11.2007 0.571045 1.85928 0
M  V30 130 C 11.4837 3.59989 0.0893294 0
M  V30 131 C 11.3367 4.3125 -1.27841 0
M  V30 132 C 12.6557 4.32606 0.808724 0
M  V30 133 H 9.7747 0.736962 -0.00751035 0
M  V30 134 H 12.4167 1.76433 -0.705085 0
M  V30 135 H 10.5667 3.82579 0.675681 0
M  V30 136 H 12.2387 4.20035 -1.90704 0
M  V30 137 H 10.4817 3.92076 -1.85632 0
M  V30 138 H 11.1527 5.39736 -1.15713 0
M  V30 139 H 13.6287 4.14936 0.310992 0
M  V30 140 H 12.5047 5.42251 0.851782 0
M  V30 141 H 12.7657 4.00963 1.86229 0
M  V30 142 N 11.8248 0.280983 1.55075 0
M  V30 143 C 13.0708 -0.33461 2.00021 0
M  V30 144 C 13.4038 -1.55063 1.16915 0
M  V30 145 O 12.6788 -1.93006 0.240646 0
M  V30 146 C 12.9618 -0.711007 3.53011 0
M  V30 147 C 12.8148 0.512766 4.46868 0
M  V30 148 C 14.1338 -1.54522 4.12081 0
M  V30 149 H 11.2528 -0.120147 0.727141 0
M  V30 150 H 13.8948 0.389097 1.85973 0
M  V30 151 H 12.0448 -1.32761 3.65112 0
M  V30 152 H 13.7168 1.15131 4.46702 0
M  V30 153 H 11.9598 1.14975 4.18286 0
M  V30 154 H 12.6308 0.205556 5.51617 0
M  V30 155 H 15.1068 -1.02442 4.03293 0
M  V30 156 H 13.9828 -1.77739 5.19327 0
M  V30 157 H 14.2438 -2.52813 3.62682 0
M  V30 158 N 13.3029 -1.57598 0.00835791 0
M  V30 159 C 14.5499 -1.90928 -0.674732 0
M  V30 160 C 14.8779 -0.88277 -1.73313 0
M  V30 161 O 14.1329 0.111294 -1.95383 0
M  V30 162 C 14.4319 -3.3101 -1.34787 0
M  V30 163 C 14.0979 -4.48922 -0.421861 0
M  V30 164 C 12.7599 -4.8091 -0.166927 0
M  V30 165 C 15.1119 -5.20755 0.215211 0
M  V30 166 C 12.4399 -5.821 0.733232 0
M  V30 167 C 14.7919 -6.22905 1.1033 0
M  V30 168 C 13.4559 -6.53346 1.36733 0
M  V30 169 H 12.7259 -0.698656 -0.246902 0
M  V30 170 H 15.3729 -1.91387 0.0656779 0
M  V30 171 H 13.6779 -3.26714 -2.16253 0
M  V30 172 H 15.3749 -3.54061 -1.8826 0
M  V30 173 H 11.9649 -4.23934 -0.630729 0
M  V30 174 H 16.1489 -4.9629 0.0312829 0
M  V30 175 H 11.4049 -6.04042 0.945712 0
M  V30 176 H 15.5789 -6.77694 1.60325 0
M  V30 177 H 13.2059 -7.31573 2.06652 0
M  V30 178 N 14.781 0.264519 -1.55364 0
M  V30 179 C 16.029 0.993021 -1.76021 0
M  V30 180 C 16.35 1.86511 -0.569099 0
M  V30 181 O 15.62 1.91438 0.415735 0
M  V30 182 H 14.2 0.369639 -0.649135 0
M  V30 183 H 16.862 0.286707 -1.9278 0
M  V30 184 H 15.958 1.62502 -2.66457 0
M  V30 185 N 16.2591 1.48442 0.529413 0
M  V30 186 C 17.5071 1.56179 1.28267 0
M  V30 187 C 17.8281 0.237721 1.93546 0
M  V30 188 O 17.0981 -0.740779 1.81354 0
M  V30 189 H 15.6781 0.575367 0.476405 0
M  V30 190 H 18.3401 1.84909 0.61602 0
M  V30 191 H 17.4361 2.34312 2.06165 0
M  V30 192 N 17.7372 -0.778329 1.37039 0
M  V30 193 C 18.9652 -1.56734 1.35063 0
M  V30 194 C 19.3802 -1.88686 -0.0655597 0
M  V30 195 O 18.7372 -1.5096 -1.02554 0
M  V30 196 C 18.7882 -2.88163 2.18276 0
M  V30 197 O 18.5092 -2.57583 3.54376 0
M  V30 198 C 20.0102 -3.82422 2.24206 0
M  V30 199 H 17.2302 -0.485778 0.462883 0
M  V30 200 H 19.7742 -0.965185 1.8029 0
M  V30 201 H 17.9292 -3.44818 1.76576 0
M  V30 202 H 18.3432 -3.41699 3.97922 0
M  V30 203 H 19.8172 -4.71667 2.86765 0
M  V30 204 H 20.2942 -4.21078 1.24861 0
M  V30 205 H 20.9002 -3.31697 2.6619 0
M  V30 206 N 19.2153 -1.21501 -1.00376 0
M  V30 207 C 20.4633 -1.03095 -1.73827 0
M  V30 208 C 20.7843 0.436341 -1.90055 0
M  V30 209 O 20.0543 1.31466 -1.45236 0
M  V30 210 H 18.6343 -0.378487 -0.644016 0
M  V30 211 H 21.2963 -1.52831 -1.20949 0
M  V30 212 H 20.3923 -1.49991 -2.73695 0
M  V30 213 N 20.6934 1.19889 -1.02296 0
M  V30 214 C 21.6564 2.21116 -0.603351 0
M  V30 215 C 22.6564 1.5738 0.329884 0
M  V30 216 O 23.8464 1.73802 0.117702 0
M  V30 217 C 20.9784 3.40696 0.117992 0
M  V30 218 H 22.1714 2.59754 -1.49893 0
M  V30 219 H 19.7244 1.33463 -0.813468 0
M  V30 220 H 20.4594 3.07569 1.0282 0
M  V30 221 H 20.2444 3.88188 -0.552511 0
M  V30 222 H 21.7344 4.15692 0.398696 0
M  V30 223 N 22.1715 0.800033 1.35784 0
M  V30 224 C 23.1035 0.163596 2.28615 0
M  V30 225 C 24.1165 -0.633317 1.49976 0
M  V30 226 O 25.3055 -0.466754 1.72289 0
M  V30 227 C 22.4055 -0.790958 3.29541 0
M  V30 228 C 21.5785 -0.0418255 4.3738 0
M  V30 229 C 20.6375 -0.91389 5.18203 0
M  V30 230 O 19.6635 -0.367234 5.68014 0
M  V30 231 N 20.8655 -2.23682 5.35674 0
M  V30 232 H 23.6305 0.96105 2.83873 0
M  V30 233 H 21.1915 0.654894 1.48063 0
M  V30 234 H 23.1835 -1.37844 3.80501 0
M  V30 235 H 21.7535 -1.48925 2.74846 0
M  V30 236 H 20.9735 0.726813 3.87442 0
M  V30 237 H 22.2615 0.474719 5.06581 0
M  V30 238 H 21.6595 -2.70497 4.96838 0
M  V30 239 H 20.2165 -2.77369 5.89839 0
M  V30 240 N 23.6496 -1.47581 0.552962 0
M  V30 241 C 24.8976 -2.02082 0.0272703 0
M  V30 242 C 25.2186 -1.4301 -1.32563 0
M  V30 243 O 24.4886 -0.603745 -1.86365 0
M  V30 244 H 23.0686 -0.746966 0.00709182 0
M  V30 245 H 25.7306 -1.81033 0.722008 0
M  V30 246 H 24.8266 -3.12034 -0.0639951 0
M  V30 247 N 25.1277 -0.289203 -1.54924 0
M  V30 248 C 26.3757 0.322879 -1.99504 0
M  V30 249 C 26.6967 1.55313 -1.1791 0
M  V30 250 O 25.9667 1.94001 -0.272097 0
M  V30 251 H 24.5467 0.122291 -0.736922 0
M  V30 252 H 27.2087 -0.397802 -1.90797 0
M  V30 253 H 26.3047 0.603061 -3.06218 0
M  V30 254 N 26.6058 1.57591 -0.0167156 0
M  V30 255 C 27.8308 1.9598 0.67872 0
M  V30 256 C 28.2558 0.892546 1.65575 0
M  V30 257 O 27.6138 -0.147772 1.80697 0
M  V30 258 C 27.6618 3.33468 1.37227 0
M  V30 259 O 26.7658 3.28954 2.48722 0
M  V30 260 H 26.1068 0.639339 0.17928 0
M  V30 261 H 28.6368 2.04463 -0.0748802 0
M  V30 262 H 28.6468 3.69417 1.7319 0
M  V30 263 H 27.3218 4.10694 0.656007 0
M  V30 264 H 25.8988 3.04705 2.14963 0
M  V30 265 N 28.0839 -0.256276 1.55502 0
M  V30 266 C 29.3299 -0.987079 1.77157 0
M  V30 267 C 29.6629 -1.85327 0.580315 0
M  V30 268 O 28.9379 -1.89874 -0.421686 0
M  V30 269 C 29.2209 -1.85553 3.08613 0
M  V30 270 C 29.0739 -1.01816 4.38125 0
M  V30 271 C 30.3929 -2.8397 3.36228 0
M  V30 272 H 27.5119 -0.357428 0.644526 0
M  V30 273 H 30.1539 -0.258239 1.88237 0
M  V30 274 H 28.3039 -2.47695 2.99298 0
M  V30 275 H 29.9759 -0.416159 4.59419 0
M  V30 276 H 28.2189 -0.322178 4.32602 0
M  V30 277 H 28.8899 -1.65939 5.26468 0
M  V30 278 H 31.3659 -2.31964 3.45445 0
M  V30 279 H 30.2419 -3.41864 4.29442 0
M  V30 280 H 30.5029 -3.59955 2.56681 0
M  V30 281 N 29.562 -1.4872 -0.521534 0
M  V30 282 C 30.525 -1.63379 -1.60748 0
M  V30 283 C 31.525 -0.50661 -1.52611 0
M  V30 284 O 32.715 -0.772601 -1.5613 0
M  V30 285 C 29.847 -1.61192 -3.00383 0
M  V30 286 H 31.04 -2.60217 -1.49087 0
M  V30 287 H 28.593 -1.37444 -0.744235 0
M  V30 288 H 29.328 -0.65863 -3.17541 0
M  V30 289 H 29.113 -2.43032 -3.07698 0
M  V30 290 H 30.603 -1.7466 -3.7932 0
M  V30 291 N 31.0401 0.771051 -1.3745 0
M  V30 292 C 32.4561 1.07171 -1.18265 0
M  V30 293 C 32.6561 2.01491 -0.019287 0
M  V30 294 O 31.7121 2.44244 0.640408 0
M  V30 295 C 33.0251 1.66854 -2.50161 0
M  V30 296 C 34.5731 1.79109 -2.56689 0
M  V30 297 C 35.0481 2.42205 -3.88717 0
M  V30 298 N 36.5391 2.49655 -3.90162 0
M  V30 299 C 37.2741 2.9933 -4.8907 0
M  V30 300 N 36.7701 3.49172 -5.98374 0
M  V30 301 N 38.5631 2.9821 -4.76474 0
M  V30 302 H 30.7141 0.144796 -2.11906 0
M  V30 303 H 32.9771 0.126863 -0.939473 0
M  V30 304 H 32.6831 1.05017 -3.35655 0
M  V30 305 H 32.5571 2.6614 -2.673 0
M  V30 306 H 34.9441 2.40077 -1.71601 0
M  V30 307 H 35.0251 0.785757 -2.43433 0
M  V30 308 H 34.6691 1.81875 -4.74219 0
M  V30 309 H 34.5991 3.43345 -3.99276 0
M  V30 310 H 37.0901 2.14383 -3.11205 0
M  V30 311 H 37.4031 3.8548 -6.69795 0
M  V30 312 H 35.7481 3.47275 -6.02018 0
M  V30 313 H 38.9391 2.58572 -3.90203 0
M  V30 314 H 39.1121 3.36613 -5.53711 0
M  V30 315 N 32.5182 1.22032 0.997298 0
M  V30 316 C 33.7462 1.06841 1.7718 0
M  V30 317 C 34.1612 -0.381325 1.84909 0
M  V30 318 O 33.5182 -1.26437 1.31605 0
M  V30 319 C 33.5692 1.66814 3.20711 0
M  V30 320 O 33.2902 3.06116 3.13408 0
M  V30 321 C 34.7912 1.56838 4.14628 0
M  V30 322 H 32.0112 0.374782 0.556578 0
M  V30 323 H 34.5552 1.61532 1.2541 0
M  V30 324 H 32.7102 1.16196 3.69564 0
M  V30 325 H 33.1242 3.34926 4.0364 0
M  V30 326 H 34.5982 2.03532 5.13107 0
M  V30 327 H 35.0752 0.524155 4.36061 0
M  V30 328 H 35.6812 2.06741 3.7167 0
M  V30 329 N 33.9963 -1.19345 1.0293 0
M  V30 330 C 34.9263 -2.2481 0.631105 0
M  V30 331 C 35.9073 -1.66245 -0.360104 0
M  V30 332 O 37.0923 -1.92677 -0.242726 0
M  V30 333 C 34.2223 -3.47295 -0.0184607 0
M  V30 334 C 33.1763 -4.18536 0.895073 0
M  V30 335 C 32.5023 -5.34586 0.110592 0
M  V30 336 C 33.8023 -4.73287 2.209 0
M  V30 337 H 35.4963 -2.58372 1.51275 0
M  V30 338 H 33.0423 -1.24194 0.728818 0
M  V30 339 H 34.9953 -4.20268 -0.308675 0
M  V30 340 H 33.7193 -3.12933 -0.934907 0
M  V30 341 H 32.3783 -3.47446 1.16949 0
M  V30 342 H 32.0263 -4.96469 -0.807902 0
M  V30 343 H 31.7263 -5.83183 0.719087 0
M  V30 344 H 33.2503 -6.10355 -0.172871 0
M  V30 345 H 34.6643 -5.38013 1.98028 0
M  V30 346 H 33.0613 -5.32373 2.76946 0
M  V30 347 H 34.1313 -3.91331 2.86336 0
M  V30 348 N 35.4744 -0.807222 -1.35358 0
M  V30 349 C 36.4044 -0.232509 -2.3234 0
M  V30 350 C 37.3854 0.642386 -1.57504 0
M  V30 351 O 38.5704 0.572526 -1.85569 0
M  V30 352 C 35.7004 0.619238 -3.41735 0
M  V30 353 C 34.6544 -0.157215 -4.27711 0
M  V30 354 C 33.9804 0.816273 -5.28433 0
M  V30 355 C 35.2804 -1.35656 -5.04376 0
M  V30 356 H 36.9744 -1.04276 -2.80654 0
M  V30 357 H 34.5204 -0.50288 -1.34934 0
M  V30 358 H 36.4734 1.03137 -4.08584 0
M  V30 359 H 35.1974 1.46239 -2.92031 0
M  V30 360 H 33.8564 -0.550525 -3.62443 0
M  V30 361 H 33.5044 1.65494 -4.74996 0
M  V30 362 H 33.2044 0.301067 -5.86828 0
M  V30 363 H 34.7284 1.22659 -5.98153 0
M  V30 364 H 36.1424 -1.01927 -5.64166 0
M  V30 365 H 34.5394 -1.8063 -5.7227 0
M  V30 366 H 35.6094 -2.14288 -4.34981 0
M  V30 367 N 36.9525 1.47285 -0.560781 0
M  V30 368 C 37.8625 2.33846 0.187954 0
M  V30 369 C 38.8785 1.48412 0.908293 0
M  V30 370 O 40.0545 1.81332 0.876388 0
M  V30 371 C 37.1195 3.25178 1.2025 0
M  V30 372 C 36.1805 4.26504 0.489208 0
M  V30 373 C 35.4135 5.13472 1.45542 0
M  V30 374 O 35.6365 5.02959 2.6905 0
M  V30 375 O 34.5705 5.93902 0.977963 0
M  V30 376 H 38.3965 2.99177 -0.522177 0
M  V30 377 H 35.9815 1.45903 -0.321364 0
M  V30 378 H 37.8635 3.81584 1.78805 0
M  V30 379 H 36.5385 2.6247 1.89449 0
M  V30 380 H 35.4455 3.73847 -0.137627 0
M  V30 381 H 36.7785 4.91935 -0.161399 0
M  V30 382 N 38.4306 0.297415 1.54768 0
M  V30 383 C 39.7076 -0.365847 1.92148 0
M  V30 384 C 40.0876 -1.71975 1.22424 0
M  V30 385 O 39.4356 -2.25666 0.358739 0
M  V30 386 C 39.6456 -0.484056 3.45627 0
M  V30 387 C 40.9936 -0.756594 4.17805 0
M  V30 388 O 42.0176 -0.568007 3.51642 0
M  V30 389 O 40.8766 -1.11863 5.34929 0
M  V30 390 H 37.9706 -0.203919 0.801465 0
M  V30 391 H 40.5166 0.34521 1.66152 0
M  V30 392 H 39.2886 0.467865 3.88493 0
M  V30 393 H 38.9116 -1.24372 3.77647 0
M  V30 394 N 39.9087 -1.5758 0.0250728 0
M  V30 395 C 41.1567 -1.91255 -0.653151 0
M  V30 396 C 41.4777 -0.901691 -1.729 0
M  V30 397 O 40.7477 0.0573785 -1.95816 0
M  V30 398 H 39.3277 -0.705942 -0.244243 0
M  V30 399 H 41.9897 -1.94767 0.0719209 0
M  V30 400 H 41.0857 -2.91752 -1.10847 0
M  V30 401 N 41.3868 0.248026 -1.55636 0
M  V30 402 C 42.6148 0.993808 -1.81469 0
M  V30 403 C 43.0298 1.78991 -0.60064 0
M  V30 404 O 42.3868 1.77345 0.430682 0
M  V30 405 C 42.4378 1.93258 -3.05506 0
M  V30 406 O 42.1588 1.16869 -4.22224 0
M  V30 407 C 43.6598 2.79444 -3.4413 0
M  V30 408 H 40.8798 0.292486 -0.603898 0
M  V30 409 H 43.4238 0.271253 -2.02693 0
M  V30 410 H 41.5788 2.60943 -2.86335 0
M  V30 411 H 41.9928 1.80359 -4.92515 0
M  V30 412 H 43.4668 3.41066 -4.34026 0
M  V30 413 H 43.9438 3.50499 -2.64665 0
M  V30 414 H 44.5498 2.17214 -3.65648 0
M  V30 415 N 42.8649 1.48995 0.513639 0
M  V30 416 C 44.1119 1.57843 1.26854 0
M  V30 417 C 44.4399 0.259501 1.92761 0
M  V30 418 O 43.6949 -0.75159 1.80692 0
M  V30 419 C 43.9939 2.67756 2.36731 0
M  V30 420 C 43.6599 4.09669 1.88368 0
M  V30 421 C 42.3219 4.48291 1.74896 0
M  V30 422 C 44.6739 4.98537 1.52021 0
M  V30 423 C 42.0019 5.73568 1.23438 0
M  V30 424 C 44.3539 6.24319 1.0202 0
M  V30 425 C 43.0179 6.61783 0.871778 0
M  V30 426 H 42.2879 0.577587 0.464192 0
M  V30 427 H 44.9349 1.82778 0.571366 0
M  V30 428 H 43.2399 2.36743 3.12185 0
M  V30 429 H 44.9369 2.71813 2.9482 0
M  V30 430 H 41.5269 3.79176 1.99808 0
M  V30 431 H 45.7109 4.69363 1.61281 0
M  V30 432 H 40.9669 6.01304 1.10648 0
M  V30 433 H 45.1409 6.92566 0.729722 0
M  V30 434 H 42.7679 7.5874 0.470852 0
M  V30 435 N 44.343 -0.763751 1.37857 0
M  V30 436 C 45.29 -1.87726 1.34267 0
M  V30 437 C 46.26 -1.64807 0.206879 0
M  V30 438 O 47.445 -1.86613 0.397508 0
M  V30 439 C 44.585 -3.24896 1.16346 0
M  V30 440 C 43.698 -3.59716 2.39225 0
M  V30 441 C 42.833 -4.86137 2.14114 0
M  V30 442 C 41.872 -5.13711 3.32817 0
M  V30 443 N 41.009 -6.31323 3.07206 0
M  V30 444 H 45.849 -1.90129 2.29466 0
M  V30 445 H 43.386 -0.929433 1.14017 0
M  V30 446 H 45.344 -4.04036 1.03975 0
M  V30 447 H 43.974 -3.21847 0.247909 0
M  V30 448 H 43.026 -2.75498 2.62307 0
M  V30 449 H 44.338 -3.76027 3.27728 0
M  V30 450 H 43.492 -5.73198 1.9882 0
M  V30 451 H 42.231 -4.71945 1.22961 0
M  V30 452 H 41.236 -4.25123 3.48641 0
M  V30 453 H 42.461 -5.29807 4.24832 0
M  V30 454 H 40.407 -6.18474 2.1869 0
M  V30 455 H 40.324 -6.48087 3.89254 0
M  V30 456 H 41.592 -7.213 2.95546 0
M  V30 457 N 45.8211 -1.22559 -0.990812 0
M  V30 458 C 47.0671 -1.05297 -1.73322 0
M  V30 459 C 47.4001 0.410655 -1.89808 0
M  V30 460 O 46.6751 1.30439 -1.44277 0
M  V30 461 C 46.9581 -1.76713 -3.13759 0
M  V30 462 C 46.8111 -3.30684 -3.04907 0
M  V30 463 C 48.1301 -1.52121 -4.12974 0
M  V30 464 H 45.2491 -0.38392 -0.629106 0
M  V30 465 H 47.8911 -1.50926 -1.15418 0
M  V30 466 H 46.0411 -1.37924 -3.63193 0
M  V30 467 H 47.7131 -3.7893 -2.63077 0
M  V30 468 H 45.9561 -3.60253 -2.41661 0
M  V30 469 H 46.6271 -3.75833 -4.04294 0
M  V30 470 H 49.1031 -1.85819 -3.72304 0
M  V30 471 H 47.9791 -2.04582 -5.0935 0
M  V30 472 H 48.2401 -0.454257 -4.3976 0
M  V30 473 N 47.2992 1.18797 -1.03562 0
M  V30 474 C 48.7152 1.40671 -0.753917 0
M  V30 475 C 48.9152 1.9043 0.658686 0
M  V30 476 O 47.9712 2.08538 1.42366 0
M  V30 477 C 49.2842 2.41192 -1.79574 0
M  V30 478 C 50.8322 2.54928 -1.81606 0
M  V30 479 C 51.3072 3.58709 -2.84766 0
M  V30 480 N 52.7982 3.66212 -2.83625 0
M  V30 481 C 53.5332 4.46225 -3.60098 0
M  V30 482 N 53.0292 5.29888 -4.46308 0
M  V30 483 N 54.8222 4.40939 -3.4861 0
M  V30 484 H 46.9732 0.848221 -1.94728 0
M  V30 485 H 49.2362 0.435081 -0.842264 0
M  V30 486 H 48.9422 2.11669 -2.80872 0
M  V30 487 H 48.8162 3.40467 -1.62365 0
M  V30 488 H 51.2032 2.83771 -0.809817 0
M  V30 489 H 51.2842 1.55784 -2.02891 0
M  V30 490 H 50.9282 3.30607 -3.85566 0
M  V30 491 H 50.8582 4.57519 -2.60737 0
M  V30 492 H 53.3492 3.06466 -2.21105 0
M  V30 493 H 53.6622 5.88078 -5.01382 0
M  V30 494 H 52.0072 5.29326 -4.50377 0
M  V30 495 H 55.1982 3.74624 -2.80668 0
M  V30 496 H 55.3712 5.03056 -4.08459 0
M  V30 497 N 48.7773 0.814389 1.34928 0
M  V30 498 C 50.0233 0.399013 1.98836 0
M  V30 499 C 50.3563 -1.03314 1.64438 0
M  V30 500 O 49.6313 -1.71811 0.911659 0
M  V30 501 C 49.9143 0.591629 3.55207 0
M  V30 502 C 49.7673 2.06928 3.99376 0
M  V30 503 C 51.0863 0.022199 4.40094 0
M  V30 504 H 48.2053 0.146451 0.722303 0
M  V30 505 H 50.8473 1.02537 1.59957 0
M  V30 506 H 48.9973 0.0584441 3.88456 0
M  V30 507 H 50.6693 2.66544 3.76499 0
M  V30 508 H 48.9123 2.56287 3.49999 0
M  V30 509 H 49.5833 2.1549 5.08201 0
M  V30 510 H 52.0593 0.477643 4.13349 0
M  V30 511 H 50.9353 0.186832 5.48582 0
M  V30 512 H 51.1963 -1.07215 4.28902 0
M  V30 513 N 50.2554 -1.46986 0.568584 0
M  V30 514 C 51.5014 -2.02741 0.0488709 0
M  V30 515 C 51.8344 -1.44077 -1.30214 0
M  V30 516 O 51.1094 -0.600552 -1.84996 0
M  V30 517 C 51.3924 -3.60086 -0.032047 0
M  V30 518 C 51.2454 -4.29162 1.34686 0
M  V30 519 C 52.5644 -4.33838 -0.739798 0
M  V30 520 H 49.6834 -0.736749 0.0192338 0
M  V30 521 H 52.3254 -1.75289 0.733065 0
M  V30 522 H 50.4754 -3.83606 -0.61473 0
M  V30 523 H 52.1474 -4.16948 1.97362 0
M  V30 524 H 50.3904 -3.89073 1.91846 0
M  V30 525 H 51.0614 -5.37826 1.24285 0
M  V30 526 H 53.5374 -4.15378 -0.244939 0
M  V30 527 H 52.4134 -5.43537 -0.765406 0
M  V30 528 H 52.6744 -4.03875 -1.79827 0
M  V30 529 N 51.7335 -0.305618 -1.54608 0
M  V30 530 C 52.9615 0.304775 -2.04643 0
M  V30 531 C 53.3765 1.47167 -1.18268 0
M  V30 532 O 52.7335 1.81296 -0.209328 0
M  V30 533 C 52.7845 0.756564 -3.53495 0
M  V30 534 O 52.5055 -0.36389 -4.36586 0
M  V30 535 C 54.0065 1.43163 -4.19546 0
M  V30 536 H 51.2265 0.0655481 -0.667791 0
M  V30 537 H 53.7705 -0.446592 -1.99564 0
M  V30 538 H 51.9255 1.45794 -3.58919 0
M  V30 539 H 52.3395 -0.0113121 -5.24499 0
M  V30 540 H 53.8135 1.69886 -5.25207 0
M  V30 541 H 54.2905 2.37318 -3.69563 0
M  V30 542 H 54.8965 0.773307 -4.18211 0
M  V30 543 N 53.2116 1.57565 -0.0334293 0
M  V30 544 C 54.6276 1.56297 0.322997 0
M  V30 545 C 54.8276 1.03945 1.7262 0
M  V30 546 O 53.8836 0.688109 2.42943 0
M  V30 547 C 55.1966 3.00232 0.167664 0
M  V30 548 C 56.7446 3.12078 0.240107 0
M  V30 549 C 57.2196 4.57859 0.113513 0
M  V30 550 N 58.7106 4.62887 0.170359 0
M  V30 551 C 59.4456 5.73319 0.0962517 0
M  V30 552 N 58.9416 6.92794 -0.0291881 0
M  V30 553 N 60.7346 5.61898 0.150551 0
M  V30 554 H 52.8856 1.89923 -0.950956 0
M  V30 555 H 55.1486 0.873824 -0.367608 0
M  V30 556 H 54.8546 3.42501 -0.799102 0
M  V30 557 H 54.7286 3.654 0.936083 0
M  V30 558 H 57.1156 2.69718 1.19733 0
M  V30 559 H 57.1966 2.49623 -0.558763 0
M  V30 560 H 56.8406 5.009 -0.840314 0
M  V30 561 H 56.7706 5.18299 0.931302 0
M  V30 562 H 59.2616 3.76954 0.26728 0
M  V30 563 H 59.5746 7.7276 -0.0789252 0
M  V30 564 H 57.9196 6.94971 -0.0640299 0
M  V30 565 H 61.1106 4.67448 0.246981 0
M  V30 566 H 61.2836 6.47938 0.0893365 0
M  V30 567 N 54.6897 -0.239769 1.55765 0
M  V30 568 C 55.6377 -1.31668 1.91745 0
M  V30 569 C 56.6317 -1.49462 0.797338 0
M  V30 570 O 57.8377 -1.50852 0.982021 0
M  V30 571 H 54.2127 -0.441048 0.609082 0
M  V30 572 H 56.1837 -0.985923 2.81642 0
M  V30 573 C 54.9327 -2.66368 2.2348 0
M  V30 574 H 54.2557 -2.53478 3.09175 0
M  V30 575 H 55.6957 -3.40578 2.52553 0
M  V30 576 C 54.1547 -3.20002 1.05359 0
M  V30 577 O 54.6847 -4.00538 0.305261 0
M  V30 578 N 52.8907 -2.78126 0.842292 0
M  V30 579 H 52.4377 -2.12742 1.45253 0
M  V30 580 H 52.3957 -3.14354 0.053652 0
M  V30 581 N 56.1678 -1.49265 -0.50573 0
M  V30 582 C 57.5788 -1.51769 -1.08734 0
M  V30 583 C 57.9298 -0.301192 -1.93874 0
M  V30 584 O 57.0548 0.589456 -2.08217 0
M  V30 585 C 57.6498 -2.75017 -1.97867 0
M  V30 586 C 56.2088 -2.80314 -2.51199 0
M  V30 587 C 55.3558 -2.4562 -1.28709 0
M  V30 588 H 58.3068 -1.56031 -0.289855 0
M  V30 589 H 58.3278 -2.5491 -2.82491 0
M  V30 590 H 57.8398 -3.63539 -1.35873 0
M  V30 591 H 55.9408 -1.96061 -3.16845 0
M  V30 592 H 56.0538 -3.82366 -2.88675 0
M  V30 593 H 54.4178 -1.97297 -1.61078 0
M  V30 594 H 55.2008 -3.36411 -0.6843 0
M  V30 595 N 57.6459 0.756429 -1.3826 0
M  V30 596 C 59.0619 1.0591 -1.19395 0
M  V30 597 C 59.2619 2.01459 -0.0406567 0
M  V30 598 O 58.3179 2.44909 0.614467 0
M  V30 599 C 59.6309 1.64191 -2.51916 0
M  V30 600 C 61.1789 1.76376 -2.58574 0
M  V30 601 C 61.6539 2.38069 -3.91264 0
M  V30 602 N 63.1449 2.45503 -3.92788 0
M  V30 603 C 63.8799 2.94126 -4.92217 0
M  V30 604 N 63.3759 3.42805 -6.02043 0
M  V30 605 N 65.1689 2.9314 -4.7961 0
M  V30 606 H 57.3199 0.122313 -2.12048 0
M  V30 607 H 59.5829 0.116892 -0.940766 0
M  V30 608 H 59.2889 1.01451 -3.3675 0
M  V30 609 H 59.1629 2.6329 -2.70108 0
M  V30 610 H 61.5499 2.38244 -1.74137 0
M  V30 611 H 61.6309 0.759894 -2.44252 0
M  V30 612 H 61.2749 1.76835 -4.76121 0
M  V30 613 H 61.2049 3.39091 -4.02895 0
M  V30 614 H 63.6959 2.1107 -3.13461 0
M  V30 615 H 64.0089 3.78354 -6.73846 0
M  V30 616 H 62.3539 3.4087 -6.05667 0
M  V30 617 H 65.5449 2.54419 -3.92923 0
M  V30 618 H 65.7179 3.30721 -5.5725 0
M  V30 619 N 59.124 1.23083 0.984299 0
M  V30 620 C 60.071 1.00854 2.07598 0
M  V30 621 C 61.041 -0.0726709 1.65941 0
M  V30 622 O 62.226 0.0786535 1.90638 0
M  V30 623 C 59.366 0.601645 3.39815 0
M  V30 624 C 58.479 1.75456 3.94765 0
M  V30 625 C 57.614 1.29482 5.15177 0
M  V30 626 C 56.653 2.41873 5.62284 0
M  V30 627 N 55.79 1.96885 6.73929 0
M  V30 628 H 60.63 1.943 2.25946 0
M  V30 629 H 58.167 0.968001 1.10762 0
M  V30 630 H 60.125 0.346854 4.15756 0
M  V30 631 H 58.755 -0.295803 3.21442 0
M  V30 632 H 57.807 2.12346 3.15616 0
M  V30 633 H 59.119 2.59965 4.25699 0
M  V30 634 H 58.273 0.997923 5.98437 0
M  V30 635 H 57.012 0.420046 4.85888 0
M  V30 636 H 56.017 2.72342 4.77608 0
M  V30 637 H 57.242 3.29881 5.93595 0
M  V30 638 H 55.188 1.11782 6.46406 0
M  V30 639 H 55.105 2.74956 7.04227 0
M  V30 640 H 56.373 1.70289 7.60672 0
M  V30 641 N 60.6021 -1.18246 1.0419 0
M  V30 642 C 61.5491 -2.2192 0.634037 0
M  V30 643 C 62.5191 -1.62179 -0.358765 0
M  V30 644 O 63.7041 -1.89122 -0.252466 0
M  V30 645 C 60.8441 -3.451 0.00445535 0
M  V30 646 C 59.9571 -4.19174 1.04487 0
M  V30 647 C 59.0921 -5.29813 0.383676 0
M  V30 648 C 58.1311 -5.9566 1.4091 0
M  V30 649 N 57.2681 -6.97834 0.772784 0
M  V30 650 H 62.1081 -2.56164 1.52263 0
M  V30 651 H 59.6451 -1.25843 0.761701 0
M  V30 652 H 61.6031 -4.15485 -0.377919 0
M  V30 653 H 60.2331 -3.11472 -0.847652 0
M  V30 654 H 59.2851 -3.47604 1.54518 0
M  V30 655 H 60.5971 -4.64267 1.82368 0
M  V30 656 H 59.7511 -6.06677 -0.0528366 0
M  V30 657 H 58.4901 -4.85825 -0.427208 0
M  V30 658 H 57.4951 -5.17535 1.85574 0
M  V30 659 H 58.7201 -6.4173 2.22171 0
M  V30 660 H 56.6661 -6.55998 -0.0177708 0
M  V30 661 H 56.5831 -7.41186 1.48928 0
M  V30 662 H 57.8511 -7.78665 0.36071 0
M  V30 663 N 62.0802 -0.821533 -1.34494 0
M  V30 664 C 63.0432 -0.247847 -2.27856 0
M  V30 665 C 64.0432 0.573453 -1.50227 0
M  V30 666 O 65.2332 0.389759 -1.69784 0
M  V30 667 C 62.3652 0.652698 -3.34593 0
M  V30 668 H 63.5582 -1.07146 -2.80107 0
M  V30 669 H 61.1112 -0.593291 -1.44602 0
M  V30 670 H 61.8462 1.49943 -2.87555 0
M  V30 671 H 61.6312 0.065292 -3.92046 0
M  V30 672 H 63.1212 1.04793 -4.04238 0
M  V30 673 N 63.5583 1.46682 -0.576371 0
M  V30 674 C 64.5213 2.28707 0.150239 0
M  V30 675 C 65.5213 1.38035 0.824794 0
M  V30 676 O 66.7113 1.60476 0.677719 0
M  V30 677 C 63.8433 3.18248 1.22192 0
M  V30 678 H 65.0363 2.94423 -0.570521 0
M  V30 679 H 62.5893 1.52688 -0.334078 0
M  V30 680 H 63.3243 2.57265 1.97447 0
M  V30 681 H 63.1093 3.85 0.742812 0
M  V30 682 H 64.5993 3.80001 1.73172 0
M  V30 683 N 65.0364 0.313813 1.54444 0
M  V30 684 C 65.9834 -0.55655 2.23989 0
M  V30 685 C 66.9534 -1.11943 1.22711 0
M  V30 686 O 68.1384 -1.16158 1.51367 0
M  V30 687 C 65.2784 -1.71635 2.99392 0
M  V30 688 C 64.3914 -1.18364 4.15468 0
M  V30 689 C 63.5264 -2.30834 4.78424 0
M  V30 690 C 62.5654 -1.74762 5.86622 0
M  V30 691 N 61.7024 -2.80855 6.43479 0
M  V30 692 H 66.5424 0.0430893 2.97969 0
M  V30 693 H 64.0794 0.0330359 1.47063 0
M  V30 694 H 66.0374 -2.39868 3.41349 0
M  V30 695 H 64.6674 -2.28742 2.27765 0
M  V30 696 H 63.7194 -0.393163 3.78363 0
M  V30 697 H 65.0314 -0.733262 4.93381 0
M  V30 698 H 64.1854 -3.0699 5.23299 0
M  V30 699 H 62.9244 -2.79204 3.99871 0
M  V30 700 H 61.9294 -0.970995 5.41158 0
M  V30 701 H 63.1544 -1.2728 6.67066 0
M  V30 702 H 61.1004 -3.28535 5.67804 0
M  V30 703 H 61.0174 -2.40351 7.16776 0
M  V30 704 H 62.2854 -3.5687 6.93011 0
M  V30 705 N 66.5145 -1.57545 0.0417849 0
M  V30 706 C 67.4245 -2.14451 -0.951213 0
M  V30 707 C 68.4405 -1.09992 -1.34825 0
M  V30 708 O 69.6165 -1.42114 -1.42708 0
M  V30 709 C 66.6815 -2.67063 -2.21084 0
M  V30 710 C 65.7425 -3.86284 -1.87304 0
M  V30 711 C 64.9755 -4.36378 -3.07261 0
M  V30 712 O 65.1985 -3.85587 -4.20332 0
M  V30 713 O 64.1325 -5.28077 -2.88822 0
M  V30 714 H 67.9585 -2.99601 -0.497287 0
M  V30 715 H 65.5435 -1.48317 -0.179567 0
M  V30 716 H 67.4255 -3.00914 -2.95006 0
M  V30 717 H 66.1005 -1.84989 -2.65633 0
M  V30 718 H 65.0075 -3.57338 -1.10727 0
M  V30 719 H 66.3405 -4.6956 -1.47562 0
M  V30 720 N 67.9926 0.231505 -1.5589 0
M  V30 721 C 68.9226 1.29022 -1.94617 0
M  V30 722 C 69.9036 1.4941 -0.813067 0
M  V30 723 O 71.0886 1.6176 -1.07459 0
M  V30 724 C 68.2186 2.64199 -2.25424 0
M  V30 725 C 67.1726 2.58484 -3.41131 0
M  V30 726 C 66.4986 3.97599 -3.57518 0
M  V30 727 C 67.7986 2.1413 -4.76388 0
M  V30 728 H 69.4926 0.968563 -2.83301 0
M  V30 729 H 67.0386 0.464479 -1.36303 0
M  V30 730 H 68.9916 3.38413 -2.51107 0
M  V30 731 H 67.7156 2.98032 -1.33583 0
M  V30 732 H 66.3746 1.86727 -3.15481 0
M  V30 733 H 66.0226 4.28723 -2.6307 0
M  V30 734 H 65.7226 3.94659 -4.35337 0
M  V30 735 H 67.2466 4.7349 -3.85538 0
M  V30 736 H 68.6606 2.78083 -5.01341 0
M  V30 737 H 67.0576 2.2227 -5.57419 0
M  V30 738 H 68.1276 1.09331 -4.72414 0
M  V30 739 N 69.4707 1.49531 0.497807 0
M  V30 740 C 70.8867 1.36365 0.829266 0
M  V30 741 C 71.0867 0.399184 1.97506 0
M  V30 742 O 70.1427 -0.167977 2.51941 0
M  V30 743 C 71.4557 2.77153 1.16647 0
M  V30 744 C 73.0037 2.85877 1.27449 0
M  V30 745 C 73.4787 4.2744 1.64497 0
M  V30 746 N 74.9697 4.30265 1.7154 0
M  V30 747 C 75.7047 5.3677 2.01656 0
M  V30 748 N 75.2007 6.53516 2.29976 0
M  V30 749 N 76.9937 5.24189 2.02934 0
M  V30 750 H 69.1447 2.10831 -0.257703 0
M  V30 751 H 71.4077 0.946534 -0.0527091 0
M  V30 752 H 71.1137 3.49442 0.397872 0
M  V30 753 H 70.9877 3.12722 2.10915 0
M  V30 754 H 73.3747 2.13824 2.0338 0
M  V30 755 H 73.4557 2.53887 0.312244 0
M  V30 756 H 73.0997 5.00021 0.891151 0
M  V30 757 H 73.0297 4.56896 2.61827 0
M  V30 758 H 75.5207 3.4607 1.51802 0
M  V30 759 H 75.8337 7.30506 2.52153 0
M  V30 760 H 74.1787 6.56737 2.27425 0
M  V30 761 H 77.3697 4.31988 1.80289 0
M  V30 762 H 77.5427 6.07286 2.26071 0
M  V30 763 N 70.9488 -0.749086 1.3866 0
M  V30 764 C 71.8788 -1.8764 1.38973 0
M  V30 765 C 72.8598 -1.68178 0.255004 0
M  V30 766 O 74.0448 -1.88704 0.458754 0
M  V30 767 C 71.1748 -3.25222 1.21851 0
M  V30 768 C 70.1288 -3.59295 2.32575 0
M  V30 769 C 69.4548 -4.95663 2.00555 0
M  V30 770 C 70.7548 -3.63709 3.7485 0
M  V30 771 H 72.4488 -1.87635 2.3331 0
M  V30 772 H 69.9948 -0.901329 1.12303 0
M  V30 773 H 71.9478 -4.03746 1.20695 0
M  V30 774 H 70.6718 -3.25719 0.239775 0
M  V30 775 H 69.3308 -2.83093 2.32925 0
M  V30 776 H 68.9788 -4.92724 1.01154 0
M  V30 777 H 68.6788 -5.19429 2.74714 0
M  V30 778 H 70.2028 -5.7656 2.01024 0
M  V30 779 H 71.6168 -4.32338 3.76506 0
M  V30 780 H 70.0138 -3.98986 4.48252 0
M  V30 781 H 71.0838 -2.63834 4.06841 0
M  V30 782 N 72.4269 -1.23603 -0.977757 0
M  V30 783 C 73.3589 -0.977369 -2.07317 0
M  V30 784 C 74.3719 0.0495845 -1.62724 0
M  V30 785 O 75.5609 -0.186261 -1.77526 0
M  V30 786 C 72.6609 -0.451216 -3.35883 0
M  V30 787 C 71.8339 -1.53896 -4.09432 0
M  V30 788 C 70.8929 -1.01721 -5.16274 0
M  V30 789 O 69.9189 -1.70676 -5.43009 0
M  V30 790 N 71.1209 0.153594 -5.80297 0
M  V30 791 H 73.8859 -1.92047 -2.30082 0
M  V30 792 H 71.4469 -1.14497 -1.14465 0
M  V30 793 H 73.4389 -0.0871574 -4.04606 0
M  V30 794 H 72.0089 0.397368 -3.10064 0
M  V30 795 H 71.2289 -2.07566 -3.35127 0
M  V30 796 H 72.5169 -2.27037 -4.55337 0
M  V30 797 H 71.9149 0.730323 -5.60966 0
M  V30 798 H 70.4719 0.458892 -6.50183 0
M  V30 799 N 73.905 1.17692 -1.04816 0
M  V30 800 C 75.153 1.87488 -0.754497 0
M  V30 801 C 75.474 1.81205 0.720407 0
M  V30 802 O 74.744 1.23544 1.52032 0
M  V30 803 H 73.324 0.694101 -0.276102 0
M  V30 804 H 75.986 1.42793 -1.32651 0
M  V30 805 H 75.082 2.93328 -1.06606 0
M  V30 806 N 75.3831 0.828654 1.34056 0
M  V30 807 C 76.3461 0.259927 2.27721 0
M  V30 808 C 77.3461 -0.565478 1.50529 0
M  V30 809 O 78.5361 -0.38075 1.69988 0
M  V30 810 C 75.6681 -0.634944 3.34935 0
M  V30 811 H 76.8611 1.0863 2.79534 0
M  V30 812 H 74.4141 0.600951 1.44285 0
M  V30 813 H 75.1491 -1.48416 2.88346 0
M  V30 814 H 74.9341 -0.0444999 3.92075 0
M  V30 815 H 76.4241 -1.02648 4.04788 0
M  V30 816 N 76.8612 -1.46375 0.584142 0
M  V30 817 C 77.7712 -2.34115 -0.150728 0
M  V30 818 C 78.7872 -1.49838 -0.884567 0
M  V30 819 O 79.9632 -1.82704 -0.847429 0
M  V30 820 C 77.0282 -3.2705 -1.15062 0
M  V30 821 C 76.0892 -4.27228 -0.421293 0
M  V30 822 C 75.3222 -5.15722 -1.37355 0
M  V30 823 O 75.5452 -5.07176 -2.61014 0
M  V30 824 O 74.4792 -5.95383 -0.883355 0
M  V30 825 H 78.3052 -2.98309 0.569708 0
M  V30 826 H 75.8902 -1.45373 0.344535 0
M  V30 827 H 77.7722 -3.84381 -1.72712 0
M  V30 828 H 76.4472 -2.65451 -1.8525 0
M  V30 829 H 75.3542 -3.7358 0.197085 0
M  V30 830 H 76.6872 -4.91616 0.239641 0
M  V30 831 N 78.3393 -0.321999 -1.54275 0
M  V30 832 C 79.5853 0.281461 -2.00837 0
M  V30 833 C 79.9183 1.51909 -1.20985 0
M  V30 834 O 79.1933 1.923 -0.291733 0
M  V30 835 C 79.4763 0.617162 -3.54772 0
M  V30 836 C 79.3293 -0.631064 -4.45351 0
M  V30 837 C 80.6483 1.43542 -4.16033 0
M  V30 838 H 77.7673 0.100826 -0.730071 0
M  V30 839 H 80.4093 -0.438268 -1.84876 0
M  V30 840 H 78.5593 1.23034 -3.68504 0
M  V30 841 H 80.2313 -1.26934 -4.43492 0
M  V30 842 H 78.4743 -1.26025 -4.15091 0
M  V30 843 H 79.1453 -0.351735 -5.50878 0
M  V30 844 H 81.6213 0.917134 -4.05867 0
M  V30 845 H 80.4973 1.63907 -5.23856 0
M  V30 846 H 80.7583 2.43108 -3.69257 0
M  V30 847 N 79.8174 1.5752 -0.0501392 0
M  V30 848 C 81.0634 1.92936 0.624798 0
M  V30 849 C 81.3964 0.928685 1.70555 0
M  V30 850 O 80.6714 -0.0454779 1.94447 0
M  V30 851 C 80.9544 3.38737 1.22185 0
M  V30 852 C 80.8074 4.49552 0.149218 0
M  V30 853 C 82.1264 3.84913 2.13378 0
M  V30 854 H 79.2454 0.701604 0.225657 0
M  V30 855 H 81.8874 1.89671 -0.111693 0
M  V30 856 H 80.0374 3.4165 1.84953 0
M  V30 857 H 81.7094 4.58768 -0.482648 0
M  V30 858 H 79.9524 4.30638 -0.522841 0
M  V30 859 H 80.6234 5.48653 0.606966 0
M  V30 860 H 83.0994 3.8387 1.60572 0
M  V30 861 H 81.9754 4.87584 2.52097 0
M  V30 862 H 82.2364 3.21611 3.03346 0
M  V30 863 N 81.2955 -0.223234 1.56011 0
M  V30 864 C 82.2275 -1.30006 1.88762 0
M  V30 865 C 83.2405 -1.43129 0.775746 0
M  V30 866 O 84.4295 -1.44057 1.05403 0
M  V30 867 C 81.5295 -2.67589 2.07965 0
M  V30 868 C 80.7025 -2.76434 3.38973 0
M  V30 869 C 79.7615 -3.95019 3.47629 0
M  V30 870 O 78.7875 -3.83436 4.20672 0
M  V30 871 N 79.9895 -5.09249 2.78649 0
M  V30 872 H 82.7545 -1.02238 2.81722 0
M  V30 873 H 80.3155 -0.413278 1.56536 0
M  V30 874 H 82.3075 -3.45297 2.11073 0
M  V30 875 H 80.8775 -2.87964 1.21638 0
M  V30 876 H 80.0975 -1.85216 3.47978 0
M  V30 877 H 81.3855 -2.79313 4.25278 0
M  V30 878 H 80.7835 -5.21556 2.19081 0
M  V30 879 H 79.3405 -5.85007 2.8742 0
M  V30 880 N 82.7736 -1.49793 -0.48987 0
M  V30 881 C 84.0216 -1.59525 -1.24081 0
M  V30 882 C 84.3426 -0.288953 -1.92847 0
M  V30 883 O 83.6126 0.692436 -1.83254 0
M  V30 884 H 82.1926 -0.587796 -0.460983 0
M  V30 885 H 84.8546 -1.86477 -0.566778 0
M  V30 886 H 83.9506 -2.39696 -1.99881 0
M  V30 887 N 84.2517 0.741722 -1.39055 0
M  V30 888 C 85.5287 1.49252 -1.26425 0
M  V30 889 C 85.9087 2.10705 0.129144 0
M  V30 890 O 85.2567 1.98045 1.13976 0
M  V30 891 C 85.4667 2.54934 -2.38347 0
M  V30 892 C 86.8147 3.21506 -2.77343 0
M  V30 893 O 87.8387 2.65245 -2.37747 0
M  V30 894 O 86.6977 4.23294 -3.45665 0
M  V30 895 H 83.7917 0.662451 -0.495064 0
M  V30 896 H 86.3377 0.776121 -1.50912 0
M  V30 897 H 85.1097 2.07857 -3.31529 0
M  V30 898 H 84.7327 3.34141 -2.15489 0
M  V30 899 N 85.7298 1.2412 0.971189 0
M  V30 900 C 86.6618 0.988349 2.06795 0
M  V30 901 C 87.6748 -0.0409541 1.62748 0
M  V30 902 O 88.8638 0.195673 1.77424 0
M  V30 903 C 85.9638 0.469023 3.35639 0
M  V30 904 C 85.1368 1.56065 4.08611 0
M  V30 905 C 84.1958 1.04458 5.15728 0
M  V30 906 O 83.2218 1.73553 5.42096 0
M  V30 907 N 84.4238 -0.122817 5.8037 0
M  V30 908 H 87.1888 1.93265 2.29061 0
M  V30 909 H 84.7498 1.15102 1.13856 0
M  V30 910 H 86.7418 0.108613 4.04554 0
M  V30 911 H 85.3118 -0.380919 3.1027 0
M  V30 912 H 84.5318 2.09341 3.34021 0
M  V30 913 H 85.8198 2.29449 4.54126 0
M  V30 914 H 85.2178 -0.700563 5.61345 0
M  V30 915 H 83.7748 -0.424404 6.50417 0
M  V30 916 N 87.2079 -1.17134 1.05439 0
M  V30 917 C 88.4849 -1.83411 0.679699 0
M  V30 918 C 88.8649 -1.9368 -0.839726 0
M  V30 919 O 88.2129 -1.47325 -1.74664 0
M  V30 920 C 88.4229 -3.20918 1.37159 0
M  V30 921 C 89.7709 -3.96796 1.51123 0
M  V30 922 O 90.7949 -3.30406 1.3308 0
M  V30 923 O 89.6539 -5.15778 1.80651 0
M  V30 924 H 86.7479 -0.79154 0.239569 0
M  V30 925 H 89.2939 -1.24411 1.15413 0
M  V30 926 H 88.0659 -3.08428 2.40807 0
M  V30 927 H 87.6889 -3.87587 0.886674 0
M  V30 928 N 88.686 -0.835752 -1.33615 0
M  V30 929 C 89.963 -0.352017 -1.92406 0
M  V30 930 C 90.343 1.16225 -1.76224 0
M  V30 931 O 89.691 1.97526 -1.14873 0
M  V30 932 C 89.901 -0.795485 -3.39813 0
M  V30 933 C 91.249 -0.801703 -4.16963 0
M  V30 934 O 92.273 -0.738889 -3.48452 0
M  V30 935 O 91.132 -0.886607 -5.3926 0
M  V30 936 H 88.226 -0.0989641 -0.821057 0
M  V30 937 H 90.772 -0.921397 -1.42507 0
M  V30 938 H 89.544 -1.83795 -3.45449 0
M  V30 939 H 89.167 -0.202505 -3.97084 0
M  V30 940 N 90.1641 1.46063 -0.591896 0
M  V30 941 C 91.0961 2.28539 0.174001 0
M  V30 942 C 92.1091 1.39047 0.846753 0
M  V30 943 O 93.2981 1.63564 0.714774 0
M  V30 944 C 90.3981 3.14347 1.26645 0
M  V30 945 C 89.5711 4.32021 0.683856 0
M  V30 946 C 88.6301 4.99157 1.66518 0
M  V30 947 O 87.6561 5.56458 1.19763 0
M  V30 948 N 88.8581 4.97005 2.99943 0
M  V30 949 H 91.6231 2.94911 -0.533633 0
M  V30 950 H 89.1841 1.56077 -0.430294 0
M  V30 951 H 91.1761 3.56125 1.92242 0
M  V30 952 H 89.7461 2.49988 1.87682 0
M  V30 953 H 88.9661 3.93915 -0.1498 0
M  V30 954 H 90.2541 5.08059 0.274567 0
M  V30 955 H 89.6521 4.51714 3.40545 0
M  V30 956 H 88.2091 5.42696 3.61004 0
M  V30 957 N 91.6422 0.330177 1.54103 0
M  V30 958 C 92.8882 -0.270806 2.00984 0
M  V30 959 C 93.2212 -1.51265 1.21789 0
M  V30 960 O 92.4962 -1.92142 0.301927 0
M  V30 961 C 92.7792 -0.598339 3.55094 0
M  V30 962 C 92.6322 0.654674 4.4501 0
M  V30 963 C 93.9512 -1.41334 4.16789 0
M  V30 964 H 91.0702 -0.0969531 0.730595 0
M  V30 965 H 93.7122 0.448066 1.84641 0
M  V30 966 H 91.8622 -1.21078 3.69151 0
M  V30 967 H 93.5342 1.29285 4.42813 0
M  V30 968 H 91.7772 1.28224 4.14416 0
M  V30 969 H 92.4482 0.380944 5.50684 0
M  V30 970 H 94.9242 -0.895597 4.06347 0
M  V30 971 H 93.8002 -1.61127 5.24718 0
M  V30 972 H 94.0612 -2.41146 3.70541 0
M  V30 973 N 93.1203 -1.57491 0.0584922 0
M  V30 974 C 94.3693 -1.92155 -0.613146 0
M  V30 975 C 94.6823 -0.939334 -1.71569 0
M  V30 976 O 95.8883 -1.17829 -2.44599 0
M  V30 977 C 94.3443 -3.41303 -1.14195 0
M  V30 978 C 93.9523 -4.47944 -0.0711265 0
M  V30 979 C 95.6963 -3.84988 -1.78841 0
M  V30 980 C 93.6033 -5.88212 -0.613225 0
M  V30 981 H 92.5333 -0.717162 -0.232796 0
M  V30 982 H 95.1843 -1.83049 0.12857 0
M  V30 983 H 93.5663 -3.45437 -1.93621 0
M  V30 984 H 94.7403 -4.55408 0.702836 0
M  V30 985 H 93.0553 -4.13644 0.478313 0
M  V30 986 H 95.6523 -4.87159 -2.20408 0
M  V30 987 H 95.9953 -3.21632 -2.64308 0
M  V30 988 H 96.5283 -3.83401 -1.06059 0
M  V30 989 H 93.2673 -6.55183 0.203978 0
M  V30 990 H 92.7873 -5.84294 -1.35501 0
M  V30 991 H 94.4663 -6.37687 -1.09383 0
M  V30 992 N 94.5984 0.214957 -1.56127 0
M  V30 993 C 95.5314 1.29382 -1.87977 0
M  V30 994 C 96.5094 1.44897 -0.737807 0
M  V30 995 O 97.6934 1.60605 -0.986833 0
M  V30 996 C 94.8204 2.66325 -2.09258 0
M  V30 997 C 93.8664 2.67789 -3.31951 0
M  V30 998 S 94.6994 2.21198 -4.8768 0
M  V30 999 C 95.8554 3.60003 -5.12004 0
M  V30 1000 H 96.0884 1.02173 -2.79192 0
M  V30 1001 H 93.6214 0.417516 -1.48648 0
M  V30 1002 H 95.5794 3.45162 -2.22201 0
M  V30 1003 H 94.2404 2.90755 -1.18829 0
M  V30 1004 H 93.4334 3.68436 -3.43906 0
M  V30 1005 H 93.0354 1.9702 -3.17898 0
M  V30 1006 H 95.3274 4.55739 -5.01307 0
M  V30 1007 H 96.2704 3.52959 -6.13861 0
M  V30 1008 H 96.6784 3.53996 -4.39712 0
M  V30 1009 N 96.0765 1.50051 0.48192 0
M  V30 1010 C 96.9865 1.7089 1.60728 0
M  V30 1011 C 98.0025 0.591788 1.63627 0
M  V30 1012 O 99.1785 0.868817 1.81696 0
M  V30 1013 C 96.2435 1.78855 2.97005 0
M  V30 1014 C 95.3045 3.02537 3.04581 0
M  V30 1015 C 94.5375 3.10112 4.34357 0
M  V30 1016 O 94.7605 2.24765 5.24249 0
M  V30 1017 O 93.6945 4.02747 4.47301 0
M  V30 1018 H 97.5205 2.66264 1.46072 0
M  V30 1019 H 95.1055 1.34018 0.660264 0
M  V30 1020 H 96.9875 1.86336 3.77964 0
M  V30 1021 H 95.6625 0.866628 3.11883 0
M  V30 1022 H 94.5695 3.00563 2.22739 0
M  V30 1023 H 95.9025 3.94272 2.94636 0
M  V30 1024 N 97.5546 -0.734337 1.39446 0
M  V30 1025 C 98.4846 -1.86155 1.40955 0
M  V30 1026 C 99.4656 -1.67898 0.272827 0
M  V30 1027 O 100.651 -1.88207 0.478743 0
M  V30 1028 C 97.7806 -3.23912 1.25294 0
M  V30 1029 C 96.7346 -3.56808 2.36373 0
M  V30 1030 C 96.0606 -4.93508 2.058 0
M  V30 1031 C 97.3606 -3.59713 3.78687 0
M  V30 1032 H 99.0546 -1.8515 2.35287 0
M  V30 1033 H 96.6006 -0.889367 1.13253 0
M  V30 1034 H 98.5536 -4.02443 1.2497 0
M  V30 1035 H 97.2776 -3.25446 0.274308 0
M  V30 1036 H 95.9366 -2.80606 2.35914 0
M  V30 1037 H 95.5846 -4.91623 1.06374 0
M  V30 1038 H 95.2846 -5.16486 2.80208 0
M  V30 1039 H 96.8086 -5.74396 2.07128 0
M  V30 1040 H 98.2226 -4.2832 3.81071 0
M  V30 1041 H 96.6196 -3.94209 4.52459 0
M  V30 1042 H 97.6896 -2.59504 4.09617 0
M  V30 1043 N 99.0327 -1.24633 -0.964593 0
M  V30 1044 C 99.9957 -1.0424 -2.04124 0
M  V30 1045 C 100.996 0.00137563 -1.608 0
M  V30 1046 O 102.186 -0.239883 -1.7254 0
M  V30 1047 C 99.3177 -0.580588 -3.3592 0
M  V30 1048 H 100.511 -1.99803 -2.23649 0
M  V30 1049 H 98.0637 -1.06899 -1.14027 0
M  V30 1050 H 98.7987 0.3781 -3.22088 0
M  V30 1051 H 98.5837 -1.33398 -3.6871 0
M  V30 1052 H 100.074 -0.459034 -4.15069 0
M  V30 1053 N 100.511 1.16574 -1.06058 0
M  V30 1054 C 101.441 2.23057 -0.690488 0
M  V30 1055 C 102.422 1.67141 0.315901 0
M  V30 1056 O 103.607 1.93253 0.191556 0
M  V30 1057 C 100.737 3.47222 -0.073625 0
M  V30 1058 C 99.6908 4.16016 -1.00573 0
M  V30 1059 C 99.0168 5.34104 -0.252289 0
M  V30 1060 C 100.317 4.67264 -2.33371 0
M  V30 1061 H 102.011 2.54271 -1.58072 0
M  V30 1062 H 99.5568 1.22218 -0.76149 0
M  V30 1063 H 101.51 4.20939 0.19714 0
M  V30 1064 H 100.234 3.15302 0.85161 0
M  V30 1065 H 98.8928 3.44223 -1.2612 0
M  V30 1066 H 98.5408 4.98437 0.675988 0
M  V30 1067 H 98.2408 5.81072 -0.873455 0
M  V30 1068 H 99.7648 6.10599 0.0109857 0
M  V30 1069 H 101.179 5.32573 -2.12223 0
M  V30 1070 H 99.5758 5.24843 -2.90963 0
M  V30 1071 H 100.646 3.83602 -2.96611 0
M  V30 1072 N 101.989 0.842826 1.3317 0
M  V30 1073 C 102.937 0.267495 2.31057 0
M  V30 1074 C 103.931 -0.602682 1.58316 0
M  V30 1075 O 105.137 -0.491803 1.73151 0
M  V30 1076 H 101.512 0.0677813 0.748939 0
M  V30 1077 H 103.483 1.10754 2.77085 0
M  V30 1078 C 102.232 -0.539331 3.43492 0
M  V30 1079 H 101.555 0.12095 3.99617 0
M  V30 1080 H 102.995 -0.90767 4.14171 0
M  V30 1081 C 101.454 -1.71981 2.89697 0
M  V30 1082 O 101.984 -2.81862 2.86211 0
M  V30 1083 N 100.19 -1.54299 2.46252 0
M  V30 1084 H 99.7369 -0.649143 2.49287 0
M  V30 1085 H 99.6949 -2.33431 2.10612 0
M  V30 1086 N 103.467 -1.45747 0.599634 0
M  V30 1087 C 104.715 -2.01893 0.0915472 0
M  V30 1088 C 105.036 -1.47155 -1.27946 0
M  V30 1089 O 104.306 -0.66273 -1.84349 0
M  V30 1090 H 102.886 -0.746363 0.0308524 0
M  V30 1091 H 105.548 -1.78645 0.779237 0
M  V30 1092 H 104.644 -3.1208 0.0353086 0
M  V30 1093 N 104.945 -0.338344 -1.53925 0
M  V30 1094 C 105.908 0.508299 -2.23493 0
M  V30 1095 C 106.908 1.03175 -1.23335 0
M  V30 1096 O 108.098 0.921826 -1.47811 0
M  V30 1097 C 105.23 1.70754 -2.95052 0
M  V30 1098 H 106.423 -0.100058 -2.99733 0
M  V30 1099 H 103.976 -0.0896198 -1.56043 0
M  V30 1100 H 104.711 2.35474 -2.22986 0
M  V30 1101 H 104.496 1.33946 -3.68512 0
M  V30 1102 H 105.986 2.30818 -3.48013 0
M  V30 1103 N 106.423 1.57458 -0.0668435 0
M  V30 1104 C 107.653 1.97337 0.611677 0
M  V30 1105 C 108.061 0.943744 1.63982 0
M  V30 1106 O 107.404 -0.0785584 1.83532 0
M  V30 1107 C 107.466 3.33511 1.34205 0
M  V30 1108 C 107.13 4.54598 0.467941 0
M  V30 1109 C 108.127 5.19186 -0.272439 0
M  V30 1110 C 105.812 5.0075 0.39427 0
M  V30 1111 C 107.806 6.28274 -1.07476 0
M  V30 1112 C 105.493 6.09711 -0.411729 0
M  V30 1113 C 106.491 6.73335 -1.14492 0
M  V30 1114 O 106.179 7.80199 -1.93763 0
M  V30 1115 H 105.911 0.654042 0.170893 0
M  V30 1116 H 108.465 2.04961 -0.134289 0
M  V30 1117 H 106.695 3.22487 2.13398 0
M  V30 1118 H 108.384 3.58029 1.91233 0
M  V30 1119 H 109.15 4.84477 -0.225086 0
M  V30 1120 H 105.029 4.51009 0.954569 0
M  V30 1121 H 108.573 6.77866 -1.64755 0
M  V30 1122 H 104.47 6.43854 -0.460664 0
M  V30 1123 H 105.238 7.97053 -1.86142 0
M  V30 1124 N 107.901 -0.206675 1.56239 0
M  V30 1125 C 108.864 -1.23976 1.92776 0
M  V30 1126 C 109.864 -1.39041 0.807729 0
M  V30 1127 O 111.054 -1.37051 1.0753 0
M  V30 1128 C 108.186 -2.61112 2.19165 0
M  V30 1129 H 109.379 -0.927764 2.85189 0
M  V30 1130 H 106.932 -0.447718 1.4975 0
M  V30 1131 H 107.667 -2.97386 1.29352 0
M  V30 1132 H 107.452 -2.51552 3.00772 0
M  V30 1133 H 108.942 -3.35633 2.48476 0
M  V30 1134 N 109.379 -1.50304 -0.473955 0
M  V30 1135 C 110.607 -1.64902 -1.24959 0
M  V30 1136 C 111.022 -0.331198 -1.85872 0
M  V30 1137 O 110.379 0.68652 -1.69095 0
M  V30 1138 C 110.43 -2.73803 -2.36038 0
M  V30 1139 O 110.151 -4.00477 -1.77624 0
M  V30 1140 C 111.652 -2.99349 -3.26964 0
M  V30 1141 H 108.872 -0.554383 -0.378022 0
M  V30 1142 H 111.416 -1.9651 -0.566054 0
M  V30 1143 H 109.571 -2.44898 -3.00173 0
M  V30 1144 H 109.985 -4.60678 -2.5075 0
M  V30 1145 H 111.459 -3.79217 -4.01121 0
M  V30 1146 H 111.936 -2.10307 -3.85574 0
M  V30 1147 H 112.542 -3.29774 -2.68569 0
M  V30 1148 N 110.857 0.726932 -1.39834 0
M  V30 1149 C 112.104 1.48664 -1.37496 0
M  V30 1150 C 112.432 1.94482 0.0264678 0
M  V30 1151 O 111.687 1.67692 1.00886 0
M  V30 1152 C 111.986 2.73495 -2.30077 0
M  V30 1153 C 111.652 2.46502 -3.77555 0
M  V30 1154 C 110.314 2.3885 -4.17737 0
M  V30 1155 C 112.666 2.23604 -4.70798 0
M  V30 1156 C 109.994 2.06352 -5.49214 0
M  V30 1157 C 112.346 1.92622 -6.02561 0
M  V30 1158 C 111.01 1.83444 -6.41798 0
M  V30 1159 H 110.28 0.544001 -0.503135 0
M  V30 1160 H 112.927 0.833657 -1.72402 0
M  V30 1161 H 111.232 3.43575 -1.88317 0
M  V30 1162 H 112.929 3.31549 -2.25558 0
M  V30 1163 H 109.519 2.5334 -3.45712 0
M  V30 1164 H 113.703 2.28479 -4.40581 0
M  V30 1165 H 108.959 1.97776 -5.78528 0
M  V30 1166 H 113.133 1.73914 -6.74334 0
M  V30 1167 H 110.76 1.58029 -7.43593 0
M  V30 1168 N 112.336 1.25143 0.95797 0
M  V30 1169 C 113.585 1.0909 1.69654 0
M  V30 1170 C 113.898 -0.368548 1.92097 0
M  V30 1171 O 115.104 -0.649455 2.63618 0
M  V30 1172 C 113.56 1.90395 3.05414 0
M  V30 1173 C 113.168 3.4081 2.90779 0
M  V30 1174 C 114.912 1.82901 3.83076 0
M  V30 1175 C 112.819 4.14423 4.21909 0
M  V30 1176 H 111.749 0.404625 0.636235 0
M  V30 1177 H 114.4 1.4931 1.06672 0
M  V30 1178 H 112.782 1.42996 3.69281 0
M  V30 1179 H 113.956 3.95859 2.35865 0
M  V30 1180 H 112.271 3.49361 2.26575 0
M  V30 1181 H 114.868 2.35196 4.80195 0
M  V30 1182 H 115.211 0.796224 4.08615 0
M  V30 1183 H 115.744 2.28033 3.25954 0
M  V30 1184 H 112.483 5.18102 4.01561 0
M  V30 1185 H 112.003 3.64159 4.76601 0
M  V30 1186 H 113.682 4.21956 4.90471 0
M  V30 1187 N 113.814 -1.1601 1.06675 0
M  V30 1188 C 115.06 -1.86909 0.786945 0
M  V30 1189 C 115.393 -1.81717 -0.685018 0
M  V30 1190 O 114.668 -1.23551 -1.50218 0
M  V30 1191 C 114.951 -3.36313 1.28707 0
M  V30 1192 C 114.804 -3.50175 2.82308 0
M  V30 1193 C 116.123 -4.3084 0.898071 0
M  V30 1194 H 113.242 -0.678677 0.287343 0
M  V30 1195 H 115.884 -1.36336 1.32334 0
M  V30 1196 H 114.034 -3.79513 0.830768 0
M  V30 1197 H 115.706 -3.15886 3.36175 0
M  V30 1198 H 113.949 -2.91959 3.20847 0
M  V30 1199 H 114.62 -4.55116 3.12368 0
M  V30 1200 H 117.096 -3.95561 1.29114 0
M  V30 1201 H 115.972 -5.33876 1.27543 0
M  V30 1202 H 116.233 -4.41662 -0.196651 0
M  V30 1203 N 115.292 -0.849877 -1.32721 0
M  V30 1204 C 116.52 -0.464754 -2.01613 0
M  V30 1205 C 116.935 0.937191 -1.63897 0
M  V30 1206 O 116.292 1.61081 -0.857856 0
M  V30 1207 C 116.343 -0.588638 -3.56675 0
M  V30 1208 O 116.064 -1.93535 -3.93034 0
M  V30 1209 C 117.565 -0.2019 -4.4284 0
M  V30 1210 H 114.785 -0.183215 -0.645502 0
M  V30 1211 H 117.329 -1.1455 -1.69407 0
M  V30 1212 H 115.484 0.0443159 -3.87375 0
M  V30 1213 H 115.898 -1.92871 -4.87751 0
M  V30 1214 H 117.372 -0.339599 -5.50954 0
M  V30 1215 H 117.849 0.857224 -4.30753 0
M  V30 1216 H 118.455 -0.809733 -4.17521 0
M  V30 1217 N 116.77 1.45427 -0.607355 0
M  V30 1218 C 117.718 2.32269 0.12411 0
M  V30 1219 C 118.712 1.45955 0.859854 0
M  V30 1220 O 119.918 1.6244 0.775447 0
M  V30 1221 H 116.293 0.749691 0.0588839 0
M  V30 1222 H 118.264 2.91743 -0.626762 0
M  V30 1223 C 117.013 3.29567 1.1082 0
M  V30 1224 H 116.336 3.95978 0.551492 0
M  V30 1225 H 117.776 3.93061 1.58995 0
M  V30 1226 C 116.235 2.56722 2.18164 0
M  V30 1227 O 116.765 2.34842 3.25902 0
M  V30 1228 N 114.971 2.16861 1.93442 0
M  V30 1229 H 114.518 2.34855 1.05834 0
M  V30 1230 H 114.476 1.68444 2.65469 0
M  V30 1231 N 118.248 0.346503 1.53744 0
M  V30 1232 C 119.478 -0.250047 2.05081 0
M  V30 1233 C 119.886 -1.44529 1.22098 0
M  V30 1234 O 119.229 -1.81992 0.249917 0
M  V30 1235 C 119.291 -0.725934 3.52094 0
M  V30 1236 C 118.955 0.350053 4.55657 0
M  V30 1237 C 119.952 1.19372 5.0601 0
M  V30 1238 C 117.637 0.504827 4.99757 0
M  V30 1239 C 119.631 2.17768 5.99046 0
M  V30 1240 C 117.318 1.49218 5.92602 0
M  V30 1241 C 118.316 2.32706 6.42135 0
M  V30 1242 O 118.004 3.2976 7.33153 0
M  V30 1243 H 117.736 -0.0515469 0.674032 0
M  V30 1244 H 120.29 0.497559 1.99282 0
M  V30 1245 H 118.52 -1.52483 3.55367 0
M  V30 1246 H 120.209 -1.24336 3.86388 0
M  V30 1247 H 120.975 1.08525 4.72702 0
M  V30 1248 H 116.854 -0.135178 4.60802 0
M  V30 1249 H 120.398 2.82971 6.37631 0
M  V30 1250 H 116.295 1.6012 6.25325 0
M  V30 1251 H 117.063 3.25265 7.51096 0
M  V30 1252 N 119.726 -1.57421 0.075193 0
M  V30 1253 C 120.972 -1.94716 -0.587998 0
M  V30 1254 C 121.327 -0.955205 -1.67014 0
M  V30 1255 O 120.62 0.0219842 -1.91587 0
M  V30 1256 C 120.814 -3.36428 -1.20626 0
M  V30 1257 C 120.643 -4.49317 -0.185541 0
M  V30 1258 C 119.413 -5.04772 0.23099 0
M  V30 1259 C 121.611 -5.11036 0.57854 0
M  V30 1260 N 119.593 -6.01204 1.24206 0
M  V30 1261 C 120.964 -6.02998 1.44199 0
M  V30 1262 C 123.019 -4.93844 0.634237 0
M  V30 1263 C 121.722 -6.79614 2.3562 0
M  V30 1264 C 123.748 -5.71106 1.53597 0
M  V30 1265 C 123.11 -6.6272 2.38709 0
M  V30 1266 H 119.209 -0.759536 -0.186089 0
M  V30 1267 H 121.793 -1.94097 0.153128 0
M  V30 1268 H 119.964 -3.37778 -1.9173 0
M  V30 1269 H 121.696 -3.60951 -1.8302 0
M  V30 1270 H 118.451 -4.73353 -0.152807 0
M  V30 1271 H 118.875 -6.54119 1.74521 0
M  V30 1272 H 123.517 -4.22799 -0.00960004 0
M  V30 1273 H 121.235 -7.49934 3.01038 0
M  V30 1274 H 124.821 -5.59824 1.58394 0
M  V30 1275 H 123.701 -7.2146 3.07352 0
M  V30 1276 N 121.204 0.198386 -1.56346 0
M  V30 1277 C 122.114 1.2664 -1.97483 0
M  V30 1278 C 123.13 1.49989 -0.882002 0
M  V30 1279 O 124.306 1.62668 -1.18748 0
M  V30 1280 C 121.371 2.59141 -2.30319 0
M  V30 1281 C 120.432 2.43892 -3.53292 0
M  V30 1282 C 119.665 3.70074 -3.84553 0
M  V30 1283 O 119.888 4.74101 -3.1715 0
M  V30 1284 O 118.822 3.658 -4.7799 0
M  V30 1285 H 122.648 0.947304 -2.88548 0
M  V30 1286 H 120.233 0.403123 -1.43859 0
M  V30 1287 H 122.115 3.37352 -2.5253 0
M  V30 1288 H 120.79 2.90684 -1.42423 0
M  V30 1289 H 119.697 1.63803 -3.36332 0
M  V30 1290 H 121.03 2.17282 -4.41644 0
M  V30 1291 N 122.682 1.50554 0.465978 0
M  V30 1292 C 123.907 1.65838 1.24549 0
M  V30 1293 C 124.332 0.343486 1.84937 0
M  V30 1294 O 123.69 -0.69324 1.67523 0
M  V30 1295 C 123.738 2.75533 2.32624 0
M  V30 1296 O 122.842 2.37142 3.37398 0
M  V30 1297 H 122.183 0.553893 0.366194 0
M  V30 1298 H 124.713 1.96959 0.553927 0
M  V30 1299 H 124.723 2.98763 2.77857 0
M  V30 1300 H 123.398 3.70962 1.88043 0
M  V30 1301 H 121.975 2.24377 2.97841 0
M  V30 1302 N 124.16 -0.719506 1.40217 0
M  V30 1303 C 125.4 -1.49181 1.39729 0
M  V30 1304 C 125.764 -1.92 -0.00250614 0
M  V30 1305 O 126.965 -2.68473 -0.132479 0
M  V30 1306 C 125.236 -2.68767 2.35582 0
M  V30 1307 S 126.795 -3.58224 2.53418 0
M  V30 1308 H 123.613 -0.510091 0.495307 0
M  V30 1309 H 126.215 -0.841724 1.76452 0
M  V30 1310 H 124.919 -2.35475 3.36124 0
M  V30 1311 H 124.45 -3.38691 2.0013 0
M  V30 1312 H 126.465 -4.63033 1.78367 0
M  V30 1313 N 125.638 -1.25649 -0.95132 0
M  V30 1314 C 126.863 -1.13443 -1.73624 0
M  V30 1315 C 127.288 0.307565 -1.85568 0
M  V30 1316 O 126.646 1.22282 -1.33854 0
M  V30 1317 C 126.694 -1.79723 -3.12621 0
M  V30 1318 O 125.798 -1.07912 -3.98031 0
M  V30 1319 H 125.139 -0.395872 -0.533086 0
M  V30 1320 H 127.669 -1.66276 -1.1922 0
M  V30 1321 H 127.679 -1.86141 -3.63064 0
M  V30 1322 H 126.354 -2.84633 -3.03244 0
M  V30 1323 H 124.931 -1.09398 -3.56492 0
M  V30 1324 N 127.117 1.15442 -1.07289 0
M  V30 1325 C 128.049 2.19773 -0.650585 0
M  V30 1326 C 129.062 1.60076 0.296572 0
M  V30 1327 O 130.251 1.78293 0.0859905 0
M  V30 1328 C 127.351 3.38838 0.0650398 0
M  V30 1329 C 126.524 4.2808 -0.898141 0
M  V30 1330 C 125.583 5.2574 -0.219926 0
M  V30 1331 O 124.609 5.62654 -0.860773 0
M  V30 1332 N 125.811 5.71205 1.03466 0
M  V30 1333 H 128.576 2.56622 -1.54808 0
M  V30 1334 H 126.137 1.30551 -0.957494 0
M  V30 1335 H 128.129 4.01222 0.529415 0
M  V30 1336 H 126.699 3.00409 0.864466 0
M  V30 1337 H 125.919 3.62804 -1.54165 0
M  V30 1338 H 127.207 4.84577 -1.5512 0
M  V30 1339 H 126.605 5.43325 1.57526 0
M  V30 1340 H 125.162 6.35633 1.44272 0
M  V30 1341 N 128.595 0.856903 1.32268 0
M  V30 1342 C 129.505 0.306131 2.32594 0
M  V30 1343 C 130.521 -0.577209 1.64147 0
M  V30 1344 O 131.697 -0.477043 1.95669 0
M  V30 1345 C 128.762 -0.494561 3.43154 0
M  V30 1346 C 127.823 0.415186 4.27288 0
M  V30 1347 C 127.056 -0.347387 5.32568 0
M  V30 1348 O 127.279 -1.57708 5.48165 0
M  V30 1349 O 126.213 0.287982 6.01211 0
M  V30 1350 H 130.039 1.13737 2.81598 0
M  V30 1351 H 127.624 0.619902 1.35932 0
M  V30 1352 H 129.506 -0.948944 4.10576 0
M  V30 1353 H 128.181 -1.30257 2.96336 0
M  V30 1354 H 127.088 0.917793 3.62667 0
M  V30 1355 H 128.421 1.18844 4.77637 0
M  V30 1356 N 130.073 -1.45103 0.615059 0
M  V30 1357 C 131.005 -2.28786 -0.13762 0
M  V30 1358 C 132.018 -1.40376 -0.824525 0
M  V30 1359 O 133.207 -1.64681 -0.688662 0
M  V30 1360 C 130.307 -3.16322 -1.21628 0
M  V30 1361 C 129.48 -4.33054 -0.615039 0
M  V30 1362 C 128.539 -5.01743 -1.58556 0
M  V30 1363 O 127.565 -5.58293 -1.10895 0
M  V30 1364 N 128.767 -5.01714 -2.91998 0
M  V30 1365 H 131.532 -2.94025 0.580483 0
M  V30 1366 H 129.093 -1.55373 0.45507 0
M  V30 1367 H 131.085 -3.59139 -1.86552 0
M  V30 1368 H 129.655 -2.52943 -1.83681 0
M  V30 1369 H 128.875 -3.93627 0.21245 0
M  V30 1370 H 130.163 -5.08431 -0.193704 0
M  V30 1371 H 129.561 -4.57075 -3.33316 0
M  V30 1372 H 128.118 -5.48371 -3.52325 0
M  V30 1373 N 131.551 -0.354651 -1.53558 0
M  V30 1374 C 132.461 0.50515 -2.29097 0
M  V30 1375 C 133.477 1.10223 -1.34636 0
M  V30 1376 O 134.653 1.11553 -1.67684 0
M  V30 1377 C 131.718 1.63479 -3.05738 0
M  V30 1378 C 130.779 1.06636 -4.15845 0
M  V30 1379 C 130.012 2.14217 -4.88822 0
M  V30 1380 O 130.235 3.35137 -4.61562 0
M  V30 1381 O 129.169 1.77887 -5.75013 0
M  V30 1382 H 132.995 -0.109237 -3.03503 0
M  V30 1383 H 130.58 -0.119357 -1.48922 0
M  V30 1384 H 132.462 2.2918 -3.5363 0
M  V30 1385 H 131.137 2.23478 -2.34178 0
M  V30 1386 H 130.044 0.373565 -3.7223 0
M  V30 1387 H 131.377 0.511081 -4.89539 0
M  V30 1388 N 133.029 1.57378 -0.0835403 0
M  V30 1389 C 134.275 1.94217 0.583733 0
M  V30 1390 C 134.608 0.964653 1.68547 0
M  V30 1391 O 133.883 -0.00422258 1.945 0
M  V30 1392 C 134.166 3.41253 1.14972 0
M  V30 1393 C 134.019 4.49768 0.0538277 0
M  V30 1394 C 135.338 3.89352 2.05166 0
M  V30 1395 H 132.457 0.706233 0.210724 0
M  V30 1396 H 135.099 1.89392 -0.1519 0
M  V30 1397 H 133.249 3.45496 1.77665 0
M  V30 1398 H 134.921 4.57641 -0.579851 0
M  V30 1399 H 133.164 4.29432 -0.614068 0
M  V30 1400 H 133.835 5.49817 0.490452 0
M  V30 1401 H 136.311 3.87189 1.52393 0
M  V30 1402 H 135.187 4.92822 2.41698 0
M  V30 1403 H 135.448 3.27973 2.96456 0
M  V30 1404 N 134.507 -0.190092 1.56449 0
M  V30 1405 C 135.454 -1.23557 1.94942 0
M  V30 1406 C 136.424 -1.44972 0.810696 0
M  V30 1407 O 137.609 -1.58023 1.06927 0
M  V30 1408 C 134.749 -2.57416 2.2985 0
M  V30 1409 C 133.862 -2.43537 3.5681 0
M  V30 1410 C 132.997 -3.70134 3.81017 0
M  V30 1411 C 132.036 -3.51109 5.01387 0
M  V30 1412 N 131.173 -4.6973 5.21822 0
M  V30 1413 H 136.013 -0.900304 2.84075 0
M  V30 1414 H 133.55 -0.43318 1.40577 0
M  V30 1415 H 135.508 -3.35409 2.48106 0
M  V30 1416 H 134.138 -2.88975 1.43852 0
M  V30 1417 H 133.19 -1.56816 3.46573 0
M  V30 1418 H 134.502 -2.25415 4.4496 0
M  V30 1419 H 133.656 -4.56566 3.9954 0
M  V30 1420 H 132.395 -3.91215 2.91207 0
M  V30 1421 H 131.4 -2.63063 4.82782 0
M  V30 1422 H 132.625 -3.31468 5.9271 0
M  V30 1423 H 130.571 -4.91065 4.34961 0
M  V30 1424 H 130.488 -4.54452 6.0416 0
M  V30 1425 H 131.756 -5.57499 5.44808 0
M  V30 1426 N 135.985 -1.50799 -0.457987 0
M  V30 1427 C 136.917 -1.66786 -1.57211 0
M  V30 1428 C 137.93 -0.548962 -1.53265 0
M  V30 1429 O 139.119 -0.8226 -1.58416 0
M  V30 1430 C 136.219 -1.64834 -2.96113 0
M  V30 1431 C 135.392 -2.92971 -3.24787 0
M  V30 1432 C 134.451 -2.83485 -4.43309 0
M  V30 1433 O 133.477 -3.5744 -4.42973 0
M  V30 1434 N 134.679 -1.97929 -5.45714 0
M  V30 1435 H 137.444 -2.62889 -1.43909 0
M  V30 1436 H 135.005 -1.48427 -0.646617 0
M  V30 1437 H 136.997 -1.56084 -3.7339 0
M  V30 1438 H 135.567 -0.764118 -3.03117 0
M  V30 1439 H 134.787 -3.15749 -2.36 0
M  V30 1440 H 136.075 -3.77834 -3.40762 0
M  V30 1441 H 135.473 -1.37182 -5.48815 0
M  V30 1442 H 134.03 -1.95073 -6.21924 0
M  V30 1443 N 137.463 0.71206 -1.40597 0
M  V30 1444 C 138.711 1.46907 -1.38791 0
M  V30 1445 C 139.032 1.94998 0.00780391 0
M  V30 1446 O 138.302 1.70587 0.963174 0
M  V30 1447 H 136.882 0.545043 -0.51082 0
M  V30 1448 H 139.544 0.843882 -1.75683 0
M  V30 1449 H 138.64 2.34021 -2.06496 0
M  V30 1450 N 138.941 1.26152 0.944643 0
M  V30 1451 C 139.888 1.07408 2.04285 0
M  V30 1452 C 140.858 -0.0198413 1.66088 0
M  V30 1453 O 142.043 0.139264 1.90291 0
M  V30 1454 C 139.183 0.70945 3.37729 0
M  V30 1455 C 138.296 1.87926 3.88983 0
M  V30 1456 C 137.431 1.45807 5.10797 0
M  V30 1457 C 136.47 2.5964 5.54305 0
M  V30 1458 N 135.607 2.18226 6.67324 0
M  V30 1459 H 140.447 2.01389 2.1965 0
M  V30 1460 H 137.984 1.00275 1.07626 0
M  V30 1461 H 139.942 0.478948 4.14442 0
M  V30 1462 H 138.572 -0.193389 3.2222 0
M  V30 1463 H 137.624 2.22279 3.08701 0
M  V30 1464 H 138.936 2.73377 4.17213 0
M  V30 1465 H 138.09 1.18781 5.94959 0
M  V30 1466 H 136.829 0.574414 4.84305 0
M  V30 1467 H 135.834 2.87399 4.68702 0
M  V30 1468 H 137.059 3.48599 5.828 0
M  V30 1469 H 135.005 1.3229 6.42523 0
M  V30 1470 H 134.922 2.97221 6.95123 0
M  V30 1471 H 136.19 1.94403 7.54869 0
M  V30 1472 N 140.419 -1.14872 1.07899 0
M  V30 1473 C 141.349 -2.2193 0.725887 0
M  V30 1474 C 142.33 -1.67622 -0.28927 0
M  V30 1475 O 143.515 -1.93533 -0.160787 0
M  V30 1476 C 140.645 -3.47061 0.128856 0
M  V30 1477 C 139.599 -4.14363 1.07178 0
M  V30 1478 C 138.925 -5.33636 0.337229 0
M  V30 1479 C 140.225 -4.63492 2.40775 0
M  V30 1480 H 141.919 -2.51724 1.62097 0
M  V30 1481 H 139.465 -1.20991 0.780838 0
M  V30 1482 H 141.418 -4.21199 -0.130147 0
M  V30 1483 H 140.142 -3.16617 -0.80134 0
M  V30 1484 H 138.801 -3.42173 1.3158 0
M  V30 1485 H 138.449 -4.99449 -0.596606 0
M  V30 1486 H 138.149 -5.79609 0.965788 0
M  V30 1487 H 139.673 -6.10539 0.0861567 0
M  V30 1488 H 141.087 -5.2913 2.20669 0
M  V30 1489 H 139.484 -5.20148 2.99276 0
M  V30 1490 H 140.554 -3.78834 3.02676 0
M  V30 1491 N 141.898 -0.863906 -1.31812 0
M  V30 1492 C 142.828 -0.330843 -2.31144 0
M  V30 1493 C 143.809 0.575005 -1.60087 0
M  V30 1494 O 144.994 0.493304 -1.8783 0
M  V30 1495 C 142.124 0.47374 -3.44054 0
M  V30 1496 C 141.078 -0.338481 -4.26659 0
M  V30 1497 C 140.404 0.591412 -5.31419 0
M  V30 1498 C 141.704 -1.56926 -4.98168 0
M  V30 1499 H 143.398 -1.16086 -2.75979 0
M  V30 1500 H 140.944 -0.559657 -1.32679 0
M  V30 1501 H 142.897 0.857143 -4.12591 0
M  V30 1502 H 141.621 1.33721 -2.9797 0
M  V30 1503 H 140.28 -0.703754 -3.59782 0
M  V30 1504 H 139.928 1.45199 -4.81587 0
M  V30 1505 H 139.628 0.0519022 -5.87577 0
M  V30 1506 H 141.152 0.97179 -6.02817 0
M  V30 1507 H 142.566 -1.25764 -5.59336 0
M  V30 1508 H 140.963 -2.04739 -5.64094 0
M  V30 1509 H 142.033 -2.32544 -4.25501 0
M  V30 1510 N 143.376 1.44774 -0.622745 0
M  V30 1511 C 144.339 2.29069 0.0774015 0
M  V30 1512 C 145.339 1.4059 0.780461 0
M  V30 1513 O 146.529 1.62551 0.626322 0
M  V30 1514 C 143.661 3.21974 1.12006 0
M  V30 1515 H 144.854 2.92459 -0.663901 0
M  V30 1516 H 142.407 1.51548 -0.382486 0
M  V30 1517 H 143.142 2.63417 1.89162 0
M  V30 1518 H 142.927 3.87168 0.619951 0
M  V30 1519 H 144.417 3.85318 1.60995 0
M  V30 1520 N 144.854 0.36279 1.53368 0
M  V30 1521 C 146.131 -0.284021 1.93527 0
M  V30 1522 C 146.511 -1.66628 1.29608 0
M  V30 1523 O 145.859 -2.23942 0.45413 0
M  V30 1524 C 146.069 -0.337028 3.47369 0
M  V30 1525 C 147.417 -0.578708 4.20638 0
M  V30 1526 O 148.441 -0.418352 3.53735 0
M  V30 1527 O 147.3 -0.89074 5.39192 0
M  V30 1528 H 144.394 -0.169743 0.809393 0
M  V30 1529 H 146.94 0.41537 1.64538 0
M  V30 1530 H 145.712 0.632217 3.86159 0
M  V30 1531 H 145.335 -1.08243 3.82582 0
M  V30 1532 N 146.332 -1.57332 0.0918853 0
M  V30 1533 C 147.262 -2.16872 -0.865371 0
M  V30 1534 C 148.243 -1.10118 -1.29646 0
M  V30 1535 O 149.428 -1.38242 -1.36392 0
M  V30 1536 C 146.558 -2.74649 -2.12569 0
M  V30 1537 C 145.512 -3.86747 -1.83333 0
M  V30 1538 C 144.838 -4.31212 -3.16166 0
M  V30 1539 C 146.138 -5.10089 -1.1228 0
M  V30 1540 H 147.832 -2.97114 -0.369307 0
M  V30 1541 H 145.378 -1.42918 -0.176194 0
M  V30 1542 H 147.331 -3.14952 -2.7997 0
M  V30 1543 H 146.055 -1.91657 -2.64452 0
M  V30 1544 H 144.714 -3.46978 -1.18331 0
M  V30 1545 H 144.362 -3.45115 -3.6593 0
M  V30 1546 H 144.062 -5.06788 -2.97388 0
M  V30 1547 H 145.586 -4.74146 -3.84731 0
M  V30 1548 H 147 -5.47582 -1.69785 0
M  V30 1549 H 145.397 -5.91073 -1.03693 0
M  V30 1550 H 146.467 -4.84786 -0.105041 0
M  V30 1551 N 147.81 0.181792 -1.56548 0
M  V30 1552 C 148.773 1.20894 -1.94724 0
M  V30 1553 C 149.773 1.37738 -0.829747 0
M  V30 1554 O 150.963 1.35323 -1.09697 0
M  V30 1555 C 148.095 2.57593 -2.23291 0
M  V30 1556 H 149.288 0.882275 -2.86629 0
M  V30 1557 H 146.841 0.423838 -1.50444 0
M  V30 1558 H 147.576 2.95291 -1.34067 0
M  V30 1559 H 147.361 2.46735 -3.04736 0
M  V30 1560 H 148.851 3.31637 -2.53785 0
M  V30 1561 N 149.288 1.51039 0.449983 0
M  V30 1562 C 150.704 1.38934 0.785462 0
M  V30 1563 C 150.904 0.461817 1.96136 0
M  V30 1564 O 149.96 -0.0877389 2.52348 0
M  V30 1565 C 151.273 2.80724 1.0777 0
M  V30 1566 C 152.821 2.89787 1.1829 0
M  V30 1567 C 153.296 4.32457 1.50815 0
M  V30 1568 N 154.787 4.35505 1.57764 0
M  V30 1569 C 155.522 5.42914 1.84477 0
M  V30 1570 N 155.018 6.60502 2.09068 0
M  V30 1571 N 156.811 5.3038 1.86155 0
M  V30 1572 H 148.962 2.09904 -0.324647 0
M  V30 1573 H 151.225 0.944378 -0.0827957 0
M  V30 1574 H 150.931 3.50531 0.286498 0
M  V30 1575 H 150.805 3.19273 2.00859 0
M  V30 1576 H 153.192 2.20186 1.96474 0
M  V30 1577 H 153.273 2.54752 0.231314 0
M  V30 1578 H 152.917 5.02603 0.731622 0
M  V30 1579 H 152.847 4.64995 2.47158 0
M  V30 1580 H 155.338 3.50724 1.40715 0
M  V30 1581 H 155.651 7.38158 2.28785 0
M  V30 1582 H 153.996 6.63639 2.06416 0
M  V30 1583 H 157.187 4.37505 1.66454 0
M  V30 1584 H 157.36 6.1417 2.06637 0
M  V30 1585 N 150.766 -0.704594 1.40972 0
M  V30 1586 C 152.182 -1.01406 1.23244 0
M  V30 1587 C 152.382 -2.01169 0.115399 0
M  V30 1588 O 151.438 -2.47021 -0.523147 0
M  V30 1589 C 152.751 -1.54728 2.57836 0
M  V30 1590 C 154.299 -1.66658 2.64942 0
M  V30 1591 C 154.774 -2.23383 3.9983 0
M  V30 1592 N 156.265 -2.30756 4.01629 0
M  V30 1593 C 157 -2.75655 5.02794 0
M  V30 1594 N 156.496 -3.20225 6.14352 0
M  V30 1595 N 158.289 -2.75138 4.90159 0
M  V30 1596 H 150.44 -0.0435285 2.12355 0
M  V30 1597 H 152.703 -0.0818951 0.944456 0
M  V30 1598 H 152.409 -0.888832 3.40283 0
M  V30 1599 H 152.283 -2.53084 2.79693 0
M  V30 1600 H 154.67 -2.31617 1.8286 0
M  V30 1601 H 154.751 -0.668717 2.46904 0
M  V30 1602 H 154.395 -1.59043 4.82357 0
M  V30 1603 H 154.325 -3.23904 4.15203 0
M  V30 1604 H 156.816 -1.99291 3.21079 0
M  V30 1605 H 157.129 -3.53084 6.87424 0
M  V30 1606 H 155.474 -3.18156 6.17901 0
M  V30 1607 H 158.665 -2.39661 4.02095 0
M  V30 1608 H 158.838 -3.09812 5.6914 0
M  V30 1609 N 152.244 -1.26651 -0.937939 0
M  V30 1610 C 153.174 -1.10993 -2.05433 0
M  V30 1611 C 154.155 -0.0142161 -1.70094 0
M  V30 1612 O 155.34 -0.186837 -1.93299 0
M  V30 1613 C 152.47 -0.745561 -3.39203 0
M  V30 1614 C 151.424 -1.79337 -3.88616 0
M  V30 1615 C 150.75 -1.28324 -5.19073 0
M  V30 1616 C 152.05 -3.19553 -4.13138 0
M  V30 1617 H 153.744 -2.0438 -2.1879 0
M  V30 1618 H 151.29 -0.984041 -1.05131 0
M  V30 1619 H 153.243 -0.622888 -4.16771 0
M  V30 1620 H 151.967 0.22401 -3.25831 0
M  V30 1621 H 150.626 -1.90477 -3.13231 0
M  V30 1622 H 150.274 -0.303414 -5.02084 0
M  V30 1623 H 149.974 -1.98369 -5.53103 0
M  V30 1624 H 151.498 -1.1733 -5.99221 0
M  V30 1625 H 152.912 -3.11471 -4.81309 0
M  V30 1626 H 151.309 -3.87218 -4.58457 0
M  V30 1627 H 152.379 -3.65368 -3.18801 0
M  V30 1628 N 153.722 1.14298 -1.08507 0
M  V30 1629 C 154.97 1.84993 -0.813763 0
M  V30 1630 C 155.291 1.83405 0.662393 0
M  V30 1631 O 154.561 1.28319 1.48024 0
M  V30 1632 H 153.141 0.684966 -0.298045 0
M  V30 1633 H 155.803 1.385 -1.37126 0
M  V30 1634 H 154.899 2.89788 -1.15884 0
M  V30 1635 N 155.201 0.870884 1.31352 0
M  V30 1636 C 156.131 0.343096 2.30966 0
M  V30 1637 C 157.112 -0.566507 1.60389 0
M  V30 1638 O 158.297 -0.483336 1.88089 0
M  V30 1639 C 155.427 -0.455487 3.443 0
M  V30 1640 C 154.381 0.361103 4.26474 0
M  V30 1641 C 153.707 -0.563221 5.31725 0
M  V30 1642 C 155.007 1.59566 4.97329 0
M  V30 1643 H 156.701 1.17548 2.75359 0
M  V30 1644 H 154.247 0.566686 1.32381 0
M  V30 1645 H 156.2 -0.83525 4.13039 0
M  V30 1646 H 154.924 -1.32139 2.98675 0
M  V30 1647 H 153.583 0.722825 3.59403 0
M  V30 1648 H 153.231 -1.42643 4.82351 0
M  V30 1649 H 152.931 -0.0207409 5.87596 0
M  V30 1650 H 154.455 -0.939808 6.03324 0
M  V30 1651 H 155.869 1.28728 5.58661 0
M  V30 1652 H 154.266 2.07728 5.63 0
M  V30 1653 H 155.336 2.34798 4.24262 0
M  V30 1654 N 156.679 -1.44442 0.630414 0
M  V30 1655 C 157.629 -2.27794 -0.0968103 0
M  V30 1656 C 158.613 -1.38624 -0.816834 0
M  V30 1657 O 159.805 -1.62438 -0.70306 0
M  V30 1658 C 156.934 -3.25929 -1.07819 0
M  V30 1659 C 156.02 -4.22588 -0.357826 0
M  V30 1660 N 156.411 -5.0207 0.613169 0
M  V30 1661 C 154.709 -4.41914 -0.602365 0
M  V30 1662 C 155.41 -5.72351 1.03871 0
M  V30 1663 N 154.386 -5.42287 0.377642 0
M  V30 1664 H 158.188 -2.86653 0.648621 0
M  V30 1665 H 155.702 -1.55871 0.455862 0
M  V30 1666 H 157.699 -3.84399 -1.61378 0
M  V30 1667 H 156.359 -2.68631 -1.82393 0
M  V30 1668 H 157.37 -5.08331 0.990947 0
M  V30 1669 H 154.047 -3.95714 -1.33103 0
M  V30 1670 H 155.437 -6.4619 1.84086 0
M  V30 1671 N 158.157 -0.370918 -1.53173 0
M  V30 1672 C 159.387 0.217389 -2.05453 0
M  V30 1673 C 159.795 1.42568 -1.24382 0
M  V30 1674 O 159.138 1.81571 -0.278839 0
M  V30 1675 C 159.2 0.669827 -3.53205 0
M  V30 1676 C 158.864 -0.4225 -4.55043 0
M  V30 1677 C 159.861 -1.27407 -5.04047 0
M  V30 1678 C 157.546 -0.58427 -4.9889 0
M  V30 1679 C 159.54 -2.27271 -5.95505 0
M  V30 1680 C 157.227 -1.58627 -5.90153 0
M  V30 1681 C 158.225 -2.42892 -6.38351 0
M  V30 1682 O 157.913 -3.41382 -7.27814 0
M  V30 1683 H 157.645 0.0408171 -0.674767 0
M  V30 1684 H 160.199 -0.5292 -1.98466 0
M  V30 1685 H 158.429 1.4681 -3.57748 0
M  V30 1686 H 160.118 1.18173 -3.88317 0
M  V30 1687 H 160.884 -1.16031 -4.70916 0
M  V30 1688 H 156.763 0.061851 -4.60959 0
M  V30 1689 H 160.307 -2.93079 -6.33049 0
M  V30 1690 H 156.204 -1.70048 -6.22699 0
M  V30 1691 H 156.972 -3.37173 -7.45826 0
M  V30 1692 N 159.635 1.57281 -0.100228 0
M  V30 1693 C 160.881 1.94826 0.563101 0
M  V30 1694 C 161.214 0.982475 1.67514 0
M  V30 1695 O 160.489 0.0164069 1.94493 0
M  V30 1696 C 160.772 3.42453 1.11346 0
M  V30 1697 C 160.625 4.498 0.00612081 0
M  V30 1698 C 161.944 3.91506 2.01024 0
M  V30 1699 H 159.063 0.708428 0.203221 0
M  V30 1700 H 161.705 1.8922 -0.171979 0
M  V30 1701 H 159.855 3.47361 1.7399 0
M  V30 1702 H 161.527 4.57 -0.628357 0
M  V30 1703 H 159.77 4.28756 -0.659581 0
M  V30 1704 H 160.441 5.50306 0.432109 0
M  V30 1705 H 162.917 3.88784 1.48278 0
M  V30 1706 H 161.793 4.95358 2.36457 0
M  V30 1707 H 162.054 3.31099 2.92961 0
M  V30 1708 N 161.113 -0.173488 1.56642 0
M  V30 1709 C 162.359 -0.891784 1.8214 0
M  V30 1710 C 162.692 -1.8199 0.677736 0
M  V30 1711 O 161.967 -1.91842 -0.320446 0
M  V30 1712 C 162.25 -1.68933 3.18015 0
M  V30 1713 C 162.103 -0.784487 4.42906 0
M  V30 1714 C 163.422 -2.65748 3.50808 0
M  V30 1715 H 160.541 -0.322761 0.662567 0
M  V30 1716 H 163.183 -0.158095 1.89341 0
M  V30 1717 H 161.333 -2.31482 3.12007 0
M  V30 1718 H 163.005 -0.172046 4.60979 0
M  V30 1719 H 161.248 -0.0924117 4.33702 0
M  V30 1720 H 161.919 -1.37799 5.34524 0
M  V30 1721 H 164.395 -2.13327 3.57255 0
M  V30 1722 H 163.271 -3.18619 4.4696 0
M  V30 1723 H 163.532 -3.45842 2.75401 0
M  V30 1724 N 162.591 -1.51276 -0.441967 0
M  V30 1725 C 163.821 -1.67273 -1.21257 0
M  V30 1726 C 164.229 -0.367624 -1.85594 0
M  V30 1727 O 163.572 0.663349 -1.71305 0
M  V30 1728 C 163.634 -2.72807 -2.34129 0
M  V30 1729 C 163.298 -4.1554 -1.90198 0
M  V30 1730 C 164.295 -5.00471 -1.40801 0
M  V30 1731 C 161.98 -4.61616 -1.9803 0
M  V30 1732 C 163.974 -6.29536 -0.998174 0
M  V30 1733 C 161.661 -5.90679 -1.56658 0
M  V30 1734 C 162.659 -6.74466 -1.07633 0
M  V30 1735 O 162.347 -8.01116 -0.668459 0
M  V30 1736 H 162.079 -0.564614 -0.371734 0
M  V30 1737 H 164.633 -1.9843 -0.530521 0
M  V30 1738 H 162.863 -2.36954 -3.05597 0
M  V30 1739 H 164.552 -2.77729 -2.96009 0
M  V30 1740 H 165.318 -4.66079 -1.34148 0
M  V30 1741 H 161.197 -3.96526 -2.35135 0
M  V30 1742 H 164.741 -6.94885 -0.61482 0
M  V30 1743 H 160.638 -6.24586 -1.62979 0
M  V30 1744 H 161.406 -8.14633 -0.794722 0
M  V30 1745 N 164.069 0.697108 -1.41344 0
M  V30 1746 C 165.294 1.49096 -1.44171 0
M  V30 1747 C 165.719 1.88038 -0.0481568 0
M  V30 1748 O 165.077 1.54525 0.948243 0
M  V30 1749 C 165.125 2.73088 -2.3549 0
M  V30 1750 O 164.229 3.70514 -1.81088 0
M  V30 1751 H 163.57 0.448801 -0.489361 0
M  V30 1752 H 166.1 0.856992 -1.85787 0
M  V30 1753 H 166.11 3.21413 -2.51312 0
M  V30 1754 H 164.785 2.44081 -3.36745 0
M  V30 1755 H 163.362 3.29441 -1.74708 0
M  V30 1756 N 165.547 1.27147 0.931209 0
M  V30 1757 C 166.795 1.13055 1.6752 0
M  V30 1758 C 167.116 -0.324791 1.92276 0
M  V30 1759 O 166.386 -1.22775 1.52654 0
M  V30 1760 H 164.966 0.415391 0.620854 0
M  V30 1761 H 167.628 1.59623 1.11833 0
M  V30 1762 H 166.724 1.65694 2.64485 0
M  V30 1763 N 167.025 -1.13721 1.09112 0
M  V30 1764 C 167.955 -2.21148 0.749385 0
M  V30 1765 C 168.936 -1.6792 -0.271475 0
M  V30 1766 O 170.121 -1.93693 -0.140251 0
M  V30 1767 C 167.251 -3.46905 0.165659 0
M  V30 1768 C 166.205 -4.13203 1.11567 0
M  V30 1769 C 165.531 -5.33248 0.393809 0
M  V30 1770 C 166.831 -4.60912 2.45678 0
M  V30 1771 H 168.525 -2.4999 1.64758 0
M  V30 1772 H 166.071 -1.20156 0.793626 0
M  V30 1773 H 168.024 -4.21313 -0.085466 0
M  V30 1774 H 166.748 -3.17449 -0.767714 0
M  V30 1775 H 165.407 -3.40758 1.35202 0
M  V30 1776 H 165.055 -5.00054 -0.543599 0
M  V30 1777 H 164.755 -5.78552 1.02721 0
M  V30 1778 H 166.279 -6.10413 0.150908 0
M  V30 1779 H 167.693 -5.26759 2.26269 0
M  V30 1780 H 166.09 -5.16944 3.04776 0
M  V30 1781 H 167.16 -3.75603 3.06677 0
M  V30 1782 N 168.503 -0.877838 -1.30888 0
M  V30 1783 C 169.413 -0.343096 -2.32078 0
M  V30 1784 C 170.429 0.551022 -1.65045 0
M  V30 1785 O 171.605 0.445854 -1.96403 0
M  V30 1786 C 168.67 0.439905 -3.43898 0
M  V30 1787 C 167.731 -0.483111 -4.26573 0
M  V30 1788 C 166.964 0.262616 -5.33053 0
M  V30 1789 O 167.187 1.48967 -5.50604 0
M  V30 1790 O 166.121 -0.383593 -6.00676 0
M  V30 1791 H 169.947 -1.18203 -2.79753 0
M  V30 1792 H 167.532 -0.64145 -1.34929 0
M  V30 1793 H 169.414 0.883504 -4.12034 0
M  V30 1794 H 168.089 1.25526 -2.98371 0
M  V30 1795 H 166.996 -0.975374 -3.61161 0
M  V30 1796 H 168.329 -1.26427 -4.75686 0
M  V30 1797 N 169.982 1.44106 -0.638065 0
M  V30 1798 C 170.93 2.3248 0.0748149 0
M  V30 1799 C 171.924 1.47746 0.828702 0
M  V30 1800 O 173.13 1.64049 0.740816 0
M  V30 1801 H 169.505 0.750771 0.0429686 0
M  V30 1802 H 171.476 2.90348 -0.688504 0
M  V30 1803 C 170.225 3.31843 1.03805 0
M  V30 1804 H 169.548 3.97059 0.467375 0
M  V30 1805 H 170.988 3.96345 1.50622 0
M  V30 1806 C 169.447 2.61291 2.1267 0
M  V30 1807 O 169.977 2.41702 3.20847 0
M  V30 1808 N 168.183 2.20915 1.88798 0
M  V30 1809 H 167.73 2.37047 1.00829 0
M  V30 1810 H 167.688 1.74038 2.61836 0
M  V30 1811 N 171.46 0.379036 1.52974 0
M  V30 1812 C 172.709 -0.207612 2.00629 0
M  V30 1813 C 173.022 -1.48758 1.27006 0
M  V30 1814 O 174.228 -2.15365 1.65318 0
M  V30 1815 C 172.684 -0.42053 3.57435 0
M  V30 1816 C 172.292 0.845587 4.39948 0
M  V30 1817 C 174.036 -0.964102 4.13407 0
M  V30 1818 C 171.943 0.601513 5.88333 0
M  V30 1819 H 170.873 -0.0813591 0.749598 0
M  V30 1820 H 173.524 0.499853 1.76561 0
M  V30 1821 H 171.906 -1.18959 3.7771 0
M  V30 1822 H 173.08 1.61848 4.31442 0
M  V30 1823 H 171.395 1.31336 3.95145 0
M  V30 1824 H 173.992 -1.16225 5.21916 0
M  V30 1825 H 174.335 -1.93019 3.68849 0
M  V30 1826 H 174.868 -0.25487 3.96983 0
M  V30 1827 H 171.607 1.53831 6.37194 0
M  V30 1828 H 171.127 -0.132628 5.99653 0
M  V30 1829 H 172.806 0.232134 6.46583 0
M  V30 1830 N 172.938 -1.57226 0.108567 0
M  V30 1831 C 173.885 -2.14756 -0.845481 0
M  V30 1832 C 174.855 -1.06971 -1.27068 0
M  V30 1833 O 176.04 -1.34827 -1.35005 0
M  V30 1834 C 173.18 -2.74298 -2.09415 0
M  V30 1835 C 172.293 -3.96358 -1.71826 0
M  V30 1836 C 171.428 -4.44021 -2.9158 0
M  V30 1837 C 170.467 -5.58637 -2.50181 0
M  V30 1838 N 169.604 -6.01091 -3.62814 0
M  V30 1839 H 174.444 -2.95961 -0.348035 0
M  V30 1840 H 171.981 -1.46226 -0.160106 0
M  V30 1841 H 173.939 -3.06945 -2.82561 0
M  V30 1842 H 172.569 -1.95801 -2.56636 0
M  V30 1843 H 171.621 -3.69939 -0.885947 0
M  V30 1844 H 172.933 -4.79504 -1.37394 0
M  V30 1845 H 172.087 -4.78522 -3.72963 0
M  V30 1846 H 170.826 -3.59803 -3.29231 0
M  V30 1847 H 169.831 -5.23751 -1.67228 0
M  V30 1848 H 171.056 -6.44613 -2.13659 0
M  V30 1849 H 169.002 -5.19817 -4.00158 0
M  V30 1850 H 168.919 -6.79066 -3.32273 0
M  V30 1851 H 170.187 -6.40227 -4.44668 0
M  V30 1852 N 174.416 0.165178 -1.56732 0
M  V30 1853 C 175.363 1.2044 -1.96883 0
M  V30 1854 C 176.333 1.43664 -0.833657 0
M  V30 1855 O 177.518 1.56302 -1.09427 0
M  V30 1856 C 174.658 2.53727 -2.33916 0
M  V30 1857 C 173.771 2.3783 -3.6064 0
M  V30 1858 C 172.906 3.64026 -3.86857 0
M  V30 1859 C 171.945 3.43088 -5.06909 0
M  V30 1860 N 171.082 4.61369 -5.29229 0
M  V30 1861 H 175.922 0.854996 -2.85471 0
M  V30 1862 H 173.459 0.41076 -1.41249 0
M  V30 1863 H 175.417 3.31419 -2.53411 0
M  V30 1864 H 174.047 2.8665 -1.48431 0
M  V30 1865 H 173.099 1.51282 -3.49024 0
M  V30 1866 H 174.411 2.18308 -4.4849 0
M  V30 1867 H 173.565 4.50152 -4.06753 0
M  V30 1868 H 172.304 3.86533 -2.97394 0
M  V30 1869 H 171.309 2.55349 -4.86906 0
M  V30 1870 H 172.534 3.21997 -5.97909 0
M  V30 1871 H 170.48 4.84084 -4.42718 0
M  V30 1872 H 170.397 4.44783 -6.11313 0
M  V30 1873 H 171.665 5.48761 -5.53608 0
M  V30 1874 N 175.894 1.51508 0.433938 0
M  V30 1875 C 176.824 1.76016 1.53429 0
M  V30 1876 C 177.805 0.610112 1.58782 0
M  V30 1877 O 178.99 0.853177 1.74455 0
M  V30 1878 C 176.12 1.88831 2.9148 0
M  V30 1879 C 175.074 3.04288 3.00987 0
M  V30 1880 C 174.4 3.0229 4.4105 0
M  V30 1881 C 175.7 4.44193 2.74754 0
M  V30 1882 H 177.394 2.68152 1.33171 0
M  V30 1883 H 174.94 1.29035 0.639214 0
M  V30 1884 H 176.893 2.04559 3.6842 0
M  V30 1885 H 175.617 0.933455 3.12976 0
M  V30 1886 H 174.276 2.8827 2.26486 0
M  V30 1887 H 173.924 2.04576 4.59519 0
M  V30 1888 H 173.624 3.79822 4.4834 0
M  V30 1889 H 175.148 3.20116 5.1996 0
M  V30 1890 H 176.562 4.60544 3.41426 0
M  V30 1891 H 174.959 5.23457 2.9345 0
M  V30 1892 H 176.029 4.53996 1.70339 0
M  V30 1893 N 177.372 -0.689602 1.41712 0
M  V30 1894 C 178.6 -1.47827 1.44758 0
M  V30 1895 C 179.015 -1.88721 0.0545703 0
M  V30 1896 O 178.372 -1.57176 -0.927463 0
M  V30 1897 C 178.423 -2.73698 2.3616 0
M  V30 1898 O 178.144 -2.34524 3.7004 0
M  V30 1899 C 179.645 -3.67389 2.48072 0
M  V30 1900 H 176.865 -0.455357 0.49284 0
M  V30 1901 H 179.409 -0.848574 1.86063 0
M  V30 1902 H 177.564 -3.32891 1.98148 0
M  V30 1903 H 177.978 -3.15701 4.18847 0
M  V30 1904 H 179.452 -4.52475 3.16181 0
M  V30 1905 H 179.929 -4.12284 1.51388 0
M  V30 1906 H 180.535 -3.14097 2.86746 0
M  V30 1907 N 178.85 -1.27639 -0.924453 0
M  V30 1908 C 179.813 -1.10681 -2.00705 0
M  V30 1909 C 180.813 -0.0497823 -1.60723 0
M  V30 1910 O 182.003 -0.294654 -1.7169 0
M  V30 1911 C 179.135 -0.687164 -3.33902 0
M  V30 1912 H 180.328 -2.06817 -2.17179 0
M  V30 1913 H 177.881 -1.10473 -1.10569 0
M  V30 1914 H 178.616 0.275439 -3.23128 0
M  V30 1915 H 178.401 -1.45061 -3.6428 0
M  V30 1916 H 179.891 -0.590853 -4.13399 0
M  V30 1917 N 180.328 1.1314 -1.09713 0
M  V30 1918 C 181.576 1.84119 -0.833338 0
M  V30 1919 C 181.897 1.84097 0.642904 0
M  V30 1920 O 181.167 1.29881 1.46655 0
M  V30 1921 H 179.747 0.681766 -0.305293 0
M  V30 1922 H 182.409 1.37038 -1.38588 0
M  V30 1923 H 181.505 2.88543 -1.18951 0
M  V30 1924 N 181.806 0.884767 1.30421 0
M  V30 1925 C 183.222 0.57874 1.48737 0
M  V30 1926 C 183.422 -0.883567 1.81095 0
M  V30 1927 O 182.478 -1.6648 1.89844 0
M  V30 1928 C 183.791 1.49171 2.61091 0
M  V30 1929 C 185.339 1.49532 2.74971 0
M  V30 1930 C 185.814 2.39421 3.90438 0
M  V30 1931 N 187.305 2.37383 3.97748 0
M  V30 1932 C 188.04 3.03647 4.86401 0
M  V30 1933 N 187.536 3.79136 5.79852 0
M  V30 1934 N 189.329 2.9288 4.79768 0
M  V30 1935 H 181.48 1.83075 1.0769 0
M  V30 1936 H 183.743 0.783637 0.533495 0
M  V30 1937 H 183.449 2.53291 2.44001 0
M  V30 1938 H 183.323 1.20113 3.57565 0
M  V30 1939 H 185.71 0.46163 2.91467 0
M  V30 1940 H 185.791 1.8262 1.79119 0
M  V30 1941 H 185.435 3.42874 3.74699 0
M  V30 1942 H 185.365 2.03649 4.85628 0
M  V30 1943 H 187.856 1.82525 3.30897 0
M  V30 1944 H 188.169 4.26789 6.4426 0
M  V30 1945 H 186.514 3.83243 5.79784 0
M  V30 1946 H 189.705 2.33433 4.05742 0
M  V30 1947 H 189.878 3.448 5.4865 0
M  V30 1948 N 183.284 -1.43765 0.645699 0
M  V30 1949 C 184.214 -2.33471 -0.0370477 0
M  V30 1950 C 185.195 -1.49042 -0.819779 0
M  V30 1951 O 186.38 -1.77726 -0.782758 0
M  V30 1952 C 183.51 -3.32311 -1.0093 0
M  V30 1953 C 182.464 -4.2667 -0.337201 0
M  V30 1954 C 181.79 -5.1549 -1.42037 0
M  V30 1955 C 183.09 -5.16657 0.765706 0
M  V30 1956 H 184.784 -2.90809 0.712069 0
M  V30 1957 H 182.33 -1.39834 0.343876 0
M  V30 1958 H 184.283 -3.9396 -1.49578 0
M  V30 1959 H 183.007 -2.73213 -1.78948 0
M  V30 1960 H 181.666 -3.66374 0.128771 0
M  V30 1961 H 181.314 -4.52735 -2.1918 0
M  V30 1962 H 181.014 -5.79438 -0.975966 0
M  V30 1963 H 182.538 -5.80012 -1.90838 0
M  V30 1964 H 183.952 -5.72158 0.361702 0
M  V30 1965 H 182.349 -5.89286 1.13413 0
M  V30 1966 H 183.419 -4.56796 1.62683 0
M  V30 1967 N 184.763 -0.387143 -1.52771 0
M  V30 1968 C 185.726 0.436939 -2.24997 0
M  V30 1969 C 186.726 0.991991 -1.26555 0
M  V30 1970 O 187.916 0.874335 -1.50669 0
M  V30 1971 C 185.048 1.61281 -3.00335 0
M  V30 1972 H 186.241 -0.195365 -2.99263 0
M  V30 1973 H 183.794 -0.139218 -1.55679 0
M  V30 1974 H 184.529 2.2826 -2.30364 0
M  V30 1975 H 184.314 1.22154 -3.72587 0
M  V30 1976 H 185.804 2.19629 -3.5518 0
M  V30 1977 N 186.241 1.57166 -0.116904 0
M  V30 1978 C 187.204 2.14039 0.819742 0
M  V30 1979 C 188.204 1.07477 1.19605 0
M  V30 1980 O 189.394 1.33263 1.1219 0
M  V30 1981 C 186.526 2.67891 2.10826 0
M  V30 1982 H 187.719 2.98128 0.325511 0
M  V30 1983 H 185.272 1.55739 0.132312 0
M  V30 1984 H 186.007 1.87384 2.64685 0
M  V30 1985 H 185.792 3.45823 1.84793 0
M  V30 1986 H 187.282 3.11809 2.77785 0
M  V30 1987 N 187.719 -0.156864 1.56817 0
M  V30 1988 C 188.682 -1.17781 1.96622 0
M  V30 1989 C 189.682 -1.36401 0.851555 0
M  V30 1990 O 190.872 -1.33561 1.11836 0
M  V30 1991 C 188.004 -2.54008 2.27361 0
M  V30 1992 H 189.197 -0.836564 2.87996 0
M  V30 1993 H 186.75 -0.39985 1.51099 0
M  V30 1994 H 187.485 -2.9312 1.38748 0
M  V30 1995 H 187.27 -2.41856 3.08623 0
M  V30 1996 H 188.76 -3.27558 2.59029 0
M  V30 1997 N 189.197 -1.51736 -0.425897 0
M  V30 1998 C 190.147 -1.70258 -1.51645 0
M  V30 1999 C 191.131 -0.556488 -1.5097 0
M  V30 2000 O 192.323 -0.812879 -1.5723 0
M  V30 2001 C 189.452 -1.84143 -2.89735 0
M  V30 2002 C 188.538 -3.04572 -2.95122 0
M  V30 2003 N 188.929 -4.2756 -2.70233 0
M  V30 2004 C 187.227 -3.04061 -3.26286 0
M  V30 2005 C 187.928 -5.08908 -2.81757 0
M  V30 2006 N 186.904 -4.43797 -3.13919 0
M  V30 2007 H 190.706 -2.63004 -1.31172 0
M  V30 2008 H 188.22 -1.4954 -0.633375 0
M  V30 2009 H 190.217 -1.95525 -3.68206 0
M  V30 2010 H 188.877 -0.925857 -3.1122 0
M  V30 2011 H 189.888 -4.56315 -2.44943 0
M  V30 2012 H 186.565 -2.22179 -3.53473 0
M  V30 2013 H 187.955 -6.16843 -2.66372 0
M  V30 2014 N 190.675 0.682077 -1.42076 0
M  V30 2015 C 191.922 1.44215 -1.42156 0
M  V30 2016 C 192.25 1.94468 -0.0354186 0
M  V30 2017 O 191.505 1.70816 0.955002 0
M  V30 2018 C 191.804 2.66036 -2.38662 0
M  V30 2019 C 191.47 2.34366 -3.85206 0
M  V30 2020 C 190.132 2.25439 -4.25124 0
M  V30 2021 C 192.484 2.08513 -4.77673 0
M  V30 2022 C 189.812 1.88775 -5.55501 0
M  V30 2023 C 192.164 1.73354 -6.08384 0
M  V30 2024 C 190.828 1.62933 -6.47309 0
M  V30 2025 H 190.098 0.527718 -0.520187 0
M  V30 2026 H 192.745 0.778387 -1.74967 0
M  V30 2027 H 191.05 3.3741 -1.99152 0
M  V30 2028 H 192.747 3.24205 -2.35991 0
M  V30 2029 H 189.337 2.42213 -3.53597 0
M  V30 2030 H 193.521 2.14346 -4.47626 0
M  V30 2031 H 188.777 1.7927 -5.84527 0
M  V30 2032 H 192.951 1.52373 -6.79526 0
M  V30 2033 H 190.578 1.34292 -7.48244 0
M  V30 2034 N 192.153 1.28127 0.917671 0
M  V30 2035 C 193.43 1.05761 1.64542 0
M  V30 2036 C 193.81 -0.404344 2.07191 0
M  V30 2037 O 193.158 -1.38963 1.81388 0
M  V30 2038 C 193.368 2.02857 2.83989 0
M  V30 2039 C 194.716 2.32786 3.551 0
M  V30 2040 O 195.74 2.0091 2.94132 0
M  V30 2041 O 194.599 2.87169 4.64969 0
M  V30 2042 H 191.693 0.403916 0.721652 0
M  V30 2043 H 194.239 1.39431 0.967322 0
M  V30 2044 H 193.011 3.01407 2.49538 0
M  V30 2045 H 192.634 1.69809 3.59514 0
M  V30 2046 N 193.631 -1.12557 1.10312 0
M  V30 2047 C 194.879 -1.83675 0.843091 0
M  V30 2048 C 195.2 -1.84435 -0.633131 0
M  V30 2049 O 194.47 -1.30657 -1.45964 0
M  V30 2050 H 193.05 -0.680138 0.308904 0
M  V30 2051 H 195.712 -1.36301 1.39313 0
M  V30 2052 H 194.808 -2.87908 1.2048 0
M  V30 2053 N 195.109 -0.891671 -1.2995 0
M  V30 2054 C 196.056 -0.361736 -2.27948 0
M  V30 2055 C 197.026 0.551761 -1.56668 0
M  V30 2056 O 198.211 0.478736 -1.84696 0
M  V30 2057 C 195.351 0.411825 -3.42634 0
M  V30 2058 C 194.464 -0.531651 -4.28716 0
M  V30 2059 C 193.599 0.258167 -5.30572 0
M  V30 2060 C 192.638 -0.680349 -6.08307 0
M  V30 2061 N 191.775 0.0745613 -7.0206 0
M  V30 2062 H 196.615 -1.20254 -2.72659 0
M  V30 2063 H 194.152 -0.604352 -1.34112 0
M  V30 2064 H 196.11 0.876304 -4.07893 0
M  V30 2065 H 194.74 1.21715 -2.98974 0
M  V30 2066 H 193.792 -1.11463 -3.63703 0
M  V30 2067 H 195.104 -1.25038 -4.82874 0
M  V30 2068 H 194.258 0.784204 -6.0161 0
M  V30 2069 H 192.997 1.01008 -4.77126 0
M  V30 2070 H 192.002 -1.21796 -5.3614 0
M  V30 2071 H 193.227 -1.43145 -6.63842 0
M  V30 2072 H 191.173 0.808883 -6.50994 0
M  V30 2073 H 191.09 -0.584409 -7.53738 0
M  V30 2074 H 192.358 0.581123 -7.77331 0
M  V30 2075 N 196.587 1.43421 -0.653314 0
M  V30 2076 C 197.835 2.01414 -0.166415 0
M  V30 2077 C 198.156 1.51803 1.22397 0
M  V30 2078 O 197.426 0.730693 1.81763 0
M  V30 2079 H 196.006 0.744703 -0.0585319 0
M  V30 2080 H 198.668 1.75629 -0.845003 0
M  V30 2081 H 197.764 3.11734 -0.151111 0
M  V30 2082 N 198.065 0.39524 1.52563 0
M  V30 2083 C 198.975 -0.444232 2.30356 0
M  V30 2084 C 199.991 -1.06615 1.37511 0
M  V30 2085 O 201.167 -1.07067 1.70583 0
M  V30 2086 C 198.232 -1.55315 3.09964 0
M  V30 2087 C 197.293 -0.955734 4.18526 0
M  V30 2088 C 196.526 -2.01181 4.9433 0
M  V30 2089 O 196.749 -3.22781 4.70285 0
M  V30 2090 O 195.683 -1.62579 5.79527 0
M  V30 2091 H 199.509 0.189667 3.03107 0
M  V30 2092 H 197.094 0.1588 1.48554 0
M  V30 2093 H 198.976 -2.19724 3.59582 0
M  V30 2094 H 197.651 -2.17191 2.4002 0
M  V30 2095 H 196.558 -0.274743 3.7309 0
M  V30 2096 H 197.891 -0.381109 4.90722 0
M  V30 2097 N 199.544 -1.57102 0.125237 0
M  V30 2098 C 200.79 -1.95697 -0.532035 0
M  V30 2099 C 201.123 -1.009 -1.6593 0
M  V30 2100 O 200.398 -0.047347 -1.94442 0
M  V30 2101 C 200.681 -3.44181 -1.05884 0
M  V30 2102 C 200.534 -4.49752 0.0654392 0
M  V30 2103 C 201.853 -3.94655 -1.9477 0
M  V30 2104 H 198.972 -0.711571 -0.191925 0
M  V30 2105 H 201.614 -1.88923 0.20206 0
M  V30 2106 H 199.764 -3.50085 -1.68442 0
M  V30 2107 H 201.436 -4.55943 0.700982 0
M  V30 2108 H 199.679 -4.27653 0.727709 0
M  V30 2109 H 200.35 -5.50924 -0.344505 0
M  V30 2110 H 202.826 -3.91094 -1.42074 0
M  V30 2111 H 201.702 -4.99057 -2.28546 0
M  V30 2112 H 201.963 -3.35718 -2.87656 0
M  V30 2113 N 201.022 0.148545 -1.56898 0
M  V30 2114 C 201.932 1.20293 -2.01412 0
M  V30 2115 C 202.948 1.47107 -0.929273 0
M  V30 2116 O 204.124 1.58807 -1.23863 0
M  V30 2117 C 201.189 2.51682 -2.38447 0
M  V30 2118 C 200.25 2.32529 -3.60872 0
M  V30 2119 C 199.483 3.57653 -3.96132 0
M  V30 2120 O 199.706 4.63771 -3.32073 0
M  V30 2121 O 198.64 3.50408 -4.89385 0
M  V30 2122 H 202.466 0.855025 -2.91416 0
M  V30 2123 H 200.051 0.357151 -1.45068 0
M  V30 2124 H 201.933 3.29147 -2.63135 0
M  V30 2125 H 200.608 2.86006 -1.51599 0
M  V30 2126 H 199.515 1.53019 -3.41373 0
M  V30 2127 H 200.848 2.03121 -4.48333 0
M  V30 2128 N 202.5 1.5196 0.417844 0
M  V30 2129 C 203.41 1.77554 1.53336 0
M  V30 2130 C 204.426 0.660655 1.6097 0
M  V30 2131 O 205.602 0.945099 1.77848 0
M  V30 2132 C 202.667 1.91291 2.89152 0
M  V30 2133 C 201.728 3.15183 2.91475 0
M  V30 2134 C 200.961 3.28256 4.20813 0
M  V30 2135 O 201.184 2.46798 5.14244 0
M  V30 2136 O 200.118 4.21356 4.29817 0
M  V30 2137 H 203.944 2.7222 1.34647 0
M  V30 2138 H 201.529 1.36698 0.602828 0
M  V30 2139 H 203.411 2.02199 3.69721 0
M  V30 2140 H 202.086 0.998129 3.07927 0
M  V30 2141 H 200.993 3.09739 2.09791 0
M  V30 2142 H 202.326 4.06414 2.77648 0
M  V30 2143 N 203.978 -0.674533 1.42435 0
M  V30 2144 C 205.208 -1.46071 1.46105 0
M  V30 2145 C 205.616 -1.89067 0.0709605 0
M  V30 2146 O 204.959 -1.58731 -0.924677 0
M  V30 2147 C 205.021 -2.74145 2.32561 0
M  V30 2148 C 204.685 -2.53224 3.8043 0
M  V30 2149 C 205.682 -2.17809 4.72075 0
M  V30 2150 C 203.367 -2.6821 4.24698 0
M  V30 2151 C 205.361 -1.97648 6.05982 0
M  V30 2152 C 203.048 -2.47665 5.58664 0
M  V30 2153 C 204.046 -2.12437 6.49122 0
M  V30 2154 O 203.734 -1.9209 7.80613 0
M  V30 2155 H 203.466 -0.455959 0.499076 0
M  V30 2156 H 206.02 -0.836193 1.87609 0
M  V30 2157 H 204.25 -3.3908 1.85908 0
M  V30 2158 H 205.939 -3.36028 2.27683 0
M  V30 2159 H 206.705 -2.05826 4.39159 0
M  V30 2160 H 202.584 -2.94609 3.54579 0
M  V30 2161 H 206.128 -1.70075 6.7655 0
M  V30 2162 H 202.025 -2.59244 5.91154 0
M  V30 2163 H 202.793 -2.06686 7.91974 0
M  V30 2164 N 205.456 -1.28612 -0.910864 0
M  V30 2165 C 206.703 -1.15934 -1.66029 0
M  V30 2166 C 207.031 0.291483 -1.92303 0
M  V30 2167 O 206.286 1.22816 -1.52364 0
M  V30 2168 C 206.585 -1.90624 -3.0232 0
M  V30 2169 C 206.251 -3.40405 -2.95695 0
M  V30 2170 C 204.913 -3.81255 -2.93595 0
M  V30 2171 C 207.265 -4.359 -2.85728 0
M  V30 2172 C 204.593 -5.15936 -2.79334 0
M  V30 2173 C 206.945 -5.70657 -2.73007 0
M  V30 2174 C 205.609 -6.10779 -2.69267 0
M  V30 2175 H 204.879 -0.424234 -0.607541 0
M  V30 2176 H 207.526 -1.5942 -1.06101 0
M  V30 2177 H 205.831 -1.39696 -3.6605 0
M  V30 2178 H 207.528 -1.78228 -3.59215 0
M  V30 2179 H 204.118 -3.07927 -2.98125 0
M  V30 2180 H 208.302 -4.053 -2.86436 0
M  V30 2181 H 203.558 -5.46146 -2.74835 0
M  V30 2182 H 207.732 -6.44311 -2.64264 0
M  V30 2183 H 205.359 -7.1509 -2.57974 0
M  V30 2184 N 206.934 1.1197 -1.10907 0
M  V30 2185 C 208.35 1.35591 -0.841852 0
M  V30 2186 C 208.55 1.94233 0.536246 0
M  V30 2187 O 207.606 2.1717 1.28816 0
M  V30 2188 C 208.919 2.29284 -1.94549 0
M  V30 2189 C 210.467 2.42862 -1.97451 0
M  V30 2190 C 210.942 3.39873 -3.07002 0
M  V30 2191 N 212.433 3.47433 -3.06341 0
M  V30 2192 C 213.168 4.22421 -3.87748 0
M  V30 2193 N 212.664 5.00432 -4.79103 0
M  V30 2194 N 214.457 4.17876 -3.75946 0
M  V30 2195 H 206.608 0.722664 -1.99728 0
M  V30 2196 H 208.871 0.380635 -0.868229 0
M  V30 2197 H 208.577 1.93378 -2.93765 0
M  V30 2198 H 208.451 3.29452 -1.83688 0
M  V30 2199 H 210.838 2.78046 -0.988645 0
M  V30 2200 H 210.919 1.42566 -2.12388 0
M  V30 2201 H 210.563 3.05417 -4.05811 0
M  V30 2202 H 210.493 4.40011 -2.89306 0
M  V30 2203 H 212.984 2.91784 -2.40147 0
M  V30 2204 H 213.297 5.55002 -5.37766 0
M  V30 2205 H 211.642 4.99612 -4.83128 0
M  V30 2206 H 214.833 3.56016 -3.03924 0
M  V30 2207 H 215.006 4.76061 -4.39624 0
M  V30 2208 N 208.412 0.89855 1.29475 0
M  V30 2209 C 209.689 0.443416 1.90508 0
M  V30 2210 C 210.069 -1.07685 1.81569 0
M  V30 2211 O 209.417 -1.9182 1.24166 0
M  V30 2212 C 209.627 0.956708 3.35631 0
M  V30 2213 C 210.975 0.999728 4.12663 0
M  V30 2214 O 211.999 0.904299 3.4453 0
M  V30 2215 O 210.858 1.14289 5.34416 0
M  V30 2216 H 207.952 0.138025 0.815401 0
M  V30 2217 H 210.498 0.98834 1.37949 0
M  V30 2218 H 209.27 2.00067 3.36287 0
M  V30 2219 H 208.893 0.391728 3.95666 0
M  V30 2220 N 209.89 -1.43072 0.660911 0
M  V30 2221 C 211.139 -2.00942 0.174735 0
M  V30 2222 C 211.452 -1.52797 -1.22117 0
M  V30 2223 O 212.658 -2.02991 -1.80297 0
M  V30 2224 C 211.114 -3.58948 0.261559 0
M  V30 2225 C 210.722 -4.16085 1.66064 0
M  V30 2226 C 212.466 -4.24173 -0.166617 0
M  V30 2227 C 210.373 -5.6641 1.70098 0
M  V30 2228 H 209.303 -0.751483 0.0615631 0
M  V30 2229 H 211.954 -1.63955 0.824069 0
M  V30 2230 H 210.336 -3.93372 -0.455421 0
M  V30 2231 H 211.51 -3.93147 2.40359 0
M  V30 2232 H 209.825 -3.6326 2.03546 0
M  V30 2233 H 212.422 -5.34471 -0.156433 0
M  V30 2234 H 212.765 -3.98647 -1.19943 0
M  V30 2235 H 213.298 -3.94659 0.498875 0
M  V30 2236 H 210.037 -5.96715 2.71315 0
M  V30 2237 H 209.557 -5.91382 1.00139 0
M  V30 2238 H 211.236 -6.30585 1.44816 0
M  V30 2239 N 211.368 -0.403325 -1.52352 0
M  V30 2240 C 212.616 0.174003 -2.0135 0
M  V30 2241 C 212.937 1.46139 -1.29106 0
M  V30 2242 O 212.207 1.91448 -0.415253 0
M  V30 2243 H 210.787 0.0672911 -0.743963 0
M  V30 2244 H 213.449 -0.538235 -1.87321 0
M  V30 2245 H 212.545 0.374254 -3.09848 0
M  V30 2246 N 212.846 1.57033 -0.133567 0
M  V30 2247 C 214.092 1.95976 0.521649 0
M  V30 2248 C 214.425 1.01779 1.65393 0
M  V30 2249 O 213.7 0.0576581 1.94415 0
M  V30 2250 C 213.983 3.44738 1.04057 0
M  V30 2251 C 213.836 4.49711 -0.0892897 0
M  V30 2252 C 215.155 3.95682 1.92675 0
M  V30 2253 H 212.274 0.712579 0.188149 0
M  V30 2254 H 214.916 1.88813 -0.212076 0
M  V30 2255 H 213.066 3.50973 1.66583 0
M  V30 2256 H 214.738 4.55565 -0.725152 0
M  V30 2257 H 212.981 4.27261 -0.750378 0
M  V30 2258 H 213.652 5.51099 0.315284 0
M  V30 2259 H 216.128 3.91841 1.39998 0
M  V30 2260 H 215.004 5.00262 2.25897 0
M  V30 2261 H 215.265 3.37239 2.85872 0
M  V30 2262 N 214.325 -0.140222 1.56975 0
M  V30 2263 C 215.736 -0.699596 1.73097 0
M  V30 2264 C 216.087 -1.8134 0.749022 0
M  V30 2265 O 215.212 -2.16241 -0.0828503 0
M  V30 2266 C 215.807 -1.27582 3.1386 0
M  V30 2267 C 214.366 -1.78169 3.31561 0
M  V30 2268 C 213.513 -0.672855 2.69013 0
M  V30 2269 H 216.464 0.0855115 1.58469 0
M  V30 2270 H 216.485 -2.14561 3.14235 0
M  V30 2271 H 215.997 -0.464955 3.85305 0
M  V30 2272 H 214.098 -2.61801 2.65124 0
M  V30 2273 H 214.211 -1.90574 4.39566 0
M  V30 2274 H 212.575 -1.10118 2.29665 0
M  V30 2275 H 213.358 0.126679 3.43066 0
M  V30 2276 N 215.803 -1.52179 -0.40978 0
M  V30 2277 C 216.736 -1.70196 -1.52015 0
M  V30 2278 C 217.714 -0.549542 -1.53032 0
M  V30 2279 O 218.898 -0.776815 -1.71749 0
M  V30 2280 C 216.025 -1.74069 -2.90547 0
M  V30 2281 C 215.071 -2.95601 -3.07445 0
M  V30 2282 S 215.904 -4.55956 -2.80827 0
M  V30 2283 C 217.06 -4.62614 -4.21591 0
M  V30 2284 H 217.293 -2.64109 -1.36504 0
M  V30 2285 H 214.826 -1.4221 -0.601312 0
M  V30 2286 H 216.784 -1.76985 -3.70387 0
M  V30 2287 H 215.445 -0.812835 -3.034 0
M  V30 2288 H 214.638 -2.94791 -4.08796 0
M  V30 2289 H 214.24 -2.90569 -2.35469 0
M  V30 2290 H 216.532 -4.39951 -5.15218 0
M  V30 2291 H 217.475 -5.64548 -4.27424 0
M  V30 2292 H 217.883 -3.91654 -4.06531 0
M  V30 2293 N 217.281 0.66697 -1.42791 0
M  V30 2294 C 218.509 1.45505 -1.47091 0
M  V30 2295 C 218.924 1.8861 -0.0845873 0
M  V30 2296 O 218.281 1.58632 0.90234 0
M  V30 2297 C 218.332 2.69906 -2.40485 0
M  V30 2298 O 218.053 2.28608 -3.73725 0
M  V30 2299 C 219.554 3.63396 -2.53886 0
M  V30 2300 H 216.774 0.447459 -0.500022 0
M  V30 2301 H 219.318 0.818866 -1.8739 0
M  V30 2302 H 217.473 3.29696 -2.03419 0
M  V30 2303 H 217.887 3.08997 -4.23817 0
M  V30 2304 H 219.361 4.47387 -3.2334 0
M  V30 2305 H 219.838 4.09824 -1.57927 0
M  V30 2306 H 220.444 3.09495 -2.91706 0
M  V30 2307 N 218.759 1.29093 0.90403 0
M  V30 2308 C 219.984 1.19809 1.69294 0
M  V30 2309 C 220.409 -0.238481 1.86582 0
M  V30 2310 O 219.767 -1.1723 1.383 0
M  V30 2311 C 219.815 1.91202 3.05736 0
M  V30 2312 O 218.919 1.22611 3.93752 0
M  V30 2313 H 218.26 0.415385 0.518027 0
M  V30 2314 H 220.79 1.70586 1.12967 0
M  V30 2315 H 220.8 1.99487 3.55906 0
M  V30 2316 H 219.475 2.95692 2.92471 0
M  V30 2317 H 218.052 1.22554 3.52186 0
M  V30 2318 N 220.237 -1.11381 1.11499 0
M  V30 2319 C 221.483 -1.83403 0.865512 0
M  V30 2320 C 221.816 -1.84459 -0.607329 0
M  V30 2321 O 221.091 -1.29811 -1.44842 0
M  V30 2322 C 221.374 -3.30552 1.42855 0
M  V30 2323 C 221.227 -3.37886 2.96906 0
M  V30 2324 C 222.546 -4.26643 1.08 0
M  V30 2325 H 219.665 -0.665879 0.31587 0
M  V30 2326 H 222.307 -1.30601 1.37998 0
M  V30 2327 H 220.457 -3.75648 0.990985 0
M  V30 2328 H 222.129 -3.01343 3.49271 0
M  V30 2329 H 220.372 -2.78088 3.32941 0
M  V30 2330 H 221.043 -4.41458 3.31389 0
M  V30 2331 H 223.519 -3.89729 1.45775 0
M  V30 2332 H 222.395 -5.27986 1.50072 0
M  V30 2333 H 222.656 -4.42099 -0.00915037 0
M  V30 2334 N 221.715 -0.905404 -1.28997 0
M  V30 2335 C 223.131 -0.60233 -1.47798 0
M  V30 2336 C 223.331 0.854645 -1.82478 0
M  V30 2337 O 222.387 1.63439 -1.92468 0
M  V30 2338 C 223.7 -1.53306 -2.58685 0
M  V30 2339 C 225.248 -1.53887 -2.72558 0
M  V30 2340 C 225.723 -2.45602 -3.86579 0
M  V30 2341 N 227.214 -2.43681 -3.93921 0
M  V30 2342 C 227.949 -3.11347 -4.81509 0
M  V30 2343 N 227.445 -3.88313 -5.73746 0
M  V30 2344 N 229.238 -3.00476 -4.75048 0
M  V30 2345 H 221.389 -1.84765 -1.04764 0
M  V30 2346 H 223.652 -0.792025 -0.520961 0
M  V30 2347 H 223.358 -2.57141 -2.39941 0
M  V30 2348 H 223.232 -1.25787 -3.55609 0
M  V30 2349 H 225.619 -0.507941 -2.90696 0
M  V30 2350 H 225.7 -1.85447 -1.76191 0
M  V30 2351 H 225.344 -3.48792 -3.69197 0
M  V30 2352 H 225.274 -2.11349 -4.82327 0
M  V30 2353 H 227.765 -1.87767 -3.27951 0
M  V30 2354 H 228.078 -4.36985 -6.37389 0
M  V30 2355 H 226.423 -3.92419 -5.73614 0
M  V30 2356 H 229.614 -2.39858 -4.01977 0
M  V30 2357 H 229.787 -3.53485 -5.43095 0
M  V30 2358 N 223.193 1.4272 -0.668489 0
M  V30 2359 C 224.123 2.335 -0.000100175 0
M  V30 2360 C 225.104 1.50328 0.795964 0
M  V30 2361 O 226.289 1.78949 0.754385 0
M  V30 2362 C 223.419 3.33874 0.956302 0
M  V30 2363 C 222.373 4.27152 0.269278 0
M  V30 2364 C 221.699 5.17684 1.33818 0
M  V30 2365 C 222.999 5.15373 -0.847805 0
M  V30 2366 H 224.693 2.89639 -0.758244 0
M  V30 2367 H 222.239 1.39269 -0.366079 0
M  V30 2368 H 224.192 3.9629 1.43292 0
M  V30 2369 H 222.916 2.76025 1.74579 0
M  V30 2370 H 221.575 3.66123 -0.187042 0
M  V30 2371 H 221.223 4.56165 2.1195 0
M  V30 2372 H 220.923 5.80918 0.883659 0
M  V30 2373 H 222.447 5.82974 1.81586 0
M  V30 2374 H 223.861 5.7151 -0.452681 0
M  V30 2375 H 222.258 5.87407 -1.22773 0
M  V30 2376 H 223.328 4.5415 -1.69929 0
M  V30 2377 N 224.671 0.411399 1.52136 0
M  V30 2378 C 226.082 -0.0576826 1.86611 0
M  V30 2379 C 226.433 -1.44238 1.33003 0
M  V30 2380 O 225.558 -2.05759 0.670228 0
M  V30 2381 C 226.153 -0.111448 3.38617 0
M  V30 2382 C 224.712 -0.52487 3.72723 0
M  V30 2383 C 223.859 0.299176 2.75681 0
M  V30 2384 H 226.81 0.628368 1.4573 0
M  V30 2385 H 226.831 -0.926252 3.69054 0
M  V30 2386 H 226.343 0.896488 3.77604 0
M  V30 2387 H 224.444 -1.53936 3.39315 0
M  V30 2388 H 224.557 -0.267681 4.78352 0
M  V30 2389 H 222.921 -0.238814 2.53578 0
M  V30 2390 H 223.704 1.3055 3.17508 0
M  V30 2391 N 226.149 -1.5696 0.141893 0
M  V30 2392 C 227.389 -1.9785 -0.513304 0
M  V30 2393 C 227.753 -1.02467 -1.62371 0
M  V30 2394 O 228.954 -1.32382 -2.33941 0
M  V30 2395 C 227.225 -3.42797 -1.01118 0
M  V30 2396 S 228.784 -4.05709 -1.67169 0
M  V30 2397 H 225.602 -0.691318 -0.166135 0
M  V30 2398 H 228.204 -1.94114 0.232398 0
M  V30 2399 H 226.908 -4.0995 -0.192179 0
M  V30 2400 H 226.439 -3.50235 -1.79162 0
M  V30 2401 H 228.454 -3.98342 -2.95868 0
M  V30 2402 N 227.627 0.131896 -1.57047 0
M  V30 2403 C 228.857 0.855219 -1.88068 0
M  V30 2404 C 229.265 1.74557 -0.729817 0
M  V30 2405 O 228.608 1.81083 0.308962 0
M  V30 2406 C 228.67 1.75119 -3.13964 0
M  V30 2407 C 228.334 1.03646 -4.45091 0
M  V30 2408 C 229.331 0.383276 -5.18485 0
M  V30 2409 C 227.016 1.02148 -4.91804 0
M  V30 2410 C 229.01 -0.275347 -6.36805 0
M  V30 2411 C 226.697 0.359047 -6.10044 0
M  V30 2412 C 227.695 -0.288222 -6.82392 0
M  V30 2413 O 227.383 -0.94011 -7.98384 0
M  V30 2414 H 227.115 0.251864 -0.627328 0
M  V30 2415 H 229.669 0.124782 -2.05021 0
M  V30 2416 H 227.899 2.52295 -2.9306 0
M  V30 2417 H 229.588 2.3478 -3.31109 0
M  V30 2418 H 230.354 0.386562 -4.83457 0
M  V30 2419 H 226.233 1.5147 -4.35405 0
M  V30 2420 H 229.777 -0.781148 -6.93213 0
M  V30 2421 H 225.674 0.35348 -6.44531 0
M  V30 2422 H 226.442 -0.84329 -8.14144 0
M  V30 2423 N 229.106 1.52395 0.401703 0
M  V30 2424 C 230.353 1.66817 1.14796 0
M  V30 2425 C 230.681 0.401772 1.90305 0
M  V30 2426 O 229.936 -0.615487 1.85769 0
M  V30 2427 C 230.235 2.84578 2.16217 0
M  V30 2428 C 229.901 4.22513 1.5746 0
M  V30 2429 C 228.563 4.60029 1.41161 0
M  V30 2430 C 230.915 5.0844 1.14622 0
M  V30 2431 C 228.243 5.81144 0.80552 0
M  V30 2432 C 230.595 6.30167 0.55428 0
M  V30 2433 C 229.259 6.66426 0.378482 0
M  V30 2434 H 228.529 0.610428 0.420069 0
M  V30 2435 H 231.176 1.86512 0.434212 0
M  V30 2436 H 229.481 2.59248 2.93764 0
M  V30 2437 H 231.178 2.92933 2.73845 0
M  V30 2438 H 227.768 3.92953 1.71132 0
M  V30 2439 H 231.952 4.80034 1.26021 0
M  V30 2440 H 227.208 6.07855 0.657399 0
M  V30 2441 H 231.382 6.96071 0.213983 0
M  V30 2442 H 229.009 7.60143 -0.0932606 0
M  V30 2443 N 230.584 -0.659388 1.43143 0
M  V30 2444 C 231.494 -1.80167 1.50256 0
M  V30 2445 C 232.51 -1.69571 0.390106 0
M  V30 2446 O 233.686 -1.90849 0.643319 0
M  V30 2447 C 230.751 -3.16409 1.41725 0
M  V30 2448 C 229.812 -3.38848 2.63591 0
M  V30 2449 C 229.045 -4.68591 2.55458 0
M  V30 2450 O 229.268 -5.47532 1.59891 0
M  V30 2451 O 228.202 -4.92614 3.45854 0
M  V30 2452 H 232.028 -1.77121 2.46702 0
M  V30 2453 H 229.613 -0.817092 1.25076 0
M  V30 2454 H 231.495 -3.9768 1.39387 0
M  V30 2455 H 230.17 -3.20059 0.484118 0
M  V30 2456 H 229.077 -2.57366 2.71502 0
M  V30 2457 H 230.41 -3.4004 3.55856 0
M  V30 2458 N 232.062 -1.29571 -0.897171 0
M  V30 2459 C 233.01 -1.14802 -2.02295 0
M  V30 2460 C 234.004 -0.0629637 -1.69283 0
M  V30 2461 O 235.21 -0.222945 -1.78614 0
M  V30 2462 H 231.585 -0.354692 -0.663097 0
M  V30 2463 H 233.556 -2.10108 -2.11889 0
M  V30 2464 C 232.305 -0.843966 -3.37302 0
M  V30 2465 H 231.628 -1.67093 -3.63208 0
M  V30 2466 H 233.068 -0.780672 -4.16751 0
M  V30 2467 C 231.527 0.452843 -3.33843 0
M  V30 2468 O 232.057 1.47813 -3.73516 0
M  V30 2469 N 230.263 0.459601 -2.86943 0
M  V30 2470 H 229.81 -0.375213 -2.54853 0
M  V30 2471 H 229.768 1.32726 -2.85011 0
M  V30 2472 N 233.54 1.10788 -1.12088 0
M  V30 2473 C 234.47 2.19083 -0.807755 0
M  V30 2474 C 235.451 1.6858 0.226859 0
M  V30 2475 O 236.636 1.93997 0.0888475 0
M  V30 2476 C 233.766 3.46344 -0.257576 0
M  V30 2477 C 232.72 4.101 -1.22483 0
M  V30 2478 C 232.046 5.32016 -0.535052 0
M  V30 2479 C 233.346 4.54236 -2.57811 0
M  V30 2480 H 235.04 2.45534 -1.71328 0
M  V30 2481 H 232.586 1.1801 -0.825205 0
M  V30 2482 H 234.539 4.21392 -0.0262679 0
M  V30 2483 H 233.263 3.19373 0.683278 0
M  V30 2484 H 231.922 3.37054 -1.44189 0
M  V30 2485 H 231.57 5.01319 0.410827 0
M  V30 2486 H 231.27 5.75625 -1.18024 0
M  V30 2487 H 232.794 6.09799 -0.312695 0
M  V30 2488 H 234.208 5.20575 -2.40155 0
M  V30 2489 H 232.605 5.08682 -3.18375 0
M  V30 2490 H 233.675 3.6734 -3.16528 0
M  V30 2491 N 235.018 0.912232 1.28515 0
M  V30 2492 C 235.948 0.416403 2.29757 0
M  V30 2493 C 236.929 -0.515194 1.6211 0
M  V30 2494 O 238.114 -0.423253 1.89532 0
M  V30 2495 C 235.244 -0.34572 3.45575 0
M  V30 2496 C 234.198 0.496599 4.25109 0
M  V30 2497 C 233.524 -0.393771 5.33248 0
M  V30 2498 C 234.824 1.75307 4.92001 0
M  V30 2499 H 236.518 1.26249 2.7148 0
M  V30 2500 H 234.064 0.608515 1.30511 0
M  V30 2501 H 236.017 -0.703422 4.15488 0
M  V30 2502 H 234.741 -1.2257 3.02728 0
M  V30 2503 H 233.4 0.8368 3.56922 0
M  V30 2504 H 233.048 -1.27225 4.86644 0
M  V30 2505 H 232.748 0.166209 5.87365 0
M  V30 2506 H 234.272 -0.747389 6.06009 0
M  V30 2507 H 235.686 1.46437 5.54283 0
M  V30 2508 H 234.083 2.25534 5.56106 0
M  V30 2509 H 235.153 2.48176 4.16577 0
M  V30 2510 N 236.496 -1.42363 0.676048 0
M  V30 2511 C 237.721 -2.06377 0.205705 0
M  V30 2512 C 238.146 -1.50463 -1.12883 0
M  V30 2513 O 237.504 -0.623619 -1.70237 0
M  V30 2514 C 237.552 -3.60277 0.152655 0
M  V30 2515 O 236.656 -4.02935 -0.87845 0
M  V30 2516 H 235.997 -0.655588 0.105359 0
M  V30 2517 H 238.527 -1.82475 0.925412 0
M  V30 2518 H 238.537 -4.07993 -0.0230675 0
M  V30 2519 H 237.212 -4.00346 1.12675 0
M  V30 2520 H 235.789 -3.66764 -0.673668 0
M  V30 2521 N 237.974 -0.419461 -1.51915 0
M  V30 2522 C 238.924 0.418496 -2.24126 0
M  V30 2523 C 239.908 1.00495 -1.25656 0
M  V30 2524 O 241.1 0.926058 -1.50842 0
M  V30 2525 C 238.229 1.52899 -3.07371 0
M  V30 2526 C 237.315 0.952797 -4.13258 0
M  V30 2527 N 237.706 0.104175 -5.05693 0
M  V30 2528 C 236.004 1.22224 -4.28926 0
M  V30 2529 C 236.705 -0.21752 -5.81293 0
M  V30 2530 N 235.681 0.394293 -5.42168 0
M  V30 2531 H 239.483 -0.236048 -2.92951 0
M  V30 2532 H 236.997 -0.230481 -1.60756 0
M  V30 2533 H 238.994 2.14199 -3.57665 0
M  V30 2534 H 237.654 2.18605 -2.40088 0
M  V30 2535 H 238.665 -0.260924 -5.17242 0
M  V30 2536 H 235.342 1.87812 -3.72871 0
M  V30 2537 H 236.732 -0.906992 -6.6575 0
M  V30 2538 N 239.452 1.56882 -0.150215 0
M  V30 2539 C 240.699 1.96228 0.500093 0
M  V30 2540 C 241.027 1.03522 1.64661 0
M  V30 2541 O 240.282 0.0650683 1.95592 0
M  V30 2542 C 240.581 3.41801 1.04437 0
M  V30 2543 C 240.247 4.50897 0.0159671 0
M  V30 2544 C 238.909 4.8046 -0.266731 0
M  V30 2545 C 241.261 5.16703 -0.683192 0
M  V30 2546 C 238.589 5.73135 -1.25434 0
M  V30 2547 C 240.941 6.10441 -1.65964 0
M  V30 2548 C 239.605 6.38382 -1.95 0
M  V30 2549 H 238.875 0.718048 0.182997 0
M  V30 2550 H 241.522 1.90019 -0.237724 0
M  V30 2551 H 239.827 3.44857 1.85959 0
M  V30 2552 H 241.524 3.69573 1.55618 0
M  V30 2553 H 238.114 4.27891 0.246485 0
M  V30 2554 H 242.298 4.93993 -0.477983 0
M  V30 2555 H 237.554 5.93074 -1.48571 0
M  V30 2556 H 241.728 6.60507 -2.20689 0
M  V30 2557 H 239.355 7.09996 -2.71679 0
M  V30 2558 N 240.93 -0.123565 1.57115 0
M  V30 2559 C 241.86 -1.15309 2.03042 0
M  V30 2560 C 242.841 -1.43454 0.914061 0
M  V30 2561 O 244.026 -1.53973 1.18347 0
M  V30 2562 C 241.156 -2.48043 2.43089 0
M  V30 2563 C 240.11 -2.3437 3.58127 0
M  V30 2564 C 239.436 -3.72026 3.84059 0
M  V30 2565 C 240.736 -1.80804 4.90007 0
M  V30 2566 H 242.43 -0.771102 2.893 0
M  V30 2567 H 239.976 -0.369479 1.39179 0
M  V30 2568 H 241.929 -3.20311 2.73823 0
M  V30 2569 H 240.653 -2.88122 1.53796 0
M  V30 2570 H 239.312 -1.64551 3.27595 0
M  V30 2571 H 238.96 -4.09582 2.91979 0
M  V30 2572 H 238.66 -3.63732 4.6149 0
M  V30 2573 H 240.184 -4.45806 4.1724 0
M  V30 2574 H 241.598 -2.42886 5.19307 0
M  V30 2575 H 239.995 -1.83343 5.71407 0
M  V30 2576 H 241.065 -0.76528 4.78823 0
M  V30 2577 N 242.408 -1.52605 -0.393616 0
M  V30 2578 C 243.819 -1.59417 -0.971761 0
M  V30 2579 C 244.17 -0.444173 -1.91106 0
M  V30 2580 O 243.295 0.433382 -2.12016 0
M  V30 2581 C 243.89 -2.88936 -1.76921 0
M  V30 2582 C 242.449 -2.98175 -2.29714 0
M  V30 2583 C 241.596 -2.54491 -1.10135 0
M  V30 2584 H 244.547 -1.57751 -0.173317 0
M  V30 2585 H 244.568 -2.75163 -2.62804 0
M  V30 2586 H 244.08 -3.72616 -1.08532 0
M  V30 2587 H 242.181 -2.19024 -3.01429 0
M  V30 2588 H 242.294 -4.02726 -2.59517 0
M  V30 2589 H 240.658 -2.08702 -1.45999 0
M  V30 2590 H 241.441 -3.4056 -0.432874 0
M  V30 2591 N 243.887 0.651787 -1.4349 0
M  V30 2592 C 244.819 1.77725 -1.44729 0
M  V30 2593 C 245.832 1.59141 -0.343231 0
M  V30 2594 O 247.021 1.67835 -0.607751 0
M  V30 2595 C 244.121 3.15172 -1.24579 0
M  V30 2596 C 243.294 3.60402 -2.47849 0
M  V30 2597 C 242.353 4.76656 -2.22902 0
M  V30 2598 O 241.379 4.86022 -2.96263 0
M  V30 2599 N 242.581 5.66958 -1.24656 0
M  V30 2600 H 245.346 1.77141 -2.41746 0
M  V30 2601 H 242.907 0.835678 -1.38665 0
M  V30 2602 H 244.899 3.90634 -1.0577 0
M  V30 2603 H 243.469 3.1052 -0.360015 0
M  V30 2604 H 242.689 2.75369 -2.82073 0
M  V30 2605 H 243.977 3.87368 -3.29884 0
M  V30 2606 H 243.375 5.62065 -0.640265 0
M  V30 2607 H 241.932 6.42135 -1.1183 0
M  V30 2608 N 245.365 1.30045 0.890287 0
M  V30 2609 C 246.312 1.15976 1.99545 0
M  V30 2610 C 247.282 0.0506202 1.66023 0
M  V30 2611 O 248.467 0.219847 1.89529 0
M  V30 2612 C 245.607 0.852054 3.34416 0
M  V30 2613 C 244.72 2.04255 3.80662 0
M  V30 2614 C 243.855 1.6734 5.04154 0
M  V30 2615 C 242.894 2.82916 5.42794 0
M  V30 2616 N 242.031 2.46333 6.57468 0
M  V30 2617 H 246.871 2.10524 2.10911 0
M  V30 2618 H 244.408 1.04749 1.03276 0
M  V30 2619 H 246.366 0.654296 4.12037 0
M  V30 2620 H 244.996 -0.0565502 3.2275 0
M  V30 2621 H 244.048 2.35172 2.98995 0
M  V30 2622 H 245.36 2.90826 4.05242 0
M  V30 2623 H 244.514 1.43908 5.89386 0
M  V30 2624 H 243.253 0.779308 4.81433 0
M  V30 2625 H 242.258 3.0702 4.56091 0
M  V30 2626 H 243.483 3.73004 5.6749 0
M  V30 2627 H 241.429 1.59423 6.36334 0
M  V30 2628 H 241.346 3.26436 6.81891 0
M  V30 2629 H 242.614 2.26244 7.45945 0
M  V30 2630 N 246.843 -1.10192 1.12674 0
M  V30 2631 C 247.806 -2.14786 0.799979 0
M  V30 2632 C 248.806 -1.59711 -0.18685 0
M  V30 2633 O 249.996 -1.74156 0.0392558 0
M  V30 2634 C 247.128 -3.40374 0.189228 0
M  V30 2635 H 248.321 -2.45203 1.72671 0
M  V30 2636 H 245.874 -1.25597 0.930326 0
M  V30 2637 H 246.609 -3.15577 -0.747107 0
M  V30 2638 H 246.394 -3.81637 0.899766 0
M  V30 2639 H 247.884 -4.17594 -0.0228143 0
M  V30 2640 N 248.321 -0.919034 -1.28029 0
M  V30 2641 C 249.732 -0.600735 -1.76771 0
M  V30 2642 C 250.083 0.884024 -1.75156 0
M  V30 2643 O 249.208 1.69163 -1.34956 0
M  V30 2644 C 249.803 -1.08372 -3.21 0
M  V30 2645 C 248.362 -0.816248 -3.67443 0
M  V30 2646 C 247.509 -1.24742 -2.47658 0
M  V30 2647 H 250.46 -1.09974 -1.14418 0
M  V30 2648 H 250.481 -0.427512 -3.78091 0
M  V30 2649 H 249.993 -2.16437 -3.22144 0
M  V30 2650 H 248.094 0.250968 -3.71754 0
M  V30 2651 H 248.207 -1.4277 -4.57333 0
M  V30 2652 H 246.571 -0.666083 -2.45836 0
M  V30 2653 H 247.354 -2.33653 -2.51518 0
M  V30 2654 N 249.799 1.42003 -0.683588 0
M  V30 2655 C 251.076 1.95112 -0.138075 0
M  V30 2656 C 251.456 1.62359 1.34918 0
M  V30 2657 O 250.804 0.924311 2.08971 0
M  V30 2658 C 251.014 3.46505 -0.416581 0
M  V30 2659 C 252.362 4.23254 -0.337834 0
M  V30 2660 O 253.386 3.54468 -0.35082 0
M  V30 2661 O 252.245 5.45743 -0.287596 0
M  V30 2662 H 249.339 0.826961 -0.00797996 0
M  V30 2663 H 251.885 1.51784 -0.758924 0
M  V30 2664 H 250.657 3.63582 -1.4465 0
M  V30 2665 H 250.28 3.969 0.235839 0
M  V30 2666 N 251.277 0.427512 1.51691 0
M  V30 2667 C 252.525 -0.141948 2.01601 0
M  V30 2668 C 252.846 -1.44067 1.31414 0
M  V30 2669 O 252.116 -1.90763 0.445658 0
M  V30 2670 H 250.696 -0.0554468 0.744939 0
M  V30 2671 H 253.358 0.567968 1.86441 0
M  V30 2672 H 252.454 -0.324913 3.10404 0
M  V30 2673 N 252.755 -1.56801 0.158532 0
M  V30 2674 C 253.702 -2.17337 -0.776729 0
M  V30 2675 C 254.672 -1.1096 -1.23601 0
M  V30 2676 O 255.857 -1.39054 -1.30647 0
M  V30 2677 C 252.997 -2.80822 -2.00582 0
M  V30 2678 C 252.11 -4.01624 -1.59129 0
M  V30 2679 C 251.245 -4.53072 -2.77306 0
M  V30 2680 C 250.284 -5.66314 -2.32282 0
M  V30 2681 N 249.421 -6.12329 -3.43508 0
M  V30 2682 H 254.261 -2.96918 -0.253701 0
M  V30 2683 H 251.798 -1.46661 -0.113504 0
M  V30 2684 H 253.756 -3.15779 -2.72652 0
M  V30 2685 H 252.386 -2.03866 -2.50277 0
M  V30 2686 H 251.438 -3.72571 -0.767806 0
M  V30 2687 H 252.75 -4.83633 -1.2207 0
M  V30 2688 H 251.904 -4.90145 -3.57551 0
M  V30 2689 H 250.643 -3.70095 -3.17617 0
M  V30 2690 H 249.648 -5.28806 -1.5048 0
M  V30 2691 H 250.873 -6.51085 -1.93043 0
M  V30 2692 H 248.819 -5.32284 -3.83418 0
M  V30 2693 H 248.736 -6.89293 -3.105 0
M  V30 2694 H 250.004 -6.5405 -4.24075 0
M  V30 2695 N 254.233 0.115231 -1.57178 0
M  V30 2696 C 255.458 0.840354 -1.89612 0
M  V30 2697 C 255.883 1.72464 -0.750845 0
M  V30 2698 O 255.241 1.78826 0.298478 0
M  V30 2699 C 255.289 1.64654 -3.20814 0
M  V30 2700 O 254.393 2.7538 -3.06985 0
M  V30 2701 H 253.734 0.232158 -0.622092 0
M  V30 2702 H 256.264 0.0964977 -2.04372 0
M  V30 2703 H 256.274 2.03499 -3.53627 0
M  V30 2704 H 254.949 0.997416 -4.03763 0
M  V30 2705 H 253.526 2.3971 -2.85646 0
M  V30 2706 N 255.711 1.52812 0.385517 0
M  V30 2707 C 256.941 1.71658 1.14966 0
M  V30 2708 C 257.349 0.436253 1.84102 0
M  V30 2709 O 256.692 -0.599313 1.73649 0
M  V30 2710 C 256.754 2.81309 2.23843 0
M  V30 2711 C 256.418 4.22313 1.74644 0
M  V30 2712 C 257.415 5.05352 1.22129 0
M  V30 2713 C 255.1 4.68648 1.80761 0
M  V30 2714 C 257.094 6.32807 0.763838 0
M  V30 2715 C 254.781 5.96086 1.34627 0
M  V30 2716 C 255.779 6.77996 0.825264 0
M  V30 2717 O 255.467 8.03045 0.370669 0
M  V30 2718 H 255.199 0.578022 0.350523 0
M  V30 2719 H 257.753 2.00263 0.456509 0
M  V30 2720 H 255.983 2.48133 2.96592 0
M  V30 2721 H 257.672 2.88524 2.85497 0
M  V30 2722 H 258.438 4.70736 1.16758 0
M  V30 2723 H 254.317 4.04979 2.20256 0
M  V30 2724 H 257.861 6.96689 0.356494 0
M  V30 2725 H 253.758 6.30205 1.39686 0
M  V30 2726 H 254.526 8.17021 0.491829 0
M  V30 2727 N 257.189 -0.644168 1.43834 0
M  V30 2728 C 258.119 -1.76814 1.52509 0
M  V30 2729 C 259.1 -1.65823 0.379052 0
M  V30 2730 O 260.285 -1.84781 0.597466 0
M  V30 2731 C 257.415 -3.15288 1.4564 0
M  V30 2732 C 256.369 -3.41053 2.58586 0
M  V30 2733 C 255.695 -4.79421 2.36769 0
M  V30 2734 C 256.995 -3.34902 4.00797 0
M  V30 2735 H 258.689 -1.69812 2.46586 0
M  V30 2736 H 256.235 -0.815542 1.1868 0
M  V30 2737 H 258.188 -3.93681 1.50311 0
M  V30 2738 H 256.912 -3.23043 0.480725 0
M  V30 2739 H 255.571 -2.65035 2.53282 0
M  V30 2740 H 255.219 -4.83863 1.37424 0
M  V30 2741 H 254.919 -4.9762 3.12487 0
M  V30 2742 H 256.443 -5.6006 2.43238 0
M  V30 2743 H 257.857 -4.03218 4.07539 0
M  V30 2744 H 256.254 -3.64637 4.76613 0
M  V30 2745 H 257.324 -2.32928 4.25291 0
M  V30 2746 N 258.668 -1.30515 -0.883378 0
M  V30 2747 C 259.598 -1.19607 -2.00541 0
M  V30 2748 C 260.579 -0.086346 -1.69881 0
M  V30 2749 O 261.764 -0.268654 -1.92333 0
M  V30 2750 C 258.894 -0.888758 -3.35736 0
M  V30 2751 C 257.848 -1.95659 -3.8066 0
M  V30 2752 C 257.174 -1.50224 -5.13164 0
M  V30 2753 C 258.474 -3.36788 -3.99213 0
M  V30 2754 H 260.168 -2.13476 -2.09925 0
M  V30 2755 H 257.714 -1.02775 -1.00863 0
M  V30 2756 H 259.667 -0.799094 -4.13754 0
M  V30 2757 H 258.391 0.0856125 -3.26488 0
M  V30 2758 H 257.05 -2.03591 -3.04871 0
M  V30 2759 H 256.698 -0.516092 -5.00345 0
M  V30 2760 H 256.398 -2.2165 -5.44192 0
M  V30 2761 H 257.922 -1.42639 -5.93706 0
M  V30 2762 H 259.336 -3.31605 -4.67665 0
M  V30 2763 H 257.733 -4.06314 -4.41621 0
M  V30 2764 H 258.803 -3.78561 -3.03017 0
M  V30 2765 N 260.146 1.09593 -1.13257 0
M  V30 2766 C 261.371 1.8604 -0.916732 0
M  V30 2767 C 261.796 1.80504 0.529146 0
M  V30 2768 O 261.154 1.18127 1.37534 0
M  V30 2769 C 261.202 3.32017 -1.40703 0
M  V30 2770 O 260.306 4.08141 -0.591153 0
M  V30 2771 H 259.647 0.576943 -0.328683 0
M  V30 2772 H 262.177 1.38405 -1.50682 0
M  V30 2773 H 262.187 3.82865 -1.4099 0
M  V30 2774 H 260.862 3.35361 -2.45979 0
M  V30 2775 H 259.439 3.67084 -0.656005 0
M  V30 2776 N 261.624 0.925811 1.2754 0
M  V30 2777 C 262.554 0.440748 2.29303 0
M  V30 2778 C 263.535 -0.497971 1.62648 0
M  V30 2779 O 264.72 -0.403126 1.8997 0
M  V30 2780 C 261.85 -0.309048 3.45922 0
M  V30 2781 C 260.804 0.54166 4.24559 0
M  V30 2782 C 260.13 -0.337191 5.33636 0
M  V30 2783 C 261.43 1.80516 4.90114 0
M  V30 2784 H 263.124 1.29121 2.70126 0
M  V30 2785 H 260.67 0.622323 1.29858 0
M  V30 2786 H 262.623 -0.659315 4.1621 0
M  V30 2787 H 261.347 -1.19352 3.04011 0
M  V30 2788 H 260.006 0.874609 3.56014 0
M  V30 2789 H 259.654 -1.22056 4.87966 0
M  V30 2790 H 259.354 0.228497 5.87156 0
M  V30 2791 H 260.878 -0.683072 6.06767 0
M  V30 2792 H 262.292 1.52307 5.52698 0
M  V30 2793 H 260.689 2.3142 5.53683 0
M  V30 2794 H 261.759 2.52581 4.13921 0
M  V30 2795 N 263.102 -1.41638 0.69111 0
M  V30 2796 C 264.513 -1.84346 0.295517 0
M  V30 2797 C 264.864 -1.57833 -1.16547 0
M  V30 2798 O 263.989 -1.04648 -1.89414 0
M  V30 2799 C 264.584 -3.34636 0.529575 0
M  V30 2800 C 263.143 -3.7593 0.187944 0
M  V30 2801 C 262.29 -2.65082 0.814052 0
M  V30 2802 H 265.241 -1.31253 0.892092 0
M  V30 2803 H 265.262 -3.79903 -0.213148 0
M  V30 2804 H 264.774 -3.53901 1.59297 0
M  V30 2805 H 262.875 -3.62268 -0.871367 0
M  V30 2806 H 262.988 -4.74808 0.63985 0
M  V30 2807 H 261.352 -2.53528 0.244017 0
M  V30 2808 H 262.135 -2.87167 1.88123 0
M  V30 2809 N 264.58 -0.43555 -1.51462 0
M  V30 2810 C 265.808 0.130242 -2.0649 0
M  V30 2811 C 266.223 1.36614 -1.30315 0
M  V30 2812 O 265.58 1.78869 -0.362223 0
M  V30 2813 C 265.631 0.454253 -3.58635 0
M  V30 2814 O 265.352 -0.73259 -4.31931 0
M  V30 2815 C 266.853 1.07091 -4.3017 0
M  V30 2816 H 264.073 0.00871669 -0.670943 0
M  V30 2817 H 266.617 -0.614117 -1.95061 0
M  V30 2818 H 264.772 1.14851 -3.69984 0
M  V30 2819 H 265.186 -0.455787 -5.22516 0
M  V30 2820 H 266.66 1.24764 -5.37716 0
M  V30 2821 H 267.137 2.05144 -3.88346 0
M  V30 2822 H 267.743 0.416089 -4.2326 0
M  V30 2823 N 266.058 1.56714 -0.166846 0
M  V30 2824 C 267.306 1.96358 0.478305 0
M  V30 2825 C 267.627 1.0537 1.6408 0
M  V30 2826 O 266.897 0.119154 1.95537 0
M  V30 2827 H 265.477 0.725065 0.179692 0
M  V30 2828 H 268.139 1.93329 -0.246985 0
M  V30 2829 H 267.235 3.00547 0.841292 0
M  V30 2830 N 267.536 -0.106894 1.57237 0
M  V30 2831 C 268.813 -0.843526 1.76477 0
M  V30 2832 C 269.193 -1.97499 0.745464 0
M  V30 2833 O 268.541 -2.27357 -0.228306 0
M  V30 2834 C 268.751 -1.34903 3.21873 0
M  V30 2835 C 270.099 -1.79654 3.8472 0
M  V30 2836 O 271.123 -1.44554 3.2555 0
M  V30 2837 O 269.982 -2.44515 4.88748 0
M  V30 2838 H 267.076 -0.401468 0.723016 0
M  V30 2839 H 269.622 -0.0896927 1.69463 0
M  V30 2840 H 268.394 -0.53781 3.87586 0
M  V30 2841 H 268.017 -2.16522 3.33473 0
M  V30 2842 N 269.014 -1.53014 -0.377408 0
M  V30 2843 C 270.26 -1.68872 -1.12294 0
M  V30 2844 C 270.593 -0.433224 -1.89306 0
M  V30 2845 O 269.868 0.569258 -1.85983 0
M  V30 2846 C 270.151 -2.93115 -2.09179 0
M  V30 2847 C 270.004 -4.28794 -1.35853 0
M  V30 2848 C 271.323 -3.12928 -3.09458 0
M  V30 2849 H 268.442 -0.614518 -0.406862 0
M  V30 2850 H 271.084 -1.85633 -0.40503 0
M  V30 2851 H 269.234 -2.78956 -2.70399 0
M  V30 2852 H 270.906 -4.54742 -0.775082 0
M  V30 2853 H 269.149 -4.28744 -0.660364 0
M  V30 2854 H 269.82 -5.11837 -2.06706 0
M  V30 2855 H 272.296 -3.26194 -2.58334 0
M  V30 2856 H 271.172 -4.01316 -3.74482 0
M  V30 2857 H 271.433 -2.27669 -3.78971 0
M  V30 2858 N 270.492 0.636531 -1.44174 0
M  V30 2859 C 271.903 1.21806 -1.41493 0
M  V30 2860 C 272.254 1.95785 -0.1275 0
M  V30 2861 O 271.379 2.02147 0.772376 0
M  V30 2862 C 271.974 2.21551 -2.56321 0
M  V30 2863 C 270.533 2.75143 -2.56853 0
M  V30 2864 C 269.68 1.50052 -2.33195 0
M  V30 2865 H 272.631 0.427531 -1.52833 0
M  V30 2866 H 272.652 3.0405 -2.28765 0
M  V30 2867 H 272.164 1.67679 -3.50008 0
M  V30 2868 H 270.265 3.33033 -1.67093 0
M  V30 2869 H 270.378 3.2155 -3.55165 0
M  V30 2870 H 268.742 1.77993 -1.82183 0
M  V30 2871 H 269.525 0.980903 -3.28988 0
M  V30 2872 N 271.97 1.30982 0.876444 0
M  V30 2873 C 272.903 1.12414 1.98591 0
M  V30 2874 C 273.881 0.0294078 1.62573 0
M  V30 2875 O 275.065 0.184598 1.87594 0
M  V30 2876 C 272.192 0.716276 3.3104 0
M  V30 2877 C 271.238 1.81311 3.86042 0
M  V30 2878 S 272.071 3.41727 4.1229 0
M  V30 2879 C 273.227 3.02863 5.47745 0
M  V30 2880 H 273.46 2.06338 2.14037 0
M  V30 2881 H 270.993 1.15393 1.02586 0
M  V30 2882 H 272.951 0.487697 4.07593 0
M  V30 2883 H 271.612 -0.203749 3.13438 0
M  V30 2884 H 270.805 1.48021 4.81774 0
M  V30 2885 H 270.407 1.99641 3.16259 0
M  V30 2886 H 272.699 2.51353 6.29148 0
M  V30 2887 H 273.642 3.97533 5.8598 0
M  V30 2888 H 274.05 2.40487 5.10711 0
M  V30 2889 N 273.449 -1.08991 1.13837 0
M  V30 2890 C 274.726 -1.77863 0.813876 0
M  V30 2891 C 275.106 -1.99375 -0.693746 0
M  V30 2892 O 274.454 -1.59875 -1.63255 0
M  V30 2893 C 274.664 -3.0986 1.60586 0
M  V30 2894 C 276.012 -3.84493 1.8014 0
M  V30 2895 O 277.036 -3.19624 1.57222 0
M  V30 2896 O 275.895 -5.00957 2.18413 0
M  V30 2897 H 272.989 -0.771589 0.297624 0
M  V30 2898 H 275.535 -1.15507 1.24323 0
M  V30 2899 H 274.307 -2.89715 2.63022 0
M  V30 2900 H 273.93 -3.79942 1.17173 0
M  V30 2901 N 274.927 -0.932562 -1.27047 0
M  V30 2902 C 276.175 -0.574422 -1.93765 0
M  V30 2903 C 276.496 0.887993 -1.73608 0
M  V30 2904 O 275.766 1.62999 -1.08665 0
M  V30 2905 H 274.346 -0.209451 -0.717035 0
M  V30 2906 H 277.008 -1.18601 -1.5466 0
M  V30 2907 H 276.104 -0.784841 -3.02071 0
M  V30 2908 N 276.405 1.4127 -0.698611 0
M  V30 2909 C 277.338 2.28195 0.0153898 0
M  V30 2910 C 278.316 1.42402 0.784883 0
M  V30 2911 O 279.5 1.71828 0.775067 0
M  V30 2912 C 276.627 3.22685 1.02918 0
M  V30 2913 C 275.673 4.25041 0.352501 0
M  V30 2914 S 276.506 5.27757 -0.907322 0
M  V30 2915 C 277.662 6.25812 0.104796 0
M  V30 2916 H 277.895 2.88403 -0.721858 0
M  V30 2917 H 275.428 1.46452 -0.488996 0
M  V30 2918 H 277.386 3.77655 1.60893 0
M  V30 2919 H 276.047 2.61566 1.73902 0
M  V30 2920 H 275.24 4.91437 1.11828 0
M  V30 2921 H 274.842 3.73682 -0.154254 0
M  V30 2922 H 277.134 6.70705 0.957103 0
M  V30 2923 H 278.077 7.06149 -0.525323 0
M  V30 2924 H 278.485 5.62615 0.460931 0
M  V30 2925 N 277.883 0.443576 1.51229 0
M  V30 2926 C 279.108 -0.121648 2.07043 0
M  V30 2927 C 279.533 -1.35156 1.30823 0
M  V30 2928 O 278.891 -1.7793 0.347934 0
M  V30 2929 C 278.939 -0.41624 3.5819 0
M  V30 2930 O 278.043 -1.50163 3.8409 0
M  V30 2931 H 277.384 0.000871367 0.663999 0
M  V30 2932 H 279.914 0.626706 1.94765 0
M  V30 2933 H 279.924 -0.664867 4.02546 0
M  V30 2934 H 278.599 0.482653 4.1309 0
M  V30 2935 H 277.176 -1.24248 3.51592 0
M  V30 2936 N 279.361 -1.56624 0.175154 0
M  V30 2937 C 280.607 -1.9729 -0.469506 0
M  V30 2938 C 280.94 -1.06128 -1.62636 0
M  V30 2939 O 280.215 -0.109183 -1.94193 0
M  V30 2940 C 280.498 -3.47375 -0.948804 0
M  V30 2941 C 280.351 -4.49317 0.208491 0
M  V30 2942 C 281.67 -4.00652 -1.82116 0
M  V30 2943 H 278.789 -0.717317 -0.16919 0
M  V30 2944 H 281.431 -1.88184 0.262062 0
M  V30 2945 H 279.581 -3.55267 -1.57219 0
M  V30 2946 H 281.253 -4.53482 0.845682 0
M  V30 2947 H 279.496 -4.25121 0.863395 0
M  V30 2948 H 280.167 -5.51741 -0.169059 0
M  V30 2949 H 282.643 -3.95416 -1.2956 0
M  V30 2950 H 281.519 -5.06075 -2.12554 0
M  V30 2951 H 281.78 -3.44699 -2.7683 0
M  V30 2952 N 280.839 0.0985539 -1.57292 0
M  V30 2953 C 282.064 0.820196 -1.90493 0
M  V30 2954 C 282.489 1.71658 -0.769094 0
M  V30 2955 O 281.847 1.79133 0.279495 0
M  V30 2956 C 281.895 1.61242 -3.22542 0
M  V30 2957 O 280.999 2.72108 -3.09888 0
M  V30 2958 H 280.34 0.225547 -0.62452 0
M  V30 2959 H 282.87 0.0748159 -2.04463 0
M  V30 2960 H 282.88 1.99737 -3.55766 0
M  V30 2961 H 281.555 0.954535 -4.04798 0
M  V30 2962 H 280.132 2.36667 -2.88172 0
M  V30 2963 N 282.317 1.53212 0.369288 0
M  V30 2964 C 283.594 1.59815 1.12776 0
M  V30 2965 C 283.974 0.403402 2.0721 0
M  V30 2966 O 283.322 -0.606667 2.20299 0
M  V30 2967 C 283.532 2.94664 1.87013 0
M  V30 2968 C 284.88 3.49109 2.41677 0
M  V30 2969 O 285.904 2.96669 1.97144 0
M  V30 2970 O 284.763 4.40775 3.23079 0
M  V30 2971 H 281.857 0.645376 0.517125 0
M  V30 2972 H 284.403 1.65553 0.37285 0
M  V30 2973 H 283.175 3.73061 1.18071 0
M  V30 2974 H 282.798 2.92401 2.69421 0
M  V30 2975 N 283.795 -0.628877 1.44509 0
M  V30 2976 C 284.725 -1.75187 1.54376 0
M  V30 2977 C 285.706 -1.65411 0.396618 0
M  V30 2978 O 286.891 -1.84137 0.617031 0
M  V30 2979 C 284.021 -3.13725 1.48976 0
M  V30 2980 C 282.975 -3.38291 2.62189 0
M  V30 2981 C 282.301 -4.76883 2.41841 0
M  V30 2982 C 283.601 -3.30632 4.04326 0
M  V30 2983 H 285.295 -1.67187 2.48373 0
M  V30 2984 H 282.841 -0.802909 1.19538 0
M  V30 2985 H 284.794 -3.92064 1.54478 0
M  V30 2986 H 283.518 -3.22515 0.514961 0
M  V30 2987 H 282.177 -2.62334 2.56079 0
M  V30 2988 H 281.825 -4.82378 1.42548 0
M  V30 2989 H 281.525 -4.94278 3.17747 0
M  V30 2990 H 283.049 -5.57449 2.49165 0
M  V30 2991 H 284.463 -3.98873 4.11793 0
M  V30 2992 H 282.86 -3.59561 4.80454 0
M  V30 2993 H 283.93 -2.28404 4.27738 0
M  V30 2994 N 285.273 -1.31445 -0.869486 0
M  V30 2995 C 286.521 -1.20918 -1.61936 0
M  V30 2996 C 286.842 0.232683 -1.93607 0
M  V30 2997 O 286.112 1.15352 -1.58338 0
M  V30 2998 H 284.692 -0.44454 -0.600328 0
M  V30 2999 H 287.354 -1.64776 -1.0409 0
M  V30 3000 H 286.45 -1.78124 -2.56278 0
M  V30 3001 N 286.751 1.08385 -1.14413 0
M  V30 3002 C 288.162 1.62258 -0.923535 0
M  V30 3003 C 288.513 1.88691 0.537595 0
M  V30 3004 O 287.638 1.64454 1.40655 0
M  V30 3005 C 288.233 2.94781 -1.67002 0
M  V30 3006 C 286.792 3.45437 -1.495 0
M  V30 3007 C 285.939 2.19668 -1.69238 0
M  V30 3008 H 288.89 0.916086 -1.2959 0
M  V30 3009 H 288.911 3.63229 -1.13334 0
M  V30 3010 H 288.423 2.7551 -2.73342 0
M  V30 3011 H 286.524 3.6981 -0.455097 0
M  V30 3012 H 286.637 4.22173 -2.2651 0
M  V30 3013 H 285.001 2.28849 -1.11804 0
M  V30 3014 H 285.784 2.02905 -2.7692 0
M  V30 3015 N 288.23 0.939286 1.26551 0
M  V30 3016 C 289.476 0.586715 1.94128 0
M  V30 3017 C 289.809 -0.8717 1.73537 0
M  V30 3018 O 289.084 -1.62339 1.07127 0
M  V30 3019 C 289.367 0.927497 3.4795 0
M  V30 3020 C 289.22 2.44052 3.77834 0
M  V30 3021 C 290.539 0.441569 4.37879 0
M  V30 3022 H 287.658 0.21463 0.705055 0
M  V30 3023 H 290.3 1.17316 1.49455 0
M  V30 3024 H 288.45 0.428431 3.8613 0
M  V30 3025 H 290.122 3.01216 3.4938 0
M  V30 3026 H 288.365 2.8848 3.23978 0
M  V30 3027 H 289.036 2.62947 4.85348 0
M  V30 3028 H 291.512 0.869448 4.06915 0
M  V30 3029 H 290.388 0.708856 5.44304 0
M  V30 3030 H 290.649 -0.658467 4.37169 0
M  V30 3031 N 289.708 -1.40897 0.706093 0
M  V30 3032 C 290.954 -2.01352 0.241889 0
M  V30 3033 C 291.287 -1.55832 -1.15888 0
M  V30 3034 O 290.562 -0.774145 -1.7843 0
M  V30 3035 C 290.845 -3.58752 0.311311 0
M  V30 3036 C 290.698 -4.1437 1.74978 0
M  V30 3037 C 292.017 -4.38914 -0.322922 0
M  V30 3038 H 289.136 -0.731562 0.0893687 0
M  V30 3039 H 291.778 -1.67504 0.896802 0
M  V30 3040 H 289.928 -3.87718 -0.246302 0
M  V30 3041 H 291.6 -3.96239 2.36205 0
M  V30 3042 H 289.843 -3.69016 2.28057 0
M  V30 3043 H 290.514 -5.23532 1.74981 0
M  V30 3044 H 292.99 -4.15822 0.152089 0
M  V30 3045 H 291.866 -5.48358 -0.243855 0
M  V30 3046 H 292.127 -4.19176 -1.40513 0
M  V30 3047 N 291.186 -0.45159 -1.50991 0
M  V30 3048 C 292.116 0.342898 -2.30969 0
M  V30 3049 C 293.097 1.00815 -1.37005 0
M  V30 3050 O 294.282 1.00907 -1.65926 0
M  V30 3051 C 291.412 1.43637 -3.16205 0
M  V30 3052 C 290.366 0.893818 -4.18563 0
M  V30 3053 C 289.692 2.08411 -4.92411 0
M  V30 3054 C 290.992 -0.0815568 -5.22236 0
M  V30 3055 H 292.686 -0.324556 -2.97636 0
M  V30 3056 H 290.232 -0.157531 -1.43136 0
M  V30 3057 H 292.185 1.9995 -3.70942 0
M  V30 3058 H 290.909 2.13232 -2.47386 0
M  V30 3059 H 289.568 0.352798 -3.64898 0
M  V30 3060 H 289.216 2.76658 -4.20082 0
M  V30 3061 H 288.916 1.72741 -5.61636 0
M  V30 3062 H 290.44 2.65251 -5.49976 0
M  V30 3063 H 291.854 0.391742 -5.7196 0
M  V30 3064 H 290.251 -0.351551 -5.99069 0
M  V30 3065 H 291.321 -1.01374 -4.74185 0
M  V30 3066 N 292.664 1.56529 -0.183458 0
M  V30 3067 C 293.889 2.02064 0.467428 0
M  V30 3068 C 294.314 1.06282 1.55196 0
M  V30 3069 O 293.672 0.0443565 1.81246 0
M  V30 3070 C 293.72 3.46122 1.01153 0
M  V30 3071 O 292.824 3.53437 2.12499 0
M  V30 3072 H 292.165 0.654726 0.110588 0
M  V30 3073 H 294.695 2.02521 -0.290917 0
M  V30 3074 H 294.705 3.85676 1.33108 0
M  V30 3075 H 293.38 4.15331 0.217533 0
M  V30 3076 H 291.957 3.2575 1.81497 0
M  V30 3077 N 294.142 -0.090211 1.57342 0
M  V30 3078 C 295.072 -1.10976 2.05443 0
M  V30 3079 C 296.053 -1.41482 0.944284 0
M  V30 3080 O 297.238 -1.51428 1.21586 0
M  V30 3081 C 294.368 -2.42831 2.48295 0
M  V30 3082 C 293.322 -2.26721 3.63018 0
M  V30 3083 C 292.648 -3.63796 3.91863 0
M  V30 3084 C 293.948 -1.7037 4.93732 0
M  V30 3085 H 295.642 -0.709564 2.9087 0
M  V30 3086 H 293.188 -0.339874 1.39932 0
M  V30 3087 H 295.141 -3.14431 2.80555 0
M  V30 3088 H 293.865 -2.84795 1.59873 0
M  V30 3089 H 292.524 -1.57565 3.31012 0
M  V30 3090 H 292.172 -4.03297 3.00601 0
M  V30 3091 H 291.872 -3.53861 4.69101 0
M  V30 3092 H 293.396 -4.36855 4.26603 0
M  V30 3093 H 294.81 -2.31816 5.24342 0
M  V30 3094 H 293.207 -1.71181 5.75167 0
M  V30 3095 H 294.277 -0.663542 4.80339 0
M  V30 3096 N 295.62 -1.53406 -0.361157 0
M  V30 3097 C 296.55 -1.83136 -1.44857 0
M  V30 3098 C 297.531 -0.685174 -1.5569 0
M  V30 3099 O 298.716 -0.93544 -1.70186 0
M  V30 3100 C 295.846 -2.02522 -2.82138 0
M  V30 3101 C 294.8 -3.18302 -2.86126 0
M  V30 3102 C 294.126 -3.22989 -4.26125 0
M  V30 3103 C 295.426 -4.56796 -2.53248 0
M  V30 3104 H 297.12 -2.74201 -1.20226 0
M  V30 3105 H 294.666 -1.31938 -0.576922 0
M  V30 3106 H 296.619 -2.21904 -3.58241 0
M  V30 3107 H 295.343 -1.08172 -3.08166 0
M  V30 3108 H 294.002 -2.98747 -2.12475 0
M  V30 3109 H 293.65 -2.26267 -4.49235 0
M  V30 3110 H 293.35 -4.00781 -4.29708 0
M  V30 3111 H 294.874 -3.44559 -5.04094 0
M  V30 3112 H 296.288 -4.7631 -3.19064 0
M  V30 3113 H 294.685 -5.36862 -2.68141 0
M  V30 3114 H 295.755 -4.61606 -1.48484 0
M  V30 3115 N 297.098 0.621204 -1.44841 0
M  V30 3116 C 298.045 1.73267 -1.5247 0
M  V30 3117 C 299.015 1.6189 -0.371611 0
M  V30 3118 O 300.2 1.81668 -0.58321 0
M  V30 3119 C 297.34 3.11545 -1.48438 0
M  V30 3120 C 296.453 3.33827 -2.74196 0
M  V30 3121 C 295.588 4.62133 -2.61929 0
M  V30 3122 C 294.627 4.77627 -3.82804 0
M  V30 3123 N 293.764 5.97219 -3.69153 0
M  V30 3124 H 298.604 1.66082 -2.47428 0
M  V30 3125 H 296.141 0.810026 -1.22788 0
M  V30 3126 H 298.099 3.91528 -1.4409 0
M  V30 3127 H 296.729 3.1772 -0.570402 0
M  V30 3128 H 295.781 2.47715 -2.88689 0
M  V30 3129 H 297.093 3.41153 -3.6389 0
M  V30 3130 H 296.247 5.50291 -2.5547 0
M  V30 3131 H 294.986 4.57182 -1.69811 0
M  V30 3132 H 293.991 3.87896 -3.89637 0
M  V30 3133 H 295.216 4.84385 -4.75971 0
M  V30 3134 H 293.162 5.93339 -2.79794 0
M  V30 3135 H 293.079 6.05644 -4.52472 0
M  V30 3136 H 294.347 6.87912 -3.66603 0
M  V30 3137 N 298.576 1.31904 0.862503 0
M  V30 3138 C 299.509 1.14514 1.97388 0
M  V30 3139 C 300.487 0.0466493 1.62533 0
M  V30 3140 O 301.671 0.204484 1.87388 0
M  V30 3141 C 298.798 0.751347 3.30261 0
M  V30 3142 C 297.844 1.85395 3.84098 0
M  V30 3143 S 298.677 3.46081 4.08642 0
M  V30 3144 C 299.833 3.08655 5.44502 0
M  V30 3145 H 300.066 2.08597 2.11836 0
M  V30 3146 H 297.599 1.16475 1.01356 0
M  V30 3147 H 299.557 0.530901 4.07052 0
M  V30 3148 H 298.218 -0.170493 3.13637 0
M  V30 3149 H 297.411 1.53122 4.80177 0
M  V30 3150 H 297.013 2.02984 3.14123 0
M  V30 3151 H 299.305 2.58012 6.26447 0
M  V30 3152 H 300.248 4.03726 5.81731 0
M  V30 3153 H 300.656 2.45891 5.08132 0
M  V30 3154 N 300.054 -1.07777 1.14986 0
M  V30 3155 C 301.465 -1.61766 0.932127 0
M  V30 3156 C 301.816 -1.88974 -0.527581 0
M  V30 3157 O 300.941 -1.65198 -1.39781 0
M  V30 3158 C 301.536 -2.93891 1.68563 0
M  V30 3159 C 300.095 -3.44639 1.5133 0
M  V30 3160 C 299.242 -2.18767 1.704 0
M  V30 3161 H 302.193 -0.909201 1.30074 0
M  V30 3162 H 302.214 -3.62623 1.15259 0
M  V30 3163 H 301.726 -2.74057 2.74799 0
M  V30 3164 H 299.827 -3.69564 0.474702 0
M  V30 3165 H 299.94 -4.20966 2.28746 0
M  V30 3166 H 298.304 -2.28253 1.13016 0
M  V30 3167 H 299.087 -2.01433 2.77992 0
M  V30 3168 N 301.532 -0.945985 -1.26051 0
M  V30 3169 C 302.442 -0.465633 -2.29933 0
M  V30 3170 C 303.458 0.462761 -1.67733 0
M  V30 3171 O 304.634 0.341118 -1.9849 0
M  V30 3172 C 301.699 0.256994 -3.45746 0
M  V30 3173 C 300.76 -0.708549 -4.23412 0
M  V30 3174 C 299.993 -0.0203135 -5.33696 0
M  V30 3175 O 300.216 1.19571 -5.57726 0
M  V30 3176 O 299.15 -0.701459 -5.97799 0
M  V30 3177 H 302.976 -1.32866 -2.73094 0
M  V30 3178 H 300.561 -0.712071 -1.31339 0
M  V30 3179 H 302.443 0.663852 -4.16138 0
M  V30 3180 H 301.118 1.09533 -3.04605 0
M  V30 3181 H 300.025 -1.16545 -3.55483 0
M  V30 3182 H 301.358 -1.51465 -4.68315 0
M  V30 3183 N 303.011 1.40521 -0.713556 0
M  V30 3184 C 303.958 2.30723 -0.059684 0
M  V30 3185 C 304.928 1.48079 0.752448 0
M  V30 3186 O 306.113 1.76823 0.71681 0
M  V30 3187 C 303.253 3.34274 0.857594 0
M  V30 3188 C 302.366 4.31986 0.0351536 0
M  V30 3189 C 301.501 5.22605 0.951724 0
M  V30 3190 C 300.54 6.11976 0.123253 0
M  V30 3191 N 299.677 6.9502 0.99459 0
M  V30 3192 H 304.517 2.86074 -0.834596 0
M  V30 3193 H 302.054 1.40879 -0.42326 0
M  V30 3194 H 304.012 3.92879 1.40364 0
M  V30 3195 H 302.642 2.8043 1.59871 0
M  V30 3196 H 301.694 3.7518 -0.628052 0
M  V30 3197 H 303.006 4.95101 -0.606347 0
M  V30 3198 H 302.16 5.86131 1.56638 0
M  V30 3199 H 300.899 4.59759 1.62705 0
M  V30 3200 H 299.904 5.47482 -0.50435 0
M  V30 3201 H 301.129 6.76881 -0.548539 0
M  V30 3202 H 299.075 6.34764 1.6556 0
M  V30 3203 H 298.992 7.54892 0.40908 0
M  V30 3204 H 300.26 7.62997 1.59549 0
M  V30 3205 N 304.489 0.459591 1.5075 0
M  V30 3206 C 305.719 -0.0972338 2.06371 0
M  V30 3207 C 306.127 -1.35074 1.32483 0
M  V30 3208 O 305.47 -1.79637 0.384226 0
M  V30 3209 C 305.532 -0.462759 3.56509 0
M  V30 3210 C 305.196 0.687084 4.51805 0
M  V30 3211 C 306.193 1.56578 4.95761 0
M  V30 3212 C 303.878 0.874144 4.94635 0
M  V30 3213 C 305.872 2.61604 5.81242 0
M  V30 3214 C 303.559 1.92765 5.79901 0
M  V30 3215 C 304.557 2.79697 6.23104 0
M  V30 3216 O 304.245 3.83235 7.06673 0
M  V30 3217 H 303.977 -0.00140687 0.675999 0
M  V30 3218 H 306.531 0.644011 1.95043 0
M  V30 3219 H 304.761 -1.25703 3.65699 0
M  V30 3220 H 306.45 -0.953323 3.94546 0
M  V30 3221 H 307.216 1.4329 4.6335 0
M  V30 3222 H 303.095 0.207006 4.60535 0
M  V30 3223 H 306.639 3.29489 6.14884 0
M  V30 3224 H 302.536 2.06064 6.11725 0
M  V30 3225 H 303.304 3.80084 7.24899 0
M  V30 3226 N 305.967 -1.56429 0.191757 0
M  V30 3227 C 307.213 -1.97777 -0.448554 0
M  V30 3228 C 307.546 -1.07847 -1.61501 0
M  V30 3229 O 306.821 -0.129774 -1.94067 0
M  V30 3230 C 307.104 -3.48362 -0.911906 0
M  V30 3231 C 306.957 -4.4907 0.256136 0
M  V30 3232 C 308.276 -4.02561 -1.77857 0
M  V30 3233 H 305.395 -0.719071 -0.161572 0
M  V30 3234 H 308.037 -1.87896 0.282007 0
M  V30 3235 H 306.187 -3.56914 -1.53442 0
M  V30 3236 H 307.859 -4.5256 0.893733 0
M  V30 3237 H 306.102 -4.24181 0.908436 0
M  V30 3238 H 306.773 -5.51889 -0.11053 0
M  V30 3239 H 309.249 -3.96767 -1.25359 0
M  V30 3240 H 308.125 -5.08301 -2.07174 0
M  V30 3241 H 308.386 -3.47616 -2.73158 0
M  V30 3242 N 307.445 0.0818655 -1.57387 0
M  V30 3243 C 308.693 0.781368 -1.86384 0
M  V30 3244 C 309.014 1.78618 -0.782342 0
M  V30 3245 O 308.284 1.94976 0.190061 0
M  V30 3246 H 306.864 0.291562 -0.687751 0
M  V30 3247 H 309.526 0.060348 -1.94807 0
M  V30 3248 H 308.622 1.3038 -2.83562 0
M  V30 3249 N 308.923 1.53595 0.353017 0
M  V30 3250 C 309.855 1.77219 1.45348 0
M  V30 3251 C 310.868 0.65324 1.49119 0
M  V30 3252 O 312.057 0.929775 1.52373 0
M  V30 3253 C 309.157 1.84841 2.84055 0
M  V30 3254 C 308.33 3.14649 3.03833 0
M  V30 3255 C 307.389 3.13351 4.22727 0
M  V30 3256 O 306.415 3.87107 4.17297 0
M  V30 3257 N 307.617 2.35052 5.30783 0
M  V30 3258 H 310.382 2.72178 1.25457 0
M  V30 3259 H 307.943 1.52528 0.542833 0
M  V30 3260 H 309.935 1.81435 3.61751 0
M  V30 3261 H 308.505 0.971114 2.97133 0
M  V30 3262 H 307.725 3.31256 2.13689 0
M  V30 3263 H 309.013 4.00411 3.13925 0
M  V30 3264 H 308.411 1.74663 5.38061 0
M  V30 3265 H 306.968 2.37453 6.07009 0
M  V30 3266 N 310.401 -0.613514 1.45168 0
M  V30 3267 C 311.349 -1.74572 1.53712 0
M  V30 3268 C 312.343 -1.64426 0.407505 0
M  V30 3269 O 313.549 -1.70291 0.583176 0
M  V30 3270 H 309.924 -0.576641 0.48269 0
M  V30 3271 H 311.895 -1.64492 2.48968 0
M  V30 3272 C 310.644 -3.12943 1.51532 0
M  V30 3273 H 309.967 -3.21407 2.37776 0
M  V30 3274 H 311.407 -3.9201 1.61569 0
M  V30 3275 C 309.866 -3.36053 0.238798 0
M  V30 3276 O 310.396 -3.95837 -0.6838 0
M  V30 3277 N 308.602 -2.9028 0.136359 0
M  V30 3278 H 308.149 -2.41811 0.887999 0
M  V30 3279 H 308.107 -3.06116 -0.716944 0
M  V30 3280 N 311.879 -1.3236 -0.855495 0
M  V30 3281 C 313.128 -1.22226 -1.60448 0
M  V30 3282 C 313.441 0.214733 -1.94418 0
M  V30 3283 O 314.647 0.437917 -2.67945 0
M  V30 3284 C 313.103 -2.14063 -2.89318 0
M  V30 3285 C 312.711 -3.62839 -2.62777 0
M  V30 3286 C 314.455 -2.12764 -3.67331 0
M  V30 3287 C 312.362 -4.4664 -3.87643 0
M  V30 3288 H 311.292 -0.453904 -0.602069 0
M  V30 3289 H 313.943 -1.57314 -0.944698 0
M  V30 3290 H 312.325 -1.71889 -3.5675 0
M  V30 3291 H 313.499 -4.1335 -2.03662 0
M  V30 3292 H 311.814 -3.66261 -1.98096 0
M  V30 3293 H 314.411 -2.72611 -4.59987 0
M  V30 3294 H 314.754 -1.11841 -4.00995 0
M  V30 3295 H 315.287 -2.53214 -3.06802 0
M  V30 3296 H 312.026 -5.48373 -3.5912 0
M  V30 3297 H 311.546 -4.0088 -4.46156 0
M  V30 3298 H 313.225 -4.59597 -4.55389 0
M  V30 3299 N 313.357 1.07166 -1.15556 0
M  V30 3300 C 314.605 1.79443 -0.929764 0
M  V30 3301 C 314.926 1.87246 0.544414 0
M  V30 3302 O 314.196 1.37473 1.39564 0
M  V30 3303 H 312.776 0.664625 -0.341003 0
M  V30 3304 H 315.438 1.29499 -1.45657 0
M  V30 3305 H 314.534 2.81832 -1.34079 0
M  V30 3306 N 314.835 0.952656 1.25548 0
M  V30 3307 C 315.765 0.489287 2.28316 0
M  V30 3308 C 316.746 -0.463359 1.63667 0
M  V30 3309 O 317.931 -0.36274 1.90782 0
M  V30 3310 C 315.061 -0.235603 3.465 0
M  V30 3311 C 314.015 0.631593 4.23314 0
M  V30 3312 C 313.341 -0.223923 5.34231 0
M  V30 3313 C 314.641 1.90871 4.86174 0
M  V30 3314 H 316.335 1.34822 2.67326 0
M  V30 3315 H 313.881 0.649728 1.28509 0
M  V30 3316 H 315.834 -0.570882 4.17515 0
M  V30 3317 H 314.558 -1.12877 3.06474 0
M  V30 3318 H 313.217 0.949929 3.54079 0
M  V30 3319 H 312.865 -1.11678 4.90446 0
M  V30 3320 H 312.565 0.35299 5.86539 0
M  V30 3321 H 314.089 -0.554214 6.0808 0
M  V30 3322 H 315.503 1.63997 5.49343 0
M  V30 3323 H 313.9 2.43112 5.4865 0
M  V30 3324 H 314.97 2.61304 4.08471 0
M  V30 3325 N 316.313 -1.40141 0.720998 0
M  V30 3326 C 317.538 -2.05618 0.271258 0
M  V30 3327 C 317.963 -1.53978 -1.08039 0
M  V30 3328 O 317.321 -0.677463 -1.68167 0
M  V30 3329 C 317.369 -3.59609 0.267197 0
M  V30 3330 O 316.473 -4.05526 -0.749814 0
M  V30 3331 H 315.814 -0.651904 0.126162 0
M  V30 3332 H 318.344 -1.79439 0.982997 0
M  V30 3333 H 318.354 -4.0786 0.106744 0
M  V30 3334 H 317.029 -3.96559 1.25354 0
M  V30 3335 H 315.606 -3.68722 -0.556644 0
M  V30 3336 N 317.792 -0.46758 -1.50504 0
M  V30 3337 C 319.02 0.0864133 -2.06719 0
M  V30 3338 C 319.435 1.33819 -1.33184 0
M  V30 3339 O 318.792 1.78061 -0.400083 0
M  V30 3340 C 318.843 0.378079 -3.59517 0
M  V30 3341 O 318.564 -0.824044 -4.3028 0
M  V30 3342 C 320.065 0.979426 -4.32345 0
M  V30 3343 H 317.285 -0.00551697 -0.670977 0
M  V30 3344 H 319.829 -0.655354 -1.93715 0
M  V30 3345 H 317.984 1.06977 -3.72337 0
M  V30 3346 H 318.398 -0.566518 -5.21432 0
M  V30 3347 H 319.872 1.1333 -5.40241 0
M  V30 3348 H 320.349 1.9686 -3.9261 0
M  V30 3349 H 320.955 0.326216 -4.24047 0
M  V30 3350 N 319.27 1.56325 -0.20005 0
M  V30 3351 C 320.51 1.99619 0.439519 0
M  V30 3352 C 320.874 1.08423 1.58456 0
M  V30 3353 O 322.075 1.40973 2.28867 0
M  V30 3354 C 320.346 3.46314 0.883258 0
M  V30 3355 S 321.905 4.11634 1.51997 0
M  V30 3356 H 318.723 0.697007 0.140363 0
M  V30 3357 H 321.325 1.93118 -0.304282 0
M  V30 3358 H 320.029 4.10381 0.0398967 0
M  V30 3359 H 319.56 3.56643 1.6604 0
M  V30 3360 H 321.575 4.09049 2.8088 0
M  V30 3361 N 320.748 -0.0735177 1.57428 0
M  V30 3362 C 322.164 -0.428264 1.53747 0
M  V30 3363 C 322.364 -1.79272 0.91998 0
M  V30 3364 O 321.42 -2.47051 0.521745 0
M  V30 3365 C 322.733 -0.370914 2.98404 0
M  V30 3366 C 324.281 -0.451224 3.0973 0
M  V30 3367 C 324.756 -0.4238 4.56035 0
M  V30 3368 N 326.247 -0.483925 4.60665 0
M  V30 3369 C 326.982 -0.484891 5.71346 0
M  V30 3370 N 326.478 -0.440775 6.91396 0
M  V30 3371 N 328.271 -0.531319 5.59583 0
M  V30 3372 H 320.422 0.819949 1.95935 0
M  V30 3373 H 322.685 0.307493 0.896745 0
M  V30 3374 H 322.391 0.564956 3.47133 0
M  V30 3375 H 322.265 -1.18176 3.5821 0
M  V30 3376 H 324.652 -1.37752 2.60976 0
M  V30 3377 H 324.733 0.388167 2.52838 0
M  V30 3378 H 324.377 0.498638 5.05446 0
M  V30 3379 H 324.307 -1.2807 5.10789 0
M  V30 3380 H 326.798 -0.522338 3.74273 0
M  V30 3381 H 327.111 -0.44539 7.71515 0
M  V30 3382 H 325.456 -0.40749 6.93804 0
M  V30 3383 H 328.647 -0.563464 4.64696 0
M  V30 3384 H 328.82 -0.528603 6.4584 0
M  V30 3385 N 322.226 -1.5378 -0.344866 0
M  V30 3386 C 323.176 -1.78057 -1.42407 0
M  V30 3387 C 324.16 -0.635732 -1.47808 0
M  V30 3388 O 325.352 -0.89508 -1.527 0
M  V30 3389 C 322.481 -1.99242 -2.79566 0
M  V30 3390 C 321.567 -3.19787 -2.78562 0
M  V30 3391 N 321.958 -4.41284 -2.47189 0
M  V30 3392 C 320.256 -3.2093 -3.0971 0
M  V30 3393 C 320.957 -5.23128 -2.54385 0
M  V30 3394 N 319.933 -4.59813 -2.89953 0
M  V30 3395 H 323.735 -2.69588 -1.17046 0
M  V30 3396 H 321.249 -1.52687 -0.553217 0
M  V30 3397 H 323.246 -2.14768 -3.57324 0
M  V30 3398 H 321.906 -1.08953 -3.05875 0
M  V30 3399 H 322.917 -4.68657 -2.20411 0
M  V30 3400 H 319.594 -2.40603 -3.41199 0
M  V30 3401 H 320.984 -6.30096 -2.333 0
M  V30 3402 N 323.704 0.605807 -1.45491 0
M  V30 3403 C 324.932 1.39136 -1.5313 0
M  V30 3404 C 325.347 1.88082 -0.164507 0
M  V30 3405 O 324.704 1.62316 0.834247 0
M  V30 3406 C 324.755 2.59463 -2.51716 0
M  V30 3407 O 324.476 2.12551 -3.83084 0
M  V30 3408 C 325.977 3.52301 -2.6907 0
M  V30 3409 H 323.197 0.425849 -0.51855 0
M  V30 3410 H 325.741 0.73865 -1.90694 0
M  V30 3411 H 323.896 3.20772 -2.17219 0
M  V30 3412 H 324.31 2.90744 -4.36541 0
M  V30 3413 H 325.784 4.33271 -3.42024 0
M  V30 3414 H 326.261 4.02757 -1.75167 0
M  V30 3415 H 326.867 2.96845 -3.04571 0
M  V30 3416 N 325.182 1.32811 0.848464 0
M  V30 3417 C 326.145 1.22194 1.9391 0
M  V30 3418 C 327.145 0.143404 1.60159 0
M  V30 3419 O 328.335 0.394253 1.6968 0
M  V30 3420 C 325.467 0.88067 3.29328 0
M  V30 3421 H 326.66 2.19127 2.04752 0
M  V30 3422 H 324.213 1.16731 1.0394 0
M  V30 3423 H 324.948 -0.0865776 3.24184 0
M  V30 3424 H 324.733 1.66052 3.55203 0
M  V30 3425 H 326.223 0.830871 4.09251 0
M  V30 3426 N 326.66 -1.06551 1.16123 0
M  V30 3427 C 327.57 -2.17484 0.879662 0
M  V30 3428 C 328.586 -1.73377 -0.147104 0
M  V30 3429 O 329.762 -2.01379 0.0289128 0
M  V30 3430 C 326.827 -3.44591 0.381829 0
M  V30 3431 C 325.888 -4.0322 1.4735 0
M  V30 3432 C 325.121 -5.24261 0.999324 0
M  V30 3433 O 325.344 -5.70198 -0.151957 0
M  V30 3434 O 324.278 -5.74775 1.78653 0
M  V30 3435 H 328.104 -2.44075 1.80724 0
M  V30 3436 H 325.689 -1.16042 0.940992 0
M  V30 3437 H 327.571 -4.21254 0.111053 0
M  V30 3438 H 326.246 -3.19532 -0.51777 0
M  V30 3439 H 325.153 -3.2806 1.79798 0
M  V30 3440 H 326.486 -4.32568 2.34831 0
M  V30 3441 N 328.138 -0.959301 -1.25041 0
M  V30 3442 C 329.048 -0.489994 -2.29426 0
M  V30 3443 C 330.064 0.444944 -1.68215 0
M  V30 3444 O 331.24 0.320046 -1.98841 0
M  V30 3445 C 328.305 0.220309 -3.45999 0
M  V30 3446 C 327.366 -0.753418 -4.22637 0
M  V30 3447 C 326.599 -0.076918 -5.33645 0
M  V30 3448 O 326.822 1.13649 -5.58963 0
M  V30 3449 O 325.756 -0.764824 -5.97021 0
M  V30 3450 H 329.582 -1.35755 -2.71669 0
M  V30 3451 H 327.167 -0.725961 -1.30576 0
M  V30 3452 H 329.049 0.619677 -4.16819 0
M  V30 3453 H 327.724 1.06296 -3.0575 0
M  V30 3454 H 326.631 -1.20308 -3.54227 0
M  V30 3455 H 327.964 -1.56423 -4.66683 0
M  V30 3456 N 329.616 1.39756 -0.72842 0
M  V30 3457 C 330.846 2.04651 -0.283117 0
M  V30 3458 C 331.254 1.5502 1.08469 0
M  V30 3459 O 330.597 0.707343 1.69536 0
M  V30 3460 C 330.659 3.58947 -0.199309 0
M  V30 3461 C 330.323 4.31525 -1.5045 0
M  V30 3462 C 331.32 4.5861 -2.44894 0
M  V30 3463 C 329.005 4.70195 -1.76698 0
M  V30 3464 C 330.999 5.23366 -3.63822 0
M  V30 3465 C 328.686 5.3468 -2.95906 0
M  V30 3466 C 329.684 5.61198 -3.89289 0
M  V30 3467 O 329.372 6.24347 -5.06404 0
M  V30 3468 H 329.104 0.664777 -0.122666 0
M  V30 3469 H 331.658 1.79913 -0.990987 0
M  V30 3470 H 329.888 3.82556 0.56461 0
M  V30 3471 H 331.577 4.0534 0.213125 0
M  V30 3472 H 332.343 4.29187 -2.25883 0
M  V30 3473 H 328.222 4.48916 -1.04859 0
M  V30 3474 H 331.766 5.4398 -4.36728 0
M  V30 3475 H 327.663 5.63524 -3.14819 0
M  V30 3476 H 328.431 6.42842 -5.06652 0
M  V30 3477 N 331.094 0.475555 1.50254 0
M  V30 3478 C 332.057 -0.305016 2.27161 0
M  V30 3479 C 333.057 -0.916519 1.32123 0
M  V30 3480 O 334.247 -0.785003 1.5551 0
M  V30 3481 C 331.379 -1.43496 3.09227 0
M  V30 3482 H 332.572 0.369511 2.97615 0
M  V30 3483 H 330.125 0.229747 1.54602 0
M  V30 3484 H 330.86 -2.14441 2.43281 0
M  V30 3485 H 330.645 -1.00223 3.79075 0
M  V30 3486 H 332.135 -1.98548 3.67381 0
M  V30 3487 N 332.573 -1.56217 0.208337 0
M  V30 3488 C 333.536 -2.18455 -0.693557 0
M  V30 3489 C 334.536 -1.14268 -1.13135 0
M  V30 3490 O 335.726 -1.39577 -1.0423 0
M  V30 3491 C 332.858 -2.79727 -1.94848 0
M  V30 3492 H 334.051 -2.99519 -0.15114 0
M  V30 3493 H 331.604 -1.56245 -0.041287 0
M  V30 3494 H 332.339 -2.02497 -2.53309 0
M  V30 3495 H 332.124 -3.56009 -1.64316 0
M  V30 3496 H 333.614 -3.27475 -2.59133 0
M  V30 3497 N 334.051 0.0651679 -1.57465 0
M  V30 3498 C 334.981 1.07693 -2.07182 0
M  V30 3499 C 335.962 1.39962 -0.966673 0
M  V30 3500 O 337.147 1.49475 -1.2398 0
M  V30 3501 C 334.277 2.3885 -2.52127 0
M  V30 3502 C 333.231 2.20917 -3.66579 0
M  V30 3503 C 332.557 3.57515 -3.97601 0
M  V30 3504 C 333.857 1.62493 -4.9638 0
M  V30 3505 H 335.551 0.663199 -2.91962 0
M  V30 3506 H 333.097 0.317569 -1.40455 0
M  V30 3507 H 335.05 3.09928 -2.85522 0
M  V30 3508 H 333.774 2.82215 -1.64384 0
M  V30 3509 H 332.433 1.52279 -3.33477 0
M  V30 3510 H 332.081 3.98463 -3.06979 0
M  V30 3511 H 331.781 3.46353 -4.74672 0
M  V30 3512 H 333.305 4.30013 -4.33499 0
M  V30 3513 H 334.719 2.23445 -5.27963 0
M  V30 3514 H 333.116 1.62009 -5.77818 0
M  V30 3515 H 334.186 0.587041 -4.81333 0
M  V30 3516 N 335.529 1.53961 0.336706 0
M  V30 3517 C 336.459 1.85417 1.41925 0
M  V30 3518 C 337.44 0.709856 1.5458 0
M  V30 3519 O 338.625 0.962396 1.68676 0
M  V30 3520 C 335.755 2.06985 2.78881 0
M  V30 3521 C 334.709 3.22813 2.81026 0
M  V30 3522 C 334.035 3.29727 4.20932 0
M  V30 3523 C 335.335 4.60767 2.45949 0
M  V30 3524 H 337.029 2.76079 1.15848 0
M  V30 3525 H 334.575 1.32839 0.555859 0
M  V30 3526 H 336.528 2.27575 3.54665 0
M  V30 3527 H 335.252 1.13061 3.06406 0
M  V30 3528 H 333.911 3.0209 2.07695 0
M  V30 3529 H 333.559 2.33385 4.45579 0
M  V30 3530 H 333.259 4.07566 4.23277 0
M  V30 3531 H 334.783 3.52536 4.98549 0
M  V30 3532 H 336.197 4.81325 3.11446 0
M  V30 3533 H 334.594 5.4106 2.59566 0
M  V30 3534 H 335.664 4.6391 1.41122 0
M  V30 3535 N 337.007 -0.598083 1.45811 0
M  V30 3536 C 338.235 -1.38322 1.53866 0
M  V30 3537 C 338.65 -1.87992 0.174479 0
M  V30 3538 O 338.007 -1.62756 -0.825627 0
M  V30 3539 C 338.058 -2.58125 2.53089 0
M  V30 3540 O 337.779 -2.10516 3.84206 0
M  V30 3541 C 339.28 -3.50869 2.70935 0
M  V30 3542 H 336.5 -0.423093 0.520801 0
M  V30 3543 H 339.044 -0.728527 1.91083 0
M  V30 3544 H 337.199 -3.19615 2.18917 0
M  V30 3545 H 337.613 -2.88425 4.38077 0
M  V30 3546 H 339.087 -4.31451 3.44317 0
M  V30 3547 H 339.564 -4.01822 1.77301 0
M  V30 3548 H 340.17 -2.95225 3.06141 0
M  V30 3549 N 338.485 -1.33259 -0.841409 0
M  V30 3550 C 339.432 -1.23302 -1.95103 0
M  V30 3551 C 340.402 -0.112204 -1.65721 0
M  V30 3552 O 341.587 -0.290038 -1.88583 0
M  V30 3553 C 338.727 -0.975583 -3.31023 0
M  V30 3554 C 337.84 -2.18243 -3.72819 0
M  V30 3555 C 336.975 -1.85936 -4.97595 0
M  V30 3556 C 336.014 -3.02866 -5.3192 0
M  V30 3557 N 335.151 -2.70565 -6.47873 0
M  V30 3558 H 339.991 -2.18207 -2.02952 0
M  V30 3559 H 337.528 -1.0851 -0.993173 0
M  V30 3560 H 339.486 -0.80677 -4.09325 0
M  V30 3561 H 338.116 -0.0632755 -3.22738 0
M  V30 3562 H 337.168 -2.46107 -2.90061 0
M  V30 3563 H 338.48 -3.05666 -3.94169 0
M  V30 3564 H 337.634 -1.65684 -5.83638 0
M  V30 3565 H 336.373 -0.957452 -4.78209 0
M  V30 3566 H 335.378 -3.23736 -4.44382 0
M  V30 3567 H 336.603 -3.93809 -5.53255 0
M  V30 3568 H 334.549 -1.8293 -6.29978 0
M  V30 3569 H 334.466 -3.51519 -6.69306 0
M  V30 3570 H 335.734 -2.53774 -7.37034 0
M  V30 3571 N 339.963 1.05934 -1.16686 0
M  V30 3572 C 340.913 2.11764 -0.844978 0
M  V30 3573 C 341.897 1.59922 0.177178 0
M  V30 3574 O 343.089 1.76983 -0.0241768 0
M  V30 3575 C 340.218 3.41493 -0.351812 0
M  V30 3576 C 339.304 4.00152 -1.40496 0
M  V30 3577 N 339.695 4.32874 -2.61636 0
M  V30 3578 C 337.993 4.278 -1.26106 0
M  V30 3579 C 338.694 4.79552 -3.29249 0
M  V30 3580 N 337.67 4.79211 -2.56628 0
M  V30 3581 H 341.472 2.34916 -1.76612 0
M  V30 3582 H 338.986 1.23511 -1.05446 0
M  V30 3583 H 340.983 4.16773 -0.102796 0
M  V30 3584 H 339.643 3.19778 0.56322 0
M  V30 3585 H 340.654 4.23109 -2.98663 0
M  V30 3586 H 337.331 4.15511 -0.407081 0
M  V30 3587 H 338.721 5.14045 -4.32675 0
M  V30 3588 N 341.441 0.965919 1.2453 0
M  V30 3589 C 342.669 0.644385 1.96609 0
M  V30 3590 C 343.084 -0.785823 1.71669 0
M  V30 3591 O 342.441 -1.52703 0.999399 0
M  V30 3592 C 342.492 0.907375 3.49927 0
M  V30 3593 O 342.213 2.28136 3.74013 0
M  V30 3594 C 343.714 0.599784 4.39224 0
M  V30 3595 H 340.934 0.240588 0.626385 0
M  V30 3596 H 343.478 1.29337 1.58405 0
M  V30 3597 H 341.633 0.304631 3.862 0
M  V30 3598 H 342.047 2.36002 4.68405 0
M  V30 3599 H 343.521 0.834263 5.45659 0
M  V30 3600 H 343.998 -0.465921 4.36722 0
M  V30 3601 H 344.604 1.18235 4.08535 0
M  V30 3602 N 342.919 -1.39368 0.735821 0
M  V30 3603 C 344.335 -1.54204 0.411492 0
M  V30 3604 C 344.535 -1.70268 -1.07755 0
M  V30 3605 O 343.591 -1.70364 -1.86366 0
M  V30 3606 C 344.904 -2.75925 1.19523 0
M  V30 3607 C 346.452 -2.89761 1.18354 0
M  V30 3608 C 346.927 -4.14421 1.94986 0
M  V30 3609 N 348.418 -4.21462 1.92156 0
M  V30 3610 C 349.153 -5.16871 2.48258 0
M  V30 3611 N 348.649 -6.18063 3.13001 0
M  V30 3612 N 350.442 -5.09093 2.38287 0
M  V30 3613 H 342.593 -1.27189 1.70108 0
M  V30 3614 H 344.856 -0.616517 0.720147 0
M  V30 3615 H 344.562 -2.70401 2.24892 0
M  V30 3616 H 344.436 -3.68614 0.800222 0
M  V30 3617 H 346.823 -2.94777 0.137975 0
M  V30 3618 H 346.904 -1.98133 1.61793 0
M  V30 3619 H 346.548 -4.10166 2.99543 0
M  V30 3620 H 346.478 -5.05095 1.48953 0
M  V30 3621 H 348.969 -3.48979 1.44991 0
M  V30 3622 H 349.282 -6.87326 3.53275 0
M  V30 3623 H 347.627 -6.18448 3.17091 0
M  V30 3624 H 350.818 -4.28973 1.8735 0
M  V30 3625 H 350.991 -5.83272 2.82308 0
M  V30 3626 N 344.397 -0.483516 -1.5 0
M  V30 3627 C 345.344 0.304164 -2.28787 0
M  V30 3628 C 346.314 0.976114 -1.34392 0
M  V30 3629 O 347.499 0.986156 -1.63339 0
M  V30 3630 C 344.639 1.37298 -3.16612 0
M  V30 3631 C 343.752 0.714561 -4.26049 0
M  V30 3632 C 342.887 1.76232 -5.01114 0
M  V30 3633 C 341.926 1.08483 -6.0241 0
M  V30 3634 N 341.063 2.076 -6.70706 0
M  V30 3635 H 345.903 -0.373981 -2.95644 0
M  V30 3636 H 343.44 -0.196275 -1.45785 0
M  V30 3637 H 345.398 2.00445 -3.65893 0
M  V30 3638 H 344.028 2.02012 -2.51776 0
M  V30 3639 H 343.08 -0.0297798 -3.80388 0
M  V30 3640 H 344.392 0.180383 -4.98474 0
M  V30 3641 H 343.546 2.46929 -5.54176 0
M  V30 3642 H 342.285 2.33033 -4.28424 0
M  V30 3643 H 341.29 0.363545 -5.48597 0
M  V30 3644 H 342.515 0.523551 -6.77079 0
M  V30 3645 H 340.461 2.63394 -6.00799 0
M  V30 3646 H 340.378 1.59201 -7.39047 0
M  V30 3647 H 341.646 2.77639 -7.2838 0
M  V30 3648 N 345.875 1.56104 -0.216619 0
M  V30 3649 C 347.121 1.98466 0.417033 0
M  V30 3650 C 347.454 1.10403 1.59765 0
M  V30 3651 O 346.729 0.160632 1.93836 0
M  V30 3652 C 347.012 3.49769 0.85637 0
M  V30 3653 C 346.865 4.48606 -0.327546 0
M  V30 3654 C 348.184 4.05339 1.7143 0
M  V30 3655 H 345.303 0.721551 0.150112 0
M  V30 3656 H 347.945 1.87423 -0.311864 0
M  V30 3657 H 346.095 3.5931 1.47745 0
M  V30 3658 H 347.767 4.5108 -0.965618 0
M  V30 3659 H 346.01 4.22682 -0.975805 0
M  V30 3660 H 346.681 5.51995 0.0227149 0
M  V30 3661 H 349.157 3.98712 1.19031 0
M  V30 3662 H 348.033 5.11533 1.99061 0
M  V30 3663 H 348.294 3.51918 2.67593 0
M  V30 3664 N 347.353 -0.0568162 1.57498 0
M  V30 3665 C 348.599 -0.75422 1.88253 0
M  V30 3666 C 348.932 -1.76461 0.810865 0
M  V30 3667 O 348.207 -1.93691 -0.177259 0
M  V30 3668 C 348.49 -1.44878 3.2967 0
M  V30 3669 C 348.343 -0.453789 4.47505 0
M  V30 3670 C 349.662 -2.38994 3.69554 0
M  V30 3671 H 346.781 -0.272724 0.684683 0
M  V30 3672 H 349.423 -0.0172113 1.89992 0
M  V30 3673 H 347.573 -2.077 3.28318 0
M  V30 3674 H 349.245 0.170371 4.60985 0
M  V30 3675 H 347.488 0.229552 4.33192 0
M  V30 3676 H 348.159 -0.977699 5.43273 0
M  V30 3677 H 350.635 -1.86239 3.72095 0
M  V30 3678 H 349.511 -2.84587 4.69363 0
M  V30 3679 H 349.772 -3.24461 3.00296 0
M  V30 3680 N 348.832 -1.54138 -0.328536 0
M  V30 3681 C 349.782 -1.79557 -1.4051 0
M  V30 3682 C 350.766 -0.651373 -1.47126 0
M  V30 3683 O 351.958 -0.911226 -1.51742 0
M  V30 3684 C 349.087 -2.02196 -2.77438 0
M  V30 3685 C 348.173 -3.22724 -2.75155 0
M  V30 3686 N 348.564 -4.43881 -2.42494 0
M  V30 3687 C 346.862 -3.24196 -3.06289 0
M  V30 3688 C 347.563 -5.25797 -2.48822 0
M  V30 3689 N 346.539 -4.62862 -2.8506 0
M  V30 3690 H 350.341 -2.70814 -1.1418 0
M  V30 3691 H 347.855 -1.53265 -0.536991 0
M  V30 3692 H 349.852 -2.18546 -3.55026 0
M  V30 3693 H 348.512 -1.12191 -3.04702 0
M  V30 3694 H 349.523 -4.70969 -2.15428 0
M  V30 3695 H 346.2 -2.44208 -3.38627 0
M  V30 3696 H 347.59 -6.32535 -2.26603 0
M  V30 3697 N 350.31 0.590341 -1.46126 0
M  V30 3698 C 351.587 1.35029 -1.41515 0
M  V30 3699 C 351.967 2.10888 -0.0946472 0
M  V30 3700 O 351.315 2.08998 0.923693 0
M  V30 3701 C 351.525 2.28269 -2.63997 0
M  V30 3702 C 352.873 2.90338 -3.09821 0
M  V30 3703 O 353.897 2.38585 -2.64492 0
M  V30 3704 O 352.756 3.84321 -3.88535 0
M  V30 3705 H 349.85 0.606317 -0.562413 0
M  V30 3706 H 352.396 0.611994 -1.58281 0
M  V30 3707 H 351.168 1.71591 -3.51671 0
M  V30 3708 H 350.791 3.0945 -2.49652 0
M  V30 3709 N 351.788 1.33704 0.83433 0
M  V30 3710 C 352.751 1.24244 1.92603 0
M  V30 3711 C 353.751 0.160383 1.59998 0
M  V30 3712 O 354.941 0.412228 1.69252 0
M  V30 3713 C 352.073 0.91555 3.28376 0
M  V30 3714 H 353.266 2.21287 2.02416 0
M  V30 3715 H 350.819 1.17827 1.02696 0
M  V30 3716 H 351.554 -0.0521886 3.24258 0
M  V30 3717 H 351.339 1.69811 3.53422 0
M  V30 3718 H 352.829 0.874231 4.08347 0
M  V30 3719 N 353.266 -1.05314 1.17247 0
M  V30 3720 C 354.213 -2.13031 0.888058 0
M  V30 3721 C 355.183 -1.65253 -0.167537 0
M  V30 3722 O 356.368 -1.90775 -0.0305974 0
M  V30 3723 C 353.508 -3.42702 0.406147 0
M  V30 3724 C 352.621 -4.04161 1.52572 0
M  V30 3725 C 351.756 -5.21744 0.997808 0
M  V30 3726 C 350.795 -5.75207 2.09291 0
M  V30 3727 N 349.932 -6.84094 1.57986 0
M  V30 3728 H 354.772 -2.36698 1.81048 0
M  V30 3729 H 352.309 -1.16121 0.903013 0
M  V30 3730 H 354.267 -4.17059 0.108305 0
M  V30 3731 H 352.897 -3.19222 -0.479313 0
M  V30 3732 H 351.949 -3.27253 1.93931 0
M  V30 3733 H 353.261 -4.39881 2.35172 0
M  V30 3734 H 352.415 -6.03168 0.653739 0
M  V30 3735 H 351.154 -4.87495 0.141232 0
M  V30 3736 H 350.159 -4.92414 2.44557 0
M  V30 3737 H 351.384 -6.11505 2.95362 0
M  V30 3738 H 349.33 -6.51745 0.74598 0
M  V30 3739 H 349.247 -7.18811 2.34195 0
M  V30 3740 H 350.515 -7.69172 1.26468 0
M  V30 3741 N 354.744 -0.972509 -1.24016 0
M  V30 3742 C 355.677 -0.45117 -2.23696 0
M  V30 3743 C 356.655 0.477378 -1.55434 0
M  V30 3744 O 357.839 0.407647 -1.84039 0
M  V30 3745 C 354.966 0.34818 -3.36906 0
M  V30 3746 C 354.012 -0.523355 -4.23277 0
M  V30 3747 S 354.845 -1.96647 -4.98087 0
M  V30 3748 C 356.001 -1.17604 -6.14752 0
M  V30 3749 H 356.234 -1.29588 -2.67571 0
M  V30 3750 H 353.767 -0.777903 -1.33372 0
M  V30 3751 H 355.725 0.803387 -4.02562 0
M  V30 3752 H 354.386 1.16792 -2.91579 0
M  V30 3753 H 353.579 0.0906181 -5.03919 0
M  V30 3754 H 353.181 -0.914485 -3.62647 0
M  V30 3755 H 355.473 -0.433434 -6.76112 0
M  V30 3756 H 356.416 -1.95701 -6.8052 0
M  V30 3757 H 356.824 -0.698295 -5.60164 0
M  V30 3758 N 356.222 1.38976 -0.743202 0
M  V30 3759 C 357.45 2.04636 -0.30525 0
M  V30 3760 C 357.865 1.56044 1.06281 0
M  V30 3761 O 357.222 0.728921 1.67311 0
M  V30 3762 C 357.273 3.60193 -0.307177 0
M  V30 3763 O 356.994 4.06998 -1.62124 0
M  V30 3764 C 358.495 4.4306 0.145928 0
M  V30 3765 H 355.715 0.65788 -0.132041 0
M  V30 3766 H 358.259 1.77866 -1.00915 0
M  V30 3767 H 356.414 3.85835 0.347898 0
M  V30 3768 H 356.828 5.01371 -1.54036 0
M  V30 3769 H 358.302 5.51921 0.0934183 0
M  V30 3770 H 358.779 4.22706 1.19231 0
M  V30 3771 H 359.385 4.22584 -0.479886 0
M  V30 3772 N 357.7 0.491464 1.49741 0
M  V30 3773 C 359.111 0.0413169 1.86654 0
M  V30 3774 C 359.462 -1.36985 1.40462 0
M  V30 3775 O 358.587 -2.01917 0.778354 0
M  V30 3776 C 359.182 0.0682023 3.38731 0
M  V30 3777 C 357.741 -0.32656 3.74981 0
M  V30 3778 C 356.888 0.444888 2.73708 0
M  V30 3779 H 359.839 0.704733 1.42194 0
M  V30 3780 H 359.86 -0.729322 3.73445 0
M  V30 3781 H 359.372 1.09539 3.72321 0
M  V30 3782 H 357.473 -1.35734 3.46997 0
M  V30 3783 H 357.586 -0.013741 4.79098 0
M  V30 3784 H 355.95 -0.104062 2.54487 0
M  V30 3785 H 356.733 1.47197 3.10142 0
M  V30 3786 N 359.178 -1.55987 0.224894 0
M  V30 3787 C 360.088 -2.24066 -0.69511 0
M  V30 3788 C 361.104 -1.24939 -1.21104 0
M  V30 3789 O 362.28 -1.5776 -1.25195 0
M  V30 3790 C 359.345 -2.90983 -1.88493 0
M  V30 3791 C 358.406 -4.05462 -1.41064 0
M  V30 3792 C 357.639 -4.69179 -2.54375 0
M  V30 3793 O 357.862 -4.31895 -3.72589 0
M  V30 3794 O 356.796 -5.58108 -2.25386 0
M  V30 3795 H 360.622 -3.03353 -0.145149 0
M  V30 3796 H 358.207 -1.49399 -0.00569476 0
M  V30 3797 H 360.089 -3.33209 -2.57972 0
M  V30 3798 H 358.764 -2.14653 -2.42293 0
M  V30 3799 H 357.671 -3.67798 -0.683774 0
M  V30 3800 H 359.004 -4.83545 -0.918985 0
M  V30 3801 N 360.656 0.0484629 -1.57525 0
M  V30 3802 C 361.933 0.777447 -1.79486 0
M  V30 3803 C 362.313 1.94597 -0.818251 0
M  V30 3804 O 361.661 2.28047 0.143767 0
M  V30 3805 C 361.871 1.22864 -3.26658 0
M  V30 3806 C 363.219 1.65251 -3.91123 0
M  V30 3807 O 364.243 1.32372 -3.3069 0
M  V30 3808 O 363.102 2.26207 -4.97486 0
M  V30 3809 H 360.196 0.374357 -0.737419 0
M  V30 3810 H 362.742 0.0267359 -1.69679 0
M  V30 3811 H 361.514 0.393589 -3.89316 0
M  V30 3812 H 361.137 2.03996 -3.41279 0
M  V30 3813 N 362.134 1.5431 0.320358 0
M  V30 3814 C 363.364 1.7638 1.07582 0
M  V30 3815 C 363.772 0.513944 1.82086 0
M  V30 3816 O 363.115 -0.525123 1.76035 0
M  V30 3817 C 363.177 2.9055 2.1171 0
M  V30 3818 C 362.841 4.2934 1.56575 0
M  V30 3819 C 363.838 5.10077 1.00586 0
M  V30 3820 C 361.523 4.75893 1.60722 0
M  V30 3821 C 363.517 6.35477 0.494756 0
M  V30 3822 C 361.204 6.0126 1.09224 0
M  V30 3823 C 362.202 6.80886 0.53696 0
M  V30 3824 O 361.89 8.03894 0.0297371 0
M  V30 3825 H 361.622 0.592369 0.325692 0
M  V30 3826 H 364.176 2.02019 0.37116 0
M  V30 3827 H 362.406 2.60489 2.85801 0
M  V30 3828 H 364.095 3.00373 2.73003 0
M  V30 3829 H 364.861 4.75265 0.966869 0
M  V30 3830 H 360.74 4.13957 2.02882 0
M  V30 3831 H 364.284 6.97574 0.0606842 0
M  V30 3832 H 360.181 6.35562 1.12831 0
M  V30 3833 H 360.949 8.18372 0.14486 0
M  V30 3834 N 363.613 -0.582584 1.46437 0
M  V30 3835 C 364.523 -1.71949 1.59595 0
M  V30 3836 C 365.539 -1.67264 0.479443 0
M  V30 3837 O 366.715 -1.87171 0.743579 0
M  V30 3838 C 363.78 -3.08452 1.58298 0
M  V30 3839 C 362.841 -3.244 2.81182 0
M  V30 3840 C 362.074 -4.54391 2.79937 0
M  V30 3841 O 362.297 -5.38287 1.8869 0
M  V30 3842 O 361.231 -4.73588 3.71481 0
M  V30 3843 H 365.057 -1.63795 2.55744 0
M  V30 3844 H 362.642 -0.749643 1.29231 0
M  V30 3845 H 364.524 -3.89732 1.60271 0
M  V30 3846 H 363.199 -3.17043 0.653094 0
M  V30 3847 H 362.106 -2.42613 2.84763 0
M  V30 3848 H 363.439 -3.20699 3.7338 0
M  V30 3849 N 365.091 -1.34144 -0.827227 0
M  V30 3850 C 366.038 -1.25364 -1.93785 0
M  V30 3851 C 367.008 -0.129774 -1.65592 0
M  V30 3852 O 368.193 -0.310024 -1.88264 0
M  V30 3853 C 365.333 -1.01064 -3.2997 0
M  V30 3854 C 364.446 -2.22185 -3.70484 0
M  V30 3855 C 363.581 -1.91203 -4.95595 0
M  V30 3856 C 362.62 -3.08491 -5.28677 0
M  V30 3857 N 361.757 -2.77421 -6.44967 0
M  V30 3858 H 366.597 -2.20347 -2.00627 0
M  V30 3859 H 364.134 -1.09558 -0.981608 0
M  V30 3860 H 366.092 -0.850139 -4.08446 0
M  V30 3861 H 364.722 -0.0975026 -3.22653 0
M  V30 3862 H 363.774 -2.4917 -2.87434 0
M  V30 3863 H 365.086 -3.0983 -3.90905 0
M  V30 3864 H 364.24 -1.71864 -5.81848 0
M  V30 3865 H 362.979 -1.00812 -4.77167 0
M  V30 3866 H 361.984 -3.28431 -4.40923 0
M  V30 3867 H 363.209 -3.99655 -5.49047 0
M  V30 3868 H 361.155 -1.89601 -6.28003 0
M  V30 3869 H 361.072 -3.58598 -6.6554 0
M  V30 3870 H 362.34 -2.61577 -7.34301 0
M  V30 3871 N 366.569 1.04691 -1.17803 0
M  V30 3872 C 367.499 2.14494 -0.92275 0
M  V30 3873 C 368.48 1.69546 0.137179 0
M  V30 3874 O 369.665 1.94195 -0.0141108 0
M  V30 3875 C 366.795 3.44491 -0.440803 0
M  V30 3876 C 365.749 4.03031 -1.4405 0
M  V30 3877 C 365.075 5.28432 -0.81631 0
M  V30 3878 C 366.375 4.39932 -2.81527 0
M  V30 3879 H 368.069 2.36107 -1.84103 0
M  V30 3880 H 365.615 1.1347 -0.886599 0
M  V30 3881 H 367.568 4.2066 -0.249602 0
M  V30 3882 H 366.292 3.22546 0.513025 0
M  V30 3883 H 364.951 3.28937 -1.61853 0
M  V30 3884 H 364.599 5.02792 0.144511 0
M  V30 3885 H 364.299 5.68559 -1.48371 0
M  V30 3886 H 365.823 6.07284 -0.635496 0
M  V30 3887 H 367.237 5.07113 -2.67412 0
M  V30 3888 H 365.634 4.9109 -3.44892 0
M  V30 3889 H 366.704 3.50045 -3.35554 0
M  V30 3890 N 368.047 0.979072 1.23499 0
M  V30 3891 C 369.295 0.645941 1.91499 0
M  V30 3892 C 369.616 -0.822948 1.76784 0
M  V30 3893 O 368.886 -1.58854 1.14639 0
M  V30 3894 H 367.466 0.235919 0.708767 0
M  V30 3895 H 370.128 1.2426 1.50152 0
M  V30 3896 H 369.224 0.896411 2.9895 0
M  V30 3897 N 369.525 -1.3858 0.750561 0
M  V30 3898 C 370.772 -2.00184 0.305373 0
M  V30 3899 C 371.1 -1.59575 -1.11203 0
M  V30 3900 O 370.355 -0.823236 -1.77542 0
M  V30 3901 C 370.654 -3.55455 0.372373 0
M  V30 3902 C 370.32 -4.15765 1.745 0
M  V30 3903 C 368.982 -4.31951 2.12065 0
M  V30 3904 C 371.334 -4.49067 2.64553 0
M  V30 3905 C 368.662 -4.78734 3.39162 0
M  V30 3906 C 371.014 -4.97265 3.91038 0
M  V30 3907 C 369.678 -5.11658 4.28676 0
M  V30 3908 H 368.948 -0.732526 0.111744 0
M  V30 3909 H 371.595 -1.65673 0.960451 0
M  V30 3910 H 369.9 -3.90084 -0.366272 0
M  V30 3911 H 371.597 -4.00999 0.00953918 0
M  V30 3912 H 368.187 -4.03579 1.44297 0
M  V30 3913 H 372.371 -4.36166 2.36796 0
M  V30 3914 H 367.627 -4.88062 3.68246 0
M  V30 3915 H 371.801 -5.22003 4.60962 0
M  V30 3916 H 369.428 -5.47668 5.27222 0
M  V30 3917 N 371.003 -0.499398 -1.49478 0
M  V30 3918 C 372.414 -0.051215 -1.8663 0
M  V30 3919 C 372.765 1.36238 -1.41186 0
M  V30 3920 O 371.89 2.01502 -0.789051 0
M  V30 3921 C 372.485 -0.0861651 -3.3869 0
M  V30 3922 C 371.044 0.30667 -3.75149 0
M  V30 3923 C 370.191 -0.459397 -2.73468 0
M  V30 3924 H 373.142 -0.712264 -1.41818 0
M  V30 3925 H 373.163 0.709507 -3.73826 0
M  V30 3926 H 372.675 -1.11512 -3.71735 0
M  V30 3927 H 370.776 1.33892 -3.47712 0
M  V30 3928 H 370.889 -0.0116669 -4.79099 0
M  V30 3929 H 369.253 0.0905645 -2.54539 0
M  V30 3930 H 370.036 -1.4884 -3.09357 0
M  V30 3931 N 372.481 1.55866 -0.233164 0
M  V30 3932 C 373.729 1.9821 0.394593 0
M  V30 3933 C 374.05 1.12234 1.59463 0
M  V30 3934 O 373.32 0.201981 1.94856 0
M  V30 3935 H 371.9 0.732034 0.148778 0
M  V30 3936 H 374.562 1.92107 -0.32876 0
M  V30 3937 H 373.658 3.03845 0.713063 0
M  V30 3938 N 373.959 -0.0401083 1.57549 0
M  V30 3939 C 374.922 -1.02871 2.04817 0
M  V30 3940 C 375.922 -1.29708 0.950388 0
M  V30 3941 O 377.112 -1.24897 1.21435 0
M  V30 3942 C 374.244 -2.36443 2.45576 0
M  V30 3943 H 375.437 -0.620631 2.93408 0
M  V30 3944 H 372.99 -0.286667 1.53649 0
M  V30 3945 H 373.725 -2.82021 1.60108 0
M  V30 3946 H 373.51 -2.18296 3.25713 0
M  V30 3947 H 375 -3.07441 2.82612 0
M  V30 3948 N 375.437 -1.54477 -0.31217 0
M  V30 3949 C 376.853 -1.45442 -0.657185 0
M  V30 3950 C 377.053 -0.63653 -1.91182 0
M  V30 3951 O 376.109 -0.139815 -2.52113 0
M  V30 3952 C 377.422 -2.89287 -0.82058 0
M  V30 3953 C 378.97 -2.9926 -0.917188 0
M  V30 3954 C 379.445 -4.44279 -1.11267 0
M  V30 3955 N 380.936 -4.4794 -1.17914 0
M  V30 3956 C 381.671 -5.57318 -1.34848 0
M  V30 3957 N 381.167 -6.76642 -1.48752 0
M  V30 3958 N 382.96 -5.44986 -1.37647 0
M  V30 3959 H 375.111 -2.06129 0.512313 0
M  V30 3960 H 377.374 -0.933088 0.167485 0
M  V30 3961 H 377.08 -3.51687 0.0302604 0
M  V30 3962 H 376.954 -3.36061 -1.71298 0
M  V30 3963 H 379.341 -2.36981 -1.75852 0
M  V30 3964 H 379.422 -2.558 -0.00101257 0
M  V30 3965 H 379.066 -5.07149 -0.27614 0
M  V30 3966 H 378.996 -4.85359 -2.04289 0
M  V30 3967 H 381.487 -3.61969 -1.08567 0
M  V30 3968 H 381.8 -7.55758 -1.61397 0
M  V30 3969 H 380.145 -6.79529 -1.45828 0
M  V30 3970 H 383.336 -4.50715 -1.26388 0
M  V30 3971 H 383.509 -6.3028 -1.50501 0
M  V30 3972 N 376.915 0.57481 -1.46744 0
M  V30 3973 C 378.192 1.3352 -1.4294 0
M  V30 3974 C 378.572 2.10775 -0.117009 0
M  V30 3975 O 377.92 2.09966 0.901474 0
M  V30 3976 C 378.13 2.25456 -2.66403 0
M  V30 3977 C 379.478 2.87035 -3.12883 0
M  V30 3978 O 380.502 2.35766 -2.67007 0
M  V30 3979 O 379.361 3.80179 -3.92589 0
M  V30 3980 H 376.455 0.600318 -0.568812 0
M  V30 3981 H 379.001 0.595171 -1.58921 0
M  V30 3982 H 377.773 1.67851 -3.53471 0
M  V30 3983 H 377.396 3.06785 -2.52921 0
M  V30 3984 N 378.394 1.34581 0.820102 0
M  V30 3985 C 379.324 1.29038 1.94606 0
M  V30 3986 C 380.305 0.1673 1.69275 0
M  V30 3987 O 381.49 0.360112 1.90832 0
M  V30 3988 C 378.62 1.04793 3.31113 0
M  V30 3989 C 377.574 2.13597 3.70891 0
M  V30 3990 C 376.9 1.74537 5.05412 0
M  V30 3991 C 378.2 3.55451 3.8269 0
M  V30 3992 H 379.894 2.23248 1.99501 0
M  V30 3993 H 377.44 1.0747 0.958449 0
M  V30 3994 H 379.393 0.995592 4.0947 0
M  V30 3995 H 378.117 0.0702565 3.26524 0
M  V30 3996 H 376.776 2.17905 2.9481 0
M  V30 3997 H 376.424 0.754226 4.97313 0
M  V30 3998 H 376.124 2.47361 5.32997 0
M  V30 3999 H 377.648 1.70803 5.86224 0
M  V30 4000 H 379.062 3.5354 4.51312 0
M  V30 4001 H 377.459 4.26922 4.21732 0
M  V30 4002 H 378.529 3.92587 2.84611 0
M  V30 4003 N 379.872 -1.04064 1.18357 0
M  V30 4004 C 380.835 -2.10243 0.912707 0
M  V30 4005 C 381.835 -1.60477 -0.101928 0
M  V30 4006 O 383.025 -1.73703 0.131517 0
M  V30 4007 C 380.157 -3.38893 0.369387 0
M  V30 4008 H 381.35 -2.35706 1.85426 0
M  V30 4009 H 378.903 -1.20489 0.995594 0
M  V30 4010 H 379.638 -3.19094 -0.578776 0
M  V30 4011 H 379.423 -3.76331 1.1008 0
M  V30 4012 H 380.913 -4.17128 0.198575 0
M  V30 4013 N 381.35 -0.985608 -1.22978 0
M  V30 4014 C 382.298 -0.522631 -2.26652 0
M  V30 4015 C 383.292 0.422998 -1.64034 0
M  V30 4016 O 384.498 0.296319 -1.77544 0
M  V30 4017 H 380.873 -0.150597 -0.736766 0
M  V30 4018 H 382.844 -1.40863 -2.63059 0
M  V30 4019 C 381.593 0.154238 -3.47358 0
M  V30 4020 H 380.916 -0.564329 -3.95797 0
M  V30 4021 H 382.356 0.441744 -4.21693 0
M  V30 4022 C 380.815 1.38719 -3.07016 0
M  V30 4023 O 381.345 2.48307 -3.15764 0
M  V30 4024 N 379.551 1.25975 -2.61875 0
M  V30 4025 H 379.098 0.368068 -2.54957 0
M  V30 4026 H 379.056 2.08578 -2.3525 0
M  V30 4027 N 382.828 1.3818 -0.7579 0
M  V30 4028 C 383.761 2.28055 -0.0814093 0
M  V30 4029 C 384.739 1.45603 0.723779 0
M  V30 4030 O 385.923 1.74961 0.701491 0
M  V30 4031 C 383.05 3.2676 0.891394 0
M  V30 4032 C 382.096 4.26153 0.171909 0
M  V30 4033 S 382.929 5.23434 -1.13035 0
M  V30 4034 C 384.085 6.25694 -0.160727 0
M  V30 4035 H 384.318 2.85082 -0.84353 0
M  V30 4036 H 381.851 1.44246 -0.550671 0
M  V30 4037 H 383.809 3.8414 1.44731 0
M  V30 4038 H 382.47 2.68706 1.62652 0
M  V30 4039 H 381.663 4.95738 0.908843 0
M  V30 4040 H 381.265 3.72691 -0.312606 0
M  V30 4041 H 383.557 6.74161 0.671773 0
M  V30 4042 H 384.5 7.03285 -0.824353 0
M  V30 4043 H 384.908 5.64064 0.221892 0
M  V30 4044 N 384.306 0.507319 1.49211 0
M  V30 4045 C 385.553 -0.0349529 2.0247 0
M  V30 4046 C 385.881 -1.36409 1.38647 0
M  V30 4047 O 385.136 -1.88841 0.513566 0
M  V30 4048 C 385.435 -0.229513 3.56662 0
M  V30 4049 C 385.101 1.02241 4.39156 0
M  V30 4050 C 383.763 1.36557 4.61417 0
M  V30 4051 C 386.115 1.85428 4.871 0
M  V30 4052 C 383.443 2.53999 5.28868 0
M  V30 4053 C 385.795 3.02028 5.55843 0
M  V30 4054 C 384.459 3.36717 5.76349 0
M  V30 4055 H 383.729 -0.0127902 0.74089 0
M  V30 4056 H 386.376 0.668756 1.79443 0
M  V30 4057 H 384.681 -1.0158 3.78403 0
M  V30 4058 H 386.378 -0.663641 3.9547 0
M  V30 4059 H 382.968 0.745124 4.22073 0
M  V30 4060 H 387.152 1.6023 4.69723 0
M  V30 4061 H 382.408 2.81105 5.42946 0
M  V30 4062 H 386.582 3.66808 5.91967 0
M  V30 4063 H 384.209 4.27821 6.28389 0
M  V30 4064 N 385.784 -1.5574 0.241426 0
M  V30 4065 C 387.2 -1.59196 -0.113548 0
M  V30 4066 C 387.4 -1.25852 -1.57364 0
M  V30 4067 O 386.456 -1.00322 -2.31715 0
M  V30 4068 C 387.769 -2.99814 0.230695 0
M  V30 4069 C 389.317 -3.12513 0.174547 0
M  V30 4070 C 389.792 -4.55342 0.492744 0
M  V30 4071 N 391.283 -4.61076 0.443043 0
M  V30 4072 C 392.018 -5.6956 0.662484 0
M  V30 4073 N 391.514 -6.86328 0.944761 0
M  V30 4074 N 393.307 -5.58957 0.593564 0
M  V30 4075 H 385.458 -1.75685 1.19368 0
M  V30 4076 H 387.721 -0.81756 0.479896 0
M  V30 4077 H 387.427 -3.28932 1.24485 0
M  V30 4078 H 387.301 -3.74568 -0.444833 0
M  V30 4079 H 389.688 -2.83179 -0.830277 0
M  V30 4080 H 389.769 -2.40045 0.883845 0
M  V30 4081 H 389.413 -4.85396 1.4951 0
M  V30 4082 H 389.343 -5.26062 -0.23797 0
M  V30 4083 H 391.834 -3.77179 0.233374 0
M  V30 4084 H 392.147 -7.64935 1.09977 0
M  V30 4085 H 390.492 -6.88025 0.982175 0
M  V30 4086 H 393.683 -4.66611 0.373123 0
M  V30 4087 H 393.856 -6.43433 0.767981 0
M  V30 4088 N 387.262 0.0317525 -1.57568 0
M  V30 4089 C 388.509 0.723104 -1.89149 0
M  V30 4090 C 388.837 1.75504 -0.838377 0
M  V30 4091 O 388.092 1.95037 0.160982 0
M  V30 4092 C 388.391 1.43167 -3.27472 0
M  V30 4093 C 388.057 0.535972 -4.47703 0
M  V30 4094 C 386.719 0.289262 -4.8033 0
M  V30 4095 C 389.071 -0.0826125 -5.21135 0
M  V30 4096 C 386.399 -0.584853 -5.83778 0
M  V30 4097 C 388.751 -0.944414 -6.25511 0
M  V30 4098 C 387.415 -1.20061 -6.56614 0
M  V30 4099 H 386.685 0.264602 -0.692146 0
M  V30 4100 H 389.332 -0.0169496 -1.91492 0
M  V30 4101 H 387.637 2.24497 -3.21105 0
M  V30 4102 H 389.334 1.97209 -3.49155 0
M  V30 4103 H 385.924 0.738414 -4.22191 0
M  V30 4104 H 390.108 0.0950302 -4.96209 0
M  V30 4105 H 385.364 -0.79168 -6.06253 0
M  V30 4106 H 389.538 -1.43026 -6.81554 0
M  V30 4107 H 387.165 -1.87967 -7.36595 0
M  V30 4108 N 388.74 1.54641 0.303973 0
M  V30 4109 C 389.97 1.77511 1.05705 0
M  V30 4110 C 390.378 0.533228 1.81531 0
M  V30 4111 O 389.721 -0.506423 1.76582 0
M  V30 4112 C 389.783 2.92779 2.08617 0
M  V30 4113 C 389.447 4.30977 1.52013 0
M  V30 4114 C 390.444 5.11115 0.9517 0
M  V30 4115 C 388.129 4.77571 1.55665 0
M  V30 4116 C 390.123 6.35966 0.427327 0
M  V30 4117 C 387.81 6.02384 1.02841 0
M  V30 4118 C 388.808 6.81417 0.464713 0
M  V30 4119 O 388.496 8.03881 -0.0555283 0
M  V30 4120 H 388.228 0.59579 0.319391 0
M  V30 4121 H 390.782 2.02401 0.349712 0
M  V30 4122 H 389.012 2.63506 2.83022 0
M  V30 4123 H 390.701 3.03252 2.69802 0
M  V30 4124 H 391.467 4.76264 0.916407 0
M  V30 4125 H 387.346 4.16085 1.9848 0
M  V30 4126 H 390.89 6.97599 -0.0133062 0
M  V30 4127 H 386.787 6.36723 1.06084 0
M  V30 4128 H 387.555 8.18479 0.0580522 0
M  V30 4129 N 390.218 -0.567019 1.47046 0
M  V30 4130 C 391.181 -1.65696 1.58359 0
M  V30 4131 C 392.181 -1.54097 0.459441 0
M  V30 4132 O 393.371 -1.58432 0.724225 0
M  V30 4133 C 390.503 -3.05197 1.51879 0
M  V30 4134 H 391.696 -1.57019 2.5551 0
M  V30 4135 H 389.249 -0.786148 1.3509 0
M  V30 4136 H 389.984 -3.19417 0.560673 0
M  V30 4137 H 389.769 -3.15025 2.33455 0
M  V30 4138 H 391.259 -3.84511 1.62913 0
M  V30 4139 N 391.696 -1.35014 -0.812953 0
M  V30 4140 C 392.626 -1.30069 -1.93919 0
M  V30 4141 C 393.607 -0.176275 -1.69184 0
M  V30 4142 O 394.792 -0.370227 -1.90638 0
M  V30 4143 C 391.922 -1.06547 -3.30552 0
M  V30 4144 C 390.876 -2.15561 -3.69753 0
M  V30 4145 C 390.202 -1.77214 -5.04479 0
M  V30 4146 C 391.502 -3.57476 -3.808 0
M  V30 4147 H 393.196 -2.24303 -1.98314 0
M  V30 4148 H 390.742 -1.07977 -0.952736 0
M  V30 4149 H 392.695 -1.01729 -4.08937 0
M  V30 4150 H 391.419 -0.0875719 -3.26483 0
M  V30 4151 H 390.078 -2.19466 -2.9365 0
M  V30 4152 H 389.726 -0.780589 -4.96906 0
M  V30 4153 H 389.426 -2.50184 -5.31678 0
M  V30 4154 H 390.95 -1.7391 -5.8531 0
M  V30 4155 H 392.364 -3.55929 -4.4943 0
M  V30 4156 H 390.761 -4.29152 -4.19462 0
M  V30 4157 H 391.831 -3.94091 -2.82525 0
M  V30 4158 N 393.175 1.03435 -1.18907 0
M  V30 4159 C 394.591 1.28973 -0.940111 0
M  V30 4160 C 394.791 1.97676 0.390691 0
M  V30 4161 O 393.847 2.26127 1.12352 0
M  V30 4162 C 395.16 2.14221 -2.11021 0
M  V30 4163 C 396.708 2.27547 -2.14922 0
M  V30 4164 C 397.183 3.16164 -3.31367 0
M  V30 4165 N 398.674 3.23752 -3.31269 0
M  V30 4166 C 399.409 3.92495 -4.18014 0
M  V30 4167 N 398.905 4.63515 -5.14904 0
M  V30 4168 N 400.698 3.88838 -4.05908 0
M  V30 4169 H 392.849 0.57252 -2.04538 0
M  V30 4170 H 395.112 0.315184 -0.894071 0
M  V30 4171 H 394.818 1.71054 -3.073 0
M  V30 4172 H 394.692 3.14919 -2.0762 0
M  V30 4173 H 397.079 2.69947 -1.19217 0
M  V30 4174 H 397.16 1.26418 -2.22378 0
M  V30 4175 H 396.804 2.74474 -4.27348 0
M  V30 4176 H 396.734 4.17339 -3.21148 0
M  V30 4177 H 399.225 2.73167 -2.61129 0
M  V30 4178 H 399.538 5.13583 -5.77453 0
M  V30 4179 H 397.883 4.62398 -5.18857 0
M  V30 4180 H 401.074 3.32491 -3.29495 0
M  V30 4181 H 401.247 4.4214 -4.73726 0
M  V30 4182 N 394.653 0.992116 1.22453 0
M  V30 4183 C 396.064 0.702776 1.72968 0
M  V30 4184 C 396.415 -0.780399 1.80012 0
M  V30 4185 O 395.54 -1.61007 1.44589 0
M  V30 4186 C 396.135 1.26903 3.14135 0
M  V30 4187 C 394.694 1.02909 3.62059 0
M  V30 4188 C 393.841 1.38969 2.39964 0
M  V30 4189 H 396.792 1.16457 1.07812 0
M  V30 4190 H 396.813 0.647223 3.74955 0
M  V30 4191 H 396.325 2.34851 3.08977 0
M  V30 4192 H 394.426 -0.0337979 3.72585 0
M  V30 4193 H 394.539 1.69191 4.48231 0
M  V30 4194 H 392.903 0.808279 2.41535 0
M  V30 4195 H 393.686 2.4792 2.37467 0
M  V30 4196 N 396.131 -1.37776 0.765217 0
M  V30 4197 C 397.408 -1.93975 0.251596 0
M  V30 4198 C 397.788 -1.69949 -1.25222 0
M  V30 4199 O 397.136 -1.04457 -2.03226 0
M  V30 4200 C 397.346 -3.43487 0.617895 0
M  V30 4201 C 398.694 -4.20564 0.584029 0
M  V30 4202 O 399.718 -3.5182 0.556888 0
M  V30 4203 O 398.577 -5.43138 0.605291 0
M  V30 4204 H 395.671 -0.82509 0.0561806 0
M  V30 4205 H 398.217 -1.47101 0.846128 0
M  V30 4206 H 396.989 -3.5453 1.65602 0
M  V30 4207 H 396.612 -3.976 -0.00403411 0
M  V30 4208 N 397.609 -0.515225 -1.4894 0
M  V30 4209 C 399.025 -0.172099 -1.58669 0
M  V30 4210 C 399.225 1.32405 -1.51892 0
M  V30 4211 O 398.281 2.10116 -1.40027 0
M  V30 4212 C 399.594 -0.761533 -2.90897 0
M  V30 4213 C 401.142 -0.728926 -3.04394 0
M  V30 4214 C 401.617 -1.29667 -4.39261 0
M  V30 4215 N 403.108 -1.25799 -4.4579 0
M  V30 4216 C 403.843 -1.66733 -5.48623 0
M  V30 4217 N 403.339 -2.15327 -6.58488 0
M  V30 4218 N 405.132 -1.58061 -5.39419 0
M  V30 4219 H 397.283 -1.48778 -1.51588 0
M  V30 4220 H 399.546 -0.617968 -0.718901 0
M  V30 4221 H 399.252 -1.81136 -3.01468 0
M  V30 4222 H 399.126 -0.230106 -3.76497 0
M  V30 4223 H 401.513 0.312098 -2.93445 0
M  V30 4224 H 401.594 -1.29766 -2.20442 0
M  V30 4225 H 401.238 -2.33655 -4.50963 0
M  V30 4226 H 401.168 -0.703752 -5.21876 0
M  V30 4227 H 403.659 -0.902102 -3.66975 0
M  V30 4228 H 403.972 -2.44594 -7.33071 0
M  V30 4229 H 402.317 -2.19311 -6.59491 0
M  V30 4230 H 405.508 -1.19906 -4.52482 0
M  V30 4231 H 405.681 -1.90284 -6.19432 0
M  V30 4232 N 399.087 1.5561 -0.249682 0
M  V30 4233 C 400.364 1.90932 0.424761 0
M  V30 4234 C 400.744 1.17078 1.75658 0
M  V30 4235 O 400.092 0.289176 2.26663 0
M  V30 4236 C 400.302 3.43975 0.590109 0
M  V30 4237 C 401.65 4.15281 0.884714 0
M  V30 4238 O 402.674 3.49729 0.67587 0
M  V30 4239 O 401.533 5.31236 1.28259 0
M  V30 4240 H 398.627 0.794815 0.228468 0
M  V30 4241 H 401.173 1.67135 -0.293954 0
M  V30 4242 H 399.945 3.89748 -0.34818 0
M  V30 4243 H 399.568 3.73644 1.35926 0
M  V30 4244 N 400.565 -0.0233959 1.57583 0
M  V30 4245 C 401.814 -0.712133 1.8871 0
M  V30 4246 C 402.127 -1.76217 0.848944 0
M  V30 4247 O 403.333 -2.50389 1.04964 0
M  V30 4248 C 401.789 -1.3177 3.3491 0
M  V30 4249 C 401.397 -0.303715 4.46969 0
M  V30 4250 C 403.141 -1.98598 3.75179 0
M  V30 4251 C 401.048 -0.917945 5.84233 0
M  V30 4252 H 399.978 -0.269735 0.704101 0
M  V30 4253 H 402.629 0.0333114 1.8347 0
M  V30 4254 H 401.011 -2.11304 3.34913 0
M  V30 4255 H 402.185 0.465325 4.58445 0
M  V30 4256 H 400.5 0.2628 4.1557 0
M  V30 4257 H 403.097 -2.45416 4.75053 0
M  V30 4258 H 403.44 -2.80659 3.07468 0
M  V30 4259 H 403.973 -1.25831 3.77374 0
M  V30 4260 H 400.712 -0.136633 6.55358 0
M  V30 4261 H 400.232 -1.65669 5.76467 0
M  V30 4262 H 401.911 -1.4236 6.31144 0
M  V30 4263 N 402.043 -1.548 -0.295768 0
M  V30 4264 C 402.953 -1.89177 -1.38742 0
M  V30 4265 C 403.969 -0.786481 -1.55211 0
M  V30 4266 O 405.145 -1.08344 -1.69775 0
M  V30 4267 C 402.21 -2.13663 -2.73036 0
M  V30 4268 C 401.271 -3.37349 -2.65508 0
M  V30 4269 C 400.504 -3.60658 -3.93398 0
M  V30 4270 O 400.727 -2.86882 -4.93006 0
M  V30 4271 O 399.661 -4.54179 -3.94975 0
M  V30 4272 H 403.487 -2.82059 -1.12589 0
M  V30 4273 H 401.072 -1.41056 -0.492295 0
M  V30 4274 H 402.954 -2.3094 -3.52484 0
M  V30 4275 H 401.629 -1.23967 -2.99022 0
M  V30 4276 H 400.536 -3.25431 -1.84514 0
M  V30 4277 H 401.869 -4.27192 -2.44474 0
M  V30 4278 N 403.521 0.559213 -1.47345 0
M  V30 4279 C 404.451 1.67622 -1.62558 0
M  V30 4280 C 405.432 1.63331 -0.475087 0
M  V30 4281 O 406.617 1.80983 -0.704182 0
M  V30 4282 C 403.747 3.0626 -1.63774 0
M  V30 4283 C 402.701 3.25397 -2.7803 0
M  V30 4284 C 402.027 4.64801 -2.64318 0
M  V30 4285 C 403.327 3.10965 -4.19641 0
M  V30 4286 H 405.021 1.55146 -2.56067 0
M  V30 4287 H 402.567 0.744961 -1.23233 0
M  V30 4288 H 404.52 3.84247 -1.73008 0
M  V30 4289 H 403.244 3.1969 -0.66825 0
M  V30 4290 H 401.903 2.49817 -2.68304 0
M  V30 4291 H 401.551 4.75028 -1.65401 0
M  V30 4292 H 401.251 4.78555 -3.40968 0
M  V30 4293 H 402.775 5.44926 -2.75478 0
M  V30 4294 H 404.189 3.78772 -4.30354 0
M  V30 4295 H 402.586 3.36229 -4.97062 0
M  V30 4296 H 403.656 2.07736 -4.38148 0
M  V30 4297 N 404.999 1.35443 0.805782 0
M  V30 4298 C 406.227 1.31878 1.59423 0
M  V30 4299 C 406.642 -0.103562 1.88516 0
M  V30 4300 O 405.999 -1.05575 1.48863 0
M  V30 4301 C 406.05 2.12426 2.92502 0
M  V30 4302 O 405.771 3.49115 2.6467 0
M  V30 4303 C 407.272 2.16455 3.86862 0
M  V30 4304 H 404.492 0.453002 0.495005 0
M  V30 4305 H 407.036 1.78309 1.00131 0
M  V30 4306 H 405.191 1.69593 3.48306 0
M  V30 4307 H 405.605 3.90957 3.49647 0
M  V30 4308 H 407.079 2.77204 4.77349 0
M  V30 4309 H 407.556 1.16352 4.23508 0
M  V30 4310 H 408.162 2.59453 3.36993 0
M  V30 4311 N 406.477 -1.02803 1.19454 0
M  V30 4312 C 407.407 -2.12999 0.956758 0
M  V30 4313 C 408.388 -1.69743 -0.110188 0
M  V30 4314 O 409.573 -1.94148 0.0450038 0
M  V30 4315 C 406.703 -3.43746 0.495553 0
M  V30 4316 C 405.657 -4.00688 1.50443 0
M  V30 4317 C 404.983 -5.27067 0.900275 0
M  V30 4318 C 406.283 -4.35397 2.8849 0
M  V30 4319 H 407.977 -2.33148 1.87836 0
M  V30 4320 H 405.523 -1.12045 0.904539 0
M  V30 4321 H 407.476 -4.2021 0.316493 0
M  V30 4322 H 406.2 -3.23321 -0.461646 0
M  V30 4323 H 404.859 -3.2632 1.67065 0
M  V30 4324 H 404.507 -5.02959 -0.064503 0
M  V30 4325 H 404.207 -5.66127 1.57397 0
M  V30 4326 H 405.731 -6.06196 0.73203 0
M  V30 4327 H 407.145 -5.02795 2.75446 0
M  V30 4328 H 405.542 -4.85541 3.52661 0
M  V30 4329 H 406.612 -3.44662 3.41081 0
M  V30 4330 N 407.956 -0.998596 -1.21925 0
M  V30 4331 C 409.372 -0.710303 -1.42923 0
M  V30 4332 C 409.572 0.716933 -1.88314 0
M  V30 4333 O 408.628 1.48712 -2.04062 0
M  V30 4334 C 409.941 -1.72072 -2.466 0
M  V30 4335 C 411.489 -1.73681 -2.60392 0
M  V30 4336 C 411.964 -2.73601 -3.67296 0
M  V30 4337 N 413.455 -2.7223 -3.7476 0
M  V30 4338 C 414.19 -3.46206 -4.57087 0
M  V30 4339 N 413.686 -4.29802 -5.43362 0
M  V30 4340 N 415.479 -3.34886 -4.51451 0
M  V30 4341 H 407.63 -1.92028 -0.9077 0
M  V30 4342 H 409.893 -0.828487 -0.460775 0
M  V30 4343 H 409.599 -2.74231 -2.20206 0
M  V30 4344 H 409.473 -1.51818 -3.45299 0
M  V30 4345 H 411.86 -0.722173 -2.86127 0
M  V30 4346 H 411.941 -1.98005 -1.61949 0
M  V30 4347 H 411.585 -3.75217 -3.42307 0
M  V30 4348 H 411.515 -2.46545 -4.65321 0
M  V30 4349 H 414.006 -2.11576 -3.1312 0
M  V30 4350 H 414.319 -4.83061 -6.03218 0
M  V30 4351 H 412.664 -4.33887 -5.42925 0
M  V30 4352 H 415.855 -2.69015 -3.83078 0
M  V30 4353 H 416.028 -3.92796 -5.15379 0
M  V30 4354 N 409.434 1.37368 -0.772513 0
M  V30 4355 C 410.364 2.32856 -0.173304 0
M  V30 4356 C 411.345 1.55818 0.682262 0
M  V30 4357 O 412.53 1.84052 0.619566 0
M  V30 4358 C 409.66 3.40048 0.706007 0
M  V30 4359 C 408.614 4.27973 -0.0483144 0
M  V30 4360 C 407.94 5.26184 0.950491 0
M  V30 4361 C 409.24 5.07665 -1.22776 0
M  V30 4362 H 410.934 2.83217 -0.971002 0
M  V30 4363 H 408.48 1.3617 -0.468377 0
M  V30 4364 H 410.433 4.05827 1.13501 0
M  V30 4365 H 409.157 2.88214 1.53623 0
M  V30 4366 H 407.816 3.63726 -0.458107 0
M  V30 4367 H 407.464 4.7063 1.77529 0
M  V30 4368 H 407.164 5.85872 0.450314 0
M  V30 4369 H 408.688 5.94838 1.37842 0
M  V30 4370 H 410.102 5.66578 -0.875366 0
M  V30 4371 H 408.499 5.76681 -1.66007 0
M  V30 4372 H 409.569 4.40294 -2.03149 0
M  V30 4373 N 410.912 0.523116 1.48665 0
M  V30 4374 C 411.86 -0.256859 2.31177 0
M  V30 4375 C 412.854 -0.94199 1.40794 0
M  V30 4376 O 414.06 -0.867157 1.57735 0
M  V30 4377 H 410.435 -0.1017 0.745091 0
M  V30 4378 H 412.406 0.458739 2.94853 0
M  V30 4379 C 411.155 -1.29503 3.22683 0
M  V30 4380 H 410.478 -0.777248 3.92172 0
M  V30 4381 H 411.918 -1.81233 3.83315 0
M  V30 4382 C 410.377 -2.32501 2.43813 0
M  V30 4383 O 410.907 -3.3881 2.15803 0
M  V30 4384 N 409.113 -2.05538 2.05432 0
M  V30 4385 H 408.66 -1.19104 2.28412 0
M  V30 4386 H 408.618 -2.74676 1.52973 0
M  V30 4387 N 412.39 -1.55475 0.257931 0
M  V30 4388 C 413.801 -1.8511 -0.243135 0
M  V30 4389 C 414.152 -1.17986 -1.5676 0
M  V30 4390 O 413.277 -0.462102 -2.11409 0
M  V30 4391 C 413.872 -3.35826 -0.447929 0
M  V30 4392 C 412.431 -3.65647 -0.893245 0
M  V30 4393 C 411.578 -2.7729 0.0232965 0
M  V30 4394 H 414.529 -1.51261 0.480199 0
M  V30 4395 H 414.55 -3.58002 -1.28898 0
M  V30 4396 H 414.062 -3.84652 0.516196 0
M  V30 4397 H 412.163 -3.22308 -1.86945 0
M  V30 4398 H 412.276 -4.73312 -0.742469 0
M  V30 4399 H 410.64 -2.49942 -0.490021 0
M  V30 4400 H 411.423 -3.28926 0.982994 0
M  V30 4401 N 413.868 0.0150385 -1.57593 0
M  V30 4402 C 414.815 1.01126 -2.07466 0
M  V30 4403 C 415.785 1.35064 -0.966794 0
M  V30 4404 O 416.97 1.4516 -1.23827 0
M  V30 4405 C 414.11 2.30276 -2.57035 0
M  V30 4406 C 413.223 2.02373 -3.81666 0
M  V30 4407 C 412.358 3.25496 -4.19793 0
M  V30 4408 C 411.397 2.93211 -5.37303 0
M  V30 4409 N 410.534 4.08826 -5.70794 0
M  V30 4410 H 415.374 0.57901 -2.92321 0
M  V30 4411 H 412.911 0.27426 -1.44521 0
M  V30 4412 H 414.869 3.05757 -2.83846 0
M  V30 4413 H 413.499 2.71197 -1.75077 0
M  V30 4414 H 412.551 1.17327 -3.61854 0
M  V30 4415 H 413.863 1.74567 -4.67256 0
M  V30 4416 H 413.017 4.09333 -4.47807 0
M  V30 4417 H 411.756 3.56428 -3.32882 0
M  V30 4418 H 410.761 2.07777 -5.09027 0
M  V30 4419 H 411.986 2.63542 -6.25877 0
M  V30 4420 H 409.932 4.39682 -4.86842 0
M  V30 4421 H 409.849 3.84491 -6.50924 0
M  V30 4422 H 411.117 4.93496 -6.03392 0
M  V30 4423 N 415.346 1.54954 0.287554 0
M  V30 4424 C 416.309 1.86076 1.33823 0
M  V30 4425 C 417.309 0.734414 1.43049 0
M  V30 4426 O 418.499 1.00266 1.42452 0
M  V30 4427 C 415.631 2.05305 2.72144 0
M  V30 4428 H 416.824 2.79984 1.07465 0
M  V30 4429 H 414.377 1.47223 0.524902 0
M  V30 4430 H 415.112 1.1373 3.03704 0
M  V30 4431 H 414.897 2.873 2.66836 0
M  V30 4432 H 416.387 2.30706 3.48087 0
M  V30 4433 N 416.824 -0.551391 1.4764 0
M  V30 4434 C 417.754 -1.66757 1.63445 0
M  V30 4435 C 418.735 -1.63077 0.483742 0
M  V30 4436 O 419.92 -1.80607 0.71377 0
M  V30 4437 C 417.05 -3.05387 1.65396 0
M  V30 4438 C 416.004 -3.23918 2.79752 0
M  V30 4439 C 415.33 -4.63393 2.66779 0
M  V30 4440 C 416.63 -3.08735 4.21284 0
M  V30 4441 H 418.324 -1.53786 2.56886 0
M  V30 4442 H 415.87 -0.738415 1.23626 0
M  V30 4443 H 417.823 -3.83325 1.75043 0
M  V30 4444 H 416.547 -3.19332 0.685195 0
M  V30 4445 H 415.206 -2.48391 2.69625 0
M  V30 4446 H 414.854 -4.74144 1.67918 0
M  V30 4447 H 414.554 -4.7674 3.43501 0
M  V30 4448 H 416.078 -5.43458 2.78364 0
M  V30 4449 H 417.492 -3.76484 4.32357 0
M  V30 4450 H 415.889 -3.33588 4.98838 0
M  V30 4451 H 416.959 -2.0541 4.39243 0
M  V30 4452 N 418.302 -1.35869 -0.798587 0
M  V30 4453 C 419.53 -1.32722 -1.58722 0
M  V30 4454 C 419.945 0.0935631 -1.88568 0
M  V30 4455 O 419.302 1.04784 -1.49421 0
M  V30 4456 C 419.353 -2.13974 -2.91371 0
M  V30 4457 O 419.074 -3.50514 -2.62815 0
M  V30 4458 C 420.575 -2.18504 -3.85708 0
M  V30 4459 H 417.795 -0.45562 -0.492596 0
M  V30 4460 H 420.339 -1.78837 -0.991843 0
M  V30 4461 H 418.494 -1.71438 -3.47402 0
M  V30 4462 H 418.908 -3.92806 -3.47568 0
M  V30 4463 H 420.382 -2.79732 -4.75872 0
M  V30 4464 H 420.859 -1.18597 -4.22885 0
M  V30 4465 H 421.465 -2.61236 -3.35612 0
M  V30 4466 N 419.78 1.02168 -1.19998 0
M  V30 4467 C 420.71 2.12488 -0.96804 0
M  V30 4468 C 421.691 1.69799 0.101185 0
M  V30 4469 O 422.876 1.94121 -0.0552993 0
M  V30 4470 C 420.006 3.43479 -0.513776 0
M  V30 4471 C 418.96 3.99884 -1.52566 0
M  V30 4472 C 418.286 5.26582 -0.928214 0
M  V30 4473 C 419.586 4.33861 -2.90795 0
M  V30 4474 H 421.28 2.32149 -1.89069 0
M  V30 4475 H 418.826 1.11564 -0.910468 0
M  V30 4476 H 420.779 4.20036 -0.338774 0
M  V30 4477 H 419.503 3.23561 0.444493 0
M  V30 4478 H 418.162 3.25429 -1.68794 0
M  V30 4479 H 417.81 5.02986 0.0378289 0
M  V30 4480 H 417.51 5.65284 -1.60397 0
M  V30 4481 H 419.034 6.05799 -0.764167 0
M  V30 4482 H 420.448 5.01327 -2.78109 0
M  V30 4483 H 418.845 4.83664 -3.55231 0
M  V30 4484 H 419.915 3.42848 -3.42904 0
M  V30 4485 N 421.258 1.00505 1.21394 0
M  V30 4486 C 422.535 0.603277 1.86064 0
M  V30 4487 C 422.915 -0.919095 1.90042 0
M  V30 4488 O 422.263 -1.80607 1.39977 0
M  V30 4489 C 422.473 1.23772 3.26315 0
M  V30 4490 C 423.821 1.34586 4.02705 0
M  V30 4491 O 424.845 1.19304 3.35626 0
M  V30 4492 O 423.704 1.59169 5.22807 0
M  V30 4493 H 420.798 0.206634 0.800769 0
M  V30 4494 H 423.344 1.1017 1.29076 0
M  V30 4495 H 422.116 2.27848 3.18121 0
M  V30 4496 H 421.739 0.725648 3.90922 0
M  V30 4497 N 422.737 -1.36956 0.779787 0
M  V30 4498 C 423.669 -2.28833 0.129639 0
M  V30 4499 C 424.682 -1.4902 -0.655511 0
M  V30 4500 O 425.871 -1.71578 -0.492279 0
M  V30 4501 C 422.971 -3.2833 -0.839792 0
M  V30 4502 C 422.144 -4.3727 -0.10675 0
M  V30 4503 C 421.203 -5.16789 -0.990717 0
M  V30 4504 O 420.229 -5.67406 -0.451516 0
M  V30 4505 N 421.431 -5.32294 -2.3161 0
M  V30 4506 H 424.196 -2.85268 0.918803 0
M  V30 4507 H 421.757 -1.49019 0.632841 0
M  V30 4508 H 423.749 -3.78413 -1.43477 0
M  V30 4509 H 422.319 -2.72605 -1.52988 0
M  V30 4510 H 421.539 -3.88478 0.669216 0
M  V30 4511 H 422.827 -5.07229 0.399464 0
M  V30 4512 H 422.225 -4.92768 -2.77843 0
M  V30 4513 H 420.782 -5.85656 -2.86095 0
M  V30 4514 N 424.215 -0.530993 -1.48385 0
M  V30 4515 C 425.461 -0.00538653 -2.03399 0
M  V30 4516 C 425.816 1.31899 -1.40073 0
M  V30 4517 O 425.109 1.83901 -0.537676 0
M  V30 4518 C 425.303 0.172742 -3.56982 0
M  V30 4519 C 425.132 -1.13282 -4.35198 0
M  V30 4520 C 423.902 -1.69296 -4.76096 0
M  V30 4521 C 426.1 -2.04367 -4.71952 0
M  V30 4522 N 424.082 -2.9413 -5.38851 0
M  V30 4523 C 425.453 -3.13777 -5.34737 0
M  V30 4524 C 427.508 -2.04681 -4.53883 0
M  V30 4525 C 426.211 -4.23567 -5.81363 0
M  V30 4526 C 428.237 -3.13466 -5.01491 0
M  V30 4527 C 427.599 -4.21595 -5.64302 0
M  V30 4528 H 423.698 -0.0434945 -0.780789 0
M  V30 4529 H 426.282 -0.712495 -1.81195 0
M  V30 4530 H 424.453 0.848937 -3.79009 0
M  V30 4531 H 426.185 0.698046 -3.98634 0
M  V30 4532 H 422.94 -1.23422 -4.57235 0
M  V30 4533 H 423.364 -3.57689 -5.74794 0
M  V30 4534 H 428.006 -1.22378 -4.04702 0
M  V30 4535 H 425.724 -5.06648 -6.2955 0
M  V30 4536 H 429.31 -3.14765 -4.893 0
M  V30 4537 H 428.19 -5.04384 -6.00472 0
M  V30 4538 N 425.693 1.55336 -0.266172 0
M  V30 4539 C 426.623 2.25146 0.618981 0
M  V30 4540 C 427.604 1.23845 1.16604 0
M  V30 4541 O 428.789 1.52544 1.20183 0
M  V30 4542 C 425.919 2.96572 1.80728 0
M  V30 4543 C 424.873 4.04726 1.39215 0
M  V30 4544 C 424.199 4.63678 2.66283 0
M  V30 4545 C 425.499 5.19407 0.548942 0
M  V30 4546 H 427.193 2.99377 0.0368116 0
M  V30 4547 H 424.739 1.43991 0.0162651 0
M  V30 4548 H 426.692 3.44116 2.43232 0
M  V30 4549 H 425.416 2.19861 2.41514 0
M  V30 4550 H 424.075 3.57979 0.790351 0
M  V30 4551 H 423.723 3.83646 3.25308 0
M  V30 4552 H 423.423 5.367 2.39222 0
M  V30 4553 H 424.947 5.13967 3.29651 0
M  V30 4554 H 426.361 5.63059 1.07876 0
M  V30 4555 H 424.758 5.98936 0.373593 0
M  V30 4556 H 425.828 4.8295 -0.434394 0
M  V30 4557 N 427.171 -0.0066808 1.57599 0
M  V30 4558 C 428.081 -1.01671 2.11424 0
M  V30 4559 C 429.097 -1.38143 1.05795 0
M  V30 4560 O 430.273 -1.47011 1.37658 0
M  V30 4561 C 427.338 -2.29192 2.60139 0
M  V30 4562 C 426.399 -1.99094 3.80342 0
M  V30 4563 C 425.632 -3.20535 4.26724 0
M  V30 4564 O 425.855 -4.3199 3.72479 0
M  V30 4565 O 424.789 -3.04924 5.18946 0
M  V30 4566 H 428.615 -0.589181 2.9793 0
M  V30 4567 H 426.2 -0.225091 1.47695 0
M  V30 4568 H 428.082 -3.0412 2.917 0
M  V30 4569 H 426.757 -2.71195 1.76733 0
M  V30 4570 H 425.664 -1.21663 3.53764 0
M  V30 4571 H 426.997 -1.61931 4.648 0
M  V30 4572 N 428.649 -1.55105 -0.279332 0
M  V30 4573 C 429.581 -1.83952 -1.36727 0
M  V30 4574 C 430.594 -0.723642 -1.45833 0
M  V30 4575 O 431.783 -1.00141 -1.47763 0
M  V30 4576 C 428.883 -1.98183 -2.74912 0
M  V30 4577 C 428.056 -3.28787 -2.88475 0
M  V30 4578 C 427.115 -3.33162 -4.07295 0
M  V30 4579 O 426.141 -4.06576 -3.98353 0
M  V30 4580 N 427.343 -2.60109 -5.18964 0
M  V30 4581 H 430.108 -2.77853 -1.12328 0
M  V30 4582 H 427.669 -1.54945 -0.469442 0
M  V30 4583 H 429.661 -1.98488 -3.52682 0
M  V30 4584 H 428.231 -1.11177 -2.92162 0
M  V30 4585 H 427.451 -3.41075 -1.97641 0
M  V30 4586 H 428.739 -4.14933 -2.94463 0
M  V30 4587 H 428.137 -2.00136 -5.29115 0
M  V30 4588 H 426.694 -2.66143 -5.94988 0
M  V30 4589 N 430.127 0.543554 -1.4793 0
M  V30 4590 C 431.077 1.64527 -1.57844 0
M  V30 4591 C 432.061 1.54869 -0.436408 0
M  V30 4592 O 433.253 1.63119 -0.687101 0
M  V30 4593 C 430.382 3.03281 -1.6086 0
M  V30 4594 C 429.468 3.18093 -2.80495 0
M  V30 4595 N 429.859 3.02923 -4.05057 0
M  V30 4596 C 428.157 3.49121 -2.77543 0
M  V30 4597 C 428.858 3.20791 -4.85251 0
M  V30 4598 N 427.834 3.47749 -4.17818 0
M  V30 4599 H 431.636 1.51388 -2.5191 0
M  V30 4600 H 429.15 0.748671 -1.44113 0
M  V30 4601 H 431.147 3.82403 -1.66054 0
M  V30 4602 H 429.807 3.17521 -0.678996 0
M  V30 4603 H 430.818 2.79966 -4.35705 0
M  V30 4604 H 427.495 3.69804 -1.93781 0
M  V30 4605 H 428.885 3.13915 -5.9406 0
M  V30 4606 N 431.605 1.3629 0.791371 0
M  V30 4607 C 432.552 1.30458 1.90393 0
M  V30 4608 C 433.522 0.173632 1.6519 0
M  V30 4609 O 434.707 0.35983 1.87376 0
M  V30 4610 C 431.847 1.09777 3.27174 0
M  V30 4611 C 430.96 2.31929 3.64462 0
M  V30 4612 C 430.095 2.04276 4.90352 0
M  V30 4613 C 429.134 3.224 5.20312 0
M  V30 4614 N 428.271 2.94424 6.37385 0
M  V30 4615 H 433.111 2.25589 1.94714 0
M  V30 4616 H 430.648 1.12122 0.952216 0
M  V30 4617 H 432.606 0.958133 4.06049 0
M  V30 4618 H 431.236 0.183014 3.22281 0
M  V30 4619 H 430.288 2.56703 2.80727 0
M  V30 4620 H 431.6 3.20085 3.82553 0
M  V30 4621 H 430.754 1.87231 5.77087 0
M  V30 4622 H 429.493 1.13428 4.74326 0
M  V30 4623 H 428.498 3.40005 4.32061 0
M  V30 4624 H 429.723 4.14071 5.38258 0
M  V30 4625 H 427.669 2.06185 6.22755 0
M  V30 4626 H 427.586 3.76118 6.55798 0
M  V30 4627 H 428.854 2.80953 7.27108 0
M  V30 4628 N 433.083 -1.0153 1.20538 0
M  V30 4629 C 434.331 -1.74803 1.01432 0
M  V30 4630 C 434.652 -1.8963 -0.454456 0
M  V30 4631 O 433.922 -1.43975 -1.32846 0
M  V30 4632 H 432.502 -0.647598 0.372324 0
M  V30 4633 H 435.164 -1.22402 1.5167 0
M  V30 4634 H 434.26 -2.75114 1.47373 0
M  V30 4635 N 434.561 -1.01147 -1.20859 0
M  V30 4636 C 435.838 -0.613136 -1.85742 0
M  V30 4637 C 436.218 0.909004 -1.90526 0
M  V30 4638 O 435.566 1.79862 -1.40932 0
M  V30 4639 C 435.776 -1.255 -3.25654 0
M  V30 4640 C 437.124 -1.3672 -4.01986 0
M  V30 4641 O 438.148 -1.21082 -3.34989 0
M  V30 4642 O 437.007 -1.6194 -5.21956 0
M  V30 4643 H 434.101 -0.210878 -0.799662 0
M  V30 4644 H 436.647 -1.10853 -1.2849 0
M  V30 4645 H 435.419 -2.29532 -3.16908 0
M  V30 4646 H 435.042 -0.746369 -3.90532 0
M  V30 4647 N 436.039 1.36541 -0.78704 0
M  V30 4648 C 437.286 1.99304 -0.358341 0
M  V30 4649 C 437.614 1.62467 1.06933 0
M  V30 4650 O 436.869 0.870019 1.75297 0
M  V30 4651 C 437.168 3.54343 -0.466485 0
M  V30 4652 C 436.834 4.10993 -1.85461 0
M  V30 4653 C 435.496 4.26177 -2.23443 0
M  V30 4654 C 437.848 4.41895 -2.76366 0
M  V30 4655 C 435.176 4.69573 -3.51736 0
M  V30 4656 C 437.528 4.86722 -4.04084 0
M  V30 4657 C 436.192 5.00112 -4.42091 0
M  V30 4658 H 435.462 0.729306 -0.131126 0
M  V30 4659 H 438.109 1.63068 -1.00404 0
M  V30 4660 H 436.414 3.90918 0.262719 0
M  V30 4661 H 438.111 4.00833 -0.115854 0
M  V30 4662 H 434.701 3.99612 -1.54946 0
M  V30 4663 H 438.885 4.29735 -2.48277 0
M  V30 4664 H 434.141 4.78127 -3.81057 0
M  V30 4665 H 438.315 5.09598 -4.7464 0
M  V30 4666 H 435.942 5.33498 -5.41557 0
M  V30 4667 N 437.518 0.538854 1.48102 0
M  V30 4668 C 438.466 -0.232325 2.31437 0
M  V30 4669 C 439.46 -0.927004 1.41785 0
M  V30 4670 O 440.666 -0.850378 1.58646 0
M  V30 4671 H 437.041 -0.0937916 0.746128 0
M  V30 4672 H 439.012 0.489986 2.9435 0
M  V30 4673 C 437.761 -1.26074 3.24038 0
M  V30 4674 H 437.084 -0.735609 3.92974 0
M  V30 4675 H 438.524 -1.77157 3.85216 0
M  V30 4676 C 436.983 -2.29902 2.46265 0
M  V30 4677 O 437.513 -3.36502 2.19384 0
M  V30 4678 N 435.719 -2.03348 2.07601 0
M  V30 4679 H 435.266 -1.16675 2.29662 0
M  V30 4680 H 435.224 -2.73038 1.55877 0
M  V30 4681 N 438.996 -1.55193 0.274407 0
M  V30 4682 C 439.926 -2.25471 -0.607032 0
M  V30 4683 C 440.907 -1.24461 -1.15946 0
M  V30 4684 O 442.092 -1.53179 -1.19373 0
M  V30 4685 C 439.222 -2.97526 -1.79153 0
M  V30 4686 C 438.176 -4.05459 -1.37067 0
M  V30 4687 C 437.502 -4.65084 -2.6382 0
M  V30 4688 C 438.802 -5.19691 -0.521389 0
M  V30 4689 H 440.496 -2.99393 -0.0209343 0
M  V30 4690 H 438.042 -1.43997 -0.00862866 0
M  V30 4691 H 439.995 -3.45402 -2.41404 0
M  V30 4692 H 438.719 -2.21138 -2.40344 0
M  V30 4693 H 437.378 -3.58393 -0.771355 0
M  V30 4694 H 437.026 -3.85365 -3.23268 0
M  V30 4695 H 436.726 -5.37961 -2.36372 0
M  V30 4696 H 438.25 -5.15708 -3.26921 0
M  V30 4697 H 439.664 -5.63623 -1.04889 0
M  V30 4698 H 438.061 -5.99126 -0.341825 0
M  V30 4699 H 439.131 -4.82713 0.46 0
M  V30 4700 N 440.474 -0.00167713 -1.576 0
M  V30 4701 C 441.404 0.988091 -2.11563 0
M  V30 4702 C 442.385 1.35736 -1.02517 0
M  V30 4703 O 443.57 1.44082 -1.30208 0
M  V30 4704 C 440.7 2.27941 -2.62031 0
M  V30 4705 C 439.654 2.0517 -3.75619 0
M  V30 4706 C 438.98 3.4033 -4.12407 0
M  V30 4707 C 440.28 1.41294 -5.02825 0
M  V30 4708 H 441.974 0.538771 -2.94513 0
M  V30 4709 H 439.52 0.257712 -1.41675 0
M  V30 4710 H 441.473 2.97539 -2.9841 0
M  V30 4711 H 440.197 2.74989 -1.76205 0
M  V30 4712 H 438.856 1.37998 -3.39635 0
M  V30 4713 H 438.504 3.85085 -3.23603 0
M  V30 4714 H 438.204 3.25909 -4.88935 0
M  V30 4715 H 439.728 4.1124 -4.51347 0
M  V30 4716 H 441.142 2.00851 -5.36965 0
M  V30 4717 H 439.539 1.37356 -5.84169 0
M  V30 4718 H 440.609 0.382362 -4.8339 0
M  V30 4719 O 441.991 1.60887 0.140552 0
M  V30 4720 H 442.682 1.77558 0.77413 0
M  V30 END ATOM
M  V30 BEGIN BOND
M  V30 END BOND
M  V30 END CTAB
M  END
$$$$
