drugbank_target|P0AB77 2-amino-3-ketobutyrate coenzyme A ligase (DB03915)
 OpenBabel12092120033D

  0  0  0     0  0            999 V3000
M  V30 BEGIN CTAB
M  V30 COUNTS 6022 6070 0 0 0
M  V30 BEGIN ATOM
M  V30 1 H -0.908 1.98254 -0.117106 0
M  V30 2 N 0 1.576 0 0
M  V30 3 C 0.933 2.03868 1.02534 0
M  V30 4 C 1.911 0.928543 1.3348 0
M  V30 5 O 3.095 1.19667 1.45644 0
M  V30 6 C 0.222 2.43627 2.35294 0
M  V30 7 C -0.732 3.65373 2.2001 0
M  V30 8 S 0.101 5.13292 1.52614 0
M  V30 9 C 1.257 5.56322 2.86805 0
M  V30 10 H 1.49 2.90518 0.631377 0
M  V30 11 H -0.977 1.52953 0.210867 0
M  V30 12 H 0.981 2.67203 3.11629 0
M  V30 13 H -0.358 1.57376 2.7183 0
M  V30 14 H -1.165 3.90944 3.18086 0
M  V30 15 H -1.563 3.418 1.51819 0
M  V30 16 H 0.729 5.58782 3.83104 0
M  V30 17 H 1.672 6.56266 2.65933 0
M  V30 18 H 2.08 4.83886 2.90714 0
M  V30 19 N 1.4781 -0.272755 1.55222 0
M  V30 20 C 2.8941 -0.619959 1.47067 0
M  V30 21 C 3.0941 -1.895 0.684978 0
M  V30 22 O 2.1501 -2.51675 0.203931 0
M  V30 23 C 3.4631 -0.746693 2.91282 0
M  V30 24 C 5.0111 -0.840731 3.01497 0
M  V30 25 C 5.4861 -0.99924 4.46967 0
M  V30 26 N 6.9771 -1.06476 4.50796 0
M  V30 27 C 7.7121 -1.20621 5.6057 0
M  V30 28 N 7.2081 -1.31483 6.80209 0
M  V30 29 N 9.0011 -1.23733 5.48312 0
M  V30 30 H 1.1521 0.564606 2.04758 0
M  V30 31 H 3.4151 0.191177 0.928523 0
M  V30 32 H 3.1211 0.119753 3.51496 0
M  V30 33 H 2.9951 -1.6269 3.40311 0
M  V30 34 H 5.3821 -1.69764 2.41379 0
M  V30 35 H 5.4631 0.0640874 2.5572 0
M  V30 36 H 5.1071 -0.146984 5.07687 0
M  V30 37 H 5.0371 -1.91871 4.90401 0
M  V30 38 H 7.5281 -0.993196 3.64615 0
M  V30 39 H 7.8411 -1.42111 7.59621 0
M  V30 40 H 6.1861 -1.28487 6.8302 0
M  V30 41 H 9.3771 -1.14877 4.53785 0
M  V30 42 H 9.5501 -1.34412 6.33906 0
M  V30 43 N 2.9562 -1.48159 -0.537278 0
M  V30 44 C 4.2042 -1.55497 -1.29094 0
M  V30 45 C 4.5252 -0.227454 -1.93669 0
M  V30 46 O 3.7952 0.750386 -1.80959 0
M  V30 47 H 2.3752 -0.572832 -0.47945 0
M  V30 48 H 5.0372 -1.84579 -0.625818 0
M  V30 49 H 4.1332 -2.33216 -2.07405 0
M  V30 50 N 4.4343 0.785586 -1.36625 0
M  V30 51 C 5.3443 1.92964 -1.33425 0
M  V30 52 C 6.3603 1.72394 -0.235851 0
M  V30 53 O 7.5363 1.95866 -0.468878 0
M  V30 54 C 4.6013 3.27884 -1.12662 0
M  V30 55 C 3.6623 3.61204 -2.32013 0
M  V30 56 C 2.8953 4.89687 -2.12231 0
M  V30 57 O 3.1183 5.59704 -1.09945 0
M  V30 58 O 2.0523 5.21752 -3.00098 0
M  V30 59 H 5.8783 1.98613 -2.29753 0
M  V30 60 H 3.4633 0.926384 -1.17211 0
M  V30 61 H 5.3453 4.08614 -1.03016 0
M  V30 62 H 4.0203 3.23118 -0.193991 0
M  V30 63 H 2.9273 2.80765 -2.47228 0
M  V30 64 H 4.2603 3.70698 -3.23796 0
M  V30 65 N 5.9124 1.20967 1.01018 0
M  V30 66 C 7.1594 1.02374 1.74716 0
M  V30 67 C 7.4874 -0.443375 1.89379 0
M  V30 68 O 6.7424 -1.34535 1.42123 0
M  V30 69 C 7.0414 1.65997 3.16512 0
M  V30 70 C 6.7074 3.15831 3.2181 0
M  V30 71 C 5.3694 3.56719 3.22963 0
M  V30 72 C 7.7214 4.11816 3.19464 0
M  V30 73 C 5.0494 4.92107 3.19449 0
M  V30 74 C 7.4014 5.47158 3.17491 0
M  V30 75 C 6.0654 5.87451 3.16951 0
M  V30 76 H 5.3354 0.374614 0.639332 0
M  V30 77 H 7.9824 1.50485 1.18434 0
M  V30 78 H 6.2874 1.10166 3.75993 0
M  V30 79 H 7.9844 1.49119 3.72242 0
M  V30 80 H 4.5744 2.83263 3.21652 0
M  V30 81 H 8.7584 3.81257 3.17737 0
M  V30 82 H 4.0144 5.22579 3.17366 0
M  V30 83 H 8.1884 6.21274 3.14629 0
M  V30 84 H 5.8154 6.92329 3.13983 0
M  V30 85 N 7.3905 -1.2043 1.01659 0
M  V30 86 C 8.6205 -1.93496 0.724081 0
M  V30 87 C 9.0285 -1.74998 -0.71918 0
M  V30 88 O 8.3715 -1.06118 -1.49949 0
M  V30 89 C 8.4335 -3.45886 0.97994 0
M  V30 90 C 8.0975 -3.88145 2.41232 0
M  V30 91 C 9.0945 -3.93907 3.39313 0
M  V30 92 C 6.7795 -4.20134 2.75305 0
M  V30 93 C 8.7735 -4.31069 4.6953 0
M  V30 94 C 6.4605 -4.56971 4.05735 0
M  V30 95 C 7.4585 -4.62411 5.02658 0
M  V30 96 O 7.1465 -4.98403 6.30754 0
M  V30 97 H 6.8785 -0.621824 0.265162 0
M  V30 98 H 9.4325 -1.53867 1.36066 0
M  V30 99 H 7.6625 -3.85639 0.286198 0
M  V30 100 H 9.3515 -4.0018 0.679021 0
M  V30 101 H 10.1175 -3.69357 3.14325 0
M  V30 102 H 5.9965 -4.1509 2.00551 0
M  V30 103 H 9.5405 -4.3523 5.45179 0
M  V30 104 H 5.4375 -4.80977 4.30502 0
M  V30 105 H 6.2055 -5.16395 6.35042 0
M  V30 106 N 8.8686 -0.792821 -1.36206 0
M  V30 107 C 9.8006 -0.151469 -2.28699 0
M  V30 108 C 10.8136 0.641262 -1.49638 0
M  V30 109 O 12.0026 0.475885 -1.72039 0
M  V30 110 C 9.1026 0.808424 -3.29117 0
M  V30 111 C 8.2756 0.0650202 -4.37352 0
M  V30 112 C 7.3346 0.941358 -5.17711 0
M  V30 113 O 6.3606 0.397352 -5.67811 0
M  V30 114 N 7.5626 2.2652 -5.3448 0
M  V30 115 H 10.3276 -0.945982 -2.84379 0
M  V30 116 H 7.8886 -0.647032 -1.48409 0
M  V30 117 H 9.8806 1.3986 -3.79765 0
M  V30 118 H 8.4506 1.5038 -2.74052 0
M  V30 119 H 7.6706 -0.706255 -3.87822 0
M  V30 120 H 8.9586 -0.447847 -5.06825 0
M  V30 121 H 8.3566 2.73128 -4.95396 0
M  V30 122 H 6.9136 2.80493 -5.88359 0
M  V30 123 N 10.3467 1.47872 -0.545128 0
M  V30 124 C 11.2787 2.27869 0.246621 0
M  V30 125 C 12.2917 1.36282 0.890561 0
M  V30 126 O 13.4807 1.61207 0.766449 0
M  V30 127 C 10.5807 3.10159 1.36582 0
M  V30 128 C 9.7537 4.29627 0.820954 0
M  V30 129 C 8.8127 4.93607 1.82314 0
M  V30 130 O 7.8387 5.52366 1.37406 0
M  V30 131 N 9.0407 4.87211 3.15603 0
M  V30 132 H 11.8057 2.96459 -0.439539 0
M  V30 133 H 9.3667 1.57367 -0.380421 0
M  V30 134 H 11.3587 3.49829 2.03474 0
M  V30 135 H 9.9287 2.43891 1.9554 0
M  V30 136 H 9.1487 3.94192 -0.0244032 0
M  V30 137 H 10.4367 5.06928 0.436063 0
M  V30 138 H 9.8347 4.40651 3.54744 0
M  V30 139 H 8.3917 5.30937 3.78087 0
M  V30 140 N 11.8248 0.280983 1.55075 0
M  V30 141 C 12.7548 -0.597469 2.25727 0
M  V30 142 C 13.7358 -1.15417 1.24952 0
M  V30 143 O 14.9208 -1.18722 1.53684 0
M  V30 144 C 12.0508 -1.7789 2.98283 0
M  V30 145 C 11.0048 -1.35347 4.06036 0
M  V30 146 C 10.3308 -2.61846 4.66198 0
M  V30 147 C 11.6308 -0.499354 5.19907 0
M  V30 148 H 13.3248 -0.00824265 2.99399 0
M  V30 149 H 10.8708 -0.0025244 1.44 0
M  V30 150 H 12.8238 -2.39937 3.46422 0
M  V30 151 H 11.5478 -2.39405 2.22155 0
M  V30 152 H 10.2068 -0.756156 3.58717 0
M  V30 153 H 9.8548 -3.21632 3.86732 0
M  V30 154 H 9.5548 -2.3409 5.38958 0
M  V30 155 H 11.0788 -3.24732 5.1709 0
M  V30 156 H 12.4928 -1.02498 5.64063 0
M  V30 157 H 10.8898 -0.316424 5.99265 0
M  V30 158 H 11.9598 0.480459 4.82514 0
M  V30 159 N 13.3029 -1.57598 0.00835791 0
M  V30 160 C 14.5309 -1.95214 -0.68549 0
M  V30 161 C 14.9459 -0.883706 -1.66841 0
M  V30 162 O 14.3029 0.136565 -1.81988 0
M  V30 163 C 14.3539 -3.32865 -1.41007 0
M  V30 164 O 14.0749 -4.35609 -0.466552 0
M  V30 165 C 15.5759 -3.84991 -2.19765 0
M  V30 166 H 12.7959 -0.643422 -0.190392 0
M  V30 167 H 15.3399 -2.04406 0.0619607 0
M  V30 168 H 13.4949 -3.24956 -2.10908 0
M  V30 169 H 13.9089 -5.15288 -0.978699 0
M  V30 170 H 15.3829 -4.8371 -2.65948 0
M  V30 171 H 15.8599 -3.18137 -3.02796 0
M  V30 172 H 16.4659 -3.96103 -1.54864 0
M  V30 173 N 14.781 0.264519 -1.55364 0
M  V30 174 C 15.729 1.34702 -1.89626 0
M  V30 175 C 16.723 1.50712 -0.773459 0
M  V30 176 O 17.929 1.52395 -0.957897 0
M  V30 177 H 14.304 0.450682 -0.601988 0
M  V30 178 H 16.275 1.0306 -2.80038 0
M  V30 179 C 15.024 2.6989 -2.19214 0
M  V30 180 H 14.347 2.58365 -3.05103 0
M  V30 181 H 15.787 3.44553 -2.47102 0
M  V30 182 C 14.246 3.21637 -1.00254 0
M  V30 183 O 14.776 4.00973 -0.241501 0
M  V30 184 N 12.982 2.7943 -0.797938 0
M  V30 185 H 12.529 2.15026 -1.4185 0
M  V30 186 H 12.487 3.144 -0.00363422 0
M  V30 187 N 16.2591 1.48442 0.529413 0
M  V30 188 C 17.5361 1.46978 1.29062 0
M  V30 189 C 17.9161 0.181769 2.10316 0
M  V30 190 O 17.2641 -0.836481 2.12639 0
M  V30 191 C 17.4741 2.7321 2.17157 0
M  V30 192 C 18.8221 3.21562 2.77278 0
M  V30 193 O 19.8461 2.74131 2.27444 0
M  V30 194 O 18.7051 4.04094 3.67927 0
M  V30 195 H 15.7991 0.587003 0.582543 0
M  V30 196 H 18.3451 1.60676 0.546021 0
M  V30 197 H 17.1171 3.58465 1.56903 0
M  V30 198 H 16.7401 2.62235 2.98862 0
M  V30 199 N 17.7372 -0.778329 1.37039 0
M  V30 200 C 18.6672 -1.90546 1.34962 0
M  V30 201 C 19.6482 -1.68681 0.219274 0
M  V30 202 O 20.8332 -1.89634 0.418624 0
M  V30 203 C 17.9632 -3.27734 1.14925 0
M  V30 204 C 16.9172 -3.64147 2.24902 0
M  V30 205 C 16.2432 -4.99806 1.89996 0
M  V30 206 C 17.5432 -3.71579 3.67051 0
M  V30 207 H 19.2372 -1.92541 2.29277 0
M  V30 208 H 16.7832 -0.924948 1.10366 0
M  V30 209 H 18.7362 -4.06215 1.12104 0
M  V30 210 H 17.4602 -3.26154 0.170631 0
M  V30 211 H 16.1192 -2.8797 2.26868 0
M  V30 212 H 15.7672 -4.94759 0.906796 0
M  V30 213 H 15.4672 -5.25139 2.63634 0
M  V30 214 H 16.9912 -5.80694 1.88749 0
M  V30 215 H 18.4052 -4.40227 3.67251 0
M  V30 216 H 16.8022 -4.08405 4.39688 0
M  V30 217 H 17.8722 -2.72404 4.01154 0
M  V30 218 N 19.2153 -1.21501 -1.00376 0
M  V30 219 C 20.1253 -0.991447 -2.12621 0
M  V30 220 C 21.1413 0.0568446 -1.73907 0
M  V30 221 O 22.3173 -0.13348 -2.00957 0
M  V30 222 C 19.3823 -0.560312 -3.42142 0
M  V30 223 C 18.4433 -1.68096 -3.95022 0
M  V30 224 C 17.6763 -1.2703 -5.18362 0
M  V30 225 O 17.8993 -0.144438 -5.70217 0
M  V30 226 O 16.8333 -2.08269 -5.64719 0
M  V30 227 H 20.6593 -1.93158 -2.34358 0
M  V30 228 H 18.2443 -0.999999 -1.10997 0
M  V30 229 H 20.1263 -0.329724 -4.20108 0
M  V30 230 H 18.8013 0.351089 -3.2179 0
M  V30 231 H 17.7083 -1.96597 -3.18278 0
M  V30 232 H 19.0413 -2.56983 -4.19786 0
M  V30 233 N 20.6934 1.19889 -1.02296 0
M  V30 234 C 21.9214 1.9339 -0.735399 0
M  V30 235 C 22.3364 1.75148 0.704887 0
M  V30 236 O 21.6934 1.06954 1.47875 0
M  V30 237 C 21.7444 3.45313 -1.06962 0
M  V30 238 O 21.4654 3.62964 -2.45334 0
M  V30 239 C 22.9664 4.35948 -0.804021 0
M  V30 240 H 20.1864 0.61448 -0.269546 0
M  V30 241 H 22.7304 1.522 -1.36585 0
M  V30 242 H 20.8854 3.84359 -0.484455 0
M  V30 243 H 21.2994 4.56886 -2.57595 0
M  V30 244 H 22.7734 5.41174 -1.0879 0
M  V30 245 H 23.2504 4.3842 0.261691 0
M  V30 246 H 23.8564 4.02574 -1.37164 0
M  V30 247 N 22.1715 0.800033 1.35784 0
M  V30 248 C 23.1345 0.211565 2.28221 0
M  V30 249 C 24.1345 -0.59728 1.49296 0
M  V30 250 O 25.3245 -0.416721 1.69142 0
M  V30 251 C 22.4565 -0.705846 3.33513 0
M  V30 252 H 23.6495 1.02677 2.81776 0
M  V30 253 H 21.2025 0.570211 1.45528 0
M  V30 254 H 21.9375 -1.54498 2.85133 0
M  V30 255 H 21.7225 -0.127655 3.91892 0
M  V30 256 H 23.2125 -1.11211 4.02519 0
M  V30 257 N 23.6496 -1.47581 0.552962 0
M  V30 258 C 25.0656 -1.5818 0.212424 0
M  V30 259 C 25.2656 -1.55213 -1.28496 0
M  V30 260 O 24.3216 -1.45329 -2.06484 0
M  V30 261 C 25.6346 -2.88865 0.835318 0
M  V30 262 C 27.1826 -3.0244 0.806156 0
M  V30 263 C 27.6576 -4.35819 1.40804 0
M  V30 264 N 29.1486 -4.42444 1.37103 0
M  V30 265 C 29.8836 -5.44202 1.80641 0
M  V30 266 N 29.3796 -6.52795 2.32015 0
M  V30 267 N 31.1726 -5.35222 1.71738 0
M  V30 268 H 23.3236 -1.47753 1.52587 0
M  V30 269 H 25.5866 -0.702941 0.636064 0
M  V30 270 H 25.2926 -2.9676 1.88749 0
M  V30 271 H 25.1666 -3.7579 0.325848 0
M  V30 272 H 27.5536 -2.94144 -0.237317 0
M  V30 273 H 27.6346 -2.17068 1.35334 0
M  V30 274 H 27.2786 -4.44871 2.45056 0
M  V30 275 H 27.2086 -5.19916 0.836338 0
M  V30 276 H 29.6996 -3.6456 0.995202 0
M  V30 277 H 30.0126 -7.26609 2.63171 0
M  V30 278 H 28.3576 -6.53696 2.36023 0
M  V30 279 H 31.5486 -4.49284 1.31382 0
M  V30 280 H 31.7216 -6.14389 2.05987 0
M  V30 281 N 25.1277 -0.289203 -1.54924 0
M  V30 282 C 26.0907 0.579144 -2.21762 0
M  V30 283 C 27.0907 1.07047 -1.1999 0
M  V30 284 O 28.2807 0.968384 -1.44803 0
M  V30 285 C 25.4127 1.80055 -2.8947 0
M  V30 286 H 26.6057 -0.00464908 -2.999 0
M  V30 287 H 24.1587 -0.0399306 -1.56249 0
M  V30 288 H 24.8937 2.42449 -2.15381 0
M  V30 289 H 24.6787 1.45602 -3.64064 0
M  V30 290 H 26.1687 2.41773 -3.40493 0
M  V30 291 N 26.6058 1.57591 -0.0167156 0
M  V30 292 C 27.5158 2.1291 0.98521 0
M  V30 293 C 28.5318 1.07834 1.36557 0
M  V30 294 O 29.7078 1.39826 1.44951 0
M  V30 295 C 26.7728 2.63512 2.25305 0
M  V30 296 C 25.8338 3.83256 1.93426 0
M  V30 297 C 25.0668 4.31435 3.14165 0
M  V30 298 O 25.2898 3.78851 4.26413 0
M  V30 299 O 24.2238 5.23416 2.97186 0
M  V30 300 H 28.0498 2.98772 0.544888 0
M  V30 301 H 25.6348 1.48012 0.203141 0
M  V30 302 H 27.5168 2.96183 2.99756 0
M  V30 303 H 26.1918 1.8074 2.68542 0
M  V30 304 H 25.0988 3.55531 1.16398 0
M  V30 305 H 26.4318 4.67153 1.55013 0
M  V30 306 N 28.0839 -0.256276 1.55502 0
M  V30 307 C 29.3319 -0.983672 1.76545 0
M  V30 308 C 29.6529 -1.86206 0.578982 0
M  V30 309 O 28.9229 -1.91656 -0.405577 0
M  V30 310 H 27.5029 -0.366191 0.651086 0
M  V30 311 H 30.1649 -0.276479 1.92929 0
M  V30 312 H 29.2609 -1.61087 2.67315 0
M  V30 313 N 29.562 -1.4872 -0.521534 0
M  V30 314 C 30.492 -1.66771 -1.63431 0
M  V30 315 C 31.473 -0.516499 -1.62069 0
M  V30 316 O 32.658 -0.750013 -1.79132 0
M  V30 317 C 29.788 -1.71515 -3.01993 0
M  V30 318 C 28.742 -2.86222 -3.18216 0
M  V30 319 C 28.068 -2.76061 -4.57924 0
M  V30 320 C 29.368 -4.27419 -3.00184 0
M  V30 321 H 31.062 -2.59932 -1.48579 0
M  V30 322 H 28.608 -1.25089 -0.713358 0
M  V30 323 H 30.561 -1.82731 -3.7972 0
M  V30 324 H 29.285 -0.749393 -3.17886 0
M  V30 325 H 27.944 -2.74575 -2.42908 0
M  V30 326 H 27.592 -1.77437 -4.70665 0
M  V30 327 H 27.292 -3.53037 -4.69722 0
M  V30 328 H 28.816 -2.89256 -5.37739 0
M  V30 329 H 30.23 -4.39855 -3.67697 0
M  V30 330 H 28.627 -5.05458 -3.2347 0
M  V30 331 H 29.697 -4.43293 -1.96518 0
M  V30 332 N 31.0401 0.771051 -1.3745 0
M  V30 333 C 32.2871 1.52963 -1.32697 0
M  V30 334 C 32.6151 1.94299 0.0883274 0
M  V30 335 O 31.8701 1.64397 1.0617 0
M  V30 336 C 32.1691 2.80676 -2.2126 0
M  V30 337 C 31.8351 2.58389 -3.69521 0
M  V30 338 C 30.4971 2.52019 -4.09927 0
M  V30 339 C 32.8491 2.38469 -4.63446 0
M  V30 340 C 30.1771 2.23721 -5.42371 0
M  V30 341 C 32.5291 2.11694 -5.96128 0
M  V30 342 C 31.1931 2.03769 -6.35637 0
M  V30 343 H 30.4631 0.559732 -0.485573 0
M  V30 344 H 33.1101 0.888083 -1.69662 0
M  V30 345 H 31.4151 3.49392 -1.77291 0
M  V30 346 H 33.1121 3.38557 -2.14895 0
M  V30 347 H 29.7021 2.6421 -3.37478 0
M  V30 348 H 33.8861 2.4238 -4.33089 0
M  V30 349 H 29.1421 2.16081 -5.71943 0
M  V30 350 H 33.3161 1.9528 -6.6846 0
M  V30 351 H 30.9431 1.81606 -7.38189 0
M  V30 352 N 32.5182 1.22032 0.997298 0
M  V30 353 C 33.4652 0.986467 2.08656 0
M  V30 354 C 34.4352 -0.0902671 1.65855 0
M  V30 355 O 35.6202 0.0584294 1.90711 0
M  V30 356 C 32.7602 0.565569 3.40434 0
M  V30 357 C 31.8732 1.71259 3.96604 0
M  V30 358 C 31.0082 1.24011 5.16522 0
M  V30 359 C 30.0472 2.35896 5.64818 0
M  V30 360 N 29.1842 1.89726 6.7598 0
M  V30 361 H 34.0242 1.91892 2.27994 0
M  V30 362 H 31.5612 0.956199 1.11782 0
M  V30 363 H 33.5192 0.302738 4.161 0
M  V30 364 H 32.1492 -0.329879 3.2111 0
M  V30 365 H 31.2012 2.08986 3.17851 0
M  V30 366 H 32.5132 2.55436 4.28432 0
M  V30 367 H 31.6672 0.934395 5.99461 0
M  V30 368 H 30.4062 0.368487 4.86306 0
M  V30 369 H 29.4112 2.67261 4.8047 0
M  V30 370 H 30.6362 3.23567 5.97061 0
M  V30 371 H 28.5822 1.0492 6.47555 0
M  V30 372 H 28.4992 2.67471 7.07103 0
M  V30 373 H 29.7672 1.62211 7.62435 0
M  V30 374 N 33.9963 -1.19345 1.0293 0
M  V30 375 C 34.9063 -2.26245 0.620515 0
M  V30 376 C 35.9223 -1.70486 -0.347928 0
M  V30 377 O 37.0983 -2.00347 -0.205704 0
M  V30 378 C 34.1633 -3.46693 -0.0218957 0
M  V30 379 C 33.2243 -4.17632 0.994102 0
M  V30 380 C 32.4573 -5.32329 0.382253 0
M  V30 381 O 32.6803 -5.64552 -0.814676 0
M  V30 382 O 31.6143 -5.91664 1.10531 0
M  V30 383 H 35.4403 -2.63453 1.51083 0
M  V30 384 H 33.0253 -1.26207 0.799513 0
M  V30 385 H 34.9073 -4.19683 -0.380072 0
M  V30 386 H 33.5823 -3.11333 -0.886209 0
M  V30 387 H 32.4893 -3.4676 1.40387 0
M  V30 388 H 33.8223 -4.56964 1.8288 0
M  V30 389 N 35.4744 -0.807222 -1.35358 0
M  V30 390 C 36.3844 -0.219594 -2.3357 0
M  V30 391 C 37.4004 0.637734 -1.61892 0
M  V30 392 O 38.5764 0.549336 -1.93763 0
M  V30 393 C 35.6414 0.62158 -3.41083 0
M  V30 394 C 34.7024 -0.256315 -4.28534 0
M  V30 395 C 33.9354 0.544807 -5.30912 0
M  V30 396 O 34.1584 1.77944 -5.41934 0
M  V30 397 O 33.0924 -0.0646478 -6.01865 0
M  V30 398 H 36.9184 -1.03208 -2.85625 0
M  V30 399 H 34.5034 -0.569025 -1.38139 0
M  V30 400 H 36.3854 1.10067 -4.06772 0
M  V30 401 H 35.0604 1.41165 -2.91297 0
M  V30 402 H 33.9674 -0.782559 -3.65823 0
M  V30 403 H 35.3004 -1.01034 -4.81719 0
M  V30 404 N 36.9525 1.47285 -0.560781 0
M  V30 405 C 38.3685 1.58065 -0.22081 0
M  V30 406 C 38.5685 1.55892 1.27671 0
M  V30 407 O 37.6245 1.46422 2.0571 0
M  V30 408 C 38.9375 2.88418 -0.850625 0
M  V30 409 C 40.4855 3.02009 -0.822184 0
M  V30 410 C 40.9605 4.35066 -1.43113 0
M  V30 411 N 42.4515 4.41711 -1.39448 0
M  V30 412 C 43.1865 5.43237 -1.83525 0
M  V30 413 N 42.6825 6.51555 -2.35474 0
M  V30 414 N 44.4755 5.34304 -1.74574 0
M  V30 415 H 36.6265 1.46941 -1.53369 0
M  V30 416 H 38.8895 0.699558 -0.639783 0
M  V30 417 H 38.5955 2.95755 -1.9032 0
M  V30 418 H 38.4695 3.75612 -0.345773 0
M  V30 419 H 40.8565 2.94266 0.221714 0
M  V30 420 H 40.9375 2.16347 -1.36483 0
M  V30 421 H 40.5815 4.43565 -2.47412 0
M  V30 422 H 40.5115 5.19465 -0.863899 0
M  V30 423 H 43.0025 3.64027 -1.01452 0
M  V30 424 H 43.3155 7.25203 -2.67021 0
M  V30 425 H 41.6605 6.52435 -2.39487 0
M  V30 426 H 44.8515 4.48581 -1.33763 0
M  V30 427 H 45.0245 6.13288 -2.09242 0
M  V30 428 N 38.4306 0.297415 1.54768 0
M  V30 429 C 39.6796 -0.313669 1.99246 0
M  V30 430 C 39.9926 -1.55281 1.18942 0
M  V30 431 O 41.1986 -2.23825 1.5367 0
M  V30 432 C 39.6546 -0.609407 3.54703 0
M  V30 433 C 39.2626 0.611192 4.43811 0
M  V30 434 C 41.0066 -1.18188 4.07715 0
M  V30 435 C 38.9136 0.288805 5.90694 0
M  V30 436 H 37.8436 -0.120979 0.744231 0
M  V30 437 H 40.4946 0.40556 1.78962 0
M  V30 438 H 38.8766 -1.38813 3.70873 0
M  V30 439 H 40.0506 1.3875 4.39414 0
M  V30 440 H 38.3656 1.10205 4.01552 0
M  V30 441 H 40.9626 -1.43727 5.15021 0
M  V30 442 H 41.3056 -2.12299 3.58099 0
M  V30 443 H 41.8386 -0.464944 3.95074 0
M  V30 444 H 38.5776 1.19838 6.44453 0
M  V30 445 H 38.0976 -0.450305 5.98107 0
M  V30 446 H 39.7766 -0.110933 6.46905 0
M  V30 447 N 39.9087 -1.5758 0.0250728 0
M  V30 448 C 41.1577 -1.90811 -0.653767 0
M  V30 449 C 41.4707 -0.90273 -1.73523 0
M  V30 450 O 42.6767 -1.12614 -2.47043 0
M  V30 451 C 41.1327 -3.38804 -1.21409 0
M  V30 452 C 40.7407 -4.47692 -0.166126 0
M  V30 453 C 42.4847 -3.81108 -1.86967 0
M  V30 454 C 40.3917 -5.86779 -0.737856 0
M  V30 455 H 39.3217 -0.712063 -0.247956 0
M  V30 456 H 41.9727 -1.83281 0.0897137 0
M  V30 457 H 40.3547 -3.41252 -2.00905 0
M  V30 458 H 41.5287 -4.56797 0.606079 0
M  V30 459 H 39.8437 -4.14565 0.390466 0
M  V30 460 H 42.4407 -4.82375 -2.30692 0
M  V30 461 H 42.7837 -3.15953 -2.71071 0
M  V30 462 H 43.3167 -3.81065 -1.14167 0
M  V30 463 H 40.0557 -6.55468 0.0649577 0
M  V30 464 H 39.5757 -5.81288 -1.47864 0
M  V30 465 H 41.2547 -6.35223 -1.22884 0
M  V30 466 N 41.3868 0.248026 -1.55636 0
M  V30 467 C 42.6148 0.993808 -1.81469 0
M  V30 468 C 43.0298 1.78991 -0.60064 0
M  V30 469 O 42.3868 1.77345 0.430682 0
M  V30 470 C 42.4378 1.93258 -3.05506 0
M  V30 471 O 42.1588 1.16869 -4.22224 0
M  V30 472 C 43.6598 2.79444 -3.4413 0
M  V30 473 H 40.8798 0.292486 -0.603898 0
M  V30 474 H 43.4238 0.271253 -2.02693 0
M  V30 475 H 41.5788 2.60943 -2.86335 0
M  V30 476 H 41.9928 1.80359 -4.92515 0
M  V30 477 H 43.4668 3.41066 -4.34026 0
M  V30 478 H 43.9438 3.50499 -2.64665 0
M  V30 479 H 44.5498 2.17214 -3.65648 0
M  V30 480 N 42.8649 1.48995 0.513639 0
M  V30 481 C 44.0899 1.61792 1.29762 0
M  V30 482 C 44.5149 0.284475 1.85936 0
M  V30 483 O 43.8729 -0.746185 1.65232 0
M  V30 484 C 43.9209 2.67993 2.41272 0
M  V30 485 O 43.0249 2.26287 3.44772 0
M  V30 486 H 42.3659 0.541963 0.38363 0
M  V30 487 H 44.8959 1.95097 0.616307 0
M  V30 488 H 44.9059 2.89772 2.87221 0
M  V30 489 H 43.5809 3.64791 1.9975 0
M  V30 490 H 42.1579 2.14788 3.04829 0
M  V30 491 N 44.343 -0.763751 1.37857 0
M  V30 492 C 45.306 -1.85889 1.34081 0
M  V30 493 C 46.306 -1.58949 0.243277 0
M  V30 494 O 47.496 -1.66882 0.499589 0
M  V30 495 C 44.628 -3.23176 1.08489 0
M  V30 496 H 45.821 -1.90648 2.31502 0
M  V30 497 H 43.374 -0.964367 1.23003 0
M  V30 498 H 44.109 -3.24091 0.116318 0
M  V30 499 H 43.894 -3.44124 1.8794 0
M  V30 500 H 45.384 -4.03254 1.08517 0
M  V30 501 N 45.8211 -1.22559 -0.990812 0
M  V30 502 C 46.7531 -0.955325 -2.08342 0
M  V30 503 C 47.7661 0.0668408 -1.62663 0
M  V30 504 O 48.9551 -0.167421 -1.77713 0
M  V30 505 C 46.0551 -0.415566 -3.36342 0
M  V30 506 C 45.2281 -1.49544 -4.11042 0
M  V30 507 C 44.2871 -0.962399 -5.17324 0
M  V30 508 O 43.3131 -1.64907 -5.44788 0
M  V30 509 N 44.5151 0.215134 -5.80101 0
M  V30 510 H 47.2801 -1.89596 -2.32106 0
M  V30 511 H 44.8411 -1.13276 -1.15673 0
M  V30 512 H 46.8331 -0.0442386 -4.04676 0
M  V30 513 H 45.4031 0.430232 -3.09625 0
M  V30 514 H 44.6231 -2.04 -3.37309 0
M  V30 515 H 45.9111 -2.22195 -4.57719 0
M  V30 516 H 45.3091 0.789779 -5.6016 0
M  V30 517 H 43.8661 0.527826 -6.49659 0
M  V30 518 N 47.2992 1.18797 -1.03562 0
M  V30 519 C 48.2312 2.21731 -0.580337 0
M  V30 520 C 49.2442 1.59051 0.347349 0
M  V30 521 O 50.4332 1.77929 0.142669 0
M  V30 522 C 47.5332 3.38459 0.172805 0
M  V30 523 C 46.7062 4.3072 -0.761496 0
M  V30 524 C 45.7652 5.26174 -0.0525547 0
M  V30 525 O 44.7912 5.65108 -0.681333 0
M  V30 526 N 45.9932 5.67624 1.21586 0
M  V30 527 H 48.7582 2.61417 -1.46565 0
M  V30 528 H 46.3192 1.33531 -0.915476 0
M  V30 529 H 48.3112 3.99335 0.656793 0
M  V30 530 H 46.8812 2.97507 0.959602 0
M  V30 531 H 46.1012 3.67525 -1.42544 0
M  V30 532 H 47.3892 4.89267 -1.39626 0
M  V30 533 H 46.7872 5.38038 1.74732 0
M  V30 534 H 45.3442 6.30721 1.64421 0
M  V30 535 N 48.7773 0.814389 1.34928 0
M  V30 536 C 49.7403 0.235759 2.27984 0
M  V30 537 C 50.7403 -0.581412 1.49921 0
M  V30 538 O 51.9303 -0.398758 1.69575 0
M  V30 539 C 49.0623 -0.670433 3.34242 0
M  V30 540 H 50.2553 1.05659 2.80671 0
M  V30 541 H 47.8083 0.585614 1.44915 0
M  V30 542 H 48.5433 -1.51466 2.86755 0
M  V30 543 H 48.3283 -0.0860822 3.92005 0
M  V30 544 H 49.8183 -1.06935 4.03676 0
M  V30 545 N 50.2554 -1.46986 0.568584 0
M  V30 546 C 51.5324 -1.95592 -0.0174074 0
M  V30 547 C 51.9124 -1.51124 -1.47393 0
M  V30 548 O 51.2604 -0.755329 -2.15655 0
M  V30 549 C 51.4704 -3.48719 0.139913 0
M  V30 550 C 52.8184 -4.246 0.000426376 0
M  V30 551 O 53.8424 -3.56135 0.0680316 0
M  V30 552 O 52.7014 -5.46302 -0.146988 0
M  V30 553 H 49.7954 -0.82498 -0.0577599 0
M  V30 554 H 52.3414 -1.57335 0.635909 0
M  V30 555 H 51.1134 -3.73927 1.15301 0
M  V30 556 H 50.7364 -3.93771 -0.550491 0
M  V30 557 N 51.7335 -0.305618 -1.54608 0
M  V30 558 C 52.9825 0.303098 -1.9941 0
M  V30 559 C 53.2955 1.54648 -1.19764 0
M  V30 560 O 54.5015 2.23007 -1.54855 0
M  V30 561 C 52.9575 0.590588 -3.55021 0
M  V30 562 C 52.5655 -0.634719 -4.43481 0
M  V30 563 C 54.3095 1.16025 -4.08336 0
M  V30 564 C 52.2165 -0.320126 -5.90533 0
M  V30 565 H 51.1465 0.117031 -0.744862 0
M  V30 566 H 53.7975 -0.415045 -1.78745 0
M  V30 567 H 52.1795 1.36845 -3.71604 0
M  V30 568 H 53.3535 -1.41079 -4.38672 0
M  V30 569 H 51.6685 -1.12333 -4.00962 0
M  V30 570 H 54.2655 1.40994 -5.15776 0
M  V30 571 H 54.6085 2.10397 -3.5922 0
M  V30 572 H 55.1415 0.443985 -3.95315 0
M  V30 573 H 51.8805 -1.23254 -6.43808 0
M  V30 574 H 51.4005 0.418579 -5.98338 0
M  V30 575 H 53.0795 0.0766241 -6.46955 0
M  V30 576 N 53.2116 1.57565 -0.0334293 0
M  V30 577 C 54.4396 1.9628 0.654347 0
M  V30 578 C 54.8546 0.910138 1.65414 0
M  V30 579 O 54.2116 -0.107595 1.82183 0
M  V30 580 C 54.2626 3.35067 1.35693 0
M  V30 581 O 53.9836 4.36296 0.397191 0
M  V30 582 C 55.4846 3.88439 2.13613 0
M  V30 583 H 52.7046 0.646369 0.180132 0
M  V30 584 H 55.2486 2.04282 -0.0944721 0
M  V30 585 H 53.4036 3.2827 2.05712 0
M  V30 586 H 53.8176 5.1678 0.896597 0
M  V30 587 H 55.2916 4.8788 2.58219 0
M  V30 588 H 55.7686 3.22914 2.97696 0
M  V30 589 H 56.3746 3.98516 1.48543 0
M  V30 590 N 54.6897 -0.239769 1.55765 0
M  V30 591 C 55.9357 -0.968234 1.78194 0
M  V30 592 C 56.2687 -1.84701 0.599938 0
M  V30 593 O 55.5437 -1.9031 -0.401524 0
M  V30 594 C 55.8267 -1.8227 3.10564 0
M  V30 595 C 55.6797 -0.971633 4.3918 0
M  V30 596 C 56.9987 -2.80388 3.39221 0
M  V30 597 H 54.1177 -0.350572 0.648281 0
M  V30 598 H 56.7597 -0.238259 1.885 0
M  V30 599 H 54.9097 -2.44507 3.01908 0
M  V30 600 H 56.5817 -0.367408 4.59835 0
M  V30 601 H 54.8247 -0.276276 4.32919 0
M  V30 602 H 55.4957 -1.60346 5.28198 0
M  V30 603 H 57.9717 -2.28287 3.47885 0
M  V30 604 H 56.8477 -3.3729 4.33044 0
M  V30 605 H 57.1087 -3.57212 2.60484 0
M  V30 606 N 56.1678 -1.49265 -0.50573 0
M  V30 607 C 57.1308 -1.65075 -1.59006 0
M  V30 608 C 58.1308 -0.522768 -1.52065 0
M  V30 609 O 59.3208 -0.789117 -1.55302 0
M  V30 610 C 56.4528 -1.64369 -2.98656 0
M  V30 611 H 57.6458 -2.61784 -1.46319 0
M  V30 612 H 55.1988 -1.38226 -0.729616 0
M  V30 613 H 55.9338 -0.692272 -3.16825 0
M  V30 614 H 55.7188 -2.46282 -3.05103 0
M  V30 615 H 57.2088 -1.78674 -3.77446 0
M  V30 616 N 57.6459 0.756429 -1.3826 0
M  V30 617 C 58.9229 1.50584 -1.24835 0
M  V30 618 C 59.3029 2.10556 0.151485 0
M  V30 619 O 58.6509 1.96825 1.1607 0
M  V30 620 C 58.8609 2.57448 -2.3563 0
M  V30 621 C 60.2089 3.24429 -2.73917 0
M  V30 622 O 61.2329 2.67751 -2.34921 0
M  V30 623 O 60.0919 4.26937 -3.41156 0
M  V30 624 H 57.1859 0.667664 -0.48801 0
M  V30 625 H 59.7319 0.792083 -1.5008 0
M  V30 626 H 58.5039 2.11362 -3.29305 0
M  V30 627 H 58.1269 3.36408 -2.11933 0
M  V30 628 N 59.124 1.23083 0.984299 0
M  V30 629 C 60.372 1.05848 1.72165 0
M  V30 630 C 60.693 -0.406049 1.90726 0
M  V30 631 O 59.963 -1.29139 1.47309 0
M  V30 632 H 58.543 0.388685 0.637913 0
M  V30 633 H 61.205 1.54736 1.18503 0
M  V30 634 H 60.301 1.54327 2.71274 0
M  V30 635 N 60.6021 -1.18246 1.0419 0
M  V30 636 C 61.8271 -1.92736 0.765996 0
M  V30 637 C 62.2521 -1.75728 -0.67091 0
M  V30 638 O 61.6101 -1.06825 -1.46486 0
M  V30 639 C 61.6581 -3.42148 1.13875 0
M  V30 640 O 60.7621 -4.11548 0.264954 0
M  V30 641 H 60.1031 -0.601238 0.281797 0
M  V30 642 H 62.6331 -1.49942 1.39207 0
M  V30 643 H 62.6431 -3.92858 1.1012 0
M  V30 644 H 61.3181 -3.53848 2.18551 0
M  V30 645 H 59.8951 -3.71137 0.362226 0
M  V30 646 N 62.0802 -0.821533 -1.34494 0
M  V30 647 C 63.0302 -0.214793 -2.26986 0
M  V30 648 C 64.0142 0.620125 -1.4847 0
M  V30 649 O 65.2062 0.474933 -1.70509 0
M  V30 650 C 62.3352 0.623566 -3.37589 0
M  V30 651 C 61.4212 -0.221904 -4.23519 0
M  V30 652 N 61.8122 -1.29223 -4.89014 0
M  V30 653 C 60.1102 -0.00600922 -4.46 0
M  V30 654 C 60.8112 -1.80965 -5.52835 0
M  V30 655 N 59.7872 -1.11376 -5.32068 0
M  V30 656 H 63.5892 -1.03354 -2.75128 0
M  V30 657 H 61.1032 -0.6642 -1.48196 0
M  V30 658 H 63.1002 1.0744 -4.02818 0
M  V30 659 H 61.7602 1.44049 -2.90998 0
M  V30 660 H 62.7712 -1.67502 -4.90065 0
M  V30 661 H 59.4482 0.77886 -4.10171 0
M  V30 662 H 60.8382 -2.70502 -6.15043 0
M  V30 663 N 63.5583 1.46682 -0.576371 0
M  V30 664 C 64.8043 2.02712 -0.0596221 0
M  V30 665 C 65.1373 1.44765 1.29448 0
M  V30 666 O 64.4123 0.610355 1.84675 0
M  V30 667 C 64.6953 3.60098 0.0129503 0
M  V30 668 C 64.5483 4.28441 -1.3696 0
M  V30 669 C 65.8673 4.34224 0.71678 0
M  V30 670 H 62.9863 0.736637 -0.0231407 0
M  V30 671 H 65.6283 1.74898 -0.742351 0
M  V30 672 H 63.7783 3.83926 0.594378 0
M  V30 673 H 65.4503 4.15896 -1.9957 0
M  V30 674 H 63.6933 3.8805 -1.93907 0
M  V30 675 H 64.3643 5.3716 -1.27135 0
M  V30 676 H 66.8403 4.15503 0.222908 0
M  V30 677 H 65.7163 5.43936 0.73657 0
M  V30 678 H 65.9773 4.04823 1.77682 0
M  V30 679 N 65.0364 0.313813 1.54444 0
M  V30 680 C 66.2854 -0.292519 1.99568 0
M  V30 681 C 66.5984 -1.54011 1.20582 0
M  V30 682 O 67.8044 -2.22183 1.56035 0
M  V30 683 C 66.2604 -0.571752 3.55329 0
M  V30 684 C 65.8684 0.658229 4.43138 0
M  V30 685 C 67.6124 -1.13857 4.08946 0
M  V30 686 C 65.5194 0.351439 5.90355 0
M  V30 687 H 64.4494 -0.113079 0.745472 0
M  V30 688 H 67.1004 0.424518 1.78522 0
M  V30 689 H 65.4824 -1.34872 3.72325 0
M  V30 690 H 66.6564 1.43403 4.37918 0
M  V30 691 H 64.9714 1.14458 4.0036 0
M  V30 692 H 67.5684 -1.38257 5.16516 0
M  V30 693 H 67.9114 -2.08489 3.6033 0
M  V30 694 H 68.4444 -0.423015 3.95544 0
M  V30 695 H 65.1834 1.26667 6.43145 0
M  V30 696 H 64.7034 -0.386842 5.98551 0
M  V30 697 H 66.3824 -0.0423134 6.46986 0
M  V30 698 N 66.5145 -1.57545 0.0417849 0
M  V30 699 C 67.4625 -2.12148 -0.953723 0
M  V30 700 C 68.4565 -1.05104 -1.32852 0
M  V30 701 O 69.6625 -1.23524 -1.30927 0
M  V30 702 H 66.0375 -0.677957 -0.325389 0
M  V30 703 H 68.0085 -2.94707 -0.467991 0
M  V30 704 C 66.7575 -2.6739 -2.22257 0
M  V30 705 H 66.0805 -3.49413 -1.94295 0
M  V30 706 H 67.5205 -3.09227 -2.90094 0
M  V30 707 C 65.9795 -1.60723 -2.96091 0
M  V30 708 O 66.5095 -1.01449 -3.88679 0
M  V30 709 N 64.7155 -1.32466 -2.58652 0
M  V30 710 H 64.2625 -1.80856 -1.83437 0
M  V30 711 H 64.2205 -0.61325 -3.08361 0
M  V30 712 N 67.9926 0.231505 -1.5589 0
M  V30 713 C 69.2396 0.957352 -1.78441 0
M  V30 714 C 69.5676 1.84726 -0.60882 0
M  V30 715 O 68.8226 1.91416 0.40725 0
M  V30 716 C 69.1216 1.83577 -3.0665 0
M  V30 717 C 68.7876 1.09993 -4.37278 0
M  V30 718 C 67.4496 0.896629 -4.72773 0
M  V30 719 C 69.8016 0.579558 -5.17968 0
M  V30 720 C 67.1296 0.160896 -5.86479 0
M  V30 721 C 69.4816 -0.142783 -6.32439 0
M  V30 722 C 68.1456 -0.357427 -6.66542 0
M  V30 723 H 67.4156 0.35032 -0.65296 0
M  V30 724 H 70.0626 0.226259 -1.90159 0
M  V30 725 H 68.3676 2.63441 -2.90011 0
M  V30 726 H 70.0646 2.39934 -3.21298 0
M  V30 727 H 66.6546 1.26835 -4.09403 0
M  V30 728 H 70.8386 0.724125 -4.90989 0
M  V30 729 H 66.0946 -0.0157293 -6.11398 0
M  V30 730 H 70.2686 -0.553559 -6.94196 0
M  V30 731 H 67.8956 -0.929466 -7.54497 0
M  V30 732 N 69.4707 1.49531 0.497807 0
M  V30 733 C 70.7107 1.60799 1.26187 0
M  V30 734 C 71.0747 0.289627 1.89803 0
M  V30 735 O 72.2757 0.277512 2.67364 0
M  V30 736 C 70.5467 2.73729 2.29798 0
M  V30 737 S 72.1057 3.04968 3.155 0
M  V30 738 H 68.9237 0.567145 0.428798 0
M  V30 739 H 71.5257 1.87204 0.563477 0
M  V30 740 H 70.2297 3.68036 1.81597 0
M  V30 741 H 69.7607 2.49328 3.04301 0
M  V30 742 H 71.7757 2.46735 4.30507 0
M  V30 743 N 70.9488 -0.749086 1.3866 0
M  V30 744 C 71.9118 -1.84457 1.36045 0
M  V30 745 C 72.9118 -1.58682 0.260122 0
M  V30 746 O 74.1018 -1.66343 0.517261 0
M  V30 747 C 71.2338 -3.22008 1.11911 0
M  V30 748 H 72.4268 -1.88182 2.33512 0
M  V30 749 H 69.9798 -0.951266 1.24019 0
M  V30 750 H 70.7148 -3.2395 0.150686 0
M  V30 751 H 70.4998 -3.42111 1.91579 0
M  V30 752 H 71.9898 -4.0208 1.12788 0
M  V30 753 N 72.4269 -1.23603 -0.977757 0
M  V30 754 C 73.3749 -1.01704 -2.09187 0
M  V30 755 C 74.3689 0.0448214 -1.69341 0
M  V30 756 O 75.5749 -0.108902 -1.7967 0
M  V30 757 H 71.9499 -0.311803 -0.684312 0
M  V30 758 H 73.9209 -1.96207 -2.24823 0
M  V30 759 C 72.6699 -0.627746 -3.41986 0
M  V30 760 H 71.9929 -1.43656 -3.73099 0
M  V30 761 H 73.4329 -0.514053 -4.20872 0
M  V30 762 C 71.8919 0.664238 -3.30287 0
M  V30 763 O 72.4219 1.71268 -3.6336 0
M  V30 764 N 70.6279 0.641156 -2.83439 0
M  V30 765 H 70.1749 -0.212376 -2.56723 0
M  V30 766 H 70.1329 1.50583 -2.75993 0
M  V30 767 N 73.905 1.17692 -1.04816 0
M  V30 768 C 74.853 2.23632 -0.63966 0
M  V30 769 C 75.847 1.6601 0.337219 0
M  V30 770 O 77.053 1.78844 0.203693 0
M  V30 771 H 73.428 0.727949 -0.188665 0
M  V30 772 H 75.399 2.55387 -1.54337 0
M  V30 773 C 74.148 3.4769 -0.0264051 0
M  V30 774 H 73.471 3.92331 -0.769164 0
M  V30 775 H 74.911 4.23418 0.222098 0
M  V30 776 C 73.37 3.13807 1.22584 0
M  V30 777 O 73.9 3.28236 2.31569 0
M  V30 778 N 72.106 2.68065 1.12202 0
M  V30 779 H 71.653 2.56525 0.235133 0
M  V30 780 H 71.611 2.45767 1.96076 0
M  V30 781 N 75.3831 0.828654 1.34056 0
M  V30 782 C 76.6131 0.431993 2.02033 0
M  V30 783 C 77.0211 -0.96844 1.62536 0
M  V30 784 O 76.3641 -1.6391 0.829408 0
M  V30 785 C 76.4261 0.461224 3.56529 0
M  V30 786 C 76.0901 1.81599 4.1937 0
M  V30 787 C 77.0871 2.7777 4.39477 0
M  V30 788 C 74.7721 2.10604 4.56017 0
M  V30 789 C 76.7661 4.01115 4.95364 0
M  V30 790 C 74.4531 3.34207 5.11614 0
M  V30 791 C 75.4511 4.2928 5.31232 0
M  V30 792 O 75.1391 5.50699 5.8565 0
M  V30 793 H 74.8711 0.170943 0.654029 0
M  V30 794 H 77.4251 1.11988 1.72185 0
M  V30 795 H 75.6551 -0.283388 3.8566 0
M  V30 796 H 77.3441 0.0838149 4.05813 0
M  V30 797 H 78.1101 2.56659 4.11523 0
M  V30 798 H 73.9891 1.37402 4.40047 0
M  V30 799 H 77.5331 4.75333 5.10592 0
M  V30 800 H 73.4301 3.55179 5.38997 0
M  V30 801 H 74.1981 5.52298 6.04077 0
M  V30 802 N 76.8612 -1.46375 0.584142 0
M  V30 803 C 77.7912 -2.33103 -0.136037 0
M  V30 804 C 78.7722 -1.45431 -0.882255 0
M  V30 805 O 79.9572 -1.74246 -0.857434 0
M  V30 806 C 77.0872 -3.27731 -1.14933 0
M  V30 807 C 76.0412 -4.24855 -0.517862 0
M  V30 808 C 75.3672 -5.09001 -1.63773 0
M  V30 809 C 76.6672 -5.19439 0.545886 0
M  V30 810 H 78.3612 -2.93568 0.588086 0
M  V30 811 H 75.9072 -1.41166 0.284259 0
M  V30 812 H 77.8602 -3.87261 -1.66153 0
M  V30 813 H 76.5842 -2.65377 -1.90375 0
M  V30 814 H 75.2432 -3.6659 -0.0267361 0
M  V30 815 H 74.8912 -4.43031 -2.38185 0
M  V30 816 H 74.5912 -5.74777 -1.22085 0
M  V30 817 H 76.1152 -5.71396 -2.15266 0
M  V30 818 H 77.5292 -5.73177 0.118704 0
M  V30 819 H 75.9262 -5.93566 0.88317 0
M  V30 820 H 76.9962 -4.63285 1.43162 0
M  V30 821 N 78.3393 -0.321999 -1.54275 0
M  V30 822 C 79.5873 0.280489 -2.00144 0
M  V30 823 C 79.9083 1.52777 -1.21178 0
M  V30 824 O 79.1783 1.9338 -0.313187 0
M  V30 825 H 77.7583 0.106632 -0.73935 0
M  V30 826 H 80.4203 -0.438184 -1.8991 0
M  V30 827 H 79.5163 0.537972 -3.07428 0
M  V30 828 N 79.8174 1.5752 -0.0501392 0
M  V30 829 C 80.7474 2.14502 0.922566 0
M  V30 830 C 81.7284 1.06642 1.3252 0
M  V30 831 O 82.9134 1.34577 1.4001 0
M  V30 832 C 80.0434 2.68916 2.19776 0
M  V30 833 C 78.9974 3.8175 1.93523 0
M  V30 834 C 78.3234 4.22677 3.27487 0
M  V30 835 C 79.6234 5.06932 1.25765 0
M  V30 836 H 81.3174 2.9603 0.447952 0
M  V30 837 H 78.8634 1.42401 0.214024 0
M  V30 838 H 80.8164 3.07419 2.88222 0
M  V30 839 H 79.5404 1.84578 2.69441 0
M  V30 840 H 78.1994 3.43718 1.27489 0
M  V30 841 H 77.8474 3.35291 3.74952 0
M  V30 842 H 77.5474 4.98725 3.1072 0
M  V30 843 H 79.0714 4.63779 3.97166 0
M  V30 844 H 80.4854 5.42888 1.84244 0
M  V30 845 H 78.8824 5.88116 1.19328 0
M  V30 846 H 79.9524 4.84337 0.233536 0
M  V30 847 N 81.2955 -0.223234 1.56011 0
M  V30 848 C 82.2585 -1.26014 1.9145 0
M  V30 849 C 83.2585 -1.3989 0.792937 0
M  V30 850 O 84.4485 -1.38184 1.0607 0
M  V30 851 C 81.5805 -2.63422 2.16383 0
M  V30 852 H 82.7735 -0.95796 2.84189 0
M  V30 853 H 80.3265 -0.463576 1.49267 0
M  V30 854 H 81.0615 -2.98741 1.2619 0
M  V30 855 H 80.8465 -2.54728 2.98088 0
M  V30 856 H 82.3365 -3.38249 2.44903 0
M  V30 857 N 82.7736 -1.49793 -0.48987 0
M  V30 858 C 83.7216 -1.67783 -1.61095 0
M  V30 859 C 84.7156 -0.543683 -1.60438 0
M  V30 860 O 85.9216 -0.723647 -1.64813 0
M  V30 861 H 82.2966 -0.529255 -0.534222 0
M  V30 862 H 84.2676 -2.61861 -1.43078 0
M  V30 863 C 83.0166 -1.77191 -2.99164 0
M  V30 864 H 82.3396 -2.63841 -3.0038 0
M  V30 865 H 83.7796 -1.93809 -3.77113 0
M  V30 866 C 82.2386 -0.519203 -3.32875 0
M  V30 867 O 82.7686 0.350124 -4.00171 0
M  V30 868 N 80.9746 -0.378816 -2.8812 0
M  V30 869 H 80.5216 -1.08725 -2.33531 0
M  V30 870 H 80.4796 0.458239 -3.11043 0
M  V30 871 N 84.2517 0.741722 -1.39055 0
M  V30 872 C 85.2017 1.84661 -1.33732 0
M  V30 873 C 86.1857 1.59397 -0.219401 0
M  V30 874 O 87.3777 1.71015 -0.456375 0
M  V30 875 C 84.5067 3.22512 -1.17647 0
M  V30 876 C 83.5927 3.53628 -2.34112 0
M  V30 877 N 83.9837 3.55723 -3.59576 0
M  V30 878 C 82.2817 3.83956 -2.26923 0
M  V30 879 C 82.9827 3.84443 -4.36553 0
M  V30 880 N 81.9587 4.01877 -3.66055 0
M  V30 881 H 85.7607 1.84576 -2.28711 0
M  V30 882 H 83.2747 0.939647 -1.32455 0
M  V30 883 H 85.2717 4.01597 -1.11917 0
M  V30 884 H 83.9317 3.2384 -0.236124 0
M  V30 885 H 84.9427 3.37196 -3.93089 0
M  V30 886 H 81.6197 3.92929 -1.41113 0
M  V30 887 H 83.0097 3.92588 -5.45274 0
M  V30 888 N 85.7298 1.2412 0.971189 0
M  V30 889 C 87.1408 1.07236 1.52831 0
M  V30 890 C 87.4918 -0.357352 1.92918 0
M  V30 891 O 86.6168 -1.24528 1.76979 0
M  V30 892 C 87.2118 1.94043 2.77728 0
M  V30 893 C 85.7708 1.81394 3.29808 0
M  V30 894 C 84.9178 1.89189 2.02738 0
M  V30 895 H 87.8688 1.37648 0.789864 0
M  V30 896 H 87.8898 1.47066 3.5093 0
M  V30 897 H 87.4018 2.98093 2.4852 0
M  V30 898 H 85.5028 0.801634 3.63874 0
M  V30 899 H 85.6158 2.65294 3.98944 0
M  V30 900 H 83.9798 1.32877 2.17292 0
M  V30 901 H 84.7628 2.94812 1.759 0
M  V30 902 N 87.2079 -1.17134 1.05439 0
M  V30 903 C 88.4849 -1.83411 0.679699 0
M  V30 904 C 88.8649 -1.9368 -0.839726 0
M  V30 905 O 88.2129 -1.47325 -1.74664 0
M  V30 906 C 88.4229 -3.20918 1.37159 0
M  V30 907 C 89.7709 -3.96796 1.51123 0
M  V30 908 O 90.7949 -3.30406 1.3308 0
M  V30 909 O 89.6539 -5.15778 1.80651 0
M  V30 910 H 86.7479 -0.79154 0.239569 0
M  V30 911 H 89.2939 -1.24411 1.15413 0
M  V30 912 H 88.0659 -3.08428 2.40807 0
M  V30 913 H 87.6889 -3.87587 0.886674 0
M  V30 914 N 88.686 -0.835752 -1.33615 0
M  V30 915 C 89.616 -0.281739 -2.31794 0
M  V30 916 C 90.597 0.608833 -1.58831 0
M  V30 917 O 91.782 0.533035 -1.86741 0
M  V30 918 C 88.912 0.546612 -3.42971 0
M  V30 919 C 87.866 -0.247904 -4.27281 0
M  V30 920 C 87.192 0.704001 -5.30045 0
M  V30 921 C 88.492 -1.46324 -5.01385 0
M  V30 922 H 90.186 -1.10206 -2.78379 0
M  V30 923 H 87.732 -0.531388 -1.33837 0
M  V30 924 H 89.685 0.944467 -4.1068 0
M  V30 925 H 88.409 1.40011 -2.95067 0
M  V30 926 H 87.068 -0.627281 -3.61194 0
M  V30 927 H 86.716 1.55381 -4.78399 0
M  V30 928 H 86.416 0.176524 -5.87335 0
M  V30 929 H 87.94 1.09944 -6.0062 0
M  V30 930 H 89.354 -1.13871 -5.61877 0
M  V30 931 H 87.751 -1.92728 -5.6831 0
M  V30 932 H 88.821 -2.23467 -4.30338 0
M  V30 933 N 90.1641 1.46063 -0.591896 0
M  V30 934 C 91.4131 2.01547 -0.0786637 0
M  V30 935 C 91.7261 1.46796 1.29268 0
M  V30 936 O 92.9321 1.94157 1.89777 0
M  V30 937 C 91.3881 3.59787 -0.0900024 0
M  V30 938 C 90.9961 4.23534 -1.46023 0
M  V30 939 C 92.7401 4.22895 0.368806 0
M  V30 940 C 90.6471 5.73881 -1.4288 0
M  V30 941 H 89.5771 0.753564 -0.0256388 0
M  V30 942 H 92.2281 1.677 -0.744905 0
M  V30 943 H 90.6101 3.90752 0.642586 0
M  V30 944 H 91.7841 4.04167 -2.21328 0
M  V30 945 H 90.0991 3.72558 -1.85982 0
M  V30 946 H 92.6961 5.33116 0.411258 0
M  V30 947 H 93.0391 3.9247 1.38827 0
M  V30 948 H 93.5721 3.9659 -0.31001 0
M  V30 949 H 90.3111 6.0898 -2.42536 0
M  V30 950 H 89.8311 5.95486 -0.718095 0
M  V30 951 H 91.5101 6.36776 -1.14565 0
M  V30 952 N 91.6422 0.330177 1.54103 0
M  V30 953 C 92.6052 -0.520144 2.2322 0
M  V30 954 C 93.6052 -1.03828 1.22786 0
M  V30 955 O 94.7952 -0.929652 1.4732 0
M  V30 956 C 91.9272 -1.72317 2.94142 0
M  V30 957 H 93.1202 0.0841605 2.99782 0
M  V30 958 H 90.6732 0.0813433 1.56088 0
M  V30 959 H 91.4082 -2.36653 2.21734 0
M  V30 960 H 91.1932 -1.35898 3.67796 0
M  V30 961 H 92.6832 -2.3266 3.46784 0
M  V30 962 N 93.1203 -1.57491 0.0584922 0
M  V30 963 C 94.0833 -2.1085 -0.898617 0
M  V30 964 C 95.0833 -1.02964 -1.23511 0
M  V30 965 O 96.2733 -1.29007 -1.17059 0
M  V30 966 C 93.4053 -2.59881 -2.20623 0
M  V30 967 H 94.5983 -2.96715 -0.435936 0
M  V30 968 H 92.1513 -1.55141 -0.190023 0
M  V30 969 H 92.8863 -1.77431 -2.71457 0
M  V30 970 H 92.6713 -3.38727 -1.97501 0
M  V30 971 H 94.1613 -3.01285 -2.89166 0
M  V30 972 N 94.5984 0.214957 -1.56127 0
M  V30 973 C 95.5614 1.24997 -1.92116 0
M  V30 974 C 96.5614 1.39467 -0.800344 0
M  V30 975 O 97.7514 1.37619 -1.06802 0
M  V30 976 C 94.8834 2.62271 -2.17777 0
M  V30 977 H 96.0764 0.942875 -2.84693 0
M  V30 978 H 93.6294 0.455654 -1.49511 0
M  V30 979 H 94.3644 2.98068 -1.27773 0
M  V30 980 H 94.1494 2.53143 -2.99434 0
M  V30 981 H 95.6394 3.36946 -2.46693 0
M  V30 982 N 96.0765 1.50051 0.48192 0
M  V30 983 C 97.0235 1.68122 1.58125 0
M  V30 984 C 97.9935 0.522545 1.57666 0
M  V30 985 O 99.1785 0.751844 1.75362 0
M  V30 986 C 96.3185 1.77142 2.96167 0
M  V30 987 C 95.4315 3.0444 3.06497 0
M  V30 988 C 94.5665 3.04321 4.35387 0
M  V30 989 C 93.6055 4.26118 4.3942 0
M  V30 990 N 92.7425 4.238 5.59766 0
M  V30 991 H 97.5825 2.6198 1.42022 0
M  V30 992 H 95.1195 1.29877 0.690687 0
M  V30 993 H 97.0775 1.80352 3.76203 0
M  V30 994 H 95.7075 0.867329 3.1093 0
M  V30 995 H 94.7595 3.10752 2.19402 0
M  V30 996 H 96.0715 3.94426 3.05336 0
M  V30 997 H 95.2255 3.062 5.23762 0
M  V30 998 H 93.9645 2.12147 4.39141 0
M  V30 999 H 92.9695 4.24463 3.49444 0
M  V30 1000 H 94.1945 5.19507 4.37366 0
M  V30 1001 H 92.1405 3.34474 5.64326 0
M  V30 1002 H 92.0575 5.07542 5.60301 0
M  V30 1003 H 93.3255 4.2981 6.50295 0
M  V30 1004 N 97.5546 -0.734337 1.39446 0
M  V30 1005 C 98.5176 -1.83004 1.37994 0
M  V30 1006 C 99.5176 -1.58397 0.276938 0
M  V30 1007 O 100.708 -1.65785 0.534875 0
M  V30 1008 C 97.8396 -3.20802 1.1532 0
M  V30 1009 H 99.0326 -1.85694 2.35494 0
M  V30 1010 H 96.5856 -0.938059 1.25021 0
M  V30 1011 H 97.3206 -3.23772 0.185036 0
M  V30 1012 H 97.1056 -3.4006 1.95197 0
M  V30 1013 H 98.5956 -4.00862 1.17046 0
M  V30 1014 N 99.0327 -1.24633 -0.964593 0
M  V30 1015 C 100.281 -1.08573 -1.70459 0
M  V30 1016 C 100.602 0.375655 -1.91347 0
M  V30 1017 O 99.8717 1.26779 -1.49345 0
M  V30 1018 H 98.4517 -0.398784 -0.631649 0
M  V30 1019 H 101.114 -1.56601 -1.16026 0
M  V30 1020 H 100.21 -1.58623 -2.68785 0
M  V30 1021 N 100.511 1.16574 -1.06058 0
M  V30 1022 C 101.444 2.19798 -0.61352 0
M  V30 1023 C 102.422 1.58509 0.362453 0
M  V30 1024 O 103.606 1.86527 0.271994 0
M  V30 1025 C 100.733 3.3855 0.100915 0
M  V30 1026 C 99.7788 4.18317 -0.831438 0
M  V30 1027 S 100.612 4.82375 -2.32539 0
M  V30 1028 C 101.768 6.04508 -1.62238 0
M  V30 1029 H 102.001 2.5738 -1.48805 0
M  V30 1030 H 99.5338 1.27327 -0.873338 0
M  V30 1031 H 101.492 4.07358 0.506898 0
M  V30 1032 H 100.153 2.99338 0.951604 0
M  V30 1033 H 99.3458 5.03232 -0.278071 0
M  V30 1034 H 98.9478 3.5499 -1.17719 0
M  V30 1035 H 101.24 6.71133 -0.926622 0
M  V30 1036 H 102.183 6.64389 -2.44934 0
M  V30 1037 H 102.591 5.53559 -1.106 0
M  V30 1038 N 101.989 0.842826 1.3317 0
M  V30 1039 C 103.266 0.362216 1.92217 0
M  V30 1040 C 103.646 -1.15289 1.76838 0
M  V30 1041 O 102.994 -1.96914 1.15919 0
M  V30 1042 C 103.204 0.813495 3.39387 0
M  V30 1043 C 104.552 0.823804 4.16532 0
M  V30 1044 O 105.576 0.757358 3.48055 0
M  V30 1045 O 104.435 0.915193 5.38782 0
M  V30 1046 H 101.529 0.103317 0.820521 0
M  V30 1047 H 104.075 0.928942 1.42017 0
M  V30 1048 H 102.847 1.85624 3.4447 0
M  V30 1049 H 102.47 0.223561 3.96971 0
M  V30 1050 N 103.467 -1.45747 0.599634 0
M  V30 1051 C 104.692 -2.07178 0.0960198 0
M  V30 1052 C 105.117 -1.44268 -1.207 0
M  V30 1053 O 104.475 -0.532503 -1.73303 0
M  V30 1054 C 104.523 -3.60579 -0.0385348 0
M  V30 1055 O 103.627 -3.97713 -1.0908 0
M  V30 1056 H 102.968 -0.660251 0.0704593 0
M  V30 1057 H 105.498 -1.87124 0.827385 0
M  V30 1058 H 105.508 -4.07298 -0.239304 0
M  V30 1059 H 104.183 -4.05756 0.912947 0
M  V30 1060 H 102.76 -3.62678 -0.867135 0
M  V30 1061 N 104.945 -0.338344 -1.53925 0
M  V30 1062 C 105.895 0.536712 -2.21593 0
M  V30 1063 C 106.879 1.07015 -1.20153 0
M  V30 1064 O 108.071 1.00471 -1.45721 0
M  V30 1065 C 105.2 1.68977 -2.98834 0
M  V30 1066 C 104.286 1.17052 -4.07627 0
M  V30 1067 N 104.677 0.372085 -5.0443 0
M  V30 1068 C 102.975 1.44789 -4.21844 0
M  V30 1069 C 103.676 0.0909171 -5.81629 0
M  V30 1070 N 102.652 0.681131 -5.39316 0
M  V30 1071 H 106.454 -0.0804298 -2.9379 0
M  V30 1072 H 103.968 -0.144943 -1.61752 0
M  V30 1073 H 105.965 2.32857 -3.45808 0
M  V30 1074 H 104.625 2.31024 -2.28162 0
M  V30 1075 H 105.636 0.0136217 -5.17898 0
M  V30 1076 H 102.313 2.07313 -3.62391 0
M  V30 1077 H 103.703 -0.552817 -6.69622 0
M  V30 1078 N 106.423 1.57458 -0.0668435 0
M  V30 1079 C 107.671 1.92919 0.602214 0
M  V30 1080 C 107.992 0.947215 1.70449 0
M  V30 1081 O 107.262 -0.00544117 1.95899 0
M  V30 1082 H 105.842 0.71217 0.22544 0
M  V30 1083 H 108.504 1.94508 -0.123535 0
M  V30 1084 H 107.6 2.94589 1.03073 0
M  V30 1085 N 107.901 -0.206675 1.56239 0
M  V30 1086 C 109.148 -0.928842 1.79941 0
M  V30 1087 C 109.476 -1.83734 0.638131 0
M  V30 1088 O 108.731 -1.92039 -0.376746 0
M  V30 1089 C 109.03 -1.78675 3.09532 0
M  V30 1090 C 108.696 -1.03022 4.38973 0
M  V30 1091 C 107.358 -0.821302 4.74139 0
M  V30 1092 C 109.71 -0.497081 5.18824 0
M  V30 1093 C 107.038 -0.0675719 5.86661 0
M  V30 1094 C 109.39 0.24338 6.32132 0
M  V30 1095 C 108.054 0.463422 6.65889 0
M  V30 1096 H 107.324 -0.339887 0.658451 0
M  V30 1097 H 109.971 -0.195977 1.90495 0
M  V30 1098 H 108.276 -2.58794 2.94165 0
M  V30 1099 H 109.973 -2.34792 3.25075 0
M  V30 1100 H 106.563 -1.20306 4.11369 0
M  V30 1101 H 110.747 -0.645921 4.92079 0
M  V30 1102 H 106.003 0.112995 6.11296 0
M  V30 1103 H 110.177 0.66393 6.93228 0
M  V30 1104 H 107.804 1.04938 7.52922 0
M  V30 1105 N 109.379 -1.50304 -0.473955 0
M  V30 1106 C 110.627 -1.60832 -1.22382 0
M  V30 1107 C 110.948 -0.30939 -1.9253 0
M  V30 1108 O 110.218 0.67296 -1.83978 0
M  V30 1109 H 108.798 -0.592652 -0.454723 0
M  V30 1110 H 111.46 -1.87068 -0.546968 0
M  V30 1111 H 110.556 -2.41803 -1.97327 0
M  V30 1112 N 110.857 0.726932 -1.39834 0
M  V30 1113 C 111.79 1.8501 -1.33592 0
M  V30 1114 C 112.768 1.61262 -0.208191 0
M  V30 1115 O 113.952 1.84422 -0.389981 0
M  V30 1116 C 111.079 3.21143 -1.07633 0
M  V30 1117 C 110.125 3.63737 -2.22705 0
M  V30 1118 S 110.958 3.72167 -3.85035 0
M  V30 1119 C 112.114 5.11077 -3.61318 0
M  V30 1120 H 112.347 1.90022 -2.28646 0
M  V30 1121 H 109.88 0.892595 -1.25985 0
M  V30 1122 H 111.838 3.99747 -0.933415 0
M  V30 1123 H 110.499 3.13776 -0.142526 0
M  V30 1124 H 109.692 4.62551 -2.00155 0
M  V30 1125 H 109.294 2.9236 -2.33242 0
M  V30 1126 H 111.586 5.97656 -3.19083 0
M  V30 1127 H 112.529 5.38658 -4.59623 0
M  V30 1128 H 112.937 4.81135 -2.95245 0
M  V30 1129 N 112.336 1.25143 0.95797 0
M  V30 1130 C 113.299 1.05321 2.03569 0
M  V30 1131 C 114.299 0.007152 1.60798 0
M  V30 1132 O 115.489 0.24903 1.72411 0
M  V30 1133 C 112.621 0.598394 3.35607 0
M  V30 1134 H 113.814 2.00986 2.22586 0
M  V30 1135 H 111.367 1.07502 1.13459 0
M  V30 1136 H 112.102 -0.361014 3.22284 0
M  V30 1137 H 111.887 1.35351 3.67998 0
M  V30 1138 H 113.377 0.48104 4.1482 0
M  V30 1139 N 113.814 -1.1601 1.06675 0
M  V30 1140 C 115.039 -1.91068 0.806706 0
M  V30 1141 C 115.464 -1.77112 -0.633485 0
M  V30 1142 O 114.822 -1.09908 -1.44187 0
M  V30 1143 C 114.87 -3.39655 1.21106 0
M  V30 1144 O 113.974 -4.10893 0.352189 0
M  V30 1145 H 113.315 -0.595125 0.294486 0
M  V30 1146 H 115.845 -1.46955 1.42356 0
M  V30 1147 H 115.855 -3.90434 1.18428 0
M  V30 1148 H 114.53 -3.49132 2.26008 0
M  V30 1149 H 113.107 -3.70285 0.440868 0
M  V30 1150 N 115.292 -0.849877 -1.32721 0
M  V30 1151 C 116.538 -0.451591 -1.97708 0
M  V30 1152 C 116.871 0.989175 -1.6712 0
M  V30 1153 O 116.146 1.69334 -0.956891 0
M  V30 1154 C 116.429 -0.685598 -3.53513 0
M  V30 1155 C 116.282 -2.17444 -3.93749 0
M  V30 1156 C 117.601 -0.138874 -4.39881 0
M  V30 1157 H 114.72 -0.16555 -0.718166 0
M  V30 1158 H 117.362 -1.06742 -1.57182 0
M  V30 1159 H 115.512 -0.161416 -3.88165 0
M  V30 1160 H 117.184 -2.76433 -3.693 0
M  V30 1161 H 115.427 -2.65476 -3.43081 0
M  V30 1162 H 116.098 -2.28888 -5.02309 0
M  V30 1163 H 118.574 -0.587068 -4.11938 0
M  V30 1164 H 117.45 -0.332213 -5.47894 0
M  V30 1165 H 117.711 0.95806 -4.31594 0
M  V30 1166 N 116.77 1.45427 -0.607355 0
M  V30 1167 C 118.186 1.57283 -0.270985 0
M  V30 1168 C 118.386 1.59875 1.22647 0
M  V30 1169 O 117.442 1.52893 2.00948 0
M  V30 1170 C 118.755 2.85566 -0.941952 0
M  V30 1171 C 120.303 2.9924 -0.917849 0
M  V30 1172 C 120.778 4.30293 -1.56882 0
M  V30 1173 N 122.269 4.37051 -1.5343 0
M  V30 1174 C 123.004 5.37123 -2.00715 0
M  V30 1175 N 122.5 6.43734 -2.56084 0
M  V30 1176 N 124.293 5.28479 -1.91484 0
M  V30 1177 H 116.444 1.41988 -1.57966 0
M  V30 1178 H 118.707 0.67885 -0.661715 0
M  V30 1179 H 118.413 2.8955 -1.99633 0
M  V30 1180 H 118.287 3.74322 -0.465096 0
M  V30 1181 H 120.674 2.94822 0.127984 0
M  V30 1182 H 120.755 2.11895 -1.43297 0
M  V30 1183 H 120.399 4.35469 -2.61398 0
M  V30 1184 H 120.329 5.16454 -1.02873 0
M  V30 1185 H 122.82 3.60615 -1.12982 0
M  V30 1186 H 123.133 7.16341 -2.89958 0
M  V30 1187 H 121.478 6.44485 -2.60122 0
M  V30 1188 H 124.669 4.44098 -1.47967 0
M  V30 1189 H 124.842 6.0632 -2.28648 0
M  V30 1190 N 118.248 0.346503 1.53744 0
M  V30 1191 C 119.495 -0.249104 2.00962 0
M  V30 1192 C 119.823 -1.5032 1.23426 0
M  V30 1193 O 119.078 -1.93217 0.310761 0
M  V30 1194 C 119.377 -0.605809 3.52228 0
M  V30 1195 C 119.043 0.551747 4.47512 0
M  V30 1196 C 117.705 0.86941 4.73281 0
M  V30 1197 C 120.057 1.32818 5.03993 0
M  V30 1198 C 117.385 1.96582 5.52786 0
M  V30 1199 C 119.737 2.41486 5.84694 0
M  V30 1200 C 118.401 2.73808 6.08757 0
M  V30 1201 H 117.671 -0.0911538 0.735372 0
M  V30 1202 H 120.318 0.475027 1.85515 0
M  V30 1203 H 118.623 -1.4107 3.65522 0
M  V30 1204 H 120.32 -1.07858 3.86222 0
M  V30 1205 H 116.91 0.294102 4.2759 0
M  V30 1206 H 121.094 1.09602 4.84047 0
M  V30 1207 H 116.35 2.22045 5.69654 0
M  V30 1208 H 120.524 3.02078 6.27473 0
M  V30 1209 H 118.151 3.58892 6.7015 0
M  V30 1210 N 119.726 -1.57421 0.075193 0
M  V30 1211 C 120.975 -1.92794 -0.592731 0
M  V30 1212 C 121.288 -0.957478 -1.70563 0
M  V30 1213 O 122.494 -1.20417 -2.43335 0
M  V30 1214 C 120.95 -3.42495 -1.10569 0
M  V30 1215 C 120.558 -4.47994 -0.0236121 0
M  V30 1216 C 122.302 -3.86864 -1.74748 0
M  V30 1217 C 120.209 -5.88829 -0.550803 0
M  V30 1218 H 119.139 -0.719591 -0.225177 0
M  V30 1219 H 121.79 -1.82902 0.147978 0
M  V30 1220 H 120.172 -3.47471 -1.89947 0
M  V30 1221 H 121.346 -4.54637 0.751099 0
M  V30 1222 H 119.661 -4.13113 0.522159 0
M  V30 1223 H 122.258 -4.8947 -2.15229 0
M  V30 1224 H 122.601 -3.24417 -2.60882 0
M  V30 1225 H 123.134 -3.84504 -1.01986 0
M  V30 1226 H 119.873 -6.54929 0.273457 0
M  V30 1227 H 119.393 -5.85698 -1.29296 0
M  V30 1228 H 121.072 -6.38811 -1.02613 0
M  V30 1229 N 121.204 0.198386 -1.56346 0
M  V30 1230 C 122.444 0.92609 -1.82217 0
M  V30 1231 C 122.808 1.80584 -0.652195 0
M  V30 1232 O 124.009 2.56907 -0.790716 0
M  V30 1233 C 122.28 1.72354 -3.13096 0
M  V30 1234 S 123.839 2.50371 -3.6036 0
M  V30 1235 H 120.657 0.310677 -0.639532 0
M  V30 1236 H 123.259 0.189755 -1.94577 0
M  V30 1237 H 121.963 1.0678 -3.96265 0
M  V30 1238 H 121.494 2.50175 -3.03605 0
M  V30 1239 H 123.509 3.74488 -3.25535 0
M  V30 1240 N 122.682 1.50554 0.465978 0
M  V30 1241 C 123.93 1.61479 1.21528 0
M  V30 1242 C 124.251 0.319596 1.92363 0
M  V30 1243 O 123.521 -0.663194 1.84333 0
M  V30 1244 H 122.101 0.595055 0.451573 0
M  V30 1245 H 124.763 1.87355 0.53704 0
M  V30 1246 H 123.859 2.42846 1.96042 0
M  V30 1247 N 124.16 -0.719506 1.40217 0
M  V30 1248 C 125.388 -1.50864 1.41589 0
M  V30 1249 C 125.803 -1.88794 0.0145275 0
M  V30 1250 O 125.16 -1.55174 -0.960594 0
M  V30 1251 C 125.211 -2.78646 2.30302 0
M  V30 1252 O 124.932 -2.42321 3.64983 0
M  V30 1253 C 126.433 -3.72569 2.40224 0
M  V30 1254 H 123.653 -0.465709 0.48307 0
M  V30 1255 H 126.197 -0.88785 1.84221 0
M  V30 1256 H 124.352 -3.37019 1.91042 0
M  V30 1257 H 124.766 -3.24514 4.12057 0
M  V30 1258 H 126.24 -4.5908 3.06512 0
M  V30 1259 H 126.717 -4.15403 1.42608 0
M  V30 1260 H 127.323 -3.20109 2.80019 0
M  V30 1261 N 125.638 -1.25649 -0.95132 0
M  V30 1262 C 126.57 -1.02112 -2.05197 0
M  V30 1263 C 127.583 0.0150571 -1.62793 0
M  V30 1264 O 128.772 -0.223874 -1.77091 0
M  V30 1265 C 125.872 -0.522361 -3.3485 0
M  V30 1266 C 125.045 -1.62546 -4.06076 0
M  V30 1267 C 124.104 -1.12649 -5.14001 0
M  V30 1268 O 123.13 -1.82156 -5.39266 0
M  V30 1269 N 124.332 0.03047 -5.80492 0
M  V30 1270 H 127.097 -1.96885 -2.25957 0
M  V30 1271 H 124.658 -1.16899 -1.1201 0
M  V30 1272 H 126.65 -0.172961 -4.0433 0
M  V30 1273 H 125.22 0.33151 -3.10837 0
M  V30 1274 H 124.44 -2.14628 -3.30649 0
M  V30 1275 H 125.728 -2.36644 -4.50419 0
M  V30 1276 H 125.126 0.611169 -5.62389 0
M  V30 1277 H 123.683 0.320875 -6.5101 0
M  V30 1278 N 127.117 1.15442 -1.07289 0
M  V30 1279 C 128.394 1.82306 -0.708792 0
M  V30 1280 C 128.774 1.94991 0.808807 0
M  V30 1281 O 128.122 1.50085 1.72298 0
M  V30 1282 C 128.332 3.18695 -1.42247 0
M  V30 1283 C 129.68 3.94341 -1.57417 0
M  V30 1284 O 130.704 3.28247 -1.38319 0
M  V30 1285 O 129.563 5.12839 -1.88834 0
M  V30 1286 H 126.657 0.787628 -0.252132 0
M  V30 1287 H 129.203 1.22559 -1.17377 0
M  V30 1288 H 127.975 3.04557 -2.45684 0
M  V30 1289 H 127.598 3.86128 -0.948223 0
M  V30 1290 N 128.595 0.856903 1.32268 0
M  V30 1291 C 129.82 0.474569 2.01897 0
M  V30 1292 C 130.245 -0.921766 1.63967 0
M  V30 1293 O 129.603 -1.60589 0.84148 0
M  V30 1294 C 129.651 0.623799 3.55164 0
M  V30 1295 O 128.755 -0.342459 4.10976 0
M  V30 1296 H 128.096 0.190422 0.63611 0
M  V30 1297 H 130.626 1.15672 1.68764 0
M  V30 1298 H 130.636 0.512169 4.04773 0
M  V30 1299 H 129.311 1.64202 3.82113 0
M  V30 1300 H 127.888 -0.18688 3.72431 0
M  V30 1301 N 130.073 -1.45103 0.615059 0
M  V30 1302 C 131.023 -2.27679 -0.120966 0
M  V30 1303 C 132.007 -1.3775 -0.831491 0
M  V30 1304 O 133.199 -1.61683 -0.720249 0
M  V30 1305 C 130.328 -3.24767 -1.1127 0
M  V30 1306 C 129.414 -4.22184 -0.402627 0
M  V30 1307 N 129.805 -5.02692 0.559884 0
M  V30 1308 C 128.103 -4.4125 -0.649202 0
M  V30 1309 C 128.804 -5.73421 0.977942 0
M  V30 1310 N 127.78 -5.42657 0.320104 0
M  V30 1311 H 131.582 -2.87325 0.618181 0
M  V30 1312 H 129.096 -1.56345 0.439304 0
M  V30 1313 H 131.093 -3.82666 -1.65446 0
M  V30 1314 H 129.753 -2.66682 -1.85232 0
M  V30 1315 H 130.764 -5.09354 0.936976 0
M  V30 1316 H 127.441 -3.9428 -1.37293 0
M  V30 1317 H 128.831 -6.48107 1.77222 0
M  V30 1318 N 131.551 -0.354651 -1.53558 0
M  V30 1319 C 132.498 0.496968 -2.25386 0
M  V30 1320 C 133.468 1.0865 -1.25636 0
M  V30 1321 O 134.653 1.12104 -1.54394 0
M  V30 1322 C 131.793 1.63637 -3.03837 0
M  V30 1323 C 130.906 1.07307 -4.18461 0
M  V30 1324 C 130.041 2.18068 -4.84376 0
M  V30 1325 C 129.08 1.59147 -5.91049 0
M  V30 1326 N 128.217 2.63695 -6.50699 0
M  V30 1327 H 133.057 -0.122075 -2.9775 0
M  V30 1328 H 130.594 -0.0720154 -1.46924 0
M  V30 1329 H 132.552 2.30734 -3.47589 0
M  V30 1330 H 131.182 2.22623 -2.33749 0
M  V30 1331 H 130.234 0.292708 -3.79272 0
M  V30 1332 H 131.546 0.602193 -4.95152 0
M  V30 1333 H 130.7 2.93007 -5.31255 0
M  V30 1334 H 129.439 2.68504 -4.07133 0
M  V30 1335 H 128.444 0.827175 -5.43542 0
M  V30 1336 H 129.669 1.09549 -6.70206 0
M  V30 1337 H 127.615 3.13365 -5.76315 0
M  V30 1338 H 127.532 2.21263 -7.22896 0
M  V30 1339 H 128.8 3.3837 -7.02229 0
M  V30 1340 N 133.029 1.57378 -0.0835403 0
M  V30 1341 C 133.939 2.16897 0.894021 0
M  V30 1342 C 134.955 1.13528 1.31861 0
M  V30 1343 O 136.131 1.45848 1.3889 0
M  V30 1344 C 133.196 2.72831 2.13925 0
M  V30 1345 C 132.257 3.91115 1.76997 0
M  V30 1346 C 131.49 4.44371 2.95584 0
M  V30 1347 O 131.713 3.96596 4.09961 0
M  V30 1348 O 130.647 5.35549 2.74719 0
M  V30 1349 H 134.473 3.00814 0.417679 0
M  V30 1350 H 132.058 1.48741 0.140181 0
M  V30 1351 H 133.94 3.0863 2.86924 0
M  V30 1352 H 132.615 1.91967 2.60635 0
M  V30 1353 H 131.522 3.60148 1.01214 0
M  V30 1354 H 132.855 4.73307 1.3506 0
M  V30 1355 N 134.507 -0.190092 1.56449 0
M  V30 1356 C 135.437 -1.23816 1.97969 0
M  V30 1357 C 136.418 -1.47201 0.852395 0
M  V30 1358 O 137.603 -1.58854 1.1171 0
M  V30 1359 C 134.733 -2.5813 2.3235 0
M  V30 1360 C 133.687 -2.49348 3.47864 0
M  V30 1361 C 133.013 -3.8798 3.67934 0
M  V30 1362 C 134.313 -2.01424 4.81898 0
M  V30 1363 H 136.007 -0.89311 2.85769 0
M  V30 1364 H 133.553 -0.428177 1.37487 0
M  V30 1365 H 135.506 -3.31637 2.59991 0
M  V30 1366 H 134.23 -2.94386 1.41438 0
M  V30 1367 H 132.889 -1.78297 3.20321 0
M  V30 1368 H 132.537 -4.21597 2.74344 0
M  V30 1369 H 132.237 -3.82978 4.45648 0
M  V30 1370 H 133.761 -4.63101 3.97957 0
M  V30 1371 H 135.175 -2.64693 5.08538 0
M  V30 1372 H 133.572 -2.07413 5.63116 0
M  V30 1373 H 134.642 -0.967677 4.75146 0
M  V30 1374 N 135.985 -1.50799 -0.457987 0
M  V30 1375 C 136.895 -1.73426 -1.57989 0
M  V30 1376 C 137.911 -0.617745 -1.62665 0
M  V30 1377 O 139.087 -0.897614 -1.80291 0
M  V30 1378 C 136.152 -1.83557 -2.94122 0
M  V30 1379 C 135.213 -3.07345 -2.99729 0
M  V30 1380 C 134.446 -3.16983 -4.29368 0
M  V30 1381 O 134.669 -2.33077 -5.20607 0
M  V30 1382 O 133.603 -4.09812 -4.40837 0
M  V30 1383 H 137.429 -2.68555 -1.41817 0
M  V30 1384 H 135.014 -1.35052 -0.638859 0
M  V30 1385 H 136.896 -1.92326 -3.74952 0
M  V30 1386 H 135.571 -0.916137 -3.10465 0
M  V30 1387 H 134.478 -3.04068 -2.1793 0
M  V30 1388 H 135.811 -3.9891 -2.88326 0
M  V30 1389 N 137.463 0.71206 -1.40597 0
M  V30 1390 C 138.395 1.83704 -1.37061 0
M  V30 1391 C 139.408 1.60453 -0.275426 0
M  V30 1392 O 140.597 1.70262 -0.53602 0
M  V30 1393 C 137.697 3.20172 -1.11099 0
M  V30 1394 C 136.87 3.7059 -2.3234 0
M  V30 1395 C 135.929 4.85681 -2.02485 0
M  V30 1396 O 134.955 4.9815 -2.75382 0
M  V30 1397 N 136.157 5.71735 -1.00497 0
M  V30 1398 H 138.922 1.87235 -2.34016 0
M  V30 1399 H 136.483 0.893739 -1.34996 0
M  V30 1400 H 138.475 3.94768 -0.891064 0
M  V30 1401 H 137.045 3.11767 -0.227989 0
M  V30 1402 H 136.265 2.87085 -2.7014 0
M  V30 1403 H 137.553 4.01011 -3.13157 0
M  V30 1404 H 136.951 5.64275 -0.401298 0
M  V30 1405 H 135.508 6.463 -0.844942 0
M  V30 1406 N 138.941 1.26152 0.944643 0
M  V30 1407 C 139.888 1.07408 2.04285 0
M  V30 1408 C 140.858 -0.0198413 1.66088 0
M  V30 1409 O 142.043 0.139264 1.90291 0
M  V30 1410 C 139.183 0.70945 3.37729 0
M  V30 1411 C 138.296 1.87926 3.88983 0
M  V30 1412 C 137.431 1.45807 5.10797 0
M  V30 1413 C 136.47 2.5964 5.54305 0
M  V30 1414 N 135.607 2.18226 6.67324 0
M  V30 1415 H 140.447 2.01389 2.1965 0
M  V30 1416 H 137.984 1.00275 1.07626 0
M  V30 1417 H 139.942 0.478948 4.14442 0
M  V30 1418 H 138.572 -0.193389 3.2222 0
M  V30 1419 H 137.624 2.22279 3.08701 0
M  V30 1420 H 138.936 2.73377 4.17213 0
M  V30 1421 H 138.09 1.18781 5.94959 0
M  V30 1422 H 136.829 0.574414 4.84305 0
M  V30 1423 H 135.834 2.87399 4.68702 0
M  V30 1424 H 137.059 3.48599 5.828 0
M  V30 1425 H 135.005 1.3229 6.42523 0
M  V30 1426 H 134.922 2.97221 6.95123 0
M  V30 1427 H 136.19 1.94403 7.54869 0
M  V30 1428 N 140.419 -1.14872 1.07899 0
M  V30 1429 C 141.349 -2.2193 0.725887 0
M  V30 1430 C 142.33 -1.67622 -0.28927 0
M  V30 1431 O 143.515 -1.93533 -0.160787 0
M  V30 1432 C 140.645 -3.47061 0.128856 0
M  V30 1433 C 139.599 -4.14363 1.07178 0
M  V30 1434 C 138.925 -5.33636 0.337229 0
M  V30 1435 C 140.225 -4.63492 2.40775 0
M  V30 1436 H 141.919 -2.51724 1.62097 0
M  V30 1437 H 139.465 -1.20991 0.780838 0
M  V30 1438 H 141.418 -4.21199 -0.130147 0
M  V30 1439 H 140.142 -3.16617 -0.80134 0
M  V30 1440 H 138.801 -3.42173 1.3158 0
M  V30 1441 H 138.449 -4.99449 -0.596606 0
M  V30 1442 H 138.149 -5.79609 0.965788 0
M  V30 1443 H 139.673 -6.10539 0.0861567 0
M  V30 1444 H 141.087 -5.2913 2.20669 0
M  V30 1445 H 139.484 -5.20148 2.99276 0
M  V30 1446 H 140.554 -3.78834 3.02676 0
M  V30 1447 N 141.898 -0.863906 -1.31812 0
M  V30 1448 C 142.861 -0.320212 -2.26952 0
M  V30 1449 C 143.861 0.525369 -1.51975 0
M  V30 1450 O 145.051 0.335547 -1.70938 0
M  V30 1451 C 142.183 0.545919 -3.365 0
M  V30 1452 H 143.376 -1.16004 -2.76556 0
M  V30 1453 H 140.929 -0.638995 -1.42641 0
M  V30 1454 H 141.664 1.40718 -2.92179 0
M  V30 1455 H 141.449 -0.0594674 -3.92055 0
M  V30 1456 H 142.939 0.918796 -4.07367 0
M  V30 1457 N 143.376 1.44774 -0.622745 0
M  V30 1458 C 144.339 2.29069 0.0774015 0
M  V30 1459 C 145.339 1.4059 0.780461 0
M  V30 1460 O 146.529 1.62551 0.626322 0
M  V30 1461 C 143.661 3.21974 1.12006 0
M  V30 1462 H 144.854 2.92459 -0.663901 0
M  V30 1463 H 142.407 1.51548 -0.382486 0
M  V30 1464 H 143.142 2.63417 1.89162 0
M  V30 1465 H 142.927 3.87168 0.619951 0
M  V30 1466 H 144.417 3.85318 1.60995 0
M  V30 1467 N 144.854 0.36279 1.53368 0
M  V30 1468 C 146.101 -0.227776 2.01215 0
M  V30 1469 C 146.429 -1.49003 1.25014 0
M  V30 1470 O 145.684 -1.92876 0.331236 0
M  V30 1471 C 145.983 -0.568417 3.52851 0
M  V30 1472 C 145.649 0.59918 4.46901 0
M  V30 1473 C 144.311 0.919559 4.72332 0
M  V30 1474 C 146.663 1.38156 5.02556 0
M  V30 1475 C 143.991 2.02434 5.5067 0
M  V30 1476 C 146.343 2.47674 5.821 0
M  V30 1477 C 145.007 2.8025 6.05819 0
M  V30 1478 H 144.277 -0.083349 0.736297 0
M  V30 1479 H 146.924 0.494677 1.85001 0
M  V30 1480 H 145.229 -1.37185 3.66998 0
M  V30 1481 H 146.926 -1.03756 3.87344 0
M  V30 1482 H 143.516 0.339437 4.27254 0
M  V30 1483 H 147.7 1.14729 4.82857 0
M  V30 1484 H 142.956 2.28075 5.67267 0
M  V30 1485 H 147.13 3.08716 6.24234 0
M  V30 1486 H 144.757 3.65979 6.66306 0
M  V30 1487 N 146.332 -1.57332 0.0918853 0
M  V30 1488 C 147.262 -2.16872 -0.865371 0
M  V30 1489 C 148.243 -1.10118 -1.29646 0
M  V30 1490 O 149.428 -1.38242 -1.36392 0
M  V30 1491 C 146.558 -2.74649 -2.12569 0
M  V30 1492 C 145.512 -3.86747 -1.83333 0
M  V30 1493 C 144.838 -4.31212 -3.16166 0
M  V30 1494 C 146.138 -5.10089 -1.1228 0
M  V30 1495 H 147.832 -2.97114 -0.369307 0
M  V30 1496 H 145.378 -1.42918 -0.176194 0
M  V30 1497 H 147.331 -3.14952 -2.7997 0
M  V30 1498 H 146.055 -1.91657 -2.64452 0
M  V30 1499 H 144.714 -3.46978 -1.18331 0
M  V30 1500 H 144.362 -3.45115 -3.6593 0
M  V30 1501 H 144.062 -5.06788 -2.97388 0
M  V30 1502 H 145.586 -4.74146 -3.84731 0
M  V30 1503 H 147 -5.47582 -1.69785 0
M  V30 1504 H 145.397 -5.91073 -1.03693 0
M  V30 1505 H 146.467 -4.84786 -0.105041 0
M  V30 1506 N 147.81 0.181792 -1.56548 0
M  V30 1507 C 149.058 0.89832 -1.81038 0
M  V30 1508 C 149.379 1.83232 -0.667164 0
M  V30 1509 O 148.649 1.93372 0.313673 0
M  V30 1510 H 147.229 0.33471 -0.667816 0
M  V30 1511 H 149.891 0.184116 -1.94028 0
M  V30 1512 H 148.987 1.4815 -2.74696 0
M  V30 1513 N 149.288 1.51039 0.449983 0
M  V30 1514 C 150.221 1.66105 1.56474 0
M  V30 1515 C 151.199 0.508776 1.54435 0
M  V30 1516 O 152.383 0.731005 1.73749 0
M  V30 1517 C 149.51 1.66304 2.9506 0
M  V30 1518 C 148.556 2.87346 3.15174 0
M  V30 1519 S 149.389 4.4835 2.92818 0
M  V30 1520 C 150.545 4.51274 4.33708 0
M  V30 1521 H 150.778 2.60397 1.43459 0
M  V30 1522 H 148.311 1.40565 0.638805 0
M  V30 1523 H 150.269 1.67103 3.74949 0
M  V30 1524 H 148.93 0.732108 3.05449 0
M  V30 1525 H 148.123 2.83849 4.16468 0
M  V30 1526 H 147.725 2.84223 2.43091 0
M  V30 1527 H 150.017 4.26136 5.26701 0
M  V30 1528 H 150.96 5.53017 4.42242 0
M  V30 1529 H 151.368 3.80738 4.16772 0
M  V30 1530 N 150.766 -0.704594 1.40972 0
M  V30 1531 C 151.676 -1.84856 1.44448 0
M  V30 1532 C 152.692 -1.70726 0.335961 0
M  V30 1533 O 153.868 -1.92799 0.582276 0
M  V30 1534 C 150.933 -3.20758 1.31587 0
M  V30 1535 C 149.994 -3.47063 2.52677 0
M  V30 1536 C 149.227 -4.76481 2.4042 0
M  V30 1537 O 149.45 -5.52341 1.42391 0
M  V30 1538 O 148.384 -5.03367 3.30007 0
M  V30 1539 H 152.21 -1.8488 2.40942 0
M  V30 1540 H 149.795 -0.85647 1.22413 0
M  V30 1541 H 151.677 -4.01913 1.26665 0
M  V30 1542 H 150.352 -3.21438 0.382049 0
M  V30 1543 H 149.259 -2.65873 2.63177 0
M  V30 1544 H 150.592 -3.5119 3.44858 0
M  V30 1545 N 152.244 -1.26651 -0.937939 0
M  V30 1546 C 153.521 -1.0313 -1.66204 0
M  V30 1547 C 153.901 0.437256 -2.06522 0
M  V30 1548 O 153.249 1.41831 -1.79154 0
M  V30 1549 C 153.459 -1.98314 -2.87181 0
M  V30 1550 C 154.807 -2.27107 -3.58758 0
M  V30 1551 O 155.831 -1.96205 -2.97291 0
M  V30 1552 O 154.69 -2.79736 -4.69479 0
M  V30 1553 H 151.784 -0.392384 -0.727986 0
M  V30 1554 H 154.33 -1.37874 -0.989382 0
M  V30 1555 H 153.102 -2.97399 -2.54302 0
M  V30 1556 H 152.725 -1.64068 -3.6217 0
M  V30 1557 N 153.722 1.14298 -1.08507 0
M  V30 1558 C 154.685 2.17607 -0.719711 0
M  V30 1559 C 155.685 1.58907 0.245997 0
M  V30 1560 O 156.875 1.74181 0.0254081 0
M  V30 1561 C 154.007 3.40842 -0.0627695 0
M  V30 1562 H 155.2 2.51443 -1.63452 0
M  V30 1563 H 152.753 1.28963 -0.88307 0
M  V30 1564 H 153.488 3.12587 0.863716 0
M  V30 1565 H 153.273 3.84713 -0.757504 0
M  V30 1566 H 154.763 4.17221 0.177786 0
M  V30 1567 N 155.201 0.870884 1.31352 0
M  V30 1568 C 156.45 0.478408 1.95944 0
M  V30 1569 C 156.763 -0.974493 1.69597 0
M  V30 1570 O 157.969 -1.47316 2.28058 0
M  V30 1571 C 156.425 0.804609 3.50791 0
M  V30 1572 C 156.033 2.27433 3.85977 0
M  V30 1573 C 157.777 0.480648 4.2177 0
M  V30 1574 C 155.684 2.5429 5.33939 0
M  V30 1575 H 154.614 0.175175 0.733369 0
M  V30 1576 H 157.265 1.06391 1.4951 0
M  V30 1577 H 155.647 0.148347 3.95722 0
M  V30 1578 H 156.821 2.97373 3.52002 0
M  V30 1579 H 155.136 2.56442 3.28065 0
M  V30 1580 H 157.733 0.658519 5.30629 0
M  V30 1581 H 158.076 -0.578979 4.12254 0
M  V30 1582 H 158.609 1.09349 3.82476 0
M  V30 1583 H 155.348 3.58939 5.48491 0
M  V30 1584 H 154.868 1.88945 5.69263 0
M  V30 1585 H 156.547 2.39066 6.01212 0
M  V30 1586 N 156.679 -1.44442 0.630414 0
M  V30 1587 C 157.609 -2.33418 -0.0618083 0
M  V30 1588 C 158.59 -1.48165 -0.835541 0
M  V30 1589 O 159.775 -1.76886 -0.801564 0
M  V30 1590 C 156.905 -3.31222 -1.04449 0
M  V30 1591 C 155.859 -4.26288 -0.382436 0
M  V30 1592 C 155.185 -5.13954 -1.47497 0
M  V30 1593 C 156.485 -5.1744 0.710865 0
M  V30 1594 H 158.179 -2.91548 0.681184 0
M  V30 1595 H 155.725 -1.40191 0.329026 0
M  V30 1596 H 157.678 -3.92351 -1.53748 0
M  V30 1597 H 156.402 -2.71299 -1.81836 0
M  V30 1598 H 155.061 -3.6649 0.0899054 0
M  V30 1599 H 154.709 -4.50385 -2.2397 0
M  V30 1600 H 154.409 -5.7837 -1.03737 0
M  V30 1601 H 155.933 -5.77955 -1.96979 0
M  V30 1602 H 157.347 -5.72509 0.300996 0
M  V30 1603 H 155.744 -5.90455 1.07156 0
M  V30 1604 H 156.814 -4.58496 1.57829 0
M  V30 1605 N 158.157 -0.370918 -1.53173 0
M  V30 1606 C 159.387 0.217389 -2.05453 0
M  V30 1607 C 159.795 1.42568 -1.24382 0
M  V30 1608 O 159.138 1.81571 -0.278839 0
M  V30 1609 C 159.2 0.669827 -3.53205 0
M  V30 1610 C 158.864 -0.4225 -4.55043 0
M  V30 1611 C 159.861 -1.27407 -5.04047 0
M  V30 1612 C 157.546 -0.58427 -4.9889 0
M  V30 1613 C 159.54 -2.27271 -5.95505 0
M  V30 1614 C 157.227 -1.58627 -5.90153 0
M  V30 1615 C 158.225 -2.42892 -6.38351 0
M  V30 1616 O 157.913 -3.41382 -7.27814 0
M  V30 1617 H 157.645 0.0408171 -0.674767 0
M  V30 1618 H 160.199 -0.5292 -1.98466 0
M  V30 1619 H 158.429 1.4681 -3.57748 0
M  V30 1620 H 160.118 1.18173 -3.88317 0
M  V30 1621 H 160.884 -1.16031 -4.70916 0
M  V30 1622 H 156.763 0.061851 -4.60959 0
M  V30 1623 H 160.307 -2.93079 -6.33049 0
M  V30 1624 H 156.204 -1.70048 -6.22699 0
M  V30 1625 H 156.972 -3.37173 -7.45826 0
M  V30 1626 N 159.635 1.57281 -0.100228 0
M  V30 1627 C 160.86 1.99302 0.573881 0
M  V30 1628 C 161.285 0.979059 1.60611 0
M  V30 1629 O 160.643 -0.0517803 1.81226 0
M  V30 1630 C 160.691 3.40274 1.19358 0
M  V30 1631 O 159.795 3.41676 2.30935 0
M  V30 1632 H 159.136 0.647944 0.145138 0
M  V30 1633 H 161.666 2.03779 -0.183156 0
M  V30 1634 H 161.676 3.78078 1.53365 0
M  V30 1635 H 160.351 4.13594 0.437385 0
M  V30 1636 H 158.928 3.15672 1.98509 0
M  V30 1637 N 161.113 -0.173488 1.56642 0
M  V30 1638 C 162.338 -0.910149 1.86363 0
M  V30 1639 C 162.763 -1.75132 0.686318 0
M  V30 1640 O 162.121 -1.77595 -0.364643 0
M  V30 1641 C 162.169 -1.76447 3.14482 0
M  V30 1642 O 161.273 -2.86584 2.96553 0
M  V30 1643 H 160.614 -0.255086 0.613047 0
M  V30 1644 H 163.144 -0.172283 2.03873 0
M  V30 1645 H 163.154 -2.16483 3.45831 0
M  V30 1646 H 161.829 -1.14658 3.99783 0
M  V30 1647 H 160.406 -2.50146 2.76553 0
M  V30 1648 N 162.591 -1.51276 -0.441967 0
M  V30 1649 C 163.831 -1.65372 -1.20132 0
M  V30 1650 C 164.195 -0.359871 -1.88597 0
M  V30 1651 O 165.396 -0.376551 -2.66149 0
M  V30 1652 C 163.667 -2.8207 -2.1948 0
M  V30 1653 S 165.226 -3.16467 -3.03964 0
M  V30 1654 H 162.044 -0.582669 -0.407453 0
M  V30 1655 H 164.646 -1.89166 -0.493609 0
M  V30 1656 H 163.35 -3.74523 -1.67812 0
M  V30 1657 H 162.881 -2.6045 -2.94838 0
M  V30 1658 H 164.896 -2.62543 -4.21053 0
M  V30 1659 N 164.069 0.697108 -1.41344 0
M  V30 1660 C 165.316 1.45714 -1.40619 0
M  V30 1661 C 165.644 1.94494 -0.0147907 0
M  V30 1662 O 164.899 1.69794 0.973066 0
M  V30 1663 C 165.198 2.68553 -2.35826 0
M  V30 1664 C 164.864 2.38438 -3.82698 0
M  V30 1665 C 163.526 2.29936 -4.22709 0
M  V30 1666 C 165.878 2.13567 -4.75435 0
M  V30 1667 C 163.206 1.94656 -5.53467 0
M  V30 1668 C 165.558 1.79797 -6.06511 0
M  V30 1669 C 164.222 1.69789 -6.45545 0
M  V30 1670 H 163.492 0.533206 -0.51456 0
M  V30 1671 H 166.139 0.796901 -1.74131 0
M  V30 1672 H 164.444 3.39503 -1.95563 0
M  V30 1673 H 166.141 3.2669 -2.32539 0
M  V30 1674 H 162.731 2.4595 -3.51008 0
M  V30 1675 H 166.915 2.19082 -4.45328 0
M  V30 1676 H 162.171 1.8546 -5.82593 0
M  V30 1677 H 166.345 1.59572 -6.77872 0
M  V30 1678 H 163.972 1.4222 -7.46778 0
M  V30 1679 N 165.547 1.27147 0.931209 0
M  V30 1680 C 166.824 1.0401 1.65654 0
M  V30 1681 C 167.204 -0.426297 2.06751 0
M  V30 1682 O 166.552 -1.40879 1.79904 0
M  V30 1683 C 166.762 1.99834 2.86125 0
M  V30 1684 C 168.11 2.29007 3.57549 0
M  V30 1685 O 169.134 1.97779 2.96246 0
M  V30 1686 O 167.993 2.82222 4.67989 0
M  V30 1687 H 165.087 0.396239 0.725895 0
M  V30 1688 H 167.633 1.38397 0.982056 0
M  V30 1689 H 166.405 2.98744 2.52721 0
M  V30 1690 H 166.028 1.65987 3.61295 0
M  V30 1691 N 167.025 -1.13721 1.09112 0
M  V30 1692 C 167.988 -2.17222 0.731241 0
M  V30 1693 C 168.988 -1.59035 -0.237566 0
M  V30 1694 O 170.178 -1.74192 -0.0161704 0
M  V30 1695 C 167.31 -3.40804 0.0808443 0
M  V30 1696 H 168.503 -2.50573 1.64783 0
M  V30 1697 H 166.056 -1.28493 0.889897 0
M  V30 1698 H 166.791 -3.1304 -0.847127 0
M  V30 1699 H 166.576 -3.84306 0.777896 0
M  V30 1700 H 168.066 -4.1731 -0.155657 0
M  V30 1701 N 168.503 -0.877838 -1.30888 0
M  V30 1702 C 169.451 -0.328662 -2.30266 0
M  V30 1703 C 170.445 0.560496 -1.59859 0
M  V30 1704 O 171.651 0.445722 -1.74394 0
M  V30 1705 H 168.026 -0.0876142 -0.746879 0
M  V30 1706 H 169.997 -1.18061 -2.74051 0
M  V30 1707 C 168.746 0.448071 -3.44801 0
M  V30 1708 H 168.069 -0.226859 -3.99156 0
M  V30 1709 H 169.509 0.797541 -4.16432 0
M  V30 1710 C 167.968 1.64239 -2.94155 0
M  V30 1711 O 168.498 2.74175 -2.93583 0
M  V30 1712 N 166.704 1.47716 -2.50256 0
M  V30 1713 H 166.251 0.582821 -2.5092 0
M  V30 1714 H 166.209 2.27765 -2.16727 0
M  V30 1715 N 169.982 1.44106 -0.638065 0
M  V30 1716 C 171.23 2.01579 -0.145043 0
M  V30 1717 C 171.551 1.50496 1.24 0
M  V30 1718 O 170.821 0.711374 1.82527 0
M  V30 1719 H 169.401 0.745282 -0.05063 0
M  V30 1720 H 172.063 1.76516 -0.826327 0
M  V30 1721 H 171.159 3.11877 -0.118039 0
M  V30 1722 N 171.46 0.379036 1.52974 0
M  V30 1723 C 172.708 -0.206014 2.01047 0
M  V30 1724 C 173.029 -1.48175 1.26765 0
M  V30 1725 O 172.299 -1.92085 0.384743 0
M  V30 1726 H 170.879 -0.0791184 0.742798 0
M  V30 1727 H 173.541 0.508366 1.88153 0
M  V30 1728 H 172.637 -0.423501 3.09213 0
M  V30 1729 N 172.938 -1.57226 0.108567 0
M  V30 1730 C 173.868 -2.17778 -0.84232 0
M  V30 1731 C 174.849 -1.11487 -1.2847 0
M  V30 1732 O 176.034 -1.39681 -1.34918 0
M  V30 1733 C 173.164 -2.76888 -2.09644 0
M  V30 1734 C 172.118 -3.88669 -1.79221 0
M  V30 1735 C 171.444 -4.34541 -3.11574 0
M  V30 1736 C 172.744 -5.11251 -1.06864 0
M  V30 1737 H 174.438 -2.97489 -0.337774 0
M  V30 1738 H 171.984 -1.43097 -0.161025 0
M  V30 1739 H 173.937 -3.17904 -2.76614 0
M  V30 1740 H 172.661 -1.94451 -2.62405 0
M  V30 1741 H 171.32 -3.48213 -1.14644 0
M  V30 1742 H 170.968 -3.48977 -3.62249 0
M  V30 1743 H 170.668 -5.09914 -2.91996 0
M  V30 1744 H 172.192 -4.782 -3.7968 0
M  V30 1745 H 173.606 -5.49352 -1.63968 0
M  V30 1746 H 172.003 -5.9214 -0.974178 0
M  V30 1747 H 173.073 -4.8487 -0.0536168 0
M  V30 1748 N 174.416 0.165178 -1.56732 0
M  V30 1749 C 175.663 0.880807 -1.8234 0
M  V30 1750 C 175.991 1.81977 -0.686621 0
M  V30 1751 O 175.246 1.92971 0.325697 0
M  V30 1752 C 175.545 1.70405 -3.1416 0
M  V30 1753 C 175.211 0.913475 -4.4155 0
M  V30 1754 C 173.873 0.695303 -4.7615 0
M  V30 1755 C 176.225 0.359349 -5.1996 0
M  V30 1756 C 173.553 -0.0879947 -5.86634 0
M  V30 1757 C 175.905 -0.410893 -6.31264 0
M  V30 1758 C 174.569 -0.639808 -6.64427 0
M  V30 1759 H 173.839 0.32231 -0.667231 0
M  V30 1760 H 176.486 0.145402 -1.90947 0
M  V30 1761 H 174.791 2.50903 -3.00923 0
M  V30 1762 H 176.488 2.26091 -3.31186 0
M  V30 1763 H 173.078 1.09357 -4.14414 0
M  V30 1764 H 177.262 0.515228 -4.93618 0
M  V30 1765 H 172.518 -0.27503 -6.10781 0
M  V30 1766 H 176.692 -0.847494 -6.91224 0
M  V30 1767 H 174.319 -1.24864 -7.49875 0
M  V30 1768 N 175.894 1.51508 0.433938 0
M  V30 1769 C 176.804 1.75917 1.5521 0
M  V30 1770 C 177.82 0.643545 1.61662 0
M  V30 1771 O 178.996 0.926183 1.7884 0
M  V30 1772 C 176.061 1.88213 2.91164 0
M  V30 1773 C 175.122 3.12074 2.94802 0
M  V30 1774 C 174.355 3.23774 4.24271 0
M  V30 1775 O 174.578 2.4133 5.16833 0
M  V30 1776 O 173.512 4.16774 4.34262 0
M  V30 1777 H 177.338 2.70777 1.37527 0
M  V30 1778 H 174.923 1.36051 0.617293 0
M  V30 1779 H 176.805 1.98267 3.71845 0
M  V30 1780 H 175.48 0.965413 3.08968 0
M  V30 1781 H 174.387 3.07497 2.13065 0
M  V30 1782 H 175.72 4.03446 2.81943 0
M  V30 1783 N 177.372 -0.689602 1.41712 0
M  V30 1784 C 178.6 -1.47827 1.44758 0
M  V30 1785 C 179.015 -1.88721 0.0545703 0
M  V30 1786 O 178.372 -1.57176 -0.927463 0
M  V30 1787 C 178.423 -2.73698 2.3616 0
M  V30 1788 O 178.144 -2.34524 3.7004 0
M  V30 1789 C 179.645 -3.67389 2.48072 0
M  V30 1790 H 176.865 -0.455357 0.49284 0
M  V30 1791 H 179.409 -0.848574 1.86063 0
M  V30 1792 H 177.564 -3.32891 1.98148 0
M  V30 1793 H 177.978 -3.15701 4.18847 0
M  V30 1794 H 179.452 -4.52475 3.16181 0
M  V30 1795 H 179.929 -4.12284 1.51388 0
M  V30 1796 H 180.535 -3.14097 2.86746 0
M  V30 1797 N 178.85 -1.27639 -0.924453 0
M  V30 1798 C 179.78 -1.13166 -2.04244 0
M  V30 1799 C 180.761 -0.032256 -1.70069 0
M  V30 1800 O 181.946 -0.207328 -1.9309 0
M  V30 1801 C 179.076 -0.781496 -3.38393 0
M  V30 1802 C 178.03 -1.83449 -3.86692 0
M  V30 1803 C 177.356 -1.33822 -5.17683 0
M  V30 1804 C 178.656 -3.23917 -4.09726 0
M  V30 1805 H 180.35 -2.06689 -2.1661 0
M  V30 1806 H 177.896 -0.995136 -1.04082 0
M  V30 1807 H 179.849 -0.667057 -4.16087 0
M  V30 1808 H 178.573 0.189439 -3.2605 0
M  V30 1809 H 177.232 -1.93789 -3.11193 0
M  V30 1810 H 176.88 -0.35665 -5.01734 0
M  V30 1811 H 176.58 -2.04224 -5.50968 0
M  V30 1812 H 178.104 -1.23679 -5.97943 0
M  V30 1813 H 179.518 -3.16559 -4.77978 0
M  V30 1814 H 177.915 -3.92059 -4.54324 0
M  V30 1815 H 178.985 -3.68729 -3.14908 0
M  V30 1816 N 180.328 1.1314 -1.09713 0
M  V30 1817 C 181.258 2.20748 -0.761102 0
M  V30 1818 C 182.239 1.68061 0.262566 0
M  V30 1819 O 183.424 1.93765 0.129977 0
M  V30 1820 C 180.554 3.46812 -0.184054 0
M  V30 1821 C 179.508 4.12606 -1.13757 0
M  V30 1822 C 178.834 5.33031 -0.422083 0
M  V30 1823 C 180.134 4.59603 -2.48118 0
M  V30 1824 H 181.828 2.49113 -1.66082 0
M  V30 1825 H 179.374 1.19734 -0.799987 0
M  V30 1826 H 181.327 4.21353 0.0631215 0
M  V30 1827 H 180.051 3.17851 0.750868 0
M  V30 1828 H 178.71 3.40036 -1.37007 0
M  V30 1829 H 178.358 5.00335 0.517072 0
M  V30 1830 H 178.058 5.77999 -1.05788 0
M  V30 1831 H 179.582 6.10325 -0.183277 0
M  V30 1832 H 180.996 5.25552 -2.29059 0
M  V30 1833 H 179.393 5.15321 -3.07514 0
M  V30 1834 H 180.463 3.73971 -3.08665 0
M  V30 1835 N 181.806 0.884767 1.30421 0
M  V30 1836 C 183.054 0.502112 1.95763 0
M  V30 1837 C 183.375 -0.951815 1.70192 0
M  V30 1838 O 182.645 -1.6692 1.0254 0
M  V30 1839 H 181.225 0.182694 0.724315 0
M  V30 1840 H 183.887 1.1278 1.58955 0
M  V30 1841 H 182.983 0.672188 3.04775 0
M  V30 1842 N 183.284 -1.43765 0.645699 0
M  V30 1843 C 184.247 -2.29163 -0.0409488 0
M  V30 1844 C 185.247 -1.41813 -0.757996 0
M  V30 1845 O 186.437 -1.63527 -0.600382 0
M  V30 1846 C 183.569 -3.23716 -1.06869 0
M  V30 1847 H 184.762 -2.91366 0.710345 0
M  V30 1848 H 182.315 -1.5092 0.406547 0
M  V30 1849 H 183.05 -2.66393 -1.84947 0
M  V30 1850 H 182.835 -3.88105 -0.558277 0
M  V30 1851 H 184.325 -3.87831 -1.54845 0
M  V30 1852 N 184.763 -0.387143 -1.52771 0
M  V30 1853 C 185.673 0.456442 -2.30117 0
M  V30 1854 C 186.689 1.07342 -1.36944 0
M  V30 1855 O 187.865 1.07971 -1.70013 0
M  V30 1856 C 184.93 1.56957 -3.09136 0
M  V30 1857 C 183.991 0.977916 -4.18014 0
M  V30 1858 C 183.224 2.038 -4.93256 0
M  V30 1859 O 183.447 3.25271 -4.68567 0
M  V30 1860 O 182.381 1.6565 -5.78657 0
M  V30 1861 H 186.207 -0.17359 -3.03203 0
M  V30 1862 H 183.792 -0.150919 -1.48636 0
M  V30 1863 H 185.674 2.21628 -3.58412 0
M  V30 1864 H 184.349 2.18461 -2.38865 0
M  V30 1865 H 183.256 0.294525 -3.72939 0
M  V30 1866 H 184.589 0.407128 -4.90513 0
M  V30 1867 N 186.241 1.57166 -0.116904 0
M  V30 1868 C 187.518 1.86645 0.585049 0
M  V30 1869 C 187.898 1.0177 1.84949 0
M  V30 1870 O 187.246 0.0960379 2.28298 0
M  V30 1871 C 187.456 3.37736 0.879507 0
M  V30 1872 C 188.804 4.06289 1.23348 0
M  V30 1873 O 189.828 3.42743 0.969836 0
M  V30 1874 O 188.687 5.18455 1.7282 0
M  V30 1875 H 185.781 0.772593 0.295007 0
M  V30 1876 H 188.327 1.69025 -0.151249 0
M  V30 1877 H 187.099 3.91296 -0.0166136 0
M  V30 1878 H 186.722 3.6078 1.67103 0
M  V30 1879 N 187.719 -0.156864 1.56817 0
M  V30 1880 C 188.682 -1.17781 1.96622 0
M  V30 1881 C 189.682 -1.36401 0.851555 0
M  V30 1882 O 190.872 -1.33561 1.11836 0
M  V30 1883 C 188.004 -2.54008 2.27361 0
M  V30 1884 H 189.197 -0.836564 2.87996 0
M  V30 1885 H 186.75 -0.39985 1.51099 0
M  V30 1886 H 187.485 -2.9312 1.38748 0
M  V30 1887 H 187.27 -2.41856 3.08623 0
M  V30 1888 H 188.76 -3.27558 2.59029 0
M  V30 1889 N 189.197 -1.51736 -0.425897 0
M  V30 1890 C 190.446 -1.64201 -1.17136 0
M  V30 1891 C 190.759 -0.369705 -1.92074 0
M  V30 1892 O 191.965 -0.373898 -2.68913 0
M  V30 1893 C 190.421 -2.90035 -2.13091 0
M  V30 1894 C 190.029 -4.24312 -1.43747 0
M  V30 1895 C 191.773 -3.1186 -2.87999 0
M  V30 1896 C 189.68 -5.41285 -2.38253 0
M  V30 1897 H 188.61 -0.611624 -0.440944 0
M  V30 1898 H 191.261 -1.78212 -0.437328 0
M  V30 1899 H 189.643 -2.69684 -2.89977 0
M  V30 1900 H 190.817 -4.55086 -0.723408 0
M  V30 1901 H 189.132 -4.08456 -0.809465 0
M  V30 1902 H 191.729 -3.96427 -3.58817 0
M  V30 1903 H 192.072 -2.25403 -3.49999 0
M  V30 1904 H 192.605 -3.32605 -2.18217 0
M  V30 1905 H 189.344 -6.30037 -1.80925 0
M  V30 1906 H 188.864 -5.14872 -3.0768 0
M  V30 1907 H 190.543 -5.73694 -2.99139 0
M  V30 1908 N 190.675 0.682077 -1.42076 0
M  V30 1909 C 191.924 1.43786 -1.41451 0
M  V30 1910 C 192.237 1.95574 -0.0317074 0
M  V30 1911 O 193.443 2.71326 0.0971462 0
M  V30 1912 C 191.899 2.60071 -2.48779 0
M  V30 1913 C 191.507 2.15013 -3.93031 0
M  V30 1914 C 193.251 3.37626 -2.57311 0
M  V30 1915 C 191.158 3.28336 -4.91883 0
M  V30 1916 H 190.088 0.540143 -0.526082 0
M  V30 1917 H 192.739 0.739157 -1.67955 0
M  V30 1918 H 191.121 3.32275 -2.15429 0
M  V30 1919 H 192.295 1.5001 -4.35699 0
M  V30 1920 H 190.61 1.50416 -3.88284 0
M  V30 1921 H 193.207 4.22012 -3.28345 0
M  V30 1922 H 193.55 3.83727 -1.61429 0
M  V30 1923 H 194.083 2.72488 -2.89819 0
M  V30 1924 H 190.822 2.87234 -5.89217 0
M  V30 1925 H 190.342 3.92145 -4.53853 0
M  V30 1926 H 192.021 3.93913 -5.13265 0
M  V30 1927 N 192.153 1.28127 0.917671 0
M  V30 1928 C 193.378 1.18007 1.70555 0
M  V30 1929 C 193.803 -0.258257 1.86319 0
M  V30 1930 O 193.161 -1.1869 1.37049 0
M  V30 1931 C 193.209 1.87948 3.07746 0
M  V30 1932 O 192.313 1.18427 3.9503 0
M  V30 1933 H 191.654 0.409867 0.522403 0
M  V30 1934 H 194.184 1.69379 1.1477 0
M  V30 1935 H 194.194 1.95701 3.58001 0
M  V30 1936 H 192.869 2.92573 2.95591 0
M  V30 1937 H 191.446 1.18811 3.53466 0
M  V30 1938 N 193.631 -1.12557 1.10312 0
M  V30 1939 C 194.908 -1.80363 0.756878 0
M  V30 1940 C 195.288 -1.97067 -0.756824 0
M  V30 1941 O 194.636 -1.54601 -1.68259 0
M  V30 1942 C 194.846 -3.14812 1.50647 0
M  V30 1943 C 196.194 -3.90029 1.67817 0
M  V30 1944 O 197.218 -3.24464 1.46974 0
M  V30 1945 O 196.077 -5.07652 2.02365 0
M  V30 1946 H 193.171 -0.780667 0.272926 0
M  V30 1947 H 195.717 -1.19404 1.20586 0
M  V30 1948 H 194.489 -2.97936 2.53672 0
M  V30 1949 H 194.112 -3.83478 1.05026 0
M  V30 1950 N 195.109 -0.891671 -1.2995 0
M  V30 1951 C 196.072 -0.36828 -2.26222 0
M  V30 1952 C 197.072 0.493014 -1.53056 0
M  V30 1953 O 198.262 0.299213 -1.71611 0
M  V30 1954 C 195.394 0.47442 -3.37583 0
M  V30 1955 H 196.587 -1.21844 -2.74033 0
M  V30 1956 H 194.14 -0.669107 -1.41254 0
M  V30 1957 H 194.875 1.34489 -2.95099 0
M  V30 1958 H 194.66 -0.142615 -3.91841 0
M  V30 1959 H 196.15 0.83218 -4.09224 0
M  V30 1960 N 196.587 1.43421 -0.653314 0
M  V30 1961 C 197.517 2.33487 0.0246656 0
M  V30 1962 C 198.498 1.49475 0.811863 0
M  V30 1963 O 199.683 1.78139 0.773322 0
M  V30 1964 C 196.813 3.32841 0.99166 0
M  V30 1965 C 195.767 4.26842 0.314568 0
M  V30 1966 C 195.093 5.16236 1.39302 0
M  V30 1967 C 196.393 5.16243 -0.793095 0
M  V30 1968 H 198.087 2.90427 -0.727481 0
M  V30 1969 H 195.633 1.39649 -0.351287 0
M  V30 1970 H 197.586 3.94747 1.47487 0
M  V30 1971 H 196.31 2.74158 1.77497 0
M  V30 1972 H 194.969 3.663 -0.148199 0
M  V30 1973 H 194.617 4.53891 2.16776 0
M  V30 1974 H 194.317 5.79948 0.945223 0
M  V30 1975 H 195.841 5.81015 1.87759 0
M  V30 1976 H 197.255 5.71958 -0.392039 0
M  V30 1977 H 195.652 5.88676 -1.16536 0
M  V30 1978 H 196.722 4.55927 -1.65103 0
M  V30 1979 N 198.065 0.39524 1.52563 0
M  V30 1980 C 199.013 -0.451859 2.28169 0
M  V30 1981 C 200.007 -1.05792 1.32304 0
M  V30 1982 O 201.213 -0.997718 1.49818 0
M  V30 1983 H 197.588 -0.164481 0.733792 0
M  V30 1984 H 199.559 0.207199 2.9768 0
M  V30 1985 C 198.308 -1.56385 3.10546 0
M  V30 1986 H 197.631 -1.10682 3.84174 0
M  V30 1987 H 199.071 -2.13067 3.66577 0
M  V30 1988 C 197.53 -2.52328 2.23231 0
M  V30 1989 O 198.06 -3.5588 1.86312 0
M  V30 1990 N 196.266 -2.22209 1.87274 0
M  V30 1991 H 195.813 -1.38033 2.17496 0
M  V30 1992 H 195.771 -2.86652 1.29143 0
M  V30 1993 N 199.544 -1.57102 0.125237 0
M  V30 1994 C 200.494 -2.12202 -0.833936 0
M  V30 1995 C 201.478 -1.04433 -1.22403 0
M  V30 1996 O 202.67 -1.30655 -1.19408 0
M  V30 1997 C 199.799 -2.72994 -2.08157 0
M  V30 1998 C 198.885 -3.87852 -1.71556 0
M  V30 1999 N 199.276 -4.9464 -1.05662 0
M  V30 2000 C 197.574 -3.98153 -2.00973 0
M  V30 2001 C 198.275 -5.74953 -0.883376 0
M  V30 2002 N 197.251 -5.24985 -1.41036 0
M  V30 2003 H 201.053 -2.92141 -0.321035 0
M  V30 2004 H 198.567 -1.62217 -0.0770315 0
M  V30 2005 H 200.564 -3.10816 -2.77847 0
M  V30 2006 H 199.224 -1.9452 -2.59985 0
M  V30 2007 H 200.235 -5.12872 -0.719878 0
M  V30 2008 H 196.912 -3.30728 -2.54804 0
M  V30 2009 H 198.302 -6.70904 -0.365675 0
M  V30 2010 N 201.022 0.148545 -1.56898 0
M  V30 2011 C 201.985 1.16736 -1.97244 0
M  V30 2012 C 202.985 1.35947 -0.858777 0
M  V30 2013 O 204.175 1.32966 -1.12542 0
M  V30 2014 C 201.307 2.52798 -2.28705 0
M  V30 2015 H 202.5 0.821279 -2.88435 0
M  V30 2016 H 200.053 0.391831 -1.51309 0
M  V30 2017 H 200.788 2.92381 -1.403 0
M  V30 2018 H 200.573 2.40216 -3.09901 0
M  V30 2019 H 202.063 3.26179 -2.60762 0
M  V30 2020 N 202.5 1.5196 0.417844 0
M  V30 2021 C 203.725 1.69717 1.1921 0
M  V30 2022 C 204.15 0.402148 1.83751 0
M  V30 2023 O 203.508 -0.639593 1.69643 0
M  V30 2024 C 203.556 2.82794 2.2374 0
M  V30 2025 O 202.66 2.47756 3.29683 0
M  V30 2026 H 202.001 0.565263 0.348387 0
M  V30 2027 H 204.531 1.98621 0.490985 0
M  V30 2028 H 204.541 3.07452 2.68212 0
M  V30 2029 H 203.216 3.76756 1.76146 0
M  V30 2030 H 201.793 2.33739 2.90552 0
M  V30 2031 N 203.978 -0.674533 1.42435 0
M  V30 2032 C 205.227 -1.43034 1.42212 0
M  V30 2033 C 205.54 -1.95555 0.0420788 0
M  V30 2034 O 206.746 -2.71374 -0.0827558 0
M  V30 2035 C 205.202 -2.58748 2.50155 0
M  V30 2036 C 204.81 -2.12925 3.94166 0
M  V30 2037 C 206.554 -3.36257 2.59098 0
M  V30 2038 C 204.461 -3.25723 4.93618 0
M  V30 2039 H 203.391 -0.537345 0.528939 0
M  V30 2040 H 206.042 -0.73024 1.68344 0
M  V30 2041 H 204.424 -3.31128 2.17188 0
M  V30 2042 H 205.598 -1.47697 4.36488 0
M  V30 2043 H 203.913 -1.48354 3.89076 0
M  V30 2044 H 206.51 -4.20264 3.30578 0
M  V30 2045 H 206.853 -3.82866 1.63461 0
M  V30 2046 H 207.386 -2.70947 2.9126 0
M  V30 2047 H 204.125 -2.84105 5.90732 0
M  V30 2048 H 203.645 -3.89732 4.55926 0
M  V30 2049 H 205.324 -3.91186 5.15347 0
M  V30 2050 N 205.456 -1.28612 -0.910864 0
M  V30 2051 C 206.705 -1.15311 -1.65488 0
M  V30 2052 C 207.018 0.296999 -1.93332 0
M  V30 2053 O 208.224 0.551168 -2.65847 0
M  V30 2054 C 206.68 -2.01599 -2.98137 0
M  V30 2055 C 206.288 -3.51367 -2.7793 0
M  V30 2056 C 208.032 -1.96993 -3.76024 0
M  V30 2057 C 205.939 -4.29797 -4.06237 0
M  V30 2058 H 204.869 -0.42796 -0.620779 0
M  V30 2059 H 207.52 -1.53166 -1.01057 0
M  V30 2060 H 205.902 -1.56603 -3.63719 0
M  V30 2061 H 207.076 -4.0434 -2.21011 0
M  V30 2062 H 205.391 -3.57529 -2.13452 0
M  V30 2063 H 207.988 -2.52856 -4.71135 0
M  V30 2064 H 208.331 -0.94733 -4.05378 0
M  V30 2065 H 208.864 -2.39973 -3.17266 0
M  V30 2066 H 205.603 -5.32648 -3.82055 0
M  V30 2067 H 205.123 -3.81596 -4.62757 0
M  V30 2068 H 206.802 -4.39869 -4.74473 0
M  V30 2069 N 206.934 1.1197 -1.10907 0
M  V30 2070 C 208.211 1.79959 -0.766432 0
M  V30 2071 C 208.591 1.97466 0.746363 0
M  V30 2072 O 207.939 1.55491 1.67436 0
M  V30 2073 C 208.149 3.14009 -1.52314 0
M  V30 2074 C 209.497 3.89134 -1.69883 0
M  V30 2075 O 210.521 3.2368 -1.48692 0
M  V30 2076 O 209.38 5.06572 -2.05054 0
M  V30 2077 H 206.474 0.779208 -0.277062 0
M  V30 2078 H 209.02 1.18762 -1.21217 0
M  V30 2079 H 207.792 2.96587 -2.55249 0
M  V30 2080 H 207.415 3.82915 -1.07059 0
M  V30 2081 N 208.412 0.89855 1.29475 0
M  V30 2082 C 209.66 0.522847 1.9522 0
M  V30 2083 C 209.981 -0.93371 1.71192 0
M  V30 2084 O 209.251 -1.65823 1.04305 0
M  V30 2085 H 207.831 0.190366 0.722336 0
M  V30 2086 H 210.493 1.14459 1.5775 0
M  V30 2087 H 209.589 0.704476 3.04045 0
M  V30 2088 N 209.89 -1.43072 0.660911 0
M  V30 2089 C 211.136 -2.0202 0.177708 0
M  V30 2090 C 211.469 -1.52066 -1.20787 0
M  V30 2091 O 210.744 -0.716987 -1.80802 0
M  V30 2092 C 211.027 -3.59561 0.197019 0
M  V30 2093 C 210.88 -4.19727 1.61706 0
M  V30 2094 C 212.199 -4.37664 -0.462396 0
M  V30 2095 H 209.318 -0.734034 0.0660494 0
M  V30 2096 H 211.96 -1.70272 0.843058 0
M  V30 2097 H 210.11 -3.86739 -0.369527 0
M  V30 2098 H 211.782 -4.03553 2.23479 0
M  V30 2099 H 210.025 -3.76084 2.16201 0
M  V30 2100 H 210.696 -5.28834 1.58237 0
M  V30 2101 H 213.172 -4.16095 0.0197215 0
M  V30 2102 H 212.048 -5.47305 -0.418188 0
M  V30 2103 H 212.309 -4.14493 -1.53778 0
M  V30 2104 N 211.368 -0.403325 -1.52352 0
M  V30 2105 C 212.784 -0.0539281 -1.59509 0
M  V30 2106 C 212.984 1.43307 -1.41652 0
M  V30 2107 O 212.04 2.19924 -1.24056 0
M  V30 2108 C 213.353 -0.543654 -2.95745 0
M  V30 2109 C 214.901 -0.501125 -3.08962 0
M  V30 2110 C 215.376 -0.967267 -4.47669 0
M  V30 2111 N 216.867 -0.923849 -4.53893 0
M  V30 2112 C 217.602 -1.25578 -5.5948 0
M  V30 2113 N 217.098 -1.65889 -6.72646 0
M  V30 2114 N 218.891 -1.17613 -5.49658 0
M  V30 2115 H 211.042 -1.37123 -1.62206 0
M  V30 2116 H 213.305 -0.56294 -0.76276 0
M  V30 2117 H 213.011 -1.58275 -3.14073 0
M  V30 2118 H 212.885 0.0498042 -3.77167 0
M  V30 2119 H 215.272 0.528909 -2.90321 0
M  V30 2120 H 215.353 -1.13056 -2.2946 0
M  V30 2121 H 214.997 -1.9956 -4.67053 0
M  V30 2122 H 214.927 -0.314698 -5.25659 0
M  V30 2123 H 217.418 -0.627403 -3.72655 0
M  V30 2124 H 217.731 -1.89543 -7.49195 0
M  V30 2125 H 216.076 -1.69787 -6.73942 0
M  V30 2126 H 219.267 -0.860115 -4.6013 0
M  V30 2127 H 219.44 -1.43812 -6.3184 0
M  V30 2128 N 212.846 1.57033 -0.133567 0
M  V30 2129 C 213.776 2.1909 0.807567 0
M  V30 2130 C 214.757 1.13517 1.26681 0
M  V30 2131 O 215.942 1.41809 1.32679 0
M  V30 2132 C 213.072 2.80188 2.05212 0
M  V30 2133 C 212.026 3.91471 1.73015 0
M  V30 2134 C 211.352 4.39443 3.04622 0
M  V30 2135 C 212.652 5.12886 0.987168 0
M  V30 2136 H 214.346 2.97988 0.290403 0
M  V30 2137 H 211.892 1.43335 0.138239 0
M  V30 2138 H 213.845 3.22264 2.71521 0
M  V30 2139 H 212.569 1.98601 2.59278 0
M  V30 2140 H 211.228 3.49993 1.0909 0
M  V30 2141 H 210.876 3.54695 3.56651 0
M  V30 2142 H 210.576 5.14495 2.83847 0
M  V30 2143 H 212.1 4.8418 3.72024 0
M  V30 2144 H 213.514 5.51891 1.55208 0
M  V30 2145 H 211.911 5.93615 0.87985 0
M  V30 2146 H 212.981 4.84894 -0.0235286 0
M  V30 2147 N 214.325 -0.140222 1.56975 0
M  V30 2148 C 215.565 -0.857823 1.85528 0
M  V30 2149 C 215.929 -1.78039 0.718768 0
M  V30 2150 O 217.13 -2.53795 0.885521 0
M  V30 2151 C 215.401 -1.60615 3.19277 0
M  V30 2152 S 216.96 -2.36824 3.69405 0
M  V30 2153 H 213.778 -0.286727 0.650622 0
M  V30 2154 H 216.38 -0.117408 1.95147 0
M  V30 2155 H 215.084 -0.919994 3.99955 0
M  V30 2156 H 214.615 -2.38735 3.12681 0
M  V30 2157 H 216.63 -3.62148 3.3921 0
M  V30 2158 N 215.803 -1.52179 -0.40978 0
M  V30 2159 C 216.75 -1.75475 -1.49924 0
M  V30 2160 C 217.72 -0.597175 -1.54994 0
M  V30 2161 O 218.905 -0.834655 -1.71575 0
M  V30 2162 C 216.045 -1.9107 -2.87378 0
M  V30 2163 C 215.158 -3.18717 -2.91622 0
M  V30 2164 C 214.293 -3.24747 -4.20372 0
M  V30 2165 C 213.332 -4.46598 -4.18588 0
M  V30 2166 N 212.469 -4.50025 -5.38908 0
M  V30 2167 H 217.309 -2.68458 -1.29361 0
M  V30 2168 H 214.846 -1.33024 -0.627934 0
M  V30 2169 H 216.804 -1.98096 -3.6717 0
M  V30 2170 H 215.434 -1.01469 -3.06437 0
M  V30 2171 H 214.486 -3.20866 -2.04326 0
M  V30 2172 H 215.798 -4.08544 -2.86169 0
M  V30 2173 H 214.952 -3.30841 -5.08556 0
M  V30 2174 H 213.691 -2.32857 -4.28519 0
M  V30 2175 H 212.696 -4.40652 -3.28794 0
M  V30 2176 H 213.921 -5.39783 -4.12081 0
M  V30 2177 H 211.867 -3.61017 -5.47725 0
M  V30 2178 H 211.784 -5.33697 -5.35447 0
M  V30 2179 H 213.052 -4.60347 -6.29048 0
M  V30 2180 N 217.281 0.66697 -1.42791 0
M  V30 2181 C 218.244 1.76211 -1.46568 0
M  V30 2182 C 219.244 1.56896 -0.352196 0
M  V30 2183 O 220.434 1.63044 -0.613364 0
M  V30 2184 C 217.566 3.14935 -1.30494 0
M  V30 2185 H 218.759 1.74247 -2.44086 0
M  V30 2186 H 216.312 0.877342 -1.29354 0
M  V30 2187 H 217.047 3.2252 -0.339301 0
M  V30 2188 H 216.832 3.30359 -2.11199 0
M  V30 2189 H 218.322 3.94821 -1.36038 0
M  V30 2190 N 218.759 1.29093 0.90403 0
M  V30 2191 C 219.706 1.13853 2.00764 0
M  V30 2192 C 220.676 0.0330084 1.66067 0
M  V30 2193 O 221.861 0.199733 1.89752 0
M  V30 2194 C 219.001 0.816537 3.35301 0
M  V30 2195 C 218.114 2.00206 3.82807 0
M  V30 2196 C 217.249 1.61983 5.059 0
M  V30 2197 C 216.288 2.77143 5.45764 0
M  V30 2198 N 215.425 2.39346 6.60044 0
M  V30 2199 H 220.265 2.08276 2.13132 0
M  V30 2200 H 217.802 1.03648 1.04381 0
M  V30 2201 H 219.76 0.610557 4.12708 0
M  V30 2202 H 218.39 -0.090779 3.22672 0
M  V30 2203 H 217.442 2.31988 3.01473 0
M  V30 2204 H 218.754 2.86512 4.08304 0
M  V30 2205 H 217.908 1.37649 5.90879 0
M  V30 2206 H 216.647 0.728202 4.82233 0
M  V30 2207 H 215.652 3.02165 4.59322 0
M  V30 2208 H 216.877 3.66964 5.71414 0
M  V30 2209 H 214.823 1.52665 6.37989 0
M  V30 2210 H 214.74 3.19185 6.85315 0
M  V30 2211 H 216.008 2.1832 7.48303 0
M  V30 2212 N 220.237 -1.11381 1.11499 0
M  V30 2213 C 221.653 -1.35143 0.849031 0
M  V30 2214 C 221.853 -1.94515 -0.525938 0
M  V30 2215 O 220.909 -2.1785 -1.27662 0
M  V30 2216 C 222.222 -2.28249 1.95762 0
M  V30 2217 C 223.77 -2.41812 1.98736 0
M  V30 2218 C 224.245 -3.3824 3.088 0
M  V30 2219 N 225.736 -3.45803 3.08179 0
M  V30 2220 C 226.471 -4.20358 3.89982 0
M  V30 2221 N 225.967 -4.97884 4.8175 0
M  V30 2222 N 227.76 -4.15877 3.78157 0
M  V30 2223 H 219.911 -0.712062 2.00109 0
M  V30 2224 H 222.174 -0.376025 0.870235 0
M  V30 2225 H 221.88 -1.91817 2.94787 0
M  V30 2226 H 221.754 -3.28473 1.85433 0
M  V30 2227 H 224.141 -2.77518 1.00338 0
M  V30 2228 H 224.222 -1.41437 2.13141 0
M  V30 2229 H 223.866 -3.03261 4.07425 0
M  V30 2230 H 223.796 -4.38471 2.91635 0
M  V30 2231 H 226.287 -2.90506 2.41691 0
M  V30 2232 H 226.6 -5.52142 5.40702 0
M  V30 2233 H 224.945 -4.97043 4.85771 0
M  V30 2234 H 228.136 -3.544 3.05808 0
M  V30 2235 H 228.309 -4.73723 4.42143 0
M  V30 2236 N 221.715 -0.905404 -1.28997 0
M  V30 2237 C 222.945 -0.549049 -1.99171 0
M  V30 2238 C 223.353 0.87203 -1.67906 0
M  V30 2239 O 222.696 1.58796 -0.923561 0
M  V30 2240 C 222.758 -0.668306 -3.53234 0
M  V30 2241 C 222.422 -2.0574 -4.08069 0
M  V30 2242 C 223.419 -3.0292 -4.22534 0
M  V30 2243 C 221.104 -2.36833 -4.42962 0
M  V30 2244 C 223.098 -4.29314 -4.71135 0
M  V30 2245 C 220.785 -3.63467 -4.91258 0
M  V30 2246 C 221.783 -4.59522 -5.053 0
M  V30 2247 O 221.471 -5.83907 -5.52546 0
M  V30 2248 H 221.203 -0.208784 -0.64295 0
M  V30 2249 H 223.757 -1.21836 -1.65363 0
M  V30 2250 H 221.987 0.0580547 -3.86656 0
M  V30 2251 H 223.676 -0.320273 -4.04634 0
M  V30 2252 H 224.442 -2.80216 -3.95859 0
M  V30 2253 H 220.321 -1.62824 -4.31288 0
M  V30 2254 H 223.865 -5.04293 -4.8201 0
M  V30 2255 H 219.762 -3.86 -5.17372 0
M  V30 2256 H 220.53 -5.86578 -5.70849 0
M  V30 2257 N 223.193 1.4272 -0.668489 0
M  V30 2258 C 224.609 1.55992 -0.33745 0
M  V30 2259 C 224.809 1.64933 1.15756 0
M  V30 2260 O 223.865 1.61278 1.94282 0
M  V30 2261 C 225.178 2.81314 -1.06222 0
M  V30 2262 C 226.726 2.95078 -1.04394 0
M  V30 2263 C 227.201 4.23252 -1.74991 0
M  V30 2264 N 228.692 4.3015 -1.71829 0
M  V30 2265 C 229.427 5.28127 -2.23315 0
M  V30 2266 N 228.923 6.32293 -2.83156 0
M  V30 2267 N 230.716 5.19882 -2.13726 0
M  V30 2268 H 222.867 1.3516 -1.63846 0
M  V30 2269 H 225.13 0.650174 -0.689912 0
M  V30 2270 H 224.836 2.80823 -2.11734 0
M  V30 2271 H 224.71 3.72012 -0.62344 0
M  V30 2272 H 227.097 2.951 0.0028244 0
M  V30 2273 H 227.178 2.05627 -1.52155 0
M  V30 2274 H 226.822 4.2399 -2.79633 0
M  V30 2275 H 226.752 5.11626 -1.24685 0
M  V30 2276 H 229.243 3.55499 -1.28175 0
M  V30 2277 H 229.556 7.03398 -3.20079 0
M  V30 2278 H 227.901 6.32873 -2.87223 0
M  V30 2279 H 231.092 4.37423 -1.66669 0
M  V30 2280 H 231.265 5.96077 -2.54158 0
M  V30 2281 N 224.671 0.411399 1.52136 0
M  V30 2282 C 225.901 -0.16284 2.05957 0
M  V30 2283 C 226.309 -1.3922 1.28119 0
M  V30 2284 O 225.652 -1.80768 0.326881 0
M  V30 2285 C 225.714 -0.575946 3.54856 0
M  V30 2286 C 225.378 0.542998 4.53763 0
M  V30 2287 C 226.375 1.40726 5.00492 0
M  V30 2288 C 224.06 0.716337 4.97166 0
M  V30 2289 C 226.054 2.4298 5.8927 0
M  V30 2290 C 223.741 1.74218 5.8574 0
M  V30 2291 C 224.739 2.59731 6.31687 0
M  V30 2292 O 224.427 3.60558 7.18507 0
M  V30 2293 H 224.159 -0.0229125 0.675612 0
M  V30 2294 H 226.713 0.581634 1.96993 0
M  V30 2295 H 224.943 -1.37274 3.61515 0
M  V30 2296 H 226.632 -1.07836 3.91313 0
M  V30 2297 H 227.398 1.28476 4.67674 0
M  V30 2298 H 223.277 0.0603857 4.6096 0
M  V30 2299 H 226.821 3.0976 6.25055 0
M  V30 2300 H 222.718 1.86498 6.17971 0
M  V30 2301 H 223.486 3.56829 7.36624 0
M  V30 2302 N 226.149 -1.5696 0.141893 0
M  V30 2303 C 227.112 -2.15316 -0.785587 0
M  V30 2304 C 228.112 -1.09366 -1.1788 0
M  V30 2305 O 229.302 -1.35031 -1.10056 0
M  V30 2306 C 226.434 -2.71211 -2.06537 0
M  V30 2307 H 227.627 -2.98608 -0.278041 0
M  V30 2308 H 225.18 -1.5593 -0.107519 0
M  V30 2309 H 225.915 -1.91571 -2.6167 0
M  V30 2310 H 225.7 -3.4872 -1.79268 0
M  V30 2311 H 227.19 -3.16189 -2.72789 0
M  V30 2312 N 227.627 0.131896 -1.57047 0
M  V30 2313 C 228.575 1.18146 -2.0036 0
M  V30 2314 C 229.569 1.43614 -0.898406 0
M  V30 2315 O 230.775 1.43729 -1.08361 0
M  V30 2316 H 227.15 0.398042 -0.638018 0
M  V30 2317 H 229.121 0.789564 -2.87765 0
M  V30 2318 C 227.87 2.50341 -2.41298 0
M  V30 2319 H 227.193 2.31578 -3.25902 0
M  V30 2320 H 228.633 3.22371 -2.75414 0
M  V30 2321 C 227.092 3.11984 -1.27153 0
M  V30 2322 O 227.622 3.97484 -0.580459 0
M  V30 2323 N 225.828 2.71662 -1.03189 0
M  V30 2324 H 225.375 2.02231 -1.59564 0
M  V30 2325 H 225.333 3.13238 -0.270077 0
M  V30 2326 N 229.106 1.52395 0.401703 0
M  V30 2327 C 230.054 1.7689 1.51039 0
M  V30 2328 C 231.048 0.636298 1.56996 0
M  V30 2329 O 232.254 0.818507 1.60314 0
M  V30 2330 H 228.629 0.559502 0.502456 0
M  V30 2331 H 230.6 2.69757 1.27568 0
M  V30 2332 C 229.349 1.94331 2.88324 0
M  V30 2333 H 228.672 2.80905 2.84486 0
M  V30 2334 H 230.112 2.15466 3.65172 0
M  V30 2335 C 228.571 0.712396 3.29282 0
M  V30 2336 O 229.101 -0.116218 4.01532 0
M  V30 2337 N 227.307 0.546154 2.85422 0
M  V30 2338 H 226.854 1.22156 2.26794 0
M  V30 2339 H 226.812 -0.276113 3.13185 0
M  V30 2340 N 230.584 -0.659388 1.43143 0
M  V30 2341 C 231.861 -1.41627 1.34912 0
M  V30 2342 C 232.241 -2.11099 -0.00607785 0
M  V30 2343 O 231.589 -2.04353 -1.02236 0
M  V30 2344 C 231.799 -2.40604 2.52805 0
M  V30 2345 C 233.147 -3.04789 2.95616 0
M  V30 2346 O 234.171 -2.50932 2.52807 0
M  V30 2347 O 233.03 -4.02421 3.69756 0
M  V30 2348 H 230.124 -0.63246 0.532844 0
M  V30 2349 H 232.67 -0.686814 1.5518 0
M  V30 2350 H 231.442 -1.88174 3.43083 0
M  V30 2351 H 231.065 -3.21009 2.34604 0
M  V30 2352 N 232.062 -1.29571 -0.897171 0
M  V30 2353 C 232.995 -1.0924 -2.00354 0
M  V30 2354 C 233.973 -0.00354011 -1.626 0
M  V30 2355 O 235.157 -0.15473 -1.87864 0
M  V30 2356 C 232.284 -0.66352 -3.32137 0
M  V30 2357 C 231.33 -1.75146 -3.88878 0
M  V30 2358 S 232.163 -3.35124 -4.17674 0
M  V30 2359 C 233.319 -2.9411 -5.52494 0
M  V30 2360 H 233.552 -2.02907 -2.17292 0
M  V30 2361 H 231.085 -1.13746 -1.04408 0
M  V30 2362 H 233.043 -0.422791 -4.08317 0
M  V30 2363 H 231.704 0.253588 -3.13075 0
M  V30 2364 H 230.897 -1.40337 -4.84068 0
M  V30 2365 H 230.499 -1.94584 -3.19395 0
M  V30 2366 H 232.791 -2.41312 -6.33068 0
M  V30 2367 H 233.734 -3.88161 -5.9223 0
M  V30 2368 H 234.142 -2.32332 -5.14473 0
M  V30 2369 N 233.54 1.10788 -1.12088 0
M  V30 2370 C 234.472 2.16816 -0.743213 0
M  V30 2371 C 235.485 1.6119 0.228412 0
M  V30 2372 O 236.674 1.78497 0.0102931 0
M  V30 2373 C 233.774 3.38809 -0.0787313 0
M  V30 2374 C 232.947 4.23885 -1.0789 0
M  V30 2375 C 232.006 5.24334 -0.442713 0
M  V30 2376 O 231.032 5.58497 -1.09864 0
M  V30 2377 N 232.234 5.75079 0.791457 0
M  V30 2378 H 234.999 2.49825 -1.65552 0
M  V30 2379 H 232.56 1.26373 -1.012 0
M  V30 2380 H 234.552 4.03107 0.358766 0
M  V30 2381 H 233.122 3.03805 0.736275 0
M  V30 2382 H 232.342 3.55939 -1.69414 0
M  V30 2383 H 233.63 4.77562 -1.75533 0
M  V30 2384 H 233.028 5.49517 1.3434 0
M  V30 2385 H 231.585 6.4118 1.17183 0
M  V30 2386 N 235.018 0.912232 1.28515 0
M  V30 2387 C 235.928 0.404506 2.31086 0
M  V30 2388 C 236.944 -0.50707 1.66448 0
M  V30 2389 O 238.12 -0.393624 1.97516 0
M  V30 2390 C 235.185 -0.348572 3.44943 0
M  V30 2391 C 234.246 0.59604 4.25142 0
M  V30 2392 C 233.479 -0.121194 5.33562 0
M  V30 2393 O 233.702 -1.34317 5.5436 0
M  V30 2394 O 232.636 0.542716 5.99448 0
M  V30 2395 H 236.462 1.25579 2.76521 0
M  V30 2396 H 234.047 0.676998 1.33181 0
M  V30 2397 H 235.929 -0.77395 4.14232 0
M  V30 2398 H 234.604 -1.17571 3.01594 0
M  V30 2399 H 233.511 1.07079 3.58448 0
M  V30 2400 H 234.844 1.38995 4.72167 0
M  V30 2401 N 236.496 -1.42363 0.676048 0
M  V30 2402 C 237.426 -2.33497 0.0124832 0
M  V30 2403 C 238.407 -1.50748 -0.787981 0
M  V30 2404 O 239.592 -1.79346 -0.744884 0
M  V30 2405 C 236.722 -3.34377 -0.938582 0
M  V30 2406 C 235.676 -4.27289 -0.246622 0
M  V30 2407 C 235.002 -5.18386 -1.31071 0
M  V30 2408 C 236.302 -5.14916 0.875125 0
M  V30 2409 H 237.996 -2.89233 0.773593 0
M  V30 2410 H 235.542 -1.39073 0.37346 0
M  V30 2411 H 237.495 -3.97044 -1.41188 0
M  V30 2412 H 236.219 -2.76947 -1.73113 0
M  V30 2413 H 234.878 -3.66018 0.206456 0
M  V30 2414 H 234.526 -4.57282 -2.09528 0
M  V30 2415 H 234.226 -5.81378 -0.852839 0
M  V30 2416 H 235.75 -5.83929 -1.78492 0
M  V30 2417 H 237.164 -5.71262 0.482983 0
M  V30 2418 H 235.561 -5.86747 1.25887 0
M  V30 2419 H 236.631 -4.53242 1.72335 0
M  V30 2420 N 237.974 -0.419461 -1.51915 0
M  V30 2421 C 238.884 0.407528 -2.31033 0
M  V30 2422 C 239.9 1.04413 -1.3919 0
M  V30 2423 O 241.076 1.0434 -1.72265 0
M  V30 2424 C 238.141 1.50365 -3.12396 0
M  V30 2425 C 237.202 0.889029 -4.19994 0
M  V30 2426 C 236.435 1.93291 -4.97468 0
M  V30 2427 O 236.658 3.15259 -4.75361 0
M  V30 2428 O 235.592 1.53339 -5.8204 0
M  V30 2429 H 239.418 -0.237865 -3.02767 0
M  V30 2430 H 237.003 -0.182413 -1.48282 0
M  V30 2431 H 238.885 2.13975 -3.63032 0
M  V30 2432 H 237.56 2.13345 -2.43445 0
M  V30 2433 H 236.467 0.215353 -3.7348 0
M  V30 2434 H 237.8 0.302991 -4.91267 0
M  V30 2435 N 239.452 1.56882 -0.150215 0
M  V30 2436 C 240.415 2.1573 0.774157 0
M  V30 2437 C 241.415 1.0999 1.17298 0
M  V30 2438 O 242.605 1.35613 1.09338 0
M  V30 2439 C 239.737 2.72302 2.05096 0
M  V30 2440 H 240.93 2.98752 0.262201 0
M  V30 2441 H 238.483 1.55985 0.099248 0
M  V30 2442 H 239.218 1.92956 2.6065 0
M  V30 2443 H 239.003 3.49665 1.77416 0
M  V30 2444 H 240.493 3.17632 2.71109 0
M  V30 2445 N 240.93 -0.123565 1.57115 0
M  V30 2446 C 242.346 -0.476961 1.52306 0
M  V30 2447 C 242.546 -1.82109 0.86248 0
M  V30 2448 O 241.602 -2.48586 0.442884 0
M  V30 2449 C 242.915 -0.465661 2.97073 0
M  V30 2450 C 244.463 -0.549534 3.08138 0
M  V30 2451 C 244.938 -0.568669 4.54456 0
M  V30 2452 N 246.429 -0.630237 4.58892 0
M  V30 2453 C 247.164 -0.666415 5.69514 0
M  V30 2454 N 246.66 -0.660514 6.89644 0
M  V30 2455 N 248.453 -0.709077 5.5761 0
M  V30 2456 H 240.604 0.757198 1.98445 0
M  V30 2457 H 242.867 0.278808 0.906074 0
M  V30 2458 H 242.573 0.454232 3.48754 0
M  V30 2459 H 242.447 -1.29513 3.54269 0
M  V30 2460 H 244.834 -1.45985 2.56461 0
M  V30 2461 H 244.915 0.307532 2.53945 0
M  V30 2462 H 244.559 0.337581 5.06777 0
M  V30 2463 H 244.489 -1.44256 5.06456 0
M  V30 2464 H 246.98 -0.641146 3.72421 0
M  V30 2465 H 247.293 -0.690616 7.69708 0
M  V30 2466 H 245.638 -0.628012 6.92157 0
M  V30 2467 H 248.829 -0.711019 4.62668 0
M  V30 2468 H 249.002 -0.733804 6.43832 0
M  V30 2469 N 242.408 -1.52605 -0.393616 0
M  V30 2470 C 243.338 -1.80022 -1.48709 0
M  V30 2471 C 244.319 -0.651995 -1.57108 0
M  V30 2472 O 245.504 -0.89913 -1.72132 0
M  V30 2473 C 242.634 -1.96492 -2.86371 0
M  V30 2474 C 241.588 -3.12161 -2.92813 0
M  V30 2475 C 240.914 -3.13877 -4.3288 0
M  V30 2476 C 242.214 -4.51322 -2.6288 0
M  V30 2477 H 243.908 -2.71589 -1.26015 0
M  V30 2478 H 241.454 -1.30684 -0.604778 0
M  V30 2479 H 243.407 -2.14255 -3.62867 0
M  V30 2480 H 242.131 -1.01611 -3.10391 0
M  V30 2481 H 240.79 -2.94173 -2.18764 0
M  V30 2482 H 240.438 -2.16687 -4.53933 0
M  V30 2483 H 240.138 -3.91576 -4.38112 0
M  V30 2484 H 241.662 -3.33789 -5.1129 0
M  V30 2485 H 243.076 -4.69435 -3.29096 0
M  V30 2486 H 241.473 -5.31053 -2.79468 0
M  V30 2487 H 242.543 -4.58353 -1.58242 0
M  V30 2488 N 243.887 0.651787 -1.4349 0
M  V30 2489 C 244.834 1.76462 -1.4876 0
M  V30 2490 C 245.804 1.62641 -0.337189 0
M  V30 2491 O 246.989 1.82864 -0.544544 0
M  V30 2492 C 244.129 3.14623 -1.41796 0
M  V30 2493 C 243.242 3.39568 -2.67053 0
M  V30 2494 C 242.377 4.67585 -2.52068 0
M  V30 2495 C 241.416 4.85639 -3.72587 0
M  V30 2496 N 240.553 6.04915 -3.56402 0
M  V30 2497 H 245.393 1.71293 -2.43849 0
M  V30 2498 H 242.93 0.835889 -1.21043 0
M  V30 2499 H 244.888 3.94496 -1.35753 0
M  V30 2500 H 243.518 3.18859 -0.50288 0
M  V30 2501 H 242.57 2.53783 -2.8337 0
M  V30 2502 H 243.882 3.48795 -3.56572 0
M  V30 2503 H 243.036 5.55586 -2.4374 0
M  V30 2504 H 241.775 4.60681 -1.60075 0
M  V30 2505 H 240.78 3.96073 -3.81321 0
M  V30 2506 H 242.005 4.94372 -4.65589 0
M  V30 2507 H 239.951 5.9914 -2.67146 0
M  V30 2508 H 239.868 6.15106 -4.39524 0
M  V30 2509 H 241.136 6.95533 -3.51929 0
M  V30 2510 N 245.365 1.30045 0.890287 0
M  V30 2511 C 246.275 1.17885 2.02831 0
M  V30 2512 C 247.291 0.0999609 1.73713 0
M  V30 2513 O 248.467 0.313867 1.98939 0
M  V30 2514 C 245.532 0.866079 3.35708 0
M  V30 2515 C 244.593 2.02979 3.78283 0
M  V30 2516 C 243.826 1.73184 5.0482 0
M  V30 2517 O 244.049 0.657237 5.66601 0
M  V30 2518 O 242.983 2.58267 5.43674 0
M  V30 2519 H 246.809 2.13474 2.16015 0
M  V30 2520 H 244.394 1.09587 1.01543 0
M  V30 2521 H 246.276 0.706623 4.15433 0
M  V30 2522 H 244.951 -0.0599443 3.23644 0
M  V30 2523 H 243.858 2.24454 2.99285 0
M  V30 2524 H 245.191 2.93734 3.94944 0
M  V30 2525 N 246.843 -1.10192 1.12674 0
M  V30 2526 C 247.806 -2.14786 0.799979 0
M  V30 2527 C 248.806 -1.59711 -0.18685 0
M  V30 2528 O 249.996 -1.74156 0.0392558 0
M  V30 2529 C 247.128 -3.40374 0.189228 0
M  V30 2530 H 248.321 -2.45203 1.72671 0
M  V30 2531 H 245.874 -1.25597 0.930326 0
M  V30 2532 H 246.609 -3.15577 -0.747107 0
M  V30 2533 H 246.394 -3.81637 0.899766 0
M  V30 2534 H 247.884 -4.17594 -0.0228143 0
M  V30 2535 N 248.321 -0.919034 -1.28029 0
M  V30 2536 C 249.737 -0.617972 -1.4715 0
M  V30 2537 C 249.937 0.835242 -1.83374 0
M  V30 2538 O 248.993 1.61388 -1.94191 0
M  V30 2539 C 250.306 -1.56041 -2.57044 0
M  V30 2540 C 251.854 -1.56769 -2.7091 0
M  V30 2541 C 252.329 -2.49688 -3.83953 0
M  V30 2542 N 253.82 -2.47845 -3.91314 0
M  V30 2543 C 254.555 -3.16437 -4.78179 0
M  V30 2544 N 254.051 -3.94376 -5.69596 0
M  V30 2545 N 255.844 -3.05498 -4.71834 0
M  V30 2546 H 247.995 -1.85866 -1.02798 0
M  V30 2547 H 250.258 -0.797506 -0.512531 0
M  V30 2548 H 249.964 -2.59671 -2.372 0
M  V30 2549 H 249.838 -1.29551 -3.54255 0
M  V30 2550 H 252.225 -0.538745 -2.90141 0
M  V30 2551 H 252.306 -1.87305 -1.74214 0
M  V30 2552 H 251.95 -3.52688 -3.65477 0
M  V30 2553 H 251.88 -2.16453 -4.80058 0
M  V30 2554 H 254.371 -1.91234 -3.25941 0
M  V30 2555 H 254.684 -4.43721 -6.32718 0
M  V30 2556 H 253.029 -3.98481 -5.69419 0
M  V30 2557 H 256.22 -2.44108 -3.99411 0
M  V30 2558 H 256.393 -3.59225 -5.39316 0
M  V30 2559 N 249.799 1.42003 -0.683588 0
M  V30 2560 C 250.709 2.34597 -0.0109075 0
M  V30 2561 C 251.725 1.55576 0.779245 0
M  V30 2562 O 252.901 1.88107 0.719555 0
M  V30 2563 C 249.966 3.34199 0.922588 0
M  V30 2564 C 249.027 4.29115 0.125984 0
M  V30 2565 C 248.26 5.23959 1.01502 0
M  V30 2566 O 248.483 5.23952 2.25456 0
M  V30 2567 O 247.417 6.00053 0.47111 0
M  V30 2568 H 251.243 2.93675 -0.773853 0
M  V30 2569 H 248.828 1.42654 -0.443861 0
M  V30 2570 H 250.71 3.95365 1.45823 0
M  V30 2571 H 249.385 2.77582 1.66523 0
M  V30 2572 H 248.292 3.71335 -0.453969 0
M  V30 2573 H 249.625 4.88798 -0.577736 0
M  V30 2574 N 251.277 0.427512 1.51691 0
M  V30 2575 C 252.24 -0.377132 2.26076 0
M  V30 2576 C 253.24 -0.958089 1.29141 0
M  V30 2577 O 254.43 -0.83408 1.52934 0
M  V30 2578 C 251.562 -1.53262 3.04506 0
M  V30 2579 H 252.755 0.27464 2.9864 0
M  V30 2580 H 250.308 0.180445 1.55255 0
M  V30 2581 H 251.043 -2.22072 2.36335 0
M  V30 2582 H 250.828 -1.12232 3.75694 0
M  V30 2583 H 252.318 -2.10135 3.60878 0
M  V30 2584 N 252.755 -1.56801 0.158532 0
M  V30 2585 C 254.003 -1.96102 -0.488712 0
M  V30 2586 C 254.324 -1.04498 -1.64636 0
M  V30 2587 O 253.594 -0.108783 -1.95598 0
M  V30 2588 H 252.174 -0.724102 -0.183535 0
M  V30 2589 H 254.836 -1.93457 0.236728 0
M  V30 2590 H 253.932 -3.00097 -0.857219 0
M  V30 2591 N 254.233 0.115231 -1.57178 0
M  V30 2592 C 255.196 1.12526 -1.99676 0
M  V30 2593 C 256.196 1.34095 -0.88742 0
M  V30 2594 O 257.386 1.30548 -1.15337 0
M  V30 2595 C 254.518 2.4789 -2.34015 0
M  V30 2596 H 255.711 0.759912 -2.90113 0
M  V30 2597 H 253.264 0.359648 -1.52106 0
M  V30 2598 H 253.999 2.89339 -1.4647 0
M  V30 2599 H 253.784 2.33588 -3.14927 0
M  V30 2600 H 255.274 3.20575 -2.67622 0
M  V30 2601 N 255.711 1.52812 0.385517 0
M  V30 2602 C 257.127 1.4214 0.725829 0
M  V30 2603 C 257.327 0.544589 1.94001 0
M  V30 2604 O 256.383 0.0193693 2.52493 0
M  V30 2605 C 257.696 2.85042 0.957668 0
M  V30 2606 C 259.244 2.94543 1.05892 0
M  V30 2607 C 259.719 4.38464 1.32337 0
M  V30 2608 N 261.21 4.41804 1.39151 0
M  V30 2609 C 261.945 5.5025 1.61285 0
M  V30 2610 N 261.441 6.68775 1.80866 0
M  V30 2611 N 263.234 5.37798 1.63492 0
M  V30 2612 H 255.385 2.08338 -0.413383 0
M  V30 2613 H 257.648 0.940016 -0.122775 0
M  V30 2614 H 257.354 3.51431 0.137568 0
M  V30 2615 H 257.228 3.27505 1.87137 0
M  V30 2616 H 259.615 2.28321 1.86959 0
M  V30 2617 H 259.696 2.55504 0.123057 0
M  V30 2618 H 259.34 5.05254 0.517793 0
M  V30 2619 H 259.27 4.75059 2.27214 0
M  V30 2620 H 261.761 3.56377 1.25713 0
M  V30 2621 H 262.074 7.47197 1.97271 0
M  V30 2622 H 260.419 6.71797 1.78083 0
M  V30 2623 H 263.61 4.44171 1.47749 0
M  V30 2624 H 263.783 6.22382 1.80402 0
M  V30 2625 N 257.189 -0.644168 1.43834 0
M  V30 2626 C 258.139 -1.7501 1.46135 0
M  V30 2627 C 259.123 -1.57507 0.328685 0
M  V30 2628 O 260.315 -1.67465 0.5731 0
M  V30 2629 C 257.444 -3.13641 1.39585 0
M  V30 2630 C 256.53 -3.3666 2.57916 0
M  V30 2631 N 256.921 -3.30107 3.83227 0
M  V30 2632 C 255.219 -3.67411 2.52834 0
M  V30 2633 C 255.92 -3.53456 4.61999 0
M  V30 2634 N 254.896 -3.75705 3.9287 0
M  V30 2635 H 258.698 -1.68382 2.40883 0
M  V30 2636 H 256.212 -0.846169 1.38614 0
M  V30 2637 H 258.209 -3.92933 1.39317 0
M  V30 2638 H 256.869 -3.21444 0.45865 0
M  V30 2639 H 257.88 -3.09316 4.15384 0
M  V30 2640 H 254.557 -3.82275 1.67845 0
M  V30 2641 H 255.947 -3.54093 5.71024 0
M  V30 2642 N 258.668 -1.30515 -0.883378 0
M  V30 2643 C 259.914 -1.19607 -1.63774 0
M  V30 2644 C 260.247 0.248314 -1.92606 0
M  V30 2645 O 259.522 1.17742 -1.54813 0
M  V30 2646 C 259.805 -2.02669 -2.97653 0
M  V30 2647 C 259.658 -3.55335 -2.75784 0
M  V30 2648 C 260.977 -1.86573 -3.98596 0
M  V30 2649 H 258.096 -0.435856 -0.594305 0
M  V30 2650 H 260.738 -1.60165 -1.02212 0
M  V30 2651 H 258.888 -1.68208 -3.50197 0
M  V30 2652 H 260.56 -3.99863 -2.30016 0
M  V30 2653 H 258.803 -3.79438 -2.1026 0
M  V30 2654 H 259.474 -4.08745 -3.70988 0
M  V30 2655 H 261.95 -2.16703 -3.55217 0
M  V30 2656 H 260.826 -2.47014 -4.90179 0
M  V30 2657 H 261.087 -0.825321 -4.34328 0
M  V30 2658 N 260.146 1.09593 -1.13257 0
M  V30 2659 C 261.076 2.18214 -0.830946 0
M  V30 2660 C 262.057 1.68812 0.208966 0
M  V30 2661 O 263.242 1.9408 0.0682666 0
M  V30 2662 C 260.372 3.46051 -0.294296 0
M  V30 2663 C 259.326 4.08778 -1.26826 0
M  V30 2664 C 258.652 5.31419 -0.591449 0
M  V30 2665 C 259.952 4.51476 -2.62615 0
M  V30 2666 H 261.646 2.43703 -1.73923 0
M  V30 2667 H 259.192 1.17128 -0.837675 0
M  V30 2668 H 261.145 4.2134 -0.0709606 0
M  V30 2669 H 259.869 3.20079 0.649366 0
M  V30 2670 H 258.528 3.35505 -1.47756 0
M  V30 2671 H 258.176 5.01727 0.357633 0
M  V30 2672 H 257.876 5.74341 -1.24123 0
M  V30 2673 H 259.4 6.09433 -0.377355 0
M  V30 2674 H 260.814 5.17999 -2.45663 0
M  V30 2675 H 259.211 5.05277 -3.23752 0
M  V30 2676 H 260.281 3.63962 -3.20406 0
M  V30 2677 N 261.624 0.925811 1.2754 0
M  V30 2678 C 262.873 0.561084 1.93739 0
M  V30 2679 C 263.186 -0.901685 1.73577 0
M  V30 2680 O 264.392 -1.37511 2.34101 0
M  V30 2681 C 262.848 0.952668 3.47062 0
M  V30 2682 C 262.456 2.43599 3.75983 0
M  V30 2683 C 264.2 0.659103 4.19352 0
M  V30 2684 C 262.107 2.76707 5.22673 0
M  V30 2685 H 261.037 0.206122 0.725279 0
M  V30 2686 H 263.688 1.12637 1.44863 0
M  V30 2687 H 262.07 0.316053 3.94737 0
M  V30 2688 H 263.244 3.12035 3.39073 0
M  V30 2689 H 261.559 2.70125 3.16893 0
M  V30 2690 H 264.156 0.882985 5.27359 0
M  V30 2691 H 264.499 -0.403607 4.14339 0
M  V30 2692 H 265.032 1.25473 3.77494 0
M  V30 2693 H 261.771 3.8188 5.32774 0
M  V30 2694 H 261.291 2.12919 5.60737 0
M  V30 2695 H 262.97 2.6435 5.90532 0
M  V30 2696 N 263.102 -1.41638 0.69111 0
M  V30 2697 C 264.065 -2.29178 0.0319786 0
M  V30 2698 C 265.065 -1.44153 -0.712496 0
M  V30 2699 O 266.255 -1.65354 -0.548053 0
M  V30 2700 C 263.387 -3.26952 -0.965161 0
M  V30 2701 H 264.58 -2.88959 0.802681 0
M  V30 2702 H 262.133 -1.4955 0.454356 0
M  V30 2703 H 262.868 -2.72142 -1.76378 0
M  V30 2704 H 262.653 -3.89685 -0.434522 0
M  V30 2705 H 264.143 -3.92561 -1.42428 0
M  V30 2706 N 264.58 -0.43555 -1.51462 0
M  V30 2707 C 265.808 0.130242 -2.0649 0
M  V30 2708 C 266.223 1.36614 -1.30315 0
M  V30 2709 O 265.58 1.78869 -0.362223 0
M  V30 2710 C 265.631 0.454253 -3.58635 0
M  V30 2711 O 265.352 -0.73259 -4.31931 0
M  V30 2712 C 266.853 1.07091 -4.3017 0
M  V30 2713 H 264.073 0.00871669 -0.670943 0
M  V30 2714 H 266.617 -0.614117 -1.95061 0
M  V30 2715 H 264.772 1.14851 -3.69984 0
M  V30 2716 H 265.186 -0.455787 -5.22516 0
M  V30 2717 H 266.66 1.24764 -5.37716 0
M  V30 2718 H 267.137 2.05144 -3.88346 0
M  V30 2719 H 267.743 0.416089 -4.2326 0
M  V30 2720 N 266.058 1.56714 -0.166846 0
M  V30 2721 C 267.335 1.88412 0.525373 0
M  V30 2722 C 267.715 1.07602 1.81618 0
M  V30 2723 O 267.063 0.168621 2.27877 0
M  V30 2724 C 267.273 3.40363 0.771613 0
M  V30 2725 C 268.621 4.10007 1.1036 0
M  V30 2726 O 269.645 3.45655 0.860304 0
M  V30 2727 O 268.504 5.2369 1.56239 0
M  V30 2728 H 265.598 0.781587 0.270278 0
M  V30 2729 H 268.144 1.68458 -0.204946 0
M  V30 2730 H 266.916 3.91046 -0.141093 0
M  V30 2731 H 266.539 3.65914 1.55541 0
M  V30 2732 N 267.536 -0.106894 1.57237 0
M  V30 2733 C 268.784 -0.810921 1.85117 0
M  V30 2734 C 269.105 -1.7984 0.753827 0
M  V30 2735 O 268.375 -1.94649 -0.221056 0
M  V30 2736 H 266.955 -0.302466 0.683025 0
M  V30 2737 H 269.617 -0.0913324 1.94686 0
M  V30 2738 H 268.713 -1.34875 2.81452 0
M  V30 2739 N 269.014 -1.53014 -0.377408 0
M  V30 2740 C 270.26 -1.68872 -1.12294 0
M  V30 2741 C 270.593 -0.433224 -1.89306 0
M  V30 2742 O 269.868 0.569258 -1.85983 0
M  V30 2743 C 270.151 -2.93115 -2.09179 0
M  V30 2744 C 270.004 -4.28794 -1.35853 0
M  V30 2745 C 271.323 -3.12928 -3.09458 0
M  V30 2746 H 268.442 -0.614518 -0.406862 0
M  V30 2747 H 271.084 -1.85633 -0.40503 0
M  V30 2748 H 269.234 -2.78956 -2.70399 0
M  V30 2749 H 270.906 -4.54742 -0.775082 0
M  V30 2750 H 269.149 -4.28744 -0.660364 0
M  V30 2751 H 269.82 -5.11837 -2.06706 0
M  V30 2752 H 272.296 -3.26194 -2.58334 0
M  V30 2753 H 271.172 -4.01316 -3.74482 0
M  V30 2754 H 271.433 -2.27669 -3.78971 0
M  V30 2755 N 270.492 0.636531 -1.44174 0
M  V30 2756 C 271.739 1.39619 -1.46672 0
M  V30 2757 C 272.067 1.94257 -0.0972691 0
M  V30 2758 O 271.322 1.73768 0.900175 0
M  V30 2759 C 271.621 2.58309 -2.47005 0
M  V30 2760 C 271.287 2.21992 -3.92467 0
M  V30 2761 C 269.949 2.118 -4.32081 0
M  V30 2762 C 272.301 1.9321 -4.84065 0
M  V30 2763 C 269.629 1.71007 -5.61225 0
M  V30 2764 C 271.981 1.53911 -6.13591 0
M  V30 2765 C 270.645 1.42257 -6.52165 0
M  V30 2766 H 269.915 0.510902 -0.536712 0
M  V30 2767 H 272.562 0.722328 -1.77355 0
M  V30 2768 H 270.867 3.30903 -2.09786 0
M  V30 2769 H 272.564 3.16533 -2.46186 0
M  V30 2770 H 269.154 2.30841 -3.61124 0
M  V30 2771 H 273.338 1.99997 -4.54219 0
M  V30 2772 H 268.594 1.60583 -5.89935 0
M  V30 2773 H 272.768 1.30677 -6.8403 0
M  V30 2774 H 270.395 1.10419 -7.52138 0
M  V30 2775 N 271.97 1.30982 0.876444 0
M  V30 2776 C 273.195 1.23373 1.66715 0
M  V30 2777 C 273.62 -0.19885 1.87046 0
M  V30 2778 O 272.978 -1.1427 1.40756 0
M  V30 2779 C 273.026 1.97644 3.01611 0
M  V30 2780 O 272.13 1.30935 3.91062 0
M  V30 2781 H 271.471 0.426279 0.509099 0
M  V30 2782 H 274.001 1.72944 1.09323 0
M  V30 2783 H 274.011 2.06992 3.51594 0
M  V30 2784 H 272.686 3.01829 2.86133 0
M  V30 2785 H 271.263 1.29996 3.49507 0
M  V30 2786 N 273.449 -1.08991 1.13837 0
M  V30 2787 C 274.382 -2.15049 0.763477 0
M  V30 2788 C 275.36 -1.60629 -0.252398 0
M  V30 2789 O 276.544 -1.87958 -0.142853 0
M  V30 2790 C 273.671 -3.38441 0.132545 0
M  V30 2791 C 272.717 -4.11596 1.11763 0
M  V30 2792 S 273.55 -4.6521 2.65216 0
M  V30 2793 C 274.706 -5.91896 2.03495 0
M  V30 2794 H 274.939 -2.46518 1.66182 0
M  V30 2795 H 272.472 -1.21008 0.958976 0
M  V30 2796 H 274.43 -4.09883 -0.225074 0
M  V30 2797 H 273.091 -3.05182 -0.743135 0
M  V30 2798 H 272.284 -5.00121 0.624076 0
M  V30 2799 H 271.886 -3.46038 1.41894 0
M  V30 2800 H 274.178 -6.63156 1.38675 0
M  V30 2801 H 275.121 -6.45938 2.9012 0
M  V30 2802 H 275.529 -5.44625 1.48471 0
M  V30 2803 N 274.927 -0.932562 -1.27047 0
M  V30 2804 C 276.204 -0.49377 -1.89265 0
M  V30 2805 C 276.584 1.02833 -1.8436 0
M  V30 2806 O 275.932 1.88461 -1.29209 0
M  V30 2807 C 276.142 -1.04536 -3.32976 0
M  V30 2808 C 277.49 -1.10879 -4.09867 0
M  V30 2809 O 278.514 -0.995327 -3.42011 0
M  V30 2810 O 277.373 -1.28417 -5.31198 0
M  V30 2811 H 274.467 -0.159596 -0.811454 0
M  V30 2812 H 277.013 -1.02457 -1.3528 0
M  V30 2813 H 275.785 -2.08913 -3.30864 0
M  V30 2814 H 275.408 -0.496494 -3.94488 0
M  V30 2815 N 276.405 1.4127 -0.698611 0
M  V30 2816 C 277.653 2.00782 -0.230409 0
M  V30 2817 C 277.974 1.5562 1.17505 0
M  V30 2818 O 277.244 0.78815 1.79346 0
M  V30 2819 H 275.824 0.742464 -0.0821944 0
M  V30 2820 H 278.486 1.72852 -0.90045 0
M  V30 2821 H 277.582 3.11095 -0.25021 0
M  V30 2822 N 277.883 0.443576 1.51229 0
M  V30 2823 C 279.129 -0.120975 2.02439 0
M  V30 2824 C 279.462 -1.41815 1.32674 0
M  V30 2825 O 278.737 -1.89373 0.443622 0
M  V30 2826 C 279.02 -0.333291 3.58554 0
M  V30 2827 C 278.873 0.982968 4.38928 0
M  V30 2828 C 280.192 -1.10028 4.26124 0
M  V30 2829 H 277.311 -0.0424923 0.735774 0
M  V30 2830 H 279.953 0.583794 1.80809 0
M  V30 2831 H 278.103 -0.933614 3.77115 0
M  V30 2832 H 279.775 1.61775 4.32003 0
M  V30 2833 H 278.018 1.58611 4.03763 0
M  V30 2834 H 278.689 0.788379 5.46341 0
M  V30 2835 H 281.165 -0.591711 4.11871 0
M  V30 2836 H 280.041 -1.21761 5.35225 0
M  V30 2837 H 280.302 -2.12996 3.87408 0
M  V30 2838 N 279.361 -1.56624 0.175154 0
M  V30 2839 C 280.61 -1.96173 -0.468921 0
M  V30 2840 C 280.923 -1.06401 -1.64128 0
M  V30 2841 O 282.129 -1.35648 -2.35185 0
M  V30 2842 C 280.585 -3.48833 -0.885633 0
M  V30 2843 C 280.193 -4.47237 0.261343 0
M  V30 2844 C 281.937 -3.97194 -1.49791 0
M  V30 2845 C 279.844 -5.9114 -0.175214 0
M  V30 2846 H 278.774 -0.732455 -0.178958 0
M  V30 2847 H 281.425 -1.81591 0.263997 0
M  V30 2848 H 279.807 -3.58848 -1.67464 0
M  V30 2849 H 280.981 -4.4894 1.03871 0
M  V30 2850 H 279.296 -4.08956 0.783827 0
M  V30 2851 H 281.893 -5.02167 -1.83665 0
M  V30 2852 H 282.236 -3.40351 -2.39722 0
M  V30 2853 H 282.769 -3.90212 -0.773267 0
M  V30 2854 H 279.508 -6.51865 0.689414 0
M  V30 2855 H 279.028 -5.92735 -0.91786 0
M  V30 2856 H 280.707 -6.44044 -0.617792 0
M  V30 2857 N 280.839 0.0985539 -1.57292 0
M  V30 2858 C 281.802 1.10402 -2.00858 0
M  V30 2859 C 282.802 1.33146 -0.901593 0
M  V30 2860 O 283.992 1.29318 -1.16716 0
M  V30 2861 C 281.124 2.45394 -2.36632 0
M  V30 2862 H 282.317 0.729099 -2.90902 0
M  V30 2863 H 279.87 0.343495 -1.52479 0
M  V30 2864 H 280.605 2.87769 -1.49531 0
M  V30 2865 H 280.39 2.30235 -3.17387 0
M  V30 2866 H 281.88 3.17718 -2.71007 0
M  V30 2867 N 282.317 1.53212 0.369288 0
M  V30 2868 C 283.265 1.80054 1.47253 0
M  V30 2869 C 284.259 0.669456 1.55611 0
M  V30 2870 O 285.465 0.852328 1.58541 0
M  V30 2871 H 281.84 0.570034 0.490475 0
M  V30 2872 H 283.811 2.72403 1.21817 0
M  V30 2873 C 282.56 2.00403 2.84137 0
M  V30 2874 H 281.883 2.86876 2.78464 0
M  V30 2875 H 283.323 2.23164 3.60519 0
M  V30 2876 C 281.782 0.782081 3.27697 0
M  V30 2877 O 282.312 -0.0310205 4.01688 0
M  V30 2878 N 280.518 0.606573 2.84199 0
M  V30 2879 H 280.065 1.26939 2.24152 0
M  V30 2880 H 280.023 -0.20962 3.137 0
M  V30 2881 N 283.795 -0.628877 1.44509 0
M  V30 2882 C 284.725 -1.75187 1.54376 0
M  V30 2883 C 285.706 -1.65411 0.396618 0
M  V30 2884 O 286.891 -1.84137 0.617031 0
M  V30 2885 C 284.021 -3.13725 1.48976 0
M  V30 2886 C 282.975 -3.38291 2.62189 0
M  V30 2887 C 282.301 -4.76883 2.41841 0
M  V30 2888 C 283.601 -3.30632 4.04326 0
M  V30 2889 H 285.295 -1.67187 2.48373 0
M  V30 2890 H 282.841 -0.802909 1.19538 0
M  V30 2891 H 284.794 -3.92064 1.54478 0
M  V30 2892 H 283.518 -3.22515 0.514961 0
M  V30 2893 H 282.177 -2.62334 2.56079 0
M  V30 2894 H 281.825 -4.82378 1.42548 0
M  V30 2895 H 281.525 -4.94278 3.17747 0
M  V30 2896 H 283.049 -5.57449 2.49165 0
M  V30 2897 H 284.463 -3.98873 4.11793 0
M  V30 2898 H 282.86 -3.59561 4.80454 0
M  V30 2899 H 283.93 -2.28404 4.27738 0
M  V30 2900 N 285.273 -1.31445 -0.869486 0
M  V30 2901 C 286.22 -1.19135 -1.97675 0
M  V30 2902 C 287.19 -0.0770266 -1.65921 0
M  V30 2903 O 288.375 -0.249972 -1.89155 0
M  V30 2904 C 285.515 -0.905149 -3.33018 0
M  V30 2905 C 284.628 -2.10285 -3.77365 0
M  V30 2906 C 283.763 -1.75339 -5.01427 0
M  V30 2907 C 282.802 -2.91515 -5.38224 0
M  V30 2908 N 281.939 -2.56762 -6.53466 0
M  V30 2909 H 286.779 -2.13853 -2.07535 0
M  V30 2910 H 284.316 -1.06379 -1.01597 0
M  V30 2911 H 286.274 -0.719765 -4.10944 0
M  V30 2912 H 284.904 0.00519624 -3.228 0
M  V30 2913 H 283.956 -2.39899 -2.95216 0
M  V30 2914 H 285.268 -2.97237 -4.00564 0
M  V30 2915 H 284.422 -1.53266 -5.87022 0
M  V30 2916 H 283.161 -0.855801 -4.80133 0
M  V30 2917 H 282.166 -3.14237 -4.51149 0
M  V30 2918 H 283.391 -3.81985 -5.61484 0
M  V30 2919 H 281.337 -1.69526 -6.33717 0
M  V30 2920 H 281.254 -3.37243 -6.76612 0
M  V30 2921 H 282.522 -2.38083 -7.42251 0
M  V30 2922 N 286.751 1.08385 -1.14413 0
M  V30 2923 C 287.999 1.80419 -0.910679 0
M  V30 2924 C 288.32 1.86658 0.564243 0
M  V30 2925 O 287.59 1.35985 1.41014 0
M  V30 2926 H 286.17 0.668204 -0.333934 0
M  V30 2927 H 288.832 1.31037 -1.44275 0
M  V30 2928 H 287.928 2.83238 -1.31082 0
M  V30 2929 N 288.23 0.939286 1.26551 0
M  V30 2930 C 289.476 0.586715 1.94128 0
M  V30 2931 C 289.809 -0.8717 1.73537 0
M  V30 2932 O 289.084 -1.62339 1.07127 0
M  V30 2933 C 289.367 0.927497 3.4795 0
M  V30 2934 C 289.22 2.44052 3.77834 0
M  V30 2935 C 290.539 0.441569 4.37879 0
M  V30 2936 H 287.658 0.21463 0.705055 0
M  V30 2937 H 290.3 1.17316 1.49455 0
M  V30 2938 H 288.45 0.428431 3.8613 0
M  V30 2939 H 290.122 3.01216 3.4938 0
M  V30 2940 H 288.365 2.8848 3.23978 0
M  V30 2941 H 289.036 2.62947 4.85348 0
M  V30 2942 H 291.512 0.869448 4.06915 0
M  V30 2943 H 290.388 0.708856 5.44304 0
M  V30 2944 H 290.649 -0.658467 4.37169 0
M  V30 2945 N 289.708 -1.40897 0.706093 0
M  V30 2946 C 290.948 -2.02916 0.245827 0
M  V30 2947 C 291.312 -1.54751 -1.13649 0
M  V30 2948 O 292.513 -2.08768 -1.69321 0
M  V30 2949 C 290.784 -3.56031 0.312537 0
M  V30 2950 S 292.343 -4.38741 -0.0721388 0
M  V30 2951 H 289.161 -0.704186 0.0982007 0
M  V30 2952 H 291.763 -1.72168 0.926207 0
M  V30 2953 H 290.467 -3.88579 1.32039 0
M  V30 2954 H 289.998 -3.91495 -0.386641 0
M  V30 2955 H 292.013 -4.78952 -1.29692 0
M  V30 2956 N 291.186 -0.45159 -1.50991 0
M  V30 2957 C 292.463 0.170707 -1.94854 0
M  V30 2958 C 292.843 1.58788 -1.39103 0
M  V30 2959 O 292.191 2.20913 -0.583921 0
M  V30 2960 C 292.401 0.133929 -3.48743 0
M  V30 2961 C 293.749 0.33248 -4.23296 0
M  V30 2962 O 294.773 0.211403 -3.55572 0
M  V30 2963 O 293.632 0.57486 -5.43468 0
M  V30 2964 H 290.726 0.122264 -0.817912 0
M  V30 2965 H 293.272 -0.510594 -1.61836 0
M  V30 2966 H 292.044 -0.856283 -3.81816 0
M  V30 2967 H 291.667 0.857529 -3.88242 0
M  V30 2968 N 292.664 1.56529 -0.183458 0
M  V30 2969 C 293.594 2.21549 0.737456 0
M  V30 2970 C 294.575 1.17489 1.23005 0
M  V30 2971 O 295.76 1.45959 1.281 0
M  V30 2972 C 292.89 2.86575 1.96194 0
M  V30 2973 C 291.844 3.96778 1.60473 0
M  V30 2974 C 291.17 4.48911 2.90487 0
M  V30 2975 C 292.47 5.15767 0.823497 0
M  V30 2976 H 294.164 2.98761 0.195453 0
M  V30 2977 H 291.71 1.43702 0.0925686 0
M  V30 2978 H 293.663 3.30739 2.61131 0
M  V30 2979 H 292.387 2.06749 2.52828 0
M  V30 2980 H 291.046 3.53286 0.978997 0
M  V30 2981 H 290.694 3.65862 3.45186 0
M  V30 2982 H 290.394 5.23265 2.67335 0
M  V30 2983 H 291.918 4.95771 3.56432 0
M  V30 2984 H 293.332 5.56549 1.37571 0
M  V30 2985 H 291.729 5.96114 0.690551 0
M  V30 2986 H 292.799 4.84574 -0.177782 0
M  V30 2987 N 294.142 -0.090211 1.57342 0
M  V30 2988 C 295.105 -1.09335 2.01441 0
M  V30 2989 C 296.105 -1.32666 0.908641 0
M  V30 2990 O 297.295 -1.28697 1.174 0
M  V30 2991 C 294.427 -2.44136 2.3793 0
M  V30 2992 H 295.62 -0.713662 2.91285 0
M  V30 2993 H 293.173 -0.335404 1.52659 0
M  V30 2994 H 293.908 -2.86972 1.51055 0
M  V30 2995 H 293.693 -2.28548 3.18603 0
M  V30 2996 H 295.183 -3.16277 2.72688 0
M  V30 2997 N 295.62 -1.53406 -0.361157 0
M  V30 2998 C 296.897 -1.60411 -1.11927 0
M  V30 2999 C 297.277 -0.414385 -2.06993 0
M  V30 3000 O 296.625 0.594976 -2.20618 0
M  V30 3001 C 296.835 -2.95652 -1.85448 0
M  V30 3002 C 298.183 -3.50386 -2.39823 0
M  V30 3003 O 299.207 -2.97711 -1.95568 0
M  V30 3004 O 298.066 -4.42482 -3.20737 0
M  V30 3005 H 295.16 -0.64811 -0.513695 0
M  V30 3006 H 297.706 -1.65749 -0.364065 0
M  V30 3007 H 296.478 -3.73682 -1.16091 0
M  V30 3008 H 296.101 -2.93825 -2.67866 0
M  V30 3009 N 297.098 0.621204 -1.44841 0
M  V30 3010 C 298.045 1.73267 -1.5247 0
M  V30 3011 C 299.015 1.6189 -0.371611 0
M  V30 3012 O 300.2 1.81668 -0.58321 0
M  V30 3013 C 297.34 3.11545 -1.48438 0
M  V30 3014 C 296.453 3.33827 -2.74196 0
M  V30 3015 C 295.588 4.62133 -2.61929 0
M  V30 3016 C 294.627 4.77627 -3.82804 0
M  V30 3017 N 293.764 5.97219 -3.69153 0
M  V30 3018 H 298.604 1.66082 -2.47428 0
M  V30 3019 H 296.141 0.810026 -1.22788 0
M  V30 3020 H 298.099 3.91528 -1.4409 0
M  V30 3021 H 296.729 3.1772 -0.570402 0
M  V30 3022 H 295.781 2.47715 -2.88689 0
M  V30 3023 H 297.093 3.41153 -3.6389 0
M  V30 3024 H 296.247 5.50291 -2.5547 0
M  V30 3025 H 294.986 4.57182 -1.69811 0
M  V30 3026 H 293.991 3.87896 -3.89637 0
M  V30 3027 H 295.216 4.84385 -4.75971 0
M  V30 3028 H 293.162 5.93339 -2.79794 0
M  V30 3029 H 293.079 6.05644 -4.52472 0
M  V30 3030 H 294.347 6.87912 -3.66603 0
M  V30 3031 N 298.576 1.31904 0.862503 0
M  V30 3032 C 299.806 1.24817 1.64634 0
M  V30 3033 C 300.214 -0.187579 1.88268 0
M  V30 3034 O 299.557 -1.13253 1.44635 0
M  V30 3035 C 299.619 1.92996 3.03303 0
M  V30 3036 C 299.283 3.42336 3.02746 0
M  V30 3037 C 300.28 4.37956 2.80162 0
M  V30 3038 C 297.965 3.84147 3.2363 0
M  V30 3039 C 299.959 5.73361 2.78453 0
M  V30 3040 C 297.646 5.19663 3.21549 0
M  V30 3041 C 298.644 6.14081 2.98988 0
M  V30 3042 O 298.332 7.47118 2.96766 0
M  V30 3043 H 298.064 0.432222 0.519769 0
M  V30 3044 H 300.618 1.7445 1.08427 0
M  V30 3045 H 298.848 1.37922 3.61268 0
M  V30 3046 H 300.537 1.79723 3.63943 0
M  V30 3047 H 301.303 4.06981 2.63802 0
M  V30 3048 H 297.182 3.11083 3.40218 0
M  V30 3049 H 300.726 6.4703 2.60763 0
M  V30 3050 H 296.623 5.5027 3.37451 0
M  V30 3051 H 297.391 7.56382 3.12775 0
M  V30 3052 N 300.054 -1.07777 1.14986 0
M  V30 3053 C 301.331 -1.7699 0.832695 0
M  V30 3054 C 301.711 -2.001 -0.672561 0
M  V30 3055 O 301.059 -1.61598 -1.6155 0
M  V30 3056 C 301.269 -3.08139 1.63863 0
M  V30 3057 C 302.617 -3.8256 1.84208 0
M  V30 3058 O 303.641 -3.17939 1.60603 0
M  V30 3059 O 302.5 -4.98612 2.23714 0
M  V30 3060 H 299.594 -0.768389 0.305791 0
M  V30 3061 H 302.14 -1.14182 1.25541 0
M  V30 3062 H 300.912 -2.86909 2.6608 0
M  V30 3063 H 300.535 -3.78678 1.21197 0
M  V30 3064 N 301.532 -0.945985 -1.26051 0
M  V30 3065 C 302.495 -0.463897 -2.24456 0
M  V30 3066 C 303.495 0.427655 -1.55009 0
M  V30 3067 O 304.685 0.226157 -1.72726 0
M  V30 3068 C 301.817 0.330812 -3.39291 0
M  V30 3069 H 303.01 -1.33357 -2.68619 0
M  V30 3070 H 300.563 -0.728416 -1.38289 0
M  V30 3071 H 301.298 1.21852 -3.00537 0
M  V30 3072 H 301.083 -0.308679 -3.90883 0
M  V30 3073 H 302.573 0.657865 -4.12386 0
M  V30 3074 N 303.011 1.40521 -0.713556 0
M  V30 3075 C 303.941 2.33381 -0.0743864 0
M  V30 3076 C 304.922 1.52784 0.747735 0
M  V30 3077 O 306.107 1.81258 0.697071 0
M  V30 3078 C 303.237 3.36748 0.849598 0
M  V30 3079 C 302.191 4.27793 0.133247 0
M  V30 3080 C 301.517 5.21679 1.17281 0
M  V30 3081 C 302.817 5.12415 -1.01134 0
M  V30 3082 H 304.511 2.87081 -0.850007 0
M  V30 3083 H 302.057 1.38034 -0.410201 0
M  V30 3084 H 304.01 4.00648 1.30612 0
M  V30 3085 H 302.734 2.81439 1.65709 0
M  V30 3086 H 301.393 3.65342 -0.303426 0
M  V30 3087 H 301.041 4.62677 1.9733 0
M  V30 3088 H 300.741 5.83435 0.698397 0
M  V30 3089 H 302.265 5.88456 1.62947 0
M  V30 3090 H 303.679 5.69781 -0.634274 0
M  V30 3091 H 302.076 5.83203 -1.41399 0
M  V30 3092 H 303.146 4.48514 -1.84292 0
M  V30 3093 N 304.489 0.459591 1.5075 0
M  V30 3094 C 305.735 -0.0994966 2.02556 0
M  V30 3095 C 306.068 -1.40399 1.3417 0
M  V30 3096 O 305.343 -1.88892 0.463683 0
M  V30 3097 C 305.626 -0.295242 3.58888 0
M  V30 3098 C 305.479 1.02947 4.37861 0
M  V30 3099 C 306.798 -1.05502 4.27267 0
M  V30 3100 H 303.917 -0.034686 0.736183 0
M  V30 3101 H 306.559 0.602938 1.8018 0
M  V30 3102 H 304.709 -0.893563 3.78084 0
M  V30 3103 H 306.381 1.66348 4.30263 0
M  V30 3104 H 304.624 1.62885 4.02058 0
M  V30 3105 H 305.295 0.846281 5.45474 0
M  V30 3106 H 307.771 -0.547993 4.12476 0
M  V30 3107 H 306.647 -1.16077 5.36486 0
M  V30 3108 H 306.908 -2.08875 3.89645 0
M  V30 3109 N 305.967 -1.56429 0.191757 0
M  V30 3110 C 306.9 -2.14829 -0.76967 0
M  V30 3111 C 307.878 -1.08405 -1.2119 0
M  V30 3112 O 309.062 -1.36498 -1.30002 0
M  V30 3113 C 306.189 -2.70446 -2.03903 0
M  V30 3114 C 305.235 -3.89428 -1.7392 0
M  V30 3115 S 306.068 -5.28048 -0.890265 0
M  V30 3116 C 307.224 -5.87085 -2.16984 0
M  V30 3117 H 307.457 -2.96042 -0.273204 0
M  V30 3118 H 304.99 -1.54383 -0.0231975 0
M  V30 3119 H 306.948 -3.03134 -2.76803 0
M  V30 3120 H 305.609 -1.89281 -2.50662 0
M  V30 3121 H 304.802 -4.26742 -2.68155 0
M  V30 3122 H 304.404 -3.57732 -1.09103 0
M  V30 3123 H 306.696 -6.01244 -3.12269 0
M  V30 3124 H 307.639 -6.83747 -1.84108 0
M  V30 3125 H 308.047 -5.15663 -2.29678 0
M  V30 3126 N 307.445 0.0818655 -1.57387 0
M  V30 3127 C 308.691 0.784074 -1.8703 0
M  V30 3128 C 309.024 1.77729 -0.782689 0
M  V30 3129 O 308.299 1.93384 0.208051 0
M  V30 3130 C 308.582 1.50105 -3.27323 0
M  V30 3131 C 308.435 0.524925 -4.46727 0
M  V30 3132 C 309.754 2.44843 -3.65705 0
M  V30 3133 H 306.873 0.283582 -0.680257 0
M  V30 3134 H 309.515 0.0474352 -1.89941 0
M  V30 3135 H 307.665 2.12897 -3.24972 0
M  V30 3136 H 309.337 -0.0970111 -4.61198 0
M  V30 3137 H 307.58 -0.160606 -4.33503 0
M  V30 3138 H 308.251 1.064 -5.41648 0
M  V30 3139 H 310.727 1.92135 -3.69085 0
M  V30 3140 H 309.603 2.92018 -4.64776 0
M  V30 3141 H 309.864 3.29197 -2.95096 0
M  V30 3142 N 308.923 1.53595 0.353017 0
M  V30 3143 C 310.2 1.61002 1.11075 0
M  V30 3144 C 310.58 0.425356 2.0677 0
M  V30 3145 O 309.928 -0.583267 2.2093 0
M  V30 3146 C 310.138 2.96631 1.83877 0
M  V30 3147 C 311.486 3.51653 2.37961 0
M  V30 3148 O 312.51 2.98743 1.93987 0
M  V30 3149 O 311.369 4.44177 3.18386 0
M  V30 3150 H 308.463 0.650825 0.510251 0
M  V30 3151 H 311.009 1.6594 0.35527 0
M  V30 3152 H 309.781 3.74293 1.14108 0
M  V30 3153 H 309.404 2.95242 2.66304 0
M  V30 3154 N 310.401 -0.613514 1.45168 0
M  V30 3155 C 311.678 -1.37263 1.39349 0
M  V30 3156 C 312.058 -2.11012 0.0610848 0
M  V30 3157 O 311.406 -2.07502 -0.956825 0
M  V30 3158 C 311.616 -2.3244 2.60332 0
M  V30 3159 C 312.964 -2.9523 3.05163 0
M  V30 3160 O 313.988 -2.42762 2.60663 0
M  V30 3161 O 312.847 -3.90454 3.82372 0
M  V30 3162 H 309.941 -0.615188 0.552696 0
M  V30 3163 H 312.487 -0.637097 1.57287 0
M  V30 3164 H 311.259 -1.77164 3.48896 0
M  V30 3165 H 310.882 -3.13383 2.44698 0
M  V30 3166 N 311.879 -1.3236 -0.855495 0
M  V30 3167 C 313.104 -1.2601 -1.64731 0
M  V30 3168 C 313.529 0.169068 -1.87339 0
M  V30 3169 O 312.887 1.12016 -1.42556 0
M  V30 3170 C 312.935 -2.02417 -2.98429 0
M  V30 3171 O 312.039 -1.3714 -3.8893 0
M  V30 3172 H 311.38 -0.434325 -0.502253 0
M  V30 3173 H 313.91 -1.74661 -1.06558 0
M  V30 3174 H 313.92 -2.12559 -3.48257 0
M  V30 3175 H 312.595 -3.06343 -2.81295 0
M  V30 3176 H 311.172 -1.3554 -3.47395 0
M  V30 3177 N 313.357 1.07166 -1.15556 0
M  V30 3178 C 314.307 2.12649 -0.82247 0
M  V30 3179 C 315.291 1.59725 0.194129 0
M  V30 3180 O 316.483 1.76999 -0.00540402 0
M  V30 3181 C 313.612 3.41847 -0.315572 0
M  V30 3182 C 312.698 4.0162 -1.36244 0
M  V30 3183 N 313.089 4.35625 -2.5703 0
M  V30 3184 C 311.387 4.29114 -1.21562 0
M  V30 3185 C 312.088 4.83017 -3.24144 0
M  V30 3186 N 311.064 4.81906 -2.51531 0
M  V30 3187 H 314.866 2.36776 -1.74111 0
M  V30 3188 H 312.38 1.24622 -1.0413 0
M  V30 3189 H 314.377 4.16859 -0.0585855 0
M  V30 3190 H 313.037 3.19163 0.597105 0
M  V30 3191 H 314.048 4.26253 -2.94158 0
M  V30 3192 H 310.725 4.15919 -0.362988 0
M  V30 3193 H 312.115 5.18605 -4.27198 0
M  V30 3194 N 314.835 0.952656 1.25548 0
M  V30 3195 C 315.798 0.475794 2.24207 0
M  V30 3196 C 316.798 -0.419428 1.55234 0
M  V30 3197 O 317.988 -0.216994 1.72843 0
M  V30 3198 C 315.12 -0.312814 3.39462 0
M  V30 3199 H 316.313 1.34779 2.67908 0
M  V30 3200 H 313.866 0.735739 1.37901 0
M  V30 3201 H 314.601 -1.20257 3.01179 0
M  V30 3202 H 314.386 0.329404 3.90714 0
M  V30 3203 H 315.876 -0.635986 4.12729 0
M  V30 3204 N 316.313 -1.40141 0.720998 0
M  V30 3205 C 317.559 -2.01084 0.263231 0
M  V30 3206 C 317.892 -1.57052 -1.14229 0
M  V30 3207 O 317.167 -0.793027 -1.77599 0
M  V30 3208 C 317.45 -3.58401 0.349344 0
M  V30 3209 C 317.303 -4.12491 1.79363 0
M  V30 3210 C 318.622 -4.39231 -0.276351 0
M  V30 3211 H 315.741 -0.730572 0.0971228 0
M  V30 3212 H 318.383 -1.66543 0.914518 0
M  V30 3213 H 316.533 -3.87958 -0.205165 0
M  V30 3214 H 318.205 -3.93711 2.40394 0
M  V30 3215 H 316.448 -3.66576 2.31958 0
M  V30 3216 H 317.119 -5.21646 1.80524 0
M  V30 3217 H 319.595 -4.15637 0.196184 0
M  V30 3218 H 318.471 -5.48586 -0.185681 0
M  V30 3219 H 318.732 -4.20643 -1.36059 0
M  V30 3220 N 317.792 -0.46758 -1.50504 0
M  V30 3221 C 319.04 0.0884469 -2.01906 0
M  V30 3222 C 319.361 1.40532 -1.35188 0
M  V30 3223 O 318.631 1.89515 -0.496079 0
M  V30 3224 H 317.211 0.0356765 -0.746148 0
M  V30 3225 H 319.873 -0.6172 -1.84869 0
M  V30 3226 H 318.969 0.2425 -3.11156 0
M  V30 3227 N 319.27 1.56325 -0.20005 0
M  V30 3228 C 320.517 1.97719 0.437411 0
M  V30 3229 C 320.845 1.08709 1.61284 0
M  V30 3230 O 320.1 0.127261 1.95286 0
M  V30 3231 C 320.399 3.4495 0.935103 0
M  V30 3232 C 320.065 4.5072 -0.12749 0
M  V30 3233 C 318.727 4.79368 -0.419451 0
M  V30 3234 C 321.079 5.14268 -0.847231 0
M  V30 3235 C 318.407 5.68854 -1.43604 0
M  V30 3236 C 320.759 6.04852 -1.85301 0
M  V30 3237 C 319.423 6.31855 -2.15211 0
M  V30 3238 H 318.693 0.723507 0.16006 0
M  V30 3239 H 321.34 1.89166 -0.298056 0
M  V30 3240 H 319.645 3.50599 1.74894 0
M  V30 3241 H 321.342 3.74337 1.43781 0
M  V30 3242 H 317.932 4.28458 0.11023 0
M  V30 3243 H 322.116 4.92222 -0.634901 0
M  V30 3244 H 317.372 5.88047 -1.67364 0
M  V30 3245 H 321.546 6.53152 -2.41591 0
M  V30 3246 H 319.173 7.00994 -2.94129 0
M  V30 3247 N 320.748 -0.0735177 1.57428 0
M  V30 3248 C 321.994 -0.774145 1.87443 0
M  V30 3249 C 322.327 -1.77311 0.792103 0
M  V30 3250 O 321.602 -1.93492 -0.197793 0
M  V30 3251 C 321.885 -1.48367 3.28115 0
M  V30 3252 C 321.738 -0.501227 4.46999 0
M  V30 3253 C 323.057 -2.429 3.66998 0
M  V30 3254 H 320.176 -0.279971 0.681752 0
M  V30 3255 H 322.818 -0.0373616 1.89963 0
M  V30 3256 H 320.968 -2.11171 3.26097 0
M  V30 3257 H 322.64 0.121468 4.6114 0
M  V30 3258 H 320.883 0.183593 4.33411 0
M  V30 3259 H 321.554 -1.03526 5.42205 0
M  V30 3260 H 324.03 -1.90175 3.70098 0
M  V30 3261 H 322.906 -2.89549 4.66318 0
M  V30 3262 H 323.167 -3.27628 2.96837 0
M  V30 3263 N 322.226 -1.5378 -0.344866 0
M  V30 3264 C 323.474 -1.70625 -1.08311 0
M  V30 3265 C 323.795 -0.471447 -1.89215 0
M  V30 3266 O 323.065 0.514616 -1.8902 0
M  V30 3267 H 321.645 -0.629058 -0.402859 0
M  V30 3268 H 324.307 -1.9103 -0.386459 0
M  V30 3269 H 323.403 -2.57656 -1.76124 0
M  V30 3270 N 323.704 0.605807 -1.45491 0
M  V30 3271 C 324.614 1.74466 -1.56839 0
M  V30 3272 C 325.63 1.68006 -0.452772 0
M  V30 3273 O 326.806 1.8833 -0.713708 0
M  V30 3274 C 323.871 3.10931 -1.53371 0
M  V30 3275 C 322.932 3.28832 -2.75986 0
M  V30 3276 C 322.165 4.58787 -2.72673 0
M  V30 3277 O 322.388 5.4122 -1.80102 0
M  V30 3278 O 321.322 4.79438 -3.63899 0
M  V30 3279 H 325.148 1.67843 -2.53106 0
M  V30 3280 H 322.733 0.770108 -1.28022 0
M  V30 3281 H 324.615 3.92233 -1.54051 0
M  V30 3282 H 323.29 3.18042 -0.602572 0
M  V30 3283 H 322.197 2.47112 -2.80867 0
M  V30 3284 H 323.53 3.26599 -3.68231 0
M  V30 3285 N 325.182 1.32811 0.848464 0
M  V30 3286 C 326.13 1.22231 1.97895 0
M  V30 3287 C 327.124 0.125749 1.68933 0
M  V30 3288 O 328.33 0.289083 1.77663 0
M  V30 3289 H 324.705 0.379058 0.649476 0
M  V30 3290 H 326.676 2.17828 2.03945 0
M  V30 3291 C 325.425 0.968572 3.33937 0
M  V30 3292 H 324.748 1.80458 3.56756 0
M  V30 3293 H 326.188 0.934808 4.13567 0
M  V30 3294 C 324.647 -0.328628 3.35293 0
M  V30 3295 O 325.177 -1.33848 3.78745 0
M  V30 3296 N 323.383 -0.352788 2.88451 0
M  V30 3297 H 322.93 0.469541 2.53285 0
M  V30 3298 H 322.888 -1.22057 2.89741 0
M  V30 3299 N 326.66 -1.06551 1.16123 0
M  V30 3300 C 327.908 -1.78947 0.939267 0
M  V30 3301 C 328.229 -1.87532 -0.534476 0
M  V30 3302 O 327.499 -1.38211 -1.38833 0
M  V30 3303 H 326.079 -0.662807 0.344523 0
M  V30 3304 H 328.741 -1.28725 1.46342 0
M  V30 3305 H 327.837 -2.81117 1.35572 0
M  V30 3306 N 328.138 -0.959301 -1.25041 0
M  V30 3307 C 329.554 -0.664474 -1.4511 0
M  V30 3308 C 329.754 0.776481 -1.85938 0
M  V30 3309 O 328.81 1.55128 -1.99227 0
M  V30 3310 C 330.123 -1.64139 -2.5195 0
M  V30 3311 C 331.671 -1.65309 -2.65786 0
M  V30 3312 C 332.146 -2.61777 -3.75815 0
M  V30 3313 N 333.637 -2.60169 -3.83231 0
M  V30 3314 C 334.372 -3.31489 -4.6787 0
M  V30 3315 N 333.868 -4.12298 -5.56761 0
M  V30 3316 N 335.661 -3.20354 -4.61876 0
M  V30 3317 H 327.812 -1.89043 -0.968332 0
M  V30 3318 H 330.075 -0.813408 -0.4869 0
M  V30 3319 H 329.781 -2.67086 -2.28819 0
M  V30 3320 H 329.655 -1.40756 -3.49954 0
M  V30 3321 H 332.042 -0.630778 -2.8828 0
M  V30 3322 H 332.123 -1.92753 -1.68167 0
M  V30 3323 H 331.767 -3.64137 -3.54071 0
M  V30 3324 H 331.697 -2.31616 -4.72929 0
M  V30 3325 H 334.188 -2.01507 -3.19692 0
M  V30 3326 H 334.501 -4.63625 -6.18281 0
M  V30 3327 H 332.846 -4.16395 -5.56454 0
M  V30 3328 H 336.037 -2.56692 -3.91442 0
M  V30 3329 H 336.21 -3.76201 -5.27614 0
M  V30 3330 N 329.616 1.39756 -0.72842 0
M  V30 3331 C 330.864 2.00248 -0.272946 0
M  V30 3332 C 331.185 1.58077 1.14178 0
M  V30 3333 O 330.455 0.826014 1.77634 0
M  V30 3334 H 329.035 0.740554 -0.0979247 0
M  V30 3335 H 331.697 1.70903 -0.936912 0
M  V30 3336 H 330.793 3.10495 -0.316142 0
M  V30 3337 N 331.094 0.475555 1.50254 0
M  V30 3338 C 332.319 -0.0777042 2.07254 0
M  V30 3339 C 332.744 -1.3235 1.3366 0
M  V30 3340 O 332.102 -1.77152 0.385597 0
M  V30 3341 C 332.15 -0.340169 3.58992 0
M  V30 3342 O 331.254 -1.41982 3.87188 0
M  V30 3343 H 330.595 0.0149556 0.663832 0
M  V30 3344 H 333.125 0.667878 1.93392 0
M  V30 3345 H 333.135 -0.579332 4.03866 0
M  V30 3346 H 331.81 0.570167 4.11973 0
M  V30 3347 H 330.387 -1.16762 3.54148 0
M  V30 3348 N 332.573 -1.56217 0.208337 0
M  V30 3349 C 333.523 -2.16324 -0.720281 0
M  V30 3350 C 334.507 -1.10775 -1.16695 0
M  V30 3351 O 335.699 -1.36801 -1.12314 0
M  V30 3352 C 332.828 -2.83644 -1.93393 0
M  V30 3353 C 331.914 -3.96401 -1.50755 0
M  V30 3354 N 332.305 -4.99546 -0.792937 0
M  V30 3355 C 330.603 -4.08246 -1.79585 0
M  V30 3356 C 331.304 -5.78828 -0.577364 0
M  V30 3357 N 330.28 -5.31723 -1.1301 0
M  V30 3358 H 334.082 -2.93432 -0.165725 0
M  V30 3359 H 331.596 -1.62397 0.00906463 0
M  V30 3360 H 333.593 -3.25107 -2.60981 0
M  V30 3361 H 332.253 -2.08027 -2.49308 0
M  V30 3362 H 333.264 -5.15967 -0.447004 0
M  V30 3363 H 329.941 -3.4377 -2.36915 0
M  V30 3364 H 331.331 -6.71899 -0.00952956 0
M  V30 3365 N 334.051 0.0651679 -1.57465 0
M  V30 3366 C 334.961 1.09448 -2.07505 0
M  V30 3367 C 335.977 1.41974 -1.00595 0
M  V30 3368 O 337.153 1.52018 -1.32107 0
M  V30 3369 C 334.218 2.38689 -2.51453 0
M  V30 3370 C 333.279 2.13073 -3.72691 0
M  V30 3371 C 332.512 3.36152 -4.14533 0
M  V30 3372 O 332.735 4.45517 -3.56189 0
M  V30 3373 O 331.669 3.23974 -5.07272 0
M  V30 3374 H 335.495 0.69935 -2.95538 0
M  V30 3375 H 333.08 0.279752 -1.46757 0
M  V30 3376 H 334.962 3.14736 -2.80212 0
M  V30 3377 H 333.637 2.77568 -1.66546 0
M  V30 3378 H 332.544 1.34709 -3.49005 0
M  V30 3379 H 333.877 1.79071 -4.5847 0
M  V30 3380 N 335.529 1.53961 0.336706 0
M  V30 3381 C 336.759 1.75229 1.09446 0
M  V30 3382 C 337.167 0.494602 1.82621 0
M  V30 3383 O 336.51 -0.543764 1.75468 0
M  V30 3384 C 336.572 2.88288 2.1478 0
M  V30 3385 C 336.236 4.27656 1.6112 0
M  V30 3386 C 337.233 5.08981 1.0599 0
M  V30 3387 C 334.918 4.74161 1.6576 0
M  V30 3388 C 336.912 6.34916 0.562129 0
M  V30 3389 C 334.599 6.00067 1.15595 0
M  V30 3390 C 335.597 6.80278 0.609147 0
M  V30 3391 O 335.285 8.03818 0.114999 0
M  V30 3392 H 335.017 0.588881 0.331956 0
M  V30 3393 H 337.571 2.01614 0.392566 0
M  V30 3394 H 335.801 2.57443 2.88548 0
M  V30 3395 H 337.49 2.97461 2.76174 0
M  V30 3396 H 338.256 4.74213 1.01722 0
M  V30 3397 H 334.135 4.11781 2.07261 0
M  V30 3398 H 337.679 6.9747 0.134668 0
M  V30 3399 H 333.576 6.3433 1.19566 0
M  V30 3400 H 334.344 8.18172 0.231651 0
M  V30 3401 N 337.007 -0.598083 1.45811 0
M  V30 3402 C 338.247 -1.36802 1.5187 0
M  V30 3403 C 338.611 -1.9133 0.160224 0
M  V30 3404 O 339.812 -2.6863 0.0955302 0
M  V30 3405 C 338.083 -2.47835 2.57513 0
M  V30 3406 S 339.642 -3.35458 2.82866 0
M  V30 3407 H 336.46 -0.466278 0.536755 0
M  V30 3408 H 339.062 -0.689152 1.82951 0
M  V30 3409 H 337.766 -2.06141 3.54872 0
M  V30 3410 H 337.297 -3.20512 2.28114 0
M  V30 3411 H 339.312 -4.46251 2.16967 0
M  V30 3412 N 338.485 -1.33259 -0.841409 0
M  V30 3413 C 339.762 -1.15174 -1.58096 0
M  V30 3414 C 340.142 0.282858 -2.09196 0
M  V30 3415 O 339.49 1.28151 -1.89181 0
M  V30 3416 C 339.7 -2.1907 -2.71679 0
M  V30 3417 C 341.048 -2.53093 -3.40924 0
M  V30 3418 O 342.072 -2.17717 -2.81918 0
M  V30 3419 O 340.931 -3.1379 -4.47435 0
M  V30 3420 H 338.025 -0.445303 -0.696875 0
M  V30 3421 H 340.571 -1.44833 -0.884385 0
M  V30 3422 H 339.343 -3.15443 -2.31541 0
M  V30 3423 H 338.966 -1.90481 -3.49002 0
M  V30 3424 N 339.963 1.05934 -1.16686 0
M  V30 3425 C 341.209 1.79065 -0.95203 0
M  V30 3426 C 341.542 1.87147 0.518629 0
M  V30 3427 O 340.817 1.36574 1.38484 0
M  V30 3428 C 341.1 3.23359 -1.58464 0
M  V30 3429 C 340.953 3.23336 -3.12689 0
M  V30 3430 C 342.272 4.21004 -1.28232 0
M  V30 3431 H 339.391 0.65005 -0.34728 0
M  V30 3432 H 342.033 1.23868 -1.44072 0
M  V30 3433 H 340.183 3.70493 -1.16908 0
M  V30 3434 H 341.855 2.84336 -3.6325 0
M  V30 3435 H 340.098 2.61886 -3.4583 0
M  V30 3436 H 340.769 4.25144 -3.52075 0
M  V30 3437 H 343.245 3.8233 -1.64203 0
M  V30 3438 H 342.121 5.20225 -1.75092 0
M  V30 3439 H 342.382 4.41639 -0.201791 0
M  V30 3440 N 341.441 0.965919 1.2453 0
M  V30 3441 C 342.374 0.4393 2.23932 0
M  V30 3442 C 343.352 -0.485615 1.55179 0
M  V30 3443 O 344.536 -0.417402 1.83821 0
M  V30 3444 C 341.663 -0.366042 3.36716 0
M  V30 3445 C 340.709 0.5009 4.23548 0
M  V30 3446 S 341.542 1.94002 4.99123 0
M  V30 3447 C 342.698 1.14342 6.15367 0
M  V30 3448 H 342.931 1.28167 2.68254 0
M  V30 3449 H 340.464 0.770819 1.33782 0
M  V30 3450 H 342.422 -0.824724 4.0213 0
M  V30 3451 H 341.083 -1.18337 2.90956 0
M  V30 3452 H 340.276 -0.117341 5.03863 0
M  V30 3453 H 339.878 0.89524 3.63127 0
M  V30 3454 H 342.17 0.397572 6.76332 0
M  V30 3455 H 343.113 1.92089 6.81548 0
M  V30 3456 H 343.521 0.668579 5.60527 0
M  V30 3457 N 342.919 -1.39368 0.735821 0
M  V30 3458 C 344.167 -2.00101 0.283562 0
M  V30 3459 C 344.488 -1.5868 -1.13338 0
M  V30 3460 O 343.758 -0.835423 -1.77193 0
M  V30 3461 H 342.338 -0.740024 0.101851 0
M  V30 3462 H 345 -1.70404 0.945962 0
M  V30 3463 H 344.096 -3.10323 0.332604 0
M  V30 3464 N 344.397 -0.483516 -1.5 0
M  V30 3465 C 345.813 -0.138404 -1.58999 0
M  V30 3466 C 346.013 1.35597 -1.4905 0
M  V30 3467 O 345.069 2.13039 -1.35539 0
M  V30 3468 C 346.382 -0.699658 -2.92447 0
M  V30 3469 C 347.93 -0.664195 -3.05872 0
M  V30 3470 C 348.405 -1.20321 -4.41913 0
M  V30 3471 N 349.896 -1.16315 -4.48358 0
M  V30 3472 C 350.631 -1.55058 -5.52037 0
M  V30 3473 N 350.127 -2.01311 -6.62907 0
M  V30 3474 N 351.92 -1.46584 -5.42651 0
M  V30 3475 H 344.071 -1.45529 -1.5471 0
M  V30 3476 H 346.334 -0.60258 -0.731848 0
M  V30 3477 H 346.04 -1.747 -3.05242 0
M  V30 3478 H 345.914 -0.150194 -3.76901 0
M  V30 3479 H 348.301 0.374272 -2.92717 0
M  V30 3480 H 348.382 -1.25061 -2.23144 0
M  V30 3481 H 348.026 -2.24037 -4.55818 0
M  V30 3482 H 347.956 -0.592896 -5.23252 0
M  V30 3483 H 350.447 -0.824058 -3.68806 0
M  V30 3484 H 350.76 -2.2899 -7.38095 0
M  V30 3485 H 349.105 -2.05273 -6.63994 0
M  V30 3486 H 352.296 -1.10281 -4.54924 0
M  V30 3487 H 352.469 -1.77103 -6.23329 0
M  V30 3488 N 345.875 1.56104 -0.216619 0
M  V30 3489 C 347.121 1.98466 0.417033 0
M  V30 3490 C 347.454 1.10403 1.59765 0
M  V30 3491 O 346.729 0.160632 1.93836 0
M  V30 3492 C 347.012 3.49769 0.85637 0
M  V30 3493 C 346.865 4.48606 -0.327546 0
M  V30 3494 C 348.184 4.05339 1.7143 0
M  V30 3495 H 345.303 0.721551 0.150112 0
M  V30 3496 H 347.945 1.87423 -0.311864 0
M  V30 3497 H 346.095 3.5931 1.47745 0
M  V30 3498 H 347.767 4.5108 -0.965618 0
M  V30 3499 H 346.01 4.22682 -0.975805 0
M  V30 3500 H 346.681 5.51995 0.0227149 0
M  V30 3501 H 349.157 3.98712 1.19031 0
M  V30 3502 H 348.033 5.11533 1.99061 0
M  V30 3503 H 348.294 3.51918 2.67593 0
M  V30 3504 N 347.353 -0.0568162 1.57498 0
M  V30 3505 C 348.63 -0.786954 1.79071 0
M  V30 3506 C 349.01 -1.95028 0.80792 0
M  V30 3507 O 348.358 -2.27968 -0.155858 0
M  V30 3508 C 348.568 -1.24594 3.26002 0
M  V30 3509 C 349.916 -1.67323 3.90241 0
M  V30 3510 O 350.94 -1.34124 3.29984 0
M  V30 3511 O 349.799 -2.28842 4.9628 0
M  V30 3512 H 346.893 -0.378262 0.735423 0
M  V30 3513 H 349.439 -0.035734 1.69662 0
M  V30 3514 H 348.211 -0.41423 3.89101 0
M  V30 3515 H 347.834 -2.05803 3.40192 0
M  V30 3516 N 348.832 -1.54138 -0.328536 0
M  V30 3517 C 350.081 -1.71318 -1.06456 0
M  V30 3518 C 350.394 -0.491109 -1.89334 0
M  V30 3519 O 351.6 -0.54416 -2.65991 0
M  V30 3520 C 350.056 -3.03 -1.94214 0
M  V30 3521 C 349.664 -4.32595 -1.16471 0
M  V30 3522 C 351.408 -3.29544 -2.67583 0
M  V30 3523 C 349.315 -5.55341 -2.03347 0
M  V30 3524 H 348.245 -0.638429 -0.401155 0
M  V30 3525 H 350.896 -1.80633 -0.323106 0
M  V30 3526 H 349.278 -2.87579 -2.72239 0
M  V30 3527 H 350.452 -4.58766 -0.432525 0
M  V30 3528 H 348.767 -4.12777 -0.548063 0
M  V30 3529 H 351.364 -4.18444 -3.3288 0
M  V30 3530 H 351.707 -2.47206 -3.34955 0
M  V30 3531 H 352.24 -3.45809 -1.96623 0
M  V30 3532 H 348.979 -6.40268 -1.40491 0
M  V30 3533 H 348.499 -5.33397 -2.74313 0
M  V30 3534 H 350.178 -5.91557 -2.62049 0
M  V30 3535 N 350.31 0.590341 -1.46126 0
M  V30 3536 C 351.559 1.34499 -1.50309 0
M  V30 3537 C 351.872 1.94977 -0.156021 0
M  V30 3538 O 353.078 2.71395 -0.0756037 0
M  V30 3539 C 351.534 2.43723 -2.64815 0
M  V30 3540 C 351.142 1.89582 -4.0591 0
M  V30 3541 C 352.886 3.20579 -2.78262 0
M  V30 3542 C 350.793 2.9639 -5.11769 0
M  V30 3543 H 349.723 0.505593 -0.559368 0
M  V30 3544 H 352.374 0.630848 -1.72315 0
M  V30 3545 H 350.756 3.17902 -2.36124 0
M  V30 3546 H 351.93 1.21997 -4.44357 0
M  V30 3547 H 350.245 1.25418 -3.97063 0
M  V30 3548 H 352.842 4.00276 -3.54519 0
M  V30 3549 H 353.185 3.72684 -1.85505 0
M  V30 3550 H 353.718 2.53505 -3.06562 0
M  V30 3551 H 350.457 2.49181 -6.06291 0
M  V30 3552 H 349.977 3.62487 -4.77873 0
M  V30 3553 H 351.656 3.60474 -5.37278 0
M  V30 3554 N 351.788 1.33704 0.83433 0
M  V30 3555 C 353.016 1.28467 1.62185 0
M  V30 3556 C 353.431 -0.143526 1.88254 0
M  V30 3557 O 352.788 -1.08709 1.4659 0
M  V30 3558 C 352.839 2.06174 2.96942 0
M  V30 3559 O 352.56 3.43422 2.72016 0
M  V30 3560 C 354.061 2.08201 3.91366 0
M  V30 3561 H 351.281 0.4424 0.504503 0
M  V30 3562 H 353.825 1.76145 1.03891 0
M  V30 3563 H 351.98 1.62167 3.51825 0
M  V30 3564 H 352.394 3.83453 3.57861 0
M  V30 3565 H 353.868 2.67017 4.83121 0
M  V30 3566 H 354.345 1.07343 4.2588 0
M  V30 3567 H 354.951 2.52246 3.42421 0
M  V30 3568 N 353.266 -1.05314 1.17247 0
M  V30 3569 C 354.514 -1.77941 0.958194 0
M  V30 3570 C 354.835 -1.88089 -0.514556 0
M  V30 3571 O 354.105 -1.39676 -1.37359 0
M  V30 3572 H 352.685 -0.659116 0.351533 0
M  V30 3573 H 355.347 -1.27166 1.47699 0
M  V30 3574 H 354.443 -2.79663 1.38546 0
M  V30 3575 N 354.744 -0.972509 -1.24016 0
M  V30 3576 C 355.972 -0.654803 -1.96265 0
M  V30 3577 C 356.387 0.776708 -1.72083 0
M  V30 3578 O 355.744 1.52171 -1.00748 0
M  V30 3579 C 355.795 -0.92592 -3.49441 0
M  V30 3580 O 355.516 -2.30116 -3.72798 0
M  V30 3581 C 357.017 -0.623068 -4.38899 0
M  V30 3582 H 354.237 -0.243907 -0.6251 0
M  V30 3583 H 356.781 -1.30175 -1.57717 0
M  V30 3584 H 354.936 -0.325108 -3.86033 0
M  V30 3585 H 355.35 -2.38483 -4.67147 0
M  V30 3586 H 356.824 -0.863189 -5.45209 0
M  V30 3587 H 357.301 0.442754 -4.36963 0
M  V30 3588 H 357.907 -1.204 -4.07902 0
M  V30 3589 N 356.222 1.38976 -0.743202 0
M  V30 3590 C 357.152 2.33171 -0.123873 0
M  V30 3591 C 358.133 1.54336 0.71516 0
M  V30 3592 O 359.318 1.82696 0.658467 0
M  V30 3593 C 356.448 3.38474 0.777978 0
M  V30 3594 C 355.402 4.27979 0.0424758 0
M  V30 3595 C 354.728 5.2405 1.06189 0
M  V30 3596 C 356.028 5.10155 -1.1198 0
M  V30 3597 H 357.722 2.85213 -0.910709 0
M  V30 3598 H 355.268 1.37133 -0.439388 0
M  V30 3599 H 357.221 4.03328 1.22084 0
M  V30 3600 H 355.945 2.84891 1.59702 0
M  V30 3601 H 354.604 3.64616 -0.380853 0
M  V30 3602 H 354.252 4.66758 1.87472 0
M  V30 3603 H 353.952 5.84785 0.574485 0
M  V30 3604 H 355.476 5.9178 1.50428 0
M  V30 3605 H 356.89 5.68307 -0.75499 0
M  V30 3606 H 355.287 5.80073 -1.53738 0
M  V30 3607 H 356.357 4.44504 -1.93764 0
M  V30 3608 N 357.7 0.491464 1.49741 0
M  V30 3609 C 358.948 -0.0563141 2.02022 0
M  V30 3610 C 359.269 -1.38363 1.37407 0
M  V30 3611 O 358.539 -1.88702 0.526166 0
M  V30 3612 H 357.119 -0.0238014 0.746621 0
M  V30 3613 H 359.781 0.646533 1.83864 0
M  V30 3614 H 358.877 -0.192967 3.11503 0
M  V30 3615 N 359.178 -1.55987 0.224894 0
M  V30 3616 C 360.125 -2.20436 -0.68385 0
M  V30 3617 C 361.095 -1.16102 -1.18783 0
M  V30 3618 O 362.28 -1.4447 -1.24632 0
M  V30 3619 C 359.42 -2.89076 -1.88491 0
M  V30 3620 C 358.533 -4.08012 -1.41951 0
M  V30 3621 C 357.668 -4.64426 -2.5784 0
M  V30 3622 C 356.707 -5.75656 -2.08053 0
M  V30 3623 N 355.844 -6.26347 -3.17227 0
M  V30 3624 H 360.684 -2.97727 -0.12754 0
M  V30 3625 H 358.221 -1.47011 -0.0511978 0
M  V30 3626 H 360.179 -3.27059 -2.59014 0
M  V30 3627 H 358.809 -2.14298 -2.41405 0
M  V30 3628 H 357.861 -3.75492 -0.609095 0
M  V30 3629 H 359.173 -4.88375 -1.01447 0
M  V30 3630 H 358.327 -5.04869 -3.3644 0
M  V30 3631 H 357.066 -3.83233 -3.01635 0
M  V30 3632 H 356.071 -5.34712 -1.27916 0
M  V30 3633 H 357.296 -6.58686 -1.65255 0
M  V30 3634 H 355.242 -5.48067 -3.60497 0
M  V30 3635 H 355.159 -7.01843 -2.80986 0
M  V30 3636 H 356.427 -6.71447 -3.95953 0
M  V30 3637 N 360.656 0.0484629 -1.57525 0
M  V30 3638 C 361.619 1.03956 -2.04269 0
M  V30 3639 C 362.619 1.30211 -0.943496 0
M  V30 3640 O 363.809 1.25539 -1.20771 0
M  V30 3641 C 360.941 2.37742 -2.44319 0
M  V30 3642 H 362.134 0.636182 -2.93075 0
M  V30 3643 H 359.687 0.294811 -1.53494 0
M  V30 3644 H 360.422 2.82866 -1.5861 0
M  V30 3645 H 360.207 2.20021 -3.24551 0
M  V30 3646 H 361.697 3.08936 -2.80978 0
M  V30 3647 N 362.134 1.5431 0.320358 0
M  V30 3648 C 363.064 1.86912 1.3995 0
M  V30 3649 C 364.045 0.726211 1.53819 0
M  V30 3650 O 365.23 0.980233 1.67646 0
M  V30 3651 C 362.36 2.09932 2.7667 0
M  V30 3652 C 361.314 3.25776 2.77586 0
M  V30 3653 C 360.64 3.34173 4.17412 0
M  V30 3654 C 361.94 4.6335 2.41048 0
M  V30 3655 H 363.634 2.77292 1.12914 0
M  V30 3656 H 361.18 1.33421 0.541738 0
M  V30 3657 H 363.133 2.31324 3.52232 0
M  V30 3658 H 361.857 1.16304 3.0519 0
M  V30 3659 H 360.516 3.04276 2.04479 0
M  V30 3660 H 360.164 2.38098 4.43078 0
M  V30 3661 H 359.864 4.12033 4.18931 0
M  V30 3662 H 361.388 3.57803 4.94782 0
M  V30 3663 H 362.802 4.84602 3.06324 0
M  V30 3664 H 361.199 5.43782 2.53813 0
M  V30 3665 H 362.269 4.65381 1.36193 0
M  V30 3666 N 363.613 -0.582584 1.46437 0
M  V30 3667 C 364.861 -1.33814 1.51453 0
M  V30 3668 C 365.182 -1.94277 0.167792 0
M  V30 3669 O 364.452 -1.78566 -0.805677 0
M  V30 3670 H 363.032 -0.496838 0.557818 0
M  V30 3671 H 365.694 -0.682281 1.82568 0
M  V30 3672 H 364.79 -2.14479 2.26728 0
M  V30 3673 N 365.091 -1.34144 -0.827227 0
M  V30 3674 C 366.339 -1.26009 -1.58007 0
M  V30 3675 C 366.66 0.170971 -1.94249 0
M  V30 3676 O 365.93 1.10256 -1.61927 0
M  V30 3677 H 364.51 -0.463414 -0.585881 0
M  V30 3678 H 367.172 -1.68005 -0.987951 0
M  V30 3679 H 366.268 -1.86187 -2.50481 0
M  V30 3680 N 366.569 1.04691 -1.17803 0
M  V30 3681 C 367.532 2.10724 -0.901545 0
M  V30 3682 C 368.532 1.6042 0.110437 0
M  V30 3683 O 369.722 1.7377 -0.122303 0
M  V30 3684 C 366.854 3.39084 -0.351409 0
M  V30 3685 H 368.047 2.36686 -1.84174 0
M  V30 3686 H 365.6 1.21015 -0.98919 0
M  V30 3687 H 366.335 3.18782 0.59569 0
M  V30 3688 H 366.12 3.76909 -1.08083 0
M  V30 3689 H 367.61 4.17227 -0.176451 0
M  V30 3690 N 368.047 0.979072 1.23499 0
M  V30 3691 C 369.272 0.664845 1.96455 0
M  V30 3692 C 369.697 -0.761287 1.72006 0
M  V30 3693 O 369.055 -1.51837 0.990713 0
M  V30 3694 C 369.103 0.959479 3.47601 0
M  V30 3695 O 368.207 0.0508168 4.12369 0
M  V30 3696 H 367.548 0.250185 0.615064 0
M  V30 3697 H 370.078 1.31231 1.5697 0
M  V30 3698 H 370.088 0.895642 3.98048 0
M  V30 3699 H 368.763 1.99876 3.64723 0
M  V30 3700 H 367.34 0.16895 3.72517 0
M  V30 3701 N 369.525 -1.3858 0.750561 0
M  V30 3702 C 370.773 -1.99789 0.30477 0
M  V30 3703 C 371.094 -1.59874 -1.11649 0
M  V30 3704 O 370.364 -0.85417 -1.76297 0
M  V30 3705 H 368.944 -0.738902 0.109694 0
M  V30 3706 H 371.606 -1.69391 0.963983 0
M  V30 3707 H 370.702 -3.09952 0.365499 0
M  V30 3708 N 371.003 -0.499398 -1.49478 0
M  V30 3709 C 372.251 0.0455996 -2.02049 0
M  V30 3710 C 372.572 1.37633 -1.38138 0
M  V30 3711 O 371.842 1.8842 -0.536166 0
M  V30 3712 H 370.422 0.0198416 -0.746736 0
M  V30 3713 H 373.084 -0.656274 -1.83519 0
M  V30 3714 H 372.18 0.176445 -3.11601 0
M  V30 3715 N 372.481 1.55866 -0.233164 0
M  V30 3716 C 373.711 2.02704 0.399325 0
M  V30 3717 C 374.119 1.11204 1.53069 0
M  V30 3718 O 373.462 0.116182 1.83332 0
M  V30 3719 C 373.524 3.45844 0.981429 0
M  V30 3720 C 373.188 4.56997 -0.0159561 0
M  V30 3721 C 374.185 5.13384 -0.820552 0
M  V30 3722 C 371.87 5.0211 -0.138072 0
M  V30 3723 C 373.864 6.13365 -1.73386 0
M  V30 3724 C 371.551 6.01926 -1.0549 0
M  V30 3725 C 372.549 6.57431 -1.85132 0
M  V30 3726 O 372.237 7.55302 -2.75272 0
M  V30 3727 H 371.969 0.668459 0.100692 0
M  V30 3728 H 374.523 2.02387 -0.35052 0
M  V30 3729 H 372.753 3.43267 1.78058 0
M  V30 3730 H 374.442 3.76262 1.52255 0
M  V30 3731 H 375.208 4.79372 -0.736721 0
M  V30 3732 H 371.087 4.5858 0.471737 0
M  V30 3733 H 374.631 6.56614 -2.35592 0
M  V30 3734 H 370.528 6.35359 -1.1397 0
M  V30 3735 H 371.296 7.72867 -2.69477 0
M  V30 3736 N 373.959 -0.0401083 1.57549 0
M  V30 3737 C 375.187 -0.745196 1.93014 0
M  V30 3738 C 375.602 -1.6948 0.831984 0
M  V30 3739 O 374.959 -1.81482 -0.192463 0
M  V30 3740 C 375.01 -1.51176 3.28372 0
M  V30 3741 O 374.731 -0.600284 4.33968 0
M  V30 3742 C 376.232 -2.315 3.78051 0
M  V30 3743 H 373.452 -0.210088 0.637263 0
M  V30 3744 H 375.996 -0.000924689 2.045 0
M  V30 3745 H 374.151 -2.20801 3.18317 0
M  V30 3746 H 374.565 -1.13669 5.12035 0
M  V30 3747 H 376.039 -2.80697 4.75303 0
M  V30 3748 H 376.516 -3.12436 3.08675 0
M  V30 3749 H 377.122 -1.66971 3.91153 0
M  V30 3750 N 375.437 -1.54477 -0.31217 0
M  V30 3751 C 376.4 -1.83923 -1.36766 0
M  V30 3752 C 377.4 -0.711563 -1.44199 0
M  V30 3753 O 378.59 -0.979866 -1.44029 0
M  V30 3754 C 375.722 -2.0095 -2.75376 0
M  V30 3755 H 376.915 -2.78239 -1.11906 0
M  V30 3756 H 374.468 -1.46369 -0.548257 0
M  V30 3757 H 375.203 -1.08883 -3.05475 0
M  V30 3758 H 374.988 -2.83018 -2.71373 0
M  V30 3759 H 376.478 -2.2514 -3.51713 0
M  V30 3760 N 376.915 0.57481 -1.46744 0
M  V30 3761 C 377.878 1.66533 -1.57478 0
M  V30 3762 C 378.878 1.54338 -0.451263 0
M  V30 3763 O 380.068 1.58814 -0.715813 0
M  V30 3764 C 377.2 3.05999 -1.50259 0
M  V30 3765 H 378.393 1.58372 -2.54673 0
M  V30 3766 H 375.946 0.793301 -1.34672 0
M  V30 3767 H 376.681 3.19709 -0.543725 0
M  V30 3768 H 376.466 3.16259 -2.31781 0
M  V30 3769 H 377.956 3.8537 -1.60872 0
M  V30 3770 N 378.394 1.34581 0.820102 0
M  V30 3771 C 379.81 1.14325 1.11364 0
M  V30 3772 C 380.01 -0.0533648 2.01429 0
M  V30 3773 O 379.066 -0.728044 2.41776 0
M  V30 3774 C 380.379 2.43983 1.75764 0
M  V30 3775 C 381.927 2.50065 1.88246 0
M  V30 3776 C 382.402 3.79732 2.56061 0
M  V30 3777 N 383.893 3.80908 2.63558 0
M  V30 3778 C 384.628 4.77961 3.16766 0
M  V30 3779 N 384.124 5.85397 3.70517 0
M  V30 3780 N 385.917 4.65413 3.15194 0
M  V30 3781 H 378.068 2.11246 0.221096 0
M  V30 3782 H 380.331 0.934289 0.160649 0
M  V30 3783 H 380.037 3.31651 1.1705 0
M  V30 3784 H 379.911 2.57531 2.75604 0
M  V30 3785 H 382.298 1.62834 2.46108 0
M  V30 3786 H 382.379 2.40442 0.873006 0
M  V30 3787 H 382.023 4.67354 1.98853 0
M  V30 3788 H 381.953 3.86639 3.57516 0
M  V30 3789 H 384.444 3.03274 2.25463 0
M  V30 3790 H 384.757 6.55463 4.09376 0
M  V30 3791 H 383.102 5.89107 3.68752 0
M  V30 3792 H 386.293 3.80627 2.72471 0
M  V30 3793 H 386.466 5.41216 3.56356 0
M  V30 3794 N 379.872 -1.04064 1.18357 0
M  V30 3795 C 380.819 -2.12077 0.910603 0
M  V30 3796 C 381.789 -1.65421 -0.15 0
M  V30 3797 O 382.974 -1.90797 -0.0103614 0
M  V30 3798 C 380.114 -3.42252 0.442472 0
M  V30 3799 C 379.227 -4.0252 1.5685 0
M  V30 3800 C 378.362 -5.20657 1.05309 0
M  V30 3801 C 377.401 -5.72955 2.1538 0
M  V30 3802 N 376.538 -6.8238 1.65233 0
M  V30 3803 H 381.378 -2.34764 1.83548 0
M  V30 3804 H 378.915 -1.15157 0.915279 0
M  V30 3805 H 380.873 -4.16921 0.152534 0
M  V30 3806 H 379.503 -3.19712 -0.445428 0
M  V30 3807 H 378.555 -3.25178 1.97391 0
M  V30 3808 H 379.867 -4.37362 2.39824 0
M  V30 3809 H 379.021 -6.0244 0.717677 0
M  V30 3810 H 377.76 -4.87318 0.19293 0
M  V30 3811 H 376.765 -4.89793 2.49766 0
M  V30 3812 H 377.99 -6.08337 3.01832 0
M  V30 3813 H 375.936 -6.50917 0.815064 0
M  V30 3814 H 375.853 -7.16286 2.41805 0
M  V30 3815 H 377.121 -7.67788 1.34619 0
M  V30 3816 N 381.35 -0.985608 -1.22978 0
M  V30 3817 C 382.26 -0.538548 -2.28335 0
M  V30 3818 C 383.276 0.409163 -1.69121 0
M  V30 3819 O 384.452 0.277797 -1.99475 0
M  V30 3820 C 381.517 0.146867 -3.46389 0
M  V30 3821 C 380.578 -0.842896 -4.20944 0
M  V30 3822 C 379.811 -0.190095 -5.33361 0
M  V30 3823 O 380.034 1.01767 -5.61248 0
M  V30 3824 O 378.968 -0.891289 -5.95264 0
M  V30 3825 H 382.794 -1.41487 -2.68729 0
M  V30 3826 H 380.379 -0.753495 -1.29007 0
M  V30 3827 H 382.261 0.531125 -4.1804 0
M  V30 3828 H 380.936 0.997871 -3.07935 0
M  V30 3829 H 379.843 -1.27795 -3.51595 0
M  V30 3830 H 381.176 -1.66287 -4.6326 0
M  V30 3831 N 382.828 1.3818 -0.7579 0
M  V30 3832 C 384.074 2.00316 -0.316453 0
M  V30 3833 C 384.407 1.60026 1.10025 0
M  V30 3834 O 383.682 0.839835 1.75434 0
M  V30 3835 C 383.965 3.57349 -0.444245 0
M  V30 3836 C 383.818 4.07591 -1.90236 0
M  V30 3837 C 385.137 4.3981 0.1598 0
M  V30 3838 H 382.256 0.727741 -0.116459 0
M  V30 3839 H 384.898 1.6406 -0.958352 0
M  V30 3840 H 383.048 3.88365 0.102233 0
M  V30 3841 H 384.72 3.87199 -2.50748 0
M  V30 3842 H 382.963 3.60297 -2.41595 0
M  V30 3843 H 383.634 5.16677 -1.94291 0
M  V30 3844 H 386.11 4.14971 -0.306314 0
M  V30 3845 H 384.986 5.48885 0.0401675 0
M  V30 3846 H 385.247 4.24102 1.24859 0
M  V30 3847 N 384.306 0.507319 1.49211 0
M  V30 3848 C 385.552 -0.0350047 2.0277 0
M  V30 3849 C 385.885 -1.3606 1.38569 0
M  V30 3850 O 385.16 -1.87321 0.523542 0
M  V30 3851 C 385.443 -0.180916 3.59645 0
M  V30 3852 C 385.296 1.16825 4.34364 0
M  V30 3853 C 386.615 -0.918558 4.30407 0
M  V30 3854 H 383.734 -0.0112473 0.736914 0
M  V30 3855 H 386.376 0.659956 1.7817 0
M  V30 3856 H 384.526 -0.772826 3.80736 0
M  V30 3857 H 386.198 1.79952 4.24753 0
M  V30 3858 H 384.441 1.75594 3.96673 0
M  V30 3859 H 385.112 1.01939 5.42506 0
M  V30 3860 H 387.588 -0.41649 4.1401 0
M  V30 3861 H 386.464 -0.989505 5.39907 0
M  V30 3862 H 386.725 -1.96373 3.96093 0
M  V30 3863 N 385.784 -1.5574 0.241426 0
M  V30 3864 C 386.694 -2.2479 -0.671305 0
M  V30 3865 C 387.71 -1.26217 -1.19772 0
M  V30 3866 O 388.886 -1.59079 -1.23514 0
M  V30 3867 C 385.951 -2.92966 -1.85396 0
M  V30 3868 C 385.012 -4.06935 -1.36756 0
M  V30 3869 C 384.245 -4.71851 -2.49384 0
M  V30 3870 O 384.468 -4.35823 -3.67987 0
M  V30 3871 O 383.402 -5.60467 -2.19454 0
M  V30 3872 H 387.228 -3.0349 -0.112966 0
M  V30 3873 H 384.813 -1.49397 0.0101513 0
M  V30 3874 H 386.695 -3.35927 -2.54423 0
M  V30 3875 H 385.37 -2.17211 -2.40002 0
M  V30 3876 H 384.277 -3.68503 -0.644726 0
M  V30 3877 H 385.61 -4.84492 -0.867647 0
M  V30 3878 N 387.262 0.0317525 -1.57568 0
M  V30 3879 C 388.508 0.718712 -1.90279 0
M  V30 3880 C 388.863 1.73108 -0.839727 0
M  V30 3881 O 388.156 1.90997 0.15188 0
M  V30 3882 C 388.35 1.43167 -3.27472 0
M  V30 3883 C 388.179 0.489869 -4.47024 0
M  V30 3884 C 386.949 0.111909 -5.05176 0
M  V30 3885 C 389.147 -0.230592 -5.13783 0
M  V30 3886 N 387.129 -0.831427 -6.08244 0
M  V30 3887 C 388.5 -1.02968 -6.1139 0
M  V30 3888 C 390.555 -0.297821 -4.97008 0
M  V30 3889 C 389.258 -1.88982 -6.9403 0
M  V30 3890 C 391.284 -1.14507 -5.80209 0
M  V30 3891 C 390.646 -1.9321 -6.77384 0
M  V30 3892 H 386.745 0.237177 -0.745165 0
M  V30 3893 H 389.329 -0.0211267 -1.94689 0
M  V30 3894 H 387.5 2.14199 -3.23996 0
M  V30 3895 H 389.232 2.0708 -3.47707 0
M  V30 3896 H 385.987 0.473513 -4.71227 0
M  V30 3897 H 386.411 -1.29752 -6.6445 0
M  V30 3898 H 391.053 0.296346 -4.2176 0
M  V30 3899 H 388.771 -2.4948 -7.68626 0
M  V30 3900 H 392.357 -1.20059 -5.69278 0
M  V30 3901 H 391.237 -2.57711 -7.40645 0
M  V30 3902 N 388.74 1.54641 0.303973 0
M  V30 3903 C 389.67 1.88386 1.3796 0
M  V30 3904 C 390.651 0.742485 1.5304 0
M  V30 3905 O 391.836 0.997959 1.66597 0
M  V30 3906 C 388.966 2.12854 2.74427 0
M  V30 3907 C 387.92 3.28702 2.74115 0
M  V30 3908 C 387.246 3.38582 4.13844 0
M  V30 3909 C 388.546 4.65881 2.3612 0
M  V30 3910 H 390.24 2.78474 1.09966 0
M  V30 3911 H 387.786 1.33988 0.527556 0
M  V30 3912 H 389.739 2.35047 3.49758 0
M  V30 3913 H 388.463 1.19535 3.03939 0
M  V30 3914 H 387.122 3.06428 2.0124 0
M  V30 3915 H 386.77 2.42784 4.40528 0
M  V30 3916 H 386.47 4.16453 4.14537 0
M  V30 3917 H 387.994 3.63031 4.90959 0
M  V30 3918 H 389.408 4.87823 3.01167 0
M  V30 3919 H 387.805 5.46444 2.48031 0
M  V30 3920 H 388.875 4.66799 1.3125 0
M  V30 3921 N 390.218 -0.567019 1.47046 0
M  V30 3922 C 391.634 -0.891975 1.32348 0
M  V30 3923 C 391.834 -1.99154 0.306616 0
M  V30 3924 O 390.89 -2.50883 -0.28532 0
M  V30 3925 C 392.203 -1.29449 2.7141 0
M  V30 3926 C 393.751 -1.40646 2.79621 0
M  V30 3927 C 394.226 -1.84257 4.19301 0
M  V30 3928 N 395.717 -1.91424 4.21795 0
M  V30 3929 C 396.452 -2.26476 5.26779 0
M  V30 3930 N 395.948 -2.60211 6.42077 0
M  V30 3931 N 397.741 -2.27166 5.14152 0
M  V30 3932 H 389.892 0.159074 2.11803 0
M  V30 3933 H 392.155 0.00849752 0.947962 0
M  V30 3934 H 391.861 -0.560448 3.47206 0
M  V30 3935 H 391.735 -2.25273 3.02542 0
M  V30 3936 H 394.122 -2.13133 2.04104 0
M  V30 3937 H 394.203 -0.430339 2.52154 0
M  V30 3938 H 393.847 -1.12343 4.95319 0
M  V30 3939 H 393.777 -2.82855 4.44185 0
M  V30 3940 H 396.268 -1.6778 3.38612 0
M  V30 3941 H 396.581 -2.85956 7.17948 0
M  V30 3942 H 394.926 -2.57813 6.45413 0
M  V30 3943 H 398.117 -2.00244 4.23107 0
M  V30 3944 H 398.29 -2.54154 5.96079 0
M  V30 3945 N 391.696 -1.35014 -0.812953 0
M  V30 3946 C 392.628 -1.23262 -1.93233 0
M  V30 3947 C 393.641 -0.157371 -1.62038 0
M  V30 3948 O 394.83 -0.410096 -1.73725 0
M  V30 3949 C 391.93 -0.87392 -3.27438 0
M  V30 3950 C 391.103 -2.04622 -3.86586 0
M  V30 3951 C 390.162 -1.66432 -4.99186 0
M  V30 3952 O 389.188 -2.38222 -5.16951 0
M  V30 3953 N 390.39 -0.584248 -5.77552 0
M  V30 3954 H 393.155 -2.19699 -2.03844 0
M  V30 3955 H 390.716 -1.281 -0.99005 0
M  V30 3956 H 392.708 -0.600039 -4.00227 0
M  V30 3957 H 391.278 0.00057392 -3.126 0
M  V30 3958 H 390.498 -2.48427 -3.06068 0
M  V30 3959 H 391.786 -2.82999 -4.22835 0
M  V30 3960 H 391.184 0.0123526 -5.65699 0
M  V30 3961 H 389.741 -0.37013 -6.50748 0
M  V30 3962 N 393.175 1.03435 -1.18907 0
M  V30 3963 C 394.591 1.28973 -0.940111 0
M  V30 3964 C 394.791 1.97676 0.390691 0
M  V30 3965 O 393.847 2.26127 1.12352 0
M  V30 3966 C 395.16 2.14221 -2.11021 0
M  V30 3967 C 396.708 2.27547 -2.14922 0
M  V30 3968 C 397.183 3.16164 -3.31367 0
M  V30 3969 N 398.674 3.23752 -3.31269 0
M  V30 3970 C 399.409 3.92495 -4.18014 0
M  V30 3971 N 398.905 4.63515 -5.14904 0
M  V30 3972 N 400.698 3.88838 -4.05908 0
M  V30 3973 H 392.849 0.57252 -2.04538 0
M  V30 3974 H 395.112 0.315184 -0.894071 0
M  V30 3975 H 394.818 1.71054 -3.073 0
M  V30 3976 H 394.692 3.14919 -2.0762 0
M  V30 3977 H 397.079 2.69947 -1.19217 0
M  V30 3978 H 397.16 1.26418 -2.22378 0
M  V30 3979 H 396.804 2.74474 -4.27348 0
M  V30 3980 H 396.734 4.17339 -3.21148 0
M  V30 3981 H 399.225 2.73167 -2.61129 0
M  V30 3982 H 399.538 5.13583 -5.77453 0
M  V30 3983 H 397.883 4.62398 -5.18857 0
M  V30 3984 H 401.074 3.32491 -3.29495 0
M  V30 3985 H 401.247 4.4214 -4.73726 0
M  V30 3986 N 394.653 0.992116 1.22453 0
M  V30 3987 C 395.878 0.685644 1.95739 0
M  V30 3988 C 396.303 -0.743 1.72804 0
M  V30 3989 O 395.661 -1.50778 1.00676 0
M  V30 3990 C 395.709 0.996293 3.46564 0
M  V30 3991 O 394.813 0.0945512 4.12292 0
M  V30 3992 H 394.154 0.256694 0.612376 0
M  V30 3993 H 396.684 1.32888 1.5557 0
M  V30 3994 H 396.694 0.93781 3.97076 0
M  V30 3995 H 395.369 2.03733 3.62582 0
M  V30 3996 H 393.946 0.208451 3.72317 0
M  V30 3997 N 396.131 -1.37776 0.765217 0
M  V30 3998 C 397.547 -1.53297 0.444108 0
M  V30 3999 C 397.747 -1.72515 -1.04119 0
M  V30 4000 O 396.803 -1.74278 -1.82711 0
M  V30 4001 C 398.116 -2.73328 1.25349 0
M  V30 4002 C 399.664 -2.87185 1.24473 0
M  V30 4003 C 400.139 -4.10191 2.03733 0
M  V30 4004 N 401.63 -4.17291 2.01053 0
M  V30 4005 C 402.365 -5.11488 2.59166 0
M  V30 4006 N 401.861 -6.11285 3.26041 0
M  V30 4007 N 403.654 -5.03924 2.49032 0
M  V30 4008 H 395.805 -1.23552 1.72768 0
M  V30 4009 H 398.068 -0.601103 0.733062 0
M  V30 4010 H 397.774 -2.6557 2.30577 0
M  V30 4011 H 397.648 -3.66834 0.87823 0
M  V30 4012 H 400.035 -2.94418 0.20047 0
M  V30 4013 H 400.116 -1.94657 1.65959 0
M  V30 4014 H 399.76 -4.0372 3.08176 0
M  V30 4015 H 399.69 -5.01821 1.59633 0
M  V30 4016 H 402.181 -3.45825 1.5236 0
M  V30 4017 H 402.494 -6.79678 3.67774 0
M  V30 4018 H 400.839 -6.11583 3.30138 0
M  V30 4019 H 404.03 -4.24902 1.96407 0
M  V30 4020 H 404.203 -5.77152 2.94617 0
M  V30 4021 N 397.609 -0.515225 -1.4894 0
M  V30 4022 C 399.02 -0.0710067 -1.86565 0
M  V30 4023 C 399.371 1.34733 -1.42623 0
M  V30 4024 O 398.496 2.00653 -0.810379 0
M  V30 4025 C 399.091 -0.122083 -3.3858 0
M  V30 4026 C 397.65 0.266863 -3.75453 0
M  V30 4027 C 396.797 -0.488376 -2.72966 0
M  V30 4028 H 399.748 -0.727266 -1.41055 0
M  V30 4029 H 399.769 0.669818 -3.74558 0
M  V30 4030 H 399.281 -1.15448 -3.70531 0
M  V30 4031 H 397.382 1.30196 -3.49113 0
M  V30 4032 H 397.495 -0.0624811 -4.79059 0
M  V30 4033 H 395.859 0.0635622 -2.54621 0
M  V30 4034 H 396.642 -1.52113 -3.07761 0
M  V30 4035 N 399.087 1.5561 -0.249682 0
M  V30 4036 C 400.317 2.03116 0.377803 0
M  V30 4037 C 400.725 1.12822 1.51881 0
M  V30 4038 O 400.068 0.13562 1.83199 0
M  V30 4039 C 400.13 3.46866 0.944693 0
M  V30 4040 C 399.794 4.56955 -0.0644259 0
M  V30 4041 C 400.791 5.12485 -0.874957 0
M  V30 4042 C 398.476 5.01936 -0.19132 0
M  V30 4043 C 400.47 6.11491 -1.79881 0
M  V30 4044 C 398.157 6.00773 -1.11868 0
M  V30 4045 C 399.155 6.5543 -1.92095 0
M  V30 4046 O 398.843 7.5234 -2.83267 0
M  V30 4047 H 398.575 0.669489 0.0935961 0
M  V30 4048 H 401.129 2.02004 -0.371966 0
M  V30 4049 H 399.359 3.45136 1.74407 0
M  V30 4050 H 401.048 3.77856 1.48255 0
M  V30 4051 H 401.814 4.78564 -0.787523 0
M  V30 4052 H 397.693 4.59055 0.423072 0
M  V30 4053 H 401.237 6.54078 -2.42543 0
M  V30 4054 H 397.134 6.34114 -1.20703 0
M  V30 4055 H 397.902 7.69966 -2.7766 0
M  V30 4056 N 400.565 -0.0233959 1.57583 0
M  V30 4057 C 401.495 -1.02162 2.09965 0
M  V30 4058 C 402.476 -1.3735 1.00344 0
M  V30 4059 O 403.661 -1.46135 1.27899 0
M  V30 4060 C 400.791 -2.32081 2.58371 0
M  V30 4061 C 399.745 -2.1112 3.72307 0
M  V30 4062 C 399.071 -3.46848 4.06941 0
M  V30 4063 C 400.371 -1.49276 5.00514 0
M  V30 4064 H 402.065 -0.585557 2.93618 0
M  V30 4065 H 399.611 -0.280218 1.41247 0
M  V30 4066 H 401.564 -3.02249 2.93639 0
M  V30 4067 H 400.288 -2.77758 1.71808 0
M  V30 4068 H 398.947 -1.43384 3.37397 0
M  V30 4069 H 398.595 -3.90184 3.17436 0
M  V30 4070 H 398.295 -3.33646 4.83688 0
M  V30 4071 H 399.819 -4.18369 4.44747 0
M  V30 4072 H 401.233 -2.09368 5.33702 0
M  V30 4073 H 399.63 -1.46632 5.8191 0
M  V30 4074 H 400.7 -0.459217 4.82721 0
M  V30 4075 N 402.043 -1.548 -0.295768 0
M  V30 4076 C 403.29 -1.74329 -1.03032 0
M  V30 4077 C 403.618 -0.531915 -1.87085 0
M  V30 4078 O 402.873 0.486052 -1.89568 0
M  V30 4079 C 403.172 -2.98797 -1.961 0
M  V30 4080 C 402.838 -4.32356 -1.2798 0
M  V30 4081 C 401.5 -4.68661 -1.09135 0
M  V30 4082 C 403.852 -5.15128 -0.793243 0
M  V30 4083 C 401.18 -5.85312 -0.403269 0
M  V30 4084 C 403.532 -6.32488 -0.118854 0
M  V30 4085 C 402.196 -6.6745 0.0815043 0
M  V30 4086 H 401.466 -0.637916 -0.37702 0
M  V30 4087 H 404.113 -1.8906 -0.304696 0
M  V30 4088 H 402.418 -2.78869 -2.75207 0
M  V30 4089 H 404.115 -3.11102 -2.53015 0
M  V30 4090 H 400.705 -4.03808 -1.43655 0
M  V30 4091 H 404.889 -4.87575 -0.92653 0
M  V30 4092 H 400.145 -6.1094 -0.237098 0
M  V30 4093 H 404.319 -6.95892 0.266035 0
M  V30 4094 H 401.946 -7.57695 0.616685 0
M  V30 4095 N 403.521 0.559213 -1.47345 0
M  V30 4096 C 404.746 1.34676 -1.57725 0
M  V30 4097 C 405.171 1.86723 -0.227164 0
M  V30 4098 O 404.529 1.6286 0.796642 0
M  V30 4099 C 404.577 2.49399 -2.60447 0
M  V30 4100 O 403.681 3.51567 -2.15578 0
M  V30 4101 H 403.022 0.400115 -0.52991 0
M  V30 4102 H 405.552 0.676009 -1.93109 0
M  V30 4103 H 405.562 2.95996 -2.80803 0
M  V30 4104 H 404.237 2.10873 -3.58477 0
M  V30 4105 H 402.814 3.11289 -2.05313 0
M  V30 4106 N 404.999 1.35443 0.805782 0
M  V30 4107 C 405.947 1.28465 1.93906 0
M  V30 4108 C 406.941 0.17943 1.68447 0
M  V30 4109 O 408.147 0.345459 1.76654 0
M  V30 4110 H 404.522 0.399528 0.637088 0
M  V30 4111 H 406.493 2.24206 1.96912 0
M  V30 4112 C 405.242 1.07432 3.30687 0
M  V30 4113 H 404.565 1.91716 3.50835 0
M  V30 4114 H 406.005 1.06591 4.10383 0
M  V30 4115 C 404.464 -0.22179 3.36169 0
M  V30 4116 O 404.994 -1.21731 3.82811 0
M  V30 4117 N 403.2 -0.260841 2.89427 0
M  V30 4118 H 402.747 0.549884 2.51663 0
M  V30 4119 H 402.705 -1.12777 2.93477 0
M  V30 4120 N 406.477 -1.02803 1.19454 0
M  V30 4121 C 407.702 -1.80378 1.02364 0
M  V30 4122 C 408.127 -1.83282 -0.423007 0
M  V30 4123 O 407.485 -1.25945 -1.30413 0
M  V30 4124 C 407.533 -3.23248 1.59821 0
M  V30 4125 O 406.637 -4.04 0.828105 0
M  V30 4126 H 405.978 -0.556799 0.361761 0
M  V30 4127 H 408.508 -1.29385 1.58495 0
M  V30 4128 H 408.518 -3.73994 1.63073 0
M  V30 4129 H 407.193 -3.2045 2.65113 0
M  V30 4130 H 405.77 -3.62635 0.86891 0
M  V30 4131 N 407.956 -0.998596 -1.21925 0
M  V30 4132 C 408.886 -0.573688 -2.26343 0
M  V30 4133 C 409.867 0.402296 -1.65274 0
M  V30 4134 O 411.052 0.291683 -1.91997 0
M  V30 4135 C 408.182 0.106839 -3.47136 0
M  V30 4136 C 407.136 -0.788269 -4.20678 0
M  V30 4137 C 406.462 0.0254927 -5.34694 0
M  V30 4138 C 407.762 -2.08784 -4.78755 0
M  V30 4139 H 409.456 -1.44651 -2.62138 0
M  V30 4140 H 407.002 -0.696975 -1.26009 0
M  V30 4141 H 408.955 0.415531 -4.19346 0
M  V30 4142 H 407.679 1.01424 -3.10452 0
M  V30 4143 H 406.338 -1.08069 -3.50309 0
M  V30 4144 H 405.986 0.933989 -4.94253 0
M  V30 4145 H 405.686 -0.570437 -5.84825 0
M  V30 4146 H 407.21 0.328147 -6.09718 0
M  V30 4147 H 408.624 -1.84272 -5.42878 0
M  V30 4148 H 407.021 -2.63307 -5.39249 0
M  V30 4149 H 408.091 -2.76284 -3.98491 0
M  V30 4150 N 409.434 1.37368 -0.772513 0
M  V30 4151 C 410.397 2.28601 -0.165541 0
M  V30 4152 C 411.397 1.48062 0.627238 0
M  V30 4153 O 412.587 1.68268 0.450715 0
M  V30 4154 C 409.719 3.32023 0.772897 0
M  V30 4155 H 410.912 2.83787 -0.969787 0
M  V30 4156 H 408.465 1.46647 -0.540775 0
M  V30 4157 H 409.2 2.81962 1.60212 0
M  V30 4158 H 408.985 3.91555 0.206585 0
M  V30 4159 H 410.475 4.00197 1.19298 0
M  V30 4160 N 410.912 0.523116 1.48665 0
M  V30 4161 C 412.323 0.0808997 1.86525 0
M  V30 4162 C 412.674 -1.33975 1.43336 0
M  V30 4163 O 411.799 -2.00221 0.821009 0
M  V30 4164 C 412.394 0.140037 3.3851 0
M  V30 4165 C 410.953 -0.246948 3.75589 0
M  V30 4166 C 410.1 0.502845 2.72703 0
M  V30 4167 H 413.051 0.734736 1.40667 0
M  V30 4168 H 413.072 -0.649945 3.74908 0
M  V30 4169 H 412.584 1.17412 3.69914 0
M  V30 4170 H 410.685 -1.28343 3.49798 0
M  V30 4171 H 410.798 0.0878859 4.79019 0
M  V30 4172 H 409.162 -0.0500581 2.54651 0
M  V30 4173 H 409.945 1.53743 3.0695 0
M  V30 4174 N 412.39 -1.55475 0.257931 0
M  V30 4175 C 413.353 -2.20551 -0.623706 0
M  V30 4176 C 414.353 -1.17809 -1.09443 0
M  V30 4177 O 415.543 -1.42823 -0.997362 0
M  V30 4178 C 412.675 -2.85784 -1.8585 0
M  V30 4179 H 413.868 -2.99848 -0.0557743 0
M  V30 4180 H 411.421 -1.56298 0.0084422 0
M  V30 4181 H 412.156 -2.10453 -2.46739 0
M  V30 4182 H 411.941 -3.61057 -1.52907 0
M  V30 4183 H 413.431 -3.35553 -2.48584 0
M  V30 4184 N 413.868 0.0150385 -1.57593 0
M  V30 4185 C 415.117 0.702115 -1.89085 0
M  V30 4186 C 415.43 1.75764 -0.858277 0
M  V30 4187 O 416.636 2.49829 -1.0629 0
M  V30 4188 C 415.092 1.29992 -3.35604 0
M  V30 4189 C 414.7 0.280007 -4.47124 0
M  V30 4190 C 416.444 1.96606 -3.76227 0
M  V30 4191 C 414.351 0.886949 -5.84711 0
M  V30 4192 H 413.281 0.265997 -0.705522 0
M  V30 4193 H 415.932 -0.0430408 -1.8345 0
M  V30 4194 H 414.314 2.09525 -3.36029 0
M  V30 4195 H 415.488 -0.489631 -4.58191 0
M  V30 4196 H 413.803 -0.284835 -4.15425 0
M  V30 4197 H 416.4 2.42893 -4.76347 0
M  V30 4198 H 416.743 2.79024 -3.08952 0
M  V30 4199 H 417.276 1.23828 -3.78036 0
M  V30 4200 H 414.015 0.101876 -6.55421 0
M  V30 4201 H 413.535 1.6261 -5.77337 0
M  V30 4202 H 415.214 1.39011 -6.3189 0
M  V30 4203 N 415.346 1.54954 0.287554 0
M  V30 4204 C 416.592 1.75132 1.02257 0
M  V30 4205 C 416.925 0.542858 1.86458 0
M  V30 4206 O 416.2 -0.459856 1.88986 0
M  V30 4207 C 416.483 3.04812 1.91733 0
M  V30 4208 C 416.336 4.35985 1.10622 0
M  V30 4209 C 417.655 3.30438 2.90687 0
M  V30 4210 H 414.774 0.637194 0.370341 0
M  V30 4211 H 417.416 1.87678 0.296111 0
M  V30 4212 H 415.566 2.94247 2.53675 0
M  V30 4213 H 417.238 4.58487 0.508636 0
M  V30 4214 H 415.481 4.31865 0.409271 0
M  V30 4215 H 416.152 5.23017 1.76513 0
M  V30 4216 H 418.628 3.40701 2.38877 0
M  V30 4217 H 417.504 4.22467 3.50447 0
M  V30 4218 H 417.765 2.49377 3.65053 0
M  V30 4219 N 416.824 -0.551391 1.4764 0
M  V30 4220 C 417.787 -1.64007 1.60107 0
M  V30 4221 C 418.787 -1.53601 0.47576 0
M  V30 4222 O 419.977 -1.57655 0.740988 0
M  V30 4223 C 417.109 -3.03569 1.55108 0
M  V30 4224 H 418.302 -1.543 2.57161 0
M  V30 4225 H 415.855 -0.771776 1.35917 0
M  V30 4226 H 416.59 -3.18804 0.594519 0
M  V30 4227 H 416.375 -3.12532 2.36783 0
M  V30 4228 H 417.865 -3.82762 1.66982 0
M  V30 4229 N 418.302 -1.35869 -0.798587 0
M  V30 4230 C 419.265 -1.29307 -1.89242 0
M  V30 4231 C 420.265 -0.202747 -1.59517 0
M  V30 4232 O 421.455 -0.456957 -1.681 0
M  V30 4233 C 418.587 -1.00229 -3.25833 0
M  V30 4234 H 419.78 -2.26576 -1.96478 0
M  V30 4235 H 417.333 -1.20509 -0.995358 0
M  V30 4236 H 418.068 -0.033801 -3.24282 0
M  V30 4237 H 417.853 -1.79121 -3.48795 0
M  V30 4238 H 419.343 -0.98219 -4.05885 0
M  V30 4239 N 419.78 1.02168 -1.19998 0
M  V30 4240 C 421.005 1.79833 -1.03319 0
M  V30 4241 C 421.43 1.83504 0.413281 0
M  V30 4242 O 420.788 1.26635 1.29743 0
M  V30 4243 C 420.836 3.22396 -1.61533 0
M  V30 4244 O 419.94 4.03555 -0.849519 0
M  V30 4245 H 419.281 0.554872 -0.364709 0
M  V30 4246 H 421.811 1.28542 -1.59179 0
M  V30 4247 H 421.821 3.73124 -1.65054 0
M  V30 4248 H 420.496 3.19039 -2.66809 0
M  V30 4249 H 419.073 3.62169 -0.888129 0
M  V30 4250 N 421.258 1.00505 1.21394 0
M  V30 4251 C 422.507 0.683159 1.89778 0
M  V30 4252 C 422.82 -0.789471 1.7896 0
M  V30 4253 O 424.026 -1.22344 2.42372 0
M  V30 4254 C 422.482 1.17146 3.40301 0
M  V30 4255 C 422.09 2.67017 3.5973 0
M  V30 4256 C 423.834 0.924461 4.14311 0
M  V30 4257 C 421.741 3.09387 5.04017 0
M  V30 4258 H 420.671 0.25183 0.710702 0
M  V30 4259 H 423.322 1.21622 1.37406 0
M  V30 4260 H 421.704 0.566451 3.91928 0
M  V30 4261 H 422.878 3.32968 3.18542 0
M  V30 4262 H 421.193 2.89732 2.99073 0
M  V30 4263 H 423.79 1.21658 5.20676 0
M  V30 4264 H 424.133 -0.139286 4.16067 0
M  V30 4265 H 424.666 1.49226 3.6875 0
M  V30 4266 H 421.405 4.14989 5.07409 0
M  V30 4267 H 420.925 2.48149 5.46061 0
M  V30 4268 H 422.604 3.01371 5.72525 0
M  V30 4269 N 422.737 -1.36956 0.779787 0
M  V30 4270 C 423.684 -2.30175 0.169697 0
M  V30 4271 C 424.654 -1.51501 -0.68094 0
M  V30 4272 O 425.839 -1.80042 -0.631629 0
M  V30 4273 C 422.979 -3.37985 -0.697131 0
M  V30 4274 C 422.092 -4.31661 0.170992 0
M  V30 4275 C 421.227 -5.2655 -0.701298 0
M  V30 4276 C 420.266 -6.11867 0.168869 0
M  V30 4277 N 419.403 -6.98973 -0.661855 0
M  V30 4278 H 424.243 -2.81767 0.970135 0
M  V30 4279 H 421.78 -1.38699 0.489994 0
M  V30 4280 H 423.738 -3.99128 -1.2146 0
M  V30 4281 H 422.368 -2.87739 -1.46309 0
M  V30 4282 H 421.42 -3.71756 0.80634 0
M  V30 4283 H 422.732 -4.91644 0.841875 0
M  V30 4284 H 421.886 -5.92937 -1.28494 0
M  V30 4285 H 420.625 -4.66998 -1.40584 0
M  V30 4286 H 419.63 -5.44452 0.764986 0
M  V30 4287 H 420.855 -6.73493 0.870863 0
M  V30 4288 H 418.801 -6.41941 -1.35086 0
M  V30 4289 H 418.718 -7.55984 -0.0484447 0
M  V30 4290 H 419.986 -7.6974 -1.22963 0
M  V30 4291 N 424.215 -0.530993 -1.48385 0
M  V30 4292 C 425.461 0.00274135 -2.028 0
M  V30 4293 C 425.794 1.33838 -1.40716 0
M  V30 4294 O 425.069 1.86465 -0.553277 0
M  V30 4295 C 425.352 0.123676 -3.59888 0
M  V30 4296 C 425.205 -1.2372 -4.3245 0
M  V30 4297 C 426.524 0.849967 -4.31814 0
M  V30 4298 H 423.643 -0.000477758 -0.737 0
M  V30 4299 H 426.285 -0.688217 -1.77098 0
M  V30 4300 H 424.435 0.712157 -3.81917 0
M  V30 4301 H 426.107 -1.86687 -4.21836 0
M  V30 4302 H 424.35 -1.81882 -3.93829 0
M  V30 4303 H 425.021 -1.10557 -5.40815 0
M  V30 4304 H 427.497 0.350572 -4.14621 0
M  V30 4305 H 426.373 0.903486 -5.41413 0
M  V30 4306 H 426.634 1.90047 -3.99167 0
M  V30 4307 N 425.693 1.55336 -0.266172 0
M  V30 4308 C 426.623 2.25146 0.618981 0
M  V30 4309 C 427.604 1.23845 1.16604 0
M  V30 4310 O 428.789 1.52544 1.20183 0
M  V30 4311 C 425.919 2.96572 1.80728 0
M  V30 4312 C 424.873 4.04726 1.39215 0
M  V30 4313 C 424.199 4.63678 2.66283 0
M  V30 4314 C 425.499 5.19407 0.548942 0
M  V30 4315 H 427.193 2.99377 0.0368116 0
M  V30 4316 H 424.739 1.43991 0.0162651 0
M  V30 4317 H 426.692 3.44116 2.43232 0
M  V30 4318 H 425.416 2.19861 2.41514 0
M  V30 4319 H 424.075 3.57979 0.790351 0
M  V30 4320 H 423.723 3.83646 3.25308 0
M  V30 4321 H 423.423 5.367 2.39222 0
M  V30 4322 H 424.947 5.13967 3.29651 0
M  V30 4323 H 426.361 5.63059 1.07876 0
M  V30 4324 H 424.758 5.98936 0.373593 0
M  V30 4325 H 425.828 4.8295 -0.434394 0
M  V30 4326 N 427.171 -0.0066808 1.57599 0
M  V30 4327 C 428.081 -1.01671 2.11424 0
M  V30 4328 C 429.097 -1.38143 1.05795 0
M  V30 4329 O 430.273 -1.47011 1.37658 0
M  V30 4330 C 427.338 -2.29192 2.60139 0
M  V30 4331 C 426.399 -1.99094 3.80342 0
M  V30 4332 C 425.632 -3.20535 4.26724 0
M  V30 4333 O 425.855 -4.3199 3.72479 0
M  V30 4334 O 424.789 -3.04924 5.18946 0
M  V30 4335 H 428.615 -0.589181 2.9793 0
M  V30 4336 H 426.2 -0.225091 1.47695 0
M  V30 4337 H 428.082 -3.0412 2.917 0
M  V30 4338 H 426.757 -2.71195 1.76733 0
M  V30 4339 H 425.664 -1.21663 3.53764 0
M  V30 4340 H 426.997 -1.61931 4.648 0
M  V30 4341 N 428.649 -1.55105 -0.279332 0
M  V30 4342 C 429.582 -1.82467 -1.37044 0
M  V30 4343 C 430.56 -0.677261 -1.47824 0
M  V30 4344 O 431.744 -0.919578 -1.64548 0
M  V30 4345 C 428.871 -1.98066 -2.7475 0
M  V30 4346 C 427.917 -3.20594 -2.81286 0
M  V30 4347 S 428.75 -4.78116 -2.41175 0
M  V30 4348 C 429.906 -4.9668 -3.80867 0
M  V30 4349 H 430.139 -2.74728 -1.1363 0
M  V30 4350 H 427.672 -1.46794 -0.478625 0
M  V30 4351 H 429.63 -2.07739 -3.54055 0
M  V30 4352 H 428.291 -1.06704 -2.9542 0
M  V30 4353 H 427.484 -3.28376 -3.82341 0
M  V30 4354 H 427.086 -3.09479 -2.09996 0
M  V30 4355 H 429.378 -4.82033 -4.76078 0
M  V30 4356 H 430.321 -5.98741 -3.78041 0
M  V30 4357 H 430.729 -4.24698 -3.71876 0
M  V30 4358 N 430.127 0.543554 -1.4793 0
M  V30 4359 C 431.373 1.30201 -1.55485 0
M  V30 4360 C 431.706 1.92925 -0.222201 0
M  V30 4361 O 430.981 1.78586 0.77053 0
M  V30 4362 C 431.264 2.40174 -2.68307 0
M  V30 4363 C 431.117 1.8223 -4.11233 0
M  V30 4364 C 432.436 3.42024 -2.76961 0
M  V30 4365 H 429.555 0.472036 -0.565996 0
M  V30 4366 H 432.197 0.606914 -1.80046 0
M  V30 4367 H 430.347 2.99463 -2.47495 0
M  V30 4368 H 432.019 1.27096 -4.43446 0
M  V30 4369 H 430.262 1.12832 -4.18869 0
M  V30 4370 H 430.933 2.61793 -4.85972 0
M  V30 4371 H 433.409 2.92672 -2.95774 0
M  V30 4372 H 432.285 4.16383 -3.57654 0
M  V30 4373 H 432.546 4.0173 -1.84568 0
M  V30 4374 N 431.605 1.3629 0.791371 0
M  V30 4375 C 432.515 1.32606 1.93527 0
M  V30 4376 C 433.531 0.228541 1.72493 0
M  V30 4377 O 434.707 0.460571 1.96063 0
M  V30 4378 C 431.772 1.11271 3.28359 0
M  V30 4379 C 430.833 2.3048 3.62185 0
M  V30 4380 C 430.066 2.10154 4.90583 0
M  V30 4381 O 430.289 1.07572 5.60165 0
M  V30 4382 O 429.223 2.97884 5.23019 0
M  V30 4383 H 433.049 2.28909 1.99585 0
M  V30 4384 H 430.634 1.16818 0.931344 0
M  V30 4385 H 432.516 1.01283 4.09047 0
M  V30 4386 H 431.191 0.180292 3.23198 0
M  V30 4387 H 430.098 2.46036 2.81811 0
M  V30 4388 H 431.431 3.22221 3.72068 0
M  V30 4389 N 433.083 -1.0153 1.20538 0
M  V30 4390 C 434.046 -2.0826 0.957098 0
M  V30 4391 C 435.046 -1.60657 -0.0678655 0
M  V30 4392 O 436.236 -1.73385 0.168332 0
M  V30 4393 C 433.368 -3.38033 0.441188 0
M  V30 4394 H 434.561 -2.31719 1.90384 0
M  V30 4395 H 432.114 -1.1835 1.02093 0
M  V30 4396 H 432.849 -3.20249 -0.510961 0
M  V30 4397 H 432.634 -3.73911 1.18038 0
M  V30 4398 H 434.124 -4.16613 0.287009 0
M  V30 4399 N 434.561 -1.01147 -1.20859 0
M  V30 4400 C 435.809 -0.696486 -1.89719 0
M  V30 4401 C 436.13 0.775788 -1.78904 0
M  V30 4402 O 435.4 1.55759 -1.18811 0
M  V30 4403 H 433.98 -0.254628 -0.702263 0
M  V30 4404 H 436.642 -1.28197 -1.46804 0
M  V30 4405 H 435.738 -0.975357 -2.96468 0
M  V30 4406 N 436.039 1.36541 -0.78704 0
M  V30 4407 C 437.264 2.0409 -0.369053 0
M  V30 4408 C 437.689 1.58957 1.00569 0
M  V30 4409 O 437.047 0.756926 1.64743 0
M  V30 4410 C 437.095 3.57924 -0.438466 0
M  V30 4411 O 436.199 4.08642 0.555479 0
M  V30 4412 H 435.54 0.645142 -0.157122 0
M  V30 4413 H 438.07 1.74545 -1.06749 0
M  V30 4414 H 438.08 4.06887 -0.301218 0
M  V30 4415 H 436.755 3.90127 -1.44132 0
M  V30 4416 H 435.332 3.70958 0.380088 0
M  V30 4417 N 437.518 0.538854 1.48102 0
M  V30 4418 C 438.428 -0.222648 2.33541 0
M  V30 4419 C 439.444 -0.930225 1.47047 0
M  V30 4420 O 440.62 -0.903211 1.80011 0
M  V30 4421 C 437.685 -1.25064 3.23357 0
M  V30 4422 C 436.746 -0.552469 4.2573 0
M  V30 4423 C 435.979 -1.53149 5.11254 0
M  V30 4424 O 436.202 -2.76487 4.9891 0
M  V30 4425 O 435.136 -1.06602 5.92385 0
M  V30 4426 H 438.962 0.477707 2.99919 0
M  V30 4427 H 436.547 0.299669 1.46364 0
M  V30 4428 H 438.429 -1.8445 3.78888 0
M  V30 4429 H 437.104 -1.93325 2.59629 0
M  V30 4430 H 436.011 0.082114 3.7401 0
M  V30 4431 H 437.344 0.0883526 4.92121 0
M  V30 4432 N 438.996 -1.55193 0.274407 0
M  V30 4433 C 439.926 -2.25471 -0.607032 0
M  V30 4434 C 440.907 -1.24461 -1.15946 0
M  V30 4435 O 442.092 -1.53179 -1.19373 0
M  V30 4436 C 439.222 -2.97526 -1.79153 0
M  V30 4437 C 438.176 -4.05459 -1.37067 0
M  V30 4438 C 437.502 -4.65084 -2.6382 0
M  V30 4439 C 438.802 -5.19691 -0.521389 0
M  V30 4440 H 440.496 -2.99393 -0.0209343 0
M  V30 4441 H 438.042 -1.43997 -0.00862866 0
M  V30 4442 H 439.995 -3.45402 -2.41404 0
M  V30 4443 H 438.719 -2.21138 -2.40344 0
M  V30 4444 H 437.378 -3.58393 -0.771355 0
M  V30 4445 H 437.026 -3.85365 -3.23268 0
M  V30 4446 H 436.726 -5.37961 -2.36372 0
M  V30 4447 H 438.25 -5.15708 -3.26921 0
M  V30 4448 H 439.664 -5.63623 -1.04889 0
M  V30 4449 H 438.061 -5.99126 -0.341825 0
M  V30 4450 H 439.131 -4.82713 0.46 0
M  V30 4451 N 440.474 -0.00167713 -1.576 0
M  V30 4452 C 441.89 0.354422 -1.55615 0
M  V30 4453 C 442.09 1.74679 -1.00447 0
M  V30 4454 O 441.146 2.4428 -0.639022 0
M  V30 4455 C 442.459 0.22812 -2.99833 0
M  V30 4456 C 444.007 0.302934 -3.11531 0
M  V30 4457 C 444.482 0.205737 -4.57538 0
M  V30 4458 N 445.973 0.263584 -4.62449 0
M  V30 4459 C 446.708 0.211742 -5.73009 0
M  V30 4460 N 446.204 0.110399 -6.92712 0
M  V30 4461 N 447.997 0.263729 -5.61481 0
M  V30 4462 H 440.148 -0.912498 -1.918 0
M  V30 4463 H 442.411 -0.349928 -0.881053 0
M  V30 4464 H 442.117 -0.729934 -3.44042 0
M  V30 4465 H 441.991 1.00951 -3.6344 0
M  V30 4466 H 444.378 1.25143 -2.67251 0
M  V30 4467 H 444.459 -0.508357 -2.50698 0
M  V30 4468 H 444.103 -0.739225 -5.02492 0
M  V30 4469 H 444.033 1.03554 -5.16318 0
M  V30 4470 H 446.524 0.343173 -3.76339 0
M  V30 4471 H 446.837 0.0767828 -7.72762 0
M  V30 4472 H 445.182 0.0760025 -6.94958 0
M  V30 4473 H 448.373 0.34111 -4.66855 0
M  V30 4474 H 448.546 0.219862 -6.47627 0
M  V30 4475 N 441.952 1.55251 0.271103 0
M  V30 4476 C 443.229 1.66664 1.02384 0
M  V30 4477 C 443.609 0.534363 2.04225 0
M  V30 4478 O 442.957 -0.465337 2.23712 0
M  V30 4479 C 443.167 3.05961 1.67895 0
M  V30 4480 C 444.515 3.63772 2.18986 0
M  V30 4481 O 445.539 3.08606 1.77878 0
M  V30 4482 O 444.398 4.60429 2.94393 0
M  V30 4483 H 441.492 0.676957 0.475035 0
M  V30 4484 H 444.038 1.67589 0.26681 0
M  V30 4485 H 442.81 3.79815 0.941071 0
M  V30 4486 H 442.433 3.08943 2.5028 0
M  V30 4487 N 443.43 -0.535701 1.48216 0
M  V30 4488 C 444.846 -0.863701 1.3421 0
M  V30 4489 C 445.046 -1.98458 0.34879 0
M  V30 4490 O 444.102 -2.51432 -0.23204 0
M  V30 4491 C 445.415 -1.23662 2.74095 0
M  V30 4492 C 446.963 -1.34683 2.82541 0
M  V30 4493 C 447.438 -1.75322 4.23115 0
M  V30 4494 N 448.929 -1.82434 4.2576 0
M  V30 4495 C 449.664 -2.15252 5.31464 0
M  V30 4496 N 449.16 -2.46533 6.47452 0
M  V30 4497 N 450.953 -2.16209 5.18855 0
M  V30 4498 H 443.104 0.203965 2.11418 0
M  V30 4499 H 445.367 0.0286033 0.947568 0
M  V30 4500 H 445.073 -0.486674 3.48316 0
M  V30 4501 H 444.947 -2.18805 3.07253 0
M  V30 4502 H 447.334 -2.08756 2.08579 0
M  V30 4503 H 447.415 -0.376756 2.5301 0
M  V30 4504 H 447.059 -1.01812 4.97591 0
M  V30 4505 H 446.989 -2.7337 4.50085 0
M  V30 4506 H 449.48 -1.6056 3.42095 0
M  V30 4507 H 449.793 -2.70662 7.23852 0
M  V30 4508 H 448.138 -2.44065 6.50736 0
M  V30 4509 H 451.329 -1.91224 4.2726 0
M  V30 4510 H 451.502 -2.41453 6.01335 0
M  V30 4511 N 444.908 -1.36708 -0.784132 0
M  V30 4512 C 445.838 -1.34153 -1.91116 0
M  V30 4513 C 446.819 -0.212121 -1.68772 0
M  V30 4514 O 448.004 -0.410581 -1.8981 0
M  V30 4515 C 445.134 -1.13535 -3.28218 0
M  V30 4516 C 444.088 -2.23356 -3.65097 0
M  V30 4517 C 443.414 -1.87875 -5.00607 0
M  V30 4518 C 444.714 -3.65473 -3.73131 0
M  V30 4519 H 446.408 -2.28459 -1.93512 0
M  V30 4520 H 443.954 -1.09973 -0.929618 0
M  V30 4521 H 445.907 -1.10381 -4.06687 0
M  V30 4522 H 444.631 -0.156804 -3.26223 0
M  V30 4523 H 443.29 -2.25645 -2.88929 0
M  V30 4524 H 442.938 -0.885814 -4.95139 0
M  V30 4525 H 442.638 -2.61406 -5.26252 0
M  V30 4526 H 444.162 -1.86286 -5.81489 0
M  V30 4527 H 445.576 -3.65382 -4.41779 0
M  V30 4528 H 443.973 -4.37953 -4.10265 0
M  V30 4529 H 445.043 -3.99995 -2.74102 0
M  V30 4530 N 446.386 1.0089 -1.21074 0
M  V30 4531 C 447.632 1.7497 -1.03717 0
M  V30 4532 C 447.987 1.8764 0.425344 0
M  V30 4533 O 447.28 1.39679 1.3115 0
M  V30 4534 C 447.474 3.16335 -1.66334 0
M  V30 4535 C 447.303 3.17449 -3.18522 0
M  V30 4536 C 446.073 3.2425 -3.87543 0
M  V30 4537 C 448.271 3.02877 -4.15656 0
M  V30 4538 N 446.253 3.14949 -5.26954 0
M  V30 4539 C 447.624 3.0143 -5.41793 0
M  V30 4540 C 449.679 2.8715 -4.06755 0
M  V30 4541 C 448.382 2.85869 -6.60054 0
M  V30 4542 C 450.408 2.72944 -5.24648 0
M  V30 4543 C 449.77 2.72171 -6.49694 0
M  V30 4544 H 445.869 0.650627 -0.43383 0
M  V30 4545 H 448.453 1.19944 -1.53367 0
M  V30 4546 H 446.624 3.69638 -1.19256 0
M  V30 4547 H 448.356 3.78888 -1.42219 0
M  V30 4548 H 445.111 3.31288 -3.38446 0
M  V30 4549 H 445.535 3.13651 -5.9996 0
M  V30 4550 H 450.177 2.86557 -3.10878 0
M  V30 4551 H 447.895 2.8521 -7.56096 0
M  V30 4552 H 451.481 2.61782 -5.19578 0
M  V30 4553 H 450.361 2.61307 -7.39384 0
M  V30 4554 N 447.864 1.01787 1.20321 0
M  V30 4555 C 448.827 0.593972 2.2137 0
M  V30 4556 C 449.827 -0.336553 1.57239 0
M  V30 4557 O 451.017 -0.125069 1.7375 0
M  V30 4558 C 448.149 -0.132433 3.40643 0
M  V30 4559 H 449.342 1.48791 2.60387 0
M  V30 4560 H 446.895 0.807803 1.33807 0
M  V30 4561 H 447.63 -1.04123 3.0713 0
M  V30 4562 H 447.415 0.53605 3.88418 0
M  V30 4563 H 448.905 -0.416314 4.1552 0
M  V30 4564 N 449.342 -1.36122 0.79427 0
M  V30 4565 C 450.29 -2.31871 0.184023 0
M  V30 4566 C 451.284 -1.56041 -0.659365 0
M  V30 4567 O 452.49 -1.71266 -0.553906 0
M  V30 4568 H 448.865 -0.750896 0.0407373 0
M  V30 4569 H 450.836 -2.80898 1.00693 0
M  V30 4570 C 449.585 -3.41324 -0.662813 0
M  V30 4571 H 448.908 -3.99793 -0.0231944 0
M  V30 4572 H 450.348 -4.10629 -1.05639 0
M  V30 4573 C 448.807 -2.83308 -1.82313 0
M  V30 4574 O 449.337 -2.75863 -2.91997 0
M  V30 4575 N 447.543 -2.40529 -1.63077 0
M  V30 4576 H 447.09 -2.46785 -0.738591 0
M  V30 4577 H 447.048 -2.02059 -2.40872 0
M  V30 4578 N 450.82 -0.546701 -1.47814 0
M  V30 4579 C 451.783 0.196287 -2.28358 0
M  V30 4580 C 452.783 0.852437 -1.36346 0
M  V30 4581 O 453.973 0.709913 -1.59078 0
M  V30 4582 C 451.105 1.28579 -3.15722 0
M  V30 4583 H 452.298 -0.511086 -2.95513 0
M  V30 4584 H 449.851 -0.303248 -1.5333 0
M  V30 4585 H 450.586 2.0259 -2.53235 0
M  V30 4586 H 450.371 0.820229 -3.83425 0
M  V30 4587 H 451.861 1.80793 -3.76435 0
M  V30 4588 N 452.299 1.55045 -0.282633 0
M  V30 4589 C 453.715 1.59441 0.0712997 0
M  V30 4590 C 453.915 1.2998 1.53972 0
M  V30 4591 O 452.971 1.06431 2.28973 0
M  V30 4592 C 454.284 2.99097 -0.310104 0
M  V30 4593 C 455.832 3.1194 -0.257343 0
M  V30 4594 C 456.307 4.53875 -0.613297 0
M  V30 4595 N 457.798 4.5974 -0.565134 0
M  V30 4596 C 458.533 5.67603 -0.81326 0
M  V30 4597 N 458.029 6.83582 -1.1264 0
M  V30 4598 N 459.822 5.57187 -0.741553 0
M  V30 4599 H 451.973 1.72458 -1.23984 0
M  V30 4600 H 454.236 0.804549 -0.501403 0
M  V30 4601 H 453.942 3.25516 -1.33163 0
M  V30 4602 H 453.816 3.75616 0.345366 0
M  V30 4603 H 456.203 2.85281 0.754905 0
M  V30 4604 H 456.284 2.37618 -0.947178 0
M  V30 4605 H 455.928 4.81261 -1.62327 0
M  V30 4606 H 455.858 5.26508 0.09841 0
M  V30 4607 H 458.349 3.76427 -0.333294 0
M  V30 4608 H 458.662 7.6175 -1.30219 0
M  V30 4609 H 457.007 6.85179 -1.16425 0
M  V30 4610 H 460.198 4.65457 -0.496705 0
M  V30 4611 H 460.371 6.41171 -0.938306 0
M  V30 4612 N 453.777 0.010035 1.57597 0
M  V30 4613 C 454.709 -1.00649 2.05918 0
M  V30 4614 C 455.722 -1.30077 0.978964 0
M  V30 4615 O 456.911 -1.26878 1.25556 0
M  V30 4616 C 454.011 -2.33876 2.45265 0
M  V30 4617 C 453.184 -2.23242 3.7614 0
M  V30 4618 C 452.243 -3.39242 4.02245 0
M  V30 4619 O 451.269 -3.1698 4.72771 0
M  V30 4620 N 452.471 -4.6242 3.50924 0
M  V30 4621 H 455.236 -0.594333 2.93748 0
M  V30 4622 H 452.797 -0.17714 1.60928 0
M  V30 4623 H 454.789 -3.1027 2.59836 0
M  V30 4624 H 453.359 -2.66799 1.62902 0
M  V30 4625 H 452.579 -1.31696 3.71551 0
M  V30 4626 H 453.867 -2.13321 4.61922 0
M  V30 4627 H 453.265 -4.83404 2.93832 0
M  V30 4628 H 451.822 -5.36046 3.70807 0
M  V30 4629 N 455.255 -1.55392 -0.262866 0
M  V30 4630 C 456.502 -1.76476 -0.993109 0
M  V30 4631 C 456.83 -0.571479 -1.85915 0
M  V30 4632 O 456.085 0.445733 -1.90556 0
M  V30 4633 C 456.384 -3.02889 -1.89718 0
M  V30 4634 C 456.05 -4.34974 -1.18781 0
M  V30 4635 C 454.712 -4.7087 -0.991699 0
M  V30 4636 C 457.064 -5.16695 -0.683798 0
M  V30 4637 C 454.392 -5.86036 -0.279024 0
M  V30 4638 C 456.744 -6.32598 0.0153327 0
M  V30 4639 C 455.408 -6.67127 0.223062 0
M  V30 4640 H 454.678 -0.64577 -0.363404 0
M  V30 4641 H 457.325 -1.89664 -0.264525 0
M  V30 4642 H 455.63 -2.84644 -2.6923 0
M  V30 4643 H 457.327 -3.16399 -2.46359 0
M  V30 4644 H 453.917 -4.06765 -1.35058 0
M  V30 4645 H 458.101 -4.8943 -0.8229 0
M  V30 4646 H 453.357 -6.11306 -0.107456 0
M  V30 4647 H 457.531 -6.95171 0.413584 0
M  V30 4648 H 455.158 -7.56216 0.777265 0
M  V30 4649 N 456.733 0.527833 -1.48498 0
M  V30 4650 C 458.149 0.856571 -1.34666 0
M  V30 4651 C 458.349 1.98271 -0.35931 0
M  V30 4652 O 457.405 2.51551 0.218703 0
M  V30 4653 C 458.718 1.22207 -2.74747 0
M  V30 4654 C 460.266 1.33183 -2.83251 0
M  V30 4655 C 460.741 1.73075 -4.24039 0
M  V30 4656 N 462.232 1.80174 -4.26722 0
M  V30 4657 C 462.967 2.1243 -5.32598 0
M  V30 4658 N 462.463 2.43096 -6.4875 0
M  V30 4659 N 464.256 2.13454 -5.19994 0
M  V30 4660 H 456.407 -0.215174 -2.11307 0
M  V30 4661 H 458.67 -0.0336281 -0.947403 0
M  V30 4662 H 458.376 0.468195 -3.4857 0
M  V30 4663 H 458.25 2.17173 -3.08409 0
M  V30 4664 H 460.637 2.07647 -2.09683 0
M  V30 4665 H 460.718 0.363333 -2.53206 0
M  V30 4666 H 460.362 0.991712 -4.98124 0
M  V30 4667 H 460.292 2.70979 -4.51529 0
M  V30 4668 H 462.783 1.58744 -3.42942 0
M  V30 4669 H 463.096 2.6682 -7.25277 0
M  V30 4670 H 461.441 2.40611 -6.52021 0
M  V30 4671 H 464.632 1.88956 -4.28268 0
M  V30 4672 H 464.805 2.38261 -6.02608 0
M  V30 4673 N 458.211 1.37122 0.776871 0
M  V30 4674 C 459.121 1.34651 1.9211 0
M  V30 4675 C 460.137 0.246824 1.7224 0
M  V30 4676 O 461.313 0.48134 1.95563 0
M  V30 4677 C 458.378 1.14748 3.2716 0
M  V30 4678 C 457.439 2.34308 3.5972 0
M  V30 4679 C 456.672 2.15345 4.88326 0
M  V30 4680 O 456.895 1.13507 5.58992 0
M  V30 4681 O 455.829 3.03414 5.1983 0
M  V30 4682 H 459.655 2.31013 1.97146 0
M  V30 4683 H 457.24 1.17799 0.918901 0
M  V30 4684 H 459.122 1.05616 4.0795 0
M  V30 4685 H 457.797 0.214562 3.22988 0
M  V30 4686 H 456.704 2.49011 2.79185 0
M  V30 4687 H 458.037 3.26149 3.68629 0
M  V30 4688 N 459.689 -1.00246 1.21608 0
M  V30 4689 C 460.621 -2.09244 0.935401 0
M  V30 4690 C 461.634 -1.62592 -0.0823594 0
M  V30 4691 O 462.823 -1.77865 0.150456 0
M  V30 4692 C 459.923 -3.36724 0.383453 0
M  V30 4693 C 459.096 -4.1245 1.45615 0
M  V30 4694 C 458.155 -5.18219 0.912991 0
M  V30 4695 O 457.181 -5.46337 1.59701 0
M  V30 4696 N 458.383 -5.7987 -0.270478 0
M  V30 4697 H 461.148 -2.33905 1.87373 0
M  V30 4698 H 458.709 -1.16748 1.12167 0
M  V30 4699 H 460.701 -4.047 0.00562157 0
M  V30 4700 H 459.271 -3.09201 -0.459758 0
M  V30 4701 H 458.491 -3.39241 2.00772 0
M  V30 4702 H 459.779 -4.59819 2.17817 0
M  V30 4703 H 459.177 -5.59381 -0.843195 0
M  V30 4704 H 457.734 -6.49126 -0.589794 0
M  V30 4705 N 461.167 -1.02423 -1.1978 0
M  V30 4706 C 462.1 -0.545641 -2.21581 0
M  V30 4707 C 463.078 0.411024 -1.57319 0
M  V30 4708 O 464.262 0.329223 -1.85603 0
M  V30 4709 C 461.389 0.204973 -3.38079 0
M  V30 4710 C 460.435 -0.70241 -4.20676 0
M  V30 4711 S 461.268 -2.17595 -4.89298 0
M  V30 4712 C 462.424 -1.43572 -6.09211 0
M  V30 4713 H 462.657 -1.4082 -2.61834 0
M  V30 4714 H 460.19 -0.833771 -1.29952 0
M  V30 4715 H 462.148 0.631924 -4.05607 0
M  V30 4716 H 460.809 1.0432 -2.9627 0
M  V30 4717 H 460.002 -0.123193 -5.03849 0
M  V30 4718 H 459.604 -1.06747 -3.58442 0
M  V30 4719 H 461.896 -0.719806 -6.73665 0
M  V30 4720 H 462.839 -2.24388 -6.71607 0
M  V30 4721 H 463.247 -0.935252 -5.56699 0
M  V30 4722 N 462.645 1.35699 -0.801477 0
M  V30 4723 C 463.87 2.03687 -0.390678 0
M  V30 4724 C 464.295 1.60015 0.988778 0
M  V30 4725 O 463.653 0.774357 1.63931 0
M  V30 4726 C 463.701 3.57439 -0.476404 0
M  V30 4727 O 462.805 4.09208 0.512106 0
M  V30 4728 H 462.146 0.64344 -0.163956 0
M  V30 4729 H 464.676 1.73403 -1.08594 0
M  V30 4730 H 464.686 4.06544 -0.344357 0
M  V30 4731 H 463.361 3.88576 -1.48262 0
M  V30 4732 H 461.938 3.7134 0.340721 0
M  V30 4733 N 464.123 0.554532 1.47522 0
M  V30 4734 C 465.086 -0.184174 2.28459 0
M  V30 4735 C 466.086 -0.845195 1.36796 0
M  V30 4736 O 467.276 -0.701467 1.59452 0
M  V30 4737 C 464.408 -1.26903 3.16399 0
M  V30 4738 H 465.601 0.526751 2.95238 0
M  V30 4739 H 463.154 0.311375 1.53167 0
M  V30 4740 H 463.889 -2.01244 2.54306 0
M  V30 4741 H 463.674 -0.799883 3.83854 0
M  V30 4742 H 465.164 -1.78794 3.77389 0
M  V30 4743 N 465.601 -1.54893 0.290851 0
M  V30 4744 C 466.564 -2.21824 -0.576784 0
M  V30 4745 C 467.564 -1.20104 -1.06919 0
M  V30 4746 O 468.754 -1.44906 -0.966843 0
M  V30 4747 C 465.886 -2.89662 -1.79747 0
M  V30 4748 H 467.079 -2.99899 0.00784051 0
M  V30 4749 H 464.632 -1.56245 0.0415934 0
M  V30 4750 H 465.367 -2.15639 -2.42219 0
M  V30 4751 H 465.152 -3.64219 -1.45214 0
M  V30 4752 H 466.642 -3.4075 -2.4141 0
M  V30 4753 N 467.08 -0.0183926 -1.57589 0
M  V30 4754 C 468.328 0.661253 -1.90976 0
M  V30 4755 C 468.649 1.73281 -0.894353 0
M  V30 4756 O 467.919 1.9579 0.0656788 0
M  V30 4757 H 466.499 0.247233 -0.704901 0
M  V30 4758 H 469.161 -0.0636639 -1.94796 0
M  V30 4759 H 468.257 1.12083 -2.9128 0
M  V30 4760 N 468.558 1.5553 0.254621 0
M  V30 4761 C 469.805 1.77 0.983736 0
M  V30 4762 C 470.133 0.58133 1.85609 0
M  V30 4763 O 469.388 -0.435621 1.9079 0
M  V30 4764 C 469.687 3.03891 1.88109 0
M  V30 4765 C 469.353 4.35597 1.16472 0
M  V30 4766 C 468.015 4.7139 0.966714 0
M  V30 4767 C 470.367 5.1705 0.656387 0
M  V30 4768 C 467.695 5.86176 0.247942 0
M  V30 4769 C 470.047 6.32581 -0.0488807 0
M  V30 4770 C 468.711 6.67 -0.258438 0
M  V30 4771 H 467.981 0.647688 0.359974 0
M  V30 4772 H 470.628 1.89802 0.254463 0
M  V30 4773 H 468.933 2.86068 2.67717 0
M  V30 4774 H 470.63 3.17701 2.44677 0
M  V30 4775 H 467.22 4.07475 1.32899 0
M  V30 4776 H 471.404 4.8986 0.796933 0
M  V30 4777 H 466.66 6.11354 0.075035 0
M  V30 4778 H 470.834 6.94942 -0.450444 0
M  V30 4779 H 468.461 7.55793 -0.817358 0
M  V30 4780 N 470.036 -0.519951 1.48776 0
M  V30 4781 C 471.264 -1.29971 1.60982 0
M  V30 4782 C 471.679 -1.86803 0.273885 0
M  V30 4783 O 471.036 -1.66904 -0.738193 0
M  V30 4784 C 471.087 -2.44346 2.66415 0
M  V30 4785 O 470.808 -1.89855 3.94825 0
M  V30 4786 C 472.309 -3.36014 2.89153 0
M  V30 4787 H 469.529 -0.394891 0.542496 0
M  V30 4788 H 472.073 -0.626214 1.94676 0
M  V30 4789 H 470.228 -3.07562 2.35552 0
M  V30 4790 H 470.642 -2.64798 4.5275 0
M  V30 4791 H 472.116 -4.12593 3.66703 0
M  V30 4792 H 472.593 -3.91859 1.98351 0
M  V30 4793 H 473.199 -2.78582 3.21359 0
M  V30 4794 N 471.514 -1.37532 -0.769588 0
M  V30 4795 C 472.444 -1.36172 -1.89682 0
M  V30 4796 C 473.425 -0.23001 -1.68538 0
M  V30 4797 O 474.61 -0.43069 -1.89364 0
M  V30 4798 C 471.74 -1.1701 -3.26995 0
M  V30 4799 C 470.694 -2.27216 -3.62708 0
M  V30 4800 C 470.02 -1.93174 -4.98586 0
M  V30 4801 C 471.32 -3.6941 -3.69234 0
M  V30 4802 H 473.014 -2.30499 -1.91078 0
M  V30 4803 H 470.56 -1.10953 -0.917902 0
M  V30 4804 H 472.513 -1.14688 -4.05493 0
M  V30 4805 H 471.237 -0.191395 -3.26039 0
M  V30 4806 H 469.896 -2.28697 -2.86519 0
M  V30 4807 H 469.544 -0.938281 -4.94171 0
M  V30 4808 H 469.244 -2.66973 -5.23449 0
M  V30 4809 H 470.768 -1.92443 -5.79481 0
M  V30 4810 H 472.182 -3.70047 -4.37879 0
M  V30 4811 H 470.579 -4.4228 -4.05597 0
M  V30 4812 H 471.649 -4.0288 -2.69844 0
M  V30 4813 N 472.992 0.995999 -1.22138 0
M  V30 4814 C 473.955 2.06711 -0.990109 0
M  V30 4815 C 474.955 1.60744 0.0422978 0
M  V30 4816 O 476.145 1.73095 -0.195895 0
M  V30 4817 C 473.277 3.37288 -0.49491 0
M  V30 4818 H 474.47 2.28661 -1.94047 0
M  V30 4819 H 472.023 1.16711 -1.03963 0
M  V30 4820 H 472.758 3.21022 0.459948 0
M  V30 4821 H 472.543 3.71986 -1.23971 0
M  V30 4822 H 474.033 4.16103 -0.353253 0
M  V30 4823 N 474.47 1.03057 1.19235 0
M  V30 4824 C 475.718 0.726581 1.88587 0
M  V30 4825 C 476.039 -0.747227 1.80115 0
M  V30 4826 O 475.309 -1.53849 1.21274 0
M  V30 4827 H 473.889 0.265768 0.698124 0
M  V30 4828 H 476.551 1.30516 1.44746 0
M  V30 4829 H 475.647 1.0224 2.94879 0
M  V30 4830 N 475.948 -1.35272 0.808662 0
M  V30 4831 C 476.911 -2.28082 0.226093 0
M  V30 4832 C 477.911 -1.49673 -0.587762 0
M  V30 4833 O 479.101 -1.69404 -0.405943 0
M  V30 4834 C 476.233 -3.33955 -0.684596 0
M  V30 4835 H 477.426 -2.81116 1.04469 0
M  V30 4836 H 474.979 -1.45162 0.579466 0
M  V30 4837 H 475.714 -2.86111 -1.5268 0
M  V30 4838 H 475.499 -3.91965 -0.102699 0
M  V30 4839 H 476.989 -4.03219 -1.08646 0
M  V30 4840 N 477.426 -0.562348 -1.47226 0
M  V30 4841 C 478.703 0.0256985 -1.95583 0
M  V30 4842 C 479.083 1.48032 -1.50498 0
M  V30 4843 O 478.431 2.15973 -0.746181 0
M  V30 4844 C 478.641 -0.125129 -3.48776 0
M  V30 4845 C 479.989 0.0175728 -4.24596 0
M  V30 4846 O 481.013 -0.0529341 -3.56161 0
M  V30 4847 O 479.872 0.170145 -5.46235 0
M  V30 4848 H 476.966 0.0612565 -0.824728 0
M  V30 4849 H 479.512 -0.629233 -1.57603 0
M  V30 4850 H 478.284 -1.13715 -3.74412 0
M  V30 4851 H 477.907 0.567178 -3.93534 0
M  V30 4852 N 478.904 1.54736 -0.299062 0
M  V30 4853 C 479.854 2.20155 0.592932 0
M  V30 4854 C 480.838 1.1739 1.10038 0
M  V30 4855 O 482.03 1.43116 1.04147 0
M  V30 4856 C 479.159 2.94437 1.76527 0
M  V30 4857 C 478.245 4.04516 1.27388 0
M  V30 4858 N 478.636 5.03319 0.500339 0
M  V30 4859 C 476.934 4.18022 1.55478 0
M  V30 4860 C 477.635 5.81209 0.238909 0
M  V30 4861 N 476.611 5.37408 0.818163 0
M  V30 4862 H 480.413 2.93899 -0.00563596 0
M  V30 4863 H 477.927 1.62068 -0.103732 0
M  V30 4864 H 479.924 3.3977 2.41582 0
M  V30 4865 H 478.584 2.22209 2.36756 0
M  V30 4866 H 479.595 5.17696 0.145419 0
M  V30 4867 H 476.272 3.56998 2.16469 0
M  V30 4868 H 477.662 6.70812 -0.382223 0
M  V30 4869 N 480.382 0.0267497 1.57577 0
M  V30 4870 C 481.345 -0.940916 2.08996 0
M  V30 4871 C 482.345 -1.25561 1.00455 0
M  V30 4872 O 483.535 -1.19634 1.26623 0
M  V30 4873 C 480.667 -2.25814 2.55384 0
M  V30 4874 H 481.86 -0.495628 2.95776 0
M  V30 4875 H 479.413 -0.221241 1.54726 0
M  V30 4876 H 480.148 -2.74976 1.71926 0
M  V30 4877 H 479.933 -2.04285 3.34679 0
M  V30 4878 H 481.423 -2.95178 2.95398 0
M  V30 4879 N 481.861 -1.55662 -0.24637 0
M  V30 4880 C 483.11 -1.7672 -0.972254 0
M  V30 4881 C 483.423 -0.59078 -1.86465 0
M  V30 4882 O 484.629 -0.684391 -2.62732 0
M  V30 4883 C 483.085 -3.12869 -1.7788 0
M  V30 4884 C 482.693 -4.38161 -0.933768 0
M  V30 4885 C 484.437 -3.43265 -2.49738 0
M  V30 4886 C 482.344 -5.6534 -1.73623 0
M  V30 4887 H 481.274 -0.658795 -0.366749 0
M  V30 4888 H 483.925 -1.82092 -0.226902 0
M  V30 4889 H 482.307 -3.01606 -2.56612 0
M  V30 4890 H 483.481 -4.60413 -0.188736 0
M  V30 4891 H 481.796 -4.15102 -0.328488 0
M  V30 4892 H 484.393 -4.35501 -3.10231 0
M  V30 4893 H 484.736 -2.64614 -3.2138 0
M  V30 4894 H 485.269 -3.55746 -1.78016 0
M  V30 4895 H 482.008 -6.46814 -1.06354 0
M  V30 4896 H 481.528 -5.47188 -2.45653 0
M  V30 4897 H 483.207 -6.04616 -2.30323 0
M  V30 4898 N 483.339 0.512053 -1.4905 0
M  V30 4899 C 484.588 1.26343 -1.57227 0
M  V30 4900 C 484.901 1.93876 -0.259155 0
M  V30 4901 O 486.107 2.70612 -0.219358 0
M  V30 4902 C 484.563 2.29343 -2.77362 0
M  V30 4903 C 484.171 1.67799 -4.15388 0
M  V30 4904 C 485.915 3.05378 -2.94864 0
M  V30 4905 C 483.822 2.68845 -5.2676 0
M  V30 4906 H 482.752 0.475231 -0.585382 0
M  V30 4907 H 485.403 0.53862 -1.75417 0
M  V30 4908 H 483.785 3.04938 -2.52643 0
M  V30 4909 H 484.959 0.982715 -4.50199 0
M  V30 4910 H 483.274 1.04194 -4.03153 0
M  V30 4911 H 485.871 3.80921 -3.75238 0
M  V30 4912 H 486.214 3.62327 -2.05 0
M  V30 4913 H 486.747 2.36898 -3.19569 0
M  V30 4914 H 483.486 2.16692 -6.18647 0
M  V30 4915 H 483.006 3.36647 -4.96416 0
M  V30 4916 H 484.685 3.31487 -5.5563 0
M  V30 4917 N 484.817 1.37938 0.762283 0
M  V30 4918 C 486.228 1.30094 1.33912 0
M  V30 4919 C 486.579 -0.0472026 1.96143 0
M  V30 4920 O 485.704 -0.94917 1.94473 0
M  V30 4921 C 486.299 2.35592 2.43478 0
M  V30 4922 C 484.858 2.31353 2.96905 0
M  V30 4923 C 484.005 2.18919 1.70205 0
M  V30 4924 H 486.956 1.48423 0.561816 0
M  V30 4925 H 486.977 2.00806 3.23199 0
M  V30 4926 H 486.489 3.33701 1.98155 0
M  V30 4927 H 484.59 1.36799 3.46579 0
M  V30 4928 H 484.703 3.25147 3.51875 0
M  V30 4929 H 483.067 1.65624 1.93496 0
M  V30 4930 H 483.85 3.18956 1.26973 0
M  V30 4931 N 486.295 -0.989507 1.22664 0
M  V30 4932 C 487.541 -1.7321 1.05481 0
M  V30 4933 C 487.874 -1.89852 -0.408635 0
M  V30 4934 O 487.149 -1.44416 -1.30285 0
M  V30 4935 C 487.432 -3.1357 1.77047 0
M  V30 4936 C 487.285 -3.04555 3.31008 0
M  V30 4937 C 488.604 -4.12812 1.5256 0
M  V30 4938 H 485.723 -0.628697 0.384589 0
M  V30 4939 H 488.365 -1.15258 1.51049 0
M  V30 4940 H 486.515 -3.63046 1.3831 0
M  V30 4941 H 488.187 -2.62674 3.7921 0
M  V30 4942 H 486.43 -2.41278 3.6051 0
M  V30 4943 H 487.101 -4.03894 3.76263 0
M  V30 4944 H 489.577 -3.72106 1.86215 0
M  V30 4945 H 488.453 -5.09132 2.05124 0
M  V30 4946 H 488.714 -4.39711 0.458936 0
M  V30 4947 N 487.773 -1.03688 -1.18687 0
M  V30 4948 C 488.706 -0.569112 -2.2099 0
M  V30 4949 C 489.684 0.394315 -1.57746 0
M  V30 4950 O 490.868 0.309519 -1.85941 0
M  V30 4951 C 487.995 0.169104 -3.38278 0
M  V30 4952 C 487.041 -0.746989 -4.19908 0
M  V30 4953 S 487.874 -2.22773 -4.86963 0
M  V30 4954 C 489.03 -1.50025 -6.07654 0
M  V30 4955 H 489.263 -1.43589 -2.60326 0
M  V30 4956 H 486.796 -0.847507 -1.29061 0
M  V30 4957 H 488.754 0.588868 -4.06254 0
M  V30 4958 H 487.415 1.01172 -2.9736 0
M  V30 4959 H 486.608 -0.176626 -5.0369 0
M  V30 4960 H 486.21 -1.10543 -3.5729 0
M  V30 4961 H 488.502 -0.791217 -6.72864 0
M  V30 4962 H 489.445 -2.31498 -6.69189 0
M  V30 4963 H 489.853 -0.994245 -5.55675 0
M  V30 4964 N 489.251 1.34841 -0.815825 0
M  V30 4965 C 490.181 2.32187 -0.247298 0
M  V30 4966 C 491.162 1.5791 0.632344 0
M  V30 4967 O 492.347 1.8593 0.560698 0
M  V30 4968 C 489.477 3.42122 0.597466 0
M  V30 4969 C 488.431 4.27602 -0.184446 0
M  V30 4970 C 487.757 5.28942 0.782609 0
M  V30 4971 C 489.057 5.03502 -1.38865 0
M  V30 4972 H 490.751 2.79985 -1.06061 0
M  V30 4973 H 488.297 1.34611 -0.511461 0
M  V30 4974 H 490.25 4.09232 1.00533 0
M  V30 4975 H 488.974 2.92956 1.44376 0
M  V30 4976 H 487.633 3.62085 -0.573592 0
M  V30 4977 H 487.281 4.7604 1.62466 0
M  V30 4978 H 486.981 5.87008 0.263695 0
M  V30 4979 H 488.505 5.98922 1.18848 0
M  V30 4980 H 489.919 5.63506 -1.05518 0
M  V30 4981 H 488.316 5.71108 -1.8427 0
M  V30 4982 H 489.386 4.33608 -2.17054 0
M  V30 4983 N 490.729 0.570148 1.46925 0
M  V30 4984 C 491.977 0.0508523 2.02036 0
M  V30 4985 C 492.298 -1.30885 1.44548 0
M  V30 4986 O 491.568 -1.85647 0.625453 0
M  V30 4987 H 490.148 0.0158088 0.746833 0
M  V30 4988 H 492.81 0.743086 1.80178 0
M  V30 4989 H 491.906 -0.027575 3.12088 0
M  V30 4990 N 492.207 -1.54576 0.307264 0
M  V30 4991 C 493.484 -1.92377 -0.353605 0
M  V30 4992 C 493.864 -1.23517 -1.71192 0
M  V30 4993 O 493.212 -0.373101 -2.25433 0
M  V30 4994 C 493.422 -3.45928 -0.462039 0
M  V30 4995 C 494.77 -4.18278 -0.729975 0
M  V30 4996 O 495.794 -3.51997 -0.545605 0
M  V30 4997 O 494.653 -5.3563 -1.08454 0
M  V30 4998 H 491.747 -0.802747 -0.198812 0
M  V30 4999 H 494.293 -1.65929 0.355783 0
M  V30 5000 H 493.065 -3.88187 0.492592 0
M  V30 5001 H 492.688 -3.78431 -1.21965 0
M  V30 5002 N 493.685 -0.035106 -1.57561 0
M  V30 5003 C 494.648 0.929819 -2.09492 0
M  V30 5004 C 495.648 1.25026 -1.01119 0
M  V30 5005 O 496.838 1.18961 -1.27255 0
M  V30 5006 C 493.97 2.24457 -2.56577 0
M  V30 5007 H 495.163 0.479935 -2.96035 0
M  V30 5008 H 492.716 0.213033 -1.54841 0
M  V30 5009 H 493.451 2.74061 -1.73382 0
M  V30 5010 H 493.236 2.02508 -3.35757 0
M  V30 5011 H 494.726 2.93607 -2.96959 0
M  V30 5012 N 495.163 1.55791 0.238111 0
M  V30 5013 C 496.409 1.78297 0.966337 0
M  V30 5014 C 496.742 0.601903 1.84637 0
M  V30 5015 O 496.017 -0.399499 1.90353 0
M  V30 5016 C 496.3 3.10758 1.81939 0
M  V30 5017 C 496.153 4.39283 0.966958 0
M  V30 5018 C 497.472 3.39519 2.80027 0
M  V30 5019 H 494.591 0.648654 0.349882 0
M  V30 5020 H 497.233 1.88525 0.236253 0
M  V30 5021 H 495.383 3.02168 2.44185 0
M  V30 5022 H 497.055 4.59873 0.362514 0
M  V30 5023 H 495.298 4.32948 0.271669 0
M  V30 5024 H 495.969 5.28368 1.59784 0
M  V30 5025 H 498.445 3.48128 2.27917 0
M  V30 5026 H 497.321 4.33402 3.36829 0
M  V30 5027 H 497.582 2.60864 3.56934 0
M  V30 5028 N 496.642 -0.504142 1.49319 0
M  V30 5029 C 497.888 -1.26033 1.58882 0
M  V30 5030 C 498.221 -1.92268 0.273274 0
M  V30 5031 O 497.496 -1.80567 -0.72291 0
M  V30 5032 C 497.779 -2.32976 2.7458 0
M  V30 5033 C 497.632 -1.71263 4.1592 0
M  V30 5034 C 498.951 -3.34561 2.85932 0
M  V30 5035 H 496.07 -0.456863 0.578312 0
M  V30 5036 H 498.712 -0.558965 1.81592 0
M  V30 5037 H 496.862 -2.92796 2.55348 0
M  V30 5038 H 498.534 -1.15294 4.4666 0
M  V30 5039 H 496.777 -1.01686 4.21714 0
M  V30 5040 H 497.448 -2.48816 4.92742 0
M  V30 5041 H 499.924 -2.84727 3.0343 0
M  V30 5042 H 498.8 -4.06754 3.68568 0
M  V30 5043 H 499.061 -3.96695 1.95154 0
M  V30 5044 N 498.12 -1.38341 -0.754957 0
M  V30 5045 C 499.083 -1.35262 -1.85032 0
M  V30 5046 C 500.083 -0.253393 -1.58791 0
M  V30 5047 O 501.273 -0.510205 -1.66561 0
M  V30 5048 C 498.405 -1.10544 -3.22479 0
M  V30 5049 H 499.598 -2.32712 -1.8917 0
M  V30 5050 H 497.151 -1.23614 -0.956515 0
M  V30 5051 H 497.886 -0.136952 -3.24011 0
M  V30 5052 H 497.671 -1.90127 -3.4292 0
M  V30 5053 H 499.161 -1.11082 -4.02555 0
M  V30 5054 N 499.598 0.982988 -1.23187 0
M  V30 5055 C 500.53 2.07729 -0.968572 0
M  V30 5056 C 501.543 1.62702 0.0564821 0
M  V30 5057 O 502.732 1.77603 -0.178733 0
M  V30 5058 C 499.832 3.36071 -0.436974 0
M  V30 5059 C 499.005 4.10081 -1.52159 0
M  V30 5060 C 498.064 5.16701 -0.99532 0
M  V30 5061 O 497.09 5.43727 -1.68373 0
M  V30 5062 N 498.292 5.80226 0.178192 0
M  V30 5063 H 501.057 2.30894 -1.9107 0
M  V30 5064 H 498.618 1.14949 -1.1401 0
M  V30 5065 H 500.61 4.04639 -0.0700051 0
M  V30 5066 H 499.18 3.09893 0.410509 0
M  V30 5067 H 498.4 3.36004 -2.06144 0
M  V30 5068 H 499.688 4.56295 -2.25105 0
M  V30 5069 H 499.086 5.60651 0.754096 0
M  V30 5070 H 497.643 6.49982 0.486449 0
M  V30 5071 N 501.076 1.04316 1.18135 0
M  V30 5072 C 502.023 0.636398 2.21853 0
M  V30 5073 C 502.993 -0.357039 1.62217 0
M  V30 5074 O 504.178 -0.250453 1.89149 0
M  V30 5075 C 501.318 0.00812779 3.45099 0
M  V30 5076 C 500.431 1.04933 4.19062 0
M  V30 5077 C 499.566 0.389313 5.29771 0
M  V30 5078 C 498.605 1.41544 5.9551 0
M  V30 5079 N 497.742 0.78021 6.97751 0
M  V30 5080 H 502.582 1.52536 2.56002 0
M  V30 5081 H 500.119 0.76304 1.25762 0
M  V30 5082 H 502.077 -0.373497 4.15525 0
M  V30 5083 H 500.707 -0.844336 3.11562 0
M  V30 5084 H 499.759 1.54888 3.47439 0
M  V30 5085 H 501.071 1.82862 4.64072 0
M  V30 5086 H 500.225 -0.0463805 6.06682 0
M  V30 5087 H 498.964 -0.422038 4.8587 0
M  V30 5088 H 497.969 1.86124 5.17337 0
M  V30 5089 H 499.194 2.22854 6.41493 0
M  V30 5090 H 497.14 -0.0107899 6.55999 0
M  V30 5091 H 497.057 1.49716 7.41027 0
M  V30 5092 H 498.325 0.368996 7.78626 0
M  V30 5093 N 502.554 -1.34406 0.822964 0
M  V30 5094 C 503.801 -1.98284 0.411057 0
M  V30 5095 C 504.129 -1.65245 -1.02588 0
M  V30 5096 O 503.384 -0.91619 -1.72929 0
M  V30 5097 C 503.683 -3.52981 0.560268 0
M  V30 5098 C 503.349 -4.05931 1.96293 0
M  V30 5099 C 502.011 -4.20103 2.34664 0
M  V30 5100 C 504.363 -4.34412 2.87985 0
M  V30 5101 C 501.691 -4.60082 3.64062 0
M  V30 5102 C 504.043 -4.75838 4.16847 0
M  V30 5103 C 502.707 -4.88215 4.55195 0
M  V30 5104 H 501.977 -0.725573 0.150416 0
M  V30 5105 H 504.624 -1.60349 1.04692 0
M  V30 5106 H 502.929 -3.91477 -0.158982 0
M  V30 5107 H 504.626 -4.00385 0.222087 0
M  V30 5108 H 501.216 -3.95363 1.65487 0
M  V30 5109 H 505.4 -4.23001 2.59584 0
M  V30 5110 H 500.656 -4.67856 3.93599 0
M  V30 5111 H 504.83 -4.96834 4.87984 0
M  V30 5112 H 502.457 -5.18952 5.55512 0
M  V30 5113 N 504.032 -0.577932 -1.46621 0
M  V30 5114 C 504.995 0.147805 -2.28723 0
M  V30 5115 C 505.995 0.823325 -1.38123 0
M  V30 5116 O 507.185 0.676011 -1.60548 0
M  V30 5117 C 504.317 1.21853 -3.18378 0
M  V30 5118 H 505.51 -0.573654 -2.94362 0
M  V30 5119 H 503.063 -0.335703 -1.52652 0
M  V30 5120 H 503.798 1.97173 -2.57475 0
M  V30 5121 H 503.583 0.738714 -3.85078 0
M  V30 5122 H 505.073 1.72768 -3.80186 0
M  V30 5123 N 505.51 1.54411 -0.315457 0
M  V30 5124 C 506.926 1.59556 0.037464 0
M  V30 5125 C 507.126 1.33217 1.5118 0
M  V30 5126 O 506.182 1.11264 2.26664 0
M  V30 5127 C 507.495 2.98372 -0.373477 0
M  V30 5128 C 509.043 3.11324 -0.323452 0
M  V30 5129 C 509.518 4.52472 -0.709433 0
M  V30 5130 N 511.009 4.58437 -0.662524 0
M  V30 5131 C 511.744 5.65751 -0.933474 0
M  V30 5132 N 511.24 6.81039 -1.27114 0
M  V30 5133 N 513.033 5.55489 -0.859573 0
M  V30 5134 H 505.184 1.6979 -1.27614 0
M  V30 5135 H 507.447 0.793732 -0.518356 0
M  V30 5136 H 507.153 3.22618 -1.40037 0
M  V30 5137 H 507.027 3.76264 0.265615 0
M  V30 5138 H 509.414 2.86818 0.694223 0
M  V30 5139 H 509.495 2.35555 -0.997367 0
M  V30 5140 H 509.139 4.7771 -1.72498 0
M  V30 5141 H 509.069 5.26598 -0.0132923 0
M  V30 5142 H 511.56 3.75636 -0.413065 0
M  V30 5143 H 511.873 7.58816 -1.46348 0
M  V30 5144 H 510.218 6.82555 -1.30932 0
M  V30 5145 H 513.409 4.64299 -0.595324 0
M  V30 5146 H 513.582 6.39036 -1.0741 0
M  V30 5147 N 506.988 0.0434614 1.5754 0
M  V30 5148 C 507.898 -0.94893 2.14552 0
M  V30 5149 C 508.914 -1.34707 1.10136 0
M  V30 5150 O 510.09 -1.42557 1.42266 0
M  V30 5151 C 507.155 -2.208 2.67298 0
M  V30 5152 C 506.216 -1.86893 3.86484 0
M  V30 5153 C 505.449 -3.06797 4.36705 0
M  V30 5154 O 505.672 -4.19921 3.86034 0
M  V30 5155 O 504.606 -2.8826 5.28384 0
M  V30 5156 H 508.432 -0.494099 2.99654 0
M  V30 5157 H 506.017 -0.177989 1.48336 0
M  V30 5158 H 507.899 -2.94686 3.01228 0
M  V30 5159 H 506.574 -2.65436 1.85272 0
M  V30 5160 H 505.481 -1.10347 3.57455 0
M  V30 5161 H 506.814 -1.47062 4.69716 0
M  V30 5162 N 508.466 -1.55915 -0.229846 0
M  V30 5163 C 509.396 -1.94754 -1.28815 0
M  V30 5164 C 510.377 -0.814657 -1.49323 0
M  V30 5165 O 511.562 -1.07631 -1.61645 0
M  V30 5166 C 508.692 -2.25705 -2.63959 0
M  V30 5167 C 507.646 -3.41406 -2.5812 0
M  V30 5168 C 506.972 -3.57941 -3.97218 0
M  V30 5169 C 508.272 -4.76616 -2.13623 0
M  V30 5170 H 509.966 -2.83404 -0.965547 0
M  V30 5171 H 507.512 -1.36353 -0.463028 0
M  V30 5172 H 509.465 -2.51467 -3.38146 0
M  V30 5173 H 508.189 -1.339 -2.9789 0
M  V30 5174 H 506.848 -3.1568 -1.86391 0
M  V30 5175 H 506.496 -2.63526 -4.28443 0
M  V30 5176 H 506.196 -4.35757 -3.94195 0
M  V30 5177 H 507.72 -3.86042 -4.73079 0
M  V30 5178 H 509.134 -5.01637 -2.77549 0
M  V30 5179 H 507.531 -5.57655 -2.21677 0
M  V30 5180 H 508.601 -4.7253 -1.08829 0
M  V30 5181 N 509.944 0.496216 -1.49584 0
M  V30 5182 C 510.876 1.61404 -1.62731 0
M  V30 5183 C 511.889 1.54613 -0.50978 0
M  V30 5184 O 513.078 1.60458 -0.782017 0
M  V30 5185 C 510.178 3.00212 -1.57245 0
M  V30 5186 C 509.351 3.32138 -2.84611 0
M  V30 5187 C 508.41 4.5038 -2.72112 0
M  V30 5188 O 507.436 4.51926 -3.46051 0
M  V30 5189 N 508.638 5.50575 -1.83977 0
M  V30 5190 H 511.403 1.50552 -2.59141 0
M  V30 5191 H 508.964 0.684182 -1.46733 0
M  V30 5192 H 510.956 3.77241 -1.4653 0
M  V30 5193 H 509.526 3.04964 -0.686729 0
M  V30 5194 H 508.746 2.4396 -3.09641 0
M  V30 5195 H 510.034 3.50268 -3.69039 0
M  V30 5196 H 509.432 5.52128 -1.23171 0
M  V30 5197 H 507.989 6.26687 -1.79182 0
M  V30 5198 N 511.423 1.38739 0.74761 0
M  V30 5199 C 512.37 1.36449 1.86146 0
M  V30 5200 C 513.34 0.226098 1.64554 0
M  V30 5201 O 514.525 0.41926 1.86137 0
M  V30 5202 C 511.665 1.2013 3.23516 0
M  V30 5203 C 510.778 2.43407 3.56899 0
M  V30 5204 C 509.913 2.19773 4.83605 0
M  V30 5205 C 508.952 3.3879 5.09792 0
M  V30 5206 N 508.089 3.14553 6.27695 0
M  V30 5207 H 512.929 2.3167 1.87438 0
M  V30 5208 H 510.466 1.15094 0.916063 0
M  V30 5209 H 512.424 1.08683 4.02795 0
M  V30 5210 H 511.054 0.285453 3.21535 0
M  V30 5211 H 510.106 2.65504 2.72418 0
M  V30 5212 H 511.418 3.32094 3.72176 0
M  V30 5213 H 510.572 2.05496 5.70838 0
M  V30 5214 H 509.311 1.28461 4.70478 0
M  V30 5215 H 508.316 3.53579 4.21025 0
M  V30 5216 H 509.541 4.30986 5.24812 0
M  V30 5217 H 507.487 2.25893 6.1588 0
M  V30 5218 H 507.404 3.96791 6.435 0
M  V30 5219 H 508.672 3.03943 7.17801 0
M  V30 5220 N 512.901 -0.976442 1.23707 0
M  V30 5221 C 513.811 -2.10359 1.03856 0
M  V30 5222 C 514.827 -1.73991 -0.0180919 0
M  V30 5223 O 516.003 -2.0061 0.178211 0
M  V30 5224 C 513.068 -3.40809 0.636387 0
M  V30 5225 C 512.129 -3.91179 1.76854 0
M  V30 5226 C 511.362 -5.15404 1.38546 0
M  V30 5227 O 511.585 -5.69754 0.27142 0
M  V30 5228 O 510.519 -5.5994 2.20797 0
M  V30 5229 H 514.345 -2.29997 1.98331 0
M  V30 5230 H 511.93 -1.08742 1.02448 0
M  V30 5231 H 513.812 -4.19269 0.423223 0
M  V30 5232 H 512.487 -3.22493 -0.279322 0
M  V30 5233 H 511.394 -3.13819 2.03638 0
M  V30 5234 H 512.727 -4.13958 2.6627 0
M  V30 5235 N 514.379 -1.04941 -1.1758 0
M  V30 5236 C 515.627 -0.756492 -1.87408 0
M  V30 5237 C 515.948 0.718478 -1.81281 0
M  V30 5238 O 515.218 1.519 -1.23706 0
M  V30 5239 H 513.798 -0.276841 -0.693807 0
M  V30 5240 H 516.46 -1.32803 -1.42652 0
M  V30 5241 H 515.556 -1.06918 -2.93215 0
M  V30 5242 N 515.857 1.33968 -0.830081 0
M  V30 5243 C 517.106 1.97323 -0.417928 0
M  V30 5244 C 517.419 1.6652 1.02618 0
M  V30 5245 O 518.625 2.2342 1.54259 0
M  V30 5246 C 517.081 3.53099 -0.696359 0
M  V30 5247 C 516.689 3.92788 -2.15457 0
M  V30 5248 C 518.433 4.23049 -0.350724 0
M  V30 5249 C 516.34 5.41506 -2.37751 0
M  V30 5250 H 515.27 0.738409 -0.152541 0
M  V30 5251 H 517.921 1.52711 -1.01744 0
M  V30 5252 H 516.303 3.95991 -0.0265904 0
M  V30 5253 H 517.477 3.6098 -2.86408 0
M  V30 5254 H 515.792 3.35795 -2.46232 0
M  V30 5255 H 518.389 5.32403 -0.495036 0
M  V30 5256 H 518.732 4.10279 0.705476 0
M  V30 5257 H 519.265 3.85657 -0.975362 0
M  V30 5258 H 516.004 5.5927 -3.41903 0
M  V30 5259 H 515.524 5.74804 -1.7135 0
M  V30 5260 H 517.203 6.0828 -2.20465 0
M  V30 5261 N 517.335 0.585699 1.46312 0
M  V30 5262 C 518.565 0.0780166 2.06453 0
M  V30 5263 C 518.973 -1.2336 1.43454 0
M  V30 5264 O 518.316 -1.75734 0.535086 0
M  V30 5265 C 518.378 -0.158951 3.59148 0
M  V30 5266 C 518.042 1.06752 4.44357 0
M  V30 5267 C 519.039 1.98031 4.80708 0
M  V30 5268 C 516.724 1.2902 4.85447 0
M  V30 5269 C 518.718 3.09924 5.5698 0
M  V30 5270 C 516.405 2.41218 5.61478 0
M  V30 5271 C 517.403 3.31499 5.97158 0
M  V30 5272 O 517.091 4.41747 6.71651 0
M  V30 5273 H 516.823 0.0558894 0.673686 0
M  V30 5274 H 519.377 0.806994 1.88883 0
M  V30 5275 H 517.607 -0.942575 3.75037 0
M  V30 5276 H 519.296 -0.615513 4.01206 0
M  V30 5277 H 520.062 1.82043 4.49539 0
M  V30 5278 H 515.941 0.596567 4.57124 0
M  V30 5279 H 519.485 3.80415 5.84748 0
M  V30 5280 H 515.382 2.57167 5.9206 0
M  V30 5281 H 516.15 4.40152 6.90079 0
M  V30 5282 N 518.813 -1.54241 0.323641 0
M  V30 5283 C 520.059 -2.00867 -0.279323 0
M  V30 5284 C 520.392 -1.21146 -1.5178 0
M  V30 5285 O 519.667 -0.29378 -1.92269 0
M  V30 5286 C 519.95 -3.54837 -0.613387 0
M  V30 5287 C 519.803 -4.45284 0.635803 0
M  V30 5288 C 521.122 -4.16186 -1.43099 0
M  V30 5289 H 518.241 -0.730177 -0.100049 0
M  V30 5290 H 520.883 -1.84829 0.440235 0
M  V30 5291 H 519.033 -3.68634 -1.22641 0
M  V30 5292 H 520.705 -4.43357 1.27406 0
M  V30 5293 H 518.948 -4.14956 1.26466 0
M  V30 5294 H 519.619 -5.5084 0.357597 0
M  V30 5295 H 522.095 -4.05964 -0.912814 0
M  V30 5296 H 520.971 -5.24031 -1.6335 0
M  V30 5297 H 521.232 -3.69516 -2.42715 0
M  V30 5298 N 520.291 -0.0518155 -1.57515 0
M  V30 5299 C 521.519 0.631395 -1.9703 0
M  V30 5300 C 521.934 1.64341 -0.92938 0
M  V30 5301 O 521.291 1.82296 0.0863266 0
M  V30 5302 C 521.342 1.31774 -3.36627 0
M  V30 5303 O 521.063 0.346247 -4.3673 0
M  V30 5304 C 522.564 2.09065 -3.90905 0
M  V30 5305 H 519.784 0.172576 -0.648428 0
M  V30 5306 H 522.328 -0.118306 -2.04158 0
M  V30 5307 H 520.483 2.01867 -3.30649 0
M  V30 5308 H 520.897 0.836226 -5.17791 0
M  V30 5309 H 522.371 2.52508 -4.9086 0
M  V30 5310 H 522.848 2.93908 -3.26366 0
M  V30 5311 H 523.454 1.43882 -4.00223 0
M  V30 5312 N 521.769 1.56035 0.221574 0
M  V30 5313 C 523.017 1.78693 0.944102 0
M  V30 5314 C 523.338 0.620317 1.8487 0
M  V30 5315 O 522.608 -0.362784 1.92512 0
M  V30 5316 H 521.188 0.659082 0.351597 0
M  V30 5317 H 523.85 1.93497 0.233435 0
M  V30 5318 H 522.946 2.70837 1.55093 0
M  V30 5319 N 523.247 -0.488276 1.49845 0
M  V30 5320 C 524.494 -1.24157 1.59973 0
M  V30 5321 C 524.822 -1.92293 0.292182 0
M  V30 5322 O 524.077 -1.81942 -0.720813 0
M  V30 5323 C 524.376 -2.32152 2.71735 0
M  V30 5324 C 524.042 -1.81387 4.12807 0
M  V30 5325 C 522.704 -1.67262 4.51195 0
M  V30 5326 C 525.056 -1.43537 5.01045 0
M  V30 5327 C 522.384 -1.13685 5.7558 0
M  V30 5328 C 524.736 -0.914081 6.25961 0
M  V30 5329 C 523.4 -0.759327 6.63167 0
M  V30 5330 H 522.67 -0.454322 0.585383 0
M  V30 5331 H 525.317 -0.540261 1.83721 0
M  V30 5332 H 523.622 -3.08122 2.42008 0
M  V30 5333 H 525.319 -2.90164 2.76778 0
M  V30 5334 H 521.909 -1.93344 3.82513 0
M  V30 5335 H 526.093 -1.53292 4.72033 0
M  V30 5336 H 521.349 -1.00426 6.03096 0
M  V30 5337 H 525.523 -0.612066 6.93705 0
M  V30 5338 H 523.15 -0.342002 7.5943 0
M  V30 5339 N 524.725 -1.39134 -0.740242 0
M  V30 5340 C 525.972 -1.36071 -1.49969 0
M  V30 5341 C 526.3 0.0450245 -1.94448 0
M  V30 5342 O 525.555 1.02482 -1.66721 0
M  V30 5343 C 525.854 -2.27457 -2.75678 0
M  V30 5344 C 525.52 -3.75185 -2.50094 0
M  V30 5345 C 524.182 -4.15439 -2.42825 0
M  V30 5346 C 526.534 -4.68643 -2.28086 0
M  V30 5347 C 523.862 -5.4722 -2.11584 0
M  V30 5348 C 526.214 -6.00695 -1.98363 0
M  V30 5349 C 524.878 -6.40018 -1.8956 0
M  V30 5350 H 524.148 -0.497921 -0.548777 0
M  V30 5351 H 526.795 -1.71599 -0.85007 0
M  V30 5352 H 525.1 -1.8503 -3.45356 0
M  V30 5353 H 526.797 -2.22384 -3.33686 0
M  V30 5354 H 523.387 -3.43279 -2.56627 0
M  V30 5355 H 527.571 -4.3838 -2.32672 0
M  V30 5356 H 522.827 -5.76615 -2.03287 0
M  V30 5357 H 527.001 -6.72644 -1.80341 0
M  V30 5358 H 524.628 -7.42051 -1.65117 0
M  V30 5359 N 526.204 0.969867 -1.24223 0
M  V30 5360 C 527.434 1.74502 -1.106 0
M  V30 5361 C 527.842 1.86038 0.344483 0
M  V30 5362 O 527.185 1.3465 1.24961 0
M  V30 5363 C 527.247 3.18391 -1.66935 0
M  V30 5364 C 526.911 3.30334 -3.15798 0
M  V30 5365 C 527.908 3.15832 -4.12973 0
M  V30 5366 C 525.593 3.54644 -3.55715 0
M  V30 5367 C 527.587 3.25461 -5.48045 0
M  V30 5368 C 525.274 3.63912 -4.90929 0
M  V30 5369 C 526.272 3.49332 -5.86904 0
M  V30 5370 O 525.96 3.58251 -7.1966 0
M  V30 5371 H 525.692 0.554119 -0.387206 0
M  V30 5372 H 528.246 1.22646 -1.64764 0
M  V30 5373 H 526.476 3.71543 -1.07203 0
M  V30 5374 H 528.165 3.77707 -1.48634 0
M  V30 5375 H 528.931 2.96937 -3.83476 0
M  V30 5376 H 524.81 3.65059 -2.81519 0
M  V30 5377 H 528.354 3.13998 -6.22937 0
M  V30 5378 H 524.251 3.82319 -5.20098 0
M  V30 5379 H 525.019 3.7498 -7.27552 0
M  V30 5380 N 527.682 1.05563 1.17022 0
M  V30 5381 C 529.093 0.793475 1.69 0
M  V30 5382 C 529.444 -0.683882 1.83895 0
M  V30 5383 O 528.569 -1.53116 1.5292 0
M  V30 5384 C 529.164 1.43376 3.06967 0
M  V30 5385 C 527.723 1.21956 3.56095 0
M  V30 5386 C 526.87 1.51494 2.3226 0
M  V30 5387 H 529.821 1.22008 1.01487 0
M  V30 5388 H 529.842 0.845068 3.70997 0
M  V30 5389 H 529.354 2.50899 2.96093 0
M  V30 5390 H 527.455 0.163749 3.7224 0
M  V30 5391 H 527.568 1.92713 4.38633 0
M  V30 5392 H 525.932 0.935175 2.3691 0
M  V30 5393 H 526.715 2.60159 2.23992 0
M  V30 5394 N 529.16 -1.33526 0.837174 0
M  V30 5395 C 530.406 -1.9813 0.432704 0
M  V30 5396 C 530.739 -1.66168 -1.00508 0
M  V30 5397 O 530.014 -0.94069 -1.70239 0
M  V30 5398 C 530.297 -3.54151 0.651834 0
M  V30 5399 C 530.15 -3.95806 2.13676 0
M  V30 5400 C 531.469 -4.39993 0.0968937 0
M  V30 5401 H 528.588 -0.719713 0.15869 0
M  V30 5402 H 531.23 -1.58193 1.05237 0
M  V30 5403 H 529.38 -3.88301 0.124369 0
M  V30 5404 H 531.052 -3.71921 2.72896 0
M  V30 5405 H 529.295 -3.45599 2.62191 0
M  V30 5406 H 529.966 -5.0447 2.24084 0
M  V30 5407 H 532.442 -4.12479 0.547733 0
M  V30 5408 H 531.318 -5.48186 0.279917 0
M  V30 5409 H 531.579 -4.3066 -0.9992 0
M  V30 5410 N 530.638 -0.59345 -1.46 0
M  V30 5411 C 531.884 -0.0832754 -2.02629 0
M  V30 5412 C 532.217 1.27749 -1.46266 0
M  V30 5413 O 531.492 1.8395 -0.631866 0
M  V30 5414 C 531.775 -0.0290756 -3.60088 0
M  V30 5415 C 531.628 -1.41951 -4.26814 0
M  V30 5416 C 532.947 0.666055 -4.35031 0
M  V30 5417 H 530.066 -0.031736 -0.736316 0
M  V30 5418 H 532.708 -0.762711 -1.74019 0
M  V30 5419 H 530.858 0.549532 -3.84594 0
M  V30 5420 H 532.53 -2.04411 -4.13538 0
M  V30 5421 H 530.773 -1.98422 -3.8576 0
M  V30 5422 H 531.444 -1.33395 -5.3564 0
M  V30 5423 H 533.92 0.174401 -4.15734 0
M  V30 5424 H 532.796 0.673041 -5.44758 0
M  V30 5425 H 533.057 1.72946 -4.06869 0
M  V30 5426 N 532.116 1.54067 -0.331816 0
M  V30 5427 C 533.527 1.86059 0.15454 0
M  V30 5428 C 533.878 1.25331 1.50952 0
M  V30 5429 O 533.003 0.562441 2.08963 0
M  V30 5430 C 533.598 3.37581 0.287192 0
M  V30 5431 C 532.157 3.69493 0.717773 0
M  V30 5432 C 531.304 2.76863 -0.155569 0
M  V30 5433 H 534.255 1.48797 -0.55182 0
M  V30 5434 H 534.276 3.63744 1.11671 0
M  V30 5435 H 533.788 3.81751 -0.699131 0
M  V30 5436 H 531.889 3.3086 1.71354 0
M  V30 5437 H 532.002 4.76315 0.5158 0
M  V30 5438 H 530.366 2.51995 0.370213 0
M  V30 5439 H 531.149 3.23861 -1.13881 0
M  V30 5440 N 533.594 0.0601682 1.57485 0
M  V30 5441 C 534.541 -0.91112 2.12055 0
M  V30 5442 C 535.511 -1.30298 1.03013 0
M  V30 5443 O 536.696 -1.39087 1.30612 0
M  V30 5444 C 533.836 -2.1775 2.67729 0
M  V30 5445 C 532.949 -1.83933 3.90887 0
M  V30 5446 C 532.084 -3.05096 4.34845 0
M  V30 5447 C 531.123 -2.67241 5.5068 0
M  V30 5448 N 530.26 -3.81127 5.8965 0
M  V30 5449 H 535.1 -0.43888 2.9475 0
M  V30 5450 H 532.637 -0.204995 1.45665 0
M  V30 5451 H 534.595 -2.91866 2.98111 0
M  V30 5452 H 533.225 -2.62535 1.87816 0
M  V30 5453 H 532.277 -0.999287 3.6704 0
M  V30 5454 H 533.589 -1.52074 4.75052 0
M  V30 5455 H 532.743 -3.87502 4.66827 0
M  V30 5456 H 531.482 -3.40139 3.49509 0
M  V30 5457 H 530.487 -1.83254 5.18361 0
M  V30 5458 H 531.712 -2.3338 6.37738 0
M  V30 5459 H 529.658 -4.15954 5.07266 0
M  V30 5460 H 529.575 -3.52997 6.68528 0
M  V30 5461 H 530.843 -4.64145 6.2625 0
M  V30 5462 N 535.072 -1.5615 -0.213296 0
M  V30 5463 C 536.32 -1.79191 -0.934612 0
M  V30 5464 C 536.641 -0.630112 -1.84539 0
M  V30 5465 O 535.911 0.35257 -1.92701 0
M  V30 5466 H 534.491 -0.660937 -0.348097 0
M  V30 5467 H 537.153 -1.93618 -0.22317 0
M  V30 5468 H 536.249 -2.71656 -1.53654 0
M  V30 5469 N 536.55 0.480323 -1.50102 0
M  V30 5470 C 537.482 1.59669 -1.64433 0
M  V30 5471 C 538.495 1.54063 -0.52615 0
M  V30 5472 O 539.684 1.59619 -0.798992 0
M  V30 5473 C 536.784 2.98527 -1.6042 0
M  V30 5474 C 535.957 3.291 -2.88117 0
M  V30 5475 C 535.016 4.47468 -2.76873 0
M  V30 5476 O 534.042 4.4823 -3.50825 0
M  V30 5477 N 535.244 5.48593 -1.89806 0
M  V30 5478 H 538.009 1.47795 -2.60723 0
M  V30 5479 H 535.57 0.66858 -1.4745 0
M  V30 5480 H 537.562 3.75666 -1.50523 0
M  V30 5481 H 536.132 3.04218 -0.719036 0
M  V30 5482 H 535.352 2.40662 -3.12211 0
M  V30 5483 H 536.64 3.46334 -3.72734 0
M  V30 5484 H 536.038 5.50791 -1.2902 0
M  V30 5485 H 534.595 6.24752 -1.85819 0
M  V30 5486 N 538.028 1.39524 0.732853 0
M  V30 5487 C 538.991 1.38189 1.82857 0
M  V30 5488 C 539.991 0.278624 1.58368 0
M  V30 5489 O 541.181 0.536639 1.65728 0
M  V30 5490 C 538.313 1.15661 3.2068 0
M  V30 5491 H 539.506 2.35692 1.85444 0
M  V30 5492 H 537.059 1.2512 0.936728 0
M  V30 5493 H 537.794 0.188482 3.23752 0
M  V30 5494 H 537.579 1.95559 3.39852 0
M  V30 5495 H 539.069 1.17472 4.00737 0
M  V30 5496 N 539.506 -0.963266 1.24736 0
M  V30 5497 C 540.922 -1.23273 1.01371 0
M  V30 5498 C 541.122 -1.99618 -0.274776 0
M  V30 5499 O 540.178 -2.32293 -0.989769 0
M  V30 5500 C 541.491 -2.01554 2.23152 0
M  V30 5501 C 543.039 -2.14629 2.27823 0
M  V30 5502 C 543.514 -2.96307 3.49237 0
M  V30 5503 N 545.005 -3.03887 3.49581 0
M  V30 5504 C 545.74 -3.67456 4.40186 0
M  V30 5505 N 545.236 -4.32706 5.41052 0
M  V30 5506 N 547.029 -3.64511 4.27888 0
M  V30 5507 H 539.18 -0.452294 2.07528 0
M  V30 5508 H 541.443 -0.262521 0.910926 0
M  V30 5509 H 541.149 -1.52847 3.1675 0
M  V30 5510 H 541.023 -3.02278 2.25628 0
M  V30 5511 H 543.41 -2.62537 1.34753 0
M  V30 5512 H 543.491 -1.13238 2.2937 0
M  V30 5513 H 543.135 -2.49091 4.42624 0
M  V30 5514 H 543.065 -3.97905 3.44933 0
M  V30 5515 H 545.556 -2.57477 2.76611 0
M  V30 5516 H 545.869 -4.79042 6.06415 0
M  V30 5517 H 544.214 -4.31361 5.44934 0
M  V30 5518 H 547.405 -3.12715 3.4832 0
M  V30 5519 H 547.578 -4.13768 4.98698 0
M  V30 5520 N 540.985 -1.06182 -1.16461 0
M  V30 5521 C 542.234 -0.772927 -1.86303 0
M  V30 5522 C 542.547 0.703187 -1.82523 0
M  V30 5523 O 543.753 1.10641 -2.47933 0
M  V30 5524 C 542.209 -1.33249 -3.34324 0
M  V30 5525 C 541.817 -2.83876 -3.46581 0
M  V30 5526 C 543.561 -1.12108 -4.09429 0
M  V30 5527 C 541.468 -3.33082 -4.88682 0
M  V30 5528 H 540.398 -0.285452 -0.697878 0
M  V30 5529 H 543.049 -1.28039 -1.31447 0
M  V30 5530 H 541.431 -0.7528 -3.88779 0
M  V30 5531 H 542.605 -3.47786 -3.02293 0
M  V30 5532 H 540.92 -3.03671 -2.84909 0
M  V30 5533 H 543.517 -1.46361 -5.14279 0
M  V30 5534 H 543.86 -0.0593832 -4.16258 0
M  V30 5535 H 544.393 -1.6665 -3.6121 0
M  V30 5536 H 541.132 -4.38726 -4.87032 0
M  V30 5537 H 540.652 -2.73919 -5.33599 0
M  V30 5538 H 542.331 -3.28344 -5.57494 0
M  V30 5539 N 542.463 1.3308 -0.844243 0
M  V30 5540 C 543.879 1.50447 -0.532729 0
M  V30 5541 C 544.079 1.78292 0.938837 0
M  V30 5542 O 543.135 1.84635 1.72239 0
M  V30 5543 C 544.448 2.65555 -1.41072 0
M  V30 5544 C 545.996 2.7944 -1.41005 0
M  V30 5545 C 546.471 3.97616 -2.27301 0
M  V30 5546 N 547.962 4.0486 -2.2504 0
M  V30 5547 C 548.697 4.95508 -2.88547 0
M  V30 5548 N 548.193 5.91236 -3.61126 0
M  V30 5549 N 549.986 4.88548 -2.77989 0
M  V30 5550 H 542.137 1.13269 -1.79677 0
M  V30 5551 H 544.4 0.55734 -0.766861 0
M  V30 5552 H 544.106 2.51675 -2.45668 0
M  V30 5553 H 543.98 3.61089 -1.09061 0
M  V30 5554 H 546.367 2.92749 -0.371784 0
M  V30 5555 H 546.448 1.8465 -1.77026 0
M  V30 5556 H 546.092 3.85066 -3.3119 0
M  V30 5557 H 546.022 4.91661 -1.88619 0
M  V30 5558 H 548.513 3.36353 -1.72264 0
M  V30 5559 H 548.826 6.57079 -4.06776 0
M  V30 5560 H 547.171 5.91295 -3.65234 0
M  V30 5561 H 550.362 4.12729 -2.20846 0
M  V30 5562 H 550.535 5.58994 -3.27765 0
M  V30 5563 N 543.941 0.601185 1.45683 0
M  V30 5564 C 545.169 0.100054 2.06658 0
M  V30 5565 C 545.584 -1.21285 1.44691 0
M  V30 5566 O 544.941 -1.73735 0.558772 0
M  V30 5567 C 544.992 -0.0528579 3.61461 0
M  V30 5568 O 544.713 1.20809 4.21114 0
M  V30 5569 C 546.214 -0.586193 4.39407 0
M  V30 5570 H 543.434 0.065905 0.667756 0
M  V30 5571 H 545.978 0.827101 1.87028 0
M  V30 5572 H 544.133 -0.730203 3.80456 0
M  V30 5573 H 544.547 1.03368 5.14213 0
M  V30 5574 H 546.021 -0.642297 5.4825 0
M  V30 5575 H 546.498 -1.60713 4.0874 0
M  V30 5576 H 547.104 0.0568935 4.25262 0
M  V30 5577 N 545.419 -1.53889 0.339982 0
M  V30 5578 C 546.351 -2.22435 -0.55275 0
M  V30 5579 C 547.364 -1.22975 -1.06681 0
M  V30 5580 O 548.553 -1.49351 -0.977575 0
M  V30 5581 C 545.653 -2.8882 -1.77302 0
M  V30 5582 C 544.826 -4.14563 -1.39486 0
M  V30 5583 C 543.885 -4.64391 -2.47442 0
M  V30 5584 O 542.911 -5.28687 -2.10899 0
M  V30 5585 N 544.113 -4.40015 -3.78639 0
M  V30 5586 H 546.878 -2.9968 0.0342669 0
M  V30 5587 H 544.439 -1.61068 0.16394 0
M  V30 5588 H 546.431 -3.19072 -2.48948 0
M  V30 5589 H 545.001 -2.15182 -2.26749 0
M  V30 5590 H 544.221 -3.90896 -0.509321 0
M  V30 5591 H 545.509 -4.96362 -1.11813 0
M  V30 5592 H 544.907 -3.88586 -4.11118 0
M  V30 5593 H 543.464 -4.74881 -4.46465 0
M  V30 5594 N 546.897 -0.0685191 -1.57451 0
M  V30 5595 C 547.83 0.935736 -2.08133 0
M  V30 5596 C 548.808 1.29317 -0.985698 0
M  V30 5597 O 549.992 1.40304 -1.25886 0
M  V30 5598 C 547.119 2.2448 -2.53627 0
M  V30 5599 C 546.165 2.03917 -3.74593 0
M  V30 5600 S 546.998 1.30154 -5.19442 0
M  V30 5601 C 548.154 2.62346 -5.68265 0
M  V30 5602 H 548.387 0.504473 -2.92989 0
M  V30 5603 H 545.92 0.144169 -1.53725 0
M  V30 5604 H 547.878 2.99718 -2.80499 0
M  V30 5605 H 546.539 2.64731 -1.69045 0
M  V30 5606 H 545.732 3.00788 -4.04404 0
M  V30 5607 H 545.334 1.36815 -3.48077 0
M  V30 5608 H 547.626 3.58448 -5.7491 0
M  V30 5609 H 548.569 2.3715 -6.67207 0
M  V30 5610 H 548.977 2.69401 -4.96068 0
M  V30 5611 N 548.375 1.56261 0.205012 0
M  V30 5612 C 549.6 1.84491 0.947512 0
M  V30 5613 C 550.025 0.650894 1.76479 0
M  V30 5614 O 549.383 -0.40035 1.76824 0
M  V30 5615 C 549.431 3.10863 1.82747 0
M  V30 5616 O 548.535 2.90719 2.925 0
M  V30 5617 H 547.876 0.607783 0.267386 0
M  V30 5618 H 550.406 2.03485 0.213323 0
M  V30 5619 H 550.416 3.41399 2.23407 0
M  V30 5620 H 549.091 3.97392 1.2269 0
M  V30 5621 H 547.668 2.71457 2.55667 0
M  V30 5622 N 549.853 -0.472356 1.50355 0
M  V30 5623 C 550.816 -1.5529 1.68576 0
M  V30 5624 C 551.816 -1.50863 0.556511 0
M  V30 5625 O 553.006 -1.53505 0.823516 0
M  V30 5626 C 550.138 -2.94921 1.70981 0
M  V30 5627 H 551.331 -1.40451 2.64978 0
M  V30 5628 H 548.884 -0.698645 1.39816 0
M  V30 5629 H 549.619 -3.15204 0.762675 0
M  V30 5630 H 549.404 -2.99541 2.53017 0
M  V30 5631 H 550.894 -3.73372 1.87037 0
M  V30 5632 N 551.331 -1.39911 -0.725443 0
M  V30 5633 C 552.294 -1.39156 -1.82121 0
M  V30 5634 C 553.294 -0.287018 -1.58218 0
M  V30 5635 O 554.484 -0.545421 -1.65441 0
M  V30 5636 C 551.616 -1.1736 -3.20062 0
M  V30 5637 H 552.809 -2.36672 -1.84191 0
M  V30 5638 H 550.362 -1.25615 -0.930079 0
M  V30 5639 H 551.097 -0.205648 -3.23647 0
M  V30 5640 H 550.882 -1.97358 -3.3881 0
M  V30 5641 H 552.372 -1.19596 -4.00108 0
M  V30 5642 N 552.809 0.956637 -1.25245 0
M  V30 5643 C 553.759 2.03841 -1.02141 0
M  V30 5644 C 554.743 1.60848 0.0410058 0
M  V30 5645 O 555.935 1.76142 -0.174084 0
M  V30 5646 C 553.064 3.37282 -0.639963 0
M  V30 5647 C 552.15 3.86805 -1.73903 0
M  V30 5648 N 552.541 4.09143 -2.97381 0
M  V30 5649 C 550.839 4.15574 -1.61909 0
M  V30 5650 C 551.54 4.49923 -3.68707 0
M  V30 5651 N 550.516 4.55737 -2.96318 0
M  V30 5652 H 554.318 2.19102 -1.95886 0
M  V30 5653 H 551.832 1.1413 -1.15534 0
M  V30 5654 H 553.829 4.14403 -0.455643 0
M  V30 5655 H 552.489 3.23401 0.29018 0
M  V30 5656 H 553.5 3.96275 -3.33447 0
M  V30 5657 H 550.177 4.10566 -0.757764 0
M  V30 5658 H 551.567 4.75526 -4.74684 0
M  V30 5659 N 554.287 1.06798 1.15896 0
M  V30 5660 C 555.515 0.808694 1.90441 0
M  V30 5661 C 555.93 -0.637506 1.77711 0
M  V30 5662 O 555.287 -1.43684 1.12522 0
M  V30 5663 C 555.338 1.20068 3.40978 0
M  V30 5664 O 555.059 2.59013 3.53333 0
M  V30 5665 C 556.56 0.96987 4.3256 0
M  V30 5666 H 553.78 0.292809 0.603742 0
M  V30 5667 H 556.324 1.42296 1.46874 0
M  V30 5668 H 554.479 0.630842 3.82229 0
M  V30 5669 H 554.893 2.7485 4.46719 0
M  V30 5670 H 556.367 1.29371 5.36626 0
M  V30 5671 H 556.844 -0.0941209 4.39099 0
M  V30 5672 H 557.45 1.52433 3.97044 0
M  V30 5673 N 555.766 -1.3263 0.851289 0
M  V30 5674 C 557.177 -1.79653 0.5081 0
M  V30 5675 C 557.528 -1.70327 -0.973815 0
M  V30 5676 O 556.653 -1.25986 -1.75944 0
M  V30 5677 C 557.248 -3.26196 0.915515 0
M  V30 5678 C 555.807 -3.71187 0.624277 0
M  V30 5679 C 554.954 -2.53804 1.11709 0
M  V30 5680 H 557.905 -1.19976 1.03882 0
M  V30 5681 H 557.926 -3.79801 0.230535 0
M  V30 5682 H 557.438 -3.32952 1.99411 0
M  V30 5683 H 555.539 -3.69948 -0.443737 0
M  V30 5684 H 555.652 -4.64132 1.18821 0
M  V30 5685 H 554.016 -2.48964 0.537484 0
M  V30 5686 H 554.799 -2.63315 2.20272 0
M  V30 5687 N 557.244 -0.608902 -1.45362 0
M  V30 5688 C 558.154 0.110969 -2.34337 0
M  V30 5689 C 559.17 0.859007 -1.51318 0
M  V30 5690 O 560.346 0.816296 -1.84116 0
M  V30 5691 C 557.411 1.09494 -3.28956 0
M  V30 5692 C 556.472 0.348718 -4.27881 0
M  V30 5693 C 555.705 1.28582 -5.17979 0
M  V30 5694 O 555.928 2.52369 -5.11533 0
M  V30 5695 O 554.862 0.782172 -5.96796 0
M  V30 5696 H 558.688 -0.620258 -2.97299 0
M  V30 5697 H 556.273 -0.36916 -1.44767 0
M  V30 5698 H 558.155 1.66163 -3.87257 0
M  V30 5699 H 556.83 1.80717 -2.68557 0
M  V30 5700 H 555.737 -0.260465 -3.73192 0
M  V30 5701 H 557.07 -0.323049 -4.91139 0
M  V30 5702 N 558.722 1.53707 -0.348139 0
M  V30 5703 C 559.654 2.22725 0.540946 0
M  V30 5704 C 560.667 1.2354 1.06027 0
M  V30 5705 O 561.856 1.49867 0.96964 0
M  V30 5706 C 558.956 2.89756 1.75768 0
M  V30 5707 C 558.129 4.15297 1.37285 0
M  V30 5708 C 557.188 4.65697 2.44976 0
M  V30 5709 O 556.214 5.29798 2.08092 0
M  V30 5710 N 557.416 4.42017 3.763 0
M  V30 5711 H 560.181 2.99658 -0.0501592 0
M  V30 5712 H 557.742 1.60979 -0.17248 0
M  V30 5713 H 559.734 3.20388 2.47252 0
M  V30 5714 H 558.304 2.16382 2.25605 0
M  V30 5715 H 557.524 3.9116 0.488584 0
M  V30 5716 H 558.812 4.96948 1.09179 0
M  V30 5717 H 558.21 3.9076 4.09051 0
M  V30 5718 H 556.767 4.77242 4.4394 0
M  V30 5719 N 560.2 0.0768682 1.57412 0
M  V30 5720 C 561.449 -0.590679 1.92857 0
M  V30 5721 C 561.762 -1.70461 0.959293 0
M  V30 5722 O 562.968 -2.43207 1.20675 0
M  V30 5723 C 561.424 -1.10204 3.42612 0
M  V30 5724 C 561.032 -0.0188447 4.47996 0
M  V30 5725 C 562.776 -1.74336 3.87049 0
M  V30 5726 C 560.683 -0.544536 5.88888 0
M  V30 5727 H 559.613 -0.224411 0.71983 0
M  V30 5728 H 562.264 0.149924 1.82887 0
M  V30 5729 H 560.646 -1.89577 3.47673 0
M  V30 5730 H 561.82 0.755936 4.54557 0
M  V30 5731 H 560.135 0.526555 4.13057 0
M  V30 5732 H 562.732 -2.14708 4.89699 0
M  V30 5733 H 563.075 -2.60537 3.24694 0
M  V30 5734 H 563.608 -1.01577 3.84613 0
M  V30 5735 H 560.347 0.280426 6.549 0
M  V30 5736 H 559.867 -1.28673 5.85836 0
M  V30 5737 H 561.546 -1.01933 6.3892 0
M  V30 5738 N 561.678 -1.56367 -0.196722 0
M  V30 5739 C 562.906 -1.84639 -0.933608 0
M  V30 5740 C 563.321 -0.659164 -1.76919 0
M  V30 5741 O 562.678 0.372142 -1.78665 0
M  V30 5742 C 562.729 -3.11694 -1.83109 0
M  V30 5743 O 562.45 -4.25838 -1.02924 0
M  V30 5744 C 563.951 -3.53132 -2.67979 0
M  V30 5745 H 561.171 -0.613188 -0.272473 0
M  V30 5746 H 563.715 -2.03475 -0.204465 0
M  V30 5747 H 561.87 -2.94759 -2.51387 0
M  V30 5748 H 562.284 -4.98178 -1.64069 0
M  V30 5749 H 563.758 -4.45005 -3.26611 0
M  V30 5750 H 564.235 -2.76045 -3.41608 0
M  V30 5751 H 564.841 -3.72592 -2.05074 0
M  V30 5752 N 563.156 0.464375 -1.50603 0
M  V30 5753 C 564.572 0.798684 -1.38178 0
M  V30 5754 C 564.772 1.96568 -0.44308 0
M  V30 5755 O 563.828 2.52252 0.111814 0
M  V30 5756 C 565.141 1.10444 -2.79683 0
M  V30 5757 C 566.689 1.2105 -2.88645 0
M  V30 5758 C 567.164 1.54934 -4.30998 0
M  V30 5759 N 568.655 1.61913 -4.3398 0
M  V30 5760 C 569.39 1.8965 -5.41129 0
M  V30 5761 N 568.886 2.15361 -6.58477 0
M  V30 5762 N 570.679 1.91207 -5.28579 0
M  V30 5763 H 562.83 -0.304603 -2.10204 0
M  V30 5764 H 565.093 -0.0737804 -0.945125 0
M  V30 5765 H 564.799 0.319934 -3.50242 0
M  V30 5766 H 564.673 2.03896 -3.17342 0
M  V30 5767 H 567.06 1.98567 -2.18301 0
M  V30 5768 H 567.141 0.255613 -2.5452 0
M  V30 5769 H 566.785 0.779549 -5.01882 0
M  V30 5770 H 566.715 2.51584 -4.62615 0
M  V30 5771 H 569.206 1.44055 -3.49366 0
M  V30 5772 H 569.519 2.35818 -7.35941 0
M  V30 5773 H 567.864 2.1274 -6.6164 0
M  V30 5774 H 571.055 1.70622 -4.35897 0
M  V30 5775 H 571.228 2.12488 -6.12171 0
M  V30 5776 N 564.634 1.40294 0.718013 0
M  V30 5777 C 565.597 1.4012 1.81381 0
M  V30 5778 C 566.597 0.295405 1.58063 0
M  V30 5779 O 567.787 0.554187 1.6515 0
M  V30 5780 C 564.919 1.19056 3.19435 0
M  V30 5781 H 566.112 2.37645 1.82933 0
M  V30 5782 H 563.665 1.26107 0.923405 0
M  V30 5783 H 564.4 0.222809 3.23534 0
M  V30 5784 H 564.185 1.99152 3.37758 0
M  V30 5785 H 565.675 1.21716 3.99468 0
M  V30 5786 N 566.112 -0.949982 1.2575 0
M  V30 5787 C 567.358 -1.69766 1.10938 0
M  V30 5788 C 567.691 -1.91056 -0.348028 0
M  V30 5789 O 566.966 -1.48488 -1.25625 0
M  V30 5790 C 567.249 -3.07779 1.86933 0
M  V30 5791 C 567.102 -2.9387 3.4053 0
M  V30 5792 C 568.421 -4.07749 1.65616 0
M  V30 5793 H 565.54 -0.616144 0.404396 0
M  V30 5794 H 568.182 -1.10394 1.54639 0
M  V30 5795 H 566.332 -3.58462 1.4979 0
M  V30 5796 H 568.004 -2.50476 3.87375 0
M  V30 5797 H 566.247 -2.29686 3.68004 0
M  V30 5798 H 566.918 -3.91719 3.88922 0
M  V30 5799 H 569.394 -3.65994 1.97959 0
M  V30 5800 H 568.27 -5.02348 2.21218 0
M  V30 5801 H 568.531 -4.38029 0.598595 0
M  V30 5802 N 567.59 -1.07411 -1.15328 0
M  V30 5803 C 568.5 -0.706438 -2.23711 0
M  V30 5804 C 569.516 0.282586 -1.7169 0
M  V30 5805 O 570.692 0.129066 -2.00986 0
M  V30 5806 C 567.757 -0.11048 -3.46524 0
M  V30 5807 C 566.818 -1.15282 -4.13532 0
M  V30 5808 C 566.051 -0.585205 -5.30482 0
M  V30 5809 O 566.274 0.598549 -5.67251 0
M  V30 5810 O 565.208 -1.33039 -5.87013 0
M  V30 5811 H 569.034 -1.61031 -2.57493 0
M  V30 5812 H 566.619 -0.847113 -1.23062 0
M  V30 5813 H 568.501 0.21957 -4.20828 0
M  V30 5814 H 567.176 0.766703 -3.14489 0
M  V30 5815 H 566.083 -1.53523 -3.41147 0
M  V30 5816 H 567.416 -2.00192 -4.49649 0
M  V30 5817 N 569.068 1.32177 -0.85831 0
M  V30 5818 C 570.031 2.27086 -0.310588 0
M  V30 5819 C 571.031 1.51751 0.531806 0
M  V30 5820 O 572.221 1.70794 0.34279 0
M  V30 5821 C 569.353 3.36266 0.560179 0
M  V30 5822 H 570.546 2.77045 -1.1483 0
M  V30 5823 H 568.099 1.42911 -0.632942 0
M  V30 5824 H 568.834 2.9158 1.41956 0
M  V30 5825 H 568.619 3.92077 -0.0428473 0
M  V30 5826 H 570.109 4.06974 0.936056 0
M  V30 5827 N 570.547 0.616602 1.45037 0
M  V30 5828 C 571.794 0.115331 2.02171 0
M  V30 5829 C 572.122 -1.25748 1.48383 0
M  V30 5830 O 571.377 -1.84511 0.652229 0
M  V30 5831 C 571.676 0.0356829 3.57382 0
M  V30 5832 C 571.342 1.34535 4.30362 0
M  V30 5833 C 570.004 1.70408 4.50016 0
M  V30 5834 C 572.356 2.21049 4.72003 0
M  V30 5835 C 569.684 2.92529 5.0857 0
M  V30 5836 C 572.036 3.42427 5.31908 0
M  V30 5837 C 570.7 3.78541 5.49784 0
M  V30 5838 H 569.97 0.0422024 0.739797 0
M  V30 5839 H 572.617 0.80002 1.73988 0
M  V30 5840 H 570.922 -0.732314 3.84895 0
M  V30 5841 H 572.619 -0.368463 3.99304 0
M  V30 5842 H 569.209 1.05615 4.15383 0
M  V30 5843 H 573.393 1.94632 4.56544 0
M  V30 5844 H 568.649 3.20605 5.20598 0
M  V30 5845 H 572.823 4.09709 5.63127 0
M  V30 5846 H 570.45 4.73255 5.94923 0
M  V30 5847 N 572.025 -1.5352 0.356285 0
M  V30 5848 C 573.253 -2.05534 -0.237328 0
M  V30 5849 C 573.668 -1.23043 -1.43199 0
M  V30 5850 O 573.025 -0.268821 -1.80509 0
M  V30 5851 C 573.076 -3.55791 -0.639933 0
M  V30 5852 O 572.797 -4.35154 0.507233 0
M  V30 5853 C 574.298 -4.24027 -1.29292 0
M  V30 5854 H 571.518 -0.669585 -0.0435572 0
M  V30 5855 H 574.062 -1.97988 0.511963 0
M  V30 5856 H 572.217 -3.63518 -1.33915 0
M  V30 5857 H 572.631 -5.24178 0.18375 0
M  V30 5858 H 574.105 -5.30509 -1.52527 0
M  V30 5859 H 574.582 -3.77166 -2.25039 0
M  V30 5860 H 575.188 -4.20527 -0.63539 0
M  V30 5861 N 573.503 -0.0852151 -1.57369 0
M  V30 5862 C 574.919 0.271436 -1.57275 0
M  V30 5863 C 575.119 1.69109 -1.09565 0
M  V30 5864 O 574.175 2.40549 -0.767611 0
M  V30 5865 C 575.488 0.0688638 -3.00621 0
M  V30 5866 C 577.036 0.137373 -3.12698 0
M  V30 5867 C 577.511 -0.0370832 -4.57985 0
M  V30 5868 N 579.002 0.0180794 -4.63196 0
M  V30 5869 C 579.737 -0.0922953 -5.73326 0
M  V30 5870 N 579.233 -0.256948 -6.92323 0
M  V30 5871 N 581.026 -0.0342702 -5.6209 0
M  V30 5872 H 573.177 -1.01288 -1.86693 0
M  V30 5873 H 575.44 -0.396138 -0.861266 0
M  V30 5874 H 575.146 -0.911277 -3.39689 0
M  V30 5875 H 575.02 0.815442 -3.6828 0
M  V30 5876 H 577.407 1.10801 -2.73509 0
M  V30 5877 H 577.488 -0.640532 -2.47651 0
M  V30 5878 H 577.132 -1.00455 -4.97867 0
M  V30 5879 H 577.062 0.760392 -5.21081 0
M  V30 5880 H 579.553 0.143202 -3.77629 0
M  V30 5881 H 579.866 -0.332949 -7.72082 0
M  V30 5882 H 578.211 -0.292487 -6.94384 0
M  V30 5883 H 581.402 0.0931605 -4.68007 0
M  V30 5884 H 581.575 -0.12374 -6.47882 0
M  V30 5885 N 574.981 1.5647 0.188427 0
M  V30 5886 C 576.23 1.80207 0.905995 0
M  V30 5887 C 576.543 0.659579 1.84144 0
M  V30 5888 O 577.749 0.781431 2.60011 0
M  V30 5889 C 576.205 3.19255 1.66145 0
M  V30 5890 C 575.813 4.41324 0.770504 0
M  V30 5891 C 577.557 3.52298 2.36826 0
M  V30 5892 C 575.464 5.71394 1.52521 0
M  V30 5893 H 574.394 0.671953 0.342045 0
M  V30 5894 H 577.045 1.82808 0.159164 0
M  V30 5895 H 575.427 3.10922 2.45242 0
M  V30 5896 H 576.601 4.60797 0.0177261 0
M  V30 5897 H 574.916 4.16035 0.174199 0
M  V30 5898 H 577.513 4.46715 2.93854 0
M  V30 5899 H 577.856 2.76359 3.11338 0
M  V30 5900 H 578.389 3.62108 1.6469 0
M  V30 5901 H 575.128 6.50316 0.82275 0
M  V30 5902 H 574.648 5.55928 2.25175 0
M  V30 5903 H 576.327 6.12747 2.07725 0
M  V30 5904 N 576.459 -0.456382 1.50847 0
M  V30 5905 C 577.707 -1.20497 1.62249 0
M  V30 5906 C 578.028 -1.92156 0.331839 0
M  V30 5907 O 577.298 -1.84751 -0.651443 0
M  V30 5908 H 575.878 -0.447775 0.597918 0
M  V30 5909 H 578.54 -0.525099 1.87693 0
M  V30 5910 H 577.636 -1.94492 2.44089 0
M  V30 5911 N 577.937 -1.40673 -0.710563 0
M  V30 5912 C 578.884 -1.41336 -1.82463 0
M  V30 5913 C 579.854 -0.269648 -1.63897 0
M  V30 5914 O 581.039 -0.468463 -1.8496 0
M  V30 5915 C 578.179 -1.28665 -3.20218 0
M  V30 5916 C 577.292 -2.52784 -3.5032 0
M  V30 5917 C 576.427 -2.32517 -4.77608 0
M  V30 5918 C 575.466 -3.52187 -5.0063 0
M  V30 5919 N 574.603 -3.31084 -6.19135 0
M  V30 5920 H 579.443 -2.36558 -1.8123 0
M  V30 5921 H 576.98 -1.17483 -0.885226 0
M  V30 5922 H 578.938 -1.19324 -3.99772 0
M  V30 5923 H 577.568 -0.370602 -3.20666 0
M  V30 5924 H 576.62 -2.72634 -2.65283 0
M  V30 5925 H 577.932 -3.41845 -3.63241 0
M  V30 5926 H 577.086 -2.20558 -5.65189 0
M  V30 5927 H 575.825 -1.40889 -4.66906 0
M  V30 5928 H 574.83 -3.64617 -4.11502 0
M  V30 5929 H 576.055 -4.44749 -5.13201 0
M  V30 5930 H 574.001 -2.42143 -6.09674 0
M  V30 5931 H 573.918 -4.13713 -6.32754 0
M  V30 5932 H 575.186 -3.22868 -7.0949 0
M  V30 5933 N 579.415 0.9433 -1.26252 0
M  V30 5934 C 580.347 2.04542 -1.03417 0
M  V30 5935 C 581.36 1.62799 0.0046911 0
M  V30 5936 O 582.549 1.76944 -0.235146 0
M  V30 5937 C 579.649 3.34511 -0.543671 0
M  V30 5938 C 578.822 4.05033 -1.65128 0
M  V30 5939 C 577.881 5.13273 -1.1592 0
M  V30 5940 O 576.907 5.38095 -1.85586 0
M  V30 5941 N 578.109 5.805 -0.00649279 0
M  V30 5942 H 580.874 2.24699 -1.98319 0
M  V30 5943 H 578.435 1.11264 -1.1761 0
M  V30 5944 H 580.427 4.04212 -0.198703 0
M  V30 5945 H 578.997 3.11042 0.311711 0
M  V30 5946 H 578.217 3.29275 -2.16729 0
M  V30 5947 H 579.505 4.48903 -2.39508 0
M  V30 5948 H 578.903 5.62767 0.575347 0
M  V30 5949 H 577.46 6.51201 0.279416 0
M  V30 5950 N 580.893 1.08022 1.14757 0
M  V30 5951 C 581.823 0.728248 2.21853 0
M  V30 5952 C 582.804 -0.287486 1.67653 0
M  V30 5953 O 583.989 -0.158727 1.9355 0
M  V30 5954 C 581.119 0.132549 3.47047 0
M  V30 5955 C 580.073 1.07619 4.14249 0
M  V30 5956 C 579.399 0.342907 5.33599 0
M  V30 5957 C 580.699 2.41268 4.63235 0
M  V30 5958 H 582.393 1.62365 2.51551 0
M  V30 5959 H 579.939 0.782125 1.20908 0
M  V30 5960 H 581.892 -0.125665 4.21213 0
M  V30 5961 H 580.616 -0.797971 3.16702 0
M  V30 5962 H 579.275 1.31944 3.42033 0
M  V30 5963 H 578.923 -0.59129 4.99513 0
M  V30 5964 H 578.623 0.971955 5.79506 0
M  V30 5965 H 580.147 0.0926538 6.1053 0
M  V30 5966 H 581.561 2.21232 5.28894 0
M  V30 5967 H 579.958 2.9983 5.19829 0
M  V30 5968 H 581.028 3.03079 3.78512 0
M  V30 5969 N 582.371 -1.3172 0.865308 0
M  V30 5970 C 583.619 -1.96487 0.472995 0
M  V30 5971 C 583.94 -1.68761 -0.976975 0
M  V30 5972 O 583.21 -1.00051 -1.68424 0
M  V30 5973 H 581.79 -0.726947 0.171922 0
M  V30 5974 H 584.452 -1.60612 1.10407 0
M  V30 5975 H 583.548 -3.0574 0.62687 0
M  V30 5976 N 583.85 -0.624285 -1.44708 0
M  V30 5977 C 585.096 -0.126237 -2.02407 0
M  V30 5978 C 585.428 1.24618 -1.48943 0
M  V30 5979 O 584.704 1.82569 -0.670742 0
M  V30 5980 C 584.986 -0.105449 -3.59946 0
M  V30 5981 C 584.84 -1.50972 -4.23707 0
M  V30 5982 C 586.159 0.573629 -4.36346 0
M  V30 5983 H 583.278 -0.0473472 -0.735478 0
M  V30 5984 H 585.92 -0.799452 -1.72362 0
M  V30 5985 H 584.07 0.46783 -3.85673 0
M  V30 5986 H 585.742 -2.13136 -4.0911 0
M  V30 5987 H 583.985 -2.0656 -3.81465 0
M  V30 5988 H 584.656 -1.44727 -5.32689 0
M  V30 5989 H 587.132 0.0861787 -4.16011 0
M  V30 5990 H 586.008 0.557338 -5.46063 0
M  V30 5991 H 586.269 1.64276 -4.10446 0
M  V30 5992 N 585.328 1.53329 -0.364422 0
M  V30 5993 C 586.577 2.00421 0.226747 0
M  V30 5994 C 586.89 1.25581 1.49963 0
M  V30 5995 O 588.096 1.63256 2.16933 0
M  V30 5996 C 586.552 3.57017 0.454618 0
M  V30 5997 C 586.16 4.40734 -0.803568 0
M  V30 5998 C 587.904 4.12468 1.00351 0
M  V30 5999 C 585.811 5.8888 -0.545345 0
M  V30 6000 H 584.741 0.748787 0.0885082 0
M  V30 6001 H 587.392 1.7703 -0.482983 0
M  V30 6002 H 585.774 3.76558 1.22558 0
M  V30 6003 H 586.948 4.32967 -1.57723 0
M  V30 6004 H 585.263 3.96381 -1.27559 0
M  V30 6005 H 587.86 5.20783 1.212 0
M  V30 6006 H 588.203 3.6699 1.9653 0
M  V30 6007 H 588.736 3.96721 0.29274 0
M  V30 6008 H 585.475 6.38633 -1.47743 0
M  V30 6009 H 584.995 5.99499 0.189842 0
M  V30 6010 H 586.674 6.46776 -0.170425 0
M  V30 6011 N 586.806 0.0935595 1.57322 0
M  V30 6012 C 587.769 -0.851426 2.12799 0
M  V30 6013 C 588.769 -1.21187 1.0569 0
M  V30 6014 O 589.959 -1.14156 1.31583 0
M  V30 6015 C 587.091 -2.14779 2.64731 0
M  V30 6016 H 588.284 -0.369733 2.97612 0
M  V30 6017 H 585.837 -0.155417 1.55525 0
M  V30 6018 H 586.572 -2.67437 1.83434 0
M  V30 6019 H 586.357 -1.89907 3.43042 0
M  V30 6020 H 587.847 -2.82383 3.07651 0
M  V30 6021 O 588.323 -1.61433 -0.0465113 0
M  V30 6022 H 589.014 -1.8177 -0.669292 0
M  V30 END ATOM
M  V30 BEGIN BOND
M  V30 END BOND
M  V30 END CTAB
M  END
$$$$
