drugbank_target|P06716 Colicin-Ia (DB04147)
 OpenBabel12092120483D

  0  0  0     0  0            999 V3000
M  V30 BEGIN CTAB
M  V30 COUNTS 9807 9869 0 0 0
M  V30 BEGIN ATOM
M  V30 1 H -0.908 1.98254 -0.117106 0
M  V30 2 N 0 1.576 0 0
M  V30 3 C 0.933 2.03868 1.02534 0
M  V30 4 C 1.911 0.928543 1.3348 0
M  V30 5 O 3.095 1.19667 1.45644 0
M  V30 6 C 0.222 2.43627 2.35294 0
M  V30 7 C -0.732 3.65373 2.2001 0
M  V30 8 S 0.101 5.13292 1.52614 0
M  V30 9 C 1.257 5.56322 2.86805 0
M  V30 10 H 1.49 2.90518 0.631377 0
M  V30 11 H -0.977 1.52953 0.210867 0
M  V30 12 H 0.981 2.67203 3.11629 0
M  V30 13 H -0.358 1.57376 2.7183 0
M  V30 14 H -1.165 3.90944 3.18086 0
M  V30 15 H -1.563 3.418 1.51819 0
M  V30 16 H 0.729 5.58782 3.83104 0
M  V30 17 H 1.672 6.56266 2.65933 0
M  V30 18 H 2.08 4.83886 2.90714 0
M  V30 19 N 1.4781 -0.272755 1.55222 0
M  V30 20 C 2.7031 -1.02683 1.80197 0
M  V30 21 C 3.1281 -1.79142 0.573551 0
M  V30 22 O 2.4861 -1.74917 -0.476849 0
M  V30 23 C 2.5341 -1.9609 3.02624 0
M  V30 24 O 1.6381 -3.04863 2.77727 0
M  V30 25 H 0.9791 -0.293557 0.595584 0
M  V30 26 H 3.5091 -0.30159 2.02365 0
M  V30 27 H 3.5191 -2.38039 3.31363 0
M  V30 28 H 2.1941 -1.39851 3.91682 0
M  V30 29 H 0.7711 -2.67228 2.60084 0
M  V30 30 N 2.9562 -1.48159 -0.537278 0
M  V30 31 C 4.2332 -1.46291 -1.29839 0
M  V30 32 C 4.6132 -0.170613 -2.10409 0
M  V30 33 O 3.9612 0.847746 -2.12192 0
M  V30 34 C 4.1712 -2.72055 -2.18603 0
M  V30 35 C 5.5192 -3.20087 -2.7898 0
M  V30 36 O 6.5432 -2.72921 -2.28894 0
M  V30 37 O 5.4022 -4.02138 -3.70064 0
M  V30 38 H 2.4962 -0.583906 -0.585647 0
M  V30 39 H 5.0422 -1.60384 -0.554534 0
M  V30 40 H 3.8142 -3.57628 -1.58801 0
M  V30 41 H 3.4372 -2.60646 -3.00249 0
M  V30 42 N 4.4343 0.785586 -1.36625 0
M  V30 43 C 5.8453 1.36101 -1.27803 0
M  V30 44 C 6.1963 1.96035 0.0804875 0
M  V30 45 O 5.3213 1.92834 0.982042 0
M  V30 46 C 5.9163 2.47442 -2.31426 0
M  V30 47 C 4.4753 3.00789 -2.26281 0
M  V30 48 C 3.6223 1.73896 -2.15999 0
M  V30 49 H 6.5733 0.586928 -1.47448 0
M  V30 50 H 6.5943 3.2656 -1.95291 0
M  V30 51 H 6.1063 2.03791 -3.30289 0
M  V30 52 H 4.2073 3.48851 -1.30896 0
M  V30 53 H 4.3203 3.57343 -3.19128 0
M  V30 54 H 2.6843 1.9628 -1.62316 0
M  V30 55 H 3.4673 1.32368 -3.16755 0
M  V30 56 N 5.9124 1.20967 1.01018 0
M  V30 57 C 7.1584 1.02526 1.74975 0
M  V30 58 C 7.4914 -0.4408 1.89131 0
M  V30 59 O 6.7664 -1.32718 1.42184 0
M  V30 60 C 7.0494 1.71699 3.1653 0
M  V30 61 C 6.9024 3.25791 3.10129 0
M  V30 62 C 8.2214 1.45531 4.15342 0
M  V30 63 H 5.3404 0.373863 0.635134 0
M  V30 64 H 7.9824 1.49071 1.17805 0
M  V30 65 H 6.1324 1.32128 3.65341 0
M  V30 66 H 7.8044 3.74697 2.69072 0
M  V30 67 H 6.0474 3.56363 2.47362 0
M  V30 68 H 6.7184 3.69353 4.10222 0
M  V30 69 H 9.1944 1.79872 3.75213 0
M  V30 70 H 8.0704 1.96453 5.1254 0
M  V30 71 H 8.3314 0.384237 4.40427 0
M  V30 72 N 7.3905 -1.2043 1.01659 0
M  V30 73 C 8.8065 -1.41852 0.731442 0
M  V30 74 C 9.0065 -1.89358 -0.688898 0
M  V30 75 O 8.0625 -2.06247 -1.45666 0
M  V30 76 C 9.3755 -2.44019 1.75714 0
M  V30 77 C 10.9235 -2.57785 1.77527 0
M  V30 78 C 11.3985 -3.63194 2.79023 0
M  V30 79 N 12.8895 -3.70678 2.77763 0
M  V30 80 C 13.6245 -4.51897 3.52954 0
M  V30 81 N 13.1205 -5.36921 4.37821 0
M  V30 82 N 14.9135 -4.4643 3.41551 0
M  V30 83 H 7.0645 -0.879093 1.93354 0
M  V30 84 H 9.3275 -0.448425 0.835236 0
M  V30 85 H 9.0335 -2.1611 2.77469 0
M  V30 86 H 8.9075 -3.43007 1.56927 0
M  V30 87 H 11.2945 -2.85023 0.764569 0
M  V30 88 H 11.3755 -1.58992 2.00387 0
M  V30 89 H 11.0195 -3.36699 3.80258 0
M  V30 90 H 10.9495 -4.61609 2.53425 0
M  V30 91 H 13.4405 -3.09944 2.16201 0
M  V30 92 H 13.7535 -5.95981 4.91962 0
M  V30 93 H 12.0985 -5.36424 4.41899 0
M  V30 94 H 15.2895 -3.79042 2.74672 0
M  V30 95 H 15.4625 -5.09491 4.00404 0
M  V30 96 N 8.8686 -0.792821 -1.36206 0
M  V30 97 C 10.1176 -0.363353 -1.984 0
M  V30 98 C 10.4306 1.07172 -1.63626 0
M  V30 99 O 11.6366 1.60362 -2.19081 0
M  V30 100 C 10.0926 -0.59872 -3.54885 0
M  V30 101 C 9.7006 -2.04543 -3.9858 0
M  V30 102 C 11.4446 -0.233926 -4.23855 0
M  V30 103 C 9.3516 -2.22727 -5.47856 0
M  V30 104 H 8.2816 -0.13212 -0.742334 0
M  V30 105 H 10.9326 -0.974935 -1.55458 0
M  V30 106 H 9.3146 0.0826222 -3.95914 0
M  V30 107 H 10.4886 -2.76345 -3.68741 0
M  V30 108 H 8.8036 -2.36879 -3.42458 0
M  V30 109 H 11.4006 -0.348027 -5.33566 0
M  V30 110 H 11.7436 0.818351 -4.08177 0
M  V30 111 H 12.2766 -0.868639 -3.882 0
M  V30 112 H 9.0156 -3.2635 -5.68486 0
M  V30 113 H 8.5356 -1.55434 -5.7931 0
M  V30 114 H 10.2146 -2.03607 -6.14128 0
M  V30 115 N 10.3467 1.47872 -0.545128 0
M  V30 116 C 11.5747 2.06889 -0.021084 0
M  V30 117 C 11.9897 1.39955 1.2672 0
M  V30 118 O 11.3467 0.492036 1.75742 0
M  V30 119 C 11.3977 3.60996 0.190817 0
M  V30 120 O 11.1187 4.25419 -1.04644 0
M  V30 121 C 12.6197 4.36849 0.753521 0
M  V30 122 H 9.8397 0.669785 -0.0403635 0
M  V30 123 H 12.3837 1.90049 -0.755095 0
M  V30 124 H 10.5387 3.77391 0.87492 0
M  V30 125 H 10.9527 5.17785 -0.836611 0
M  V30 126 H 12.4267 5.45399 0.851139 0
M  V30 127 H 12.9037 4.02306 1.762 0
M  V30 128 H 13.5097 4.25169 0.105503 0
M  V30 129 N 11.8248 0.280983 1.55075 0
M  V30 130 C 12.7728 -0.619864 2.24188 0
M  V30 131 C 13.7668 -1.15315 1.24092 0
M  V30 132 O 14.9728 -1.1061 1.42005 0
M  V30 133 H 11.3478 -0.218459 0.719569 0
M  V30 134 H 13.3188 -0.0141831 2.98397 0
M  V30 135 C 12.0678 -1.7899 2.98091 0
M  V30 136 H 11.3908 -1.38874 3.74905 0
M  V30 137 H 12.8308 -2.39672 3.49762 0
M  V30 138 C 11.2898 -2.68192 2.03899 0
M  V30 139 O 11.8198 -3.6872 1.594 0
M  V30 140 N 10.0258 -2.35488 1.70275 0
M  V30 141 H 9.5728 -1.53787 2.06658 0
M  V30 142 H 9.5308 -2.95442 1.07524 0
M  V30 143 N 13.3029 -1.57598 0.00835791 0
M  V30 144 C 14.7139 -1.7892 -0.53333 0
M  V30 145 C 15.0649 -0.916609 -1.73473 0
M  V30 146 O 14.1899 -0.121336 -2.1606 0
M  V30 147 C 14.7849 -3.24488 -0.974313 0
M  V30 148 C 13.3439 -3.46878 -1.46125 0
M  V30 149 C 12.4909 -2.74157 -0.416302 0
M  V30 150 H 15.4419 -1.56958 0.234495 0
M  V30 151 H 15.4629 -3.3306 -1.83988 0
M  V30 152 H 14.9749 -3.87972 -0.099718 0
M  V30 153 H 13.0759 -2.8862 -2.35646 0
M  V30 154 H 13.1889 -4.55572 -1.48295 0
M  V30 155 H 11.5529 -2.39022 -0.87981 0
M  V30 156 H 12.3359 -3.40345 0.44947 0
M  V30 157 N 14.781 0.264519 -1.55364 0
M  V30 158 C 16.029 0.993021 -1.76021 0
M  V30 159 C 16.35 1.86511 -0.569099 0
M  V30 160 O 15.62 1.91438 0.415735 0
M  V30 161 H 14.2 0.369639 -0.649135 0
M  V30 162 H 16.862 0.286707 -1.9278 0
M  V30 163 H 15.958 1.62502 -2.66457 0
M  V30 164 N 16.2591 1.48442 0.529413 0
M  V30 165 C 17.2221 1.62524 1.61612 0
M  V30 166 C 18.2221 0.498509 1.52877 0
M  V30 167 O 19.4121 0.76431 1.56537 0
M  V30 168 C 16.5441 1.59597 3.01233 0
M  V30 169 H 17.7371 2.59423 1.50465 0
M  V30 170 H 15.2901 1.37047 0.751514 0
M  V30 171 H 16.0251 0.641781 3.17886 0
M  V30 172 H 15.8101 2.41397 3.08982 0
M  V30 173 H 17.3001 1.72646 3.80241 0
M  V30 174 N 17.7372 -0.778329 1.37039 0
M  V30 175 C 18.6472 -1.92253 1.34446 0
M  V30 176 C 19.6632 -1.72267 0.244991 0
M  V30 177 O 20.8392 -1.95615 0.479258 0
M  V30 178 C 17.9042 -3.27282 1.144 0
M  V30 179 C 16.9652 -3.59969 2.33925 0
M  V30 180 C 16.1982 -4.88555 2.14825 0
M  V30 181 O 16.4212 -5.59113 1.12912 0
M  V30 182 O 15.3552 -5.20153 3.02861 0
M  V30 183 H 19.1812 -1.97392 2.30803 0
M  V30 184 H 16.7662 -0.920154 1.17701 0
M  V30 185 H 18.6482 -4.08062 1.05182 0
M  V30 186 H 17.3232 -3.23011 0.211124 0
M  V30 187 H 16.2302 -2.7945 2.48714 0
M  V30 188 H 17.5632 -3.68976 3.25757 0
M  V30 189 N 19.2153 -1.21501 -1.00376 0
M  V30 190 C 20.4403 -1.05977 -1.78279 0
M  V30 191 C 20.8653 0.385994 -1.84097 0
M  V30 192 O 20.2233 1.27849 -1.28547 0
M  V30 193 C 20.2713 -1.66302 -3.19963 0
M  V30 194 O 19.3753 -0.909333 -4.0225 0
M  V30 195 H 18.7163 -0.372906 -0.549397 0
M  V30 196 H 21.2463 -1.6107 -1.26165 0
M  V30 197 H 21.2563 -1.70574 -3.70632 0
M  V30 198 H 19.9313 -2.71515 -3.15043 0
M  V30 199 H 18.5083 -0.941795 -3.60811 0
M  V30 200 N 20.6934 1.19889 -1.02296 0
M  V30 201 C 21.6234 2.25141 -0.619174 0
M  V30 202 C 22.6044 1.66051 0.368915 0
M  V30 203 O 23.7894 1.92546 0.252941 0
M  V30 204 C 20.9194 3.4728 0.0368783 0
M  V30 205 C 19.8734 4.19005 -0.872865 0
M  V30 206 C 19.1994 5.34637 -0.0822402 0
M  V30 207 C 20.4994 4.74452 -2.18387 0
M  V30 208 H 22.1934 2.59171 -1.49903 0
M  V30 209 H 19.7394 1.24579 -0.722222 0
M  V30 210 H 21.6924 4.20098 0.330958 0
M  V30 211 H 20.4164 3.12433 0.95149 0
M  V30 212 H 19.0754 3.48061 -1.15105 0
M  V30 213 H 18.7234 4.96034 0.83422 0
M  V30 214 H 18.4234 5.83557 -0.688149 0
M  V30 215 H 19.9474 6.10255 0.205238 0
M  V30 216 H 21.3614 5.39055 -1.95172 0
M  V30 217 H 19.7584 5.33834 -2.74119 0
M  V30 218 H 20.8284 3.92844 -2.84257 0
M  V30 219 N 22.1715 0.800033 1.35784 0
M  V30 220 C 23.4195 0.376597 1.9856 0
M  V30 221 C 23.7405 -1.05812 1.63795 0
M  V30 222 O 23.0105 -1.73103 0.917171 0
M  V30 223 H 21.5905 0.136261 0.734467 0
M  V30 224 H 24.2525 1.02442 1.65806 0
M  V30 225 H 23.3485 0.477002 3.08433 0
M  V30 226 N 23.6496 -1.47581 0.552962 0
M  V30 227 C 24.8796 -2.06575 0.0320091 0
M  V30 228 C 25.2876 -1.4067 -1.26525 0
M  V30 229 O 24.6306 -0.495808 -1.76883 0
M  V30 230 C 24.6926 -3.58705 -0.238913 0
M  V30 231 C 24.3566 -4.46625 0.968272 0
M  V30 232 C 25.3536 -4.85 1.87274 0
M  V30 233 C 23.0386 -4.88201 1.18175 0
M  V30 234 C 25.0326 -5.63745 2.9744 0
M  V30 235 C 22.7196 -5.66712 2.28651 0
M  V30 236 C 23.7176 -6.04394 3.18114 0
M  V30 237 O 23.4056 -6.81324 4.26676 0
M  V30 238 H 23.1376 -0.674763 0.0408689 0
M  V30 239 H 25.6916 -1.90634 0.764719 0
M  V30 240 H 23.9216 -3.72844 -1.02588 0
M  V30 241 H 25.6106 -3.99735 -0.704731 0
M  V30 242 H 26.3766 -4.53482 1.71984 0
M  V30 243 H 22.2556 -4.58339 0.494593 0
M  V30 244 H 25.7996 -5.93077 3.67296 0
M  V30 245 H 21.6966 -5.97642 2.43915 0
M  V30 246 H 22.4646 -6.99712 4.24671 0
M  V30 247 N 25.1277 -0.289203 -1.54924 0
M  V30 248 C 26.4047 0.376032 -1.91951 0
M  V30 249 C 26.7847 1.72622 -1.21511 0
M  V30 250 O 26.1327 2.25853 -0.346767 0
M  V30 251 C 26.3427 0.502378 -3.45365 0
M  V30 252 C 27.6907 0.778741 -4.17398 0
M  V30 253 O 28.7147 0.586647 -3.51336 0
M  V30 254 O 27.5737 1.14698 -5.34328 0
M  V30 255 H 24.6677 0.208167 -0.800372 0
M  V30 256 H 27.2137 -0.336394 -1.66332 0
M  V30 257 H 25.9857 -0.447255 -3.88736 0
M  V30 258 H 25.6087 1.26373 -3.76982 0
M  V30 259 N 26.6058 1.57591 -0.0167156 0
M  V30 260 C 27.8308 1.9598 0.67872 0
M  V30 261 C 28.2558 0.892546 1.65575 0
M  V30 262 O 27.6138 -0.147772 1.80697 0
M  V30 263 C 27.6618 3.33468 1.37227 0
M  V30 264 O 26.7658 3.28954 2.48722 0
M  V30 265 H 26.1068 0.639339 0.17928 0
M  V30 266 H 28.6368 2.04463 -0.0748802 0
M  V30 267 H 28.6468 3.69417 1.7319 0
M  V30 268 H 27.3218 4.10694 0.656007 0
M  V30 269 H 25.8988 3.04705 2.14963 0
M  V30 270 N 28.0839 -0.256276 1.55502 0
M  V30 271 C 29.3609 -1.00789 1.67633 0
M  V30 272 C 29.7409 -2.03706 0.553826 0
M  V30 273 O 29.0889 -2.24145 -0.443969 0
M  V30 274 C 29.2989 -1.64968 3.07549 0
M  V30 275 C 30.6469 -2.15505 3.65845 0
M  V30 276 O 31.6709 -1.74925 3.1029 0
M  V30 277 O 30.5299 -2.89986 4.63217 0
M  V30 278 H 27.6239 -0.468553 0.681459 0
M  V30 279 H 30.1699 -0.250806 1.67836 0
M  V30 280 H 28.9419 -0.904785 3.80696 0
M  V30 281 H 28.5649 -2.47321 3.11317 0
M  V30 282 N 29.562 -1.4872 -0.521534 0
M  V30 283 C 30.81 -1.56857 -1.27437 0
M  V30 284 C 31.131 -0.247982 -1.93417 0
M  V30 285 O 30.401 0.731151 -1.81744 0
M  V30 286 H 28.981 -0.577885 -0.473347 0
M  V30 287 H 31.643 -1.85233 -0.606205 0
M  V30 288 H 30.739 -2.35402 -2.0492 0
M  V30 289 N 31.0401 0.771051 -1.3745 0
M  V30 290 C 31.9901 1.87456 -1.29785 0
M  V30 291 C 32.9741 1.59827 -0.185541 0
M  V30 292 O 34.1661 1.71945 -0.419997 0
M  V30 293 C 31.2951 3.24935 -1.1078 0
M  V30 294 C 30.3811 3.58514 -2.26558 0
M  V30 295 N 30.7721 3.6327 -3.5195 0
M  V30 296 C 29.0701 3.88683 -2.18727 0
M  V30 297 C 29.7711 3.93616 -4.283 0
M  V30 298 N 28.7471 4.09551 -3.57448 0
M  V30 299 H 32.5491 1.89386 -2.24745 0
M  V30 300 H 30.0631 0.967531 -1.30432 0
M  V30 301 H 32.0601 4.03881 -1.03374 0
M  V30 302 H 30.7201 3.24268 -0.16738 0
M  V30 303 H 31.7311 3.45458 -3.85848 0
M  V30 304 H 28.4081 3.95834 -1.32746 0
M  V30 305 H 29.7981 4.04066 -5.36824 0
M  V30 306 N 32.5182 1.22032 0.997298 0
M  V30 307 C 33.4282 1.00271 2.12092 0
M  V30 308 C 34.4442 -0.047621 1.73935 0
M  V30 309 O 35.6202 0.144136 2.00884 0
M  V30 310 C 32.6852 0.578449 3.4184 0
M  V30 311 C 31.7462 1.70189 3.94125 0
M  V30 312 C 30.9792 1.29778 5.17681 0
M  V30 313 O 31.2022 0.174676 5.70132 0
M  V30 314 O 30.1362 2.11261 5.63607 0
M  V30 315 H 33.9622 1.94398 2.3333 0
M  V30 316 H 31.5472 1.00587 1.10465 0
M  V30 317 H 33.4292 0.351998 4.19927 0
M  V30 318 H 32.1042 -0.334019 3.21972 0
M  V30 319 H 31.0112 1.98282 3.1723 0
M  V30 320 H 32.3442 2.59206 4.18417 0
M  V30 321 N 33.9963 -1.19345 1.0293 0
M  V30 322 C 35.2453 -1.88363 0.721256 0
M  V30 323 C 35.5583 -1.80514 -0.753254 0
M  V30 324 O 36.7643 -2.44788 -1.17436 0
M  V30 325 C 35.2203 -3.37872 1.23978 0
M  V30 326 C 34.8283 -3.54278 2.74211 0
M  V30 327 C 36.5723 -4.12365 1.00775 0
M  V30 328 C 34.4793 -4.97682 3.19479 0
M  V30 329 H 33.4093 -0.705484 0.266098 0
M  V30 330 H 36.0603 -1.34928 1.24365 0
M  V30 331 H 34.4423 -3.90707 0.6453 0
M  V30 332 H 35.6163 -3.11769 3.39318 0
M  V30 333 H 33.9313 -2.93174 2.95699 0
M  V30 334 H 36.5283 -5.18119 1.32123 0
M  V30 335 H 36.8713 -4.16263 -0.0554308 0
M  V30 336 H 37.4043 -3.65668 1.56625 0
M  V30 337 H 34.1433 -4.98945 4.25128 0
M  V30 338 H 33.6633 -5.4095 2.591 0
M  V30 339 H 35.3423 -5.66337 3.12845 0
M  V30 340 N 35.4744 -0.807222 -1.35358 0
M  V30 341 C 36.4074 -0.163572 -2.27613 0
M  V30 342 C 37.3854 0.670817 -1.48118 0
M  V30 343 O 38.5694 0.63796 -1.77376 0
M  V30 344 C 35.6964 0.773015 -3.29761 0
M  V30 345 C 34.7424 0.0181653 -4.26496 0
M  V30 346 S 35.5754 -1.31831 -5.19019 0
M  V30 347 C 36.7314 -0.38619 -6.24707 0
M  V30 348 H 36.9644 -0.945757 -2.81856 0
M  V30 349 H 34.4974 -0.602315 -1.42167 0
M  V30 350 H 36.4554 1.30788 -3.89108 0
M  V30 351 H 35.1164 1.52859 -2.74396 0
M  V30 352 H 34.3094 0.729534 -4.98692 0
M  V30 353 H 33.9114 -0.446761 -3.71322 0
M  V30 354 H 36.2034 0.428295 -6.76145 0
M  V30 355 H 37.1464 -1.07736 -6.99856 0
M  V30 356 H 37.5544 0.018398 -5.64497 0
M  V30 357 N 36.9525 1.47285 -0.560781 0
M  V30 358 C 37.9155 2.28535 0.174488 0
M  V30 359 C 38.9155 1.37153 0.839388 0
M  V30 360 O 40.1055 1.59748 0.694702 0
M  V30 361 C 37.2375 3.16934 1.25561 0
M  V30 362 H 38.4305 2.95012 -0.539262 0
M  V30 363 H 35.9835 1.53034 -0.317865 0
M  V30 364 H 36.7185 2.55157 2.00164 0
M  V30 365 H 36.5035 3.8419 0.783604 0
M  V30 366 H 37.9935 3.78143 1.77193 0
M  V30 367 N 38.4306 0.297415 1.54768 0
M  V30 368 C 39.6766 -0.313376 2.00364 0
M  V30 369 C 40.0096 -1.53815 1.18553 0
M  V30 370 O 39.2846 -1.92739 0.261103 0
M  V30 371 C 39.5676 -0.673525 3.53745 0
M  V30 372 C 39.4206 0.560133 4.46299 0
M  V30 373 C 40.7396 -1.50143 4.13697 0
M  V30 374 H 37.8586 -0.112428 0.728374 0
M  V30 375 H 40.5006 0.4088 1.8555 0
M  V30 376 H 38.6506 -1.28881 3.665 0
M  V30 377 H 40.3226 1.19863 4.45455 0
M  V30 378 H 38.5656 1.19405 4.17043 0
M  V30 379 H 39.2366 0.26405 5.51368 0
M  V30 380 H 41.7126 -0.981588 4.04356 0
M  V30 381 H 40.5886 -1.72221 5.21182 0
M  V30 382 H 40.8496 -2.48952 3.65343 0
M  V30 383 N 39.9087 -1.5758 0.0250728 0
M  V30 384 C 41.1857 -1.82917 -0.692873 0
M  V30 385 C 41.5657 -0.908137 -1.90568 0
M  V30 386 O 40.9137 0.0372298 -2.2847 0
M  V30 387 C 41.1237 -3.32034 -1.07492 0
M  V30 388 C 42.4717 -3.98406 -1.46826 0
M  V30 389 O 43.4957 -3.36505 -1.16801 0
M  V30 390 O 42.3547 -5.07497 -2.02754 0
M  V30 391 H 39.4487 -0.754079 -0.33955 0
M  V30 392 H 41.9947 -1.69619 0.0524456 0
M  V30 393 H 40.7667 -3.90728 -0.211552 0
M  V30 394 H 40.3897 -3.50424 -1.87854 0
M  V30 395 N 41.3868 0.248026 -1.55636 0
M  V30 396 C 42.6358 0.974134 -1.76617 0
M  V30 397 C 42.9488 1.86528 -0.588796 0
M  V30 398 O 44.1548 2.62805 -0.681594 0
M  V30 399 C 42.6108 1.78213 -3.12679 0
M  V30 400 C 42.2188 0.93843 -4.38061 0
M  V30 401 C 43.9628 2.50104 -3.42999 0
M  V30 402 C 41.8698 1.74225 -5.65155 0
M  V30 403 H 40.7998 0.36745 -0.658405 0
M  V30 404 H 43.4508 0.22884 -1.82067 0
M  V30 405 H 41.8328 2.56933 -3.01333 0
M  V30 406 H 43.0068 0.193635 -4.60393 0
M  V30 407 H 41.3218 0.332905 -4.15067 0
M  V30 408 H 43.9188 3.10694 -4.3517 0
M  V30 409 H 44.2618 3.21662 -2.64271 0
M  V30 410 H 44.7948 1.78395 -3.55556 0
M  V30 411 H 41.5338 1.07043 -6.46701 0
M  V30 412 H 41.0538 2.46235 -5.46926 0
M  V30 413 H 42.7328 2.30967 -6.0437 0
M  V30 414 N 42.8649 1.48995 0.513639 0
M  V30 415 C 44.0949 1.61297 1.291 0
M  V30 416 C 44.5029 0.278656 1.87137 0
M  V30 417 O 43.8459 -0.744325 1.67945 0
M  V30 418 C 43.9079 2.61326 2.46879 0
M  V30 419 C 43.5719 4.05993 2.09807 0
M  V30 420 C 44.5689 4.93183 1.64519 0
M  V30 421 C 42.2539 4.51642 2.19829 0
M  V30 422 C 44.2479 6.24056 1.2974 0
M  V30 423 C 41.9349 5.82532 1.84662 0
M  V30 424 C 42.9329 6.68562 1.3969 0
M  V30 425 O 42.6209 7.97014 1.04992 0
M  V30 426 H 42.3529 0.546236 0.39825 0
M  V30 427 H 44.9069 1.95673 0.62459 0
M  V30 428 H 43.1369 2.22104 3.16554 0
M  V30 429 H 44.8259 2.6329 3.08923 0
M  V30 430 H 45.5919 4.59147 1.56233 0
M  V30 431 H 41.4709 3.84855 2.53786 0
M  V30 432 H 45.0149 6.91161 0.945659 0
M  V30 433 H 40.9119 6.16099 1.92594 0
M  V30 434 H 41.6799 8.09913 1.18249 0
M  V30 435 N 44.343 -0.763751 1.37857 0
M  V30 436 C 45.589 -1.52483 1.33704 0
M  V30 437 C 45.922 -1.94051 -0.0759612 0
M  V30 438 O 45.197 -1.64675 -1.03501 0
M  V30 439 C 45.48 -2.78441 2.28348 0
M  V30 440 C 45.333 -2.43075 3.78463 0
M  V30 441 C 46.652 -3.80415 2.21298 0
M  V30 442 H 43.771 -0.553169 0.487005 0
M  V30 443 H 46.413 -0.875562 1.68624 0
M  V30 444 H 44.563 -3.33842 1.987 0
M  V30 445 H 46.235 -1.93527 4.18742 0
M  V30 446 H 44.478 -1.75666 3.96641 0
M  V30 447 H 45.149 -3.33149 4.40132 0
M  V30 448 H 47.625 -3.34527 2.47449 0
M  V30 449 H 46.501 -4.66257 2.89647 0
M  V30 450 H 46.762 -4.25262 1.20849 0
M  V30 451 N 45.8211 -1.22559 -0.990812 0
M  V30 452 C 46.7691 -0.994798 -2.10253 0
M  V30 453 C 47.7631 0.0627798 -1.69284 0
M  V30 454 O 48.9691 -0.0898392 -1.79776 0
M  V30 455 H 45.3441 -0.304527 -0.687581 0
M  V30 456 H 47.3151 -1.93812 -2.26891 0
M  V30 457 C 46.0641 -0.591439 -3.42633 0
M  V30 458 H 45.3871 -1.3969 -3.74602 0
M  V30 459 H 46.8271 -0.469385 -4.21394 0
M  V30 460 C 45.2861 0.699232 -3.29564 0
M  V30 461 O 45.8161 1.75112 -3.61523 0
M  V30 462 N 44.0221 0.671182 -2.82743 0
M  V30 463 H 43.5691 -0.185136 -2.56934 0
M  V30 464 H 43.5271 1.53502 -2.7438 0
M  V30 465 N 47.2992 1.18797 -1.03562 0
M  V30 466 C 48.7102 1.70322 -0.764676 0
M  V30 467 C 49.0612 1.82708 0.714996 0
M  V30 468 O 48.1862 1.50299 1.55689 0
M  V30 469 C 48.7812 3.09356 -1.38145 0
M  V30 470 C 47.3402 3.58114 -1.15895 0
M  V30 471 C 46.4872 2.34798 -1.4753 0
M  V30 472 H 49.4382 1.03543 -1.20268 0
M  V30 473 H 49.4592 3.72378 -0.781977 0
M  V30 474 H 48.9712 3.00309 -2.45837 0
M  V30 475 H 47.0722 3.72464 -0.100544 0
M  V30 476 H 47.1852 4.4184 -1.8524 0
M  V30 477 H 45.5492 2.38464 -0.894829 0
M  V30 478 H 46.3322 2.28375 -2.56319 0
M  V30 479 N 48.7773 0.814389 1.34928 0
M  V30 480 C 50.1883 0.458364 1.80986 0
M  V30 481 C 50.5393 -1.02042 1.67577 0
M  V30 482 O 49.6643 -1.79352 1.21086 0
M  V30 483 C 50.2593 0.825212 3.28597 0
M  V30 484 C 48.8183 0.521677 3.72767 0
M  V30 485 C 47.9653 1.04668 2.56788 0
M  V30 486 H 50.9163 1.00533 1.22795 0
M  V30 487 H 50.9373 0.12571 3.80292 0
M  V30 488 H 50.4493 1.90154 3.38324 0
M  V30 489 H 48.5503 -0.545589 3.68584 0
M  V30 490 H 48.6633 1.05977 4.67232 0
M  V30 491 H 47.0273 0.468622 2.50352 0
M  V30 492 H 47.8103 2.12927 2.6929 0
M  V30 493 N 50.2554 -1.46986 0.568584 0
M  V30 494 C 51.6714 -1.57946 0.229189 0
M  V30 495 C 51.8714 -1.56567 -1.26843 0
M  V30 496 O 50.9274 -1.47511 -2.04931 0
M  V30 497 C 52.2404 -2.87963 0.865909 0
M  V30 498 C 53.7884 -3.01568 0.838188 0
M  V30 499 C 54.2634 -4.34301 1.45419 0
M  V30 500 N 55.7544 -4.40965 1.41788 0
M  V30 501 C 56.4894 -5.42256 1.86403 0
M  V30 502 N 55.9854 -6.50297 2.38926 0
M  V30 503 N 57.7784 -5.3337 1.77405 0
M  V30 504 H 49.9294 -1.46126 1.54146 0
M  V30 505 H 52.1924 -0.696156 0.643484 0
M  V30 506 H 51.8984 -2.94742 1.91886 0
M  V30 507 H 51.7724 -3.75423 0.365687 0
M  V30 508 H 54.1594 -2.94379 -0.206106 0
M  V30 509 H 54.2404 -2.1562 1.37629 0
M  V30 510 H 53.8844 -4.42247 2.49761 0
M  V30 511 H 53.8144 -5.19 0.891435 0
M  V30 512 H 56.3054 -3.63484 1.03381 0
M  V30 513 H 56.6184 -7.23777 2.70863 0
M  V30 514 H 54.9634 -6.51155 2.42944 0
M  V30 515 H 58.1544 -4.47865 1.3614 0
M  V30 516 H 58.3274 -6.12169 2.12492 0
M  V30 517 N 51.7335 -0.305618 -1.54608 0
M  V30 518 C 52.9795 0.302746 -2.00528 0
M  V30 519 C 53.3125 1.53184 -1.19367 0
M  V30 520 O 52.5875 1.92598 -0.271321 0
M  V30 521 C 52.8705 0.654756 -3.54097 0
M  V30 522 C 52.7235 -0.583793 -4.45995 0
M  V30 523 C 54.0425 1.47947 -4.14487 0
M  V30 524 H 51.1615 0.108564 -0.72896 0
M  V30 525 H 53.8035 -0.418634 -1.85331 0
M  V30 526 H 51.9535 1.26935 -3.67178 0
M  V30 527 H 53.6255 -1.22224 -4.44814 0
M  V30 528 H 51.8685 -1.21615 -4.16404 0
M  V30 529 H 52.5395 -0.293287 -5.5122 0
M  V30 530 H 55.0155 0.96013 -4.04871 0
M  V30 531 H 53.8915 1.69454 -5.22088 0
M  V30 532 H 54.1525 2.47011 -3.66658 0
M  V30 533 N 53.2116 1.57565 -0.0334293 0
M  V30 534 C 54.4886 1.83282 0.683163 0
M  V30 535 C 54.8686 0.91823 1.90084 0
M  V30 536 O 54.2166 -0.025113 2.28486 0
M  V30 537 C 54.4266 3.32599 1.0573 0
M  V30 538 C 55.7746 3.99179 1.44711 0
M  V30 539 O 56.7986 3.3712 1.15015 0
M  V30 540 O 55.6576 5.08565 2.0006 0
M  V30 541 H 52.7516 0.755869 0.335546 0
M  V30 542 H 55.2976 1.69589 -0.0614402 0
M  V30 543 H 54.0696 3.90834 0.190828 0
M  V30 544 H 53.6926 3.51415 1.85993 0
M  V30 545 N 54.6897 -0.239769 1.55765 0
M  V30 546 C 55.9357 -0.968234 1.78194 0
M  V30 547 C 56.2687 -1.84701 0.599938 0
M  V30 548 O 55.5437 -1.9031 -0.401524 0
M  V30 549 C 55.8267 -1.8227 3.10564 0
M  V30 550 C 55.6797 -0.971633 4.3918 0
M  V30 551 C 56.9987 -2.80388 3.39221 0
M  V30 552 H 54.1177 -0.350572 0.648281 0
M  V30 553 H 56.7597 -0.238259 1.885 0
M  V30 554 H 54.9097 -2.44507 3.01908 0
M  V30 555 H 56.5817 -0.367408 4.59835 0
M  V30 556 H 54.8247 -0.276276 4.32919 0
M  V30 557 H 55.4957 -1.60346 5.28198 0
M  V30 558 H 57.9717 -2.28287 3.47885 0
M  V30 559 H 56.8477 -3.3729 4.33044 0
M  V30 560 H 57.1087 -3.57212 2.60484 0
M  V30 561 N 56.1678 -1.49265 -0.50573 0
M  V30 562 C 57.4148 -1.58513 -1.26015 0
M  V30 563 C 57.7428 -0.26972 -1.92621 0
M  V30 564 O 56.9978 0.741997 -1.81088 0
M  V30 565 C 57.2968 -2.69008 -2.35308 0
M  V30 566 C 56.9628 -4.10662 -1.86192 0
M  V30 567 C 55.6248 -4.49212 -1.72516 0
M  V30 568 C 57.9768 -4.99336 -1.49375 0
M  V30 569 C 55.3048 -5.74214 -1.20394 0
M  V30 570 C 57.6568 -6.24852 -0.987072 0
M  V30 571 C 56.3208 -6.62236 -0.836669 0
M  V30 572 H 55.5908 -0.580041 -0.461122 0
M  V30 573 H 58.2378 -1.83078 -0.561665 0
M  V30 574 H 56.5428 -2.38396 -3.10926 0
M  V30 575 H 58.2398 -2.73373 -2.93374 0
M  V30 576 H 54.8298 -3.8023 -1.97795 0
M  V30 577 H 59.0138 -4.70212 -1.5879 0
M  V30 578 H 54.2698 -6.01883 -1.07458 0
M  V30 579 H 58.4438 -6.92944 -0.692983 0
M  V30 580 H 56.0708 -7.58979 -0.430607 0
M  V30 581 N 57.6459 0.756429 -1.3826 0
M  V30 582 C 58.5959 1.86069 -1.31766 0
M  V30 583 C 59.5799 1.59621 -0.202483 0
M  V30 584 O 60.7719 1.7149 -0.438211 0
M  V30 585 C 57.9009 3.23742 -1.1422 0
M  V30 586 C 56.9869 3.56091 -2.30348 0
M  V30 587 N 57.3779 3.59517 -3.55783 0
M  V30 588 C 55.6759 3.86341 -2.22838 0
M  V30 589 C 56.3769 3.89052 -4.32451 0
M  V30 590 N 55.3529 4.05736 -3.61772 0
M  V30 591 H 59.1549 1.86992 -2.26741 0
M  V30 592 H 56.6689 0.953643 -1.31451 0
M  V30 593 H 58.6659 4.02761 -1.07652 0
M  V30 594 H 57.3259 3.24073 -0.201763 0
M  V30 595 H 58.3369 3.41347 -3.89491 0
M  V30 596 H 55.0139 3.94404 -1.36937 0
M  V30 597 H 56.4039 3.98349 -5.4108 0
M  V30 598 N 59.124 1.23083 0.984299 0
M  V30 599 C 60.372 1.05848 1.72165 0
M  V30 600 C 60.693 -0.406049 1.90726 0
M  V30 601 O 59.963 -1.29139 1.47309 0
M  V30 602 H 58.543 0.388685 0.637913 0
M  V30 603 H 61.205 1.54736 1.18503 0
M  V30 604 H 60.301 1.54327 2.71274 0
M  V30 605 N 60.6021 -1.18246 1.0419 0
M  V30 606 C 61.8301 -1.92195 0.766072 0
M  V30 607 C 62.2451 -1.76247 -0.676933 0
M  V30 608 O 61.6021 -1.09293 -1.46155 0
M  V30 609 C 61.6531 -3.43568 1.12442 0
M  V30 610 O 61.3741 -3.59015 2.51078 0
M  V30 611 C 62.8751 -4.34613 0.873275 0
M  V30 612 H 60.0951 -0.610114 0.279288 0
M  V30 613 H 62.6391 -1.50007 1.38989 0
M  V30 614 H 60.7941 -3.8354 0.545542 0
M  V30 615 H 61.2081 -4.5273 2.64831 0
M  V30 616 H 62.6821 -5.39374 1.17385 0
M  V30 617 H 63.1591 -4.38781 -0.191909 0
M  V30 618 H 63.7651 -4.00341 1.43551 0
M  V30 619 N 62.0802 -0.821533 -1.34494 0
M  V30 620 C 63.4912 -0.467956 -1.8074 0
M  V30 621 C 63.8422 1.01151 -1.68116 0
M  V30 622 O 62.9672 1.78707 -1.22036 0
M  V30 623 C 63.5622 -0.842627 -3.28154 0
M  V30 624 C 62.1212 -0.541439 -3.72485 0
M  V30 625 C 61.2682 -1.06028 -2.56229 0
M  V30 626 H 64.2192 -1.01183 -1.22261 0
M  V30 627 H 64.2402 -0.145876 -3.8022 0
M  V30 628 H 63.7522 -1.91945 -3.37311 0
M  V30 629 H 61.8532 0.526034 -3.68868 0
M  V30 630 H 61.9662 -1.08453 -4.66663 0
M  V30 631 H 60.3302 -0.481892 -2.501 0
M  V30 632 H 61.1132 -2.14352 -2.68157 0
M  V30 633 N 63.5583 1.46682 -0.576371 0
M  V30 634 C 64.9693 1.86112 -0.148091 0
M  V30 635 C 65.3203 1.48073 1.2872 0
M  V30 636 O 64.4453 0.892656 1.97131 0
M  V30 637 C 65.0403 3.37786 -0.261982 0
M  V30 638 C 63.5993 3.76235 0.111384 0
M  V30 639 C 62.7463 2.70713 -0.60083 0
M  V30 640 H 65.6973 1.37927 -0.78497 0
M  V30 641 H 65.7183 3.77007 0.514364 0
M  V30 642 H 65.2303 3.6544 -1.30671 0
M  V30 643 H 63.3313 3.54198 1.15649 0
M  V30 644 H 63.4443 4.78391 -0.26052 0
M  V30 645 H 61.8083 2.54666 -0.0417783 0
M  V30 646 H 62.5913 3.01208 -1.64708 0
M  V30 647 N 65.0364 0.313813 1.54444 0
M  V30 648 C 65.9994 -0.54379 2.22656 0
M  V30 649 C 66.9994 -1.05124 1.21678 0
M  V30 650 O 68.1894 -0.945225 1.46325 0
M  V30 651 C 65.3214 -1.75427 2.92298 0
M  V30 652 H 66.5144 0.0523599 2.99854 0
M  V30 653 H 64.0674 0.0647834 1.56166 0
M  V30 654 H 64.8024 -2.38991 2.19211 0
M  V30 655 H 64.5874 -1.39791 3.66334 0
M  V30 656 H 66.0774 -2.36325 3.44297 0
M  V30 657 N 66.5145 -1.57545 0.0417849 0
M  V30 658 C 67.7605 -1.93424 -0.629168 0
M  V30 659 C 68.1155 -0.919564 -1.69002 0
M  V30 660 O 67.4085 0.0626178 -1.91498 0
M  V30 661 C 67.6025 -3.33794 -1.27735 0
M  V30 662 C 67.4315 -4.48822 -0.280806 0
M  V30 663 C 66.2015 -5.05148 0.123869 0
M  V30 664 C 68.3995 -5.12148 0.470012 0
M  V30 665 N 66.3815 -6.03703 1.11426 0
M  V30 666 C 67.7525 -6.05921 1.31377 0
M  V30 667 C 69.8075 -4.95078 0.529343 0
M  V30 668 C 68.5105 -6.84459 2.21152 0
M  V30 669 C 70.5365 -5.74235 1.41448 0
M  V30 670 C 69.8985 -6.67634 2.24598 0
M  V30 671 H 65.9975 -0.755418 -0.202158 0
M  V30 672 H 68.5815 -1.94378 0.111923 0
M  V30 673 H 66.7525 -3.33635 -1.98852 0
M  V30 674 H 68.4845 -3.56988 -1.90635 0
M  V30 675 H 65.2395 -4.72923 -0.253178 0
M  V30 676 H 65.6635 -6.57674 1.60607 0
M  V30 677 H 70.3055 -4.22683 -0.0992798 0
M  V30 678 H 68.0235 -7.56151 2.85063 0
M  V30 679 H 71.6095 -5.63057 1.46484 0
M  V30 680 H 70.4895 -7.27817 2.9198 0
M  V30 681 N 67.9926 0.231505 -1.5589 0
M  V30 682 C 69.2176 0.978689 -1.82856 0
M  V30 683 C 69.6426 1.77559 -0.620846 0
M  V30 684 O 69.0006 1.76119 0.430305 0
M  V30 685 C 69.0486 1.87997 -3.07716 0
M  V30 686 O 68.1526 2.97393 -2.85712 0
M  V30 687 H 67.4936 0.277663 -0.603158 0
M  V30 688 H 70.0236 0.24783 -2.03093 0
M  V30 689 H 70.0336 2.2917 -3.37558 0
M  V30 690 H 68.7086 1.29417 -3.95252 0
M  V30 691 H 67.2856 2.60238 -2.67078 0
M  V30 692 N 69.4707 1.49531 0.497807 0
M  V30 693 C 70.6957 1.63159 1.28039 0
M  V30 694 C 71.1207 0.30418 1.85624 0
M  V30 695 O 70.4787 -0.728618 1.66015 0
M  V30 696 C 70.5267 2.70537 2.38416 0
M  V30 697 O 69.6307 2.29931 3.42353 0
M  V30 698 H 68.9717 0.546001 0.377861 0
M  V30 699 H 71.5017 1.9574 0.59558 0
M  V30 700 H 71.5117 2.92802 2.84132 0
M  V30 701 H 70.1867 3.6689 1.95869 0
M  V30 702 H 68.7637 2.18009 3.02533 0
M  V30 703 N 70.9488 -0.749086 1.3866 0
M  V30 704 C 72.1958 -1.50833 1.35114 0
M  V30 705 C 72.5238 -1.94415 -0.0574049 0
M  V30 706 O 71.7788 -1.66065 -1.03541 0
M  V30 707 C 72.0778 -2.7712 2.25697 0
M  V30 708 C 71.7438 -2.52477 3.73585 0
M  V30 709 C 70.4058 -2.45466 4.13884 0
M  V30 710 C 72.7578 -2.31066 4.67181 0
M  V30 711 C 70.0858 -2.15064 5.45861 0
M  V30 712 C 72.4378 -2.02183 5.9942 0
M  V30 713 C 71.1018 -1.93631 6.38798 0
M  V30 714 H 70.3718 -0.551936 0.494416 0
M  V30 715 H 73.0188 -0.860979 1.71054 0
M  V30 716 H 71.3238 -3.46528 1.82827 0
M  V30 717 H 73.0208 -3.35096 2.20254 0
M  V30 718 H 69.6108 -2.58807 3.41638 0
M  V30 719 H 73.7948 -2.35459 4.3689 0
M  V30 720 H 69.0508 -2.06954 5.75308 0
M  V30 721 H 73.2248 -1.8462 6.71482 0
M  V30 722 H 70.8518 -1.69839 7.40985 0
M  V30 723 N 72.4269 -1.23603 -0.977757 0
M  V30 724 C 73.6749 -1.06759 -1.71601 0
M  V30 725 C 73.9959 0.395929 -1.90938 0
M  V30 726 O 73.2659 1.28356 -1.47992 0
M  V30 727 H 71.8459 -0.392062 -0.635843 0
M  V30 728 H 74.5079 -1.55362 -1.1768 0
M  V30 729 H 73.6039 -1.55763 -2.70452 0
M  V30 730 N 73.905 1.17692 -1.04816 0
M  V30 731 C 74.853 2.23632 -0.63966 0
M  V30 732 C 75.847 1.6601 0.337219 0
M  V30 733 O 77.053 1.78844 0.203693 0
M  V30 734 H 73.428 0.727949 -0.188665 0
M  V30 735 H 75.399 2.55387 -1.54337 0
M  V30 736 C 74.148 3.4769 -0.0264051 0
M  V30 737 H 73.471 3.92331 -0.769164 0
M  V30 738 H 74.911 4.23418 0.222098 0
M  V30 739 C 73.37 3.13807 1.22584 0
M  V30 740 O 73.9 3.28236 2.31569 0
M  V30 741 N 72.106 2.68065 1.12202 0
M  V30 742 H 71.653 2.56525 0.235133 0
M  V30 743 H 71.611 2.45767 1.96076 0
M  V30 744 N 75.3831 0.828654 1.34056 0
M  V30 745 C 76.3301 0.252567 2.29414 0
M  V30 746 C 77.3001 -0.62588 1.53857 0
M  V30 747 O 78.4851 -0.566312 1.82202 0
M  V30 748 C 75.6251 -0.574831 3.40279 0
M  V30 749 C 74.7381 0.326499 4.30764 0
M  V30 750 C 73.8731 -0.511016 5.28736 0
M  V30 751 C 72.9121 0.389342 6.1086 0
M  V30 752 N 72.0491 -0.409439 7.00905 0
M  V30 753 H 76.8891 1.07108 2.78086 0
M  V30 754 H 74.4261 0.539677 1.36843 0
M  V30 755 H 76.3841 -1.06992 4.03248 0
M  V30 756 H 75.0141 -1.35841 2.92826 0
M  V30 757 H 74.0661 0.939837 3.68607 0
M  V30 758 H 75.3781 1.01857 4.88289 0
M  V30 759 H 74.5321 -1.07035 5.97184 0
M  V30 760 H 73.2711 -1.23657 4.71763 0
M  V30 761 H 72.2761 0.960769 5.4134 0
M  V30 762 H 73.5011 1.1131 6.69916 0
M  V30 763 H 71.4471 -1.11856 6.46393 0
M  V30 764 H 71.3641 0.224126 7.55668 0
M  V30 765 H 72.6321 -0.951336 7.73673 0
M  V30 766 N 76.8612 -1.46375 0.584142 0
M  V30 767 C 78.0892 -2.06761 0.0759296 0
M  V30 768 C 78.5042 -1.43266 -1.22965 0
M  V30 769 O 77.8612 -0.538458 -1.74376 0
M  V30 770 C 77.9122 -3.61375 -0.0950384 0
M  V30 771 O 77.6332 -4.22495 1.15887 0
M  V30 772 C 79.1342 -4.38693 -0.637434 0
M  V30 773 H 76.3542 -0.668479 0.0581075 0
M  V30 774 H 78.8982 -1.8798 0.805218 0
M  V30 775 H 77.0532 -3.79578 -0.774554 0
M  V30 776 H 77.4672 -5.15385 0.973598 0
M  V30 777 H 78.9412 -5.47464 -0.706237 0
M  V30 778 H 79.4182 -4.06836 -1.65472 0
M  V30 779 H 80.0242 -4.25299 0.00725967 0
M  V30 780 N 78.3393 -0.321999 -1.54275 0
M  V30 781 C 79.5883 0.281931 -1.9972 0
M  V30 782 C 79.9013 1.53369 -1.21397 0
M  V30 783 O 81.1073 2.21352 -1.57211 0
M  V30 784 C 79.5633 0.5529 -3.55628 0
M  V30 785 C 79.1713 -0.681721 -4.42783 0
M  V30 786 C 80.9153 1.11687 -4.09544 0
M  V30 787 C 78.8223 -0.382742 -5.9016 0
M  V30 788 H 77.7523 0.109124 -0.746062 0
M  V30 789 H 80.4033 -0.43398 -1.78294 0
M  V30 790 H 78.7853 1.32896 -3.73035 0
M  V30 791 H 79.9593 -1.45723 -4.37151 0
M  V30 792 H 78.2743 -1.1658 -3.99748 0
M  V30 793 H 80.8713 1.35515 -5.17242 0
M  V30 794 H 81.2143 2.06575 -3.61431 0
M  V30 795 H 81.7473 0.402032 -3.95763 0
M  V30 796 H 78.4863 -1.30076 -6.42464 0
M  V30 797 H 78.0063 0.355094 -5.98748 0
M  V30 798 H 79.6853 0.00800157 -6.47 0
M  V30 799 N 79.8174 1.5752 -0.0501392 0
M  V30 800 C 81.0634 1.93755 0.618901 0
M  V30 801 C 81.4184 0.928514 1.68512 0
M  V30 802 O 80.7114 -0.0524613 1.91528 0
M  V30 803 C 80.9054 3.34467 1.25963 0
M  V30 804 C 80.7344 4.48965 0.257 0
M  V30 805 C 79.5044 5.05075 -0.150656 0
M  V30 806 C 81.7024 5.11891 -0.497166 0
M  V30 807 N 79.6844 6.03104 -1.14626 0
M  V30 808 C 81.0554 6.05216 -1.34588 0
M  V30 809 C 83.1104 4.9479 -0.55559 0
M  V30 810 C 81.8134 6.83277 -2.24778 0
M  V30 811 C 83.8394 5.73477 -1.44492 0
M  V30 812 C 83.2014 6.66433 -2.28136 0
M  V30 813 H 79.3004 0.756479 0.198149 0
M  V30 814 H 81.8844 1.94316 -0.122229 0
M  V30 815 H 80.0554 3.34685 1.97079 0
M  V30 816 H 81.7874 3.57994 1.88739 0
M  V30 817 H 78.5424 4.7305 0.228094 0
M  V30 818 H 78.9664 6.56813 -1.64092 0
M  V30 819 H 83.6084 4.2273 0.0768625 0
M  V30 820 H 81.3264 7.54629 -2.89069 0
M  V30 821 H 84.9124 5.62273 -1.49468 0
M  V30 822 H 83.7924 7.26258 -2.95835 0
M  V30 823 N 81.2955 -0.223234 1.56011 0
M  V30 824 C 82.5435 -0.946003 1.78592 0
M  V30 825 C 82.8645 -1.84936 0.618349 0
M  V30 826 O 82.1345 -1.92473 -0.364833 0
M  V30 827 H 80.7145 -0.352298 0.658707 0
M  V30 828 H 83.3765 -0.235494 1.93472 0
M  V30 829 H 82.4725 -1.55381 2.70672 0
M  V30 830 N 82.7736 -1.49793 -0.48987 0
M  V30 831 C 84.0216 -1.59525 -1.24081 0
M  V30 832 C 84.3426 -0.288953 -1.92847 0
M  V30 833 O 83.6126 0.692436 -1.83254 0
M  V30 834 H 82.1926 -0.587796 -0.460983 0
M  V30 835 H 84.8546 -1.86477 -0.566778 0
M  V30 836 H 83.9506 -2.39696 -1.99881 0
M  V30 837 N 84.2517 0.741722 -1.39055 0
M  V30 838 C 85.1997 1.87702 -1.3737 0
M  V30 839 C 86.1937 1.67427 -0.257812 0
M  V30 840 O 87.3997 1.7485 -0.427489 0
M  V30 841 H 83.7747 0.617757 -0.428812 0
M  V30 842 H 85.7457 1.86239 -2.33147 0
M  V30 843 C 84.4947 3.25315 -1.22741 0
M  V30 844 H 83.8177 3.41509 -2.07873 0
M  V30 845 H 85.2577 4.04964 -1.25618 0
M  V30 846 C 83.7167 3.36838 0.0647316 0
M  V30 847 O 84.2467 3.88073 1.03741 0
M  V30 848 N 82.4527 2.90329 0.125544 0
M  V30 849 H 81.9997 2.48823 -0.666682 0
M  V30 850 H 81.9577 2.98418 0.989639 0
M  V30 851 N 85.7298 1.2412 0.971189 0
M  V30 852 C 86.6398 1.04747 2.09917 0
M  V30 853 C 87.6558 -0.0107162 1.73997 0
M  V30 854 O 88.8318 0.186714 2.00533 0
M  V30 855 C 85.8968 0.650828 3.40537 0
M  V30 856 C 84.9578 1.7851 3.90426 0
M  V30 857 C 84.1908 1.40729 5.14812 0
M  V30 858 O 84.4138 0.29557 5.69634 0
M  V30 859 O 83.3478 2.23168 5.58999 0
M  V30 860 H 87.1738 1.99304 2.29154 0
M  V30 861 H 84.7588 1.02908 1.08307 0
M  V30 862 H 86.6408 0.440992 4.19086 0
M  V30 863 H 85.3158 -0.265649 3.22608 0
M  V30 864 H 84.2228 2.04966 3.12953 0
M  V30 865 H 85.5558 2.68023 4.12825 0
M  V30 866 N 87.2079 -1.17134 1.05439 0
M  V30 867 C 88.4539 -1.87979 0.776872 0
M  V30 868 C 88.8089 -1.7965 -0.688751 0
M  V30 869 O 88.1019 -1.19535 -1.4974 0
M  V30 870 C 88.2959 -3.36833 1.19491 0
M  V30 871 C 88.1249 -3.59653 2.69963 0
M  V30 872 C 86.8949 -3.76234 3.37307 0
M  V30 873 C 89.0929 -3.59091 3.68182 0
M  V30 874 N 87.0749 -3.86922 4.76618 0
M  V30 875 C 88.4459 -3.75659 4.93235 0
M  V30 876 C 90.5009 -3.42255 3.61616 0
M  V30 877 C 89.2039 -3.77133 6.12506 0
M  V30 878 C 91.2299 -3.45018 4.8033 0
M  V30 879 C 90.5919 -3.62096 6.04207 0
M  V30 880 H 86.6909 -0.705876 0.336546 0
M  V30 881 H 89.2749 -1.40602 1.34682 0
M  V30 882 H 87.4459 -3.82873 0.652884 0
M  V30 883 H 89.1779 -3.95305 0.866966 0
M  V30 884 H 85.9329 -3.76193 2.87708 0
M  V30 885 H 86.3569 -3.96055 5.49062 0
M  V30 886 H 90.9989 -3.27986 2.66805 0
M  V30 887 H 88.7169 -3.90186 7.07659 0
M  V30 888 H 92.3029 -3.33246 4.76905 0
M  V30 889 H 91.1829 -3.64142 6.94529 0
M  V30 890 N 88.686 -0.835752 -1.33615 0
M  V30 891 C 89.932 -0.430596 -1.98176 0
M  V30 892 C 90.265 1.00684 -1.66061 0
M  V30 893 O 89.54 1.70339 -0.938877 0
M  V30 894 C 89.823 -0.648065 -3.5422 0
M  V30 895 C 89.676 -2.13255 -3.96033 0
M  V30 896 C 90.995 -0.0922113 -4.40003 0
M  V30 897 H 88.114 -0.157924 -0.719881 0
M  V30 898 H 90.756 -1.05069 -1.58305 0
M  V30 899 H 88.906 -0.120237 -3.88314 0
M  V30 900 H 90.578 -2.725 -3.72211 0
M  V30 901 H 88.821 -2.61823 -3.45878 0
M  V30 902 H 89.492 -2.23547 -5.04708 0
M  V30 903 H 91.968 -0.543343 -4.12537 0
M  V30 904 H 90.844 -0.274083 -5.48215 0
M  V30 905 H 91.105 1.00378 -4.30554 0
M  V30 906 N 90.1641 1.46063 -0.591896 0
M  V30 907 C 91.4411 1.95595 -0.0137119 0
M  V30 908 C 91.8211 1.5345 1.4497 0
M  V30 909 O 91.1691 0.789543 2.14426 0
M  V30 910 C 91.3791 3.48453 -0.195373 0
M  V30 911 C 92.7271 4.24546 -0.0679765 0
M  V30 912 O 93.7511 3.55982 -0.124681 0
M  V30 913 O 92.6101 5.46467 0.0600579 0
M  V30 914 H 89.7041 0.825795 0.0446279 0
M  V30 915 H 92.2501 1.56303 -0.660859 0
M  V30 916 H 91.0221 3.72045 -1.21235 0
M  V30 917 H 90.6451 3.94597 0.487775 0
M  V30 918 N 91.6422 0.330177 1.54103 0
M  V30 919 C 92.9192 -0.325007 1.92881 0
M  V30 920 C 93.2992 -1.6934 1.26045 0
M  V30 921 O 92.6472 -2.24855 0.406526 0
M  V30 922 C 92.8572 -0.410634 3.46576 0
M  V30 923 C 94.2052 -0.667801 4.19316 0
M  V30 924 O 95.2292 -0.49329 3.52768 0
M  V30 925 O 94.0882 -1.00491 5.37181 0
M  V30 926 H 91.1822 -0.186873 0.80561 0
M  V30 927 H 93.7282 0.380376 1.65382 0
M  V30 928 H 92.5002 0.550164 3.87413 0
M  V30 929 H 92.1232 -1.16333 3.802 0
M  V30 930 N 93.1203 -1.57491 0.0584922 0
M  V30 931 C 94.3453 -1.97711 -0.62652 0
M  V30 932 C 94.7703 -0.936132 -1.63151 0
M  V30 933 O 94.1283 0.099811 -1.81025 0
M  V30 934 C 94.1763 -3.36989 -1.28338 0
M  V30 935 O 93.2803 -3.35433 -2.39913 0
M  V30 936 H 92.6213 -0.643868 -0.162266 0
M  V30 937 H 95.1513 -2.04193 0.129064 0
M  V30 938 H 95.1613 -3.73879 -1.63335 0
M  V30 939 H 93.8363 -4.12289 -0.546889 0
M  V30 940 H 92.4133 -3.10298 -2.06809 0
M  V30 941 N 94.5984 0.214957 -1.56127 0
M  V30 942 C 96.0094 0.781386 -1.69562 0
M  V30 943 C 96.3604 1.84707 -0.66165 0
M  V30 944 O 95.4854 2.156 0.185927 0
M  V30 945 C 96.0804 1.42411 -3.07416 0
M  V30 946 C 94.6394 1.93786 -3.22683 0
M  V30 947 C 93.7864 0.800438 -2.65496 0
M  V30 948 H 96.7374 -0.00980633 -1.58697 0
M  V30 949 H 96.7584 2.29309 -3.0364 0
M  V30 950 H 96.2704 0.64826 -3.82648 0
M  V30 951 H 94.3714 2.74152 -2.52332 0
M  V30 952 H 94.4844 2.1133 -4.29973 0
M  V30 953 H 92.8484 1.2095 -2.2415 0
M  V30 954 H 93.6314 0.0371471 -3.4328 0
M  V30 955 N 96.0765 1.50051 0.48192 0
M  V30 956 C 97.3045 1.64237 1.25832 0
M  V30 957 C 97.7195 0.321336 1.86045 0
M  V30 958 O 97.0765 -0.695478 1.68729 0
M  V30 959 C 97.1275 2.72548 2.37487 0
M  V30 960 O 96.8485 3.99529 1.79745 0
M  V30 961 C 98.3495 2.9761 3.28547 0
M  V30 962 H 95.5695 0.55237 0.380957 0
M  V30 963 H 98.1135 1.96207 0.576467 0
M  V30 964 H 96.2685 2.43303 3.01467 0
M  V30 965 H 96.6825 4.59342 2.5319 0
M  V30 966 H 98.1565 3.77084 4.03127 0
M  V30 967 H 98.6335 2.0826 3.86684 0
M  V30 968 H 99.2395 3.28345 2.70314 0
M  V30 969 N 97.5546 -0.734337 1.39446 0
M  V30 970 C 98.9706 -1.03997 1.21065 0
M  V30 971 C 99.1706 -2.01369 0.0727019 0
M  V30 972 O 98.2266 -2.45856 -0.575426 0
M  V30 973 C 99.5396 -1.60163 2.54496 0
M  V30 974 C 101.088 -1.7224 2.61347 0
M  V30 975 C 101.563 -2.31814 3.95002 0
M  V30 976 N 103.054 -2.39223 3.96644 0
M  V30 977 C 103.789 -2.86258 4.96834 0
M  V30 978 N 103.285 -3.33184 6.07421 0
M  V30 979 N 105.078 -2.85473 4.84213 0
M  V30 980 H 97.2286 -0.0885624 2.12215 0
M  V30 981 H 99.4916 -0.10191 0.942506 0
M  V30 982 H 99.1976 -0.960811 3.38321 0
M  V30 983 H 99.0716 -2.5896 2.74262 0
M  V30 984 H 101.459 -2.35443 1.77906 0
M  V30 985 H 101.54 -0.720939 2.4543 0
M  V30 986 H 101.184 -1.69238 4.78875 0
M  V30 987 H 101.114 -3.32638 4.08239 0
M  V30 988 H 103.605 -2.06057 3.16779 0
M  V30 989 H 103.918 -3.67586 6.7978 0
M  V30 990 H 102.263 -3.31191 6.11013 0
M  V30 991 H 105.454 -2.48136 3.96921 0
M  V30 992 H 105.627 -3.21814 5.62441 0
M  V30 993 N 99.0327 -1.24633 -0.964593 0
M  V30 994 C 100.258 -1.11596 -1.74818 0
M  V30 995 C 100.683 0.32723 -1.85232 0
M  V30 996 O 100.041 1.23695 -1.32549 0
M  V30 997 C 100.089 -1.76397 -3.1451 0
M  V30 998 O 99.1927 -1.03685 -3.99153 0
M  V30 999 H 98.5337 -0.390196 -0.537255 0
M  V30 1000 H 101.064 -1.65002 -1.20977 0
M  V30 1001 H 101.074 -1.8228 -3.65018 0
M  V30 1002 H 99.7487 -2.81401 -3.06246 0
M  V30 1003 H 98.3257 -1.05611 -3.57632 0
M  V30 1004 N 100.511 1.16574 -1.06058 0
M  V30 1005 C 101.788 1.83048 -0.689416 0
M  V30 1006 C 102.168 1.94122 0.829443 0
M  V30 1007 O 101.516 1.48249 1.7388 0
M  V30 1008 C 101.726 3.20186 -1.38859 0
M  V30 1009 C 103.074 3.95989 -1.53226 0
M  V30 1010 O 104.098 3.29696 -1.3483 0
M  V30 1011 O 102.957 5.14813 -1.83384 0
M  V30 1012 H 100.051 0.790258 -0.243764 0
M  V30 1013 H 102.597 1.23797 -1.16071 0
M  V30 1014 H 101.369 3.07146 -2.4244 0
M  V30 1015 H 100.992 3.87112 -0.907216 0
M  V30 1016 N 101.989 0.842826 1.3317 0
M  V30 1017 C 103.238 0.436738 1.96915 0
M  V30 1018 C 103.551 -1.01025 1.67491 0
M  V30 1019 O 104.757 -1.5212 2.24881 0
M  V30 1020 C 103.213 0.730021 3.52418 0
M  V30 1021 C 102.821 2.19195 3.90714 0
M  V30 1022 C 104.565 0.391076 4.22695 0
M  V30 1023 C 102.472 2.42907 5.39212 0
M  V30 1024 H 101.402 0.15958 0.736919 0
M  V30 1025 H 104.053 1.03196 1.51733 0
M  V30 1026 H 102.435 0.0643755 3.95948 0
M  V30 1027 H 103.609 2.8984 3.58231 0
M  V30 1028 H 101.924 2.49425 3.33431 0
M  V30 1029 H 104.521 0.545817 5.31907 0
M  V30 1030 H 104.864 -0.666294 4.10933 0
M  V30 1031 H 105.397 1.01212 3.84709 0
M  V30 1032 H 102.136 3.47224 5.55982 0
M  V30 1033 H 101.656 1.76827 5.73142 0
M  V30 1034 H 103.335 2.2626 6.06148 0
M  V30 1035 N 103.467 -1.45747 0.599634 0
M  V30 1036 C 104.377 -2.34262 -0.125888 0
M  V30 1037 C 105.393 -1.50768 -0.868625 0
M  V30 1038 O 106.569 -1.83592 -0.828003 0
M  V30 1039 C 103.634 -3.28252 -1.11587 0
M  V30 1040 C 102.695 -4.27651 -0.375956 0
M  V30 1041 C 101.928 -5.1715 -1.31877 0
M  V30 1042 O 102.151 -5.09916 -2.55621 0
M  V30 1043 O 101.085 -5.96286 -0.820157 0
M  V30 1044 H 104.911 -2.97688 0.601315 0
M  V30 1045 H 102.496 -1.44999 0.359934 0
M  V30 1046 H 104.378 -3.86191 -1.68626 0
M  V30 1047 H 103.053 -2.67401 -1.82424 0
M  V30 1048 H 101.96 -3.7335 0.236698 0
M  V30 1049 H 103.293 -4.91334 0.29177 0
M  V30 1050 N 104.945 -0.338344 -1.53925 0
M  V30 1051 C 105.892 0.520845 -2.24846 0
M  V30 1052 C 106.862 1.09976 -1.24477 0
M  V30 1053 O 108.047 1.13735 -1.53196 0
M  V30 1054 C 105.187 1.6685 -3.02084 0
M  V30 1055 C 104.3 1.11739 -4.17299 0
M  V30 1056 C 103.435 2.23193 -4.82036 0
M  V30 1057 C 102.474 1.65407 -5.89328 0
M  V30 1058 N 101.611 2.70582 -6.47866 0
M  V30 1059 H 106.451 -0.0904881 -2.97863 0
M  V30 1060 H 103.988 -0.0564282 -1.46992 0
M  V30 1061 H 105.946 2.34407 -3.45122 0
M  V30 1062 H 104.576 2.2509 -2.31375 0
M  V30 1063 H 103.628 0.332919 -3.7894 0
M  V30 1064 H 104.94 0.654677 -4.94485 0
M  V30 1065 H 104.094 2.98626 -5.28117 0
M  V30 1066 H 102.833 2.72807 -4.04262 0
M  V30 1067 H 101.838 0.884779 -5.42634 0
M  V30 1068 H 103.063 1.16652 -6.69006 0
M  V30 1069 H 101.009 3.1946 -5.72959 0
M  V30 1070 H 100.926 2.28917 -7.20509 0
M  V30 1071 H 102.194 3.45799 -6.98601 0
M  V30 1072 N 106.423 1.57458 -0.0668435 0
M  V30 1073 C 107.839 1.56947 0.289772 0
M  V30 1074 C 108.039 1.07584 1.70376 0
M  V30 1075 O 107.095 0.739486 2.41429 0
M  V30 1076 C 108.408 3.0052 0.103943 0
M  V30 1077 C 109.956 3.12517 0.173857 0
M  V30 1078 C 110.431 4.57997 0.0163682 0
M  V30 1079 N 111.922 4.63144 0.0721352 0
M  V30 1080 C 112.657 5.73394 -0.0253794 0
M  V30 1081 N 112.153 6.92576 -0.176133 0
M  V30 1082 N 113.946 5.62091 0.0313305 0
M  V30 1083 H 106.097 1.87863 -0.991027 0
M  V30 1084 H 108.36 0.86583 -0.38606 0
M  V30 1085 H 108.066 3.40729 -0.871572 0
M  V30 1086 H 107.94 3.67304 0.858366 0
M  V30 1087 H 110.327 2.72197 1.13985 0
M  V30 1088 H 110.408 2.48381 -0.611586 0
M  V30 1089 H 110.052 4.99005 -0.946374 0
M  V30 1090 H 109.982 5.20158 0.821153 0
M  V30 1091 H 112.473 3.77436 0.187263 0
M  V30 1092 H 112.786 7.72418 -0.242821 0
M  V30 1093 H 111.131 6.94678 -0.211429 0
M  V30 1094 H 114.322 4.67867 0.147773 0
M  V30 1095 H 114.495 6.47982 -0.048121 0
M  V30 1096 N 107.901 -0.206675 1.56239 0
M  V30 1097 C 109.178 -0.954051 1.70755 0
M  V30 1098 C 109.558 -2.01841 0.618353 0
M  V30 1099 O 108.906 -2.25444 -0.372434 0
M  V30 1100 C 109.116 -1.551 3.12642 0
M  V30 1101 C 110.464 -2.03757 3.72516 0
M  V30 1102 O 111.488 -1.64965 3.15698 0
M  V30 1103 O 110.347 -2.75103 4.72208 0
M  V30 1104 H 107.441 -0.446636 0.696021 0
M  V30 1105 H 109.987 -0.197283 1.68549 0
M  V30 1106 H 108.759 -0.783212 3.83382 0
M  V30 1107 H 108.382 -2.37291 3.19028 0
M  V30 1108 N 109.379 -1.50304 -0.473955 0
M  V30 1109 C 110.326 -1.68959 -1.57231 0
M  V30 1110 C 111.296 -0.530899 -1.57387 0
M  V30 1111 O 112.481 -0.761133 -1.74961 0
M  V30 1112 C 109.621 -1.7871 -2.95223 0
M  V30 1113 C 108.734 -3.06061 -3.04878 0
M  V30 1114 C 107.869 -3.06626 -4.33767 0
M  V30 1115 C 106.908 -4.28443 -4.37154 0
M  V30 1116 N 106.045 -4.26763 -5.5751 0
M  V30 1117 H 110.885 -2.6273 -1.40631 0
M  V30 1118 H 108.422 -1.30241 -0.683789 0
M  V30 1119 H 110.38 -1.82344 -3.75242 0
M  V30 1120 H 109.01 -0.883806 -3.10465 0
M  V30 1121 H 108.062 -3.11911 -2.17751 0
M  V30 1122 H 109.374 -3.96039 -3.0324 0
M  V30 1123 H 108.528 -3.08973 -5.22131 0
M  V30 1124 H 107.267 -2.14473 -4.3801 0
M  V30 1125 H 106.272 -4.2631 -3.47188 0
M  V30 1126 H 107.497 -5.2182 -4.34605 0
M  V30 1127 H 105.443 -3.37462 -5.62544 0
M  V30 1128 H 105.36 -5.10507 -5.57601 0
M  V30 1129 H 106.628 -4.33253 -6.48006 0
M  V30 1130 N 110.857 0.726932 -1.39834 0
M  V30 1131 C 111.767 1.87131 -1.41489 0
M  V30 1132 C 112.783 1.71239 -0.308757 0
M  V30 1133 O 113.959 1.93701 -0.551529 0
M  V30 1134 C 111.024 3.22811 -1.26468 0
M  V30 1135 C 110.085 3.51039 -2.47124 0
M  V30 1136 C 109.318 4.80245 -2.3281 0
M  V30 1137 O 109.541 5.54537 -1.33585 0
M  V30 1138 O 108.475 5.08554 -3.21957 0
M  V30 1139 H 112.301 1.8869 -2.3797 0
M  V30 1140 H 109.886 0.875837 -1.21035 0
M  V30 1141 H 111.768 4.03877 -1.20255 0
M  V30 1142 H 110.443 3.22005 -0.330862 0
M  V30 1143 H 109.35 2.70027 -2.58914 0
M  V30 1144 H 110.683 3.56632 -3.39227 0
M  V30 1145 N 112.336 1.25143 0.95797 0
M  V30 1146 C 113.585 1.0909 1.69654 0
M  V30 1147 C 113.898 -0.368548 1.92097 0
M  V30 1148 O 115.104 -0.649455 2.63618 0
M  V30 1149 C 113.56 1.90395 3.05414 0
M  V30 1150 C 113.168 3.4081 2.90779 0
M  V30 1151 C 114.912 1.82901 3.83076 0
M  V30 1152 C 112.819 4.14423 4.21909 0
M  V30 1153 H 111.749 0.404625 0.636235 0
M  V30 1154 H 114.4 1.4931 1.06672 0
M  V30 1155 H 112.782 1.42996 3.69281 0
M  V30 1156 H 113.956 3.95859 2.35865 0
M  V30 1157 H 112.271 3.49361 2.26575 0
M  V30 1158 H 114.868 2.35196 4.80195 0
M  V30 1159 H 115.211 0.796224 4.08615 0
M  V30 1160 H 115.744 2.28033 3.25954 0
M  V30 1161 H 112.483 5.18102 4.01561 0
M  V30 1162 H 112.003 3.64159 4.76601 0
M  V30 1163 H 113.682 4.21956 4.90471 0
M  V30 1164 N 113.814 -1.1601 1.06675 0
M  V30 1165 C 115.042 -1.90527 0.806667 0
M  V30 1166 C 115.457 -1.77643 -0.639396 0
M  V30 1167 O 114.814 -1.12369 -1.43803 0
M  V30 1168 C 114.865 -3.41106 1.19705 0
M  V30 1169 O 114.586 -3.53608 2.58636 0
M  V30 1170 C 116.087 -4.32663 0.965266 0
M  V30 1171 H 113.307 -0.604053 0.292166 0
M  V30 1172 H 115.851 -1.47026 1.4214 0
M  V30 1173 H 114.006 -3.82296 0.626774 0
M  V30 1174 H 114.42 -4.47011 2.74375 0
M  V30 1175 H 115.894 -5.36763 1.288 0
M  V30 1176 H 116.371 -4.39089 -0.0987936 0
M  V30 1177 H 116.977 -3.97206 1.52011 0
M  V30 1178 N 115.292 -0.849877 -1.32721 0
M  V30 1179 C 116.255 -0.296122 -2.27279 0
M  V30 1180 C 117.255 0.541458 -1.5141 0
M  V30 1181 O 118.445 0.353658 -1.70572 0
M  V30 1182 C 115.577 0.581579 -3.35902 0
M  V30 1183 H 116.77 -1.13064 -2.77771 0
M  V30 1184 H 114.323 -0.62383 -1.43311 0
M  V30 1185 H 115.058 1.43809 -2.9067 0
M  V30 1186 H 114.843 -0.0178814 -3.92096 0
M  V30 1187 H 116.333 0.961951 -4.0637 0
M  V30 1188 N 116.77 1.45427 -0.607355 0
M  V30 1189 C 118 2.06314 -0.108656 0
M  V30 1190 C 118.408 1.45269 1.21217 0
M  V30 1191 O 117.751 0.561115 1.74921 0
M  V30 1192 C 117.813 3.59345 0.105618 0
M  V30 1193 C 117.477 4.42723 -1.13337 0
M  V30 1194 C 118.474 4.77715 -2.05145 0
M  V30 1195 C 116.159 4.83478 -1.36213 0
M  V30 1196 C 118.153 5.52317 -3.18158 0
M  V30 1197 C 115.84 5.57835 -2.49527 0
M  V30 1198 C 116.838 5.92171 -3.40327 0
M  V30 1199 O 116.526 6.65019 -4.51669 0
M  V30 1200 H 116.258 0.672782 -0.0658842 0
M  V30 1201 H 118.812 1.87664 -0.834945 0
M  V30 1202 H 117.042 3.76394 0.886796 0
M  V30 1203 H 118.731 4.02076 0.555886 0
M  V30 1204 H 119.497 4.46787 -1.88697 0
M  V30 1205 H 115.376 4.56188 -0.664362 0
M  V30 1206 H 118.92 5.79036 -3.89054 0
M  V30 1207 H 114.817 5.88177 -2.65928 0
M  V30 1208 H 115.585 6.83469 -4.50348 0
M  V30 1209 N 118.248 0.346503 1.53744 0
M  V30 1210 C 119.195 -0.508914 2.25119 0
M  V30 1211 C 120.165 -1.09315 1.25058 0
M  V30 1212 O 121.35 -1.12921 1.53797 0
M  V30 1213 C 118.49 -1.65246 3.02965 0
M  V30 1214 C 117.603 -1.09525 4.17886 0
M  V30 1215 C 116.738 -2.20634 4.83212 0
M  V30 1216 C 115.777 -1.62279 5.90196 0
M  V30 1217 N 114.914 -2.67143 6.49291 0
M  V30 1218 H 119.754 0.106283 2.9781 0
M  V30 1219 H 117.291 0.0642227 1.4696 0
M  V30 1220 H 119.249 -2.32574 3.4636 0
M  V30 1221 H 117.879 -2.2386 2.32565 0
M  V30 1222 H 116.931 -0.312818 3.79112 0
M  V30 1223 H 118.243 -0.628444 4.94825 0
M  V30 1224 H 117.397 -2.95821 5.29693 0
M  V30 1225 H 116.136 -2.70659 4.05703 0
M  V30 1226 H 115.141 -0.855989 5.43096 0
M  V30 1227 H 116.366 -1.13102 6.69615 0
M  V30 1228 H 114.312 -3.16417 5.74645 0
M  V30 1229 H 114.229 -2.25093 7.21713 0
M  V30 1230 H 115.497 -3.4209 7.00425 0
M  V30 1231 N 119.726 -1.57421 0.075193 0
M  V30 1232 C 120.674 -2.14124 -0.908508 0
M  V30 1233 C 121.668 -1.07898 -1.30592 0
M  V30 1234 O 122.874 -1.26273 -1.28277 0
M  V30 1235 H 119.249 -0.684707 -0.310935 0
M  V30 1236 H 121.22 -2.95634 -0.405374 0
M  V30 1237 C 119.969 -2.72044 -2.16535 0
M  V30 1238 H 119.292 -3.53456 -1.86839 0
M  V30 1239 H 120.732 -3.15311 -2.83469 0
M  V30 1240 C 119.191 -1.66968 -2.92615 0
M  V30 1241 O 119.721 -1.0967 -3.86439 0
M  V30 1242 N 117.927 -1.37923 -2.55784 0
M  V30 1243 H 117.474 -1.84706 -1.79559 0
M  V30 1244 H 117.432 -0.67852 -3.06991 0
M  V30 1245 N 121.204 0.198386 -1.56346 0
M  V30 1246 C 122.432 0.935572 -1.84539 0
M  V30 1247 C 122.847 1.76989 -0.657281 0
M  V30 1248 O 122.204 1.78626 0.374043 0
M  V30 1249 C 122.255 1.8344 -3.11499 0
M  V30 1250 O 121.976 1.03377 -4.25728 0
M  V30 1251 C 123.477 2.68355 -3.52846 0
M  V30 1252 H 120.697 0.273126 -0.612897 0
M  V30 1253 H 123.241 0.20663 -2.03453 0
M  V30 1254 H 121.396 2.51701 -2.94492 0
M  V30 1255 H 121.81 1.64599 -4.98003 0
M  V30 1256 H 123.284 3.27085 -4.44657 0
M  V30 1257 H 123.761 3.41901 -2.75681 0
M  V30 1258 H 124.367 2.05471 -3.72373 0
M  V30 1259 N 122.682 1.50554 0.465978 0
M  V30 1260 C 123.612 1.72722 1.57128 0
M  V30 1261 C 124.593 0.576294 1.6004 0
M  V30 1262 O 125.778 0.81598 1.76225 0
M  V30 1263 C 122.908 1.82605 2.95419 0
M  V30 1264 C 121.862 2.97835 3.07373 0
M  V30 1265 C 121.188 2.92867 4.47363 0
M  V30 1266 C 122.488 4.38265 2.84114 0
M  V30 1267 H 124.182 2.65267 1.38829 0
M  V30 1268 H 121.728 1.2765 0.666441 0
M  V30 1269 H 123.681 1.96698 3.72677 0
M  V30 1270 H 122.405 0.866858 3.14886 0
M  V30 1271 H 121.064 2.83401 2.3255 0
M  V30 1272 H 120.712 1.94783 4.63755 0
M  V30 1273 H 120.412 3.70227 4.56296 0
M  V30 1274 H 121.936 3.09015 5.26633 0
M  V30 1275 H 123.35 4.53198 3.51118 0
M  V30 1276 H 121.747 5.17115 3.04487 0
M  V30 1277 H 122.817 4.50281 1.7993 0
M  V30 1278 N 124.16 -0.719506 1.40217 0
M  V30 1279 C 125.385 -1.51371 1.4178 0
M  V30 1280 C 125.81 -1.88091 0.0182355 0
M  V30 1281 O 125.168 -1.52997 -0.972707 0
M  V30 1282 C 125.216 -2.768 2.31115 0
M  V30 1283 O 124.32 -3.73349 1.7517 0
M  V30 1284 H 123.661 -0.456529 0.482159 0
M  V30 1285 H 126.191 -0.88644 1.844 0
M  V30 1286 H 126.201 -3.25371 2.46167 0
M  V30 1287 H 124.876 -2.49407 3.3282 0
M  V30 1288 H 123.453 -3.32179 1.69444 0
M  V30 1289 N 125.638 -1.25649 -0.95132 0
M  V30 1290 C 126.601 -1.06399 -2.03007 0
M  V30 1291 C 127.601 -0.0156794 -1.60792 0
M  V30 1292 O 128.791 -0.25817 -1.72276 0
M  V30 1293 C 125.923 -0.616184 -3.35285 0
M  V30 1294 H 127.116 -2.02164 -2.21517 0
M  V30 1295 H 124.669 -1.08103 -1.12887 0
M  V30 1296 H 125.404 0.343917 -3.22471 0
M  V30 1297 H 125.189 -1.37301 -3.67275 0
M  V30 1298 H 126.679 -0.503032 -4.14559 0
M  V30 1299 N 127.117 1.15442 -1.07289 0
M  V30 1300 C 128.049 2.19773 -0.650585 0
M  V30 1301 C 129.062 1.60076 0.296572 0
M  V30 1302 O 130.251 1.78293 0.0859905 0
M  V30 1303 C 127.351 3.38838 0.0650398 0
M  V30 1304 C 126.524 4.2808 -0.898141 0
M  V30 1305 C 125.583 5.2574 -0.219926 0
M  V30 1306 O 124.609 5.62654 -0.860773 0
M  V30 1307 N 125.811 5.71205 1.03466 0
M  V30 1308 H 128.576 2.56622 -1.54808 0
M  V30 1309 H 126.137 1.30551 -0.957494 0
M  V30 1310 H 128.129 4.01222 0.529415 0
M  V30 1311 H 126.699 3.00409 0.864466 0
M  V30 1312 H 125.919 3.62804 -1.54165 0
M  V30 1313 H 127.207 4.84577 -1.5512 0
M  V30 1314 H 126.605 5.43325 1.57526 0
M  V30 1315 H 125.162 6.35633 1.44272 0
M  V30 1316 N 128.595 0.856903 1.32268 0
M  V30 1317 C 129.527 0.260412 2.27716 0
M  V30 1318 C 130.54 -0.569137 1.52528 0
M  V30 1319 O 131.729 -0.39326 1.74114 0
M  V30 1320 C 128.829 -0.650477 3.32599 0
M  V30 1321 C 128.002 0.14372 4.37164 0
M  V30 1322 C 127.061 -0.69328 5.21613 0
M  V30 1323 O 126.087 -0.12599 5.69061 0
M  V30 1324 N 127.289 -2.00761 5.44679 0
M  V30 1325 H 130.054 1.08059 2.79541 0
M  V30 1326 H 127.615 0.717103 1.45152 0
M  V30 1327 H 129.607 -1.21581 3.86005 0
M  V30 1328 H 128.177 -1.37133 2.80915 0
M  V30 1329 H 127.397 0.890486 3.8401 0
M  V30 1330 H 128.685 0.68915 5.04111 0
M  V30 1331 H 128.083 -2.49181 5.07863 0
M  V30 1332 H 126.64 -2.52103 6.01072 0
M  V30 1333 N 130.073 -1.45103 0.615059 0
M  V30 1334 C 131.02 -2.30586 -0.0993978 0
M  V30 1335 C 131.99 -1.42544 -0.852669 0
M  V30 1336 O 133.175 -1.71465 -0.836917 0
M  V30 1337 C 130.315 -3.27572 -1.08583 0
M  V30 1338 C 129.428 -4.30717 -0.332656 0
M  V30 1339 C 128.563 -5.14807 -1.30947 0
M  V30 1340 C 127.602 -6.09673 -0.544538 0
M  V30 1341 N 126.739 -6.86517 -1.47101 0
M  V30 1342 H 131.579 -2.91144 0.635542 0
M  V30 1343 H 129.116 -1.4346 0.325206 0
M  V30 1344 H 131.074 -3.82276 -1.67095 0
M  V30 1345 H 129.704 -2.68751 -1.78809 0
M  V30 1346 H 128.756 -3.78615 0.368107 0
M  V30 1347 H 130.068 -4.98102 0.263842 0
M  V30 1348 H 129.222 -5.73948 -1.96643 0
M  V30 1349 H 127.961 -4.47458 -1.9399 0
M  V30 1350 H 126.966 -5.49656 0.126003 0
M  V30 1351 H 128.191 -6.79052 0.080947 0
M  V30 1352 H 126.137 -6.21851 -2.08895 0
M  V30 1353 H 126.054 -7.50281 -0.928137 0
M  V30 1354 H 127.322 -7.50194 -2.11731 0
M  V30 1355 N 131.551 -0.354651 -1.53558 0
M  V30 1356 C 132.461 0.50515 -2.29097 0
M  V30 1357 C 133.477 1.10223 -1.34636 0
M  V30 1358 O 134.653 1.11553 -1.67684 0
M  V30 1359 C 131.718 1.63479 -3.05738 0
M  V30 1360 C 130.779 1.06636 -4.15845 0
M  V30 1361 C 130.012 2.14217 -4.88822 0
M  V30 1362 O 130.235 3.35137 -4.61562 0
M  V30 1363 O 129.169 1.77887 -5.75013 0
M  V30 1364 H 132.995 -0.109237 -3.03503 0
M  V30 1365 H 130.58 -0.119357 -1.48922 0
M  V30 1366 H 132.462 2.2918 -3.5363 0
M  V30 1367 H 131.137 2.23478 -2.34178 0
M  V30 1368 H 130.044 0.373565 -3.7223 0
M  V30 1369 H 131.377 0.511081 -4.89539 0
M  V30 1370 N 133.029 1.57378 -0.0835403 0
M  V30 1371 C 133.977 2.14602 0.89714 0
M  V30 1372 C 134.971 1.08589 1.30018 0
M  V30 1373 O 136.177 1.26952 1.27606 0
M  V30 1374 H 132.552 0.686346 0.3073 0
M  V30 1375 H 134.523 2.95845 0.38969 0
M  V30 1376 C 133.272 2.73188 2.15089 0
M  V30 1377 H 132.595 3.54442 1.84962 0
M  V30 1378 H 134.035 3.1681 2.81793 0
M  V30 1379 C 132.494 1.68517 2.91725 0
M  V30 1380 O 133.024 1.11718 3.85852 0
M  V30 1381 N 131.23 1.39277 2.55049 0
M  V30 1382 H 130.777 1.85655 1.78577 0
M  V30 1383 H 130.735 0.694791 3.06627 0
M  V30 1384 N 134.507 -0.190092 1.56449 0
M  V30 1385 C 135.417 -1.25591 1.98152 0
M  V30 1386 C 136.433 -1.49519 0.889944 0
M  V30 1387 O 137.609 -1.62036 1.19609 0
M  V30 1388 C 134.674 -2.57916 2.3169 0
M  V30 1389 C 133.735 -2.42015 3.5458 0
M  V30 1390 C 132.968 -3.6803 3.8651 0
M  V30 1391 O 133.191 -4.72413 3.1966 0
M  V30 1392 O 132.125 -3.6326 4.79923 0
M  V30 1393 H 135.951 -0.931988 2.89046 0
M  V30 1394 H 133.536 -0.395488 1.4407 0
M  V30 1395 H 135.418 -3.36008 2.54316 0
M  V30 1396 H 134.093 -2.89925 1.43963 0
M  V30 1397 H 133 -1.62017 3.37196 0
M  V30 1398 H 134.333 -2.14937 4.4279 0
M  V30 1399 N 135.985 -1.50799 -0.457987 0
M  V30 1400 C 136.933 -1.71162 -1.575 0
M  V30 1401 C 137.927 -0.577592 -1.59249 0
M  V30 1402 O 139.133 -0.758443 -1.63241 0
M  V30 1403 H 135.508 -0.540468 -0.522875 0
M  V30 1404 H 137.479 -2.64837 -1.37492 0
M  V30 1405 C 136.228 -1.83496 -2.95338 0
M  V30 1406 H 135.551 -2.70153 -2.94716 0
M  V30 1407 H 136.991 -2.01765 -3.72917 0
M  V30 1408 C 135.45 -0.589694 -3.31699 0
M  V30 1409 O 135.98 0.265163 -4.00824 0
M  V30 1410 N 134.186 -0.439845 -2.87252 0
M  V30 1411 H 133.733 -1.13655 -2.31172 0
M  V30 1412 H 133.691 0.392159 -3.11945 0
M  V30 1413 N 137.463 0.71206 -1.40597 0
M  V30 1414 C 138.41 1.82613 -1.41142 0
M  V30 1415 C 139.38 1.63925 -0.267903 0
M  V30 1416 O 140.565 1.85009 -0.466495 0
M  V30 1417 C 137.705 3.20354 -1.28324 0
M  V30 1418 C 136.818 3.50589 -2.52411 0
M  V30 1419 C 135.953 4.77855 -2.32009 0
M  V30 1420 C 134.992 5.01005 -3.51654 0
M  V30 1421 N 134.129 6.19487 -3.30425 0
M  V30 1422 H 138.969 1.81482 -2.36365 0
M  V30 1423 H 136.506 0.886475 -1.17388 0
M  V30 1424 H 138.464 3.99899 -1.18899 0
M  V30 1425 H 137.094 3.20705 -0.367189 0
M  V30 1426 H 136.146 2.65573 -2.72351 0
M  V30 1427 H 137.458 3.63604 -3.41458 0
M  V30 1428 H 136.612 5.65424 -2.19956 0
M  V30 1429 H 135.351 4.67056 -1.40392 0
M  V30 1430 H 134.356 4.1189 -3.64179 0
M  V30 1431 H 135.581 5.13674 -4.44202 0
M  V30 1432 H 133.527 6.09932 -2.41494 0
M  V30 1433 H 133.444 6.33194 -4.13039 0
M  V30 1434 H 134.712 7.09834 -3.22113 0
M  V30 1435 N 138.941 1.26152 0.944643 0
M  V30 1436 C 140.357 1.03189 1.21754 0
M  V30 1437 C 140.557 -0.245112 2.00004 0
M  V30 1438 O 139.613 -0.955176 2.33736 0
M  V30 1439 C 140.926 2.26119 1.98219 0
M  V30 1440 C 142.474 2.30984 2.11224 0
M  V30 1441 C 142.949 3.53597 2.91089 0
M  V30 1442 N 144.44 3.54053 2.98664 0
M  V30 1443 C 145.175 4.45593 3.60881 0
M  V30 1444 N 144.671 5.47416 4.24626 0
M  V30 1445 N 146.464 4.33252 3.58119 0
M  V30 1446 H 138.615 2.08177 0.421437 0
M  V30 1447 H 140.878 0.914723 0.248969 0
M  V30 1448 H 140.584 3.18984 1.48128 0
M  V30 1449 H 140.458 2.3009 2.98895 0
M  V30 1450 H 142.845 1.38635 2.60508 0
M  V30 1451 H 142.926 2.31026 1.09821 0
M  V30 1452 H 142.57 4.46273 2.42493 0
M  V30 1453 H 142.5 3.50802 3.92741 0
M  V30 1454 H 144.991 2.80403 2.53343 0
M  V30 1455 H 145.304 6.13459 4.69987 0
M  V30 1456 H 143.649 5.51278 4.23223 0
M  V30 1457 H 146.84 3.52924 3.0751 0
M  V30 1458 H 147.013 5.04786 4.06319 0
M  V30 1459 N 140.419 -1.14872 1.07899 0
M  V30 1460 C 141.647 -1.89661 0.82683 0
M  V30 1461 C 142.062 -1.78312 -0.620519 0
M  V30 1462 O 141.419 -1.13888 -1.42604 0
M  V30 1463 C 141.47 -3.39817 1.23316 0
M  V30 1464 O 141.191 -3.50845 2.62372 0
M  V30 1465 C 142.692 -4.31615 1.0111 0
M  V30 1466 H 139.912 -0.60092 0.298557 0
M  V30 1467 H 142.456 -1.4551 1.43691 0
M  V30 1468 H 140.611 -3.8161 0.667286 0
M  V30 1469 H 141.025 -4.44076 2.79101 0
M  V30 1470 H 142.499 -5.35367 1.34486 0
M  V30 1471 H 142.976 -4.39169 -0.0522168 0
M  V30 1472 H 143.582 -3.95572 1.56215 0
M  V30 1473 N 141.898 -0.863906 -1.31812 0
M  V30 1474 C 142.808 -0.318461 -2.32428 0
M  V30 1475 C 143.824 0.568496 -1.64451 0
M  V30 1476 O 145 0.46666 -1.95919 0
M  V30 1477 C 142.065 0.476355 -3.43412 0
M  V30 1478 C 141.126 -0.43784 -4.27061 0
M  V30 1479 C 140.359 0.319138 -5.32745 0
M  V30 1480 O 140.582 1.54799 -5.48993 0
M  V30 1481 O 139.516 -0.319861 -6.01049 0
M  V30 1482 H 143.342 -1.15229 -2.80991 0
M  V30 1483 H 140.927 -0.627103 -1.35602 0
M  V30 1484 H 142.809 0.927156 -4.11074 0
M  V30 1485 H 141.484 1.28683 -2.97022 0
M  V30 1486 H 140.391 -0.937013 -3.62175 0
M  V30 1487 H 141.724 -1.21375 -4.77 0
M  V30 1488 N 143.376 1.44774 -0.622745 0
M  V30 1489 C 144.339 2.29069 0.0774015 0
M  V30 1490 C 145.339 1.4059 0.780461 0
M  V30 1491 O 146.529 1.62551 0.626322 0
M  V30 1492 C 143.661 3.21974 1.12006 0
M  V30 1493 H 144.854 2.92459 -0.663901 0
M  V30 1494 H 142.407 1.51548 -0.382486 0
M  V30 1495 H 143.142 2.63417 1.89162 0
M  V30 1496 H 142.927 3.87168 0.619951 0
M  V30 1497 H 144.417 3.85318 1.60995 0
M  V30 1498 N 144.854 0.36279 1.53368 0
M  V30 1499 C 146.102 -0.227326 2.00817 0
M  V30 1500 C 146.423 -1.49511 1.25186 0
M  V30 1501 O 145.693 -1.92482 0.364348 0
M  V30 1502 H 144.273 -0.0869923 0.741917 0
M  V30 1503 H 146.935 0.488381 1.88682 0
M  V30 1504 H 146.031 -0.456273 3.08747 0
M  V30 1505 N 146.332 -1.57332 0.0918853 0
M  V30 1506 C 147.279 -2.13847 -0.868211 0
M  V30 1507 C 148.249 -1.05618 -1.28196 0
M  V30 1508 O 149.434 -1.33387 -1.36427 0
M  V30 1509 C 146.574 -2.72062 -2.12312 0
M  V30 1510 C 145.687 -3.94514 -1.7602 0
M  V30 1511 C 144.822 -4.40903 -2.96273 0
M  V30 1512 C 143.861 -5.55953 -2.56092 0
M  V30 1513 N 142.998 -5.97209 -3.69169 0
M  V30 1514 H 147.838 -2.95575 -0.379406 0
M  V30 1515 H 145.375 -1.46048 -0.175606 0
M  V30 1516 H 147.333 -3.03931 -2.858 0
M  V30 1517 H 145.963 -1.93068 -2.58698 0
M  V30 1518 H 145.015 -3.68979 -0.925135 0
M  V30 1519 H 146.327 -4.7802 -1.42472 0
M  V30 1520 H 145.481 -4.74539 -3.78018 0
M  V30 1521 H 144.22 -3.56291 -3.33029 0
M  V30 1522 H 143.225 -5.21948 -1.72773 0
M  V30 1523 H 144.45 -6.42311 -2.20484 0
M  V30 1524 H 142.396 -5.15543 -4.05649 0
M  V30 1525 H 142.313 -6.75504 -3.39456 0
M  V30 1526 H 143.581 -6.35475 -4.51434 0
M  V30 1527 N 147.81 0.181792 -1.56548 0
M  V30 1528 C 149.226 0.53316 -1.50431 0
M  V30 1529 C 149.426 1.85184 -0.794297 0
M  V30 1530 O 148.482 2.50058 -0.350318 0
M  V30 1531 C 149.795 0.575597 -2.9514 0
M  V30 1532 C 151.343 0.663519 -3.05886 0
M  V30 1533 C 151.818 0.736946 -4.52032 0
M  V30 1534 N 153.309 0.800118 -4.56237 0
M  V30 1535 C 154.044 0.877327 -5.66649 0
M  V30 1536 N 153.54 0.916016 -6.86718 0
M  V30 1537 N 155.333 0.915542 -5.54594 0
M  V30 1538 H 147.484 -0.683025 -2.01118 0
M  V30 1539 H 149.747 -0.244988 -0.915797 0
M  V30 1540 H 149.453 -0.324482 -3.502 0
M  V30 1541 H 149.327 1.42572 -3.49218 0
M  V30 1542 H 151.714 1.55403 -2.50867 0
M  V30 1543 H 151.795 -0.21307 -2.54911 0
M  V30 1544 H 151.439 -0.149262 -5.07681 0
M  V30 1545 H 151.369 1.62953 -5.00753 0
M  V30 1546 H 153.86 0.778926 -3.69785 0
M  V30 1547 H 154.173 0.975813 -7.66614 0
M  V30 1548 H 152.518 0.884469 -6.89349 0
M  V30 1549 H 155.709 0.882245 -4.59711 0
M  V30 1550 H 155.882 0.972253 -6.40665 0
M  V30 1551 N 149.288 1.51039 0.449983 0
M  V30 1552 C 150.218 1.74379 1.55288 0
M  V30 1553 C 151.199 0.593236 1.5942 0
M  V30 1554 O 152.384 0.834625 1.7535 0
M  V30 1555 C 149.514 1.85728 2.93466 0
M  V30 1556 C 148.468 3.01078 3.04197 0
M  V30 1557 C 147.794 2.97595 4.44231 0
M  V30 1558 C 149.094 4.41254 2.7945 0
M  V30 1559 H 150.788 2.66725 1.36008 0
M  V30 1560 H 148.334 1.2835 0.652864 0
M  V30 1561 H 150.287 2.0064 3.70569 0
M  V30 1562 H 149.011 0.900207 3.13949 0
M  V30 1563 H 147.67 2.85851 2.29531 0
M  V30 1564 H 147.318 1.99691 4.61663 0
M  V30 1565 H 147.018 3.75046 4.52343 0
M  V30 1566 H 148.542 3.14583 5.23326 0
M  V30 1567 H 149.956 4.56897 3.46292 0
M  V30 1568 H 148.353 5.20315 2.98985 0
M  V30 1569 H 149.423 4.52164 1.75144 0
M  V30 1570 N 150.766 -0.704594 1.40972 0
M  V30 1571 C 151.991 -1.49858 1.43378 0
M  V30 1572 C 152.416 -1.88061 0.038184 0
M  V30 1573 O 151.774 -1.5402 -0.956425 0
M  V30 1574 C 151.822 -2.74333 2.34038 0
M  V30 1575 O 150.926 -3.7147 1.7912 0
M  V30 1576 H 150.267 -0.45139 0.486974 0
M  V30 1577 H 152.797 -0.866832 1.8533 0
M  V30 1578 H 152.807 -3.22741 2.49604 0
M  V30 1579 H 151.482 -2.45863 3.35446 0
M  V30 1580 H 150.059 -3.30363 1.72958 0
M  V30 1581 N 152.244 -1.26651 -0.937939 0
M  V30 1582 C 153.207 -1.08546 -2.01867 0
M  V30 1583 C 154.207 -0.0327327 -1.60767 0
M  V30 1584 O 155.397 -0.276427 -1.71993 0
M  V30 1585 C 152.529 -0.651711 -3.34613 0
M  V30 1586 H 153.722 -2.04502 -2.1936 0
M  V30 1587 H 151.275 -1.09294 -1.11734 0
M  V30 1588 H 152.01 0.309696 -3.22818 0
M  V30 1589 H 151.795 -1.41189 -3.65798 0
M  V30 1590 H 153.285 -0.546973 -4.14002 0
M  V30 1591 N 153.722 1.14298 -1.08507 0
M  V30 1592 C 154.685 2.17607 -0.719711 0
M  V30 1593 C 155.685 1.58907 0.245997 0
M  V30 1594 O 156.875 1.74181 0.0254081 0
M  V30 1595 C 154.007 3.40842 -0.0627695 0
M  V30 1596 H 155.2 2.51443 -1.63452 0
M  V30 1597 H 152.753 1.28963 -0.88307 0
M  V30 1598 H 153.488 3.12587 0.863716 0
M  V30 1599 H 153.273 3.84713 -0.757504 0
M  V30 1600 H 154.763 4.17221 0.177786 0
M  V30 1601 N 155.201 0.870884 1.31352 0
M  V30 1602 C 156.45 0.478408 1.95944 0
M  V30 1603 C 156.763 -0.974493 1.69597 0
M  V30 1604 O 157.969 -1.47316 2.28058 0
M  V30 1605 C 156.425 0.804609 3.50791 0
M  V30 1606 C 156.033 2.27433 3.85977 0
M  V30 1607 C 157.777 0.480648 4.2177 0
M  V30 1608 C 155.684 2.5429 5.33939 0
M  V30 1609 H 154.614 0.175175 0.733369 0
M  V30 1610 H 157.265 1.06391 1.4951 0
M  V30 1611 H 155.647 0.148347 3.95722 0
M  V30 1612 H 156.821 2.97373 3.52002 0
M  V30 1613 H 155.136 2.56442 3.28065 0
M  V30 1614 H 157.733 0.658519 5.30629 0
M  V30 1615 H 158.076 -0.578979 4.12254 0
M  V30 1616 H 158.609 1.09349 3.82476 0
M  V30 1617 H 155.348 3.58939 5.48491 0
M  V30 1618 H 154.868 1.88945 5.69263 0
M  V30 1619 H 156.547 2.39066 6.01212 0
M  V30 1620 N 156.679 -1.44442 0.630414 0
M  V30 1621 C 157.642 -2.29107 -0.0652523 0
M  V30 1622 C 158.642 -1.41002 -0.772995 0
M  V30 1623 O 159.832 -1.62881 -0.617692 0
M  V30 1624 C 156.964 -3.22564 -1.10296 0
M  V30 1625 H 158.157 -2.92103 0.679401 0
M  V30 1626 H 155.71 -1.51343 0.390517 0
M  V30 1627 H 156.445 -2.64416 -1.87762 0
M  V30 1628 H 156.23 -3.87491 -0.59941 0
M  V30 1629 H 157.72 -3.86167 -1.5895 0
M  V30 1630 N 158.157 -0.370918 -1.53173 0
M  V30 1631 C 159.12 0.460778 -2.24521 0
M  V30 1632 C 160.12 1.00536 -1.25496 0
M  V30 1633 O 161.31 0.890266 -1.49733 0
M  V30 1634 C 158.442 1.64457 -2.98608 0
M  V30 1635 H 159.635 -0.163613 -2.99453 0
M  V30 1636 H 157.188 -0.122699 -1.55818 0
M  V30 1637 H 157.923 2.30691 -2.2793 0
M  V30 1638 H 157.708 1.26099 -3.7127 0
M  V30 1639 H 159.198 2.23384 -3.5283 0
M  V30 1640 N 159.635 1.57281 -0.100228 0
M  V30 1641 C 161.051 1.57527 0.256416 0
M  V30 1642 C 161.251 1.11173 1.68056 0
M  V30 1643 O 160.307 0.79053 2.39806 0
M  V30 1644 C 161.62 3.00673 0.0401747 0
M  V30 1645 C 163.168 3.12815 0.107528 0
M  V30 1646 C 163.643 4.57929 -0.0807834 0
M  V30 1647 N 165.134 4.63193 -0.0261207 0
M  V30 1648 C 165.869 5.73212 -0.146999 0
M  V30 1649 N 165.365 6.92047 -0.322999 0
M  V30 1650 N 167.158 5.62031 -0.0879044 0
M  V30 1651 H 159.309 1.85718 -1.03065 0
M  V30 1652 H 161.572 0.857446 -0.404339 0
M  V30 1653 H 161.278 3.38804 -0.943649 0
M  V30 1654 H 161.152 3.69042 0.780262 0
M  V30 1655 H 163.539 2.74554 1.08186 0
M  V30 1656 H 163.62 2.47028 -0.664134 0
M  V30 1657 H 163.264 4.96886 -1.05201 0
M  V30 1658 H 163.194 5.21783 0.710635 0
M  V30 1659 H 165.685 3.77748 0.107161 0
M  V30 1660 H 165.998 7.7173 -0.406608 0
M  V30 1661 H 164.343 6.94074 -0.358733 0
M  V30 1662 H 167.534 4.68075 0.048498 0
M  V30 1663 H 167.707 6.47734 -0.185557 0
M  V30 1664 N 161.113 -0.173488 1.56642 0
M  V30 1665 C 162.023 -1.23482 1.99473 0
M  V30 1666 C 163.039 -1.48567 0.905752 0
M  V30 1667 O 164.215 -1.60758 1.21321 0
M  V30 1668 C 161.28 -2.55444 2.34413 0
M  V30 1669 C 160.341 -2.38241 3.57127 0
M  V30 1670 C 159.574 -3.63909 3.90392 0
M  V30 1671 O 159.797 -4.68996 3.24653 0
M  V30 1672 O 158.731 -3.58149 4.83749 0
M  V30 1673 H 162.557 -0.901279 2.90018 0
M  V30 1674 H 160.142 -0.380185 1.44482 0
M  V30 1675 H 162.024 -3.33292 2.57865 0
M  V30 1676 H 160.699 -2.88382 1.4703 0
M  V30 1677 H 159.606 -1.58431 3.38896 0
M  V30 1678 H 160.939 -2.10228 4.45045 0
M  V30 1679 N 162.591 -1.51276 -0.441967 0
M  V30 1680 C 163.538 -1.72256 -1.53612 0
M  V30 1681 C 164.508 -0.564164 -1.56225 0
M  V30 1682 O 165.693 -0.798074 -1.73307 0
M  V30 1683 C 162.833 -1.84932 -2.91366 0
M  V30 1684 C 161.946 -3.12459 -2.98317 0
M  V30 1685 C 161.081 -3.15758 -4.27166 0
M  V30 1686 C 160.12 -4.37619 -4.27967 0
M  V30 1687 N 159.257 -4.38493 -5.48333 0
M  V30 1688 H 164.097 -2.65654 -1.35026 0
M  V30 1689 H 161.634 -1.31662 -0.656009 0
M  V30 1690 H 163.592 -1.90263 -3.7129 0
M  V30 1691 H 162.222 -0.949461 -3.08521 0
M  V30 1692 H 161.274 -3.1646 -2.11086 0
M  V30 1693 H 162.586 -4.02382 -2.94771 0
M  V30 1694 H 161.74 -3.19979 -5.15459 0
M  V30 1695 H 160.479 -2.23715 -4.33362 0
M  V30 1696 H 159.484 -4.33579 -3.38067 0
M  V30 1697 H 160.709 -5.30921 -4.23438 0
M  V30 1698 H 158.655 -3.49318 -5.55259 0
M  V30 1699 H 158.572 -5.22219 -5.46647 0
M  V30 1700 H 159.84 -4.469 -6.38671 0
M  V30 1701 N 164.069 0.697108 -1.41344 0
M  V30 1702 C 165.346 1.45154 -1.31109 0
M  V30 1703 C 165.726 2.11009 0.0620449 0
M  V30 1704 O 165.074 2.01571 1.07618 0
M  V30 1705 C 165.284 2.47223 -2.46337 0
M  V30 1706 C 166.632 3.1252 -2.87431 0
M  V30 1707 O 167.656 2.57547 -2.46065 0
M  V30 1708 O 166.515 4.12083 -3.58957 0
M  V30 1709 H 163.609 0.646365 -0.515889 0
M  V30 1710 H 166.155 0.727716 -1.53305 0
M  V30 1711 H 164.927 1.97204 -3.37974 0
M  V30 1712 H 164.55 3.27116 -2.2601 0
M  V30 1713 N 165.547 1.27147 0.931209 0
M  V30 1714 C 166.457 1.11372 2.06478 0
M  V30 1715 C 167.473 0.044645 1.73943 0
M  V30 1716 O 168.649 0.250417 1.99837 0
M  V30 1717 C 165.714 0.758838 3.38294 0
M  V30 1718 C 164.775 1.90841 3.84549 0
M  V30 1719 C 164.008 1.57036 5.10074 0
M  V30 1720 O 164.231 0.476645 5.68405 0
M  V30 1721 O 163.165 2.40839 5.51616 0
M  V30 1722 H 166.991 2.06493 2.22698 0
M  V30 1723 H 164.576 1.06301 1.04978 0
M  V30 1724 H 166.458 0.574098 4.17471 0
M  V30 1725 H 165.133 -0.162879 3.2329 0
M  V30 1726 H 164.04 2.14819 3.06274 0
M  V30 1727 H 165.373 2.81021 4.04089 0
M  V30 1728 N 167.025 -1.13721 1.09112 0
M  V30 1729 C 167.973 -2.21103 0.722219 0
M  V30 1730 C 168.967 -1.67147 -0.275374 0
M  V30 1731 O 170.173 -1.79477 -0.137176 0
M  V30 1732 H 166.548 -0.720445 0.215553 0
M  V30 1733 H 168.519 -2.49483 1.63709 0
M  V30 1734 C 167.268 -3.47352 0.15543 0
M  V30 1735 H 166.591 -3.89206 0.914246 0
M  V30 1736 H 168.031 -4.2395 -0.0647967 0
M  V30 1737 C 166.49 -3.1814 -1.10852 0
M  V30 1738 O 167.02 -3.36604 -2.19227 0
M  V30 1739 N 165.226 -2.72045 -1.02176 0
M  V30 1740 H 164.773 -2.57221 -0.139764 0
M  V30 1741 H 164.731 -2.52875 -1.8682 0
M  V30 1742 N 168.503 -0.877838 -1.30888 0
M  V30 1743 C 169.731 -0.507414 -2.00581 0
M  V30 1744 C 170.146 0.902216 -1.65848 0
M  V30 1745 O 169.503 1.59225 -0.891831 0
M  V30 1746 C 169.554 -0.664162 -3.55347 0
M  V30 1747 O 169.275 -2.01829 -3.8884 0
M  V30 1748 C 170.776 -0.295787 -4.42312 0
M  V30 1749 H 167.996 -0.196866 -0.641471 0
M  V30 1750 H 170.54 -1.18117 -1.66939 0
M  V30 1751 H 168.695 -0.0378619 -3.87381 0
M  V30 1752 H 169.109 -2.03174 -4.8355 0
M  V30 1753 H 170.583 -0.456388 -5.5011 0
M  V30 1754 H 171.06 0.765663 -4.32475 0
M  V30 1755 H 171.666 -0.898113 -4.15709 0
M  V30 1756 N 169.982 1.44106 -0.638065 0
M  V30 1757 C 170.912 2.33448 0.0494287 0
M  V30 1758 C 171.893 1.48606 0.827672 0
M  V30 1759 O 173.078 1.77308 0.792173 0
M  V30 1760 C 170.208 3.31771 1.02691 0
M  V30 1761 C 169.162 4.26485 0.359823 0
M  V30 1762 C 168.488 5.14729 1.44769 0
M  V30 1763 C 169.788 5.17056 -0.738296 0
M  V30 1764 H 171.482 2.91183 -0.696636 0
M  V30 1765 H 169.028 1.40014 -0.336456 0
M  V30 1766 H 170.981 3.93161 1.51666 0
M  V30 1767 H 169.705 2.7226 1.80395 0
M  V30 1768 H 168.364 3.66437 -0.10934 0
M  V30 1769 H 168.012 4.51566 2.21578 0
M  V30 1770 H 167.712 5.78913 1.00668 0
M  V30 1771 H 169.236 5.78991 1.93911 0
M  V30 1772 H 170.65 5.72342 -0.331354 0
M  V30 1773 H 169.047 5.89879 -1.10286 0
M  V30 1774 H 170.117 4.57652 -1.60258 0
M  V30 1775 N 171.46 0.379036 1.52974 0
M  V30 1776 C 172.407 -0.461048 2.26148 0
M  V30 1777 C 173.377 -1.06637 1.27349 0
M  V30 1778 O 174.562 -1.09633 1.56157 0
M  V30 1779 C 171.702 -1.58782 3.06402 0
M  V30 1780 C 170.815 -1.00636 4.20115 0
M  V30 1781 C 169.95 -2.10334 4.87784 0
M  V30 1782 C 168.989 -1.49724 5.93506 0
M  V30 1783 N 168.126 -2.5331 6.54812 0
M  V30 1784 H 172.966 0.169429 2.97518 0
M  V30 1785 H 170.503 0.0953806 1.4679 0
M  V30 1786 H 172.461 -2.25174 3.51215 0
M  V30 1787 H 171.091 -2.18876 2.37261 0
M  V30 1788 H 170.143 -0.232332 3.7969 0
M  V30 1789 H 171.455 -0.523343 4.96047 0
M  V30 1790 H 170.609 -2.84519 5.35849 0
M  V30 1791 H 169.348 -2.61992 4.11353 0
M  V30 1792 H 168.353 -0.740598 5.44789 0
M  V30 1793 H 169.578 -0.988732 6.71864 0
M  V30 1794 H 167.524 -3.04156 5.81227 0
M  V30 1795 H 167.441 -2.09734 7.26325 0
M  V30 1796 H 168.709 -3.27155 7.07524 0
M  V30 1797 N 172.938 -1.57226 0.108567 0
M  V30 1798 C 174.166 -1.99179 -0.559954 0
M  V30 1799 C 174.581 -0.988022 -1.60884 0
M  V30 1800 O 173.938 0.0205512 -1.82488 0
M  V30 1801 C 173.989 -3.41159 -1.19552 0
M  V30 1802 O 173.71 -4.37694 -0.188577 0
M  V30 1803 C 175.211 -3.98188 -1.94837 0
M  V30 1804 H 172.431 -0.654228 -0.149088 0
M  V30 1805 H 174.975 -2.03598 0.19183 0
M  V30 1806 H 173.13 -3.37711 -1.89815 0
M  V30 1807 H 173.544 -5.20469 -0.649014 0
M  V30 1808 H 175.018 -4.99644 -2.34648 0
M  V30 1809 H 175.495 -3.3675 -2.81951 0
M  V30 1810 H 176.101 -4.0515 -1.2936 0
M  V30 1811 N 174.416 0.165178 -1.56732 0
M  V30 1812 C 175.346 1.20651 -1.99914 0
M  V30 1813 C 176.327 1.45827 -0.875705 0
M  V30 1814 O 177.512 1.57057 -1.14223 0
M  V30 1815 C 174.642 2.54401 -2.36427 0
M  V30 1816 C 173.596 2.43782 -3.51787 0
M  V30 1817 C 172.922 3.82078 -3.7406 0
M  V30 1818 C 174.222 1.93732 -4.85041 0
M  V30 1819 H 175.916 0.847534 -2.87154 0
M  V30 1820 H 173.462 0.40625 -1.38151 0
M  V30 1821 H 175.415 3.27458 -2.65234 0
M  V30 1822 H 174.139 2.92098 -1.46103 0
M  V30 1823 H 172.798 1.73178 -3.23117 0
M  V30 1824 H 172.446 4.17179 -2.81017 0
M  V30 1825 H 172.146 3.7584 -4.51684 0
M  V30 1826 H 173.67 4.56712 -4.05274 0
M  V30 1827 H 175.084 2.56569 -5.12684 0
M  V30 1828 H 173.481 1.98428 -5.66345 0
M  V30 1829 H 174.551 0.891962 -4.76626 0
M  V30 1830 N 175.894 1.51508 0.433938 0
M  V30 1831 C 177.31 1.39759 0.770682 0
M  V30 1832 C 177.51 0.482594 1.95636 0
M  V30 1833 O 176.566 -0.0609691 2.52426 0
M  V30 1834 C 177.879 2.81851 1.04787 0
M  V30 1835 C 179.427 2.91025 1.1521 0
M  V30 1836 C 179.902 4.34032 1.46219 0
M  V30 1837 N 181.393 4.37154 1.53136 0
M  V30 1838 C 182.128 5.4484 1.78709 0
M  V30 1839 N 181.624 6.62682 2.02051 0
M  V30 1840 N 183.417 5.32324 1.80519 0
M  V30 1841 H 175.568 2.09548 -0.346892 0
M  V30 1842 H 177.831 0.943446 -0.0928074 0
M  V30 1843 H 177.537 3.50815 0.249304 0
M  V30 1844 H 177.411 3.21386 1.97461 0
M  V30 1845 H 179.798 2.22257 1.94128 0
M  V30 1846 H 179.879 2.54983 0.204281 0
M  V30 1847 H 179.523 5.03351 0.678274 0
M  V30 1848 H 179.453 4.6759 2.42212 0
M  V30 1849 H 181.944 3.52197 1.36987 0
M  V30 1850 H 182.257 7.40543 2.20943 0
M  V30 1851 H 180.602 6.65791 1.99366 0
M  V30 1852 H 183.793 4.39246 1.61805 0
M  V30 1853 H 183.966 6.16328 2.00111 0
M  V30 1854 N 177.372 -0.689602 1.41712 0
M  V30 1855 C 178.335 -1.78521 1.43746 0
M  V30 1856 C 179.335 -1.57436 0.327191 0
M  V30 1857 O 180.525 -1.64 0.587348 0
M  V30 1858 C 177.657 -3.16971 1.25467 0
M  V30 1859 H 178.85 -1.78108 2.41283 0
M  V30 1860 H 176.403 -0.89781 1.27942 0
M  V30 1861 H 177.138 -3.23019 0.287948 0
M  V30 1862 H 176.923 -3.33678 2.05917 0
M  V30 1863 H 178.413 -3.96935 1.2974 0
M  V30 1864 N 178.85 -1.27639 -0.924453 0
M  V30 1865 C 180.098 -1.13941 -1.66918 0
M  V30 1866 C 180.419 0.314589 -1.92446 0
M  V30 1867 O 179.689 1.21964 -1.53303 0
M  V30 1868 H 178.269 -0.418678 -0.618642 0
M  V30 1869 H 180.931 -1.60213 -1.10985 0
M  V30 1870 H 180.027 -1.67094 -2.63602 0
M  V30 1871 N 180.328 1.1314 -1.09713 0
M  V30 1872 C 181.276 2.20717 -0.733934 0
M  V30 1873 C 182.27 1.6729 0.266506 0
M  V30 1874 O 183.476 1.79547 0.127656 0
M  V30 1875 H 179.851 0.719292 -0.21937 0
M  V30 1876 H 181.822 2.48611 -1.6503 0
M  V30 1877 C 180.571 3.47265 -0.173849 0
M  V30 1878 H 179.894 3.88716 -0.934873 0
M  V30 1879 H 181.334 4.23979 0.0423126 0
M  V30 1880 C 179.793 3.18724 1.09164 0
M  V30 1881 O 180.323 3.37762 2.17439 0
M  V30 1882 N 178.529 2.72583 1.00732 0
M  V30 1883 H 178.076 2.57291 0.126121 0
M  V30 1884 H 178.034 2.53862 1.85476 0
M  V30 1885 N 181.806 0.884767 1.30421 0
M  V30 1886 C 182.769 0.356277 2.26414 0
M  V30 1887 C 183.769 -0.501124 1.52792 0
M  V30 1888 O 184.959 -0.30831 1.7145 0
M  V30 1889 C 182.091 -0.492316 3.37326 0
M  V30 1890 H 183.284 1.20389 2.74675 0
M  V30 1891 H 180.837 0.661607 1.41607 0
M  V30 1892 H 181.572 -1.36052 2.94381 0
M  V30 1893 H 181.357 0.121832 3.91911 0
M  V30 1894 H 182.847 -0.853871 4.08777 0
M  V30 1895 N 183.284 -1.43765 0.645699 0
M  V30 1896 C 184.561 -1.9541 0.0862963 0
M  V30 1897 C 184.941 -1.58725 -1.39175 0
M  V30 1898 O 184.289 -0.868581 -2.11348 0
M  V30 1899 C 184.499 -3.47488 0.324565 0
M  V30 1900 C 185.847 -4.24001 0.225497 0
M  V30 1901 O 186.871 -3.55274 0.256715 0
M  V30 1902 O 185.73 -5.46313 0.142801 0
M  V30 1903 H 182.824 -0.826882 -0.0139483 0
M  V30 1904 H 185.37 -1.53743 0.718415 0
M  V30 1905 H 184.142 -3.67289 1.3496 0
M  V30 1906 H 183.765 -3.96135 -0.340987 0
M  V30 1907 N 184.763 -0.387143 -1.52771 0
M  V30 1908 C 185.726 0.436939 -2.24997 0
M  V30 1909 C 186.726 0.991991 -1.26555 0
M  V30 1910 O 187.916 0.874335 -1.50669 0
M  V30 1911 C 185.048 1.61281 -3.00335 0
M  V30 1912 H 186.241 -0.195365 -2.99263 0
M  V30 1913 H 183.794 -0.139218 -1.55679 0
M  V30 1914 H 184.529 2.2826 -2.30364 0
M  V30 1915 H 184.314 1.22154 -3.72587 0
M  V30 1916 H 185.804 2.19629 -3.5518 0
M  V30 1917 N 186.241 1.57166 -0.116904 0
M  V30 1918 C 187.204 2.14039 0.819742 0
M  V30 1919 C 188.204 1.07477 1.19605 0
M  V30 1920 O 189.394 1.33263 1.1219 0
M  V30 1921 C 186.526 2.67891 2.10826 0
M  V30 1922 H 187.719 2.98128 0.325511 0
M  V30 1923 H 185.272 1.55739 0.132312 0
M  V30 1924 H 186.007 1.87384 2.64685 0
M  V30 1925 H 185.792 3.45823 1.84793 0
M  V30 1926 H 187.282 3.11809 2.77785 0
M  V30 1927 N 187.719 -0.156864 1.56817 0
M  V30 1928 C 188.996 -0.899244 1.73704 0
M  V30 1929 C 189.376 -1.99771 0.682254 0
M  V30 1930 O 188.724 -2.26515 -0.300522 0
M  V30 1931 C 188.934 -1.45075 3.17418 0
M  V30 1932 C 190.282 -1.91802 3.7881 0
M  V30 1933 O 191.306 -1.54838 3.20786 0
M  V30 1934 O 190.165 -2.5994 4.80722 0
M  V30 1935 H 187.259 -0.424267 0.709878 0
M  V30 1936 H 189.805 -0.143561 1.69092 0
M  V30 1937 H 188.577 -0.660846 3.85679 0
M  V30 1938 H 188.2 -2.27021 3.26416 0
M  V30 1939 N 189.197 -1.51736 -0.425897 0
M  V30 1940 C 190.446 -1.64201 -1.17136 0
M  V30 1941 C 190.759 -0.369705 -1.92074 0
M  V30 1942 O 191.965 -0.373898 -2.68913 0
M  V30 1943 C 190.421 -2.90035 -2.13091 0
M  V30 1944 C 190.029 -4.24312 -1.43747 0
M  V30 1945 C 191.773 -3.1186 -2.87999 0
M  V30 1946 C 189.68 -5.41285 -2.38253 0
M  V30 1947 H 188.61 -0.611624 -0.440944 0
M  V30 1948 H 191.261 -1.78212 -0.437328 0
M  V30 1949 H 189.643 -2.69684 -2.89977 0
M  V30 1950 H 190.817 -4.55086 -0.723408 0
M  V30 1951 H 189.132 -4.08456 -0.809465 0
M  V30 1952 H 191.729 -3.96427 -3.58817 0
M  V30 1953 H 192.072 -2.25403 -3.49999 0
M  V30 1954 H 192.605 -3.32605 -2.18217 0
M  V30 1955 H 189.344 -6.30037 -1.80925 0
M  V30 1956 H 188.864 -5.14872 -3.0768 0
M  V30 1957 H 190.543 -5.73694 -2.99139 0
M  V30 1958 N 190.675 0.682077 -1.42076 0
M  V30 1959 C 191.903 1.47057 -1.4554 0
M  V30 1960 C 192.318 1.8869 -0.0645779 0
M  V30 1961 O 191.675 1.57666 0.919115 0
M  V30 1962 C 191.726 2.72442 -2.37609 0
M  V30 1963 O 191.447 2.32559 -3.71279 0
M  V30 1964 C 192.948 3.66069 -2.50017 0
M  V30 1965 H 190.168 0.452737 -0.495248 0
M  V30 1966 H 192.712 0.838695 -1.8651 0
M  V30 1967 H 190.867 3.31835 -1.9991 0
M  V30 1968 H 191.281 3.13475 -4.20516 0
M  V30 1969 H 192.755 4.50792 -3.18576 0
M  V30 1970 H 193.232 4.11476 -1.53572 0
M  V30 1971 H 193.838 3.12572 -2.88407 0
M  V30 1972 N 192.153 1.28127 0.917671 0
M  V30 1973 C 193.569 1.05749 1.19538 0
M  V30 1974 C 193.769 -0.202633 2.00479 0
M  V30 1975 O 192.825 -0.905382 2.3571 0
M  V30 1976 C 194.138 2.30273 1.93378 0
M  V30 1977 C 195.686 2.35412 2.06277 0
M  V30 1978 C 196.161 3.59692 2.83524 0
M  V30 1979 N 197.652 3.60309 2.91087 0
M  V30 1980 C 198.387 4.53147 3.51348 0
M  V30 1981 N 197.883 5.563 4.12919 0
M  V30 1982 N 199.676 4.40751 3.48849 0
M  V30 1983 H 191.827 2.09024 0.377184 0
M  V30 1984 H 194.09 0.919798 0.22951 0
M  V30 1985 H 193.796 3.22055 1.41328 0
M  V30 1986 H 193.67 2.36378 2.93947 0
M  V30 1987 H 196.057 1.4413 2.57508 0
M  V30 1988 H 196.138 2.33304 1.04895 0
M  V30 1989 H 195.782 4.51316 2.32973 0
M  V30 1990 H 195.712 3.59054 3.85211 0
M  V30 1991 H 198.203 2.85714 2.47338 0
M  V30 1992 H 198.516 6.2329 4.56869 0
M  V30 1993 H 196.861 5.60131 4.11435 0
M  V30 1994 H 200.052 3.59367 2.99955 0
M  V30 1995 H 200.225 5.13291 3.9552 0
M  V30 1996 N 193.631 -1.12557 1.10312 0
M  V30 1997 C 194.563 -2.17971 0.708625 0
M  V30 1998 C 195.576 -1.60806 -0.254027 0
M  V30 1999 O 196.765 -1.78458 -0.0386891 0
M  V30 2000 C 193.865 -3.38891 0.0248198 0
M  V30 2001 C 193.038 -4.25548 1.01132 0
M  V30 2002 C 192.097 -5.24972 0.35924 0
M  V30 2003 O 191.123 -5.60174 1.00965 0
M  V30 2004 N 192.325 -5.73747 -0.882847 0
M  V30 2005 H 195.09 -2.52427 1.61557 0
M  V30 2006 H 192.651 -1.27967 0.991771 0
M  V30 2007 H 194.643 -4.02485 -0.422852 0
M  V30 2008 H 193.213 -3.02596 -0.784514 0
M  V30 2009 H 192.433 -3.58589 1.6373 0
M  V30 2010 H 193.721 -4.80294 1.67914 0
M  V30 2011 H 193.119 -5.4731 -1.43065 0
M  V30 2012 H 191.676 -6.39234 -1.27369 0
M  V30 2013 N 195.109 -0.891671 -1.2995 0
M  V30 2014 C 196.019 -0.367691 -2.31701 0
M  V30 2015 C 197.035 0.533486 -1.6562 0
M  V30 2016 O 198.211 0.424997 -1.96865 0
M  V30 2017 C 195.276 0.403406 -3.44345 0
M  V30 2018 C 194.337 -0.528328 -4.26037 0
M  V30 2019 C 193.57 0.206063 -5.33302 0
M  V30 2020 O 193.793 1.43119 -5.52153 0
M  V30 2021 O 192.727 -0.447281 -6.00236 0
M  V30 2022 H 196.553 -1.21163 -2.78484 0
M  V30 2023 H 194.138 -0.655725 -1.34241 0
M  V30 2024 H 196.02 0.839753 -4.12948 0
M  V30 2025 H 194.695 1.22354 -2.99685 0
M  V30 2026 H 193.602 -1.01362 -3.60106 0
M  V30 2027 H 194.935 -1.31465 -4.74318 0
M  V30 2028 N 196.587 1.43421 -0.653314 0
M  V30 2029 C 197.834 2.01812 -0.166745 0
M  V30 2030 C 198.162 1.51535 1.21931 0
M  V30 2031 O 197.417 0.698975 1.82792 0
M  V30 2032 C 197.716 3.57176 -0.126623 0
M  V30 2033 C 197.382 4.26798 -1.45444 0
M  V30 2034 C 196.044 4.45534 -1.81805 0
M  V30 2035 C 198.396 4.66225 -2.32989 0
M  V30 2036 C 195.724 5.00961 -3.05377 0
M  V30 2037 C 198.076 5.23021 -3.55853 0
M  V30 2038 C 196.74 5.39973 -3.9241 0
M  V30 2039 H 196.01 0.738484 -0.0610162 0
M  V30 2040 H 198.657 1.71896 -0.84404 0
M  V30 2041 H 196.962 3.86634 0.634123 0
M  V30 2042 H 198.659 4.00112 0.266723 0
M  V30 2043 H 195.249 4.12561 -1.16153 0
M  V30 2044 H 199.433 4.51443 -2.06187 0
M  V30 2045 H 194.689 5.12271 -3.3375 0
M  V30 2046 H 198.863 5.52518 -4.23907 0
M  V30 2047 H 196.49 5.82687 -4.88242 0
M  V30 2048 N 198.065 0.39524 1.52563 0
M  V30 2049 C 199.481 0.0454682 1.59535 0
M  V30 2050 C 199.681 -1.44056 1.4089 0
M  V30 2051 O 198.737 -2.20579 1.22888 0
M  V30 2052 C 200.05 0.527963 2.96029 0
M  V30 2053 C 201.598 0.484733 3.09224 0
M  V30 2054 C 202.073 0.943512 4.48176 0
M  V30 2055 N 203.564 0.899765 4.54377 0
M  V30 2056 C 204.299 1.22609 5.60138 0
M  V30 2057 N 203.795 1.62319 6.73516 0
M  V30 2058 N 205.588 1.14696 5.50274 0
M  V30 2059 H 197.739 1.36261 1.62931 0
M  V30 2060 H 200.002 0.558887 0.765735 0
M  V30 2061 H 199.708 1.56607 3.14908 0
M  V30 2062 H 199.582 -0.0698056 3.77135 0
M  V30 2063 H 201.969 -0.544298 2.90037 0
M  V30 2064 H 202.05 1.11838 2.30056 0
M  V30 2065 H 201.694 1.9708 4.68104 0
M  V30 2066 H 201.624 0.286817 5.25818 0
M  V30 2067 H 204.115 0.607632 3.72983 0
M  V30 2068 H 204.428 1.85567 7.5019 0
M  V30 2069 H 202.773 1.66211 6.74833 0
M  V30 2070 H 205.964 0.835701 4.6058 0
M  V30 2071 H 206.137 1.40459 6.32594 0
M  V30 2072 N 199.544 -1.57102 0.125237 0
M  V30 2073 C 200.474 -2.18659 -0.819174 0
M  V30 2074 C 201.455 -1.12843 -1.27281 0
M  V30 2075 O 202.64 -1.41104 -1.33429 0
M  V30 2076 C 199.77 -2.79096 -2.06695 0
M  V30 2077 C 198.724 -3.90548 -1.75088 0
M  V30 2078 C 198.05 -4.37821 -3.06948 0
M  V30 2079 C 199.35 -5.12356 -1.01435 0
M  V30 2080 H 201.044 -2.9783 -0.306202 0
M  V30 2081 H 198.59 -1.4326 -0.145839 0
M  V30 2082 H 200.543 -3.2082 -2.73226 0
M  V30 2083 H 199.267 -1.97223 -2.60328 0
M  V30 2084 H 197.926 -3.49409 -1.10944 0
M  V30 2085 H 197.574 -3.52799 -3.58527 0
M  V30 2086 H 197.274 -5.12982 -2.86571 0
M  V30 2087 H 198.798 -4.822 -3.74587 0
M  V30 2088 H 200.212 -5.5106 -1.58132 0
M  V30 2089 H 198.609 -5.9314 -0.911319 0
M  V30 2090 H 199.679 -4.849 -0.00218681 0
M  V30 2091 N 201.022 0.148545 -1.56898 0
M  V30 2092 C 201.952 1.18524 -2.01182 0
M  V30 2093 C 202.933 1.4489 -0.891123 0
M  V30 2094 O 204.118 1.55836 -1.15882 0
M  V30 2095 C 201.248 2.51879 -2.39112 0
M  V30 2096 C 200.202 2.40038 -3.54353 0
M  V30 2097 C 199.528 3.78089 -3.78091 0
M  V30 2098 C 200.828 1.88577 -4.87069 0
M  V30 2099 H 202.522 0.817029 -2.88036 0
M  V30 2100 H 200.068 0.391575 -1.38574 0
M  V30 2101 H 202.021 3.24627 -2.68692 0
M  V30 2102 H 200.745 2.90532 -1.49193 0
M  V30 2103 H 199.404 1.69742 -3.24936 0
M  V30 2104 H 199.052 4.14175 -2.85426 0
M  V30 2105 H 198.752 3.71028 -4.55645 0
M  V30 2106 H 200.276 4.52387 -4.10095 0
M  V30 2107 H 201.69 2.51117 -5.15377 0
M  V30 2108 H 200.087 1.9241 -5.68417 0
M  V30 2109 H 201.157 0.84136 -4.77545 0
M  V30 2110 N 202.5 1.5196 0.417844 0
M  V30 2111 C 203.432 1.70895 1.52733 0
M  V30 2112 C 204.445 0.589405 1.51756 0
M  V30 2113 O 205.634 0.864312 1.56179 0
M  V30 2114 C 202.734 1.72627 2.91639 0
M  V30 2115 C 201.907 3.01479 3.16905 0
M  V30 2116 C 200.966 2.95139 4.35637 0
M  V30 2117 O 199.992 3.69059 4.3334 0
M  V30 2118 N 201.194 2.12328 5.40275 0
M  V30 2119 H 203.959 2.66612 1.36888 0
M  V30 2120 H 201.52 1.50089 0.607037 0
M  V30 2121 H 203.512 1.65928 3.6912 0
M  V30 2122 H 202.082 0.844216 3.00985 0
M  V30 2123 H 201.302 3.21895 2.27546 0
M  V30 2124 H 202.59 3.86736 3.30625 0
M  V30 2125 H 201.988 1.51685 5.44985 0
M  V30 2126 H 200.545 2.11494 6.16534 0
M  V30 2127 N 203.978 -0.674533 1.42435 0
M  V30 2128 C 204.941 -1.76986 1.45632 0
M  V30 2129 C 205.941 -1.5708 0.343871 0
M  V30 2130 O 207.131 -1.63367 0.604709 0
M  V30 2131 C 204.263 -3.15623 1.28822 0
M  V30 2132 H 205.456 -1.75539 2.43158 0
M  V30 2133 H 203.009 -0.884189 1.28887 0
M  V30 2134 H 203.744 -3.22696 0.322193 0
M  V30 2135 H 203.529 -3.31475 2.09444 0
M  V30 2136 H 205.019 -3.95537 1.33942 0
M  V30 2137 N 205.456 -1.28612 -0.910864 0
M  V30 2138 C 206.366 -1.14643 -2.0468 0
M  V30 2139 C 207.382 -0.0723121 -1.7385 0
M  V30 2140 O 208.558 -0.282178 -1.99413 0
M  V30 2141 C 205.623 -0.812561 -3.37044 0
M  V30 2142 C 204.684 -1.96935 -3.81465 0
M  V30 2143 C 203.917 -1.65131 -5.07511 0
M  V30 2144 O 204.14 -0.567013 -5.67575 0
M  V30 2145 O 203.074 -2.49585 -5.47714 0
M  V30 2146 H 206.9 -2.1001 -2.19384 0
M  V30 2147 H 204.485 -1.07958 -1.03274 0
M  V30 2148 H 206.367 -0.640441 -4.16505 0
M  V30 2149 H 205.042 0.111426 -3.23508 0
M  V30 2150 H 203.949 -2.19664 -3.02818 0
M  V30 2151 H 205.282 -2.87414 -3.99567 0
M  V30 2152 N 206.934 1.1197 -1.10907 0
M  V30 2153 C 207.864 2.19928 -0.784473 0
M  V30 2154 C 208.845 1.6833 0.244726 0
M  V30 2155 O 210.03 1.93892 0.109418 0
M  V30 2156 C 207.16 3.46597 -0.220827 0
M  V30 2157 C 206.114 4.11376 -1.18127 0
M  V30 2158 C 205.44 5.32554 -0.478594 0
M  V30 2159 C 206.74 4.56945 -2.52979 0
M  V30 2160 H 208.434 2.47337 -1.68715 0
M  V30 2161 H 205.98 1.18879 -0.812642 0
M  V30 2162 H 207.933 4.21396 0.0184278 0
M  V30 2163 H 206.657 3.1863 0.717113 0
M  V30 2164 H 205.316 3.38564 -1.40606 0
M  V30 2165 H 204.964 5.00856 0.463976 0
M  V30 2166 H 204.664 5.76844 -1.11912 0
M  V30 2167 H 206.188 6.10096 -0.248 0
M  V30 2168 H 207.602 5.23093 -2.3462 0
M  V30 2169 H 205.999 5.1203 -3.12962 0
M  V30 2170 H 207.069 3.70676 -3.12614 0
M  V30 2171 N 208.412 0.89855 1.29475 0
M  V30 2172 C 209.828 0.594483 1.48115 0
M  V30 2173 C 210.028 -0.86431 1.82022 0
M  V30 2174 O 209.084 -1.64457 1.91599 0
M  V30 2175 C 210.397 1.51932 2.59494 0
M  V30 2176 C 211.945 1.5244 2.7337 0
M  V30 2177 C 212.42 2.43548 3.87877 0
M  V30 2178 N 213.911 2.41589 3.95208 0
M  V30 2179 C 214.646 3.08789 4.83153 0
M  V30 2180 N 214.142 3.85265 5.75798 0
M  V30 2181 N 215.935 2.97952 4.76635 0
M  V30 2182 H 208.086 1.84207 1.05742 0
M  V30 2183 H 210.349 0.789251 0.525154 0
M  V30 2184 H 210.055 2.55865 2.41301 0
M  V30 2185 H 209.929 1.23899 3.56271 0
M  V30 2186 H 212.316 0.492518 2.90961 0
M  V30 2187 H 212.397 1.8451 1.77172 0
M  V30 2188 H 212.041 3.46829 3.71041 0
M  V30 2189 H 211.971 2.08788 4.83441 0
M  V30 2190 H 214.462 1.86025 3.28943 0
M  V30 2191 H 214.775 4.33598 6.39697 0
M  V30 2192 H 213.12 3.89371 5.75687 0
M  V30 2193 H 216.311 2.37723 4.03244 0
M  V30 2194 H 216.484 3.50599 5.44962 0
M  V30 2195 N 209.89 -1.43072 0.660911 0
M  V30 2196 C 210.8 -2.34585 -0.0264163 0
M  V30 2197 C 211.816 -1.54316 -0.803898 0
M  V30 2198 O 212.992 -1.86939 -0.749391 0
M  V30 2199 C 210.057 -3.32689 -0.975639 0
M  V30 2200 C 209.118 -4.2886 -0.194236 0
M  V30 2201 C 208.351 -5.22278 -1.09825 0
M  V30 2202 O 208.574 -5.20299 -2.33763 0
M  V30 2203 O 207.508 -5.99228 -0.566513 0
M  V30 2204 H 211.334 -2.94869 0.727034 0
M  V30 2205 H 208.919 -1.43342 0.42111 0
M  V30 2206 H 210.801 -3.92995 -1.52094 0
M  V30 2207 H 209.476 -2.74898 -1.70918 0
M  V30 2208 H 208.383 -3.72011 0.394835 0
M  V30 2209 H 209.716 -4.89655 0.499899 0
M  V30 2210 N 211.368 -0.403325 -1.52352 0
M  V30 2211 C 212.598 0.17376 -2.05868 0
M  V30 2212 C 213.006 1.39898 -1.27378 0
M  V30 2213 O 212.349 1.80939 -0.31729 0
M  V30 2214 C 212.411 0.594756 -3.54546 0
M  V30 2215 C 212.075 -0.518926 -4.54044 0
M  V30 2216 C 213.072 -1.3807 -5.01231 0
M  V30 2217 C 210.757 -0.689961 -4.97539 0
M  V30 2218 C 212.751 -2.39852 -5.90551 0
M  V30 2219 C 210.438 -1.71109 -5.86656 0
M  V30 2220 C 211.436 -2.56378 -6.33056 0
M  V30 2221 O 211.124 -3.56743 -7.20409 0
M  V30 2222 H 210.856 0.0264951 -0.675481 0
M  V30 2223 H 213.41 -0.571179 -1.97299 0
M  V30 2224 H 211.64 1.39189 -3.60782 0
M  V30 2225 H 213.329 1.0991 -3.90736 0
M  V30 2226 H 214.095 -1.25994 -4.68349 0
M  V30 2227 H 209.974 -0.035939 -4.60986 0
M  V30 2228 H 213.518 -3.06441 -6.26689 0
M  V30 2229 H 209.415 -1.83218 -6.18952 0
M  V30 2230 H 210.183 -3.52918 -7.38506 0
M  V30 2231 N 212.846 1.57033 -0.133567 0
M  V30 2232 C 214.094 1.953 0.519848 0
M  V30 2233 C 214.415 1.01866 1.66278 0
M  V30 2234 O 213.685 0.0776513 1.95746 0
M  V30 2235 H 212.265 0.721091 0.195032 0
M  V30 2236 H 214.927 1.93809 -0.205921 0
M  V30 2237 H 214.023 2.98695 0.904854 0
M  V30 2238 N 214.325 -0.140222 1.56975 0
M  V30 2239 C 215.572 -0.851687 1.83719 0
M  V30 2240 C 215.9 -1.80862 0.715485 0
M  V30 2241 O 215.155 -1.93464 -0.294956 0
M  V30 2242 C 215.454 -1.65386 3.16832 0
M  V30 2243 C 215.12 -0.843112 4.42947 0
M  V30 2244 C 213.782 -0.619464 4.77196 0
M  V30 2245 C 216.134 -0.276582 5.20466 0
M  V30 2246 C 213.462 0.181312 5.8642 0
M  V30 2247 C 215.814 0.51127 6.30531 0
M  V30 2248 C 214.478 0.745432 6.63325 0
M  V30 2249 H 213.748 -0.311654 0.672274 0
M  V30 2250 H 216.395 -0.115006 1.91154 0
M  V30 2251 H 214.7 -2.46084 3.04877 0
M  V30 2252 H 216.397 -2.20793 3.34741 0
M  V30 2253 H 212.987 -1.0275 4.16101 0
M  V30 2254 H 217.171 -0.436632 4.94376 0
M  V30 2255 H 212.427 0.372165 6.10266 0
M  V30 2256 H 216.601 0.957354 6.89788 0
M  V30 2257 H 214.228 1.36778 7.47794 0
M  V30 2258 N 215.803 -1.52179 -0.40978 0
M  V30 2259 C 217.219 -1.40968 -0.74835 0
M  V30 2260 C 217.419 -0.513657 -1.94843 0
M  V30 2261 O 216.475 0.0208026 -2.52491 0
M  V30 2262 C 217.788 -2.83483 -1.0029 0
M  V30 2263 C 219.336 -2.92821 -1.10565 0
M  V30 2264 C 219.811 -4.36303 -1.39296 0
M  V30 2265 N 221.302 -4.39535 -1.46162 0
M  V30 2266 C 222.037 -5.47614 -1.70018 0
M  V30 2267 N 221.533 -6.65812 -1.91483 0
M  V30 2268 N 223.326 -5.35129 -1.72027 0
M  V30 2269 H 215.477 -2.0897 0.380186 0
M  V30 2270 H 217.74 -0.94185 0.107805 0
M  V30 2271 H 217.446 -3.51168 -0.193461 0
M  V30 2272 H 217.32 -3.24487 -1.92323 0
M  V30 2273 H 219.707 -2.25318 -1.90568 0
M  V30 2274 H 219.788 -2.55276 -0.16369 0
M  V30 2275 H 219.432 -5.04366 -0.598109 0
M  V30 2276 H 219.362 -4.71385 -2.34743 0
M  V30 2277 H 221.853 -3.54332 -1.31367 0
M  V30 2278 H 222.166 -7.43964 -2.09134 0
M  V30 2279 H 220.511 -6.68879 -1.88749 0
M  V30 2280 H 223.702 -4.41764 -1.54796 0
M  V30 2281 H 223.875 -6.19433 -1.9028 0
M  V30 2282 N 217.281 0.66697 -1.42791 0
M  V30 2283 C 218.509 1.45505 -1.47091 0
M  V30 2284 C 218.924 1.8861 -0.0845873 0
M  V30 2285 O 218.281 1.58632 0.90234 0
M  V30 2286 C 218.332 2.69906 -2.40485 0
M  V30 2287 O 218.053 2.28608 -3.73725 0
M  V30 2288 C 219.554 3.63396 -2.53886 0
M  V30 2289 H 216.774 0.447459 -0.500022 0
M  V30 2290 H 219.318 0.818866 -1.8739 0
M  V30 2291 H 217.473 3.29696 -2.03419 0
M  V30 2292 H 217.887 3.08997 -4.23817 0
M  V30 2293 H 219.361 4.47387 -3.2334 0
M  V30 2294 H 219.838 4.09824 -1.57927 0
M  V30 2295 H 220.444 3.09495 -2.91706 0
M  V30 2296 N 218.759 1.29093 0.90403 0
M  V30 2297 C 219.669 1.15727 2.0407 0
M  V30 2298 C 220.685 0.0815308 1.73809 0
M  V30 2299 O 221.861 0.292749 1.99261 0
M  V30 2300 C 218.926 0.830424 3.36608 0
M  V30 2301 C 217.987 1.98955 3.80415 0
M  V30 2302 C 217.22 1.6782 5.06628 0
M  V30 2303 O 217.443 0.597105 5.67266 0
M  V30 2304 O 216.377 2.52486 5.46383 0
M  V30 2305 H 220.203 2.11171 2.18267 0
M  V30 2306 H 217.788 1.08504 1.027 0
M  V30 2307 H 219.67 0.662521 4.16159 0
M  V30 2308 H 218.345 -0.0942678 3.23563 0
M  V30 2309 H 217.252 2.21267 3.01648 0
M  V30 2310 H 218.585 2.89529 3.98037 0
M  V30 2311 N 220.237 -1.11381 1.11499 0
M  V30 2312 C 221.486 -1.82494 0.858993 0
M  V30 2313 C 221.799 -1.85605 -0.617278 0
M  V30 2314 O 223.005 -2.52824 -0.989552 0
M  V30 2315 C 221.461 -3.27745 1.48699 0
M  V30 2316 C 221.069 -3.32961 2.99735 0
M  V30 2317 C 222.813 -4.03754 1.31085 0
M  V30 2318 C 220.72 -4.72612 3.55516 0
M  V30 2319 H 219.65 -0.683802 0.317696 0
M  V30 2320 H 222.301 -1.25331 1.34031 0
M  V30 2321 H 220.683 -3.84844 0.933339 0
M  V30 2322 H 221.857 -2.85741 3.61509 0
M  V30 2323 H 220.172 -2.70433 3.16631 0
M  V30 2324 H 222.769 -5.06891 1.70192 0
M  V30 2325 H 223.112 -4.15527 0.253496 0
M  V30 2326 H 223.645 -3.53043 1.83318 0
M  V30 2327 H 220.384 -4.66036 4.60967 0
M  V30 2328 H 219.904 -5.2024 2.98513 0
M  V30 2329 H 221.583 -5.4157 3.53992 0
M  V30 2330 N 221.715 -0.905404 -1.28997 0
M  V30 2331 C 222.678 -0.392253 -2.25819 0
M  V30 2332 C 223.678 0.476753 -1.5357 0
M  V30 2333 O 224.868 0.280994 -1.71919 0
M  V30 2334 C 222 0.438588 -3.38067 0
M  V30 2335 H 223.193 -1.24743 -2.72725 0
M  V30 2336 H 220.746 -0.684051 -1.40536 0
M  V30 2337 H 221.481 1.31352 -2.96508 0
M  V30 2338 H 221.266 -0.184167 -3.91667 0
M  V30 2339 H 222.756 0.78873 -4.10084 0
M  V30 2340 N 223.193 1.4272 -0.668489 0
M  V30 2341 C 224.441 2.01226 -0.187769 0
M  V30 2342 C 224.762 1.53092 1.2078 0
M  V30 2343 O 224.032 0.74993 1.80977 0
M  V30 2344 H 222.612 0.744041 -0.0664272 0
M  V30 2345 H 225.274 1.74723 -0.863583 0
M  V30 2346 H 224.37 3.11556 -0.184166 0
M  V30 2347 N 224.671 0.411399 1.52136 0
M  V30 2348 C 225.901 -0.16284 2.05957 0
M  V30 2349 C 226.309 -1.3922 1.28119 0
M  V30 2350 O 225.652 -1.80768 0.326881 0
M  V30 2351 C 225.714 -0.575946 3.54856 0
M  V30 2352 C 225.378 0.542998 4.53763 0
M  V30 2353 C 226.375 1.40726 5.00492 0
M  V30 2354 C 224.06 0.716337 4.97166 0
M  V30 2355 C 226.054 2.4298 5.8927 0
M  V30 2356 C 223.741 1.74218 5.8574 0
M  V30 2357 C 224.739 2.59731 6.31687 0
M  V30 2358 O 224.427 3.60558 7.18507 0
M  V30 2359 H 224.159 -0.0229125 0.675612 0
M  V30 2360 H 226.713 0.581634 1.96993 0
M  V30 2361 H 224.943 -1.37274 3.61515 0
M  V30 2362 H 226.632 -1.07836 3.91313 0
M  V30 2363 H 227.398 1.28476 4.67674 0
M  V30 2364 H 223.277 0.0603857 4.6096 0
M  V30 2365 H 226.821 3.0976 6.25055 0
M  V30 2366 H 222.718 1.86498 6.17971 0
M  V30 2367 H 223.486 3.56829 7.36624 0
M  V30 2368 N 226.149 -1.5696 0.141893 0
M  V30 2369 C 227.426 -1.87553 -0.555281 0
M  V30 2370 C 227.806 -1.04699 -1.83306 0
M  V30 2371 O 227.154 -0.132346 -2.28116 0
M  V30 2372 C 227.364 -3.39093 -0.825664 0
M  V30 2373 C 228.712 -4.08199 -1.16869 0
M  V30 2374 O 229.736 -3.44242 -0.915185 0
M  V30 2375 O 228.595 -5.21139 -1.6455 0
M  V30 2376 H 225.689 -0.777188 -0.282679 0
M  V30 2377 H 228.235 -1.68763 0.17812 0
M  V30 2378 H 227.007 -3.91221 0.0788633 0
M  V30 2379 H 226.63 -3.63393 -1.61343 0
M  V30 2380 N 227.627 0.131896 -1.57047 0
M  V30 2381 C 228.59 1.14638 -1.98471 0
M  V30 2382 C 229.59 1.35029 -0.873148 0
M  V30 2383 O 230.78 1.31764 -1.13946 0
M  V30 2384 C 227.912 2.50358 -2.31373 0
M  V30 2385 H 229.105 0.79064 -2.8929 0
M  V30 2386 H 226.658 0.375761 -1.51716 0
M  V30 2387 H 227.393 2.90876 -1.43393 0
M  V30 2388 H 227.178 2.36915 -3.12432 0
M  V30 2389 H 228.668 3.23395 -2.64207 0
M  V30 2390 N 229.106 1.52395 0.401703 0
M  V30 2391 C 230.036 1.79231 1.49661 0
M  V30 2392 C 231.017 0.643654 1.57452 0
M  V30 2393 O 232.202 0.889989 1.72606 0
M  V30 2394 C 229.332 1.94971 2.87409 0
M  V30 2395 C 228.286 3.10604 2.94465 0
M  V30 2396 C 227.612 3.11577 4.34538 0
M  V30 2397 C 228.912 4.49921 2.6527 0
M  V30 2398 H 230.606 2.70917 1.27454 0
M  V30 2399 H 228.152 1.30362 0.6117 0
M  V30 2400 H 230.105 2.12328 3.63999 0
M  V30 2401 H 228.829 0.999632 3.10926 0
M  V30 2402 H 227.488 2.93009 2.20321 0
M  V30 2403 H 227.136 2.14277 4.55076 0
M  V30 2404 H 226.836 3.89247 4.40183 0
M  V30 2405 H 228.36 3.31073 5.13053 0
M  V30 2406 H 229.774 4.67683 3.31581 0
M  V30 2407 H 228.171 5.29564 2.82281 0
M  V30 2408 H 229.241 4.57507 1.60671 0
M  V30 2409 N 230.584 -0.659388 1.43143 0
M  V30 2410 C 232 -0.974337 1.26407 0
M  V30 2411 C 232.2 -2.007 0.179341 0
M  V30 2412 O 231.256 -2.4856 -0.444295 0
M  V30 2413 C 232.569 -1.46447 2.62628 0
M  V30 2414 C 234.117 -1.58144 2.7011 0
M  V30 2415 C 234.592 -2.1055 4.06734 0
M  V30 2416 N 236.083 -2.17861 4.08767 0
M  V30 2417 C 236.818 -2.59519 5.1131 0
M  V30 2418 N 236.314 -3.00518 6.24228 0
M  V30 2419 N 238.107 -2.59404 4.98664 0
M  V30 2420 H 230.258 0.0240528 2.12386 0
M  V30 2421 H 232.521 -0.0518065 0.946583 0
M  V30 2422 H 232.227 -0.780123 3.42939 0
M  V30 2423 H 232.101 -2.44058 2.87603 0
M  V30 2424 H 234.488 -2.25682 1.90136 0
M  V30 2425 H 234.569 -0.589828 2.48907 0
M  V30 2426 H 234.213 -1.43616 4.87172 0
M  V30 2427 H 234.143 -3.10531 4.25298 0
M  V30 2428 H 236.634 -1.88975 3.27257 0
M  V30 2429 H 236.947 -3.31036 6.98309 0
M  V30 2430 H 235.292 -2.98337 6.2771 0
M  V30 2431 H 238.483 -2.26747 4.09516 0
M  V30 2432 H 238.656 -2.91548 5.78709 0
M  V30 2433 N 232.062 -1.29571 -0.897171 0
M  V30 2434 C 232.992 -1.17473 -2.01798 0
M  V30 2435 C 233.973 -0.068323 -1.69963 0
M  V30 2436 O 235.158 -0.248239 -1.92607 0
M  V30 2437 C 232.288 -0.853099 -3.36659 0
M  V30 2438 C 231.242 -1.9161 -3.82713 0
M  V30 2439 C 230.568 -1.44773 -5.14728 0
M  V30 2440 C 231.868 -3.32535 -4.02763 0
M  V30 2441 H 233.562 -2.11237 -2.12177 0
M  V30 2442 H 231.108 -1.01699 -1.01948 0
M  V30 2443 H 233.061 -0.755165 -4.14578 0
M  V30 2444 H 231.785 0.120236 -3.26379 0
M  V30 2445 H 230.444 -2.00346 -3.07013 0
M  V30 2446 H 230.092 -0.462995 -5.00865 0
M  V30 2447 H 229.792 -2.15865 -5.46513 0
M  V30 2448 H 231.316 -1.36334 -5.95185 0
M  V30 2449 H 232.73 -3.26626 -4.71156 0
M  V30 2450 H 231.127 -4.01607 -4.45905 0
M  V30 2451 H 232.197 -3.75326 -3.07016 0
M  V30 2452 N 233.54 1.10788 -1.12088 0
M  V30 2453 C 234.49 2.15158 -0.754401 0
M  V30 2454 C 235.474 1.59026 0.244846 0
M  V30 2455 O 236.666 1.76927 0.0509097 0
M  V30 2456 C 233.795 3.42677 -0.206657 0
M  V30 2457 C 232.881 4.05751 -1.23398 0
M  V30 2458 N 233.272 4.43582 -2.43041 0
M  V30 2459 C 231.57 4.32764 -1.07848 0
M  V30 2460 C 232.271 4.93085 -3.08613 0
M  V30 2461 N 231.247 4.89664 -2.36072 0
M  V30 2462 H 235.049 2.42195 -1.6649 0
M  V30 2463 H 232.563 1.27872 -1.00112 0
M  V30 2464 H 234.56 4.16834 0.0740646 0
M  V30 2465 H 233.22 3.17101 0.698342 0
M  V30 2466 H 234.231 4.35395 -2.80449 0
M  V30 2467 H 230.908 4.16863 -0.230483 0
M  V30 2468 H 232.298 5.31933 -4.10483 0
M  V30 2469 N 235.018 0.912232 1.28515 0
M  V30 2470 C 236.246 0.560416 1.99166 0
M  V30 2471 C 236.661 -0.857927 1.68182 0
M  V30 2472 O 236.018 -1.56805 0.933733 0
M  V30 2473 C 236.069 0.758142 3.53461 0
M  V30 2474 O 235.79 2.12067 3.83352 0
M  V30 2475 C 237.291 0.412954 4.41372 0
M  V30 2476 H 234.511 0.213805 0.636026 0
M  V30 2477 H 237.055 1.22502 1.63749 0
M  V30 2478 H 235.21 0.140556 3.87145 0
M  V30 2479 H 235.624 2.15923 4.77993 0
M  V30 2480 H 237.098 0.60208 5.48707 0
M  V30 2481 H 237.575 -0.65073 4.34353 0
M  V30 2482 H 238.181 1.00802 4.13182 0
M  V30 2483 N 236.496 -1.42363 0.676048 0
M  V30 2484 C 237.406 -2.346 -0.00153389 0
M  V30 2485 C 238.422 -1.5516 -0.787485 0
M  V30 2486 O 239.598 -1.87723 -0.729521 0
M  V30 2487 C 236.663 -3.33705 -0.940298 0
M  V30 2488 C 235.724 -4.29042 -0.148739 0
M  V30 2489 C 234.957 -5.23413 -1.04279 0
M  V30 2490 O 235.18 -5.22749 -2.28232 0
M  V30 2491 O 234.114 -5.99795 -0.502925 0
M  V30 2492 H 237.94 -2.94082 0.758268 0
M  V30 2493 H 235.525 -1.42888 0.436289 0
M  V30 2494 H 237.407 -3.94586 -1.47917 0
M  V30 2495 H 236.082 -2.76695 -1.67993 0
M  V30 2496 H 234.989 -3.71571 0.43427 0
M  V30 2497 H 236.322 -4.89097 0.551805 0
M  V30 2498 N 237.974 -0.419461 -1.51915 0
M  V30 2499 C 239.199 0.154572 -2.06823 0
M  V30 2500 C 239.624 1.3722 -1.28656 0
M  V30 2501 O 238.982 1.78461 -0.319583 0
M  V30 2502 C 239.03 0.473172 -3.57482 0
M  V30 2503 O 238.134 1.56255 -3.81652 0
M  V30 2504 H 237.475 0.0096924 -0.663929 0
M  V30 2505 H 240.005 -0.595642 -1.95738 0
M  V30 2506 H 240.015 0.728825 -4.01438 0
M  V30 2507 H 238.69 -0.416873 -4.13805 0
M  V30 2508 H 237.267 1.29825 -3.49571 0
M  V30 2509 N 239.452 1.56882 -0.150215 0
M  V30 2510 C 240.868 1.58263 0.20617 0
M  V30 2511 C 241.068 1.16464 1.64434 0
M  V30 2512 O 240.124 0.866422 2.3717 0
M  V30 2513 C 241.437 3.00649 -0.0555025 0
M  V30 2514 C 242.985 3.12999 0.00795388 0
M  V30 2515 C 243.46 4.5744 -0.226429 0
M  V30 2516 N 244.951 4.62875 -0.173469 0
M  V30 2517 C 245.686 5.72454 -0.329288 0
M  V30 2518 N 245.182 6.90669 -0.543005 0
M  V30 2519 N 246.975 5.61467 -0.266666 0
M  V30 2520 H 239.126 1.82345 -1.08922 0
M  V30 2521 H 241.389 0.844149 -0.431413 0
M  V30 2522 H 241.095 3.3563 -1.05096 0
M  V30 2523 H 240.969 3.71337 0.66246 0
M  V30 2524 H 243.356 2.77857 0.993966 0
M  V30 2525 H 243.437 2.4479 -0.742388 0
M  V30 2526 H 243.081 4.93287 -1.20956 0
M  V30 2527 H 243.011 5.2378 0.544274 0
M  V30 2528 H 245.502 3.77898 -0.0130709 0
M  V30 2529 H 245.815 7.70045 -0.651922 0
M  V30 2530 H 244.16 6.92581 -0.579366 0
M  V30 2531 H 247.351 4.67992 -0.100441 0
M  V30 2532 H 247.524 6.46816 -0.391535 0
M  V30 2533 N 240.93 -0.123565 1.57115 0
M  V30 2534 C 241.863 -1.18202 1.95201 0
M  V30 2535 C 242.841 -1.40349 0.821031 0
M  V30 2536 O 244.025 -1.54578 1.07879 0
M  V30 2537 C 241.152 -2.53671 2.24429 0
M  V30 2538 C 240.198 -2.4798 3.46999 0
M  V30 2539 S 241.031 -1.92389 4.99747 0
M  V30 2540 C 242.187 -3.2954 5.32123 0
M  V30 2541 H 242.42 -0.857212 2.84674 0
M  V30 2542 H 239.953 -0.33014 1.50829 0
M  V30 2543 H 241.911 -3.3162 2.41947 0
M  V30 2544 H 240.572 -2.83332 1.35579 0
M  V30 2545 H 239.765 -3.47758 3.64801 0
M  V30 2546 H 239.367 -1.7815 3.28844 0
M  V30 2547 H 241.659 -4.25736 5.27025 0
M  V30 2548 H 242.602 -3.16569 6.33395 0
M  V30 2549 H 243.01 -3.27758 4.59603 0
M  V30 2550 N 242.408 -1.52605 -0.393616 0
M  V30 2551 C 243.338 -1.80022 -1.48709 0
M  V30 2552 C 244.319 -0.651995 -1.57108 0
M  V30 2553 O 245.504 -0.89913 -1.72132 0
M  V30 2554 C 242.634 -1.96492 -2.86371 0
M  V30 2555 C 241.588 -3.12161 -2.92813 0
M  V30 2556 C 240.914 -3.13877 -4.3288 0
M  V30 2557 C 242.214 -4.51322 -2.6288 0
M  V30 2558 H 243.908 -2.71589 -1.26015 0
M  V30 2559 H 241.454 -1.30684 -0.604778 0
M  V30 2560 H 243.407 -2.14255 -3.62867 0
M  V30 2561 H 242.131 -1.01611 -3.10391 0
M  V30 2562 H 240.79 -2.94173 -2.18764 0
M  V30 2563 H 240.438 -2.16687 -4.53933 0
M  V30 2564 H 240.138 -3.91576 -4.38112 0
M  V30 2565 H 241.662 -3.33789 -5.1129 0
M  V30 2566 H 243.076 -4.69435 -3.29096 0
M  V30 2567 H 241.473 -5.31053 -2.79468 0
M  V30 2568 H 242.543 -4.58353 -1.58242 0
M  V30 2569 N 243.887 0.651787 -1.4349 0
M  V30 2570 C 245.134 1.41167 -1.45183 0
M  V30 2571 C 245.462 1.94349 -0.0766601 0
M  V30 2572 O 244.717 1.72804 0.918555 0
M  V30 2573 C 245.016 2.60914 -2.44251 0
M  V30 2574 C 244.682 2.26142 -3.9009 0
M  V30 2575 C 243.344 2.16371 -4.2981 0
M  V30 2576 C 245.696 1.98334 -4.81989 0
M  V30 2577 C 243.024 1.7695 -5.5938 0
M  V30 2578 C 245.376 1.6041 -6.11924 0
M  V30 2579 C 244.04 1.49166 -6.5062 0
M  V30 2580 H 243.31 0.516566 -0.531263 0
M  V30 2581 H 245.957 0.741099 -1.76579 0
M  V30 2582 H 244.262 3.3311 -2.06265 0
M  V30 2583 H 245.959 3.19127 -2.42815 0
M  V30 2584 H 242.549 2.34658 -3.58655 0
M  V30 2585 H 246.733 2.04803 -4.52072 0
M  V30 2586 H 241.989 1.66831 -5.88198 0
M  V30 2587 H 246.163 1.37925 -6.82605 0
M  V30 2588 H 243.79 1.1839 -7.50925 0
M  V30 2589 N 245.365 1.30045 0.890287 0
M  V30 2590 C 246.328 1.15963 1.977 0
M  V30 2591 C 247.328 0.0923777 1.60534 0
M  V30 2592 O 248.518 0.340071 1.70848 0
M  V30 2593 C 245.65 0.775451 3.31963 0
M  V30 2594 H 246.843 2.12502 2.11619 0
M  V30 2595 H 244.396 1.13366 1.07601 0
M  V30 2596 H 245.131 -0.189671 3.23745 0
M  V30 2597 H 244.916 1.54668 3.60306 0
M  V30 2598 H 246.406 0.700251 4.11687 0
M  V30 2599 N 246.843 -1.10192 1.12674 0
M  V30 2600 C 248.12 -1.78717 0.794965 0
M  V30 2601 C 248.5 -1.98628 -0.714853 0
M  V30 2602 O 247.848 -1.58135 -1.64941 0
M  V30 2603 C 248.058 -3.11546 1.5729 0
M  V30 2604 C 249.406 -3.86382 1.76052 0
M  V30 2605 O 250.43 -3.21274 1.53823 0
M  V30 2606 O 249.289 -5.03246 2.13087 0
M  V30 2607 H 246.383 -0.774702 0.289423 0
M  V30 2608 H 248.929 -1.16819 1.23091 0
M  V30 2609 H 247.701 -2.92489 2.59935 0
M  V30 2610 H 247.324 -3.81164 1.13137 0
M  V30 2611 N 248.321 -0.919034 -1.28029 0
M  V30 2612 C 249.284 -0.416182 -2.2539 0
M  V30 2613 C 250.284 0.460438 -1.54067 0
M  V30 2614 O 251.474 0.262744 -1.72207 0
M  V30 2615 C 248.606 0.402707 -3.38513 0
M  V30 2616 H 249.799 -1.27629 -2.71387 0
M  V30 2617 H 247.352 -0.698919 -1.39803 0
M  V30 2618 H 248.087 1.282 -2.97885 0
M  V30 2619 H 247.872 -0.225698 -3.9145 0
M  V30 2620 H 249.362 0.745191 -4.10897 0
M  V30 2621 N 249.799 1.42003 -0.683588 0
M  V30 2622 C 251.076 1.95112 -0.138075 0
M  V30 2623 C 251.456 1.62359 1.34918 0
M  V30 2624 O 250.804 0.924311 2.08971 0
M  V30 2625 C 251.014 3.46505 -0.416581 0
M  V30 2626 C 252.362 4.23254 -0.337834 0
M  V30 2627 O 253.386 3.54468 -0.35082 0
M  V30 2628 O 252.245 5.45743 -0.287596 0
M  V30 2629 H 249.339 0.826961 -0.00797996 0
M  V30 2630 H 251.885 1.51784 -0.758924 0
M  V30 2631 H 250.657 3.63582 -1.4465 0
M  V30 2632 H 250.28 3.969 0.235839 0
M  V30 2633 N 251.277 0.427512 1.51691 0
M  V30 2634 C 252.502 -0.143601 2.06902 0
M  V30 2635 C 252.927 -1.36536 1.29382 0
M  V30 2636 O 252.285 -1.78289 0.329043 0
M  V30 2637 C 252.333 -0.454207 3.57728 0
M  V30 2638 O 251.437 -1.54228 3.82475 0
M  V30 2639 H 250.778 -0.00617128 0.663971 0
M  V30 2640 H 253.308 0.606014 1.95419 0
M  V30 2641 H 253.318 -0.707525 4.01818 0
M  V30 2642 H 251.993 0.438812 4.13579 0
M  V30 2643 H 250.57 -1.2797 3.50254 0
M  V30 2644 N 252.755 -1.56801 0.158532 0
M  V30 2645 C 253.685 -2.20347 -0.772609 0
M  V30 2646 C 254.666 -1.15518 -1.24859 0
M  V30 2647 O 255.851 -1.43902 -1.30406 0
M  V30 2648 C 252.981 -2.83417 -2.00729 0
M  V30 2649 C 251.935 -3.94174 -1.66765 0
M  V30 2650 C 251.261 -4.44233 -2.97592 0
M  V30 2651 C 252.561 -5.14392 -0.905447 0
M  V30 2652 H 254.255 -2.98413 -0.242959 0
M  V30 2653 H 251.801 -1.43537 -0.115419 0
M  V30 2654 H 253.754 -3.26543 -2.6636 0
M  V30 2655 H 252.478 -2.02701 -2.56086 0
M  V30 2656 H 251.137 -3.51684 -1.03508 0
M  V30 2657 H 250.785 -3.60325 -3.50963 0
M  V30 2658 H 250.485 -5.18945 -2.75626 0
M  V30 2659 H 252.009 -4.90037 -3.64274 0
M  V30 2660 H 253.423 -5.5429 -1.46408 0
M  V30 2661 H 251.82 -5.9494 -0.7853 0
M  V30 2662 H 252.89 -4.84795 0.100668 0
M  V30 2663 N 254.233 0.115231 -1.57178 0
M  V30 2664 C 255.649 0.468877 -1.52557 0
M  V30 2665 C 255.849 1.81649 -0.872125 0
M  V30 2666 O 254.905 2.48347 -0.45606 0
M  V30 2667 C 256.218 0.4499 -2.97315 0
M  V30 2668 C 257.766 0.533185 -3.08425 0
M  V30 2669 C 258.241 0.54456 -4.54751 0
M  V30 2670 N 259.732 0.605892 -4.5922 0
M  V30 2671 C 260.467 0.636203 -5.6986 0
M  V30 2672 N 259.963 0.623931 -6.89985 0
M  V30 2673 N 261.756 0.679496 -5.57978 0
M  V30 2674 H 253.907 -0.767712 -1.9804 0
M  V30 2675 H 256.17 -0.283609 -0.904583 0
M  V30 2676 H 255.876 -0.472721 -3.48509 0
M  V30 2677 H 255.75 1.27632 -3.5495 0
M  V30 2678 H 258.137 1.44623 -2.57232 0
M  V30 2679 H 258.218 -0.320995 -2.53778 0
M  V30 2680 H 257.862 -0.364452 -5.06591 0
M  V30 2681 H 257.792 1.41568 -5.07214 0
M  V30 2682 H 260.283 0.621386 -3.72756 0
M  V30 2683 H 260.596 0.649787 -7.70063 0
M  V30 2684 H 258.941 0.591296 -6.9248 0
M  V30 2685 H 262.132 0.686472 -4.63039 0
M  V30 2686 H 262.305 0.69965 -6.44212 0
M  V30 2687 N 255.711 1.52812 0.385517 0
M  V30 2688 C 256.96 1.67249 1.12741 0
M  V30 2689 C 257.273 0.4205 1.91027 0
M  V30 2690 O 258.479 0.445064 2.67827 0
M  V30 2691 C 256.935 2.95583 2.05326 0
M  V30 2692 C 256.543 4.27974 1.32447 0
M  V30 2693 C 258.287 3.19386 2.7963 0
M  V30 2694 C 256.194 5.47412 2.23818 0
M  V30 2695 H 255.124 0.6231 0.424573 0
M  V30 2696 H 257.775 1.79309 0.389924 0
M  V30 2697 H 256.157 2.77277 2.82725 0
M  V30 2698 H 257.331 4.56844 0.602495 0
M  V30 2699 H 255.646 4.10459 0.700885 0
M  V30 2700 H 258.243 4.05801 3.48181 0
M  V30 2701 H 258.586 2.34604 3.43899 0
M  V30 2702 H 259.119 3.38274 2.09322 0
M  V30 2703 H 255.858 6.34612 1.64157 0
M  V30 2704 H 255.378 5.22849 2.93921 0
M  V30 2705 H 257.057 5.81423 2.83824 0
M  V30 2706 N 257.189 -0.644168 1.43834 0
M  V30 2707 C 258.414 -1.43642 1.49605 0
M  V30 2708 C 258.839 -1.8773 0.117913 0
M  V30 2709 O 258.197 -1.57938 -0.890239 0
M  V30 2710 C 258.245 -2.6416 2.45463 0
M  V30 2711 O 257.349 -3.63538 1.94714 0
M  V30 2712 H 256.69 -0.430329 0.50568 0
M  V30 2713 H 259.22 -0.787448 1.8884 0
M  V30 2714 H 259.23 -3.11864 2.63068 0
M  V30 2715 H 257.905 -2.31414 3.45572 0
M  V30 2716 H 256.482 -3.2273 1.86814 0
M  V30 2717 N 258.668 -1.30515 -0.883378 0
M  V30 2718 C 260.079 -1.17509 -1.45081 0
M  V30 2719 C 260.43 0.223605 -1.94922 0
M  V30 2720 O 259.555 1.12041 -1.85137 0
M  V30 2721 C 260.15 -2.12715 -2.63701 0
M  V30 2722 C 258.709 -2.03682 -3.16529 0
M  V30 2723 C 257.856 -2.02706 -1.89224 0
M  V30 2724 H 260.807 -1.42762 -0.693165 0
M  V30 2725 H 260.828 -1.70891 -3.39965 0
M  V30 2726 H 260.34 -3.14505 -2.27395 0
M  V30 2727 H 258.441 -1.05039 -3.57488 0
M  V30 2728 H 258.554 -2.92146 -3.7972 0
M  V30 2729 H 256.918 -1.4753 -2.07622 0
M  V30 2730 H 257.701 -3.06229 -1.55174 0
M  V30 2731 N 260.146 1.09593 -1.13257 0
M  V30 2732 C 261.562 1.33775 -0.870423 0
M  V30 2733 C 261.762 1.95327 0.494926 0
M  V30 2734 O 260.818 2.19853 1.2418 0
M  V30 2735 C 262.131 2.25106 -1.99369 0
M  V30 2736 C 263.679 2.3862 -2.02558 0
M  V30 2737 C 264.154 3.33285 -3.14142 0
M  V30 2738 N 265.645 3.40857 -3.13641 0
M  V30 2739 C 266.38 4.14101 -3.96621 0
M  V30 2740 N 265.876 4.90157 -4.8961 0
M  V30 2741 N 267.669 4.09808 -3.84726 0
M  V30 2742 H 259.82 0.680136 -2.01216 0
M  V30 2743 H 262.083 0.362133 -0.876107 0
M  V30 2744 H 261.789 1.87103 -2.97801 0
M  V30 2745 H 261.663 3.25481 -1.90635 0
M  V30 2746 H 264.05 2.75887 -1.0474 0
M  V30 2747 H 264.131 1.38028 -2.15364 0
M  V30 2748 H 263.775 2.96741 -4.12198 0
M  V30 2749 H 263.705 4.33776 -2.98574 0
M  V30 2750 H 266.196 2.86624 -2.46282 0
M  V30 2751 H 266.509 5.4347 -5.49418 0
M  V30 2752 H 264.854 4.89251 -4.93617 0
M  V30 2753 H 268.045 3.4949 -3.11408 0
M  V30 2754 H 268.218 4.66629 -4.49623 0
M  V30 2755 N 261.624 0.925811 1.2754 0
M  V30 2756 C 262.534 0.428993 2.30644 0
M  V30 2757 C 263.55 -0.489387 1.66976 0
M  V30 2758 O 264.726 -0.372653 1.97922 0
M  V30 2759 C 261.791 -0.311967 3.45294 0
M  V30 2760 C 260.852 0.641098 4.24486 0
M  V30 2761 C 260.085 -0.0645955 5.33661 0
M  V30 2762 O 260.308 -1.28429 5.55754 0
M  V30 2763 O 259.242 0.606265 5.98839 0
M  V30 2764 H 263.068 1.28504 2.75173 0
M  V30 2765 H 260.653 0.691086 1.32455 0
M  V30 2766 H 262.535 -0.729972 4.15029 0
M  V30 2767 H 261.21 -1.14365 3.02824 0
M  V30 2768 H 260.117 1.10874 3.57292 0
M  V30 2769 H 261.45 1.43995 4.70666 0
M  V30 2770 N 263.102 -1.41638 0.69111 0
M  V30 2771 C 264.065 -2.29178 0.0319786 0
M  V30 2772 C 265.065 -1.44153 -0.712496 0
M  V30 2773 O 266.255 -1.65354 -0.548053 0
M  V30 2774 C 263.387 -3.26952 -0.965161 0
M  V30 2775 H 264.58 -2.88959 0.802681 0
M  V30 2776 H 262.133 -1.4955 0.454356 0
M  V30 2777 H 262.868 -2.72142 -1.76378 0
M  V30 2778 H 262.653 -3.89685 -0.434522 0
M  V30 2779 H 264.143 -3.92561 -1.42428 0
M  V30 2780 N 264.58 -0.43555 -1.51462 0
M  V30 2781 C 265.996 -0.0877501 -1.59359 0
M  V30 2782 C 266.196 1.4027 -1.4466 0
M  V30 2783 O 265.252 2.17243 -1.28693 0
M  V30 2784 C 266.565 -0.606264 -2.94525 0
M  V30 2785 C 268.113 -0.566548 -3.0783 0
M  V30 2786 C 268.588 -1.06201 -4.45517 0
M  V30 2787 N 270.079 -1.01992 -4.51832 0
M  V30 2788 C 270.814 -1.37417 -5.5669 0
M  V30 2789 N 270.31 -1.80119 -6.68976 0
M  V30 2790 N 272.103 -1.29245 -5.47039 0
M  V30 2791 H 264.254 -1.40533 -1.59261 0
M  V30 2792 H 266.517 -0.578992 -0.750648 0
M  V30 2793 H 266.223 -1.64901 -3.10645 0
M  V30 2794 H 266.097 -0.0302097 -3.77188 0
M  V30 2795 H 268.484 0.467208 -2.91378 0
M  V30 2796 H 268.565 -1.17898 -2.2701 0
M  V30 2797 H 268.209 -2.09422 -4.62715 0
M  V30 2798 H 268.139 -0.426127 -5.24873 0
M  V30 2799 H 270.63 -0.706308 -3.71241 0
M  V30 2800 H 270.943 -2.05392 -7.45006 0
M  V30 2801 H 269.288 -1.84044 -6.70189 0
M  V30 2802 H 272.479 -0.957522 -4.58202 0
M  V30 2803 H 272.652 -1.57182 -6.28648 0
M  V30 2804 N 266.058 1.56714 -0.166846 0
M  V30 2805 C 267.283 2.01557 0.488833 0
M  V30 2806 C 267.708 1.0463 1.56314 0
M  V30 2807 O 267.066 0.0251304 1.81283 0
M  V30 2808 C 267.114 3.4503 1.04818 0
M  V30 2809 O 266.218 3.51163 2.16236 0
M  V30 2810 H 265.559 0.653516 0.117526 0
M  V30 2811 H 268.089 2.02818 -0.269421 0
M  V30 2812 H 268.099 3.84243 1.37191 0
M  V30 2813 H 266.774 4.15077 0.261572 0
M  V30 2814 H 265.351 3.23807 1.84942 0
M  V30 2815 N 267.536 -0.106894 1.57237 0
M  V30 2816 C 268.466 -1.13148 2.04254 0
M  V30 2817 C 269.447 -1.42476 0.929224 0
M  V30 2818 O 270.632 -1.52709 1.19973 0
M  V30 2819 C 267.762 -2.4545 2.45706 0
M  V30 2820 C 266.716 -2.30558 3.60592 0
M  V30 2821 C 266.042 -3.67931 3.87983 0
M  V30 2822 C 267.342 -1.75597 4.91897 0
M  V30 2823 H 269.036 -0.740374 2.90101 0
M  V30 2824 H 266.582 -0.354696 1.39563 0
M  V30 2825 H 268.535 -3.17389 2.77205 0
M  V30 2826 H 267.259 -2.86475 1.56843 0
M  V30 2827 H 265.918 -1.61067 3.29322 0
M  V30 2828 H 265.566 -4.06462 2.96306 0
M  V30 2829 H 265.266 -3.58817 4.65322 0
M  V30 2830 H 266.79 -4.41356 4.21945 0
M  V30 2831 H 268.204 -2.37364 5.21854 0
M  V30 2832 H 266.601 -1.77272 5.73319 0
M  V30 2833 H 267.671 -0.714451 4.79608 0
M  V30 2834 N 269.014 -1.53014 -0.377408 0
M  V30 2835 C 270.263 -1.67845 -1.11853 0
M  V30 2836 C 270.576 -0.430625 -1.90801 0
M  V30 2837 O 271.782 -0.459261 -2.67587 0
M  V30 2838 C 270.238 -2.96668 -2.03756 0
M  V30 2839 C 269.846 -4.28671 -1.30175 0
M  V30 2840 C 271.59 -3.20865 -2.77932 0
M  V30 2841 C 269.497 -5.48591 -2.20911 0
M  V30 2842 H 268.427 -0.625343 -0.421263 0
M  V30 2843 H 271.078 -1.79514 -0.380409 0
M  V30 2844 H 269.46 -2.78773 -2.8125 0
M  V30 2845 H 270.634 -4.57157 -0.578259 0
M  V30 2846 H 268.949 -4.10825 -0.679108 0
M  V30 2847 H 271.546 -4.07642 -3.46024 0
M  V30 2848 H 271.889 -2.36424 -3.4265 0
M  V30 2849 H 272.422 -3.39379 -2.07525 0
M  V30 2850 H 269.161 -6.35474 -1.6079 0
M  V30 2851 H 268.681 -5.244 -2.91144 0
M  V30 2852 H 270.36 -5.8292 -2.80736 0
M  V30 2853 N 270.492 0.636531 -1.44174 0
M  V30 2854 C 271.402 1.77754 -1.53103 0
M  V30 2855 C 272.418 1.68928 -0.417034 0
M  V30 2856 O 273.594 1.89801 -0.6736 0
M  V30 2857 C 270.659 3.14115 -1.46741 0
M  V30 2858 C 269.72 3.34612 -2.68948 0
M  V30 2859 C 268.953 4.64467 -2.6288 0
M  V30 2860 O 269.176 5.44919 -1.68581 0
M  V30 2861 O 268.11 4.87049 -3.53648 0
M  V30 2862 H 271.936 1.73174 -2.49489 0
M  V30 2863 H 269.521 0.79709 -1.2636 0
M  V30 2864 H 271.403 3.95412 -1.45696 0
M  V30 2865 H 270.078 3.19249 -0.534975 0
M  V30 2866 H 268.985 2.53014 -2.75562 0
M  V30 2867 H 270.318 3.34336 -3.61221 0
M  V30 2868 N 271.97 1.30982 0.876444 0
M  V30 2869 C 272.902 1.13902 1.98894 0
M  V30 2870 C 273.915 0.0798815 1.62604 0
M  V30 2871 O 275.104 0.326743 1.75484 0
M  V30 2872 C 272.204 0.716699 3.31235 0
M  V30 2873 C 271.377 1.85945 3.95908 0
M  V30 2874 C 270.436 1.42426 5.06558 0
M  V30 2875 O 269.462 2.13287 5.27729 0
M  V30 2876 N 270.664 0.308025 5.79682 0
M  V30 2877 H 273.429 2.09724 2.14094 0
M  V30 2878 H 270.99 1.2323 1.05004 0
M  V30 2879 H 272.982 0.408403 4.02634 0
M  V30 2880 H 271.552 -0.149719 3.12241 0
M  V30 2881 H 270.772 2.33541 3.17573 0
M  V30 2882 H 272.06 2.62503 4.35855 0
M  V30 2883 H 271.458 -0.282241 5.64995 0
M  V30 2884 H 270.015 0.0592282 6.51773 0
M  V30 2885 N 273.449 -1.08991 1.13837 0
M  V30 2886 C 274.412 -2.13925 0.822715 0
M  V30 2887 C 275.412 -1.599 -0.1699 0
M  V30 2888 O 276.602 -1.74104 0.0577251 0
M  V30 2889 C 273.734 -3.40155 0.225318 0
M  V30 2890 H 274.927 -2.43358 1.75262 0
M  V30 2891 H 272.48 -1.24603 0.943594 0
M  V30 2892 H 273.215 -3.16352 -0.713594 0
M  V30 2893 H 273 -3.80661 0.940193 0
M  V30 2894 H 274.49 -4.17594 0.0214784 0
M  V30 2895 N 274.927 -0.932562 -1.27047 0
M  V30 2896 C 275.837 -0.441219 -2.30414 0
M  V30 2897 C 276.853 0.480525 -1.67233 0
M  V30 2898 O 278.029 0.362151 -1.98117 0
M  V30 2899 C 275.094 0.293651 -3.45454 0
M  V30 2900 C 274.155 -0.663601 -4.2414 0
M  V30 2901 C 273.388 0.0362932 -5.33688 0
M  V30 2902 O 273.611 1.2548 -5.56427 0
M  V30 2903 O 272.545 -0.638015 -5.98509 0
M  V30 2904 H 276.371 -1.29962 -2.74488 0
M  V30 2905 H 273.956 -0.6981 -1.32087 0
M  V30 2906 H 275.838 0.707951 -4.15411 0
M  V30 2907 H 274.513 1.12758 -3.03426 0
M  V30 2908 H 273.42 -1.12768 -3.56699 0
M  V30 2909 H 274.753 -1.46489 -4.69896 0
M  V30 2910 N 276.405 1.4127 -0.698611 0
M  V30 2911 C 277.352 2.30773 -0.0352094 0
M  V30 2912 C 278.322 1.47273 0.768111 0
M  V30 2913 O 279.507 1.76053 0.735524 0
M  V30 2914 C 276.647 3.33346 0.893 0
M  V30 2915 C 275.76 4.31924 0.0809695 0
M  V30 2916 C 274.895 5.21566 1.0071 0
M  V30 2917 C 273.934 6.11811 0.188155 0
M  V30 2918 N 273.071 6.93926 1.06825 0
M  V30 2919 H 277.911 2.86943 -0.804207 0
M  V30 2920 H 275.448 1.4132 -0.408294 0
M  V30 2921 H 277.406 3.91368 1.44523 0
M  V30 2922 H 276.036 2.78719 1.62836 0
M  V30 2923 H 275.088 3.75825 -0.588224 0
M  V30 2924 H 276.4 4.95716 -0.553801 0
M  V30 2925 H 275.554 5.84437 1.62845 0
M  V30 2926 H 274.293 4.58008 1.67572 0
M  V30 2927 H 273.298 5.47986 -0.446254 0
M  V30 2928 H 274.523 6.77425 -0.476716 0
M  V30 2929 H 272.469 6.32973 1.72283 0
M  V30 2930 H 272.386 7.54416 0.489123 0
M  V30 2931 H 273.654 7.61262 1.67632 0
M  V30 2932 N 277.883 0.443576 1.51229 0
M  V30 2933 C 279.299 0.0962001 1.5931 0
M  V30 2934 C 279.499 -1.39501 1.45402 0
M  V30 2935 O 278.555 -2.16557 1.29843 0
M  V30 2936 C 279.868 0.621875 2.94199 0
M  V30 2937 C 281.416 0.582865 3.07525 0
M  V30 2938 C 281.891 1.08562 4.44948 0
M  V30 2939 N 283.382 1.04387 4.51284 0
M  V30 2940 C 284.117 1.40368 5.55954 0
M  V30 2941 N 283.613 1.83664 6.68011 0
M  V30 2942 N 285.406 1.32145 5.46346 0
M  V30 2943 H 277.557 1.41376 1.58514 0
M  V30 2944 H 279.82 0.582965 0.747567 0
M  V30 2945 H 279.526 1.66546 3.09767 0
M  V30 2946 H 279.4 0.0502125 3.77167 0
M  V30 2947 H 281.787 -0.451749 2.91622 0
M  V30 2948 H 281.868 1.191 2.26382 0
M  V30 2949 H 281.512 2.11873 4.61598 0
M  V30 2950 H 281.442 0.453956 5.2464 0
M  V30 2951 H 283.933 0.725986 3.70861 0
M  V30 2952 H 284.246 2.0934 7.43906 0
M  V30 2953 H 282.591 1.87596 6.69203 0
M  V30 2954 H 285.782 0.981808 4.57688 0
M  V30 2955 H 285.955 1.60514 6.27805 0
M  V30 2956 N 279.361 -1.56624 0.175154 0
M  V30 2957 C 280.293 -2.15333 -0.785128 0
M  V30 2958 C 281.306 -1.1099 -1.19101 0
M  V30 2959 O 282.495 -1.38162 -1.13019 0
M  V30 2960 C 279.595 -2.68427 -2.06882 0
M  V30 2961 C 278.768 -3.97466 -1.8259 0
M  V30 2962 C 277.827 -4.35585 -2.95215 0
M  V30 2963 O 276.853 -5.03389 -2.65684 0
M  V30 2964 N 278.055 -3.97457 -4.23094 0
M  V30 2965 H 280.82 -2.98359 -0.283187 0
M  V30 2966 H 278.381 -1.61898 -0.00749817 0
M  V30 2967 H 280.373 -2.90924 -2.81328 0
M  V30 2968 H 278.943 -1.89968 -2.48256 0
M  V30 2969 H 278.163 -3.83307 -0.920287 0
M  V30 2970 H 279.451 -4.81736 -1.63733 0
M  V30 2971 H 278.849 -3.42878 -4.49945 0
M  V30 2972 H 277.406 -4.24947 -4.9423 0
M  V30 2973 N 280.839 0.0985539 -1.57292 0
M  V30 2974 C 281.786 1.11981 -2.01814 0
M  V30 2975 C 282.756 1.39999 -0.89384 0
M  V30 2976 O 283.941 1.5152 -1.15958 0
M  V30 2977 C 281.081 2.43577 -2.44467 0
M  V30 2978 C 280.194 2.2232 -3.70402 0
M  V30 2979 C 279.329 3.4729 -4.01949 0
M  V30 2980 C 278.368 3.2128 -5.21005 0
M  V30 2981 N 277.505 4.38507 -5.48321 0
M  V30 2982 H 282.345 0.733149 -2.88841 0
M  V30 2983 H 279.882 0.350482 -1.42864 0
M  V30 2984 H 281.84 3.20373 -2.6724 0
M  V30 2985 H 280.47 2.80097 -1.60455 0
M  V30 2986 H 279.522 1.36343 -3.55126 0
M  V30 2987 H 280.834 1.99089 -4.57345 0
M  V30 2988 H 279.988 4.32495 -4.25479 0
M  V30 2989 H 278.727 3.73572 -3.13521 0
M  V30 2990 H 277.732 2.34468 -4.97298 0
M  V30 2991 H 278.957 2.96348 -6.11028 0
M  V30 2992 H 276.903 4.64871 -4.62851 0
M  V30 2993 H 276.82 4.18455 -6.29628 0
M  V30 2994 H 278.088 5.24787 -5.76385 0
M  V30 2995 N 282.317 1.53212 0.369288 0
M  V30 2996 C 283.594 1.59815 1.12776 0
M  V30 2997 C 283.974 0.403402 2.0721 0
M  V30 2998 O 283.322 -0.606667 2.20299 0
M  V30 2999 C 283.532 2.94664 1.87013 0
M  V30 3000 C 284.88 3.49109 2.41677 0
M  V30 3001 O 285.904 2.96669 1.97144 0
M  V30 3002 O 284.763 4.40775 3.23079 0
M  V30 3003 H 281.857 0.645376 0.517125 0
M  V30 3004 H 284.403 1.65553 0.37285 0
M  V30 3005 H 283.175 3.73061 1.18071 0
M  V30 3006 H 282.798 2.92401 2.69421 0
M  V30 3007 N 283.795 -0.628877 1.44509 0
M  V30 3008 C 284.758 -1.72263 1.51188 0
M  V30 3009 C 285.758 -1.55907 0.39367 0
M  V30 3010 O 286.948 -1.61361 0.656377 0
M  V30 3011 C 284.08 -3.11365 1.38798 0
M  V30 3012 H 285.273 -1.67714 2.4862 0
M  V30 3013 H 282.826 -0.842737 1.31634 0
M  V30 3014 H 283.561 -3.21507 0.424693 0
M  V30 3015 H 283.346 -3.24644 2.19884 0
M  V30 3016 H 284.836 -3.91075 1.46458 0
M  V30 3017 N 285.273 -1.31445 -0.869486 0
M  V30 3018 C 286.205 -1.14955 -1.98287 0
M  V30 3019 C 287.218 -0.0885037 -1.62559 0
M  V30 3020 O 288.407 -0.336044 -1.75308 0
M  V30 3021 C 285.507 -0.734255 -3.3085 0
M  V30 3022 C 284.68 -1.88042 -3.94917 0
M  V30 3023 C 283.739 -1.4511 -5.05796 0
M  V30 3024 O 282.765 -2.16082 -5.2659 0
M  V30 3025 N 283.967 -0.338763 -5.79511 0
M  V30 3026 H 286.732 -2.10856 -2.12979 0
M  V30 3027 H 284.293 -1.23786 -1.04349 0
M  V30 3028 H 286.285 -0.42975 -4.02412 0
M  V30 3029 H 284.855 0.133158 -3.12316 0
M  V30 3030 H 284.075 -2.35222 -3.1633 0
M  V30 3031 H 285.363 -2.6481 -4.34457 0
M  V30 3032 H 284.761 0.252274 -5.65137 0
M  V30 3033 H 283.318 -0.0937925 -6.51733 0
M  V30 3034 N 286.751 1.08385 -1.14413 0
M  V30 3035 C 287.699 2.17406 -0.826888 0
M  V30 3036 C 288.693 1.6827 0.195312 0
M  V30 3037 O 289.899 1.79927 0.0513892 0
M  V30 3038 H 286.274 0.70934 -0.249681 0
M  V30 3039 H 288.245 2.41388 -1.75426 0
M  V30 3040 C 286.994 3.46215 -0.320979 0
M  V30 3041 H 286.317 3.84401 -1.0989 0
M  V30 3042 H 287.757 4.23777 -0.137549 0
M  V30 3043 C 286.216 3.23067 0.955472 0
M  V30 3044 O 286.746 3.4668 2.02918 0
M  V30 3045 N 284.952 2.7661 0.890798 0
M  V30 3046 H 284.499 2.57594 0.0168815 0
M  V30 3047 H 284.457 2.61501 1.74542 0
M  V30 3048 N 288.23 0.939286 1.26551 0
M  V30 3049 C 289.193 0.451987 2.24699 0
M  V30 3050 C 290.193 -0.435869 1.5478 0
M  V30 3051 O 291.383 -0.235314 1.72603 0
M  V30 3052 C 288.515 -0.348801 3.39111 0
M  V30 3053 H 289.708 1.3193 2.69322 0
M  V30 3054 H 287.261 0.721072 1.38673 0
M  V30 3055 H 287.996 -1.23444 2.99887 0
M  V30 3056 H 287.781 0.287945 3.91041 0
M  V30 3057 H 289.271 -0.679726 4.12031 0
M  V30 3058 N 289.708 -1.40897 0.706093 0
M  V30 3059 C 290.985 -1.94868 0.169099 0
M  V30 3060 C 291.365 -1.64485 -1.32318 0
M  V30 3061 O 290.713 -0.95744 -2.07474 0
M  V30 3062 C 290.923 -3.45798 0.471654 0
M  V30 3063 C 292.271 -4.22663 0.405127 0
M  V30 3064 O 293.295 -3.53865 0.407168 0
M  V30 3065 O 292.154 -5.45216 0.374383 0
M  V30 3066 H 289.248 -0.82673 0.0211352 0
M  V30 3067 H 291.794 -1.50558 0.782976 0
M  V30 3068 H 290.566 -3.61235 1.50416 0
M  V30 3069 H 290.189 -3.97225 -0.172666 0
M  V30 3070 N 291.186 -0.45159 -1.50991 0
M  V30 3071 C 292.133 0.352625 -2.2809 0
M  V30 3072 C 293.103 1.0044 -1.32291 0
M  V30 3073 O 294.288 1.02058 -1.6121 0
M  V30 3074 C 291.428 1.43983 -3.13629 0
M  V30 3075 C 290.541 0.804772 -4.24438 0
M  V30 3076 C 289.676 1.86822 -4.97263 0
M  V30 3077 C 288.715 1.21236 -5.99973 0
M  V30 3078 N 287.852 2.2178 -6.66152 0
M  V30 3079 H 292.692 -0.311186 -2.96371 0
M  V30 3080 H 290.229 -0.165308 -1.46168 0
M  V30 3081 H 292.187 2.08161 -3.61559 0
M  V30 3082 H 290.817 2.07307 -2.47434 0
M  V30 3083 H 289.869 0.0509129 -3.80366 0
M  V30 3084 H 291.181 0.286076 -4.97979 0
M  V30 3085 H 290.335 2.58628 -5.48813 0
M  V30 3086 H 289.074 2.42068 -4.23385 0
M  V30 3087 H 288.079 0.479828 -5.47702 0
M  V30 3088 H 289.304 0.667051 -6.75816 0
M  V30 3089 H 287.25 2.76079 -5.95077 0
M  V30 3090 H 287.167 1.74841 -7.35504 0
M  V30 3091 H 288.435 2.93026 -7.22327 0
M  V30 3092 N 292.664 1.56529 -0.183458 0
M  V30 3093 C 293.611 2.18546 0.742055 0
M  V30 3094 C 294.581 1.12912 1.2182 0
M  V30 3095 O 295.766 1.41115 1.28418 0
M  V30 3096 C 292.906 2.83977 1.96089 0
M  V30 3097 C 292.019 4.04105 1.52719 0
M  V30 3098 C 291.154 4.57427 2.70063 0
M  V30 3099 C 290.193 5.69938 2.23243 0
M  V30 3100 N 289.33 6.17717 3.33722 0
M  V30 3101 H 294.17 2.97284 0.206432 0
M  V30 3102 H 291.707 1.46823 0.0901571 0
M  V30 3103 H 293.665 3.20077 2.67594 0
M  V30 3104 H 292.295 2.07822 2.47002 0
M  V30 3105 H 291.347 3.73745 0.708436 0
M  V30 3106 H 292.659 4.85513 1.1436 0
M  V30 3107 H 291.813 4.95772 3.49708 0
M  V30 3108 H 290.552 3.75101 3.11689 0
M  V30 3109 H 289.557 5.31133 1.42048 0
M  V30 3110 H 290.782 6.54073 1.82661 0
M  V30 3111 H 288.728 5.38317 3.74902 0
M  V30 3112 H 288.645 6.94146 2.99495 0
M  V30 3113 H 289.913 6.60713 4.13616 0
M  V30 3114 N 294.142 -0.090211 1.57342 0
M  V30 3115 C 295.105 -1.09335 2.01441 0
M  V30 3116 C 296.105 -1.32666 0.908641 0
M  V30 3117 O 297.295 -1.28697 1.174 0
M  V30 3118 C 294.427 -2.44136 2.3793 0
M  V30 3119 H 295.62 -0.713662 2.91285 0
M  V30 3120 H 293.173 -0.335404 1.52659 0
M  V30 3121 H 293.908 -2.86972 1.51055 0
M  V30 3122 H 293.693 -2.28548 3.18603 0
M  V30 3123 H 295.183 -3.16277 2.72688 0
M  V30 3124 N 295.62 -1.53406 -0.361157 0
M  V30 3125 C 296.583 -1.79479 -1.42548 0
M  V30 3126 C 297.583 -0.665327 -1.4639 0
M  V30 3127 O 298.773 -0.933549 -1.47073 0
M  V30 3128 C 295.905 -1.92087 -2.8163 0
M  V30 3129 H 297.098 -2.74538 -1.20701 0
M  V30 3130 H 294.651 -1.4455 -0.594546 0
M  V30 3131 H 295.386 -0.991099 -3.08784 0
M  V30 3132 H 295.171 -2.74241 -2.80239 0
M  V30 3133 H 296.661 -2.13836 -3.58697 0
M  V30 3134 N 297.098 0.621204 -1.44841 0
M  V30 3135 C 298.375 1.38 -1.38619 0
M  V30 3136 C 298.755 2.11041 -0.0498935 0
M  V30 3137 O 298.103 2.06992 0.967816 0
M  V30 3138 C 298.313 2.33817 -2.59096 0
M  V30 3139 C 299.661 2.96844 -3.03593 0
M  V30 3140 O 300.685 2.44141 -2.59371 0
M  V30 3141 O 299.544 3.92476 -3.80296 0
M  V30 3142 H 296.638 0.61811 -0.549426 0
M  V30 3143 H 299.184 0.645429 -1.56947 0
M  V30 3144 H 297.956 1.79012 -3.47952 0
M  V30 3145 H 297.579 3.14676 -2.43032 0
M  V30 3146 N 298.576 1.31904 0.862503 0
M  V30 3147 C 299.509 1.14514 1.97388 0
M  V30 3148 C 300.487 0.0466493 1.62533 0
M  V30 3149 O 301.671 0.204484 1.87388 0
M  V30 3150 C 298.798 0.751347 3.30261 0
M  V30 3151 C 297.844 1.85395 3.84098 0
M  V30 3152 S 298.677 3.46081 4.08642 0
M  V30 3153 C 299.833 3.08655 5.44502 0
M  V30 3154 H 300.066 2.08597 2.11836 0
M  V30 3155 H 297.599 1.16475 1.01356 0
M  V30 3156 H 299.557 0.530901 4.07052 0
M  V30 3157 H 298.218 -0.170493 3.13637 0
M  V30 3158 H 297.411 1.53122 4.80177 0
M  V30 3159 H 297.013 2.02984 3.14123 0
M  V30 3160 H 299.305 2.58012 6.26447 0
M  V30 3161 H 300.248 4.03726 5.81731 0
M  V30 3162 H 300.656 2.45891 5.08132 0
M  V30 3163 N 300.054 -1.07777 1.14986 0
M  V30 3164 C 300.984 -2.16865 0.865557 0
M  V30 3165 C 301.965 -1.69123 -0.182083 0
M  V30 3166 O 303.15 -1.94164 -0.0373815 0
M  V30 3167 C 300.28 -3.45539 0.349313 0
M  V30 3168 C 299.234 -4.06708 1.33313 0
M  V30 3169 C 298.56 -5.30411 0.675918 0
M  V30 3170 C 299.86 -4.47241 2.69764 0
M  V30 3171 H 301.554 -2.40905 1.77778 0
M  V30 3172 H 299.1 -1.15781 0.856203 0
M  V30 3173 H 301.053 -4.21174 0.137983 0
M  V30 3174 H 299.777 -3.21072 -0.598362 0
M  V30 3175 H 298.436 -3.33112 1.53075 0
M  V30 3176 H 298.084 -5.02232 -0.277767 0
M  V30 3177 H 297.784 -5.72293 1.33244 0
M  V30 3178 H 299.308 -6.08755 0.474262 0
M  V30 3179 H 300.722 -5.14025 2.53873 0
M  V30 3180 H 299.119 -5.00062 3.3175 0
M  V30 3181 H 300.189 -3.58818 3.26156 0
M  V30 3182 N 301.532 -0.945985 -1.26051 0
M  V30 3183 C 302.495 -0.463897 -2.24456 0
M  V30 3184 C 303.495 0.427655 -1.55009 0
M  V30 3185 O 304.685 0.226157 -1.72726 0
M  V30 3186 C 301.817 0.330812 -3.39291 0
M  V30 3187 H 303.01 -1.33357 -2.68619 0
M  V30 3188 H 300.563 -0.728416 -1.38289 0
M  V30 3189 H 301.298 1.21852 -3.00537 0
M  V30 3190 H 301.083 -0.308679 -3.90883 0
M  V30 3191 H 302.573 0.657865 -4.12386 0
M  V30 3192 N 303.011 1.40521 -0.713556 0
M  V30 3193 C 303.921 2.34522 -0.0606667 0
M  V30 3194 C 304.937 1.57193 0.74607 0
M  V30 3195 O 306.113 1.89591 0.679493 0
M  V30 3196 C 303.178 3.36081 0.851491 0
M  V30 3197 C 302.239 4.29286 0.0349339 0
M  V30 3198 C 301.472 5.25994 0.903649 0
M  V30 3199 O 301.695 5.28616 2.14292 0
M  V30 3200 O 300.629 6.00918 0.343723 0
M  V30 3201 H 304.455 2.91968 -0.835972 0
M  V30 3202 H 302.04 1.41681 -0.47402 0
M  V30 3203 H 303.922 3.98369 1.37404 0
M  V30 3204 H 302.597 2.81052 1.60598 0
M  V30 3205 H 301.504 3.70289 -0.532633 0
M  V30 3206 H 302.837 4.87462 -0.681287 0
M  V30 3207 N 304.489 0.459591 1.5075 0
M  V30 3208 C 305.719 -0.0972338 2.06371 0
M  V30 3209 C 306.127 -1.35074 1.32483 0
M  V30 3210 O 305.47 -1.79637 0.384226 0
M  V30 3211 C 305.532 -0.462759 3.56509 0
M  V30 3212 C 305.196 0.687084 4.51805 0
M  V30 3213 C 306.193 1.56578 4.95761 0
M  V30 3214 C 303.878 0.874144 4.94635 0
M  V30 3215 C 305.872 2.61604 5.81242 0
M  V30 3216 C 303.559 1.92765 5.79901 0
M  V30 3217 C 304.557 2.79697 6.23104 0
M  V30 3218 O 304.245 3.83235 7.06673 0
M  V30 3219 H 303.977 -0.00140687 0.675999 0
M  V30 3220 H 306.531 0.644011 1.95043 0
M  V30 3221 H 304.761 -1.25703 3.65699 0
M  V30 3222 H 306.45 -0.953323 3.94546 0
M  V30 3223 H 307.216 1.4329 4.6335 0
M  V30 3224 H 303.095 0.207006 4.60535 0
M  V30 3225 H 306.639 3.29489 6.14884 0
M  V30 3226 H 302.536 2.06064 6.11725 0
M  V30 3227 H 303.304 3.80084 7.24899 0
M  V30 3228 N 305.967 -1.56429 0.191757 0
M  V30 3229 C 306.877 -2.22541 -0.742481 0
M  V30 3230 C 307.893 -1.22342 -1.23727 0
M  V30 3231 O 309.069 -1.55069 -1.28513 0
M  V30 3232 C 306.134 -2.8692 -1.94623 0
M  V30 3233 C 305.195 -4.02378 -1.49633 0
M  V30 3234 C 304.428 -4.63678 -2.6427 0
M  V30 3235 O 304.651 -4.23895 -3.81666 0
M  V30 3236 O 303.585 -5.53202 -2.37174 0
M  V30 3237 H 307.411 -3.02977 -0.209462 0
M  V30 3238 H 304.996 -1.49353 -0.0373832 0
M  V30 3239 H 306.878 -3.27663 -2.64982 0
M  V30 3240 H 305.553 -2.09466 -2.46791 0
M  V30 3241 H 304.46 -3.66265 -0.761636 0
M  V30 3242 H 305.793 -4.81487 -1.02134 0
M  V30 3243 N 307.445 0.0818655 -1.57387 0
M  V30 3244 C 308.861 0.436412 -1.53517 0
M  V30 3245 C 309.061 1.79758 -0.910459 0
M  V30 3246 O 308.117 2.47324 -0.508636 0
M  V30 3247 C 309.43 0.386734 -2.98203 0
M  V30 3248 C 310.978 0.467644 -3.09487 0
M  V30 3249 C 311.453 0.447978 -4.55804 0
M  V30 3250 N 312.944 0.508348 -4.60402 0
M  V30 3251 C 313.679 0.515184 -5.71081 0
M  V30 3252 N 313.175 0.477435 -6.91153 0
M  V30 3253 N 314.968 0.560988 -5.59294 0
M  V30 3254 H 307.119 -0.809546 -1.96367 0
M  V30 3255 H 309.382 -0.302733 -0.898363 0
M  V30 3256 H 309.088 -0.546539 -3.47427 0
M  V30 3257 H 308.962 1.20075 -3.57578 0
M  V30 3258 H 311.349 1.39134 -2.60242 0
M  V30 3259 H 311.43 -0.374753 -2.5304 0
M  V30 3260 H 311.074 -0.471826 -5.05704 0
M  V30 3261 H 311.004 1.30777 -5.10103 0
M  V30 3262 H 313.495 0.54218 -3.7399 0
M  V30 3263 H 313.808 0.486299 -7.71268 0
M  V30 3264 H 312.153 0.444278 -6.93579 0
M  V30 3265 H 315.344 0.5881 -4.64391 0
M  V30 3266 H 315.517 0.562846 -6.45551 0
M  V30 3267 N 308.923 1.53595 0.353017 0
M  V30 3268 C 310.339 1.43648 0.695516 0
M  V30 3269 C 310.539 0.585617 1.92802 0
M  V30 3270 O 309.595 0.0729223 2.52395 0
M  V30 3271 C 310.908 2.8701 0.896991 0
M  V30 3272 C 312.456 2.96723 0.996209 0
M  V30 3273 C 312.931 4.41173 1.23007 0
M  V30 3274 N 314.422 4.44657 1.29749 0
M  V30 3275 C 315.157 5.53547 1.49577 0
M  V30 3276 N 314.653 6.72461 1.66639 0
M  V30 3277 N 316.446 5.41145 1.52048 0
M  V30 3278 H 308.597 2.07415 -0.457481 0
M  V30 3279 H 310.86 0.9372 -0.142687 0
M  V30 3280 H 310.566 3.51644 0.0629938 0
M  V30 3281 H 310.44 3.31401 1.80148 0
M  V30 3282 H 312.827 2.32235 1.82074 0
M  V30 3283 H 312.908 2.55707 0.0688331 0
M  V30 3284 H 312.552 5.06238 0.410505 0
M  V30 3285 H 312.482 4.79772 2.17086 0
M  V30 3286 H 314.973 3.58963 1.18126 0
M  V30 3287 H 315.286 7.51214 1.81378 0
M  V30 3288 H 313.631 6.75423 1.63794 0
M  V30 3289 H 316.822 4.47205 1.38294 0
M  V30 3290 H 316.995 6.26068 1.67159 0
M  V30 3291 N 310.401 -0.613514 1.45168 0
M  V30 3292 C 311.348 -1.72456 1.53387 0
M  V30 3293 C 312.318 -1.6169 0.380191 0
M  V30 3294 O 313.503 -1.81356 0.592836 0
M  V30 3295 C 310.643 -3.10753 1.50088 0
M  V30 3296 C 309.756 -3.32368 2.75963 0
M  V30 3297 C 308.891 -4.60737 2.64376 0
M  V30 3298 C 307.93 -4.7559 3.85332 0
M  V30 3299 N 307.067 -5.95253 3.72315 0
M  V30 3300 H 311.907 -1.64768 2.48305 0
M  V30 3301 H 309.444 -0.803503 1.23216 0
M  V30 3302 H 311.402 -3.90758 1.46164 0
M  V30 3303 H 310.032 -3.17413 0.587243 0
M  V30 3304 H 309.084 -2.4618 2.89999 0
M  V30 3305 H 310.396 -3.39218 3.65695 0
M  V30 3306 H 309.55 -5.48928 2.58385 0
M  V30 3307 H 308.289 -4.56275 1.72233 0
M  V30 3308 H 307.294 -3.85824 3.91688 0
M  V30 3309 H 308.519 -4.81854 4.78533 0
M  V30 3310 H 306.465 -5.91847 2.82937 0
M  V30 3311 H 306.382 -6.03236 4.55677 0
M  V30 3312 H 307.65 -6.85958 3.70246 0
M  V30 3313 N 311.879 -1.3236 -0.855495 0
M  V30 3314 C 313.127 -1.22629 -1.60644 0
M  V30 3315 C 313.448 0.212136 -1.93843 0
M  V30 3316 O 312.718 1.13666 -1.59552 0
M  V30 3317 H 311.298 -0.450882 -0.595579 0
M  V30 3318 H 313.96 -1.65871 -1.02337 0
M  V30 3319 H 313.056 -1.80832 -2.54374 0
M  V30 3320 N 313.357 1.07166 -1.15556 0
M  V30 3321 C 314.606 1.79181 -0.926132 0
M  V30 3322 C 314.919 1.87768 0.547967 0
M  V30 3323 O 316.125 2.56323 0.895036 0
M  V30 3324 C 314.581 3.22 -1.60761 0
M  V30 3325 C 314.189 3.21607 -3.11886 0
M  V30 3326 C 315.933 3.9861 -1.4598 0
M  V30 3327 C 313.84 4.59092 -3.72812 0
M  V30 3328 H 312.77 0.67154 -0.342856 0
M  V30 3329 H 315.421 1.2027 -1.3859 0
M  V30 3330 H 313.803 3.81115 -1.07553 0
M  V30 3331 H 314.977 2.72127 -3.71865 0
M  V30 3332 H 313.292 2.58495 -3.2645 0
M  V30 3333 H 315.889 5.00225 -1.88888 0
M  V30 3334 H 316.232 4.143 -0.407541 0
M  V30 3335 H 316.765 3.45996 -1.96295 0
M  V30 3336 H 313.504 4.48606 -4.77946 0
M  V30 3337 H 313.024 5.08803 -3.17616 0
M  V30 3338 H 314.703 5.28059 -3.73848 0
M  V30 3339 N 314.835 0.952656 1.25548 0
M  V30 3340 C 315.765 0.489287 2.28316 0
M  V30 3341 C 316.746 -0.463359 1.63667 0
M  V30 3342 O 317.931 -0.36274 1.90782 0
M  V30 3343 C 315.061 -0.235603 3.465 0
M  V30 3344 C 314.015 0.631593 4.23314 0
M  V30 3345 C 313.341 -0.223923 5.34231 0
M  V30 3346 C 314.641 1.90871 4.86174 0
M  V30 3347 H 316.335 1.34822 2.67326 0
M  V30 3348 H 313.881 0.649728 1.28509 0
M  V30 3349 H 315.834 -0.570882 4.17515 0
M  V30 3350 H 314.558 -1.12877 3.06474 0
M  V30 3351 H 313.217 0.949929 3.54079 0
M  V30 3352 H 312.865 -1.11678 4.90446 0
M  V30 3353 H 312.565 0.35299 5.86539 0
M  V30 3354 H 314.089 -0.554214 6.0808 0
M  V30 3355 H 315.503 1.63997 5.49343 0
M  V30 3356 H 313.9 2.43112 5.4865 0
M  V30 3357 H 314.97 2.61304 4.08471 0
M  V30 3358 N 316.313 -1.40141 0.720998 0
M  V30 3359 C 317.59 -1.94677 0.189757 0
M  V30 3360 C 317.97 -1.65879 -1.30566 0
M  V30 3361 O 317.318 -0.979391 -2.06447 0
M  V30 3362 C 317.528 -3.45279 0.508304 0
M  V30 3363 C 318.876 -4.22209 0.449934 0
M  V30 3364 O 319.9 -3.53413 0.444677 0
M  V30 3365 O 318.759 -5.44788 0.432189 0
M  V30 3366 H 315.853 -0.826459 0.0299026 0
M  V30 3367 H 318.399 -1.49719 0.7989 0
M  V30 3368 H 317.171 -3.59619 1.54239 0
M  V30 3369 H 316.794 -3.97386 -0.130525 0
M  V30 3370 N 317.792 -0.46758 -1.50504 0
M  V30 3371 C 319.02 0.0864133 -2.06719 0
M  V30 3372 C 319.435 1.33819 -1.33184 0
M  V30 3373 O 318.792 1.78061 -0.400083 0
M  V30 3374 C 318.843 0.378079 -3.59517 0
M  V30 3375 O 318.564 -0.824044 -4.3028 0
M  V30 3376 C 320.065 0.979426 -4.32345 0
M  V30 3377 H 317.285 -0.00551697 -0.670977 0
M  V30 3378 H 319.829 -0.655354 -1.93715 0
M  V30 3379 H 317.984 1.06977 -3.72337 0
M  V30 3380 H 318.398 -0.566518 -5.21432 0
M  V30 3381 H 319.872 1.1333 -5.40241 0
M  V30 3382 H 320.349 1.9686 -3.9261 0
M  V30 3383 H 320.955 0.326216 -4.24047 0
M  V30 3384 N 319.27 1.56325 -0.20005 0
M  V30 3385 C 320.686 1.58839 0.155716 0
M  V30 3386 C 320.886 1.21636 1.60645 0
M  V30 3387 O 319.942 0.941437 2.34293 0
M  V30 3388 C 321.255 3.0032 -0.151124 0
M  V30 3389 C 322.803 3.12866 -0.0916284 0
M  V30 3390 C 323.278 4.56488 -0.371845 0
M  V30 3391 N 324.769 4.62089 -0.320641 0
M  V30 3392 C 325.504 5.71116 -0.511243 0
M  V30 3393 N 325 6.88592 -0.762461 0
M  V30 3394 N 326.793 5.60335 -0.445157 0
M  V30 3395 H 318.944 1.78788 -1.14668 0
M  V30 3396 H 321.207 0.829996 -0.458051 0
M  V30 3397 H 320.913 3.32117 -1.15721 0
M  V30 3398 H 320.787 3.73257 0.543986 0
M  V30 3399 H 323.174 2.80878 0.905065 0
M  V30 3400 H 323.255 2.42304 -0.81989 0
M  V30 3401 H 322.899 4.89189 -1.36588 0
M  V30 3402 H 322.829 5.25246 0.377362 0
M  V30 3403 H 325.32 3.77665 -0.13329 0
M  V30 3404 H 325.633 7.67581 -0.896576 0
M  V30 3405 H 323.978 6.90387 -0.799412 0
M  V30 3406 H 327.169 4.67436 -0.249278 0
M  V30 3407 H 327.342 6.45243 -0.597116 0
M  V30 3408 N 320.748 -0.0735177 1.57428 0
M  V30 3409 C 321.678 -1.0879 2.06608 0
M  V30 3410 C 322.659 -1.40473 0.959237 0
M  V30 3411 O 323.844 -1.5013 1.23185 0
M  V30 3412 C 320.974 -2.40183 2.50857 0
M  V30 3413 C 319.928 -2.22858 3.65402 0
M  V30 3414 C 319.254 -3.59619 3.957 0
M  V30 3415 C 320.554 -1.65123 4.95511 0
M  V30 3416 H 322.248 -0.678673 2.91607 0
M  V30 3417 H 319.794 -0.325013 1.40284 0
M  V30 3418 H 321.747 -3.11437 2.83874 0
M  V30 3419 H 320.471 -2.83083 1.62885 0
M  V30 3420 H 319.13 -1.54045 3.32664 0
M  V30 3421 H 318.778 -4.00086 3.04861 0
M  V30 3422 H 318.478 -3.48866 4.72828 0
M  V30 3423 H 320.002 -4.32306 4.31212 0
M  V30 3424 H 321.416 -2.26241 5.26771 0
M  V30 3425 H 319.813 -1.65071 5.7695 0
M  V30 3426 H 320.883 -0.612559 4.81015 0
M  V30 3427 N 322.226 -1.5378 -0.344866 0
M  V30 3428 C 323.451 -1.75211 -1.10977 0
M  V30 3429 C 323.876 -0.48936 -1.81623 0
M  V30 3430 O 323.234 0.557925 -1.72502 0
M  V30 3431 C 323.282 -2.93147 -2.09993 0
M  V30 3432 O 322.386 -2.63203 -3.17487 0
M  V30 3433 H 321.727 -0.581241 -0.321021 0
M  V30 3434 H 324.257 -2.00738 -0.395661 0
M  V30 3435 H 324.267 -3.19898 -2.53237 0
M  V30 3436 H 322.942 -3.84731 -1.5797 0
M  V30 3437 H 321.519 -2.47336 -2.79069 0
M  V30 3438 N 323.704 0.605807 -1.45491 0
M  V30 3439 C 324.614 1.74466 -1.56839 0
M  V30 3440 C 325.63 1.68006 -0.452772 0
M  V30 3441 O 326.806 1.8833 -0.713708 0
M  V30 3442 C 323.871 3.10931 -1.53371 0
M  V30 3443 C 322.932 3.28832 -2.75986 0
M  V30 3444 C 322.165 4.58787 -2.72673 0
M  V30 3445 O 322.388 5.4122 -1.80102 0
M  V30 3446 O 321.322 4.79438 -3.63899 0
M  V30 3447 H 325.148 1.67843 -2.53106 0
M  V30 3448 H 322.733 0.770108 -1.28022 0
M  V30 3449 H 324.615 3.92233 -1.54051 0
M  V30 3450 H 323.29 3.18042 -0.602572 0
M  V30 3451 H 322.197 2.47112 -2.80867 0
M  V30 3452 H 323.53 3.26599 -3.68231 0
M  V30 3453 N 325.182 1.32811 0.848464 0
M  V30 3454 C 326.112 1.24882 1.97299 0
M  V30 3455 C 327.093 0.131357 1.69592 0
M  V30 3456 O 328.278 0.319553 1.91553 0
M  V30 3457 C 325.408 0.97746 3.33261 0
M  V30 3458 C 324.362 2.05682 3.75338 0
M  V30 3459 C 323.688 1.63777 5.09 0
M  V30 3460 C 324.988 3.47254 3.90144 0
M  V30 3461 H 326.682 2.18966 2.04191 0
M  V30 3462 H 324.228 1.05413 0.981029 0
M  V30 3463 H 326.181 0.908513 4.1149 0
M  V30 3464 H 324.905 0.000980011 3.266 0
M  V30 3465 H 323.564 2.11603 2.99366 0
M  V30 3466 H 323.212 0.648569 4.98801 0
M  V30 3467 H 322.912 2.36 5.38124 0
M  V30 3468 H 324.436 1.5833 5.89715 0
M  V30 3469 H 325.85 3.43888 4.58709 0
M  V30 3470 H 324.247 4.1788 4.30693 0
M  V30 3471 H 325.317 3.86462 2.92874 0
M  V30 3472 N 326.66 -1.06551 1.16123 0
M  V30 3473 C 327.57 -2.17484 0.879662 0
M  V30 3474 C 328.586 -1.73377 -0.147104 0
M  V30 3475 O 329.762 -2.01379 0.0289128 0
M  V30 3476 C 326.827 -3.44591 0.381829 0
M  V30 3477 C 325.888 -4.0322 1.4735 0
M  V30 3478 C 325.121 -5.24261 0.999324 0
M  V30 3479 O 325.344 -5.70198 -0.151957 0
M  V30 3480 O 324.278 -5.74775 1.78653 0
M  V30 3481 H 328.104 -2.44075 1.80724 0
M  V30 3482 H 325.689 -1.16042 0.940992 0
M  V30 3483 H 327.571 -4.21254 0.111053 0
M  V30 3484 H 326.246 -3.19532 -0.51777 0
M  V30 3485 H 325.153 -3.2806 1.79798 0
M  V30 3486 H 326.486 -4.32568 2.34831 0
M  V30 3487 N 328.138 -0.959301 -1.25041 0
M  V30 3488 C 329.085 -0.482057 -2.2571 0
M  V30 3489 C 330.055 0.467939 -1.59372 0
M  V30 3490 O 331.24 0.380159 -1.86974 0
M  V30 3491 C 328.38 0.229623 -3.44335 0
M  V30 3492 C 327.493 -0.758156 -4.25295 0
M  V30 3493 C 326.628 -0.0234403 -5.31195 0
M  V30 3494 C 325.667 -1.00184 -6.03846 0
M  V30 3495 N 324.804 -0.29769 -7.01469 0
M  V30 3496 H 329.644 -1.34538 -2.65901 0
M  V30 3497 H 327.181 -0.674592 -1.3072 0
M  V30 3498 H 329.139 0.658856 -4.11965 0
M  V30 3499 H 327.769 1.05696 -3.05005 0
M  V30 3500 H 326.821 -1.30586 -3.57284 0
M  V30 3501 H 328.133 -1.50458 -4.75567 0
M  V30 3502 H 327.287 0.464201 -6.04922 0
M  V30 3503 H 326.026 0.755741 -4.81809 0
M  V30 3504 H 325.031 -1.50044 -5.2893 0
M  V30 3505 H 326.256 -1.78133 -6.55321 0
M  V30 3506 H 324.202 0.462668 -6.54366 0
M  V30 3507 H 324.119 -0.983128 -7.4958 0
M  V30 3508 H 325.387 0.16826 -7.79318 0
M  V30 3509 N 329.616 1.39756 -0.72842 0
M  V30 3510 C 330.564 2.32485 -0.0731849 0
M  V30 3511 C 331.558 1.52717 0.733063 0
M  V30 3512 O 332.764 1.68428 0.634988 0
M  V30 3513 H 329.139 0.751984 -0.00486469 0
M  V30 3514 H 331.11 2.85382 -0.871761 0
M  V30 3515 C 329.859 3.37773 0.824908 0
M  V30 3516 H 329.182 3.99227 0.213915 0
M  V30 3517 H 330.622 4.05121 1.25111 0
M  V30 3518 C 329.081 2.74287 1.95622 0
M  V30 3519 O 329.611 2.61618 3.04826 0
M  V30 3520 N 327.817 2.32475 1.74367 0
M  V30 3521 H 327.364 2.4298 0.855494 0
M  V30 3522 H 327.322 1.90337 2.50238 0
M  V30 3523 N 331.094 0.475555 1.50254 0
M  V30 3524 C 332.342 -0.077738 2.0195 0
M  V30 3525 C 332.663 -1.39813 1.35931 0
M  V30 3526 O 331.933 -1.89249 0.506123 0
M  V30 3527 H 330.513 -0.031719 0.746326 0
M  V30 3528 H 333.175 0.626995 1.84539 0
M  V30 3529 H 332.271 -0.225995 3.11281 0
M  V30 3530 N 332.573 -1.56217 0.208337 0
M  V30 3531 C 333.821 -1.97558 -0.426076 0
M  V30 3532 C 334.142 -1.09683 -1.61229 0
M  V30 3533 O 333.412 -0.170956 -1.95153 0
M  V30 3534 H 331.992 -0.729575 -0.160405 0
M  V30 3535 H 334.654 -1.92606 0.298155 0
M  V30 3536 H 333.75 -3.02672 -0.761312 0
M  V30 3537 N 334.051 0.0651679 -1.57465 0
M  V30 3538 C 335.014 1.06117 -2.03155 0
M  V30 3539 C 336.014 1.31204 -0.929632 0
M  V30 3540 O 337.204 1.26813 -1.19432 0
M  V30 3541 C 334.336 2.4032 -2.41783 0
M  V30 3542 H 335.529 0.667231 -2.92383 0
M  V30 3543 H 333.082 0.311075 -1.53173 0
M  V30 3544 H 333.817 2.84532 -1.55601 0
M  V30 3545 H 333.602 2.23451 -3.22199 0
M  V30 3546 H 335.092 3.11898 -2.77685 0
M  V30 3547 N 335.529 1.53961 0.336706 0
M  V30 3548 C 336.492 1.81724 1.39675 0
M  V30 3549 C 337.492 0.688532 1.45313 0
M  V30 3550 O 338.682 0.956829 1.45569 0
M  V30 3551 C 335.814 1.96543 2.78538 0
M  V30 3552 H 337.007 2.76424 1.16318 0
M  V30 3553 H 334.56 1.45478 0.571474 0
M  V30 3554 H 335.295 1.0401 3.07168 0
M  V30 3555 H 335.08 2.78665 2.75841 0
M  V30 3556 H 336.57 2.19516 3.5525 0
M  V30 3557 N 337.007 -0.598083 1.45811 0
M  V30 3558 C 337.937 -1.71873 1.58057 0
M  V30 3559 C 338.918 -1.64533 0.431615 0
M  V30 3560 O 340.103 -1.82787 0.65595 0
M  V30 3561 C 337.233 -3.10495 1.55597 0
M  V30 3562 C 336.187 -3.32654 2.69305 0
M  V30 3563 C 335.513 -4.71646 2.51902 0
M  V30 3564 C 336.813 -3.21981 4.11248 0
M  V30 3565 H 338.507 -1.61881 2.51863 0
M  V30 3566 H 336.053 -0.777372 1.21214 0
M  V30 3567 H 338.006 -3.88699 1.6276 0
M  V30 3568 H 336.73 -3.2135 0.583255 0
M  V30 3569 H 335.389 -2.56843 2.61586 0
M  V30 3570 H 335.037 -4.79246 1.52748 0
M  V30 3571 H 334.737 -4.87426 3.2816 0
M  V30 3572 H 336.261 -5.52038 2.60933 0
M  V30 3573 H 337.675 -3.90049 4.20161 0
M  V30 3574 H 336.072 -3.49289 4.87972 0
M  V30 3575 H 337.142 -2.1928 4.32486 0
M  V30 3576 N 338.485 -1.33259 -0.841409 0
M  V30 3577 C 339.448 -1.23221 -1.9326 0
M  V30 3578 C 340.448 -0.151895 -1.60081 0
M  V30 3579 O 341.638 -0.403246 -1.69468 0
M  V30 3580 C 338.77 -0.898123 -3.28856 0
M  V30 3581 H 339.963 -2.2021 -2.03587 0
M  V30 3582 H 337.516 -1.17281 -1.03319 0
M  V30 3583 H 338.251 0.0693841 -3.24226 0
M  V30 3584 H 338.036 -1.67934 -3.54317 0
M  V30 3585 H 339.526 -0.852563 -4.08805 0
M  V30 3586 N 339.963 1.05934 -1.16686 0
M  V30 3587 C 341.209 1.79065 -0.95203 0
M  V30 3588 C 341.542 1.87147 0.518629 0
M  V30 3589 O 340.817 1.36574 1.38484 0
M  V30 3590 C 341.1 3.23359 -1.58464 0
M  V30 3591 C 340.953 3.23336 -3.12689 0
M  V30 3592 C 342.272 4.21004 -1.28232 0
M  V30 3593 H 339.391 0.65005 -0.34728 0
M  V30 3594 H 342.033 1.23868 -1.44072 0
M  V30 3595 H 340.183 3.70493 -1.16908 0
M  V30 3596 H 341.855 2.84336 -3.6325 0
M  V30 3597 H 340.098 2.61886 -3.4583 0
M  V30 3598 H 340.769 4.25144 -3.52075 0
M  V30 3599 H 343.245 3.8233 -1.64203 0
M  V30 3600 H 342.121 5.20225 -1.75092 0
M  V30 3601 H 342.382 4.41639 -0.201791 0
M  V30 3602 N 341.441 0.965919 1.2453 0
M  V30 3603 C 342.371 0.513476 2.27784 0
M  V30 3604 C 343.352 -0.445974 1.6415 0
M  V30 3605 O 344.537 -0.342485 1.91156 0
M  V30 3606 C 341.667 -0.198839 3.4673 0
M  V30 3607 C 340.621 0.676456 4.2262 0
M  V30 3608 C 339.947 -0.167248 5.34438 0
M  V30 3609 C 341.247 1.96017 4.84123 0
M  V30 3610 H 342.941 1.3765 2.65881 0
M  V30 3611 H 340.487 0.663321 1.27813 0
M  V30 3612 H 342.44 -0.526567 4.18097 0
M  V30 3613 H 341.164 -1.0962 3.07654 0
M  V30 3614 H 339.823 0.98743 3.53052 0
M  V30 3615 H 339.471 -1.0647 4.91603 0
M  V30 3616 H 339.171 0.415181 5.86131 0
M  V30 3617 H 340.695 -0.489688 6.08633 0
M  V30 3618 H 342.109 1.69814 5.47573 0
M  V30 3619 H 340.506 2.48918 5.4604 0
M  V30 3620 H 341.576 2.65622 4.05676 0
M  V30 3621 N 342.919 -1.39368 0.735821 0
M  V30 3622 C 344.196 -1.94465 0.210395 0
M  V30 3623 C 344.576 -1.67254 -1.28799 0
M  V30 3624 O 343.924 -1.00123 -2.05396 0
M  V30 3625 C 344.134 -3.4472 0.544897 0
M  V30 3626 C 345.482 -4.21708 0.494689 0
M  V30 3627 O 346.506 -3.52922 0.482136 0
M  V30 3628 O 345.365 -5.44299 0.489947 0
M  V30 3629 H 342.459 -0.826096 0.0386666 0
M  V30 3630 H 345.005 -1.48863 0.814735 0
M  V30 3631 H 343.777 -3.57963 1.58045 0
M  V30 3632 H 343.4 -3.97502 -0.08837 0
M  V30 3633 N 344.397 -0.483516 -1.5 0
M  V30 3634 C 345.36 0.292965 -2.2732 0
M  V30 3635 C 346.36 0.909499 -1.32608 0
M  V30 3636 O 347.55 0.776745 -1.55924 0
M  V30 3637 C 344.682 1.41854 -3.09984 0
M  V30 3638 H 345.875 -0.385289 -2.97415 0
M  V30 3639 H 343.428 -0.237942 -1.54478 0
M  V30 3640 H 344.163 2.13148 -2.44414 0
M  V30 3641 H 343.948 0.982114 -3.79601 0
M  V30 3642 H 345.438 1.96597 -3.68429 0
M  V30 3643 N 345.875 1.56104 -0.216619 0
M  V30 3644 C 346.807 2.17339 0.72776 0
M  V30 3645 C 347.82 1.14109 1.16116 0
M  V30 3646 O 349.009 1.4111 1.09317 0
M  V30 3647 C 346.109 2.73818 1.99693 0
M  V30 3648 C 345.282 4.02168 1.71988 0
M  V30 3649 C 344.341 4.43259 2.83562 0
M  V30 3650 O 343.367 5.10257 2.52244 0
M  V30 3651 N 344.569 4.08535 4.12407 0
M  V30 3652 H 347.334 2.99005 0.203983 0
M  V30 3653 H 344.895 1.61861 -0.0354289 0
M  V30 3654 H 346.887 2.9828 2.73516 0
M  V30 3655 H 345.457 1.96483 2.43132 0
M  V30 3656 H 344.677 3.85612 0.818337 0
M  V30 3657 H 345.965 4.85907 1.50903 0
M  V30 3658 H 345.363 3.54687 4.40696 0
M  V30 3659 H 343.92 4.37901 4.8279 0
M  V30 3660 N 347.353 -0.0568162 1.57498 0
M  V30 3661 C 348.285 -1.09292 2.01464 0
M  V30 3662 C 349.298 -1.34112 0.922913 0
M  V30 3663 O 350.487 -1.32089 1.20062 0
M  V30 3664 C 347.587 -2.44068 2.35125 0
M  V30 3665 C 346.76 -2.38995 3.66333 0
M  V30 3666 C 345.819 -3.55997 3.87495 0
M  V30 3667 O 344.845 -3.36746 4.58901 0
M  V30 3668 N 346.047 -4.76888 3.30996 0
M  V30 3669 H 348.812 -0.718386 2.90963 0
M  V30 3670 H 346.373 -0.245235 1.60032 0
M  V30 3671 H 348.365 -3.21011 2.46443 0
M  V30 3672 H 346.935 -2.73468 1.5144 0
M  V30 3673 H 346.155 -1.47336 3.65631 0
M  V30 3674 H 347.443 -2.3272 4.52458 0
M  V30 3675 H 346.841 -4.95431 2.73065 0
M  V30 3676 H 345.398 -5.51291 3.47738 0
M  V30 3677 N 348.832 -1.54138 -0.328536 0
M  V30 3678 C 349.795 -1.82462 -1.38709 0
M  V30 3679 C 350.795 -0.696229 -1.44946 0
M  V30 3680 O 351.985 -0.964535 -1.4506 0
M  V30 3681 C 349.117 -1.98018 -2.77492 0
M  V30 3682 H 350.31 -2.77037 -1.14851 0
M  V30 3683 H 347.863 -1.45779 -0.563751 0
M  V30 3684 H 348.598 -1.05637 -3.06613 0
M  V30 3685 H 348.383 -2.80124 -2.74359 0
M  V30 3686 H 349.873 -2.21396 -3.54081 0
M  V30 3687 N 350.31 0.590341 -1.46126 0
M  V30 3688 C 351.726 0.912917 -1.30912 0
M  V30 3689 C 351.926 1.99616 -0.274893 0
M  V30 3690 O 350.982 2.50397 0.325197 0
M  V30 3691 C 352.295 1.3375 -2.69317 0
M  V30 3692 C 353.843 1.45077 -2.77348 0
M  V30 3693 C 354.318 1.90904 -4.16317 0
M  V30 3694 N 355.809 1.9811 -4.18696 0
M  V30 3695 C 356.544 2.34828 -5.23109 0
M  V30 3696 N 356.04 2.70393 -6.37856 0
M  V30 3697 N 357.833 2.35317 -5.10473 0
M  V30 3698 H 349.984 -0.125358 -2.1203 0
M  V30 3699 H 352.247 0.00658481 -0.947977 0
M  V30 3700 H 351.953 0.615614 -3.4627 0
M  V30 3701 H 351.827 2.30058 -2.9892 0
M  V30 3702 H 354.214 2.16353 -2.00687 0
M  V30 3703 H 354.295 0.4704 -2.51438 0
M  V30 3704 H 353.939 1.20209 -4.9347 0
M  V30 3705 H 353.869 2.89886 -4.39629 0
M  V30 3706 H 356.36 1.73146 -3.359 0
M  V30 3707 H 356.673 2.97341 -7.13308 0
M  V30 3708 H 355.018 2.68048 -6.41229 0
M  V30 3709 H 358.209 2.0695 -4.19868 0
M  V30 3710 H 358.382 2.63605 -5.9196 0
M  V30 3711 N 351.788 1.33704 0.83433 0
M  V30 3712 C 352.718 1.26967 1.95963 0
M  V30 3713 C 353.699 0.149337 1.69443 0
M  V30 3714 O 354.884 0.339852 1.91203 0
M  V30 3715 C 352.014 1.01275 3.32206 0
M  V30 3716 C 350.968 2.09652 3.73136 0
M  V30 3717 C 350.294 1.69166 5.07235 0
M  V30 3718 C 351.594 3.51372 3.86439 0
M  V30 3719 H 353.288 2.2112 2.01857 0
M  V30 3720 H 350.834 1.06447 0.969793 0
M  V30 3721 H 352.787 0.952106 4.10503 0
M  V30 3722 H 351.511 0.0356203 3.26581 0
M  V30 3723 H 350.17 2.14766 2.97104 0
M  V30 3724 H 349.818 0.701437 4.98085 0
M  V30 3725 H 349.518 2.41694 5.35591 0
M  V30 3726 H 351.042 1.64576 5.88003 0
M  V30 3727 H 352.456 3.48734 4.55036 0
M  V30 3728 H 350.853 4.22425 4.26236 0
M  V30 3729 H 351.923 3.89546 2.88759 0
M  V30 3730 N 353.266 -1.05314 1.17247 0
M  V30 3731 C 354.196 -2.1498 0.911362 0
M  V30 3732 C 355.177 -1.69471 -0.146169 0
M  V30 3733 O 356.362 -1.942 0.003812 0
M  V30 3734 C 353.492 -3.4472 0.422528 0
M  V30 3735 C 352.446 -4.03789 1.4191 0
M  V30 3736 C 351.772 -5.28858 0.788274 0
M  V30 3737 C 353.072 -4.41418 2.7919 0
M  V30 3738 H 354.766 -2.3708 1.82848 0
M  V30 3739 H 352.312 -1.13938 0.880569 0
M  V30 3740 H 354.265 -4.20787 0.227289 0
M  V30 3741 H 352.989 -3.22269 -0.530123 0
M  V30 3742 H 351.648 -3.2979 1.60106 0
M  V30 3743 H 351.296 -5.02709 -0.171173 0
M  V30 3744 H 350.996 -5.69338 1.45353 0
M  V30 3745 H 352.52 -6.07612 0.603282 0
M  V30 3746 H 353.934 -5.08524 2.64719 0
M  V30 3747 H 352.331 -4.92913 3.42282 0
M  V30 3748 H 353.401 -3.51819 3.33693 0
M  V30 3749 N 354.744 -0.972509 -1.24016 0
M  V30 3750 C 355.992 -0.635776 -1.91839 0
M  V30 3751 C 356.313 0.832312 -1.76345 0
M  V30 3752 O 355.583 1.5946 -1.13795 0
M  V30 3753 H 354.163 -0.232157 -0.710009 0
M  V30 3754 H 356.825 -1.23462 -1.50809 0
M  V30 3755 H 355.921 -0.880545 -2.99421 0
M  V30 3756 N 356.222 1.38976 -0.743202 0
M  V30 3757 C 357.154 2.29096 -0.0689228 0
M  V30 3758 C 358.167 1.47229 0.694791 0
M  V30 3759 O 359.356 1.70212 0.537597 0
M  V30 3760 C 356.456 3.25988 0.926548 0
M  V30 3761 C 355.629 4.36833 0.222647 0
M  V30 3762 C 354.688 5.13981 1.12739 0
M  V30 3763 O 353.714 5.6601 0.601795 0
M  V30 3764 N 354.916 5.25966 2.45641 0
M  V30 3765 H 357.681 2.87604 -0.842846 0
M  V30 3766 H 355.242 1.50645 -0.593109 0
M  V30 3767 H 357.234 3.74476 1.5346 0
M  V30 3768 H 355.804 2.68453 1.60162 0
M  V30 3769 H 355.024 3.90116 -0.565983 0
M  V30 3770 H 356.312 5.0811 -0.264841 0
M  V30 3771 H 355.71 4.85228 2.9081 0
M  V30 3772 H 354.267 5.77865 3.01522 0
M  V30 3773 N 357.7 0.491464 1.49741 0
M  V30 3774 C 358.632 -0.328609 2.26832 0
M  V30 3775 C 359.645 -0.939113 1.32983 0
M  V30 3776 O 360.834 -0.824067 1.58339 0
M  V30 3777 C 357.934 -1.47675 3.05033 0
M  V30 3778 C 357.107 -0.975305 4.26388 0
M  V30 3779 C 356.166 -1.99991 4.86714 0
M  V30 3780 O 355.192 -1.57229 5.47054 0
M  V30 3781 N 356.394 -3.32962 4.75517 0
M  V30 3782 H 359.159 0.332377 2.97851 0
M  V30 3783 H 356.72 0.323441 1.58636 0
M  V30 3784 H 358.712 -2.15954 3.42266 0
M  V30 3785 H 357.282 -2.04206 2.36683 0
M  V30 3786 H 356.502 -0.117723 3.94024 0
M  V30 3787 H 357.79 -0.618531 5.05026 0
M  V30 3788 H 357.188 -3.70399 4.27576 0
M  V30 3789 H 355.745 -3.96982 5.16961 0
M  V30 3790 N 359.178 -1.55987 0.224894 0
M  V30 3791 C 360.406 -2.02784 -0.410665 0
M  V30 3792 C 360.821 -1.10464 -1.53112 0
M  V30 3793 O 360.178 -0.114871 -1.82138 0
M  V30 3794 C 360.229 -3.49087 -0.939165 0
M  V30 3795 O 359.95 -4.37887 0.136614 0
M  V30 3796 C 361.451 -4.11543 -1.64763 0
M  V30 3797 H 358.671 -0.663484 -0.100148 0
M  V30 3798 H 361.215 -2.01614 0.342326 0
M  V30 3799 H 359.37 -3.50861 -1.64242 0
M  V30 3800 H 359.784 -5.23849 -0.261155 0
M  V30 3801 H 361.258 -5.15673 -1.96939 0
M  V30 3802 H 361.735 -3.56736 -2.56195 0
M  V30 3803 H 362.341 -4.13629 -0.989503 0
M  V30 3804 N 360.656 0.0484629 -1.57525 0
M  V30 3805 C 362.072 0.40375 -1.54409 0
M  V30 3806 C 362.272 1.77786 -0.948384 0
M  V30 3807 O 361.328 2.46189 -0.560983 0
M  V30 3808 C 362.641 0.323394 -2.98956 0
M  V30 3809 C 364.189 0.401892 -3.10409 0
M  V30 3810 C 364.664 0.351195 -4.56652 0
M  V30 3811 N 366.155 0.410576 -4.61377 0
M  V30 3812 C 366.89 0.393933 -5.72045 0
M  V30 3813 N 366.386 0.330724 -6.9201 0
M  V30 3814 N 368.179 0.442227 -5.60358 0
M  V30 3815 H 360.33 -0.851016 -1.94606 0
M  V30 3816 H 362.593 -0.321721 -0.89174 0
M  V30 3817 H 362.299 -0.62011 -3.4619 0
M  V30 3818 H 362.173 1.12463 -3.60044 0
M  V30 3819 H 364.56 1.33582 -2.63134 0
M  V30 3820 H 364.641 -0.428342 -2.52188 0
M  V30 3821 H 364.285 -0.578987 -5.04589 0
M  V30 3822 H 364.215 1.19928 -5.12762 0
M  V30 3823 H 366.706 0.462729 -3.75056 0
M  V30 3824 H 367.019 0.322592 -7.72126 0
M  V30 3825 H 365.364 0.29706 -6.94365 0
M  V30 3826 H 368.555 0.489464 -4.65534 0
M  V30 3827 H 368.728 0.425788 -6.466 0
M  V30 3828 N 362.134 1.5431 0.320358 0
M  V30 3829 C 363.082 1.84647 1.4145 0
M  V30 3830 C 364.076 0.718624 1.53402 0
M  V30 3831 O 365.282 0.902335 1.5575 0
M  V30 3832 H 361.657 0.585349 0.472091 0
M  V30 3833 H 363.628 2.7614 1.13089 0
M  V30 3834 C 362.377 2.09341 2.77617 0
M  V30 3835 H 361.7 2.9559 2.69196 0
M  V30 3836 H 363.14 2.3452 3.53237 0
M  V30 3837 C 361.599 0.885939 3.25043 0
M  V30 3838 O 362.129 0.0967891 4.01583 0
M  V30 3839 N 360.335 0.696682 2.82125 0
M  V30 3840 H 359.882 1.34006 2.2 0
M  V30 3841 H 359.84 -0.109712 3.14209 0
M  V30 3842 N 363.613 -0.582584 1.46437 0
M  V30 3843 C 364.89 -1.34276 1.4223 0
M  V30 3844 C 365.27 -2.10835 0.10583 0
M  V30 3845 O 364.618 -2.09485 -0.912596 0
M  V30 3846 C 364.828 -2.26865 2.65204 0
M  V30 3847 C 366.176 -2.88691 3.11356 0
M  V30 3848 O 367.2 -2.37178 2.65753 0
M  V30 3849 O 366.059 -3.82255 3.90568 0
M  V30 3850 H 363.153 -0.603326 0.565621 0
M  V30 3851 H 365.699 -0.603591 1.58603 0
M  V30 3852 H 364.471 -1.69724 3.52576 0
M  V30 3853 H 364.094 -3.08122 2.5129 0
M  V30 3854 N 365.091 -1.34144 -0.827227 0
M  V30 3855 C 366.507 -1.13732 -1.11969 0
M  V30 3856 C 366.707 0.0640463 -2.01398 0
M  V30 3857 O 365.763 0.740856 -2.41387 0
M  V30 3858 C 367.076 -2.43047 -1.77055 0
M  V30 3859 C 368.624 -2.49063 -1.89569 0
M  V30 3860 C 369.099 -3.78369 -2.58072 0
M  V30 3861 N 370.59 -3.79505 -2.65575 0
M  V30 3862 C 371.325 -4.76274 -3.19297 0
M  V30 3863 N 370.821 -5.83424 -3.73616 0
M  V30 3864 N 372.614 -4.63735 -3.17658 0
M  V30 3865 H 364.765 -2.11126 -0.232296 0
M  V30 3866 H 367.028 -0.933424 -0.165602 0
M  V30 3867 H 366.734 -3.31025 -1.18807 0
M  V30 3868 H 366.608 -2.56066 -2.76966 0
M  V30 3869 H 368.995 -1.61527 -2.46968 0
M  V30 3870 H 369.076 -2.39975 -0.885745 0
M  V30 3871 H 368.72 -4.66293 -2.01329 0
M  V30 3872 H 368.65 -3.84737 -3.59562 0
M  V30 3873 H 371.141 -3.02074 -2.27068 0
M  V30 3874 H 371.454 -6.53282 -4.12846 0
M  V30 3875 H 369.799 -5.87143 -3.71871 0
M  V30 3876 H 372.99 -3.79177 -2.74486 0
M  V30 3877 H 373.163 -5.39318 -3.59221 0
M  V30 3878 N 366.569 1.04691 -1.17803 0
M  V30 3879 C 367.532 2.10724 -0.901545 0
M  V30 3880 C 368.532 1.6042 0.110437 0
M  V30 3881 O 369.722 1.7377 -0.122303 0
M  V30 3882 C 366.854 3.39084 -0.351409 0
M  V30 3883 H 368.047 2.36686 -1.84174 0
M  V30 3884 H 365.6 1.21015 -0.98919 0
M  V30 3885 H 366.335 3.18782 0.59569 0
M  V30 3886 H 366.12 3.76909 -1.08083 0
M  V30 3887 H 367.61 4.17227 -0.176451 0
M  V30 3888 N 368.047 0.979072 1.23499 0
M  V30 3889 C 369.296 0.642751 1.91185 0
M  V30 3890 C 369.609 -0.827253 1.77245 0
M  V30 3891 O 370.815 -1.27458 2.39722 0
M  V30 3892 C 369.271 1.09901 3.42709 0
M  V30 3893 C 368.879 2.59327 3.65313 0
M  V30 3894 C 370.623 0.836371 4.16179 0
M  V30 3895 C 368.53 2.98627 5.10467 0
M  V30 3896 H 367.46 0.236698 0.715884 0
M  V30 3897 H 370.111 1.1868 1.39955 0
M  V30 3898 H 368.493 0.48319 3.93041 0
M  V30 3899 H 369.667 3.26136 3.25533 0
M  V30 3900 H 367.982 2.83323 3.05151 0
M  V30 3901 H 370.579 1.10586 5.23139 0
M  V30 3902 H 370.922 -0.227509 4.15678 0
M  V30 3903 H 371.455 1.41371 3.71832 0
M  V30 3904 H 368.194 4.04133 5.16098 0
M  V30 3905 H 367.714 2.3651 5.51201 0
M  V30 3906 H 369.393 2.89159 5.78788 0
M  V30 3907 N 369.525 -1.3858 0.750561 0
M  V30 3908 C 370.75 -2.04997 0.314812 0
M  V30 3909 C 371.175 -1.56235 -1.04749 0
M  V30 3910 O 370.533 -0.712981 -1.66692 0
M  V30 3911 C 370.581 -3.58961 0.343415 0
M  V30 3912 O 369.685 -4.07025 -0.663628 0
M  V30 3913 H 369.026 -0.649081 0.139962 0
M  V30 3914 H 371.556 -1.77313 1.02084 0
M  V30 3915 H 371.566 -4.07542 0.193233 0
M  V30 3916 H 370.241 -3.93811 1.33738 0
M  V30 3917 H 368.818 -3.6982 -0.478307 0
M  V30 3918 N 371.003 -0.499398 -1.49478 0
M  V30 3919 C 371.913 0.284489 -2.32869 0
M  V30 3920 C 372.929 0.968885 -1.44529 0
M  V30 3921 O 374.105 0.95062 -1.77553 0
M  V30 3922 C 371.17 1.33594 -3.19928 0
M  V30 3923 C 370.231 0.665149 -4.24116 0
M  V30 3924 C 369.464 1.6665 -5.07014 0
M  V30 3925 O 369.687 2.89618 -4.91404 0
M  V30 3926 O 368.621 1.22271 -5.8935 0
M  V30 3927 H 372.447 -0.39802 -3.01081 0
M  V30 3928 H 370.032 -0.260758 -1.47107 0
M  V30 3929 H 371.914 1.94431 -3.73864 0
M  V30 3930 H 370.589 2.0014 -2.54412 0
M  V30 3931 H 369.496 0.0170769 -3.74096 0
M  V30 3932 H 370.829 0.0421555 -4.92182 0
M  V30 3933 N 372.481 1.55866 -0.233164 0
M  V30 3934 C 373.444 2.1953 0.658715 0
M  V30 3935 C 374.444 1.16053 1.11303 0
M  V30 3936 O 375.634 1.41218 1.01996 0
M  V30 3937 C 372.766 2.82791 1.90373 0
M  V30 3938 H 373.959 2.99721 0.10347 0
M  V30 3939 H 371.512 1.56291 0.0164245 0
M  V30 3940 H 372.247 2.06501 2.50056 0
M  V30 3941 H 372.032 3.58578 1.58632 0
M  V30 3942 H 373.522 3.31556 2.53891 0
M  V30 3943 N 373.959 -0.0401083 1.57549 0
M  V30 3944 C 375.375 -0.395556 1.54621 0
M  V30 3945 C 375.575 -1.77281 0.957799 0
M  V30 3946 O 374.631 -2.45888 0.574031 0
M  V30 3947 C 375.944 -0.307535 2.99123 0
M  V30 3948 C 377.492 -0.385425 3.10618 0
M  V30 3949 C 377.967 -0.326973 4.56831 0
M  V30 3950 N 379.458 -0.386102 4.61588 0
M  V30 3951 C 380.193 -0.363591 5.72246 0
M  V30 3952 N 379.689 -0.29402 6.92176 0
M  V30 3953 N 381.482 -0.412503 5.60584 0
M  V30 3954 H 373.633 0.861325 1.94152 0
M  V30 3955 H 375.896 0.326445 0.890021 0
M  V30 3956 H 375.602 0.638461 3.45856 0
M  V30 3957 H 375.476 -1.10552 3.60636 0
M  V30 3958 H 377.863 -1.32185 2.63839 0
M  V30 3959 H 377.944 0.44171 2.51957 0
M  V30 3960 H 377.588 0.605738 5.04275 0
M  V30 3961 H 377.518 -1.17207 5.13391 0
M  V30 3962 H 380.009 -0.442832 3.75296 0
M  V30 3963 H 380.322 -0.28164 7.72287 0
M  V30 3964 H 378.667 -0.260232 6.94513 0
M  V30 3965 H 381.858 -0.464769 4.65787 0
M  V30 3966 H 382.031 -0.391492 6.46816 0
M  V30 3967 N 375.437 -1.54477 -0.31217 0
M  V30 3968 C 376.385 -1.85395 -1.40469 0
M  V30 3969 C 377.379 -0.726749 -1.53019 0
M  V30 3970 O 378.585 -0.910582 -1.55269 0
M  V30 3971 H 374.96 -0.587845 -0.46898 0
M  V30 3972 H 376.931 -2.76736 -1.11623 0
M  V30 3973 C 375.68 -2.10811 -2.76503 0
M  V30 3974 H 375.003 -2.97014 -2.67625 0
M  V30 3975 H 376.443 -2.3639 -3.51988 0
M  V30 3976 C 374.902 -0.903165 -3.24568 0
M  V30 3977 O 375.432 -0.118085 -4.01526 0
M  V30 3978 N 373.638 -0.711634 -2.81752 0
M  V30 3979 H 373.185 -1.35171 -2.19286 0
M  V30 3980 H 373.143 0.0930473 -3.14262 0
M  V30 3981 N 376.915 0.57481 -1.46744 0
M  V30 3982 C 377.862 1.68329 -1.57905 0
M  V30 3983 C 378.832 1.60625 -0.422927 0
M  V30 3984 O 380.017 1.79721 -0.640711 0
M  V30 3985 C 377.157 3.06665 -1.58274 0
M  V30 3986 C 376.27 3.24935 -2.84678 0
M  V30 3987 C 375.405 4.53566 -2.76499 0
M  V30 3988 C 374.444 4.65207 -3.97806 0
M  V30 3989 N 373.581 5.85172 -3.87967 0
M  V30 3990 H 378.421 1.58127 -2.52587 0
M  V30 3991 H 375.958 0.770552 -1.25303 0
M  V30 3992 H 377.916 3.86745 -1.56473 0
M  V30 3993 H 376.546 3.15745 -0.671194 0
M  V30 3994 H 375.598 2.38405 -2.96424 0
M  V30 3995 H 376.91 3.29403 -3.7456 0
M  V30 3996 H 376.064 5.41885 -2.72848 0
M  V30 3997 H 374.803 4.51548 -1.8427 0
M  V30 3998 H 373.808 3.75304 -4.0178 0
M  V30 3999 H 375.033 4.68997 -4.9114 0
M  V30 4000 H 372.979 5.84137 -2.98529 0
M  V30 4001 H 372.896 5.90943 -4.71511 0
M  V30 4002 H 374.164 6.759 -3.88303 0
M  V30 4003 N 378.394 1.34581 0.820102 0
M  V30 4004 C 379.324 1.29038 1.94606 0
M  V30 4005 C 380.305 0.1673 1.69275 0
M  V30 4006 O 381.49 0.360112 1.90832 0
M  V30 4007 C 378.62 1.04793 3.31113 0
M  V30 4008 C 377.574 2.13597 3.70891 0
M  V30 4009 C 376.9 1.74537 5.05412 0
M  V30 4010 C 378.2 3.55451 3.8269 0
M  V30 4011 H 379.894 2.23248 1.99501 0
M  V30 4012 H 377.44 1.0747 0.958449 0
M  V30 4013 H 379.393 0.995592 4.0947 0
M  V30 4014 H 378.117 0.0702565 3.26524 0
M  V30 4015 H 376.776 2.17905 2.9481 0
M  V30 4016 H 376.424 0.754226 4.97313 0
M  V30 4017 H 376.124 2.47361 5.32997 0
M  V30 4018 H 377.648 1.70803 5.86224 0
M  V30 4019 H 379.062 3.5354 4.51312 0
M  V30 4020 H 377.459 4.26922 4.21732 0
M  V30 4021 H 378.529 3.92587 2.84611 0
M  V30 4022 N 379.872 -1.04064 1.18357 0
M  V30 4023 C 381.097 -1.81454 1.00445 0
M  V30 4024 C 381.522 -1.82823 -0.442423 0
M  V30 4025 O 380.88 -1.24555 -1.31741 0
M  V30 4026 C 380.928 -3.24925 1.56384 0
M  V30 4027 O 380.032 -4.04856 0.785209 0
M  V30 4028 H 379.373 -0.560604 0.355835 0
M  V30 4029 H 381.903 -1.31059 1.57114 0
M  V30 4030 H 381.913 -3.75702 1.59097 0
M  V30 4031 H 380.588 -3.23244 2.61699 0
M  V30 4032 H 379.165 -3.63537 0.830399 0
M  V30 4033 N 381.35 -0.985608 -1.22978 0
M  V30 4034 C 382.575 -0.675254 -1.961 0
M  V30 4035 C 383 0.752154 -1.72407 0
M  V30 4036 O 382.358 1.5131 -0.998751 0
M  V30 4037 C 382.406 -0.977899 -3.47087 0
M  V30 4038 O 381.51 -0.072685 -4.12336 0
M  V30 4039 H 380.851 -0.253443 -0.613728 0
M  V30 4040 H 383.381 -1.32061 -1.56272 0
M  V30 4041 H 383.391 -0.916739 -3.97567 0
M  V30 4042 H 382.066 -2.01807 -3.63657 0
M  V30 4043 H 380.643 -0.188703 -3.72422 0
M  V30 4044 N 382.828 1.3818 -0.7579 0
M  V30 4045 C 384.074 2.00316 -0.316453 0
M  V30 4046 C 384.407 1.60026 1.10025 0
M  V30 4047 O 383.682 0.839835 1.75434 0
M  V30 4048 C 383.965 3.57349 -0.444245 0
M  V30 4049 C 383.818 4.07591 -1.90236 0
M  V30 4050 C 385.137 4.3981 0.1598 0
M  V30 4051 H 382.256 0.727741 -0.116459 0
M  V30 4052 H 384.898 1.6406 -0.958352 0
M  V30 4053 H 383.048 3.88365 0.102233 0
M  V30 4054 H 384.72 3.87199 -2.50748 0
M  V30 4055 H 382.963 3.60297 -2.41595 0
M  V30 4056 H 383.634 5.16677 -1.94291 0
M  V30 4057 H 386.11 4.14971 -0.306314 0
M  V30 4058 H 384.986 5.48885 0.0401675 0
M  V30 4059 H 385.247 4.24102 1.24859 0
M  V30 4060 N 384.306 0.507319 1.49211 0
M  V30 4061 C 385.534 -0.0315749 2.06876 0
M  V30 4062 C 385.949 -1.30241 1.36685 0
M  V30 4063 O 385.306 -1.76937 0.447152 0
M  V30 4064 C 385.357 -0.282627 3.60393 0
M  V30 4065 O 385.078 0.937835 4.27944 0
M  V30 4066 C 386.579 -0.864453 4.3479 0
M  V30 4067 H 383.799 0.0233048 0.670595 0
M  V30 4068 H 386.343 0.706484 1.91909 0
M  V30 4069 H 384.498 -0.97068 3.75042 0
M  V30 4070 H 384.912 0.704567 5.19746 0
M  V30 4071 H 386.386 -0.989664 5.43056 0
M  V30 4072 H 386.863 -1.86382 3.97692 0
M  V30 4073 H 387.469 -0.213672 4.24763 0
M  V30 4074 N 385.784 -1.5574 0.241426 0
M  V30 4075 C 386.694 -2.2479 -0.671305 0
M  V30 4076 C 387.71 -1.26217 -1.19772 0
M  V30 4077 O 388.886 -1.59079 -1.23514 0
M  V30 4078 C 385.951 -2.92966 -1.85396 0
M  V30 4079 C 385.012 -4.06935 -1.36756 0
M  V30 4080 C 384.245 -4.71851 -2.49384 0
M  V30 4081 O 384.468 -4.35823 -3.67987 0
M  V30 4082 O 383.402 -5.60467 -2.19454 0
M  V30 4083 H 387.228 -3.0349 -0.112966 0
M  V30 4084 H 384.813 -1.49397 0.0101513 0
M  V30 4085 H 386.695 -3.35927 -2.54423 0
M  V30 4086 H 385.37 -2.17211 -2.40002 0
M  V30 4087 H 384.277 -3.68503 -0.644726 0
M  V30 4088 H 385.61 -4.84492 -0.867647 0
M  V30 4089 N 387.262 0.0317525 -1.57568 0
M  V30 4090 C 388.487 0.738664 -1.938 0
M  V30 4091 C 388.912 1.68242 -0.841208 0
M  V30 4092 O 388.27 1.80157 0.203267 0
M  V30 4093 C 388.318 1.47417 -3.29091 0
M  V30 4094 O 387.422 2.5872 -3.2115 0
M  V30 4095 H 386.763 0.198856 -0.633524 0
M  V30 4096 H 389.293 -0.0119713 -2.04596 0
M  V30 4097 H 389.303 1.84468 -3.63917 0
M  V30 4098 H 387.978 0.781988 -4.08482 0
M  V30 4099 H 386.555 2.24231 -2.97951 0
M  V30 4100 N 388.74 1.54641 0.303973 0
M  V30 4101 C 389.67 1.88386 1.3796 0
M  V30 4102 C 390.651 0.742485 1.5304 0
M  V30 4103 O 391.836 0.997959 1.66597 0
M  V30 4104 C 388.966 2.12854 2.74427 0
M  V30 4105 C 387.92 3.28702 2.74115 0
M  V30 4106 C 387.246 3.38582 4.13844 0
M  V30 4107 C 388.546 4.65881 2.3612 0
M  V30 4108 H 390.24 2.78474 1.09966 0
M  V30 4109 H 387.786 1.33988 0.527556 0
M  V30 4110 H 389.739 2.35047 3.49758 0
M  V30 4111 H 388.463 1.19535 3.03939 0
M  V30 4112 H 387.122 3.06428 2.0124 0
M  V30 4113 H 386.77 2.42784 4.40528 0
M  V30 4114 H 386.47 4.16453 4.14537 0
M  V30 4115 H 387.994 3.63031 4.90959 0
M  V30 4116 H 389.408 4.87823 3.01167 0
M  V30 4117 H 387.805 5.46444 2.48031 0
M  V30 4118 H 388.875 4.66799 1.3125 0
M  V30 4119 N 390.218 -0.567019 1.47046 0
M  V30 4120 C 391.166 -1.69593 1.59188 0
M  V30 4121 C 392.16 -1.63046 0.459609 0
M  V30 4122 O 393.366 -1.6835 0.637058 0
M  V30 4123 H 389.741 -0.560993 0.500791 0
M  V30 4124 H 391.712 -1.56488 2.54075 0
M  V30 4125 C 390.461 -3.07964 1.61411 0
M  V30 4126 H 389.784 -3.13679 2.47881 0
M  V30 4127 H 391.224 -3.86671 1.73958 0
M  V30 4128 C 389.683 -3.35123 0.34559 0
M  V30 4129 O 390.213 -3.97812 -0.557521 0
M  V30 4130 N 388.419 -2.89699 0.22864 0
M  V30 4131 H 387.966 -2.38863 0.964479 0
M  V30 4132 H 387.924 -3.08242 -0.619192 0
M  V30 4133 N 391.696 -1.35014 -0.812953 0
M  V30 4134 C 392.924 -1.31031 -1.6012 0
M  V30 4135 C 393.339 0.113558 -1.88458 0
M  V30 4136 O 392.696 1.06363 -1.48301 0
M  V30 4137 C 392.747 -2.10872 -2.93624 0
M  V30 4138 O 392.468 -3.47706 -2.66518 0
M  V30 4139 C 393.969 -2.14401 -3.88004 0
M  V30 4140 H 391.189 -0.45037 -0.497401 0
M  V30 4141 H 393.733 -1.77775 -1.01076 0
M  V30 4142 H 391.888 -1.67744 -3.492 0
M  V30 4143 H 392.302 -3.89097 -3.51715 0
M  V30 4144 H 393.776 -2.74669 -4.78812 0
M  V30 4145 H 394.253 -1.14105 -4.24119 0
M  V30 4146 H 394.859 -2.57662 -3.38364 0
M  V30 4147 N 393.175 1.03435 -1.18907 0
M  V30 4148 C 394.138 2.09756 -0.923844 0
M  V30 4149 C 395.138 1.60528 0.093416 0
M  V30 4150 O 396.328 1.73631 -0.140727 0
M  V30 4151 C 393.46 3.38692 -0.387354 0
M  V30 4152 H 394.653 2.34719 -1.86674 0
M  V30 4153 H 392.206 1.19959 -1.00197 0
M  V30 4154 H 392.941 3.19396 0.561845 0
M  V30 4155 H 392.726 3.75742 -1.12074 0
M  V30 4156 H 394.216 4.17016 -0.220694 0
M  V30 4157 N 394.653 0.992116 1.22453 0
M  V30 4158 C 396.069 0.702713 1.43297 0
M  V30 4159 C 396.269 -0.726909 1.87932 0
M  V30 4160 O 395.325 -1.49792 2.0327 0
M  V30 4161 C 396.638 1.70762 2.47509 0
M  V30 4162 C 398.186 1.72298 2.61309 0
M  V30 4163 C 398.661 2.71649 3.68742 0
M  V30 4164 N 400.152 2.70239 3.76199 0
M  V30 4165 C 400.887 3.43778 4.58917 0
M  V30 4166 N 400.383 4.26914 5.45633 0
M  V30 4167 N 402.176 3.32487 4.5322 0
M  V30 4168 H 394.327 1.91543 0.917871 0
M  V30 4169 H 396.59 0.826031 0.465162 0
M  V30 4170 H 396.296 2.73059 2.21657 0
M  V30 4171 H 396.17 1.49985 3.46099 0
M  V30 4172 H 398.557 0.706989 2.86506 0
M  V30 4173 H 398.638 1.97143 1.62997 0
M  V30 4174 H 398.282 3.73397 3.44292 0
M  V30 4175 H 398.212 2.44074 4.66622 0
M  V30 4176 H 400.703 2.09912 3.14237 0
M  V30 4177 H 401.016 4.79855 6.05771 0
M  V30 4178 H 399.361 4.31002 5.45218 0
M  V30 4179 H 402.552 2.6698 3.84499 0
M  V30 4180 H 402.725 3.90058 5.17454 0
M  V30 4181 N 396.131 -1.37776 0.765217 0
M  V30 4182 C 397.079 -2.32209 0.134798 0
M  V30 4183 C 398.073 -1.54607 -0.692315 0
M  V30 4184 O 399.279 -1.70052 -0.590109 0
M  V30 4185 H 395.654 -0.751591 0.0248005 0
M  V30 4186 H 397.625 -2.8297 0.947119 0
M  V30 4187 C 396.374 -3.39841 -0.735063 0
M  V30 4188 H 395.697 -3.99654 -0.107991 0
M  V30 4189 H 397.137 -4.08296 -1.14326 0
M  V30 4190 C 395.596 -2.79378 -1.88281 0
M  V30 4191 O 396.126 -2.69608 -2.97783 0
M  V30 4192 N 394.332 -2.37016 -1.68142 0
M  V30 4193 H 393.879 -2.45162 -0.790772 0
M  V30 4194 H 393.837 -1.96905 -2.45104 0
M  V30 4195 N 397.609 -0.515225 -1.4894 0
M  V30 4196 C 398.572 0.244681 -2.2789 0
M  V30 4197 C 399.572 0.881166 -1.34507 0
M  V30 4198 O 400.762 0.743497 -1.57537 0
M  V30 4199 C 397.894 1.35247 -3.12923 0
M  V30 4200 H 399.087 -0.448289 -2.96531 0
M  V30 4201 H 396.64 -0.270656 -1.53939 0
M  V30 4202 H 397.375 2.07916 -2.48881 0
M  V30 4203 H 397.16 0.901374 -3.81599 0
M  V30 4204 H 398.65 1.88737 -3.72516 0
M  V30 4205 N 399.087 1.5561 -0.249682 0
M  V30 4206 C 400.017 2.24477 0.642826 0
M  V30 4207 C 400.998 1.22601 1.17911 0
M  V30 4208 O 402.183 1.5126 1.21795 0
M  V30 4209 C 399.313 2.94638 1.83863 0
M  V30 4210 C 398.267 4.03227 1.435 0
M  V30 4211 C 397.593 4.60828 2.71186 0
M  V30 4212 C 398.893 5.18796 0.604002 0
M  V30 4213 H 400.587 2.99321 0.0685625 0
M  V30 4214 H 398.133 1.43965 0.0315363 0
M  V30 4215 H 400.086 3.41517 2.46868 0
M  V30 4216 H 398.81 2.17287 2.43832 0
M  V30 4217 H 397.469 3.57121 0.828275 0
M  V30 4218 H 397.117 3.80174 3.29358 0
M  V30 4219 H 396.817 5.34132 2.44901 0
M  V30 4220 H 398.341 5.10442 3.35084 0
M  V30 4221 H 399.755 5.61883 1.13842 0
M  V30 4222 H 398.152 5.98506 0.437097 0
M  V30 4223 H 399.222 4.83384 -0.383147 0
M  V30 4224 N 400.565 -0.0233959 1.57583 0
M  V30 4225 C 401.793 -0.724682 1.93794 0
M  V30 4226 C 402.208 -1.68588 0.849912 0
M  V30 4227 O 401.565 -1.81676 -0.173204 0
M  V30 4228 C 401.616 -1.47684 3.29957 0
M  V30 4229 O 401.337 -0.554222 4.3458 0
M  V30 4230 C 402.838 -2.27477 3.80485 0
M  V30 4231 H 400.058 -0.203317 0.639455 0
M  V30 4232 H 402.602 0.0207653 2.04489 0
M  V30 4233 H 400.757 -2.17412 3.20641 0
M  V30 4234 H 401.171 -1.08232 5.13212 0
M  V30 4235 H 402.645 -2.7564 4.78254 0
M  V30 4236 H 403.122 -3.09144 3.11972 0
M  V30 4237 H 403.728 -1.62813 3.92902 0
M  V30 4238 N 402.043 -1.548 -0.295768 0
M  V30 4239 C 403.459 -1.4613 -0.641722 0
M  V30 4240 C 403.659 -0.656771 -1.90496 0
M  V30 4241 O 402.715 -0.166547 -2.5195 0
M  V30 4242 C 404.028 -2.90141 -0.789852 0
M  V30 4243 C 405.576 -3.00216 -0.885396 0
M  V30 4244 C 406.051 -4.45434 -1.06548 0
M  V30 4245 N 407.542 -4.49166 -1.13156 0
M  V30 4246 C 408.277 -5.58717 -1.28929 0
M  V30 4247 N 407.773 -6.78182 -1.41567 0
M  V30 4248 N 409.566 -5.46415 -1.31859 0
M  V30 4249 H 401.717 -2.05574 0.534147 0
M  V30 4250 H 403.98 -0.931259 0.177372 0
M  V30 4251 H 403.686 -3.51635 0.0675598 0
M  V30 4252 H 403.56 -3.37859 -1.67724 0
M  V30 4253 H 405.947 -2.38833 -1.73329 0
M  V30 4254 H 406.028 -2.55787 0.0261185 0
M  V30 4255 H 405.672 -5.07413 -0.222335 0
M  V30 4256 H 405.602 -4.87499 -1.9913 0
M  V30 4257 H 408.093 -3.631 -1.04721 0
M  V30 4258 H 408.406 -7.57428 -1.53372 0
M  V30 4259 H 406.751 -6.81037 -1.38613 0
M  V30 4260 H 409.942 -4.5203 -1.21601 0
M  V30 4261 H 410.115 -6.31841 -1.43808 0
M  V30 4262 N 403.521 0.559213 -1.47345 0
M  V30 4263 C 404.484 1.64854 -1.59235 0
M  V30 4264 C 405.484 1.53851 -0.467607 0
M  V30 4265 O 406.674 1.58045 -0.732617 0
M  V30 4266 C 403.806 3.04388 -1.53496 0
M  V30 4267 H 404.999 1.55662 -2.56339 0
M  V30 4268 H 402.552 0.778973 -1.35505 0
M  V30 4269 H 403.287 3.19115 -0.577604 0
M  V30 4270 H 403.072 3.13783 -2.35123 0
M  V30 4271 H 404.562 3.83642 -1.6495 0
M  V30 4272 N 404.999 1.35443 0.805782 0
M  V30 4273 C 405.909 1.30546 1.94923 0
M  V30 4274 C 406.925 0.210233 1.72725 0
M  V30 4275 O 408.101 0.43975 1.9654 0
M  V30 4276 C 405.166 1.07782 3.29521 0
M  V30 4277 C 404.227 2.26625 3.64609 0
M  V30 4278 C 403.46 2.04938 4.92784 0
M  V30 4279 O 403.683 1.01624 5.61274 0
M  V30 4280 O 402.617 2.9232 5.26149 0
M  V30 4281 H 406.443 2.26779 2.02002 0
M  V30 4282 H 404.028 1.15823 0.943682 0
M  V30 4283 H 405.91 0.969392 4.10098 0
M  V30 4284 H 404.585 0.146003 3.23371 0
M  V30 4285 H 403.492 2.43033 2.84404 0
M  V30 4286 H 404.825 3.18257 3.75464 0
M  V30 4287 N 406.477 -1.02803 1.19454 0
M  V30 4288 C 407.409 -2.11181 0.890807 0
M  V30 4289 C 408.422 -1.6238 -0.116829 0
M  V30 4290 O 409.611 -1.78144 0.112694 0
M  V30 4291 C 406.711 -3.37461 0.311942 0
M  V30 4292 C 405.884 -4.15446 1.36834 0
M  V30 4293 C 404.943 -5.20039 0.802864 0
M  V30 4294 O 403.969 -5.49602 1.48077 0
M  V30 4295 N 405.171 -5.79165 -0.393417 0
M  V30 4296 H 407.936 -2.37827 1.82369 0
M  V30 4297 H 405.497 -1.19101 1.09666 0
M  V30 4298 H 407.489 -4.0462 -0.0802225 0
M  V30 4299 H 406.059 -3.08156 -0.52524 0
M  V30 4300 H 405.279 -3.43423 1.93531 0
M  V30 4301 H 406.567 -4.64335 2.08015 0
M  V30 4302 H 405.965 -5.57466 -0.961658 0
M  V30 4303 H 404.522 -6.47729 -0.727351 0
M  V30 4304 N 407.956 -0.998596 -1.21925 0
M  V30 4305 C 408.888 -0.511879 -2.23411 0
M  V30 4306 C 409.901 0.396094 -1.57908 0
M  V30 4307 O 411.09 0.197316 -1.77406 0
M  V30 4308 C 408.19 0.276802 -3.37768 0
M  V30 4309 C 407.363 -0.628687 -4.32858 0
M  V30 4310 C 406.422 0.109272 -5.26087 0
M  V30 4311 O 405.448 -0.507237 -5.66935 0
M  V30 4312 N 406.65 1.38983 -5.63617 0
M  V30 4313 H 409.415 -1.38457 -2.658 0
M  V30 4314 H 406.976 -0.873981 -1.36283 0
M  V30 4315 H 408.968 0.77928 -3.97126 0
M  V30 4316 H 407.538 1.05063 -2.94415 0
M  V30 4317 H 406.758 -1.31175 -3.71735 0
M  V30 4318 H 408.046 -1.24514 -4.93329 0
M  V30 4319 H 407.444 1.91194 -5.32411 0
M  V30 4320 H 406.001 1.83739 -6.25367 0
M  V30 4321 N 409.434 1.37368 -0.772513 0
M  V30 4322 C 410.364 2.32856 -0.173304 0
M  V30 4323 C 411.345 1.55818 0.682262 0
M  V30 4324 O 412.53 1.84052 0.619566 0
M  V30 4325 C 409.66 3.40048 0.706007 0
M  V30 4326 C 408.614 4.27973 -0.0483144 0
M  V30 4327 C 407.94 5.26184 0.950491 0
M  V30 4328 C 409.24 5.07665 -1.22776 0
M  V30 4329 H 410.934 2.83217 -0.971002 0
M  V30 4330 H 408.48 1.3617 -0.468377 0
M  V30 4331 H 410.433 4.05827 1.13501 0
M  V30 4332 H 409.157 2.88214 1.53623 0
M  V30 4333 H 407.816 3.63726 -0.458107 0
M  V30 4334 H 407.464 4.7063 1.77529 0
M  V30 4335 H 407.164 5.85872 0.450314 0
M  V30 4336 H 408.688 5.94838 1.37842 0
M  V30 4337 H 410.102 5.66578 -0.875366 0
M  V30 4338 H 408.499 5.76681 -1.66007 0
M  V30 4339 H 409.569 4.40294 -2.03149 0
M  V30 4340 N 410.912 0.523116 1.48665 0
M  V30 4341 C 412.14 -0.0096312 2.06898 0
M  V30 4342 C 412.555 -1.28784 1.38059 0
M  V30 4343 O 411.912 -1.76453 0.465893 0
M  V30 4344 C 411.963 -0.244386 3.60673 0
M  V30 4345 O 411.684 0.983172 4.26925 0
M  V30 4346 C 413.185 -0.818289 4.35682 0
M  V30 4347 H 410.405 0.0304161 0.67031 0
M  V30 4348 H 412.949 0.726799 1.91149 0
M  V30 4349 H 411.104 -0.930847 3.76051 0
M  V30 4350 H 411.518 0.759653 5.1897 0
M  V30 4351 H 412.992 -0.93201 5.44075 0
M  V30 4352 H 413.469 -1.82153 3.99646 0
M  V30 4353 H 414.075 -0.168609 4.24966 0
M  V30 4354 N 412.39 -1.55475 0.257931 0
M  V30 4355 C 413.322 -2.19192 -0.669881 0
M  V30 4356 C 414.335 -1.17148 -1.1305 0
M  V30 4357 O 415.524 -1.43959 -1.05537 0
M  V30 4358 C 412.624 -2.79016 -1.92363 0
M  V30 4359 C 411.797 -4.06586 -1.61265 0
M  V30 4360 C 410.856 -4.50622 -2.7171 0
M  V30 4361 O 409.882 -5.16765 -2.38627 0
M  V30 4362 N 411.084 -4.19325 -4.01431 0
M  V30 4363 H 413.849 -2.99441 -0.124635 0
M  V30 4364 H 411.41 -1.6171 0.0783311 0
M  V30 4365 H 413.402 -3.05427 -2.65511 0
M  V30 4366 H 411.972 -2.0286 -2.37837 0
M  V30 4367 H 411.192 -3.87646 -0.715811 0
M  V30 4368 H 412.48 -4.89737 -1.37967 0
M  V30 4369 H 411.878 -3.66247 -4.31138 0
M  V30 4370 H 410.435 -4.50547 -4.7101 0
M  V30 4371 N 413.868 0.0150385 -1.57593 0
M  V30 4372 C 414.8 1.03912 -2.04291 0
M  V30 4373 C 415.813 1.31618 -0.958146 0
M  V30 4374 O 417.002 1.28859 -1.23522 0
M  V30 4375 C 414.102 2.37749 -2.41514 0
M  V30 4376 C 413.275 2.29198 -3.72541 0
M  V30 4377 C 412.334 3.45598 -3.96797 0
M  V30 4378 O 411.36 3.24461 -4.67668 0
M  V30 4379 N 412.562 4.67945 -3.43523 0
M  V30 4380 H 415.327 0.64099 -2.92765 0
M  V30 4381 H 412.888 0.20272 -1.60626 0
M  V30 4382 H 414.88 3.14364 -2.54867 0
M  V30 4383 H 413.45 2.69357 -1.58637 0
M  V30 4384 H 412.67 1.3759 -3.69408 0
M  V30 4385 H 413.958 2.20642 -4.5847 0
M  V30 4386 H 413.356 4.88017 -2.86104 0
M  V30 4387 H 411.913 5.41878 -3.62232 0
M  V30 4388 N 415.346 1.54954 0.287554 0
M  V30 4389 C 416.293 1.86834 1.35505 0
M  V30 4390 C 417.263 0.718452 1.49758 0
M  V30 4391 O 418.448 0.968358 1.644 0
M  V30 4392 C 415.588 2.13303 2.71286 0
M  V30 4393 C 414.701 3.40883 2.65373 0
M  V30 4394 C 413.836 3.57125 3.93236 0
M  V30 4395 C 412.875 4.78449 3.81776 0
M  V30 4396 N 412.012 4.91426 5.01443 0
M  V30 4397 H 416.852 2.77889 1.07619 0
M  V30 4398 H 414.389 1.37593 0.520241 0
M  V30 4399 H 416.347 2.26646 3.50267 0
M  V30 4400 H 414.977 1.25499 2.97405 0
M  V30 4401 H 414.029 3.36088 1.78182 0
M  V30 4402 H 415.341 4.29993 2.52799 0
M  V30 4403 H 414.495 3.70207 4.80658 0
M  V30 4404 H 413.234 2.66173 4.0866 0
M  V30 4405 H 412.239 4.65386 2.92738 0
M  V30 4406 H 413.464 5.70822 3.67884 0
M  V30 4407 H 411.41 4.03401 5.17304 0
M  V30 4408 H 411.327 5.74559 4.91343 0
M  V30 4409 H 412.595 5.08879 5.90477 0
M  V30 4410 N 416.824 -0.551391 1.4764 0
M  V30 4411 C 417.772 -1.67896 1.60978 0
M  V30 4412 C 418.766 -1.62549 0.476877 0
M  V30 4413 O 419.972 -1.67664 0.654878 0
M  V30 4414 H 416.347 -0.555649 0.506713 0
M  V30 4415 H 418.318 -1.53784 2.55721 0
M  V30 4416 C 417.067 -3.06234 1.64669 0
M  V30 4417 H 416.39 -3.11033 2.51194 0
M  V30 4418 H 417.83 -3.84804 1.7805 0
M  V30 4419 C 416.289 -3.34737 0.381115 0
M  V30 4420 O 416.819 -3.98381 -0.515297 0
M  V30 4421 N 415.025 -2.8944 0.259354 0
M  V30 4422 H 414.572 -2.37827 0.98976 0
M  V30 4423 H 414.53 -3.08882 -0.586464 0
M  V30 4424 N 418.302 -1.35869 -0.798587 0
M  V30 4425 C 419.53 -1.32722 -1.58722 0
M  V30 4426 C 419.945 0.0935631 -1.88568 0
M  V30 4427 O 419.302 1.04784 -1.49421 0
M  V30 4428 C 419.353 -2.13974 -2.91371 0
M  V30 4429 O 419.074 -3.50514 -2.62815 0
M  V30 4430 C 420.575 -2.18504 -3.85708 0
M  V30 4431 H 417.795 -0.45562 -0.492596 0
M  V30 4432 H 420.339 -1.78837 -0.991843 0
M  V30 4433 H 418.494 -1.71438 -3.47402 0
M  V30 4434 H 418.908 -3.92806 -3.47568 0
M  V30 4435 H 420.382 -2.79732 -4.75872 0
M  V30 4436 H 420.859 -1.18597 -4.22885 0
M  V30 4437 H 421.465 -2.61236 -3.35612 0
M  V30 4438 N 419.78 1.02168 -1.19998 0
M  V30 4439 C 421.191 1.57135 -1.00825 0
M  V30 4440 C 421.542 1.91276 0.436818 0
M  V30 4441 O 420.667 1.71679 1.3174 0
M  V30 4442 C 421.262 2.85514 -1.82393 0
M  V30 4443 C 419.821 3.37027 -1.67601 0
M  V30 4444 C 418.968 2.10388 -1.80644 0
M  V30 4445 H 421.919 0.846106 -1.34264 0
M  V30 4446 H 421.94 3.56711 -1.32429 0
M  V30 4447 H 421.452 2.60634 -2.87561 0
M  V30 4448 H 419.553 3.66878 -0.650485 0
M  V30 4449 H 419.666 4.09572 -2.4857 0
M  V30 4450 H 418.03 2.22601 -1.23778 0
M  V30 4451 H 418.813 1.8794 -2.87286 0
M  V30 4452 N 421.258 1.00505 1.21394 0
M  V30 4453 C 422.535 0.603277 1.86064 0
M  V30 4454 C 422.915 -0.919095 1.90042 0
M  V30 4455 O 422.263 -1.80607 1.39977 0
M  V30 4456 C 422.473 1.23772 3.26315 0
M  V30 4457 C 423.821 1.34586 4.02705 0
M  V30 4458 O 424.845 1.19304 3.35626 0
M  V30 4459 O 423.704 1.59169 5.22807 0
M  V30 4460 H 420.798 0.206634 0.800769 0
M  V30 4461 H 423.344 1.1017 1.29076 0
M  V30 4462 H 422.116 2.27848 3.18121 0
M  V30 4463 H 421.739 0.725648 3.90922 0
M  V30 4464 N 422.737 -1.36956 0.779787 0
M  V30 4465 C 423.985 -1.99097 0.347079 0
M  V30 4466 C 424.306 -1.62206 -1.08232 0
M  V30 4467 O 423.576 -0.891373 -1.74446 0
M  V30 4468 H 422.156 -0.736409 0.125342 0
M  V30 4469 H 424.818 -1.67308 0.999696 0
M  V30 4470 H 423.914 -3.09107 0.431162 0
M  V30 4471 N 424.215 -0.530993 -1.48385 0
M  V30 4472 C 425.162 0.231223 -2.29639 0
M  V30 4473 C 426.132 0.932864 -1.37429 0
M  V30 4474 O 427.317 0.933692 -1.66394 0
M  V30 4475 C 424.457 1.27155 -3.2082 0
M  V30 4476 C 423.57 0.578655 -4.28107 0
M  V30 4477 C 422.705 1.602 -5.06467 0
M  V30 4478 C 421.744 0.892625 -6.05556 0
M  V30 4479 N 420.881 1.86157 -6.76971 0
M  V30 4480 H 425.721 -0.467848 -2.94305 0
M  V30 4481 H 423.258 -0.242556 -1.45086 0
M  V30 4482 H 425.216 1.88703 -3.72085 0
M  V30 4483 H 423.846 1.939 -2.58075 0
M  V30 4484 H 422.898 -0.150782 -3.80101 0
M  V30 4485 H 424.21 0.0217065 -4.98795 0
M  V30 4486 H 423.364 2.29173 -5.61751 0
M  V30 4487 H 422.103 2.19285 -4.35621 0
M  V30 4488 H 421.108 0.188829 -5.49476 0
M  V30 4489 H 422.333 0.307878 -6.78402 0
M  V30 4490 H 420.279 2.44147 -6.08875 0
M  V30 4491 H 420.196 1.35608 -7.43738 0
M  V30 4492 H 421.464 2.54325 -7.36844 0
M  V30 4493 N 425.693 1.55336 -0.266172 0
M  V30 4494 C 426.921 2.03801 0.356756 0
M  V30 4495 C 427.336 1.14485 1.50129 0
M  V30 4496 O 426.693 0.163121 1.8177 0
M  V30 4497 C 426.744 3.51455 0.846281 0
M  V30 4498 O 426.465 4.37371 -0.252663 0
M  V30 4499 C 427.966 4.15767 1.53794 0
M  V30 4500 H 425.186 0.665906 0.0825218 0
M  V30 4501 H 427.73 2.00636 -0.39566 0
M  V30 4502 H 425.885 3.55092 1.54881 0
M  V30 4503 H 426.299 5.24358 0.122173 0
M  V30 4504 H 427.773 5.20714 1.83198 0
M  V30 4505 H 428.25 3.63404 2.46646 0
M  V30 4506 H 428.856 4.16107 0.879488 0
M  V30 4507 N 427.171 -0.0066808 1.57599 0
M  V30 4508 C 428.42 -0.692078 1.89455 0
M  V30 4509 C 428.733 -1.75306 0.867586 0
M  V30 4510 O 429.939 -2.49262 1.07614 0
M  V30 4511 C 428.395 -1.2821 3.36289 0
M  V30 4512 C 428.003 -0.256291 4.47266 0
M  V30 4513 C 429.747 -1.94608 3.77264 0
M  V30 4514 C 427.654 -0.855927 5.85173 0
M  V30 4515 H 426.584 -0.262252 0.706923 0
M  V30 4516 H 429.235 0.052769 1.83424 0
M  V30 4517 H 427.617 -2.0774 3.37135 0
M  V30 4518 H 428.791 0.513923 4.57925 0
M  V30 4519 H 427.106 0.306862 4.15268 0
M  V30 4520 H 429.703 -2.40364 4.77629 0
M  V30 4521 H 430.046 -2.77382 3.10427 0
M  V30 4522 H 430.579 -1.21822 3.78688 0
M  V30 4523 H 427.318 -0.0671161 6.55466 0
M  V30 4524 H 426.838 -1.59546 5.78191 0
M  V30 4525 H 428.517 -1.35658 6.32618 0
M  V30 4526 N 428.649 -1.55105 -0.279332 0
M  V30 4527 C 429.895 -1.75672 -1.01327 0
M  V30 4528 C 430.228 -0.552739 -1.86168 0
M  V30 4529 O 429.503 0.449827 -1.89227 0
M  V30 4530 C 429.786 -3.05825 -1.90114 0
M  V30 4531 C 429.639 -4.36565 -1.08309 0
M  V30 4532 C 430.958 -3.31975 -2.8893 0
M  V30 4533 H 428.077 -0.639149 -0.366957 0
M  V30 4534 H 430.719 -1.87833 -0.286154 0
M  V30 4535 H 428.869 -2.95588 -2.52111 0
M  V30 4536 H 430.541 -4.58751 -0.484314 0
M  V30 4537 H 428.784 -4.32076 -0.386362 0
M  V30 4538 H 429.455 -5.23946 -1.73737 0
M  V30 4539 H 431.931 -3.41963 -2.37067 0
M  V30 4540 H 430.807 -4.2432 -3.48201 0
M  V30 4541 H 431.068 -2.51309 -3.63725 0
M  V30 4542 N 430.127 0.543554 -1.4793 0
M  V30 4543 C 431.352 1.32995 -1.59145 0
M  V30 4544 C 431.777 1.86472 -0.246956 0
M  V30 4545 O 431.135 1.63696 0.779324 0
M  V30 4546 C 431.183 2.46623 -2.63077 0
M  V30 4547 O 430.287 3.49261 -2.19295 0
M  V30 4548 H 429.628 0.394472 -0.534124 0
M  V30 4549 H 432.158 0.655489 -1.93816 0
M  V30 4550 H 432.168 2.93001 -2.83926 0
M  V30 4551 H 430.843 2.07059 -3.60693 0
M  V30 4552 H 429.42 3.09094 -2.08603 0
M  V30 4553 N 431.605 1.3629 0.791371 0
M  V30 4554 C 433.016 1.27225 1.36641 0
M  V30 4555 C 433.367 -0.0887968 1.95999 0
M  V30 4556 O 432.492 -0.990207 1.92416 0
M  V30 4557 C 433.087 2.30375 2.48421 0
M  V30 4558 C 431.646 2.25004 3.01746 0
M  V30 4559 C 430.793 2.15259 1.7481 0
M  V30 4560 H 433.744 1.47198 0.593173 0
M  V30 4561 H 433.765 1.93905 3.27385 0
M  V30 4562 H 433.277 3.29422 2.05189 0
M  V30 4563 H 431.378 1.29417 3.49403 0
M  V30 4564 H 431.491 3.1761 3.58693 0
M  V30 4565 H 429.855 1.61482 1.96966 0
M  V30 4566 H 430.638 3.16191 1.33709 0
M  V30 4567 N 433.083 -1.0153 1.20538 0
M  V30 4568 C 433.993 -2.13557 0.971113 0
M  V30 4569 C 435.009 -1.73845 -0.0734366 0
M  V30 4570 O 436.185 -2.01075 0.114299 0
M  V30 4571 C 433.25 -3.42661 0.527639 0
M  V30 4572 C 432.311 -3.96608 1.64319 0
M  V30 4573 C 431.544 -5.1955 1.22078 0
M  V30 4574 O 431.767 -5.70329 0.0900198 0
M  V30 4575 O 430.701 -5.66681 2.02871 0
M  V30 4576 H 434.527 -2.3619 1.90913 0
M  V30 4577 H 432.112 -1.11946 0.989362 0
M  V30 4578 H 433.994 -4.20404 0.289621 0
M  V30 4579 H 432.669 -3.21441 -0.381779 0
M  V30 4580 H 431.576 -3.20139 1.93551 0
M  V30 4581 H 432.909 -4.22219 2.52966 0
M  V30 4582 N 434.561 -1.01147 -1.20859 0
M  V30 4583 C 435.508 -0.577354 -2.23462 0
M  V30 4584 C 436.478 0.399922 -1.61214 0
M  V30 4585 O 437.663 0.300515 -1.88419 0
M  V30 4586 C 434.803 0.083372 -3.44999 0
M  V30 4587 C 433.916 -0.937856 -4.21697 0
M  V30 4588 C 433.051 -0.248717 -5.30617 0
M  V30 4589 C 432.09 -1.25705 -5.99053 0
M  V30 4590 N 431.227 -0.594939 -6.99575 0
M  V30 4591 H 436.067 -1.45695 -2.59956 0
M  V30 4592 H 433.604 -0.729428 -1.27741 0
M  V30 4593 H 435.562 0.483535 -4.14388 0
M  V30 4594 H 434.192 0.926645 -3.09214 0
M  V30 4595 H 433.244 -1.45622 -3.51423 0
M  V30 4596 H 434.556 -1.70493 -4.68757 0
M  V30 4597 H 433.71 0.207215 -6.06346 0
M  V30 4598 H 432.449 0.55071 -4.84581 0
M  V30 4599 H 431.454 -1.72343 -5.2209 0
M  V30 4600 H 432.679 -2.05767 -6.47176 0
M  V30 4601 H 430.625 0.184713 -6.5574 0
M  V30 4602 H 430.542 -1.30017 -7.44736 0
M  V30 4603 H 431.81 -0.162427 -7.79331 0
M  V30 4604 N 436.039 1.36541 -0.78704 0
M  V30 4605 C 437.286 1.99304 -0.358341 0
M  V30 4606 C 437.614 1.62467 1.06933 0
M  V30 4607 O 436.869 0.870019 1.75297 0
M  V30 4608 C 437.168 3.54343 -0.466485 0
M  V30 4609 C 436.834 4.10993 -1.85461 0
M  V30 4610 C 435.496 4.26177 -2.23443 0
M  V30 4611 C 437.848 4.41895 -2.76366 0
M  V30 4612 C 435.176 4.69573 -3.51736 0
M  V30 4613 C 437.528 4.86722 -4.04084 0
M  V30 4614 C 436.192 5.00112 -4.42091 0
M  V30 4615 H 435.462 0.729306 -0.131126 0
M  V30 4616 H 438.109 1.63068 -1.00404 0
M  V30 4617 H 436.414 3.90918 0.262719 0
M  V30 4618 H 438.111 4.00833 -0.115854 0
M  V30 4619 H 434.701 3.99612 -1.54946 0
M  V30 4620 H 438.885 4.29735 -2.48277 0
M  V30 4621 H 434.141 4.78127 -3.81057 0
M  V30 4622 H 438.315 5.09598 -4.7464 0
M  V30 4623 H 435.942 5.33498 -5.41557 0
M  V30 4624 N 437.518 0.538854 1.48102 0
M  V30 4625 C 438.929 0.100679 1.86428 0
M  V30 4626 C 439.28 -1.32447 1.44749 0
M  V30 4627 O 438.405 -1.99339 0.842199 0
M  V30 4628 C 439 0.175933 3.38343 0
M  V30 4629 C 437.559 -0.207098 3.7583 0
M  V30 4630 C 436.706 0.531741 2.72154 0
M  V30 4631 H 439.657 0.749614 1.3988 0
M  V30 4632 H 439.678 -0.610144 3.75576 0
M  V30 4633 H 439.19 1.21328 3.68648 0
M  V30 4634 H 437.291 -1.24626 3.5114 0
M  V30 4635 H 437.404 0.138687 4.78899 0
M  V30 4636 H 435.768 -0.0230462 2.5469 0
M  V30 4637 H 436.551 1.56989 3.05302 0
M  V30 4638 N 438.996 -1.55193 0.274407 0
M  V30 4639 C 440.244 -1.99187 -0.341902 0
M  V30 4640 C 440.565 -1.16422 -1.56431 0
M  V30 4641 O 439.835 -0.253573 -1.94252 0
M  V30 4642 H 438.415 -0.735721 -0.129317 0
M  V30 4643 H 441.077 -1.91168 0.379578 0
M  V30 4644 H 440.173 -3.05629 -0.632253 0
M  V30 4645 N 440.474 -0.00167713 -1.576 0
M  V30 4646 C 441.89 0.354422 -1.55615 0
M  V30 4647 C 442.09 1.74679 -1.00447 0
M  V30 4648 O 441.146 2.4428 -0.639022 0
M  V30 4649 C 442.459 0.22812 -2.99833 0
M  V30 4650 C 444.007 0.302934 -3.11531 0
M  V30 4651 C 444.482 0.205737 -4.57538 0
M  V30 4652 N 445.973 0.263584 -4.62449 0
M  V30 4653 C 446.708 0.211742 -5.73009 0
M  V30 4654 N 446.204 0.110399 -6.92712 0
M  V30 4655 N 447.997 0.263729 -5.61481 0
M  V30 4656 H 440.148 -0.912498 -1.918 0
M  V30 4657 H 442.411 -0.349928 -0.881053 0
M  V30 4658 H 442.117 -0.729934 -3.44042 0
M  V30 4659 H 441.991 1.00951 -3.6344 0
M  V30 4660 H 444.378 1.25143 -2.67251 0
M  V30 4661 H 444.459 -0.508357 -2.50698 0
M  V30 4662 H 444.103 -0.739225 -5.02492 0
M  V30 4663 H 444.033 1.03554 -5.16318 0
M  V30 4664 H 446.524 0.343173 -3.76339 0
M  V30 4665 H 446.837 0.0767828 -7.72762 0
M  V30 4666 H 445.182 0.0760025 -6.94958 0
M  V30 4667 H 448.373 0.34111 -4.66855 0
M  V30 4668 H 448.546 0.219862 -6.47627 0
M  V30 4669 N 441.952 1.55251 0.271103 0
M  V30 4670 C 443.177 1.80306 1.02491 0
M  V30 4671 C 443.602 0.575457 1.79081 0
M  V30 4672 O 442.96 -0.474987 1.74967 0
M  V30 4673 C 443.008 3.02832 1.95768 0
M  V30 4674 O 442.112 2.78051 3.04568 0
M  V30 4675 H 441.453 0.595896 0.292923 0
M  V30 4676 H 443.983 2.02397 0.299436 0
M  V30 4677 H 443.993 3.31616 2.37686 0
M  V30 4678 H 442.668 3.9183 1.39434 0
M  V30 4679 H 441.245 2.60369 2.66951 0
M  V30 4680 N 443.43 -0.535701 1.48216 0
M  V30 4681 C 444.655 -1.32149 1.59848 0
M  V30 4682 C 445.08 -1.86338 0.256842 0
M  V30 4683 O 444.438 -1.64107 -0.770632 0
M  V30 4684 C 444.486 -2.45224 2.64381 0
M  V30 4685 O 443.59 -3.48093 2.21144 0
M  V30 4686 H 442.931 -0.391634 0.536208 0
M  V30 4687 H 445.461 -0.645202 1.94161 0
M  V30 4688 H 445.471 -2.91491 2.85476 0
M  V30 4689 H 444.146 -2.05143 3.61786 0
M  V30 4690 H 442.723 -3.07984 2.10239 0
M  V30 4691 N 444.908 -1.36708 -0.784132 0
M  V30 4692 C 446.136 -1.34398 -1.57305 0
M  V30 4693 C 446.551 0.0735577 -1.88657 0
M  V30 4694 O 445.908 1.03193 -1.50524 0
M  V30 4695 C 445.959 -2.17053 -2.89085 0
M  V30 4696 O 445.68 -3.53281 -2.59083 0
M  V30 4697 C 447.181 -2.22583 -3.83369 0
M  V30 4698 H 444.401 -0.460819 -0.487736 0
M  V30 4699 H 446.945 -1.79879 -0.972819 0
M  V30 4700 H 445.1 -1.75113 -3.45564 0
M  V30 4701 H 445.514 -3.9647 -3.43383 0
M  V30 4702 H 446.988 -2.84763 -4.72878 0
M  V30 4703 H 447.465 -1.23075 -4.21603 0
M  V30 4704 H 448.071 -2.64781 -3.32823 0
M  V30 4705 N 446.386 1.0089 -1.21074 0
M  V30 4706 C 447.334 2.11707 -0.963476 0
M  V30 4707 C 448.328 1.69172 0.0879032 0
M  V30 4708 O 449.534 1.79889 -0.0631415 0
M  V30 4709 H 445.909 0.692026 -0.294287 0
M  V30 4710 H 447.88 2.29743 -1.90422 0
M  V30 4711 C 446.629 3.43473 -0.540509 0
M  V30 4712 H 445.952 3.76634 -1.34114 0
M  V30 4713 H 447.392 4.22044 -0.406777 0
M  V30 4714 C 445.851 3.2849 0.748079 0
M  V30 4715 O 446.381 3.58883 1.8046 0
M  V30 4716 N 444.587 2.81715 0.713081 0
M  V30 4717 H 444.134 2.5718 -0.146973 0
M  V30 4718 H 444.092 2.72071 1.57558 0
M  V30 4719 N 447.864 1.01787 1.20321 0
M  V30 4720 C 448.814 0.559976 2.21016 0
M  V30 4721 C 449.798 -0.385366 1.56217 0
M  V30 4722 O 450.99 -0.208126 1.75772 0
M  V30 4723 C 448.119 -0.0990553 3.43157 0
M  V30 4724 C 447.205 0.86807 4.15121 0
M  V30 4725 N 447.596 2.0261 4.63447 0
M  V30 4726 C 445.894 0.689162 4.40643 0
M  V30 4727 C 446.595 2.63518 5.18588 0
M  V30 4728 N 445.571 1.91569 5.08726 0
M  V30 4729 H 449.373 1.44281 2.56048 0
M  V30 4730 H 446.887 0.883381 1.36272 0
M  V30 4731 H 448.884 -0.444643 4.14522 0
M  V30 4732 H 447.544 -0.977709 3.0963 0
M  V30 4733 H 448.555 2.40598 4.58621 0
M  V30 4734 H 445.232 -0.14133 4.17261 0
M  V30 4735 H 446.622 3.61527 5.66346 0
M  V30 4736 N 449.342 -1.36122 0.79427 0
M  V30 4737 C 450.567 -2.03891 0.379871 0
M  V30 4738 C 450.992 -1.59488 -0.997251 0
M  V30 4739 O 450.35 -0.765652 -1.64339 0
M  V30 4740 C 450.398 -3.57687 0.457442 0
M  V30 4741 O 449.502 -4.08931 -0.5338 0
M  V30 4742 H 448.843 -0.6443 0.160541 0
M  V30 4743 H 451.373 -1.73976 1.07673 0
M  V30 4744 H 451.383 -4.06721 0.322792 0
M  V30 4745 H 450.058 -3.89357 1.46199 0
M  V30 4746 H 448.635 -3.71154 -0.360409 0
M  V30 4747 N 450.82 -0.546701 -1.47814 0
M  V30 4748 C 452.069 -0.0166497 -2.01693 0
M  V30 4749 C 452.382 1.33721 -1.42752 0
M  V30 4750 O 453.588 1.95658 -1.8823 0
M  V30 4751 C 452.044 0.0206769 -3.59894 0
M  V30 4752 C 451.652 -1.3293 -4.27824 0
M  V30 4753 C 453.396 0.498674 -4.21561 0
M  V30 4754 C 451.303 -1.25165 -5.78003 0
M  V30 4755 H 450.233 -0.0024541 -0.753996 0
M  V30 4756 H 452.884 -0.692984 -1.69912 0
M  V30 4757 H 451.266 0.76244 -3.88591 0
M  V30 4758 H 452.44 -2.08795 -4.10781 0
M  V30 4759 H 450.755 -1.74438 -3.78101 0
M  V30 4760 H 453.352 0.575 -5.31599 0
M  V30 4761 H 453.695 1.5083 -3.88016 0
M  V30 4762 H 454.228 -0.18791 -3.97356 0
M  V30 4763 H 450.967 -2.23695 -6.1615 0
M  V30 4764 H 450.487 -0.53464 -5.97412 0
M  V30 4765 H 452.166 -0.949299 -6.39998 0
M  V30 4766 N 452.299 1.55045 -0.282633 0
M  V30 4767 C 453.545 2.00056 0.332481 0
M  V30 4768 C 453.878 1.1708 1.54939 0
M  V30 4769 O 453.153 0.2427 1.9298 0
M  V30 4770 C 453.436 3.53086 0.70725 0
M  V30 4771 C 453.289 4.46813 -0.517521 0
M  V30 4772 C 454.608 4.12245 1.54084 0
M  V30 4773 H 451.727 0.727268 0.119373 0
M  V30 4774 H 454.369 1.85932 -0.391076 0
M  V30 4775 H 452.519 3.65253 1.32372 0
M  V30 4776 H 454.191 4.46579 -1.15607 0
M  V30 4777 H 452.434 4.18163 -1.1542 0
M  V30 4778 H 453.105 5.51595 -0.211426 0
M  V30 4779 H 455.581 4.03401 1.02013 0
M  V30 4780 H 454.457 5.19515 1.77186 0
M  V30 4781 H 454.718 3.62951 2.52427 0
M  V30 4782 N 453.777 0.010035 1.57597 0
M  V30 4783 C 455.023 -0.673697 1.91283 0
M  V30 4784 C 455.356 -1.72863 0.884979 0
M  V30 4785 O 454.631 -1.94268 -0.0949487 0
M  V30 4786 C 454.914 -1.30766 3.35518 0
M  V30 4787 C 454.767 -0.263578 4.49027 0
M  V30 4788 C 456.086 -2.23105 3.79358 0
M  V30 4789 H 453.205 -0.243439 0.695634 0
M  V30 4790 H 455.847 0.0633864 1.89894 0
M  V30 4791 H 453.997 -1.93588 3.36832 0
M  V30 4792 H 455.669 0.365738 4.59848 0
M  V30 4793 H 453.912 0.413077 4.31829 0
M  V30 4794 H 454.583 -0.746398 5.4693 0
M  V30 4795 H 457.059 -1.70289 3.79659 0
M  V30 4796 H 455.935 -2.64424 4.81011 0
M  V30 4797 H 456.196 -3.11433 3.13787 0
M  V30 4798 N 455.255 -1.55392 -0.262866 0
M  V30 4799 C 456.48 -1.80847 -1.01533 0
M  V30 4800 C 456.905 -0.584946 -1.78774 0
M  V30 4801 O 456.263 0.465701 -1.75217 0
M  V30 4802 C 456.311 -3.03866 -1.94159 0
M  V30 4803 O 455.415 -2.79662 -3.03089 0
M  V30 4804 H 454.756 -0.597441 -0.289759 0
M  V30 4805 H 457.286 -2.02553 -0.288698 0
M  V30 4806 H 457.296 -3.32872 -2.35924 0
M  V30 4807 H 455.971 -3.92564 -1.37354 0
M  V30 4808 H 454.548 -2.61781 -2.65566 0
M  V30 4809 N 456.733 0.527833 -1.48498 0
M  V30 4810 C 457.981 1.28101 -1.56316 0
M  V30 4811 C 458.302 1.9352 -0.239781 0
M  V30 4812 O 457.572 1.81433 0.738849 0
M  V30 4813 H 456.152 0.475793 -0.575873 0
M  V30 4814 H 458.814 0.614052 -1.84974 0
M  V30 4815 H 457.91 2.05916 -2.34532 0
M  V30 4816 N 458.211 1.37122 0.776871 0
M  V30 4817 C 459.488 1.22586 1.52421 0
M  V30 4818 C 459.868 -0.182726 2.10308 0
M  V30 4819 O 459.216 -1.18979 1.9508 0
M  V30 4820 C 459.426 2.31782 2.60918 0
M  V30 4821 C 460.774 2.69071 3.2846 0
M  V30 4822 O 461.798 2.3092 2.71209 0
M  V30 4823 O 460.657 3.3478 4.31954 0
M  V30 4824 H 457.751 0.478045 0.674835 0
M  V30 4825 H 460.297 1.48888 0.814275 0
M  V30 4826 H 459.069 3.26131 2.16227 0
M  V30 4827 H 458.692 2.06916 3.39517 0
M  V30 4828 N 459.689 -1.00246 1.21608 0
M  V30 4829 C 461.1 -1.55511 1.03312 0
M  V30 4830 C 461.451 -1.91946 -0.406332 0
M  V30 4831 O 460.576 -1.73753 -1.28992 0
M  V30 4832 C 461.171 -2.82576 1.86913 0
M  V30 4833 C 459.73 -3.34318 1.72941 0
M  V30 4834 C 458.877 -2.07487 1.83968 0
M  V30 4835 H 461.828 -0.824638 1.35593 0
M  V30 4836 H 461.849 -3.54559 1.38087 0
M  V30 4837 H 461.361 -2.56026 2.91672 0
M  V30 4838 H 459.462 -3.65797 0.70877 0
M  V30 4839 H 459.575 -4.05566 2.55055 0
M  V30 4840 H 457.939 -2.20603 1.27304 0
M  V30 4841 H 458.722 -1.83346 2.9024 0
M  V30 4842 N 461.167 -1.02423 -1.1978 0
M  V30 4843 C 462.583 -0.740459 -1.41384 0
M  V30 4844 C 462.783 0.676827 -1.89793 0
M  V30 4845 O 461.839 1.4435 -2.0717 0
M  V30 4846 C 463.152 -1.77264 -2.42895 0
M  V30 4847 C 464.7 -1.79165 -2.56649 0
M  V30 4848 C 465.175 -2.8133 -3.6141 0
M  V30 4849 N 466.666 -2.80118 -3.68901 0
M  V30 4850 C 467.401 -3.55824 -4.49641 0
M  V30 4851 N 466.897 -4.41231 -5.34123 0
M  V30 4852 N 468.69 -3.44387 -4.44246 0
M  V30 4853 H 460.841 -1.9391 -0.866764 0
M  V30 4854 H 463.104 -0.838074 -0.443098 0
M  V30 4855 H 462.81 -2.7884 -2.14339 0
M  V30 4856 H 462.684 -1.59108 -3.42001 0
M  V30 4857 H 465.071 -0.782702 -2.84531 0
M  V30 4858 H 465.152 -2.01396 -1.57713 0
M  V30 4859 H 464.796 -3.82394 -3.34271 0
M  V30 4860 H 464.726 -2.56359 -4.59986 0
M  V30 4861 H 467.217 -2.1817 -3.08562 0
M  V30 4862 H 467.53 -4.95747 -5.92836 0
M  V30 4863 H 465.875 -4.45306 -5.33599 0
M  V30 4864 H 469.066 -2.7708 -3.77285 0
M  V30 4865 H 469.239 -4.0364 -5.06931 0
M  V30 4866 N 462.645 1.35699 -0.801477 0
M  V30 4867 C 463.892 1.98913 -0.379459 0
M  V30 4868 C 464.22 1.63592 1.05204 0
M  V30 4869 O 463.475 0.888563 1.74365 0
M  V30 4870 C 463.774 3.53828 -0.504041 0
M  V30 4871 C 463.44 4.09002 -1.8981 0
M  V30 4872 C 462.102 4.23783 -2.27951 0
M  V30 4873 C 464.454 4.38939 -2.81038 0
M  V30 4874 C 461.782 4.65816 -3.56696 0
M  V30 4875 C 464.134 4.82409 -4.09224 0
M  V30 4876 C 462.798 4.95395 -4.4737 0
M  V30 4877 H 462.068 0.727874 -0.138854 0
M  V30 4878 H 464.715 1.61994 -1.02128 0
M  V30 4879 H 463.02 3.91175 0.221242 0
M  V30 4880 H 464.717 4.00687 -0.158361 0
M  V30 4881 H 461.307 3.97946 -1.59176 0
M  V30 4882 H 465.491 4.27077 -2.52821 0
M  V30 4883 H 460.747 4.74059 -3.86106 0
M  V30 4884 H 464.921 5.04535 -4.80018 0
M  V30 4885 H 462.548 5.27724 -5.47185 0
M  V30 4886 N 464.123 0.554532 1.47522 0
M  V30 4887 C 465.086 -0.184174 2.28459 0
M  V30 4888 C 466.086 -0.845195 1.36796 0
M  V30 4889 O 467.276 -0.701467 1.59452 0
M  V30 4890 C 464.408 -1.26903 3.16399 0
M  V30 4891 H 465.601 0.526751 2.95238 0
M  V30 4892 H 463.154 0.311375 1.53167 0
M  V30 4893 H 463.889 -2.01244 2.54306 0
M  V30 4894 H 463.674 -0.799883 3.83854 0
M  V30 4895 H 465.164 -1.78794 3.77389 0
M  V30 4896 N 465.601 -1.54893 0.290851 0
M  V30 4897 C 466.849 -1.99538 -0.320756 0
M  V30 4898 C 467.17 -1.18075 -1.55188 0
M  V30 4899 O 466.44 -0.274162 -1.93972 0
M  V30 4900 H 465.02 -0.737052 -0.121507 0
M  V30 4901 H 467.682 -1.90755 0.399832 0
M  V30 4902 H 466.778 -3.06282 -0.599802 0
M  V30 4903 N 467.08 -0.0183926 -1.57589 0
M  V30 4904 C 468.308 0.673046 -1.95647 0
M  V30 4905 C 468.723 1.66275 -0.894312 0
M  V30 4906 O 468.08 1.82072 0.124975 0
M  V30 4907 C 468.131 1.38884 -3.33756 0
M  V30 4908 O 467.852 0.438806 -4.35897 0
M  V30 4909 C 469.353 2.1731 -3.86383 0
M  V30 4910 H 466.573 0.186292 -0.644621 0
M  V30 4911 H 469.117 -0.0749748 -2.04363 0
M  V30 4912 H 467.272 2.08835 -3.26293 0
M  V30 4913 H 467.686 0.945869 -5.15901 0
M  V30 4914 H 469.16 2.62863 -4.85394 0
M  V30 4915 H 469.637 3.00764 -3.20059 0
M  V30 4916 H 470.243 1.52339 -3.97081 0
M  V30 4917 N 468.558 1.5553 0.254621 0
M  V30 4918 C 469.807 1.76202 0.981612 0
M  V30 4919 C 470.12 0.580883 1.86776 0
M  V30 4920 O 471.326 0.670448 2.63092 0
M  V30 4921 C 469.782 3.11921 1.79537 0
M  V30 4922 C 469.39 4.37659 0.956991 0
M  V30 4923 C 471.134 3.41936 2.51555 0
M  V30 4924 C 469.041 5.64411 1.76619 0
M  V30 4925 H 467.971 0.656841 0.370237 0
M  V30 4926 H 470.622 1.81969 0.236556 0
M  V30 4927 H 469.004 3.00241 2.58208 0
M  V30 4928 H 470.178 4.60307 0.21315 0
M  V30 4929 H 468.493 4.14922 0.350497 0
M  V30 4930 H 471.09 4.33849 3.12536 0
M  V30 4931 H 471.433 2.62905 3.22779 0
M  V30 4932 H 471.966 3.54797 1.799 0
M  V30 4933 H 468.705 6.46241 1.09783 0
M  V30 4934 H 468.225 5.45877 2.48551 0
M  V30 4935 H 469.904 6.03386 2.33527 0
M  V30 4936 N 470.036 -0.519951 1.48776 0
M  V30 4937 C 470.983 -1.62352 1.64044 0
M  V30 4938 C 471.953 -1.58945 0.482251 0
M  V30 4939 O 473.138 -1.77219 0.706971 0
M  V30 4940 C 470.278 -3.00579 1.69547 0
M  V30 4941 C 469.391 -3.14145 2.96541 0
M  V30 4942 C 468.526 -4.42991 2.93142 0
M  V30 4943 C 467.565 -4.50122 4.14797 0
M  V30 4944 N 466.702 -5.7037 4.09418 0
M  V30 4945 H 471.542 -1.48643 2.58281 0
M  V30 4946 H 469.079 -0.723516 1.28077 0
M  V30 4947 H 471.037 -3.80671 1.70719 0
M  V30 4948 H 469.667 -3.13036 0.787918 0
M  V30 4949 H 468.719 -2.27239 3.05068 0
M  V30 4950 H 470.031 -3.15275 3.86527 0
M  V30 4951 H 469.185 -5.31385 2.92772 0
M  V30 4952 H 467.924 -4.44398 2.00902 0
M  V30 4953 H 466.929 -3.60133 4.15433 0
M  V30 4954 H 468.154 -4.50445 5.08208 0
M  V30 4955 H 466.1 -5.72655 3.20004 0
M  V30 4956 H 466.017 -5.73036 4.93119 0
M  V30 4957 H 467.285 -6.61023 4.13121 0
M  V30 4958 N 471.514 -1.37532 -0.769588 0
M  V30 4959 C 472.763 -1.32183 -1.5235 0
M  V30 4960 C 473.076 0.0906555 -1.9539 0
M  V30 4961 O 474.282 0.266628 -2.70188 0
M  V30 4962 C 472.738 -2.32029 -2.75119 0
M  V30 4963 C 472.346 -3.78816 -2.3917 0
M  V30 4964 C 474.09 -2.35694 -3.53056 0
M  V30 4965 C 471.997 -4.70388 -3.58453 0
M  V30 4966 H 470.927 -0.491275 -0.571984 0
M  V30 4967 H 473.578 -1.63004 -0.842739 0
M  V30 4968 H 471.96 -1.94229 -3.45096 0
M  V30 4969 H 473.134 -4.25466 -1.76962 0
M  V30 4970 H 471.449 -3.78117 -1.74402 0
M  V30 4971 H 474.046 -3.01312 -4.41718 0
M  V30 4972 H 474.389 -1.37117 -3.93071 0
M  V30 4973 H 474.922 -2.72212 -2.90078 0
M  V30 4974 H 471.661 -5.70102 -3.23518 0
M  V30 4975 H 471.181 -4.28442 -4.19758 0
M  V30 4976 H 472.86 -4.87628 -4.25239 0
M  V30 4977 N 472.992 0.995999 -1.22138 0
M  V30 4978 C 474.22 1.77066 -1.07029 0
M  V30 4979 C 474.635 1.8495 0.379357 0
M  V30 4980 O 473.992 1.3174 1.26297 0
M  V30 4981 C 474.043 3.20533 -1.67155 0
M  V30 4982 O 473.764 3.13082 -3.06449 0
M  V30 4983 C 475.265 4.14461 -1.5728 0
M  V30 4984 H 472.485 0.556179 -0.375374 0
M  V30 4985 H 475.029 1.25238 -1.61666 0
M  V30 4986 H 473.184 3.6944 -1.16589 0
M  V30 4987 H 473.598 4.03283 -3.35355 0
M  V30 4988 H 475.072 5.1289 -2.04078 0
M  V30 4989 H 475.549 4.36005 -0.528795 0
M  V30 4990 H 476.155 3.71449 -2.07136 0
M  V30 4991 N 474.47 1.03057 1.19235 0
M  V30 4992 C 475.698 0.747697 1.92917 0
M  V30 4993 C 476.113 -0.69372 1.75593 0
M  V30 4994 O 475.47 -1.47191 1.07894 0
M  V30 4995 C 475.521 1.09159 3.44625 0
M  V30 4996 O 475.242 2.47641 3.61394 0
M  V30 4997 C 476.743 0.831763 4.35427 0
M  V30 4998 H 473.963 0.273453 0.612751 0
M  V30 4999 H 476.507 1.37552 1.51327 0
M  V30 5000 H 474.662 0.508919 3.84043 0
M  V30 5001 H 475.076 2.60499 4.55237 0
M  V30 5002 H 476.55 1.12233 5.4047 0
M  V30 5003 H 477.027 -0.233769 4.38577 0
M  V30 5004 H 477.633 1.39725 4.01693 0
M  V30 5005 N 475.948 -1.35272 0.808662 0
M  V30 5006 C 477.173 -2.03477 0.401475 0
M  V30 5007 C 477.598 -1.60537 -0.980279 0
M  V30 5008 O 476.956 -0.78304 -1.63518 0
M  V30 5009 C 477.004 -3.57181 0.495354 0
M  V30 5010 O 476.108 -4.09474 -0.490397 0
M  V30 5011 H 475.449 -0.642561 0.167366 0
M  V30 5012 H 477.979 -1.72824 1.09512 0
M  V30 5013 H 477.989 -4.06356 0.365912 0
M  V30 5014 H 476.664 -3.87784 1.5032 0
M  V30 5015 H 475.241 -3.71516 -0.321023 0
M  V30 5016 N 477.426 -0.562348 -1.47226 0
M  V30 5017 C 478.389 0.172056 -2.28553 0
M  V30 5018 C 479.389 0.837928 -1.37242 0
M  V30 5019 O 480.579 0.693001 -1.59822 0
M  V30 5020 C 477.711 1.25223 -3.17068 0
M  V30 5021 H 478.904 -0.542401 -2.94954 0
M  V30 5022 H 476.457 -0.319493 -1.53 0
M  V30 5023 H 477.192 1.99892 -2.55369 0
M  V30 5024 H 476.977 0.779515 -3.84273 0
M  V30 5025 H 478.467 1.76791 -3.78332 0
M  V30 5026 N 478.904 1.54736 -0.299062 0
M  V30 5027 C 480.15 2.00397 0.311244 0
M  V30 5028 C 480.483 1.18716 1.53688 0
M  V30 5029 O 479.758 0.263154 1.92712 0
M  V30 5030 C 480.041 3.53817 0.669761 0
M  V30 5031 C 479.894 4.46239 -0.564882 0
M  V30 5032 C 481.213 4.13856 1.49702 0
M  V30 5033 H 478.332 0.728493 0.111653 0
M  V30 5034 H 480.974 1.85506 -0.410774 0
M  V30 5035 H 479.124 3.66637 1.28491 0
M  V30 5036 H 480.796 4.45328 -1.20337 0
M  V30 5037 H 479.039 4.16916 -1.19849 0
M  V30 5038 H 479.71 5.5134 -0.269918 0
M  V30 5039 H 482.186 4.04461 0.977284 0
M  V30 5040 H 481.062 5.21365 1.71666 0
M  V30 5041 H 481.323 3.65608 2.48563 0
M  V30 5042 N 480.382 0.0267497 1.57577 0
M  V30 5043 C 481.631 -0.651736 1.9088 0
M  V30 5044 C 481.944 -1.73427 0.904576 0
M  V30 5045 O 483.15 -2.46923 1.12877 0
M  V30 5046 C 481.606 -1.21048 3.38933 0
M  V30 5047 C 481.214 -0.161362 4.47709 0
M  V30 5048 C 482.958 -1.86562 3.81307 0
M  V30 5049 C 480.865 -0.731611 5.86857 0
M  V30 5050 H 479.795 -0.247198 0.712326 0
M  V30 5051 H 482.446 0.0916641 1.83271 0
M  V30 5052 H 480.828 -2.00542 3.41466 0
M  V30 5053 H 482.002 0.61094 4.56732 0
M  V30 5054 H 480.317 0.394877 4.14523 0
M  V30 5055 H 482.914 -2.30178 4.8262 0
M  V30 5056 H 483.257 -2.70735 3.16241 0
M  V30 5057 H 483.79 -1.13762 3.81186 0
M  V30 5058 H 480.529 0.0719329 6.55461 0
M  V30 5059 H 480.049 -1.47245 5.81445 0
M  V30 5060 H 481.728 -1.22208 6.35354 0
M  V30 5061 N 481.861 -1.55662 -0.24637 0
M  V30 5062 C 483.138 -1.68272 -0.997198 0
M  V30 5063 C 483.518 -0.566785 -2.03349 0
M  V30 5064 O 482.866 0.429688 -2.24424 0
M  V30 5065 C 483.076 -3.08594 -1.63006 0
M  V30 5066 C 484.424 -3.6721 -2.13171 0
M  V30 5067 O 485.448 -3.11397 -1.72946 0
M  V30 5068 O 484.307 -4.65054 -2.87031 0
M  V30 5069 H 481.401 -0.684429 -0.464205 0
M  V30 5070 H 483.947 -1.67993 -0.240114 0
M  V30 5071 H 482.719 -3.81264 -0.880527 0
M  V30 5072 H 482.342 -3.12886 -2.45333 0
M  V30 5073 N 483.339 0.512053 -1.4905 0
M  V30 5074 C 484.287 1.63568 -1.65373 0
M  V30 5075 C 485.281 1.61228 -0.519806 0
M  V30 5076 O 486.487 1.65869 -0.699101 0
M  V30 5077 H 482.862 0.542019 -0.521267 0
M  V30 5078 H 484.833 1.4695 -2.59708 0
M  V30 5079 C 483.582 3.01761 -1.7273 0
M  V30 5080 H 482.905 3.04263 -2.59353 0
M  V30 5081 H 484.345 3.79948 -1.8819 0
M  V30 5082 C 482.804 3.33609 -0.46973 0
M  V30 5083 O 483.334 3.99607 0.409492 0
M  V30 5084 N 481.54 2.88651 -0.336003 0
M  V30 5085 H 481.087 2.35119 -1.05247 0
M  V30 5086 H 481.045 3.10328 0.504363 0
M  V30 5087 N 484.817 1.37938 0.762283 0
M  V30 5088 C 486.233 1.18945 1.06415 0
M  V30 5089 C 486.433 0.0321163 2.01474 0
M  V30 5090 O 485.489 -0.624844 2.44647 0
M  V30 5091 C 486.802 2.51218 1.65258 0
M  V30 5092 C 488.35 2.57824 1.7747 0
M  V30 5093 C 488.825 3.90251 2.39725 0
M  V30 5094 N 490.316 3.91744 2.47166 0
M  V30 5095 C 491.051 4.90966 2.96209 0
M  V30 5096 N 490.547 6.00585 3.45354 0
M  V30 5097 N 492.34 4.78363 2.9517 0
M  V30 5098 H 484.491 2.11994 0.131301 0
M  V30 5099 H 486.754 0.940262 0.120879 0
M  V30 5100 H 486.46 3.36317 1.02878 0
M  V30 5101 H 486.334 2.68989 2.64433 0
M  V30 5102 H 488.721 1.73126 2.3898 0
M  V30 5103 H 488.802 2.43928 0.770241 0
M  V30 5104 H 488.446 4.75368 1.78852 0
M  V30 5105 H 488.376 4.01454 3.40796 0
M  V30 5106 H 490.867 3.12563 2.12397 0
M  V30 5107 H 491.18 6.72236 3.81207 0
M  V30 5108 H 489.525 6.04217 3.43434 0
M  V30 5109 H 492.716 3.91841 2.56082 0
M  V30 5110 H 492.889 5.55843 3.33081 0
M  V30 5111 N 486.295 -0.989507 1.22664 0
M  V30 5112 C 487.258 -2.06183 1.00106 0
M  V30 5113 C 488.258 -1.60765 -0.0337726 0
M  V30 5114 O 489.448 -1.72989 0.205072 0
M  V30 5115 C 486.58 -3.37021 0.51279 0
M  V30 5116 H 487.773 -2.27629 1.95256 0
M  V30 5117 H 485.326 -1.16158 1.0458 0
M  V30 5118 H 486.061 -3.21261 -0.442917 0
M  V30 5119 H 485.846 -3.71323 1.25942 0
M  V30 5120 H 487.336 -4.1591 0.375315 0
M  V30 5121 N 487.773 -1.03688 -1.18687 0
M  V30 5122 C 488.721 -0.618292 -2.24232 0
M  V30 5123 C 489.715 0.353045 -1.6568 0
M  V30 5124 O 490.921 0.220749 -1.78641 0
M  V30 5125 H 487.296 -0.181711 -0.729716 0
M  V30 5126 H 489.267 -1.51893 -2.56848 0
M  V30 5127 C 488.016 0.00677342 -3.47699 0
M  V30 5128 H 487.339 -0.731692 -3.93047 0
M  V30 5129 H 488.779 0.262492 -4.23187 0
M  V30 5130 C 487.238 1.25572 -3.12623 0
M  V30 5131 O 487.768 2.34691 -3.26011 0
M  V30 5132 N 485.974 1.14755 -2.66982 0
M  V30 5133 H 485.521 0.259601 -2.56289 0
M  V30 5134 H 485.479 1.98412 -2.43885 0
M  V30 5135 N 489.251 1.34841 -0.815825 0
M  V30 5136 C 490.181 2.32187 -0.247298 0
M  V30 5137 C 491.162 1.5791 0.632344 0
M  V30 5138 O 492.347 1.8593 0.560698 0
M  V30 5139 C 489.477 3.42122 0.597466 0
M  V30 5140 C 488.431 4.27602 -0.184446 0
M  V30 5141 C 487.757 5.28942 0.782609 0
M  V30 5142 C 489.057 5.03502 -1.38865 0
M  V30 5143 H 490.751 2.79985 -1.06061 0
M  V30 5144 H 488.297 1.34611 -0.511461 0
M  V30 5145 H 490.25 4.09232 1.00533 0
M  V30 5146 H 488.974 2.92956 1.44376 0
M  V30 5147 H 487.633 3.62085 -0.573592 0
M  V30 5148 H 487.281 4.7604 1.62466 0
M  V30 5149 H 486.981 5.87008 0.263695 0
M  V30 5150 H 488.505 5.98922 1.18848 0
M  V30 5151 H 489.919 5.63506 -1.05518 0
M  V30 5152 H 488.316 5.71108 -1.8427 0
M  V30 5153 H 489.386 4.33608 -2.17054 0
M  V30 5154 N 490.729 0.570148 1.46925 0
M  V30 5155 C 491.677 -0.183181 2.31878 0
M  V30 5156 C 492.671 -0.896721 1.43719 0
M  V30 5157 O 493.877 -0.816536 1.60414 0
M  V30 5158 H 490.252 -0.077944 0.74795 0
M  V30 5159 H 492.223 0.552312 2.93244 0
M  V30 5160 C 490.972 -1.19172 3.2664 0
M  V30 5161 H 490.295 -0.652088 3.94446 0
M  V30 5162 H 491.735 -1.68946 3.88887 0
M  V30 5163 C 490.194 -2.24627 2.51086 0
M  V30 5164 O 490.724 -3.31773 2.26472 0
M  V30 5165 N 488.93 -1.98898 2.11867 0
M  V30 5166 H 488.477 -1.11777 2.32086 0
M  V30 5167 H 488.435 -2.6967 1.61634 0
M  V30 5168 N 492.207 -1.54576 0.307264 0
M  V30 5169 C 493.437 -2.04378 -0.302158 0
M  V30 5170 C 493.845 -1.18381 -1.47589 0
M  V30 5171 O 493.188 -0.20352 -1.82569 0
M  V30 5172 C 493.25 -3.50133 -0.815305 0
M  V30 5173 C 492.914 -4.56401 0.233977 0
M  V30 5174 C 493.911 -5.08884 1.06456 0
M  V30 5175 C 491.596 -5.0088 0.377478 0
M  V30 5176 C 493.59 -6.04394 2.02452 0
M  V30 5177 C 491.277 -5.96208 1.34088 0
M  V30 5178 C 492.275 -6.47849 2.16288 0
M  V30 5179 O 491.963 -7.41308 3.10994 0
M  V30 5180 H 491.695 -0.672502 -0.0686839 0
M  V30 5181 H 494.249 -2.00484 0.446682 0
M  V30 5182 H 492.479 -3.51371 -1.61478 0
M  V30 5183 H 494.168 -3.83098 -1.34129 0
M  V30 5184 H 494.934 -4.75311 0.964596 0
M  V30 5185 H 490.813 -4.60309 -0.252405 0
M  V30 5186 H 494.357 -6.44626 2.66652 0
M  V30 5187 H 490.254 -6.29198 1.44154 0
M  V30 5188 H 491.022 -7.5913 3.06045 0
M  V30 5189 N 493.685 -0.035106 -1.57561 0
M  V30 5190 C 494.615 0.942993 -2.13612 0
M  V30 5191 C 495.596 1.33531 -1.05373 0
M  V30 5192 O 496.781 1.41287 -1.33235 0
M  V30 5193 C 493.911 2.22332 -2.66807 0
M  V30 5194 C 492.865 1.97156 -3.79886 0
M  V30 5195 C 492.191 3.31506 -4.19533 0
M  V30 5196 C 493.491 1.30596 -5.05709 0
M  V30 5197 H 495.185 0.476179 -2.95589 0
M  V30 5198 H 492.731 0.227602 -1.4219 0
M  V30 5199 H 494.684 2.91142 -3.04654 0
M  V30 5200 H 493.408 2.7119 -1.81999 0
M  V30 5201 H 492.067 1.30763 -3.42486 0
M  V30 5202 H 491.715 3.78134 -3.31698 0
M  V30 5203 H 491.415 3.15465 -4.95738 0
M  V30 5204 H 492.939 4.01574 -4.59968 0
M  V30 5205 H 494.353 1.89416 -5.41105 0
M  V30 5206 H 492.75 1.24934 -5.86951 0
M  V30 5207 H 493.82 0.279742 -4.84092 0
M  V30 5208 N 495.163 1.55791 0.238111 0
M  V30 5209 C 496.093 1.94068 1.29846 0
M  V30 5210 C 497.074 0.806726 1.49753 0
M  V30 5211 O 498.259 1.06772 1.62214 0
M  V30 5212 C 495.389 2.24302 2.65153 0
M  V30 5213 C 494.343 3.40032 2.59927 0
M  V30 5214 C 493.669 3.55829 3.99111 0
M  V30 5215 C 494.969 4.75476 2.16148 0
M  V30 5216 H 496.663 2.82887 0.980563 0
M  V30 5217 H 494.209 1.36105 0.470253 0
M  V30 5218 H 496.162 2.4967 3.39475 0
M  V30 5219 H 494.886 1.32318 2.98596 0
M  V30 5220 H 493.545 3.14687 1.88063 0
M  V30 5221 H 493.193 2.6125 4.29834 0
M  V30 5222 H 492.893 4.3366 3.96501 0
M  V30 5223 H 494.417 3.83528 4.7512 0
M  V30 5224 H 495.831 5.00158 2.80205 0
M  V30 5225 H 494.228 5.56472 2.24631 0
M  V30 5226 H 495.298 4.71946 1.11333 0
M  V30 5227 N 496.642 -0.504142 1.49319 0
M  V30 5228 C 497.867 -1.28729 1.62615 0
M  V30 5229 C 498.292 -1.85752 0.296309 0
M  V30 5230 O 497.65 -1.65704 -0.735649 0
M  V30 5231 C 497.698 -2.39561 2.69524 0
M  V30 5232 O 496.802 -3.43324 2.28478 0
M  V30 5233 H 496.143 -0.380172 0.544395 0
M  V30 5234 H 498.673 -0.603872 1.95485 0
M  V30 5235 H 498.683 -2.8537 2.91595 0
M  V30 5236 H 497.358 -1.97423 3.66056 0
M  V30 5237 H 495.935 -3.03455 2.16725 0
M  V30 5238 N 498.12 -1.38341 -0.754957 0
M  V30 5239 C 499.07 -1.31964 -1.85929 0
M  V30 5240 C 500.054 -0.204181 -1.59599 0
M  V30 5241 O 501.246 -0.440036 -1.71443 0
M  V30 5242 C 498.375 -1.14565 -3.2362 0
M  V30 5243 C 497.461 -2.30727 -3.55846 0
M  V30 5244 N 497.852 -3.56165 -3.59138 0
M  V30 5245 C 496.15 -2.23249 -3.86104 0
M  V30 5246 C 496.851 -4.32865 -3.88591 0
M  V30 5247 N 495.827 -3.62203 -4.05351 0
M  V30 5248 H 499.629 -2.2694 -1.8675 0
M  V30 5249 H 497.143 -1.31553 -0.952243 0
M  V30 5250 H 499.14 -1.0808 -4.02647 0
M  V30 5251 H 497.8 -0.205212 -3.24051 0
M  V30 5252 H 498.811 -3.89854 -3.40932 0
M  V30 5253 H 495.488 -1.37357 -3.94258 0
M  V30 5254 H 496.878 -5.41504 -3.97773 0
M  V30 5255 N 499.598 0.982988 -1.23187 0
M  V30 5256 C 500.823 1.76455 -1.08988 0
M  V30 5257 C 501.248 1.84726 0.354691 0
M  V30 5258 O 500.606 1.30699 1.25649 0
M  V30 5259 C 500.654 3.17094 -1.71708 0
M  V30 5260 O 499.758 4.00648 -0.977477 0
M  V30 5261 H 499.099 0.542988 -0.382177 0
M  V30 5262 H 501.629 1.23413 -1.63188 0
M  V30 5263 H 501.639 3.67684 -1.76841 0
M  V30 5264 H 500.314 3.10389 -2.76823 0
M  V30 5265 H 498.891 3.59161 -1.0029 0
M  V30 5266 N 501.076 1.04316 1.18135 0
M  V30 5267 C 502.324 0.746542 1.87806 0
M  V30 5268 C 502.645 -0.728082 1.80898 0
M  V30 5269 O 501.915 -1.52554 1.22899 0
M  V30 5270 H 500.495 0.273157 0.695265 0
M  V30 5271 H 503.157 1.32044 1.43354 0
M  V30 5272 H 502.253 1.05362 2.93778 0
M  V30 5273 N 502.554 -1.34406 0.822964 0
M  V30 5274 C 503.484 -2.32052 0.259608 0
M  V30 5275 C 504.465 -1.58243 -0.623961 0
M  V30 5276 O 505.65 -1.86224 -0.55083 0
M  V30 5277 C 502.78 -3.42434 -0.579314 0
M  V30 5278 C 501.734 -4.27499 0.20712 0
M  V30 5279 C 501.06 -5.29349 -0.754547 0
M  V30 5280 C 502.36 -5.02758 1.41533 0
M  V30 5281 H 504.054 -2.79418 1.07545 0
M  V30 5282 H 501.6 -1.34338 0.518593 0
M  V30 5283 H 503.553 -4.0976 -0.983612 0
M  V30 5284 H 502.277 -2.93717 -1.4282 0
M  V30 5285 H 500.936 -3.61776 0.592787 0
M  V30 5286 H 500.584 -4.76895 -1.59939 0
M  V30 5287 H 500.284 -5.8714 -0.232561 0
M  V30 5288 H 501.808 -5.99544 -1.1567 0
M  V30 5289 H 503.222 -5.62938 1.08504 0
M  V30 5290 H 501.619 -5.70123 1.87296 0
M  V30 5291 H 502.689 -4.32451 2.1935 0
M  V30 5292 N 504.032 -0.577932 -1.46621 0
M  V30 5293 C 505.309 0.00495287 -1.95599 0
M  V30 5294 C 505.689 1.46428 -1.5206 0
M  V30 5295 O 505.037 2.1517 -0.769046 0
M  V30 5296 C 505.247 -0.162114 -3.48623 0
M  V30 5297 C 506.595 -0.0274623 -4.24591 0
M  V30 5298 O 507.619 -0.0907067 -3.56084 0
M  V30 5299 O 506.478 0.1122 -5.46385 0
M  V30 5300 H 503.572 0.0525057 -0.825332 0
M  V30 5301 H 506.118 -0.645914 -1.56927 0
M  V30 5302 H 504.89 -1.17679 -3.73185 0
M  V30 5303 H 504.513 0.525407 -3.94113 0
M  V30 5304 N 505.51 1.54411 -0.315457 0
M  V30 5305 C 506.74 2.04536 0.291315 0
M  V30 5306 C 507.148 1.19162 1.4696 0
M  V30 5307 O 506.491 0.213199 1.82459 0
M  V30 5308 C 506.553 3.5056 0.796725 0
M  V30 5309 C 506.217 4.5627 -0.258178 0
M  V30 5310 C 507.214 5.08312 -1.09153 0
M  V30 5311 C 504.899 5.00672 -0.404036 0
M  V30 5312 C 506.893 6.03312 -2.05655 0
M  V30 5313 C 504.58 5.95488 -1.37248 0
M  V30 5314 C 505.578 6.46693 -2.19721 0
M  V30 5315 O 505.266 7.39648 -3.14921 0
M  V30 5316 H 504.998 0.672856 0.0651165 0
M  V30 5317 H 507.552 2.00244 -0.457308 0
M  V30 5318 H 505.782 3.52223 1.59612 0
M  V30 5319 H 507.471 3.83804 1.32096 0
M  V30 5320 H 508.237 4.74793 -0.98979 0
M  V30 5321 H 504.116 4.60436 0.22799 0
M  V30 5322 H 507.66 6.43203 -2.70067 0
M  V30 5323 H 503.557 6.28424 -1.47489 0
M  V30 5324 H 504.325 7.57496 -3.10067 0
M  V30 5325 N 506.988 0.0434614 1.5754 0
M  V30 5326 C 507.935 -0.93356 2.11077 0
M  V30 5327 C 508.905 -1.31383 1.01626 0
M  V30 5328 O 510.09 -1.40465 1.29129 0
M  V30 5329 C 507.23 -2.20578 2.65404 0
M  V30 5330 C 506.343 -1.88068 3.88914 0
M  V30 5331 C 505.478 -3.09691 4.31584 0
M  V30 5332 C 504.517 -2.73067 5.47815 0
M  V30 5333 N 503.654 -3.87359 5.85574 0
M  V30 5334 H 508.494 -0.470118 2.94268 0
M  V30 5335 H 506.031 -0.220434 1.45439 0
M  V30 5336 H 507.989 -2.95011 2.94999 0
M  V30 5337 H 506.619 -2.64513 1.85021 0
M  V30 5338 H 505.671 -1.03816 3.6596 0
M  V30 5339 H 506.983 -1.57104 4.73413 0
M  V30 5340 H 506.137 -3.92431 4.62691 0
M  V30 5341 H 504.876 -3.43827 3.45882 0
M  V30 5342 H 503.881 -1.88742 5.16388 0
M  V30 5343 H 505.106 -2.40131 6.35227 0
M  V30 5344 H 503.052 -4.21311 5.02825 0
M  V30 5345 H 502.969 -3.60068 6.64746 0
M  V30 5346 H 504.237 -4.70761 6.21292 0
M  V30 5347 N 508.466 -1.55915 -0.229846 0
M  V30 5348 C 509.882 -1.48721 -0.579166 0
M  V30 5349 C 510.082 -0.736976 -1.87539 0
M  V30 5350 O 509.138 -0.273258 -2.51017 0
M  V30 5351 C 510.451 -2.9323 -0.666082 0
M  V30 5352 C 511.999 -3.03701 -0.757267 0
M  V30 5353 C 512.474 -4.49552 -0.8756 0
M  V30 5354 N 513.965 -4.53561 -0.940035 0
M  V30 5355 C 514.7 -5.63683 -1.05116 0
M  V30 5356 N 514.196 -6.83576 -1.12675 0
M  V30 5357 N 515.989 -5.51516 -1.08565 0
M  V30 5358 H 508.14 -2.03123 0.620857 0
M  V30 5359 H 510.403 -0.922898 0.21671 0
M  V30 5360 H 510.109 -3.51032 0.21664 0
M  V30 5361 H 509.983 -3.44668 -1.53243 0
M  V30 5362 H 512.37 -2.45969 -1.63043 0
M  V30 5363 H 512.451 -2.55446 0.134583 0
M  V30 5364 H 512.095 -5.079 -0.00692351 0
M  V30 5365 H 512.025 -4.95506 -1.78274 0
M  V30 5366 H 514.516 -3.67215 -0.892269 0
M  V30 5367 H 514.829 -7.63251 -1.21109 0
M  V30 5368 H 513.174 -6.86303 -1.09603 0
M  V30 5369 H 516.365 -4.5678 -1.02319 0
M  V30 5370 H 516.538 -6.37372 -1.1688 0
M  V30 5371 N 509.944 0.496216 -1.49584 0
M  V30 5372 C 510.892 1.61805 -1.67098 0
M  V30 5373 C 511.886 1.60667 -0.536877 0
M  V30 5374 O 513.092 1.65118 -0.716654 0
M  V30 5375 H 509.467 0.53646 -0.526986 0
M  V30 5376 H 511.438 1.44187 -2.61252 0
M  V30 5377 C 510.187 2.99912 -1.75921 0
M  V30 5378 H 509.51 3.01496 -2.62565 0
M  V30 5379 H 510.95 3.77931 -1.92209 0
M  V30 5380 C 509.409 3.33092 -0.505088 0
M  V30 5381 O 509.939 4.00019 0.367085 0
M  V30 5382 N 508.145 2.88278 -0.366599 0
M  V30 5383 H 507.692 2.33989 -1.07735 0
M  V30 5384 H 507.65 3.10846 0.47142 0
M  V30 5385 N 511.423 1.38739 0.74761 0
M  V30 5386 C 512.672 1.3459 1.50228 0
M  V30 5387 C 512.985 -0.0595592 1.95509 0
M  V30 5388 O 514.191 -0.22361 2.70578 0
M  V30 5389 C 512.647 2.36377 2.71393 0
M  V30 5390 C 512.255 3.82573 2.33113 0
M  V30 5391 C 513.999 2.41281 3.49262 0
M  V30 5392 C 511.906 4.76032 3.50924 0
M  V30 5393 H 510.836 0.500312 0.564096 0
M  V30 5394 H 513.487 1.64324 0.8167 0
M  V30 5395 H 511.869 1.99694 3.41962 0
M  V30 5396 H 513.043 4.28227 1.70171 0
M  V30 5397 H 511.358 3.80844 1.68365 0
M  V30 5398 H 513.955 3.08301 4.36869 0
M  V30 5399 H 514.298 1.43353 3.9084 0
M  V30 5400 H 514.831 2.76793 2.85711 0
M  V30 5401 H 511.57 5.75177 3.14408 0
M  V30 5402 H 511.09 4.35066 4.12889 0
M  V30 5403 H 512.769 4.94331 4.17427 0
M  V30 5404 N 512.901 -0.976442 1.23707 0
M  V30 5405 C 513.831 -2.08749 1.04624 0
M  V30 5406 C 514.812 -1.70057 -0.0380956 0
M  V30 5407 O 515.997 -1.93782 0.127308 0
M  V30 5408 C 513.127 -3.41335 0.640902 0
M  V30 5409 C 512.081 -3.93947 1.67302 0
M  V30 5410 C 511.407 -5.22774 1.12301 0
M  V30 5411 C 512.707 -4.22769 3.06697 0
M  V30 5412 H 514.401 -2.24972 1.97555 0
M  V30 5413 H 511.947 -1.08108 0.951247 0
M  V30 5414 H 513.9 -4.18489 0.494434 0
M  V30 5415 H 512.624 -3.24988 -0.324099 0
M  V30 5416 H 511.283 -3.18941 1.80755 0
M  V30 5417 H 510.931 -5.0278 0.148877 0
M  V30 5418 H 510.631 -5.58942 1.81267 0
M  V30 5419 H 512.155 -6.02546 0.988479 0
M  V30 5420 H 513.569 -4.90659 2.96524 0
M  V30 5421 H 511.966 -4.70147 3.72937 0
M  V30 5422 H 513.036 -3.29885 3.55392 0
M  V30 5423 N 514.379 -1.04941 -1.1758 0
M  V30 5424 C 515.327 -0.64204 -2.23563 0
M  V30 5425 C 516.321 0.335453 -1.66045 0
M  V30 5426 O 517.527 0.20179 -1.78865 0
M  V30 5427 H 513.902 -0.18944 -0.727748 0
M  V30 5428 H 515.873 -1.54609 -2.55223 0
M  V30 5429 C 514.622 -0.0301051 -3.47687 0
M  V30 5430 H 513.945 -0.773339 -3.92249 0
M  V30 5431 H 515.385 0.217592 -4.23441 0
M  V30 5432 C 513.844 1.2225 -3.13937 0
M  V30 5433 O 514.374 2.3122 -3.28482 0
M  V30 5434 N 512.58 1.11917 -2.68185 0
M  V30 5435 H 512.127 0.232403 -2.5655 0
M  V30 5436 H 512.085 1.95814 -2.45976 0
M  V30 5437 N 515.857 1.33968 -0.830081 0
M  V30 5438 C 517.134 1.92554 -0.343858 0
M  V30 5439 C 517.514 1.7573 1.16971 0
M  V30 5440 O 516.862 1.14035 1.98011 0
M  V30 5441 C 517.072 3.40147 -0.781073 0
M  V30 5442 C 518.42 4.17299 -0.78402 0
M  V30 5443 O 519.444 3.48762 -0.724112 0
M  V30 5444 O 518.303 5.39631 -0.863739 0
M  V30 5445 H 515.397 0.821469 -0.0954827 0
M  V30 5446 H 517.943 1.42897 -0.915348 0
M  V30 5447 H 516.715 3.46225 -1.82329 0
M  V30 5448 H 516.338 3.97166 -0.18567 0
M  V30 5449 N 517.335 0.585699 1.46312 0
M  V30 5450 C 518.751 0.247607 1.57668 0
M  V30 5451 C 518.951 -1.25007 1.58037 0
M  V30 5452 O 518.007 -2.03196 1.49893 0
M  V30 5453 C 519.32 0.899456 2.86933 0
M  V30 5454 C 520.868 0.873326 3.00569 0
M  V30 5455 C 521.343 1.50477 4.32574 0
M  V30 5456 N 522.834 1.46925 4.3928 0
M  V30 5457 C 523.569 1.92719 5.40044 0
M  V30 5458 N 523.065 2.46499 6.47464 0
M  V30 5459 N 524.858 1.83617 5.31264 0
M  V30 5460 H 517.009 1.55841 1.44317 0
M  V30 5461 H 519.272 0.651564 0.688599 0
M  V30 5462 H 518.978 1.95313 2.92482 0
M  V30 5463 H 518.852 0.409476 3.74971 0
M  V30 5464 H 521.239 -0.171736 2.946 0
M  V30 5465 H 521.32 1.40136 2.13999 0
M  V30 5466 H 520.964 2.54905 4.39302 0
M  V30 5467 H 520.894 0.951944 5.17924 0
M  V30 5468 H 523.385 1.07616 3.62253 0
M  V30 5469 H 523.698 2.79291 7.20567 0
M  V30 5470 H 522.043 2.50526 6.48276 0
M  V30 5471 H 525.234 1.41358 4.46246 0
M  V30 5472 H 525.407 2.19622 6.09648 0
M  V30 5473 N 518.813 -1.54241 0.323641 0
M  V30 5474 C 519.761 -2.25813 -0.557804 0
M  V30 5475 C 520.755 -1.27225 -1.11849 0
M  V30 5476 O 521.961 -1.45001 -1.06652 0
M  V30 5477 H 518.336 -0.72532 -0.198532 0
M  V30 5478 H 520.307 -2.98322 0.0681112 0
M  V30 5479 C 519.056 -3.02913 -1.70701 0
M  V30 5480 H 518.379 -3.78593 -1.28482 0
M  V30 5481 H 519.819 -3.56238 -2.29935 0
M  V30 5482 C 518.278 -2.11217 -2.62467 0
M  V30 5483 O 518.808 -1.69508 -3.64184 0
M  V30 5484 N 517.014 -1.76704 -2.30703 0
M  V30 5485 H 516.561 -2.1082 -1.48029 0
M  V30 5486 H 516.519 -1.15631 -2.92364 0
M  V30 5487 N 520.291 -0.0518155 -1.57515 0
M  V30 5488 C 521.702 0.483787 -1.80323 0
M  V30 5489 C 522.053 1.70879 -0.964099 0
M  V30 5490 O 521.178 2.15643 -0.180872 0
M  V30 5491 C 521.773 0.884459 -3.27052 0
M  V30 5492 C 520.332 1.36504 -3.50776 0
M  V30 5493 C 519.479 0.340539 -2.75201 0
M  V30 5494 H 522.43 -0.277691 -1.56252 0
M  V30 5495 H 522.451 1.74733 -3.38007 0
M  V30 5496 H 521.963 -0.00731093 -3.88099 0
M  V30 5497 H 520.064 2.27598 -2.95009 0
M  V30 5498 H 520.177 1.35675 -4.59488 0
M  V30 5499 H 518.541 0.81356 -2.41357 0
M  V30 5500 H 519.324 -0.543156 -3.38976 0
M  V30 5501 N 521.769 1.56035 0.221574 0
M  V30 5502 C 523.015 1.79312 0.947372 0
M  V30 5503 C 523.348 0.621453 1.83988 0
M  V30 5504 O 522.623 -0.379287 1.90766 0
M  V30 5505 C 522.906 3.1267 1.78633 0
M  V30 5506 C 522.759 4.40284 0.920312 0
M  V30 5507 C 524.078 3.4247 2.7641 0
M  V30 5508 H 521.197 0.652328 0.342982 0
M  V30 5509 H 523.839 1.88765 0.216244 0
M  V30 5510 H 521.989 3.04741 2.40967 0
M  V30 5511 H 523.661 4.60232 0.313718 0
M  V30 5512 H 521.904 4.33212 0.225734 0
M  V30 5513 H 522.575 5.30033 1.54171 0
M  V30 5514 H 525.051 3.50526 2.24211 0
M  V30 5515 H 523.927 4.3695 3.32213 0
M  V30 5516 H 524.188 2.64635 3.54148 0
M  V30 5517 N 523.247 -0.488276 1.49845 0
M  V30 5518 C 524.493 -1.24341 1.6021 0
M  V30 5519 C 524.826 -1.91967 0.293651 0
M  V30 5520 O 524.101 -1.81323 -0.703718 0
M  V30 5521 C 524.384 -2.3005 2.77036 0
M  V30 5522 C 524.237 -1.66842 4.17713 0
M  V30 5523 C 525.556 -3.31509 2.89464 0
M  V30 5524 H 522.675 -0.450704 0.583125 0
M  V30 5525 H 525.317 -0.539673 1.82174 0
M  V30 5526 H 523.467 -2.90071 2.58439 0
M  V30 5527 H 525.139 -1.1055 4.47858 0
M  V30 5528 H 523.382 -0.972079 4.22768 0
M  V30 5529 H 524.053 -2.43576 4.95353 0
M  V30 5530 H 526.529 -2.81493 3.06433 0
M  V30 5531 H 525.405 -4.02822 3.72861 0
M  V30 5532 H 525.666 -3.94603 1.99351 0
M  V30 5533 N 524.725 -1.39134 -0.740242 0
M  V30 5534 C 525.953 -1.39334 -1.5295 0
M  V30 5535 C 526.368 0.0135008 -1.88795 0
M  V30 5536 O 525.725 0.983524 -1.5373 0
M  V30 5537 C 525.776 -2.2614 -2.82034 0
M  V30 5538 O 525.497 -3.61345 -2.47712 0
M  V30 5539 C 526.998 -2.34666 -3.76094 0
M  V30 5540 H 524.218 -0.476103 -0.472828 0
M  V30 5541 H 526.762 -1.82883 -0.9151 0
M  V30 5542 H 524.917 -1.86018 -3.39818 0
M  V30 5543 H 525.331 -4.07194 -3.30595 0
M  V30 5544 H 526.805 -2.99663 -4.63579 0
M  V30 5545 H 527.282 -1.36426 -4.17474 0
M  V30 5546 H 527.888 -2.75236 -3.2423 0
M  V30 5547 N 526.204 0.969867 -1.24223 0
M  V30 5548 C 527.114 2.09806 -1.0497 0
M  V30 5549 C 528.13 1.73998 0.00886455 0
M  V30 5550 O 529.306 2.00513 -0.188848 0
M  V30 5551 C 526.371 3.40467 -0.654452 0
M  V30 5552 C 525.432 3.90236 -1.78926 0
M  V30 5553 C 524.665 5.14662 -1.41277 0
M  V30 5554 O 524.888 5.69602 -0.301632 0
M  V30 5555 O 523.822 5.58761 -2.23763 0
M  V30 5556 H 527.648 2.28942 -1.99548 0
M  V30 5557 H 525.233 1.08197 -1.03023 0
M  V30 5558 H 527.115 4.19039 -0.445452 0
M  V30 5559 H 525.79 3.22636 0.262216 0
M  V30 5560 H 524.697 3.12735 -2.05299 0
M  V30 5561 H 526.03 4.1254 -2.68462 0
M  V30 5562 N 527.682 1.05563 1.17022 0
M  V30 5563 C 528.959 0.68165 1.83338 0
M  V30 5564 C 529.339 -0.837665 1.93769 0
M  V30 5565 O 528.687 -1.74507 1.47511 0
M  V30 5566 C 528.897 1.375 3.20772 0
M  V30 5567 C 530.245 1.51545 3.96635 0
M  V30 5568 O 531.269 1.33431 3.30264 0
M  V30 5569 O 530.128 1.812 5.15586 0
M  V30 5570 H 527.222 0.240412 0.791285 0
M  V30 5571 H 529.768 1.15545 1.24288 0
M  V30 5572 H 528.54 2.41135 3.08171 0
M  V30 5573 H 528.163 0.890798 3.87493 0
M  V30 5574 N 529.16 -1.33526 0.837174 0
M  V30 5575 C 530.406 -1.9813 0.432704 0
M  V30 5576 C 530.739 -1.66168 -1.00508 0
M  V30 5577 O 530.014 -0.94069 -1.70239 0
M  V30 5578 C 530.297 -3.54151 0.651834 0
M  V30 5579 C 530.15 -3.95806 2.13676 0
M  V30 5580 C 531.469 -4.39993 0.0968937 0
M  V30 5581 H 528.588 -0.719713 0.15869 0
M  V30 5582 H 531.23 -1.58193 1.05237 0
M  V30 5583 H 529.38 -3.88301 0.124369 0
M  V30 5584 H 531.052 -3.71921 2.72896 0
M  V30 5585 H 529.295 -3.45599 2.62191 0
M  V30 5586 H 529.966 -5.0447 2.24084 0
M  V30 5587 H 532.442 -4.12479 0.547733 0
M  V30 5588 H 531.318 -5.48186 0.279917 0
M  V30 5589 H 531.579 -4.3066 -0.9992 0
M  V30 5590 N 530.638 -0.59345 -1.46 0
M  V30 5591 C 531.548 0.135817 -2.34207 0
M  V30 5592 C 532.564 0.875008 -1.50398 0
M  V30 5593 O 533.74 0.835778 -1.83239 0
M  V30 5594 C 530.805 1.12977 -3.27776 0
M  V30 5595 C 529.866 0.394081 -4.27487 0
M  V30 5596 C 529.099 1.34068 -5.16586 0
M  V30 5597 O 529.322 2.5778 -5.08828 0
M  V30 5598 O 528.256 0.845426 -5.95933 0
M  V30 5599 H 532.082 -0.588691 -2.9794 0
M  V30 5600 H 529.667 -0.353784 -1.45151 0
M  V30 5601 H 531.549 1.70261 -3.85473 0
M  V30 5602 H 530.224 1.83556 -2.66625 0
M  V30 5603 H 529.131 -0.220869 -3.73447 0
M  V30 5604 H 530.464 -0.270939 -4.91454 0
M  V30 5605 N 532.116 1.54067 -0.331816 0
M  V30 5606 C 533.364 2.00319 0.267739 0
M  V30 5607 C 533.685 1.22148 1.52003 0
M  V30 5608 O 532.955 0.325494 1.93177 0
M  V30 5609 H 531.535 0.740014 0.101922 0
M  V30 5610 H 534.197 1.89628 -0.450267 0
M  V30 5611 H 533.293 3.07765 0.518385 0
M  V30 5612 N 533.594 0.0601682 1.57485 0
M  V30 5613 C 534.871 -0.651956 1.84415 0
M  V30 5614 C 535.251 -1.88498 0.950361 0
M  V30 5615 O 534.599 -2.28496 0.0136719 0
M  V30 5616 C 534.809 -1.00069 3.34346 0
M  V30 5617 C 536.157 -1.37915 4.01578 0
M  V30 5618 O 537.181 -1.09277 3.39024 0
M  V30 5619 O 536.04 -1.91399 5.11887 0
M  V30 5620 H 533.134 -0.322668 0.761455 0
M  V30 5621 H 535.68 0.0902159 1.6946 0
M  V30 5622 H 534.452 -0.124463 3.91102 0
M  V30 5623 H 534.075 -1.80001 3.54521 0
M  V30 5624 N 535.072 -1.5615 -0.213296 0
M  V30 5625 C 536.019 -1.93086 -1.26437 0
M  V30 5626 C 536.989 -0.789086 -1.4616 0
M  V30 5627 O 538.174 -1.04569 -1.59593 0
M  V30 5628 C 535.314 -2.26003 -2.608 0
M  V30 5629 C 534.427 -3.53156 -2.48807 0
M  V30 5630 C 533.562 -3.7548 -3.7575 0
M  V30 5631 C 532.601 -4.96119 -3.58514 0
M  V30 5632 N 531.738 -5.14791 -4.77425 0
M  V30 5633 H 536.578 -2.82707 -0.942376 0
M  V30 5634 H 534.115 -1.39919 -0.454001 0
M  V30 5635 H 536.073 -2.431 -3.39055 0
M  V30 5636 H 534.703 -1.39546 -2.91079 0
M  V30 5637 H 533.755 -3.44207 -1.61944 0
M  V30 5638 H 535.067 -4.41565 -2.31996 0
M  V30 5639 H 534.221 -3.92718 -4.62447 0
M  V30 5640 H 532.96 -2.85368 -3.95495 0
M  V30 5641 H 531.965 -4.78823 -2.70201 0
M  V30 5642 H 533.19 -5.87724 -3.40231 0
M  V30 5643 H 531.136 -4.27623 -4.97468 0
M  V30 5644 H 531.053 -5.97347 -4.63371 0
M  V30 5645 H 532.321 -5.36471 -5.65525 0
M  V30 5646 N 536.55 0.480323 -1.50102 0
M  V30 5647 C 537.497 1.57946 -1.6829 0
M  V30 5648 C 538.467 1.57611 -0.524223 0
M  V30 5649 O 539.652 1.75282 -0.753709 0
M  V30 5650 C 536.792 2.95978 -1.77457 0
M  V30 5651 C 535.905 3.06173 -3.04766 0
M  V30 5652 C 535.04 4.35063 -3.04784 0
M  V30 5653 C 534.079 4.38966 -4.26586 0
M  V30 5654 N 533.216 5.59314 -4.24396 0
M  V30 5655 H 538.056 1.41743 -2.62131 0
M  V30 5656 H 535.593 0.689304 -1.2995 0
M  V30 5657 H 537.551 3.76011 -1.80752 0
M  V30 5658 H 536.181 3.10837 -0.870637 0
M  V30 5659 H 535.233 2.19071 -3.10986 0
M  V30 5660 H 536.545 3.04916 -3.9475 0
M  V30 5661 H 535.699 5.23436 -3.06757 0
M  V30 5662 H 534.438 4.38915 -2.12614 0
M  V30 5663 H 533.443 3.48992 -4.24835 0
M  V30 5664 H 534.668 4.36813 -5.19972 0
M  V30 5665 H 532.614 5.63969 -3.35074 0
M  V30 5666 H 532.531 5.5976 -5.08138 0
M  V30 5667 H 533.799 6.49837 -4.30502 0
M  V30 5668 N 538.028 1.39524 0.732853 0
M  V30 5669 C 539.277 1.36175 1.48792 0
M  V30 5670 C 539.59 -0.0388195 1.95561 0
M  V30 5671 O 540.796 -0.194899 2.708 0
M  V30 5672 C 539.252 2.39242 2.68871 0
M  V30 5673 C 538.86 3.85024 2.29042 0
M  V30 5674 C 540.604 2.44972 3.46683 0
M  V30 5675 C 538.511 4.79727 3.45856 0
M  V30 5676 H 537.441 0.506267 0.558757 0
M  V30 5677 H 540.092 1.65181 0.799226 0
M  V30 5678 H 538.474 2.0331 3.39825 0
M  V30 5679 H 539.648 4.30008 1.6562 0
M  V30 5680 H 537.963 3.82609 1.64316 0
M  V30 5681 H 540.56 3.12918 4.33574 0
M  V30 5682 H 540.903 1.4749 3.89297 0
M  V30 5683 H 541.436 2.79808 2.82759 0
M  V30 5684 H 538.175 5.78479 3.08289 0
M  V30 5685 H 537.695 4.39421 4.08251 0
M  V30 5686 H 539.374 4.98731 4.12161 0
M  V30 5687 N 539.506 -0.963266 1.24736 0
M  V30 5688 C 540.736 -1.73913 1.11524 0
M  V30 5689 C 541.144 -1.86218 -0.334612 0
M  V30 5690 O 540.487 -1.3531 -1.24245 0
M  V30 5691 C 540.549 -3.17501 1.68622 0
M  V30 5692 C 540.213 -3.28655 3.17546 0
M  V30 5693 C 541.21 -3.13637 4.14642 0
M  V30 5694 C 538.895 -3.52753 3.5759 0
M  V30 5695 C 540.889 -3.2255 5.49764 0
M  V30 5696 C 538.576 -3.61303 4.92852 0
M  V30 5697 C 539.574 -3.46214 5.88748 0
M  V30 5698 O 539.262 -3.5443 7.2155 0
M  V30 5699 H 538.994 -0.552057 0.390139 0
M  V30 5700 H 541.548 -1.2177 1.65412 0
M  V30 5701 H 539.778 -3.70969 1.09172 0
M  V30 5702 H 541.467 -3.76914 1.50635 0
M  V30 5703 H 542.233 -2.94899 3.85045 0
M  V30 5704 H 538.112 -3.63561 2.83451 0
M  V30 5705 H 541.656 -3.1069 6.24594 0
M  V30 5706 H 537.553 -3.79556 5.22118 0
M  V30 5707 H 538.321 -3.71116 7.29531 0
M  V30 5708 N 540.985 -1.06182 -1.16461 0
M  V30 5709 C 541.933 -0.665716 -2.2287 0
M  V30 5710 C 542.927 0.317822 -1.66392 0
M  V30 5711 O 544.133 0.182807 -1.79069 0
M  V30 5712 H 540.508 -0.197148 -0.725697 0
M  V30 5713 H 542.479 -1.57307 -2.53569 0
M  V30 5714 C 541.228 -0.0669803 -3.47635 0
M  V30 5715 H 540.551 -0.814899 -3.91407 0
M  V30 5716 H 541.991 0.172669 -4.23648 0
M  V30 5717 C 540.45 1.18913 -3.15216 0
M  V30 5718 O 540.98 2.27723 -3.30916 0
M  V30 5719 N 539.186 1.09066 -2.69357 0
M  V30 5720 H 538.733 0.20518 -2.56782 0
M  V30 5721 H 538.691 1.93195 -2.48039 0
M  V30 5722 N 542.463 1.3308 -0.844243 0
M  V30 5723 C 543.426 2.27403 -0.286485 0
M  V30 5724 C 544.426 1.51179 0.547872 0
M  V30 5725 O 545.616 1.70421 0.360886 0
M  V30 5726 C 542.748 3.35653 0.595813 0
M  V30 5727 H 543.941 2.78248 -1.11885 0
M  V30 5728 H 541.494 1.43574 -0.617749 0
M  V30 5729 H 542.229 2.90058 1.4504 0
M  V30 5730 H 542.014 3.921 -0.00125994 0
M  V30 5731 H 543.504 4.05958 0.979168 0
M  V30 5732 N 543.941 0.601185 1.45683 0
M  V30 5733 C 544.851 -0.123395 2.34275 0
M  V30 5734 C 545.867 -0.86702 1.5086 0
M  V30 5735 O 547.043 -0.826049 1.8368 0
M  V30 5736 C 544.108 -1.11237 3.2837 0
M  V30 5737 C 543.169 -0.371405 4.2769 0
M  V30 5738 C 542.402 -1.31327 5.1729 0
M  V30 5739 O 542.625 -2.55078 5.10188 0
M  V30 5740 O 541.559 -0.813811 5.96373 0
M  V30 5741 H 545.385 0.604483 2.97623 0
M  V30 5742 H 542.97 0.361477 1.44961 0
M  V30 5743 H 544.852 -1.68214 3.8637 0
M  V30 5744 H 543.527 -1.82139 2.67595 0
M  V30 5745 H 542.434 0.24067 3.73325 0
M  V30 5746 H 543.767 0.296998 4.91303 0
M  V30 5747 N 545.419 -1.53889 0.339982 0
M  V30 5748 C 546.665 -2.01152 -0.258003 0
M  V30 5749 C 546.998 -1.22749 -1.50487 0
M  V30 5750 O 546.273 -0.314156 -1.91946 0
M  V30 5751 C 546.556 -3.55468 -0.575717 0
M  V30 5752 C 546.409 -4.44584 0.682996 0
M  V30 5753 C 547.728 -4.1768 -1.38677 0
M  V30 5754 H 544.847 -0.731198 -0.0922992 0
M  V30 5755 H 547.489 -1.84352 0.459814 0
M  V30 5756 H 545.639 -3.69914 -1.18725 0
M  V30 5757 H 547.311 -4.41981 1.32102 0
M  V30 5758 H 545.554 -4.13592 1.3086 0
M  V30 5759 H 546.225 -5.5043 0.416001 0
M  V30 5760 H 548.701 -4.0691 -0.869705 0
M  V30 5761 H 547.577 -5.25734 -1.57783 0
M  V30 5762 H 547.838 -3.72069 -2.38782 0
M  V30 5763 N 546.897 -0.0685191 -1.57451 0
M  V30 5764 C 547.86 0.885173 -2.11417 0
M  V30 5765 C 548.86 1.22853 -1.03748 0
M  V30 5766 O 550.05 1.16235 -1.2975 0
M  V30 5767 C 547.182 2.18964 -2.61281 0
M  V30 5768 H 548.375 0.417034 -2.96986 0
M  V30 5769 H 545.928 0.18014 -1.55258 0
M  V30 5770 H 546.663 2.70321 -1.79156 0
M  V30 5771 H 546.448 1.9534 -3.39977 0
M  V30 5772 H 547.938 2.87242 -3.0312 0
M  V30 5773 N 548.375 1.56261 0.205012 0
M  V30 5774 C 549.285 1.96944 1.27476 0
M  V30 5775 C 550.301 0.875636 1.50362 0
M  V30 5776 O 551.477 1.18058 1.6317 0
M  V30 5777 C 548.542 2.29219 2.60115 0
M  V30 5778 C 547.603 3.52255 2.45387 0
M  V30 5779 C 546.836 3.8298 3.71701 0
M  V30 5780 O 547.059 3.15138 4.75441 0
M  V30 5781 O 545.993 4.76435 3.67823 0
M  V30 5782 H 549.819 2.88144 0.959527 0
M  V30 5783 H 547.404 1.43686 0.409217 0
M  V30 5784 H 549.286 2.51098 3.3842 0
M  V30 5785 H 547.961 1.4119 2.91285 0
M  V30 5786 H 546.868 3.35635 1.65227 0
M  V30 5787 H 548.201 4.40719 2.19152 0
M  V30 5788 N 549.853 -0.472356 1.50355 0
M  V30 5789 C 551.099 -1.22348 1.62488 0
M  V30 5790 C 551.454 -1.89711 0.320574 0
M  V30 5791 O 550.747 -1.79074 -0.68141 0
M  V30 5792 C 550.941 -2.29257 2.74182 0
M  V30 5793 C 550.77 -1.72383 4.15348 0
M  V30 5794 C 549.54 -1.52411 4.81766 0
M  V30 5795 C 551.738 -1.21949 4.99633 0
M  V30 5796 N 549.72 -0.907669 6.07153 0
M  V30 5797 C 551.091 -0.726191 6.15732 0
M  V30 5798 C 553.146 -1.10792 4.85417 0
M  V30 5799 C 551.849 -0.132322 7.19178 0
M  V30 5800 C 553.875 -0.52799 5.89038 0
M  V30 5801 C 553.237 -0.0450604 7.04386 0
M  V30 5802 H 549.336 -0.436631 0.648751 0
M  V30 5803 H 551.92 -0.525698 1.87469 0
M  V30 5804 H 550.091 -2.96464 2.50926 0
M  V30 5805 H 551.823 -2.9628 2.75681 0
M  V30 5806 H 548.578 -1.776 4.39039 0
M  V30 5807 H 549.002 -0.617897 6.74174 0
M  V30 5808 H 553.644 -1.46722 3.96525 0
M  V30 5809 H 551.362 0.239187 8.07746 0
M  V30 5810 H 554.948 -0.444046 5.80103 0
M  V30 5811 H 553.828 0.396659 7.83196 0
M  V30 5812 N 551.331 -1.39911 -0.725443 0
M  V30 5813 C 552.608 -1.28158 -1.47766 0
M  V30 5814 C 552.988 0.104545 -2.10841 0
M  V30 5815 O 552.336 1.11657 -1.99361 0
M  V30 5816 C 552.546 -2.41306 -2.52135 0
M  V30 5817 C 553.894 -2.81076 -3.18247 0
M  V30 5818 O 554.918 -2.40827 -2.62452 0
M  V30 5819 O 553.777 -3.50581 -4.19231 0
M  V30 5820 H 550.871 -0.502761 -0.656628 0
M  V30 5821 H 553.417 -1.51808 -0.758456 0
M  V30 5822 H 552.189 -3.33932 -2.03974 0
M  V30 5823 H 551.812 -2.19374 -3.31603 0
M  V30 5824 N 552.809 0.956637 -1.25245 0
M  V30 5825 C 553.756 2.053 -1.05454 0
M  V30 5826 C 554.726 1.66062 0.0356889 0
M  V30 5827 O 555.911 1.90415 -0.121099 0
M  V30 5828 C 553.051 3.38391 -0.677191 0
M  V30 5829 C 552.164 3.90758 -1.84206 0
M  V30 5830 C 551.299 5.12165 -1.40926 0
M  V30 5831 C 550.338 5.56757 -2.54338 0
M  V30 5832 N 549.475 6.69376 -2.11848 0
M  V30 5833 H 554.315 2.21562 -1.99284 0
M  V30 5834 H 551.852 1.08578 -0.992434 0
M  V30 5835 H 553.81 4.1488 -0.43938 0
M  V30 5836 H 552.44 3.22021 0.224127 0
M  V30 5837 H 551.492 3.10808 -2.19323 0
M  V30 5838 H 552.804 4.19802 -2.69383 0
M  V30 5839 H 551.958 5.96065 -1.13098 0
M  V30 5840 H 550.697 4.84832 -0.528175 0
M  V30 5841 H 549.702 4.71423 -2.82913 0
M  V30 5842 H 550.927 5.861 -3.43022 0
M  V30 5843 H 548.873 6.43756 -1.26153 0
M  V30 5844 H 548.79 6.97927 -2.90574 0
M  V30 5845 H 550.058 7.5669 -1.87191 0
M  V30 5846 N 554.287 1.06798 1.15896 0
M  V30 5847 C 555.217 0.704677 2.22613 0
M  V30 5848 C 556.198 -0.305252 1.67339 0
M  V30 5849 O 557.383 -0.179247 1.93371 0
M  V30 5850 C 554.513 0.0957325 3.47168 0
M  V30 5851 C 553.467 1.0322 4.15367 0
M  V30 5852 C 552.793 0.286293 5.33933 0
M  V30 5853 C 554.093 2.36341 4.65768 0
M  V30 5854 H 555.787 1.59688 2.53259 0
M  V30 5855 H 553.333 0.769257 1.21731 0
M  V30 5856 H 555.286 -0.170333 4.21056 0
M  V30 5857 H 554.01 -0.831516 3.15838 0
M  V30 5858 H 552.669 1.28309 3.43413 0
M  V30 5859 H 552.317 -0.644237 4.98857 0
M  V30 5860 H 552.017 0.910436 5.80504 0
M  V30 5861 H 553.541 0.0278938 6.10594 0
M  V30 5862 H 554.955 2.1561 5.31211 0
M  V30 5863 H 553.352 2.94299 5.2298 0
M  V30 5864 H 554.422 2.99047 3.81705 0
M  V30 5865 N 555.766 -1.3263 0.851289 0
M  V30 5866 C 557.182 -1.50162 0.5407 0
M  V30 5867 C 557.382 -1.78788 -0.929369 0
M  V30 5868 O 556.438 -1.85545 -1.71258 0
M  V30 5869 C 557.751 -2.64803 1.42478 0
M  V30 5870 C 559.299 -2.78688 1.42485 0
M  V30 5871 C 559.774 -3.96405 2.29407 0
M  V30 5872 N 561.265 -4.0366 2.27184 0
M  V30 5873 C 562 -4.93971 2.9117 0
M  V30 5874 N 561.496 -5.89313 3.64256 0
M  V30 5875 N 563.289 -4.87066 2.80576 0
M  V30 5876 H 555.44 -1.12315 1.80275 0
M  V30 5877 H 557.703 -0.553266 0.769806 0
M  V30 5878 H 557.409 -2.50368 2.46999 0
M  V30 5879 H 557.283 -3.60506 1.10974 0
M  V30 5880 H 559.67 -2.92547 0.387304 0
M  V30 5881 H 559.751 -1.83708 1.78002 0
M  V30 5882 H 559.395 -3.83304 3.33228 0
M  V30 5883 H 559.325 -4.90654 1.91224 0
M  V30 5884 H 561.816 -3.35435 1.74045 0
M  V30 5885 H 562.129 -6.54913 4.10255 0
M  V30 5886 H 560.474 -5.8935 3.68364 0
M  V30 5887 H 563.665 -4.11552 2.23031 0
M  V30 5888 H 563.838 -5.57248 3.30725 0
M  V30 5889 N 557.244 -0.608902 -1.45362 0
M  V30 5890 C 558.176 0.147318 -2.28726 0
M  V30 5891 C 559.189 0.830468 -1.40025 0
M  V30 5892 O 560.378 0.695636 -1.64387 0
M  V30 5893 C 557.478 1.22968 -3.15804 0
M  V30 5894 C 556.651 0.633391 -4.3279 0
M  V30 5895 C 555.71 1.60682 -5.01067 0
M  V30 5896 O 554.736 1.13261 -5.57818 0
M  V30 5897 N 555.938 2.94123 -5.00472 0
M  V30 5898 H 558.703 -0.568014 -2.94268 0
M  V30 5899 H 556.264 -0.448479 -1.55564 0
M  V30 5900 H 558.256 1.88072 -3.58345 0
M  V30 5901 H 556.826 1.84752 -2.52162 0
M  V30 5902 H 556.046 -0.195762 -3.93714 0
M  V30 5903 H 557.334 0.215255 -5.08344 0
M  V30 5904 H 556.732 3.3525 -4.55657 0
M  V30 5905 H 555.289 3.54646 -5.46872 0
M  V30 5906 N 558.722 1.53707 -0.348139 0
M  V30 5907 C 560.138 1.596 0.00361134 0
M  V30 5908 C 560.338 1.36394 1.4832 0
M  V30 5909 O 559.394 1.16046 2.24253 0
M  V30 5910 C 560.707 2.97512 -0.436682 0
M  V30 5911 C 562.255 3.10568 -0.389416 0
M  V30 5912 C 562.73 4.50866 -0.805249 0
M  V30 5913 N 564.221 4.56929 -0.759616 0
M  V30 5914 C 564.956 5.63643 -1.05327 0
M  V30 5915 N 564.452 6.78189 -1.41531 0
M  V30 5916 N 566.245 5.5354 -0.977207 0
M  V30 5917 H 558.396 1.67044 -1.31187 0
M  V30 5918 H 560.659 0.782559 -0.535075 0
M  V30 5919 H 560.365 3.19575 -1.46849 0
M  V30 5920 H 560.239 3.76742 0.185744 0
M  V30 5921 H 562.626 2.88226 0.633228 0
M  V30 5922 H 562.707 2.33387 -1.04711 0
M  V30 5923 H 562.351 4.73943 -1.82593 0
M  V30 5924 H 562.281 5.26452 -0.124989 0
M  V30 5925 H 564.772 3.74675 -0.49265 0
M  V30 5926 H 565.085 7.55541 -1.62411 0
M  V30 5927 H 563.43 6.79624 -1.45381 0
M  V30 5928 H 566.621 4.62932 -0.693675 0
M  V30 5929 H 566.794 6.36614 -1.2094 0
M  V30 5930 N 560.2 0.0768682 1.57412 0
M  V30 5931 C 561.13 -0.886026 2.16037 0
M  V30 5932 C 562.111 -1.30691 1.08876 0
M  V30 5933 O 563.296 -1.37705 1.36934 0
M  V30 5934 C 560.426 -2.1518 2.72608 0
M  V30 5935 C 559.38 -1.87015 3.8498 0
M  V30 5936 C 558.706 -3.20266 4.28175 0
M  V30 5937 C 560.006 -1.17143 5.08994 0
M  V30 5938 H 561.7 -0.397642 2.96748 0
M  V30 5939 H 559.246 -0.189823 1.42743 0
M  V30 5940 H 561.199 -2.82962 3.12266 0
M  V30 5941 H 559.923 -2.66269 1.89125 0
M  V30 5942 H 558.582 -1.21636 3.45833 0
M  V30 5943 H 558.23 -3.69207 3.41607 0
M  V30 5944 H 557.93 -3.0221 5.03927 0
M  V30 5945 H 559.454 -3.89237 4.70454 0
M  V30 5946 H 560.868 -1.75003 5.45937 0
M  V30 5947 H 559.265 -1.09328 5.90057 0
M  V30 5948 H 560.335 -0.151295 4.84664 0
M  V30 5949 N 561.678 -1.56367 -0.196722 0
M  V30 5950 C 562.608 -1.97442 -1.24655 0
M  V30 5951 C 563.589 -0.846147 -1.47561 0
M  V30 5952 O 564.774 -1.11035 -1.59326 0
M  V30 5953 C 561.904 -2.31253 -2.59112 0
M  V30 5954 C 560.858 -3.46804 -2.50821 0
M  V30 5955 C 560.184 -3.66286 -3.89536 0
M  V30 5956 C 561.484 -4.8104 -2.03465 0
M  V30 5957 H 563.178 -2.85388 -0.905216 0
M  V30 5958 H 560.724 -1.37304 -0.434002 0
M  V30 5959 H 562.677 -2.58583 -3.32736 0
M  V30 5960 H 561.401 -1.40188 -2.94983 0
M  V30 5961 H 560.06 -3.19563 -1.79653 0
M  V30 5962 H 559.708 -2.72555 -4.22756 0
M  V30 5963 H 559.408 -4.4402 -3.84864 0
M  V30 5964 H 560.932 -3.9599 -4.64784 0
M  V30 5965 H 562.346 -5.07411 -2.66846 0
M  V30 5966 H 560.743 -5.62232 -2.09798 0
M  V30 5967 H 561.813 -4.74732 -0.98781 0
M  V30 5968 N 563.156 0.464375 -1.50603 0
M  V30 5969 C 564.433 1.22549 -1.5245 0
M  V30 5970 C 564.813 2.09327 -0.273035 0
M  V30 5971 O 564.161 2.16074 0.743242 0
M  V30 5972 C 564.371 2.05074 -2.82393 0
M  V30 5973 C 565.719 2.63036 -3.33313 0
M  V30 5974 O 566.743 2.1531 -2.8376 0
M  V30 5975 O 565.602 3.5001 -4.19709 0
M  V30 5976 H 562.696 0.556471 -0.611775 0
M  V30 5977 H 565.242 0.475648 -1.62898 0
M  V30 5978 H 564.014 1.41169 -3.64948 0
M  V30 5979 H 563.637 2.87179 -2.7498 0
M  V30 5980 N 564.634 1.40294 0.718013 0
M  V30 5981 C 565.597 1.4012 1.81381 0
M  V30 5982 C 566.597 0.295405 1.58063 0
M  V30 5983 O 567.787 0.554187 1.6515 0
M  V30 5984 C 564.919 1.19056 3.19435 0
M  V30 5985 H 566.112 2.37645 1.82933 0
M  V30 5986 H 563.665 1.26107 0.923405 0
M  V30 5987 H 564.4 0.222809 3.23534 0
M  V30 5988 H 564.185 1.99152 3.37758 0
M  V30 5989 H 565.675 1.21716 3.99468 0
M  V30 5990 N 566.112 -0.949982 1.2575 0
M  V30 5991 C 567.528 -1.22191 1.02672 0
M  V30 5992 C 567.728 -1.99898 -0.253588 0
M  V30 5993 O 566.784 -2.33329 -0.965076 0
M  V30 5994 C 568.097 -1.99175 2.25277 0
M  V30 5995 C 569.645 -2.12201 2.30087 0
M  V30 5996 C 570.12 -2.92586 3.5236 0
M  V30 5997 N 571.611 -3.00163 3.52784 0
M  V30 5998 C 572.346 -3.62766 4.44059 0
M  V30 5999 N 571.842 -4.26943 5.45611 0
M  V30 6000 N 573.635 -3.59953 4.3173 0
M  V30 6001 H 565.786 -0.430258 2.07996 0
M  V30 6002 H 568.049 -0.252844 0.91366 0
M  V30 6003 H 567.755 -1.49479 3.18354 0
M  V30 6004 H 567.629 -2.99868 2.28821 0
M  V30 6005 H 570.016 -2.61093 1.3753 0
M  V30 6006 H 570.097 -1.10799 2.30559 0
M  V30 6007 H 569.741 -2.44383 4.45241 0
M  V30 6008 H 569.671 -3.94224 3.49134 0
M  V30 6009 H 572.162 -2.54529 2.79327 0
M  V30 6010 H 572.475 -4.72583 6.11461 0
M  V30 6011 H 570.82 -4.25557 5.49478 0
M  V30 6012 H 574.011 -3.09003 3.51617 0
M  V30 6013 H 574.184 -4.08455 5.03059 0
M  V30 6014 N 567.59 -1.07411 -1.15328 0
M  V30 6015 C 568.538 -0.689316 -2.22151 0
M  V30 6016 C 569.532 0.300156 -1.6672 0
M  V30 6017 O 570.738 0.163804 -1.79253 0
M  V30 6018 H 567.113 -0.204834 -0.723566 0
M  V30 6019 H 569.084 -1.59988 -2.51886 0
M  V30 6020 C 567.833 -0.103848 -3.47545 0
M  V30 6021 H 567.156 -0.856367 -3.90521 0
M  V30 6022 H 568.596 0.127725 -4.23808 0
M  V30 6023 C 567.055 1.15563 -3.1646 0
M  V30 6024 O 567.585 2.242 -3.33312 0
M  V30 6025 N 565.791 1.06203 -2.70498 0
M  V30 6026 H 565.338 0.177933 -2.56985 0
M  V30 6027 H 565.296 1.90553 -2.50074 0
M  V30 6028 N 569.068 1.32177 -0.85831 0
M  V30 6029 C 570.015 2.28794 -0.303607 0
M  V30 6030 C 570.985 1.55213 0.591453 0
M  V30 6031 O 572.17 1.83418 0.525585 0
M  V30 6032 C 569.31 3.41475 0.49889 0
M  V30 6033 C 568.423 4.2993 -0.422373 0
M  V30 6034 C 567.558 5.29743 0.393111 0
M  V30 6035 C 566.597 6.09842 -0.525317 0
M  V30 6036 N 565.734 7.01643 0.253208 0
M  V30 6037 H 570.574 2.75631 -1.13276 0
M  V30 6038 H 568.111 1.35606 -0.570026 0
M  V30 6039 H 570.069 4.05531 0.979826 0
M  V30 6040 H 568.699 2.95779 1.29284 0
M  V30 6041 H 567.751 3.66422 -1.02171 0
M  V30 6042 H 569.063 4.85899 -1.12709 0
M  V30 6043 H 568.217 5.9942 0.937056 0
M  V30 6044 H 566.956 4.744 1.13117 0
M  V30 6045 H 565.961 5.39066 -1.08112 0
M  V30 6046 H 567.186 6.6727 -1.26205 0
M  V30 6047 H 565.132 6.48725 0.974295 0
M  V30 6048 H 565.049 7.54981 -0.392398 0
M  V30 6049 H 566.317 7.756 0.778761 0
M  V30 6050 N 570.547 0.616602 1.45037 0
M  V30 6051 C 571.796 0.112861 2.01384 0
M  V30 6052 C 572.109 -1.26758 1.48969 0
M  V30 6053 O 573.315 -1.86454 1.9735 0
M  V30 6054 C 571.771 0.151057 3.59583 0
M  V30 6055 C 571.379 1.53191 4.20995 0
M  V30 6056 C 573.123 -0.296974 4.2346 0
M  V30 6057 C 571.03 1.526 5.71373 0
M  V30 6058 H 569.96 0.0384254 0.75302 0
M  V30 6059 H 572.611 0.773262 1.66412 0
M  V30 6060 H 570.993 -0.57617 3.91786 0
M  V30 6061 H 572.167 2.28156 4.00352 0
M  V30 6062 H 570.482 1.92279 3.69348 0
M  V30 6063 H 573.079 -0.320712 5.33737 0
M  V30 6064 H 573.422 -1.32145 3.9477 0
M  V30 6065 H 573.955 0.377279 3.96007 0
M  V30 6066 H 570.694 2.52837 6.04776 0
M  V30 6067 H 570.214 0.819064 5.94181 0
M  V30 6068 H 571.893 1.25357 6.3474 0
M  V30 6069 N 572.025 -1.5352 0.356285 0
M  V30 6070 C 573.253 -2.05534 -0.237328 0
M  V30 6071 C 573.668 -1.23043 -1.43199 0
M  V30 6072 O 573.025 -0.268821 -1.80509 0
M  V30 6073 C 573.076 -3.55791 -0.639933 0
M  V30 6074 O 572.797 -4.35154 0.507233 0
M  V30 6075 C 574.298 -4.24027 -1.29292 0
M  V30 6076 H 571.518 -0.669585 -0.0435572 0
M  V30 6077 H 574.062 -1.97988 0.511963 0
M  V30 6078 H 572.217 -3.63518 -1.33915 0
M  V30 6079 H 572.631 -5.24178 0.18375 0
M  V30 6080 H 574.105 -5.30509 -1.52527 0
M  V30 6081 H 574.582 -3.77166 -2.25039 0
M  V30 6082 H 575.188 -4.20527 -0.63539 0
M  V30 6083 N 573.503 -0.0852151 -1.57369 0
M  V30 6084 C 574.728 0.592872 -1.98746 0
M  V30 6085 C 575.153 1.61538 -0.963689 0
M  V30 6086 O 574.511 1.81168 0.069071 0
M  V30 6087 C 574.559 1.22599 -3.39119 0
M  V30 6088 O 573.663 2.34185 -3.39457 0
M  V30 6089 H 573.004 0.151314 -0.646529 0
M  V30 6090 H 575.534 -0.163703 -2.03944 0
M  V30 6091 H 575.544 1.56965 -3.76598 0
M  V30 6092 H 574.219 0.476831 -4.13158 0
M  V30 6093 H 572.796 2.01512 -3.13763 0
M  V30 6094 N 574.981 1.5647 0.188427 0
M  V30 6095 C 575.944 1.9421 1.21718 0
M  V30 6096 C 576.944 0.823901 1.38089 0
M  V30 6097 O 578.134 1.09122 1.35787 0
M  V30 6098 C 575.266 2.22197 2.58537 0
M  V30 6099 H 576.459 2.86252 0.894418 0
M  V30 6100 H 574.012 1.50263 0.430211 0
M  V30 6101 H 574.747 1.32814 2.95856 0
M  V30 6102 H 574.532 3.03688 2.48025 0
M  V30 6103 H 576.022 2.52376 3.3271 0
M  V30 6104 N 576.459 -0.456382 1.50847 0
M  V30 6105 C 577.369 -1.57805 1.73594 0
M  V30 6106 C 578.385 -1.62599 0.619476 0
M  V30 6107 O 579.561 -1.80195 0.899532 0
M  V30 6108 C 576.626 -2.93926 1.8387 0
M  V30 6109 C 575.687 -2.99402 3.07663 0
M  V30 6110 C 574.92 -4.29031 3.1744 0
M  V30 6111 O 575.143 -5.20358 2.33631 0
M  V30 6112 O 574.077 -4.40401 4.10281 0
M  V30 6113 H 577.903 -1.41531 2.68705 0
M  V30 6114 H 575.488 -0.637422 1.3512 0
M  V30 6115 H 577.37 -3.74747 1.92725 0
M  V30 6116 H 576.045 -3.10368 0.91944 0
M  V30 6117 H 574.952 -2.17606 3.043 0
M  V30 6118 H 576.285 -2.87901 3.99216 0
M  V30 6119 N 577.937 -1.40673 -0.710563 0
M  V30 6120 C 579.162 -1.42741 -1.50465 0
M  V30 6121 C 579.587 -0.0302116 -1.88076 0
M  V30 6122 O 578.945 0.962945 -1.53613 0
M  V30 6123 C 578.993 -2.32873 -2.75322 0
M  V30 6124 O 578.097 -1.77544 -3.72226 0
M  V30 6125 H 577.438 -0.485056 -0.45345 0
M  V30 6126 H 579.968 -1.84961 -0.874681 0
M  V30 6127 H 579.978 -2.48233 -3.23797 0
M  V30 6128 H 578.653 -3.34401 -2.47283 0
M  V30 6129 H 577.23 -1.71556 -3.31093 0
M  V30 6130 N 579.415 0.9433 -1.26252 0
M  V30 6131 C 580.378 2.02326 -1.07689 0
M  V30 6132 C 581.378 1.60779 -0.0259174 0
M  V30 6133 O 582.568 1.72108 -0.269134 0
M  V30 6134 C 579.7 3.34886 -0.63752 0
M  V30 6135 H 580.893 2.20225 -2.0357 0
M  V30 6136 H 578.446 1.12197 -1.08819 0
M  V30 6137 H 579.181 3.22684 0.323377 0
M  V30 6138 H 578.966 3.66393 -1.39637 0
M  V30 6139 H 580.456 4.14231 -0.529418 0
M  V30 6140 N 580.893 1.08022 1.14757 0
M  V30 6141 C 582.139 0.808705 1.85978 0
M  V30 6142 C 582.472 -0.663764 1.82504 0
M  V30 6143 O 581.747 -1.48765 1.25296 0
M  V30 6144 C 582.03 1.32623 3.34788 0
M  V30 6145 C 581.883 2.86375 3.46856 0
M  V30 6146 C 583.202 0.948291 4.29762 0
M  V30 6147 H 580.321 0.295244 0.675278 0
M  V30 6148 H 582.963 1.33917 1.34783 0
M  V30 6149 H 581.113 0.875002 3.78518 0
M  V30 6150 H 582.785 3.39839 3.11941 0
M  V30 6151 H 581.028 3.24232 2.88194 0
M  V30 6152 H 581.699 3.17658 4.51439 0
M  V30 6153 H 584.175 1.33722 3.94028 0
M  V30 6154 H 583.051 1.33765 5.32352 0
M  V30 6155 H 583.312 -0.145094 4.41862 0
M  V30 6156 N 582.371 -1.3172 0.865308 0
M  V30 6157 C 583.319 -2.30569 0.306674 0
M  V30 6158 C 584.313 -1.59317 -0.575724 0
M  V30 6159 O 585.519 -1.73961 -0.462343 0
M  V30 6160 H 581.894 -0.747681 0.0804834 0
M  V30 6161 H 583.865 -2.75165 1.15441 0
M  V30 6162 C 582.614 -3.44358 -0.480952 0
M  V30 6163 H 581.937 -3.99354 0.18876 0
M  V30 6164 H 583.377 -4.15652 -0.837241 0
M  V30 6165 C 581.836 -2.92574 -1.67039 0
M  V30 6166 O 582.366 -2.90954 -2.76964 0
M  V30 6167 N 580.572 -2.48835 -1.50097 0
M  V30 6168 H 580.119 -2.50353 -0.606738 0
M  V30 6169 H 580.077 -2.14543 -2.29823 0
M  V30 6170 N 583.85 -0.624285 -1.44708 0
M  V30 6171 C 585.075 -0.131171 -2.06985 0
M  V30 6172 C 585.5 1.18234 -1.46295 0
M  V30 6173 O 584.858 1.72375 -0.561842 0
M  V30 6174 C 584.906 -0.0226724 -3.60593 0
M  V30 6175 O 584.01 1.02314 -3.99507 0
M  V30 6176 H 583.351 -0.0816556 -0.65896 0
M  V30 6177 H 585.88 -0.859027 -1.85693 0
M  V30 6178 H 585.891 0.170138 -4.07645 0
M  V30 6179 H 584.566 -0.981685 -4.04148 0
M  V30 6180 H 583.143 0.805452 -3.64097 0
M  V30 6181 N 585.328 1.53329 -0.364422 0
M  V30 6182 C 586.291 2.24323 0.470292 0
M  V30 6183 C 587.291 1.25068 1.01067 0
M  V30 6184 O 588.481 1.49354 0.896605 0
M  V30 6185 C 585.613 2.97908 1.65722 0
M  V30 6186 H 586.806 2.9952 -0.150917 0
M  V30 6187 H 584.359 1.55868 -0.116092 0
M  V30 6188 H 585.094 2.2695 2.31655 0
M  V30 6189 H 584.879 3.70732 1.27671 0
M  V30 6190 H 586.369 3.5188 2.24878 0
M  V30 6191 N 586.806 0.0935595 1.57322 0
M  V30 6192 C 588.222 -0.263091 1.57417 0
M  V30 6193 C 588.422 -1.68526 1.1046 0
M  V30 6194 O 587.478 -2.40139 0.780357 0
M  V30 6195 C 588.791 -0.0529201 3.00653 0
M  V30 6196 C 590.339 -0.120788 3.12767 0
M  V30 6197 C 590.814 0.0613707 4.57959 0
M  V30 6198 N 592.305 0.00648534 4.632 0
M  V30 6199 C 593.04 0.122699 5.73269 0
M  V30 6200 N 592.536 0.29366 6.92177 0
M  V30 6201 N 594.329 0.0640787 5.62063 0
M  V30 6202 H 586.48 1.02277 1.86154 0
M  V30 6203 H 588.743 0.4007 0.859153 0
M  V30 6204 H 588.449 0.929279 3.39201 0
M  V30 6205 H 588.323 -0.795899 3.68708 0
M  V30 6206 H 590.71 -1.09349 2.74093 0
M  V30 6207 H 590.791 0.653656 2.47307 0
M  V30 6208 H 590.435 1.03093 4.97327 0
M  V30 6209 H 590.365 -0.732748 5.21477 0
M  V30 6210 H 592.856 -0.123173 3.77699 0
M  V30 6211 H 593.169 0.37389 7.71895 0
M  V30 6212 H 591.514 0.329307 6.94219 0
M  V30 6213 H 594.705 -0.0683396 4.6805 0
M  V30 6214 H 594.878 0.158097 6.47807 0
M  V30 6215 N 588.284 -1.56567 -0.180126 0
M  V30 6216 C 589.232 -1.96632 -1.24251 0
M  V30 6217 C 590.226 -0.853818 -1.46309 0
M  V30 6218 O 591.432 -1.0389 -1.46993 0
M  V30 6219 H 587.807 -0.625476 -0.417473 0
M  V30 6220 H 589.778 -2.85201 -0.877679 0
M  V30 6221 C 588.527 -2.33486 -2.57642 0
M  V30 6222 H 587.85 -3.18626 -2.4149 0
M  V30 6223 H 589.29 -2.65371 -3.30688 0
M  V30 6224 C 587.749 -1.17499 -3.15746 0
M  V30 6225 O 588.279 -0.457956 -3.99081 0
M  V30 6226 N 586.485 -0.94786 -2.74707 0
M  V30 6227 H 586.032 -1.53269 -2.07042 0
M  V30 6228 H 585.99 -0.173626 -3.1392 0
M  V30 6229 N 589.762 0.448376 -1.51087 0
M  V30 6230 C 590.71 1.56407 -1.72161 0
M  V30 6231 C 591.704 1.58878 -0.587721 0
M  V30 6232 O 592.91 1.62755 -0.768822 0
M  V30 6233 H 589.285 0.519423 -0.543786 0
M  V30 6234 H 591.256 1.35803 -2.65707 0
M  V30 6235 C 590.005 2.94163 -1.85373 0
M  V30 6236 H 589.328 2.9299 -2.72024 0
M  V30 6237 H 590.768 3.71625 -2.04135 0
M  V30 6238 C 589.227 3.31317 -0.610803 0
M  V30 6239 O 589.757 4.00985 0.239636 0
M  V30 6240 N 587.963 2.86966 -0.458127 0
M  V30 6241 H 587.51 2.30443 -1.15124 0
M  V30 6242 H 587.468 3.12188 0.372289 0
M  V30 6243 N 591.24 1.41047 0.703093 0
M  V30 6244 C 592.17 1.45067 1.82969 0
M  V30 6245 C 593.151 0.31016 1.67248 0
M  V30 6246 O 594.336 0.520548 1.87093 0
M  V30 6247 C 591.466 1.32478 3.2104 0
M  V30 6248 C 590.42 2.44262 3.51454 0
M  V30 6249 C 589.746 2.16742 4.88801 0
M  V30 6250 C 591.046 3.86606 3.51189 0
M  V30 6251 H 592.74 2.39353 1.79863 0
M  V30 6252 H 590.286 1.15206 0.863919 0
M  V30 6253 H 592.239 1.33904 3.99559 0
M  V30 6254 H 590.963 0.346735 3.24754 0
M  V30 6255 H 589.622 2.42107 2.75282 0
M  V30 6256 H 589.27 1.17299 4.89132 0
M  V30 6257 H 588.97 2.91643 5.10116 0
M  V30 6258 H 590.494 2.19872 5.69639 0
M  V30 6259 H 591.908 3.90517 4.19725 0
M  V30 6260 H 590.305 4.61128 3.84033 0
M  V30 6261 H 591.375 4.15296 2.50315 0
M  V30 6262 N 592.718 -0.936591 1.26751 0
M  V30 6263 C 593.943 -1.72288 1.15462 0
M  V30 6264 C 594.368 -1.85915 -0.285887 0
M  V30 6265 O 593.726 -1.35272 -1.20711 0
M  V30 6266 C 593.774 -3.10503 1.83359 0
M  V30 6267 O 592.878 -3.96745 1.1255 0
M  V30 6268 H 592.219 -0.52843 0.402067 0
M  V30 6269 H 594.749 -1.17271 1.67656 0
M  V30 6270 H 594.759 -3.60867 1.90365 0
M  V30 6271 H 593.434 -2.99901 2.88153 0
M  V30 6272 H 592.011 -3.55191 1.13551 0
M  V30 6273 N 594.196 -1.08629 -1.14182 0
M  V30 6274 C 595.159 -0.722027 -2.1753 0
M  V30 6275 C 596.159 0.244305 -1.58933 0
M  V30 6276 O 597.349 0.0235545 -1.74184 0
M  V30 6277 C 594.481 -0.0663966 -3.40835 0
M  V30 6278 H 595.674 -1.63719 -2.51269 0
M  V30 6279 H 593.227 -0.884442 -1.28869 0
M  V30 6280 H 593.962 0.860389 -3.12678 0
M  V30 6281 H 593.747 -0.761598 -3.84632 0
M  V30 6282 H 595.237 0.173346 -4.1724 0
M  V30 6283 N 595.674 1.31259 -0.872281 0
M  V30 6284 C 597.09 1.49283 -0.564521 0
M  V30 6285 C 597.29 1.80243 0.900807 0
M  V30 6286 O 596.346 1.88246 1.68284 0
M  V30 6287 C 597.659 2.62503 -1.46673 0
M  V30 6288 C 599.207 2.76386 -1.46901 0
M  V30 6289 C 599.682 3.92705 -2.35684 0
M  V30 6290 N 601.173 3.99995 -2.33577 0
M  V30 6291 C 601.908 4.89276 -2.98992 0
M  V30 6292 N 601.404 5.83443 -3.73585 0
M  V30 6293 N 603.197 4.82541 -2.88289 0
M  V30 6294 H 595.348 1.09432 -1.82039 0
M  V30 6295 H 597.611 0.540949 -0.77851 0
M  V30 6296 H 597.317 2.46407 -2.50951 0
M  V30 6297 H 597.191 3.58695 -1.16696 0
M  V30 6298 H 599.578 2.91894 -0.433796 0
M  V30 6299 H 599.659 1.80853 -1.80903 0
M  V30 6300 H 599.303 3.77954 -3.39283 0
M  V30 6301 H 599.233 4.87549 -1.99006 0
M  V30 6302 H 601.724 3.32624 -1.7936 0
M  V30 6303 H 602.037 6.48303 -4.20622 0
M  V30 6304 H 600.382 5.83415 -3.77694 0
M  V30 6305 H 603.573 4.07951 -2.2955 0
M  V30 6306 H 603.746 5.51916 -3.39549 0
M  V30 6307 N 597.152 0.631951 1.44375 0
M  V30 6308 C 598.38 0.143867 2.06399 0
M  V30 6309 C 598.795 -1.18188 1.47231 0
M  V30 6310 O 598.152 -1.72511 0.595498 0
M  V30 6311 C 598.203 0.0238253 3.61492 0
M  V30 6312 O 597.924 1.29715 4.18456 0
M  V30 6313 C 599.425 -0.492856 4.40552 0
M  V30 6314 H 596.645 0.0800542 0.666207 0
M  V30 6315 H 599.189 0.866586 1.85231 0
M  V30 6316 H 597.344 -0.649338 3.81919 0
M  V30 6317 H 597.758 1.14252 5.11905 0
M  V30 6318 H 599.232 -0.525861 5.49489 0
M  V30 6319 H 599.709 -1.52006 4.12057 0
M  V30 6320 H 600.315 0.147085 4.25046 0
M  V30 6321 N 598.631 -1.53133 0.372548 0
M  V30 6322 C 599.579 -2.27473 -0.485681 0
M  V30 6323 C 600.573 -1.30719 -1.07745 0
M  V30 6324 O 601.779 -1.48321 -1.01985 0
M  V30 6325 H 598.154 -0.731269 -0.175356 0
M  V30 6326 H 600.125 -2.97955 0.162986 0
M  V30 6327 C 598.874 -3.08191 -1.60978 0
M  V30 6328 H 598.197 -3.82488 -1.16373 0
M  V30 6329 H 599.637 -3.63373 -2.18485 0
M  V30 6330 C 598.096 -2.19461 -2.55614 0
M  V30 6331 O 598.626 -1.81008 -3.58607 0
M  V30 6332 N 596.832 -1.83955 -2.24965 0
M  V30 6333 H 596.379 -2.15423 -1.41247 0
M  V30 6334 H 596.337 -1.24874 -2.88538 0
M  V30 6335 N 600.109 -0.101901 -1.5727 0
M  V30 6336 C 601.019 0.868647 -2.17926 0
M  V30 6337 C 602.035 1.30527 -1.1506 0
M  V30 6338 O 603.211 1.37178 -1.47459 0
M  V30 6339 C 600.276 2.10727 -2.75309 0
M  V30 6340 C 599.337 1.7242 -3.93154 0
M  V30 6341 C 598.57 2.90377 -4.47791 0
M  V30 6342 O 598.793 4.05305 -4.01353 0
M  V30 6343 O 597.727 2.6845 -5.38719 0
M  V30 6344 H 601.553 0.382544 -3.01281 0
M  V30 6345 H 599.138 0.122812 -1.48894 0
M  V30 6346 H 601.02 2.83303 -3.11958 0
M  V30 6347 H 599.695 2.58376 -1.94996 0
M  V30 6348 H 598.602 0.970039 -3.61305 0
M  V30 6349 H 599.935 1.29528 -4.74851 0
M  V30 6350 N 601.587 1.56661 0.17182 0
M  V30 6351 C 602.519 1.92934 1.2373 0
M  V30 6352 C 603.532 0.822385 1.40502 0
M  V30 6353 O 604.721 1.10083 1.40514 0
M  V30 6354 C 601.821 2.16651 2.60607 0
M  V30 6355 C 600.994 3.47878 2.6514 0
M  V30 6356 C 600.053 3.60429 3.83377 0
M  V30 6357 O 599.079 4.33051 3.69398 0
M  V30 6358 N 600.281 2.95241 4.99813 0
M  V30 6359 H 603.046 2.84931 0.929205 0
M  V30 6360 H 600.607 1.5781 0.361588 0
M  V30 6361 H 602.599 2.22312 3.38171 0
M  V30 6362 H 601.169 1.3104 2.83809 0
M  V30 6363 H 600.389 3.53879 1.73675 0
M  V30 6364 H 601.677 4.34232 2.6518 0
M  V30 6365 H 601.075 2.3611 5.14071 0
M  V30 6366 H 599.632 3.06499 5.75241 0
M  V30 6367 N 603.065 -0.440357 1.51323 0
M  V30 6368 C 604.012 -1.53429 1.72419 0
M  V30 6369 C 604.982 -1.56165 0.565826 0
M  V30 6370 O 606.167 -1.73222 0.799917 0
M  V30 6371 C 603.307 -2.91169 1.85242 0
M  V30 6372 C 602.42 -2.97985 3.12777 0
M  V30 6373 C 601.555 -4.26829 3.16212 0
M  V30 6374 C 600.594 -4.27501 4.38074 0
M  V30 6375 N 599.731 -5.47866 4.39076 0
M  V30 6376 H 604.571 -1.34743 2.65797 0
M  V30 6377 H 602.108 -0.654608 1.31732 0
M  V30 6378 H 604.066 -3.71087 1.90658 0
M  V30 6379 H 602.696 -3.0842 0.952744 0
M  V30 6380 H 601.748 -2.10749 3.16685 0
M  V30 6381 H 603.06 -2.94342 4.02696 0
M  V30 6382 H 602.214 -5.15118 3.20527 0
M  V30 6383 H 600.953 -4.33124 2.24176 0
M  V30 6384 H 599.958 -3.37606 4.33938 0
M  V30 6385 H 601.183 -4.22873 5.31371 0
M  V30 6386 H 599.129 -5.54887 3.49909 0
M  V30 6387 H 599.046 -5.46091 5.22801 0
M  V30 6388 H 600.314 -6.38195 4.4758 0
M  V30 6389 N 604.543 -1.41418 -0.695603 0
M  V30 6390 C 605.493 -1.39731 -1.80165 0
M  V30 6391 C 606.477 -0.271689 -1.5859 0
M  V30 6392 O 607.669 -0.512354 -1.69422 0
M  V30 6393 C 604.798 -1.28187 -3.1847 0
M  V30 6394 C 603.884 -2.45612 -3.45739 0
M  V30 6395 N 604.275 -3.71077 -3.43708 0
M  V30 6396 C 602.573 -2.39424 -3.76288 0
M  V30 6397 C 603.274 -4.48957 -3.69882 0
M  V30 6398 N 602.25 -3.7907 -3.89624 0
M  V30 6399 H 606.052 -2.34656 -1.76957 0
M  V30 6400 H 603.566 -1.35473 -0.89559 0
M  V30 6401 H 605.563 -1.2506 -3.977 0
M  V30 6402 H 604.223 -0.342468 -3.22889 0
M  V30 6403 H 605.234 -4.03963 -3.2409 0
M  V30 6404 H 601.911 -1.53955 -3.88077 0
M  V30 6405 H 603.301 -5.57887 -3.74448 0
M  V30 6406 N 606.021 0.929856 -1.27246 0
M  V30 6407 C 606.984 2.01172 -1.09829 0
M  V30 6408 C 607.984 1.60743 -0.0429687 0
M  V30 6409 O 609.174 1.71813 -0.287373 0
M  V30 6410 C 606.306 3.34191 -0.673003 0
M  V30 6411 H 607.499 2.18054 -2.05895 0
M  V30 6412 H 605.052 1.11036 -1.10003 0
M  V30 6413 H 605.787 3.23009 0.289134 0
M  V30 6414 H 605.572 3.64892 -1.43515 0
M  V30 6415 H 607.062 4.13646 -0.573323 0
M  V30 6416 N 607.499 1.09233 1.13605 0
M  V30 6417 C 608.447 0.724572 2.21027 0
M  V30 6418 C 609.441 -0.273595 1.67176 0
M  V30 6419 O 610.647 -0.135266 1.79491 0
M  V30 6420 H 607.022 0.216319 0.720215 0
M  V30 6421 H 608.993 1.63975 2.49309 0
M  V30 6422 C 607.742 0.159126 3.47336 0
M  V30 6423 H 607.065 0.918387 3.89109 0
M  V30 6424 H 608.505 -0.0602851 4.23957 0
M  V30 6425 C 606.964 -1.10514 3.18258 0
M  V30 6426 O 607.494 -2.18869 3.36837 0
M  V30 6427 N 605.7 -1.01886 2.72154 0
M  V30 6428 H 605.247 -0.137027 2.57235 0
M  V30 6429 H 605.205 -1.8655 2.53074 0
M  V30 6430 N 608.977 -1.30795 0.87923 0
M  V30 6431 C 610.254 -1.91145 0.415086 0
M  V30 6432 C 610.634 -1.7995 -1.10368 0
M  V30 6433 O 609.982 -1.21305 -1.93642 0
M  V30 6434 C 610.192 -3.37014 0.906778 0
M  V30 6435 C 611.54 -4.14101 0.938358 0
M  V30 6436 O 612.564 -3.45834 0.853053 0
M  V30 6437 O 611.423 -5.36054 1.06342 0
M  V30 6438 H 608.517 -0.81736 0.125905 0
M  V30 6439 H 611.063 -1.39401 0.967753 0
M  V30 6440 H 609.835 -3.3922 1.95053 0
M  V30 6441 H 609.458 -3.96204 0.332948 0
M  V30 6442 N 610.455 -0.639598 -1.44038 0
M  V30 6443 C 611.418 0.0506628 -2.29144 0
M  V30 6444 C 612.418 0.764001 -1.41491 0
M  V30 6445 O 613.608 0.607309 -1.63271 0
M  V30 6446 C 610.74 1.0824 -3.2326 0
M  V30 6447 H 611.933 -0.697987 -2.91664 0
M  V30 6448 H 609.486 -0.400146 -1.51091 0
M  V30 6449 H 610.221 1.86075 -2.65606 0
M  V30 6450 H 610.006 0.574725 -3.87865 0
M  V30 6451 H 611.496 1.56487 -3.87171 0
M  V30 6452 N 611.933 1.52934 -0.380664 0
M  V30 6453 C 612.863 2.29118 0.450268 0
M  V30 6454 C 613.844 1.32153 1.07096 0
M  V30 6455 O 615.029 1.61038 1.08537 0
M  V30 6456 C 612.159 3.09161 1.58231 0
M  V30 6457 C 611.113 4.13938 1.0881 0
M  V30 6458 C 610.439 4.82153 2.31155 0
M  V30 6459 C 611.739 5.22048 0.162146 0
M  V30 6460 H 613.433 2.98826 -0.185361 0
M  V30 6461 H 610.979 1.43715 -0.0905886 0
M  V30 6462 H 612.932 3.61211 2.17036 0
M  V30 6463 H 611.656 2.3717 2.2454 0
M  V30 6464 H 610.315 3.62855 0.522633 0
M  V30 6465 H 609.963 4.06719 2.95953 0
M  V30 6466 H 609.663 5.52966 1.98752 0
M  V30 6467 H 611.187 5.37004 2.90618 0
M  V30 6468 H 612.601 5.6951 0.658126 0
M  V30 6469 H 610.998 6.00057 -0.0717122 0
M  V30 6470 H 612.068 4.78398 -0.791438 0
M  V30 6471 N 613.412 0.11024 1.57214 0
M  V30 6472 C 614.36 -0.860586 2.16094 0
M  V30 6473 C 615.354 -1.28156 1.1078 0
M  V30 6474 O 616.56 -1.25433 1.29099 0
M  V30 6475 H 612.935 -0.295606 0.691463 0
M  V30 6476 H 614.906 -0.33942 2.96463 0
M  V30 6477 C 613.655 -2.10421 2.768 0
M  V30 6478 H 612.978 -1.7892 3.5753 0
M  V30 6479 H 614.418 -2.76375 3.21547 0
M  V30 6480 C 612.877 -2.88823 1.73444 0
M  V30 6481 O 613.407 -3.839 1.18251 0
M  V30 6482 N 611.613 -2.52649 1.43586 0
M  V30 6483 H 611.16 -1.754 1.8866 0
M  V30 6484 H 611.118 -3.05403 0.746735 0
M  V30 6485 N 614.89 -1.56749 -0.16351 0
M  V30 6486 C 615.853 -1.96121 -1.18613 0
M  V30 6487 C 616.853 -0.845765 -1.36761 0
M  V30 6488 O 618.043 -1.11268 -1.34033 0
M  V30 6489 C 615.175 -2.26282 -2.54969 0
M  V30 6490 H 616.368 -2.87639 -0.848764 0
M  V30 6491 H 613.921 -1.50928 -0.406251 0
M  V30 6492 H 614.656 -1.37504 -2.93706 0
M  V30 6493 H 614.441 -3.07595 -2.43162 0
M  V30 6494 H 615.931 -2.57638 -3.28653 0
M  V30 6495 N 616.368 0.432326 -1.51554 0
M  V30 6496 C 617.298 1.53242 -1.76179 0
M  V30 6497 C 618.279 1.58717 -0.611801 0
M  V30 6498 O 619.464 1.74364 -0.855033 0
M  V30 6499 C 616.594 2.91278 -1.89141 0
M  V30 6500 C 615.548 3.00663 -3.04608 0
M  V30 6501 C 614.874 4.40728 -3.02759 0
M  V30 6502 C 616.174 2.74281 -4.44485 0
M  V30 6503 H 617.868 1.32886 -2.68294 0
M  V30 6504 H 615.414 0.637841 -1.29103 0
M  V30 6505 H 617.367 3.68203 -2.04951 0
M  V30 6506 H 616.091 3.12877 -0.936785 0
M  V30 6507 H 614.75 2.26179 -2.88511 0
M  V30 6508 H 614.398 4.59301 -2.05065 0
M  V30 6509 H 614.098 4.47936 -3.80299 0
M  V30 6510 H 615.622 5.19619 -3.20669 0
M  V30 6511 H 617.036 3.40936 -4.60907 0
M  V30 6512 H 615.433 2.92893 -5.23769 0
M  V30 6513 H 616.503 1.69856 -4.54177 0
M  V30 6514 N 617.846 1.41785 0.688094 0
M  V30 6515 C 618.776 1.47 1.8142 0
M  V30 6516 C 619.757 0.327881 1.6691 0
M  V30 6517 O 620.942 0.540362 1.86531 0
M  V30 6518 C 618.072 1.35876 3.19617 0
M  V30 6519 C 617.026 2.47976 3.48844 0
M  V30 6520 C 616.352 2.21915 4.86475 0
M  V30 6521 C 617.652 3.90309 3.47068 0
M  V30 6522 H 619.346 2.41247 1.77314 0
M  V30 6523 H 616.892 1.16116 0.851651 0
M  V30 6524 H 618.845 1.38134 3.98117 0
M  V30 6525 H 617.569 0.38116 3.24368 0
M  V30 6526 H 616.228 2.45013 2.72698 0
M  V30 6527 H 615.876 1.2248 4.8786 0
M  V30 6528 H 615.576 2.97037 5.06994 0
M  V30 6529 H 617.1 2.25901 5.67275 0
M  V30 6530 H 618.514 3.94947 4.1556 0
M  V30 6531 H 616.911 4.65175 3.7912 0
M  V30 6532 H 617.981 4.17927 2.45896 0
M  V30 6533 N 619.324 -0.923095 1.27737 0
M  V30 6534 C 620.271 -2.02432 1.1086 0
M  V30 6535 C 621.241 -1.66098 0.00835195 0
M  V30 6536 O 622.426 -1.90027 0.171542 0
M  V30 6537 C 619.566 -3.36476 0.766671 0
M  V30 6538 C 618.679 -3.85737 1.94501 0
M  V30 6539 C 617.814 -5.08249 1.54455 0
M  V30 6540 C 616.853 -5.49818 2.6901 0
M  V30 6541 N 615.99 -6.63524 2.29521 0
M  V30 6542 H 620.83 -2.16201 2.05089 0
M  V30 6543 H 618.367 -1.05909 1.02087 0
M  V30 6544 H 620.325 -4.13569 0.549223 0
M  V30 6545 H 618.955 -3.22502 -0.13867 0
M  V30 6546 H 618.007 -3.04883 2.27487 0
M  V30 6547 H 619.319 -4.12513 2.80419 0
M  V30 6548 H 618.473 -5.92857 1.28862 0
M  V30 6549 H 617.212 -4.83261 0.656534 0
M  V30 6550 H 616.217 -4.63757 2.95313 0
M  V30 6551 H 617.442 -5.76799 3.5844 0
M  V30 6552 H 615.388 -6.40185 1.43177 0
M  V30 6553 H 615.305 -6.89978 3.08977 0
M  V30 6554 H 616.573 -7.51461 2.07187 0
M  V30 6555 N 620.802 -1.09834 -1.13024 0
M  V30 6556 C 621.712 -0.753731 -2.22162 0
M  V30 6557 C 622.728 0.246105 -1.72251 0
M  V30 6558 O 623.904 0.0864051 -2.01215 0
M  V30 6559 C 620.969 -0.183958 -3.46212 0
M  V30 6560 C 620.03 -1.24028 -4.10993 0
M  V30 6561 C 619.263 -0.697597 -5.29121 0
M  V30 6562 O 619.486 0.478092 -5.68393 0
M  V30 6563 O 618.42 -1.4546 -5.84059 0
M  V30 6564 H 622.246 -1.66456 -2.5402 0
M  V30 6565 H 619.831 -0.873026 -1.21238 0
M  V30 6566 H 621.713 0.130257 -4.21199 0
M  V30 6567 H 620.388 0.699823 -3.16045 0
M  V30 6568 H 619.295 -1.60725 -3.37814 0
M  V30 6569 H 620.628 -2.09685 -4.45301 0
M  V30 6570 N 622.28 1.30327 -0.886154 0
M  V30 6571 C 623.227 2.28099 -0.352069 0
M  V30 6572 C 624.197 1.56433 0.558397 0
M  V30 6573 O 625.382 1.84492 0.486561 0
M  V30 6574 C 622.522 3.42456 0.426346 0
M  V30 6575 C 621.635 4.28938 -0.513472 0
M  V30 6576 C 620.77 5.30458 0.280657 0
M  V30 6577 C 619.809 6.0859 -0.654556 0
M  V30 6578 N 618.946 7.02022 0.104322 0
M  V30 6579 H 623.786 2.73166 -1.19097 0
M  V30 6580 H 621.323 1.34367 -0.598662 0
M  V30 6581 H 623.281 4.07518 0.893587 0
M  V30 6582 H 621.911 2.98455 1.22981 0
M  V30 6583 H 620.963 3.64173 -1.09921 0
M  V30 6584 H 622.275 4.83399 -1.2299 0
M  V30 6585 H 621.429 6.01273 0.8097 0
M  V30 6586 H 620.168 4.76693 1.03029 0
M  V30 6587 H 619.173 5.36651 -1.19522 0
M  V30 6588 H 620.398 6.64443 -1.4033 0
M  V30 6589 H 618.344 6.50645 0.836472 0
M  V30 6590 H 618.261 7.53979 -0.552453 0
M  V30 6591 H 619.529 7.77077 0.614069 0
M  V30 6592 N 623.758 0.647228 1.43697 0
M  V30 6593 C 624.668 -0.0487997 2.34549 0
M  V30 6594 C 625.684 -0.818586 1.53542 0
M  V30 6595 O 626.86 -0.767195 1.86215 0
M  V30 6596 C 623.925 -1.00734 3.31743 0
M  V30 6597 C 622.986 -0.23515 4.28655 0
M  V30 6598 C 622.219 -1.14803 5.21206 0
M  V30 6599 O 622.442 -2.38717 5.18045 0
M  V30 6600 O 621.376 -0.623667 5.9866 0
M  V30 6601 H 625.202 0.698863 2.9555 0
M  V30 6602 H 622.787 0.407412 1.43738 0
M  V30 6603 H 624.669 -1.55837 3.91526 0
M  V30 6604 H 623.344 -1.73534 2.73254 0
M  V30 6605 H 622.251 0.359319 3.7237 0
M  V30 6606 H 623.584 0.453152 4.9011 0
M  V30 6607 N 625.236 -1.5273 0.388769 0
M  V30 6608 C 626.184 -2.27975 -0.461527 0
M  V30 6609 C 627.178 -1.31854 -1.06352 0
M  V30 6610 O 628.384 -1.49394 -1.00406 0
M  V30 6611 H 624.759 -0.733088 -0.16759 0
M  V30 6612 H 626.73 -2.97765 0.194579 0
M  V30 6613 C 625.479 -3.09881 -1.577 0
M  V30 6614 H 624.802 -3.83701 -1.12309 0
M  V30 6615 H 626.242 -3.6567 -2.14619 0
M  V30 6616 C 624.701 -2.22159 -2.53272 0
M  V30 6617 O 625.231 -1.84802 -3.56667 0
M  V30 6618 N 623.437 -1.8633 -2.23001 0
M  V30 6619 H 622.984 -2.16909 -1.38954 0
M  V30 6620 H 622.942 -1.27927 -2.87197 0
M  V30 6621 N 626.714 -0.118576 -1.57153 0
M  V30 6622 C 627.963 0.539339 -1.94355 0
M  V30 6623 C 628.276 1.67858 -1.00415 0
M  V30 6624 O 629.482 2.39922 -1.27081 0
M  V30 6625 C 627.938 1.01082 -3.45414 0
M  V30 6626 C 627.546 -0.0999402 -4.47889 0
M  V30 6627 C 629.29 1.64013 -3.91535 0
M  V30 6628 C 627.197 0.388212 -5.90124 0
M  V30 6629 H 626.127 0.205247 -0.725527 0
M  V30 6630 H 628.778 -0.19836 -1.82425 0
M  V30 6631 H 627.16 1.80292 -3.52577 0
M  V30 6632 H 628.334 -0.876189 -4.52393 0
M  V30 6633 H 626.649 -0.635885 -4.11516 0
M  V30 6634 H 629.246 2.01649 -4.95219 0
M  V30 6635 H 629.589 2.51836 -3.31488 0
M  V30 6636 H 630.122 0.913439 -3.87171 0
M  V30 6637 H 626.861 -0.453963 -6.53926 0
M  V30 6638 H 626.381 1.13095 -5.89041 0
M  V30 6639 H 628.06 0.849574 -6.41398 0
M  V30 6640 N 628.193 1.56834 0.155195 0
M  V30 6641 C 629.609 1.51315 0.50755 0
M  V30 6642 C 629.809 0.825614 1.83809 0
M  V30 6643 O 628.865 0.39271 2.49427 0
M  V30 6644 C 630.178 2.96074 0.52542 0
M  V30 6645 C 631.726 3.06968 0.611505 0
M  V30 6646 C 632.201 4.53218 0.660115 0
M  V30 6647 N 633.692 4.5753 0.722564 0
M  V30 6648 C 634.427 5.68056 0.781023 0
M  V30 6649 N 633.923 6.88173 0.799327 0
M  V30 6650 N 635.716 5.56068 0.821278 0
M  V30 6651 H 627.867 1.9993 -0.717063 0
M  V30 6652 H 630.13 0.911507 -0.260496 0
M  V30 6653 H 629.836 3.49599 -0.383875 0
M  V30 6654 H 629.71 3.51587 1.36624 0
M  V30 6655 H 632.097 2.53468 1.51122 0
M  V30 6656 H 632.178 2.54513 -0.256306 0
M  V30 6657 H 631.822 5.07354 -0.23541 0
M  V30 6658 H 631.752 5.03447 1.5443 0
M  V30 6659 H 634.243 3.71054 0.716049 0
M  V30 6660 H 634.556 7.6816 0.845553 0
M  V30 6661 H 632.901 6.90751 0.767337 0
M  V30 6662 H 636.092 4.61142 0.804091 0
M  V30 6663 H 636.265 6.42223 0.863372 0
M  V30 6664 N 629.671 -0.424282 1.51781 0
M  V30 6665 C 630.619 -1.53649 1.74628 0
M  V30 6666 C 631.613 -1.57923 0.612922 0
M  V30 6667 O 632.819 -1.61511 0.794618 0
M  V30 6668 H 629.194 -0.510706 0.551981 0
M  V30 6669 H 631.165 -1.31558 2.67834 0
M  V30 6670 C 629.914 -2.91177 1.9003 0
M  V30 6671 H 629.237 -2.88625 2.76651 0
M  V30 6672 H 630.677 -3.6833 2.10021 0
M  V30 6673 C 629.136 -3.30303 0.663435 0
M  V30 6674 O 629.666 -4.01315 -0.175812 0
M  V30 6675 N 627.872 -2.86201 0.503723 0
M  V30 6676 H 627.419 -2.28583 1.18776 0
M  V30 6677 H 627.377 -3.12741 -0.322575 0
M  V30 6678 N 631.149 -1.42148 -0.680565 0
M  V30 6679 C 632.081 -1.41119 -1.80605 0
M  V30 6680 C 633.094 -0.311099 -1.598 0
M  V30 6681 O 634.283 -0.573813 -1.69026 0
M  V30 6682 C 631.383 -1.18204 -3.17618 0
M  V30 6683 C 630.556 -2.40537 -3.65322 0
M  V30 6684 C 629.615 -2.13254 -4.8105 0
M  V30 6685 O 628.641 -2.8641 -4.91892 0
M  V30 6686 N 629.843 -1.13208 -5.69354 0
M  V30 6687 H 632.608 -2.38128 -1.81975 0
M  V30 6688 H 630.169 -1.36953 -0.863446 0
M  V30 6689 H 632.161 -0.97878 -3.92686 0
M  V30 6690 H 630.731 -0.29738 -3.11182 0
M  V30 6691 H 629.951 -2.76468 -2.80996 0
M  V30 6692 H 631.239 -3.22012 -3.93936 0
M  V30 6693 H 630.637 -0.526893 -5.63241 0
M  V30 6694 H 629.194 -0.988699 -6.44258 0
M  V30 6695 N 632.627 0.916307 -1.28225 0
M  V30 6696 C 633.557 2.0352 -1.14464 0
M  V30 6697 C 634.538 1.70045 -0.0430844 0
M  V30 6698 O 635.723 1.92954 -0.219619 0
M  V30 6699 C 632.853 3.37889 -0.803027 0
M  V30 6700 C 631.807 3.85516 -1.85908 0
M  V30 6701 C 631.133 5.1682 -1.37116 0
M  V30 6702 C 632.433 4.07655 -3.26519 0
M  V30 6703 H 634.127 2.1529 -2.08064 0
M  V30 6704 H 631.673 1.03446 -1.00174 0
M  V30 6705 H 633.626 4.15654 -0.693537 0
M  V30 6706 H 632.35 3.26164 0.168674 0
M  V30 6707 H 631.009 3.09953 -1.95767 0
M  V30 6708 H 630.657 5.01497 -0.38859 0
M  V30 6709 H 630.357 5.49657 -2.07728 0
M  V30 6710 H 631.881 5.97143 -1.27484 0
M  V30 6711 H 633.295 4.75953 -3.19596 0
M  V30 6712 H 631.692 4.51818 -3.94943 0
M  V30 6713 H 632.762 3.12553 -3.70727 0
M  V30 6714 N 634.105 1.10431 1.1244 0
M  V30 6715 C 635.33 0.869089 1.88313 0
M  V30 6716 C 635.755 -0.574912 1.79099 0
M  V30 6717 O 635.113 -1.40496 1.14589 0
M  V30 6718 C 635.161 1.32208 3.3549 0
M  V30 6719 O 634.265 0.487092 4.09513 0
M  V30 6720 H 633.606 0.313894 0.585121 0
M  V30 6721 H 636.136 1.47111 1.42195 0
M  V30 6722 H 636.146 1.31201 3.86329 0
M  V30 6723 H 634.821 2.37364 3.41513 0
M  V30 6724 H 633.398 0.562372 3.68635 0
M  V30 6725 N 635.583 -1.29855 0.893053 0
M  V30 6726 C 636.831 -1.9544 0.514566 0
M  V30 6727 C 637.152 -1.70795 -0.940959 0
M  V30 6728 O 636.422 -1.03601 -1.66264 0
M  V30 6729 H 635.002 -0.723137 0.187302 0
M  V30 6730 H 637.664 -1.58234 1.13789 0
M  V30 6731 H 636.76 -3.04341 0.691581 0
M  V30 6732 N 637.061 -0.65484 -1.43351 0
M  V30 6733 C 638.31 -0.166215 -2.01014 0
M  V30 6734 C 638.623 1.22764 -1.52278 0
M  V30 6735 O 639.829 1.81156 -2.02224 0
M  V30 6736 C 638.285 -0.246341 -3.59056 0
M  V30 6737 C 637.893 -1.64299 -4.16785 0
M  V30 6738 C 639.637 0.184597 -4.24098 0
M  V30 6739 C 637.544 -1.67695 -5.67126 0
M  V30 6740 H 636.474 -0.0583769 -0.751737 0
M  V30 6741 H 639.125 -0.817111 -1.64303 0
M  V30 6742 H 637.507 0.472092 -3.93176 0
M  V30 6743 H 638.681 -2.3869 -3.94162 0
M  V30 6744 H 636.996 -2.02004 -3.6412 0
M  V30 6745 H 639.593 0.179088 -5.344 0
M  V30 6746 H 639.936 1.21632 -3.98135 0
M  V30 6747 H 640.469 -0.482141 -3.94867 0
M  V30 6748 H 637.208 -2.68783 -5.9786 0
M  V30 6749 H 636.728 -0.976313 -5.91801 0
M  V30 6750 H 638.407 -1.42142 -6.31193 0
M  V30 6751 N 638.539 1.52521 -0.396863 0
M  V30 6752 C 639.487 2.28217 0.44943 0
M  V30 6753 C 640.481 1.32416 1.05652 0
M  V30 6754 O 641.687 1.49925 0.996124 0
M  V30 6755 H 638.062 0.733966 0.1637 0
M  V30 6756 H 640.033 2.97658 -0.210367 0
M  V30 6757 C 638.782 3.10713 1.56054 0
M  V30 6758 H 638.105 3.84291 1.10273 0
M  V30 6759 H 639.545 3.66803 2.12677 0
M  V30 6760 C 638.004 2.23499 2.52091 0
M  V30 6761 O 638.534 1.8669 3.55682 0
M  V30 6762 N 636.74 1.8751 2.2201 0
M  V30 6763 H 636.287 2.17643 1.37802 0
M  V30 6764 H 636.245 1.29448 2.86514 0
M  V30 6765 N 640.017 0.126909 1.57088 0
M  V30 6766 C 640.949 -0.850973 2.12817 0
M  V30 6767 C 641.962 -1.22457 1.07276 0
M  V30 6768 O 643.151 -1.17215 1.34622 0
M  V30 6769 C 640.251 -2.15039 2.61938 0
M  V30 6770 C 639.424 -1.94726 3.91664 0
M  V30 6771 C 638.483 -3.0847 4.26301 0
M  V30 6772 O 637.509 -2.81038 4.94981 0
M  V30 6773 N 638.711 -4.35116 3.84259 0
M  V30 6774 H 641.476 -0.3748 2.97347 0
M  V30 6775 H 639.037 -0.0572793 1.61799 0
M  V30 6776 H 641.029 -2.90141 2.82135 0
M  V30 6777 H 639.599 -2.5398 1.82244 0
M  V30 6778 H 638.819 -1.03772 3.80296 0
M  V30 6779 H 640.107 -1.78469 4.76473 0
M  V30 6780 H 639.505 -4.60276 3.2888 0
M  V30 6781 H 638.062 -5.07064 4.09548 0
M  V30 6782 N 641.495 -1.56914 -0.146875 0
M  V30 6783 C 642.442 -1.98275 -1.18134 0
M  V30 6784 C 643.412 -0.850367 -1.42681 0
M  V30 6785 O 644.597 -1.11244 -1.55014 0
M  V30 6786 C 641.737 -2.36861 -2.5098 0
M  V30 6787 C 640.85 -3.63391 -2.33605 0
M  V30 6788 C 639.985 -3.91079 -3.59486 0
M  V30 6789 C 639.024 -5.10879 -3.37149 0
M  V30 6790 N 638.161 -5.34577 -4.55161 0
M  V30 6791 H 643.001 -2.8645 -0.821622 0
M  V30 6792 H 640.538 -1.41718 -0.394248 0
M  V30 6793 H 642.496 -2.57262 -3.28439 0
M  V30 6794 H 641.126 -1.51766 -2.84898 0
M  V30 6795 H 640.178 -3.50766 -1.47199 0
M  V30 6796 H 641.49 -4.51007 -2.13059 0
M  V30 6797 H 640.644 -4.11979 -4.45374 0
M  V30 6798 H 639.383 -3.01885 -3.83036 0
M  V30 6799 H 638.388 -4.89853 -2.49649 0
M  V30 6800 H 639.613 -6.01626 -3.14997 0
M  V30 6801 H 637.559 -4.48337 -4.78884 0
M  V30 6802 H 637.476 -6.16463 -4.37618 0
M  V30 6803 H 638.744 -5.59975 -5.42263 0
M  V30 6804 N 642.974 0.416227 -1.52004 0
M  V30 6805 C 644.223 1.16088 -1.64944 0
M  V30 6806 C 644.536 1.91835 -0.381928 0
M  V30 6807 O 645.742 2.6867 -0.391013 0
M  V30 6808 C 644.198 2.1124 -2.91386 0
M  V30 6809 C 643.806 1.41042 -4.25219 0
M  V30 6810 C 645.55 2.86008 -3.13688 0
M  V30 6811 C 643.457 2.34801 -5.42791 0
M  V30 6812 H 642.387 0.437041 -0.61442 0
M  V30 6813 H 645.038 0.425971 -1.78487 0
M  V30 6814 H 643.42 2.88254 -2.71525 0
M  V30 6815 H 644.594 0.694416 -4.55538 0
M  V30 6816 H 642.909 0.78344 -4.08964 0
M  V30 6817 H 645.506 3.56286 -3.98703 0
M  V30 6818 H 645.849 3.48556 -2.27628 0
M  V30 6819 H 646.382 2.16095 -3.33988 0
M  V30 6820 H 643.121 1.7691 -6.31176 0
M  V30 6821 H 642.641 3.04395 -5.16821 0
M  V30 6822 H 644.32 2.9548 -5.75587 0
M  V30 6823 N 644.452 1.42507 0.673017 0
M  V30 6824 C 645.415 1.4582 1.76831 0
M  V30 6825 C 646.415 0.345542 1.57043 0
M  V30 6826 O 647.605 0.606447 1.63303 0
M  V30 6827 C 644.737 1.29158 3.15485 0
M  V30 6828 H 645.93 2.43345 1.7528 0
M  V30 6829 H 643.483 1.28981 0.882817 0
M  V30 6830 H 644.218 0.325626 3.22661 0
M  V30 6831 H 644.003 2.09797 3.31252 0
M  V30 6832 H 645.493 1.34363 3.95394 0
M  V30 6833 N 645.93 -0.909495 1.28709 0
M  V30 6834 C 646.84 -2.04558 1.14861 0
M  V30 6835 C 647.856 -1.73842 0.0741621 0
M  V30 6836 O 649.032 -1.99383 0.2843 0
M  V30 6837 C 646.097 -3.36957 0.816148 0
M  V30 6838 C 645.158 -3.81255 1.97341 0
M  V30 6839 C 644.391 -5.07335 1.65671 0
M  V30 6840 O 644.614 -5.67514 0.573053 0
M  V30 6841 O 643.548 -5.47449 2.50167 0
M  V30 6842 H 647.374 -2.19161 2.10243 0
M  V30 6843 H 644.959 -1.03159 1.08068 0
M  V30 6844 H 646.841 -4.16436 0.644873 0
M  V30 6845 H 645.516 -3.2352 -0.107983 0
M  V30 6846 H 644.423 -3.02584 2.19986 0
M  V30 6847 H 645.756 -3.99261 2.87839 0
M  V30 6848 N 647.408 -1.11026 -1.11852 0
M  V30 6849 C 648.318 -0.777252 -2.2135 0
M  V30 6850 C 649.334 0.227821 -1.72502 0
M  V30 6851 O 650.51 0.0650587 -2.01295 0
M  V30 6852 C 647.575 -0.220668 -3.45997 0
M  V30 6853 C 646.636 -1.2838 -4.09655 0
M  V30 6854 C 645.869 -0.753678 -5.28352 0
M  V30 6855 O 646.092 0.417779 -5.68868 0
M  V30 6856 O 645.026 -1.51647 -5.82483 0
M  V30 6857 H 648.852 -1.69141 -2.5224 0
M  V30 6858 H 646.437 -0.885836 -1.20305 0
M  V30 6859 H 648.319 0.0855756 -4.21313 0
M  V30 6860 H 646.994 0.666262 -3.16769 0
M  V30 6861 H 645.901 -1.64299 -3.3609 0
M  V30 6862 H 647.234 -2.14396 -4.43052 0
M  V30 6863 N 648.886 1.2938 -0.899927 0
M  V30 6864 C 649.833 2.27713 -0.376243 0
M  V30 6865 C 650.803 1.57016 0.541774 0
M  V30 6866 O 651.988 1.84997 0.466966 0
M  V30 6867 C 649.128 3.42889 0.39 0
M  V30 6868 C 648.241 4.28369 -0.558938 0
M  V30 6869 C 647.376 5.30726 0.224379 0
M  V30 6870 C 646.415 6.07862 -0.719068 0
M  V30 6871 N 645.552 7.02094 0.0298569 0
M  V30 6872 H 650.392 2.71888 -1.21988 0
M  V30 6873 H 647.929 1.33724 -0.612879 0
M  V30 6874 H 649.887 4.08443 0.850314 0
M  V30 6875 H 648.517 2.99743 1.19809 0
M  V30 6876 H 647.569 3.62986 -1.13777 0
M  V30 6877 H 648.881 4.82068 -1.2811 0
M  V30 6878 H 648.035 6.02098 0.745881 0
M  V30 6879 H 646.774 4.77759 0.979674 0
M  V30 6880 H 645.779 5.35353 -1.25207 0
M  V30 6881 H 647.004 6.62917 -1.4737 0
M  V30 6882 H 644.95 6.51496 0.767415 0
M  V30 6883 H 644.867 7.5335 -0.632391 0
M  V30 6884 H 646.135 7.77685 0.531615 0
M  V30 6885 N 650.364 0.662433 1.43002 0
M  V30 6886 C 651.78 0.330835 1.56133 0
M  V30 6887 C 651.98 -1.16454 1.64441 0
M  V30 6888 O 651.036 -1.94964 1.60453 0
M  V30 6889 C 652.349 1.05029 2.81761 0
M  V30 6890 C 653.897 1.03142 2.95518 0
M  V30 6891 C 654.372 1.73196 4.2399 0
M  V30 6892 N 655.863 1.70004 4.30875 0
M  V30 6893 C 656.598 2.21074 5.29069 0
M  V30 6894 N 656.094 2.80473 6.33488 0
M  V30 6895 N 657.887 2.1152 5.20784 0
M  V30 6896 H 650.038 1.63272 1.35853 0
M  V30 6897 H 652.301 0.687149 0.653092 0
M  V30 6898 H 652.007 2.10542 2.81718 0
M  V30 6899 H 651.881 0.607664 3.72273 0
M  V30 6900 H 654.268 -0.0153339 2.95096 0
M  V30 6901 H 654.349 1.51282 2.0627 0
M  V30 6902 H 653.993 2.77833 4.25172 0
M  V30 6903 H 653.923 1.22515 5.1215 0
M  V30 6904 H 656.414 1.26667 3.56039 0
M  V30 6905 H 656.727 3.17094 7.04749 0
M  V30 6906 H 655.072 2.84538 6.34085 0
M  V30 6907 H 658.263 1.64814 4.38126 0
M  V30 6908 H 658.436 2.51629 5.97149 0
M  V30 6909 N 651.842 -1.52309 0.404946 0
M  V30 6910 C 652.789 -2.26898 -0.422597 0
M  V30 6911 C 653.759 -1.2914 -1.04461 0
M  V30 6912 O 654.944 -1.57996 -1.06967 0
M  V30 6913 C 652.084 -3.09053 -1.53559 0
M  V30 6914 C 651.197 -4.21762 -0.934908 0
M  V30 6915 C 650.332 -4.91283 -2.02025 0
M  V30 6916 C 649.371 -5.95962 -1.39628 0
M  V30 6917 N 648.508 -6.59017 -2.42159 0
M  V30 6918 H 653.348 -2.97188 0.219903 0
M  V30 6919 H 650.885 -1.46607 0.120282 0
M  V30 6920 H 652.843 -3.54987 -2.19181 0
M  V30 6921 H 651.473 -2.40942 -2.14818 0
M  V30 6922 H 650.525 -3.80029 -0.167854 0
M  V30 6923 H 651.837 -4.96864 -0.439073 0
M  V30 6924 H 650.991 -5.40601 -2.75383 0
M  V30 6925 H 649.73 -4.15741 -2.54973 0
M  V30 6926 H 648.735 -5.45968 -0.648023 0
M  V30 6927 H 649.96 -6.73445 -0.874553 0
M  V30 6928 H 647.906 -5.86306 -2.94247 0
M  V30 6929 H 647.823 -7.2978 -1.97376 0
M  V30 6930 H 649.091 -7.12974 -3.15099 0
M  V30 6931 N 653.32 -0.135238 -1.57019 0
M  V30 6932 C 654.252 0.839675 -2.13265 0
M  V30 6933 C 655.265 1.21887 -1.07923 0
M  V30 6934 O 656.454 1.16499 -1.35241 0
M  V30 6935 C 653.554 2.13647 -2.63075 0
M  V30 6936 C 652.727 1.92646 -3.92691 0
M  V30 6937 C 651.786 3.06205 -4.27931 0
M  V30 6938 O 650.812 2.78409 -4.96465 0
M  V30 6939 N 652.014 4.33072 -3.86561 0
M  V30 6940 H 654.779 0.359026 -2.97542 0
M  V30 6941 H 652.34 0.0486979 -1.61827 0
M  V30 6942 H 654.332 2.88641 -2.8367 0
M  V30 6943 H 652.902 2.5301 -1.83588 0
M  V30 6944 H 652.122 1.01754 -3.80841 0
M  V30 6945 H 653.41 1.75939 -4.77413 0
M  V30 6946 H 652.808 4.58526 -3.31316 0
M  V30 6947 H 651.365 5.04885 -4.12231 0
M  V30 6948 N 654.798 1.5699 0.138552 0
M  V30 6949 C 656.075 1.74741 0.87891 0
M  V30 6950 C 656.455 0.705522 1.98961 0
M  V30 6951 O 655.803 -0.274066 2.2685 0
M  V30 6952 C 656.013 3.1909 1.4136 0
M  V30 6953 C 657.361 3.81023 1.87368 0
M  V30 6954 O 658.385 3.22571 1.51084 0
M  V30 6955 O 657.244 4.83722 2.54312 0
M  V30 6956 H 654.338 0.714781 0.415953 0
M  V30 6957 H 656.884 1.69248 0.123817 0
M  V30 6958 H 655.656 3.86424 0.61579 0
M  V30 6959 H 655.279 3.29043 2.23196 0
M  V30 6960 N 656.276 -0.40816 1.52223 0
M  V30 6961 C 657.186 -1.52202 1.78526 0
M  V30 6962 C 658.202 -1.60546 0.670892 0
M  V30 6963 O 659.378 -1.77242 0.956404 0
M  V30 6964 C 656.443 -2.87928 1.93128 0
M  V30 6965 C 655.504 -2.89463 3.17033 0
M  V30 6966 C 654.737 -4.18715 3.30929 0
M  V30 6967 O 654.96 -5.12662 2.50067 0
M  V30 6968 O 653.894 -4.27125 4.24084 0
M  V30 6969 H 657.72 -1.32911 2.73072 0
M  V30 6970 H 655.305 -0.594112 1.37079 0
M  V30 6971 H 657.187 -3.68426 2.04549 0
M  V30 6972 H 655.862 -3.07285 1.01772 0
M  V30 6973 H 654.769 -2.07815 3.11069 0
M  V30 6974 H 656.102 -2.75055 4.08174 0
M  V30 6975 N 657.755 -1.42862 -0.66545 0
M  V30 6976 C 658.685 -1.49867 -1.79059 0
M  V30 6977 C 659.666 -0.354394 -1.66367 0
M  V30 6978 O 660.851 -0.569969 -1.85647 0
M  V30 6979 C 657.981 -1.40943 -3.17415 0
M  V30 6980 C 656.935 -2.53495 -3.44854 0
M  V30 6981 C 656.261 -2.29626 -4.82883 0
M  V30 6982 C 657.561 -3.95781 -3.40815 0
M  V30 6983 H 659.255 -2.44037 -1.73453 0
M  V30 6984 H 656.801 -1.17456 -0.833071 0
M  V30 6985 H 658.754 -1.4445 -3.95869 0
M  V30 6986 H 657.478 -0.432716 -3.23721 0
M  V30 6987 H 656.137 -2.4932 -2.68766 0
M  V30 6988 H 655.785 -1.30226 -4.8585 0
M  V30 6989 H 655.485 -3.05065 -5.02204 0
M  V30 6990 H 657.009 -2.34897 -5.63609 0
M  V30 6991 H 658.423 -4.01508 -4.09224 0
M  V30 6992 H 656.82 -4.71148 -3.71672 0
M  V30 6993 H 657.89 -4.21786 -2.39216 0
M  V30 6994 N 659.233 0.902656 -1.29189 0
M  V30 6995 C 660.18 2.00643 -1.14066 0
M  V30 6996 C 661.15 1.66064 -0.0347756 0
M  V30 6997 O 662.335 1.8973 -0.201752 0
M  V30 6998 C 659.475 3.35214 -0.820104 0
M  V30 6999 C 658.588 3.82594 -2.00614 0
M  V30 7000 C 657.723 5.05727 -1.62522 0
M  V30 7001 C 656.762 5.45469 -2.77724 0
M  V30 7002 N 655.899 6.59789 -2.40048 0
M  V30 7003 H 660.739 2.1291 -2.08502 0
M  V30 7004 H 658.276 1.04271 -1.03759 0
M  V30 7005 H 660.234 4.12643 -0.614949 0
M  V30 7006 H 658.864 3.22682 0.0873452 0
M  V30 7007 H 657.916 3.01226 -2.32308 0
M  V30 7008 H 659.228 4.07999 -2.86946 0
M  V30 7009 H 658.382 5.90732 -1.38277 0
M  V30 7010 H 657.121 4.82155 -0.733333 0
M  V30 7011 H 656.126 4.59 -3.02653 0
M  V30 7012 H 657.351 5.71024 -3.67572 0
M  V30 7013 H 655.297 6.37826 -1.53343 0
M  V30 7014 H 655.214 6.84975 -3.19914 0
M  V30 7015 H 656.482 7.4807 -2.19116 0
M  V30 7016 N 660.711 1.11618 1.11262 0
M  V30 7017 C 661.674 0.779447 2.15539 0
M  V30 7018 C 662.674 -0.202081 1.59525 0
M  V30 7019 O 663.864 0.0226356 1.74185 0
M  V30 7020 C 660.996 0.15674 3.40539 0
M  V30 7021 H 662.189 1.70324 2.4684 0
M  V30 7022 H 659.742 0.918298 1.26479 0
M  V30 7023 H 660.477 -0.777186 3.1485 0
M  V30 7024 H 660.262 0.863308 3.82478 0
M  V30 7025 H 661.752 -0.062661 4.17553 0
M  V30 7026 N 662.189 -1.289 0.906776 0
M  V30 7027 C 663.417 -1.99401 0.551969 0
M  V30 7028 C 663.832 -1.67816 -0.865048 0
M  V30 7029 O 663.189 -0.927078 -1.57199 0
M  V30 7030 C 663.24 -3.53779 0.743152 0
M  V30 7031 O 662.961 -3.84248 2.1044 0
M  V30 7032 C 664.462 -4.41543 0.39424 0
M  V30 7033 H 661.682 -0.636926 0.211106 0
M  V30 7034 H 664.226 -1.64266 1.21807 0
M  V30 7035 H 662.381 -3.87201 0.124143 0
M  V30 7036 H 662.795 -4.78904 2.13895 0
M  V30 7037 H 664.269 -5.48957 0.578814 0
M  V30 7038 H 664.746 -4.34073 -0.669137 0
M  V30 7039 H 665.352 -4.13605 0.990491 0
M  V30 7040 N 663.667 -0.670007 -1.42649 0
M  V30 7041 C 664.614 0.0112928 -2.30797 0
M  V30 7042 C 665.584 0.797627 -1.45695 0
M  V30 7043 O 666.769 0.770845 -1.74535 0
M  V30 7044 C 663.909 0.95998 -3.31479 0
M  V30 7045 C 663.022 0.167975 -4.31673 0
M  V30 7046 C 662.157 1.11198 -5.19431 0
M  V30 7047 C 661.196 0.311381 -6.11307 0
M  V30 7048 N 660.333 1.20784 -6.91633 0
M  V30 7049 H 665.173 -0.746231 -2.88505 0
M  V30 7050 H 662.71 -0.379739 -1.42114 0
M  V30 7051 H 664.668 1.52379 -3.88377 0
M  V30 7052 H 663.298 1.68419 -2.75382 0
M  V30 7053 H 662.35 -0.512385 -3.76933 0
M  V30 7054 H 663.662 -0.453814 -4.96731 0
M  V30 7055 H 662.816 1.74587 -5.81037 0
M  V30 7056 H 661.555 1.76766 -4.54538 0
M  V30 7057 H 660.56 -0.335758 -5.48774 0
M  V30 7058 H 661.785 -0.340135 -6.78248 0
M  V30 7059 H 659.731 1.85001 -6.29373 0
M  V30 7060 H 659.648 0.64102 -7.53277 0
M  V30 7061 H 660.916 1.82936 -7.5773 0
M  V30 7062 N 665.145 1.52092 -0.413018 0
M  V30 7063 C 666.422 1.94356 0.22024 0
M  V30 7064 C 666.802 1.35017 1.62277 0
M  V30 7065 O 666.15 0.527511 2.22328 0
M  V30 7066 C 666.36 3.48289 0.222638 0
M  V30 7067 C 667.708 4.22313 0.440098 0
M  V30 7068 O 668.732 3.54919 0.301826 0
M  V30 7069 O 667.591 5.41829 0.712984 0
M  V30 7070 H 664.685 0.814536 0.14304 0
M  V30 7071 H 667.231 1.63083 -0.469242 0
M  V30 7072 H 666.003 3.83872 -0.758836 0
M  V30 7073 H 665.626 3.85934 0.956057 0
M  V30 7074 N 666.623 0.143563 1.56945 0
M  V30 7075 C 667.586 -0.783295 2.154 0
M  V30 7076 C 668.586 -1.17763 1.09492 0
M  V30 7077 O 669.776 -1.09912 1.35148 0
M  V30 7078 C 666.908 -2.06248 2.7143 0
M  V30 7079 H 668.101 -0.274863 2.98638 0
M  V30 7080 H 665.654 -0.105859 1.55941 0
M  V30 7081 H 666.389 -2.61466 1.91849 0
M  V30 7082 H 666.174 -1.78897 3.4891 0
M  V30 7083 H 667.664 -2.72453 3.16479 0
M  V30 7084 N 668.101 -1.57061 -0.130224 0
M  V30 7085 C 669.35 -1.83446 -0.838488 0
M  V30 7086 C 669.663 -0.727468 -1.81569 0
M  V30 7087 O 670.869 -0.877394 -2.56932 0
M  V30 7088 C 669.325 -3.25201 -1.54182 0
M  V30 7089 C 668.933 -4.4388 -0.606178 0
M  V30 7090 C 670.677 -3.60844 -2.23588 0
M  V30 7091 C 668.584 -5.76661 -1.31209 0
M  V30 7092 H 667.514 -0.684185 -0.316871 0
M  V30 7093 H 670.165 -1.83273 -0.0912059 0
M  V30 7094 H 668.547 -3.1981 -2.33533 0
M  V30 7095 H 669.721 -4.60545 0.153308 0
M  V30 7096 H 668.036 -4.16395 -0.0196705 0
M  V30 7097 H 670.633 -4.57313 -2.77072 0
M  V30 7098 H 670.976 -2.87724 -3.00867 0
M  V30 7099 H 671.509 -3.67971 -1.51137 0
M  V30 7100 H 668.248 -6.52922 -0.580823 0
M  V30 7101 H 667.768 -5.63902 -2.04387 0
M  V30 7102 H 669.447 -6.20035 -1.8484 0
M  V30 7103 N 669.579 0.400081 -1.52437 0
M  V30 7104 C 670.527 1.50851 -1.7705 0
M  V30 7105 C 671.521 1.56928 -0.637969 0
M  V30 7106 O 672.727 1.60226 -0.820212 0
M  V30 7107 H 669.102 0.50186 -0.560036 0
M  V30 7108 H 671.073 1.27281 -2.69893 0
M  V30 7109 C 669.822 2.88117 -1.94638 0
M  V30 7110 H 669.145 2.84187 -2.81208 0
M  V30 7111 H 670.585 3.64942 -2.15855 0
M  V30 7112 C 669.044 3.29206 -0.715899 0
M  V30 7113 O 669.574 4.01544 0.111944 0
M  V30 7114 N 667.78 2.85363 -0.549191 0
M  V30 7115 H 667.327 2.26664 -1.22397 0
M  V30 7116 H 667.285 3.13214 0.27278 0
M  V30 7117 N 671.057 1.43213 0.657864 0
M  V30 7118 C 672.304 1.44584 1.41781 0
M  V30 7119 C 672.632 0.0684208 1.9438 0
M  V30 7120 O 671.887 -0.925872 1.72413 0
M  V30 7121 C 672.186 2.43143 2.61947 0
M  V30 7122 C 671.852 3.89128 2.27794 0
M  V30 7123 C 670.514 4.28889 2.18191 0
M  V30 7124 C 672.866 4.81144 2.00375 0
M  V30 7125 C 670.194 5.58625 1.79319 0
M  V30 7126 C 672.546 6.11239 1.63003 0
M  V30 7127 C 671.21 6.49981 1.51922 0
M  V30 7128 H 670.48 0.529069 0.518813 0
M  V30 7129 H 673.127 1.76263 0.748577 0
M  V30 7130 H 671.432 2.04851 3.33981 0
M  V30 7131 H 673.129 2.4146 3.20153 0
M  V30 7132 H 669.719 3.57657 2.36176 0
M  V30 7133 H 673.903 4.512 2.06718 0
M  V30 7134 H 669.159 5.87486 1.69323 0
M  V30 7135 H 673.333 6.82014 1.40817 0
M  V30 7136 H 670.96 7.50416 1.21572 0
M  V30 7137 N 672.536 -0.895792 1.29666 0
M  V30 7138 C 673.764 -1.68001 1.20761 0
M  V30 7139 C 674.179 -1.87379 -0.231187 0
M  V30 7140 O 673.536 -1.41359 -1.15429 0
M  V30 7141 C 673.587 -3.06236 1.92098 0
M  V30 7142 O 673.308 -2.8774 3.30359 0
M  V30 7143 C 674.809 -4.00652 1.89717 0
M  V30 7144 H 672.029 -0.524591 0.418384 0
M  V30 7145 H 674.573 -1.11995 1.71106 0
M  V30 7146 H 672.728 -3.59007 1.45578 0
M  V30 7147 H 673.142 -3.75359 3.66342 0
M  V30 7148 H 674.616 -4.95051 2.44189 0
M  V30 7149 H 675.093 -4.30424 0.873595 0
M  V30 7150 H 675.699 -3.53815 2.35998 0
M  V30 7151 N 674.014 -1.12206 -1.10668 0
M  V30 7152 C 675.242 -0.898635 -1.86366 0
M  V30 7153 C 675.657 0.551991 -1.80551 0
M  V30 7154 O 675.014 1.38152 -1.19249 0
M  V30 7155 C 675.065 -1.36199 -3.34861 0
M  V30 7156 O 674.786 -2.75576 -3.40573 0
M  V30 7157 C 676.287 -1.17515 -4.2744 0
M  V30 7158 H 673.507 -0.321281 -0.589084 0
M  V30 7159 H 676.051 -1.49142 -1.39918 0
M  V30 7160 H 674.206 -0.81249 -3.78784 0
M  V30 7161 H 674.62 -2.95851 -4.33096 0
M  V30 7162 H 676.094 -1.54827 -5.29842 0
M  V30 7163 H 676.571 -0.115486 -4.39048 0
M  V30 7164 H 677.177 -1.71203 -3.89319 0
M  V30 7165 N 675.492 1.28418 -0.913599 0
M  V30 7166 C 676.402 2.31043 -0.406965 0
M  V30 7167 C 677.418 1.66501 0.505298 0
M  V30 7168 O 678.594 1.97558 0.391522 0
M  V30 7169 C 675.659 3.4498 0.344901 0
M  V30 7170 C 674.72 4.25078 -0.600563 0
M  V30 7171 C 673.953 5.33575 0.115516 0
M  V30 7172 O 674.176 5.54503 1.33727 0
M  V30 7173 O 673.11 5.9939 -0.549095 0
M  V30 7174 H 676.936 2.76387 -1.25873 0
M  V30 7175 H 674.521 1.33109 -0.678415 0
M  V30 7176 H 676.403 4.14314 0.769542 0
M  V30 7177 H 675.078 3.01719 1.1725 0
M  V30 7178 H 673.985 3.58334 -1.0746 0
M  V30 7179 H 675.318 4.72018 -1.39497 0
M  V30 7180 N 676.97 0.677563 1.42291 0
M  V30 7181 C 678.217 0.200975 2.015 0
M  V30 7182 C 678.545 -1.19342 1.53583 0
M  V30 7183 O 677.8 -1.81579 0.7299 0
M  V30 7184 C 678.099 0.187229 3.56909 0
M  V30 7185 C 677.765 1.52667 4.24268 0
M  V30 7186 C 676.427 1.89341 4.42384 0
M  V30 7187 C 678.779 2.40869 4.62203 0
M  V30 7188 C 676.107 3.13836 4.95705 0
M  V30 7189 C 678.459 3.64679 5.16906 0
M  V30 7190 C 677.123 4.01519 5.33234 0
M  V30 7191 H 676.393 0.0735418 0.737342 0
M  V30 7192 H 679.04 0.873095 1.70439 0
M  V30 7193 H 677.345 -0.568407 3.87655 0
M  V30 7194 H 679.042 -0.198773 4.00507 0
M  V30 7195 H 675.632 1.23138 4.1053 0
M  V30 7196 H 679.816 2.1382 4.47878 0
M  V30 7197 H 675.072 3.42396 5.06532 0
M  V30 7198 H 679.246 4.33224 5.45243 0
M  V30 7199 H 676.873 4.98062 5.74316 0
M  V30 7200 N 678.448 -1.51871 0.421078 0
M  V30 7201 C 679.378 -2.30231 -0.389363 0
M  V30 7202 C 680.359 -1.34946 -1.03555 0
M  V30 7203 O 681.544 -1.63859 -1.04229 0
M  V30 7204 C 678.674 -3.13247 -1.49979 0
M  V30 7205 C 677.628 -4.16677 -0.977966 0
M  V30 7206 C 676.954 -4.88112 -2.1829 0
M  V30 7207 C 678.254 -5.22295 -0.0236775 0
M  V30 7208 H 679.948 -2.98229 0.264524 0
M  V30 7209 H 677.494 -1.43424 0.12866 0
M  V30 7210 H 679.447 -3.66838 -2.07383 0
M  V30 7211 H 678.171 -2.4304 -2.18173 0
M  V30 7212 H 676.83 -3.64114 -0.426245 0
M  V30 7213 H 676.478 -4.14423 -2.85066 0
M  V30 7214 H 676.178 -5.58041 -1.84021 0
M  V30 7215 H 677.702 -5.44521 -2.76278 0
M  V30 7216 H 679.116 -5.71055 -0.506899 0
M  V30 7217 H 677.513 -5.99656 0.230782 0
M  V30 7218 H 678.583 -4.76131 0.917999 0
M  V30 7219 N 679.926 -0.151884 -1.56866 0
M  V30 7220 C 680.873 0.785936 -2.17006 0
M  V30 7221 C 681.843 1.2407 -1.10435 0
M  V30 7222 O 683.028 1.31235 -1.38499 0
M  V30 7223 C 680.168 2.01771 -2.79969 0
M  V30 7224 C 679.281 1.6083 -4.00946 0
M  V30 7225 C 678.416 2.79224 -4.51893 0
M  V30 7226 C 677.455 2.3468 -5.65324 0
M  V30 7227 N 676.592 3.461 -6.10867 0
M  V30 7228 H 681.432 0.266286 -2.96808 0
M  V30 7229 H 678.969 0.11972 -1.46612 0
M  V30 7230 H 680.927 2.73989 -3.14621 0
M  V30 7231 H 679.557 2.51139 -2.02803 0
M  V30 7232 H 678.609 0.783592 -3.72242 0
M  V30 7233 H 679.921 1.24119 -4.83111 0
M  V30 7234 H 679.075 3.59625 -4.88625 0
M  V30 7235 H 677.814 3.19183 -3.68746 0
M  V30 7236 H 676.819 1.52721 -5.28163 0
M  V30 7237 H 678.044 1.95801 -6.5026 0
M  V30 7238 H 675.99 3.85671 -5.30654 0
M  V30 7239 H 675.907 3.1342 -6.87971 0
M  V30 7240 H 677.175 4.26844 -6.52246 0
M  V30 7241 N 681.404 1.57128 0.121893 0
M  V30 7242 C 682.629 1.89254 0.848385 0
M  V30 7243 C 683.054 0.743527 1.72781 0
M  V30 7244 O 682.412 -0.306056 1.78698 0
M  V30 7245 C 682.46 3.20113 1.66012 0
M  V30 7246 O 681.564 3.05815 2.76679 0
M  V30 7247 H 680.905 0.621103 0.234793 0
M  V30 7248 H 683.435 2.0433 0.10516 0
M  V30 7249 H 683.445 3.52761 2.04996 0
M  V30 7250 H 682.12 4.03336 1.01452 0
M  V30 7251 H 680.697 2.84627 2.40918 0
M  V30 7252 N 682.882 -0.391992 1.52647 0
M  V30 7253 C 684.128 -1.139 1.67793 0
M  V30 7254 C 684.461 -1.89711 0.41514 0
M  V30 7255 O 683.736 -1.85431 -0.586979 0
M  V30 7256 C 684.019 -2.11966 2.91105 0
M  V30 7257 C 683.872 -1.39939 4.27478 0
M  V30 7258 C 685.191 -3.1243 3.09961 0
M  V30 7259 H 682.31 -0.412707 0.610608 0
M  V30 7260 H 684.952 -0.422725 1.85238 0
M  V30 7261 H 683.102 -2.73048 2.76364 0
M  V30 7262 H 684.774 -0.818439 4.53982 0
M  V30 7263 H 683.017 -0.701246 4.28095 0
M  V30 7264 H 683.688 -2.1158 5.09841 0
M  V30 7265 H 686.164 -2.61435 3.23714 0
M  V30 7266 H 685.04 -3.78294 3.97725 0
M  V30 7267 H 685.301 -3.81127 2.24042 0
M  V30 7268 N 684.36 -1.4356 -0.65026 0
M  V30 7269 C 685.585 -1.48995 -1.44275 0
M  V30 7270 C 686.01 -0.109954 -1.87778 0
M  V30 7271 O 685.368 0.896926 -1.57559 0
M  V30 7272 C 685.416 -2.44341 -2.65198 0
M  V30 7273 O 684.52 -1.93172 -3.6436 0
M  V30 7274 H 683.861 -0.503852 -0.432469 0
M  V30 7275 H 686.391 -1.88504 -0.795446 0
M  V30 7276 H 686.401 -2.61743 -3.12977 0
M  V30 7277 H 685.076 -3.44588 -2.32877 0
M  V30 7278 H 683.653 -1.85445 -3.23519 0
M  V30 7279 N 685.838 0.888903 -1.30139 0
M  V30 7280 C 686.748 2.02705 -1.18101 0
M  V30 7281 C 687.764 1.73702 -0.101809 0
M  V30 7282 O 688.94 1.98906 -0.315984 0
M  V30 7283 C 686.005 3.35616 -0.869651 0
M  V30 7284 C 685.066 3.78067 -2.03381 0
M  V30 7285 C 684.299 5.04635 -1.73721 0
M  V30 7286 O 684.522 5.66531 -0.663267 0
M  V30 7287 O 683.456 5.43399 -2.58845 0
M  V30 7288 H 687.282 2.15788 -2.13704 0
M  V30 7289 H 684.867 1.01426 -1.09695 0
M  V30 7290 H 686.749 4.15358 -0.711043 0
M  V30 7291 H 685.424 3.23651 0.0565002 0
M  V30 7292 H 684.331 2.99046 -2.24772 0
M  V30 7293 H 685.664 3.94631 -2.94155 0
M  V30 7294 N 687.317 1.12792 1.10072 0
M  V30 7295 C 688.264 0.79921 2.16521 0
M  V30 7296 C 689.234 -0.235726 1.64419 0
M  V30 7297 O 690.419 -0.109457 1.90486 0
M  V30 7298 C 687.559 0.264091 3.44088 0
M  V30 7299 C 686.672 1.35729 4.10124 0
M  V30 7300 C 685.807 0.781212 5.25424 0
M  V30 7301 C 684.846 1.85327 5.8337 0
M  V30 7302 N 683.983 1.29564 6.90042 0
M  V30 7303 H 688.823 1.71105 2.43981 0
M  V30 7304 H 686.36 0.854225 1.19756 0
M  V30 7305 H 688.318 -0.0642423 4.17151 0
M  V30 7306 H 686.948 -0.610901 3.16967 0
M  V30 7307 H 686 1.80234 3.34993 0
M  V30 7308 H 687.312 2.16782 4.4923 0
M  V30 7309 H 686.466 0.403769 6.05355 0
M  V30 7310 H 685.205 -0.0604686 4.87663 0
M  V30 7311 H 684.21 2.23986 5.02106 0
M  V30 7312 H 685.435 2.69824 6.23195 0
M  V30 7313 H 683.381 0.475844 6.54272 0
M  V30 7314 H 683.298 2.04271 7.2788 0
M  V30 7315 H 684.566 0.945545 7.73744 0
M  V30 7316 N 688.795 -1.27931 0.920396 0
M  V30 7317 C 690.025 -1.98516 0.572256 0
M  V30 7318 C 690.433 -1.68912 -0.852375 0
M  V30 7319 O 689.776 -0.94203 -1.57707 0
M  V30 7320 C 689.838 -3.5243 0.709485 0
M  V30 7321 C 689.502 -4.0564 2.10489 0
M  V30 7322 C 690.499 -4.1897 3.07831 0
M  V30 7323 C 688.184 -4.40168 2.41986 0
M  V30 7324 C 690.178 -4.66093 4.34783 0
M  V30 7325 C 687.865 -4.86983 3.69176 0
M  V30 7326 C 688.863 -4.99903 4.65388 0
M  V30 7327 O 688.551 -5.45694 5.90316 0
M  V30 7328 H 688.283 -0.64047 0.216274 0
M  V30 7329 H 690.837 -1.6393 1.23758 0
M  V30 7330 H 689.067 -3.86698 -0.0129263 0
M  V30 7331 H 690.756 -4.04233 0.367474 0
M  V30 7332 H 691.522 -3.92562 2.84816 0
M  V30 7333 H 687.401 -4.29358 1.67846 0
M  V30 7334 H 690.945 -4.76092 5.09884 0
M  V30 7335 H 686.842 -5.12832 3.92012 0
M  V30 7336 H 687.61 -5.63965 5.932 0
M  V30 7337 N 690.273 -0.685099 -1.4193 0
M  V30 7338 C 691.521 -0.21124 -2.00993 0
M  V30 7339 C 691.842 1.18985 -1.54491 0
M  V30 7340 O 691.112 1.8009 -0.771 0
M  V30 7341 H 689.692 -0.0751059 -0.743215 0
M  V30 7342 H 692.354 -0.883915 -1.73704 0
M  V30 7343 H 691.45 -0.220513 -3.1132 0
M  V30 7344 N 691.751 1.51645 -0.429126 0
M  V30 7345 C 692.714 2.26116 0.374726 0
M  V30 7346 C 693.714 1.29242 0.956714 0
M  V30 7347 O 694.904 1.53022 0.832452 0
M  V30 7348 C 692.036 3.04669 1.52937 0
M  V30 7349 H 693.229 2.9861 -0.277818 0
M  V30 7350 H 690.782 1.55236 -0.182097 0
M  V30 7351 H 691.517 2.36571 2.21821 0
M  V30 7352 H 691.302 3.75814 1.11833 0
M  V30 7353 H 692.792 3.61102 2.09751 0
M  V30 7354 N 693.229 0.160201 1.56784 0
M  V30 7355 C 694.176 -0.774416 2.1742 0
M  V30 7356 C 695.146 -1.23483 1.11091 0
M  V30 7357 O 696.331 -1.30499 1.39193 0
M  V30 7358 C 693.471 -2.00283 2.81035 0
M  V30 7359 C 692.584 -1.58701 4.01793 0
M  V30 7360 C 691.719 -2.76824 4.53367 0
M  V30 7361 C 690.758 -2.31679 5.66561 0
M  V30 7362 N 689.895 -3.42856 6.12694 0
M  V30 7363 H 694.735 -0.250542 2.96945 0
M  V30 7364 H 692.272 -0.111943 1.46673 0
M  V30 7365 H 694.23 -2.72316 3.16069 0
M  V30 7366 H 692.86 -2.5006 2.04132 0
M  V30 7367 H 691.912 -0.76384 3.72652 0
M  V30 7368 H 693.224 -1.21555 4.83762 0
M  V30 7369 H 692.378 -3.57029 4.90525 0
M  V30 7370 H 691.117 -3.17223 3.70433 0
M  V30 7371 H 690.122 -1.49917 5.28966 0
M  V30 7372 H 691.347 -1.9235 6.5129 0
M  V30 7373 H 689.293 -3.82852 5.32692 0
M  V30 7374 H 689.21 -3.09767 6.89624 0
M  V30 7375 H 690.478 -4.23379 6.545 0
M  V30 7376 N 694.707 -1.5719 -0.113559 0
M  V30 7377 C 695.67 -1.99796 -1.12314 0
M  V30 7378 C 696.67 -0.888847 -1.34001 0
M  V30 7379 O 697.86 -1.15476 -1.30426 0
M  V30 7380 C 694.992 -2.34279 -2.47641 0
M  V30 7381 H 696.185 -2.90193 -0.756825 0
M  V30 7382 H 693.738 -1.52144 -0.358029 0
M  V30 7383 H 694.473 -1.46778 -2.89183 0
M  V30 7384 H 694.258 -3.15175 -2.33253 0
M  V30 7385 H 695.748 -2.67963 -3.2029 0
M  V30 7386 N 696.185 0.383891 -1.52853 0
M  V30 7387 C 697.095 1.49343 -1.80925 0
M  V30 7388 C 698.111 1.59458 -0.696348 0
M  V30 7389 O 699.287 1.75698 -0.984481 0
M  V30 7390 C 696.352 2.84819 -1.97684 0
M  V30 7391 C 695.413 2.84382 -3.21598 0
M  V30 7392 C 694.646 4.13397 -3.37548 0
M  V30 7393 O 694.869 5.08619 -2.58192 0
M  V30 7394 O 693.803 4.20325 -4.30826 0
M  V30 7395 H 697.629 1.2855 -2.75152 0
M  V30 7396 H 695.214 0.572229 -1.38007 0
M  V30 7397 H 697.096 3.65125 -2.10385 0
M  V30 7398 H 695.771 3.05627 -1.06647 0
M  V30 7399 H 694.678 2.0284 -3.14336 0
M  V30 7400 H 696.011 2.68526 -4.12498 0
M  V30 7401 N 697.663 1.43903 0.642637 0
M  V30 7402 C 698.595 1.45857 1.768 0
M  V30 7403 C 699.608 0.353358 1.58919 0
M  V30 7404 O 700.797 0.618426 1.67445 0
M  V30 7405 C 697.897 1.26583 3.14372 0
M  V30 7406 C 697.07 2.50139 3.58817 0
M  V30 7407 C 696.129 2.25933 4.75227 0
M  V30 7408 O 695.155 2.99351 4.84125 0
M  V30 7409 N 696.357 1.28263 5.66153 0
M  V30 7410 H 699.122 2.42869 1.75598 0
M  V30 7411 H 696.683 1.39194 0.826832 0
M  V30 7412 H 698.675 1.08255 3.89953 0
M  V30 7413 H 697.245 0.37978 3.10284 0
M  V30 7414 H 696.465 2.83821 2.73568 0
M  V30 7415 H 697.753 3.32344 3.8526 0
M  V30 7416 H 697.151 0.676041 5.61646 0
M  V30 7417 H 695.708 1.15916 6.4141 0
M  V30 7418 N 699.141 -0.881989 1.30609 0
M  V30 7419 C 700.071 -2.00413 1.1982 0
M  V30 7420 C 701.052 -1.69871 0.0881538 0
M  V30 7421 O 702.237 -1.92304 0.2707 0
M  V30 7422 C 699.367 -3.35641 0.89233 0
M  V30 7423 C 698.321 -3.80451 1.96064 0
M  V30 7424 C 697.647 -5.13003 1.5077 0
M  V30 7425 C 698.947 -3.98855 3.37213 0
M  V30 7426 H 700.641 -2.09698 2.13699 0
M  V30 7427 H 698.187 -1.00754 1.02882 0
M  V30 7428 H 700.14 -4.13669 0.803497 0
M  V30 7429 H 698.864 -3.26497 -0.0821381 0
M  V30 7430 H 697.523 -3.04654 2.03916 0
M  V30 7431 H 697.171 -5.0029 0.521417 0
M  V30 7432 H 696.871 -5.43956 2.22229 0
M  V30 7433 H 698.395 -5.93554 1.43271 0
M  V30 7434 H 699.809 -4.67312 3.32103 0
M  V30 7435 H 698.206 -4.41188 4.06784 0
M  V30 7436 H 699.276 -3.02614 3.78883 0
M  V30 7437 N 700.619 -1.13374 -1.09472 0
M  V30 7438 C 701.582 -0.813639 -2.14272 0
M  V30 7439 C 702.582 0.176677 -1.59826 0
M  V30 7440 O 703.772 -0.0503441 -1.74127 0
M  V30 7441 C 700.904 -0.210897 -3.40247 0
M  V30 7442 H 702.097 -1.74229 -2.44099 0
M  V30 7443 H 699.65 -0.938304 -1.25002 0
M  V30 7444 H 700.385 0.726998 -3.16046 0
M  V30 7445 H 700.17 -0.924048 -3.81056 0
M  V30 7446 H 701.66 -0.00377603 -4.176 0
M  V30 7447 N 702.098 1.27442 -0.927168 0
M  V30 7448 C 703.514 1.46754 -0.627329 0
M  V30 7449 C 703.714 1.83902 0.823549 0
M  V30 7450 O 702.77 1.95215 1.60148 0
M  V30 7451 C 704.083 2.56045 -1.57674 0
M  V30 7452 C 705.631 2.69906 -1.58491 0
M  V30 7453 C 706.106 3.82355 -2.52128 0
M  V30 7454 N 707.597 3.89728 -2.50332 0
M  V30 7455 C 708.332 4.76155 -3.19475 0
M  V30 7456 N 707.828 5.67073 -3.97995 0
M  V30 7457 N 709.621 4.6988 -3.08496 0
M  V30 7458 H 701.772 1.01613 -1.86517 0
M  V30 7459 H 704.035 0.507443 -0.800753 0
M  V30 7460 H 703.741 2.35542 -2.61176 0
M  V30 7461 H 703.615 3.53423 -1.31804 0
M  V30 7462 H 706.002 2.89792 -0.557208 0
M  V30 7463 H 706.083 1.73018 -1.8841 0
M  V30 7464 H 705.727 3.63224 -3.55008 0
M  V30 7465 H 705.657 4.7867 -2.19505 0
M  V30 7466 H 708.148 3.24717 -1.93306 0
M  V30 7467 H 708.461 6.2988 -4.4774 0
M  V30 7468 H 706.806 5.6687 -4.02098 0
M  V30 7469 H 709.997 3.97848 -2.46646 0
M  V30 7470 H 710.17 5.37017 -3.62652 0
M  V30 7471 N 703.576 0.692616 1.41565 0
M  V30 7472 C 704.486 0.0258451 2.34586 0
M  V30 7473 C 705.502 -0.769324 1.56069 0
M  V30 7474 O 706.678 -0.707563 1.88562 0
M  V30 7475 C 703.743 -0.901289 3.3478 0
M  V30 7476 C 702.804 -0.0986579 4.29187 0
M  V30 7477 C 702.037 -0.981634 5.24595 0
M  V30 7478 O 702.26 -2.22115 5.25377 0
M  V30 7479 O 701.194 -0.432892 6.00341 0
M  V30 7480 H 705.02 0.792537 2.93177 0
M  V30 7481 H 702.605 0.452935 1.42369 0
M  V30 7482 H 704.487 -1.43302 3.96286 0
M  V30 7483 H 703.162 -1.64752 2.78637 0
M  V30 7484 H 702.069 0.477604 3.71039 0
M  V30 7485 H 703.402 0.608848 4.8842 0
M  V30 7486 N 705.054 -1.51416 0.437162 0
M  V30 7487 C 705.987 -2.24309 -0.419602 0
M  V30 7488 C 706.965 -1.26236 -1.02485 0
M  V30 7489 O 708.149 -1.5537 -1.06735 0
M  V30 7490 C 705.276 -2.99335 -1.58482 0
M  V30 7491 C 704.322 -4.12064 -1.10027 0
M  V30 7492 S 705.155 -5.35483 -0.0424476 0
M  V30 7493 C 706.311 -6.14047 -1.21234 0
M  V30 7494 H 706.544 -2.96632 0.199259 0
M  V30 7495 H 704.077 -1.528 0.22168 0
M  V30 7496 H 706.035 -3.43159 -2.25282 0
M  V30 7497 H 704.696 -2.26602 -2.17509 0
M  V30 7498 H 703.889 -4.63836 -1.97161 0
M  V30 7499 H 703.491 -3.70499 -0.510507 0
M  V30 7500 H 705.783 -6.43123 -2.13072 0
M  V30 7501 H 706.726 -7.04279 -0.734582 0
M  V30 7502 H 707.134 -5.45538 -1.45082 0
M  V30 7503 N 706.532 -0.168513 -1.56696 0
M  V30 7504 C 707.495 0.748928 -2.16619 0
M  V30 7505 C 708.495 1.16007 -1.11351 0
M  V30 7506 O 709.685 1.07748 -1.3688 0
M  V30 7507 C 706.817 2.01904 -2.74677 0
M  V30 7508 H 708.01 0.227317 -2.99037 0
M  V30 7509 H 705.563 0.0810372 -1.5609 0
M  V30 7510 H 706.298 2.58381 -1.95985 0
M  V30 7511 H 706.083 1.73323 -3.51712 0
M  V30 7512 H 707.573 2.67383 -3.20774 0
M  V30 7513 N 708.01 1.57248 0.105221 0
M  V30 7514 C 709.258 1.85204 0.808951 0
M  V30 7515 C 709.579 0.75574 1.7976 0
M  V30 7516 O 708.849 -0.218984 1.94672 0
M  V30 7517 H 707.429 0.683346 0.301739 0
M  V30 7518 H 710.091 1.94695 0.0892605 0
M  V30 7519 H 709.187 2.81595 1.34575 0
M  V30 7520 N 709.488 -0.375779 1.53054 0
M  V30 7521 C 710.42 -1.47963 1.75042 0
M  V30 7522 C 711.433 -1.50073 0.631031 0
M  V30 7523 O 712.622 -1.53736 0.907052 0
M  V30 7524 C 709.722 -2.86767 1.80604 0
M  V30 7525 C 708.895 -3.08471 3.10104 0
M  V30 7526 C 707.954 -4.27332 3.07041 0
M  V30 7527 O 706.98 -4.22998 3.80869 0
M  V30 7528 N 708.182 -5.34214 2.27147 0
M  V30 7529 H 710.947 -1.29484 2.70285 0
M  V30 7530 H 708.508 -0.565416 1.51706 0
M  V30 7531 H 710.5 -3.64404 1.76045 0
M  V30 7532 H 709.07 -2.98542 0.926897 0
M  V30 7533 H 708.29 -2.18583 3.28048 0
M  V30 7534 H 709.578 -3.19834 3.95706 0
M  V30 7535 H 708.976 -5.40594 1.66656 0
M  V30 7536 H 707.533 -6.10467 2.28415 0
M  V30 7537 N 710.966 -1.44241 -0.634997 0
M  V30 7538 C 711.929 -1.50457 -1.72903 0
M  V30 7539 C 712.929 -0.387058 -1.56072 0
M  V30 7540 O 714.119 -0.649531 -1.61638 0
M  V30 7541 C 711.251 -1.37477 -3.1195 0
M  V30 7542 H 712.444 -2.47907 -1.68767 0
M  V30 7543 H 709.997 -1.31276 -0.84831 0
M  V30 7544 H 710.732 -0.41106 -3.21684 0
M  V30 7545 H 710.517 -2.18506 -3.25573 0
M  V30 7546 H 712.007 -1.44799 -3.91692 0
M  V30 7547 N 712.444 0.87505 -1.31075 0
M  V30 7548 C 713.391 1.98178 -1.18296 0
M  V30 7549 C 714.361 1.65952 -0.0699923 0
M  V30 7550 O 715.546 1.8926 -0.241951 0
M  V30 7551 C 712.686 3.33399 -0.891024 0
M  V30 7552 C 711.799 3.78253 -2.08684 0
M  V30 7553 C 710.934 5.02166 -1.73212 0
M  V30 7554 C 709.973 5.39455 -2.89231 0
M  V30 7555 N 709.11 6.54549 -2.53989 0
M  V30 7556 H 713.95 2.0844 -2.12971 0
M  V30 7557 H 711.487 1.02047 -1.05948 0
M  V30 7558 H 713.445 4.11246 -0.702338 0
M  V30 7559 H 712.075 3.22794 0.0188799 0
M  V30 7560 H 711.127 2.9623 -2.38646 0
M  V30 7561 H 712.439 4.01821 -2.95536 0
M  V30 7562 H 711.593 5.87666 -1.50777 0
M  V30 7563 H 710.332 4.80491 -0.83544 0
M  V30 7564 H 709.337 4.52477 -3.12321 0
M  V30 7565 H 710.562 5.63098 -3.79601 0
M  V30 7566 H 708.508 6.3443 -1.66838 0
M  V30 7567 H 708.425 6.78035 -3.34372 0
M  V30 7568 H 709.693 7.43254 -2.34934 0
M  V30 7569 N 713.922 1.13953 1.08869 0
M  V30 7570 C 715.17 0.903023 1.80803 0
M  V30 7571 C 715.491 -0.572151 1.86417 0
M  V30 7572 O 714.761 -1.41589 1.35386 0
M  V30 7573 H 713.341 0.331099 0.669614 0
M  V30 7574 H 716.003 1.43719 1.31647 0
M  V30 7575 H 715.099 1.29881 2.83791 0
M  V30 7576 N 715.4 -1.26948 0.933913 0
M  V30 7577 C 716.347 -2.26635 0.436484 0
M  V30 7578 C 717.317 -1.58397 -0.499953 0
M  V30 7579 O 718.502 -1.86171 -0.417753 0
M  V30 7580 C 715.642 -3.43803 -0.298951 0
M  V30 7581 C 714.755 -4.26736 0.672316 0
M  V30 7582 C 713.89 -5.31134 -0.0835872 0
M  V30 7583 C 712.929 -6.05742 0.879979 0
M  V30 7584 N 712.066 -7.01926 0.156301 0
M  V30 7585 H 716.906 -2.68558 1.29154 0
M  V30 7586 H 714.443 -1.32052 0.648118 0
M  V30 7587 H 716.401 -4.10554 -0.741723 0
M  V30 7588 H 715.031 -3.02814 -1.1182 0
M  V30 7589 H 714.083 -3.59842 1.23361 0
M  V30 7590 H 715.395 -4.78502 1.40846 0
M  V30 7591 H 714.549 -6.03863 -0.585984 0
M  V30 7592 H 713.288 -4.80188 -0.852661 0
M  V30 7593 H 712.293 -5.31846 1.39357 0
M  V30 7594 H 713.518 -6.58777 1.64894 0
M  V30 7595 H 711.464 -6.53301 -0.594413 0
M  V30 7596 H 711.381 -7.51409 0.831906 0
M  V30 7597 H 712.649 -7.78821 -0.325239 0
M  V30 7598 N 716.879 -0.700114 -1.41195 0
M  V30 7599 C 717.826 -0.0376652 -2.30769 0
M  V30 7600 C 718.796 0.766544 -1.47354 0
M  V30 7601 O 719.981 0.73365 -1.76131 0
M  V30 7602 C 717.121 0.889452 -3.33441 0
M  V30 7603 C 716.234 0.076373 -4.31932 0
M  V30 7604 C 715.369 1.00155 -5.21673 0
M  V30 7605 C 714.408 0.181644 -6.1183 0
M  V30 7606 N 713.545 1.06087 -6.94039 0
M  V30 7607 H 718.385 -0.80726 -2.86858 0
M  V30 7608 H 715.922 -0.409798 -1.41277 0
M  V30 7609 H 717.88 1.44107 -3.91522 0
M  V30 7610 H 716.51 1.6254 -2.78892 0
M  V30 7611 H 715.562 -0.592223 -3.75762 0
M  V30 7612 H 716.874 -0.559076 -4.95657 0
M  V30 7613 H 716.028 1.62223 -5.8461 0
M  V30 7614 H 714.767 1.67085 -4.58186 0
M  V30 7615 H 713.772 -0.452085 -5.47938 0
M  V30 7616 H 714.997 -0.483925 -6.77374 0
M  V30 7617 H 712.943 1.7161 -6.33156 0
M  V30 7618 H 712.86 0.481094 -7.54468 0
M  V30 7619 H 714.128 1.66822 -7.6144 0
M  V30 7620 N 718.357 1.51182 -0.445186 0
M  V30 7621 C 719.606 2.01342 0.120189 0
M  V30 7622 C 719.919 1.33353 1.43095 0
M  V30 7623 O 721.125 1.74525 2.07974 0
M  V30 7624 C 719.581 3.58925 0.264732 0
M  V30 7625 C 719.189 4.35855 -1.03606 0
M  V30 7626 C 720.933 4.17208 0.783455 0
M  V30 7627 C 718.84 5.85162 -0.856731 0
M  V30 7628 H 717.77 0.752426 0.0486922 0
M  V30 7629 H 720.421 1.74221 -0.576143 0
M  V30 7630 H 718.803 3.82525 1.02425 0
M  V30 7631 H 719.977 4.23997 -1.80452 0
M  V30 7632 H 718.292 3.89062 -1.48391 0
M  V30 7633 H 720.889 5.26475 0.934239 0
M  V30 7634 H 721.232 3.76892 1.768 0
M  V30 7635 H 721.765 3.97715 0.0820346 0
M  V30 7636 H 718.504 6.29904 -1.81388 0
M  V30 7637 H 718.024 5.99663 -0.128206 0
M  V30 7638 H 719.703 6.44963 -0.513027 0
M  V30 7639 N 719.835 0.176821 1.56605 0
M  V30 7640 C 721.251 -0.179278 1.5859 0
M  V30 7641 C 721.451 -1.62433 1.19238 0
M  V30 7642 O 720.507 -2.35665 0.906552 0
M  V30 7643 C 721.82 0.106524 3.00511 0
M  V30 7644 C 723.368 0.0451731 3.12967 0
M  V30 7645 C 723.843 0.304038 4.5699 0
M  V30 7646 N 725.334 0.252008 4.62514 0
M  V30 7647 C 726.069 0.426404 5.71812 0
M  V30 7648 N 725.565 0.660155 6.89648 0
M  V30 7649 N 727.358 0.361926 5.60934 0
M  V30 7650 H 719.509 1.12001 1.8047 0
M  V30 7651 H 721.772 0.445679 0.836704 0
M  V30 7652 H 721.478 1.10778 3.33798 0
M  V30 7653 H 721.352 -0.599337 3.72408 0
M  V30 7654 H 723.739 -0.946662 2.79504 0
M  V30 7655 H 723.82 0.78383 2.43495 0
M  V30 7656 H 723.464 1.29311 4.91163 0
M  V30 7657 H 723.394 -0.455294 5.24628 0
M  V30 7658 H 725.885 0.0772102 3.77821 0
M  V30 7659 H 726.198 0.782529 7.68828 0
M  V30 7660 H 724.543 0.696835 6.91498 0
M  V30 7661 H 727.734 0.17986 4.67754 0
M  V30 7662 H 727.907 0.501263 6.46058 0
M  V30 7663 N 721.313 -1.57302 -0.09688 0
M  V30 7664 C 722.261 -2.02942 -1.13654 0
M  V30 7665 C 723.255 -0.930173 -1.41577 0
M  V30 7666 O 724.461 -1.11535 -1.41279 0
M  V30 7667 H 720.836 -0.646726 -0.383731 0
M  V30 7668 H 722.807 -2.89452 -0.725267 0
M  V30 7669 C 721.556 -2.46815 -2.44903 0
M  V30 7670 H 720.879 -3.30979 -2.24261 0
M  V30 7671 H 722.319 -2.82527 -3.16156 0
M  V30 7672 C 720.778 -1.34071 -3.09074 0
M  V30 7673 O 721.308 -0.668856 -3.96092 0
M  V30 7674 N 719.514 -1.09214 -2.69296 0
M  V30 7675 H 719.061 -1.64029 -1.98626 0
M  V30 7676 H 719.019 -0.339785 -3.12559 0
M  V30 7677 N 722.791 0.367657 -1.53252 0
M  V30 7678 C 724.037 1.11216 -1.69584 0
M  V30 7679 C 724.37 1.89026 -0.445269 0
M  V30 7680 O 723.645 1.86342 0.557404 0
M  V30 7681 C 723.928 2.07308 -2.94441 0
M  V30 7682 C 723.781 1.3312 -4.2965 0
M  V30 7683 C 725.1 3.07459 -3.14892 0
M  V30 7684 H 722.219 0.40294 -0.617096 0
M  V30 7685 H 724.861 0.393201 -1.85887 0
M  V30 7686 H 723.011 2.68617 -2.80673 0
M  V30 7687 H 724.683 0.746111 -4.55226 0
M  V30 7688 H 722.926 0.633051 -4.29156 0
M  V30 7689 H 723.597 2.03443 -5.13142 0
M  V30 7690 H 726.073 2.56252 -3.27832 0
M  V30 7691 H 724.949 3.71919 -4.03693 0
M  V30 7692 H 725.21 3.77514 -2.30077 0
M  V30 7693 N 724.269 1.44576 0.627338 0
M  V30 7694 C 725.179 1.54232 1.76776 0
M  V30 7695 C 726.195 0.427782 1.6866 0
M  V30 7696 O 727.371 0.685671 1.89369 0
M  V30 7697 C 724.436 1.48738 3.13174 0
M  V30 7698 C 723.497 2.71074 3.32893 0
M  V30 7699 C 722.73 2.65832 4.62784 0
M  V30 7700 O 722.953 1.72048 5.43834 0
M  V30 7701 O 721.887 3.56742 4.84787 0
M  V30 7702 H 725.713 2.50586 1.71582 0
M  V30 7703 H 723.298 1.26865 0.789028 0
M  V30 7704 H 725.18 1.48211 3.94476 0
M  V30 7705 H 723.855 0.555292 3.18902 0
M  V30 7706 H 722.762 2.77168 2.51254 0
M  V30 7707 H 724.095 3.63342 3.32029 0
M  V30 7708 N 725.747 -0.868086 1.31537 0
M  V30 7709 C 726.657 -2.00801 1.21311 0
M  V30 7710 C 727.673 -1.73518 0.129431 0
M  V30 7711 O 728.849 -1.98378 0.347588 0
M  V30 7712 C 725.914 -3.3419 0.922935 0
M  V30 7713 C 724.975 -3.74783 2.0937 0
M  V30 7714 C 724.208 -5.01807 1.81728 0
M  V30 7715 O 724.431 -5.65404 0.753313 0
M  V30 7716 O 723.365 -5.39213 2.67457 0
M  V30 7717 H 727.191 -2.12361 2.17109 0
M  V30 7718 H 724.776 -0.996684 1.11295 0
M  V30 7719 H 726.658 -4.14174 0.777033 0
M  V30 7720 H 725.333 -3.237 -0.00500301 0
M  V30 7721 H 724.24 -2.95432 2.29501 0
M  V30 7722 H 725.573 -3.89902 3.00396 0
M  V30 7723 N 727.225 -1.14528 -1.08264 0
M  V30 7724 C 728.188 -0.83632 -2.13397 0
M  V30 7725 C 729.188 0.159715 -1.60005 0
M  V30 7726 O 730.378 -0.0688098 -1.74064 0
M  V30 7727 C 727.51 -0.246973 -3.40004 0
M  V30 7728 H 728.703 -1.76808 -2.42237 0
M  V30 7729 H 726.256 -0.951509 -1.24 0
M  V30 7730 H 726.991 0.693436 -3.168 0
M  V30 7731 H 726.776 -0.964412 -3.80055 0
M  V30 7732 H 728.266 -0.0480679 -4.17572 0
M  V30 7733 N 728.703 1.26451 -0.940633 0
M  V30 7734 C 729.633 2.28773 -0.467479 0
M  V30 7735 C 730.614 1.63218 0.478955 0
M  V30 7736 O 731.799 1.90427 0.380929 0
M  V30 7737 C 728.929 3.46259 0.268656 0
M  V30 7738 C 727.883 4.23898 -0.591171 0
M  V30 7739 C 727.209 5.33993 0.274891 0
M  V30 7740 C 728.509 4.87974 -1.86223 0
M  V30 7741 H 730.203 2.68601 -1.32265 0
M  V30 7742 H 727.749 1.29123 -0.637436 0
M  V30 7743 H 729.702 4.16951 0.610696 0
M  V30 7744 H 728.426 3.05383 1.15796 0
M  V30 7745 H 727.085 3.54969 -0.916098 0
M  V30 7746 H 726.733 4.89358 1.16353 0
M  V30 7747 H 726.433 5.86849 -0.297006 0
M  V30 7748 H 727.957 6.07523 0.612213 0
M  V30 7749 H 729.371 5.50883 -1.58747 0
M  V30 7750 H 727.768 5.50945 -2.37866 0
M  V30 7751 H 728.838 4.10945 -2.57394 0
M  V30 7752 N 730.181 0.707592 1.40822 0
M  V30 7753 C 731.128 0.0499029 2.30746 0
M  V30 7754 C 732.098 -0.758718 1.47759 0
M  V30 7755 O 733.283 -0.724299 1.76518 0
M  V30 7756 C 730.423 -0.871756 3.33908 0
M  V30 7757 C 729.536 -0.0534655 4.31967 0
M  V30 7758 C 728.671 -0.973869 5.22197 0
M  V30 7759 C 727.71 -0.149194 6.11918 0
M  V30 7760 N 726.847 -1.02404 6.94592 0
M  V30 7761 H 731.687 0.822461 2.86426 0
M  V30 7762 H 729.224 0.417285 1.41057 0
M  V30 7763 H 731.182 -1.42028 3.9228 0
M  V30 7764 H 729.812 -1.61058 2.7975 0
M  V30 7765 H 728.864 0.612142 3.75442 0
M  V30 7766 H 730.176 0.585354 4.95353 0
M  V30 7767 H 729.33 -1.59121 5.85462 0
M  V30 7768 H 728.069 -1.64652 4.59065 0
M  V30 7769 H 727.074 0.481137 5.47691 0
M  V30 7770 H 728.299 0.519841 6.77107 0
M  V30 7771 H 726.245 -1.6825 6.34057 0
M  V30 7772 H 726.162 -0.441076 7.54712 0
M  V30 7773 H 727.43 -1.62782 7.62314 0
M  V30 7774 N 731.66 -1.50943 0.453197 0
M  V30 7775 C 732.888 -2.06628 -0.106135 0
M  V30 7776 C 733.303 -1.31901 -1.35084 0
M  V30 7777 O 732.66 -0.383074 -1.78434 0
M  V30 7778 C 732.711 -3.5914 -0.412368 0
M  V30 7779 O 732.432 -4.31047 0.782948 0
M  V30 7780 C 733.933 -4.31391 -1.02064 0
M  V30 7781 H 731.153 -0.670999 -0.000885896 0
M  V30 7782 H 733.697 -1.94331 0.63684 0
M  V30 7783 H 731.852 -3.71299 -1.10526 0
M  V30 7784 H 732.266 -5.21948 0.516736 0
M  V30 7785 H 733.74 -5.39135 -1.1848 0
M  V30 7786 H 734.217 -3.90714 -2.00598 0
M  V30 7787 H 734.823 -4.23716 -0.366664 0
M  V30 7788 N 733.138 -0.185124 -1.56509 0
M  V30 7789 C 734.368 0.461469 -2.0138 0
M  V30 7790 C 734.776 1.56417 -1.06445 0
M  V30 7791 O 734.119 1.83603 -0.0597515 0
M  V30 7792 C 734.181 1.08731 -3.42663 0
M  V30 7793 C 733.845 0.124581 -4.5683 0
M  V30 7794 C 734.842 -0.662295 -5.15664 0
M  V30 7795 C 732.527 0.0163947 -5.02297 0
M  V30 7796 C 734.521 -1.54442 -6.18406 0
M  V30 7797 C 732.208 -0.869301 -6.04885 0
M  V30 7798 C 733.206 -1.64828 -6.62813 0
M  V30 7799 O 732.894 -2.51915 -7.63409 0
M  V30 7800 H 732.626 0.1212 -0.665046 0
M  V30 7801 H 735.18 -0.288119 -2.03369 0
M  V30 7802 H 733.41 1.8853 -3.37629 0
M  V30 7803 H 735.099 1.63753 -3.71403 0
M  V30 7804 H 735.865 -0.588963 -4.81411 0
M  V30 7805 H 731.744 0.61253 -4.56913 0
M  V30 7806 H 735.288 -2.15289 -6.63548 0
M  V30 7807 H 731.185 -0.943786 -6.38563 0
M  V30 7808 H 731.953 -2.45584 -7.80789 0
M  V30 7809 N 734.616 1.57351 0.0885366 0
M  V30 7810 C 735.526 2.05858 1.12516 0
M  V30 7811 C 736.542 0.984758 1.43452 0
M  V30 7812 O 737.718 1.29836 1.53963 0
M  V30 7813 C 734.783 2.47882 2.42395 0
M  V30 7814 C 733.844 3.69487 2.18582 0
M  V30 7815 C 733.077 4.09497 3.42268 0
M  V30 7816 O 733.3 3.49536 4.50755 0
M  V30 7817 O 732.234 5.02406 3.31469 0
M  V30 7818 H 736.06 2.94467 0.743146 0
M  V30 7819 H 733.645 1.46326 0.301507 0
M  V30 7820 H 735.527 2.75509 3.18862 0
M  V30 7821 H 734.202 1.62408 2.8001 0
M  V30 7822 H 733.109 3.46967 1.39875 0
M  V30 7823 H 734.442 4.55761 1.85857 0
M  V30 7824 N 736.094 -0.359525 1.53444 0
M  V30 7825 C 737.041 -1.44073 1.8031 0
M  V30 7826 C 738.011 -1.52946 0.647811 0
M  V30 7827 O 739.196 -1.68739 0.890614 0
M  V30 7828 C 736.336 -2.80941 2.00416 0
M  V30 7829 C 735.449 -2.80986 3.28132 0
M  V30 7830 C 734.584 -4.09468 3.38393 0
M  V30 7831 C 733.623 -4.03679 4.60119 0
M  V30 7832 N 732.76 -5.23821 4.675 0
M  V30 7833 H 737.6 -1.20464 2.72566 0
M  V30 7834 H 735.137 -0.583859 1.35017 0
M  V30 7835 H 737.095 -3.60459 2.1006 0
M  V30 7836 H 735.725 -3.02936 1.11489 0
M  V30 7837 H 734.777 -1.93666 3.27411 0
M  V30 7838 H 736.089 -2.72583 4.17732 0
M  V30 7839 H 735.243 -4.97404 3.47382 0
M  V30 7840 H 733.982 -4.20632 2.4682 0
M  V30 7841 H 732.987 -3.14129 4.51224 0
M  V30 7842 H 734.212 -3.94112 5.5304 0
M  V30 7843 H 732.158 -5.35559 3.7883 0
M  V30 7844 H 732.075 -5.17611 5.51013 0
M  V30 7845 H 733.343 -6.13572 4.8078 0
M  V30 7846 N 737.572 -1.44907 -0.619662 0
M  V30 7847 C 738.802 -1.51575 -1.40387 0
M  V30 7848 C 739.21 -0.14309 -1.88658 0
M  V30 7849 O 738.553 0.863403 -1.62145 0
M  V30 7850 C 738.615 -2.42858 -2.65067 0
M  V30 7851 C 738.279 -3.8982 -2.38515 0
M  V30 7852 C 739.276 -4.80047 -1.99627 0
M  V30 7853 C 736.961 -4.34628 -2.51801 0
M  V30 7854 C 738.955 -6.13086 -1.74369 0
M  V30 7855 C 736.642 -5.67712 -2.26156 0
M  V30 7856 C 737.64 -6.56759 -1.875 0
M  V30 7857 O 737.328 -7.87377 -1.62148 0
M  V30 7858 H 737.06 -0.51612 -0.436573 0
M  V30 7859 H 739.614 -1.90664 -0.763959 0
M  V30 7860 H 737.844 -1.98717 -3.31735 0
M  V30 7861 H 739.533 -2.40346 -3.27091 0
M  V30 7862 H 740.299 -4.46697 -1.8891 0
M  V30 7863 H 736.178 -3.65568 -2.80857 0
M  V30 7864 H 739.722 -6.8255 -1.44122 0
M  V30 7865 H 735.619 -6.0062 -2.36486 0
M  V30 7866 H 736.387 -7.99288 -1.763 0
M  V30 7867 N 739.05 0.861098 -1.31996 0
M  V30 7868 C 740.466 1.14827 -1.10846 0
M  V30 7869 C 740.666 2.0117 0.11528 0
M  V30 7870 O 739.722 2.39423 0.802048 0
M  V30 7871 C 741.035 1.83183 -2.38462 0
M  V30 7872 C 742.583 1.95847 -2.44158 0
M  V30 7873 C 743.058 2.67617 -3.71679 0
M  V30 7874 N 744.549 2.75147 -3.72624 0
M  V30 7875 C 745.284 3.31314 -4.67994 0
M  V30 7876 N 744.78 3.88343 -5.73726 0
M  V30 7877 N 746.573 3.29356 -4.55501 0
M  V30 7878 H 738.724 0.285951 -2.10466 0
M  V30 7879 H 740.987 0.189303 -0.928907 0
M  V30 7880 H 740.693 1.27193 -3.27895 0
M  V30 7881 H 740.567 2.83393 -2.48935 0
M  V30 7882 H 742.954 2.50999 -1.55189 0
M  V30 7883 H 743.035 0.94653 -2.37644 0
M  V30 7884 H 742.679 2.13131 -4.61018 0
M  V30 7885 H 742.609 3.69237 -3.75462 0
M  V30 7886 H 745.1 2.34682 -2.96197 0
M  V30 7887 H 745.413 4.29338 -6.42564 0
M  V30 7888 H 743.758 3.86693 -5.77489 0
M  V30 7889 H 746.949 2.84047 -3.72069 0
M  V30 7890 H 747.122 3.7283 -5.30001 0
M  V30 7891 N 740.528 1.15101 1.07655 0
M  V30 7892 C 741.491 0.847625 2.12951 0
M  V30 7893 C 742.491 -0.151227 1.60087 0
M  V30 7894 O 743.681 0.0780399 1.74025 0
M  V30 7895 C 740.813 0.265 3.39868 0
M  V30 7896 H 742.006 1.7809 2.41296 0
M  V30 7897 H 739.559 0.958072 1.23494 0
M  V30 7898 H 740.294 -0.676625 3.17163 0
M  V30 7899 H 740.079 0.984554 3.79538 0
M  V30 7900 H 741.569 0.0702121 4.17541 0
M  V30 7901 N 742.006 -1.2595 0.947325 0
M  V30 7902 C 743.283 -1.88676 0.515824 0
M  V30 7903 C 743.663 -1.85547 -1.00675 0
M  V30 7904 O 743.011 -1.31399 -1.8694 0
M  V30 7905 C 743.221 -3.31734 1.08415 0
M  V30 7906 C 744.569 -4.08545 1.15654 0
M  V30 7907 O 745.593 -3.40826 1.03517 0
M  V30 7908 O 744.452 -5.29663 1.34608 0
M  V30 7909 H 741.546 -0.809537 0.169055 0
M  V30 7910 H 744.092 -1.34075 1.04029 0
M  V30 7911 H 742.864 -3.28404 2.1276 0
M  V30 7912 H 742.487 -3.93882 0.542499 0
M  V30 7913 N 743.484 -0.715051 -1.40445 0
M  V30 7914 C 744.733 -0.251322 -2.00128 0
M  V30 7915 C 745.046 1.16194 -1.57347 0
M  V30 7916 O 746.252 1.72416 -2.09726 0
M  V30 7917 C 744.708 -0.398407 -3.57688 0
M  V30 7918 C 744.316 -1.81828 -4.09442 0
M  V30 7919 C 746.06 0.00455625 -4.245 0
M  V30 7920 C 743.967 -1.91598 -5.59503 0
M  V30 7921 H 742.897 -0.0902081 -0.748584 0
M  V30 7922 H 745.548 -0.886062 -1.6069 0
M  V30 7923 H 743.93 0.304908 -3.94824 0
M  V30 7924 H 745.104 -2.55193 -3.83684 0
M  V30 7925 H 743.419 -2.17266 -3.55225 0
M  V30 7926 H 746.016 -0.0477303 -5.34679 0
M  V30 7927 H 746.359 1.04636 -4.02935 0
M  V30 7928 H 746.892 -0.649184 -3.92467 0
M  V30 7929 H 743.631 -2.93898 -5.85922 0
M  V30 7930 H 743.151 -1.22644 -5.87127 0
M  V30 7931 H 744.83 -1.68785 -6.24596 0
M  V30 7932 N 744.962 1.50701 -0.461195 0
M  V30 7933 C 745.91 2.29918 0.352231 0
M  V30 7934 C 746.904 1.36778 0.999403 0
M  V30 7935 O 748.11 1.54015 0.931639 0
M  V30 7936 H 744.485 0.740249 0.132423 0
M  V30 7937 H 746.456 2.96497 -0.336424 0
M  V30 7938 C 745.205 3.17052 1.42736 0
M  V30 7939 H 744.528 3.88623 0.938747 0
M  V30 7940 H 745.968 3.75493 1.96928 0
M  V30 7941 C 744.427 2.3399 2.42384 0
M  V30 7942 O 744.957 2.01608 3.47444 0
M  V30 7943 N 743.163 1.96758 2.13857 0
M  V30 7944 H 742.71 2.23292 1.28447 0
M  V30 7945 H 742.668 1.41484 2.80766 0
M  V30 7946 N 746.441 0.193421 1.56409 0
M  V30 7947 C 747.388 -0.728124 2.19014 0
M  V30 7948 C 748.358 -1.21098 1.13686 0
M  V30 7949 O 749.543 -1.27517 1.4193 0
M  V30 7950 C 746.683 -1.94277 2.8522 0
M  V30 7951 C 745.796 -1.50143 4.05069 0
M  V30 7952 C 744.931 -2.67145 4.59137 0
M  V30 7953 C 743.97 -2.19609 5.71348 0
M  V30 7954 N 743.107 -3.29782 6.19829 0
M  V30 7955 H 747.947 -0.187499 2.9741 0
M  V30 7956 H 745.484 -0.0808064 1.46878 0
M  V30 7957 H 747.442 -2.65551 3.21774 0
M  V30 7958 H 746.072 -2.45673 2.09391 0
M  V30 7959 H 745.124 -0.684624 3.74189 0
M  V30 7960 H 746.436 -1.11266 4.86232 0
M  V30 7961 H 745.59 -3.46544 4.97988 0
M  V30 7962 H 744.329 -3.09295 3.77078 0
M  V30 7963 H 743.334 -1.38664 5.32027 0
M  V30 7964 H 744.559 -1.78492 6.55223 0
M  V30 7965 H 742.505 -3.71466 5.40693 0
M  V30 7966 H 742.422 -2.95069 6.96039 0
M  V30 7967 H 743.69 -4.094 6.63334 0
M  V30 7968 N 747.919 -1.57396 -0.0801906 0
M  V30 7969 C 748.866 -2.03107 -1.09618 0
M  V30 7970 C 749.836 -0.910118 -1.38946 0
M  V30 7971 O 751.021 -1.17719 -1.50156 0
M  V30 7972 C 748.161 -2.47293 -2.40708 0
M  V30 7973 C 747.274 -3.72972 -2.17982 0
M  V30 7974 C 746.409 -4.05975 -3.42576 0
M  V30 7975 C 745.448 -5.24719 -3.15177 0
M  V30 7976 N 744.585 -5.53401 -4.32078 0
M  V30 7977 H 749.425 -2.89677 -0.69939 0
M  V30 7978 H 746.962 -1.43263 -0.333785 0
M  V30 7979 H 748.92 -2.7096 -3.17232 0
M  V30 7980 H 747.55 -1.63713 -2.78205 0
M  V30 7981 H 746.602 -3.56693 -1.32189 0
M  V30 7982 H 747.914 -4.59638 -1.93738 0
M  V30 7983 H 747.068 -4.30498 -4.275 0
M  V30 7984 H 745.807 -3.17859 -3.69887 0
M  V30 7985 H 744.812 -5 -2.28648 0
M  V30 7986 H 746.037 -6.14445 -2.89197 0
M  V30 7987 H 743.983 -4.68245 -4.59437 0
M  V30 7988 H 743.9 -6.34469 -4.11078 0
M  V30 7989 H 745.168 -5.8247 -5.18024 0
M  V30 7990 N 749.397 0.351382 -1.53633 0
M  V30 7991 C 750.646 1.08988 -1.69719 0
M  V30 7992 C 750.959 1.90043 -0.462948 0
M  V30 7993 O 752.165 2.66769 -0.504613 0
M  V30 7994 C 750.621 1.98691 -3.00083 0
M  V30 7995 C 750.229 1.22881 -4.30818 0
M  V30 7996 C 751.973 2.72446 -3.25536 0
M  V30 7997 C 749.88 2.11568 -5.52262 0
M  V30 7998 H 748.81 0.410588 -0.632403 0
M  V30 7999 H 751.461 0.349886 -1.80133 0
M  V30 8000 H 749.843 2.76478 -2.83506 0
M  V30 8001 H 751.017 0.500582 -4.58073 0
M  V30 8002 H 749.332 0.60928 -4.11918 0
M  V30 8003 H 751.929 3.39055 -4.13456 0
M  V30 8004 H 752.272 3.38588 -2.42206 0
M  V30 8005 H 752.805 2.01735 -3.42852 0
M  V30 8006 H 749.544 1.4998 -6.38111 0
M  V30 8007 H 749.064 2.82201 -5.29266 0
M  V30 8008 H 750.743 2.70802 -5.87601 0
M  V30 8009 N 750.875 1.45233 0.611969 0
M  V30 8010 C 751.823 1.53898 1.74408 0
M  V30 8011 C 752.817 0.409254 1.64382 0
M  V30 8012 O 754.023 0.584988 1.70229 0
M  V30 8013 H 750.398 0.483303 0.576127 0
M  V30 8014 H 752.369 2.49143 1.64227 0
M  V30 8015 C 751.118 1.51865 3.12782 0
M  V30 8016 H 750.441 2.38118 3.21154 0
M  V30 8017 H 751.881 1.61986 3.91838 0
M  V30 8018 C 750.34 0.242374 3.36027 0
M  V30 8019 O 750.87 -0.679587 3.9591 0
M  V30 8020 N 749.076 0.139448 2.90265 0
M  V30 8021 H 748.623 0.890571 2.41716 0
M  V30 8022 H 748.581 -0.713686 3.06193 0
M  V30 8023 N 752.353 -0.854086 1.3245 0
M  V30 8024 C 753.316 -1.94427 1.21371 0
M  V30 8025 C 754.316 -1.60219 0.136613 0
M  V30 8026 O 755.506 -1.69846 0.387057 0
M  V30 8027 C 752.638 -3.29698 0.866701 0
M  V30 8028 H 753.831 -2.05679 2.18257 0
M  V30 8029 H 751.384 -1.04434 1.1629 0
M  V30 8030 H 752.119 -3.24145 -0.100319 0
M  V30 8031 H 751.904 -3.55903 1.64545 0
M  V30 8032 H 753.394 -4.09599 0.813515 0
M  V30 8033 N 753.831 -1.1567 -1.07043 0
M  V30 8034 C 754.778 -0.856336 -2.14326 0
M  V30 8035 C 755.748 0.192051 -1.64986 0
M  V30 8036 O 756.933 0.0589148 -1.90709 0
M  V30 8037 C 754.073 -0.355227 -3.43267 0
M  V30 8038 C 753.186 -1.46555 -4.06381 0
M  V30 8039 C 752.321 -0.920245 -5.23168 0
M  V30 8040 C 751.36 -2.00729 -5.78251 0
M  V30 8041 N 750.497 -1.47813 -6.86364 0
M  V30 8042 H 755.337 -1.77514 -2.39359 0
M  V30 8043 H 752.874 -0.885676 -1.17449 0
M  V30 8044 H 754.832 -0.0463804 -4.17174 0
M  V30 8045 H 753.462 0.526649 -3.18475 0
M  V30 8046 H 752.514 -1.89052 -3.30096 0
M  V30 8047 H 753.826 -2.28616 -4.43324 0
M  V30 8048 H 752.98 -0.564127 -6.04072 0
M  V30 8049 H 751.719 -0.0688477 -4.87651 0
M  V30 8050 H 750.724 -2.3722 -4.95991 0
M  V30 8051 H 751.949 -2.86252 -6.15822 0
M  V30 8052 H 749.895 -0.649145 -6.5278 0
M  V30 8053 H 749.812 -2.23498 -7.22208 0
M  V30 8054 H 751.08 -1.15036 -7.70965 0
M  V30 8055 N 755.309 1.25446 -0.953992 0
M  V30 8056 C 756.586 1.884 -0.525823 0
M  V30 8057 C 756.966 1.86079 0.996891 0
M  V30 8058 O 756.314 1.32389 1.8624 0
M  V30 8059 C 756.524 3.31154 -1.10172 0
M  V30 8060 C 757.872 4.07926 -1.17819 0
M  V30 8061 O 758.896 3.40273 -1.05323 0
M  V30 8062 O 757.755 5.28942 -1.37415 0
M  V30 8063 H 754.849 0.808629 -0.173345 0
M  V30 8064 H 757.395 1.33522 -1.04738 0
M  V30 8065 H 756.167 3.27271 -2.14499 0
M  V30 8066 H 755.79 3.93588 -0.56338 0
M  V30 8067 N 756.787 0.722489 1.40064 0
M  V30 8068 C 758.203 0.396758 1.5459 0
M  V30 8069 C 758.403 -1.09375 1.69232 0
M  V30 8070 O 757.459 -1.87984 1.68578 0
M  V30 8071 C 758.772 1.16885 2.77053 0
M  V30 8072 C 760.32 1.15583 2.90877 0
M  V30 8073 C 760.795 1.91023 4.16262 0
M  V30 8074 N 762.286 1.88126 4.23276 0
M  V30 8075 C 763.021 2.43315 5.19216 0
M  V30 8076 N 762.517 3.07089 6.21022 0
M  V30 8077 N 764.31 2.33418 5.11344 0
M  V30 8078 H 756.461 1.68887 1.28806 0
M  V30 8079 H 758.724 0.714231 0.62336 0
M  V30 8080 H 758.43 2.22301 2.72534 0
M  V30 8081 H 758.304 0.765011 3.69361 0
M  V30 8082 H 760.691 0.10984 2.94896 0
M  V30 8083 H 760.772 1.59895 1.99668 0
M  V30 8084 H 760.416 2.95616 4.13006 0
M  V30 8085 H 760.346 1.44126 5.06493 0
M  V30 8086 H 762.837 1.41654 3.50346 0
M  V30 8087 H 763.15 3.467 6.90666 0
M  V30 8088 H 761.495 3.11175 6.21446 0
M  V30 8089 H 764.686 1.83248 4.30741 0
M  V30 8090 H 764.859 2.7673 5.85939 0
M  V30 8091 N 758.265 -1.50454 0.469181 0
M  V30 8092 C 759.228 -2.2703 -0.314643 0
M  V30 8093 C 760.228 -1.31734 -0.922111 0
M  V30 8094 O 761.418 -1.55176 -0.791588 0
M  V30 8095 C 758.55 -3.08616 -1.44806 0
M  V30 8096 H 759.743 -2.97769 0.356892 0
M  V30 8097 H 757.296 -1.54698 0.223191 0
M  V30 8098 H 758.031 -2.42369 -2.1547 0
M  V30 8099 H 757.816 -3.78647 -1.01829 0
M  V30 8100 H 759.306 -3.66536 -2.00103 0
M  V30 8101 N 759.743 -0.201713 -1.56304 0
M  V30 8102 C 760.706 0.702811 -2.18159 0
M  V30 8103 C 761.706 1.13619 -1.13787 0
M  V30 8104 O 762.896 1.0482 -1.39134 0
M  V30 8105 C 760.028 1.96032 -2.78898 0
M  V30 8106 H 761.221 0.163836 -2.99452 0
M  V30 8107 H 758.774 0.04791 -1.56227 0
M  V30 8108 H 759.509 2.54165 -2.01421 0
M  V30 8109 H 759.294 1.65824 -3.55309 0
M  V30 8110 H 760.784 2.60519 -3.26373 0
M  V30 8111 N 761.222 1.57436 0.0718424 0
M  V30 8112 C 762.471 1.86431 0.769826 0
M  V30 8113 C 762.784 0.794355 1.78744 0
M  V30 8114 O 763.99 0.972148 2.53499 0
M  V30 8115 C 762.446 3.307 1.42006 0
M  V30 8116 C 762.054 4.45824 0.441017 0
M  V30 8117 C 763.798 3.68894 2.10041 0
M  V30 8118 C 761.705 5.81134 1.09717 0
M  V30 8119 H 760.635 0.695474 0.291259 0
M  V30 8120 H 763.286 1.83485 0.0231224 0
M  V30 8121 H 761.668 3.28257 2.21502 0
M  V30 8122 H 762.842 4.59659 -0.32413 0
M  V30 8123 H 761.157 4.16181 -0.134886 0
M  V30 8124 H 763.754 4.67281 2.59908 0
M  V30 8125 H 764.097 2.98692 2.89981 0
M  V30 8126 H 764.63 3.73326 1.37376 0
M  V30 8127 H 761.369 6.54628 0.338095 0
M  V30 8128 H 760.889 5.711 1.83317 0
M  V30 8129 H 762.568 6.26468 1.617 0
M  V30 8130 N 762.7 -0.34323 1.53817 0
M  V30 8131 C 763.663 -1.40444 1.8113 0
M  V30 8132 C 764.663 -1.45604 0.682366 0
M  V30 8133 O 765.853 -1.45974 0.950649 0
M  V30 8134 C 762.985 -2.79369 1.95361 0
M  V30 8135 H 764.178 -1.17489 2.75928 0
M  V30 8136 H 761.731 -0.577636 1.45234 0
M  V30 8137 H 762.466 -3.07607 1.02707 0
M  V30 8138 H 762.251 -2.7702 2.77493 0
M  V30 8139 H 763.741 -3.56178 2.18008 0
M  V30 8140 N 764.178 -1.45556 -0.604258 0
M  V30 8141 C 765.141 -1.54091 -1.69672 0
M  V30 8142 C 766.141 -0.420076 -1.55216 0
M  V30 8143 O 767.331 -0.683671 -1.60224 0
M  V30 8144 C 764.463 -1.44063 -3.08964 0
M  V30 8145 H 765.656 -2.51431 -1.6347 0
M  V30 8146 H 763.209 -1.33046 -0.820273 0
M  V30 8147 H 763.944 -0.479201 -3.2074 0
M  V30 8148 H 763.729 -2.25362 -3.20865 0
M  V30 8149 H 765.219 -1.53075 -3.88533 0
M  V30 8150 N 765.656 0.84705 -1.32902 0
M  V30 8151 C 766.619 1.9378 -1.224 0
M  V30 8152 C 767.619 1.60144 -0.145108 0
M  V30 8153 O 768.809 1.69638 -0.396058 0
M  V30 8154 C 765.941 3.29234 -0.884174 0
M  V30 8155 H 767.134 2.04518 -2.19345 0
M  V30 8156 H 764.687 1.03816 -1.16842 0
M  V30 8157 H 765.422 3.24193 0.0831277 0
M  V30 8158 H 765.207 3.55026 -1.6643 0
M  V30 8159 H 766.697 4.09162 -0.835226 0
M  V30 8160 N 767.134 1.16236 1.06428 0
M  V30 8161 C 768.064 0.890807 2.1584 0
M  V30 8162 C 769.045 -0.162333 1.69324 0
M  V30 8163 O 770.23 -0.0147191 1.94194 0
M  V30 8164 C 767.36 0.389615 3.45108 0
M  V30 8165 C 766.314 1.38051 4.05125 0
M  V30 8166 C 765.64 0.737773 5.29586 0
M  V30 8167 C 766.94 2.74965 4.44062 0
M  V30 8168 H 768.634 1.80577 2.38814 0
M  V30 8169 H 766.18 0.869657 1.14774 0
M  V30 8170 H 768.133 0.187127 4.20984 0
M  V30 8171 H 766.857 -0.560851 3.21748 0
M  V30 8172 H 765.516 1.56952 3.31303 0
M  V30 8173 H 765.164 -0.219135 5.02522 0
M  V30 8174 H 764.864 1.39914 5.70699 0
M  V30 8175 H 766.388 0.545275 6.0816 0
M  V30 8176 H 767.802 2.59855 5.11027 0
M  V30 8177 H 766.199 3.37563 4.96156 0
M  V30 8178 H 767.269 3.30321 3.54987 0
M  V30 8179 N 768.612 -1.24939 0.960631 0
M  V30 8180 C 769.522 -2.29374 0.492435 0
M  V30 8181 C 770.538 -1.68262 -0.443154 0
M  V30 8182 O 771.714 -1.98875 -0.31793 0
M  V30 8183 C 768.779 -3.46023 -0.216626 0
M  V30 8184 C 767.84 -4.22557 0.757915 0
M  V30 8185 C 767.073 -5.33636 0.0825969 0
M  V30 8186 O 767.296 -5.59084 -1.13054 0
M  V30 8187 O 766.23 -5.96939 0.771177 0
M  V30 8188 H 770.056 -2.71525 1.36044 0
M  V30 8189 H 767.641 -1.30499 0.72735 0
M  V30 8190 H 769.523 -4.16885 -0.615241 0
M  V30 8191 H 768.198 -3.05862 -1.05971 0
M  V30 8192 H 767.105 -3.54099 1.20685 0
M  V30 8193 H 768.438 -4.66516 1.5692 0
M  V30 8194 N 770.09 -0.729906 -1.39679 0
M  V30 8195 C 771.315 -0.284345 -2.05442 0
M  V30 8196 C 771.74 1.07056 -1.54663 0
M  V30 8197 O 771.098 1.67732 -0.688157 0
M  V30 8198 C 771.146 -0.290089 -3.59431 0
M  V30 8199 O 770.25 0.723978 -4.05995 0
M  V30 8200 H 769.591 -0.130311 -0.651088 0
M  V30 8201 H 772.121 -0.994403 -1.78809 0
M  V30 8202 H 772.131 -0.132712 -4.07784 0
M  V30 8203 H 770.806 -1.27877 -3.95753 0
M  V30 8204 H 769.383 0.533154 -3.69069 0
M  V30 8205 N 771.568 1.50203 -0.477153 0
M  V30 8206 C 772.814 2.02658 0.0758507 0
M  V30 8207 C 773.147 1.358 1.38824 0
M  V30 8208 O 772.422 0.485696 1.88338 0
M  V30 8209 C 772.705 3.59208 0.253339 0
M  V30 8210 C 772.558 4.36629 -1.0805 0
M  V30 8211 C 773.877 4.28469 1.00509 0
M  V30 8212 H 770.996 0.736538 0.0260921 0
M  V30 8213 H 773.638 1.79464 -0.623925 0
M  V30 8214 H 771.788 3.79101 0.849378 0
M  V30 8215 H 773.46 4.28292 -1.71358 0
M  V30 8216 H 771.703 4.0013 -1.67566 0
M  V30 8217 H 772.374 5.44449 -0.909883 0
M  V30 8218 H 774.85 4.13087 0.499818 0
M  V30 8219 H 773.726 5.37804 1.09808 0
M  V30 8220 H 773.987 3.92057 2.04314 0
M  V30 8221 N 773.046 0.209999 1.56195 0
M  V30 8222 C 773.993 -0.704854 2.19774 0
M  V30 8223 C 774.963 -1.19886 1.14964 0
M  V30 8224 O 776.148 -1.26005 1.43274 0
M  V30 8225 C 773.288 -1.91241 2.87265 0
M  V30 8226 C 772.401 -1.45838 4.06639 0
M  V30 8227 C 771.536 -2.6226 4.61945 0
M  V30 8228 C 770.575 -2.13537 5.73645 0
M  V30 8229 N 769.712 -3.2319 6.23292 0
M  V30 8230 H 774.552 -0.155944 2.97592 0
M  V30 8231 H 772.089 -0.0652235 1.46955 0
M  V30 8232 H 774.047 -2.62123 3.24573 0
M  V30 8233 H 772.677 -2.43439 2.11985 0
M  V30 8234 H 771.729 -0.644897 3.74894 0
M  V30 8235 H 773.041 -1.06103 4.87384 0
M  V30 8236 H 772.195 -3.41243 5.01636 0
M  V30 8237 H 770.934 -3.05278 3.80338 0
M  V30 8238 H 769.939 -1.33013 5.33468 0
M  V30 8239 H 771.164 -1.71533 6.57079 0
M  V30 8240 H 769.11 -3.65711 5.44602 0
M  V30 8241 H 769.027 -2.8767 6.99129 0
M  V30 8242 H 770.295 -4.02342 6.67639 0
M  V30 8243 N 774.524 -1.57472 -0.0634922 0
M  V30 8244 C 775.454 -2.07297 -1.07473 0
M  V30 8245 C 776.435 -0.968162 -1.39859 0
M  V30 8246 O 777.62 -1.24139 -1.49343 0
M  V30 8247 C 774.75 -2.52381 -2.38581 0
M  V30 8248 C 773.704 -3.66813 -2.20526 0
M  V30 8249 C 773.03 -3.97982 -3.57092 0
M  V30 8250 C 774.33 -4.96553 -1.61965 0
M  V30 8251 H 776.024 -2.92033 -0.660092 0
M  V30 8252 H 773.57 -1.40488 -0.316074 0
M  V30 8253 H 775.523 -2.85852 -3.09624 0
M  V30 8254 H 774.247 -1.64684 -2.8204 0
M  V30 8255 H 772.906 -3.33639 -1.51924 0
M  V30 8256 H 772.554 -3.07403 -3.98136 0
M  V30 8257 H 772.254 -4.7504 -3.45848 0
M  V30 8258 H 773.778 -4.33956 -4.29552 0
M  V30 8259 H 775.192 -5.28201 -2.22883 0
M  V30 8260 H 773.589 -5.7799 -1.61394 0
M  V30 8261 H 774.659 -4.81396 -0.581918 0
M  V30 8262 N 776.003 0.335068 -1.53997 0
M  V30 8263 C 777.228 1.09859 -1.75914 0
M  V30 8264 C 777.653 1.81308 -0.500915 0
M  V30 8265 O 777.011 1.72854 0.54693 0
M  V30 8266 C 777.059 2.08122 -2.94478 0
M  V30 8267 O 776.163 3.15805 -2.65219 0
M  V30 8268 H 775.504 0.317313 -0.583274 0
M  V30 8269 H 778.034 0.382872 -2.00986 0
M  V30 8270 H 778.044 2.51195 -3.21504 0
M  V30 8271 H 776.719 1.55517 -3.8573 0
M  V30 8272 H 775.296 2.77489 -2.49107 0
M  V30 8273 N 777.481 1.45874 0.596531 0
M  V30 8274 C 778.758 1.40942 1.35627 0
M  V30 8275 C 779.138 0.0857066 2.10926 0
M  V30 8276 O 778.486 -0.932544 2.08605 0
M  V30 8277 C 778.696 2.63027 2.29386 0
M  V30 8278 C 780.044 3.08588 2.91649 0
M  V30 8279 O 781.068 2.63478 2.39704 0
M  V30 8280 O 779.927 3.86902 3.85965 0
M  V30 8281 H 777.021 0.559838 0.608696 0
M  V30 8282 H 779.567 1.5802 0.618698 0
M  V30 8283 H 778.339 3.5094 1.7308 0
M  V30 8284 H 777.962 2.48338 3.10506 0
M  V30 8285 N 778.959 -0.83999 1.33349 0
M  V30 8286 C 780.208 -1.59011 1.2409 0
M  V30 8287 C 780.521 -1.94655 -0.192029 0
M  V30 8288 O 781.727 -2.68438 -0.406617 0
M  V30 8289 C 780.183 -2.86801 2.17425 0
M  V30 8290 C 779.791 -2.58525 3.65881 0
M  V30 8291 C 781.535 -3.64823 2.17036 0
M  V30 8292 C 779.442 -3.82404 4.51133 0
M  V30 8293 H 778.372 -0.596731 0.460899 0
M  V30 8294 H 781.023 -0.926274 1.58406 0
M  V30 8295 H 779.405 -3.54719 1.7604 0
M  V30 8296 H 780.579 -1.98824 4.15699 0
M  V30 8297 H 778.894 -1.93808 3.68548 0
M  V30 8298 H 781.491 -4.56774 2.7796 0
M  V30 8299 H 781.834 -3.99663 1.16513 0
M  V30 8300 H 782.367 -3.03826 2.56777 0
M  V30 8301 H 779.106 -3.52696 5.52527 0
M  V30 8302 H 778.626 -4.41447 4.0606 0
M  V30 8303 H 780.305 -4.49995 4.6488 0
M  V30 8304 N 780.437 -1.16799 -1.0581 0
M  V30 8305 C 781.662 -0.977402 -1.82925 0
M  V30 8306 C 782.087 0.469514 -1.82146 0
M  V30 8307 O 781.445 1.33576 -1.22585 0
M  V30 8308 C 781.493 -1.51543 -3.27211 0
M  V30 8309 O 780.597 -0.725021 -4.05977 0
M  V30 8310 H 779.938 -0.347474 -0.565825 0
M  V30 8311 H 782.468 -1.55151 -1.33376 0
M  V30 8312 H 782.478 -1.53502 -3.78023 0
M  V30 8313 H 781.153 -2.56872 -3.27093 0
M  V30 8314 H 779.73 -0.77634 -3.64729 0
M  V30 8315 N 781.915 1.24427 -0.967243 0
M  V30 8316 C 783.14 1.9708 -0.646069 0
M  V30 8317 C 783.565 1.71272 0.777665 0
M  V30 8318 O 782.923 0.976179 1.52776 0
M  V30 8319 C 782.971 3.48501 -0.926266 0
M  V30 8320 O 782.075 4.12398 -0.0114653 0
M  V30 8321 H 781.416 0.617423 -0.244304 0
M  V30 8322 H 783.946 1.58215 -1.29727 0
M  V30 8323 H 783.956 3.98885 -0.857619 0
M  V30 8324 H 782.631 3.66613 -1.96386 0
M  V30 8325 H 781.208 3.72661 -0.133396 0
M  V30 8326 N 783.393 0.737304 1.3929 0
M  V30 8327 C 784.341 0.0879867 2.32434 0
M  V30 8328 C 785.335 -0.723324 1.53181 0
M  V30 8329 O 786.541 -0.624251 1.68829 0
M  V30 8330 H 782.916 0.00965277 0.751938 0
M  V30 8331 H 784.887 0.889915 2.84821 0
M  V30 8332 C 783.636 -0.803384 3.38291 0
M  V30 8333 H 782.959 -0.18849 3.99355 0
M  V30 8334 H 784.399 -1.22528 4.0591 0
M  V30 8335 C 782.858 -1.93872 2.75527 0
M  V30 8336 O 783.388 -3.03154 2.63553 0
M  V30 8337 N 781.594 -1.72883 2.3358 0
M  V30 8338 H 781.141 -0.840005 2.43519 0
M  V30 8339 H 781.099 -2.49021 1.91927 0
M  V30 8340 N 784.871 -1.49948 0.485112 0
M  V30 8341 C 785.801 -2.31675 -0.291364 0
M  V30 8342 C 786.782 -1.39216 -0.977383 0
M  V30 8343 O 787.967 -1.68133 -0.971855 0
M  V30 8344 C 785.097 -3.19326 -1.36558 0
M  V30 8345 C 784.051 -4.2045 -0.800359 0
M  V30 8346 C 783.377 -4.96931 -1.97391 0
M  V30 8347 C 784.677 -5.21925 0.197867 0
M  V30 8348 H 786.371 -2.96839 0.390775 0
M  V30 8349 H 783.917 -1.42749 0.189375 0
M  V30 8350 H 785.87 -3.75304 -1.91638 0
M  V30 8351 H 784.594 -2.52074 -2.07668 0
M  V30 8352 H 783.253 -3.65594 -0.271428 0
M  V30 8353 H 782.901 -4.26141 -2.67232 0
M  V30 8354 H 782.601 -5.65344 -1.60187 0
M  V30 8355 H 784.125 -5.55749 -2.52935 0
M  V30 8356 H 785.539 -5.72691 -0.264239 0
M  V30 8357 H 783.936 -5.98138 0.484908 0
M  V30 8358 H 785.006 -4.71809 1.11912 0
M  V30 8359 N 786.349 -0.21828 -1.56081 0
M  V30 8360 C 787.297 0.709679 -2.21509 0
M  V30 8361 C 788.291 1.20221 -1.19346 0
M  V30 8362 O 789.497 1.16241 -1.37433 0
M  V30 8363 H 785.872 0.247271 -0.710184 0
M  V30 8364 H 787.843 0.134386 -2.98097 0
M  V30 8365 C 786.592 1.90853 -2.90638 0
M  V30 8366 H 785.915 1.53865 -3.69006 0
M  V30 8367 H 787.355 2.53568 -3.39822 0
M  V30 8368 C 785.814 2.76189 -1.92929 0
M  V30 8369 O 786.344 3.74842 -1.44416 0
M  V30 8370 N 784.55 2.42157 -1.6065 0
M  V30 8371 H 784.097 1.61987 -2.00294 0
M  V30 8372 H 784.055 2.99534 -0.955347 0
M  V30 8373 N 787.827 1.57504 0.0551401 0
M  V30 8374 C 789.243 1.54236 0.410292 0
M  V30 8375 C 789.443 0.940839 1.78187 0
M  V30 8376 O 788.499 0.550541 2.46425 0
M  V30 8377 C 789.812 2.98816 0.336064 0
M  V30 8378 C 791.36 3.10236 0.415047 0
M  V30 8379 C 791.835 4.56499 0.37055 0
M  V30 8380 N 793.326 4.61199 0.43013 0
M  V30 8381 C 794.061 5.71873 0.418179 0
M  V30 8382 N 793.557 6.91864 0.360056 0
M  V30 8383 N 795.35 5.60165 0.465977 0
M  V30 8384 H 787.501 1.94965 -0.842759 0
M  V30 8385 H 789.764 0.893096 -0.317937 0
M  V30 8386 H 789.47 3.4645 -0.605429 0
M  V30 8387 H 789.344 3.59564 1.13988 0
M  V30 8388 H 791.731 2.62566 1.34697 0
M  V30 8389 H 791.812 2.52367 -0.417648 0
M  V30 8390 H 791.456 5.0483 -0.557592 0
M  V30 8391 H 791.386 5.12249 1.221 0
M  V30 8392 H 793.877 3.74857 0.478623 0
M  V30 8393 H 794.19 7.71983 0.35532 0
M  V30 8394 H 792.535 6.94233 0.326492 0
M  V30 8395 H 795.726 4.65322 0.509194 0
M  V30 8396 H 795.899 6.46413 0.453194 0
M  V30 8397 N 789.305 -0.326896 1.54172 0
M  V30 8398 C 790.552 -1.06523 1.72218 0
M  V30 8399 C 790.88 -1.88119 0.494114 0
M  V30 8400 O 790.135 -1.8855 -0.524147 0
M  V30 8401 C 790.434 -2.0208 2.94785 0
M  V30 8402 C 790.1 -1.36665 4.2969 0
M  V30 8403 C 788.762 -1.18556 4.66367 0
M  V30 8404 C 791.114 -0.896868 5.13425 0
M  V30 8405 C 788.442 -0.521113 5.84381 0
M  V30 8406 C 790.794 -0.246261 6.3212 0
M  V30 8407 C 789.458 -0.052987 6.67479 0
M  V30 8408 H 788.728 -0.389796 0.63019 0
M  V30 8409 H 791.375 -0.342725 1.88408 0
M  V30 8410 H 789.68 -2.8077 2.73268 0
M  V30 8411 H 791.377 -2.59231 3.05941 0
M  V30 8412 H 787.967 -1.51762 4.00832 0
M  V30 8413 H 792.151 -1.02458 4.85609 0
M  V30 8414 H 787.407 -0.36014 6.10338 0
M  V30 8415 H 791.581 0.125775 6.96286 0
M  V30 8416 H 789.208 0.463903 7.58783 0
M  V30 8417 N 790.784 -1.46188 -0.588786 0
M  V30 8418 C 792.009 -1.5498 -1.37826 0
M  V30 8419 C 792.434 -0.189498 -1.87143 0
M  V30 8420 O 791.792 0.829293 -1.61222 0
M  V30 8421 C 791.84 -2.55369 -2.54596 0
M  V30 8422 O 790.944 -2.08452 -3.55839 0
M  V30 8423 H 790.285 -0.521741 -0.41071 0
M  V30 8424 H 792.815 -1.91708 -0.714779 0
M  V30 8425 H 792.825 -2.74782 -3.01594 0
M  V30 8426 H 791.5 -3.54155 -2.18052 0
M  V30 8427 H 790.077 -1.98999 -3.15363 0
M  V30 8428 N 792.262 0.832906 -1.33792 0
M  V30 8429 C 793.678 1.1245 -1.13257 0
M  V30 8430 C 793.878 2.01369 0.0725832 0
M  V30 8431 O 792.934 2.41071 0.751082 0
M  V30 8432 C 794.247 1.78084 -2.42294 0
M  V30 8433 C 795.795 1.90624 -2.48257 0
M  V30 8434 C 796.27 2.59673 -3.77271 0
M  V30 8435 N 797.761 2.67181 -3.78376 0
M  V30 8436 C 798.496 3.21313 -4.74916 0
M  V30 8437 N 797.992 3.76086 -5.81835 0
M  V30 8438 N 799.785 3.19621 -4.62384 0
M  V30 8439 H 791.936 0.241244 -2.11026 0
M  V30 8440 H 794.199 0.169557 -0.932713 0
M  V30 8441 H 793.905 1.20209 -3.30519 0
M  V30 8442 H 793.779 2.78049 -2.5489 0
M  V30 8443 H 796.166 2.4765 -1.60478 0
M  V30 8444 H 796.247 0.89591 -2.39598 0
M  V30 8445 H 795.891 2.03304 -4.65435 0
M  V30 8446 H 795.821 3.61189 -3.8321 0
M  V30 8447 H 798.312 2.28346 -3.01108 0
M  V30 8448 H 798.625 4.15612 -6.51526 0
M  V30 8449 H 796.97 3.74357 -5.85561 0
M  V30 8450 H 800.161 2.76091 -3.7801 0
M  V30 8451 H 800.334 3.61504 -5.37791 0
M  V30 8452 N 793.74 1.17359 1.05189 0
M  V30 8453 C 794.988 0.960087 1.77839 0
M  V30 8454 C 795.309 -0.512554 1.88143 0
M  V30 8455 O 794.579 -1.3721 1.39822 0
M  V30 8456 H 793.159 0.352234 0.658741 0
M  V30 8457 H 795.821 1.47834 1.27008 0
M  V30 8458 H 794.917 1.38843 2.79516 0
M  V30 8459 N 795.218 -1.23913 0.973828 0
M  V30 8460 C 796.148 -2.27453 0.527969 0
M  V30 8461 C 797.129 -1.6443 -0.435513 0
M  V30 8462 O 798.314 -1.9137 -0.330306 0
M  V30 8463 C 795.444 -3.4685 -0.176757 0
M  V30 8464 C 794.398 -4.22181 0.703352 0
M  V30 8465 C 793.724 -5.34534 -0.133215 0
M  V30 8466 C 795.024 -4.82865 1.99096 0
M  V30 8467 H 796.718 -2.65 1.3934 0
M  V30 8468 H 794.264 -1.27388 0.671446 0
M  V30 8469 H 796.217 -4.18424 -0.499934 0
M  V30 8470 H 794.941 -3.08346 -1.07659 0
M  V30 8471 H 793.6 -3.52416 1.00989 0
M  V30 8472 H 793.248 -4.92271 -1.03338 0
M  V30 8473 H 792.948 -5.85855 0.452494 0
M  V30 8474 H 794.472 -6.08933 -0.450924 0
M  V30 8475 H 795.886 -5.46481 1.73297 0
M  V30 8476 H 794.283 -5.44444 2.52389 0
M  V30 8477 H 795.353 -4.03977 2.68199 0
M  V30 8478 N 796.696 -0.74468 -1.38897 0
M  V30 8479 C 797.944 -0.296298 -1.99916 0
M  V30 8480 C 798.265 1.12325 -1.59399 0
M  V30 8481 O 797.535 1.76658 -0.846689 0
M  V30 8482 H 796.115 -0.106561 -0.73936 0
M  V30 8483 H 798.777 -0.956793 -1.69798 0
M  V30 8484 H 797.873 -0.352356 -3.10105 0
M  V30 8485 N 798.174 1.49689 -0.493057 0
M  V30 8486 C 799.404 2.06536 0.0512397 0
M  V30 8487 C 799.812 1.35459 1.32089 0
M  V30 8488 O 799.155 0.424145 1.78736 0
M  V30 8489 C 799.217 3.57452 0.383231 0
M  V30 8490 C 798.881 4.50163 -0.787555 0
M  V30 8491 C 799.878 4.92151 -1.67582 0
M  V30 8492 C 797.563 4.92565 -0.984109 0
M  V30 8493 C 799.557 5.7527 -2.74487 0
M  V30 8494 C 797.244 5.75463 -2.05634 0
M  V30 8495 C 798.242 6.16719 -2.93507 0
M  V30 8496 O 797.93 6.97961 -3.98881 0
M  V30 8497 H 797.662 0.675862 -0.0136516 0
M  V30 8498 H 800.216 1.9356 -0.687298 0
M  V30 8499 H 798.446 3.68408 1.17526 0
M  V30 8500 H 800.135 3.96572 0.8652 0
M  V30 8501 H 800.901 4.60043 -1.53575 0
M  V30 8502 H 796.78 4.5996 -0.309541 0
M  V30 8503 H 800.324 6.07392 -3.43104 0
M  V30 8504 H 796.221 6.06983 -2.19639 0
M  V30 8505 H 796.989 7.16253 -3.96137 0
M  V30 8506 N 799.652 0.226554 1.55963 0
M  V30 8507 C 800.615 -0.668015 2.19249 0
M  V30 8508 C 801.615 -1.11794 1.1558 0
M  V30 8509 O 802.805 -1.02593 1.40784 0
M  V30 8510 C 799.937 -1.91571 2.81981 0
M  V30 8511 H 801.13 -0.116175 2.99675 0
M  V30 8512 H 798.683 -0.0230497 1.56283 0
M  V30 8513 H 799.418 -2.50929 2.05439 0
M  V30 8514 H 799.203 -1.6015 3.57903 0
M  V30 8515 H 800.693 -2.55294 3.30477 0
M  V30 8516 N 801.13 -1.57531 -0.0467866 0
M  V30 8517 C 802.378 -1.88078 -0.739656 0
M  V30 8518 C 802.699 -0.821936 -1.76831 0
M  V30 8519 O 801.969 0.146582 -1.95351 0
M  V30 8520 H 800.549 -0.694075 -0.276169 0
M  V30 8521 H 803.211 -1.94893 -0.0169391 0
M  V30 8522 H 802.307 -2.86396 -1.24031 0
M  V30 8523 N 802.608 0.318715 -1.54344 0
M  V30 8524 C 803.555 1.39242 -1.84066 0
M  V30 8525 C 804.525 1.51175 -0.688134 0
M  V30 8526 O 805.71 1.66318 -0.935039 0
M  V30 8527 C 802.85 2.75528 -2.07794 0
M  V30 8528 C 801.963 2.72187 -3.35467 0
M  V30 8529 C 801.098 4.00352 -3.4913 0
M  V30 8530 C 800.137 3.91338 -4.7066 0
M  V30 8531 N 799.274 5.11242 -4.81224 0
M  V30 8532 H 804.114 1.13196 -2.75664 0
M  V30 8533 H 801.651 0.547857 -1.36517 0
M  V30 8534 H 803.609 3.54763 -2.19543 0
M  V30 8535 H 802.239 2.99873 -1.19482 0
M  V30 8536 H 801.291 1.84917 -3.3243 0
M  V30 8537 H 802.603 2.61411 -4.24812 0
M  V30 8538 H 801.757 4.88019 -3.60448 0
M  V30 8539 H 800.496 4.1394 -2.57886 0
M  V30 8540 H 799.501 3.02055 -4.59394 0
M  V30 8541 H 800.726 3.7931 -5.63294 0
M  V30 8542 H 798.672 5.25327 -3.92897 0
M  V30 8543 H 798.589 5.0282 -5.64543 0
M  V30 8544 H 799.857 6.0061 -4.96879 0
M  V30 8545 N 804.086 1.46499 0.581025 0
M  V30 8546 C 805.333 1.51896 1.33918 0
M  V30 8547 C 805.661 0.171361 1.93744 0
M  V30 8548 O 804.916 -0.833178 1.77078 0
M  V30 8549 C 805.215 2.56686 2.48691 0
M  V30 8550 C 804.881 4.00656 2.06847 0
M  V30 8551 C 803.543 4.39852 1.9515 0
M  V30 8552 C 805.895 4.91089 1.74589 0
M  V30 8553 C 803.223 5.67345 1.49456 0
M  V30 8554 C 805.575 6.1902 1.30373 0
M  V30 8555 C 804.239 6.57121 1.17255 0
M  V30 8556 H 803.509 0.555826 0.490039 0
M  V30 8557 H 806.156 1.79983 0.654092 0
M  V30 8558 H 804.461 2.22266 3.22653 0
M  V30 8559 H 806.158 2.58091 3.06904 0
M  V30 8560 H 802.748 3.69674 2.16886 0
M  V30 8561 H 806.932 4.61523 1.8251 0
M  V30 8562 H 802.188 5.95635 1.37944 0
M  V30 8563 H 806.362 6.8852 1.04467 0
M  V30 8564 H 803.989 7.55805 0.816236 0
M  V30 8565 N 805.565 -0.825799 1.34232 0
M  V30 8566 C 806.793 -1.61363 1.29497 0
M  V30 8567 C 807.208 -1.88341 -0.131536 0
M  V30 8568 O 806.565 -1.47279 -1.07773 0
M  V30 8569 C 806.616 -2.95623 2.08061 0
M  V30 8570 O 806.337 -2.69824 3.45147 0
M  V30 8571 C 807.838 -3.90032 2.10688 0
M  V30 8572 H 805.058 -0.501676 0.445603 0
M  V30 8573 H 807.602 -1.02767 1.76803 0
M  V30 8574 H 805.757 -3.50785 1.64404 0
M  V30 8575 H 806.171 -3.55412 3.85723 0
M  V30 8576 H 807.645 -4.81411 2.70087 0
M  V30 8577 H 808.122 -4.25188 1.10052 0
M  V30 8578 H 808.728 -3.40807 2.54422 0
M  V30 8579 N 807.043 -1.17915 -1.04565 0
M  V30 8580 C 808.268 -0.996749 -1.81878 0
M  V30 8581 C 808.693 0.450169 -1.82634 0
M  V30 8582 O 808.051 1.32268 -1.23995 0
M  V30 8583 C 808.099 -1.55005 -3.25585 0
M  V30 8584 O 807.203 -0.76804 -4.05185 0
M  V30 8585 H 806.544 -0.353456 -0.562108 0
M  V30 8586 H 809.074 -1.56557 -1.31723 0
M  V30 8587 H 809.084 -1.57503 -3.76373 0
M  V30 8588 H 807.759 -2.60327 -3.2435 0
M  V30 8589 H 806.336 -0.81498 -3.63885 0
M  V30 8590 N 808.521 1.23394 -0.980386 0
M  V30 8591 C 809.451 2.2717 -0.540024 0
M  V30 8592 C 810.432 1.64659 0.426787 0
M  V30 8593 O 811.617 1.91543 0.320153 0
M  V30 8594 C 808.747 3.46939 0.15836 0
M  V30 8595 C 807.701 4.21802 -0.725732 0
M  V30 8596 C 807.027 5.34597 0.104866 0
M  V30 8597 C 808.327 4.81802 -2.01654 0
M  V30 8598 H 810.021 2.64257 -1.40743 0
M  V30 8599 H 807.567 1.2703 -0.678193 0
M  V30 8600 H 809.52 4.18683 0.477737 0
M  V30 8601 H 808.244 3.08912 1.06022 0
M  V30 8602 H 806.903 3.51875 -1.02857 0
M  V30 8603 H 806.551 4.92812 1.00726 0
M  V30 8604 H 806.251 5.85607 -0.483557 0
M  V30 8605 H 807.775 6.09163 0.418624 0
M  V30 8606 H 809.189 5.45554 -1.76193 0
M  V30 8607 H 807.586 5.43098 -2.55273 0
M  V30 8608 H 808.656 4.02549 -2.70338 0
M  V30 8609 N 809.999 0.752036 1.385 0
M  V30 8610 C 810.962 0.131587 2.28822 0
M  V30 8611 C 811.962 -0.649149 1.47115 0
M  V30 8612 O 813.152 -0.475645 1.67581 0
M  V30 8613 C 810.284 -0.822101 3.30839 0
M  V30 8614 H 811.477 0.927551 2.85196 0
M  V30 8615 H 809.03 0.518945 1.47434 0
M  V30 8616 H 809.765 -1.6438 2.79553 0
M  V30 8617 H 809.55 -0.264689 3.91206 0
M  V30 8618 H 811.04 -1.25226 3.98382 0
M  V30 8619 N 811.477 -1.49425 0.500989 0
M  V30 8620 C 812.754 -1.9531 -0.106551 0
M  V30 8621 C 813.134 -1.44248 -1.54129 0
M  V30 8622 O 812.482 -0.656237 -2.18874 0
M  V30 8623 C 812.692 -3.48995 -0.0191972 0
M  V30 8624 C 814.04 -4.24161 -0.193129 0
M  V30 8625 O 815.064 -3.56075 -0.0943843 0
M  V30 8626 O 813.923 -5.45064 -0.395869 0
M  V30 8627 H 811.017 -0.82149 -0.0953068 0
M  V30 8628 H 813.563 -1.6007 0.563526 0
M  V30 8629 H 812.335 -3.78794 0.981353 0
M  V30 8630 H 811.958 -3.90852 -0.72942 0
M  V30 8631 N 812.955 -0.234822 -1.55841 0
M  V30 8632 C 814.201 0.387023 -1.99684 0
M  V30 8633 C 814.556 1.56439 -1.12003 0
M  V30 8634 O 813.849 1.90818 -0.172879 0
M  V30 8635 C 814.043 0.858032 -3.46947 0
M  V30 8636 C 813.872 -0.272152 -4.48876 0
M  V30 8637 C 812.642 -0.742896 -4.99809 0
M  V30 8638 C 814.84 -1.09501 -5.02508 0
M  V30 8639 N 812.822 -1.84675 -5.85464 0
M  V30 8640 C 814.193 -2.04748 -5.85217 0
M  V30 8641 C 816.248 -1.13295 -4.84839 0
M  V30 8642 C 814.951 -3.03483 -6.52143 0
M  V30 8643 C 816.977 -2.10854 -5.52535 0
M  V30 8644 C 816.339 -3.04838 -6.35022 0
M  V30 8645 H 812.438 0.107918 -0.774518 0
M  V30 8646 H 815.022 -0.349635 -1.91535 0
M  V30 8647 H 813.193 1.56401 -3.55518 0
M  V30 8648 H 814.925 1.45381 -3.77686 0
M  V30 8649 H 811.68 -0.32915 -4.72455 0
M  V30 8650 H 812.104 -2.40108 -6.32991 0
M  V30 8651 H 816.746 -0.420226 -4.20706 0
M  V30 8652 H 814.464 -3.7571 -7.15449 0
M  V30 8653 H 818.05 -2.1448 -5.40823 0
M  V30 8654 H 816.93 -3.79097 -6.8648 0
M  V30 8655 N 814.433 1.57553 0.0384317 0
M  V30 8656 C 815.682 1.88022 0.730108 0
M  V30 8657 C 815.995 0.83209 1.77019 0
M  V30 8658 O 817.201 1.0257 2.51379 0
M  V30 8659 C 815.657 3.33637 1.3496 0
M  V30 8660 C 815.265 4.46659 0.346352 0
M  V30 8661 C 817.009 3.73266 2.02169 0
M  V30 8662 C 814.916 5.8333 0.973652 0
M  V30 8663 H 813.846 0.701496 0.276442 0
M  V30 8664 H 816.497 1.83493 -0.0158028 0
M  V30 8665 H 814.879 3.32882 2.1449 0
M  V30 8666 H 816.053 4.58868 -0.421558 0
M  V30 8667 H 814.368 4.15802 -0.223133 0
M  V30 8668 H 816.965 4.72689 2.49938 0
M  V30 8669 H 817.308 3.04776 2.8358 0
M  V30 8670 H 817.841 3.76156 1.29427 0
M  V30 8671 H 814.58 6.55197 0.199163 0
M  V30 8672 H 814.1 5.7486 1.71162 0
M  V30 8673 H 815.779 6.29757 1.48376 0
M  V30 8674 N 815.911 -0.310526 1.54511 0
M  V30 8675 C 817.139 -1.06611 1.77318 0
M  V30 8676 C 817.554 -1.81265 0.528043 0
M  V30 8677 O 816.911 -1.75466 -0.50178 0
M  V30 8678 C 816.962 -2.05409 2.97472 0
M  V30 8679 O 816.683 -1.33785 4.17173 0
M  V30 8680 C 818.184 -2.93082 3.32593 0
M  V30 8681 H 815.404 -0.316578 0.591624 0
M  V30 8682 H 817.948 -0.352691 2.01436 0
M  V30 8683 H 816.103 -2.72266 2.7559 0
M  V30 8684 H 816.517 -2.00055 4.84849 0
M  V30 8685 H 817.991 -3.58274 4.19933 0
M  V30 8686 H 818.468 -3.60877 2.50329 0
M  V30 8687 H 819.074 -2.31768 3.566 0
M  V30 8688 N 817.389 -1.46805 -0.573248 0
M  V30 8689 C 818.299 -1.60687 -1.70929 0
M  V30 8690 C 819.315 -0.490084 -1.66956 0
M  V30 8691 O 820.491 -0.755482 -1.86693 0
M  V30 8692 C 817.556 -1.60259 -3.07438 0
M  V30 8693 C 816.617 -2.83242 -3.22603 0
M  V30 8694 C 815.85 -2.82825 -4.52599 0
M  V30 8695 O 816.073 -1.92113 -5.37074 0
M  V30 8696 O 815.007 -3.74489 -4.71213 0
M  V30 8697 H 818.833 -2.56782 -1.62163 0
M  V30 8698 H 816.418 -1.29706 -0.741399 0
M  V30 8699 H 818.3 -1.6275 -3.88704 0
M  V30 8700 H 816.975 -0.673268 -3.16621 0
M  V30 8701 H 815.882 -2.86302 -2.40794 0
M  V30 8702 H 817.215 -3.75415 -3.18315 0
M  V30 8703 N 818.867 0.818669 -1.34668 0
M  V30 8704 C 820.114 1.57512 -1.27264 0
M  V30 8705 C 820.442 1.93871 0.156254 0
M  V30 8706 O 819.697 1.60582 1.11857 0
M  V30 8707 C 819.996 2.88245 -2.11304 0
M  V30 8708 C 819.662 2.71159 -3.60255 0
M  V30 8709 C 818.324 2.66207 -4.00858 0
M  V30 8710 C 820.676 2.54538 -4.54819 0
M  V30 8711 C 818.004 2.4256 -5.34211 0
M  V30 8712 C 820.356 2.32421 -5.88356 0
M  V30 8713 C 819.02 2.25884 -6.28118 0
M  V30 8714 H 818.29 0.576378 -0.465692 0
M  V30 8715 H 820.937 0.9469 -1.66451 0
M  V30 8716 H 819.242 3.55381 -1.64958 0
M  V30 8717 H 820.939 3.45869 -2.02919 0
M  V30 8718 H 817.529 2.75856 -3.28027 0
M  V30 8719 H 821.713 2.57384 -4.24343 0
M  V30 8720 H 816.969 2.35959 -5.64033 0
M  V30 8721 H 821.143 2.18548 -6.61218 0
M  V30 8722 H 818.77 2.07322 -7.31383 0
M  V30 8723 N 820.346 1.18468 1.03938 0
M  V30 8724 C 821.594 0.978895 1.76811 0
M  V30 8725 C 821.915 -0.49257 1.88676 0
M  V30 8726 O 821.185 -1.3572 1.41269 0
M  V30 8727 H 819.765 0.359201 0.654968 0
M  V30 8728 H 822.427 1.49173 1.25433 0
M  V30 8729 H 821.523 1.418 2.78027 0
M  V30 8730 N 821.824 -1.22873 0.986916 0
M  V30 8731 C 822.771 -2.2458 0.532215 0
M  V30 8732 C 823.741 -1.60375 -0.432322 0
M  V30 8733 O 824.926 -1.87775 -0.338416 0
M  V30 8734 C 822.066 -3.44761 -0.152864 0
M  V30 8735 C 821.179 -4.23501 0.852704 0
M  V30 8736 C 820.314 -5.31011 0.14176 0
M  V30 8737 C 819.353 -6.01464 1.1361 0
M  V30 8738 N 818.49 -7.00631 0.453871 0
M  V30 8739 H 823.33 -2.62838 1.40428 0
M  V30 8740 H 820.867 -1.29185 0.703543 0
M  V30 8741 H 822.825 -4.1333 -0.566926 0
M  V30 8742 H 821.455 -3.07284 -0.988756 0
M  V30 8743 H 820.507 -3.54286 1.38512 0
M  V30 8744 H 821.819 -4.72097 1.61014 0
M  V30 8745 H 820.973 -6.05805 -0.329337 0
M  V30 8746 H 819.712 -4.83373 -0.648229 0
M  V30 8747 H 818.717 -5.25456 1.61789 0
M  V30 8748 H 819.942 -6.5119 1.92686 0
M  V30 8749 H 817.888 -6.55235 -0.316791 0
M  V30 8750 H 817.805 -7.47204 1.14986 0
M  V30 8751 H 819.073 -7.795 0.00537823 0
M  V30 8752 N 823.302 -0.75937 -1.38099 0
M  V30 8753 C 824.265 -0.14372 -2.28749 0
M  V30 8754 C 825.265 0.641338 -1.47457 0
M  V30 8755 O 826.455 0.466751 -1.67831 0
M  V30 8756 C 823.587 0.804545 -3.3127 0
M  V30 8757 H 824.78 -0.942663 -2.847 0
M  V30 8758 H 822.333 -0.526757 -1.47156 0
M  V30 8759 H 823.068 1.62895 -2.80421 0
M  V30 8760 H 822.853 0.243939 -3.9134 0
M  V30 8761 H 824.343 1.23111 -3.99041 0
M  V30 8762 N 824.78 1.49157 -0.508906 0
M  V30 8763 C 826.026 2.02773 0.0328469 0
M  V30 8764 C 826.359 1.38714 1.35912 0
M  V30 8765 O 825.634 0.525536 1.87266 0
M  V30 8766 C 825.917 3.59664 0.177088 0
M  V30 8767 C 825.77 4.34239 -1.17287 0
M  V30 8768 C 827.089 4.30505 0.913977 0
M  V30 8769 H 824.208 0.736926 0.0104631 0
M  V30 8770 H 826.85 1.781 -0.661851 0
M  V30 8771 H 825 3.80818 0.768774 0
M  V30 8772 H 826.672 4.24561 -1.80404 0
M  V30 8773 H 824.915 3.96486 -1.76016 0
M  V30 8774 H 825.586 5.42397 -1.02516 0
M  V30 8775 H 828.062 4.14054 0.412084 0
M  V30 8776 H 826.938 5.40012 0.983759 0
M  V30 8777 H 827.199 3.96302 1.95951 0
M  V30 8778 N 826.258 0.243083 1.55714 0
M  V30 8779 C 827.674 -0.111853 1.59208 0
M  V30 8780 C 827.874 -1.5723 1.2602 0
M  V30 8781 O 826.93 -2.31608 1.00569 0
M  V30 8782 C 828.243 0.233885 2.99789 0
M  V30 8783 C 829.791 0.177873 3.12494 0
M  V30 8784 C 830.266 0.49759 4.55289 0
M  V30 8785 N 831.757 0.447949 4.61029 0
M  V30 8786 C 832.492 0.668545 5.69489 0
M  V30 8787 N 831.988 0.952064 6.86227 0
M  V30 8788 N 833.781 0.599512 5.58894 0
M  V30 8789 H 825.932 1.19554 1.75558 0
M  V30 8790 H 828.195 0.480765 0.817049 0
M  V30 8791 H 827.901 1.24835 3.28799 0
M  V30 8792 H 827.775 -0.440846 3.74615 0
M  V30 8793 H 830.162 -0.827263 2.83267 0
M  V30 8794 H 830.243 0.886399 2.39951 0
M  V30 8795 H 829.887 1.50026 4.85237 0
M  V30 8796 H 829.817 -0.232371 5.26087 0
M  V30 8797 H 832.308 0.237388 3.77154 0
M  V30 8798 H 832.621 1.10791 7.64817 0
M  V30 8799 H 830.966 0.989496 6.8792 0
M  V30 8800 H 834.157 0.378088 4.66571 0
M  V30 8801 H 834.33 0.774828 6.43351 0
M  V30 8802 N 827.736 -1.57571 -0.0300757 0
M  V30 8803 C 828.964 -1.93485 -0.732891 0
M  V30 8804 C 829.379 -0.842758 -1.68947 0
M  V30 8805 O 828.736 0.180904 -1.81601 0
M  V30 8806 C 828.787 -3.29328 -1.49082 0
M  V30 8807 O 828.508 -4.34341 -0.572639 0
M  V30 8808 C 830.009 -3.79517 -2.29088 0
M  V30 8809 H 827.229 -0.638588 -0.206026 0
M  V30 8810 H 829.773 -2.04496 0.0120966 0
M  V30 8811 H 827.928 -3.19716 -2.1877 0
M  V30 8812 H 828.342 -5.12748 -1.10406 0
M  V30 8813 H 829.816 -4.77081 -2.77665 0
M  V30 8814 H 830.293 -3.10659 -3.10464 0
M  V30 8815 H 830.899 -3.92208 -1.64477 0
M  V30 8816 N 829.214 0.302327 -1.54673 0
M  V30 8817 C 830.124 1.39542 -1.88587 0
M  V30 8818 C 831.14 1.55543 -0.779895 0
M  V30 8819 O 832.316 1.70233 -1.07623 0
M  V30 8820 C 829.381 2.7394 -2.12504 0
M  V30 8821 C 828.442 2.66935 -3.3622 0
M  V30 8822 C 827.675 3.94923 -3.58987 0
M  V30 8823 O 827.898 4.94218 -2.84789 0
M  V30 8824 O 826.832 3.96896 -4.52501 0
M  V30 8825 H 830.658 1.13784 -2.81579 0
M  V30 8826 H 828.243 0.49827 -1.40846 0
M  V30 8827 H 830.125 3.5346 -2.29443 0
M  V30 8828 H 828.8 2.99544 -1.22698 0
M  V30 8829 H 827.707 1.85892 -3.24646 0
M  V30 8830 H 829.04 2.46283 -4.26152 0
M  V30 8831 N 830.692 1.47107 0.565454 0
M  V30 8832 C 831.64 1.59368 1.69424 0
M  V30 8833 C 832.634 0.461344 1.62997 0
M  V30 8834 O 833.84 0.638849 1.68282 0
M  V30 8835 H 830.215 0.501387 0.560459 0
M  V30 8836 H 832.186 2.54242 1.56217 0
M  V30 8837 C 830.935 1.61739 3.07792 0
M  V30 8838 H 830.258 2.48215 3.13416 0
M  V30 8839 H 831.698 1.7437 3.86486 0
M  V30 8840 C 830.157 0.349156 3.35086 0
M  V30 8841 O 830.687 -0.553287 3.97871 0
M  V30 8842 N 828.893 0.231723 2.89675 0
M  V30 8843 H 828.44 0.967021 2.3876 0
M  V30 8844 H 828.398 -0.615911 3.08308 0
M  V30 8845 N 832.17 -0.811516 1.35101 0
M  V30 8846 C 833.416 -1.57016 1.29296 0
M  V30 8847 C 833.771 -1.91941 -0.13288 0
M  V30 8848 O 833.064 -1.58121 -1.08204 0
M  V30 8849 C 833.258 -2.87121 2.1283 0
M  V30 8850 C 833.087 -2.64908 3.63392 0
M  V30 8851 C 831.857 -2.61055 4.32641 0
M  V30 8852 C 834.055 -2.35628 4.57148 0
M  V30 8853 N 832.037 -2.30508 5.68981 0
M  V30 8854 C 833.408 -2.14876 5.81574 0
M  V30 8855 C 835.463 -2.2145 4.45942 0
M  V30 8856 C 834.166 -1.81381 6.96055 0
M  V30 8857 C 836.192 -1.89352 5.60267 0
M  V30 8858 C 835.554 -1.69432 6.83719 0
M  V30 8859 H 831.653 -0.57649 0.528378 0
M  V30 8860 H 834.237 -0.950338 1.69931 0
M  V30 8861 H 832.408 -3.47007 1.74473 0
M  V30 8862 H 834.14 -3.52629 1.98582 0
M  V30 8863 H 830.895 -2.75531 3.85201 0
M  V30 8864 H 831.319 -2.18042 6.40927 0
M  V30 8865 H 835.961 -2.35551 3.51106 0
M  V30 8866 H 833.679 -1.66018 7.90863 0
M  V30 8867 H 837.265 -1.79098 5.53548 0
M  V30 8868 H 836.145 -1.44957 7.70686 0
M  V30 8869 N 833.648 -1.19017 -1.03309 0
M  V30 8870 C 835.064 -0.941483 -1.28873 0
M  V30 8871 C 835.264 0.388587 -1.97718 0
M  V30 8872 O 834.32 1.12111 -2.26246 0
M  V30 8873 C 835.633 -2.11249 -2.13996 0
M  V30 8874 C 837.181 -2.15164 -2.27318 0
M  V30 8875 C 837.656 -3.31704 -3.15811 0
M  V30 8876 N 839.147 -3.31613 -3.23399 0
M  V30 8877 C 839.882 -4.18431 -3.9205 0
M  V30 8878 N 839.378 -5.15397 -4.62966 0
M  V30 8879 N 841.171 -4.06321 -3.88406 0
M  V30 8880 H 833.322 -2.04599 -0.570343 0
M  V30 8881 H 835.585 -0.894406 -0.314232 0
M  V30 8882 H 835.291 -3.07482 -1.70727 0
M  V30 8883 H 835.165 -2.07955 -3.14697 0
M  V30 8884 H 837.552 -1.19504 -2.6982 0
M  V30 8885 H 837.633 -2.22513 -1.26182 0
M  V30 8886 H 837.277 -4.2764 -2.74019 0
M  V30 8887 H 837.207 -3.21592 -4.16997 0
M  V30 8888 H 839.698 -2.6142 -2.72888 0
M  V30 8889 H 840.011 -5.78 -5.12968 0
M  V30 8890 H 838.356 -5.19349 -4.61846 0
M  V30 8891 H 841.547 -3.29849 -3.3214 0
M  V30 8892 H 841.72 -4.74196 -4.41635 0
M  V30 8893 N 835.127 1.22348 -0.993418 0
M  V30 8894 C 836.538 1.72893 -0.704616 0
M  V30 8895 C 836.889 1.80095 0.778483 0
M  V30 8896 O 836.014 1.4476 1.60853 0
M  V30 8897 C 836.609 3.14 -1.27237 0
M  V30 8898 C 835.168 3.61949 -1.03294 0
M  V30 8899 C 834.315 2.39816 -1.39225 0
M  V30 8900 H 837.266 1.07688 -1.16572 0
M  V30 8901 H 837.287 3.74886 -0.651212 0
M  V30 8902 H 836.799 3.08727 -2.3518 0
M  V30 8903 H 834.9 3.72588 0.0298329 0
M  V30 8904 H 835.013 4.48051 -1.69668 0
M  V30 8905 H 833.377 2.41448 -0.810849 0
M  V30 8906 H 834.16 2.37203 -2.48172 0
M  V30 8907 N 836.605 0.766683 1.37694 0
M  V30 8908 C 837.535 0.163432 2.32927 0
M  V30 8909 C 838.516 -0.688861 1.55527 0
M  V30 8910 O 839.701 -0.627363 1.83787 0
M  V30 8911 C 836.831 -0.720416 3.39746 0
M  V30 8912 C 835.785 0.0301718 4.27989 0
M  V30 8913 C 835.111 -0.972788 5.25776 0
M  V30 8914 C 836.411 1.20623 5.0818 0
M  V30 8915 H 838.105 0.958988 2.83626 0
M  V30 8916 H 835.651 0.462601 1.36367 0
M  V30 8917 H 837.604 -1.15221 4.05342 0
M  V30 8918 H 836.328 -1.54844 2.8756 0
M  V30 8919 H 834.987 0.442685 3.63917 0
M  V30 8920 H 834.635 -1.79522 4.69873 0
M  V30 8921 H 834.335 -0.475145 5.85676 0
M  V30 8922 H 835.859 -1.40362 5.94248 0
M  V30 8923 H 837.273 0.851341 5.66944 0
M  V30 8924 H 835.67 1.63561 5.7738 0
M  V30 8925 H 836.74 2.01281 4.41151 0
M  V30 8926 N 838.083 -1.48885 0.516809 0
M  V30 8927 C 839.33 -2.02488 -0.0220602 0
M  V30 8928 C 839.658 -1.39513 -1.35523 0
M  V30 8929 O 838.913 -0.52558 -1.8851 0
M  V30 8930 C 839.212 -3.56801 -0.206798 0
M  V30 8931 C 838.878 -4.38496 1.05035 0
M  V30 8932 C 837.54 -4.60538 1.39492 0
M  V30 8933 C 839.892 -4.85909 1.88525 0
M  V30 8934 C 837.22 -5.2724 2.57361 0
M  V30 8935 C 839.572 -5.53909 3.05561 0
M  V30 8936 C 838.236 -5.74193 3.4038 0
M  V30 8937 H 837.506 -0.740956 -0.00807238 0
M  V30 8938 H 840.153 -1.79014 0.680168 0
M  V30 8939 H 838.458 -3.79042 -0.991687 0
M  V30 8940 H 840.155 -3.95885 -0.638447 0
M  V30 8941 H 836.745 -4.2159 0.771984 0
M  V30 8942 H 840.929 -4.68694 1.63218 0
M  V30 8943 H 836.185 -5.41145 2.84556 0
M  V30 8944 H 840.359 -5.89619 3.7057 0
M  V30 8945 H 837.986 -6.25652 4.31814 0
M  V30 8946 N 839.561 -0.251338 -1.55583 0
M  V30 8947 C 840.807 0.37272 -1.99346 0
M  V30 8948 C 841.14 1.57266 -1.13934 0
M  V30 8949 O 840.415 1.9343 -0.20377 0
M  V30 8950 C 840.698 0.778245 -3.5159 0
M  V30 8951 C 840.551 -0.427394 -4.47765 0
M  V30 8952 C 841.87 1.62358 -4.09057 0
M  V30 8953 H 838.989 0.134002 -0.724715 0
M  V30 8954 H 841.631 -0.353536 -1.86682 0
M  V30 8955 H 839.781 1.39704 -3.62512 0
M  V30 8956 H 841.453 -1.06586 -4.48818 0
M  V30 8957 H 839.696 -1.06972 -4.20404 0
M  V30 8958 H 840.367 -0.10025 -5.51909 0
M  V30 8959 H 842.843 1.1012 -4.01264 0
M  V30 8960 H 841.719 1.87617 -5.1584 0
M  V30 8961 H 841.98 2.59688 -3.57791 0
M  V30 8962 N 841.039 1.57585 0.0217189 0
M  V30 8963 C 841.986 2.07036 1.02004 0
M  V30 8964 C 842.956 0.96106 1.35473 0
M  V30 8965 O 844.141 1.23211 1.45684 0
M  V30 8966 C 841.281 2.56056 2.31364 0
M  V30 8967 C 840.394 3.80805 2.03989 0
M  V30 8968 C 839.529 4.18409 3.27272 0
M  V30 8969 C 838.568 5.36055 2.95486 0
M  V30 8970 N 837.705 5.69056 4.11242 0
M  V30 8971 H 842.545 2.92073 0.591396 0
M  V30 8972 H 840.082 1.44403 0.280384 0
M  V30 8973 H 842.04 2.82548 3.06957 0
M  V30 8974 H 840.67 1.73925 2.71937 0
M  V30 8975 H 839.722 3.61354 1.1886 0
M  V30 8976 H 841.034 4.66512 1.76546 0
M  V30 8977 H 840.188 4.46068 4.11228 0
M  V30 8978 H 838.927 3.31369 3.57835 0
M  V30 8979 H 837.932 5.08142 2.09933 0
M  V30 8980 H 839.157 6.24755 2.66193 0
M  V30 8981 H 837.103 4.84974 4.41742 0
M  V30 8982 H 837.02 6.49288 3.87247 0
M  V30 8983 H 838.288 6.01295 4.96049 0
M  V30 8984 N 842.517 -0.29412 1.54831 0
M  V30 8985 C 843.745 -1.04724 1.78439 0
M  V30 8986 C 844.16 -1.80695 0.547239 0
M  V30 8987 O 843.517 -1.75989 -0.483141 0
M  V30 8988 C 843.568 -2.02242 2.99634 0
M  V30 8989 O 843.289 -1.29352 4.18568 0
M  V30 8990 C 844.79 -2.89537 3.35683 0
M  V30 8991 H 842.01 -0.310285 0.594949 0
M  V30 8992 H 844.554 -0.331306 2.01798 0
M  V30 8993 H 842.709 -2.69328 2.78462 0
M  V30 8994 H 843.123 -1.94901 4.86943 0
M  V30 8995 H 844.597 -3.538 4.23709 0
M  V30 8996 H 845.074 -3.58201 2.54143 0
M  V30 8997 H 845.68 -2.27973 3.59038 0
M  V30 8998 N 843.995 -1.47404 -0.557645 0
M  V30 8999 C 844.905 -1.62491 -1.69216 0
M  V30 9000 C 845.921 -0.507764 -1.66426 0
M  V30 9001 O 847.097 -0.775241 -1.85882 0
M  V30 9002 C 844.162 -1.63511 -3.05721 0
M  V30 9003 C 843.223 -2.86648 -3.1958 0
M  V30 9004 C 842.456 -2.87609 -4.49574 0
M  V30 9005 O 842.679 -1.97799 -5.35006 0
M  V30 9006 O 841.613 -3.79465 -4.67215 0
M  V30 9007 H 845.439 -2.58487 -1.59431 0
M  V30 9008 H 843.024 -1.30485 -0.7276 0
M  V30 9009 H 844.906 -1.66863 -3.86956 0
M  V30 9010 H 843.581 -0.706812 -3.15889 0
M  V30 9011 H 842.488 -2.8884 -2.37744 0
M  V30 9012 H 843.821 -3.7877 -3.14316 0
M  V30 9013 N 845.473 0.80434 -1.35529 0
M  V30 9014 C 846.701 1.59283 -1.32048 0
M  V30 9015 C 847.116 1.88527 0.101556 0
M  V30 9016 O 846.473 1.48975 1.05417 0
M  V30 9017 C 846.524 2.92276 -2.12737 0
M  V30 9018 O 846.245 2.64299 -3.49396 0
M  V30 9019 C 847.746 3.86631 -2.16867 0
M  V30 9020 H 844.966 0.494523 -0.453528 0
M  V30 9021 H 847.51 0.999415 -1.78415 0
M  V30 9022 H 845.665 3.48125 -1.69964 0
M  V30 9023 H 846.079 3.4923 -3.91329 0
M  V30 9024 H 847.553 4.77053 -2.77712 0
M  V30 9025 H 848.03 4.23384 -1.16803 0
M  V30 9026 H 848.636 3.36717 -2.59811 0
M  V30 9027 N 846.951 1.19563 1.02676 0
M  V30 9028 C 848.2 0.993864 1.75514 0
M  V30 9029 C 848.513 -0.475882 1.89723 0
M  V30 9030 O 849.719 -0.796525 2.59553 0
M  V30 9031 C 848.175 1.72937 3.15628 0
M  V30 9032 C 847.783 3.23937 3.09466 0
M  V30 9033 C 849.527 1.61092 3.92746 0
M  V30 9034 C 847.434 3.90067 4.44524 0
M  V30 9035 H 846.364 0.368244 0.657961 0
M  V30 9036 H 849.015 1.43081 1.14891 0
M  V30 9037 H 847.397 1.22025 3.76731 0
M  V30 9038 H 848.571 3.81983 2.57731 0
M  V30 9039 H 846.886 3.3608 2.45843 0
M  V30 9040 H 849.483 2.07848 4.92649 0
M  V30 9041 H 849.826 0.565415 4.12442 0
M  V30 9042 H 850.359 2.09361 3.3825 0
M  V30 9043 H 847.098 4.94725 4.30032 0
M  V30 9044 H 846.618 3.36809 4.96306 0
M  V30 9045 H 848.297 3.93736 5.13401 0
M  V30 9046 N 848.429 -1.21819 0.999893 0
M  V30 9047 C 849.678 -1.90066 0.675108 0
M  V30 9048 C 849.991 -1.78624 -0.79705 0
M  V30 9049 O 851.197 -2.41851 -1.23371 0
M  V30 9050 C 849.653 -3.40795 1.15702 0
M  V30 9051 C 849.261 -3.60859 2.6549 0
M  V30 9052 C 851.005 -4.147 0.906889 0
M  V30 9053 C 848.912 -5.05324 3.07248 0
M  V30 9054 H 847.842 -0.711763 0.248815 0
M  V30 9055 H 850.493 -1.3792 1.21038 0
M  V30 9056 H 848.875 -3.92164 0.549832 0
M  V30 9057 H 850.049 -3.19951 3.31614 0
M  V30 9058 H 848.364 -3.00298 2.88461 0
M  V30 9059 H 850.961 -5.21187 1.1945 0
M  V30 9060 H 851.304 -4.16004 -0.156923 0
M  V30 9061 H 851.837 -3.69379 1.47662 0
M  V30 9062 H 848.576 -5.09164 4.12834 0
M  V30 9063 H 848.096 -5.47108 2.45832 0
M  V30 9064 H 849.775 -5.73797 2.98941 0
M  V30 9065 N 849.908 -0.773975 -1.37286 0
M  V30 9066 C 850.871 -0.167974 -2.28584 0
M  V30 9067 C 851.871 0.625662 -1.48129 0
M  V30 9068 O 853.061 0.448924 -1.68316 0
M  V30 9069 C 850.193 0.769364 -3.32105 0
M  V30 9070 H 851.386 -0.972806 -2.83684 0
M  V30 9071 H 848.939 -0.542335 -1.46589 0
M  V30 9072 H 849.674 1.59912 -2.82132 0
M  V30 9073 H 849.459 0.202419 -3.91577 0
M  V30 9074 H 850.949 1.18872 -4.00324 0
M  V30 9075 N 851.386 1.48609 -0.524698 0
M  V30 9076 C 852.634 2.02097 0.0112991 0
M  V30 9077 C 852.955 1.40455 1.35268 0
M  V30 9078 O 852.225 0.56807 1.87483 0
M  V30 9079 H 850.805 0.746966 0.00716426 0
M  V30 9080 H 853.467 1.82378 -0.687329 0
M  V30 9081 H 852.563 3.11855 0.123531 0
M  V30 9082 N 852.864 0.259585 1.55447 0
M  V30 9083 C 853.812 -0.6507 2.23313 0
M  V30 9084 C 854.806 -1.17014 1.22491 0
M  V30 9085 O 856.012 -1.12557 1.40467 0
M  V30 9086 H 852.387 -0.228354 0.71649 0
M  V30 9087 H 854.358 -0.0553039 2.98349 0
M  V30 9088 C 853.107 -1.83081 2.95596 0
M  V30 9089 H 852.43 -1.44027 3.72956 0
M  V30 9090 H 853.87 -2.44469 3.46426 0
M  V30 9091 C 852.329 -2.70976 2.00184 0
M  V30 9092 O 852.859 -3.70882 1.54304 0
M  V30 9093 N 851.065 -2.37813 1.67014 0
M  V30 9094 H 850.612 -1.5662 2.04519 0
M  V30 9095 H 850.57 -2.96896 1.03443 0
M  V30 9096 N 854.342 -1.57594 -0.0133615 0
M  V30 9097 C 855.305 -2.06534 -0.993799 0
M  V30 9098 C 856.305 -0.972267 -1.28077 0
M  V30 9099 O 857.495 -1.23537 -1.22818 0
M  V30 9100 C 854.627 -2.49554 -2.3224 0
M  V30 9101 H 855.82 -2.94419 -0.570741 0
M  V30 9102 H 853.373 -1.54113 -0.260546 0
M  V30 9103 H 854.108 -1.64872 -2.79263 0
M  V30 9104 H 853.893 -3.29371 -2.12737 0
M  V30 9105 H 855.383 -2.8779 -3.026 0
M  V30 9106 N 855.82 0.285905 -1.54985 0
M  V30 9107 C 856.783 1.33625 -1.86218 0
M  V30 9108 C 857.783 1.42971 -0.735936 0
M  V30 9109 O 858.973 1.42345 -1.00417 0
M  V30 9110 C 856.105 2.71926 -2.05595 0
M  V30 9111 H 857.298 1.07167 -2.80099 0
M  V30 9112 H 854.851 0.523335 -1.47278 0
M  V30 9113 H 855.586 3.03583 -1.14053 0
M  V30 9114 H 855.371 2.6653 -2.87583 0
M  V30 9115 H 856.861 3.47841 -2.31077 0
M  V30 9116 N 857.298 1.47698 0.54982 0
M  V30 9117 C 858.526 1.5833 1.33188 0
M  V30 9118 C 858.941 0.236193 1.87317 0
M  V30 9119 O 858.298 -0.77167 1.65383 0
M  V30 9120 C 858.349 2.61438 2.49664 0
M  V30 9121 O 858.07 3.9092 1.97771 0
M  V30 9122 C 859.571 2.82324 3.41772 0
M  V30 9123 H 856.791 0.53443 0.405741 0
M  V30 9124 H 859.335 1.93375 0.665309 0
M  V30 9125 H 857.49 2.29307 3.12245 0
M  V30 9126 H 857.904 4.47323 2.73866 0
M  V30 9127 H 859.378 3.58316 4.19897 0
M  V30 9128 H 859.855 1.90416 3.95776 0
M  V30 9129 H 860.461 3.15682 2.85 0
M  V30 9130 N 858.776 -0.797141 1.35954 0
M  V30 9131 C 859.739 -1.89104 1.29508 0
M  V30 9132 C 860.739 -1.59495 0.204444 0
M  V30 9133 O 861.929 -1.68051 0.458746 0
M  V30 9134 C 859.061 -3.25726 1.00576 0
M  V30 9135 H 860.254 -1.96237 2.26785 0
M  V30 9136 H 857.807 -0.994075 1.20614 0
M  V30 9137 H 858.542 -3.24279 0.0372519 0
M  V30 9138 H 858.327 -3.48604 1.79492 0
M  V30 9139 H 859.817 -4.0578 0.986508 0
M  V30 9140 N 860.254 -1.20106 -1.0204 0
M  V30 9141 C 861.184 -0.970301 -2.12385 0
M  V30 9142 C 862.165 0.099378 -1.69809 0
M  V30 9143 O 863.35 -0.057365 -1.94115 0
M  V30 9144 C 860.48 -0.517431 -3.43424 0
M  V30 9145 C 859.434 -1.52992 -3.99722 0
M  V30 9146 C 858.76 -0.933817 -5.26483 0
M  V30 9147 C 860.06 -2.91257 -4.33551 0
M  V30 9148 H 861.754 -1.89316 -2.31948 0
M  V30 9149 H 859.3 -0.911655 -1.11467 0
M  V30 9150 H 861.253 -0.343243 -4.2 0
M  V30 9151 H 859.977 0.441049 -3.23608 0
M  V30 9152 H 858.636 -1.6914 -3.2525 0
M  V30 9153 H 858.284 0.0324763 -5.0299 0
M  V30 9154 H 857.984 -1.60999 -5.65113 0
M  V30 9155 H 859.508 -0.770614 -6.05718 0
M  V30 9156 H 860.922 -2.78642 -5.0103 0
M  V30 9157 H 859.319 -3.55745 -4.83286 0
M  V30 9158 H 860.389 -3.43269 -3.42483 0
M  V30 9159 N 861.732 1.21287 -1.00634 0
M  V30 9160 C 862.978 1.90671 -0.690822 0
M  V30 9161 C 863.311 1.77996 0.776592 0
M  V30 9162 O 862.586 1.15748 1.5631 0
M  V30 9163 C 862.869 3.42426 -1.11428 0
M  V30 9164 C 862.722 3.64086 -2.64124 0
M  V30 9165 C 864.041 4.34851 -0.677686 0
M  V30 9166 H 861.16 0.692419 -0.252439 0
M  V30 9167 H 863.802 1.42893 -1.25226 0
M  V30 9168 H 861.952 3.83249 -0.636586 0
M  V30 9169 H 863.624 3.32582 -3.19667 0
M  V30 9170 H 861.867 3.07906 -3.05576 0
M  V30 9171 H 862.538 4.7042 -2.88806 0
M  V30 9172 H 865.014 4.01619 -1.0882 0
M  V30 9173 H 863.89 5.39675 -1.00213 0
M  V30 9174 H 864.151 4.4009 0.421125 0
M  V30 9175 N 863.21 0.781244 1.36873 0
M  V30 9176 C 864.173 0.180094 2.28491 0
M  V30 9177 C 865.173 -0.617798 1.48458 0
M  V30 9178 O 866.363 -0.439991 1.68552 0
M  V30 9179 C 863.495 -0.751741 3.32508 0
M  V30 9180 H 864.688 0.987837 2.83164 0
M  V30 9181 H 862.241 0.550102 1.463 0
M  V30 9182 H 862.976 -1.58413 2.82977 0
M  V30 9183 H 862.761 -0.181649 3.91679 0
M  V30 9184 H 864.251 -1.16748 4.00949 0
M  V30 9185 N 864.689 -1.48329 0.532571 0
M  V30 9186 C 865.619 -2.32485 -0.217511 0
M  V30 9187 C 866.6 -1.42255 -0.932598 0
M  V30 9188 O 867.785 -1.7114 -0.917873 0
M  V30 9189 C 864.915 -3.23509 -1.26329 0
M  V30 9190 C 863.869 -4.22784 -0.666191 0
M  V30 9191 C 863.195 -5.0296 -1.81482 0
M  V30 9192 C 864.495 -5.21031 0.363813 0
M  V30 9193 H 866.189 -2.95445 0.485014 0
M  V30 9194 H 863.735 -1.42075 0.234694 0
M  V30 9195 H 865.688 -3.81211 -1.79601 0
M  V30 9196 H 864.412 -2.58554 -1.99543 0
M  V30 9197 H 863.071 -3.66272 -0.15498 0
M  V30 9198 H 862.719 -4.34427 -2.5354 0
M  V30 9199 H 862.419 -5.70154 -1.4212 0
M  V30 9200 H 863.943 -5.63514 -2.35126 0
M  V30 9201 H 865.357 -5.73241 -0.0819079 0
M  V30 9202 H 863.754 -5.96292 0.674956 0
M  V30 9203 H 864.824 -4.6801 1.26865 0
M  V30 9204 N 866.167 -0.267825 -1.55308 0
M  V30 9205 C 867.413 0.351556 -1.9973 0
M  V30 9206 C 867.746 1.56049 -1.15596 0
M  V30 9207 O 867.021 1.93203 -0.224274 0
M  V30 9208 C 867.304 0.74091 -3.52395 0
M  V30 9209 C 867.157 -0.474861 -4.47286 0
M  V30 9210 C 868.476 1.5801 -4.10756 0
M  V30 9211 H 865.595 0.126308 -0.726096 0
M  V30 9212 H 868.237 -0.373316 -1.86296 0
M  V30 9213 H 866.387 1.35851 -3.63973 0
M  V30 9214 H 868.059 -1.1134 -4.47662 0
M  V30 9215 H 866.302 -1.11425 -4.19246 0
M  V30 9216 H 866.973 -0.158782 -5.51772 0
M  V30 9217 H 869.449 1.05857 -4.0241 0
M  V30 9218 H 868.325 1.82135 -5.17801 0
M  V30 9219 H 868.586 2.55878 -3.60526 0
M  V30 9220 N 867.645 1.57599 0.00500368 0
M  V30 9221 C 868.892 1.90349 0.690895 0
M  V30 9222 C 869.22 0.868045 1.74055 0
M  V30 9223 O 868.475 -0.127855 1.95282 0
M  V30 9224 C 868.774 3.29855 1.37588 0
M  V30 9225 C 868.44 4.48548 0.459906 0
M  V30 9226 C 867.102 4.80752 0.207693 0
M  V30 9227 C 869.454 5.20919 -0.171054 0
M  V30 9228 C 866.782 5.82701 -0.683855 0
M  V30 9229 C 869.134 6.23818 -1.05045 0
M  V30 9230 C 867.798 6.54481 -1.31189 0
M  V30 9231 H 867.068 0.696538 0.252816 0
M  V30 9232 H 869.715 1.91436 -0.0494495 0
M  V30 9233 H 868.02 3.24869 2.19015 0
M  V30 9234 H 869.717 3.52452 1.91255 0
M  V30 9235 H 866.307 4.23384 0.666648 0
M  V30 9236 H 870.491 4.96299 0.0107942 0
M  V30 9237 H 865.747 6.04822 -0.894467 0
M  V30 9238 H 869.921 6.79029 -1.54574 0
M  V30 9239 H 867.548 7.33299 -2.00442 0
M  V30 9240 N 869.123 -0.277682 1.55134 0
M  V30 9241 C 870.348 -1.03254 1.7987 0
M  V30 9242 C 870.773 -1.79324 0.567861 0
M  V30 9243 O 870.131 -1.74764 -0.4824 0
M  V30 9244 C 870.179 -1.9705 3.02 0
M  V30 9245 O 869.283 -3.05744 2.76757 0
M  V30 9246 H 868.624 -0.295447 0.594649 0
M  V30 9247 H 871.154 -0.308013 2.02268 0
M  V30 9248 H 871.164 -2.3909 3.30606 0
M  V30 9249 H 869.839 -1.41094 3.91236 0
M  V30 9250 H 868.416 -2.68052 2.59235 0
M  V30 9251 N 870.601 -1.47988 -0.541979 0
M  V30 9252 C 871.85 -1.5465 -1.29485 0
M  V30 9253 C 872.163 -0.220041 -1.94358 0
M  V30 9254 O 873.369 -0.164792 -2.70999 0
M  V30 9255 C 871.825 -2.72685 -2.34885 0
M  V30 9256 C 871.433 -4.11923 -1.76134 0
M  V30 9257 C 873.177 -2.88651 -3.11257 0
M  V30 9258 C 871.084 -5.21237 -2.79404 0
M  V30 9259 H 870.014 -0.575688 -0.486928 0
M  V30 9260 H 872.665 -1.74296 -0.573853 0
M  V30 9261 H 871.047 -2.46448 -3.09966 0
M  V30 9262 H 872.221 -4.48128 -1.07322 0
M  V30 9263 H 870.536 -4.00972 -1.12295 0
M  V30 9264 H 873.133 -3.67487 -3.88404 0
M  V30 9265 H 873.476 -1.97658 -3.66384 0
M  V30 9266 H 874.009 -3.14731 -2.43288 0
M  V30 9267 H 870.748 -6.14156 -2.29113 0
M  V30 9268 H 870.268 -4.89533 -3.4658 0
M  V30 9269 H 871.947 -5.48839 -3.42615 0
M  V30 9270 N 872.079 0.78992 -1.36375 0
M  V30 9271 C 873.009 1.91683 -1.33341 0
M  V30 9272 C 873.99 1.68861 -0.204965 0
M  V30 9273 O 875.175 1.89982 -0.402531 0
M  V30 9274 C 872.305 3.28696 -1.12143 0
M  V30 9275 C 871.259 3.66041 -2.21806 0
M  V30 9276 C 870.585 5.01399 -1.85751 0
M  V30 9277 C 871.885 3.74677 -3.63888 0
M  V30 9278 H 873.579 1.94478 -2.27637 0
M  V30 9279 H 871.125 0.934271 -1.09578 0
M  V30 9280 H 873.078 4.07151 -1.08656 0
M  V30 9281 H 871.802 3.26287 -0.142974 0
M  V30 9282 H 870.461 2.89883 -2.24418 0
M  V30 9283 H 870.109 4.9551 -0.864817 0
M  V30 9284 H 869.809 5.27355 -2.59173 0
M  V30 9285 H 871.333 5.82274 -1.83819 0
M  V30 9286 H 872.747 4.43324 -3.63506 0
M  V30 9287 H 871.144 4.12118 -4.3621 0
M  V30 9288 H 872.214 2.75795 -3.9883 0
M  V30 9289 N 873.557 1.20646 1.01402 0
M  V30 9290 C 874.785 1.04389 1.78635 0
M  V30 9291 C 875.2 -0.406771 1.84366 0
M  V30 9292 O 874.557 -1.28239 1.2985 0
M  V30 9293 C 874.608 1.62378 3.22979 0
M  V30 9294 O 874.329 3.01768 3.17597 0
M  V30 9295 C 875.83 1.5111 4.1675 0
M  V30 9296 H 873.05 0.367077 0.56169 0
M  V30 9297 H 875.594 1.59789 1.27624 0
M  V30 9298 H 873.749 1.11092 3.7113 0
M  V30 9299 H 874.163 3.29331 4.08217 0
M  V30 9300 H 875.637 1.96441 5.15863 0
M  V30 9301 H 876.114 0.464011 4.36742 0
M  V30 9302 H 876.72 2.01599 3.74483 0
M  V30 9303 N 875.035 -1.20752 1.01276 0
M  V30 9304 C 876.283 -1.89645 0.698505 0
M  V30 9305 C 876.604 -1.78986 -0.773883 0
M  V30 9306 O 875.874 -1.18977 -1.55632 0
M  V30 9307 H 874.454 -0.701992 0.255375 0
M  V30 9308 H 877.116 -1.46668 1.28353 0
M  V30 9309 H 876.212 -2.96364 0.978512 0
M  V30 9310 N 876.513 -0.788492 -1.36457 0
M  V30 9311 C 877.738 -0.371224 -2.04051 0
M  V30 9312 C 878.163 1.004 -1.59064 0
M  V30 9313 O 877.521 1.64663 -0.758679 0
M  V30 9314 C 877.569 -0.442275 -3.57877 0
M  V30 9315 O 876.673 0.55113 -4.08701 0
M  V30 9316 H 876.014 -0.157808 -0.644975 0
M  V30 9317 H 878.544 -1.06935 -1.74431 0
M  V30 9318 H 878.554 -0.305548 -4.06854 0
M  V30 9319 H 877.229 -1.44547 -3.89973 0
M  V30 9320 H 875.806 0.37614 -3.70998 0
M  V30 9321 N 877.991 1.48044 -0.54043 0
M  V30 9322 C 878.954 2.28273 0.205966 0
M  V30 9323 C 879.954 1.35983 0.858209 0
M  V30 9324 O 881.144 1.58776 0.716651 0
M  V30 9325 C 878.276 3.15174 1.29917 0
M  V30 9326 H 879.469 2.95727 -0.498555 0
M  V30 9327 H 877.022 1.53457 -0.296745 0
M  V30 9328 H 877.757 2.52374 2.03661 0
M  V30 9329 H 877.542 3.83074 0.836475 0
M  V30 9330 H 879.032 3.75666 1.82387 0
M  V30 9331 N 879.47 0.276058 1.55163 0
M  V30 9332 C 880.4 -0.604633 2.25536 0
M  V30 9333 C 881.381 -1.15813 1.24585 0
M  V30 9334 O 882.566 -1.1921 1.53306 0
M  V30 9335 C 879.696 -1.78836 2.97716 0
M  V30 9336 C 878.65 -1.36635 4.05604 0
M  V30 9337 C 877.976 -2.63325 4.65364 0
M  V30 9338 C 879.276 -0.515858 5.19746 0
M  V30 9339 H 880.97 -0.0177483 2.99395 0
M  V30 9340 H 878.516 -0.00709627 1.43998 0
M  V30 9341 H 880.469 -2.41036 3.45658 0
M  V30 9342 H 879.193 -2.40109 2.21394 0
M  V30 9343 H 877.852 -0.767541 3.58475 0
M  V30 9344 H 877.5 -3.22858 3.85709 0
M  V30 9345 H 877.2 -2.358 5.38212 0
M  V30 9346 H 878.724 -3.26372 5.16056 0
M  V30 9347 H 880.138 -1.04289 5.63735 0
M  V30 9348 H 878.535 -0.335449 5.99162 0
M  V30 9349 H 879.605 0.465137 4.82664 0
M  V30 9350 N 880.948 -1.576 0.00335426 0
M  V30 9351 C 882.196 -1.90336 -0.679446 0
M  V30 9352 C 882.517 -0.877777 -1.74127 0
M  V30 9353 O 881.787 0.0843585 -1.95718 0
M  V30 9354 H 880.367 -0.702509 -0.253948 0
M  V30 9355 H 883.029 -1.94848 0.0450731 0
M  V30 9356 H 882.125 -2.90197 -1.14857 0
M  V30 9357 N 882.426 0.269451 -1.5528 0
M  V30 9358 C 883.675 0.998381 -1.75258 0
M  V30 9359 C 883.988 1.87321 -0.563034 0
M  V30 9360 O 885.194 2.63719 -0.645313 0
M  V30 9361 C 883.65 1.82505 -3.10193 0
M  V30 9362 C 883.258 0.99871 -4.36726 0
M  V30 9363 C 885.002 2.54807 -3.3952 0
M  V30 9364 C 882.909 1.81997 -5.627 0
M  V30 9365 H 881.839 0.376488 -0.653278 0
M  V30 9366 H 884.49 0.253909 -1.81735 0
M  V30 9367 H 882.872 2.61061 -2.97763 0
M  V30 9368 H 884.046 0.257064 -4.60082 0
M  V30 9369 H 882.361 0.390074 -4.14569 0
M  V30 9370 H 884.958 3.16662 -4.30847 0
M  V30 9371 H 885.301 3.25273 -2.59813 0
M  V30 9372 H 885.834 1.83278 -3.53064 0
M  V30 9373 H 882.573 1.15945 -6.45164 0
M  V30 9374 H 882.093 2.53749 -5.43481 0
M  V30 9375 H 883.772 2.39274 -6.0113 0
M  V30 9376 N 883.904 1.48273 0.534124 0
M  V30 9377 C 885.153 1.55334 1.28663 0
M  V30 9378 C 885.466 0.230345 1.94239 0
M  V30 9379 O 886.672 0.179161 2.70908 0
M  V30 9380 C 885.128 2.73927 2.33435 0
M  V30 9381 C 884.736 4.12852 1.73947 0
M  V30 9382 C 886.48 2.90298 3.09722 0
M  V30 9383 C 884.387 5.22711 2.76636 0
M  V30 9384 H 883.317 0.578262 0.483869 0
M  V30 9385 H 885.968 1.74598 0.564602 0
M  V30 9386 H 884.35 2.48089 3.08655 0
M  V30 9387 H 885.524 4.48691 1.04944 0
M  V30 9388 H 883.839 4.01562 1.10167 0
M  V30 9389 H 886.436 3.69542 3.86449 0
M  V30 9390 H 886.779 1.99598 3.6533 0
M  V30 9391 H 887.312 3.16017 2.41616 0
M  V30 9392 H 884.051 6.15362 2.25852 0
M  V30 9393 H 883.571 4.91364 3.43979 0
M  V30 9394 H 885.25 5.50648 3.39699 0
M  V30 9395 N 885.382 -0.782676 1.36792 0
M  V30 9396 C 886.63 -1.53778 1.31136 0
M  V30 9397 C 886.951 -1.94706 -0.107014 0
M  V30 9398 O 886.221 -1.65465 -1.04872 0
M  V30 9399 H 884.801 -0.570328 0.482426 0
M  V30 9400 H 887.463 -0.932181 1.71162 0
M  V30 9401 H 886.559 -2.44224 1.94321 0
M  V30 9402 N 886.86 -1.21182 -1.00761 0
M  V30 9403 C 888.09 -1.05182 -1.77821 0
M  V30 9404 C 888.498 0.401527 -1.8489 0
M  V30 9405 O 887.841 1.29042 -1.30743 0
M  V30 9406 C 887.903 -1.57066 -3.23374 0
M  V30 9407 C 887.567 -3.05491 -3.39889 0
M  V30 9408 C 888.564 -4.03065 -3.28381 0
M  V30 9409 C 886.249 -3.44641 -3.65415 0
M  V30 9410 C 888.243 -5.37778 -3.4216 0
M  V30 9411 C 885.93 -4.79507 -3.78836 0
M  V30 9412 C 886.928 -5.75884 -3.67214 0
M  V30 9413 O 886.616 -7.08304 -3.80212 0
M  V30 9414 H 886.348 -0.369983 -0.565763 0
M  V30 9415 H 888.902 -1.60914 -1.27655 0
M  V30 9416 H 887.132 -0.957273 -3.74664 0
M  V30 9417 H 888.821 -1.36949 -3.82099 0
M  V30 9418 H 889.587 -3.74163 -3.08588 0
M  V30 9419 H 885.466 -2.7016 -3.73544 0
M  V30 9420 H 889.01 -6.12987 -3.33005 0
M  V30 9421 H 884.907 -5.08096 -3.98132 0
M  V30 9422 H 885.675 -7.15677 -3.97175 0
M  V30 9423 N 888.338 1.20213 -1.01915 0
M  V30 9424 C 889.586 1.89272 -0.708552 0
M  V30 9425 C 889.907 1.79394 0.76438 0
M  V30 9426 O 889.177 1.198 1.54999 0
M  V30 9427 H 887.757 0.700628 -0.259094 0
M  V30 9428 H 890.419 1.45985 -1.29129 0
M  V30 9429 H 889.515 2.95841 -0.994215 0
M  V30 9430 N 889.816 0.795718 1.36037 0
M  V30 9431 C 890.746 0.212803 2.32528 0
M  V30 9432 C 891.727 -0.655716 1.56953 0
M  V30 9433 O 892.912 -0.588238 1.85077 0
M  V30 9434 C 890.042 -0.648189 3.41198 0
M  V30 9435 C 888.996 0.120948 4.27829 0
M  V30 9436 C 888.322 -0.861044 5.27722 0
M  V30 9437 C 889.622 1.31375 5.05508 0
M  V30 9438 H 891.316 1.01893 2.81528 0
M  V30 9439 H 888.862 0.491422 1.35355 0
M  V30 9440 H 890.815 -1.06597 4.07695 0
M  V30 9441 H 889.539 -1.48709 2.9078 0
M  V30 9442 H 888.198 0.519777 3.62897 0
M  V30 9443 H 887.846 -1.69515 4.73575 0
M  V30 9444 H 887.546 -0.350808 5.86552 0
M  V30 9445 H 889.07 -1.27726 5.97092 0
M  V30 9446 H 890.484 0.971406 5.6501 0
M  V30 9447 H 888.881 1.75772 5.73781 0
M  V30 9448 H 889.951 2.10593 4.36782 0
M  V30 9449 N 891.294 -1.47756 0.548274 0
M  V30 9450 C 892.224 -2.32702 -0.19284 0
M  V30 9451 C 893.205 -1.43237 -0.917457 0
M  V30 9452 O 894.39 -1.72103 -0.89967 0
M  V30 9453 C 891.52 -3.24831 -1.22891 0
M  V30 9454 C 890.474 -4.23466 -0.621312 0
M  V30 9455 C 889.8 -5.04856 -1.76137 0
M  V30 9456 C 891.1 -5.20616 0.419055 0
M  V30 9457 H 892.794 -2.94914 0.516323 0
M  V30 9458 H 890.34 -1.41818 0.24975 0
M  V30 9459 H 892.293 -3.83094 -1.75547 0
M  V30 9460 H 891.017 -2.60656 -1.9679 0
M  V30 9461 H 889.676 -3.66416 -0.116123 0
M  V30 9462 H 889.324 -4.37091 -2.48918 0
M  V30 9463 H 889.024 -5.71629 -1.36065 0
M  V30 9464 H 890.548 -5.65976 -2.29136 0
M  V30 9465 H 891.962 -5.73296 -0.0211034 0
M  V30 9466 H 890.359 -5.95543 0.738163 0
M  V30 9467 H 891.429 -4.66638 1.31822 0
M  V30 9468 N 892.772 -0.284283 -1.55015 0
M  V30 9469 C 893.705 0.640779 -2.19019 0
M  V30 9470 C 894.683 1.14541 -1.15409 0
M  V30 9471 O 895.867 1.21669 -1.43975 0
M  V30 9472 C 892.994 1.87488 -2.82074 0
M  V30 9473 C 892.04 1.50494 -3.99066 0
M  V30 9474 S 892.873 0.575218 -5.32402 0
M  V30 9475 C 894.029 1.81749 -5.98931 0
M  V30 9476 H 894.262 0.0969761 -2.97142 0
M  V30 9477 H 891.795 -0.0684929 -1.54248 0
M  V30 9478 H 893.753 2.58319 -3.19032 0
M  V30 9479 H 892.414 2.38984 -2.03828 0
M  V30 9480 H 891.607 2.42349 -4.41908 0
M  V30 9481 H 891.209 0.876741 -3.63578 0
M  V30 9482 H 893.501 2.76026 -6.18721 0
M  V30 9483 H 894.444 1.43192 -6.93471 0
M  V30 9484 H 894.852 1.98661 -5.28388 0
M  V30 9485 N 894.251 1.57596 -0.0117121 0
M  V30 9486 C 895.214 2.08089 0.960816 0
M  V30 9487 C 896.214 0.992519 1.26514 0
M  V30 9488 O 897.404 1.25475 1.20837 0
M  V30 9489 C 894.536 2.53217 2.28241 0
M  V30 9490 H 895.729 2.9529 0.523829 0
M  V30 9491 H 893.282 1.54508 0.235995 0
M  V30 9492 H 894.017 1.69294 2.76604 0
M  V30 9493 H 893.802 3.32714 2.0747 0
M  V30 9494 H 895.292 2.92568 2.97983 0
M  V30 9495 N 895.729 -0.261212 1.5542 0
M  V30 9496 C 896.975 -0.992699 1.76843 0
M  V30 9497 C 897.308 -1.8551 0.574428 0
M  V30 9498 O 896.583 -1.89739 -0.427713 0
M  V30 9499 C 896.866 -1.86532 3.08022 0
M  V30 9500 C 896.719 -1.03206 4.378 0
M  V30 9501 C 898.038 -2.85036 3.35324 0
M  V30 9502 H 895.157 -0.359473 0.643388 0
M  V30 9503 H 897.799 -0.264214 1.88154 0
M  V30 9504 H 895.949 -2.48644 2.9851 0
M  V30 9505 H 897.621 -0.430743 4.59285 0
M  V30 9506 H 895.864 -0.335911 4.32497 0
M  V30 9507 H 896.535 -1.6761 5.25938 0
M  V30 9508 H 899.011 -2.3306 3.44706 0
M  V30 9509 H 897.887 -3.43226 4.28354 0
M  V30 9510 H 898.148 -3.60768 2.55537 0
M  V30 9511 N 897.207 -1.48554 -0.526253 0
M  V30 9512 C 898.435 -1.60429 -1.30652 0
M  V30 9513 C 898.85 -0.265963 -1.86917 0
M  V30 9514 O 898.207 0.745262 -1.6659 0
M  V30 9515 C 898.258 -2.65377 -2.45473 0
M  V30 9516 O 897.979 -3.94017 -1.91527 0
M  V30 9517 C 899.48 -2.87726 -3.37237 0
M  V30 9518 H 896.7 -0.540817 -0.397187 0
M  V30 9519 H 899.244 -1.94409 -0.634461 0
M  V30 9520 H 897.399 -2.34246 -3.08557 0
M  V30 9521 H 897.813 -4.51623 -2.66715 0
M  V30 9522 H 899.287 -3.64951 -4.14144 0
M  V30 9523 H 899.764 -1.96688 -3.92696 0
M  V30 9524 H 900.37 -3.20176 -2.79942 0
M  V30 9525 N 898.685 0.775411 -1.37205 0
M  V30 9526 C 899.933 1.53081 -1.3195 0
M  V30 9527 C 900.254 1.9476 0.0966864 0
M  V30 9528 O 899.524 1.66019 1.03993 0
M  V30 9529 H 898.104 0.567762 -0.485444 0
M  V30 9530 H 900.766 0.92309 -1.71654 0
M  V30 9531 H 899.862 2.4319 -1.95614 0
M  V30 9532 N 900.163 1.21714 1.00117 0
M  V30 9533 C 901.126 0.981338 2.07129 0
M  V30 9534 C 902.126 -0.0491116 1.60725 0
M  V30 9535 O 903.316 0.188555 1.73177 0
M  V30 9536 C 900.448 0.480608 3.37495 0
M  V30 9537 H 901.641 1.93075 2.29482 0
M  V30 9538 H 899.194 1.03467 1.17151 0
M  V30 9539 H 899.929 -0.473552 3.20824 0
M  V30 9540 H 899.714 1.22393 3.72508 0
M  V30 9541 H 901.204 0.33561 4.16249 0
M  V30 9542 N 901.641 -1.19671 1.02551 0
M  V30 9543 C 902.571 -2.25009 0.623965 0
M  V30 9544 C 903.552 -1.66129 -0.36538 0
M  V30 9545 O 904.737 -1.92599 -0.248842 0
M  V30 9546 C 901.867 -3.47287 -0.0294869 0
M  V30 9547 C 900.821 -4.18818 0.881781 0
M  V30 9548 C 900.147 -5.34618 0.0936189 0
M  V30 9549 C 901.447 -4.73986 2.19396 0
M  V30 9550 H 903.141 -2.58851 1.50454 0
M  V30 9551 H 900.687 -1.24425 0.724872 0
M  V30 9552 H 902.64 -4.20168 -0.322016 0
M  V30 9553 H 901.364 -3.12635 -0.944838 0
M  V30 9554 H 900.023 -3.47815 1.15845 0
M  V30 9555 H 899.671 -4.9621 -0.823661 0
M  V30 9556 H 899.371 -5.83409 0.700568 0
M  V30 9557 H 900.895 -6.10297 -0.192249 0
M  V30 9558 H 902.309 -5.38639 1.96319 0
M  V30 9559 H 900.706 -5.3325 2.75254 0
M  V30 9560 H 901.776 -3.92238 2.85092 0
M  V30 9561 N 903.119 -0.802921 -1.35613 0
M  V30 9562 C 904.368 -0.378087 -1.98125 0
M  V30 9563 C 904.681 1.05953 -1.64418 0
M  V30 9564 O 905.887 1.58729 -2.20266 0
M  V30 9565 C 904.343 -0.625077 -3.5443 0
M  V30 9566 C 903.951 -2.07499 -3.97049 0
M  V30 9567 C 905.695 -0.265419 -4.23669 0
M  V30 9568 C 903.602 -2.26793 -5.46186 0
M  V30 9569 H 902.532 -0.137633 -0.741332 0
M  V30 9570 H 905.183 -0.986461 -1.54729 0
M  V30 9571 H 903.565 0.0531975 -3.95964 0
M  V30 9572 H 904.739 -2.79077 -3.66678 0
M  V30 9573 H 903.054 -2.39417 -3.40688 0
M  V30 9574 H 905.651 -0.387669 -5.33293 0
M  V30 9575 H 905.994 0.787994 -4.08774 0
M  V30 9576 H 906.527 -0.897464 -3.87544 0
M  V30 9577 H 903.266 -3.30566 -5.66045 0
M  V30 9578 H 902.786 -1.59735 -5.78139 0
M  V30 9579 H 904.465 -2.08165 -6.12598 0
M  V30 9580 N 904.597 1.47463 -0.556102 0
M  V30 9581 C 905.874 1.9557 0.0339892 0
M  V30 9582 C 906.254 1.49869 1.48669 0
M  V30 9583 O 905.602 0.737019 2.16288 0
M  V30 9584 C 905.812 3.48826 -0.110343 0
M  V30 9585 C 907.16 4.24585 0.0355716 0
M  V30 9586 O 908.184 3.5618 -0.0378356 0
M  V30 9587 O 907.043 5.46158 0.193299 0
M  V30 9588 H 904.137 0.824461 0.0647521 0
M  V30 9589 H 906.683 1.57868 -0.622547 0
M  V30 9590 H 905.455 3.74891 -1.12126 0
M  V30 9591 H 905.078 3.9329 0.583855 0
M  V30 9592 N 906.075 0.2925 1.54862 0
M  V30 9593 C 906.985 -0.597036 2.26876 0
M  V30 9594 C 908.001 -1.15558 1.30086 0
M  V30 9595 O 909.177 -1.18217 1.63054 0
M  V30 9596 C 906.242 -1.75664 2.98903 0
M  V30 9597 C 905.303 -1.23303 4.11212 0
M  V30 9598 C 904.536 -2.33736 4.79795 0
M  V30 9599 O 904.759 -3.53459 4.47686 0
M  V30 9600 O 903.693 -2.00908 5.67379 0
M  V30 9601 H 907.519 -0.0131242 3.03697 0
M  V30 9602 H 905.104 0.0592642 1.49282 0
M  V30 9603 H 906.986 -2.43241 3.4411 0
M  V30 9604 H 905.661 -2.32731 2.24984 0
M  V30 9605 H 904.568 -0.523222 3.70423 0
M  V30 9606 H 905.901 -0.707887 4.87083 0
M  V30 9607 N 907.553 -1.57587 0.0200696 0
M  V30 9608 C 908.778 -1.96124 -0.674547 0
M  V30 9609 C 909.203 -0.896068 -1.65385 0
M  V30 9610 O 908.561 0.143925 -1.80728 0
M  V30 9611 C 908.609 -3.3376 -1.36517 0
M  V30 9612 O 907.713 -3.29483 -2.48022 0
M  V30 9613 H 907.054 -0.639719 -0.177919 0
M  V30 9614 H 909.584 -2.04447 0.0792317 0
M  V30 9615 H 909.594 -3.69785 -1.72403 0
M  V30 9616 H 908.269 -4.10832 -0.647265 0
M  V30 9617 H 906.846 -3.05162 -2.14314 0
M  V30 9618 N 909.032 0.252966 -1.55557 0
M  V30 9619 C 909.962 1.31691 -1.9282 0
M  V30 9620 C 910.943 1.50516 -0.7924 0
M  V30 9621 O 912.128 1.63225 -1.05219 0
M  V30 9622 C 909.258 2.67281 -2.21762 0
M  V30 9623 C 908.212 2.6316 -3.37536 0
M  V30 9624 C 907.538 4.02488 -3.52005 0
M  V30 9625 C 908.838 2.20675 -4.73392 0
M  V30 9626 H 910.532 1.00751 -2.81939 0
M  V30 9627 H 908.078 0.483219 -1.3565 0
M  V30 9628 H 910.031 3.41842 -2.46419 0
M  V30 9629 H 908.755 2.99845 -1.29463 0
M  V30 9630 H 907.414 1.91057 -3.12878 0
M  V30 9631 H 907.062 4.32307 -2.57137 0
M  V30 9632 H 906.762 4.00621 -4.29857 0
M  V30 9633 H 908.286 4.78758 -3.78977 0
M  V30 9634 H 909.7 2.84965 -4.97461 0
M  V30 9635 H 908.097 2.29931 -5.54303 0
M  V30 9636 H 909.167 1.15831 -4.70862 0
M  V30 9637 N 910.51 1.48831 0.518367 0
M  V30 9638 C 911.756 1.57672 1.27543 0
M  V30 9639 C 912.089 0.254915 1.9252 0
M  V30 9640 O 911.364 -0.740107 1.79868 0
M  V30 9641 C 911.647 2.72345 2.35585 0
M  V30 9642 C 911.5 4.14267 1.75224 0
M  V30 9643 C 912.819 2.82726 3.37274 0
M  V30 9644 H 909.938 0.573926 0.462361 0
M  V30 9645 H 912.58 1.8105 0.576267 0
M  V30 9646 H 910.73 2.52543 2.95219 0
M  V30 9647 H 912.402 4.45539 1.19551 0
M  V30 9648 H 910.645 4.20724 1.05706 0
M  V30 9649 H 911.316 4.90345 2.53507 0
M  V30 9650 H 913.792 3.00699 2.8761 0
M  V30 9651 H 912.668 3.6467 4.10252 0
M  V30 9652 H 912.929 1.9136 3.9854 0
M  V30 9653 N 911.988 -0.768124 1.37614 0
M  V30 9654 C 912.898 -1.91249 1.35871 0
M  V30 9655 C 913.914 -1.7208 0.257786 0
M  V30 9656 O 915.09 -1.95253 0.493782 0
M  V30 9657 C 912.155 -3.26423 1.16829 0
M  V30 9658 C 911.216 -3.5822 2.36594 0
M  V30 9659 C 910.449 -4.86945 2.1845 0
M  V30 9660 O 910.672 -5.58258 1.17064 0
M  V30 9661 O 909.606 -5.17888 3.06718 0
M  V30 9662 H 913.432 -1.95671 2.32264 0
M  V30 9663 H 911.017 -0.911382 1.18382 0
M  V30 9664 H 912.899 -4.07269 1.08212 0
M  V30 9665 H 911.574 -3.22845 0.235123 0
M  V30 9666 H 910.481 -2.77594 2.50783 0
M  V30 9667 H 911.814 -3.66545 3.2849 0
M  V30 9668 N 913.466 -1.22244 -0.994698 0
M  V30 9669 C 914.413 -0.990906 -2.08446 0
M  V30 9670 C 915.383 0.086737 -1.65873 0
M  V30 9671 O 916.568 -0.0624882 -1.90698 0
M  V30 9672 C 913.708 -0.572813 -3.40313 0
M  V30 9673 C 912.821 -1.72103 -3.96238 0
M  V30 9674 C 911.956 -1.2511 -5.16257 0
M  V30 9675 C 910.995 -2.37098 -5.64315 0
M  V30 9676 N 910.132 -1.91164 -6.75574 0
M  V30 9677 H 914.972 -1.92377 -2.27585 0
M  V30 9678 H 912.509 -0.958576 -1.11578 0
M  V30 9679 H 914.467 -0.311594 -4.16035 0
M  V30 9680 H 913.097 0.323044 -3.21179 0
M  V30 9681 H 912.149 -2.09662 -3.17405 0
M  V30 9682 H 913.461 -2.56347 -4.27888 0
M  V30 9683 H 912.615 -0.947152 -5.99261 0
M  V30 9684 H 911.354 -0.378836 -4.86226 0
M  V30 9685 H 910.359 -2.68283 -4.799 0
M  V30 9686 H 911.584 -3.24837 -5.96371 0
M  V30 9687 H 909.53 -1.06298 -6.47331 0
M  V30 9688 H 909.447 -2.68975 -7.06533 0
M  V30 9689 H 910.715 -1.63833 -7.62088 0
M  V30 9690 N 914.944 1.19125 -1.03184 0
M  V30 9691 C 915.907 2.20662 -0.619766 0
M  V30 9692 C 916.907 1.57621 0.318179 0
M  V30 9693 O 918.097 1.73885 0.104783 0
M  V30 9694 C 915.229 3.40774 0.0926696 0
M  V30 9695 H 916.422 2.58633 -1.5182 0
M  V30 9696 H 913.975 1.32855 -0.823364 0
M  V30 9697 H 914.71 3.08324 1.00531 0
M  V30 9698 H 914.495 3.87766 -0.581344 0
M  V30 9699 H 915.985 4.15977 0.367792 0
M  V30 9700 N 916.422 0.810101 1.35185 0
M  V30 9701 C 917.37 0.211071 2.3164 0
M  V30 9702 C 918.364 -0.641109 1.568 0
M  V30 9703 O 919.57 -0.533881 1.719 0
M  V30 9704 H 915.945 0.0494978 0.750369 0
M  V30 9705 H 917.916 1.03964 2.79703 0
M  V30 9706 C 916.665 -0.622933 3.42074 0
M  V30 9707 H 915.988 0.0234648 3.99793 0
M  V30 9708 H 917.428 -1.0084 4.11834 0
M  V30 9709 C 915.887 -1.78994 2.85417 0
M  V30 9710 O 916.417 -2.88758 2.79252 0
M  V30 9711 N 914.623 -1.60259 2.42416 0
M  V30 9712 H 914.17 -0.70974 2.4763 0
M  V30 9713 H 914.128 -2.38498 2.04857 0
M  V30 9714 N 917.9 -1.47166 0.563914 0
M  V30 9715 C 918.847 -2.30097 -0.180013 0
M  V30 9716 C 919.817 -1.39473 -0.902019 0
M  V30 9717 O 921.002 -1.68432 -0.896396 0
M  V30 9718 C 918.142 -3.23573 -1.19978 0
M  V30 9719 C 917.255 -4.2929 -0.483149 0
M  V30 9720 C 916.39 -5.0991 -1.48879 0
M  V30 9721 C 915.429 -6.07395 -0.757513 0
M  V30 9722 N 914.566 -6.8095 -1.71031 0
M  V30 9723 H 919.406 -2.93189 0.53329 0
M  V30 9724 H 916.943 -1.4451 0.274814 0
M  V30 9725 H 918.901 -3.76196 -1.80368 0
M  V30 9726 H 917.531 -2.6233 -1.88103 0
M  V30 9727 H 916.583 -3.79671 0.235414 0
M  V30 9728 H 917.895 -4.9872 0.0894075 0
M  V30 9729 H 917.049 -5.66717 -2.16603 0
M  V30 9730 H 915.788 -4.40397 -2.09527 0
M  V30 9731 H 914.793 -5.4976 -0.0663841 0
M  V30 9732 H 916.018 -6.78919 -0.156685 0
M  V30 9733 H 913.964 -6.14162 -2.30524 0
M  V30 9734 H 913.881 -7.46574 -1.19007 0
M  V30 9735 H 915.149 -7.42326 -2.37849 0
M  V30 9736 N 919.378 -0.300708 -1.54705 0
M  V30 9737 C 920.625 0.308654 -2.00134 0
M  V30 9738 C 920.953 1.53918 -1.1891 0
M  V30 9739 O 920.208 1.94054 -0.253263 0
M  V30 9740 C 920.507 0.710108 -3.50275 0
M  V30 9741 C 920.173 -0.418651 -4.48952 0
M  V30 9742 C 918.835 -0.728524 -4.75653 0
M  V30 9743 C 921.187 -1.17797 -5.07714 0
M  V30 9744 C 918.515 -1.80085 -5.58378 0
M  V30 9745 C 920.867 -2.24022 -5.91606 0
M  V30 9746 C 919.531 -2.55616 -6.16617 0
M  V30 9747 H 918.801 0.112945 -0.732342 0
M  V30 9748 H 921.448 -0.419744 -1.86843 0
M  V30 9749 H 919.753 1.51859 -3.61173 0
M  V30 9750 H 921.45 1.19277 -3.8285 0
M  V30 9751 H 918.04 -0.167034 -4.28274 0
M  V30 9752 H 922.224 -0.951835 -4.87087 0
M  V30 9753 H 917.48 -2.05036 -5.75995 0
M  V30 9754 H 921.654 -2.83317 -6.36164 0
M  V30 9755 H 919.281 -3.38839 -6.80509 0
M  V30 9756 N 920.856 1.57574 -0.0284266 0
M  V30 9757 C 922.102 1.92884 0.645544 0
M  V30 9758 C 922.457 0.905203 1.69776 0
M  V30 9759 O 921.75 -0.0788509 1.91438 0
M  V30 9760 C 921.944 3.32699 1.3056 0
M  V30 9761 C 921.773 4.48568 0.318848 0
M  V30 9762 C 920.543 5.05235 -0.0810373 0
M  V30 9763 C 922.741 5.12528 -0.426575 0
M  V30 9764 N 920.723 6.04626 -1.06303 0
M  V30 9765 C 922.094 6.07013 -1.26235 0
M  V30 9766 C 924.149 4.95509 -0.48735 0
M  V30 9767 C 922.852 6.8631 -2.15341 0
M  V30 9768 C 924.878 5.75414 -1.36575 0
M  V30 9769 C 924.24 6.69514 -2.1893 0
M  V30 9770 H 920.339 0.753677 0.208555 0
M  V30 9771 H 922.923 1.94466 -0.095439 0
M  V30 9772 H 921.094 3.31938 2.01673 0
M  V30 9773 H 922.826 3.55359 1.93655 0
M  V30 9774 H 919.581 4.72691 0.293264 0
M  V30 9775 H 920.005 6.59012 -1.55025 0
M  V30 9776 H 924.647 4.22584 0.135112 0
M  V30 9777 H 922.365 7.58541 -2.78642 0
M  V30 9778 H 925.951 5.64279 -1.41705 0
M  V30 9779 H 924.831 7.30266 -2.85799 0
M  V30 9780 N 922.334 -0.244713 1.55689 0
M  V30 9781 C 923.582 -0.970525 1.77272 0
M  V30 9782 C 923.903 -1.85771 0.592804 0
M  V30 9783 O 923.173 -1.91952 -0.391323 0
M  V30 9784 H 921.753 -0.361342 0.653789 0
M  V30 9785 H 924.415 -0.262134 1.93129 0
M  V30 9786 H 923.511 -1.59096 2.68505 0
M  V30 9787 N 923.813 -1.49104 -0.510467 0
M  V30 9788 C 925.062 -1.57362 -1.26175 0
M  V30 9789 C 925.375 -0.261218 -1.93848 0
M  V30 9790 O 926.581 -0.222238 -2.70589 0
M  V30 9791 C 925.037 -2.77606 -2.29048 0
M  V30 9792 C 924.645 -4.15567 -1.67357 0
M  V30 9793 C 926.389 -2.95188 -3.05064 0
M  V30 9794 C 924.296 -5.27046 -2.68285 0
M  V30 9795 H 923.226 -0.585887 -0.474608 0
M  V30 9796 H 925.877 -1.75474 -0.536753 0
M  V30 9797 H 924.259 -2.52968 -3.04669 0
M  V30 9798 H 925.433 -4.50304 -0.977924 0
M  V30 9799 H 923.748 -4.03264 -1.03765 0
M  V30 9800 H 926.345 -3.75643 -3.80521 0
M  V30 9801 H 926.688 -2.05385 -3.62108 0
M  V30 9802 H 927.221 -3.19821 -2.36558 0
M  V30 9803 H 923.96 -6.18878 -2.16034 0
M  V30 9804 H 923.48 -4.96774 -3.36118 0
M  V30 9805 H 925.159 -5.55983 -3.30896 0
M  V30 9806 O 925.33 0.655661 -1.47592 0
M  V30 9807 H 926.021 1.30903 -1.42773 0
M  V30 END ATOM
M  V30 BEGIN BOND
M  V30 END BOND
M  V30 END CTAB
M  END
$$$$
