drugbank_target|Q8N142 Adenylosuccinate synthetase isozyme 1 (DB02109; DB03510; DB04137; DB04315; DB04418; DB04566; DB05540)
 OpenBabel12092120083D

  0  0  0     0  0            999 V3000
M  V30 BEGIN CTAB
M  V30 COUNTS 7089 7161 0 0 0
M  V30 BEGIN ATOM
M  V30 1 H -0.908 1.98254 -0.117106 0
M  V30 2 N 0 1.576 0 0
M  V30 3 C 0.933 2.03868 1.02534 0
M  V30 4 C 1.911 0.928543 1.3348 0
M  V30 5 O 3.095 1.19667 1.45644 0
M  V30 6 C 0.222 2.43627 2.35294 0
M  V30 7 C -0.732 3.65373 2.2001 0
M  V30 8 S 0.101 5.13292 1.52614 0
M  V30 9 C 1.257 5.56322 2.86805 0
M  V30 10 H 1.49 2.90518 0.631377 0
M  V30 11 H -0.977 1.52953 0.210867 0
M  V30 12 H 0.981 2.67203 3.11629 0
M  V30 13 H -0.358 1.57376 2.7183 0
M  V30 14 H -1.165 3.90944 3.18086 0
M  V30 15 H -1.563 3.418 1.51819 0
M  V30 16 H 0.729 5.58782 3.83104 0
M  V30 17 H 1.672 6.56266 2.65933 0
M  V30 18 H 2.08 4.83886 2.90714 0
M  V30 19 N 1.4781 -0.272755 1.55222 0
M  V30 20 C 2.7031 -1.02683 1.80197 0
M  V30 21 C 3.1281 -1.79142 0.573551 0
M  V30 22 O 2.4861 -1.74917 -0.476849 0
M  V30 23 C 2.5341 -1.9609 3.02624 0
M  V30 24 O 1.6381 -3.04863 2.77727 0
M  V30 25 H 0.9791 -0.293557 0.595584 0
M  V30 26 H 3.5091 -0.30159 2.02365 0
M  V30 27 H 3.5191 -2.38039 3.31363 0
M  V30 28 H 2.1941 -1.39851 3.91682 0
M  V30 29 H 0.7711 -2.67228 2.60084 0
M  V30 30 N 2.9562 -1.48159 -0.537278 0
M  V30 31 C 4.2042 -1.55497 -1.29094 0
M  V30 32 C 4.5252 -0.227454 -1.93669 0
M  V30 33 O 3.7952 0.750386 -1.80959 0
M  V30 34 H 2.3752 -0.572832 -0.47945 0
M  V30 35 H 5.0372 -1.84579 -0.625818 0
M  V30 36 H 4.1332 -2.33216 -2.07405 0
M  V30 37 N 4.4343 0.785586 -1.36625 0
M  V30 38 C 5.6623 1.57448 -1.3423 0
M  V30 39 C 6.0773 1.88649 0.0755653 0
M  V30 40 O 5.4343 1.50414 1.03354 0
M  V30 41 C 5.4853 2.89316 -2.16745 0
M  V30 42 O 5.2063 2.59459 -3.53005 0
M  V30 43 C 6.7073 3.83606 -2.22174 0
M  V30 44 H 3.9273 0.488226 -0.4603 0
M  V30 45 H 6.4713 0.974733 -1.79775 0
M  V30 46 H 4.6263 3.4575 -1.74745 0
M  V30 47 H 5.0403 3.43804 -3.96105 0
M  V30 48 H 6.5143 4.73181 -2.8426 0
M  V30 49 H 6.9913 4.21734 -1.22627 0
M  V30 50 H 7.5973 3.33104 -2.64427 0
M  V30 51 N 5.9124 1.20967 1.01018 0
M  V30 52 C 7.3284 0.965905 1.27053 0
M  V30 53 C 7.5284 -0.350785 1.98423 0
M  V30 54 O 6.5844 -1.07773 2.28344 0
M  V30 55 C 7.8974 2.15294 2.09926 0
M  V30 56 C 9.4454 2.19463 2.23171 0
M  V30 57 C 9.9204 3.3767 3.09424 0
M  V30 58 N 11.4114 3.37724 3.17012 0
M  V30 59 C 12.1464 4.25837 3.83993 0
M  V30 60 N 11.6424 5.24138 4.53047 0
M  V30 61 N 13.4354 4.1366 3.80581 0
M  V30 62 H 5.5864 2.0565 0.531194 0
M  V30 63 H 7.8494 0.90024 0.297106 0
M  V30 64 H 7.5554 3.10684 1.64828 0
M  V30 65 H 7.4294 2.13923 3.10672 0
M  V30 66 H 9.8164 1.24632 2.6749 0
M  V30 67 H 9.8974 2.2488 1.21912 0
M  V30 68 H 9.5414 4.32791 2.65808 0
M  V30 69 H 9.4714 3.29491 4.10784 0
M  V30 70 H 11.9624 2.6658 2.6785 0
M  V30 71 H 12.2754 5.87684 5.01844 0
M  V30 72 H 10.6204 5.28068 4.5185 0
M  V30 73 H 13.8114 3.36127 3.25785 0
M  V30 74 H 13.9844 4.82538 4.32505 0
M  V30 75 N 7.3905 -1.2043 1.01659 0
M  V30 76 C 8.3535 -2.21433 0.591616 0
M  V30 77 C 9.3535 -1.57203 -0.338226 0
M  V30 78 O 10.5435 -1.73737 -0.126918 0
M  V30 79 C 7.6755 -3.40628 -0.136058 0
M  V30 80 H 8.8685 -2.60545 1.48514 0
M  V30 81 H 6.4215 -1.33893 0.806379 0
M  V30 82 H 7.1565 -3.07019 -1.04449 0
M  V30 83 H 6.9415 -3.88475 0.531917 0
M  V30 84 H 8.4315 -4.15475 -0.420735 0
M  V30 85 N 8.8686 -0.792821 -1.36206 0
M  V30 86 C 10.0936 -0.377701 -2.03932 0
M  V30 87 C 10.5186 0.998947 -1.59382 0
M  V30 88 O 9.8766 1.64421 -0.763903 0
M  V30 89 C 9.9246 -0.453635 -3.57735 0
M  V30 90 O 9.0286 0.538151 -4.08874 0
M  V30 91 H 8.3696 -0.159855 -0.644471 0
M  V30 92 H 10.8996 -1.07488 -1.7409 0
M  V30 93 H 10.9096 -0.318464 -4.06755 0
M  V30 94 H 9.5846 -1.45784 -3.89512 0
M  V30 95 H 8.1616 0.364359 -3.71116 0
M  V30 96 N 10.3467 1.47872 -0.545128 0
M  V30 97 C 11.2947 2.31533 0.222512 0
M  V30 98 C 12.2887 1.42177 0.920985 0
M  V30 99 O 13.4947 1.59005 0.843645 0
M  V30 100 H 9.8697 0.746519 0.0906278 0
M  V30 101 H 11.8407 2.94139 -0.50246 0
M  V30 102 C 10.5897 3.2457 1.24699 0
M  V30 103 H 9.9127 3.93283 0.718944 0
M  V30 104 H 11.3527 3.85963 1.75523 0
M  V30 105 C 9.8117 2.47237 2.28856 0
M  V30 106 O 10.3417 2.20808 3.35569 0
M  V30 107 N 8.5477 2.08461 2.02466 0
M  V30 108 H 8.0947 2.30155 1.157 0
M  V30 109 H 8.0527 1.57033 2.72375 0
M  V30 110 N 11.8248 0.280983 1.55075 0
M  V30 111 C 13.1018 -0.386207 1.91749 0
M  V30 112 C 13.4818 -1.73264 1.20594 0
M  V30 113 O 12.8298 -2.26034 0.334784 0
M  V30 114 C 13.0398 -0.520687 3.45094 0
M  V30 115 C 14.3878 -0.800865 4.16979 0
M  V30 116 O 15.4118 -0.605271 3.5102 0
M  V30 117 O 14.2708 -1.1753 5.33712 0
M  V30 118 H 11.3648 -0.212408 0.799257 0
M  V30 119 H 13.9108 0.327568 1.66509 0
M  V30 120 H 12.6828 0.426633 3.88967 0
M  V30 121 H 12.3058 -1.2837 3.76307 0
M  V30 122 N 13.3029 -1.57598 0.00835791 0
M  V30 123 C 14.7189 -1.55764 -0.347822 0
M  V30 124 C 14.9189 -1.01186 -1.74252 0
M  V30 125 O 13.9749 -0.649371 -2.44007 0
M  V30 126 C 15.2879 -2.99927 -0.215407 0
M  V30 127 C 16.8359 -3.11656 -0.289725 0
M  V30 128 C 17.3109 -4.57621 -0.18634 0
M  V30 129 N 18.8019 -4.62557 -0.243978 0
M  V30 130 C 19.5369 -5.73094 -0.18745 0
M  V30 131 N 19.0329 -6.92753 -0.0810331 0
M  V30 132 N 20.8259 -5.61588 -0.239925 0
M  V30 133 H 12.9769 -1.91411 0.92062 0
M  V30 134 H 15.2399 -0.879562 0.353659 0
M  V30 135 H 14.9459 -3.43729 0.744512 0
M  V30 136 H 14.8199 -3.63865 -0.994097 0
M  V30 137 H 17.2069 -2.67779 -1.24009 0
M  V30 138 H 17.2879 -2.5048 0.51898 0
M  V30 139 H 16.9319 -5.02174 0.760519 0
M  V30 140 H 16.8619 -5.16752 -1.01364 0
M  V30 141 H 19.3529 -3.76481 -0.327217 0
M  V30 142 H 19.6659 -7.72787 -0.0440241 0
M  V30 143 H 18.0109 -6.94984 -0.0465419 0
M  V30 144 H 21.2019 -4.66996 -0.321317 0
M  V30 145 H 21.3749 -6.47714 -0.192407 0
M  V30 146 N 14.781 0.264519 -1.55364 0
M  V30 147 C 16.192 0.834936 -1.6699 0
M  V30 148 C 16.543 1.86718 -0.602552 0
M  V30 149 O 15.668 2.14899 0.254425 0
M  V30 150 C 16.263 1.5212 -3.02729 0
M  V30 151 C 14.822 2.03954 -3.16354 0
M  V30 152 C 13.969 0.884498 -2.62815 0
M  V30 153 H 16.92 0.0406869 -1.58648 0
M  V30 154 H 16.941 2.38853 -2.96191 0
M  V30 155 H 16.453 0.769668 -3.80392 0
M  V30 156 H 14.554 2.82041 -2.43482 0
M  V30 157 H 14.667 2.24902 -4.23032 0
M  V30 158 H 13.031 1.2802 -2.20188 0
M  V30 159 H 13.814 0.14634 -3.42988 0
M  V30 160 N 16.2591 1.48442 0.529413 0
M  V30 161 C 17.6701 1.5002 1.11134 0
M  V30 162 C 18.0211 0.27031 1.94329 0
M  V30 163 O 17.1461 -0.622507 2.07253 0
M  V30 164 C 17.7411 2.71834 2.02217 0
M  V30 165 C 16.3001 2.76283 2.55627 0
M  V30 166 C 15.4471 2.43542 1.326 0
M  V30 167 H 18.3981 1.5555 0.314641 0
M  V30 168 H 18.4191 2.50384 2.8651 0
M  V30 169 H 17.9311 3.61331 1.41639 0
M  V30 170 H 16.0321 1.90995 3.19924 0
M  V30 171 H 16.1451 3.77725 2.94721 0
M  V30 172 H 14.5091 1.94709 1.64196 0
M  V30 173 H 15.2921 3.3528 0.737734 0
M  V30 174 N 17.7372 -0.778329 1.37039 0
M  V30 175 C 18.9852 -1.53361 1.31623 0
M  V30 176 C 19.3062 -1.94739 -0.100831 0
M  V30 177 O 18.5762 -1.65797 -1.04347 0
M  V30 178 H 17.1562 -0.568794 0.484234 0
M  V30 179 H 19.8182 -0.926742 1.71457 0
M  V30 180 H 18.9142 -2.43606 1.95096 0
M  V30 181 N 19.2153 -1.21501 -1.00376 0
M  V30 182 C 20.1783 -0.976927 -2.07337 0
M  V30 183 C 21.1783 0.0525322 -1.60714 0
M  V30 184 O 22.3683 -0.184869 -1.73216 0
M  V30 185 C 19.5003 -0.473423 -3.37597 0
M  V30 186 H 20.6933 -1.92587 -2.29892 0
M  V30 187 H 18.2463 -1.03217 -1.17371 0
M  V30 188 H 18.9813 0.480379 -3.20722 0
M  V30 189 H 18.7663 -1.216 -3.72768 0
M  V30 190 H 20.2563 -0.32675 -4.1632 0
M  V30 191 N 20.6934 1.19889 -1.02296 0
M  V30 192 C 21.9414 1.89046 -0.714558 0
M  V30 193 C 22.2624 1.79636 0.758681 0
M  V30 194 O 21.5324 1.20292 1.54618 0
M  V30 195 H 20.1124 0.699802 -0.261317 0
M  V30 196 H 22.7744 1.45574 -1.29592 0
M  V30 197 H 21.8704 2.95524 -1.0036 0
M  V30 198 N 22.1715 0.800033 1.35784 0
M  V30 199 C 23.4195 0.376597 1.9856 0
M  V30 200 C 23.7405 -1.05812 1.63795 0
M  V30 201 O 23.0105 -1.73103 0.917171 0
M  V30 202 H 21.5905 0.136261 0.734467 0
M  V30 203 H 24.2525 1.02442 1.65806 0
M  V30 204 H 23.3485 0.477002 3.08433 0
M  V30 205 N 23.6496 -1.47581 0.552962 0
M  V30 206 C 24.8956 -2.02782 0.0273648 0
M  V30 207 C 25.2286 -1.42687 -1.31734 0
M  V30 208 O 24.5036 -0.580897 -1.85623 0
M  V30 209 C 24.7866 -3.60031 -0.0702371 0
M  V30 210 C 24.6396 -4.30566 1.30126 0
M  V30 211 C 25.9586 -4.33028 -0.785771 0
M  V30 212 H 23.0776 -0.736912 0.0114185 0
M  V30 213 H 25.7196 -1.76056 0.714432 0
M  V30 214 H 23.8696 -3.82932 -0.655382 0
M  V30 215 H 25.5416 -4.19018 1.92929 0
M  V30 216 H 23.7846 -3.91086 1.87709 0
M  V30 217 H 24.4556 -5.39114 1.18573 0
M  V30 218 H 26.9316 -4.15095 -0.288982 0
M  V30 219 H 25.8076 -5.42695 -0.823013 0
M  V30 220 H 26.0686 -4.01945 -1.841 0
M  V30 221 N 25.1277 -0.289203 -1.54924 0
M  V30 222 C 26.0747 0.592115 -2.23075 0
M  V30 223 C 27.0447 1.13881 -1.20915 0
M  V30 224 O 28.2297 1.18551 -1.495 0
M  V30 225 C 25.3697 1.76376 -2.96623 0
M  V30 226 C 24.4827 1.24959 -4.13533 0
M  V30 227 C 23.6177 2.38416 -4.74691 0
M  V30 228 C 22.6567 1.84072 -5.83767 0
M  V30 229 N 21.7937 2.91057 -6.38929 0
M  V30 230 H 26.6337 0.00432038 -2.98 0
M  V30 231 H 24.1707 -0.00963529 -1.47097 0
M  V30 232 H 26.1287 2.45268 -3.3749 0
M  V30 233 H 24.7587 2.32337 -2.24097 0
M  V30 234 H 23.8107 0.453307 -3.77689 0
M  V30 235 H 25.1227 0.811662 -4.92152 0
M  V30 236 H 24.2767 3.15276 -5.18349 0
M  V30 237 H 23.0157 2.8553 -3.95378 0
M  V30 238 H 22.0207 1.05697 -5.39545 0
M  V30 239 H 23.2457 1.37877 -6.64956 0
M  V30 240 H 21.1917 3.37526 -5.62505 0
M  V30 241 H 21.1087 2.51724 -7.12861 0
M  V30 242 H 22.3767 3.6785 -6.87246 0
M  V30 243 N 26.6058 1.57591 -0.0167156 0
M  V30 244 C 28.0218 1.55946 0.339557 0
M  V30 245 C 28.2218 1.02109 1.73713 0
M  V30 246 O 27.2778 0.662303 2.43659 0
M  V30 247 C 28.5908 3.00037 0.199499 0
M  V30 248 C 30.1388 3.11805 0.273193 0
M  V30 249 C 30.6138 4.57713 0.162068 0
M  V30 250 N 32.1048 4.6268 0.219444 0
M  V30 251 C 32.8398 5.73185 0.157054 0
M  V30 252 N 32.3358 6.92786 0.0442936 0
M  V30 253 N 34.1288 5.61707 0.21014 0
M  V30 254 H 26.2798 1.90921 -0.930758 0
M  V30 255 H 28.5428 0.877674 -0.358319 0
M  V30 256 H 28.2488 3.4333 -0.76273 0
M  V30 257 H 28.1228 3.64387 0.974786 0
M  V30 258 H 30.5098 2.68433 1.22587 0
M  V30 259 H 30.5908 2.50201 -0.532256 0
M  V30 260 H 30.2348 5.01763 -0.78714 0
M  V30 261 H 30.1648 5.17283 0.986222 0
M  V30 262 H 32.6558 3.76649 0.307246 0
M  V30 263 H 32.9688 7.728 0.00304069 0
M  V30 264 H 31.3138 6.94999 0.00968457 0
M  V30 265 H 34.5048 4.6716 0.296546 0
M  V30 266 H 34.6778 6.47807 0.158054 0
M  V30 267 N 28.0839 -0.256276 1.55502 0
M  V30 268 C 29.3319 -0.983672 1.76545 0
M  V30 269 C 29.6529 -1.86206 0.578982 0
M  V30 270 O 28.9229 -1.91656 -0.405577 0
M  V30 271 H 27.5029 -0.366191 0.651086 0
M  V30 272 H 30.1649 -0.276479 1.92929 0
M  V30 273 H 29.2609 -1.61087 2.67315 0
M  V30 274 N 29.562 -1.4872 -0.521534 0
M  V30 275 C 30.978 -1.35028 -0.850855 0
M  V30 276 C 31.178 -0.367712 -1.98116 0
M  V30 277 O 30.234 0.208037 -2.51642 0
M  V30 278 C 31.547 -2.75263 -1.21041 0
M  V30 279 C 33.095 -2.83813 -1.31981 0
M  V30 280 C 33.57 -4.24769 -1.71276 0
M  V30 281 N 35.061 -4.27482 -1.78363 0
M  V30 282 C 35.796 -5.33494 -2.1017 0
M  V30 283 N 35.292 -6.49775 -2.40343 0
M  V30 284 N 37.085 -5.20894 -2.11248 0
M  V30 285 H 29.236 -2.11214 0.22413 0
M  V30 286 H 31.499 -0.947252 0.0376439 0
M  V30 287 H 31.205 -3.48765 -0.453415 0
M  V30 288 H 31.079 -3.09327 -2.15863 0
M  V30 289 H 33.466 -2.10561 -2.06756 0
M  V30 290 H 33.547 -2.53358 -0.352596 0
M  V30 291 H 33.191 -4.9854 -0.970588 0
M  V30 292 H 33.121 -4.52673 -2.69062 0
M  V30 293 H 35.612 -3.43611 -1.57288 0
M  V30 294 H 35.925 -7.26402 -2.63743 0
M  V30 295 H 34.27 -6.53035 -2.37844 0
M  V30 296 H 37.461 -4.29065 -1.87139 0
M  V30 297 H 37.634 -6.03612 -2.35704 0
M  V30 298 N 31.0401 0.771051 -1.3745 0
M  V30 299 C 31.9701 1.89827 -1.3597 0
M  V30 300 C 32.9511 1.68562 -0.228216 0
M  V30 301 O 34.1361 1.8941 -0.428675 0
M  V30 302 C 31.2661 3.2712 -1.16662 0
M  V30 303 C 30.2201 3.6295 -2.2683 0
M  V30 304 C 29.5461 4.98791 -1.92644 0
M  V30 305 C 30.8461 3.69627 -3.69017 0
M  V30 306 H 32.5401 1.91323 -2.30295 0
M  V30 307 H 30.0861 0.919082 -1.10855 0
M  V30 308 H 32.0391 4.05615 -1.14256 0
M  V30 309 H 30.7631 3.26059 -0.187926 0
M  V30 310 H 29.4221 2.86763 -2.28392 0
M  V30 311 H 29.0701 4.94271 -0.933021 0
M  V30 312 H 28.7701 5.23733 -2.66416 0
M  V30 313 H 30.2941 5.79685 -1.91826 0
M  V30 314 H 31.7081 4.38273 -3.69581 0
M  V30 315 H 30.1051 4.06067 -4.41848 0
M  V30 316 H 31.1751 2.70273 -4.02592 0
M  V30 317 N 32.5182 1.22032 0.997298 0
M  V30 318 C 33.4502 0.944263 2.08845 0
M  V30 319 C 34.4632 -0.0754663 1.62625 0
M  V30 320 O 35.6522 0.157994 1.77799 0
M  V30 321 C 32.7522 0.397723 3.36558 0
M  V30 322 C 31.9252 1.47362 4.11829 0
M  V30 323 C 30.9842 0.934951 5.17827 0
M  V30 324 O 30.0102 1.62016 5.45655 0
M  V30 325 N 31.2122 -0.245895 5.79979 0
M  V30 326 H 33.9772 1.88363 2.33109 0
M  V30 327 H 31.5382 1.12661 1.16272 0
M  V30 328 H 33.5302 0.0227771 4.04694 0
M  V30 329 H 32.1002 -0.446646 3.09393 0
M  V30 330 H 31.3202 2.02208 3.38386 0
M  V30 331 H 32.6082 2.19764 4.58891 0
M  V30 332 H 32.0062 -0.819475 5.59733 0
M  V30 333 H 30.5632 -0.562272 6.4937 0
M  V30 334 N 33.9963 -1.19345 1.0293 0
M  V30 335 C 34.9283 -2.22036 0.56857 0
M  V30 336 C 35.9413 -1.58865 -0.355779 0
M  V30 337 O 37.1303 -1.77851 -0.152103 0
M  V30 338 C 34.2303 -3.38363 -0.190752 0
M  V30 339 C 33.4033 -4.31118 0.738643 0
M  V30 340 C 32.4623 -5.26194 0.0246497 0
M  V30 341 O 31.4883 -5.65461 0.651354 0
M  V30 342 N 32.6903 -5.66971 -1.24594 0
M  V30 343 H 35.4553 -2.6219 1.45177 0
M  V30 344 H 33.0163 -1.34015 0.908381 0
M  V30 345 H 35.0083 -3.98981 -0.677961 0
M  V30 346 H 33.5783 -2.96994 -0.975366 0
M  V30 347 H 32.7983 -3.68276 1.40593 0
M  V30 348 H 34.0863 -4.90001 1.37029 0
M  V30 349 H 33.4843 -5.37104 -1.77583 0
M  V30 350 H 32.0413 -6.2984 -1.67764 0
M  V30 351 N 35.4744 -0.807222 -1.35358 0
M  V30 352 C 36.3844 -0.219594 -2.3357 0
M  V30 353 C 37.4004 0.637734 -1.61892 0
M  V30 354 O 38.5764 0.549336 -1.93763 0
M  V30 355 C 35.6414 0.62158 -3.41083 0
M  V30 356 C 34.7024 -0.256315 -4.28534 0
M  V30 357 C 33.9354 0.544807 -5.30912 0
M  V30 358 O 34.1584 1.77944 -5.41934 0
M  V30 359 O 33.0924 -0.0646478 -6.01865 0
M  V30 360 H 36.9184 -1.03208 -2.85625 0
M  V30 361 H 34.5034 -0.569025 -1.38139 0
M  V30 362 H 36.3854 1.10067 -4.06772 0
M  V30 363 H 35.0604 1.41165 -2.91297 0
M  V30 364 H 33.9674 -0.782559 -3.65823 0
M  V30 365 H 35.3004 -1.01034 -4.81719 0
M  V30 366 N 36.9525 1.47285 -0.560781 0
M  V30 367 C 37.9155 2.28535 0.174488 0
M  V30 368 C 38.9155 1.37153 0.839388 0
M  V30 369 O 40.1055 1.59748 0.694702 0
M  V30 370 C 37.2375 3.16934 1.25561 0
M  V30 371 H 38.4305 2.95012 -0.539262 0
M  V30 372 H 35.9835 1.53034 -0.317865 0
M  V30 373 H 36.7185 2.55157 2.00164 0
M  V30 374 H 36.5035 3.8419 0.783604 0
M  V30 375 H 37.9935 3.78143 1.77193 0
M  V30 376 N 38.4306 0.297415 1.54768 0
M  V30 377 C 39.3936 -0.567375 2.22066 0
M  V30 378 C 40.3936 -1.06409 1.20556 0
M  V30 379 O 41.5836 -0.960691 1.45315 0
M  V30 380 C 38.7156 -1.78517 2.90421 0
M  V30 381 H 39.9086 0.0205534 2.99893 0
M  V30 382 H 37.4616 0.0482163 1.56226 0
M  V30 383 H 38.1966 -2.41303 2.16664 0
M  V30 384 H 37.9816 -1.43669 3.64831 0
M  V30 385 H 39.4716 -2.39964 3.41771 0
M  V30 386 N 39.9087 -1.5758 0.0250728 0
M  V30 387 C 40.8717 -2.08896 -0.943139 0
M  V30 388 C 41.8717 -1.00321 -1.25668 0
M  V30 389 O 43.0617 -1.26495 -1.19769 0
M  V30 390 C 40.1937 -2.55143 -2.26086 0
M  V30 391 H 41.3867 -2.95723 -0.498775 0
M  V30 392 H 38.9397 -1.54703 -0.222888 0
M  V30 393 H 39.6747 -1.71633 -2.75159 0
M  V30 394 H 39.4597 -3.34461 -2.04641 0
M  V30 395 H 40.9497 -2.95083 -2.95492 0
M  V30 396 N 41.3868 0.248026 -1.55636 0
M  V30 397 C 42.6148 0.993808 -1.81469 0
M  V30 398 C 43.0298 1.78991 -0.60064 0
M  V30 399 O 42.3868 1.77345 0.430682 0
M  V30 400 C 42.4378 1.93258 -3.05506 0
M  V30 401 O 42.1588 1.16869 -4.22224 0
M  V30 402 C 43.6598 2.79444 -3.4413 0
M  V30 403 H 40.8798 0.292486 -0.603898 0
M  V30 404 H 43.4238 0.271253 -2.02693 0
M  V30 405 H 41.5788 2.60943 -2.86335 0
M  V30 406 H 41.9928 1.80359 -4.92515 0
M  V30 407 H 43.4668 3.41066 -4.34026 0
M  V30 408 H 43.9438 3.50499 -2.64665 0
M  V30 409 H 44.5498 2.17214 -3.65648 0
M  V30 410 N 42.8649 1.48995 0.513639 0
M  V30 411 C 44.1129 1.57531 1.26604 0
M  V30 412 C 44.4339 0.258236 1.93283 0
M  V30 413 O 43.7039 -0.721502 1.8213 0
M  V30 414 H 42.2839 0.580387 0.470276 0
M  V30 415 H 44.9459 1.85552 0.596373 0
M  V30 416 H 44.0419 2.36486 2.03669 0
M  V30 417 N 44.343 -0.763751 1.37857 0
M  V30 418 C 45.568 -1.55805 1.36893 0
M  V30 419 C 45.993 -1.88054 -0.0416135 0
M  V30 420 O 45.351 -1.49825 -1.02089 0
M  V30 421 C 45.399 -2.84012 2.22192 0
M  V30 422 O 44.503 -3.78732 1.63204 0
M  V30 423 H 43.844 -0.471638 0.46739 0
M  V30 424 H 46.374 -0.944657 1.81487 0
M  V30 425 H 46.384 -3.33037 2.35691 0
M  V30 426 H 45.059 -2.59869 3.24716 0
M  V30 427 H 43.636 -3.37402 1.58791 0
M  V30 428 N 45.8211 -1.22559 -0.990812 0
M  V30 429 C 47.2371 -0.985996 -1.255 0
M  V30 430 C 47.4371 0.319173 -1.98956 0
M  V30 431 O 46.4931 1.04127 -2.3003 0
M  V30 432 C 47.8061 -2.18607 -2.06474 0
M  V30 433 C 49.3541 -2.22985 -2.19651 0
M  V30 434 C 49.8291 -3.4255 -3.04012 0
M  V30 435 N 51.3201 -3.42725 -3.11599 0
M  V30 436 C 52.0551 -4.31892 -3.7717 0
M  V30 437 N 51.5511 -5.31279 -4.44651 0
M  V30 438 N 53.3441 -4.19662 -3.73952 0
M  V30 439 H 45.4951 -2.06469 -0.49841 0
M  V30 440 H 47.7581 -0.904853 -0.282747 0
M  V30 441 H 47.4641 -3.13267 -1.59865 0
M  V30 442 H 47.3381 -2.18838 -3.07229 0
M  V30 443 H 49.7251 -1.28871 -2.65474 0
M  V30 444 H 49.8061 -2.26791 -1.18319 0
M  V30 445 H 49.4501 -4.36965 -2.58889 0
M  V30 446 H 49.3801 -3.35984 -4.0549 0
M  V30 447 H 51.8711 -2.70807 -2.63575 0
M  V30 448 H 52.1841 -5.95593 -4.92431 0
M  V30 449 H 50.5291 -5.3519 -4.43392 0
M  V30 450 H 53.7201 -3.41268 -3.20396 0
M  V30 451 H 53.8931 -4.89358 -4.24774 0
M  V30 452 N 47.2992 1.18797 -1.03562 0
M  V30 453 C 48.5452 1.8893 -0.737113 0
M  V30 454 C 48.8782 1.79837 0.732956 0
M  V30 455 O 48.1532 1.19525 1.5344 0
M  V30 456 C 48.4362 3.39607 -1.19745 0
M  V30 457 C 48.2892 3.57537 -2.72924 0
M  V30 458 C 49.6082 4.33069 -0.783526 0
M  V30 459 H 46.7272 0.686057 -0.269249 0
M  V30 460 H 49.3692 1.39797 -1.28673 0
M  V30 461 H 47.5192 3.81583 -0.729855 0
M  V30 462 H 49.1912 3.24688 -3.27682 0
M  V30 463 H 47.4342 3.00363 -3.12993 0
M  V30 464 H 48.1052 4.63238 -3.00191 0
M  V30 465 H 50.5812 3.98846 -1.18581 0
M  V30 466 H 49.4572 5.3707 -1.13343 0
M  V30 467 H 49.7182 4.40986 0.313681 0
M  V30 468 N 48.7773 0.814389 1.34928 0
M  V30 469 C 50.0053 0.411136 2.02774 0
M  V30 470 C 50.4203 -0.980316 1.61354 0
M  V30 471 O 49.7773 -1.63299 0.814847 0
M  V30 472 C 49.8283 0.493865 3.58111 0
M  V30 473 O 49.5493 1.83047 3.98027 0
M  V30 474 C 51.0503 0.0844174 4.4322 0
M  V30 475 H 48.2703 0.166037 0.650133 0
M  V30 476 H 50.8143 1.10018 1.72384 0
M  V30 477 H 48.9693 -0.147006 3.87121 0
M  V30 478 H 49.3833 1.79872 4.92693 0
M  V30 479 H 50.8573 0.193404 5.51661 0
M  V30 480 H 51.3343 -0.97113 4.28329 0
M  V30 481 H 51.9403 0.69875 4.19521 0
M  V30 482 N 50.2554 -1.46986 0.568584 0
M  V30 483 C 51.5014 -2.02741 0.0488709 0
M  V30 484 C 51.8344 -1.44077 -1.30214 0
M  V30 485 O 51.1094 -0.600552 -1.84996 0
M  V30 486 C 51.3924 -3.60086 -0.032047 0
M  V30 487 C 51.2454 -4.29162 1.34686 0
M  V30 488 C 52.5644 -4.33838 -0.739798 0
M  V30 489 H 49.6834 -0.736749 0.0192338 0
M  V30 490 H 52.3254 -1.75289 0.733065 0
M  V30 491 H 50.4754 -3.83606 -0.61473 0
M  V30 492 H 52.1474 -4.16948 1.97362 0
M  V30 493 H 50.3904 -3.89073 1.91846 0
M  V30 494 H 51.0614 -5.37826 1.24285 0
M  V30 495 H 53.5374 -4.15378 -0.244939 0
M  V30 496 H 52.4134 -5.43537 -0.765406 0
M  V30 497 H 52.6744 -4.03875 -1.79827 0
M  V30 498 N 51.7335 -0.305618 -1.54608 0
M  V30 499 C 52.9795 0.302746 -2.00528 0
M  V30 500 C 53.3125 1.53184 -1.19367 0
M  V30 501 O 52.5875 1.92598 -0.271321 0
M  V30 502 C 52.8705 0.654756 -3.54097 0
M  V30 503 C 52.7235 -0.583793 -4.45995 0
M  V30 504 C 54.0425 1.47947 -4.14487 0
M  V30 505 H 51.1615 0.108564 -0.72896 0
M  V30 506 H 53.8035 -0.418634 -1.85331 0
M  V30 507 H 51.9535 1.26935 -3.67178 0
M  V30 508 H 53.6255 -1.22224 -4.44814 0
M  V30 509 H 51.8685 -1.21615 -4.16404 0
M  V30 510 H 52.5395 -0.293287 -5.5122 0
M  V30 511 H 55.0155 0.96013 -4.04871 0
M  V30 512 H 53.8915 1.69454 -5.22088 0
M  V30 513 H 54.1525 2.47011 -3.66658 0
M  V30 514 N 53.2116 1.57565 -0.0334293 0
M  V30 515 C 54.1416 2.13511 0.945265 0
M  V30 516 C 55.1226 1.05231 1.33643 0
M  V30 517 O 56.3076 1.33084 1.41429 0
M  V30 518 C 53.4376 2.6657 2.22616 0
M  V30 519 C 52.3916 3.79676 1.97561 0
M  V30 520 C 51.7176 4.1918 3.31952 0
M  V30 521 C 53.0176 5.0557 1.31135 0
M  V30 522 H 54.7116 2.95538 0.479325 0
M  V30 523 H 52.2576 1.42166 0.229115 0
M  V30 524 H 54.2106 3.04344 2.91466 0
M  V30 525 H 52.9346 1.8171 2.71384 0
M  V30 526 H 51.5936 3.42347 1.31127 0
M  V30 527 H 51.2416 3.31296 3.78487 0
M  V30 528 H 50.9416 4.95402 3.15992 0
M  V30 529 H 52.4656 4.59541 4.02063 0
M  V30 530 H 53.8796 5.40903 1.89992 0
M  V30 531 H 52.2766 5.86818 1.25559 0
M  V30 532 H 53.3466 4.84062 0.284894 0
M  V30 533 N 54.6897 -0.239769 1.55765 0
M  V30 534 C 55.9377 -0.964892 1.77579 0
M  V30 535 C 56.2587 -1.85582 0.598699 0
M  V30 536 O 55.5287 -1.92075 -0.385226 0
M  V30 537 H 54.1087 -0.359265 0.654933 0
M  V30 538 H 56.7707 -0.256001 1.93211 0
M  V30 539 H 55.8667 -1.58243 2.69009 0
M  V30 540 N 56.1678 -1.49265 -0.50573 0
M  V30 541 C 57.1308 -1.65075 -1.59006 0
M  V30 542 C 58.1308 -0.522768 -1.52065 0
M  V30 543 O 59.3208 -0.789117 -1.55302 0
M  V30 544 C 56.4528 -1.64369 -2.98656 0
M  V30 545 H 57.6458 -2.61784 -1.46319 0
M  V30 546 H 55.1988 -1.38226 -0.729616 0
M  V30 547 H 55.9338 -0.692272 -3.16825 0
M  V30 548 H 55.7188 -2.46282 -3.05103 0
M  V30 549 H 57.2088 -1.78674 -3.77446 0
M  V30 550 N 57.6459 0.756429 -1.3826 0
M  V30 551 C 58.5779 1.87971 -1.31147 0
M  V30 552 C 59.5909 1.61248 -0.224239 0
M  V30 553 O 60.7799 1.71881 -0.481581 0
M  V30 554 C 57.8799 3.23545 -1.00857 0
M  V30 555 C 57.0529 3.77794 -2.20432 0
M  V30 556 C 56.1119 4.91877 -1.86931 0
M  V30 557 O 55.1379 5.06659 -2.59395 0
M  V30 558 N 56.3399 5.74643 -0.822568 0
M  V30 559 H 59.1049 1.94585 -2.2794 0
M  V30 560 H 56.6659 0.936234 -1.32084 0
M  V30 561 H 58.6579 3.97403 -0.765021 0
M  V30 562 H 57.2279 3.12335 -0.128687 0
M  V30 563 H 56.4479 2.95534 -2.6087 0
M  V30 564 H 57.7359 4.10771 -3.00241 0
M  V30 565 H 57.1339 5.65266 -0.221575 0
M  V30 566 H 55.6909 6.48661 -0.638899 0
M  V30 567 N 59.124 1.23083 0.984299 0
M  V30 568 C 60.37 1.07221 1.72845 0
M  V30 569 C 60.725 -0.387453 1.88458 0
M  V30 570 O 60.018 -1.28309 1.42293 0
M  V30 571 C 60.212 1.72673 3.1292 0
M  V30 572 C 60.041 3.24853 3.10967 0
M  V30 573 C 58.811 3.93998 3.16376 0
M  V30 574 C 61.009 4.21674 2.94441 0
M  V30 575 N 58.991 5.33192 3.04268 0
M  V30 576 C 60.362 5.47756 2.90453 0
M  V30 577 C 62.417 4.12457 2.78897 0
M  V30 578 C 61.12 6.6568 2.72512 0
M  V30 579 C 63.146 5.3004 2.62319 0
M  V30 580 C 62.508 6.55046 2.59026 0
M  V30 581 H 58.607 0.44685 0.641755 0
M  V30 582 H 61.191 1.55753 1.16829 0
M  V30 583 H 59.362 1.26679 3.67161 0
M  V30 584 H 61.094 1.49824 3.75945 0
M  V30 585 H 57.849 3.45052 3.24401 0
M  V30 586 H 58.273 6.06157 3.015 0
M  V30 587 H 62.915 3.16588 2.80235 0
M  V30 588 H 60.633 7.61689 2.69919 0
M  V30 589 H 64.219 5.24747 2.5126 0
M  V30 590 H 63.099 7.44498 2.46357 0
M  V30 591 N 60.6021 -1.18246 1.0419 0
M  V30 592 C 61.8501 -1.87886 0.744543 0
M  V30 593 C 62.1711 -1.8082 -0.730006 0
M  V30 594 O 61.4411 -1.22736 -1.52685 0
M  V30 595 H 60.0211 -0.695556 0.272417 0
M  V30 596 H 62.6831 -1.43494 1.31892 0
M  V30 597 H 61.7791 -2.9389 1.05049 0
M  V30 598 N 62.0802 -0.821533 -1.34494 0
M  V30 599 C 63.3572 -0.33159 -1.92769 0
M  V30 600 C 63.7372 1.18088 -1.74981 0
M  V30 601 O 63.0852 1.98733 -1.12772 0
M  V30 602 C 63.2952 -0.759398 -3.40638 0
M  V30 603 C 64.6432 -0.757433 -4.1779 0
M  V30 604 O 65.6672 -0.70189 -3.49216 0
M  V30 605 O 64.5262 -0.829361 -5.4017 0
M  V30 606 H 61.6202 -0.0902502 -0.822061 0
M  V30 607 H 64.1662 -0.906231 -1.43477 0
M  V30 608 H 62.9382 -1.8012 -3.47379 0
M  V30 609 H 62.5612 -0.160378 -3.97276 0
M  V30 610 N 63.5583 1.46682 -0.576371 0
M  V30 611 C 64.4683 2.34032 0.163141 0
M  V30 612 C 65.4843 1.49367 0.892501 0
M  V30 613 O 66.6603 1.82252 0.857106 0
M  V30 614 C 63.7253 3.26435 1.16795 0
M  V30 615 C 62.7863 4.26998 0.443944 0
M  V30 616 C 62.0193 5.14986 1.40088 0
M  V30 617 O 62.2423 5.05785 2.637 0
M  V30 618 O 61.1763 5.94906 0.914917 0
M  V30 619 H 65.0023 2.98607 -0.55388 0
M  V30 620 H 62.5873 1.45554 -0.336821 0
M  V30 621 H 64.4693 3.83459 1.74748 0
M  V30 622 H 63.1443 2.64465 1.86655 0
M  V30 623 H 62.0513 3.7368 -0.177271 0
M  V30 624 H 63.3843 4.91736 -0.213566 0
M  V30 625 N 65.0364 0.313813 1.54444 0
M  V30 626 C 66.2844 -0.291099 1.99993 0
M  V30 627 C 66.6054 -1.53418 1.20366 0
M  V30 628 O 65.8754 -1.93544 0.302927 0
M  V30 629 H 64.4554 -0.110552 0.738774 0
M  V30 630 H 67.1174 0.428106 1.9014 0
M  V30 631 H 66.2134 -0.554268 3.07139 0
M  V30 632 N 66.5145 -1.57545 0.0417849 0
M  V30 633 C 67.4615 -2.10977 -0.935805 0
M  V30 634 C 68.4315 -1.01486 -1.31491 0
M  V30 635 O 69.6165 -1.2898 -1.40602 0
M  V30 636 C 66.7565 -2.65169 -2.2086 0
M  V30 637 C 65.8695 -3.88714 -1.88482 0
M  V30 638 C 65.0045 -4.31254 -3.1015 0
M  V30 639 C 64.0435 -5.47524 -2.7365 0
M  V30 640 N 63.1805 -5.85162 -3.87982 0
M  V30 641 H 68.0205 -2.94218 -0.473249 0
M  V30 642 H 65.5575 -1.45415 -0.221981 0
M  V30 643 H 67.5155 -2.94685 -2.95325 0
M  V30 644 H 66.1455 -1.8474 -2.64709 0
M  V30 645 H 65.1975 -3.65849 -1.04205 0
M  V30 646 H 66.5095 -4.73245 -1.57608 0
M  V30 647 H 65.6635 -4.62273 -3.92923 0
M  V30 648 H 64.4025 -3.45516 -3.44195 0
M  V30 649 H 63.4075 -5.16187 -1.89291 0
M  V30 650 H 64.6325 -6.34971 -2.40807 0
M  V30 651 H 62.5785 -5.02377 -4.21846 0
M  V30 652 H 62.4955 -6.64362 -3.60775 0
M  V30 653 H 63.7635 -6.20791 -4.71422 0
M  V30 654 N 67.9926 0.231505 -1.5589 0
M  V30 655 C 69.2406 0.955461 -1.78088 0
M  V30 656 C 69.5616 1.85262 -0.608533 0
M  V30 657 O 68.8316 1.92277 0.375035 0
M  V30 658 H 67.4116 0.355787 -0.656829 0
M  V30 659 H 70.0736 0.245751 -1.93344 0
M  V30 660 H 69.1696 1.56814 -2.69844 0
M  V30 661 N 69.4707 1.49531 0.497807 0
M  V30 662 C 70.4177 1.66436 1.59899 0
M  V30 663 C 71.3877 0.505793 1.58212 0
M  V30 664 O 72.5727 0.733202 1.7615 0
M  V30 665 C 69.7127 1.7399 2.98029 0
M  V30 666 C 68.8257 3.01172 3.09708 0
M  V30 667 C 67.9607 2.99686 4.38591 0
M  V30 668 C 66.9997 4.21434 4.43914 0
M  V30 669 N 66.1367 4.1784 5.64229 0
M  V30 670 H 70.9767 2.60459 1.44793 0
M  V30 671 H 68.5137 1.29137 0.704423 0
M  V30 672 H 70.4717 1.76352 3.78095 0
M  V30 673 H 69.1017 0.834301 3.11832 0
M  V30 674 H 68.1537 3.08408 2.22685 0
M  V30 675 H 69.4657 3.91165 3.09502 0
M  V30 676 H 68.6197 3.00628 5.2698 0
M  V30 677 H 67.3587 2.07477 4.41367 0
M  V30 678 H 66.3637 4.20733 3.53926 0
M  V30 679 H 67.5887 5.14839 4.42851 0
M  V30 680 H 65.5347 3.28469 5.67841 0
M  V30 681 H 65.4517 5.01571 5.65652 0
M  V30 682 H 66.7197 4.22889 6.54817 0
M  V30 683 N 70.9488 -0.749086 1.3866 0
M  V30 684 C 72.1948 -1.51056 1.35314 0
M  V30 685 C 72.5278 -1.94121 -0.0553751 0
M  V30 686 O 71.8028 -1.65763 -1.01749 0
M  V30 687 C 72.0858 -2.76003 2.31288 0
M  V30 688 C 71.9388 -2.39047 3.8102 0
M  V30 689 C 73.2578 -3.78046 2.2532 0
M  V30 690 H 70.3768 -0.547972 0.492844 0
M  V30 691 H 73.0188 -0.857628 1.69543 0
M  V30 692 H 71.1688 -3.31716 2.02229 0
M  V30 693 H 72.8408 -1.89074 4.20771 0
M  V30 694 H 71.0838 -1.71449 3.98482 0
M  V30 695 H 71.7548 -3.28462 4.4364 0
M  V30 696 H 74.2308 -3.31884 2.50983 0
M  V30 697 H 73.1068 -4.63159 2.94576 0
M  V30 698 H 73.3678 -4.23957 1.25352 0
M  V30 699 N 72.4269 -1.23603 -0.977757 0
M  V30 700 C 73.6729 -1.07129 -1.72195 0
M  V30 701 C 74.0059 0.390501 -1.90233 0
M  V30 702 O 73.2809 1.28902 -1.45653 0
M  V30 703 C 73.5639 -1.80031 -3.11867 0
M  V30 704 C 73.4169 -3.33899 -3.01383 0
M  V30 705 C 74.7359 -1.56492 -4.11337 0
M  V30 706 H 71.8549 -0.390571 -0.624999 0
M  V30 707 H 74.4969 -1.52142 -1.13811 0
M  V30 708 H 72.6469 -1.41768 -3.6171 0
M  V30 709 H 74.3189 -3.81699 -2.59043 0
M  V30 710 H 72.5619 -3.62796 -2.37827 0
M  V30 711 H 73.2329 -3.801 -4.00285 0
M  V30 712 H 75.7089 -1.89757 -3.70313 0
M  V30 713 H 74.5849 -2.09973 -5.07151 0
M  V30 714 H 74.8459 -0.500874 -4.39254 0
M  V30 715 N 73.905 1.17692 -1.04816 0
M  V30 716 C 75.182 1.83768 -0.669963 0
M  V30 717 C 75.562 1.93232 0.849986 0
M  V30 718 O 74.91 1.46397 1.75443 0
M  V30 719 C 75.12 3.21641 -1.35455 0
M  V30 720 C 76.468 3.97592 -1.49017 0
M  V30 721 O 77.492 3.31107 -1.31326 0
M  V30 722 O 76.351 5.16729 -1.77914 0
M  V30 723 H 73.445 0.792799 -0.235368 0
M  V30 724 H 75.991 1.25021 -1.14751 0
M  V30 725 H 74.763 3.097 -2.39168 0
M  V30 726 H 74.386 3.88052 -0.866107 0
M  V30 727 N 75.3831 0.828654 1.34056 0
M  V30 728 C 76.3131 0.269443 2.3194 0
M  V30 729 C 77.2941 -0.617247 1.58506 0
M  V30 730 O 78.4791 -0.542931 1.86456 0
M  V30 731 C 75.6091 -0.564793 3.42677 0
M  V30 732 C 74.5631 0.225241 4.27407 0
M  V30 733 C 73.8891 -0.7321 5.29664 0
M  V30 734 C 75.1891 1.43663 5.02154 0
M  V30 735 H 76.8831 1.08728 2.7896 0
M  V30 736 H 74.4291 0.524283 1.34117 0
M  V30 737 H 76.3821 -0.966233 4.10173 0
M  V30 738 H 75.1061 -1.41574 2.9432 0
M  V30 739 H 73.7651 0.608117 3.61521 0
M  V30 740 H 73.4131 -1.57916 4.77568 0
M  V30 741 H 73.1131 -0.20767 5.87233 0
M  V30 742 H 74.6371 -1.13128 6.00029 0
M  V30 743 H 76.0511 1.1089 5.62473 0
M  V30 744 H 74.4481 1.89711 5.69324 0
M  V30 745 H 75.5181 2.21181 4.31517 0
M  V30 746 N 76.8612 -1.46375 0.584142 0
M  V30 747 C 77.7912 -2.33103 -0.136037 0
M  V30 748 C 78.7722 -1.45431 -0.882255 0
M  V30 749 O 79.9572 -1.74246 -0.857434 0
M  V30 750 C 77.0872 -3.27731 -1.14933 0
M  V30 751 C 76.0412 -4.24855 -0.517862 0
M  V30 752 C 75.3672 -5.09001 -1.63773 0
M  V30 753 C 76.6672 -5.19439 0.545886 0
M  V30 754 H 78.3612 -2.93568 0.588086 0
M  V30 755 H 75.9072 -1.41166 0.284259 0
M  V30 756 H 77.8602 -3.87261 -1.66153 0
M  V30 757 H 76.5842 -2.65377 -1.90375 0
M  V30 758 H 75.2432 -3.6659 -0.0267361 0
M  V30 759 H 74.8912 -4.43031 -2.38185 0
M  V30 760 H 74.5912 -5.74777 -1.22085 0
M  V30 761 H 76.1152 -5.71396 -2.15266 0
M  V30 762 H 77.5292 -5.73177 0.118704 0
M  V30 763 H 75.9262 -5.93566 0.88317 0
M  V30 764 H 76.9962 -4.63285 1.43162 0
M  V30 765 N 78.3393 -0.321999 -1.54275 0
M  V30 766 C 79.3023 0.531975 -2.22941 0
M  V30 767 C 80.3023 1.04478 -1.22234 0
M  V30 768 O 81.4923 0.937452 -1.46825 0
M  V30 769 C 78.6243 1.73874 -2.93224 0
M  V30 770 H 79.8173 -0.0682612 -2.99822 0
M  V30 771 H 77.3703 -0.0730644 -1.56129 0
M  V30 772 H 78.1053 2.37825 -2.20476 0
M  V30 773 H 77.8903 1.37847 -3.6707 0
M  V30 774 H 79.3803 2.34496 -3.45545 0
M  V30 775 N 79.8174 1.5752 -0.0501392 0
M  V30 776 C 81.0454 1.96963 0.633492 0
M  V30 777 C 81.4604 0.927631 1.6444 0
M  V30 778 O 80.8174 -0.0882665 1.82286 0
M  V30 779 C 80.8684 3.36487 1.32132 0
M  V30 780 O 80.5894 4.36693 0.350894 0
M  V30 781 C 82.0904 3.90682 2.09481 0
M  V30 782 H 79.3104 0.648244 0.173266 0
M  V30 783 H 81.8544 2.0417 -0.116134 0
M  V30 784 H 80.0094 3.30434 2.02218 0
M  V30 785 H 80.4234 5.17702 0.841735 0
M  V30 786 H 81.8974 4.90591 2.5303 0
M  V30 787 H 82.3744 3.26053 2.94255 0
M  V30 788 H 82.9804 4.00069 1.44307 0
M  V30 789 N 81.2955 -0.223234 1.56011 0
M  V30 790 C 82.5725 -0.972108 1.69733 0
M  V30 791 C 82.9525 -2.02485 0.59691 0
M  V30 792 O 82.3005 -2.25037 -0.396324 0
M  V30 793 C 82.5105 -1.58407 3.10979 0
M  V30 794 C 83.8585 -2.07696 3.70334 0
M  V30 795 O 84.8825 -1.68304 3.1393 0
M  V30 796 O 83.7415 -2.80096 4.69264 0
M  V30 797 H 80.8355 -0.453993 0.691245 0
M  V30 798 H 83.3815 -0.215149 1.68331 0
M  V30 799 H 82.1535 -0.823831 3.82529 0
M  V30 800 H 81.7765 -2.40661 3.16493 0
M  V30 801 N 82.7736 -1.49793 -0.48987 0
M  V30 802 C 83.7366 -1.66752 -1.57246 0
M  V30 803 C 84.7366 -0.538867 -1.51502 0
M  V30 804 O 85.9266 -0.805545 -1.54456 0
M  V30 805 C 83.0586 -1.67528 -2.96896 0
M  V30 806 H 84.2516 -2.63321 -1.43534 0
M  V30 807 H 81.8046 -1.38992 -0.714914 0
M  V30 808 H 82.5396 -0.725837 -3.16073 0
M  V30 809 H 82.3246 -2.49504 -3.02473 0
M  V30 810 H 83.8146 -1.82667 -3.7553 0
M  V30 811 N 84.2517 0.741722 -1.39055 0
M  V30 812 C 85.5287 1.49252 -1.26425 0
M  V30 813 C 85.9087 2.10705 0.129144 0
M  V30 814 O 85.2567 1.98045 1.13976 0
M  V30 815 C 85.4667 2.54934 -2.38347 0
M  V30 816 C 86.8147 3.21506 -2.77343 0
M  V30 817 O 87.8387 2.65245 -2.37747 0
M  V30 818 O 86.6977 4.23294 -3.45665 0
M  V30 819 H 83.7917 0.662451 -0.495064 0
M  V30 820 H 86.3377 0.776121 -1.50912 0
M  V30 821 H 85.1097 2.07857 -3.31529 0
M  V30 822 H 84.7327 3.34141 -2.15489 0
M  V30 823 N 85.7298 1.2412 0.971189 0
M  V30 824 C 86.9788 1.07284 1.70801 0
M  V30 825 C 87.2918 -0.388902 1.91695 0
M  V30 826 O 88.4978 -0.677379 2.62914 0
M  V30 827 C 86.9538 1.87145 3.07416 0
M  V30 828 C 86.5618 3.37707 2.94377 0
M  V30 829 C 88.3058 1.78828 3.84995 0
M  V30 830 C 86.2128 4.09925 4.26281 0
M  V30 831 H 85.1428 0.397854 0.64049 0
M  V30 832 H 87.7938 1.4817 1.0825 0
M  V30 833 H 86.1758 1.39071 3.70777 0
M  V30 834 H 87.3498 3.93335 2.4005 0
M  V30 835 H 85.6648 3.46938 2.30267 0
M  V30 836 H 88.2618 2.30089 4.82662 0
M  V30 837 H 88.6048 0.75284 4.09436 0
M  V30 838 H 89.1378 2.24563 3.28354 0
M  V30 839 H 85.8768 5.13813 4.07033 0
M  V30 840 H 85.3968 3.59083 4.80437 0
M  V30 841 H 87.0758 4.1673 4.94919 0
M  V30 842 N 87.2079 -1.17134 1.05439 0
M  V30 843 C 88.4569 -1.86791 0.761049 0
M  V30 844 C 88.7699 -1.82072 -0.714795 0
M  V30 845 O 89.9759 -2.47223 -1.12218 0
M  V30 846 C 88.4319 -3.35166 1.31117 0
M  V30 847 C 88.0399 -3.48381 2.81664 0
M  V30 848 C 89.7839 -4.10134 1.09499 0
M  V30 849 C 87.6909 -4.90793 3.29964 0
M  V30 850 H 86.6209 -0.699681 0.281002 0
M  V30 851 H 89.2719 -1.3226 1.27199 0
M  V30 852 H 87.6539 -3.8925 0.72803 0
M  V30 853 H 88.8279 -3.04502 3.45855 0
M  V30 854 H 87.1429 -2.86836 3.01851 0
M  V30 855 H 89.7399 -5.152 1.43084 0
M  V30 856 H 90.0829 -4.16287 0.0328772 0
M  V30 857 H 90.6159 -3.62264 1.64346 0
M  V30 858 H 87.3549 -4.89816 4.35616 0
M  V30 859 H 86.8749 -5.35333 2.70516 0
M  V30 860 H 88.5539 -5.59573 3.24787 0
M  V30 861 N 88.686 -0.835752 -1.33615 0
M  V30 862 C 89.911 -0.442389 -2.02627 0
M  V30 863 C 90.336 0.947735 -1.62479 0
M  V30 864 O 89.694 1.61907 -0.815826 0
M  V30 865 C 89.742 -0.567216 -3.56111 0
M  V30 866 O 88.846 0.407799 -4.10379 0
M  V30 867 H 88.187 -0.180278 -0.639059 0
M  V30 868 H 90.717 -1.12972 -1.70583 0
M  V30 869 H 90.727 -0.447708 -4.05536 0
M  V30 870 H 89.402 -1.58103 -3.84677 0
M  V30 871 H 87.979 0.246107 -3.72087 0
M  V30 872 N 90.1641 1.46063 -0.591896 0
M  V30 873 C 91.5801 1.57561 -0.254288 0
M  V30 874 C 91.7801 1.58565 1.24336 0
M  V30 875 O 90.8361 1.50753 2.02558 0
M  V30 876 C 92.1491 2.86549 -0.911611 0
M  V30 877 C 93.6971 3.00197 -0.886059 0
M  V30 878 C 94.1721 4.31933 -1.5231 0
M  V30 879 N 95.6631 4.38654 -1.48786 0
M  V30 880 C 96.3981 5.39222 -1.95006 0
M  V30 881 N 95.8941 6.46414 -2.49241 0
M  V30 882 N 97.6871 5.3048 -1.85868 0
M  V30 883 H 89.8381 1.43655 -1.56451 0
M  V30 884 H 92.1011 0.68583 -0.654478 0
M  V30 885 H 91.8071 2.91651 -1.96551 0
M  V30 886 H 91.6811 3.74794 -0.425368 0
M  V30 887 H 94.0681 2.9467 0.159246 0
M  V30 888 H 94.1491 2.13403 -1.41041 0
M  V30 889 H 93.7931 4.38217 -2.56765 0
M  V30 890 H 93.7231 5.17516 -0.973891 0
M  V30 891 H 96.2141 3.61793 -1.09151 0
M  V30 892 H 96.5271 7.19376 -2.82344 0
M  V30 893 H 94.8721 6.47208 -2.53272 0
M  V30 894 H 98.0631 4.45643 -1.43248 0
M  V30 895 H 98.2361 6.08711 -2.22204 0
M  V30 896 N 91.6422 0.330177 1.54103 0
M  V30 897 C 92.8822 -0.270916 2.02597 0
M  V30 898 C 93.2462 -1.48826 1.21304 0
M  V30 899 O 94.4472 -2.16266 1.59633 0
M  V30 900 C 92.7182 -0.590328 3.52491 0
M  V30 901 S 94.2772 -1.17014 4.2291 0
M  V30 902 H 91.0952 -0.0815379 0.706309 0
M  V30 903 H 93.6972 0.464835 1.89893 0
M  V30 904 H 92.4012 0.303691 4.09275 0
M  V30 905 H 91.9322 -1.3561 3.69288 0
M  V30 906 H 93.9472 -2.45662 4.3112 0
M  V30 907 N 93.1203 -1.57491 0.0584922 0
M  V30 908 C 94.0523 -2.08916 -0.942694 0
M  V30 909 C 95.0653 -1.0185 -1.27006 0
M  V30 910 O 96.2543 -1.29398 -1.22957 0
M  V30 911 C 93.3543 -2.52341 -2.26224 0
M  V30 912 C 92.5273 -3.82827 -2.1157 0
M  V30 913 C 91.5863 -4.12487 -3.26712 0
M  V30 914 O 90.6123 -4.82295 -3.02292 0
M  V30 915 N 91.8143 -3.64978 -4.5141 0
M  V30 916 H 94.5793 -2.95437 -0.503722 0
M  V30 917 H 92.1403 -1.61397 -0.12757 0
M  V30 918 H 94.1323 -2.69254 -3.02133 0
M  V30 919 H 92.7023 -1.7103 -2.61663 0
M  V30 920 H 91.9223 -3.75425 -1.20208 0
M  V30 921 H 93.2103 -4.68263 -1.99015 0
M  V30 922 H 92.6083 -3.08558 -4.7414 0
M  V30 923 H 91.1653 -3.87115 -5.2439 0
M  V30 924 N 94.5984 0.214957 -1.56127 0
M  V30 925 C 95.8464 0.936518 -1.79091 0
M  V30 926 C 96.1674 1.84606 -0.628148 0
M  V30 927 O 95.4374 1.92664 0.35462 0
M  V30 928 H 94.0174 0.3488 -0.660566 0
M  V30 929 H 96.6794 0.22523 -1.93594 0
M  V30 930 H 95.7754 1.53943 -2.71492 0
M  V30 931 N 96.0765 1.50051 0.48192 0
M  V30 932 C 97.3245 1.60181 1.23234 0
M  V30 933 C 97.6455 0.299176 1.92691 0
M  V30 934 O 96.9155 -0.682708 1.83619 0
M  V30 935 H 95.4955 0.590232 0.457859 0
M  V30 936 H 98.1575 1.86775 0.556881 0
M  V30 937 H 97.2535 2.40753 1.98607 0
M  V30 938 N 97.5546 -0.734337 1.39446 0
M  V30 939 C 98.5026 -1.86971 1.38364 0
M  V30 940 C 99.4966 -1.67288 0.266687 0
M  V30 941 O 100.703 -1.74621 0.436755 0
M  V30 942 H 97.0776 -0.615474 0.432082 0
M  V30 943 H 99.0486 -1.85 2.34132 0
M  V30 944 C 97.7976 -3.2466 1.24465 0
M  V30 945 H 97.1206 -3.40402 2.09682 0
M  V30 946 H 98.5606 -4.04292 1.27764 0
M  V30 947 C 97.0196 -3.36867 -0.0468674 0
M  V30 948 O 97.5496 -3.88618 -1.01681 0
M  V30 949 N 95.7556 -2.90391 -0.110145 0
M  V30 950 H 95.3026 -2.48466 0.679868 0
M  V30 951 H 95.2606 -2.98939 -0.973799 0
M  V30 952 N 99.0327 -1.24633 -0.964593 0
M  V30 953 C 99.9807 -1.03917 -2.08096 0
M  V30 954 C 100.975 0.0268581 -1.69379 0
M  V30 955 O 102.181 -0.127952 -1.79545 0
M  V30 956 H 98.5557 -0.319044 -0.680966 0
M  V30 957 H 100.527 -1.98581 -2.22729 0
M  V30 958 C 99.2757 -0.663983 -3.41301 0
M  V30 959 H 98.5987 -1.47605 -3.71555 0
M  V30 960 H 100.039 -0.558663 -4.20303 0
M  V30 961 C 98.4977 0.629169 -3.30973 0
M  V30 962 O 99.0277 1.67404 -3.65156 0
M  V30 963 N 97.2337 0.611057 -2.84103 0
M  V30 964 H 96.7807 -0.239593 -2.56483 0
M  V30 965 H 96.7387 1.47647 -2.77575 0
M  V30 966 N 100.511 1.16574 -1.06058 0
M  V30 967 C 101.474 2.19085 -0.673392 0
M  V30 968 C 102.474 1.5835 0.279648 0
M  V30 969 O 103.664 1.74088 0.0623488 0
M  V30 970 C 100.796 3.40899 0.00954234 0
M  V30 971 H 101.989 2.54853 -1.58081 0
M  V30 972 H 99.5418 1.30808 -0.855516 0
M  V30 973 H 100.277 3.10684 0.929826 0
M  V30 974 H 100.062 3.86233 -0.67573 0
M  V30 975 H 101.552 4.1675 0.266245 0
M  V30 976 N 101.989 0.842826 1.3317 0
M  V30 977 C 103.237 0.439577 1.97262 0
M  V30 978 C 103.558 -1.00548 1.67078 0
M  V30 979 O 102.828 -1.70098 0.971779 0
M  V30 980 H 101.408 0.159558 0.72976 0
M  V30 981 H 104.07 1.07665 1.62463 0
M  V30 982 H 103.166 0.574886 3.0676 0
M  V30 983 N 103.467 -1.45747 0.599634 0
M  V30 984 C 104.417 -2.27538 -0.145107 0
M  V30 985 C 105.401 -1.3686 -0.846055 0
M  V30 986 O 106.593 -1.6091 -0.737357 0
M  V30 987 C 103.722 -3.23569 -1.14708 0
M  V30 988 C 102.808 -4.21734 -0.447383 0
M  V30 989 N 103.199 -5.03257 0.506535 0
M  V30 990 C 101.497 -4.40536 -0.695966 0
M  V30 991 C 102.198 -5.74426 0.917068 0
M  V30 992 N 101.174 -5.42966 0.26253 0
M  V30 993 H 104.976 -2.87965 0.587672 0
M  V30 994 H 102.49 -1.56803 0.422697 0
M  V30 995 H 104.487 -3.8089 -1.69495 0
M  V30 996 H 103.147 -2.64702 -1.8805 0
M  V30 997 H 104.158 -5.10319 0.882899 0
M  V30 998 H 100.835 -3.92802 -1.41467 0
M  V30 999 H 102.225 -6.4995 1.70338 0
M  V30 1000 N 104.945 -0.338344 -1.53925 0
M  V30 1001 C 106.173 0.261298 -2.05243 0
M  V30 1002 C 106.588 1.44625 -1.21363 0
M  V30 1003 O 105.945 1.80811 -0.247736 0
M  V30 1004 C 105.996 0.681412 -3.5502 0
M  V30 1005 O 105.717 -0.456414 -4.35716 0
M  V30 1006 C 107.218 1.34232 -4.22489 0
M  V30 1007 H 104.438 0.0513685 -0.669031 0
M  V30 1008 H 106.982 -0.488822 -1.98572 0
M  V30 1009 H 105.137 1.38148 -3.61931 0
M  V30 1010 H 105.551 -0.122564 -5.24357 0
M  V30 1011 H 107.025 1.58708 -5.28693 0
M  V30 1012 H 107.502 2.29426 -3.74514 0
M  V30 1013 H 108.108 0.684424 -4.19757 0
M  V30 1014 N 106.423 1.57458 -0.0668435 0
M  V30 1015 C 107.669 1.93587 0.6043 0
M  V30 1016 C 108.002 0.946722 1.69561 0
M  V30 1017 O 107.277 -0.0248516 1.94484 0
M  V30 1018 C 107.56 3.40014 1.18585 0
M  V30 1019 C 107.413 4.49685 0.101529 0
M  V30 1020 C 108.732 3.87154 2.09284 0
M  V30 1021 H 105.851 0.703958 0.218202 0
M  V30 1022 H 108.493 1.89542 -0.131804 0
M  V30 1023 H 106.643 3.43592 1.81319 0
M  V30 1024 H 108.315 4.5823 -0.531279 0
M  V30 1025 H 106.558 4.30059 -0.568487 0
M  V30 1026 H 107.229 5.49266 0.54874 0
M  V30 1027 H 109.705 3.85551 1.56491 0
M  V30 1028 H 108.581 4.90231 2.46911 0
M  V30 1029 H 108.842 3.2481 2.99918 0
M  V30 1030 N 107.901 -0.206675 1.56239 0
M  V30 1031 C 109.147 -0.930218 1.80208 0
M  V30 1032 C 109.48 -1.83387 0.638981 0
M  V30 1033 O 108.755 -1.91119 -0.361066 0
M  V30 1034 C 109.038 -1.75641 3.1436 0
M  V30 1035 C 108.891 -0.878257 4.41142 0
M  V30 1036 C 110.21 -2.73129 3.45092 0
M  V30 1037 H 107.329 -0.336742 0.655571 0
M  V30 1038 H 109.971 -0.198222 1.88963 0
M  V30 1039 H 108.121 -2.38048 3.07027 0
M  V30 1040 H 109.793 -0.269787 4.6051 0
M  V30 1041 H 108.036 -0.184385 4.33408 0
M  V30 1042 H 108.707 -1.49106 5.3148 0
M  V30 1043 H 111.183 -2.20856 3.52649 0
M  V30 1044 H 110.059 -3.28028 4.40101 0
M  V30 1045 H 110.32 -3.51606 2.68003 0
M  V30 1046 N 109.379 -1.50304 -0.473955 0
M  V30 1047 C 110.625 -1.61389 -1.22806 0
M  V30 1048 C 110.958 -0.311955 -1.91678 0
M  V30 1049 O 110.233 0.686384 -1.81986 0
M  V30 1050 C 110.516 -2.79219 -2.27396 0
M  V30 1051 C 110.369 -4.19286 -1.62848 0
M  V30 1052 C 111.688 -2.92614 -3.28732 0
M  V30 1053 H 108.807 -0.587399 -0.445119 0
M  V30 1054 H 111.449 -1.82681 -0.522265 0
M  V30 1055 H 109.599 -2.61195 -2.87592 0
M  V30 1056 H 111.271 -4.48892 -1.06271 0
M  V30 1057 H 109.514 -4.23677 -0.931693 0
M  V30 1058 H 110.185 -4.97655 -2.38838 0
M  V30 1059 H 112.661 -3.09105 -2.78556 0
M  V30 1060 H 111.537 -3.76688 -3.99246 0
M  V30 1061 H 111.798 -2.03107 -3.92683 0
M  V30 1062 N 110.857 0.726932 -1.39834 0
M  V30 1063 C 112.134 1.47902 -1.28001 0
M  V30 1064 C 112.514 2.1083 0.106789 0
M  V30 1065 O 111.862 1.99242 1.11869 0
M  V30 1066 C 112.072 2.52392 -2.41038 0
M  V30 1067 C 113.42 3.18546 -2.80737 0
M  V30 1068 O 114.444 2.62708 -2.40547 0
M  V30 1069 O 113.303 4.19604 -3.50135 0
M  V30 1070 H 110.397 0.657163 -0.502062 0
M  V30 1071 H 112.943 0.760071 -1.51727 0
M  V30 1072 H 111.715 2.04329 -3.33715 0
M  V30 1073 H 111.338 3.31837 -2.19021 0
M  V30 1074 N 112.336 1.25143 0.95797 0
M  V30 1075 C 113.584 1.09476 1.69881 0
M  V30 1076 C 113.905 -0.365502 1.91544 0
M  V30 1077 O 113.175 -1.25985 1.50015 0
M  V30 1078 H 111.755 0.402128 0.629525 0
M  V30 1079 H 114.417 1.57214 1.15194 0
M  V30 1080 H 113.513 1.60046 2.6794 0
M  V30 1081 N 113.814 -1.1601 1.06675 0
M  V30 1082 C 114.761 -2.20525 0.680967 0
M  V30 1083 C 115.731 -1.62904 -0.324283 0
M  V30 1084 O 116.916 -1.89615 -0.212294 0
M  V30 1085 C 114.056 -3.45013 0.0776551 0
M  V30 1086 C 113.169 -4.16863 1.13355 0
M  V30 1087 C 112.304 -5.2888 0.49597 0
M  V30 1088 C 111.343 -5.92537 1.53513 0
M  V30 1089 N 110.48 -6.96038 0.920631 0
M  V30 1090 H 115.32 -2.52876 1.57663 0
M  V30 1091 H 112.857 -1.24199 0.788223 0
M  V30 1092 H 114.815 -4.16193 -0.289704 0
M  V30 1093 H 113.445 -3.132 -0.781393 0
M  V30 1094 H 112.497 -3.44248 1.61857 0
M  V30 1095 H 113.809 -4.60294 1.92174 0
M  V30 1096 H 112.963 -6.06653 0.0758604 0
M  V30 1097 H 111.702 -4.86622 -0.324062 0
M  V30 1098 H 110.707 -5.13482 1.9651 0
M  V30 1099 H 111.932 -6.36873 2.35733 0
M  V30 1100 H 109.878 -6.55888 0.12138 0
M  V30 1101 H 109.795 -7.3786 1.64616 0
M  V30 1102 H 111.063 -7.77725 0.525795 0
M  V30 1103 N 115.292 -0.849877 -1.32721 0
M  V30 1104 C 116.202 -0.293791 -2.32753 0
M  V30 1105 C 117.218 0.585906 -1.63839 0
M  V30 1106 O 118.394 0.487413 -1.95413 0
M  V30 1107 C 115.459 0.512752 -3.42887 0
M  V30 1108 C 114.52 -0.39252 -4.27502 0
M  V30 1109 C 113.753 0.375625 -5.32377 0
M  V30 1110 O 113.976 1.60613 -5.4732 0
M  V30 1111 O 112.91 -0.256094 -6.01355 0
M  V30 1112 H 116.736 -1.12242 -2.82197 0
M  V30 1113 H 114.321 -0.612685 -1.36259 0
M  V30 1114 H 116.203 0.970704 -4.10067 0
M  V30 1115 H 114.878 1.31826 -2.95641 0
M  V30 1116 H 113.785 -0.898547 -3.63149 0
M  V30 1117 H 115.118 -1.16309 -4.7826 0
M  V30 1118 N 116.77 1.45427 -0.607355 0
M  V30 1119 C 118 2.06314 -0.108656 0
M  V30 1120 C 118.408 1.45269 1.21217 0
M  V30 1121 O 117.751 0.561115 1.74921 0
M  V30 1122 C 117.813 3.59345 0.105618 0
M  V30 1123 C 117.477 4.42723 -1.13337 0
M  V30 1124 C 118.474 4.77715 -2.05145 0
M  V30 1125 C 116.159 4.83478 -1.36213 0
M  V30 1126 C 118.153 5.52317 -3.18158 0
M  V30 1127 C 115.84 5.57835 -2.49527 0
M  V30 1128 C 116.838 5.92171 -3.40327 0
M  V30 1129 O 116.526 6.65019 -4.51669 0
M  V30 1130 H 116.258 0.672782 -0.0658842 0
M  V30 1131 H 118.812 1.87664 -0.834945 0
M  V30 1132 H 117.042 3.76394 0.886796 0
M  V30 1133 H 118.731 4.02076 0.555886 0
M  V30 1134 H 119.497 4.46787 -1.88697 0
M  V30 1135 H 115.376 4.56188 -0.664362 0
M  V30 1136 H 118.92 5.79036 -3.89054 0
M  V30 1137 H 114.817 5.88177 -2.65928 0
M  V30 1138 H 115.585 6.83469 -4.50348 0
M  V30 1139 N 118.248 0.346503 1.53744 0
M  V30 1140 C 119.525 -0.304532 1.93215 0
M  V30 1141 C 119.905 -1.67993 1.27834 0
M  V30 1142 O 119.253 -2.24411 0.430352 0
M  V30 1143 C 119.463 -0.373852 3.46992 0
M  V30 1144 C 120.811 -0.62329 4.2 0
M  V30 1145 O 121.835 -0.455847 3.53271 0
M  V30 1146 O 120.694 -0.947879 5.38217 0
M  V30 1147 H 117.788 -0.178318 0.807547 0
M  V30 1148 H 120.334 0.397895 1.64969 0
M  V30 1149 H 119.106 0.591224 3.86808 0
M  V30 1150 H 118.729 -1.12294 3.81413 0
M  V30 1151 N 119.726 -1.57421 0.075193 0
M  V30 1152 C 120.973 -1.93618 -0.593146 0
M  V30 1153 C 121.301 -0.955484 -1.69413 0
M  V30 1154 O 120.556 0.0283251 -1.9568 0
M  V30 1155 C 120.855 -3.36428 -1.20626 0
M  V30 1156 C 120.521 -4.50307 -0.231078 0
M  V30 1157 C 119.183 -4.81186 0.0371936 0
M  V30 1158 C 121.535 -5.19374 0.435888 0
M  V30 1159 C 118.863 -5.78466 0.979461 0
M  V30 1160 C 121.215 -6.17665 1.3665 0
M  V30 1161 C 119.879 -6.46958 1.6432 0
M  V30 1162 H 119.149 -0.708499 -0.217047 0
M  V30 1163 H 121.796 -1.90937 0.146793 0
M  V30 1164 H 120.101 -3.35592 -2.02201 0
M  V30 1165 H 121.798 -3.61727 -1.73073 0
M  V30 1166 H 118.388 -4.26227 -0.450357 0
M  V30 1167 H 122.572 -4.95711 0.241748 0
M  V30 1168 H 117.828 -5.99487 1.20106 0
M  V30 1169 H 122.002 -6.70284 1.88924 0
M  V30 1170 H 119.629 -7.2215 2.37494 0
M  V30 1171 N 121.204 0.198386 -1.56346 0
M  V30 1172 C 122.154 1.2499 -1.90687 0
M  V30 1173 C 123.138 1.41158 -0.772217 0
M  V30 1174 O 124.33 1.43584 -1.03502 0
M  V30 1175 C 121.459 2.59542 -2.24706 0
M  V30 1176 C 120.545 2.47181 -3.44619 0
M  V30 1177 N 120.936 2.04495 -4.62618 0
M  V30 1178 C 119.234 2.78082 -3.48692 0
M  V30 1179 C 119.935 2.03945 -5.44776 0
M  V30 1180 N 118.911 2.45323 -4.85095 0
M  V30 1181 H 122.713 0.911149 -2.7942 0
M  V30 1182 H 120.227 0.40684 -1.57221 0
M  V30 1183 H 122.224 3.3549 -2.47491 0
M  V30 1184 H 120.884 2.94244 -1.37298 0
M  V30 1185 H 121.895 1.75256 -4.87345 0
M  V30 1186 H 118.572 3.17002 -2.71691 0
M  V30 1187 H 119.962 1.72872 -6.4928 0
M  V30 1188 N 122.682 1.50554 0.465978 0
M  V30 1189 C 123.612 1.72722 1.57128 0
M  V30 1190 C 124.593 0.576294 1.6004 0
M  V30 1191 O 125.778 0.81598 1.76225 0
M  V30 1192 C 122.908 1.82605 2.95419 0
M  V30 1193 C 121.862 2.97835 3.07373 0
M  V30 1194 C 121.188 2.92867 4.47363 0
M  V30 1195 C 122.488 4.38265 2.84114 0
M  V30 1196 H 124.182 2.65267 1.38829 0
M  V30 1197 H 121.728 1.2765 0.666441 0
M  V30 1198 H 123.681 1.96698 3.72677 0
M  V30 1199 H 122.405 0.866858 3.14886 0
M  V30 1200 H 121.064 2.83401 2.3255 0
M  V30 1201 H 120.712 1.94783 4.63755 0
M  V30 1202 H 120.412 3.70227 4.56296 0
M  V30 1203 H 121.936 3.09015 5.26633 0
M  V30 1204 H 123.35 4.53198 3.51118 0
M  V30 1205 H 121.747 5.17115 3.04487 0
M  V30 1206 H 122.817 4.50281 1.7993 0
M  V30 1207 N 124.16 -0.719506 1.40217 0
M  V30 1208 C 125.09 -1.8465 1.42922 0
M  V30 1209 C 126.071 -1.67599 0.29062 0
M  V30 1210 O 127.256 -1.87688 0.498677 0
M  V30 1211 C 124.386 -3.22565 1.28722 0
M  V30 1212 C 123.34 -3.54281 2.40144 0
M  V30 1213 C 122.666 -4.91298 2.11023 0
M  V30 1214 C 123.966 -3.55676 3.82481 0
M  V30 1215 H 125.66 -1.82644 2.37237 0
M  V30 1216 H 123.206 -0.877305 1.1419 0
M  V30 1217 H 125.159 -4.01095 1.29232 0
M  V30 1218 H 123.883 -3.25137 0.308811 0
M  V30 1219 H 122.542 -2.78088 2.38877 0
M  V30 1220 H 122.19 -4.90468 1.11582 0
M  V30 1221 H 121.89 -5.13485 2.8567 0
M  V30 1222 H 123.414 -5.72166 2.13209 0
M  V30 1223 H 124.828 -4.24254 3.85592 0
M  V30 1224 H 123.225 -3.89388 4.56614 0
M  V30 1225 H 124.295 -2.55144 4.12346 0
M  V30 1226 N 125.638 -1.25649 -0.95132 0
M  V30 1227 C 127.049 -1.09654 -1.51106 0
M  V30 1228 C 127.4 0.326615 -1.93462 0
M  V30 1229 O 126.525 1.21697 -1.78938 0
M  V30 1230 C 127.12 -1.98437 -2.74605 0
M  V30 1231 C 125.679 -1.86618 -3.2688 0
M  V30 1232 C 124.826 -1.9239 -1.99703 0
M  V30 1233 H 127.777 -1.38887 -0.767865 0
M  V30 1234 H 127.798 -1.5263 -3.48546 0
M  V30 1235 H 127.31 -3.02009 -2.43746 0
M  V30 1236 H 125.411 -0.859421 -3.62553 0
M  V30 1237 H 125.524 -2.71607 -3.94673 0
M  V30 1238 H 123.888 -1.36317 -2.15151 0
M  V30 1239 H 124.671 -2.97573 -1.71188 0
M  V30 1240 N 127.117 1.15442 -1.07289 0
M  V30 1241 C 128.342 1.90638 -0.816828 0
M  V30 1242 C 128.767 1.77445 0.624083 0
M  V30 1243 O 128.125 1.10671 1.43602 0
M  V30 1244 C 128.173 3.39008 -1.22906 0
M  V30 1245 O 127.277 4.10701 -0.373975 0
M  V30 1246 H 126.618 0.593555 -0.297638 0
M  V30 1247 H 129.148 1.46198 -1.43134 0
M  V30 1248 H 129.158 3.89801 -1.20497 0
M  V30 1249 H 127.833 3.47929 -2.27856 0
M  V30 1250 H 126.41 3.70046 -0.460499 0
M  V30 1251 N 128.595 0.856903 1.32268 0
M  V30 1252 C 129.843 0.460474 1.96784 0
M  V30 1253 C 130.164 -0.987701 1.68135 0
M  V30 1254 O 129.434 -1.69058 0.989765 0
M  V30 1255 H 128.014 0.167289 0.728027 0
M  V30 1256 H 130.676 1.09383 1.61312 0
M  V30 1257 H 129.772 0.60739 3.06133 0
M  V30 1258 N 130.073 -1.45103 0.615059 0
M  V30 1259 C 131.322 -2.01396 0.110718 0
M  V30 1260 C 131.635 -1.48834 -1.26916 0
M  V30 1261 O 132.841 -1.97152 -1.86664 0
M  V30 1262 C 131.297 -3.59599 0.14723 0
M  V30 1263 C 130.905 -4.21158 1.52743 0
M  V30 1264 C 132.649 -4.23428 -0.30148 0
M  V30 1265 C 130.556 -5.71535 1.51992 0
M  V30 1266 H 129.486 -0.753061 0.0376241 0
M  V30 1267 H 132.137 -1.66494 0.77149 0
M  V30 1268 H 130.519 -3.91724 -0.580339 0
M  V30 1269 H 131.693 -4.00594 2.2773 0
M  V30 1270 H 130.008 -3.69552 1.91886 0
M  V30 1271 H 132.605 -5.33703 -0.326392 0
M  V30 1272 H 132.948 -3.94629 -1.32565 0
M  V30 1273 H 133.481 -3.96047 0.373065 0
M  V30 1274 H 130.22 -6.05044 2.52193 0
M  V30 1275 H 129.74 -5.94268 0.81274 0
M  V30 1276 H 131.419 -6.34873 1.24681 0
M  V30 1277 N 131.551 -0.354651 -1.53558 0
M  V30 1278 C 132.8 0.239504 -2.00273 0
M  V30 1279 C 133.113 1.50759 -1.24623 0
M  V30 1280 O 134.319 2.17968 -1.61871 0
M  V30 1281 C 132.775 0.477341 -3.5672 0
M  V30 1282 C 132.383 -0.775488 -4.41237 0
M  V30 1283 C 134.127 1.02975 -4.11821 0
M  V30 1284 C 132.034 -0.507838 -5.89216 0
M  V30 1285 H 130.964 0.0932743 -0.748208 0
M  V30 1286 H 133.615 -0.471701 -1.77334 0
M  V30 1287 H 131.997 1.24953 -3.7577 0
M  V30 1288 H 133.171 -1.54963 -4.33962 0
M  V30 1289 H 131.486 -1.25033 -3.97185 0
M  V30 1290 H 134.083 1.24513 -5.2 0
M  V30 1291 H 134.426 1.98862 -3.65731 0
M  V30 1292 H 134.959 0.317994 -3.96527 0
M  V30 1293 H 131.698 -1.43674 -6.39561 0
M  V30 1294 H 131.218 0.228011 -5.99366 0
M  V30 1295 H 132.897 -0.129238 -6.46871 0
M  V30 1296 N 133.029 1.57378 -0.0835403 0
M  V30 1297 C 133.977 2.14602 0.89714 0
M  V30 1298 C 134.971 1.08589 1.30018 0
M  V30 1299 O 136.177 1.26952 1.27606 0
M  V30 1300 H 132.552 0.686346 0.3073 0
M  V30 1301 H 134.523 2.95845 0.38969 0
M  V30 1302 C 133.272 2.73188 2.15089 0
M  V30 1303 H 132.595 3.54442 1.84962 0
M  V30 1304 H 134.035 3.1681 2.81793 0
M  V30 1305 C 132.494 1.68517 2.91725 0
M  V30 1306 O 133.024 1.11718 3.85852 0
M  V30 1307 N 131.23 1.39277 2.55049 0
M  V30 1308 H 130.777 1.85655 1.78577 0
M  V30 1309 H 130.735 0.694791 3.06627 0
M  V30 1310 N 134.507 -0.190092 1.56449 0
M  V30 1311 C 135.735 -0.925772 1.85033 0
M  V30 1312 C 136.15 -1.76638 0.666658 0
M  V30 1313 O 135.507 -1.78822 -0.364565 0
M  V30 1314 C 135.558 -1.81786 3.12468 0
M  V30 1315 O 135.279 -1.01118 4.26271 0
M  V30 1316 C 136.78 -2.6648 3.54265 0
M  V30 1317 H 134 -0.269872 0.614337 0
M  V30 1318 H 136.544 -0.195837 2.0356 0
M  V30 1319 H 134.699 -2.50136 2.95822 0
M  V30 1320 H 135.113 -1.61956 4.98869 0
M  V30 1321 H 136.587 -3.24722 4.46385 0
M  V30 1322 H 137.064 -3.40434 2.77491 0
M  V30 1323 H 137.67 -2.03493 3.73458 0
M  V30 1324 N 135.985 -1.50799 -0.457987 0
M  V30 1325 C 136.932 -1.70617 -1.5543 0
M  V30 1326 C 137.902 -0.547562 -1.56815 0
M  V30 1327 O 139.087 -0.779647 -1.74144 0
M  V30 1328 C 136.227 -1.81831 -2.93311 0
M  V30 1329 C 135.34 -3.09278 -3.01615 0
M  V30 1330 C 134.475 -3.11209 -4.30491 0
M  V30 1331 C 133.514 -4.33055 -4.32585 0
M  V30 1332 N 132.651 -4.32652 -5.52952 0
M  V30 1333 H 137.491 -2.64207 -1.37836 0
M  V30 1334 H 135.028 -1.30959 -0.669937 0
M  V30 1335 H 136.986 -1.86314 -3.73287 0
M  V30 1336 H 135.616 -0.916685 -3.0951 0
M  V30 1337 H 134.668 -3.14203 -2.1443 0
M  V30 1338 H 135.98 -3.99233 -2.99022 0
M  V30 1339 H 135.134 -3.14494 -5.18824 0
M  V30 1340 H 133.873 -2.19106 -4.35711 0
M  V30 1341 H 132.878 -4.29969 -3.42647 0
M  V30 1342 H 134.103 -5.264 -4.29046 0
M  V30 1343 H 132.049 -3.43409 -5.58933 0
M  V30 1344 H 131.966 -5.16392 -5.52155 0
M  V30 1345 H 133.234 -4.40101 -6.43375 0
M  V30 1346 N 137.463 0.71206 -1.40597 0
M  V30 1347 C 138.426 1.80785 -1.40888 0
M  V30 1348 C 139.426 1.57937 -0.302103 0
M  V30 1349 O 140.616 1.64913 -0.561182 0
M  V30 1350 C 137.748 3.18927 -1.20409 0
M  V30 1351 H 138.941 1.81924 -2.38419 0
M  V30 1352 H 136.494 0.91805 -1.26497 0
M  V30 1353 H 137.229 3.23436 -0.236522 0
M  V30 1354 H 137.014 3.36911 -2.00582 0
M  V30 1355 H 138.504 3.98949 -1.23408 0
M  V30 1356 N 138.941 1.26152 0.944643 0
M  V30 1357 C 140.187 1.11657 1.69294 0
M  V30 1358 C 140.52 -0.339926 1.91202 0
M  V30 1359 O 139.795 -1.24994 1.49019 0
M  V30 1360 C 140.078 1.88236 3.06984 0
M  V30 1361 C 139.931 3.41772 2.92424 0
M  V30 1362 C 141.25 1.67343 4.07043 0
M  V30 1363 H 138.369 0.407004 0.614424 0
M  V30 1364 H 141.011 1.55106 1.09737 0
M  V30 1365 H 139.161 1.51308 3.57824 0
M  V30 1366 H 140.833 3.88433 2.48832 0
M  V30 1367 H 139.076 3.68974 2.28124 0
M  V30 1368 H 139.747 3.90579 3.90067 0
M  V30 1369 H 142.223 1.99509 3.65151 0
M  V30 1370 H 141.099 2.23346 5.01406 0
M  V30 1371 H 141.36 0.617158 4.37771 0
M  V30 1372 N 140.419 -1.14872 1.07899 0
M  V30 1373 C 141.644 -1.90202 0.826926 0
M  V30 1374 C 142.069 -1.77774 -0.614664 0
M  V30 1375 O 141.427 -1.11431 -1.43013 0
M  V30 1376 C 141.475 -3.38352 1.24702 0
M  V30 1377 O 140.579 -4.10497 0.39575 0
M  V30 1378 H 139.92 -0.591968 0.300782 0
M  V30 1379 H 142.45 -1.45437 1.43907 0
M  V30 1380 H 142.46 -3.89156 1.22563 0
M  V30 1381 H 141.135 -3.46715 2.29698 0
M  V30 1382 H 139.712 -3.69796 0.480117 0
M  V30 1383 N 141.898 -0.863906 -1.31812 0
M  V30 1384 C 143.145 -0.471836 -1.96926 0
M  V30 1385 C 143.473 0.974578 -1.68322 0
M  V30 1386 O 142.728 1.7003 -0.968933 0
M  V30 1387 C 143.027 -0.668547 -3.51091 0
M  V30 1388 C 142.693 -2.08683 -3.99703 0
M  V30 1389 C 141.355 -2.47471 -4.12688 0
M  V30 1390 C 143.707 -3.01207 -4.25351 0
M  V30 1391 C 141.035 -3.78037 -4.4867 0
M  V30 1392 C 143.387 -4.31282 -4.62794 0
M  V30 1393 C 142.051 -4.69992 -4.73987 0
M  V30 1394 H 141.321 -0.172657 -0.720604 0
M  V30 1395 H 143.968 -1.09573 -1.57054 0
M  V30 1396 H 142.273 0.0385252 -3.91781 0
M  V30 1397 H 143.97 -0.345102 -3.99512 0
M  V30 1398 H 140.56 -1.77566 -3.90087 0
M  V30 1399 H 144.744 -2.72469 -4.14819 0
M  V30 1400 H 140 -4.078 -4.55532 0
M  V30 1401 H 144.174 -5.03031 -4.81594 0
M  V30 1402 H 141.801 -5.71207 -5.01624 0
M  V30 1403 N 143.376 1.44774 -0.622745 0
M  V30 1404 C 144.625 2.01334 -0.121397 0
M  V30 1405 C 144.938 1.49505 1.26125 0
M  V30 1406 O 146.144 1.98139 1.85616 0
M  V30 1407 C 144.6 3.59516 -0.166298 0
M  V30 1408 C 144.208 4.20342 -1.54974 0
M  V30 1409 C 145.952 4.23582 0.279021 0
M  V30 1410 C 143.859 5.70721 -1.55021 0
M  V30 1411 H 142.789 0.752851 -0.0416172 0
M  V30 1412 H 145.44 1.66083 -0.780309 0
M  V30 1413 H 143.822 3.92027 0.559557 0
M  V30 1414 H 144.996 3.99381 -2.29851 0
M  V30 1415 H 143.311 3.68529 -1.93843 0
M  V30 1416 H 145.908 5.33868 0.298083 0
M  V30 1417 H 146.251 3.95327 1.30471 0
M  V30 1418 H 146.784 3.95843 -0.394063 0
M  V30 1419 H 143.523 6.03698 -2.55399 0
M  V30 1420 H 143.043 5.93829 -0.844245 0
M  V30 1421 H 144.722 6.34203 -1.28047 0
M  V30 1422 N 144.854 0.36279 1.53368 0
M  V30 1423 C 146.102 -0.227326 2.00817 0
M  V30 1424 C 146.423 -1.49511 1.25186 0
M  V30 1425 O 145.693 -1.92482 0.364348 0
M  V30 1426 H 144.273 -0.0869923 0.741917 0
M  V30 1427 H 146.935 0.488381 1.88682 0
M  V30 1428 H 146.031 -0.456273 3.08747 0
M  V30 1429 N 146.332 -1.57332 0.0918853 0
M  V30 1430 C 147.28 -2.15075 -0.885747 0
M  V30 1431 C 148.274 -1.09277 -1.29441 0
M  V30 1432 O 149.48 -1.27627 -1.26931 0
M  V30 1433 H 145.855 -0.687966 -0.303656 0
M  V30 1434 H 147.826 -2.96047 -0.373995 0
M  V30 1435 C 146.575 -2.74325 -2.13638 0
M  V30 1436 H 145.898 -3.55418 -1.8308 0
M  V30 1437 H 147.338 -3.183 -2.80109 0
M  V30 1438 C 145.797 -1.70062 -2.90827 0
M  V30 1439 O 146.327 -1.13763 -3.85254 0
M  V30 1440 N 144.533 -1.40628 -2.54307 0
M  V30 1441 H 144.08 -1.866 -1.7759 0
M  V30 1442 H 144.038 -0.711043 -3.06254 0
M  V30 1443 N 147.81 0.181792 -1.56548 0
M  V30 1444 C 149.058 0.89832 -1.81038 0
M  V30 1445 C 149.379 1.83232 -0.667164 0
M  V30 1446 O 148.649 1.93372 0.313673 0
M  V30 1447 H 147.229 0.33471 -0.667816 0
M  V30 1448 H 149.891 0.184116 -1.94028 0
M  V30 1449 H 148.987 1.4815 -2.74696 0
M  V30 1450 N 149.288 1.51039 0.449983 0
M  V30 1451 C 150.534 1.63322 1.20223 0
M  V30 1452 C 150.867 0.34241 1.91158 0
M  V30 1453 O 150.142 -0.657344 1.83055 0
M  V30 1454 C 150.425 2.82801 2.22925 0
M  V30 1455 C 150.278 4.21823 1.56157 0
M  V30 1456 C 151.597 2.97807 3.24035 0
M  V30 1457 H 148.716 0.594407 0.435718 0
M  V30 1458 H 151.358 1.83489 0.493136 0
M  V30 1459 H 149.508 2.65738 2.834 0
M  V30 1460 H 151.18 4.50526 0.991162 0
M  V30 1461 H 149.423 4.25105 0.864172 0
M  V30 1462 H 150.094 5.01391 2.30891 0
M  V30 1463 H 152.57 3.13497 2.73603 0
M  V30 1464 H 151.446 3.82992 3.93202 0
M  V30 1465 H 151.707 2.09328 3.89402 0
M  V30 1466 N 150.766 -0.704594 1.40972 0
M  V30 1467 C 152.012 -1.46675 1.40051 0
M  V30 1468 C 152.345 -1.94199 0.00641102 0
M  V30 1469 O 151.62 -1.68916 -0.964235 0
M  V30 1470 C 151.903 -2.68505 2.39952 0
M  V30 1471 C 151.756 -2.26805 3.88432 0
M  V30 1472 C 153.075 -3.70686 2.37233 0
M  V30 1473 H 150.194 -0.532015 0.510028 0
M  V30 1474 H 152.836 -0.803255 1.72185 0
M  V30 1475 H 150.986 -3.25114 2.1268 0
M  V30 1476 H 152.658 -1.75592 4.26574 0
M  V30 1477 H 150.901 -1.58685 4.03734 0
M  V30 1478 H 151.572 -3.14181 4.53866 0
M  V30 1479 H 154.048 -3.23731 2.61415 0
M  V30 1480 H 152.924 -4.53553 3.09162 0
M  V30 1481 H 153.185 -4.19754 1.38777 0
M  V30 1482 N 152.244 -1.26651 -0.937939 0
M  V30 1483 C 153.493 -1.11775 -1.67897 0
M  V30 1484 C 153.806 0.33794 -1.92659 0
M  V30 1485 O 155.012 0.607434 -2.64618 0
M  V30 1486 C 153.468 -1.9523 -3.02346 0
M  V30 1487 C 153.076 -3.45393 -2.8532 0
M  V30 1488 C 154.82 -1.88972 -3.80118 0
M  V30 1489 C 152.727 -4.21083 -4.15263 0
M  V30 1490 H 151.657 -0.414696 -0.629717 0
M  V30 1491 H 154.308 -1.50988 -1.04283 0
M  V30 1492 H 152.69 -1.48853 -3.66959 0
M  V30 1493 H 153.864 -3.99561 -2.29537 0
M  V30 1494 H 152.179 -3.52921 -2.20988 0
M  V30 1495 H 154.776 -2.42805 -4.76392 0
M  V30 1496 H 155.119 -0.86113 -4.07296 0
M  V30 1497 H 155.652 -2.33189 -3.22285 0
M  V30 1498 H 152.391 -5.24425 -3.93267 0
M  V30 1499 H 151.911 -3.71695 -4.70747 0
M  V30 1500 H 153.59 -4.29706 -4.83696 0
M  V30 1501 N 153.722 1.14298 -1.08507 0
M  V30 1502 C 154.672 2.17449 -0.685569 0
M  V30 1503 C 155.656 1.58167 0.295315 0
M  V30 1504 O 156.848 1.76675 0.107172 0
M  V30 1505 C 153.977 3.43161 -0.0975318 0
M  V30 1506 C 153.063 4.09471 -1.10426 0
M  V30 1507 N 153.454 4.51089 -2.28806 0
M  V30 1508 C 151.752 4.35976 -0.940258 0
M  V30 1509 C 152.453 5.02654 -2.9277 0
M  V30 1510 N 151.429 4.96927 -2.20374 0
M  V30 1511 H 155.231 2.47369 -1.587 0
M  V30 1512 H 152.745 1.30992 -0.959936 0
M  V30 1513 H 154.742 4.16388 0.20664 0
M  V30 1514 H 153.402 3.14719 0.798872 0
M  V30 1515 H 154.413 4.44097 -2.66455 0
M  V30 1516 H 151.09 4.17386 -0.0977441 0
M  V30 1517 H 152.48 5.44723 -3.93352 0
M  V30 1518 N 155.201 0.870884 1.31352 0
M  V30 1519 C 156.131 0.343096 2.30966 0
M  V30 1520 C 157.112 -0.566507 1.60389 0
M  V30 1521 O 158.297 -0.483336 1.88089 0
M  V30 1522 C 155.427 -0.455487 3.443 0
M  V30 1523 C 154.381 0.361103 4.26474 0
M  V30 1524 C 153.707 -0.563221 5.31725 0
M  V30 1525 C 155.007 1.59566 4.97329 0
M  V30 1526 H 156.701 1.17548 2.75359 0
M  V30 1527 H 154.247 0.566686 1.32381 0
M  V30 1528 H 156.2 -0.83525 4.13039 0
M  V30 1529 H 154.924 -1.32139 2.98675 0
M  V30 1530 H 153.583 0.722825 3.59403 0
M  V30 1531 H 153.231 -1.42643 4.82351 0
M  V30 1532 H 152.931 -0.0207409 5.87596 0
M  V30 1533 H 154.455 -0.939808 6.03324 0
M  V30 1534 H 155.869 1.28728 5.58661 0
M  V30 1535 H 154.266 2.07728 5.63 0
M  V30 1536 H 155.336 2.34798 4.24262 0
M  V30 1537 N 156.679 -1.44442 0.630414 0
M  V30 1538 C 158.09 -1.85434 0.217063 0
M  V30 1539 C 158.441 -1.52748 -1.23136 0
M  V30 1540 O 157.566 -0.965205 -1.93682 0
M  V30 1541 C 158.161 -3.36581 0.387168 0
M  V30 1542 C 156.72 -3.76389 0.0283297 0
M  V30 1543 C 155.867 -2.68296 0.700889 0
M  V30 1544 H 158.818 -1.34919 0.83562 0
M  V30 1545 H 158.839 -3.78657 -0.374086 0
M  V30 1546 H 158.351 -3.60339 1.44144 0
M  V30 1547 H 156.452 -3.58246 -1.02423 0
M  V30 1548 H 156.565 -4.77095 0.437892 0
M  V30 1549 H 154.929 -2.54335 0.136267 0
M  V30 1550 H 155.712 -2.94887 1.75774 0
M  V30 1551 N 158.157 -0.370918 -1.53173 0
M  V30 1552 C 159.405 0.216673 -2.00935 0
M  V30 1553 C 159.726 1.48845 -1.25977 0
M  V30 1554 O 158.996 1.92286 -0.374551 0
M  V30 1555 H 157.576 0.0830565 -0.742368 0
M  V30 1556 H 160.238 -0.49838 -1.8842 0
M  V30 1557 H 159.334 0.439893 -3.08984 0
M  V30 1558 N 159.635 1.57281 -0.100228 0
M  V30 1559 C 160.565 2.17328 0.853857 0
M  V30 1560 C 161.546 1.10804 1.2906 0
M  V30 1561 O 162.731 1.38963 1.35657 0
M  V30 1562 C 159.861 2.75772 2.11109 0
M  V30 1563 C 158.815 3.87713 1.81279 0
M  V30 1564 C 158.141 4.32882 3.13874 0
M  V30 1565 C 159.441 5.10677 1.09574 0
M  V30 1566 H 161.135 2.97305 0.353545 0
M  V30 1567 H 158.681 1.43009 0.168612 0
M  V30 1568 H 160.634 3.16433 2.78296 0
M  V30 1569 H 159.358 1.93057 2.63432 0
M  V30 1570 H 158.017 3.476 1.16489 0
M  V30 1571 H 157.665 3.47051 3.64095 0
M  V30 1572 H 157.365 5.08358 2.94696 0
M  V30 1573 H 158.889 4.7618 3.82211 0
M  V30 1574 H 160.303 5.48474 1.66879 0
M  V30 1575 H 158.7 5.91615 1.00557 0
M  V30 1576 H 159.77 4.84835 0.0793299 0
M  V30 1577 N 161.113 -0.173488 1.56642 0
M  V30 1578 C 162.36 -0.890465 1.81871 0
M  V30 1579 C 162.688 -1.82339 0.67696 0
M  V30 1580 O 161.943 -1.92795 -0.335926 0
M  V30 1581 C 162.242 -1.72069 3.13252 0
M  V30 1582 C 161.908 -0.936878 4.41059 0
M  V30 1583 C 160.57 -0.720545 4.75775 0
M  V30 1584 C 162.922 -0.386919 5.19762 0
M  V30 1585 C 160.25 0.0568829 5.86672 0
M  V30 1586 C 162.602 0.37741 6.31473 0
M  V30 1587 C 161.266 0.604563 6.64757 0
M  V30 1588 H 160.536 -0.325844 0.665512 0
M  V30 1589 H 163.183 -0.155527 1.90867 0
M  V30 1590 H 161.488 -2.52496 2.99588 0
M  V30 1591 H 163.185 -2.27844 3.29982 0
M  V30 1592 H 159.775 -1.11553 4.13828 0
M  V30 1593 H 163.959 -0.541398 4.93338 0
M  V30 1594 H 159.215 0.242635 6.10918 0
M  V30 1595 H 163.389 0.810825 6.91664 0
M  V30 1596 H 161.016 1.20885 7.50527 0
M  V30 1597 N 162.591 -1.51276 -0.441967 0
M  V30 1598 C 163.501 -1.75092 -1.56141 0
M  V30 1599 C 164.517 -0.634963 -1.62001 0
M  V30 1600 O 165.693 -0.916686 -1.79329 0
M  V30 1601 C 162.758 -1.86666 -2.92158 0
M  V30 1602 C 161.819 -3.10506 -2.96453 0
M  V30 1603 C 161.052 -3.21519 -4.25982 0
M  V30 1604 O 161.275 -2.38586 -5.18105 0
M  V30 1605 O 160.209 -4.14465 -4.36466 0
M  V30 1606 H 164.035 -2.70044 -1.38961 0
M  V30 1607 H 161.62 -1.35722 -0.624499 0
M  V30 1608 H 163.502 -1.96292 -3.72891 0
M  V30 1609 H 162.177 -0.949014 -3.09476 0
M  V30 1610 H 161.084 -3.06363 -2.14692 0
M  V30 1611 H 162.417 -4.01945 -2.84079 0
M  V30 1612 N 164.069 0.697108 -1.41344 0
M  V30 1613 C 164.979 1.84088 -1.45427 0
M  V30 1614 C 165.995 1.70545 -0.34501 0
M  V30 1615 O 167.171 1.92488 -0.592492 0
M  V30 1616 C 164.236 3.20056 -1.33286 0
M  V30 1617 C 163.297 3.45718 -2.54514 0
M  V30 1618 C 162.53 4.75199 -2.42944 0
M  V30 1619 O 162.753 5.51579 -1.45318 0
M  V30 1620 O 161.687 5.0161 -3.32672 0
M  V30 1621 H 165.513 1.836 -2.41919 0
M  V30 1622 H 163.098 0.849966 -1.22866 0
M  V30 1623 H 164.98 4.01236 -1.28794 0
M  V30 1624 H 163.655 3.2123 -0.39909 0
M  V30 1625 H 162.562 2.64474 -2.64583 0
M  V30 1626 H 163.895 3.49356 -3.46715 0
M  V30 1627 N 165.547 1.27147 0.931209 0
M  V30 1628 C 166.51 1.09615 2.01289 0
M  V30 1629 C 167.51 0.0412581 1.60747 0
M  V30 1630 O 168.7 0.285545 1.71844 0
M  V30 1631 C 165.832 0.669447 3.34262 0
M  V30 1632 H 167.025 2.05662 2.18273 0
M  V30 1633 H 164.578 1.09885 1.11153 0
M  V30 1634 H 165.313 -0.292572 3.22978 0
M  V30 1635 H 165.098 1.43127 3.65044 0
M  V30 1636 H 166.588 0.568921 4.13706 0
M  V30 1637 N 167.025 -1.13721 1.09112 0
M  V30 1638 C 167.935 -2.22638 0.73957 0
M  V30 1639 C 168.951 -1.72091 -0.257068 0
M  V30 1640 O 170.127 -2.01155 -0.0992154 0
M  V30 1641 C 167.192 -3.46322 0.16191 0
M  V30 1642 C 166.253 -4.11775 1.21408 0
M  V30 1643 C 165.486 -5.29555 0.663891 0
M  V30 1644 O 165.709 -5.68077 -0.514274 0
M  V30 1645 O 164.643 -5.84973 1.41738 0
M  V30 1646 H 168.469 -2.55074 1.64836 0
M  V30 1647 H 166.054 -1.21791 0.865289 0
M  V30 1648 H 167.936 -4.21107 -0.157073 0
M  V30 1649 H 166.611 -3.15593 -0.719932 0
M  V30 1650 H 165.518 -3.3883 1.58571 0
M  V30 1651 H 166.851 -4.46627 2.06845 0
M  V30 1652 N 168.503 -0.877838 -1.30888 0
M  V30 1653 C 169.45 -0.337538 -2.28318 0
M  V30 1654 C 170.42 0.568346 -1.56074 0
M  V30 1655 O 171.605 0.498298 -1.84178 0
M  V30 1656 C 168.745 0.448142 -3.42178 0
M  V30 1657 C 167.858 -0.48615 -4.29256 0
M  V30 1658 C 166.993 0.314427 -5.30269 0
M  V30 1659 C 166.032 -0.615791 -6.08995 0
M  V30 1660 N 165.169 0.14902 -7.01942 0
M  V30 1661 H 170.009 -1.17356 -2.73919 0
M  V30 1662 H 167.546 -0.590094 -1.34745 0
M  V30 1663 H 169.504 0.919517 -4.06941 0
M  V30 1664 H 168.134 1.24879 -2.97666 0
M  V30 1665 H 167.186 -1.076 -3.64865 0
M  V30 1666 H 168.498 -1.19909 -4.84173 0
M  V30 1667 H 167.652 0.847969 -6.00745 0
M  V30 1668 H 166.391 1.06062 -4.76027 0
M  V30 1669 H 165.396 -1.16102 -5.37401 0
M  V30 1670 H 166.621 -1.36097 -6.65323 0
M  V30 1671 H 164.567 0.877884 -6.50099 0
M  V30 1672 H 164.484 -0.504433 -7.54315 0
M  V30 1673 H 165.752 0.663537 -7.76671 0
M  V30 1674 N 169.982 1.44106 -0.638065 0
M  V30 1675 C 170.93 2.3248 0.0748149 0
M  V30 1676 C 171.924 1.47746 0.828702 0
M  V30 1677 O 173.13 1.64049 0.740816 0
M  V30 1678 H 169.505 0.750771 0.0429686 0
M  V30 1679 H 171.476 2.90348 -0.688504 0
M  V30 1680 C 170.225 3.31843 1.03805 0
M  V30 1681 H 169.548 3.97059 0.467375 0
M  V30 1682 H 170.988 3.96345 1.50622 0
M  V30 1683 C 169.447 2.61291 2.1267 0
M  V30 1684 O 169.977 2.41702 3.20847 0
M  V30 1685 N 168.183 2.20915 1.88798 0
M  V30 1686 H 167.73 2.37047 1.00829 0
M  V30 1687 H 167.688 1.74038 2.61836 0
M  V30 1688 N 171.46 0.379036 1.52974 0
M  V30 1689 C 172.37 -0.468639 2.29872 0
M  V30 1690 C 173.386 -1.08067 1.36373 0
M  V30 1691 O 174.562 -1.08871 1.69438 0
M  V30 1692 C 171.627 -1.58594 3.083 0
M  V30 1693 C 170.688 -1.00007 4.17489 0
M  V30 1694 C 169.921 -2.06413 4.92168 0
M  V30 1695 O 170.144 -3.27751 4.66835 0
M  V30 1696 O 169.078 -1.68717 5.7777 0
M  V30 1697 H 172.904 0.157508 3.03291 0
M  V30 1698 H 170.489 0.143035 1.48714 0
M  V30 1699 H 172.371 -2.23525 3.57232 0
M  V30 1700 H 171.046 -2.19724 2.37703 0
M  V30 1701 H 169.953 -0.314299 3.72777 0
M  V30 1702 H 171.286 -0.433135 4.90291 0
M  V30 1703 N 172.938 -1.57226 0.108567 0
M  V30 1704 C 173.885 -2.14756 -0.845481 0
M  V30 1705 C 174.855 -1.06971 -1.27068 0
M  V30 1706 O 176.04 -1.34827 -1.35005 0
M  V30 1707 C 173.18 -2.74298 -2.09415 0
M  V30 1708 C 172.293 -3.96358 -1.71826 0
M  V30 1709 C 171.428 -4.44021 -2.9158 0
M  V30 1710 C 170.467 -5.58637 -2.50181 0
M  V30 1711 N 169.604 -6.01091 -3.62814 0
M  V30 1712 H 174.444 -2.95961 -0.348035 0
M  V30 1713 H 171.981 -1.46226 -0.160106 0
M  V30 1714 H 173.939 -3.06945 -2.82561 0
M  V30 1715 H 172.569 -1.95801 -2.56636 0
M  V30 1716 H 171.621 -3.69939 -0.885947 0
M  V30 1717 H 172.933 -4.79504 -1.37394 0
M  V30 1718 H 172.087 -4.78522 -3.72963 0
M  V30 1719 H 170.826 -3.59803 -3.29231 0
M  V30 1720 H 169.831 -5.23751 -1.67228 0
M  V30 1721 H 171.056 -6.44613 -2.13659 0
M  V30 1722 H 169.002 -5.19817 -4.00158 0
M  V30 1723 H 168.919 -6.79066 -3.32273 0
M  V30 1724 H 170.187 -6.40227 -4.44668 0
M  V30 1725 N 174.416 0.165178 -1.56732 0
M  V30 1726 C 175.363 1.2044 -1.96883 0
M  V30 1727 C 176.333 1.43664 -0.833657 0
M  V30 1728 O 177.518 1.56302 -1.09427 0
M  V30 1729 C 174.658 2.53727 -2.33916 0
M  V30 1730 C 173.771 2.3783 -3.6064 0
M  V30 1731 C 172.906 3.64026 -3.86857 0
M  V30 1732 C 171.945 3.43088 -5.06909 0
M  V30 1733 N 171.082 4.61369 -5.29229 0
M  V30 1734 H 175.922 0.854996 -2.85471 0
M  V30 1735 H 173.459 0.41076 -1.41249 0
M  V30 1736 H 175.417 3.31419 -2.53411 0
M  V30 1737 H 174.047 2.8665 -1.48431 0
M  V30 1738 H 173.099 1.51282 -3.49024 0
M  V30 1739 H 174.411 2.18308 -4.4849 0
M  V30 1740 H 173.565 4.50152 -4.06753 0
M  V30 1741 H 172.304 3.86533 -2.97394 0
M  V30 1742 H 171.309 2.55349 -4.86906 0
M  V30 1743 H 172.534 3.21997 -5.97909 0
M  V30 1744 H 170.48 4.84084 -4.42718 0
M  V30 1745 H 170.397 4.44783 -6.11313 0
M  V30 1746 H 171.665 5.48761 -5.53608 0
M  V30 1747 N 175.894 1.51508 0.433938 0
M  V30 1748 C 177.142 1.6402 1.18075 0
M  V30 1749 C 177.463 0.360328 1.91642 0
M  V30 1750 O 176.733 -0.623945 1.85698 0
M  V30 1751 H 175.313 0.6045 0.43885 0
M  V30 1752 H 177.975 1.88452 0.497178 0
M  V30 1753 H 177.071 2.46949 1.90847 0
M  V30 1754 N 177.372 -0.689602 1.41712 0
M  V30 1755 C 178.302 -1.81577 1.46806 0
M  V30 1756 C 179.283 -1.66945 0.326105 0
M  V30 1757 O 180.468 -1.86588 0.538377 0
M  V30 1758 C 177.598 -3.19762 1.35535 0
M  V30 1759 C 176.552 -3.49107 2.47605 0
M  V30 1760 C 175.878 -4.86711 2.21397 0
M  V30 1761 C 177.178 -3.47483 3.89939 0
M  V30 1762 H 178.872 -1.7757 2.41058 0
M  V30 1763 H 176.418 -0.852887 1.16025 0
M  V30 1764 H 178.371 -3.98263 1.3771 0
M  V30 1765 H 177.095 -3.24409 0.377708 0
M  V30 1766 H 175.754 -2.72959 2.44722 0
M  V30 1767 H 175.402 -4.8799 1.21961 0
M  V30 1768 H 175.102 -5.0731 2.96497 0
M  V30 1769 H 176.626 -5.67515 2.25297 0
M  V30 1770 H 178.04 -4.1598 3.94505 0
M  V30 1771 H 176.437 -3.79615 4.64771 0
M  V30 1772 H 177.507 -2.46341 4.17665 0
M  V30 1773 N 178.85 -1.27639 -0.924453 0
M  V30 1774 C 179.797 -1.10644 -2.0255 0
M  V30 1775 C 180.767 -0.00658438 -1.66099 0
M  V30 1776 O 181.952 -0.16952 -1.90045 0
M  V30 1777 C 179.092 -0.76309 -3.36557 0
M  V30 1778 C 178.205 -1.94091 -3.85944 0
M  V30 1779 C 177.34 -1.53914 -5.08413 0
M  V30 1780 C 176.379 -2.68425 -5.50104 0
M  V30 1781 N 175.516 -2.28815 -6.63768 0
M  V30 1782 H 180.356 -2.04858 -2.16419 0
M  V30 1783 H 177.893 -1.01974 -1.06017 0
M  V30 1784 H 179.851 -0.544822 -4.13627 0
M  V30 1785 H 178.481 0.142102 -3.22487 0
M  V30 1786 H 177.533 -2.27162 -3.05125 0
M  V30 1787 H 178.845 -2.7998 -4.12811 0
M  V30 1788 H 177.999 -1.28231 -5.92994 0
M  V30 1789 H 176.738 -0.651391 -4.8333 0
M  V30 1790 H 175.743 -2.94819 -4.64071 0
M  V30 1791 H 176.968 -3.57826 -5.7718 0
M  V30 1792 H 174.914 -1.42495 -6.40337 0
M  V30 1793 H 174.831 -3.08242 -6.90306 0
M  V30 1794 H 176.099 -2.06387 -7.51681 0
M  V30 1795 N 180.328 1.1314 -1.09713 0
M  V30 1796 C 181.605 1.80762 -0.747302 0
M  V30 1797 C 181.985 1.96663 0.767265 0
M  V30 1798 O 181.333 1.53706 1.69076 0
M  V30 1799 C 181.543 3.15606 -1.48975 0
M  V30 1800 C 182.891 3.90914 -1.65746 0
M  V30 1801 O 183.915 3.25239 -1.45251 0
M  V30 1802 O 182.774 5.08718 -1.9967 0
M  V30 1803 H 179.868 0.782103 -0.268782 0
M  V30 1804 H 182.414 1.20041 -1.19951 0
M  V30 1805 H 181.186 2.99278 -2.52088 0
M  V30 1806 H 180.809 3.84029 -1.02991 0
M  V30 1807 N 181.806 0.884767 1.30421 0
M  V30 1808 C 183.052 0.513218 1.96819 0
M  V30 1809 C 183.407 -0.927347 1.68577 0
M  V30 1810 O 182.7 -1.64644 0.979941 0
M  V30 1811 C 182.894 0.724318 3.49983 0
M  V30 1812 C 182.723 2.18385 3.93113 0
M  V30 1813 C 181.493 2.82839 4.18725 0
M  V30 1814 C 183.691 3.15763 4.05953 0
M  V30 1815 N 181.673 4.1939 4.48314 0
M  V30 1816 C 183.044 4.37387 4.39423 0
M  V30 1817 C 185.099 3.11555 3.88379 0
M  V30 1818 C 183.802 5.55343 4.5715 0
M  V30 1819 C 185.828 4.28782 4.07308 0
M  V30 1820 C 185.19 5.49172 4.41123 0
M  V30 1821 H 181.289 0.237123 0.745182 0
M  V30 1822 H 183.873 1.14246 1.57658 0
M  V30 1823 H 182.044 0.124565 3.882 0
M  V30 1824 H 183.776 0.31969 4.03435 0
M  V30 1825 H 180.531 2.33708 4.11919 0
M  V30 1826 H 180.955 4.89911 4.67243 0
M  V30 1827 H 185.597 2.19576 3.61312 0
M  V30 1828 H 183.315 6.47826 4.8306 0
M  V30 1829 H 186.901 4.26995 3.95179 0
M  V30 1830 H 185.781 6.38371 4.55469 0
M  V30 1831 N 183.284 -1.43765 0.645699 0
M  V30 1832 C 184.194 -2.34544 -0.0512957 0
M  V30 1833 C 185.21 -1.53455 -0.82022 0
M  V30 1834 O 186.386 -1.86133 -0.769176 0
M  V30 1835 C 183.451 -3.31636 -1.01087 0
M  V30 1836 C 182.512 -4.2863 -0.239712 0
M  V30 1837 C 181.745 -5.21084 -1.15358 0
M  V30 1838 O 181.968 -5.1779 -2.39269 0
M  V30 1839 O 180.902 -5.98593 -0.630038 0
M  V30 1840 H 184.728 -2.95624 0.695718 0
M  V30 1841 H 182.313 -1.43781 0.405882 0
M  V30 1842 H 184.195 -3.9136 -1.56254 0
M  V30 1843 H 182.87 -2.73069 -1.73824 0
M  V30 1844 H 181.777 -3.72408 0.355356 0
M  V30 1845 H 183.11 -4.90157 0.447936 0
M  V30 1846 N 184.763 -0.387143 -1.52771 0
M  V30 1847 C 185.71 0.449048 -2.26389 0
M  V30 1848 C 186.68 1.05961 -1.27912 0
M  V30 1849 O 187.865 1.08804 -1.56737 0
M  V30 1850 C 185.005 1.57155 -3.0724 0
M  V30 1851 C 184.118 0.984066 -4.20643 0
M  V30 1852 C 183.253 2.07745 -4.88892 0
M  V30 1853 C 182.292 1.46574 -5.94292 0
M  V30 1854 N 181.429 2.49834 -6.56146 0
M  V30 1855 H 186.269 -0.185205 -2.97424 0
M  V30 1856 H 183.806 -0.103164 -1.46738 0
M  V30 1857 H 185.764 2.23309 -3.52405 0
M  V30 1858 H 184.394 2.17615 -2.38419 0
M  V30 1859 H 183.446 0.212193 -3.79808 0
M  V30 1860 H 184.758 0.497029 -4.96318 0
M  V30 1861 H 183.912 2.81673 -5.3735 0
M  V30 1862 H 182.651 2.59807 -4.12737 0
M  V30 1863 H 181.656 0.711696 -5.45174 0
M  V30 1864 H 182.881 0.953088 -6.72379 0
M  V30 1865 H 180.827 3.0107 -5.82832 0
M  V30 1866 H 180.744 2.05879 -7.27427 0
M  V30 1867 H 182.012 3.23399 -7.09249 0
M  V30 1868 N 186.241 1.57166 -0.116904 0
M  V30 1869 C 187.657 1.5779 0.239693 0
M  V30 1870 C 187.857 1.1295 1.66867 0
M  V30 1871 O 186.913 0.81592 2.38954 0
M  V30 1872 C 188.226 3.00699 0.00828202 0
M  V30 1873 C 189.774 3.12912 0.0743438 0
M  V30 1874 C 190.249 4.57817 -0.129348 0
M  V30 1875 N 191.74 4.63139 -0.075247 0
M  V30 1876 C 192.475 5.73023 -0.207788 0
M  V30 1877 N 191.971 6.91665 -0.396382 0
M  V30 1878 N 193.764 5.61906 -0.14751 0
M  V30 1879 H 185.915 1.84615 -1.05029 0
M  V30 1880 H 188.178 0.85311 -0.41341 0
M  V30 1881 H 187.884 3.37784 -0.979531 0
M  V30 1882 H 187.758 3.69848 0.741077 0
M  V30 1883 H 190.145 2.75686 1.05268 0
M  V30 1884 H 190.226 2.4631 -0.690297 0
M  V30 1885 H 189.87 4.95742 -1.10465 0
M  V30 1886 H 189.8 5.22507 0.655253 0
M  V30 1887 H 192.291 3.7784 0.0670898 0
M  V30 1888 H 192.604 7.71255 -0.488437 0
M  V30 1889 H 190.949 6.93654 -0.432329 0
M  V30 1890 H 194.14 4.681 -0.00115036 0
M  V30 1891 H 194.313 6.47501 -0.254247 0
M  V30 1892 N 187.719 -0.156864 1.56817 0
M  V30 1893 C 188.649 -1.19589 2.00551 0
M  V30 1894 C 189.63 -1.4536 0.883426 0
M  V30 1895 O 190.815 -1.56449 1.15054 0
M  V30 1896 C 187.945 -2.53143 2.37773 0
M  V30 1897 C 186.899 -2.41913 3.53075 0
M  V30 1898 C 186.225 -3.80088 3.76081 0
M  V30 1899 C 187.525 -1.91157 4.86062 0
M  V30 1900 H 189.219 -0.832293 2.87599 0
M  V30 1901 H 186.765 -0.398918 1.38364 0
M  V30 1902 H 188.718 -3.26047 2.66967 0
M  V30 1903 H 187.442 -2.91319 1.4765 0
M  V30 1904 H 186.101 -1.71462 3.24031 0
M  V30 1905 H 185.749 -4.15683 2.83225 0
M  V30 1906 H 185.449 -3.73439 4.53671 0
M  V30 1907 H 186.973 -4.54556 4.0769 0
M  V30 1908 H 188.387 -2.53846 5.14038 0
M  V30 1909 H 186.784 -1.95422 5.67389 0
M  V30 1910 H 187.854 -0.866673 4.77092 0
M  V30 1911 N 189.197 -1.51736 -0.425897 0
M  V30 1912 C 190.446 -1.64201 -1.17136 0
M  V30 1913 C 190.759 -0.369705 -1.92074 0
M  V30 1914 O 191.965 -0.373898 -2.68913 0
M  V30 1915 C 190.421 -2.90035 -2.13091 0
M  V30 1916 C 190.029 -4.24312 -1.43747 0
M  V30 1917 C 191.773 -3.1186 -2.87999 0
M  V30 1918 C 189.68 -5.41285 -2.38253 0
M  V30 1919 H 188.61 -0.611624 -0.440944 0
M  V30 1920 H 191.261 -1.78212 -0.437328 0
M  V30 1921 H 189.643 -2.69684 -2.89977 0
M  V30 1922 H 190.817 -4.55086 -0.723408 0
M  V30 1923 H 189.132 -4.08456 -0.809465 0
M  V30 1924 H 191.729 -3.96427 -3.58817 0
M  V30 1925 H 192.072 -2.25403 -3.49999 0
M  V30 1926 H 192.605 -3.32605 -2.18217 0
M  V30 1927 H 189.344 -6.30037 -1.80925 0
M  V30 1928 H 188.864 -5.14872 -3.0768 0
M  V30 1929 H 190.543 -5.73694 -2.99139 0
M  V30 1930 N 190.675 0.682077 -1.42076 0
M  V30 1931 C 191.924 1.43786 -1.41451 0
M  V30 1932 C 192.237 1.95574 -0.0317074 0
M  V30 1933 O 193.443 2.71326 0.0971462 0
M  V30 1934 C 191.899 2.60071 -2.48779 0
M  V30 1935 C 191.507 2.15013 -3.93031 0
M  V30 1936 C 193.251 3.37626 -2.57311 0
M  V30 1937 C 191.158 3.28336 -4.91883 0
M  V30 1938 H 190.088 0.540143 -0.526082 0
M  V30 1939 H 192.739 0.739157 -1.67955 0
M  V30 1940 H 191.121 3.32275 -2.15429 0
M  V30 1941 H 192.295 1.5001 -4.35699 0
M  V30 1942 H 190.61 1.50416 -3.88284 0
M  V30 1943 H 193.207 4.22012 -3.28345 0
M  V30 1944 H 193.55 3.83727 -1.61429 0
M  V30 1945 H 194.083 2.72488 -2.89819 0
M  V30 1946 H 190.822 2.87234 -5.89217 0
M  V30 1947 H 190.342 3.92145 -4.53853 0
M  V30 1948 H 192.021 3.93913 -5.13265 0
M  V30 1949 N 192.153 1.28127 0.917671 0
M  V30 1950 C 193.378 1.18007 1.70555 0
M  V30 1951 C 193.803 -0.258257 1.86319 0
M  V30 1952 O 193.161 -1.1869 1.37049 0
M  V30 1953 C 193.209 1.87948 3.07746 0
M  V30 1954 O 192.313 1.18427 3.9503 0
M  V30 1955 H 191.654 0.409867 0.522403 0
M  V30 1956 H 194.184 1.69379 1.1477 0
M  V30 1957 H 194.194 1.95701 3.58001 0
M  V30 1958 H 192.869 2.92573 2.95591 0
M  V30 1959 H 191.446 1.18811 3.53466 0
M  V30 1960 N 193.631 -1.12557 1.10312 0
M  V30 1961 C 194.908 -1.80363 0.756878 0
M  V30 1962 C 195.288 -1.97067 -0.756824 0
M  V30 1963 O 194.636 -1.54601 -1.68259 0
M  V30 1964 C 194.846 -3.14812 1.50647 0
M  V30 1965 C 196.194 -3.90029 1.67817 0
M  V30 1966 O 197.218 -3.24464 1.46974 0
M  V30 1967 O 196.077 -5.07652 2.02365 0
M  V30 1968 H 193.171 -0.780667 0.272926 0
M  V30 1969 H 195.717 -1.19404 1.20586 0
M  V30 1970 H 194.489 -2.97936 2.53672 0
M  V30 1971 H 194.112 -3.83478 1.05026 0
M  V30 1972 N 195.109 -0.891671 -1.2995 0
M  V30 1973 C 196.525 -0.58662 -1.48428 0
M  V30 1974 C 196.725 0.873951 -1.81561 0
M  V30 1975 O 195.781 1.65471 -1.90724 0
M  V30 1976 C 197.094 -1.50553 -2.60296 0
M  V30 1977 C 198.642 -1.50988 -2.74175 0
M  V30 1978 C 199.117 -2.41488 -3.89163 0
M  V30 1979 N 200.608 -2.39489 -3.96483 0
M  V30 1980 C 201.343 -3.06223 -4.84784 0
M  V30 1981 N 200.839 -3.82206 -5.77833 0
M  V30 1982 N 202.632 -2.95421 -4.78208 0
M  V30 1983 H 194.783 -1.83644 -1.06718 0
M  V30 1984 H 197.046 -0.786455 -0.529332 0
M  V30 1985 H 196.752 -2.54581 -2.42654 0
M  V30 1986 H 196.626 -1.22008 -3.56923 0
M  V30 1987 H 199.013 -0.47708 -2.91218 0
M  V30 1988 H 199.094 -1.83567 -1.78148 0
M  V30 1989 H 198.738 -3.44857 -3.72876 0
M  V30 1990 H 198.668 -2.06222 -4.84541 0
M  V30 1991 H 201.159 -1.84278 -3.29924 0
M  V30 1992 H 201.472 -4.302 -6.41988 0
M  V30 1993 H 199.817 -3.86313 -5.77743 0
M  V30 1994 H 203.008 -2.35581 -4.04499 0
M  V30 1995 H 203.181 -3.47704 -5.46814 0
M  V30 1996 N 196.587 1.43421 -0.653314 0
M  V30 1997 C 197.55 2.29182 0.0287951 0
M  V30 1998 C 198.55 1.42213 0.750465 0
M  V30 1999 O 199.74 1.63843 0.591701 0
M  V30 2000 C 196.872 3.24278 1.05151 0
M  V30 2001 H 198.065 2.90985 -0.725786 0
M  V30 2002 H 195.618 1.50702 -0.414545 0
M  V30 2003 H 196.353 2.6737 1.83532 0
M  V30 2004 H 196.138 3.88396 0.537687 0
M  V30 2005 H 197.628 3.88647 1.52786 0
M  V30 2006 N 198.065 0.39524 1.52563 0
M  V30 2007 C 199.015 -0.4541 2.23432 0
M  V30 2008 C 199.999 -1.02482 1.24042 0
M  V30 2009 O 201.191 -0.949938 1.49349 0
M  V30 2010 C 198.32 -1.57769 3.049 0
M  V30 2011 C 197.406 -1.01842 4.1169 0
M  V30 2012 N 197.797 -0.184613 5.05463 0
M  V30 2013 C 196.095 -1.29033 4.26927 0
M  V30 2014 C 196.796 0.125013 5.81566 0
M  V30 2015 N 195.772 -0.480498 5.41472 0
M  V30 2016 H 199.574 0.189413 2.93289 0
M  V30 2017 H 197.088 0.204877 1.61102 0
M  V30 2018 H 199.085 -2.19862 3.54212 0
M  V30 2019 H 197.745 -2.22397 2.36579 0
M  V30 2020 H 198.756 0.178602 5.17592 0
M  V30 2021 H 195.433 -1.93721 3.69836 0
M  V30 2022 H 196.823 0.800962 6.67109 0
M  V30 2023 N 199.544 -1.57102 0.125237 0
M  V30 2024 C 200.474 -2.18659 -0.819174 0
M  V30 2025 C 201.455 -1.12843 -1.27281 0
M  V30 2026 O 202.64 -1.41104 -1.33429 0
M  V30 2027 C 199.77 -2.79096 -2.06695 0
M  V30 2028 C 198.724 -3.90548 -1.75088 0
M  V30 2029 C 198.05 -4.37821 -3.06948 0
M  V30 2030 C 199.35 -5.12356 -1.01435 0
M  V30 2031 H 201.044 -2.9783 -0.306202 0
M  V30 2032 H 198.59 -1.4326 -0.145839 0
M  V30 2033 H 200.543 -3.2082 -2.73226 0
M  V30 2034 H 199.267 -1.97223 -2.60328 0
M  V30 2035 H 197.926 -3.49409 -1.10944 0
M  V30 2036 H 197.574 -3.52799 -3.58527 0
M  V30 2037 H 197.274 -5.12982 -2.86571 0
M  V30 2038 H 198.798 -4.822 -3.74587 0
M  V30 2039 H 200.212 -5.5106 -1.58132 0
M  V30 2040 H 198.609 -5.9314 -0.911319 0
M  V30 2041 H 199.679 -4.849 -0.00218681 0
M  V30 2042 N 201.022 0.148545 -1.56898 0
M  V30 2043 C 202.268 0.862694 -1.83536 0
M  V30 2044 C 202.601 1.80889 -0.706604 0
M  V30 2045 O 201.876 1.92328 0.289885 0
M  V30 2046 C 202.159 1.63853 -3.20662 0
M  V30 2047 C 202.012 0.713925 -4.44098 0
M  V30 2048 C 203.331 2.60133 -3.54991 0
M  V30 2049 H 200.45 0.312179 -0.667618 0
M  V30 2050 H 203.092 0.127953 -1.89569 0
M  V30 2051 H 201.242 2.26489 -3.1565 0
M  V30 2052 H 202.914 0.098686 -4.61194 0
M  V30 2053 H 201.157 0.0234019 -4.33794 0
M  V30 2054 H 201.828 1.29278 -5.36648 0
M  V30 2055 H 204.304 2.07616 -3.60603 0
M  V30 2056 H 203.18 3.11468 -4.51972 0
M  V30 2057 H 203.441 3.41417 -2.80868 0
M  V30 2058 N 202.5 1.5196 0.417844 0
M  V30 2059 C 203.747 1.65591 1.16559 0
M  V30 2060 C 204.075 0.381565 1.90721 0
M  V30 2061 O 203.33 -0.635156 1.85106 0
M  V30 2062 C 203.629 2.82269 2.19223 0
M  V30 2063 C 203.295 4.20819 1.61933 0
M  V30 2064 C 201.957 4.58506 1.46033 0
M  V30 2065 C 204.309 5.07196 1.20008 0
M  V30 2066 C 201.637 5.80257 0.867113 0
M  V30 2067 C 203.989 6.29544 0.621086 0
M  V30 2068 C 202.653 6.65987 0.449144 0
M  V30 2069 H 201.923 0.605939 0.42652 0
M  V30 2070 H 204.57 1.86041 0.45397 0
M  V30 2071 H 202.875 2.56118 2.96498 0
M  V30 2072 H 204.572 2.90012 2.76936 0
M  V30 2073 H 201.162 3.91116 1.7529 0
M  V30 2074 H 205.346 4.7867 1.31105 0
M  V30 2075 H 200.602 6.07124 0.721833 0
M  V30 2076 H 204.776 6.95805 0.287798 0
M  V30 2077 H 202.403 7.60199 -0.012632 0
M  V30 2078 N 203.978 -0.674533 1.42435 0
M  V30 2079 C 205.255 -1.4305 1.33402 0
M  V30 2080 C 205.635 -2.11081 -0.0284674 0
M  V30 2081 O 204.983 -2.03257 -1.04397 0
M  V30 2082 C 205.193 -2.43272 2.50239 0
M  V30 2083 C 206.541 -3.07907 2.92367 0
M  V30 2084 O 207.565 -2.53599 2.50132 0
M  V30 2085 O 206.424 -4.0632 3.65467 0
M  V30 2086 H 203.518 -0.638076 0.526106 0
M  V30 2087 H 206.064 -0.703235 1.54443 0
M  V30 2088 H 204.836 -1.91803 3.41068 0
M  V30 2089 H 204.459 -3.23479 2.31186 0
M  V30 2090 N 205.456 -1.28612 -0.910864 0
M  V30 2091 C 206.703 -1.15934 -1.66029 0
M  V30 2092 C 207.031 0.291483 -1.92303 0
M  V30 2093 O 206.286 1.22816 -1.52364 0
M  V30 2094 C 206.585 -1.90624 -3.0232 0
M  V30 2095 C 206.251 -3.40405 -2.95695 0
M  V30 2096 C 204.913 -3.81255 -2.93595 0
M  V30 2097 C 207.265 -4.359 -2.85728 0
M  V30 2098 C 204.593 -5.15936 -2.79334 0
M  V30 2099 C 206.945 -5.70657 -2.73007 0
M  V30 2100 C 205.609 -6.10779 -2.69267 0
M  V30 2101 H 204.879 -0.424234 -0.607541 0
M  V30 2102 H 207.526 -1.5942 -1.06101 0
M  V30 2103 H 205.831 -1.39696 -3.6605 0
M  V30 2104 H 207.528 -1.78228 -3.59215 0
M  V30 2105 H 204.118 -3.07927 -2.98125 0
M  V30 2106 H 208.302 -4.053 -2.86436 0
M  V30 2107 H 203.558 -5.46146 -2.74835 0
M  V30 2108 H 207.732 -6.44311 -2.64264 0
M  V30 2109 H 205.359 -7.1509 -2.57974 0
M  V30 2110 N 206.934 1.1197 -1.10907 0
M  V30 2111 C 207.884 2.15946 -0.731538 0
M  V30 2112 C 208.868 1.58758 0.261699 0
M  V30 2113 O 210.06 1.76863 0.0696722 0
M  V30 2114 C 207.189 3.42877 -0.170299 0
M  V30 2115 C 206.275 4.07037 -1.19087 0
M  V30 2116 N 206.666 4.46135 -2.38322 0
M  V30 2117 C 204.964 4.33884 -1.03252 0
M  V30 2118 C 205.665 4.96331 -3.03366 0
M  V30 2119 N 204.641 4.9214 -2.30865 0
M  V30 2120 H 208.443 2.43947 -1.63912 0
M  V30 2121 H 205.957 1.28927 -0.987505 0
M  V30 2122 H 207.954 4.16732 0.118271 0
M  V30 2123 H 206.614 3.16343 0.731935 0
M  V30 2124 H 207.625 4.38345 -2.75815 0
M  V30 2125 H 204.302 4.17084 -0.186256 0
M  V30 2126 H 205.692 5.36257 -4.04818 0
M  V30 2127 N 208.412 0.89855 1.29475 0
M  V30 2128 C 209.344 0.332726 2.26772 0
M  V30 2129 C 210.357 -0.520323 1.54261 0
M  V30 2130 O 211.546 -0.337668 1.75277 0
M  V30 2131 C 208.646 -0.544334 3.345 0
M  V30 2132 C 207.819 0.282728 4.36485 0
M  V30 2133 C 206.878 -0.526982 5.23555 0
M  V30 2134 O 205.904 0.0551165 5.69173 0
M  V30 2135 N 207.106 -1.83331 5.5079 0
M  V30 2136 H 209.871 1.16897 2.75962 0
M  V30 2137 H 207.432 0.762919 1.42798 0
M  V30 2138 H 209.424 -1.09239 3.89678 0
M  V30 2139 H 207.994 -1.28127 2.85136 0
M  V30 2140 H 207.214 1.01221 3.80983 0
M  V30 2141 H 208.502 0.84918 5.01664 0
M  V30 2142 H 207.9 -2.32898 5.15534 0
M  V30 2143 H 206.457 -2.32852 6.08788 0
M  V30 2144 N 209.89 -1.43072 0.660911 0
M  V30 2145 C 210.853 -2.29194 -0.0166406 0
M  V30 2146 C 211.853 -1.42609 -0.742912 0
M  V30 2147 O 213.043 -1.64155 -0.583004 0
M  V30 2148 C 210.175 -3.24831 -1.0343 0
M  V30 2149 H 211.368 -2.90596 0.741208 0
M  V30 2150 H 208.921 -1.5048 0.422532 0
M  V30 2151 H 209.656 -2.68339 -1.82111 0
M  V30 2152 H 209.441 -3.88676 -0.517082 0
M  V30 2153 H 210.931 -3.89451 -1.50723 0
M  V30 2154 N 211.368 -0.403325 -1.52352 0
M  V30 2155 C 212.614 0.174605 -2.02047 0
M  V30 2156 C 212.947 1.45282 -1.28867 0
M  V30 2157 O 212.222 1.90483 -0.393257 0
M  V30 2158 C 212.505 0.428238 -3.57545 0
M  V30 2159 C 212.358 -0.866248 -4.4138 0
M  V30 2160 C 213.677 1.21287 -4.23057 0
M  V30 2161 H 210.796 0.0619851 -0.734389 0
M  V30 2162 H 213.438 -0.53565 -1.82293 0
M  V30 2163 H 211.588 1.03327 -3.74507 0
M  V30 2164 H 213.26 -1.50265 -4.3614 0
M  V30 2165 H 211.503 -1.47851 -4.07827 0
M  V30 2166 H 212.174 -0.643249 -5.48239 0
M  V30 2167 H 214.65 0.700703 -4.10158 0
M  V30 2168 H 213.526 1.35909 -5.31808 0
M  V30 2169 H 213.787 2.23193 -3.81625 0
M  V30 2170 N 212.846 1.57033 -0.133567 0
M  V30 2171 C 214.123 1.87256 0.56522 0
M  V30 2172 C 214.503 1.03726 1.83859 0
M  V30 2173 O 213.851 0.120247 2.28183 0
M  V30 2174 C 214.061 3.3865 0.843636 0
M  V30 2175 C 215.409 4.07574 1.19032 0
M  V30 2176 O 216.433 3.43752 0.933429 0
M  V30 2177 O 215.292 5.20259 1.67312 0
M  V30 2178 H 212.386 0.775678 0.286796 0
M  V30 2179 H 214.932 1.68855 -0.169168 0
M  V30 2180 H 213.704 3.91257 -0.0581149 0
M  V30 2181 H 213.327 3.62532 1.63268 0
M  V30 2182 N 214.325 -0.140222 1.56975 0
M  V30 2183 C 215.573 -0.850005 1.83356 0
M  V30 2184 C 215.894 -1.81399 0.71551 0
M  V30 2185 O 215.164 -1.94136 -0.262294 0
M  V30 2186 H 213.744 -0.316886 0.676456 0
M  V30 2187 H 216.406 -0.132608 1.94448 0
M  V30 2188 H 215.502 -1.40814 2.78528 0
M  V30 2189 N 215.803 -1.52179 -0.40978 0
M  V30 2190 C 216.733 -1.78435 -1.5061 0
M  V30 2191 C 217.714 -0.635295 -1.57791 0
M  V30 2192 O 218.899 -0.880823 -1.73076 0
M  V30 2193 C 216.029 -1.93444 -2.88439 0
M  V30 2194 C 214.983 -3.09038 -2.96108 0
M  V30 2195 C 214.309 -3.09268 -4.36185 0
M  V30 2196 C 215.609 -4.48508 -2.67652 0
M  V30 2197 H 217.303 -2.70237 -1.28889 0
M  V30 2198 H 214.849 -1.30036 -0.618605 0
M  V30 2199 H 216.802 -2.10394 -3.65119 0
M  V30 2200 H 215.526 -0.983129 -3.11452 0
M  V30 2201 H 214.185 -2.91837 -2.21872 0
M  V30 2202 H 213.833 -2.11861 -4.56206 0
M  V30 2203 H 213.533 -3.86907 -4.42241 0
M  V30 2204 H 215.057 -3.28348 -5.14801 0
M  V30 2205 H 216.471 -4.65918 -3.34056 0
M  V30 2206 H 214.868 -5.28059 -2.85085 0
M  V30 2207 H 215.938 -4.56649 -1.63095 0
M  V30 2208 N 217.281 0.66697 -1.42791 0
M  V30 2209 C 218.213 1.7925 -1.42836 0
M  V30 2210 C 219.226 1.59496 -0.326333 0
M  V30 2211 O 220.415 1.6847 -0.589916 0
M  V30 2212 C 217.515 3.16476 -1.21229 0
M  V30 2213 C 216.688 3.63011 -2.44013 0
M  V30 2214 C 215.747 4.78993 -2.17834 0
M  V30 2215 O 214.773 4.89137 -2.91091 0
M  V30 2216 N 215.975 5.68248 -1.18635 0
M  V30 2217 H 218.74 1.79695 -2.39854 0
M  V30 2218 H 216.301 0.850338 -1.37771 0
M  V30 2219 H 218.293 3.91734 -1.01621 0
M  V30 2220 H 216.863 3.10884 -0.32706 0
M  V30 2221 H 216.083 2.78346 -2.79137 0
M  V30 2222 H 217.371 3.90845 -3.25757 0
M  V30 2223 H 216.769 5.62712 -0.580615 0
M  V30 2224 H 215.326 6.43285 -1.05013 0
M  V30 2225 N 218.759 1.29093 0.90403 0
M  V30 2226 C 219.669 1.15727 2.0407 0
M  V30 2227 C 220.685 0.0815308 1.73809 0
M  V30 2228 O 221.861 0.292749 1.99261 0
M  V30 2229 C 218.926 0.830424 3.36608 0
M  V30 2230 C 217.987 1.98955 3.80415 0
M  V30 2231 C 217.22 1.6782 5.06628 0
M  V30 2232 O 217.443 0.597105 5.67266 0
M  V30 2233 O 216.377 2.52486 5.46383 0
M  V30 2234 H 220.203 2.11171 2.18267 0
M  V30 2235 H 217.788 1.08504 1.027 0
M  V30 2236 H 219.67 0.662521 4.16159 0
M  V30 2237 H 218.345 -0.0942678 3.23563 0
M  V30 2238 H 217.252 2.21267 3.01648 0
M  V30 2239 H 218.585 2.89529 3.98037 0
M  V30 2240 N 220.237 -1.11381 1.11499 0
M  V30 2241 C 221.483 -1.83403 0.865512 0
M  V30 2242 C 221.816 -1.84459 -0.607329 0
M  V30 2243 O 221.091 -1.29811 -1.44842 0
M  V30 2244 C 221.374 -3.30552 1.42855 0
M  V30 2245 C 221.227 -3.37886 2.96906 0
M  V30 2246 C 222.546 -4.26643 1.08 0
M  V30 2247 H 219.665 -0.665879 0.31587 0
M  V30 2248 H 222.307 -1.30601 1.37998 0
M  V30 2249 H 220.457 -3.75648 0.990985 0
M  V30 2250 H 222.129 -3.01343 3.49271 0
M  V30 2251 H 220.372 -2.78088 3.32941 0
M  V30 2252 H 221.043 -4.41458 3.31389 0
M  V30 2253 H 223.519 -3.89729 1.45775 0
M  V30 2254 H 222.395 -5.27986 1.50072 0
M  V30 2255 H 222.656 -4.42099 -0.00915037 0
M  V30 2256 N 221.715 -0.905404 -1.28997 0
M  V30 2257 C 222.647 -0.344748 -2.26592 0
M  V30 2258 C 223.66 0.512135 -1.54535 0
M  V30 2259 O 224.849 0.328368 -1.75454 0
M  V30 2260 C 221.949 0.526587 -3.34784 0
M  V30 2261 C 221.122 -0.305871 -4.36329 0
M  V30 2262 C 220.181 0.499209 -5.23827 0
M  V30 2263 O 219.207 -0.0853004 -5.69136 0
M  V30 2264 N 220.409 1.80408 -5.51755 0
M  V30 2265 H 223.174 -1.18359 -2.75338 0
M  V30 2266 H 220.735 -0.770481 -1.42391 0
M  V30 2267 H 222.727 1.07171 -3.90252 0
M  V30 2268 H 221.297 1.26613 -2.85811 0
M  V30 2269 H 220.517 -1.0324 -3.80441 0
M  V30 2270 H 221.805 -0.875773 -5.01206 0
M  V30 2271 H 221.203 2.3016 -5.16762 0
M  V30 2272 H 219.76 2.29621 -6.10014 0
M  V30 2273 N 223.193 1.4272 -0.668489 0
M  V30 2274 C 224.609 1.55992 -0.33745 0
M  V30 2275 C 224.809 1.64933 1.15756 0
M  V30 2276 O 223.865 1.61278 1.94282 0
M  V30 2277 C 225.178 2.81314 -1.06222 0
M  V30 2278 C 226.726 2.95078 -1.04394 0
M  V30 2279 C 227.201 4.23252 -1.74991 0
M  V30 2280 N 228.692 4.3015 -1.71829 0
M  V30 2281 C 229.427 5.28127 -2.23315 0
M  V30 2282 N 228.923 6.32293 -2.83156 0
M  V30 2283 N 230.716 5.19882 -2.13726 0
M  V30 2284 H 222.867 1.3516 -1.63846 0
M  V30 2285 H 225.13 0.650174 -0.689912 0
M  V30 2286 H 224.836 2.80823 -2.11734 0
M  V30 2287 H 224.71 3.72012 -0.62344 0
M  V30 2288 H 227.097 2.951 0.0028244 0
M  V30 2289 H 227.178 2.05627 -1.52155 0
M  V30 2290 H 226.822 4.2399 -2.79633 0
M  V30 2291 H 226.752 5.11626 -1.24685 0
M  V30 2292 H 229.243 3.55499 -1.28175 0
M  V30 2293 H 229.556 7.03398 -3.20079 0
M  V30 2294 H 227.901 6.32873 -2.87223 0
M  V30 2295 H 231.092 4.37423 -1.66669 0
M  V30 2296 H 231.265 5.96077 -2.54158 0
M  V30 2297 N 224.671 0.411399 1.52136 0
M  V30 2298 C 225.603 -0.448386 2.24771 0
M  V30 2299 C 226.616 -1.00828 1.27818 0
M  V30 2300 O 227.805 -0.906841 1.53749 0
M  V30 2301 C 224.905 -1.63636 2.96777 0
M  V30 2302 C 224.078 -1.19995 4.20618 0
M  V30 2303 C 223.137 -2.25509 4.75428 0
M  V30 2304 O 222.163 -1.86007 5.3795 0
M  V30 2305 N 223.365 -3.577 4.57199 0
M  V30 2306 H 226.13 0.174025 2.99194 0
M  V30 2307 H 223.691 0.238897 1.60128 0
M  V30 2308 H 225.683 -2.33793 3.30338 0
M  V30 2309 H 224.253 -2.16465 2.25526 0
M  V30 2310 H 223.473 -0.326421 3.92846 0
M  V30 2311 H 224.761 -0.885365 5.01038 0
M  V30 2312 H 224.159 -3.92543 4.07341 0
M  V30 2313 H 222.716 -4.23827 4.95191 0
M  V30 2314 N 226.149 -1.5696 0.141893 0
M  V30 2315 C 227.112 -2.15316 -0.785587 0
M  V30 2316 C 228.112 -1.09366 -1.1788 0
M  V30 2317 O 229.302 -1.35031 -1.10056 0
M  V30 2318 C 226.434 -2.71211 -2.06537 0
M  V30 2319 H 227.627 -2.98608 -0.278041 0
M  V30 2320 H 225.18 -1.5593 -0.107519 0
M  V30 2321 H 225.915 -1.91571 -2.6167 0
M  V30 2322 H 225.7 -3.4872 -1.79268 0
M  V30 2323 H 227.19 -3.16189 -2.72789 0
M  V30 2324 N 227.627 0.131896 -1.57047 0
M  V30 2325 C 228.559 1.1878 -1.9602 0
M  V30 2326 C 229.572 1.38363 -0.857875 0
M  V30 2327 O 230.761 1.37666 -1.13623 0
M  V30 2328 C 227.861 2.55008 -2.23213 0
M  V30 2329 C 227.034 2.56201 -3.54513 0
M  V30 2330 C 226.093 3.7408 -3.70069 0
M  V30 2331 O 225.119 3.58258 -4.42312 0
M  V30 2332 N 226.321 4.92137 -3.07866 0
M  V30 2333 H 229.086 0.85639 -2.87204 0
M  V30 2334 H 226.647 0.321309 -1.5868 0
M  V30 2335 H 228.639 3.32404 -2.30846 0
M  V30 2336 H 227.209 2.80382 -1.3822 0
M  V30 2337 H 226.429 1.64613 -3.58185 0
M  V30 2338 H 227.717 2.54043 -4.4084 0
M  V30 2339 H 227.115 5.07895 -2.49116 0
M  V30 2340 H 225.672 5.67254 -3.21039 0
M  V30 2341 N 229.106 1.52395 0.401703 0
M  V30 2342 C 230.016 1.7917 1.51444 0
M  V30 2343 C 231.032 0.677691 1.6026 0
M  V30 2344 O 232.208 0.963909 1.76835 0
M  V30 2345 C 229.273 1.94347 2.87107 0
M  V30 2346 C 228.334 3.18257 2.88116 0
M  V30 2347 C 227.567 3.32701 4.17308 0
M  V30 2348 O 227.79 2.52238 5.11598 0
M  V30 2349 O 226.724 4.25891 4.25324 0
M  V30 2350 H 230.55 2.73633 1.31752 0
M  V30 2351 H 228.135 1.3733 0.588296 0
M  V30 2352 H 230.017 2.06109 3.67555 0
M  V30 2353 H 228.692 1.03073 3.06851 0
M  V30 2354 H 227.599 3.11947 2.06494 0
M  V30 2355 H 228.932 4.09336 2.73322 0
M  V30 2356 N 230.584 -0.659388 1.43143 0
M  V30 2357 C 231.832 -1.41654 1.44147 0
M  V30 2358 C 232.153 -1.94893 0.0645739 0
M  V30 2359 O 231.423 -1.74044 -0.899198 0
M  V30 2360 H 230.003 -0.525708 0.530697 0
M  V30 2361 H 232.665 -0.778097 1.78694 0
M  V30 2362 H 231.761 -2.26195 2.1504 0
M  V30 2363 N 232.062 -1.29571 -0.897171 0
M  V30 2364 C 233.009 -1.14916 -2.00158 0
M  V30 2365 C 233.979 -0.0418149 -1.66047 0
M  V30 2366 O 235.164 -0.209793 -1.89643 0
M  V30 2367 C 232.304 -0.834307 -3.34863 0
M  V30 2368 C 231.417 -2.02234 -3.8174 0
M  V30 2369 C 230.552 -1.64664 -5.05034 0
M  V30 2370 C 229.591 -2.80033 -5.44286 0
M  V30 2371 N 228.728 -2.42843 -6.58765 0
M  V30 2372 H 233.568 -2.09403 -2.12025 0
M  V30 2373 H 231.105 -1.042 -1.0383 0
M  V30 2374 H 233.063 -0.632436 -4.12379 0
M  V30 2375 H 231.693 0.0736656 -3.22716 0
M  V30 2376 H 230.745 -2.33583 -3.00238 0
M  V30 2377 H 232.057 -2.88673 -4.06779 0
M  V30 2378 H 231.211 -1.4078 -5.9014 0
M  V30 2379 H 229.95 -0.753766 -4.8184 0
M  V30 2380 H 228.955 -3.04596 -4.57713 0
M  V30 2381 H 230.18 -3.69989 -5.6946 0
M  V30 2382 H 228.126 -1.56046 -6.3717 0
M  V30 2383 H 228.043 -3.22815 -6.83613 0
M  V30 2384 H 229.311 -2.22285 -7.47134 0
M  V30 2385 N 233.54 1.10788 -1.12088 0
M  V30 2386 C 234.488 2.19111 -0.780587 0
M  V30 2387 C 235.482 1.67818 0.230961 0
M  V30 2388 O 236.688 1.79777 0.0895427 0
M  V30 2389 H 233.063 0.714477 -0.234578 0
M  V30 2390 H 235.034 2.45055 -1.70266 0
M  V30 2391 C 233.783 3.46818 -0.24747 0
M  V30 2392 H 233.106 3.86646 -1.01712 0
M  V30 2393 H 234.546 4.23973 -0.0476291 0
M  V30 2394 C 233.005 3.20968 1.02378 0
M  V30 2395 O 233.535 3.42298 2.10226 0
M  V30 2396 N 231.741 2.74658 0.949271 0
M  V30 2397 H 231.288 2.57501 0.0715173 0
M  V30 2398 H 231.246 2.57739 1.80049 0
M  V30 2399 N 235.018 0.912232 1.28515 0
M  V30 2400 C 236.267 0.540504 1.94323 0
M  V30 2401 C 236.58 -0.920044 1.72611 0
M  V30 2402 O 237.786 -1.39986 2.32629 0
M  V30 2403 C 236.242 0.915803 3.48053 0
M  V30 2404 C 235.85 2.39598 3.78546 0
M  V30 2405 C 237.594 0.614588 4.20027 0
M  V30 2406 C 235.501 2.71148 5.25578 0
M  V30 2407 H 234.431 0.198418 0.727424 0
M  V30 2408 H 237.082 1.11094 1.46049 0
M  V30 2409 H 235.464 0.274168 3.9505 0
M  V30 2410 H 236.638 3.08422 3.42364 0
M  V30 2411 H 234.953 2.66749 3.1974 0
M  V30 2412 H 237.55 0.827002 5.28266 0
M  V30 2413 H 237.893 -0.447531 4.13887 0
M  V30 2414 H 238.426 1.21462 3.78803 0
M  V30 2415 H 235.165 3.76207 5.36794 0
M  V30 2416 H 234.685 2.0696 5.62963 0
M  V30 2417 H 236.364 2.58072 5.93302 0
M  V30 2418 N 236.496 -1.42363 0.676048 0
M  V30 2419 C 237.744 -2.01123 0.198437 0
M  V30 2420 C 238.065 -1.53731 -1.19966 0
M  V30 2421 O 237.335 -0.759518 -1.80577 0
M  V30 2422 H 235.915 -0.743678 0.0703721 0
M  V30 2423 H 238.577 -1.74263 0.872837 0
M  V30 2424 H 237.673 -3.11454 0.200686 0
M  V30 2425 N 237.974 -0.419461 -1.51915 0
M  V30 2426 C 239.202 0.152136 -2.0634 0
M  V30 2427 C 239.617 1.37988 -1.28859 0
M  V30 2428 O 238.974 1.79243 -0.343232 0
M  V30 2429 C 239.025 0.492266 -3.58133 0
M  V30 2430 O 238.746 -0.686736 -4.32684 0
M  V30 2431 C 240.247 1.11648 -4.2901 0
M  V30 2432 H 237.467 0.0158325 -0.670813 0
M  V30 2433 H 240.011 -0.593394 -1.95702 0
M  V30 2434 H 238.166 1.18769 -3.68745 0
M  V30 2435 H 238.58 -0.400341 -5.2297 0
M  V30 2436 H 240.054 1.3046 -5.36362 0
M  V30 2437 H 240.531 2.09251 -3.86148 0
M  V30 2438 H 241.137 0.460958 -4.22795 0
M  V30 2439 N 239.452 1.56882 -0.150215 0
M  V30 2440 C 240.68 2.00593 0.506948 0
M  V30 2441 C 241.095 1.03033 1.58208 0
M  V30 2442 O 240.452 0.0278396 1.82479 0
M  V30 2443 C 240.503 3.44209 1.10465 0
M  V30 2444 O 240.224 4.3804 0.0724636 0
M  V30 2445 C 241.725 4.03214 1.84211 0
M  V30 2446 H 238.945 0.65795 0.13169 0
M  V30 2447 H 241.489 2.03018 -0.245743 0
M  V30 2448 H 239.644 3.42625 1.80795 0
M  V30 2449 H 240.058 5.22007 0.510793 0
M  V30 2450 H 241.532 5.0569 2.21318 0
M  V30 2451 H 242.009 3.44107 2.72923 0
M  V30 2452 H 242.615 4.08437 1.18572 0
M  V30 2453 N 240.93 -0.123565 1.57115 0
M  V30 2454 C 241.877 -1.15177 2.00007 0
M  V30 2455 C 242.847 -1.41403 0.871454 0
M  V30 2456 O 244.032 -1.53346 1.13533 0
M  V30 2457 C 241.172 -2.47436 2.40561 0
M  V30 2458 C 240.285 -2.28184 3.66819 0
M  V30 2459 C 239.42 -3.53641 3.96373 0
M  V30 2460 C 238.459 -3.29528 5.15827 0
M  V30 2461 N 237.596 -4.47175 5.41275 0
M  V30 2462 H 242.436 -0.779008 2.87638 0
M  V30 2463 H 239.973 -0.373166 1.42288 0
M  V30 2464 H 241.931 -3.24584 2.62109 0
M  V30 2465 H 240.561 -2.82614 1.55978 0
M  V30 2466 H 239.613 -1.41976 3.52912 0
M  V30 2467 H 240.925 -2.0634 4.5412 0
M  V30 2468 H 240.079 -4.39209 4.18545 0
M  V30 2469 H 238.818 -3.78512 3.07538 0
M  V30 2470 H 237.823 -2.42349 4.93505 0
M  V30 2471 H 239.048 -3.06031 6.06236 0
M  V30 2472 H 236.994 -4.72175 4.55397 0
M  V30 2473 H 236.911 -4.28419 6.22891 0
M  V30 2474 H 238.179 -5.3389 5.67963 0
M  V30 2475 N 242.408 -1.52605 -0.393616 0
M  V30 2476 C 243.355 -1.77055 -1.48054 0
M  V30 2477 C 244.325 -0.61358 -1.54352 0
M  V30 2478 O 245.51 -0.852806 -1.70681 0
M  V30 2479 C 242.65 -1.94108 -2.85335 0
M  V30 2480 C 241.763 -3.21792 -2.88226 0
M  V30 2481 C 240.898 -3.29188 -4.16904 0
M  V30 2482 C 239.937 -4.51013 -4.13828 0
M  V30 2483 N 239.074 -4.55716 -5.34105 0
M  V30 2484 H 243.914 -2.69815 -1.26506 0
M  V30 2485 H 241.451 -1.33683 -0.61379 0
M  V30 2486 H 243.409 -2.01979 -3.65049 0
M  V30 2487 H 242.039 -1.04713 -3.05344 0
M  V30 2488 H 241.091 -3.23015 -2.00911 0
M  V30 2489 H 242.403 -4.11557 -2.8182 0
M  V30 2490 H 241.557 -3.36216 -5.05018 0
M  V30 2491 H 240.296 -2.37389 -4.26026 0
M  V30 2492 H 239.301 -4.44115 -3.24102 0
M  V30 2493 H 240.526 -5.44123 -4.06333 0
M  V30 2494 H 238.472 -3.66807 -5.43865 0
M  V30 2495 H 238.389 -5.39346 -5.29756 0
M  V30 2496 H 239.657 -4.66993 -6.2413 0
M  V30 2497 N 243.887 0.651787 -1.4349 0
M  V30 2498 C 245.135 1.40888 -1.44897 0
M  V30 2499 C 245.456 1.94856 -0.0749086 0
M  V30 2500 O 244.726 1.74518 0.889956 0
M  V30 2501 H 243.306 0.522887 -0.533478 0
M  V30 2502 H 245.968 0.768609 -1.79104 0
M  V30 2503 H 245.064 2.25052 -2.16236 0
M  V30 2504 N 245.365 1.30045 0.890287 0
M  V30 2505 C 246.614 1.17929 1.63633 0
M  V30 2506 C 246.927 -0.266204 1.9378 0
M  V30 2507 O 248.133 -0.508804 2.6669 0
M  V30 2508 C 246.589 2.06317 2.94892 0
M  V30 2509 C 246.197 3.55745 2.72305 0
M  V30 2510 C 247.941 2.0295 3.72843 0
M  V30 2511 C 245.848 4.36205 3.99348 0
M  V30 2512 H 244.778 0.437782 0.613892 0
M  V30 2513 H 247.429 1.54754 0.986075 0
M  V30 2514 H 245.811 1.6237 3.61182 0
M  V30 2515 H 246.985 4.07805 2.1455 0
M  V30 2516 H 245.3 3.6088 2.07737 0
M  V30 2517 H 247.897 2.60319 4.67053 0
M  V30 2518 H 248.24 1.0117 4.0382 0
M  V30 2519 H 248.773 2.4499 3.13408 0
M  V30 2520 H 245.512 5.38659 3.73533 0
M  V30 2521 H 245.032 3.8891 4.56628 0
M  V30 2522 H 246.711 4.47362 4.67415 0
M  V30 2523 N 246.843 -1.10192 1.12674 0
M  V30 2524 C 248.091 -1.81845 0.881861 0
M  V30 2525 C 248.412 -1.85737 -0.593867 0
M  V30 2526 O 247.682 -1.33724 -1.4316 0
M  V30 2527 H 246.262 -0.673432 0.323261 0
M  V30 2528 H 248.924 -1.33316 1.42172 0
M  V30 2529 H 248.02 -2.85288 1.2656 0
M  V30 2530 N 248.321 -0.919034 -1.28029 0
M  V30 2531 C 249.732 -0.600735 -1.76771 0
M  V30 2532 C 250.083 0.884024 -1.75156 0
M  V30 2533 O 249.208 1.69163 -1.34956 0
M  V30 2534 C 249.803 -1.08372 -3.21 0
M  V30 2535 C 248.362 -0.816248 -3.67443 0
M  V30 2536 C 247.509 -1.24742 -2.47658 0
M  V30 2537 H 250.46 -1.09974 -1.14418 0
M  V30 2538 H 250.481 -0.427512 -3.78091 0
M  V30 2539 H 249.993 -2.16437 -3.22144 0
M  V30 2540 H 248.094 0.250968 -3.71754 0
M  V30 2541 H 248.207 -1.4277 -4.57333 0
M  V30 2542 H 246.571 -0.666083 -2.45836 0
M  V30 2543 H 247.354 -2.33653 -2.51518 0
M  V30 2544 N 249.799 1.42003 -0.683588 0
M  V30 2545 C 251.027 2.05746 -0.218182 0
M  V30 2546 C 251.442 1.51396 1.12804 0
M  V30 2547 O 250.799 0.657303 1.70252 0
M  V30 2548 C 250.85 3.61171 -0.154131 0
M  V30 2549 O 250.571 4.13508 -1.44716 0
M  V30 2550 C 252.072 4.42042 0.333713 0
M  V30 2551 H 249.292 0.662888 -0.10402 0
M  V30 2552 H 251.836 1.81987 -0.9328 0
M  V30 2553 H 249.991 3.84012 0.511231 0
M  V30 2554 H 250.405 5.07453 -1.32632 0
M  V30 2555 H 251.879 5.51028 0.327423 0
M  V30 2556 H 252.356 4.17269 1.37053 0
M  V30 2557 H 252.962 4.24239 -0.300222 0
M  V30 2558 N 251.277 0.427512 1.51691 0
M  V30 2559 C 252.507 -0.140986 2.06118 0
M  V30 2560 C 252.915 -1.37854 1.29588 0
M  V30 2561 O 252.258 -1.80411 0.346036 0
M  V30 2562 C 252.32 -0.538276 3.55447 0
M  V30 2563 C 251.984 0.591095 4.53161 0
M  V30 2564 C 252.981 1.46027 4.98971 0
M  V30 2565 C 250.666 0.769028 4.96378 0
M  V30 2566 C 252.66 2.49216 5.8666 0
M  V30 2567 C 250.347 1.80421 5.83859 0
M  V30 2568 C 251.345 2.66417 6.28897 0
M  V30 2569 O 251.033 3.68159 7.14643 0
M  V30 2570 H 250.765 -0.0157455 0.675817 0
M  V30 2571 H 253.319 0.602495 1.96365 0
M  V30 2572 H 251.549 -1.33432 3.6295 0
M  V30 2573 H 253.238 -1.0368 3.92435 0
M  V30 2574 H 254.004 1.33429 4.66285 0
M  V30 2575 H 249.883 0.109273 4.6087 0
M  V30 2576 H 253.427 3.16372 6.21735 0
M  V30 2577 H 249.324 1.93042 6.15959 0
M  V30 2578 H 250.092 3.64622 7.32798 0
M  V30 2579 N 252.755 -1.56801 0.158532 0
M  V30 2580 C 253.98 -2.01295 -0.499516 0
M  V30 2581 C 254.405 -1.03799 -1.56867 0
M  V30 2582 O 253.763 -0.0155162 -1.81293 0
M  V30 2583 C 253.811 -3.44469 -1.06647 0
M  V30 2584 O 252.915 -3.50012 -2.18095 0
M  V30 2585 H 252.256 -0.652884 -0.12099 0
M  V30 2586 H 254.786 -2.02958 0.258661 0
M  V30 2587 H 254.796 -3.8351 -1.39227 0
M  V30 2588 H 253.471 -4.14932 -0.283581 0
M  V30 2589 H 252.048 -3.22822 -1.86656 0
M  V30 2590 N 254.233 0.115231 -1.57178 0
M  V30 2591 C 255.458 0.840354 -1.89612 0
M  V30 2592 C 255.883 1.72464 -0.750845 0
M  V30 2593 O 255.241 1.78826 0.298478 0
M  V30 2594 C 255.289 1.64654 -3.20814 0
M  V30 2595 O 254.393 2.7538 -3.06985 0
M  V30 2596 H 253.734 0.232158 -0.622092 0
M  V30 2597 H 256.264 0.0964977 -2.04372 0
M  V30 2598 H 256.274 2.03499 -3.53627 0
M  V30 2599 H 254.949 0.997416 -4.03763 0
M  V30 2600 H 253.526 2.3971 -2.85646 0
M  V30 2601 N 255.711 1.52812 0.385517 0
M  V30 2602 C 256.658 1.77838 1.47113 0
M  V30 2603 C 257.628 0.621757 1.54024 0
M  V30 2604 O 258.813 0.861846 1.70226 0
M  V30 2605 C 255.953 1.95618 2.84302 0
M  V30 2606 C 255.066 3.23316 2.86515 0
M  V30 2607 C 254.201 3.31394 4.15152 0
M  V30 2608 C 253.24 4.53201 4.1143 0
M  V30 2609 N 252.377 4.58542 5.3168 0
M  V30 2610 H 257.217 2.70482 1.25073 0
M  V30 2611 H 254.754 1.34006 0.606692 0
M  V30 2612 H 256.712 2.03912 3.63972 0
M  V30 2613 H 255.342 1.06331 3.04784 0
M  V30 2614 H 254.394 3.24076 1.99195 0
M  V30 2615 H 255.706 4.13045 2.79634 0
M  V30 2616 H 254.86 3.3889 5.03228 0
M  V30 2617 H 253.599 2.39645 4.24761 0
M  V30 2618 H 252.604 4.45827 3.21742 0
M  V30 2619 H 253.829 5.46271 4.03442 0
M  V30 2620 H 251.775 3.69686 5.41912 0
M  V30 2621 H 251.692 5.42148 5.26889 0
M  V30 2622 H 252.96 4.70296 6.21644 0
M  V30 2623 N 257.189 -0.644168 1.43834 0
M  V30 2624 C 258.152 -1.73857 1.49353 0
M  V30 2625 C 259.152 -1.56315 0.377112 0
M  V30 2626 O 260.342 -1.62048 0.639226 0
M  V30 2627 C 257.474 -3.12819 1.35488 0
M  V30 2628 H 258.667 -1.70342 2.46827 0
M  V30 2629 H 256.22 -0.856652 1.30733 0
M  V30 2630 H 256.955 -3.2194 0.390569 0
M  V30 2631 H 256.74 -3.26958 2.16428 0
M  V30 2632 H 258.23 -3.92606 1.42302 0
M  V30 2633 N 258.668 -1.30515 -0.883378 0
M  V30 2634 C 259.631 -1.1701 -1.97082 0
M  V30 2635 C 260.631 -0.10089 -1.60483 0
M  V30 2636 O 261.821 -0.349127 -1.70666 0
M  V30 2637 C 258.953 -0.793045 -3.31547 0
M  V30 2638 H 260.146 -2.13622 -2.10489 0
M  V30 2639 H 257.699 -1.13935 -1.06998 0
M  V30 2640 H 258.434 0.172499 -3.23841 0
M  V30 2641 H 258.219 -1.56576 -3.5948 0
M  V30 2642 H 259.709 -0.722073 -4.1131 0
M  V30 2643 N 260.146 1.09593 -1.13257 0
M  V30 2644 C 261.562 1.33775 -0.870423 0
M  V30 2645 C 261.762 1.95327 0.494926 0
M  V30 2646 O 260.818 2.19853 1.2418 0
M  V30 2647 C 262.131 2.25106 -1.99369 0
M  V30 2648 C 263.679 2.3862 -2.02558 0
M  V30 2649 C 264.154 3.33285 -3.14142 0
M  V30 2650 N 265.645 3.40857 -3.13641 0
M  V30 2651 C 266.38 4.14101 -3.96621 0
M  V30 2652 N 265.876 4.90157 -4.8961 0
M  V30 2653 N 267.669 4.09808 -3.84726 0
M  V30 2654 H 259.82 0.680136 -2.01216 0
M  V30 2655 H 262.083 0.362133 -0.876107 0
M  V30 2656 H 261.789 1.87103 -2.97801 0
M  V30 2657 H 261.663 3.25481 -1.90635 0
M  V30 2658 H 264.05 2.75887 -1.0474 0
M  V30 2659 H 264.131 1.38028 -2.15364 0
M  V30 2660 H 263.775 2.96741 -4.12198 0
M  V30 2661 H 263.705 4.33776 -2.98574 0
M  V30 2662 H 266.196 2.86624 -2.46282 0
M  V30 2663 H 266.509 5.4347 -5.49418 0
M  V30 2664 H 264.854 4.89251 -4.93617 0
M  V30 2665 H 268.045 3.4949 -3.11408 0
M  V30 2666 H 268.218 4.66629 -4.49623 0
M  V30 2667 N 261.624 0.925811 1.2754 0
M  V30 2668 C 262.852 0.581509 1.9856 0
M  V30 2669 C 263.267 -0.840041 1.69082 0
M  V30 2670 O 262.624 -1.55805 0.950312 0
M  V30 2671 C 262.675 0.795589 3.52637 0
M  V30 2672 O 262.396 2.16121 3.81082 0
M  V30 2673 C 263.897 0.459744 4.4091 0
M  V30 2674 H 261.117 0.220538 0.633722 0
M  V30 2675 H 263.661 1.24232 1.6244 0
M  V30 2676 H 261.816 0.18161 3.86974 0
M  V30 2677 H 262.23 2.2098 4.75676 0
M  V30 2678 H 263.704 0.660244 5.48037 0
M  V30 2679 H 264.181 -0.604625 4.35018 0
M  V30 2680 H 264.787 1.05178 4.12089 0
M  V30 2681 N 263.102 -1.41638 0.69111 0
M  V30 2682 C 264.35 -2.00902 0.219758 0
M  V30 2683 C 264.671 -1.54994 -1.18329 0
M  V30 2684 O 263.941 -0.778628 -1.79762 0
M  V30 2685 H 262.521 -0.74289 0.0782558 0
M  V30 2686 H 265.183 -1.73327 0.891271 0
M  V30 2687 H 264.279 -3.11224 0.233708 0
M  V30 2688 N 264.58 -0.43555 -1.51462 0
M  V30 2689 C 265.51 0.367376 -2.30592 0
M  V30 2690 C 266.491 1.02263 -1.35928 0
M  V30 2691 O 267.676 1.02661 -1.64847 0
M  V30 2692 C 264.806 1.46983 -3.14664 0
M  V30 2693 C 263.76 0.938161 -4.17591 0
M  V30 2694 C 263.086 2.13622 -4.90173 0
M  V30 2695 C 264.386 -0.0261621 -5.22293 0
M  V30 2696 H 266.08 -0.292969 -2.97963 0
M  V30 2697 H 263.626 -0.14234 -1.43295 0
M  V30 2698 H 265.579 2.03873 -3.688 0
M  V30 2699 H 264.303 2.15843 -2.4511 0
M  V30 2700 H 262.962 0.391481 -3.64504 0
M  V30 2701 H 262.61 2.81098 -4.17124 0
M  V30 2702 H 262.31 1.78688 -5.59772 0
M  V30 2703 H 263.834 2.7107 -5.47132 0
M  V30 2704 H 265.248 0.452384 -5.71512 0
M  V30 2705 H 263.645 -0.287992 -5.99409 0
M  V30 2706 H 264.715 -0.963391 -4.75233 0
M  V30 2707 N 266.058 1.56714 -0.166846 0
M  V30 2708 C 267.474 1.58473 0.189372 0
M  V30 2709 C 267.674 1.18201 1.63189 0
M  V30 2710 O 266.73 0.891528 2.36237 0
M  V30 2711 C 268.043 3.00573 -0.0873872 0
M  V30 2712 C 269.591 3.1299 -0.0252443 0
M  V30 2713 C 270.066 4.57174 -0.274934 0
M  V30 2714 N 271.557 4.62665 -0.222553 0
M  V30 2715 C 272.292 5.72072 -0.389985 0
M  V30 2716 N 271.788 6.90054 -0.616229 0
M  V30 2717 N 273.581 5.61153 -0.326202 0
M  V30 2718 H 265.732 1.8118 -1.10849 0
M  V30 2719 H 267.995 0.839525 -0.440342 0
M  V30 2720 H 267.701 3.34497 -1.0865 0
M  V30 2721 H 267.575 3.72019 0.623037 0
M  V30 2722 H 269.962 2.78895 0.96444 0
M  V30 2723 H 270.043 2.43989 -0.768309 0
M  V30 2724 H 269.687 4.91976 -1.26181 0
M  V30 2725 H 269.617 5.24328 0.48869 0
M  V30 2726 H 272.108 3.77863 -0.0531512 0
M  V30 2727 H 272.421 7.69311 -0.733559 0
M  V30 2728 H 270.766 6.91927 -0.652791 0
M  V30 2729 H 273.957 4.67859 -0.150072 0
M  V30 2730 H 274.13 6.46364 -0.460116 0
M  V30 2731 N 267.536 -0.106894 1.57237 0
M  V30 2732 C 268.785 -0.811163 1.8467 0
M  V30 2733 C 269.098 -1.80469 0.754342 0
M  V30 2734 O 270.304 -2.55601 0.915439 0
M  V30 2735 C 268.76 -1.49337 3.27454 0
M  V30 2736 C 268.368 -0.540217 4.44731 0
M  V30 2737 C 270.112 -2.18206 3.64124 0
M  V30 2738 C 268.019 -1.22634 5.78545 0
M  V30 2739 H 266.949 -0.306679 0.688813 0
M  V30 2740 H 269.6 -0.0639887 1.83388 0
M  V30 2741 H 267.982 -2.2876 3.23241 0
M  V30 2742 H 269.156 0.221659 4.60267 0
M  V30 2743 H 267.471 0.042146 4.16379 0
M  V30 2744 H 270.068 -2.70253 4.61376 0
M  V30 2745 H 270.411 -2.96562 2.92158 0
M  V30 2746 H 270.944 -1.45658 3.70174 0
M  V30 2747 H 267.683 -0.483832 6.53712 0
M  V30 2748 H 267.203 -1.95993 5.66874 0
M  V30 2749 H 268.882 -1.75615 6.2271 0
M  V30 2750 N 269.014 -1.53014 -0.377408 0
M  V30 2751 C 270.254 -1.70318 -1.1301 0
M  V30 2752 C 270.618 -0.439538 -1.86901 0
M  V30 2753 O 271.819 -0.489095 -2.64313 0
M  V30 2754 C 270.09 -2.91125 -2.07319 0
M  V30 2755 S 271.649 -3.29075 -2.90268 0
M  V30 2756 H 268.467 -0.599426 -0.382374 0
M  V30 2757 H 271.069 -1.91089 -0.412933 0
M  V30 2758 H 269.773 -3.81303 -1.51777 0
M  V30 2759 H 269.304 -2.7272 -2.83526 0
M  V30 2760 H 271.319 -2.80165 -4.09539 0
M  V30 2761 N 270.492 0.636531 -1.44174 0
M  V30 2762 C 271.769 1.39463 -1.37148 0
M  V30 2763 C 272.149 2.11082 -0.027507 0
M  V30 2764 O 271.497 2.05954 0.989716 0
M  V30 2765 C 271.707 2.36552 -2.56601 0
M  V30 2766 C 273.055 3.00048 -3.00427 0
M  V30 2767 O 274.079 2.46878 -2.56767 0
M  V30 2768 O 272.938 3.96488 -3.76111 0
M  V30 2769 H 270.032 0.623903 -0.542839 0
M  V30 2770 H 272.578 0.662039 -1.56253 0
M  V30 2771 H 271.35 1.82692 -3.46034 0
M  V30 2772 H 270.973 3.17236 -2.39681 0
M  V30 2773 N 271.97 1.30982 0.876444 0
M  V30 2774 C 272.9 1.20668 1.99903 0
M  V30 2775 C 273.881 0.095354 1.69833 0
M  V30 2776 O 275.066 0.27885 1.92188 0
M  V30 2777 C 272.196 0.90655 3.3526 0
M  V30 2778 C 271.15 1.97675 3.79617 0
M  V30 2779 C 270.476 1.52943 5.1236 0
M  V30 2780 C 271.776 3.389 3.97422 0
M  V30 2781 H 273.47 2.14586 2.0879 0
M  V30 2782 H 271.016 1.03308 1.00317 0
M  V30 2783 H 272.969 0.821025 4.13324 0
M  V30 2784 H 271.693 -0.0682969 3.26529 0
M  V30 2785 H 270.352 2.05205 3.03787 0
M  V30 2786 H 270 0.54262 5.00065 0
M  V30 2787 H 269.7 2.24532 5.43009 0
M  V30 2788 H 271.224 1.45786 5.92941 0
M  V30 2789 H 272.638 3.34081 4.659 0
M  V30 2790 H 271.035 4.0865 4.3946 0
M  V30 2791 H 272.105 3.80163 3.01006 0
M  V30 2792 N 273.449 -1.08991 1.13837 0
M  V30 2793 C 274.379 -2.17771 0.842507 0
M  V30 2794 C 275.36 -1.6892 -0.20001 0
M  V30 2795 O 276.545 -1.94113 -0.0579731 0
M  V30 2796 C 273.675 -3.4589 0.312644 0
M  V30 2797 C 272.629 -4.08099 1.28992 0
M  V30 2798 C 271.955 -5.31098 0.619623 0
M  V30 2799 C 273.255 -4.50077 2.65005 0
M  V30 2800 H 274.949 -2.42777 1.75213 0
M  V30 2801 H 272.495 -1.16682 0.843875 0
M  V30 2802 H 274.448 -4.21297 0.0933043 0
M  V30 2803 H 273.172 -3.20419 -0.632382 0
M  V30 2804 H 271.831 -3.34717 1.49533 0
M  V30 2805 H 271.479 -5.0191 -0.33102 0
M  V30 2806 H 271.179 -5.73674 1.27167 0
M  V30 2807 H 272.703 -6.09224 0.409669 0
M  V30 2808 H 274.117 -5.16688 2.48407 0
M  V30 2809 H 272.514 -5.03553 3.26427 0
M  V30 2810 H 273.584 -3.62257 3.22332 0
M  V30 2811 N 274.927 -0.932562 -1.27047 0
M  V30 2812 C 276.152 -0.591474 -1.98787 0
M  V30 2813 C 276.577 0.824601 -1.69062 0
M  V30 2814 O 275.935 1.5541 -0.933677 0
M  V30 2815 C 275.983 -0.829808 -3.50922 0
M  V30 2816 O 275.087 0.102266 -4.12273 0
M  V30 2817 H 274.428 -0.227185 -0.623926 0
M  V30 2818 H 276.958 -1.25314 -1.61733 0
M  V30 2819 H 276.968 -0.747292 -4.01098 0
M  V30 2820 H 275.643 -1.86201 -3.7189 0
M  V30 2821 H 274.22 -0.0305761 -3.72887 0
M  V30 2822 N 276.405 1.4127 -0.698611 0
M  V30 2823 C 277.682 1.94955 -0.158762 0
M  V30 2824 C 278.062 1.63781 1.33188 0
M  V30 2825 O 277.41 0.946423 2.07979 0
M  V30 2826 C 277.62 3.46044 -0.453309 0
M  V30 2827 C 278.968 4.22872 -0.382707 0
M  V30 2828 O 279.992 3.54076 -0.388396 0
M  V30 2829 O 278.851 5.45407 -0.345463 0
M  V30 2830 H 275.945 0.82683 -0.0167505 0
M  V30 2831 H 278.491 1.50971 -0.77498 0
M  V30 2832 H 277.263 3.62028 -1.48498 0
M  V30 2833 H 276.886 3.97128 0.19373 0
M  V30 2834 N 277.883 0.443576 1.51229 0
M  V30 2835 C 279.13 -0.120796 2.02139 0
M  V30 2836 C 279.458 -1.42166 1.32736 0
M  V30 2837 O 278.713 -1.90849 0.43301 0
M  V30 2838 C 279.012 -0.380579 3.55368 0
M  V30 2839 C 278.678 0.83523 4.43097 0
M  V30 2840 C 277.34 1.16864 4.66794 0
M  V30 2841 C 279.692 1.64601 4.94526 0
M  V30 2842 C 277.02 2.31339 5.39165 0
M  V30 2843 C 279.372 2.78181 5.68153 0
M  V30 2844 C 278.036 3.11969 5.90112 0
M  V30 2845 H 277.306 -0.0442023 0.73968 0
M  V30 2846 H 279.953 0.592046 1.82118 0
M  V30 2847 H 278.258 -1.17538 3.73754 0
M  V30 2848 H 279.955 -0.830777 3.923 0
M  V30 2849 H 276.545 0.565437 4.24854 0
M  V30 2850 H 280.729 1.40163 4.76097 0
M  V30 2851 H 275.985 2.57823 5.5438 0
M  V30 2852 H 280.159 3.41371 6.06992 0
M  V30 2853 H 277.786 4.00784 6.45969 0
M  V30 2854 N 279.361 -1.56624 0.175154 0
M  V30 2855 C 280.638 -1.88688 -0.515373 0
M  V30 2856 C 281.018 -1.08564 -1.81044 0
M  V30 2857 O 280.366 -0.180703 -2.27784 0
M  V30 2858 C 280.576 -3.40768 -0.753552 0
M  V30 2859 C 281.924 -4.10587 -1.08184 0
M  V30 2860 O 282.948 -3.46106 -0.841961 0
M  V30 2861 O 281.807 -5.24512 -1.53459 0
M  V30 2862 H 278.901 -0.78301 -0.26613 0
M  V30 2863 H 281.447 -1.68347 0.213877 0
M  V30 2864 H 280.219 -3.90965 0.161829 0
M  V30 2865 H 279.842 -3.66733 -1.53598 0
M  V30 2866 N 280.839 0.0985539 -1.57292 0
M  V30 2867 C 281.749 1.13824 -2.05137 0
M  V30 2868 C 282.765 1.44076 -0.975604 0
M  V30 2869 O 283.941 1.54786 -1.28853 0
M  V30 2870 C 281.006 2.43969 -2.46333 0
M  V30 2871 C 280.067 2.2093 -3.68087 0
M  V30 2872 C 279.3 3.44869 -4.0731 0
M  V30 2873 O 279.523 4.52972 -3.46659 0
M  V30 2874 O 278.457 3.34661 -5.00285 0
M  V30 2875 H 282.283 0.761881 -2.93988 0
M  V30 2876 H 279.868 0.310818 -1.46131 0
M  V30 2877 H 281.75 3.20609 -2.73473 0
M  V30 2878 H 280.425 2.81038 -1.60621 0
M  V30 2879 H 279.332 1.42081 -3.46069 0
M  V30 2880 H 280.665 1.88755 -4.54568 0
M  V30 2881 N 282.317 1.53212 0.369288 0
M  V30 2882 C 283.564 1.69215 1.11232 0
M  V30 2883 C 283.892 0.442048 1.8941 0
M  V30 2884 O 283.147 -0.575944 1.87033 0
M  V30 2885 C 283.446 2.89101 2.10132 0
M  V30 2886 C 283.112 4.25758 1.48463 0
M  V30 2887 C 281.774 4.6292 1.31372 0
M  V30 2888 C 284.126 5.10757 1.03811 0
M  V30 2889 C 281.454 5.82722 0.68207 0
M  V30 2890 C 283.806 6.31201 0.420487 0
M  V30 2891 C 282.47 6.67079 0.237038 0
M  V30 2892 H 281.74 0.619201 0.407027 0
M  V30 2893 H 284.387 1.87391 0.394552 0
M  V30 2894 H 282.692 2.65421 2.88199 0
M  V30 2895 H 284.389 2.98676 2.6757 0
M  V30 2896 H 280.979 3.96494 1.62758 0
M  V30 2897 H 285.163 4.82599 1.1581 0
M  V30 2898 H 280.419 6.09113 0.528316 0
M  V30 2899 H 284.593 6.96368 0.0662874 0
M  V30 2900 H 282.22 7.59774 -0.254477 0
M  V30 2901 N 283.795 -0.628877 1.44509 0
M  V30 2902 C 285.02 -1.42048 1.5112 0
M  V30 2903 C 285.445 -1.87594 0.137818 0
M  V30 2904 O 284.803 -1.58873 -0.873437 0
M  V30 2905 C 284.851 -2.61541 2.48251 0
M  V30 2906 O 283.955 -3.61453 1.98559 0
M  V30 2907 H 283.296 -0.424942 0.510216 0
M  V30 2908 H 285.826 -0.767374 1.89664 0
M  V30 2909 H 285.836 -3.09057 2.66361 0
M  V30 2910 H 284.511 -2.27736 3.48007 0
M  V30 2911 H 283.088 -3.20731 1.90227 0
M  V30 2912 N 285.273 -1.31445 -0.869486 0
M  V30 2913 C 286.498 -1.24256 -1.66058 0
M  V30 2914 C 286.923 0.188928 -1.87149 0
M  V30 2915 O 286.281 1.13522 -1.4136 0
M  V30 2916 C 286.329 -1.9924 -3.00559 0
M  V30 2917 O 285.433 -1.33007 -3.90362 0
M  V30 2918 H 284.774 -0.428973 -0.506831 0
M  V30 2919 H 287.304 -1.73521 -1.08404 0
M  V30 2920 H 287.314 -2.08854 -3.50491 0
M  V30 2921 H 285.989 -3.03342 -2.84528 0
M  V30 2922 H 284.566 -1.31848 -3.48813 0
M  V30 2923 N 286.751 1.08385 -1.14413 0
M  V30 2924 C 288.167 1.32844 -0.884563 0
M  V30 2925 C 288.367 1.95841 0.474181 0
M  V30 2926 O 287.423 2.21158 1.21842 0
M  V30 2927 C 288.736 2.22978 -2.01745 0
M  V30 2928 C 290.284 2.36458 -2.05077 0
M  V30 2929 C 290.759 3.29934 -3.1766 0
M  V30 2930 N 292.25 3.37511 -3.17239 0
M  V30 2931 C 292.985 4.09871 -4.0099 0
M  V30 2932 N 292.481 4.84936 -4.94781 0
M  V30 2933 N 294.274 4.05704 -3.89051 0
M  V30 2934 H 286.425 0.658756 -2.01926 0
M  V30 2935 H 288.688 0.352821 -0.879899 0
M  V30 2936 H 288.394 1.83934 -2.99769 0
M  V30 2937 H 288.268 3.23441 -1.94077 0
M  V30 2938 H 290.655 2.7476 -1.0766 0
M  V30 2939 H 290.736 1.35736 -2.16816 0
M  V30 2940 H 290.38 2.92352 -4.15322 0
M  V30 2941 H 290.31 4.30584 -3.03158 0
M  V30 2942 H 292.801 2.83996 -2.49308 0
M  V30 2943 H 293.114 5.37612 -5.55151 0
M  V30 2944 H 291.459 4.83988 -4.98779 0
M  V30 2945 H 294.65 3.46167 -3.15097 0
M  V30 2946 H 294.823 4.61834 -4.54547 0
M  V30 2947 N 288.23 0.939286 1.26551 0
M  V30 2948 C 289.477 0.585847 1.9384 0
M  V30 2949 C 289.805 -0.874784 1.73718 0
M  V30 2950 O 289.06 -1.64092 1.06642 0
M  V30 2951 C 289.359 0.872106 3.46596 0
M  V30 2952 C 289.025 2.31632 3.86856 0
M  V30 2953 C 287.687 2.71111 3.97558 0
M  V30 2954 C 290.039 3.25494 4.07066 0
M  V30 2955 C 287.367 4.03553 4.25866 0
M  V30 2956 C 289.719 4.57531 4.36862 0
M  V30 2957 C 288.383 4.96828 4.45778 0
M  V30 2958 H 287.653 0.214377 0.709312 0
M  V30 2959 H 290.3 1.18544 1.50398 0
M  V30 2960 H 288.605 0.18996 3.91339 0
M  V30 2961 H 290.302 0.577442 3.96821 0
M  V30 2962 H 286.892 2.00008 3.79071 0
M  V30 2963 H 291.076 2.9619 3.98227 0
M  V30 2964 H 286.332 4.33665 4.30981 0
M  V30 2965 H 290.506 5.30254 4.51446 0
M  V30 2966 H 288.133 5.99482 4.67468 0
M  V30 2967 N 289.708 -1.40897 0.706093 0
M  V30 2968 C 290.655 -2.30751 0.0474474 0
M  V30 2969 C 291.625 -1.47678 -0.76029 0
M  V30 2970 O 292.81 -1.76441 -0.726177 0
M  V30 2971 C 289.95 -3.33815 -0.875309 0
M  V30 2972 C 289.063 -4.31961 -0.0580623 0
M  V30 2973 C 288.198 -5.22093 -0.979425 0
M  V30 2974 C 287.237 -6.11902 -0.155706 0
M  V30 2975 N 286.374 -6.94482 -1.03144 0
M  V30 2976 H 291.214 -2.86513 0.819413 0
M  V30 2977 H 288.751 -1.41102 0.415783 0
M  V30 2978 H 290.709 -3.92129 -1.42446 0
M  V30 2979 H 289.339 -2.79579 -1.61356 0
M  V30 2980 H 288.391 -3.75507 0.608147 0
M  V30 2981 H 289.703 -4.95415 0.580082 0
M  V30 2982 H 288.857 -5.85292 -1.59744 0
M  V30 2983 H 287.596 -4.5889 -1.65141 0
M  V30 2984 H 286.601 -5.47742 0.475309 0
M  V30 2985 H 287.826 -6.77162 0.512635 0
M  V30 2986 H 285.772 -6.33877 -1.68924 0
M  V30 2987 H 285.689 -7.54665 -0.449108 0
M  V30 2988 H 286.957 -7.6214 -1.63593 0
M  V30 2989 N 291.186 -0.45159 -1.50991 0
M  V30 2990 C 292.134 0.366864 -2.29689 0
M  V30 2991 C 293.128 1.00809 -1.36139 0
M  V30 2992 O 294.334 0.941427 -1.53418 0
M  V30 2993 H 290.709 0.137133 -0.739391 0
M  V30 2994 H 292.68 -0.317538 -2.96706 0
M  V30 2995 C 291.429 1.44751 -3.16137 0
M  V30 2996 H 290.752 0.963473 -3.88017 0
M  V30 2997 H 292.192 1.99315 -3.74232 0
M  V30 2998 C 290.651 2.43869 -2.32442 0
M  V30 2999 O 291.181 3.4872 -1.99392 0
M  V30 3000 N 289.387 2.15105 -1.95392 0
M  V30 3001 H 288.934 1.29866 -2.22469 0
M  V30 3002 H 288.892 2.81661 -1.39693 0
M  V30 3003 N 292.664 1.56529 -0.183458 0
M  V30 3004 C 293.594 2.21549 0.737456 0
M  V30 3005 C 294.575 1.17489 1.23005 0
M  V30 3006 O 295.76 1.45959 1.281 0
M  V30 3007 C 292.89 2.86575 1.96194 0
M  V30 3008 C 291.844 3.96778 1.60473 0
M  V30 3009 C 291.17 4.48911 2.90487 0
M  V30 3010 C 292.47 5.15767 0.823497 0
M  V30 3011 H 294.164 2.98761 0.195453 0
M  V30 3012 H 291.71 1.43702 0.0925686 0
M  V30 3013 H 293.663 3.30739 2.61131 0
M  V30 3014 H 292.387 2.06749 2.52828 0
M  V30 3015 H 291.046 3.53286 0.978997 0
M  V30 3016 H 290.694 3.65862 3.45186 0
M  V30 3017 H 290.394 5.23265 2.67335 0
M  V30 3018 H 291.918 4.95771 3.56432 0
M  V30 3019 H 293.332 5.56549 1.37571 0
M  V30 3020 H 291.729 5.96114 0.690551 0
M  V30 3021 H 292.799 4.84574 -0.177782 0
M  V30 3022 N 294.142 -0.090211 1.57342 0
M  V30 3023 C 295.105 -1.09335 2.01441 0
M  V30 3024 C 296.105 -1.32666 0.908641 0
M  V30 3025 O 297.295 -1.28697 1.174 0
M  V30 3026 C 294.427 -2.44136 2.3793 0
M  V30 3027 H 295.62 -0.713662 2.91285 0
M  V30 3028 H 293.173 -0.335404 1.52659 0
M  V30 3029 H 293.908 -2.86972 1.51055 0
M  V30 3030 H 293.693 -2.28548 3.18603 0
M  V30 3031 H 295.183 -3.16277 2.72688 0
M  V30 3032 N 295.62 -1.53406 -0.361157 0
M  V30 3033 C 296.57 -1.76536 -1.44287 0
M  V30 3034 C 297.554 -0.620019 -1.48474 0
M  V30 3035 O 298.746 -0.878834 -1.53641 0
M  V30 3036 C 295.875 -1.96266 -2.81664 0
M  V30 3037 C 294.961 -3.16815 -2.81938 0
M  V30 3038 N 295.352 -4.38637 -2.51855 0
M  V30 3039 C 293.65 -3.17627 -3.13096 0
M  V30 3040 C 294.351 -5.20401 -2.59919 0
M  V30 3041 N 293.327 -4.56712 -2.94814 0
M  V30 3042 H 297.129 -2.68331 -1.19899 0
M  V30 3043 H 294.643 -1.52091 -0.56938 0
M  V30 3044 H 296.64 -2.10966 -3.59582 0
M  V30 3045 H 295.3 -1.05702 -3.07013 0
M  V30 3046 H 296.311 -4.66293 -2.25369 0
M  V30 3047 H 292.988 -2.36971 -3.43731 0
M  V30 3048 H 294.378 -6.27586 -2.39969 0
M  V30 3049 N 297.098 0.621204 -1.44841 0
M  V30 3050 C 298.03 1.74615 -1.48466 0
M  V30 3051 C 299.043 1.58377 -0.37691 0
M  V30 3052 O 300.232 1.66508 -0.643215 0
M  V30 3053 C 297.332 3.12459 -1.31236 0
M  V30 3054 C 296.505 3.55064 -2.55438 0
M  V30 3055 C 295.564 4.71821 -2.32963 0
M  V30 3056 O 294.59 4.79628 -3.06505 0
M  V30 3057 N 295.792 5.64186 -1.36654 0
M  V30 3058 H 298.557 1.71973 -2.45449 0
M  V30 3059 H 296.118 0.806077 -1.40407 0
M  V30 3060 H 298.11 3.88302 -1.14032 0
M  V30 3061 H 296.68 3.09686 -0.4258 0
M  V30 3062 H 295.9 2.69324 -2.87851 0
M  V30 3063 H 297.188 3.80284 -3.38026 0
M  V30 3064 H 296.586 5.6058 -0.759344 0
M  V30 3065 H 295.143 6.39618 -1.25425 0
M  V30 3066 N 298.576 1.31904 0.862503 0
M  V30 3067 C 299.526 1.16772 1.95827 0
M  V30 3068 C 300.51 0.0767098 1.60717 0
M  V30 3069 O 301.702 0.302407 1.74398 0
M  V30 3070 C 298.831 0.884858 3.317 0
M  V30 3071 C 297.917 2.0172 3.73055 0
M  V30 3072 N 298.308 3.265 3.86305 0
M  V30 3073 C 296.606 1.91861 4.02623 0
M  V30 3074 C 297.307 4.00616 4.2176 0
M  V30 3075 N 296.283 3.28847 4.32852 0
M  V30 3076 H 300.085 2.11382 2.04193 0
M  V30 3077 H 297.599 1.2357 1.05377 0
M  V30 3078 H 299.596 0.757419 4.09962 0
M  V30 3079 H 298.256 -0.0529448 3.24657 0
M  V30 3080 H 299.267 3.61529 3.70833 0
M  V30 3081 H 295.944 1.05593 4.03926 0
M  V30 3082 H 297.334 5.08182 4.39546 0
M  V30 3083 N 300.054 -1.07777 1.14986 0
M  V30 3084 C 300.986 -2.14769 0.800436 0
M  V30 3085 C 301.999 -1.61739 -0.185595 0
M  V30 3086 O 303.188 -1.78462 0.0370358 0
M  V30 3087 C 300.288 -3.38481 0.168533 0
M  V30 3088 C 299.461 -4.20876 1.1909 0
M  V30 3089 C 298.52 -5.22976 0.581575 0
M  V30 3090 O 297.546 -5.55388 1.24633 0
M  V30 3091 N 298.748 -5.76976 -0.638706 0
M  V30 3092 H 301.513 -2.45348 1.72118 0
M  V30 3093 H 299.074 -1.23645 1.04515 0
M  V30 3094 H 301.066 -4.03916 -0.251764 0
M  V30 3095 H 299.636 -3.05651 -0.655467 0
M  V30 3096 H 298.856 -3.51322 1.78791 0
M  V30 3097 H 300.144 -4.7274 1.88133 0
M  V30 3098 H 299.542 -5.52886 -1.19723 0
M  V30 3099 H 298.099 -6.44061 -1.00142 0
M  V30 3100 N 301.532 -0.945985 -1.26051 0
M  V30 3101 C 302.757 -0.612525 -1.98149 0
M  V30 3102 C 303.182 0.806623 -1.69927 0
M  V30 3103 O 302.54 1.54411 -0.950108 0
M  V30 3104 C 302.588 -0.866981 -3.50023 0
M  V30 3105 O 301.692 0.0585333 -4.12358 0
M  V30 3106 H 301.033 -0.23379 -0.621481 0
M  V30 3107 H 303.563 -1.27023 -1.60395 0
M  V30 3108 H 303.573 -0.789792 -4.00283 0
M  V30 3109 H 302.248 -1.90135 -3.69894 0
M  V30 3110 H 300.825 -0.0701241 -3.72834 0
M  V30 3111 N 303.011 1.40521 -0.713556 0
M  V30 3112 C 303.944 2.28198 -0.00881422 0
M  V30 3113 C 304.922 1.43227 0.769735 0
M  V30 3114 O 306.106 1.72641 0.756799 0
M  V30 3115 C 303.233 3.23758 0.994899 0
M  V30 3116 C 302.279 4.25391 0.3074 0
M  V30 3117 S 303.112 5.26765 -0.963247 0
M  V30 3118 C 304.268 6.25888 0.0384143 0
M  V30 3119 H 304.501 2.87622 -0.752407 0
M  V30 3120 H 302.034 1.45925 -0.504502 0
M  V30 3121 H 303.992 3.79341 1.56879 0
M  V30 3122 H 302.653 2.63396 1.71118 0
M  V30 3123 H 301.846 4.92596 1.0661 0
M  V30 3124 H 301.448 3.73497 -0.193879 0
M  V30 3125 H 303.74 6.71683 0.885912 0
M  V30 3126 H 304.683 7.05552 -0.60019 0
M  V30 3127 H 305.091 5.63072 0.401233 0
M  V30 3128 N 304.489 0.459591 1.5075 0
M  V30 3129 C 305.736 -0.0993495 2.02256 0
M  V30 3130 C 306.064 -1.40751 1.34237 0
M  V30 3131 O 305.319 -1.90379 0.453228 0
M  V30 3132 C 305.618 -0.342866 3.55752 0
M  V30 3133 C 305.284 0.88218 4.42186 0
M  V30 3134 C 303.946 1.21808 4.65528 0
M  V30 3135 C 306.298 1.69837 4.92752 0
M  V30 3136 C 303.626 2.37045 5.36681 0
M  V30 3137 C 305.978 2.84192 5.65171 0
M  V30 3138 C 304.642 3.1821 5.8677 0
M  V30 3139 H 303.912 -0.0363545 0.740108 0
M  V30 3140 H 306.559 0.611329 1.8148 0
M  V30 3141 H 304.864 -1.13567 3.7498 0
M  V30 3142 H 306.561 -0.789121 3.93159 0
M  V30 3143 H 303.151 0.610467 4.2423 0
M  V30 3144 H 307.335 1.45205 4.74583 0
M  V30 3145 H 302.591 2.63689 5.51614 0
M  V30 3146 H 306.765 3.4779 6.03337 0
M  V30 3147 H 304.392 4.07613 6.41682 0
M  V30 3148 N 305.967 -1.56429 0.191757 0
M  V30 3149 C 307.378 -1.83912 -0.321428 0
M  V30 3150 C 307.729 -1.11231 -1.61623 0
M  V30 3151 O 306.854 -0.37202 -2.13178 0
M  V30 3152 C 307.449 -3.33624 -0.589961 0
M  V30 3153 C 306.008 -3.6153 -1.04753 0
M  V30 3154 C 305.155 -2.7714 -0.0943327 0
M  V30 3155 H 308.106 -1.53161 0.415612 0
M  V30 3156 H 308.127 -3.52213 -1.43966 0
M  V30 3157 H 307.639 -3.86495 0.352588 0
M  V30 3158 H 305.74 -3.14089 -2.00447 0
M  V30 3159 H 305.853 -4.69737 -0.942549 0
M  V30 3160 H 304.217 -2.47638 -0.595589 0
M  V30 3161 H 305 -3.32799 0.842601 0
M  V30 3162 N 307.445 0.0818655 -1.57387 0
M  V30 3163 C 308.673 0.796108 -1.9097 0
M  V30 3164 C 309.088 1.71626 -0.786757 0
M  V30 3165 O 308.445 1.80908 0.240513 0
M  V30 3166 C 308.496 1.59829 -3.24248 0
M  V30 3167 O 308.217 0.715131 -4.32224 0
M  V30 3168 C 309.718 2.41442 -3.7178 0
M  V30 3169 H 306.938 0.22691 -0.631469 0
M  V30 3170 H 309.482 0.0551439 -2.04426 0
M  V30 3171 H 307.637 2.29163 -3.12351 0
M  V30 3172 H 308.051 1.27205 -5.08841 0
M  V30 3173 H 309.525 2.932 -4.67694 0
M  V30 3174 H 310.002 3.2051 -3.00283 0
M  V30 3175 H 310.608 1.77283 -3.86589 0
M  V30 3176 N 308.923 1.53595 0.353017 0
M  V30 3177 C 309.853 1.83902 1.43883 0
M  V30 3178 C 310.834 0.693421 1.55324 0
M  V30 3179 O 312.019 0.944452 1.69687 0
M  V30 3180 C 309.149 2.04016 2.8106 0
M  V30 3181 C 308.103 3.19814 2.84434 0
M  V30 3182 C 307.429 3.25244 4.24406 0
M  V30 3183 C 308.729 4.58133 2.50822 0
M  V30 3184 H 310.423 2.74835 1.1877 0
M  V30 3185 H 307.969 1.32242 0.569917 0
M  V30 3186 H 309.922 2.238 3.57059 0
M  V30 3187 H 308.646 1.09804 3.07588 0
M  V30 3188 H 307.305 2.9987 2.10887 0
M  V30 3189 H 306.953 2.28646 4.48029 0
M  V30 3190 H 306.653 4.03054 4.27576 0
M  V30 3191 H 308.177 3.47228 5.0226 0
M  V30 3192 H 309.591 4.77995 3.16534 0
M  V30 3193 H 307.988 5.38276 2.6529 0
M  V30 3194 H 309.058 4.62387 1.46034 0
M  V30 3195 N 310.401 -0.613514 1.45168 0
M  V30 3196 C 311.311 -1.75296 1.55912 0
M  V30 3197 C 312.327 -1.68244 0.443856 0
M  V30 3198 O 313.503 -1.88706 0.70371 0
M  V30 3199 C 310.568 -3.1174 1.5172 0
M  V30 3200 C 309.629 -3.30291 2.74238 0
M  V30 3201 C 308.862 -4.60226 2.70236 0
M  V30 3202 O 309.085 -5.42168 1.77229 0
M  V30 3203 O 308.019 -4.81361 3.61352 0
M  V30 3204 H 311.845 -1.69183 2.52212 0
M  V30 3205 H 309.43 -0.776886 1.27612 0
M  V30 3206 H 311.312 -3.93044 1.51968 0
M  V30 3207 H 309.987 -3.18357 0.585697 0
M  V30 3208 H 308.894 -2.48598 2.79553 0
M  V30 3209 H 310.227 -3.28547 3.66494 0
M  V30 3210 N 311.879 -1.3236 -0.855495 0
M  V30 3211 C 313.128 -1.22226 -1.60448 0
M  V30 3212 C 313.441 0.214733 -1.94418 0
M  V30 3213 O 314.647 0.437917 -2.67945 0
M  V30 3214 C 313.103 -2.14063 -2.89318 0
M  V30 3215 C 312.711 -3.62839 -2.62777 0
M  V30 3216 C 314.455 -2.12764 -3.67331 0
M  V30 3217 C 312.362 -4.4664 -3.87643 0
M  V30 3218 H 311.292 -0.453904 -0.602069 0
M  V30 3219 H 313.943 -1.57314 -0.944698 0
M  V30 3220 H 312.325 -1.71889 -3.5675 0
M  V30 3221 H 313.499 -4.1335 -2.03662 0
M  V30 3222 H 311.814 -3.66261 -1.98096 0
M  V30 3223 H 314.411 -2.72611 -4.59987 0
M  V30 3224 H 314.754 -1.11841 -4.00995 0
M  V30 3225 H 315.287 -2.53214 -3.06802 0
M  V30 3226 H 312.026 -5.48373 -3.5912 0
M  V30 3227 H 311.546 -4.0088 -4.46156 0
M  V30 3228 H 313.225 -4.59597 -4.55389 0
M  V30 3229 N 313.357 1.07166 -1.15556 0
M  V30 3230 C 314.634 1.76546 -0.842069 0
M  V30 3231 C 315.014 2.00453 0.661939 0
M  V30 3232 O 314.362 1.62452 1.60691 0
M  V30 3233 C 314.572 3.07266 -1.65495 0
M  V30 3234 C 315.92 3.81578 -1.86234 0
M  V30 3235 O 316.944 3.17083 -1.62287 0
M  V30 3236 O 315.803 4.97419 -2.26355 0
M  V30 3237 H 312.897 0.766756 -0.309862 0
M  V30 3238 H 315.443 1.13514 -1.26145 0
M  V30 3239 H 314.215 2.85494 -2.67598 0
M  V30 3240 H 313.838 3.7803 -1.23203 0
M  V30 3241 N 314.835 0.952656 1.25548 0
M  V30 3242 C 316.084 0.602053 1.92505 0
M  V30 3243 C 316.397 -0.864663 1.75451 0
M  V30 3244 O 317.603 -1.32514 2.36965 0
M  V30 3245 C 316.059 1.02607 3.44963 0
M  V30 3246 C 315.667 2.51519 3.70732 0
M  V30 3247 C 317.411 0.747905 4.1786 0
M  V30 3248 C 315.318 2.87732 5.16686 0
M  V30 3249 H 314.248 0.22146 0.720744 0
M  V30 3250 H 316.899 1.15684 1.42441 0
M  V30 3251 H 315.281 0.399712 3.93978 0
M  V30 3252 H 316.455 3.19157 3.32378 0
M  V30 3253 H 314.77 2.76786 3.11092 0
M  V30 3254 H 317.367 0.994647 5.25367 0
M  V30 3255 H 317.71 -0.315629 4.15102 0
M  V30 3256 H 318.243 1.33452 3.74747 0
M  V30 3257 H 314.982 3.93095 5.24554 0
M  V30 3258 H 314.502 2.24765 5.56094 0
M  V30 3259 H 316.181 2.76817 5.84792 0
M  V30 3260 N 316.313 -1.40141 0.720998 0
M  V30 3261 C 317.223 -2.34486 0.0731031 0
M  V30 3262 C 318.239 -1.57587 -0.737723 0
M  V30 3263 O 319.415 -1.89949 -0.669429 0
M  V30 3264 C 316.48 -3.36528 -0.833656 0
M  V30 3265 C 315.541 -4.29298 -0.0121673 0
M  V30 3266 C 314.774 -5.26466 -0.875742 0
M  V30 3267 O 314.997 -5.29745 -2.11485 0
M  V30 3268 O 313.931 -6.01092 -0.31185 0
M  V30 3269 H 317.757 -2.9152 0.851444 0
M  V30 3270 H 315.342 -1.41427 0.481527 0
M  V30 3271 H 317.224 -3.99093 -1.35289 0
M  V30 3272 H 315.899 -2.81899 -1.59105 0
M  V30 3273 H 314.806 -3.70001 0.552262 0
M  V30 3274 H 316.139 -4.87094 0.707129 0
M  V30 3275 N 317.792 -0.46758 -1.50504 0
M  V30 3276 C 319.04 0.0884469 -2.01906 0
M  V30 3277 C 319.361 1.40532 -1.35188 0
M  V30 3278 O 318.631 1.89515 -0.496079 0
M  V30 3279 H 317.211 0.0356765 -0.746148 0
M  V30 3280 H 319.873 -0.6172 -1.84869 0
M  V30 3281 H 318.969 0.2425 -3.11156 0
M  V30 3282 N 319.27 1.56325 -0.20005 0
M  V30 3283 C 320.202 2.16555 0.750771 0
M  V30 3284 C 321.215 1.12871 1.1732 0
M  V30 3285 O 322.404 1.39943 1.10807 0
M  V30 3286 C 319.504 2.71684 2.02586 0
M  V30 3287 C 318.677 4.00321 1.76244 0
M  V30 3288 C 317.736 4.40227 2.88248 0
M  V30 3289 O 316.762 5.07552 2.57642 0
M  V30 3290 N 317.964 4.04138 4.16717 0
M  V30 3291 H 320.729 2.98772 0.235685 0
M  V30 3292 H 318.29 1.6189 -0.0182594 0
M  V30 3293 H 320.282 2.95363 2.76664 0
M  V30 3294 H 318.852 1.93893 2.45202 0
M  V30 3295 H 318.072 3.84723 0.85919 0
M  V30 3296 H 319.36 4.84279 1.56048 0
M  V30 3297 H 318.758 3.49993 4.44434 0
M  V30 3298 H 317.315 4.32756 4.87407 0
M  V30 3299 N 320.748 -0.0735177 1.57428 0
M  V30 3300 C 321.678 -1.0879 2.06608 0
M  V30 3301 C 322.659 -1.40473 0.959237 0
M  V30 3302 O 323.844 -1.5013 1.23185 0
M  V30 3303 C 320.974 -2.40183 2.50857 0
M  V30 3304 C 319.928 -2.22858 3.65402 0
M  V30 3305 C 319.254 -3.59619 3.957 0
M  V30 3306 C 320.554 -1.65123 4.95511 0
M  V30 3307 H 322.248 -0.678673 2.91607 0
M  V30 3308 H 319.794 -0.325013 1.40284 0
M  V30 3309 H 321.747 -3.11437 2.83874 0
M  V30 3310 H 320.471 -2.83083 1.62885 0
M  V30 3311 H 319.13 -1.54045 3.32664 0
M  V30 3312 H 318.778 -4.00086 3.04861 0
M  V30 3313 H 318.478 -3.48866 4.72828 0
M  V30 3314 H 320.002 -4.32306 4.31212 0
M  V30 3315 H 321.416 -2.26241 5.26771 0
M  V30 3316 H 319.813 -1.65071 5.7695 0
M  V30 3317 H 320.883 -0.612559 4.81015 0
M  V30 3318 N 322.226 -1.5378 -0.344866 0
M  V30 3319 C 323.173 -1.81676 -1.42346 0
M  V30 3320 C 324.143 -0.662376 -1.52321 0
M  V30 3321 O 325.328 -0.906675 -1.67881 0
M  V30 3322 C 322.468 -2.03087 -2.79015 0
M  V30 3323 C 321.581 -3.30799 -2.77842 0
M  V30 3324 C 320.716 -3.42285 -4.0622 0
M  V30 3325 C 319.755 -4.6395 -3.9927 0
M  V30 3326 N 318.892 -4.72477 -5.19336 0
M  V30 3327 H 323.732 -2.73703 -1.17858 0
M  V30 3328 H 321.269 -1.35568 -0.570949 0
M  V30 3329 H 323.227 -2.1349 -3.58438 0
M  V30 3330 H 321.857 -1.14375 -3.01858 0
M  V30 3331 H 320.909 -3.29244 -1.90533 0
M  V30 3332 H 322.221 -4.20314 -2.68584 0
M  V30 3333 H 321.375 -3.52113 -4.94066 0
M  V30 3334 H 320.114 -2.50823 -4.18258 0
M  V30 3335 H 319.119 -4.54201 -3.09809 0
M  V30 3336 H 320.344 -5.56775 -3.88817 0
M  V30 3337 H 318.29 -3.83924 -5.3192 0
M  V30 3338 H 318.207 -5.55927 -5.12329 0
M  V30 3339 H 319.475 -4.86613 -6.08957 0
M  V30 3340 N 323.704 0.605807 -1.45491 0
M  V30 3341 C 325.12 0.926751 -1.29936 0
M  V30 3342 C 325.32 1.99896 -0.253706 0
M  V30 3343 O 324.376 2.50038 0.351737 0
M  V30 3344 C 325.689 1.36599 -2.67883 0
M  V30 3345 C 327.237 1.4801 -2.75793 0
M  V30 3346 C 327.712 1.95309 -4.14268 0
M  V30 3347 N 329.203 2.0254 -4.16571 0
M  V30 3348 C 329.938 2.40363 -5.20589 0
M  V30 3349 N 329.434 2.77143 -6.34952 0
M  V30 3350 N 331.227 2.40718 -5.07948 0
M  V30 3351 H 323.378 -0.102862 -2.12151 0
M  V30 3352 H 325.641 0.016639 -0.947854 0
M  V30 3353 H 325.347 0.652306 -3.45598 0
M  V30 3354 H 325.221 2.33215 -2.96463 0
M  V30 3355 H 327.608 2.1847 -1.98381 0
M  V30 3356 H 327.689 0.497041 -2.50925 0
M  V30 3357 H 327.333 1.25436 -4.92167 0
M  V30 3358 H 327.263 2.94532 -4.3653 0
M  V30 3359 H 329.754 1.76699 -3.34045 0
M  V30 3360 H 330.067 3.0489 -7.10114 0
M  V30 3361 H 328.412 2.74834 -6.3835 0
M  V30 3362 H 331.603 2.11392 -4.1765 0
M  V30 3363 H 331.776 2.69869 -5.89131 0
M  V30 3364 N 325.182 1.32811 0.848464 0
M  V30 3365 C 326.112 1.24882 1.97299 0
M  V30 3366 C 327.093 0.131357 1.69592 0
M  V30 3367 O 328.278 0.319553 1.91553 0
M  V30 3368 C 325.408 0.97746 3.33261 0
M  V30 3369 C 324.362 2.05682 3.75338 0
M  V30 3370 C 323.688 1.63777 5.09 0
M  V30 3371 C 324.988 3.47254 3.90144 0
M  V30 3372 H 326.682 2.18966 2.04191 0
M  V30 3373 H 324.228 1.05413 0.981029 0
M  V30 3374 H 326.181 0.908513 4.1149 0
M  V30 3375 H 324.905 0.000980011 3.266 0
M  V30 3376 H 323.564 2.11603 2.99366 0
M  V30 3377 H 323.212 0.648569 4.98801 0
M  V30 3378 H 322.912 2.36 5.38124 0
M  V30 3379 H 324.436 1.5833 5.89715 0
M  V30 3380 H 325.85 3.43888 4.58709 0
M  V30 3381 H 324.247 4.1788 4.30693 0
M  V30 3382 H 325.317 3.86462 2.92874 0
M  V30 3383 N 326.66 -1.06551 1.16123 0
M  V30 3384 C 327.607 -2.13961 0.865414 0
M  V30 3385 C 328.577 -1.65066 -0.185055 0
M  V30 3386 O 329.762 -1.90732 -0.05083 0
M  V30 3387 C 326.902 -3.43113 0.369776 0
M  V30 3388 C 326.015 -4.05756 1.48276 0
M  V30 3389 C 325.15 -5.22773 0.942414 0
M  V30 3390 C 324.189 -5.77395 2.03179 0
M  V30 3391 N 323.326 -6.85731 1.50721 0
M  V30 3392 H 328.166 -2.38605 1.78527 0
M  V30 3393 H 325.703 -1.17072 0.890646 0
M  V30 3394 H 327.661 -4.17151 0.0640643 0
M  V30 3395 H 326.291 -3.18695 -0.513143 0
M  V30 3396 H 325.343 -3.29292 1.9045 0
M  V30 3397 H 326.655 -4.42351 2.30493 0
M  V30 3398 H 325.809 -6.03827 0.589729 0
M  V30 3399 H 324.548 -4.87618 0.0895191 0
M  V30 3400 H 323.553 -4.94981 2.3932 0
M  V30 3401 H 324.778 -6.14603 2.8886 0
M  V30 3402 H 322.724 -6.52499 0.676811 0
M  V30 3403 H 322.641 -7.21254 2.26557 0
M  V30 3404 H 323.909 -7.7047 1.18303 0
M  V30 3405 N 328.138 -0.959301 -1.25041 0
M  V30 3406 C 329.386 -0.615393 -1.92503 0
M  V30 3407 C 329.707 0.850969 -1.75452 0
M  V30 3408 O 328.977 1.60658 -1.12098 0
M  V30 3409 H 327.557 -0.224613 -0.712431 0
M  V30 3410 H 330.219 -1.21855 -1.5211 0
M  V30 3411 H 329.315 -0.848738 -3.00338 0
M  V30 3412 N 329.616 1.39756 -0.72842 0
M  V30 3413 C 330.863 2.00645 -0.273487 0
M  V30 3414 C 331.191 1.57786 1.13727 0
M  V30 3415 O 330.446 0.794886 1.7883 0
M  V30 3416 C 330.745 3.56002 -0.315776 0
M  V30 3417 C 330.411 4.18489 -1.67863 0
M  V30 3418 C 329.073 4.3527 -2.05166 0
M  V30 3419 C 331.425 4.53219 -2.57375 0
M  V30 3420 C 328.753 4.84069 -3.31503 0
M  V30 3421 C 331.105 5.03423 -3.83077 0
M  V30 3422 C 329.769 5.18413 -4.20481 0
M  V30 3423 H 329.039 0.734211 -0.100076 0
M  V30 3424 H 331.686 1.6718 -0.933972 0
M  V30 3425 H 329.991 3.89452 0.428285 0
M  V30 3426 H 331.688 4.00963 0.0542575 0
M  V30 3427 H 328.278 4.05824 -1.37858 0
M  V30 3428 H 332.462 4.39878 -2.29827 0
M  V30 3429 H 327.718 4.93859 -3.60435 0
M  V30 3430 H 331.892 5.2927 -4.52599 0
M  V30 3431 H 329.519 5.55987 -5.18443 0
M  V30 3432 N 331.094 0.475555 1.50254 0
M  V30 3433 C 332.057 -0.305016 2.27161 0
M  V30 3434 C 333.057 -0.916519 1.32123 0
M  V30 3435 O 334.247 -0.785003 1.5551 0
M  V30 3436 C 331.379 -1.43496 3.09227 0
M  V30 3437 H 332.572 0.369511 2.97615 0
M  V30 3438 H 330.125 0.229747 1.54602 0
M  V30 3439 H 330.86 -2.14441 2.43281 0
M  V30 3440 H 330.645 -1.00223 3.79075 0
M  V30 3441 H 332.135 -1.98548 3.67381 0
M  V30 3442 N 332.573 -1.56217 0.208337 0
M  V30 3443 C 333.483 -2.23316 -0.718836 0
M  V30 3444 C 334.499 -1.23648 -1.22422 0
M  V30 3445 O 335.675 -1.56423 -1.26861 0
M  V30 3446 C 332.74 -2.88968 -1.91568 0
M  V30 3447 C 331.801 -4.03943 -1.45357 0
M  V30 3448 C 331.034 -4.66455 -2.59337 0
M  V30 3449 O 331.257 -4.27919 -3.77149 0
M  V30 3450 O 330.191 -5.55686 -2.31293 0
M  V30 3451 H 334.017 -3.03182 -0.177315 0
M  V30 3452 H 331.602 -1.49384 -0.0215402 0
M  V30 3453 H 333.484 -3.30455 -2.61491 0
M  V30 3454 H 332.159 -2.12071 -2.44556 0
M  V30 3455 H 331.066 -3.67052 -0.722746 0
M  V30 3456 H 332.399 -4.82543 -0.970219 0
M  V30 3457 N 334.051 0.0651679 -1.57465 0
M  V30 3458 C 335.467 0.420105 -1.53972 0
M  V30 3459 C 335.667 1.78782 -0.929474 0
M  V30 3460 O 334.723 2.46771 -0.534839 0
M  V30 3461 C 336.036 0.355084 -2.98596 0
M  V30 3462 C 337.584 0.434792 -3.09965 0
M  V30 3463 C 338.059 0.399609 -4.56253 0
M  V30 3464 N 339.55 0.459488 -4.60915 0
M  V30 3465 C 340.285 0.454584 -5.71595 0
M  V30 3466 N 339.781 0.404102 -6.9162 0
M  V30 3467 N 341.574 0.501635 -5.59857 0
M  V30 3468 H 333.725 -0.830328 -1.95498 0
M  V30 3469 H 335.988 -0.312244 -0.895102 0
M  V30 3470 H 335.694 -0.583357 -3.46828 0
M  V30 3471 H 335.568 1.16275 -3.58831 0
M  V30 3472 H 337.955 1.36366 -2.61703 0
M  V30 3473 H 338.036 -0.40157 -2.52628 0
M  V30 3474 H 337.68 -0.525436 -5.05175 0
M  V30 3475 H 337.61 1.25359 -5.11461 0
M  V30 3476 H 340.101 0.502482 -3.74544 0
M  V30 3477 H 340.414 0.404468 -7.71741 0
M  V30 3478 H 338.759 0.37069 -6.94011 0
M  V30 3479 H 341.95 0.538812 -4.64989 0
M  V30 3480 H 342.123 0.494345 -6.46112 0
M  V30 3481 N 335.529 1.53961 0.336706 0
M  V30 3482 C 336.778 1.70751 1.07363 0
M  V30 3483 C 337.091 0.481061 1.89592 0
M  V30 3484 O 338.297 0.530046 2.66276 0
M  V30 3485 C 336.753 3.01965 1.95818 0
M  V30 3486 C 336.361 4.31971 1.18764 0
M  V30 3487 C 338.105 3.28121 2.69327 0
M  V30 3488 C 336.012 5.54255 2.06289 0
M  V30 3489 H 334.942 0.636292 0.404535 0
M  V30 3490 H 337.593 1.80459 0.332681 0
M  V30 3491 H 335.975 2.86132 2.7376 0
M  V30 3492 H 337.149 4.5853 0.456849 0
M  V30 3493 H 335.464 4.12481 0.569946 0
M  V30 3494 H 338.061 4.16673 3.35094 0
M  V30 3495 H 338.404 2.45426 3.36261 0
M  V30 3496 H 338.937 3.44762 1.98454 0
M  V30 3497 H 335.676 6.39513 1.43885 0
M  V30 3498 H 335.196 5.31935 2.77138 0
M  V30 3499 H 336.875 5.90159 2.65182 0
M  V30 3500 N 337.007 -0.598083 1.45811 0
M  V30 3501 C 338.423 -0.919847 1.30426 0
M  V30 3502 C 338.623 -1.99759 0.264303 0
M  V30 3503 O 337.679 -2.50221 -0.338472 0
M  V30 3504 C 338.992 -1.35176 2.68603 0
M  V30 3505 C 340.54 -1.46546 2.76574 0
M  V30 3506 C 341.015 -1.9311 4.15298 0
M  V30 3507 N 342.506 -2.00328 4.1764 0
M  V30 3508 C 343.241 -2.37599 5.21856 0
M  V30 3509 N 342.737 -2.73771 6.36413 0
M  V30 3510 N 344.53 -2.38021 5.09218 0
M  V30 3511 H 336.681 0.114111 2.12093 0
M  V30 3512 H 338.944 -0.0116121 0.947929 0
M  V30 3513 H 338.65 -0.633969 3.45939 0
M  V30 3514 H 338.524 -2.3164 2.97696 0
M  V30 3515 H 340.911 -2.17415 1.99537 0
M  V30 3516 H 340.992 -0.483727 2.51185 0
M  V30 3517 H 340.636 -1.22824 4.92825 0
M  V30 3518 H 340.566 -2.92213 4.38086 0
M  V30 3519 H 343.057 -1.74925 3.34977 0
M  V30 3520 H 343.37 -3.0112 7.11721 0
M  V30 3521 H 341.715 -2.71445 6.39799 0
M  V30 3522 H 344.906 -2.09174 4.18765 0
M  V30 3523 H 345.079 -2.66741 5.90554 0
M  V30 3524 N 338.485 -1.33259 -0.841409 0
M  V30 3525 C 339.896 -1.22066 -1.41269 0
M  V30 3526 C 340.247 0.161479 -1.95534 0
M  V30 3527 O 339.372 1.06094 -1.88608 0
M  V30 3528 C 339.967 -2.20996 -2.568 0
M  V30 3529 C 338.526 -2.13649 -3.09888 0
M  V30 3530 C 337.673 -2.08623 -1.82679 0
M  V30 3531 H 340.624 -1.44895 -0.647395 0
M  V30 3532 H 340.645 -1.81621 -3.34356 0
M  V30 3533 H 340.157 -3.2158 -2.17274 0
M  V30 3534 H 338.258 -1.16359 -3.53965 0
M  V30 3535 H 338.371 -3.04079 -3.70234 0
M  V30 3536 H 336.735 -1.54061 -2.02824 0
M  V30 3537 H 337.518 -3.1101 -1.45353 0
M  V30 3538 N 339.963 1.05934 -1.16686 0
M  V30 3539 C 340.896 2.1295 -0.820225 0
M  V30 3540 C 341.874 1.61242 0.209722 0
M  V30 3541 O 343.058 1.88271 0.0929688 0
M  V30 3542 C 340.185 3.3797 -0.22223 0
M  V30 3543 C 339.231 4.08488 -1.22637 0
M  V30 3544 S 340.064 4.58015 -2.77457 0
M  V30 3545 C 341.22 5.86292 -2.19117 0
M  V30 3546 H 341.453 2.42025 -1.72659 0
M  V30 3547 H 338.986 1.18423 -0.990722 0
M  V30 3548 H 340.944 4.10335 0.116322 0
M  V30 3549 H 339.605 3.07045 0.66196 0
M  V30 3550 H 338.798 4.98291 -0.756455 0
M  V30 3551 H 338.4 3.42154 -1.51019 0
M  V30 3552 H 340.692 6.59246 -1.56209 0
M  V30 3553 H 341.635 6.38019 -3.07144 0
M  V30 3554 H 342.043 5.40497 -1.62858 0
M  V30 3555 N 341.441 0.965919 1.2453 0
M  V30 3556 C 342.687 0.62776 1.92839 0
M  V30 3557 C 343.02 -0.834694 1.75347 0
M  V30 3558 O 342.295 -1.60031 1.10546 0
M  V30 3559 C 342.578 1.00109 3.45905 0
M  V30 3560 C 342.431 2.52011 3.72573 0
M  V30 3561 C 343.75 0.53435 4.36844 0
M  V30 3562 H 340.869 0.229537 0.700344 0
M  V30 3563 H 343.511 1.2046 1.46933 0
M  V30 3564 H 341.661 0.510238 3.85135 0
M  V30 3565 H 343.333 3.08559 3.42912 0
M  V30 3566 H 341.576 2.95287 3.17786 0
M  V30 3567 H 342.247 2.73183 4.79661 0
M  V30 3568 H 344.723 0.955565 4.04979 0
M  V30 3569 H 343.599 0.824152 5.42678 0
M  V30 3570 H 343.86 -0.565589 4.38467 0
M  V30 3571 N 342.919 -1.39368 0.735821 0
M  V30 3572 C 344.335 -1.54204 0.411492 0
M  V30 3573 C 344.535 -1.70268 -1.07755 0
M  V30 3574 O 343.591 -1.70364 -1.86366 0
M  V30 3575 C 344.904 -2.75925 1.19523 0
M  V30 3576 C 346.452 -2.89761 1.18354 0
M  V30 3577 C 346.927 -4.14421 1.94986 0
M  V30 3578 N 348.418 -4.21462 1.92156 0
M  V30 3579 C 349.153 -5.16871 2.48258 0
M  V30 3580 N 348.649 -6.18063 3.13001 0
M  V30 3581 N 350.442 -5.09093 2.38287 0
M  V30 3582 H 342.593 -1.27189 1.70108 0
M  V30 3583 H 344.856 -0.616517 0.720147 0
M  V30 3584 H 344.562 -2.70401 2.24892 0
M  V30 3585 H 344.436 -3.68614 0.800222 0
M  V30 3586 H 346.823 -2.94777 0.137975 0
M  V30 3587 H 346.904 -1.98133 1.61793 0
M  V30 3588 H 346.548 -4.10166 2.99543 0
M  V30 3589 H 346.478 -5.05095 1.48953 0
M  V30 3590 H 348.969 -3.48979 1.44991 0
M  V30 3591 H 349.282 -6.87326 3.53275 0
M  V30 3592 H 347.627 -6.18448 3.17091 0
M  V30 3593 H 350.818 -4.28973 1.8735 0
M  V30 3594 H 350.991 -5.83272 2.82308 0
M  V30 3595 N 344.397 -0.483516 -1.5 0
M  V30 3596 C 345.674 0.129337 -1.95172 0
M  V30 3597 C 346.054 1.55802 -1.4244 0
M  V30 3598 O 345.402 2.19625 -0.630649 0
M  V30 3599 C 345.612 0.0599251 -3.48949 0
M  V30 3600 C 346.96 0.242617 -4.23906 0
M  V30 3601 O 347.984 0.135933 -3.55941 0
M  V30 3602 O 346.843 0.459454 -5.44565 0
M  V30 3603 H 343.937 0.104887 -0.820322 0
M  V30 3604 H 346.483 -0.544807 -1.60717 0
M  V30 3605 H 345.255 -0.937079 -3.79914 0
M  V30 3606 H 344.878 0.774984 -3.89974 0
M  V30 3607 N 345.875 1.56104 -0.216619 0
M  V30 3608 C 347.123 1.97781 0.415593 0
M  V30 3609 C 347.444 1.10536 1.60645 0
M  V30 3610 O 346.714 0.181303 1.95059 0
M  V30 3611 H 345.294 0.730415 0.156534 0
M  V30 3612 H 347.956 1.92445 -0.308366 0
M  V30 3613 H 347.052 3.03072 0.74525 0
M  V30 3614 N 347.353 -0.0568162 1.57498 0
M  V30 3615 C 348.599 -0.75422 1.88253 0
M  V30 3616 C 348.932 -1.76461 0.810865 0
M  V30 3617 O 348.207 -1.93691 -0.177259 0
M  V30 3618 C 348.49 -1.44878 3.2967 0
M  V30 3619 C 348.343 -0.453789 4.47505 0
M  V30 3620 C 349.662 -2.38994 3.69554 0
M  V30 3621 H 346.781 -0.272724 0.684683 0
M  V30 3622 H 349.423 -0.0172113 1.89992 0
M  V30 3623 H 347.573 -2.077 3.28318 0
M  V30 3624 H 349.245 0.170371 4.60985 0
M  V30 3625 H 347.488 0.229552 4.33192 0
M  V30 3626 H 348.159 -0.977699 5.43273 0
M  V30 3627 H 350.635 -1.86239 3.72095 0
M  V30 3628 H 349.511 -2.84587 4.69363 0
M  V30 3629 H 349.772 -3.24461 3.00296 0
M  V30 3630 N 348.832 -1.54138 -0.328536 0
M  V30 3631 C 350.062 -1.75807 -1.08516 0
M  V30 3632 C 350.47 -0.50428 -1.82356 0
M  V30 3633 O 349.813 0.534451 -1.75754 0
M  V30 3634 C 349.875 -2.89423 -2.13248 0
M  V30 3635 C 349.539 -4.28504 -1.5885 0
M  V30 3636 C 350.536 -5.09536 -1.03289 0
M  V30 3637 C 348.221 -4.75034 -1.63243 0
M  V30 3638 C 350.215 -6.35206 -0.52845 0
M  V30 3639 C 347.902 -6.00672 -1.12411 0
M  V30 3640 C 348.9 -6.80592 -0.573062 0
M  V30 3641 O 348.588 -8.03867 -0.0723692 0
M  V30 3642 H 348.32 -0.590633 -0.328829 0
M  V30 3643 H 350.874 -2.01819 -0.381868 0
M  V30 3644 H 349.104 -2.5897 -2.87178 0
M  V30 3645 H 350.793 -2.98921 -2.74592 0
M  V30 3646 H 351.559 -4.74745 -0.99206 0
M  V30 3647 H 347.438 -4.12875 -2.05074 0
M  V30 3648 H 350.982 -6.97532 -0.0976774 0
M  V30 3649 H 346.879 -6.34955 -1.162 0
M  V30 3650 H 347.647 -8.18283 -0.188258 0
M  V30 3651 N 350.31 0.590341 -1.46126 0
M  V30 3652 C 351.557 1.34882 -1.5104 0
M  V30 3653 C 351.885 1.93849 -0.159021 0
M  V30 3654 O 351.14 1.76544 0.844436 0
M  V30 3655 C 351.439 2.5032 -2.55097 0
M  V30 3656 C 351.105 2.09394 -3.99331 0
M  V30 3657 C 349.767 1.97947 -4.38601 0
M  V30 3658 C 352.119 1.77712 -4.89967 0
M  V30 3659 C 349.447 1.53065 -5.66381 0
M  V30 3660 C 351.799 1.34312 -6.18177 0
M  V30 3661 C 350.463 1.21436 -6.56361 0
M  V30 3662 H 349.733 0.493568 -0.552695 0
M  V30 3663 H 352.38 0.665539 -1.79563 0
M  V30 3664 H 350.685 3.24062 -2.20207 0
M  V30 3665 H 352.382 3.08541 -2.56132 0
M  V30 3666 H 348.972 2.19235 -3.68285 0
M  V30 3667 H 353.156 1.85445 -4.60352 0
M  V30 3668 H 348.412 1.41733 -5.94745 0
M  V30 3669 H 352.586 1.08849 -6.87841 0
M  V30 3670 H 350.213 0.864345 -7.5527 0
M  V30 3671 N 351.788 1.33704 0.83433 0
M  V30 3672 C 352.721 1.18675 1.94914 0
M  V30 3673 C 353.699 0.0811145 1.62398 0
M  V30 3674 O 354.883 0.244186 1.86912 0
M  V30 3675 C 352.01 0.821231 3.28593 0
M  V30 3676 C 351.056 1.93501 3.80079 0
M  V30 3677 S 351.889 3.54671 4.01209 0
M  V30 3678 C 353.045 3.20136 5.37833 0
M  V30 3679 H 353.278 2.13043 2.07364 0
M  V30 3680 H 350.811 1.18598 0.988624 0
M  V30 3681 H 352.769 0.617123 4.05835 0
M  V30 3682 H 351.43 -0.103927 3.13928 0
M  V30 3683 H 350.623 1.63273 4.76821 0
M  V30 3684 H 350.225 2.09601 3.09747 0
M  V30 3685 H 352.517 2.71242 6.20833 0
M  V30 3686 H 353.46 4.15975 5.73036 0
M  V30 3687 H 353.868 2.56613 5.02802 0
M  V30 3688 N 353.266 -1.05314 1.17247 0
M  V30 3689 C 354.496 -1.81707 0.983166 0
M  V30 3690 C 354.904 -1.83222 -0.471822 0
M  V30 3691 O 354.247 -1.25721 -1.3394 0
M  V30 3692 C 354.309 -3.29134 1.44606 0
M  V30 3693 C 353.973 -3.51304 2.92292 0
M  V30 3694 C 354.97 -3.4353 3.90235 0
M  V30 3695 C 352.655 -3.78306 3.30439 0
M  V30 3696 C 354.649 -3.62442 5.24323 0
M  V30 3697 C 352.336 -3.96866 4.64694 0
M  V30 3698 C 353.334 -3.88933 5.61445 0
M  V30 3699 O 353.022 -4.06976 6.93272 0
M  V30 3700 H 352.754 -0.579476 0.348114 0
M  V30 3701 H 355.308 -1.33705 1.55924 0
M  V30 3702 H 353.538 -3.78046 0.813537 0
M  V30 3703 H 355.227 -3.87049 1.22262 0
M  V30 3704 H 355.993 -3.22648 3.62109 0
M  V30 3705 H 351.872 -3.83585 2.55702 0
M  V30 3706 H 355.416 -3.56165 5.99827 0
M  V30 3707 H 351.313 -4.1724 4.92525 0
M  V30 3708 H 352.081 -4.24209 6.99992 0
M  V30 3709 N 354.744 -0.972509 -1.24016 0
M  V30 3710 C 355.654 -0.5143 -2.28893 0
M  V30 3711 C 356.67 0.427078 -1.68677 0
M  V30 3712 O 357.846 0.298939 -1.99169 0
M  V30 3713 C 354.911 0.183598 -3.46214 0
M  V30 3714 C 353.972 -0.798202 -4.21814 0
M  V30 3715 C 353.205 -0.133514 -5.33533 0
M  V30 3716 O 353.428 1.07714 -5.60137 0
M  V30 3717 O 352.362 -0.828103 -5.96176 0
M  V30 3718 H 356.188 -1.38629 -2.70214 0
M  V30 3719 H 353.773 -0.739769 -1.29799 0
M  V30 3720 H 355.655 0.575433 -4.17453 0
M  V30 3721 H 354.33 1.03048 -3.0686 0
M  V30 3722 H 353.237 -1.24059 -3.52931 0
M  V30 3723 H 354.57 -1.61364 -4.64997 0
M  V30 3724 N 356.222 1.38976 -0.743202 0
M  V30 3725 C 357.185 2.28901 -0.117014 0
M  V30 3726 C 358.185 1.46698 0.658503 0
M  V30 3727 O 359.375 1.67274 0.486305 0
M  V30 3728 C 356.507 3.30309 0.84315 0
M  V30 3729 H 357.7 2.8578 -0.909373 0
M  V30 3730 H 355.253 1.47761 -0.509547 0
M  V30 3731 H 355.988 2.785 1.66157 0
M  V30 3732 H 355.773 3.91029 0.289594 0
M  V30 3733 H 357.263 3.97577 1.2776 0
M  V30 3734 N 357.7 0.491464 1.49741 0
M  V30 3735 C 358.63 -0.28154 2.31796 0
M  V30 3736 C 359.611 -0.971473 1.3963 0
M  V30 3737 O 360.796 -0.964719 1.68543 0
M  V30 3738 C 357.926 -1.35203 3.19902 0
M  V30 3739 C 356.88 -0.782529 4.20786 0
M  V30 3740 C 356.206 -1.95283 4.97764 0
M  V30 3741 C 357.506 0.21999 5.21837 0
M  V30 3742 H 359.2 0.403355 2.96671 0
M  V30 3743 H 356.746 0.195425 1.42668 0
M  V30 3744 H 358.699 -1.90045 3.76113 0
M  V30 3745 H 357.423 -2.06598 2.52953 0
M  V30 3746 H 356.082 -0.255928 3.65706 0
M  V30 3747 H 355.73 -2.65423 4.2727 0
M  V30 3748 H 355.43 -1.57789 5.66018 0
M  V30 3749 H 356.954 -2.50577 5.56816 0
M  V30 3750 H 358.368 -0.23996 5.72798 0
M  V30 3751 H 356.765 0.51026 5.97927 0
M  V30 3752 H 357.835 1.13911 4.7133 0
M  V30 3753 N 359.178 -1.55987 0.224894 0
M  V30 3754 C 360.128 -2.17076 -0.697296 0
M  V30 3755 C 361.112 -1.12006 -1.15514 0
M  V30 3756 O 362.304 -1.37985 -1.10857 0
M  V30 3757 C 359.433 -2.85679 -1.90374 0
M  V30 3758 C 358.519 -3.97977 -1.46543 0
M  V30 3759 N 358.91 -5.00359 -0.739909 0
M  V30 3760 C 357.208 -4.10128 -1.75245 0
M  V30 3761 C 357.909 -5.79407 -0.515939 0
M  V30 3762 N 356.885 -5.32892 -1.07364 0
M  V30 3763 H 360.687 -2.93592 -0.134594 0
M  V30 3764 H 358.201 -1.62379 0.0262885 0
M  V30 3765 H 360.198 -3.27857 -2.57518 0
M  V30 3766 H 358.858 -2.1066 -2.47088 0
M  V30 3767 H 359.869 -5.16412 -0.392253 0
M  V30 3768 H 356.546 -3.46263 -2.33255 0
M  V30 3769 H 357.936 -6.71872 0.0617349 0
M  V30 3770 N 360.656 0.0484629 -1.57525 0
M  V30 3771 C 361.904 0.741657 -1.88 0
M  V30 3772 C 362.225 1.76918 -0.820054 0
M  V30 3773 O 361.495 1.95335 0.148661 0
M  V30 3774 H 360.075 0.276908 -0.69378 0
M  V30 3775 H 362.737 0.019013 -1.94891 0
M  V30 3776 H 361.833 1.24336 -2.86264 0
M  V30 3777 N 362.134 1.5431 0.320358 0
M  V30 3778 C 363.545 1.63872 0.894594 0
M  V30 3779 C 363.896 0.534847 1.88769 0
M  V30 3780 O 363.021 -0.331732 2.13842 0
M  V30 3781 C 363.616 2.97049 1.62934 0
M  V30 3782 C 362.175 3.08796 2.15226 0
M  V30 3783 C 361.322 2.59456 0.978671 0
M  V30 3784 H 364.273 1.58398 0.0978544 0
M  V30 3785 H 364.294 2.87388 2.49376 0
M  V30 3786 H 363.806 3.7737 0.906302 0
M  V30 3787 H 361.907 2.33156 2.90636 0
M  V30 3788 H 362.02 4.14649 2.40006 0
M  V30 3789 H 360.384 2.1543 1.35875 0
M  V30 3790 H 361.167 3.42237 0.269895 0
M  V30 3791 N 363.613 -0.582584 1.46437 0
M  V30 3792 C 365.024 -1.1647 1.45916 0
M  V30 3793 C 365.375 -1.95177 0.200077 0
M  V30 3794 O 364.5 -2.04874 -0.696819 0
M  V30 3795 C 365.095 -2.11885 2.64367 0
M  V30 3796 C 363.654 -2.65421 2.66887 0
M  V30 3797 C 362.801 -1.41294 2.38603 0
M  V30 3798 H 365.752 -0.370514 1.54314 0
M  V30 3799 H 365.773 -2.9535 2.39892 0
M  V30 3800 H 365.285 -1.54573 3.5599 0
M  V30 3801 H 363.386 -3.26602 1.79338 0
M  V30 3802 H 363.499 -3.08147 3.66854 0
M  V30 3803 H 361.863 -1.71109 1.88663 0
M  V30 3804 H 362.646 -0.858125 3.32402 0
M  V30 3805 N 365.091 -1.34144 -0.827227 0
M  V30 3806 C 366.038 -1.25364 -1.93785 0
M  V30 3807 C 367.008 -0.129774 -1.65592 0
M  V30 3808 O 368.193 -0.310024 -1.88264 0
M  V30 3809 C 365.333 -1.01064 -3.2997 0
M  V30 3810 C 364.446 -2.22185 -3.70484 0
M  V30 3811 C 363.581 -1.91203 -4.95595 0
M  V30 3812 C 362.62 -3.08491 -5.28677 0
M  V30 3813 N 361.757 -2.77421 -6.44967 0
M  V30 3814 H 366.597 -2.20347 -2.00627 0
M  V30 3815 H 364.134 -1.09558 -0.981608 0
M  V30 3816 H 366.092 -0.850139 -4.08446 0
M  V30 3817 H 364.722 -0.0975026 -3.22653 0
M  V30 3818 H 363.774 -2.4917 -2.87434 0
M  V30 3819 H 365.086 -3.0983 -3.90905 0
M  V30 3820 H 364.24 -1.71864 -5.81848 0
M  V30 3821 H 362.979 -1.00812 -4.77167 0
M  V30 3822 H 361.984 -3.28431 -4.40923 0
M  V30 3823 H 363.209 -3.99655 -5.49047 0
M  V30 3824 H 361.155 -1.89601 -6.28003 0
M  V30 3825 H 361.072 -3.58598 -6.6554 0
M  V30 3826 H 362.34 -2.61577 -7.34301 0
M  V30 3827 N 366.569 1.04691 -1.17803 0
M  V30 3828 C 367.516 2.12557 -0.899343 0
M  V30 3829 C 368.486 1.65339 0.158771 0
M  V30 3830 O 369.671 1.90789 0.0204797 0
M  V30 3831 C 366.811 3.42481 -0.424315 0
M  V30 3832 C 365.924 4.03346 -1.54713 0
M  V30 3833 C 365.059 5.21208 -1.02546 0
M  V30 3834 C 364.098 5.74089 -2.12339 0
M  V30 3835 N 363.235 6.83247 -1.61612 0
M  V30 3836 H 368.075 2.35734 -1.823 0
M  V30 3837 H 365.612 1.1564 -0.909159 0
M  V30 3838 H 367.57 4.16996 -0.130421 0
M  V30 3839 H 366.2 3.19471 0.462377 0
M  V30 3840 H 365.252 3.2622 -1.95664 0
M  V30 3841 H 366.564 4.38628 -2.37501 0
M  V30 3842 H 365.718 6.02812 -0.685718 0
M  V30 3843 H 364.457 4.87414 -0.167084 0
M  V30 3844 H 363.462 4.91111 -2.47165 0
M  V30 3845 H 364.687 6.0993 -2.98601 0
M  V30 3846 H 362.633 6.5134 -0.780533 0
M  V30 3847 H 362.55 7.17559 -2.38003 0
M  V30 3848 H 363.818 7.68491 -1.30545 0
M  V30 3849 N 368.047 0.979072 1.23499 0
M  V30 3850 C 369.296 0.642751 1.91185 0
M  V30 3851 C 369.609 -0.827253 1.77245 0
M  V30 3852 O 370.815 -1.27458 2.39722 0
M  V30 3853 C 369.271 1.09901 3.42709 0
M  V30 3854 C 368.879 2.59327 3.65313 0
M  V30 3855 C 370.623 0.836371 4.16179 0
M  V30 3856 C 368.53 2.98627 5.10467 0
M  V30 3857 H 367.46 0.236698 0.715884 0
M  V30 3858 H 370.111 1.1868 1.39955 0
M  V30 3859 H 368.493 0.48319 3.93041 0
M  V30 3860 H 369.667 3.26136 3.25533 0
M  V30 3861 H 367.982 2.83323 3.05151 0
M  V30 3862 H 370.579 1.10586 5.23139 0
M  V30 3863 H 370.922 -0.227509 4.15678 0
M  V30 3864 H 371.455 1.41371 3.71832 0
M  V30 3865 H 368.194 4.04133 5.16098 0
M  V30 3866 H 367.714 2.3651 5.51201 0
M  V30 3867 H 369.393 2.89159 5.78788 0
M  V30 3868 N 369.525 -1.3858 0.750561 0
M  V30 3869 C 370.455 -2.33102 0.136237 0
M  V30 3870 C 371.436 -1.54713 -0.706965 0
M  V30 3871 O 372.621 -1.83043 -0.648769 0
M  V30 3872 C 369.751 -3.38882 -0.760017 0
M  V30 3873 C 368.705 -4.27995 -0.0197785 0
M  V30 3874 C 368.031 -5.24605 -1.03408 0
M  V30 3875 C 369.331 -5.09554 1.14684 0
M  V30 3876 H 371.025 -2.84726 0.925822 0
M  V30 3877 H 368.571 -1.36898 0.446654 0
M  V30 3878 H 370.524 -4.0397 -1.19943 0
M  V30 3879 H 369.248 -2.85734 -1.58189 0
M  V30 3880 H 367.907 -3.64409 0.400184 0
M  V30 3881 H 367.555 -4.67746 -1.84994 0
M  V30 3882 H 367.255 -5.85081 -0.543464 0
M  V30 3883 H 368.779 -5.9257 -1.47288 0
M  V30 3884 H 370.193 -5.67899 0.785118 0
M  V30 3885 H 368.59 -5.7925 1.56812 0
M  V30 3886 H 369.66 -4.4347 1.96118 0
M  V30 3887 N 371.003 -0.499398 -1.49478 0
M  V30 3888 C 372.249 0.0457576 -2.02748 0
M  V30 3889 C 372.582 1.36793 -1.37846 0
M  V30 3890 O 371.857 1.87596 -0.513601 0
M  V30 3891 C 372.14 0.199986 -3.59544 0
M  V30 3892 C 371.993 -1.1452 -4.34977 0
M  V30 3893 C 373.312 0.94137 -4.29914 0
M  V30 3894 H 370.431 0.0151552 -0.736844 0
M  V30 3895 H 373.073 -0.650498 -1.78518 0
M  V30 3896 H 371.223 0.793007 -3.8032 0
M  V30 3897 H 372.895 -1.77697 -4.25701 0
M  V30 3898 H 371.138 -1.73488 -3.97598 0
M  V30 3899 H 371.809 -0.990607 -5.43039 0
M  V30 3900 H 374.285 0.43844 -4.13784 0
M  V30 3901 H 373.161 1.01812 -5.39375 0
M  V30 3902 H 373.422 1.98471 -3.95046 0
M  V30 3903 N 372.481 1.55866 -0.233164 0
M  V30 3904 C 373.391 2.24431 0.683217 0
M  V30 3905 C 374.407 1.2558 1.2044 0
M  V30 3906 O 375.583 1.58422 1.24356 0
M  V30 3907 C 372.648 2.91979 1.86947 0
M  V30 3908 C 371.709 4.06204 1.38912 0
M  V30 3909 C 370.942 4.70522 2.51883 0
M  V30 3910 O 371.165 4.33865 3.70293 0
M  V30 3911 O 370.099 5.59296 2.22423 0
M  V30 3912 H 373.925 3.03426 0.129059 0
M  V30 3913 H 371.51 1.494 -0.0022283 0
M  V30 3914 H 373.392 3.34573 2.56201 0
M  V30 3915 H 372.067 2.15935 2.41151 0
M  V30 3916 H 370.974 3.68155 0.664259 0
M  V30 3917 H 372.307 4.84025 0.893328 0
M  V30 3918 N 373.959 -0.0401083 1.57549 0
M  V30 3919 C 375.207 -0.731677 1.8839 0
M  V30 3920 C 375.528 -1.76481 0.829425 0
M  V30 3921 O 374.798 -1.95411 -0.1383 0
M  V30 3922 H 373.378 -0.273225 0.695239 0
M  V30 3923 H 376.04 -0.00867725 1.94898 0
M  V30 3924 H 375.136 -1.22816 2.86919 0
M  V30 3925 N 375.437 -1.54477 -0.31217 0
M  V30 3926 C 376.4 -1.83923 -1.36766 0
M  V30 3927 C 377.4 -0.711563 -1.44199 0
M  V30 3928 O 378.59 -0.979866 -1.44029 0
M  V30 3929 C 375.722 -2.0095 -2.75376 0
M  V30 3930 H 376.915 -2.78239 -1.11906 0
M  V30 3931 H 374.468 -1.46369 -0.548257 0
M  V30 3932 H 375.203 -1.08883 -3.05475 0
M  V30 3933 H 374.988 -2.83018 -2.71373 0
M  V30 3934 H 376.478 -2.2514 -3.51713 0
M  V30 3935 N 376.915 0.57481 -1.46744 0
M  V30 3936 C 377.863 1.70435 -1.58286 0
M  V30 3937 C 378.857 1.63287 -0.450956 0
M  V30 3938 O 380.063 1.68685 -0.628121 0
M  V30 3939 H 376.438 0.56364 -0.497809 0
M  V30 3940 H 378.409 1.57833 -2.53242 0
M  V30 3941 C 377.158 3.08815 -1.59776 0
M  V30 3942 H 376.481 3.1499 -2.46214 0
M  V30 3943 H 377.921 3.87588 -1.71905 0
M  V30 3944 C 376.38 3.35301 -0.327812 0
M  V30 3945 O 376.91 3.97511 0.57861 0
M  V30 3946 N 375.116 2.89816 -0.213274 0
M  V30 3947 H 374.663 2.39371 -0.951798 0
M  V30 3948 H 374.621 3.0791 0.63553 0
M  V30 3949 N 378.394 1.34581 0.820102 0
M  V30 3950 C 379.357 1.2628 1.91275 0
M  V30 3951 C 380.357 0.177344 1.59819 0
M  V30 3952 O 381.547 0.430156 1.68806 0
M  V30 3953 C 378.679 0.950327 3.27386 0
M  V30 3954 H 379.872 2.23421 2.00057 0
M  V30 3955 H 377.425 1.1891 1.0144 0
M  V30 3956 H 378.16 -0.0177938 3.24295 0
M  V30 3957 H 377.945 1.73549 3.51601 0
M  V30 3958 H 379.435 0.917492 4.07396 0
M  V30 3959 N 379.872 -1.04064 1.18357 0
M  V30 3960 C 380.835 -2.10243 0.912707 0
M  V30 3961 C 381.835 -1.60477 -0.101928 0
M  V30 3962 O 383.025 -1.73703 0.131517 0
M  V30 3963 C 380.157 -3.38893 0.369387 0
M  V30 3964 H 381.35 -2.35706 1.85426 0
M  V30 3965 H 378.903 -1.20489 0.995594 0
M  V30 3966 H 379.638 -3.19094 -0.578776 0
M  V30 3967 H 379.423 -3.76331 1.1008 0
M  V30 3968 H 380.913 -4.17128 0.198575 0
M  V30 3969 N 381.35 -0.985608 -1.22978 0
M  V30 3970 C 382.28 -0.549649 -2.26939 0
M  V30 3971 C 383.261 0.419803 -1.64838 0
M  V30 3972 O 384.446 0.31203 -1.91677 0
M  V30 3973 C 381.576 0.143652 -3.47003 0
M  V30 3974 C 380.53 -0.743606 -4.21491 0
M  V30 3975 C 379.856 0.0822027 -5.34637 0
M  V30 3976 C 381.156 -2.03694 -4.80943 0
M  V30 3977 H 382.85 -1.41862 -2.63658 0
M  V30 3978 H 380.396 -0.683571 -1.26741 0
M  V30 3979 H 382.349 0.459985 -4.18882 0
M  V30 3980 H 381.073 1.04711 -3.09359 0
M  V30 3981 H 379.732 -1.04347 -3.51436 0
M  V30 3982 H 379.38 0.986359 -4.93234 0
M  V30 3983 H 379.08 -0.508377 -5.85397 0
M  V30 3984 H 380.604 0.392797 -6.09335 0
M  V30 3985 H 382.018 -1.78504 -5.44802 0
M  V30 3986 H 380.415 -2.57573 -5.42011 0
M  V30 3987 H 381.485 -2.72042 -4.01399 0
M  V30 3988 N 382.828 1.3818 -0.7579 0
M  V30 3989 C 383.758 2.33027 -0.148597 0
M  V30 3990 C 384.739 1.55085 0.69875 0
M  V30 3991 O 385.924 1.83384 0.639053 0
M  V30 3992 C 383.054 3.3928 0.742034 0
M  V30 3993 C 382.008 4.28 -0.00291946 0
M  V30 3994 C 381.334 5.25146 1.00625 0
M  V30 3995 C 382.634 5.08938 -1.17385 0
M  V30 3996 H 384.328 2.84231 -0.940909 0
M  V30 3997 H 381.874 1.36659 -0.453908 0
M  V30 3998 H 383.827 4.046 1.17799 0
M  V30 3999 H 382.551 2.86569 1.56671 0
M  V30 4000 H 381.21 3.64192 -0.419504 0
M  V30 4001 H 380.858 4.68721 1.8251 0
M  V30 4002 H 380.558 5.85361 0.512428 0
M  V30 4003 H 382.082 5.93342 1.44143 0
M  V30 4004 H 383.496 5.67474 -0.815224 0
M  V30 4005 H 381.893 5.7841 -1.59882 0
M  V30 4006 H 382.963 4.42424 -1.98468 0
M  V30 4007 N 384.306 0.507319 1.49211 0
M  V30 4008 C 385.583 -0.0982702 1.95353 0
M  V30 4009 C 385.963 -1.53516 1.449 0
M  V30 4010 O 385.311 -2.18594 0.66551 0
M  V30 4011 C 385.521 -0.00440283 3.49 0
M  V30 4012 C 386.869 -0.175147 4.24239 0
M  V30 4013 O 387.893 -0.0792891 3.56112 0
M  V30 4014 O 386.752 -0.37276 5.45227 0
M  V30 4015 H 383.846 -0.0918236 0.821887 0
M  V30 4016 H 386.392 0.570307 1.5983 0
M  V30 4017 H 385.164 0.997402 3.78375 0
M  V30 4018 H 384.787 -0.712845 3.91158 0
M  V30 4019 N 385.784 -1.5574 0.241426 0
M  V30 4020 C 387.033 -1.97986 -0.385295 0
M  V30 4021 C 387.346 -1.13267 -1.59468 0
M  V30 4022 O 388.552 -1.45501 -2.2922 0
M  V30 4023 C 387.008 -3.52275 -0.736884 0
M  V30 4024 C 386.616 -4.45726 0.450796 0
M  V30 4025 C 388.36 -4.03189 -1.3281 0
M  V30 4026 C 386.267 -5.91352 0.0756662 0
M  V30 4027 H 385.197 -0.739386 -0.147731 0
M  V30 4028 H 387.848 -1.80308 0.340779 0
M  V30 4029 H 386.23 -3.65628 -1.52094 0
M  V30 4030 H 387.404 -4.44131 1.22819 0
M  V30 4031 H 385.719 -4.05264 0.956573 0
M  V30 4032 H 388.316 -5.09505 -1.62201 0
M  V30 4033 H 388.659 -3.50212 -2.25071 0
M  V30 4034 H 389.192 -3.93141 -0.607069 0
M  V30 4035 H 385.931 -6.48354 0.965272 0
M  V30 4036 H 385.451 -5.96095 -0.665635 0
M  V30 4037 H 387.13 -6.46084 -0.344075 0
M  V30 4038 N 387.262 0.0317525 -1.57568 0
M  V30 4039 C 388.539 0.758366 -1.803 0
M  V30 4040 C 388.919 1.93718 -0.838845 0
M  V30 4041 O 388.267 2.28187 0.119571 0
M  V30 4042 C 388.477 1.19392 -3.27943 0
M  V30 4043 C 389.825 1.61094 -3.92854 0
M  V30 4044 O 390.849 1.28857 -3.32076 0
M  V30 4045 O 389.708 2.20918 -4.99858 0
M  V30 4046 H 386.802 0.366514 -0.741348 0
M  V30 4047 H 389.348 0.00873765 -1.69698 0
M  V30 4048 H 388.12 0.352275 -3.89711 0
M  V30 4049 H 387.743 2.00365 -3.43424 0
M  V30 4050 N 388.74 1.54641 0.303973 0
M  V30 4051 C 389.987 1.7378 1.03955 0
M  V30 4052 C 390.315 0.521986 1.87365 0
M  V30 4053 O 389.57 -0.496099 1.89308 0
M  V30 4054 C 389.869 2.97753 1.97681 0
M  V30 4055 C 389.535 4.31671 1.30271 0
M  V30 4056 C 388.197 4.68075 1.11619 0
M  V30 4057 C 390.549 5.147 0.82055 0
M  V30 4058 C 387.877 5.8509 0.434304 0
M  V30 4059 C 390.229 6.32416 0.152395 0
M  V30 4060 C 388.893 6.67484 -0.0461067 0
M  V30 4061 H 388.163 0.635908 0.380398 0
M  V30 4062 H 390.81 1.88896 0.314718 0
M  V30 4063 H 389.115 2.77406 2.76682 0
M  V30 4064 H 390.812 3.09756 2.54661 0
M  V30 4065 H 387.402 4.03041 1.45795 0
M  V30 4066 H 391.586 4.87077 0.952374 0
M  V30 4067 H 386.842 6.10806 0.269495 0
M  V30 4068 H 391.016 6.96023 -0.229126 0
M  V30 4069 H 388.643 7.58011 -0.576494 0
M  V30 4070 N 390.218 -0.567019 1.47046 0
M  V30 4071 C 391.466 -1.322 1.52864 0
M  V30 4072 C 391.787 -1.94088 0.188388 0
M  V30 4073 O 391.057 -1.7941 -0.786693 0
M  V30 4074 H 389.637 -0.490894 0.563056 0
M  V30 4075 H 392.299 -0.662879 1.83281 0
M  V30 4076 H 391.395 -2.12062 2.2899 0
M  V30 4077 N 391.696 -1.35014 -0.812953 0
M  V30 4078 C 392.924 -1.31031 -1.6012 0
M  V30 4079 C 393.339 0.113558 -1.88458 0
M  V30 4080 O 392.696 1.06363 -1.48301 0
M  V30 4081 C 392.747 -2.10872 -2.93624 0
M  V30 4082 O 392.468 -3.47706 -2.66518 0
M  V30 4083 C 393.969 -2.14401 -3.88004 0
M  V30 4084 H 391.189 -0.45037 -0.497401 0
M  V30 4085 H 393.733 -1.77775 -1.01076 0
M  V30 4086 H 391.888 -1.67744 -3.492 0
M  V30 4087 H 392.302 -3.89097 -3.51715 0
M  V30 4088 H 393.776 -2.74669 -4.78812 0
M  V30 4089 H 394.253 -1.14105 -4.24119 0
M  V30 4090 H 394.859 -2.57662 -3.38364 0
M  V30 4091 N 393.175 1.03435 -1.18907 0
M  V30 4092 C 394.405 1.8012 -1.01195 0
M  V30 4093 C 394.813 1.8395 0.442613 0
M  V30 4094 O 394.156 1.27836 1.31923 0
M  V30 4095 C 394.218 3.26792 -1.49823 0
M  V30 4096 C 393.882 3.46609 -2.97844 0
M  V30 4097 C 394.879 3.37278 -3.95651 0
M  V30 4098 C 392.564 3.73001 -3.36416 0
M  V30 4099 C 394.558 3.54054 -5.30023 0
M  V30 4100 C 392.245 3.89423 -4.70949 0
M  V30 4101 C 393.243 3.79951 -5.67562 0
M  V30 4102 O 392.931 3.95895 -6.99659 0
M  V30 4103 H 392.663 0.573865 -0.357289 0
M  V30 4104 H 395.217 1.31207 -1.58031 0
M  V30 4105 H 393.447 3.76703 -0.873578 0
M  V30 4106 H 395.136 3.85055 -1.28404 0
M  V30 4107 H 395.902 3.16846 -3.67197 0
M  V30 4108 H 391.781 3.79469 -2.61772 0
M  V30 4109 H 395.325 3.46577 -6.05417 0
M  V30 4110 H 391.222 4.09351 -4.99101 0
M  V30 4111 H 391.99 4.13019 -7.06653 0
M  V30 4112 N 394.653 0.992116 1.22453 0
M  V30 4113 C 396.064 0.702776 1.72968 0
M  V30 4114 C 396.415 -0.780399 1.80012 0
M  V30 4115 O 395.54 -1.61007 1.44589 0
M  V30 4116 C 396.135 1.26903 3.14135 0
M  V30 4117 C 394.694 1.02909 3.62059 0
M  V30 4118 C 393.841 1.38969 2.39964 0
M  V30 4119 H 396.792 1.16457 1.07812 0
M  V30 4120 H 396.813 0.647223 3.74955 0
M  V30 4121 H 396.325 2.34851 3.08977 0
M  V30 4122 H 394.426 -0.0337979 3.72585 0
M  V30 4123 H 394.539 1.69191 4.48231 0
M  V30 4124 H 392.903 0.808279 2.41535 0
M  V30 4125 H 393.686 2.4792 2.37467 0
M  V30 4126 N 396.131 -1.37776 0.765217 0
M  V30 4127 C 397.378 -1.99849 0.326588 0
M  V30 4128 C 397.706 -1.60746 -1.09504 0
M  V30 4129 O 396.961 -0.84202 -1.76659 0
M  V30 4130 C 397.26 -3.5504 0.410053 0
M  V30 4131 C 396.926 -4.13891 1.78899 0
M  V30 4132 C 395.588 -4.29678 2.16635 0
M  V30 4133 C 397.94 -4.46236 2.69301 0
M  V30 4134 C 395.268 -4.7511 3.44221 0
M  V30 4135 C 397.62 -4.93089 3.9629 0
M  V30 4136 C 396.284 -5.07082 4.34078 0
M  V30 4137 H 395.554 -0.7313 0.119507 0
M  V30 4138 H 398.201 -1.64645 0.977968 0
M  V30 4139 H 396.506 -3.90451 -0.324878 0
M  V30 4140 H 398.203 -4.00966 0.0520699 0
M  V30 4141 H 394.793 -4.02026 1.48569 0
M  V30 4142 H 398.977 -4.3363 2.41409 0
M  V30 4143 H 394.233 -4.84129 3.73402 0
M  V30 4144 H 398.407 -5.17084 4.66472 0
M  V30 4145 H 396.034 -5.42046 5.33001 0
M  V30 4146 N 397.609 -0.515225 -1.4894 0
M  V30 4147 C 398.855 0.0242508 -2.02785 0
M  V30 4148 C 399.188 1.35323 -1.39289 0
M  V30 4149 O 398.463 1.87041 -0.533469 0
M  V30 4150 C 398.746 0.16184 -3.59736 0
M  V30 4151 C 398.599 -1.19127 -4.33738 0
M  V30 4152 C 399.918 0.895719 -4.30888 0
M  V30 4153 H 397.037 0.00733914 -0.736963 0
M  V30 4154 H 399.679 -0.669395 -1.77818 0
M  V30 4155 H 397.829 0.752624 -3.8114 0
M  V30 4156 H 399.501 -1.82202 -4.23792 0
M  V30 4157 H 397.744 -1.77695 -3.95736 0
M  V30 4158 H 398.415 -1.04815 -5.41957 0
M  V30 4159 H 400.891 0.394528 -4.14225 0
M  V30 4160 H 399.767 0.960859 -5.40425 0
M  V30 4161 H 400.028 1.9427 -3.97129 0
M  V30 4162 N 399.087 1.5561 -0.249682 0
M  V30 4163 C 400.315 2.03411 0.378352 0
M  V30 4164 C 400.73 1.12886 1.51335 0
M  V30 4165 O 400.087 0.143833 1.81932 0
M  V30 4166 C 400.138 3.50537 0.88351 0
M  V30 4167 O 399.859 4.37614 -0.20626 0
M  V30 4168 C 401.36 4.14113 1.58195 0
M  V30 4169 H 398.58 0.664994 0.08958 0
M  V30 4170 H 401.124 2.01044 -0.374357 0
M  V30 4171 H 399.279 3.5343 1.58639 0
M  V30 4172 H 399.693 5.24199 0.177782 0
M  V30 4173 H 401.167 5.18741 1.8871 0
M  V30 4174 H 401.644 3.60767 2.50487 0
M  V30 4175 H 402.25 4.15151 0.923573 0
M  V30 4176 N 400.565 -0.0233959 1.57583 0
M  V30 4177 C 401.79 -0.728376 1.94189 0
M  V30 4178 C 402.215 -1.67793 0.850119 0
M  V30 4179 O 401.573 -1.80262 -0.19371 0
M  V30 4180 C 401.621 -1.45669 3.29868 0
M  V30 4181 O 400.725 -2.57013 3.22518 0
M  V30 4182 H 400.066 -0.195493 0.63457 0
M  V30 4183 H 402.596 0.0228214 2.04587 0
M  V30 4184 H 402.606 -1.82535 3.6489 0
M  V30 4185 H 401.281 -0.760314 4.08891 0
M  V30 4186 H 399.858 -2.22648 2.99136 0
M  V30 4187 N 402.043 -1.548 -0.295768 0
M  V30 4188 C 403.268 -1.78653 -1.05346 0
M  V30 4189 C 403.693 -0.546894 -1.79974 0
M  V30 4190 O 403.051 0.502763 -1.7419 0
M  V30 4191 C 403.099 -2.99679 -2.00561 0
M  V30 4192 O 402.203 -2.7317 -3.08953 0
M  V30 4193 H 401.544 -0.59116 -0.302367 0
M  V30 4194 H 404.074 -2.01895 -0.331598 0
M  V30 4195 H 404.084 -3.27793 -2.42932 0
M  V30 4196 H 402.759 -3.89562 -1.4565 0
M  V30 4197 H 401.336 -2.56089 -2.71059 0
M  V30 4198 N 403.521 0.559213 -1.47345 0
M  V30 4199 C 404.469 1.68747 -1.60085 0
M  V30 4200 C 405.463 1.628 -0.46825 0
M  V30 4201 O 406.669 1.68009 -0.645977 0
M  V30 4202 H 403.044 0.558329 -0.503759 0
M  V30 4203 H 405.015 1.55138 -2.54902 0
M  V30 4204 C 403.764 3.07103 -1.63042 0
M  V30 4205 H 403.087 3.12361 -2.49541 0
M  V30 4206 H 404.527 3.85743 -1.76006 0
M  V30 4207 C 402.986 3.34935 -0.363357 0
M  V30 4208 O 403.516 3.98102 0.536416 0
M  V30 4209 N 401.722 2.89574 -0.244 0
M  V30 4210 H 401.269 2.38348 -0.977133 0
M  V30 4211 H 401.227 3.08566 0.602836 0
M  V30 4212 N 404.999 1.35443 0.805782 0
M  V30 4213 C 406.239 1.30127 1.57627 0
M  V30 4214 C 406.603 -0.122567 1.91608 0
M  V30 4215 O 407.804 -0.300107 2.67119 0
M  V30 4216 C 406.075 2.18314 2.82973 0
M  V30 4217 S 407.634 2.30521 3.7337 0
M  V30 4218 H 404.452 0.462439 0.540066 0
M  V30 4219 H 407.054 1.70843 0.95042 0
M  V30 4220 H 405.758 3.20741 2.56034 0
M  V30 4221 H 405.289 1.78558 3.50543 0
M  V30 4222 H 407.304 1.49062 4.73281 0
M  V30 4223 N 406.477 -1.02803 1.19454 0
M  V30 4224 C 407.705 -1.79841 1.02297 0
M  V30 4225 C 408.12 -1.83879 -0.428259 0
M  V30 4226 O 407.477 -1.28345 -1.29745 0
M  V30 4227 C 407.528 -3.24852 1.58598 0
M  V30 4228 O 407.249 -3.21097 2.98041 0
M  V30 4229 C 408.75 -4.18485 1.46236 0
M  V30 4230 H 405.97 -0.565936 0.360496 0
M  V30 4231 H 408.514 -1.2948 1.58288 0
M  V30 4232 H 406.669 -3.72401 1.06753 0
M  V30 4233 H 407.083 -4.12033 3.24545 0
M  V30 4234 H 408.557 -5.18121 1.90407 0
M  V30 4235 H 409.034 -4.37254 0.41301 0
M  V30 4236 H 409.64 -3.76811 1.97215 0
M  V30 4237 N 407.956 -0.998596 -1.21925 0
M  V30 4238 C 409.202 -0.678667 -1.91107 0
M  V30 4239 C 409.535 0.78791 -1.77498 0
M  V30 4240 O 408.81 1.57043 -1.1475 0
M  V30 4241 C 409.093 -1.09245 -3.43129 0
M  V30 4242 C 408.946 -2.61801 -3.6576 0
M  V30 4243 C 410.265 -0.649984 -4.35274 0
M  V30 4244 H 407.384 -0.248025 -0.694012 0
M  V30 4245 H 410.026 -1.24314 -1.43688 0
M  V30 4246 H 408.176 -0.612171 -3.83647 0
M  V30 4247 H 409.848 -3.17543 -3.34611 0
M  V30 4248 H 408.091 -3.03609 -3.09845 0
M  V30 4249 H 408.762 -2.85804 -4.7225 0
M  V30 4250 H 411.238 -1.0626 -4.02303 0
M  V30 4251 H 410.114 -0.967743 -5.40302 0
M  V30 4252 H 410.375 0.449139 -4.39813 0
M  V30 4253 N 409.434 1.37368 -0.772513 0
M  V30 4254 C 410.682 1.99279 -0.336516 0
M  V30 4255 C 411.003 1.6163 1.09091 0
M  V30 4256 O 410.273 0.882109 1.74916 0
M  V30 4257 H 408.853 0.737063 -0.121435 0
M  V30 4258 H 411.515 1.67836 -0.990809 0
M  V30 4259 H 410.611 3.09332 -0.414763 0
M  V30 4260 N 410.912 0.523116 1.48665 0
M  V30 4261 C 412.16 -0.0134497 2.02096 0
M  V30 4262 C 412.481 -1.35418 1.40311 0
M  V30 4263 O 411.751 -1.87543 0.566074 0
M  V30 4264 H 410.331 -0.00795915 0.746958 0
M  V30 4265 H 412.993 0.685388 1.82451 0
M  V30 4266 H 412.089 -0.126849 3.11842 0
M  V30 4267 N 412.39 -1.55475 0.257931 0
M  V30 4268 C 413.636 -1.99502 -0.364266 0
M  V30 4269 C 413.969 -1.146 -1.56782 0
M  V30 4270 O 413.244 -0.211968 -1.93342 0
M  V30 4271 C 413.527 -3.51917 -0.763333 0
M  V30 4272 C 413.38 -4.4758 0.446371 0
M  V30 4273 C 414.699 -4.09742 -1.60623 0
M  V30 4274 H 411.818 -0.725277 -0.130929 0
M  V30 4275 H 414.46 -1.8653 0.361446 0
M  V30 4276 H 412.61 -3.63101 -1.38166 0
M  V30 4277 H 414.282 -4.48362 1.08487 0
M  V30 4278 H 412.525 -4.19947 1.08753 0
M  V30 4279 H 413.196 -5.51862 0.123645 0
M  V30 4280 H 415.672 -4.01727 -1.08418 0
M  V30 4281 H 414.548 -5.16631 -1.85429 0
M  V30 4282 H 414.809 -3.58889 -2.58169 0
M  V30 4283 N 413.868 0.0150385 -1.57593 0
M  V30 4284 C 415.108 0.70768 -1.91758 0
M  V30 4285 C 415.472 1.71764 -0.857974 0
M  V30 4286 O 416.673 2.45956 -1.0844 0
M  V30 4287 C 414.944 1.34736 -3.3103 0
M  V30 4288 S 416.503 2.06721 -3.87056 0
M  V30 4289 H 413.321 0.234119 -0.671349 0
M  V30 4290 H 415.923 -0.0380373 -1.95463 0
M  V30 4291 H 414.627 0.59926 -4.06001 0
M  V30 4292 H 414.158 2.13133 -3.30663 0
M  V30 4293 H 416.173 3.34047 -3.66915 0
M  V30 4294 N 415.346 1.54954 0.287554 0
M  V30 4295 C 416.574 1.78881 1.03967 0
M  V30 4296 C 416.989 0.554894 1.80462 0
M  V30 4297 O 416.346 -0.475676 1.76192 0
M  V30 4298 C 416.397 3.00488 2.0097 0
M  V30 4299 O 416.118 4.19113 1.27577 0
M  V30 4300 C 417.619 3.36907 2.88112 0
M  V30 4301 H 414.839 0.596259 0.307761 0
M  V30 4302 H 417.383 2.01937 0.322749 0
M  V30 4303 H 415.538 2.79601 2.68145 0
M  V30 4304 H 415.952 4.87765 1.92835 0
M  V30 4305 H 417.426 4.25205 3.52001 0
M  V30 4306 H 417.903 2.55659 3.57121 0
M  V30 4307 H 418.509 3.60001 2.26449 0
M  V30 4308 N 416.824 -0.551391 1.4764 0
M  V30 4309 C 418.072 -1.30572 1.54258 0
M  V30 4310 C 418.393 -1.93877 0.208963 0
M  V30 4311 O 417.663 -1.80234 -0.767619 0
M  V30 4312 H 416.243 -0.484894 0.568231 0
M  V30 4313 H 418.905 -0.643402 1.83974 0
M  V30 4314 H 418.001 -2.09621 2.31226 0
M  V30 4315 N 418.302 -1.35869 -0.798587 0
M  V30 4316 C 419.232 -1.32118 -1.92528 0
M  V30 4317 C 420.213 -0.194209 -1.68988 0
M  V30 4318 O 421.398 -0.390426 -1.90235 0
M  V30 4319 C 418.528 -1.10047 -3.29404 0
M  V30 4320 C 417.482 -2.19471 -3.67446 0
M  V30 4321 C 416.808 -1.82555 -5.02571 0
M  V30 4322 C 418.108 -3.61495 -3.76987 0
M  V30 4323 H 419.802 -2.26394 -1.95924 0
M  V30 4324 H 417.348 -1.08981 -0.94123 0
M  V30 4325 H 419.301 -1.06061 -4.07835 0
M  V30 4326 H 418.025 -0.122195 -3.26371 0
M  V30 4327 H 416.684 -2.22568 -2.91306 0
M  V30 4328 H 416.332 -0.833249 -4.9605 0
M  V30 4329 H 416.032 -2.5581 -5.28995 0
M  V30 4330 H 417.556 -1.80108 -5.83432 0
M  V30 4331 H 418.97 -3.60676 -4.4563 0
M  V30 4332 H 417.367 -4.33577 -4.14887 0
M  V30 4333 H 418.437 -3.97065 -2.78329 0
M  V30 4334 N 419.78 1.02168 -1.19998 0
M  V30 4335 C 421.028 1.75338 -1.00504 0
M  V30 4336 C 421.349 1.89387 0.464506 0
M  V30 4337 O 420.619 1.43268 1.33608 0
M  V30 4338 H 419.199 0.649564 -0.368885 0
M  V30 4339 H 421.861 1.23205 -1.51018 0
M  V30 4340 H 420.957 2.75892 -1.45912 0
M  V30 4341 N 421.258 1.00505 1.21394 0
M  V30 4342 C 422.507 0.683159 1.89778 0
M  V30 4343 C 422.82 -0.789471 1.7896 0
M  V30 4344 O 424.026 -1.22344 2.42372 0
M  V30 4345 C 422.482 1.17146 3.40301 0
M  V30 4346 C 422.09 2.67017 3.5973 0
M  V30 4347 C 423.834 0.924461 4.14311 0
M  V30 4348 C 421.741 3.09387 5.04017 0
M  V30 4349 H 420.671 0.25183 0.710702 0
M  V30 4350 H 423.322 1.21622 1.37406 0
M  V30 4351 H 421.704 0.566451 3.91928 0
M  V30 4352 H 422.878 3.32968 3.18542 0
M  V30 4353 H 421.193 2.89732 2.99073 0
M  V30 4354 H 423.79 1.21658 5.20676 0
M  V30 4355 H 424.133 -0.139286 4.16067 0
M  V30 4356 H 424.666 1.49226 3.6875 0
M  V30 4357 H 421.405 4.14989 5.07409 0
M  V30 4358 H 420.925 2.48149 5.46061 0
M  V30 4359 H 422.604 3.01371 5.72525 0
M  V30 4360 N 422.737 -1.36956 0.779787 0
M  V30 4361 C 424.148 -1.82094 0.412156 0
M  V30 4362 C 424.499 -1.64926 -1.06273 0
M  V30 4363 O 423.624 -1.16483 -1.82375 0
M  V30 4364 C 424.219 -3.3059 0.741319 0
M  V30 4365 C 422.778 -3.73974 0.426641 0
M  V30 4366 C 421.925 -2.59368 0.980987 0
M  V30 4367 H 424.876 -1.25314 0.973758 0
M  V30 4368 H 424.897 -3.80489 0.028887 0
M  V30 4369 H 424.409 -3.43054 1.81482 0
M  V30 4370 H 422.51 -3.67076 -0.639215 0
M  V30 4371 H 422.623 -4.69778 0.940515 0
M  V30 4372 H 420.987 -2.51463 0.404757 0
M  V30 4373 H 421.77 -2.74621 2.06005 0
M  V30 4374 N 424.215 -0.530993 -1.48385 0
M  V30 4375 C 425.626 -0.0907905 -1.86479 0
M  V30 4376 C 425.977 1.33213 -1.44044 0
M  V30 4377 O 425.102 1.99783 -0.831615 0
M  V30 4378 C 425.697 -0.157987 -3.38431 0
M  V30 4379 C 424.256 0.227026 -3.75715 0
M  V30 4380 C 423.403 -0.5173 -2.72432 0
M  V30 4381 H 426.354 -0.742186 -1.40276 0
M  V30 4382 H 426.375 0.630053 -3.75247 0
M  V30 4383 H 425.887 -1.19372 -3.69286 0
M  V30 4384 H 423.988 1.26486 -3.50474 0
M  V30 4385 H 424.101 -0.113288 -4.78966 0
M  V30 4386 H 422.465 0.0365527 -2.54674 0
M  V30 4387 H 423.248 -1.55368 -3.0613 0
M  V30 4388 N 425.693 1.55336 -0.266172 0
M  V30 4389 C 426.625 2.19544 0.658247 0
M  V30 4390 C 427.638 1.17746 1.12427 0
M  V30 4391 O 428.827 1.44517 1.04772 0
M  V30 4392 C 425.927 2.80032 1.9088 0
M  V30 4393 C 425.1 4.07436 1.59106 0
M  V30 4394 C 424.159 4.52056 2.69317 0
M  V30 4395 O 423.185 5.18023 2.35883 0
M  V30 4396 N 424.387 4.21448 3.99201 0
M  V30 4397 H 427.152 2.99503 0.108754 0
M  V30 4398 H 424.713 1.61667 -0.0869059 0
M  V30 4399 H 426.705 3.06831 2.63888 0
M  V30 4400 H 425.275 2.04119 2.36758 0
M  V30 4401 H 424.495 3.88021 0.695243 0
M  V30 4402 H 425.783 4.90462 1.35367 0
M  V30 4403 H 425.181 3.68528 4.29189 0
M  V30 4404 H 423.738 4.53039 4.68614 0
M  V30 4405 N 427.171 -0.0066808 1.57599 0
M  V30 4406 C 428.119 -1.01851 2.09115 0
M  V30 4407 C 429.113 -1.36021 1.00969 0
M  V30 4408 O 430.319 -1.34663 1.19439 0
M  V30 4409 H 426.694 -0.346083 0.667631 0
M  V30 4410 H 428.665 -0.558394 2.93129 0
M  V30 4411 C 427.414 -2.30374 2.60429 0
M  V30 4412 H 426.737 -2.04947 3.43273 0
M  V30 4413 H 428.177 -2.99466 3.00161 0
M  V30 4414 C 426.636 -3.00893 1.51542 0
M  V30 4415 O 427.166 -3.91614 0.894484 0
M  V30 4416 N 425.372 -2.62603 1.2445 0
M  V30 4417 H 424.919 -1.88911 1.75129 0
M  V30 4418 H 424.877 -3.10101 0.518137 0
M  V30 4419 N 428.649 -1.55105 -0.279332 0
M  V30 4420 C 429.898 -1.74618 -1.00952 0
M  V30 4421 C 430.211 -0.551096 -1.87676 0
M  V30 4422 O 431.417 -0.628507 -2.64125 0
M  V30 4423 C 429.873 -3.09025 -1.84476 0
M  V30 4424 C 429.481 -4.36081 -1.0265 0
M  V30 4425 C 431.225 -3.37891 -2.56963 0
M  V30 4426 C 429.132 -5.6153 -1.85576 0
M  V30 4427 H 428.062 -0.650868 -0.38064 0
M  V30 4428 H 430.713 -1.81569 -0.265475 0
M  V30 4429 H 429.095 -2.96095 -2.62952 0
M  V30 4430 H 430.269 -4.59909 -0.286354 0
M  V30 4431 H 428.584 -4.14312 -0.416464 0
M  V30 4432 H 431.181 -4.28822 -3.19399 0
M  V30 4433 H 431.524 -2.57737 -3.26921 0
M  V30 4434 H 432.057 -3.5189 -1.85522 0
M  V30 4435 H 428.796 -6.44413 -1.2005 0
M  V30 4436 H 428.316 -5.41854 -2.57204 0
M  V30 4437 H 429.995 -5.99594 -2.43096 0
M  V30 4438 N 430.127 0.543554 -1.4793 0
M  V30 4439 C 431.375 1.29752 -1.54948 0
M  V30 4440 C 431.696 1.93764 -0.219242 0
M  V30 4441 O 430.966 1.80639 0.75805 0
M  V30 4442 H 429.546 0.481874 -0.570795 0
M  V30 4443 H 432.208 0.633636 -1.84312 0
M  V30 4444 H 431.304 2.08392 -2.32334 0
M  V30 4445 N 431.605 1.3629 0.791371 0
M  V30 4446 C 432.882 1.20962 1.53712 0
M  V30 4447 C 433.262 -0.205021 2.10102 0
M  V30 4448 O 432.61 -1.21042 1.93807 0
M  V30 4449 C 432.82 2.29002 2.63361 0
M  V30 4450 C 434.168 2.65572 3.31295 0
M  V30 4451 O 435.192 2.2803 2.73643 0
M  V30 4452 O 434.051 3.3018 4.35481 0
M  V30 4453 H 431.145 0.47086 0.679867 0
M  V30 4454 H 433.691 1.48016 0.830021 0
M  V30 4455 H 432.463 3.2382 2.19674 0
M  V30 4456 H 432.086 2.03303 3.41692 0
M  V30 4457 N 433.083 -1.0153 1.20538 0
M  V30 4458 C 434.329 -1.75408 1.01783 0
M  V30 4459 C 434.662 -1.88943 -0.448814 0
M  V30 4460 O 433.937 -1.4162 -1.33319 0
M  V30 4461 C 434.22 -3.17255 1.70356 0
M  V30 4462 C 434.073 -3.11508 3.24473 0
M  V30 4463 C 435.392 -4.15955 1.43769 0
M  V30 4464 H 432.511 -0.636713 0.371167 0
M  V30 4465 H 435.153 -1.18436 1.4857 0
M  V30 4466 H 433.303 -3.65898 1.30578 0
M  V30 4467 H 434.975 -2.70658 3.73553 0
M  V30 4468 H 433.218 -2.4887 3.55311 0
M  V30 4469 H 433.889 -4.11784 3.67611 0
M  V30 4470 H 436.365 -3.75973 1.7828 0
M  V30 4471 H 435.241 -5.13368 1.94279 0
M  V30 4472 H 435.502 -4.40586 0.365564 0
M  V30 4473 N 434.561 -1.01147 -1.20859 0
M  V30 4474 C 435.791 -0.715872 -1.93801 0
M  V30 4475 C 436.199 0.726592 -1.74692 0
M  V30 4476 O 435.542 1.50397 -1.05482 0
M  V30 4477 C 435.604 -0.965269 -3.46299 0
M  V30 4478 C 435.268 -2.39584 -3.89164 0
M  V30 4479 C 436.265 -3.3764 -3.95342 0
M  V30 4480 C 433.95 -2.73522 -4.21297 0
M  V30 4481 C 435.944 -4.67698 -4.33056 0
M  V30 4482 C 433.631 -4.03794 -4.58687 0
M  V30 4483 C 434.629 -5.00693 -4.64538 0
M  V30 4484 O 434.317 -6.28635 -5.01072 0
M  V30 4485 H 434.049 -0.262524 -0.622942 0
M  V30 4486 H 436.603 -1.35413 -1.54443 0
M  V30 4487 H 434.833 -0.269847 -3.85757 0
M  V30 4488 H 436.522 -0.662051 -4.00464 0
M  V30 4489 H 437.288 -3.12757 -3.70686 0
M  V30 4490 H 433.167 -1.9879 -4.15937 0
M  V30 4491 H 436.711 -5.4333 -4.37537 0
M  V30 4492 H 432.608 -4.28459 -4.82797 0
M  V30 4493 H 433.376 -6.32847 -5.19083 0
M  V30 4494 N 436.039 1.36541 -0.78704 0
M  V30 4495 C 437.287 1.98911 -0.357633 0
M  V30 4496 C 437.608 1.62778 1.07371 0
M  V30 4497 O 436.878 0.900612 1.73971 0
M  V30 4498 H 435.458 0.735734 -0.129246 0
M  V30 4499 H 438.12 1.66776 -1.00855 0
M  V30 4500 H 437.216 3.08874 -0.447549 0
M  V30 4501 N 437.518 0.538854 1.48102 0
M  V30 4502 C 438.764 0.00801365 2.02798 0
M  V30 4503 C 439.097 -1.3309 1.41424 0
M  V30 4504 O 438.372 -1.86169 0.563158 0
M  V30 4505 C 438.655 -0.104589 3.59948 0
M  V30 4506 C 438.508 1.26012 4.31788 0
M  V30 4507 C 439.827 -0.827055 4.32259 0
M  V30 4508 H 436.946 0.00438624 0.736987 0
M  V30 4509 H 439.588 0.6976 1.7673 0
M  V30 4510 H 437.738 -0.691893 3.82289 0
M  V30 4511 H 439.41 1.88922 4.2084 0
M  V30 4512 H 437.653 1.83968 3.92859 0
M  V30 4513 H 438.324 1.13424 5.40221 0
M  V30 4514 H 440.8 -0.328578 4.14801 0
M  V30 4515 H 439.676 -0.87476 5.41885 0
M  V30 4516 H 439.937 -1.87927 4.0017 0
M  V30 4517 N 438.996 -1.55193 0.274407 0
M  V30 4518 C 440.242 -1.99877 -0.343086 0
M  V30 4519 C 440.575 -1.16256 -1.55558 0
M  V30 4520 O 439.85 -0.232462 -1.93106 0
M  V30 4521 C 440.133 -3.52706 -0.725965 0
M  V30 4522 C 439.986 -4.47081 0.493818 0
M  V30 4523 C 441.305 -4.11422 -1.56268 0
M  V30 4524 H 438.424 -0.726625 -0.123229 0
M  V30 4525 H 441.066 -1.86136 0.38121 0
M  V30 4526 H 439.216 -3.64546 -1.34307 0
M  V30 4527 H 440.888 -4.47186 1.13237 0
M  V30 4528 H 439.131 -4.1877 1.13201 0
M  V30 4529 H 439.802 -5.51699 0.18217 0
M  V30 4530 H 442.278 -4.02855 -1.04151 0
M  V30 4531 H 441.154 -5.18568 -1.79939 0
M  V30 4532 H 441.415 -3.61607 -2.54348 0
M  V30 4533 N 440.474 -0.00167713 -1.576 0
M  V30 4534 C 441.421 0.989195 -2.08527 0
M  V30 4535 C 442.391 1.34031 -0.981065 0
M  V30 4536 O 443.576 1.43839 -1.2536 0
M  V30 4537 C 440.716 2.27537 -2.59463 0
M  V30 4538 C 439.829 1.98314 -3.83791 0
M  V30 4539 C 438.964 3.21025 -4.23222 0
M  V30 4540 C 438.003 2.87495 -5.40382 0
M  V30 4541 N 437.14 4.02749 -5.75098 0
M  V30 4542 H 441.98 0.547973 -2.92919 0
M  V30 4543 H 439.517 0.258917 -1.44803 0
M  V30 4544 H 441.475 3.02729 -2.87073 0
M  V30 4545 H 440.105 2.69325 -1.77943 0
M  V30 4546 H 439.157 1.13482 -3.63078 0
M  V30 4547 H 440.469 1.69601 -4.69081 0
M  V30 4548 H 439.623 4.04561 -4.52123 0
M  V30 4549 H 438.362 3.52877 -3.36644 0
M  V30 4550 H 437.367 2.02367 -5.11202 0
M  V30 4551 H 438.592 2.56889 -6.28637 0
M  V30 4552 H 436.538 4.34494 -4.91478 0
M  V30 4553 H 436.455 3.77566 -6.54966 0
M  V30 4554 H 437.723 4.87068 -6.08592 0
M  V30 4555 N 441.952 1.55251 0.271103 0
M  V30 4556 C 442.915 1.87484 1.31842 0
M  V30 4557 C 443.915 0.749545 1.42262 0
M  V30 4558 O 445.105 1.01771 1.4138 0
M  V30 4559 C 442.237 2.0818 2.69951 0
M  V30 4560 H 443.43 2.81108 1.0449 0
M  V30 4561 H 440.983 1.47771 0.509258 0
M  V30 4562 H 441.718 1.16944 3.02481 0
M  V30 4563 H 441.503 2.90114 2.63774 0
M  V30 4564 H 442.993 2.34385 3.4562 0
M  V30 4565 N 443.43 -0.535701 1.48216 0
M  V30 4566 C 444.66 -1.3148 1.59363 0
M  V30 4567 C 445.068 -1.8753 0.250844 0
M  V30 4568 O 444.411 -1.66821 -0.769174 0
M  V30 4569 C 444.473 -2.50731 2.57632 0
M  V30 4570 C 444.137 -2.15811 4.02833 0
M  V30 4571 C 445.134 -1.71822 4.90686 0
M  V30 4572 C 442.819 -2.26509 4.48329 0
M  V30 4573 C 444.813 -1.3899 6.22062 0
M  V30 4574 C 442.5 -1.93289 5.79726 0
M  V30 4575 C 443.498 -1.49599 6.66415 0
M  V30 4576 O 443.186 -1.16812 7.95368 0
M  V30 4577 H 442.918 -0.406315 0.540263 0
M  V30 4578 H 445.472 -0.653569 1.94725 0
M  V30 4579 H 443.702 -3.19817 2.1738 0
M  V30 4580 H 445.391 -3.12797 2.58675 0
M  V30 4581 H 446.157 -1.63031 4.56778 0
M  V30 4582 H 442.036 -2.59471 3.81045 0
M  V30 4583 H 445.58 -1.04816 6.89681 0
M  V30 4584 H 441.477 -2.01718 6.13172 0
M  V30 4585 H 442.245 -1.30259 8.08069 0
M  V30 4586 N 444.908 -1.36708 -0.784132 0
M  V30 4587 C 446.136 -1.34398 -1.57305 0
M  V30 4588 C 446.551 0.0735577 -1.88657 0
M  V30 4589 O 445.908 1.03193 -1.50524 0
M  V30 4590 C 445.959 -2.17053 -2.89085 0
M  V30 4591 O 445.68 -3.53281 -2.59083 0
M  V30 4592 C 447.181 -2.22583 -3.83369 0
M  V30 4593 H 444.401 -0.460819 -0.487736 0
M  V30 4594 H 446.945 -1.79879 -0.972819 0
M  V30 4595 H 445.1 -1.75113 -3.45564 0
M  V30 4596 H 445.514 -3.9647 -3.43383 0
M  V30 4597 H 446.988 -2.84763 -4.72878 0
M  V30 4598 H 447.465 -1.23075 -4.21603 0
M  V30 4599 H 448.071 -2.64781 -3.32823 0
M  V30 4600 N 446.386 1.0089 -1.21074 0
M  V30 4601 C 447.614 1.78191 -1.05145 0
M  V30 4602 C 448.029 1.84537 0.398952 0
M  V30 4603 O 447.386 1.30393 1.27687 0
M  V30 4604 C 447.437 3.22288 -1.63746 0
M  V30 4605 O 447.158 3.16315 -3.03111 0
M  V30 4606 C 448.659 4.16106 -1.52875 0
M  V30 4607 H 445.879 0.560129 -0.369454 0
M  V30 4608 H 448.423 1.26945 -1.60328 0
M  V30 4609 H 446.578 3.70655 -1.12664 0
M  V30 4610 H 446.992 4.06817 -3.31059 0
M  V30 4611 H 448.466 5.15026 -1.98626 0
M  V30 4612 H 448.943 4.36541 -0.482521 0
M  V30 4613 H 449.549 3.73625 -2.03185 0
M  V30 4614 N 447.864 1.01787 1.20321 0
M  V30 4615 C 449.28 0.732951 1.41774 0
M  V30 4616 C 449.48 -0.686883 1.89431 0
M  V30 4617 O 448.536 -1.45446 2.06402 0
M  V30 4618 C 449.849 1.75973 2.43832 0
M  V30 4619 C 451.397 1.77802 2.57596 0
M  V30 4620 C 451.872 2.7941 3.62897 0
M  V30 4621 N 453.363 2.78157 3.70382 0
M  V30 4622 C 454.098 3.53434 4.51521 0
M  V30 4623 N 453.594 4.38392 5.36455 0
M  V30 4624 N 455.387 3.42026 4.46066 0
M  V30 4625 H 447.538 1.93447 0.877035 0
M  V30 4626 H 449.801 0.835712 0.447536 0
M  V30 4627 H 449.507 2.77699 2.15815 0
M  V30 4628 H 449.381 1.57292 3.4284 0
M  V30 4629 H 451.768 0.767602 2.84942 0
M  V30 4630 H 451.849 2.00557 1.58779 0
M  V30 4631 H 451.493 3.80616 3.36295 0
M  V30 4632 H 451.423 2.53916 4.61339 0
M  V30 4633 H 453.914 2.16531 3.09714 0
M  V30 4634 H 454.227 4.92596 5.95457 0
M  V30 4635 H 452.572 4.4247 5.35953 0
M  V30 4636 H 455.763 2.75075 3.78749 0
M  V30 4637 H 455.936 4.00946 5.09064 0
M  V30 4638 N 449.342 -1.36122 0.79427 0
M  V30 4639 C 450.588 -1.99406 0.369452 0
M  V30 4640 C 450.921 -1.62886 -1.05743 0
M  V30 4641 O 450.196 -0.886053 -1.73145 0
M  V30 4642 C 450.479 -3.56046 0.538833 0
M  V30 4643 C 450.332 -4.02404 2.00976 0
M  V30 4644 C 451.651 -4.40079 -0.0431359 0
M  V30 4645 H 448.77 -0.724397 0.135712 0
M  V30 4646 H 451.412 -1.61461 1.00151 0
M  V30 4647 H 449.562 -3.885 0.000771004 0
M  V30 4648 H 451.234 -3.80415 2.60926 0
M  V30 4649 H 449.477 -3.53765 2.51063 0
M  V30 4650 H 450.148 -5.11344 2.07922 0
M  V30 4651 H 452.624 -4.14013 0.416228 0
M  V30 4652 H 451.5 -5.48799 0.105374 0
M  V30 4653 H 451.761 -4.27264 -1.13571 0
M  V30 4654 N 450.82 -0.546701 -1.47814 0
M  V30 4655 C 452.068 -0.0187037 -2.02091 0
M  V30 4656 C 452.389 1.33168 -1.42447 0
M  V30 4657 O 451.659 1.86619 -0.595839 0
M  V30 4658 H 450.239 -0.00392531 -0.74699 0
M  V30 4659 H 452.901 -0.714327 -1.81338 0
M  V30 4660 H 451.997 0.0772219 -3.12004 0
M  V30 4661 N 452.299 1.55045 -0.282633 0
M  V30 4662 C 453.548 1.98938 0.332667 0
M  V30 4663 C 453.861 1.17455 1.56409 0
M  V30 4664 O 455.067 1.51527 2.25282 0
M  V30 4665 C 453.523 3.54105 0.643226 0
M  V30 4666 C 453.131 4.44374 -0.568814 0
M  V30 4667 C 454.875 4.06569 1.22074 0
M  V30 4668 C 452.782 5.90943 -0.232426 0
M  V30 4669 H 451.712 0.743043 0.128075 0
M  V30 4670 H 454.363 1.79341 -0.388464 0
M  V30 4671 H 452.745 3.69532 1.42346 0
M  V30 4672 H 453.919 4.40718 -1.34551 0
M  V30 4673 H 452.234 4.02585 -1.06369 0
M  V30 4674 H 454.831 5.13626 1.48635 0
M  V30 4675 H 455.174 3.56057 2.15707 0
M  V30 4676 H 455.707 3.94612 0.502621 0
M  V30 4677 H 452.446 6.45567 -1.13683 0
M  V30 4678 H 451.966 5.9765 0.507357 0
M  V30 4679 H 453.645 6.4677 0.172657 0
M  V30 4680 N 453.777 0.010035 1.57597 0
M  V30 4681 C 455.025 -0.671371 1.90623 0
M  V30 4682 C 455.346 -1.73753 0.885151 0
M  V30 4683 O 454.616 -1.95752 -0.0760611 0
M  V30 4684 H 453.196 -0.250968 0.703579 0
M  V30 4685 H 455.858 0.0533325 1.94827 0
M  V30 4686 H 454.954 -1.13626 2.90681 0
M  V30 4687 N 455.255 -1.55392 -0.262866 0
M  V30 4688 C 456.218 -1.88181 -1.30846 0
M  V30 4689 C 457.218 -0.757079 -1.41862 0
M  V30 4690 O 458.408 -1.02519 -1.40838 0
M  V30 4691 C 455.54 -2.09609 -2.68844 0
M  V30 4692 H 456.733 -2.81659 -1.02997 0
M  V30 4693 H 454.286 -1.48039 -0.501414 0
M  V30 4694 H 455.021 -1.18547 -3.01856 0
M  V30 4695 H 454.806 -2.91508 -2.62231 0
M  V30 4696 H 456.296 -2.36215 -3.44372 0
M  V30 4697 N 456.733 0.527833 -1.48498 0
M  V30 4698 C 457.98 1.28354 -1.56625 0
M  V30 4699 C 458.308 1.93 -0.241096 0
M  V30 4700 O 457.563 1.79967 0.768798 0
M  V30 4701 C 457.862 2.39275 -2.65485 0
M  V30 4702 C 457.528 1.92268 -4.07853 0
M  V30 4703 C 456.19 1.79166 -4.46602 0
M  V30 4704 C 458.542 1.56771 -4.97064 0
M  V30 4705 C 455.87 1.28905 -5.72364 0
M  V30 4706 C 458.222 1.07972 -6.23318 0
M  V30 4707 C 456.886 0.934887 -6.60921 0
M  V30 4708 H 456.156 0.469682 -0.573131 0
M  V30 4709 H 458.803 0.588781 -1.82224 0
M  V30 4710 H 457.108 3.1443 -2.33754 0
M  V30 4711 H 458.805 2.974 -2.68988 0
M  V30 4712 H 455.395 2.03417 -3.77252 0
M  V30 4713 H 459.579 1.65753 -4.67803 0
M  V30 4714 H 454.835 1.16381 -6.00221 0
M  V30 4715 H 459.009 0.795775 -6.91838 0
M  V30 4716 H 456.636 0.543231 -7.58257 0
M  V30 4717 N 458.211 1.37122 0.776871 0
M  V30 4718 C 459.622 1.28667 1.35284 0
M  V30 4719 C 459.973 -0.0680035 1.96082 0
M  V30 4720 O 459.098 -0.969743 1.93455 0
M  V30 4721 C 459.693 2.32997 2.45963 0
M  V30 4722 C 458.252 2.28191 2.99342 0
M  V30 4723 C 457.399 2.17101 1.72517 0
M  V30 4724 H 460.35 1.47819 0.577527 0
M  V30 4725 H 460.371 1.97366 3.2531 0
M  V30 4726 H 459.883 3.3158 2.01684 0
M  V30 4727 H 457.984 1.33115 3.4801 0
M  V30 4728 H 458.097 3.21397 3.55304 0
M  V30 4729 H 456.461 1.63562 1.95242 0
M  V30 4730 H 457.244 3.17591 1.30348 0
M  V30 4731 N 459.689 -1.00246 1.21608 0
M  V30 4732 C 460.917 -1.77631 1.06089 0
M  V30 4733 C 461.332 -1.84746 -0.38916 0
M  V30 4734 O 460.689 -1.31068 -1.26994 0
M  V30 4735 C 460.74 -3.21415 1.65453 0
M  V30 4736 O 460.461 -3.14703 3.04785 0
M  V30 4737 C 461.962 -4.15289 1.55079 0
M  V30 4738 H 459.182 -0.558162 0.37242 0
M  V30 4739 H 461.726 -1.26093 1.60999 0
M  V30 4740 H 459.881 -3.70053 1.14629 0
M  V30 4741 H 460.295 -4.05056 3.33212 0
M  V30 4742 H 461.769 -5.13965 2.01355 0
M  V30 4743 H 462.246 -4.36279 0.505665 0
M  V30 4744 H 462.852 -3.72543 2.05163 0
M  V30 4745 N 461.167 -1.02423 -1.1978 0
M  V30 4746 C 462.077 -0.610919 -2.26506 0
M  V30 4747 C 463.093 0.355152 -1.70337 0
M  V30 4748 O 464.269 0.214195 -2.00258 0
M  V30 4749 C 461.334 0.0365921 -3.46681 0
M  V30 4750 C 460.395 -0.976389 -4.18049 0
M  V30 4751 C 459.628 -0.359683 -5.32487 0
M  V30 4752 O 459.851 0.838601 -5.64202 0
M  V30 4753 O 458.785 -1.08022 -5.92127 0
M  V30 4754 H 462.611 -1.49965 -2.64091 0
M  V30 4755 H 460.196 -0.794156 -1.26545 0
M  V30 4756 H 462.078 0.39786 -4.19518 0
M  V30 4757 H 460.753 0.899398 -3.10954 0
M  V30 4758 H 459.66 -1.38916 -3.47352 0
M  V30 4759 H 460.993 -1.80941 -4.57735 0
M  V30 4760 N 462.645 1.35699 -0.801477 0
M  V30 4761 C 463.577 2.28598 -0.166028 0
M  V30 4762 C 464.59 1.50044 0.631721 0
M  V30 4763 O 465.779 1.72339 0.464921 0
M  V30 4764 C 462.879 3.29625 0.787451 0
M  V30 4765 C 462.052 4.37384 0.037171 0
M  V30 4766 C 461.111 5.183 0.908375 0
M  V30 4767 O 460.137 5.68053 0.361189 0
M  V30 4768 N 461.339 5.35912 2.23112 0
M  V30 4769 H 464.104 2.83771 -0.964071 0
M  V30 4770 H 461.665 1.47994 -0.656469 0
M  V30 4771 H 463.657 3.80648 1.37439 0
M  V30 4772 H 462.227 2.75004 1.48632 0
M  V30 4773 H 461.447 3.87364 -0.730935 0
M  V30 4774 H 462.735 5.0653 -0.480109 0
M  V30 4775 H 462.133 4.97125 2.69968 0
M  V30 4776 H 460.69 5.90133 2.76741 0
M  V30 4777 N 464.123 0.554532 1.47522 0
M  V30 4778 C 465.372 0.0273458 2.01681 0
M  V30 4779 C 465.685 -1.32962 1.43459 0
M  V30 4780 O 466.891 -1.94657 1.89265 0
M  V30 4781 C 465.347 -0.00159057 3.599 0
M  V30 4782 C 464.955 1.35197 4.27113 0
M  V30 4783 C 466.699 -0.476311 4.21819 0
M  V30 4784 C 464.606 1.28229 5.77331 0
M  V30 4785 H 463.536 0.00645269 0.753972 0
M  V30 4786 H 466.187 0.701985 1.69542 0
M  V30 4787 H 464.569 -0.741821 3.8899 0
M  V30 4788 H 465.743 2.1097 4.09668 0
M  V30 4789 H 464.058 1.76441 3.77171 0
M  V30 4790 H 466.655 -0.5468 5.31897 0
M  V30 4791 H 466.998 -1.4877 3.8881 0
M  V30 4792 H 467.531 0.20898 3.97251 0
M  V30 4793 H 464.27 2.26959 6.14955 0
M  V30 4794 H 463.79 0.566314 5.97121 0
M  V30 4795 H 465.469 0.983226 6.39485 0
M  V30 4796 N 465.601 -1.54893 0.290851 0
M  V30 4797 C 466.549 -2.24579 -0.605576 0
M  V30 4798 C 467.543 -1.24824 -1.14522 0
M  V30 4799 O 468.749 -1.42706 -1.09704 0
M  V30 4800 H 465.124 -0.720946 -0.213872 0
M  V30 4801 H 467.095 -2.984 0.0048173 0
M  V30 4802 C 465.844 -2.99224 -1.77088 0
M  V30 4803 H 465.167 -3.75782 -1.36484 0
M  V30 4804 H 466.607 -3.51281 -2.3744 0
M  V30 4805 C 465.066 -2.05602 -2.66888 0
M  V30 4806 O 465.596 -1.61745 -3.67698 0
M  V30 4807 N 463.802 -1.71771 -2.34399 0
M  V30 4808 H 463.349 -2.07633 -1.52468 0
M  V30 4809 H 463.307 -1.09403 -2.94751 0
M  V30 4810 N 467.08 -0.0183926 -1.57589 0
M  V30 4811 C 467.99 0.982943 -2.13015 0
M  V30 4812 C 469.006 1.36443 -1.07979 0
M  V30 4813 O 470.182 1.44802 -1.3998 0
M  V30 4814 C 467.247 2.25024 -2.63752 0
M  V30 4815 C 466.308 1.93018 -3.83461 0
M  V30 4816 C 465.541 3.13706 -4.31769 0
M  V30 4817 O 465.764 4.2601 -3.79305 0
M  V30 4818 O 464.698 2.96629 -5.23732 0
M  V30 4819 H 468.524 0.541709 -2.9883 0
M  V30 4820 H 466.109 0.201565 -1.48034 0
M  V30 4821 H 467.991 2.99441 -2.96502 0
M  V30 4822 H 466.666 2.68349 -1.81026 0
M  V30 4823 H 465.573 1.16019 -3.55655 0
M  V30 4824 H 466.906 1.54516 -4.67317 0
M  V30 4825 N 468.558 1.5553 0.254621 0
M  V30 4826 C 469.807 1.76202 0.981612 0
M  V30 4827 C 470.12 0.580883 1.86776 0
M  V30 4828 O 471.326 0.670448 2.63092 0
M  V30 4829 C 469.782 3.11921 1.79537 0
M  V30 4830 C 469.39 4.37659 0.956991 0
M  V30 4831 C 471.134 3.41936 2.51555 0
M  V30 4832 C 469.041 5.64411 1.76619 0
M  V30 4833 H 467.971 0.656841 0.370237 0
M  V30 4834 H 470.622 1.81969 0.236556 0
M  V30 4835 H 469.004 3.00241 2.58208 0
M  V30 4836 H 470.178 4.60307 0.21315 0
M  V30 4837 H 468.493 4.14922 0.350497 0
M  V30 4838 H 471.09 4.33849 3.12536 0
M  V30 4839 H 471.433 2.62905 3.22779 0
M  V30 4840 H 471.966 3.54797 1.799 0
M  V30 4841 H 468.705 6.46241 1.09783 0
M  V30 4842 H 468.225 5.45877 2.48551 0
M  V30 4843 H 469.904 6.03386 2.33527 0
M  V30 4844 N 470.036 -0.519951 1.48776 0
M  V30 4845 C 471.284 -1.2727 1.56993 0
M  V30 4846 C 471.605 -1.9339 0.25004 0
M  V30 4847 O 470.875 -1.81822 -0.729216 0
M  V30 4848 H 469.455 -0.472732 0.578389 0
M  V30 4849 H 472.117 -0.604234 1.85297 0
M  V30 4850 H 471.213 -2.04669 2.3562 0
M  V30 4851 N 471.514 -1.37532 -0.769588 0
M  V30 4852 C 472.762 -1.32597 -1.5252 0
M  V30 4853 C 473.083 0.0884294 -1.94799 0
M  V30 4854 O 472.353 1.03289 -1.66458 0
M  V30 4855 H 470.933 -0.487846 -0.565699 0
M  V30 4856 H 473.595 -1.72044 -0.915806 0
M  V30 4857 H 472.691 -1.96643 -2.42359 0
M  V30 4858 N 472.992 0.995999 -1.22138 0
M  V30 4859 C 473.922 2.10387 -1.01289 0
M  V30 4860 C 474.903 1.69975 0.0651454 0
M  V30 4861 O 476.088 1.9396 -0.0964628 0
M  V30 4862 C 473.218 3.42312 -0.586517 0
M  V30 4863 C 472.172 3.96558 -1.61014 0
M  V30 4864 C 471.498 5.24494 -1.0397 0
M  V30 4865 C 472.798 4.27595 -2.99933 0
M  V30 4866 H 474.492 2.28086 -1.93951 0
M  V30 4867 H 472.038 1.09607 -0.933928 0
M  V30 4868 H 473.991 4.19223 -0.427793 0
M  V30 4869 H 472.715 3.24431 0.375761 0
M  V30 4870 H 471.374 3.21776 -1.75658 0
M  V30 4871 H 471.022 5.02953 -0.0688703 0
M  V30 4872 H 470.722 5.61755 -1.72352 0
M  V30 4873 H 472.246 6.04042 -0.892494 0
M  V30 4874 H 473.66 4.95315 -2.8868 0
M  V30 4875 H 472.057 4.76021 -3.6541 0
M  V30 4876 H 473.127 3.35498 -3.50099 0
M  V30 4877 N 474.47 1.03057 1.19235 0
M  V30 4878 C 475.4 0.633497 2.24742 0
M  V30 4879 C 476.381 -0.358335 1.66283 0
M  V30 4880 O 477.566 -0.240676 1.92703 0
M  V30 4881 C 474.696 -0.0147648 3.47297 0
M  V30 4882 C 473.65 0.899527 4.18441 0
M  V30 4883 C 472.976 0.116281 5.34574 0
M  V30 4884 C 474.276 2.21404 4.73051 0
M  V30 4885 H 475.97 1.5155 2.58211 0
M  V30 4886 H 473.516 0.73014 1.24117 0
M  V30 4887 H 475.469 -0.304202 4.20301 0
M  V30 4888 H 474.193 -0.931577 3.13032 0
M  V30 4889 H 472.852 1.17319 3.47321 0
M  V30 4890 H 472.5 -0.802619 4.96555 0
M  V30 4891 H 472.2 0.725293 5.83107 0
M  V30 4892 H 473.724 -0.166376 6.10373 0
M  V30 4893 H 475.138 1.98601 5.37802 0
M  V30 4894 H 473.535 2.77512 5.32078 0
M  V30 4895 H 474.605 2.86752 3.91026 0
M  V30 4896 N 475.948 -1.35272 0.808662 0
M  V30 4897 C 476.88 -2.28507 0.178149 0
M  V30 4898 C 477.893 -1.50377 -0.623754 0
M  V30 4899 O 479.082 -1.72583 -0.455774 0
M  V30 4900 C 476.182 -3.30038 -0.769959 0
M  V30 4901 C 475.355 -4.37398 -0.0139749 0
M  V30 4902 C 474.414 -5.18775 -0.880875 0
M  V30 4903 O 473.44 -5.68236 -0.331059 0
M  V30 4904 N 474.642 -5.37087 -2.20267 0
M  V30 4905 H 477.407 -2.83255 0.979106 0
M  V30 4906 H 474.968 -1.47643 0.664308 0
M  V30 4907 H 476.96 -3.81371 -1.35418 0
M  V30 4908 H 475.53 -2.75789 -1.47171 0
M  V30 4909 H 474.75 -3.86971 0.751468 0
M  V30 4910 H 476.038 -5.06268 0.506965 0
M  V30 4911 H 475.436 -4.9855 -2.67328 0
M  V30 4912 H 473.993 -5.91593 -2.73608 0
M  V30 4913 N 477.426 -0.562348 -1.47226 0
M  V30 4914 C 478.654 -0.0452275 -2.06851 0
M  V30 4915 C 479.069 1.25078 -1.41424 0
M  V30 4916 O 478.426 1.75156 -0.512513 0
M  V30 4917 C 478.477 0.148674 -3.61194 0
M  V30 4918 O 478.198 -1.09602 -4.24169 0
M  V30 4919 C 479.699 0.702488 -4.37699 0
M  V30 4920 H 476.919 -0.0481775 -0.669268 0
M  V30 4921 H 479.463 -0.777223 -1.89155 0
M  V30 4922 H 477.618 0.830817 -3.78386 0
M  V30 4923 H 478.032 -0.896982 -5.16773 0
M  V30 4924 H 479.506 0.78743 -5.46355 0
M  V30 4925 H 479.983 1.71493 -4.04335 0
M  V30 4926 H 480.589 0.0558772 -4.25263 0
M  V30 4927 N 478.904 1.54736 -0.299062 0
M  V30 4928 C 480.32 1.59507 0.0543849 0
M  V30 4929 C 480.52 1.31606 1.52585 0
M  V30 4930 O 479.576 1.08853 2.27832 0
M  V30 4931 C 480.889 2.98751 -0.34181 0
M  V30 4932 C 482.437 3.1165 -0.290414 0
M  V30 4933 C 482.912 4.53199 -0.661402 0
M  V30 4934 N 484.403 4.59114 -0.613863 0
M  V30 4935 C 485.138 5.66709 -0.873417 0
M  V30 4936 N 484.634 6.82349 -1.19884 0
M  V30 4937 N 486.427 5.56369 -0.800608 0
M  V30 4938 H 478.578 1.71133 -1.25806 0
M  V30 4939 H 480.841 0.799186 -0.509908 0
M  V30 4940 H 480.547 3.24085 -1.36608 0
M  V30 4941 H 480.421 3.75961 0.305508 0
M  V30 4942 H 482.808 2.86066 0.724605 0
M  V30 4943 H 482.889 2.366 -0.972327 0
M  V30 4944 H 482.533 4.79513 -1.67422 0
M  V30 4945 H 482.463 5.26583 0.0425612 0
M  V30 4946 H 484.954 3.76053 -0.3732 0
M  V30 4947 H 485.267 7.60326 -1.38291 0
M  V30 4948 H 483.612 6.83906 -1.23685 0
M  V30 4949 H 486.803 4.64904 -0.546045 0
M  V30 4950 H 486.976 6.40139 -1.00626 0
M  V30 4951 N 480.382 0.0267497 1.57577 0
M  V30 4952 C 481.63 -0.651116 1.91324 0
M  V30 4953 C 481.951 -1.72804 0.90353 0
M  V30 4954 O 481.221 -1.95822 -0.0552946 0
M  V30 4955 H 479.801 -0.243491 0.706202 0
M  V30 4956 H 482.463 0.0739935 1.94759 0
M  V30 4957 H 481.559 -1.10536 2.9187 0
M  V30 4958 N 481.861 -1.55662 -0.24637 0
M  V30 4959 C 482.811 -1.86753 -1.30795 0
M  V30 4960 C 483.795 -0.728445 -1.43466 0
M  V30 4961 O 484.987 -0.99038 -1.46699 0
M  V30 4962 C 482.116 -2.16618 -2.66329 0
M  V30 4963 C 481.202 -3.36855 -2.57661 0
M  V30 4964 N 481.593 -4.56111 -2.18624 0
M  V30 4965 C 479.891 -3.39976 -2.88673 0
M  V30 4966 C 480.592 -5.38247 -2.20601 0
M  V30 4967 N 479.568 -4.77322 -2.60124 0
M  V30 4968 H 483.37 -2.76486 -0.996642 0
M  V30 4969 H 480.884 -1.55896 -0.454994 0
M  V30 4970 H 482.881 -2.37057 -3.42942 0
M  V30 4971 H 481.541 -1.28185 -2.98327 0
M  V30 4972 H 482.552 -4.81726 -1.9016 0
M  V30 4973 H 479.229 -2.61815 -3.25206 0
M  V30 4974 H 480.619 -6.43657 -1.92756 0
M  V30 4975 N 483.339 0.512053 -1.4905 0
M  V30 4976 C 484.249 1.64139 -1.67617 0
M  V30 4977 C 485.265 1.64786 -0.558701 0
M  V30 4978 O 486.441 1.8341 -0.832034 0
M  V30 4979 C 483.506 3.00548 -1.72835 0
M  V30 4980 C 482.567 3.10615 -2.96339 0
M  V30 4981 C 481.8 4.40517 -3.01298 0
M  V30 4982 O 482.023 5.28671 -2.14157 0
M  V30 4983 O 480.957 4.55325 -3.93653 0
M  V30 4984 H 484.783 1.51407 -2.63267 0
M  V30 4985 H 482.368 0.687131 -1.32661 0
M  V30 4986 H 484.25 3.81641 -1.78683 0
M  V30 4987 H 482.925 3.13566 -0.803616 0
M  V30 4988 H 481.832 2.2875 -2.96014 0
M  V30 4989 H 483.165 3.0252 -3.88256 0
M  V30 4990 N 484.817 1.37938 0.762283 0
M  V30 4991 C 486.063 1.34873 1.52253 0
M  V30 4992 C 486.418 -0.0635972 1.92295 0
M  V30 4993 O 485.711 -1.02434 1.61919 0
M  V30 4994 C 485.905 2.23042 2.79261 0
M  V30 4995 C 485.734 3.72706 2.51635 0
M  V30 4996 C 484.504 4.41771 2.45289 0
M  V30 4997 C 486.702 4.65345 2.18994 0
M  V30 4998 N 484.684 5.76921 2.09846 0
M  V30 4999 C 486.055 5.88943 1.9377 0
M  V30 5000 C 488.11 4.53636 2.0523 0
M  V30 5001 C 486.813 7.02142 1.5617 0
M  V30 5002 C 488.839 5.6673 1.69031 0
M  V30 5003 C 488.201 6.89383 1.44673 0
M  V30 5004 H 484.3 0.548818 0.557067 0
M  V30 5005 H 486.884 1.73247 0.888458 0
M  V30 5006 H 485.055 1.8687 3.40491 0
M  V30 5007 H 486.787 2.11165 3.45241 0
M  V30 5008 H 483.542 3.94883 2.61465 0
M  V30 5009 H 483.966 6.4837 1.94794 0
M  V30 5010 H 488.608 3.5937 2.2274 0
M  V30 5011 H 486.326 7.96334 1.37399 0
M  V30 5012 H 489.912 5.59645 1.59026 0
M  V30 5013 H 488.792 7.75411 1.17079 0
M  V30 5014 N 486.295 -0.989507 1.22664 0
M  V30 5015 C 487.543 -1.72612 1.05117 0
M  V30 5016 C 487.864 -1.90552 -0.414131 0
M  V30 5017 O 487.134 -1.4676 -1.29762 0
M  V30 5018 H 485.714 -0.639555 0.385977 0
M  V30 5019 H 488.376 -1.19158 1.54232 0
M  V30 5020 H 487.472 -2.71926 1.53175 0
M  V30 5021 N 487.773 -1.03688 -1.18687 0
M  V30 5022 C 489.019 -0.739123 -1.88851 0
M  V30 5023 C 489.352 0.731042 -1.79915 0
M  V30 5024 O 488.627 1.53313 -1.19688 0
M  V30 5025 C 488.91 -1.20106 -3.3948 0
M  V30 5026 C 488.763 -2.73304 -3.57246 0
M  V30 5027 C 490.082 -0.788134 -4.32986 0
M  V30 5028 H 487.201 -0.269978 -0.68577 0
M  V30 5029 H 489.843 -1.28822 -1.3966 0
M  V30 5030 H 487.993 -0.733915 -3.81505 0
M  V30 5031 H 489.665 -3.28027 -3.24339 0
M  V30 5032 H 487.908 -3.13313 -3.00029 0
M  V30 5033 H 488.579 -3.00684 -4.62918 0
M  V30 5034 H 491.055 -1.19005 -3.98719 0
M  V30 5035 H 489.931 -1.13915 -5.36949 0
M  V30 5036 H 490.192 0.308988 -4.41019 0
M  V30 5037 N 489.251 1.34841 -0.815825 0
M  V30 5038 C 490.479 2.0273 -0.413294 0
M  V30 5039 C 490.894 1.61459 0.978599 0
M  V30 5040 O 490.251 0.816584 1.63212 0
M  V30 5041 C 490.302 3.58058 -0.497676 0
M  V30 5042 O 490.023 3.97832 -1.8347 0
M  V30 5043 C 491.524 4.4321 -0.0891339 0
M  V30 5044 H 488.744 0.649956 -0.166728 0
M  V30 5045 H 491.288 1.72267 -1.10201 0
M  V30 5046 H 489.443 3.87136 0.142886 0
M  V30 5047 H 489.857 4.92501 -1.80396 0
M  V30 5048 H 491.331 5.5164 -0.199274 0
M  V30 5049 H 491.808 4.28432 0.966571 0
M  V30 5050 H 492.414 4.19446 -0.703214 0
M  V30 5051 N 490.729 0.570148 1.46925 0
M  V30 5052 C 491.957 0.0561966 2.06824 0
M  V30 5053 C 492.372 -1.24326 1.42086 0
M  V30 5054 O 491.729 -1.74882 0.521794 0
M  V30 5055 C 491.78 -0.129517 3.61268 0
M  V30 5056 O 491.501 1.1185 4.23581 0
M  V30 5057 C 493.002 -0.679266 4.38065 0
M  V30 5058 H 490.222 0.0517261 0.669003 0
M  V30 5059 H 492.766 0.787243 1.8874 0
M  V30 5060 H 490.921 -0.810739 3.78822 0
M  V30 5061 H 491.335 0.924375 5.1629 0
M  V30 5062 H 492.809 -0.758445 5.46765 0
M  V30 5063 H 493.286 -1.69346 4.05239 0
M  V30 5064 H 493.892 -0.0333237 4.25287 0
M  V30 5065 N 492.207 -1.54576 0.307264 0
M  V30 5066 C 493.455 -1.99867 -0.299574 0
M  V30 5067 C 493.776 -1.19714 -1.53927 0
M  V30 5068 O 493.046 -0.29472 -1.9367 0
M  V30 5069 H 491.626 -0.738299 -0.113683 0
M  V30 5070 H 494.288 -1.9032 0.420042 0
M  V30 5071 H 493.384 -3.06901 -0.567283 0
M  V30 5072 N 493.685 -0.035106 -1.57561 0
M  V30 5073 C 495.101 0.321334 -1.56332 0
M  V30 5074 C 495.301 1.72509 -1.04129 0
M  V30 5075 O 494.357 2.4287 -0.690694 0
M  V30 5076 C 495.67 0.164469 -3.0025 0
M  V30 5077 C 497.218 0.236786 -3.12103 0
M  V30 5078 C 497.693 0.10864 -4.57871 0
M  V30 5079 N 499.184 0.165433 -4.62904 0
M  V30 5080 C 499.919 0.0901506 -5.73329 0
M  V30 5081 N 499.415 -0.0365606 -6.9279 0
M  V30 5082 N 501.208 0.144572 -5.61914 0
M  V30 5083 H 493.359 -0.952976 -1.89821 0
M  V30 5084 H 495.622 -0.368537 -0.873432 0
M  V30 5085 H 495.328 -0.802746 -3.42416 0
M  V30 5086 H 495.202 0.932194 -3.655 0
M  V30 5087 H 497.589 1.19446 -2.69845 0
M  V30 5088 H 497.67 -0.561419 -2.49563 0
M  V30 5089 H 497.314 -0.845644 -5.00811 0
M  V30 5090 H 497.244 0.925786 -5.18398 0
M  V30 5091 H 499.735 0.263269 -3.76982 0
M  V30 5092 H 500.048 -0.0871487 -7.72751 0
M  V30 5093 H 498.393 -0.0714256 -6.94963 0
M  V30 5094 H 501.584 0.242006 -4.67474 0
M  V30 5095 H 501.757 0.0824413 -6.47948 0
M  V30 5096 N 495.163 1.55791 0.238111 0
M  V30 5097 C 496.11 1.9105 1.29493 0
M  V30 5098 C 497.08 0.765733 1.47397 0
M  V30 5099 O 498.265 1.02017 1.61236 0
M  V30 5100 C 495.405 2.21826 2.64362 0
M  V30 5101 C 494.518 3.49153 2.54394 0
M  V30 5102 C 493.653 3.69455 3.81676 0
M  V30 5103 C 492.692 4.90353 3.66361 0
M  V30 5104 N 491.829 5.07131 4.85554 0
M  V30 5105 H 496.669 2.81172 0.987233 0
M  V30 5106 H 494.206 1.39179 0.476203 0
M  V30 5107 H 496.164 2.37675 3.4288 0
M  V30 5108 H 494.794 1.34897 2.93262 0
M  V30 5109 H 493.846 3.41587 1.67399 0
M  V30 5110 H 495.158 4.37818 2.38991 0
M  V30 5111 H 494.312 3.85311 4.68636 0
M  V30 5112 H 493.051 2.7904 3.99985 0
M  V30 5113 H 492.056 4.74464 2.77784 0
M  V30 5114 H 493.281 5.82237 3.49538 0
M  V30 5115 H 491.227 4.19654 5.04209 0
M  V30 5116 H 491.144 5.89899 4.72816 0
M  V30 5117 H 492.412 5.27407 5.73988 0
M  V30 5118 N 496.642 -0.504142 1.49319 0
M  V30 5119 C 498.058 -0.835039 1.36012 0
M  V30 5120 C 498.258 -1.97674 0.390808 0
M  V30 5121 O 497.314 -2.51867 -0.178655 0
M  V30 5122 C 498.627 -1.17821 2.76656 0
M  V30 5123 C 500.175 -1.2866 2.85334 0
M  V30 5124 C 500.65 -1.66307 4.26739 0
M  V30 5125 N 502.141 -1.73362 4.29534 0
M  V30 5126 C 502.876 -2.0393 5.35911 0
M  V30 5127 N 502.372 -2.32744 6.52535 0
M  V30 5128 N 504.165 -2.05155 5.23324 0
M  V30 5129 H 496.316 0.248764 2.10938 0
M  V30 5130 H 498.579 0.0486962 0.946748 0
M  V30 5131 H 498.285 -0.412682 3.4927 0
M  V30 5132 H 498.159 -2.12239 3.11825 0
M  V30 5133 H 500.546 -2.04285 2.1296 0
M  V30 5134 H 500.627 -0.323004 2.53752 0
M  V30 5135 H 500.271 -0.91234 4.99639 0
M  V30 5136 H 500.201 -2.63761 4.55782 0
M  V30 5137 H 502.692 -1.53268 3.45424 0
M  V30 5138 H 503.005 -2.55248 7.2943 0
M  V30 5139 H 501.35 -2.30207 6.55767 0
M  V30 5140 H 504.541 -1.82119 4.3122 0
M  V30 5141 H 504.714 -2.28644 6.06322 0
M  V30 5142 N 498.12 -1.38341 -0.754957 0
M  V30 5143 C 499.536 -1.19508 -1.05783 0
M  V30 5144 C 499.736 -0.0428005 -2.01455 0
M  V30 5145 O 498.792 0.611861 -2.44975 0
M  V30 5146 C 500.105 -2.52091 -1.63923 0
M  V30 5147 C 501.653 -2.58762 -1.76101 0
M  V30 5148 C 502.128 -3.91517 -2.37652 0
M  V30 5149 N 503.619 -3.93049 -2.45085 0
M  V30 5150 C 504.354 -4.9253 -2.93602 0
M  V30 5151 N 503.85 -6.02408 -3.42165 0
M  V30 5152 N 505.643 -4.79921 -2.92629 0
M  V30 5153 H 497.794 -2.1206 -0.120056 0
M  V30 5154 H 500.057 -0.94089 -0.11589 0
M  V30 5155 H 499.763 -3.36858 -1.01093 0
M  V30 5156 H 499.637 -2.70388 -2.63003 0
M  V30 5157 H 502.024 -1.74391 -2.38058 0
M  V30 5158 H 502.105 -2.44333 -0.757294 0
M  V30 5159 H 501.749 -4.76309 -1.76329 0
M  V30 5160 H 501.679 -4.03256 -3.38662 0
M  V30 5161 H 504.17 -3.13685 -2.10736 0
M  V30 5162 H 504.483 -6.74248 -3.77637 0
M  V30 5163 H 502.828 -6.0603 -3.40225 0
M  V30 5164 H 506.019 -3.93194 -2.54001 0
M  V30 5165 H 506.192 -5.57601 -3.30128 0
M  V30 5166 N 499.598 0.982988 -1.23187 0
M  V30 5167 C 500.838 1.73903 -1.07412 0
M  V30 5168 C 501.202 1.88146 0.382764 0
M  V30 5169 O 502.403 2.6053 0.661638 0
M  V30 5170 C 500.674 3.10105 -1.77678 0
M  V30 5171 S 502.233 4.01323 -1.77441 0
M  V30 5172 H 499.051 0.598093 -0.384456 0
M  V30 5173 H 501.653 1.17456 -1.56283 0
M  V30 5174 H 500.357 2.97388 -2.82822 0
M  V30 5175 H 499.888 3.71622 -1.29077 0
M  V30 5176 H 501.903 4.89189 -0.831162 0
M  V30 5177 N 501.076 1.04316 1.18135 0
M  V30 5178 C 502.324 0.746542 1.87806 0
M  V30 5179 C 502.645 -0.728082 1.80898 0
M  V30 5180 O 501.915 -1.52554 1.22899 0
M  V30 5181 H 500.495 0.273157 0.695265 0
M  V30 5182 H 503.157 1.32044 1.43354 0
M  V30 5183 H 502.253 1.05362 2.93778 0
M  V30 5184 N 502.554 -1.34406 0.822964 0
M  V30 5185 C 503.8 -1.98999 0.420847 0
M  V30 5186 C 504.155 -1.64067 -1.00498 0
M  V30 5187 O 503.448 -0.902071 -1.69036 0
M  V30 5188 C 503.642 -3.52981 0.560268 0
M  V30 5189 C 503.471 -4.02873 1.99809 0
M  V30 5190 C 502.241 -4.31463 2.62998 0
M  V30 5191 C 504.439 -4.20241 2.96483 0
M  V30 5192 N 502.421 -4.6739 3.9802 0
M  V30 5193 C 503.792 -4.59348 4.16413 0
M  V30 5194 C 505.847 -4.02489 2.93098 0
M  V30 5195 C 504.55 -4.82559 5.33413 0
M  V30 5196 C 506.576 -4.26866 4.09315 0
M  V30 5197 C 505.938 -4.6626 5.27997 0
M  V30 5198 H 502.037 -0.755432 0.202104 0
M  V30 5199 H 504.621 -1.62815 1.06767 0
M  V30 5200 H 502.792 -3.88359 -0.0566596 0
M  V30 5201 H 504.524 -4.04487 0.131146 0
M  V30 5202 H 501.279 -4.22373 2.14238 0
M  V30 5203 H 501.703 -4.89588 4.67582 0
M  V30 5204 H 506.345 -3.71161 2.02483 0
M  V30 5205 H 504.063 -5.12754 6.24587 0
M  V30 5206 H 507.649 -4.14667 4.08096 0
M  V30 5207 H 506.529 -4.84752 6.16429 0
M  V30 5208 N 504.032 -0.577932 -1.46621 0
M  V30 5209 C 504.962 0.145917 -2.33044 0
M  V30 5210 C 505.943 0.888412 -1.45056 0
M  V30 5211 O 507.128 0.864812 -1.73881 0
M  V30 5212 C 504.258 1.16322 -3.27241 0
M  V30 5213 C 503.212 0.535868 -4.24632 0
M  V30 5214 C 502.538 1.65929 -5.08303 0
M  V30 5215 C 503.838 -0.523861 -5.19666 0
M  V30 5216 H 505.532 -0.575636 -2.93814 0
M  V30 5217 H 503.078 -0.278272 -1.41286 0
M  V30 5218 H 505.031 1.67793 -3.86553 0
M  V30 5219 H 503.755 1.91498 -2.64567 0
M  V30 5220 H 502.414 0.0422759 -3.66576 0
M  V30 5221 H 502.062 2.40061 -4.42018 0
M  V30 5222 H 501.762 1.2452 -5.74255 0
M  V30 5223 H 503.286 2.17686 -5.70478 0
M  V30 5224 H 504.7 -0.0944059 -5.73222 0
M  V30 5225 H 503.097 -0.858 -5.93935 0
M  V30 5226 H 504.167 -1.41197 -4.63887 0
M  V30 5227 N 505.51 1.54411 -0.315457 0
M  V30 5228 C 506.787 1.92562 0.343398 0
M  V30 5229 C 507.167 1.24423 1.70535 0
M  V30 5230 O 506.515 0.385051 2.25232 0
M  V30 5231 C 506.725 3.46168 0.443687 0
M  V30 5232 C 508.073 4.18659 0.707783 0
M  V30 5233 O 509.097 3.52281 0.52693 0
M  V30 5234 O 507.956 5.36198 1.05612 0
M  V30 5235 H 505.05 0.80379 0.194552 0
M  V30 5236 H 507.596 1.65738 -0.364577 0
M  V30 5237 H 506.368 3.8792 -0.513172 0
M  V30 5238 H 505.991 3.79073 1.19956 0
M  V30 5239 N 506.988 0.0434614 1.5754 0
M  V30 5240 C 507.918 -0.931651 2.14109 0
M  V30 5241 C 508.899 -1.32971 1.06079 0
M  V30 5242 O 510.084 -1.40579 1.33982 0
M  V30 5243 C 507.214 -2.20914 2.67982 0
M  V30 5244 C 506.168 -1.95139 3.80926 0
M  V30 5245 C 505.494 -3.29276 4.21285 0
M  V30 5246 C 506.794 -1.27913 5.06395 0
M  V30 5247 H 508.488 -0.460497 2.95837 0
M  V30 5248 H 506.034 -0.220058 1.42309 0
M  V30 5249 H 507.987 -2.89522 3.06194 0
M  V30 5250 H 506.711 -2.70221 1.83434 0
M  V30 5251 H 505.37 -1.28945 3.43175 0
M  V30 5252 H 505.018 -3.76369 3.33699 0
M  V30 5253 H 504.718 -3.12831 4.97404 0
M  V30 5254 H 506.242 -3.99129 4.62091 0
M  V30 5255 H 507.656 -1.86544 5.42102 0
M  V30 5256 H 506.053 -1.2182 5.87605 0
M  V30 5257 H 507.123 -0.254066 4.84234 0
M  V30 5258 N 508.466 -1.55915 -0.229846 0
M  V30 5259 C 509.399 -1.86734 -1.3117 0
M  V30 5260 C 510.377 -0.723947 -1.45595 0
M  V30 5261 O 511.561 -0.971462 -1.61539 0
M  V30 5262 C 508.688 -2.06707 -2.68309 0
M  V30 5263 C 507.734 -3.2938 -2.70944 0
M  V30 5264 S 508.567 -4.85547 -2.25842 0
M  V30 5265 C 509.723 -5.08546 -3.64873 0
M  V30 5266 H 509.956 -2.78204 -1.04832 0
M  V30 5267 H 507.489 -1.48243 -0.431681 0
M  V30 5268 H 509.447 -2.18898 -3.47267 0
M  V30 5269 H 508.108 -1.16049 -2.91876 0
M  V30 5270 H 507.301 -3.40374 -3.71701 0
M  V30 5271 H 506.903 -3.16004 -2.00044 0
M  V30 5272 H 509.195 -4.96935 -4.60502 0
M  V30 5273 H 510.138 -6.10465 -3.58801 0
M  V30 5274 H 510.546 -4.36314 -3.58176 0
M  V30 5275 N 509.944 0.496216 -1.49584 0
M  V30 5276 C 511.193 1.24668 -1.58558 0
M  V30 5277 C 511.506 1.9359 -0.279703 0
M  V30 5278 O 512.712 2.70365 -0.248048 0
M  V30 5279 C 511.168 2.26388 -2.79779 0
M  V30 5280 C 510.776 1.63384 -4.17145 0
M  V30 5281 C 512.52 3.02233 -2.98086 0
M  V30 5282 C 510.427 2.63243 -5.29582 0
M  V30 5283 H 509.357 0.468995 -0.590389 0
M  V30 5284 H 512.008 0.519985 -1.75978 0
M  V30 5285 H 510.39 3.02241 -2.55863 0
M  V30 5286 H 511.564 0.93491 -4.51216 0
M  V30 5287 H 509.879 0.999121 -4.04236 0
M  V30 5288 H 512.476 3.76919 -3.79257 0
M  V30 5289 H 512.819 3.60132 -2.08831 0
M  V30 5290 H 513.352 2.33495 -3.22063 0
M  V30 5291 H 510.091 2.10119 -6.20911 0
M  V30 5292 H 509.611 3.31363 -4.99959 0
M  V30 5293 H 511.29 3.25575 -5.59115 0
M  V30 5294 N 511.423 1.38739 0.74761 0
M  V30 5295 C 512.353 1.39173 1.87492 0
M  V30 5296 C 513.334 0.256794 1.6815 0
M  V30 5297 O 514.519 0.460762 1.88655 0
M  V30 5298 C 511.649 1.22197 3.25093 0
M  V30 5299 C 510.603 2.32957 3.59047 0
M  V30 5300 C 509.929 2.01082 4.95449 0
M  V30 5301 C 511.229 3.75237 3.6331 0
M  V30 5302 H 512.923 2.3351 1.87386 0
M  V30 5303 H 510.469 1.12399 0.900134 0
M  V30 5304 H 512.422 1.21124 4.03617 0
M  V30 5305 H 511.146 0.243241 3.25693 0
M  V30 5306 H 509.805 2.33226 2.82845 0
M  V30 5307 H 509.453 1.01678 4.92616 0
M  V30 5308 H 509.153 2.75267 5.19136 0
M  V30 5309 H 510.677 2.01638 5.76346 0
M  V30 5310 H 512.091 3.76966 4.31937 0
M  V30 5311 H 510.488 4.48677 3.98509 0
M  V30 5312 H 511.558 4.07122 2.634 0
M  V30 5313 N 512.901 -0.976442 1.23707 0
M  V30 5314 C 514.317 -1.24341 1.00058 0
M  V30 5315 C 514.517 -1.99315 -0.295932 0
M  V30 5316 O 513.573 -2.3123 -1.01435 0
M  V30 5317 C 514.886 -2.03909 2.21001 0
M  V30 5318 C 516.434 -2.17034 2.25534 0
M  V30 5319 C 516.909 -2.99994 3.46075 0
M  V30 5320 N 518.4 -3.07578 3.46338 0
M  V30 5321 C 519.135 -3.72104 4.36264 0
M  V30 5322 N 518.631 -4.3842 5.36432 0
M  V30 5323 N 520.424 -3.69029 4.23998 0
M  V30 5324 H 512.575 -0.47428 2.07037 0
M  V30 5325 H 514.838 -0.272167 0.908091 0
M  V30 5326 H 514.544 -1.56198 3.15111 0
M  V30 5327 H 514.418 -3.04654 2.22409 0
M  V30 5328 H 516.805 -2.63951 1.31961 0
M  V30 5329 H 516.886 -1.15664 2.28156 0
M  V30 5330 H 516.53 -2.53772 4.39957 0
M  V30 5331 H 516.46 -4.01541 3.40694 0
M  V30 5332 H 518.951 -2.60397 2.73865 0
M  V30 5333 H 519.264 -4.85447 6.013 0
M  V30 5334 H 517.609 -4.37116 5.40328 0
M  V30 5335 H 520.8 -3.16392 3.44984 0
M  V30 5336 H 520.973 -4.19034 4.94282 0
M  V30 5337 N 514.379 -1.04941 -1.1758 0
M  V30 5338 C 515.609 -0.777166 -1.91425 0
M  V30 5339 C 516.017 0.670647 -1.76915 0
M  V30 5340 O 515.36 1.46965 -1.10213 0
M  V30 5341 C 515.422 -1.07495 -3.43052 0
M  V30 5342 C 515.086 -2.51844 -3.81345 0
M  V30 5343 C 516.083 -3.50047 -3.844 0
M  V30 5344 C 513.768 -2.86787 -4.12382 0
M  V30 5345 C 515.762 -4.81239 -4.17957 0
M  V30 5346 C 513.449 -4.18182 -4.45608 0
M  V30 5347 C 514.447 -5.15219 -4.48373 0
M  V30 5348 O 514.135 -6.44258 -4.80819 0
M  V30 5349 H 513.867 -0.282209 -0.614275 0
M  V30 5350 H 516.421 -1.40258 -1.50056 0
M  V30 5351 H 514.651 -0.392437 -3.84704 0
M  V30 5352 H 516.34 -0.78912 -3.98155 0
M  V30 5353 H 517.106 -3.24391 -3.60548 0
M  V30 5354 H 512.985 -2.11922 -4.09402 0
M  V30 5355 H 516.529 -5.56974 -4.2003 0
M  V30 5356 H 512.426 -4.43602 -4.68922 0
M  V30 5357 H 513.194 -6.49041 -4.98686 0
M  V30 5358 N 515.857 1.33968 -0.830081 0
M  V30 5359 C 516.82 2.27694 -0.26235 0
M  V30 5360 C 517.82 1.50589 0.563876 0
M  V30 5361 O 519.01 1.70028 0.378941 0
M  V30 5362 C 516.142 3.35002 0.63138 0
M  V30 5363 H 517.335 2.79419 -1.08928 0
M  V30 5364 H 514.888 1.44221 -0.602486 0
M  V30 5365 H 515.623 2.88504 1.48109 0
M  V30 5366 H 515.408 3.92079 0.0403276 0
M  V30 5367 H 516.898 4.04897 1.02217 0
M  V30 5368 N 517.335 0.585699 1.46312 0
M  V30 5369 C 518.285 -0.166813 2.27389 0
M  V30 5370 C 519.269 -0.859076 1.36047 0
M  V30 5371 O 520.461 -0.752678 1.60199 0
M  V30 5372 C 517.59 -1.17791 3.2246 0
M  V30 5373 C 516.676 -0.487605 4.21288 0
M  V30 5374 N 517.067 0.45849 5.03718 0
M  V30 5375 C 515.365 -0.737971 4.39852 0
M  V30 5376 C 516.066 0.862213 5.75275 0
M  V30 5377 N 515.042 0.210707 5.43191 0
M  V30 5378 H 518.844 0.560167 2.88512 0
M  V30 5379 H 516.358 0.407715 1.57199 0
M  V30 5380 H 518.355 -1.73122 3.79255 0
M  V30 5381 H 517.015 -1.90568 2.62896 0
M  V30 5382 H 518.026 0.834163 5.11138 0
M  V30 5383 H 514.703 -1.45209 3.91434 0
M  V30 5384 H 516.093 1.64128 6.51546 0
M  V30 5385 N 518.813 -1.54241 0.323641 0
M  V30 5386 C 519.746 -2.20579 -0.584833 0
M  V30 5387 C 520.724 -1.18286 -1.11567 0
M  V30 5388 O 521.908 -1.47025 -1.17966 0
M  V30 5389 C 519.035 -2.86754 -1.80249 0
M  V30 5390 C 518.081 -4.02767 -1.4029 0
M  V30 5391 S 518.914 -5.33693 -0.439539 0
M  V30 5392 C 520.07 -6.03362 -1.66448 0
M  V30 5393 H 520.303 -2.97292 -0.0213238 0
M  V30 5394 H 517.836 -1.54024 0.107726 0
M  V30 5395 H 519.794 -3.25503 -2.50116 0
M  V30 5396 H 518.455 -2.09844 -2.33719 0
M  V30 5397 H 517.648 -4.47933 -2.31024 0
M  V30 5398 H 517.25 -3.65692 -0.783928 0
M  V30 5399 H 519.542 -6.25546 -2.6019 0
M  V30 5400 H 520.485 -6.9689 -1.25498 0
M  V30 5401 H 520.893 -5.33273 -1.85149 0
M  V30 5402 N 520.291 -0.0518155 -1.57515 0
M  V30 5403 C 521.537 0.622745 -1.93002 0
M  V30 5404 C 521.87 1.70456 -0.930499 0
M  V30 5405 O 521.145 1.94452 0.0434086 0
M  V30 5406 C 521.428 1.21824 -3.38867 0
M  V30 5407 C 521.281 0.144434 -4.49568 0
M  V30 5408 C 522.6 2.12968 -3.8514 0
M  V30 5409 H 519.719 0.22491 -0.701844 0
M  V30 5410 H 522.361 -0.113711 -1.89659 0
M  V30 5411 H 520.511 1.8459 -3.41846 0
M  V30 5412 H 522.183 -0.48753 -4.58717 0
M  V30 5413 H 520.426 -0.527424 -4.30582 0
M  V30 5414 H 521.097 0.601127 -5.48717 0
M  V30 5415 H 523.573 1.60163 -3.8404 0
M  V30 5416 H 522.449 2.51578 -4.87852 0
M  V30 5417 H 522.71 3.03004 -3.21934 0
M  V30 5418 N 521.769 1.56035 0.221574 0
M  V30 5419 C 522.717 1.93269 1.29421 0
M  V30 5420 C 523.711 0.814727 1.48521 0
M  V30 5421 O 524.917 0.999559 1.49696 0
M  V30 5422 H 521.292 0.614188 0.43391 0
M  V30 5423 H 523.263 2.82773 0.952987 0
M  V30 5424 C 522.012 2.26573 2.63742 0
M  V30 5425 H 521.335 3.12112 2.49853 0
M  V30 5426 H 522.775 2.5651 3.37607 0
M  V30 5427 C 521.234 1.09086 3.1875 0
M  V30 5428 O 521.764 0.351985 4.00155 0
M  V30 5429 N 519.97 0.874693 2.77124 0
M  V30 5430 H 519.517 1.47726 2.11033 0
M  V30 5431 H 519.475 0.0903349 3.1427 0
M  V30 5432 N 523.247 -0.488276 1.49845 0
M  V30 5433 C 524.495 -1.23911 1.59657 0
M  V30 5434 C 524.816 -1.92816 0.291005 0
M  V30 5435 O 524.086 -1.83328 -0.690485 0
M  V30 5436 H 522.666 -0.460357 0.588286 0
M  V30 5437 H 525.328 -0.564794 1.86537 0
M  V30 5438 H 524.424 -1.99625 2.39909 0
M  V30 5439 N 524.725 -1.39134 -0.740242 0
M  V30 5440 C 525.972 -1.36071 -1.49969 0
M  V30 5441 C 526.3 0.0450245 -1.94448 0
M  V30 5442 O 525.555 1.02482 -1.66721 0
M  V30 5443 C 525.854 -2.27457 -2.75678 0
M  V30 5444 C 525.52 -3.75185 -2.50094 0
M  V30 5445 C 524.182 -4.15439 -2.42825 0
M  V30 5446 C 526.534 -4.68643 -2.28086 0
M  V30 5447 C 523.862 -5.4722 -2.11584 0
M  V30 5448 C 526.214 -6.00695 -1.98363 0
M  V30 5449 C 524.878 -6.40018 -1.8956 0
M  V30 5450 H 524.148 -0.497921 -0.548777 0
M  V30 5451 H 526.795 -1.71599 -0.85007 0
M  V30 5452 H 525.1 -1.8503 -3.45356 0
M  V30 5453 H 526.797 -2.22384 -3.33686 0
M  V30 5454 H 523.387 -3.43279 -2.56627 0
M  V30 5455 H 527.571 -4.3838 -2.32672 0
M  V30 5456 H 522.827 -5.76615 -2.03287 0
M  V30 5457 H 527.001 -6.72644 -1.80341 0
M  V30 5458 H 524.628 -7.42051 -1.65117 0
M  V30 5459 N 526.204 0.969867 -1.24223 0
M  V30 5460 C 527.432 1.74756 -1.10761 0
M  V30 5461 C 527.847 1.85713 0.340041 0
M  V30 5462 O 527.204 1.34389 1.23474 0
M  V30 5463 C 527.255 3.16915 -1.73917 0
M  V30 5464 O 526.976 3.06511 -3.13021 0
M  V30 5465 C 528.477 4.11032 -1.66036 0
M  V30 5466 H 525.697 0.548092 -0.387087 0
M  V30 5467 H 528.241 1.2178 -1.64286 0
M  V30 5468 H 526.396 3.66884 -1.244 0
M  V30 5469 H 526.81 3.96079 -3.43834 0
M  V30 5470 H 528.284 5.08446 -2.14911 0
M  V30 5471 H 528.761 4.34785 -0.621159 0
M  V30 5472 H 529.367 3.66972 -2.14969 0
M  V30 5473 N 527.682 1.05563 1.17022 0
M  V30 5474 C 528.645 0.664098 2.19368 0
M  V30 5475 C 529.645 -0.286358 1.5823 0
M  V30 5476 O 530.835 -0.069728 1.7406 0
M  V30 5477 C 527.967 -0.0239932 3.40892 0
M  V30 5478 H 529.16 1.57 2.55521 0
M  V30 5479 H 526.713 0.849964 1.31169 0
M  V30 5480 H 527.448 -0.942988 3.10287 0
M  V30 5481 H 527.233 0.659351 3.86516 0
M  V30 5482 H 528.723 -0.283909 4.16634 0
M  V30 5483 N 529.16 -1.33526 0.837174 0
M  V30 5484 C 530.09 -2.31764 0.284206 0
M  V30 5485 C 531.071 -1.58896 -0.607142 0
M  V30 5486 O 532.256 -1.86798 -0.531047 0
M  V30 5487 C 529.386 -3.43029 -0.542962 0
M  V30 5488 C 528.34 -4.27255 0.252451 0
M  V30 5489 C 527.666 -5.3012 -0.69836 0
M  V30 5490 C 528.966 -5.01229 1.46858 0
M  V30 5491 H 530.66 -2.78262 1.10502 0
M  V30 5492 H 528.206 -1.3378 0.532812 0
M  V30 5493 H 530.159 -4.1078 -0.940096 0
M  V30 5494 H 528.883 -2.95216 -1.39697 0
M  V30 5495 H 527.542 -3.61127 0.631124 0
M  V30 5496 H 527.19 -4.78564 -1.54872 0
M  V30 5497 H 526.89 -5.87353 -0.170274 0
M  V30 5498 H 528.414 -6.00737 -1.09305 0
M  V30 5499 H 529.828 -5.61756 1.14469 0
M  V30 5500 H 528.225 -5.68104 1.93333 0
M  V30 5501 H 529.295 -4.301 2.23924 0
M  V30 5502 N 530.638 -0.59345 -1.46 0
M  V30 5503 C 531.601 0.123538 -2.28867 0
M  V30 5504 C 532.601 0.808628 -1.38989 0
M  V30 5505 O 533.791 0.658945 -1.61256 0
M  V30 5506 C 530.923 1.1847 -3.19653 0
M  V30 5507 H 532.116 -0.604843 -2.93737 0
M  V30 5508 H 529.669 -0.351875 -1.52288 0
M  V30 5509 H 530.404 1.94431 -2.59552 0
M  V30 5510 H 530.189 0.69783 -3.8584 0
M  V30 5511 H 531.679 1.68726 -3.81997 0
M  V30 5512 N 532.116 1.54067 -0.331816 0
M  V30 5513 C 533.046 2.27569 0.522932 0
M  V30 5514 C 534.027 1.28679 1.11247 0
M  V30 5515 O 535.212 1.57504 1.13605 0
M  V30 5516 C 532.342 3.0397 1.67987 0
M  V30 5517 C 531.296 4.10267 1.21924 0
M  V30 5518 C 530.622 4.74555 2.46377 0
M  V30 5519 C 531.922 5.21268 0.32815 0
M  V30 5520 H 533.616 2.99264 -0.0901977 0
M  V30 5521 H 531.162 1.4393 -0.044821 0
M  V30 5522 H 533.115 3.54123 2.28418 0
M  V30 5523 H 531.839 2.29906 2.31971 0
M  V30 5524 H 530.498 3.61009 0.637809 0
M  V30 5525 H 530.146 3.97098 3.08743 0
M  V30 5526 H 529.846 5.46363 2.16243 0
M  V30 5527 H 531.37 5.27487 3.07555 0
M  V30 5528 H 532.784 5.67128 0.838978 0
M  V30 5529 H 531.181 5.99982 0.119228 0
M  V30 5530 H 532.251 4.80673 -0.638839 0
M  V30 5531 N 533.594 0.0601682 1.57485 0
M  V30 5532 C 534.822 -0.620937 1.97363 0
M  V30 5533 C 535.237 -1.63846 0.938082 0
M  V30 5534 O 534.594 -1.82339 -0.0766578 0
M  V30 5535 C 534.645 -1.29987 3.37321 0
M  V30 5536 O 534.366 -0.323081 4.36907 0
M  V30 5537 C 535.867 -2.06989 3.92008 0
M  V30 5538 H 533.087 -0.169135 0.649334 0
M  V30 5539 H 535.631 0.129132 2.04092 0
M  V30 5540 H 533.786 -2.0011 3.31715 0
M  V30 5541 H 534.2 -0.808754 5.18227 0
M  V30 5542 H 535.674 -2.49901 4.92192 0
M  V30 5543 H 536.151 -2.92173 3.2792 0
M  V30 5544 H 536.757 -1.41757 4.0098 0
M  V30 5545 N 535.072 -1.5615 -0.213296 0
M  V30 5546 C 536.019 -1.93086 -1.26437 0
M  V30 5547 C 536.989 -0.789086 -1.4616 0
M  V30 5548 O 538.174 -1.04569 -1.59593 0
M  V30 5549 C 535.314 -2.26003 -2.608 0
M  V30 5550 C 534.427 -3.53156 -2.48807 0
M  V30 5551 C 533.562 -3.7548 -3.7575 0
M  V30 5552 C 532.601 -4.96119 -3.58514 0
M  V30 5553 N 531.738 -5.14791 -4.77425 0
M  V30 5554 H 536.578 -2.82707 -0.942376 0
M  V30 5555 H 534.115 -1.39919 -0.454001 0
M  V30 5556 H 536.073 -2.431 -3.39055 0
M  V30 5557 H 534.703 -1.39546 -2.91079 0
M  V30 5558 H 533.755 -3.44207 -1.61944 0
M  V30 5559 H 535.067 -4.41565 -2.31996 0
M  V30 5560 H 534.221 -3.92718 -4.62447 0
M  V30 5561 H 532.96 -2.85368 -3.95495 0
M  V30 5562 H 531.965 -4.78823 -2.70201 0
M  V30 5563 H 533.19 -5.87724 -3.40231 0
M  V30 5564 H 531.136 -4.27623 -4.97468 0
M  V30 5565 H 531.053 -5.97347 -4.63371 0
M  V30 5566 H 532.321 -5.36471 -5.65525 0
M  V30 5567 N 536.55 0.480323 -1.50102 0
M  V30 5568 C 537.48 1.58769 -1.71215 0
M  V30 5569 C 538.461 1.60583 -0.560997 0
M  V30 5570 O 539.646 1.76996 -0.799127 0
M  V30 5571 C 536.776 2.97148 -1.79778 0
M  V30 5572 C 535.73 3.10201 -2.94888 0
M  V30 5573 C 535.056 4.50137 -2.88584 0
M  V30 5574 C 536.356 2.88283 -4.35534 0
M  V30 5575 H 538.05 1.41354 -2.6393 0
M  V30 5576 H 535.596 0.678591 -1.27008 0
M  V30 5577 H 537.549 3.74536 -1.93133 0
M  V30 5578 H 536.273 3.15699 -0.836772 0
M  V30 5579 H 534.932 2.35244 -2.81169 0
M  V30 5580 H 534.58 4.65593 -1.90349 0
M  V30 5581 H 534.28 4.59808 -3.65856 0
M  V30 5582 H 535.804 5.29558 -3.03976 0
M  V30 5583 H 537.218 3.55427 -4.49827 0
M  V30 5584 H 535.615 3.09408 -5.14186 0
M  V30 5585 H 536.685 1.84219 -4.48544 0
M  V30 5586 N 538.028 1.39524 0.732853 0
M  V30 5587 C 539.305 1.27373 1.48444 0
M  V30 5588 C 539.685 -0.115725 2.10783 0
M  V30 5589 O 539.033 -1.12713 1.98766 0
M  V30 5590 C 539.243 2.39966 2.53412 0
M  V30 5591 C 540.591 2.79384 3.19733 0
M  V30 5592 O 541.615 2.39431 2.63725 0
M  V30 5593 O 540.474 3.48353 4.21085 0
M  V30 5594 H 537.568 0.499272 0.659285 0
M  V30 5595 H 540.114 1.51403 0.766496 0
M  V30 5596 H 538.886 3.32845 2.05742 0
M  V30 5597 H 538.509 2.17612 3.32762 0
M  V30 5598 N 539.506 -0.963266 1.24736 0
M  V30 5599 C 540.755 -1.70115 1.08369 0
M  V30 5600 C 541.068 -1.91939 -0.376688 0
M  V30 5601 O 542.274 -2.6334 -0.660624 0
M  V30 5602 C 540.73 -3.06218 1.89099 0
M  V30 5603 C 540.338 -2.92221 3.39574 0
M  V30 5604 C 542.082 -3.83848 1.81275 0
M  V30 5605 C 539.989 -4.23662 4.12631 0
M  V30 5606 H 538.919 -0.637944 0.401924 0
M  V30 5607 H 541.57 -1.07304 1.48856 0
M  V30 5608 H 539.952 -3.69884 1.41429 0
M  V30 5609 H 541.126 -2.37541 3.94856 0
M  V30 5610 H 539.441 -2.28054 3.48397 0
M  V30 5611 H 542.038 -4.81188 2.33158 0
M  V30 5612 H 542.381 -4.08949 0.778895 0
M  V30 5613 H 542.914 -3.26918 2.26649 0
M  V30 5614 H 539.653 -4.03753 5.16395 0
M  V30 5615 H 539.173 -4.78141 3.62135 0
M  V30 5616 H 540.852 -4.92256 4.19873 0
M  V30 5617 N 540.985 -1.06182 -1.16461 0
M  V30 5618 C 541.915 -0.692861 -2.22984 0
M  V30 5619 C 542.896 0.314122 -1.67174 0
M  V30 5620 O 544.081 0.189499 -1.93273 0
M  V30 5621 C 541.211 -0.07732 -3.47214 0
M  V30 5622 C 540.165 -1.01015 -4.15909 0
M  V30 5623 C 539.491 -0.257973 -5.34077 0
M  V30 5624 C 540.791 -2.33868 -4.67015 0
M  V30 5625 H 542.485 -1.58343 -2.54102 0
M  V30 5626 H 540.031 -0.76279 -1.22137 0
M  V30 5627 H 541.984 0.19266 -4.20959 0
M  V30 5628 H 540.708 0.848254 -3.15392 0
M  V30 5629 H 539.367 -1.26486 -3.44088 0
M  V30 5630 H 539.015 0.670684 -4.98509 0
M  V30 5631 H 538.715 -0.879638 -5.80979 0
M  V30 5632 H 540.239 0.00448788 -6.106 0
M  V30 5633 H 541.653 -2.1279 -5.32347 0
M  V30 5634 H 540.05 -2.91522 -5.24533 0
M  V30 5635 H 541.12 -2.97019 -3.83286 0
M  V30 5636 N 542.463 1.3308 -0.844243 0
M  V30 5637 C 543.74 1.92178 -0.364261 0
M  V30 5638 C 544.12 1.76961 1.15101 0
M  V30 5639 O 543.468 1.16128 1.9679 0
M  V30 5640 C 543.678 3.393 -0.817106 0
M  V30 5641 C 545.026 4.16444 -0.828236 0
M  V30 5642 O 546.05 3.47975 -0.761062 0
M  V30 5643 O 544.909 5.38685 -0.920926 0
M  V30 5644 H 542.003 0.820411 -0.10419 0
M  V30 5645 H 544.549 1.41918 -0.930453 0
M  V30 5646 H 543.321 3.44272 -1.85991 0
M  V30 5647 H 542.944 3.96947 -0.227785 0
M  V30 5648 N 543.941 0.601185 1.45683 0
M  V30 5649 C 545.187 0.0940202 2.02582 0
M  V30 5650 C 545.52 -1.26972 1.46941 0
M  V30 5651 O 544.795 -1.83613 0.641612 0
M  V30 5652 C 545.078 0.0481715 3.60068 0
M  V30 5653 C 544.931 1.44212 4.26055 0
M  V30 5654 C 546.25 -0.642975 4.35378 0
M  V30 5655 H 543.369 0.0356404 0.736138 0
M  V30 5656 H 546.011 0.771929 1.73612 0
M  V30 5657 H 544.161 -0.529128 3.8488 0
M  V30 5658 H 545.833 2.06601 4.12449 0
M  V30 5659 H 544.076 2.00465 3.84703 0
M  V30 5660 H 544.747 1.36234 5.34925 0
M  V30 5661 H 547.223 -0.152351 4.15821 0
M  V30 5662 H 546.099 -0.644141 5.45107 0
M  V30 5663 H 546.36 -1.70785 4.0778 0
M  V30 5664 N 545.419 -1.53889 0.339982 0
M  V30 5665 C 546.349 -2.27843 -0.510856 0
M  V30 5666 C 547.33 -1.29267 -1.10563 0
M  V30 5667 O 548.515 -1.58104 -1.12768 0
M  V30 5668 C 545.645 -3.04857 -1.66372 0
M  V30 5669 C 544.599 -4.10907 -1.19746 0
M  V30 5670 C 543.925 -4.75855 -2.43857 0
M  V30 5671 C 545.225 -5.21435 -0.300501 0
M  V30 5672 H 546.919 -2.99212 0.106067 0
M  V30 5673 H 544.465 -1.43904 0.0524533 0
M  V30 5674 H 546.418 -3.5533 -2.26537 0
M  V30 5675 H 545.142 -2.31133 -2.30749 0
M  V30 5676 H 543.801 -3.61342 -0.618654 0
M  V30 5677 H 543.449 -3.9873 -3.06633 0
M  V30 5678 H 543.149 -5.47502 -2.13343 0
M  V30 5679 H 544.673 -5.2911 -3.04754 0
M  V30 5680 H 546.087 -5.67565 -0.80889 0
M  V30 5681 H 544.484 -6.00036 -0.0874076 0
M  V30 5682 H 545.554 -4.80328 0.664321 0
M  V30 5683 N 546.897 -0.0685191 -1.57451 0
M  V30 5684 C 548.145 0.60016 -1.92983 0
M  V30 5685 C 548.466 1.70348 -0.949028 0
M  V30 5686 O 547.736 1.959 0.00335647 0
M  V30 5687 H 546.316 0.224682 -0.712409 0
M  V30 5688 H 548.978 -0.125605 -1.94495 0
M  V30 5689 H 548.074 1.02759 -2.94698 0
M  V30 5690 N 548.375 1.56261 0.205012 0
M  V30 5691 C 549.285 1.96944 1.27476 0
M  V30 5692 C 550.301 0.875636 1.50362 0
M  V30 5693 O 551.477 1.18058 1.6317 0
M  V30 5694 C 548.542 2.29219 2.60115 0
M  V30 5695 C 547.603 3.52255 2.45387 0
M  V30 5696 C 546.836 3.8298 3.71701 0
M  V30 5697 O 547.059 3.15138 4.75441 0
M  V30 5698 O 545.993 4.76435 3.67823 0
M  V30 5699 H 549.819 2.88144 0.959527 0
M  V30 5700 H 547.404 1.43686 0.409217 0
M  V30 5701 H 549.286 2.51098 3.3842 0
M  V30 5702 H 547.961 1.4119 2.91285 0
M  V30 5703 H 546.868 3.35635 1.65227 0
M  V30 5704 H 548.201 4.40719 2.19152 0
M  V30 5705 N 549.853 -0.472356 1.50355 0
M  V30 5706 C 551.099 -1.22634 1.6152 0
M  V30 5707 C 551.432 -1.91645 0.313995 0
M  V30 5708 O 550.707 -1.82059 -0.684446 0
M  V30 5709 C 550.99 -2.27099 2.7946 0
M  V30 5710 C 550.843 -1.62402 4.19459 0
M  V30 5711 C 552.162 -3.28421 2.92964 0
M  V30 5712 H 549.281 -0.444494 0.587873 0
M  V30 5713 H 551.923 -0.520321 1.82737 0
M  V30 5714 H 550.073 -2.87314 2.61501 0
M  V30 5715 H 551.745 -1.05793 4.49005 0
M  V30 5716 H 549.988 -0.927184 4.23776 0
M  V30 5717 H 550.659 -2.38309 4.97909 0
M  V30 5718 H 553.135 -2.78227 3.09401 0
M  V30 5719 H 552.011 -3.98845 3.77113 0
M  V30 5720 H 552.272 -3.92467 2.03525 0
M  V30 5721 N 551.331 -1.39911 -0.725443 0
M  V30 5722 C 552.278 -1.39393 -1.83952 0
M  V30 5723 C 553.248 -0.252249 -1.64173 0
M  V30 5724 O 554.433 -0.44882 -1.85446 0
M  V30 5725 C 551.573 -1.25262 -3.21564 0
M  V30 5726 C 550.686 -2.49054 -3.52982 0
M  V30 5727 C 549.821 -2.27439 -4.80047 0
M  V30 5728 C 548.86 -3.46857 -5.04338 0
M  V30 5729 N 547.997 -3.24499 -6.22611 0
M  V30 5730 H 552.837 -2.34622 -1.83729 0
M  V30 5731 H 550.374 -1.16537 -0.897636 0
M  V30 5732 H 552.332 -1.15077 -4.01015 0
M  V30 5733 H 550.962 -0.33657 -3.21041 0
M  V30 5734 H 550.014 -2.69805 -2.6816 0
M  V30 5735 H 551.326 -3.37973 -3.66846 0
M  V30 5736 H 550.48 -2.14551 -5.67497 0
M  V30 5737 H 549.219 -1.35929 -4.68374 0
M  V30 5738 H 548.224 -3.60232 -4.15346 0
M  V30 5739 H 549.449 -4.3928 -5.17889 0
M  V30 5740 H 547.395 -2.35663 -6.12208 0
M  V30 5741 H 547.312 -4.06978 -6.37106 0
M  V30 5742 H 548.58 -3.15325 -7.12875 0
M  V30 5743 N 552.809 0.956637 -1.25245 0
M  V30 5744 C 554.055 1.70352 -1.10036 0
M  V30 5745 C 554.388 1.90869 0.358156 0
M  V30 5746 O 553.663 1.47819 1.26411 0
M  V30 5747 C 553.946 3.08766 -1.85298 0
M  V30 5748 C 553.799 2.95672 -3.38966 0
M  V30 5749 C 555.118 4.08622 -1.63451 0
M  V30 5750 H 552.237 0.618279 -0.401123 0
M  V30 5751 H 554.879 1.11212 -1.54051 0
M  V30 5752 H 553.029 3.59252 -1.47887 0
M  V30 5753 H 554.701 2.52527 -3.86041 0
M  V30 5754 H 552.944 2.31634 -3.6678 0
M  V30 5755 H 553.615 3.93776 -3.86839 0
M  V30 5756 H 556.091 3.67038 -1.96015 0
M  V30 5757 H 554.967 5.03514 -2.18551 0
M  V30 5758 H 555.228 4.3834 -0.575357 0
M  V30 5759 N 554.287 1.06798 1.15896 0
M  V30 5760 C 555.535 0.786211 1.8618 0
M  V30 5761 C 555.856 -0.689547 1.82401 0
M  V30 5762 O 555.126 -1.49913 1.26107 0
M  V30 5763 H 553.706 0.287843 0.689315 0
M  V30 5764 H 556.368 1.35055 1.40521 0
M  V30 5765 H 555.464 1.1157 2.91477 0
M  V30 5766 N 555.766 -1.3263 0.851289 0
M  V30 5767 C 557.012 -1.9766 0.453694 0
M  V30 5768 C 557.345 -1.67225 -0.987396 0
M  V30 5769 O 556.62 -0.958693 -1.69232 0
M  V30 5770 C 556.903 -3.5344 0.68936 0
M  V30 5771 C 556.756 -3.93517 2.17862 0
M  V30 5772 C 558.075 -4.39866 0.143555 0
M  V30 5773 H 555.194 -0.717989 0.166314 0
M  V30 5774 H 557.836 -1.57068 1.06909 0
M  V30 5775 H 555.986 -3.88147 0.165546 0
M  V30 5776 H 557.658 -3.69006 2.76826 0
M  V30 5777 H 555.901 -3.42798 2.65841 0
M  V30 5778 H 556.572 -5.02065 2.29422 0
M  V30 5779 H 559.048 -4.11875 0.591451 0
M  V30 5780 H 557.924 -5.47858 0.338043 0
M  V30 5781 H 558.185 -4.31696 -0.953466 0
M  V30 5782 N 557.244 -0.608902 -1.45362 0
M  V30 5783 C 558.469 -0.10921 -2.07112 0
M  V30 5784 C 558.894 1.19779 -1.45033 0
M  V30 5785 O 558.252 1.72961 -0.543527 0
M  V30 5786 C 558.3 0.0155745 -3.60597 0
M  V30 5787 O 557.404 1.06546 -3.98399 0
M  V30 5788 H 556.745 -0.0746619 -0.659789 0
M  V30 5789 H 559.275 -0.839283 -1.86594 0
M  V30 5790 H 559.285 0.213364 -4.07442 0
M  V30 5791 H 557.96 -0.938765 -4.05167 0
M  V30 5792 H 556.537 0.844024 -3.63223 0
M  V30 5793 N 558.722 1.53707 -0.348139 0
M  V30 5794 C 559.952 2.05108 0.247864 0
M  V30 5795 C 560.36 1.22252 1.44399 0
M  V30 5796 O 559.703 0.251853 1.81965 0
M  V30 5797 C 559.765 3.52171 0.722187 0
M  V30 5798 C 559.429 4.5562 -0.354902 0
M  V30 5799 C 560.426 5.05883 -1.19911 0
M  V30 5800 C 558.111 4.99703 -0.510145 0
M  V30 5801 C 560.105 5.98814 -2.18406 0
M  V30 5802 C 557.792 5.92443 -1.49848 0
M  V30 5803 C 558.79 6.41887 -2.33389 0
M  V30 5804 O 558.478 7.32802 -3.3054 0
M  V30 5805 H 558.21 0.674086 0.0508296 0
M  V30 5806 H 560.764 1.99229 -0.49968 0
M  V30 5807 H 558.994 3.55529 1.52105 0
M  V30 5808 H 560.683 3.8652 1.23925 0
M  V30 5809 H 561.449 4.72586 -1.09028 0
M  V30 5810 H 557.328 4.60816 0.130274 0
M  V30 5811 H 560.872 6.3733 -2.83649 0
M  V30 5812 H 556.769 6.25155 -1.60786 0
M  V30 5813 H 557.537 7.50749 -3.26064 0
M  V30 5814 N 560.2 0.0768682 1.57412 0
M  V30 5815 C 561.147 -0.888577 2.13009 0
M  V30 5816 C 562.117 -1.29198 1.0439 0
M  V30 5817 O 563.302 -1.37694 1.3208 0
M  V30 5818 C 560.442 -2.14899 2.70023 0
M  V30 5819 C 559.555 -1.79777 3.92816 0
M  V30 5820 C 558.69 -3.00467 4.38056 0
M  V30 5821 C 557.729 -2.61385 5.53484 0
M  V30 5822 N 556.866 -3.74851 5.93659 0
M  V30 5823 H 561.706 -0.407593 2.95199 0
M  V30 5824 H 559.243 -0.189534 1.45874 0
M  V30 5825 H 561.201 -2.88688 3.0119 0
M  V30 5826 H 559.831 -2.60529 1.9059 0
M  V30 5827 H 558.883 -0.960301 3.68079 0
M  V30 5828 H 560.195 -1.47027 4.76639 0
M  V30 5829 H 559.349 -3.82529 4.7091 0
M  V30 5830 H 558.088 -3.36413 3.53097 0
M  V30 5831 H 557.093 -1.77746 5.20275 0
M  V30 5832 H 558.318 -2.26603 6.40178 0
M  V30 5833 H 556.264 -4.1055 5.11649 0
M  V30 5834 H 556.181 -3.45887 6.72234 0
M  V30 5835 H 557.449 -4.57477 6.31138 0
M  V30 5836 N 561.678 -1.56367 -0.196722 0
M  V30 5837 C 562.608 -1.97442 -1.24655 0
M  V30 5838 C 563.589 -0.846147 -1.47561 0
M  V30 5839 O 564.774 -1.11035 -1.59326 0
M  V30 5840 C 561.904 -2.31253 -2.59112 0
M  V30 5841 C 560.858 -3.46804 -2.50821 0
M  V30 5842 C 560.184 -3.66286 -3.89536 0
M  V30 5843 C 561.484 -4.8104 -2.03465 0
M  V30 5844 H 563.178 -2.85388 -0.905216 0
M  V30 5845 H 560.724 -1.37304 -0.434002 0
M  V30 5846 H 562.677 -2.58583 -3.32736 0
M  V30 5847 H 561.401 -1.40188 -2.94983 0
M  V30 5848 H 560.06 -3.19563 -1.79653 0
M  V30 5849 H 559.708 -2.72555 -4.22756 0
M  V30 5850 H 559.408 -4.4402 -3.84864 0
M  V30 5851 H 560.932 -3.9599 -4.64784 0
M  V30 5852 H 562.346 -5.07411 -2.66846 0
M  V30 5853 H 560.743 -5.62232 -2.09798 0
M  V30 5854 H 561.813 -4.74732 -0.98781 0
M  V30 5855 N 563.156 0.464375 -1.50603 0
M  V30 5856 C 564.104 1.58224 -1.70493 0
M  V30 5857 C 565.098 1.59492 -0.570836 0
M  V30 5858 O 566.304 1.63561 -0.751517 0
M  V30 5859 H 562.679 0.525161 -0.538247 0
M  V30 5860 H 564.65 1.38613 -2.64252 0
M  V30 5861 C 563.399 2.96113 -1.82243 0
M  V30 5862 H 562.722 2.95858 -2.68901 0
M  V30 5863 H 564.162 3.73769 -2.00182 0
M  V30 5864 C 562.621 3.31946 -0.575628 0
M  V30 5865 O 563.151 4.00708 0.282152 0
M  V30 5866 N 561.357 2.87436 -0.427665 0
M  V30 5867 H 560.904 2.31652 -1.12674 0
M  V30 5868 H 560.862 3.11776 0.405379 0
M  V30 5869 N 564.634 1.40294 0.718013 0
M  V30 5870 C 565.882 1.38167 1.47494 0
M  V30 5871 C 566.203 -0.01607 1.94993 0
M  V30 5872 O 565.473 -0.970396 1.70177 0
M  V30 5873 H 564.053 0.508505 0.547203 0
M  V30 5874 H 566.715 1.75324 0.851322 0
M  V30 5875 H 565.811 2.05503 2.34894 0
M  V30 5876 N 566.112 -0.949982 1.2575 0
M  V30 5877 C 567.059 -2.04738 1.06541 0
M  V30 5878 C 568.029 -1.66078 -0.0268818 0
M  V30 5879 O 569.214 -1.90348 0.131196 0
M  V30 5880 C 566.354 -3.38027 0.695127 0
M  V30 5881 C 565.467 -3.89776 1.86276 0
M  V30 5882 C 564.602 -5.11411 1.4364 0
M  V30 5883 C 563.641 -5.554 2.57287 0
M  V30 5884 N 562.778 -6.68244 2.15395 0
M  V30 5885 H 567.618 -2.20502 2.00457 0
M  V30 5886 H 565.155 -1.0805 0.998178 0
M  V30 5887 H 567.113 -4.14641 0.461375 0
M  V30 5888 H 565.743 -3.22135 -0.207046 0
M  V30 5889 H 564.795 -3.0964 2.20969 0
M  V30 5890 H 566.107 -4.18368 2.71606 0
M  V30 5891 H 565.261 -5.95457 1.16257 0
M  V30 5892 H 564 -4.84545 0.553879 0
M  V30 5893 H 563.005 -4.69916 2.85409 0
M  V30 5894 H 564.23 -5.84272 3.46125 0
M  V30 5895 H 562.176 -6.43078 1.29565 0
M  V30 5896 H 562.093 -6.96377 2.94272 0
M  V30 5897 H 563.361 -7.55687 1.91201 0
M  V30 5898 N 567.59 -1.07411 -1.15328 0
M  V30 5899 C 569.006 -0.799759 -1.38116 0
M  V30 5900 C 569.206 0.59572 -1.92493 0
M  V30 5901 O 568.262 1.35433 -2.13106 0
M  V30 5902 C 569.575 -1.87407 -2.35158 0
M  V30 5903 C 571.123 -1.89889 -2.48819 0
M  V30 5904 C 571.598 -2.96406 -3.49153 0
M  V30 5905 N 573.089 -2.95512 -3.56689 0
M  V30 5906 C 573.824 -3.74575 -4.34144 0
M  V30 5907 N 573.32 -4.63488 -5.14928 0
M  V30 5908 N 575.113 -3.62919 -4.29239 0
M  V30 5909 H 567.264 -1.97411 -0.78374 0
M  V30 5910 H 569.527 -0.856113 -0.407154 0
M  V30 5911 H 569.233 -2.8768 -2.0232 0
M  V30 5912 H 569.107 -1.73471 -3.34944 0
M  V30 5913 H 571.494 -0.902677 -2.80955 0
M  V30 5914 H 571.575 -2.07904 -1.49029 0
M  V30 5915 H 571.219 -3.96227 -3.17752 0
M  V30 5916 H 571.149 -2.75638 -4.48699 0
M  V30 5917 H 573.64 -2.31061 -2.99031 0
M  V30 5918 H 573.953 -5.20445 -5.71276 0
M  V30 5919 H 572.298 -4.67537 -5.14232 0
M  V30 5920 H 575.489 -2.92833 -3.65194 0
M  V30 5921 H 575.662 -4.24777 -4.89355 0
M  V30 5922 N 569.068 1.32177 -0.85831 0
M  V30 5923 C 570.317 1.96392 -0.459689 0
M  V30 5924 C 570.63 1.68659 0.990632 0
M  V30 5925 O 571.836 2.26641 1.49485 0
M  V30 5926 C 570.292 3.51542 -0.7711 0
M  V30 5927 C 569.9 3.8813 -2.2374 0
M  V30 5928 C 571.644 4.2221 -0.44038 0
M  V30 5929 C 569.551 5.36341 -2.49183 0
M  V30 5930 H 568.481 0.735007 -0.168169 0
M  V30 5931 H 571.132 1.50518 -1.0496 0
M  V30 5932 H 569.514 3.95846 -0.11058 0
M  V30 5933 H 570.688 3.54824 -2.94001 0
M  V30 5934 H 569.003 3.30497 -2.533 0
M  V30 5935 H 571.6 5.31234 -0.607855 0
M  V30 5936 H 571.943 4.11683 0.618291 0
M  V30 5937 H 572.476 3.83502 -1.05695 0
M  V30 5938 H 569.215 5.51892 -3.53689 0
M  V30 5939 H 568.735 5.7104 -1.83504 0
M  V30 5940 H 570.414 6.03466 -2.33318 0
M  V30 5941 N 570.547 0.616602 1.45037 0
M  V30 5942 C 571.958 0.199359 1.85633 0
M  V30 5943 C 572.309 -1.24588 1.51566 0
M  V30 5944 O 571.434 -1.94594 0.94668 0
M  V30 5945 C 572.029 0.355033 3.36935 0
M  V30 5946 C 570.588 -0.00758748 3.76399 0
M  V30 5947 C 569.735 0.675256 2.68953 0
M  V30 5948 H 572.686 0.822708 1.3571 0
M  V30 5949 H 572.707 -0.410201 3.78282 0
M  V30 5950 H 572.219 1.40699 3.61698 0
M  V30 5951 H 570.32 -1.05837 3.57252 0
M  V30 5952 H 570.433 0.392346 4.77491 0
M  V30 5953 H 568.797 0.111992 2.54454 0
M  V30 5954 H 569.58 1.72952 2.96551 0
M  V30 5955 N 572.025 -1.5352 0.356285 0
M  V30 5956 C 573.255 -2.05236 -0.236983 0
M  V30 5957 C 573.663 -1.23016 -1.43749 0
M  V30 5958 O 573.006 -0.2615 -1.81829 0
M  V30 5959 C 573.068 -3.52549 -0.7035 0
M  V30 5960 C 572.732 -4.55425 0.379059 0
M  V30 5961 C 573.729 -5.0524 1.22592 0
M  V30 5962 C 571.414 -4.99425 0.536638 0
M  V30 5963 C 573.408 -5.97647 2.21578 0
M  V30 5964 C 571.095 -5.9164 1.52988 0
M  V30 5965 C 572.093 -6.4064 2.3679 0
M  V30 5966 O 571.781 -7.31039 3.34421 0
M  V30 5967 H 571.513 -0.674346 -0.047254 0
M  V30 5968 H 574.067 -1.98962 0.510238 0
M  V30 5969 H 572.297 -3.56331 -1.50217 0
M  V30 5970 H 573.986 -3.87171 -1.21873 0
M  V30 5971 H 574.752 -4.72002 1.11532 0
M  V30 5972 H 570.631 -4.60879 -0.105834 0
M  V30 5973 H 574.175 -6.35816 2.87025 0
M  V30 5974 H 570.072 -6.24293 1.64099 0
M  V30 5975 H 570.84 -7.49009 3.30041 0
M  V30 5976 N 573.503 -0.0852151 -1.57369 0
M  V30 5977 C 574.75 0.580806 -1.93992 0
M  V30 5978 C 575.078 1.68801 -0.966252 0
M  V30 5979 O 574.333 1.95694 0.0158649 0
M  V30 5980 C 574.632 1.18482 -3.3719 0
M  V30 5981 C 574.298 0.2024 -4.50446 0
M  V30 5982 C 572.96 -0.0678318 -4.81152 0
M  V30 5983 C 575.312 -0.46895 -5.19086 0
M  V30 5984 C 572.64 -1.01627 -5.77831 0
M  V30 5985 C 574.992 -1.4058 -6.16782 0
M  V30 5986 C 573.656 -1.68436 -6.45899 0
M  V30 5987 H 572.926 0.212532 -0.709867 0
M  V30 5988 H 575.573 -0.158947 -1.90839 0
M  V30 5989 H 573.878 2.0006 -3.36873 0
M  V30 5990 H 575.575 1.70767 -3.62822 0
M  V30 5991 H 572.165 0.423208 -4.26505 0
M  V30 5992 H 576.349 -0.273307 -4.95547 0
M  V30 5993 H 571.605 -1.2392 -5.9871 0
M  V30 5994 H 575.779 -1.93188 -6.69068 0
M  V30 5995 H 573.406 -2.42088 -7.20623 0
M  V30 5996 N 574.981 1.5647 0.188427 0
M  V30 5997 C 576.392 1.70864 0.752494 0
M  V30 5998 C 576.743 0.692905 1.83557 0
M  V30 5999 O 575.868 -0.149307 2.15884 0
M  V30 6000 C 576.463 3.09789 1.37173 0
M  V30 6001 C 575.022 3.25925 1.88281 0
M  V30 6002 C 574.169 2.66817 0.755259 0
M  V30 6003 H 577.12 1.58657 -0.0367408 0
M  V30 6004 H 577.141 3.07489 2.24122 0
M  V30 6005 H 576.653 3.83693 0.583219 0
M  V30 6006 H 574.754 2.56948 2.6983 0
M  V30 6007 H 574.867 4.33498 2.04001 0
M  V30 6008 H 573.231 2.2617 1.17128 0
M  V30 6009 H 574.014 3.43294 -0.0211237 0
M  V30 6010 N 576.459 -0.456382 1.50847 0
M  V30 6011 C 577.422 -1.53493 1.70213 0
M  V30 6012 C 578.422 -1.50264 0.572481 0
M  V30 6013 O 579.612 -1.52623 0.839751 0
M  V30 6014 C 576.744 -2.93091 1.741 0
M  V30 6015 H 577.937 -1.37633 2.66453 0
M  V30 6016 H 575.49 -0.683776 1.4055 0
M  V30 6017 H 576.225 -3.14378 0.796063 0
M  V30 6018 H 576.01 -2.9684 2.5618 0
M  V30 6019 H 577.5 -3.71368 1.90987 0
M  V30 6020 N 577.937 -1.40673 -0.710563 0
M  V30 6021 C 578.885 -1.41517 -1.84596 0
M  V30 6022 C 579.879 -0.295043 -1.66811 0
M  V30 6023 O 581.085 -0.466331 -1.73854 0
M  V30 6024 H 577.46 -0.442467 -0.608052 0
M  V30 6025 H 579.431 -2.37238 -1.80999 0
M  V30 6026 C 578.18 -1.29957 -3.225 0
M  V30 6027 H 577.503 -2.15429 -3.36794 0
M  V30 6028 H 578.943 -1.34608 -4.02066 0
M  V30 6029 C 577.402 -0.0103164 -3.36898 0
M  V30 6030 O 577.932 0.950707 -3.90288 0
M  V30 6031 N 576.138 0.0608409 -2.90536 0
M  V30 6032 H 575.685 -0.721943 -2.47277 0
M  V30 6033 H 575.643 0.92292 -3.00549 0
M  V30 6034 N 579.415 0.9433 -1.26252 0
M  V30 6035 C 580.347 2.04542 -1.03417 0
M  V30 6036 C 581.36 1.62799 0.0046911 0
M  V30 6037 O 582.549 1.76944 -0.235146 0
M  V30 6038 C 579.649 3.34511 -0.543671 0
M  V30 6039 C 578.822 4.05033 -1.65128 0
M  V30 6040 C 577.881 5.13273 -1.1592 0
M  V30 6041 O 576.907 5.38095 -1.85586 0
M  V30 6042 N 578.109 5.805 -0.00649279 0
M  V30 6043 H 580.874 2.24699 -1.98319 0
M  V30 6044 H 578.435 1.11264 -1.1761 0
M  V30 6045 H 580.427 4.04212 -0.198703 0
M  V30 6046 H 578.997 3.11042 0.311711 0
M  V30 6047 H 578.217 3.29275 -2.16729 0
M  V30 6048 H 579.505 4.48903 -2.39508 0
M  V30 6049 H 578.903 5.62767 0.575347 0
M  V30 6050 H 577.46 6.51201 0.279416 0
M  V30 6051 N 580.893 1.08022 1.14757 0
M  V30 6052 C 581.803 0.718292 2.23333 0
M  V30 6053 C 582.819 -0.273477 1.71837 0
M  V30 6054 O 583.995 -0.118406 2.01052 0
M  V30 6055 C 581.06 0.128855 3.4646 0
M  V30 6056 C 580.121 1.17473 4.12915 0
M  V30 6057 C 579.354 0.61333 5.30164 0
M  V30 6058 O 579.577 -0.568458 5.6756 0
M  V30 6059 O 578.511 1.3615 5.86299 0
M  V30 6060 H 582.337 1.62394 2.56636 0
M  V30 6061 H 579.922 0.853628 1.22611 0
M  V30 6062 H 581.804 -0.197249 4.20938 0
M  V30 6063 H 580.479 -0.750014 3.14891 0
M  V30 6064 H 579.386 1.5533 3.40328 0
M  V30 6065 H 580.719 2.02574 4.48581 0
M  V30 6066 N 582.371 -1.3172 0.865308 0
M  V30 6067 C 583.304 -2.26687 0.262376 0
M  V30 6068 C 584.282 -1.50894 -0.605787 0
M  V30 6069 O 585.466 -1.79982 -0.56024 0
M  V30 6070 C 582.593 -3.3281 -0.628915 0
M  V30 6071 C 581.639 -4.26172 0.167278 0
M  V30 6072 S 582.472 -5.12797 1.54272 0
M  V30 6073 C 583.628 -6.22438 0.657427 0
M  V30 6074 H 583.861 -2.77478 1.0674 0
M  V30 6075 H 581.394 -1.39414 0.663555 0
M  V30 6076 H 583.352 -3.94426 -1.13747 0
M  V30 6077 H 582.013 -2.80782 -1.40785 0
M  V30 6078 H 581.206 -5.01392 -0.51203 0
M  V30 6079 H 580.808 -3.69029 0.607777 0
M  V30 6080 H 583.1 -6.77368 -0.133925 0
M  V30 6081 H 584.043 -6.9451 1.38061 0
M  V30 6082 H 584.451 -5.64043 0.227044 0
M  V30 6083 N 583.85 -0.624285 -1.44708 0
M  V30 6084 C 584.779 0.0717025 -2.3339 0
M  V30 6085 C 585.76 0.841814 -1.47809 0
M  V30 6086 O 586.946 0.809056 -1.76544 0
M  V30 6087 C 584.076 1.05852 -3.30776 0
M  V30 6088 C 583.029 0.400503 -4.26122 0
M  V30 6089 C 582.356 1.49674 -5.13324 0
M  V30 6090 C 583.656 -0.688924 -5.17737 0
M  V30 6091 H 585.35 -0.668819 -2.91834 0
M  V30 6092 H 582.896 -0.32308 -1.40329 0
M  V30 6093 H 584.849 1.5541 -3.91696 0
M  V30 6094 H 583.572 1.82984 -2.70526 0
M  V30 6095 H 582.231 -0.0743687 -3.66525 0
M  V30 6096 H 581.88 2.25877 -4.49431 0
M  V30 6097 H 581.58 1.06188 -5.77926 0
M  V30 6098 H 583.104 1.99427 -5.77115 0
M  V30 6099 H 584.518 -0.276724 -5.72632 0
M  V30 6100 H 582.915 -1.04652 -5.90904 0
M  V30 6101 H 583.985 -1.55884 -4.5916 0
M  V30 6102 N 585.328 1.53329 -0.364422 0
M  V30 6103 C 586.26 2.23286 0.517293 0
M  V30 6104 C 587.273 1.24657 1.04711 0
M  V30 6105 O 588.462 1.50887 0.95369 0
M  V30 6106 C 585.562 2.91604 1.72685 0
M  V30 6107 C 584.735 4.1673 1.32873 0
M  V30 6108 C 583.794 4.68269 2.40022 0
M  V30 6109 O 582.82 5.31976 2.02461 0
M  V30 6110 N 584.022 4.45983 3.7159 0
M  V30 6111 H 586.787 2.99588 -0.0819391 0
M  V30 6112 H 584.348 1.60787 -0.189544 0
M  V30 6113 H 586.34 3.22992 2.4384 0
M  V30 6114 H 584.91 2.18763 2.23297 0
M  V30 6115 H 584.13 3.91657 0.447069 0
M  V30 6116 H 585.418 4.98078 1.03902 0
M  V30 6117 H 584.816 3.95077 4.04883 0
M  V30 6118 H 583.373 4.81924 4.38854 0
M  V30 6119 N 586.806 0.0935595 1.57322 0
M  V30 6120 C 587.753 -0.865935 2.1394 0
M  V30 6121 C 588.723 -1.28083 1.05754 0
M  V30 6122 O 589.908 -1.36285 1.33533 0
M  V30 6123 C 587.048 -2.12023 2.72287 0
M  V30 6124 C 586.161 -1.756 3.94701 0
M  V30 6125 C 585.296 -2.95804 4.41218 0
M  V30 6126 C 584.335 -2.555 5.56225 0
M  V30 6127 N 583.472 -3.68534 5.97601 0
M  V30 6128 H 588.312 -0.376261 2.95615 0
M  V30 6129 H 585.849 -0.174052 1.46067 0
M  V30 6130 H 587.807 -2.85477 3.04235 0
M  V30 6131 H 586.437 -2.58492 1.93343 0
M  V30 6132 H 585.489 -0.921208 3.69077 0
M  V30 6133 H 586.801 -1.41964 4.78171 0
M  V30 6134 H 585.955 -3.77513 4.74941 0
M  V30 6135 H 584.694 -3.32649 3.56645 0
M  V30 6136 H 583.699 -1.72218 5.22131 0
M  V30 6137 H 584.924 -2.19801 6.42545 0
M  V30 6138 H 582.87 -4.051 5.15974 0
M  V30 6139 H 582.787 -3.38737 6.75865 0
M  V30 6140 H 584.055 -4.50757 6.35955 0
M  V30 6141 N 588.284 -1.56567 -0.180126 0
M  V30 6142 C 589.53 -1.81761 -0.899497 0
M  V30 6143 C 589.863 -0.670015 -1.82276 0
M  V30 6144 O 589.138 0.328575 -1.91705 0
M  V30 6145 C 589.421 -3.17296 -1.7028 0
M  V30 6146 C 589.274 -4.4257 -0.803255 0
M  V30 6147 C 590.593 -3.49678 -2.67233 0
M  V30 6148 H 587.712 -0.661192 -0.325567 0
M  V30 6149 H 590.354 -1.89272 -0.16612 0
M  V30 6150 H 588.504 -3.11023 -2.32802 0
M  V30 6151 H 590.176 -4.60902 -0.191585 0
M  V30 6152 H 588.419 -4.33658 -0.110796 0
M  V30 6153 H 589.09 -5.33935 -1.40064 0
M  V30 6154 H 591.566 -3.56347 -2.14839 0
M  V30 6155 H 590.442 -4.45605 -3.20511 0
M  V30 6156 H 590.703 -2.73932 -3.47007 0
M  V30 6157 N 589.762 0.448376 -1.51087 0
M  V30 6158 C 590.672 1.56882 -1.74428 0
M  V30 6159 C 591.688 1.62268 -0.62809 0
M  V30 6160 O 592.864 1.79716 -0.909075 0
M  V30 6161 C 589.929 2.92947 -1.85426 0
M  V30 6162 C 588.99 2.97766 -3.09247 0
M  V30 6163 C 588.223 4.27341 -3.19711 0
M  V30 6164 O 588.446 5.19112 -2.36387 0
M  V30 6165 O 587.38 4.38219 -4.12611 0
M  V30 6166 H 591.206 1.40104 -2.69452 0
M  V30 6167 H 588.791 0.630247 -1.35456 0
M  V30 6168 H 590.673 3.73719 -1.94709 0
M  V30 6169 H 589.348 3.09876 -0.935887 0
M  V30 6170 H 588.255 2.15989 -3.0545 0
M  V30 6171 H 589.588 2.8578 -4.00738 0
M  V30 6172 N 591.24 1.41047 0.703093 0
M  V30 6173 C 592.486 1.40207 1.46526 0
M  V30 6174 C 592.819 0.00847763 1.94198 0
M  V30 6175 O 592.094 -0.962437 1.69019 0
M  V30 6176 C 592.377 2.40238 2.6825 0
M  V30 6177 C 592.23 3.88674 2.26391 0
M  V30 6178 C 593.549 2.37627 3.70434 0
M  V30 6179 H 590.668 0.510594 0.531472 0
M  V30 6180 H 593.31 1.72271 0.801422 0
M  V30 6181 H 591.46 2.13026 3.24888 0
M  V30 6182 H 593.132 4.2676 1.75138 0
M  V30 6183 H 591.375 4.03903 1.58255 0
M  V30 6184 H 592.046 4.542 3.13698 0
M  V30 6185 H 594.522 2.61759 3.23452 0
M  V30 6186 H 593.398 3.09645 4.53223 0
M  V30 6187 H 593.659 1.39223 4.19606 0
M  V30 6188 N 592.718 -0.936591 1.26751 0
M  V30 6189 C 593.628 -2.06949 1.10496 0
M  V30 6190 C 594.644 -1.7396 0.037271 0
M  V30 6191 O 595.82 -1.99941 0.241944 0
M  V30 6192 C 592.885 -3.38612 0.744491 0
M  V30 6193 C 591.946 -3.85355 1.89209 0
M  V30 6194 C 591.179 -5.10735 1.54873 0
M  V30 6195 O 591.402 -5.68602 0.452546 0
M  V30 6196 O 590.336 -5.52632 2.38499 0
M  V30 6197 H 594.162 -2.23571 2.05547 0
M  V30 6198 H 591.747 -1.05428 1.05855 0
M  V30 6199 H 593.629 -4.17711 0.556396 0
M  V30 6200 H 592.304 -3.23218 -0.176582 0
M  V30 6201 H 591.211 -3.07182 2.13518 0
M  V30 6202 H 592.544 -4.05277 2.79305 0
M  V30 6203 N 594.196 -1.08629 -1.14182 0
M  V30 6204 C 595.426 -0.837673 -1.88856 0
M  V30 6205 C 595.834 0.614024 -1.78959 0
M  V30 6206 O 595.177 1.43384 -1.14833 0
M  V30 6207 C 595.239 -1.18355 -3.39459 0
M  V30 6208 C 594.903 -2.63848 -3.73139 0
M  V30 6209 C 595.9 -3.62099 -3.73069 0
M  V30 6210 C 593.585 -2.99761 -4.03049 0
M  V30 6211 C 595.579 -4.94292 -4.02435 0
M  V30 6212 C 593.266 -4.32147 -4.32078 0
M  V30 6213 C 594.264 -5.29223 -4.31755 0
M  V30 6214 O 593.952 -6.59229 -4.60079 0
M  V30 6215 H 593.684 -0.301609 -0.604986 0
M  V30 6216 H 596.238 -1.44961 -1.45518 0
M  V30 6217 H 594.468 -0.514628 -3.8326 0
M  V30 6218 H 596.157 -0.915391 -3.95443 0
M  V30 6219 H 596.923 -3.35698 -3.50046 0
M  V30 6220 H 592.802 -2.2484 -4.02453 0
M  V30 6221 H 596.346 -5.70055 -4.02098 0
M  V30 6222 H 592.243 -4.58296 -4.54571 0
M  V30 6223 H 593.011 -6.64578 -4.77785 0
M  V30 6224 N 595.674 1.31259 -0.872281 0
M  V30 6225 C 596.584 2.32221 -0.333255 0
M  V30 6226 C 597.6 1.6481 0.558013 0
M  V30 6227 O 598.776 1.96212 0.454175 0
M  V30 6228 C 595.841 3.43708 0.454479 0
M  V30 6229 C 594.902 4.26774 -0.465024 0
M  V30 6230 C 594.135 5.32937 0.28521 0
M  V30 6231 O 594.358 5.49968 1.513 0
M  V30 6232 O 593.292 6.00834 -0.358126 0
M  V30 6233 H 597.118 2.80252 -1.17016 0
M  V30 6234 H 594.703 1.352 -0.635724 0
M  V30 6235 H 596.585 4.11656 0.900963 0
M  V30 6236 H 595.26 2.97836 1.26789 0
M  V30 6237 H 594.167 3.61571 -0.960055 0
M  V30 6238 H 595.5 4.76217 -1.2441 0
M  V30 6239 N 597.152 0.631951 1.44375 0
M  V30 6240 C 598.38 0.143867 2.06399 0
M  V30 6241 C 598.795 -1.18188 1.47231 0
M  V30 6242 O 598.152 -1.72511 0.595498 0
M  V30 6243 C 598.203 0.0238253 3.61492 0
M  V30 6244 O 597.924 1.29715 4.18456 0
M  V30 6245 C 599.425 -0.492856 4.40552 0
M  V30 6246 H 596.645 0.0800542 0.666207 0
M  V30 6247 H 599.189 0.866586 1.85231 0
M  V30 6248 H 597.344 -0.649338 3.81919 0
M  V30 6249 H 597.758 1.14252 5.11905 0
M  V30 6250 H 599.232 -0.525861 5.49489 0
M  V30 6251 H 599.709 -1.52006 4.12057 0
M  V30 6252 H 600.315 0.147085 4.25046 0
M  V30 6253 N 598.631 -1.53133 0.372548 0
M  V30 6254 C 599.561 -2.28876 -0.462412 0
M  V30 6255 C 600.542 -1.31583 -1.07796 0
M  V30 6256 O 601.727 -1.60461 -1.09389 0
M  V30 6257 C 598.857 -3.08317 -1.59868 0
M  V30 6258 C 597.811 -4.13355 -1.11003 0
M  V30 6259 C 597.137 -4.8092 -2.33708 0
M  V30 6260 C 598.437 -5.21955 -0.18983 0
M  V30 6261 H 600.131 -2.9892 0.169511 0
M  V30 6262 H 597.677 -1.43761 0.0829658 0
M  V30 6263 H 599.63 -3.60055 -2.18949 0
M  V30 6264 H 598.354 -2.35976 -2.25794 0
M  V30 6265 H 597.013 -3.62573 -0.541869 0
M  V30 6266 H 596.661 -4.05144 -2.98106 0
M  V30 6267 H 596.361 -5.51904 -2.01682 0
M  V30 6268 H 597.885 -5.35455 -2.93462 0
M  V30 6269 H 599.299 -5.69153 -0.688319 0
M  V30 6270 H 597.696 -6.00087 0.0398887 0
M  V30 6271 H 598.766 -4.78811 0.766057 0
M  V30 6272 N 600.109 -0.101901 -1.5727 0
M  V30 6273 C 601.52 0.426173 -1.81771 0
M  V30 6274 C 601.871 1.67725 -1.01797 0
M  V30 6275 O 600.996 2.14958 -0.249386 0
M  V30 6276 C 601.591 0.779962 -3.297 0
M  V30 6277 C 600.15 1.25275 -3.54941 0
M  V30 6278 C 599.297 0.252814 -2.76145 0
M  V30 6279 H 602.248 -0.32726 -1.55289 0
M  V30 6280 H 602.269 1.63891 -3.43395 0
M  V30 6281 H 601.781 -0.130778 -3.8788 0
M  V30 6282 H 599.882 2.18097 -3.021 0
M  V30 6283 H 599.995 1.20988 -4.63572 0
M  V30 6284 H 598.359 0.736362 -2.43823 0
M  V30 6285 H 599.142 -0.650724 -3.37076 0
M  V30 6286 N 601.587 1.56661 0.17182 0
M  V30 6287 C 602.835 1.81606 0.886774 0
M  V30 6288 C 603.156 0.678818 1.82803 0
M  V30 6289 O 602.426 -0.301354 1.93568 0
M  V30 6290 H 601.006 0.669934 0.330451 0
M  V30 6291 H 603.668 1.94142 0.171757 0
M  V30 6292 H 602.764 2.75634 1.46398 0
M  V30 6293 N 603.065 -0.440357 1.51323 0
M  V30 6294 C 604.311 -1.18874 1.65047 0
M  V30 6295 C 604.666 -1.88988 0.360742 0
M  V30 6296 O 603.959 -1.80479 -0.643272 0
M  V30 6297 C 604.153 -2.2339 2.78984 0
M  V30 6298 C 603.982 -1.63534 4.18911 0
M  V30 6299 C 602.752 -1.42158 4.84891 0
M  V30 6300 C 604.95 -1.11324 5.02107 0
M  V30 6301 N 602.932 -0.778679 6.08942 0
M  V30 6302 C 604.303 -0.595421 6.17134 0
M  V30 6303 C 606.358 -1.00471 4.87658 0
M  V30 6304 C 605.061 0.0202557 7.19297 0
M  V30 6305 C 607.087 -0.402928 5.90026 0
M  V30 6306 C 606.449 0.10436 7.04323 0
M  V30 6307 H 602.548 -0.422771 0.657866 0
M  V30 6308 H 605.132 -0.485814 1.88542 0
M  V30 6309 H 603.303 -2.91074 2.57158 0
M  V30 6310 H 605.035 -2.90366 2.81904 0
M  V30 6311 H 601.79 -1.68247 4.42707 0
M  V30 6312 H 602.214 -0.474755 6.75333 0
M  V30 6313 H 606.856 -1.38278 3.99548 0
M  V30 6314 H 604.574 0.410468 8.07057 0
M  V30 6315 H 608.16 -0.320897 5.80914 0
M  V30 6316 H 607.04 0.562697 7.82179 0
M  V30 6317 N 604.543 -1.41418 -0.695603 0
M  V30 6318 C 605.49 -1.43264 -1.80954 0
M  V30 6319 C 606.46 -0.287016 -1.63601 0
M  V30 6320 O 607.645 -0.488054 -1.84452 0
M  V30 6321 C 604.785 -1.32054 -3.18835 0
M  V30 6322 C 603.898 -2.56485 -3.4762 0
M  V30 6323 C 603.033 -2.3757 -4.75115 0
M  V30 6324 C 602.072 -3.57477 -4.96867 0
M  V30 6325 N 601.209 -3.37632 -6.15588 0
M  V30 6326 H 606.049 -2.38467 -1.78711 0
M  V30 6327 H 603.586 -1.18415 -0.872715 0
M  V30 6328 H 605.544 -1.23558 -3.98484 0
M  V30 6329 H 604.174 -0.404592 -3.20254 0
M  V30 6330 H 603.226 -2.75432 -2.62376 0
M  V30 6331 H 604.538 -3.45678 -3.59594 0
M  V30 6332 H 603.692 -2.2654 -5.62818 0
M  V30 6333 H 602.431 -1.45834 -4.65386 0
M  V30 6334 H 601.436 -3.68961 -4.07612 0
M  V30 6335 H 602.661 -4.50167 -5.08455 0
M  V30 6336 H 600.607 -2.48596 -6.07072 0
M  V30 6337 H 600.524 -4.20401 -6.2833 0
M  V30 6338 H 601.792 -3.30375 -7.06026 0
M  V30 6339 N 606.021 0.929856 -1.27246 0
M  V30 6340 C 606.984 2.01172 -1.09829 0
M  V30 6341 C 607.984 1.60743 -0.0429687 0
M  V30 6342 O 609.174 1.71813 -0.287373 0
M  V30 6343 C 606.306 3.34191 -0.673003 0
M  V30 6344 H 607.499 2.18054 -2.05895 0
M  V30 6345 H 605.052 1.11036 -1.10003 0
M  V30 6346 H 605.787 3.23009 0.289134 0
M  V30 6347 H 605.572 3.64892 -1.43515 0
M  V30 6348 H 607.062 4.13646 -0.573323 0
M  V30 6349 N 607.499 1.09233 1.13605 0
M  V30 6350 C 608.776 0.739633 1.81077 0
M  V30 6351 C 609.156 -0.775595 1.96336 0
M  V30 6352 O 608.504 -1.69726 1.52988 0
M  V30 6353 C 608.714 1.47636 3.16235 0
M  V30 6354 C 610.062 1.64087 3.91613 0
M  V30 6355 O 611.086 1.43871 3.25852 0
M  V30 6356 O 609.945 1.97511 5.0956 0
M  V30 6357 H 607.039 0.265464 0.783236 0
M  V30 6358 H 609.585 1.19441 1.20549 0
M  V30 6359 H 608.357 2.50818 3.00344 0
M  V30 6360 H 607.98 1.01362 3.84462 0
M  V30 6361 N 608.977 -1.30795 0.87923 0
M  V30 6362 C 610.205 -2.00527 0.509548 0
M  V30 6363 C 610.62 -1.65944 -0.90045 0
M  V30 6364 O 609.977 -0.893525 -1.5913 0
M  V30 6365 C 610.028 -3.55276 0.667943 0
M  V30 6366 O 609.749 -3.88625 2.02242 0
M  V30 6367 C 611.25 -4.4228 0.300494 0
M  V30 6368 H 608.47 -0.641261 0.197549 0
M  V30 6369 H 611.014 -1.66813 1.18295 0
M  V30 6370 H 609.169 -3.87377 0.0419843 0
M  V30 6371 H 609.583 -4.83334 2.03688 0
M  V30 6372 H 611.057 -5.50061 0.462242 0
M  V30 6373 H 611.534 -4.32556 -0.76106 0
M  V30 6374 H 612.14 -4.15613 0.902536 0
M  V30 6375 N 610.455 -0.639598 -1.44038 0
M  V30 6376 C 611.683 -0.154811 -2.0632 0
M  V30 6377 C 612.098 1.17406 -1.47856 0
M  V30 6378 O 611.455 1.72193 -0.604638 0
M  V30 6379 C 611.506 -0.0429958 -3.61474 0
M  V30 6380 O 611.227 -1.31932 -4.17763 0
M  V30 6381 C 612.728 0.469486 -4.40807 0
M  V30 6382 H 609.948 -0.0835862 -0.665773 0
M  V30 6383 H 612.492 -0.876397 -1.84769 0
M  V30 6384 H 610.647 0.629075 -3.82258 0
M  V30 6385 H 611.061 -1.16965 -5.11292 0
M  V30 6386 H 612.535 0.496712 -5.49761 0
M  V30 6387 H 613.012 1.49819 -4.12857 0
M  V30 6388 H 613.618 -0.169624 -4.24962 0
M  V30 6389 N 611.933 1.52934 -0.380664 0
M  V30 6390 C 613.181 2.01069 0.203874 0
M  V30 6391 C 613.502 1.26922 1.4804 0
M  V30 6392 O 612.772 0.386787 1.92044 0
M  V30 6393 H 611.352 0.742882 0.0783279 0
M  V30 6394 H 614.014 1.88099 -0.510368 0
M  V30 6395 H 613.11 3.09258 0.42021 0
M  V30 6396 N 613.412 0.11024 1.57214 0
M  V30 6397 C 614.375 -0.828808 2.1369 0
M  V30 6398 C 615.375 -1.20059 1.06969 0
M  V30 6399 O 616.565 -1.12754 1.32786 0
M  V30 6400 C 613.697 -2.11959 2.66994 0
M  V30 6401 H 614.89 -0.338146 2.97988 0
M  V30 6402 H 612.443 -0.138913 1.55681 0
M  V30 6403 H 613.178 -2.65476 1.8626 0
M  V30 6404 H 612.963 -1.86258 3.45037 0
M  V30 6405 H 614.453 -2.79105 3.10629 0
M  V30 6406 N 614.89 -1.56749 -0.16351 0
M  V30 6407 C 616.306 -1.51043 -0.515567 0
M  V30 6408 C 616.506 -0.815855 -1.84245 0
M  V30 6409 O 615.562 -0.379477 -2.49632 0
M  V30 6410 C 616.875 -2.95791 -0.541114 0
M  V30 6411 C 618.423 -3.0664 -0.627776 0
M  V30 6412 C 618.898 -4.52861 -0.684141 0
M  V30 6413 N 620.389 -4.5714 -0.746818 0
M  V30 6414 C 621.124 -5.67634 -0.811137 0
M  V30 6415 N 620.62 -6.8774 -0.835811 0
M  V30 6416 N 622.413 -5.55624 -0.850756 0
M  V30 6417 H 614.564 -2.00307 0.70645 0
M  V30 6418 H 616.827 -0.912876 0.255659 0
M  V30 6419 H 616.533 -3.49797 0.365329 0
M  V30 6420 H 616.407 -3.50858 -1.38487 0
M  V30 6421 H 618.794 -2.52663 -1.52464 0
M  V30 6422 H 618.875 -2.54645 0.242805 0
M  V30 6423 H 618.519 -5.07472 0.2085 0
M  V30 6424 H 618.449 -5.02621 -1.57098 0
M  V30 6425 H 620.94 -3.70669 -0.735717 0
M  V30 6426 H 621.253 -7.67701 -0.886279 0
M  V30 6427 H 619.598 -6.90334 -0.803958 0
M  V30 6428 H 622.789 -4.60709 -0.828535 0
M  V30 6429 H 622.962 -6.41756 -0.897418 0
M  V30 6430 N 616.368 0.432326 -1.51554 0
M  V30 6431 C 617.784 0.769195 -1.39841 0
M  V30 6432 C 617.984 1.95584 -0.484675 0
M  V30 6433 O 617.04 2.52433 0.0582829 0
M  V30 6434 C 618.353 1.04487 -2.81963 0
M  V30 6435 C 619.901 1.149 -2.91148 0
M  V30 6436 C 620.376 1.45758 -4.34187 0
M  V30 6437 N 621.867 1.52671 -4.37317 0
M  V30 6438 C 622.602 1.78129 -5.4503 0
M  V30 6439 N 622.098 2.01345 -6.62897 0
M  V30 6440 N 623.891 1.79953 -5.32516 0
M  V30 6441 H 616.042 -0.349122 -2.09511 0
M  V30 6442 H 618.305 -0.0938113 -0.943347 0
M  V30 6443 H 618.011 0.24557 -3.50842 0
M  V30 6444 H 617.885 1.97119 -3.21596 0
M  V30 6445 H 620.272 1.93891 -2.22464 0
M  V30 6446 H 620.353 0.201568 -2.55005 0
M  V30 6447 H 619.997 0.672917 -5.03423 0
M  V30 6448 H 619.927 2.41715 -4.67848 0
M  V30 6449 H 622.418 1.36612 -3.52343 0
M  V30 6450 H 622.731 2.20155 -7.40778 0
M  V30 6451 H 621.076 1.98657 -6.66003 0
M  V30 6452 H 624.267 1.61337 -4.39418 0
M  V30 6453 H 624.44 1.99455 -6.1654 0
M  V30 6454 N 617.846 1.41785 0.688094 0
M  V30 6455 C 619.092 1.42753 1.4489 0
M  V30 6456 C 619.447 0.0384235 1.92362 0
M  V30 6457 O 618.74 -0.937066 1.67122 0
M  V30 6458 C 618.934 2.37532 2.67046 0
M  V30 6459 C 618.763 3.85521 2.31525 0
M  V30 6460 C 617.533 4.54152 2.21527 0
M  V30 6461 C 619.731 4.76299 1.94019 0
M  V30 6462 N 617.713 5.87233 1.78969 0
M  V30 6463 C 619.084 5.98386 1.62279 0
M  V30 6464 C 621.139 4.63877 1.80895 0
M  V30 6465 C 619.842 7.09433 1.18732 0
M  V30 6466 C 621.868 5.74893 1.38752 0
M  V30 6467 C 621.23 6.96083 1.07927 0
M  V30 6468 H 617.329 0.577575 0.527192 0
M  V30 6469 H 619.913 1.77713 0.795375 0
M  V30 6470 H 618.084 2.04656 3.30107 0
M  V30 6471 H 619.816 2.29169 3.33562 0
M  V30 6472 H 616.571 4.08188 2.40166 0
M  V30 6473 H 616.995 6.57785 1.60151 0
M  V30 6474 H 621.637 3.70671 2.03378 0
M  V30 6475 H 619.355 8.02497 0.949937 0
M  V30 6476 H 622.941 5.67287 1.29136 0
M  V30 6477 H 621.821 7.80527 0.758111 0
M  V30 6478 N 619.324 -0.923095 1.27737 0
M  V30 6479 C 620.234 -2.05765 1.12685 0
M  V30 6480 C 621.25 -1.73911 0.0557197 0
M  V30 6481 O 622.426 -1.99674 0.263137 0
M  V30 6482 C 619.491 -3.37804 0.780363 0
M  V30 6483 C 618.552 -3.83326 1.93286 0
M  V30 6484 C 617.785 -5.09064 1.60281 0
M  V30 6485 O 618.008 -5.6809 0.512828 0
M  V30 6486 O 616.942 -5.50071 2.44347 0
M  V30 6487 H 620.768 -2.21378 2.07907 0
M  V30 6488 H 618.353 -1.04299 1.06968 0
M  V30 6489 H 620.235 -4.17097 0.600668 0
M  V30 6490 H 618.91 -3.23387 -0.142291 0
M  V30 6491 H 617.817 -3.049 2.16764 0
M  V30 6492 H 619.15 -4.02292 2.83588 0
M  V30 6493 N 620.802 -1.09834 -1.13024 0
M  V30 6494 C 622.079 -0.749225 -1.80682 0
M  V30 6495 C 622.459 0.765171 -1.96744 0
M  V30 6496 O 621.807 1.68912 -1.53886 0
M  V30 6497 C 622.017 -1.49311 -3.15448 0
M  V30 6498 C 623.365 -1.66162 -3.90737 0
M  V30 6499 O 624.389 -1.45597 -3.25085 0
M  V30 6500 O 623.248 -2.00211 -5.08505 0
M  V30 6501 H 620.342 -0.269614 -0.781817 0
M  V30 6502 H 622.888 -1.20078 -1.19914 0
M  V30 6503 H 621.66 -2.52407 -2.99009 0
M  V30 6504 H 621.283 -1.034 -3.8392 0
M  V30 6505 N 622.28 1.30327 -0.886154 0
M  V30 6506 C 623.21 2.30549 -0.370028 0
M  V30 6507 C 624.191 1.61039 0.547751 0
M  V30 6508 O 625.376 1.8864 0.461353 0
M  V30 6509 C 622.506 3.44808 0.415275 0
M  V30 6510 C 621.46 4.26024 -0.41085 0
M  V30 6511 C 620.786 5.32347 0.501128 0
M  V30 6512 C 622.086 4.95433 -1.65359 0
M  V30 6513 H 623.78 2.73969 -1.20754 0
M  V30 6514 H 621.326 1.3171 -0.582097 0
M  V30 6515 H 623.279 4.13986 0.78699 0
M  V30 6516 H 622.003 3.00197 1.28644 0
M  V30 6517 H 620.662 3.58535 -0.764719 0
M  V30 6518 H 620.31 4.83982 1.37004 0
M  V30 6519 H 620.01 5.87581 -0.0478356 0
M  V30 6520 H 621.534 6.0438 0.869333 0
M  V30 6521 H 622.948 5.5712 -1.35239 0
M  V30 6522 H 621.345 5.60537 -2.14284 0
M  V30 6523 H 622.415 4.21493 -2.39733 0
M  V30 6524 N 623.758 0.647228 1.43697 0
M  V30 6525 C 625.169 0.238689 1.85168 0
M  V30 6526 C 625.52 -1.21345 1.54175 0
M  V30 6527 O 624.645 -1.92542 0.987743 0
M  V30 6528 C 625.24 0.426422 3.36106 0
M  V30 6529 C 623.799 0.0722541 3.76331 0
M  V30 6530 C 622.946 0.732153 2.6746 0
M  V30 6531 H 625.897 0.851309 1.33934 0
M  V30 6532 H 625.918 -0.32987 3.79067 0
M  V30 6533 H 625.43 1.48339 3.58632 0
M  V30 6534 H 623.531 -0.982355 3.59417 0
M  V30 6535 H 623.644 0.493541 4.76551 0
M  V30 6536 H 622.008 0.16594 2.54159 0
M  V30 6537 H 622.791 1.79204 2.92816 0
M  V30 6538 N 625.236 -1.5273 0.388769 0
M  V30 6539 C 626.647 -1.86505 -0.0853788 0
M  V30 6540 C 626.998 -1.30847 -1.46197 0
M  V30 6541 O 626.123 -0.639609 -2.06732 0
M  V30 6542 C 626.718 -3.38414 -0.161703 0
M  V30 6543 C 625.277 -3.71902 -0.580144 0
M  V30 6544 C 624.424 -2.76095 0.258218 0
M  V30 6545 H 627.375 -1.46647 0.606665 0
M  V30 6546 H 627.396 -3.67638 -0.980936 0
M  V30 6547 H 626.908 -3.78893 0.840333 0
M  V30 6548 H 625.009 -3.36992 -1.58957 0
M  V30 6549 H 625.122 -4.77902 -0.338663 0
M  V30 6550 H 623.486 -2.53195 -0.276432 0
M  V30 6551 H 624.269 -3.19411 1.25822 0
M  V30 6552 N 626.714 -0.118576 -1.57153 0
M  V30 6553 C 627.646 0.862247 -2.12363 0
M  V30 6554 C 628.659 1.23025 -1.06625 0
M  V30 6555 O 629.848 1.17927 -1.33998 0
M  V30 6556 C 626.948 2.16425 -2.60794 0
M  V30 6557 C 626.121 1.96801 -3.90626 0
M  V30 6558 C 625.18 3.10726 -4.2466 0
M  V30 6559 O 624.206 2.83659 -4.93484 0
M  V30 6560 N 625.408 4.37147 -3.81946 0
M  V30 6561 H 628.173 0.390564 -2.97144 0
M  V30 6562 H 625.734 0.0658591 -1.61766 0
M  V30 6563 H 627.726 2.91633 -2.80593 0
M  V30 6564 H 626.296 2.54943 -1.80895 0
M  V30 6565 H 625.516 1.05787 -3.7974 0
M  V30 6566 H 626.804 1.80993 -4.7552 0
M  V30 6567 H 626.202 4.62014 -3.26435 0
M  V30 6568 H 624.759 5.09229 -4.06853 0
M  V30 6569 N 628.193 1.56834 0.155195 0
M  V30 6570 C 629.156 1.96748 1.17571 0
M  V30 6571 C 630.156 0.853006 1.3631 0
M  V30 6572 O 631.346 1.11978 1.33441 0
M  V30 6573 C 628.478 2.27631 2.53765 0
M  V30 6574 H 629.671 2.88085 0.833498 0
M  V30 6575 H 627.224 1.51141 0.398242 0
M  V30 6576 H 627.959 1.39059 2.92973 0
M  V30 6577 H 627.744 3.0888 2.41527 0
M  V30 6578 H 629.234 2.59377 3.27282 0
M  V30 6579 N 629.671 -0.424282 1.51781 0
M  V30 6580 C 630.603 -1.53457 1.70246 0
M  V30 6581 C 631.616 -1.52004 0.582967 0
M  V30 6582 O 632.805 -1.56544 0.857683 0
M  V30 6583 C 629.905 -2.92368 1.71389 0
M  V30 6584 C 629.078 -3.1818 3.00133 0
M  V30 6585 C 628.137 -4.36884 2.9329 0
M  V30 6586 O 627.163 -4.34901 3.67219 0
M  V30 6587 N 628.365 -5.4117 2.10036 0
M  V30 6588 H 631.13 -1.38017 2.66029 0
M  V30 6589 H 628.691 -0.613394 1.4983 0
M  V30 6590 H 630.683 -3.6982 1.64362 0
M  V30 6591 H 629.253 -3.0134 0.831449 0
M  V30 6592 H 628.473 -2.28908 3.20928 0
M  V30 6593 H 629.761 -3.32261 3.85331 0
M  V30 6594 H 629.159 -5.45623 1.49373 0
M  V30 6595 H 627.716 -6.17425 2.08878 0
M  V30 6596 N 631.149 -1.42148 -0.680565 0
M  V30 6597 C 632.097 -1.45401 -1.81552 0
M  V30 6598 C 633.091 -0.33036 -1.66147 0
M  V30 6599 O 634.297 -0.503103 -1.72826 0
M  V30 6600 H 630.672 -0.455265 -0.59853 0
M  V30 6601 H 632.643 -2.41024 -1.75926 0
M  V30 6602 C 631.392 -1.36769 -3.19671 0
M  V30 6603 H 630.715 -2.22525 -3.32149 0
M  V30 6604 H 632.155 -1.43106 -3.9912 0
M  V30 6605 C 630.614 -0.0817752 -3.36801 0
M  V30 6606 O 631.144 0.867707 -3.92216 0
M  V30 6607 N 629.35 -0.000799811 -2.906 0
M  V30 6608 H 628.897 -0.774231 -2.4569 0
M  V30 6609 H 628.855 0.858961 -3.02439 0
M  V30 6610 N 632.627 0.916307 -1.28225 0
M  V30 6611 C 633.857 1.69654 -1.17902 0
M  V30 6612 C 634.265 1.87331 0.265268 0
M  V30 6613 O 633.608 1.39828 1.19137 0
M  V30 6614 C 633.67 3.11024 -1.80289 0
M  V30 6615 C 633.334 3.16643 -3.29525 0
M  V30 6616 C 634.331 2.98032 -4.25997 0
M  V30 6617 C 632.016 3.39238 -3.70436 0
M  V30 6618 C 634.01 3.01924 -5.61356 0
M  V30 6619 C 631.697 3.42762 -5.05922 0
M  V30 6620 C 632.695 3.24125 -6.01192 0
M  V30 6621 O 632.383 3.27406 -7.34208 0
M  V30 6622 H 632.115 0.537197 -0.41036 0
M  V30 6623 H 634.669 1.15547 -1.69817 0
M  V30 6624 H 632.899 3.66662 -1.22865 0
M  V30 6625 H 634.588 3.71063 -1.6452 0
M  V30 6626 H 635.354 2.80405 -3.95725 0
M  V30 6627 H 631.233 3.52791 -2.96749 0
M  V30 6628 H 634.777 2.87295 -6.35694 0
M  V30 6629 H 630.674 3.59916 -5.35846 0
M  V30 6630 H 631.442 3.43784 -7.42802 0
M  V30 6631 N 634.105 1.10431 1.1244 0
M  V30 6632 C 635.354 0.841539 1.83306 0
M  V30 6633 C 635.667 -0.634961 1.85007 0
M  V30 6634 O 636.873 -1.01363 2.51869 0
M  V30 6635 C 635.329 1.45565 3.29149 0
M  V30 6636 C 634.937 2.96544 3.35806 0
M  V30 6637 C 636.681 1.27227 4.04986 0
M  V30 6638 C 634.588 3.5099 4.75983 0
M  V30 6639 H 633.518 0.311156 0.686803 0
M  V30 6640 H 636.169 1.32829 1.26604 0
M  V30 6641 H 634.551 0.896574 3.85717 0
M  V30 6642 H 635.725 3.58766 2.89177 0
M  V30 6643 H 634.04 3.14036 2.73442 0
M  V30 6644 H 636.637 1.65348 5.08492 0
M  V30 6645 H 636.98 0.213834 4.1575 0
M  V30 6646 H 637.513 1.79941 3.54776 0
M  V30 6647 H 634.252 4.56499 4.70413 0
M  V30 6648 H 633.772 2.93535 5.23065 0
M  V30 6649 H 635.451 3.48808 5.44924 0
M  V30 6650 N 635.583 -1.29855 0.893053 0
M  V30 6651 C 636.999 -1.48366 0.588199 0
M  V30 6652 C 637.199 -1.81654 -0.872018 0
M  V30 6653 O 636.255 -1.909 -1.65268 0
M  V30 6654 C 637.568 -2.60136 1.5083 0
M  V30 6655 C 639.116 -2.74014 1.51279 0
M  V30 6656 C 639.591 -3.88905 2.41902 0
M  V30 6657 N 641.082 -3.96228 2.39911 0
M  V30 6658 C 641.817 -4.84458 3.06738 0
M  V30 6659 N 641.313 -5.77426 3.8282 0
M  V30 6660 N 643.106 -4.77894 2.95929 0
M  V30 6661 H 635.257 -1.06522 1.83757 0
M  V30 6662 H 637.52 -0.528495 0.787018 0
M  V30 6663 H 637.226 -2.42383 2.54839 0
M  V30 6664 H 637.1 -3.56793 1.22388 0
M  V30 6665 H 639.487 -2.91167 0.480179 0
M  V30 6666 H 639.568 -1.77952 1.83757 0
M  V30 6667 H 639.212 -3.72508 3.45253 0
M  V30 6668 H 639.142 -4.84322 2.06737 0
M  V30 6669 H 641.633 -3.29728 1.84629 0
M  V30 6670 H 641.946 -6.41529 4.30883 0
M  V30 6671 H 640.291 -5.77332 3.86927 0
M  V30 6672 H 643.482 -4.04248 2.36012 0
M  V30 6673 H 643.655 -5.46444 3.48286 0
M  V30 6674 N 637.061 -0.65484 -1.43351 0
M  V30 6675 C 638.308 -0.168892 -2.01794 0
M  V30 6676 C 638.636 1.2177 -1.51665 0
M  V30 6677 O 637.891 1.82717 -0.70092 0
M  V30 6678 C 638.19 -0.130424 -3.57162 0
M  V30 6679 C 637.856 -1.45898 -4.26643 0
M  V30 6680 C 636.518 -1.82279 -4.4534 0
M  V30 6681 C 638.87 -2.33485 -4.65976 0
M  V30 6682 C 636.198 -3.0591 -5.00635 0
M  V30 6683 C 638.55 -3.5641 -5.22642 0
M  V30 6684 C 637.214 -3.92985 -5.39555 0
M  V30 6685 H 636.484 -0.061802 -0.738418 0
M  V30 6686 H 639.131 -0.845869 -1.71806 0
M  V30 6687 H 637.436 0.630008 -3.86702 0
M  V30 6688 H 639.133 0.262465 -4.0014 0
M  V30 6689 H 635.723 -1.16591 -4.12437 0
M  V30 6690 H 639.907 -2.06668 -4.51223 0
M  V30 6691 H 635.163 -3.34295 -5.11915 0
M  V30 6692 H 639.337 -4.24495 -5.52066 0
M  V30 6693 H 636.964 -4.88862 -5.82167 0
M  V30 6694 N 638.539 1.52521 -0.396863 0
M  V30 6695 C 639.785 2.01971 0.183169 0
M  V30 6696 C 640.118 1.2825 1.45827 0
M  V30 6697 O 639.393 0.385179 1.90648 0
M  V30 6698 C 639.676 3.5736 0.443391 0
M  V30 6699 C 639.529 4.41743 -0.84753 0
M  V30 6700 C 640.848 4.22539 1.2308 0
M  V30 6701 H 637.967 0.734119 0.0650976 0
M  V30 6702 H 640.609 1.82519 -0.527918 0
M  V30 6703 H 638.759 3.74066 1.04914 0
M  V30 6704 H 640.431 4.36773 -1.48414 0
M  V30 6705 H 638.674 4.0845 -1.4612 0
M  V30 6706 H 639.345 5.48507 -0.620003 0
M  V30 6707 H 641.821 4.09857 0.718084 0
M  V30 6708 H 640.697 5.31227 1.38162 0
M  V30 6709 H 640.958 3.80675 2.24808 0
M  V30 6710 N 640.017 0.126909 1.57088 0
M  V30 6711 C 640.927 -0.833867 2.1928 0
M  V30 6712 C 641.943 -1.2868 1.17122 0
M  V30 6713 O 643.119 -1.34815 1.49622 0
M  V30 6714 C 640.184 -2.0632 2.78627 0
M  V30 6715 C 639.245 -1.66143 3.95847 0
M  V30 6716 C 638.478 -2.83217 4.52354 0
M  V30 6717 O 638.701 -3.98868 4.0775 0
M  V30 6718 O 637.635 -2.59846 5.42922 0
M  V30 6719 H 641.461 -0.334564 3.01852 0
M  V30 6720 H 639.046 -0.0991091 1.49071 0
M  V30 6721 H 640.928 -2.78304 3.16425 0
M  V30 6722 H 639.603 -2.55242 1.99082 0
M  V30 6723 H 638.51 -0.912435 3.62802 0
M  V30 6724 H 639.843 -1.21957 4.76852 0
M  V30 6725 N 641.495 -1.56914 -0.146875 0
M  V30 6726 C 642.443 -1.99224 -1.20053 0
M  V30 6727 C 643.437 -0.884661 -1.44465 0
M  V30 6728 O 644.643 -1.06984 -1.44756 0
M  V30 6729 H 641.018 -0.634191 -0.404112 0
M  V30 6730 H 642.989 -2.86998 -0.816987 0
M  V30 6731 C 641.738 -2.38899 -2.52632 0
M  V30 6732 H 641.061 -3.23677 -2.34677 0
M  V30 6733 H 642.501 -2.72326 -3.24984 0
M  V30 6734 C 640.96 -1.2417 -3.13183 0
M  V30 6735 O 641.49 -0.542503 -3.9802 0
M  V30 6736 N 639.696 -1.00592 -2.72635 0
M  V30 6737 H 639.243 -1.57627 -2.03744 0
M  V30 6738 H 639.201 -0.240174 -3.13481 0
M  V30 6739 N 642.974 0.416227 -1.52004 0
M  V30 6740 C 643.924 1.50558 -1.7122 0
M  V30 6741 C 644.908 1.50613 -0.56609 0
M  V30 6742 O 646.1 1.56709 -0.822874 0
M  V30 6743 C 643.229 2.88556 -1.85984 0
M  V30 6744 C 642.315 2.93177 -3.06445 0
M  V30 6745 N 642.706 2.67505 -4.29272 0
M  V30 6746 C 641.004 3.24343 -3.06133 0
M  V30 6747 C 641.705 2.78511 -5.10692 0
M  V30 6748 N 640.681 3.11087 -4.45787 0
M  V30 6749 H 644.483 1.29494 -2.63834 0
M  V30 6750 H 641.997 0.62384 -1.4994 0
M  V30 6751 H 643.994 3.66954 -1.97865 0
M  V30 6752 H 642.654 3.10624 -0.945654 0
M  V30 6753 H 643.665 2.42033 -4.57865 0
M  V30 6754 H 640.342 3.52051 -2.24425 0
M  V30 6755 H 641.732 2.62438 -6.18527 0
M  V30 6756 N 644.452 1.42507 0.673017 0
M  V30 6757 C 645.698 1.43284 1.43519 0
M  V30 6758 C 646.031 0.049668 1.94136 0
M  V30 6759 O 645.306 -0.926369 1.71022 0
M  V30 6760 C 645.589 2.45874 2.63093 0
M  V30 6761 C 645.442 3.93388 2.18096 0
M  V30 6762 C 646.761 2.45431 3.6531 0
M  V30 6763 H 643.88 0.521752 0.520522 0
M  V30 6764 H 646.522 1.73932 0.764701 0
M  V30 6765 H 644.672 2.19869 3.20296 0
M  V30 6766 H 646.344 4.30379 1.66046 0
M  V30 6767 H 644.587 4.07169 1.49652 0
M  V30 6768 H 645.258 4.60752 3.03993 0
M  V30 6769 H 647.734 2.68561 3.17827 0
M  V30 6770 H 646.61 3.19189 4.46553 0
M  V30 6771 H 646.871 1.48092 4.16559 0
M  V30 6772 N 645.93 -0.909495 1.28709 0
M  V30 6773 C 647.178 -1.65577 1.15882 0
M  V30 6774 C 647.499 -1.928 -0.292108 0
M  V30 6775 O 646.769 -1.54716 -1.20166 0
M  V30 6776 H 645.349 -0.613714 0.425869 0
M  V30 6777 H 648.011 -1.09108 1.61498 0
M  V30 6778 H 647.107 -2.61634 1.70159 0
M  V30 6779 N 647.408 -1.11026 -1.11852 0
M  V30 6780 C 648.654 -0.857729 -1.83768 0
M  V30 6781 C 648.987 0.615143 -1.842 0
M  V30 6782 O 648.262 1.45391 -1.29196 0
M  V30 6783 C 648.545 -1.41453 -3.31154 0
M  V30 6784 C 648.398 -2.95471 -3.39142 0
M  V30 6785 C 649.717 -1.0619 -4.27097 0
M  V30 6786 H 646.836 -0.313044 -0.667212 0
M  V30 6787 H 649.478 -1.37443 -1.31185 0
M  V30 6788 H 647.628 -0.975052 -3.76065 0
M  V30 6789 H 649.3 -3.4799 -3.02821 0
M  V30 6790 H 647.543 -3.31759 -2.79497 0
M  V30 6791 H 648.214 -3.29515 -4.42859 0
M  V30 6792 H 650.69 -1.44122 -3.90344 0
M  V30 6793 H 649.566 -1.47832 -5.28618 0
M  V30 6794 H 649.827 0.0278912 -4.42091 0
M  V30 6795 N 648.886 1.2938 -0.899927 0
M  V30 6796 C 649.849 2.25983 -0.382677 0
M  V30 6797 C 650.849 1.53366 0.483259 0
M  V30 6798 O 652.039 1.71798 0.28828 0
M  V30 6799 C 649.171 3.37878 0.452915 0
M  V30 6800 H 650.364 2.73252 -1.23586 0
M  V30 6801 H 647.917 1.40825 -0.678088 0
M  V30 6802 H 648.652 2.95949 1.32608 0
M  V30 6803 H 648.437 3.91742 -0.167562 0
M  V30 6804 H 649.927 4.09746 0.806107 0
M  V30 6805 N 650.364 0.662433 1.43002 0
M  V30 6806 C 651.61 0.179857 2.02001 0
M  V30 6807 C 651.943 -1.20625 1.52195 0
M  V30 6808 O 651.218 -1.80726 0.718911 0
M  V30 6809 C 651.501 0.200845 3.59539 0
M  V30 6810 C 651.354 1.62153 4.19555 0
M  V30 6811 C 652.673 -0.457738 4.37713 0
M  V30 6812 H 649.792 0.0668305 0.733964 0
M  V30 6813 H 652.434 0.84487 1.70182 0
M  V30 6814 H 650.584 -0.365411 3.86778 0
M  V30 6815 H 652.256 2.23908 4.03315 0
M  V30 6816 H 650.499 2.16601 3.75854 0
M  V30 6817 H 651.17 1.58799 5.28665 0
M  V30 6818 H 653.646 0.0241495 4.16093 0
M  V30 6819 H 652.522 -0.412363 5.47349 0
M  V30 6820 H 652.783 -1.53336 4.14657 0
M  V30 6821 N 651.842 -1.52309 0.404946 0
M  V30 6822 C 652.789 -2.26898 -0.422597 0
M  V30 6823 C 653.759 -1.2914 -1.04461 0
M  V30 6824 O 654.944 -1.57996 -1.06967 0
M  V30 6825 C 652.084 -3.09053 -1.53559 0
M  V30 6826 C 651.197 -4.21762 -0.934908 0
M  V30 6827 C 650.332 -4.91283 -2.02025 0
M  V30 6828 C 649.371 -5.95962 -1.39628 0
M  V30 6829 N 648.508 -6.59017 -2.42159 0
M  V30 6830 H 653.348 -2.97188 0.219903 0
M  V30 6831 H 650.885 -1.46607 0.120282 0
M  V30 6832 H 652.843 -3.54987 -2.19181 0
M  V30 6833 H 651.473 -2.40942 -2.14818 0
M  V30 6834 H 650.525 -3.80029 -0.167854 0
M  V30 6835 H 651.837 -4.96864 -0.439073 0
M  V30 6836 H 650.991 -5.40601 -2.75383 0
M  V30 6837 H 649.73 -4.15741 -2.54973 0
M  V30 6838 H 648.735 -5.45968 -0.648023 0
M  V30 6839 H 649.96 -6.73445 -0.874553 0
M  V30 6840 H 647.906 -5.86306 -2.94247 0
M  V30 6841 H 647.823 -7.2978 -1.97376 0
M  V30 6842 H 649.091 -7.12974 -3.15099 0
M  V30 6843 N 653.32 -0.135238 -1.57019 0
M  V30 6844 C 654.566 0.513232 -1.96818 0
M  V30 6845 C 654.921 1.63245 -1.01827 0
M  V30 6846 O 654.214 1.91532 -0.0511756 0
M  V30 6847 C 654.408 1.07694 -3.40788 0
M  V30 6848 C 654.237 0.0138667 -4.49698 0
M  V30 6849 C 653.007 -0.423532 -5.03522 0
M  V30 6850 C 655.205 -0.77322 -5.08454 0
M  V30 6851 N 653.187 -1.47068 -5.96024 0
M  V30 6852 C 654.558 -1.67115 -5.97053 0
M  V30 6853 C 656.613 -0.822313 -4.91063 0
M  V30 6854 C 655.316 -2.61395 -6.70123 0
M  V30 6855 C 657.342 -1.75288 -5.64826 0
M  V30 6856 C 656.704 -2.63836 -6.53123 0
M  V30 6857 H 652.803 0.156956 -0.766087 0
M  V30 6858 H 655.387 -0.227118 -1.93371 0
M  V30 6859 H 653.558 1.78694 -3.44852 0
M  V30 6860 H 655.29 1.69106 -3.67675 0
M  V30 6861 H 652.045 -0.0280202 -4.73592 0
M  V30 6862 H 652.469 -1.99366 -6.46979 0
M  V30 6863 H 657.111 -0.151822 -4.22527 0
M  V30 6864 H 654.829 -3.2945 -7.37895 0
M  V30 6865 H 658.415 -1.79652 -5.53368 0
M  V30 6866 H 657.295 -3.34672 -7.092 0
M  V30 6867 N 654.798 1.5699 0.138552 0
M  V30 6868 C 656.044 1.84081 0.85099 0
M  V30 6869 C 656.377 0.718107 1.80435 0
M  V30 6870 O 655.652 -0.277633 1.92508 0
M  V30 6871 C 655.935 3.21699 1.61808 0
M  V30 6872 C 655.788 4.44544 0.685633 0
M  V30 6873 C 657.107 3.5664 2.57868 0
M  V30 6874 H 654.226 0.669592 0.307922 0
M  V30 6875 H 656.868 1.89646 0.11588 0
M  V30 6876 H 655.018 3.17086 2.24474 0
M  V30 6877 H 656.69 4.61248 0.0693179 0
M  V30 6878 H 654.933 4.338 -0.00421993 0
M  V30 6879 H 655.604 5.3746 1.25858 0
M  V30 6880 H 658.08 3.61918 2.05316 0
M  V30 6881 H 656.956 4.53946 3.08584 0
M  V30 6882 H 657.217 2.83036 3.39622 0
M  V30 6883 N 656.276 -0.40816 1.52223 0
M  V30 6884 C 657.524 -1.15274 1.66001 0
M  V30 6885 C 657.845 -1.91003 0.392803 0
M  V30 6886 O 657.115 -1.8673 -0.592336 0
M  V30 6887 H 655.695 -0.428526 0.611861 0
M  V30 6888 H 658.357 -0.46512 1.89269 0
M  V30 6889 H 657.453 -1.86628 2.50153 0
M  V30 6890 N 657.755 -1.42862 -0.66545 0
M  V30 6891 C 659.001 -1.44043 -1.42757 0
M  V30 6892 C 659.334 -0.0599629 -1.94107 0
M  V30 6893 O 658.609 0.917286 -1.71511 0
M  V30 6894 C 658.892 -2.47266 -2.61786 0
M  V30 6895 C 658.745 -3.94539 -2.16007 0
M  V30 6896 C 660.064 -2.47365 -3.64003 0
M  V30 6897 H 657.183 -0.524506 -0.517748 0
M  V30 6898 H 659.825 -1.74335 -0.755466 0
M  V30 6899 H 657.975 -2.21565 -3.19126 0
M  V30 6900 H 659.647 -4.31254 -1.63762 0
M  V30 6901 H 657.89 -4.07957 -1.47491 0
M  V30 6902 H 658.561 -4.62357 -3.01546 0
M  V30 6903 H 661.037 -2.70243 -3.16399 0
M  V30 6904 H 659.913 -3.21552 -4.44854 0
M  V30 6905 H 660.174 -1.50299 -4.15767 0
M  V30 6906 N 659.233 0.902656 -1.29189 0
M  V30 6907 C 660.481 1.6496 -1.16758 0
M  V30 6908 C 660.802 1.92952 0.28188 0
M  V30 6909 O 660.072 1.55351 1.19344 0
M  V30 6910 H 658.652 0.611447 -0.429118 0
M  V30 6911 H 661.314 1.0825 -1.62074 0
M  V30 6912 H 660.41 2.60728 -1.71544 0
M  V30 6913 N 660.711 1.11618 1.11262 0
M  V30 6914 C 661.658 0.7762 2.17356 0
M  V30 6915 C 662.628 -0.253152 1.6416 0
M  V30 6916 O 663.813 -0.129655 1.90359 0
M  V30 6917 C 660.953 0.227581 3.44349 0
M  V30 6918 C 660.066 1.31372 4.1154 0
M  V30 6919 C 659.201 0.72544 5.26223 0
M  V30 6920 C 658.24 1.7913 5.85302 0
M  V30 6921 N 657.377 1.22237 6.91377 0
M  V30 6922 H 662.217 1.68508 2.45783 0
M  V30 6923 H 659.754 0.841475 1.20655 0
M  V30 6924 H 661.712 -0.108483 4.17059 0
M  V30 6925 H 660.342 -0.644486 3.16301 0
M  V30 6926 H 659.394 1.7667 3.36885 0
M  V30 6927 H 660.706 2.12005 4.51504 0
M  V30 6928 H 659.86 0.339541 6.05749 0
M  V30 6929 H 658.599 -0.112188 4.87571 0
M  V30 6930 H 657.604 2.18648 5.04453 0
M  V30 6931 H 658.829 2.63199 6.26022 0
M  V30 6932 H 656.775 0.406423 6.5474 0
M  V30 6933 H 656.692 1.9654 7.30006 0
M  V30 6934 H 657.96 0.863426 7.74703 0
M  V30 6935 N 662.189 -1.289 0.906776 0
M  V30 6936 C 663.414 -1.99939 0.551303 0
M  V30 6937 C 663.839 -1.67366 -0.858496 0
M  V30 6938 O 663.197 -0.902176 -1.57259 0
M  V30 6939 C 663.245 -3.52523 0.758937 0
M  V30 6940 O 662.349 -4.11983 -0.185308 0
M  V30 6941 H 661.69 -0.628376 0.214568 0
M  V30 6942 H 664.22 -1.64225 1.2203 0
M  V30 6943 H 664.23 -4.02522 0.666329 0
M  V30 6944 H 662.905 -3.75566 1.78671 0
M  V30 6945 H 661.482 -3.72873 -0.0445577 0
M  V30 6946 N 663.667 -0.670007 -1.42649 0
M  V30 6947 C 665.083 -0.33911 -1.55956 0
M  V30 6948 C 665.283 1.1558 -1.65056 0
M  V30 6949 O 664.339 1.94111 -1.61485 0
M  V30 6950 C 665.652 -1.06522 -2.812 0
M  V30 6951 C 667.2 -1.04708 -2.94966 0
M  V30 6952 C 667.675 -1.75442 -4.23065 0
M  V30 6953 N 669.166 -1.72286 -4.29967 0
M  V30 6954 C 669.901 -2.23877 -5.27889 0
M  V30 6955 N 669.397 -2.83829 -6.31991 0
M  V30 6956 N 671.19 -2.14279 -5.19654 0
M  V30 6957 H 663.341 -1.6399 -1.34986 0
M  V30 6958 H 665.604 -0.690603 -0.649439 0
M  V30 6959 H 665.31 -2.12033 -2.80597 0
M  V30 6960 H 665.184 -0.627398 -3.71946 0
M  V30 6961 H 667.571 -0.000315966 -2.951 0
M  V30 6962 H 667.652 -1.52374 -2.05465 0
M  V30 6963 H 667.296 -2.80084 -4.23693 0
M  V30 6964 H 667.226 -1.25229 -5.11493 0
M  V30 6965 H 669.717 -1.28554 -3.55362 0
M  V30 6966 H 670.03 -3.20827 -7.03057 0
M  V30 6967 H 668.375 -2.87896 -6.32567 0
M  V30 6968 H 671.566 -1.67135 -4.37245 0
M  V30 6969 H 671.739 -2.54792 -5.95806 0
M  V30 6970 N 665.145 1.52092 -0.413018 0
M  V30 6971 C 666.055 2.30858 0.417318 0
M  V30 6972 C 667.071 1.38746 1.05003 0
M  V30 6973 O 668.247 1.71821 1.05069 0
M  V30 6974 C 665.312 3.11756 1.51687 0
M  V30 6975 C 664.373 4.19613 0.906825 0
M  V30 6976 C 663.606 4.96644 1.95399 0
M  V30 6977 O 663.829 4.7402 3.17271 0
M  V30 6978 O 662.763 5.81385 1.55805 0
M  V30 6979 H 666.589 3.02865 -0.225028 0
M  V30 6980 H 664.174 1.48358 -0.176126 0
M  V30 6981 H 666.056 3.62122 2.15512 0
M  V30 6982 H 664.731 2.42539 2.14375 0
M  V30 6983 H 663.638 3.73385 0.231183 0
M  V30 6984 H 664.971 4.91134 0.323814 0
M  V30 6985 N 666.623 0.143563 1.56945 0
M  V30 6986 C 667.848 -0.518701 2.00809 0
M  V30 6987 C 668.273 -1.5785 1.02298 0
M  V30 6988 O 667.631 -1.813 -0.0017839 0
M  V30 6989 C 667.679 -1.09929 3.43436 0
M  V30 6990 O 666.783 -2.21425 3.47915 0
M  V30 6991 H 666.124 -0.127215 0.6517 0
M  V30 6992 H 668.654 0.239283 2.03196 0
M  V30 6993 H 668.664 -1.4288 3.82164 0
M  V30 6994 H 667.339 -0.323162 4.14643 0
M  V30 6995 H 665.916 -1.89728 3.21026 0
M  V30 6996 N 668.101 -1.57061 -0.130224 0
M  V30 6997 C 669.034 -1.94698 -1.19029 0
M  V30 6998 C 670.012 -0.815074 -1.40696 0
M  V30 6999 O 671.196 -1.07223 -1.55034 0
M  V30 7000 C 668.323 -2.23352 -2.5462 0
M  V30 7001 C 667.369 -3.45945 -2.49448 0
M  V30 7002 S 668.202 -4.98927 -1.94505 0
M  V30 7003 C 669.358 -5.30721 -3.31792 0
M  V30 7004 H 669.591 -2.84308 -0.869272 0
M  V30 7005 H 667.124 -1.50688 -0.336531 0
M  V30 7006 H 669.082 -2.40539 -3.32643 0
M  V30 7007 H 667.743 -1.34376 -2.83905 0
M  V30 7008 H 666.936 -3.63324 -3.49302 0
M  V30 7009 H 666.538 -3.28086 -1.79543 0
M  V30 7010 H 668.83 -5.25215 -4.27966 0
M  V30 7011 H 669.773 -6.32048 -3.19251 0
M  V30 7012 H 670.181 -4.5821 -3.29703 0
M  V30 7013 N 669.579 0.400081 -1.52437 0
M  V30 7014 C 670.828 1.14332 -1.66166 0
M  V30 7015 C 671.141 1.91419 -0.402253 0
M  V30 7016 O 672.347 2.6824 -0.419487 0
M  V30 7017 C 670.803 2.08137 -2.9361 0
M  V30 7018 C 670.411 1.36524 -4.26691 0
M  V30 7019 C 672.155 2.82664 -3.16703 0
M  V30 7020 C 670.062 2.29031 -5.45251 0
M  V30 7021 H 668.992 0.430499 -0.61902 0
M  V30 7022 H 671.643 0.407017 -1.78929 0
M  V30 7023 H 670.025 2.85358 -2.74567 0
M  V30 7024 H 671.199 0.646061 -4.56249 0
M  V30 7025 H 669.514 0.74002 -4.09771 0
M  V30 7026 H 672.111 3.52037 -4.0246 0
M  V30 7027 H 672.454 3.46122 -2.31312 0
M  V30 7028 H 672.987 2.12541 -3.36261 0
M  V30 7029 H 669.726 1.70206 -6.33017 0
M  V30 7030 H 669.246 2.98896 -5.2002 0
M  V30 7031 H 670.925 2.89359 -5.78689 0
M  V30 7032 N 671.057 1.43213 0.657864 0
M  V30 7033 C 671.989 1.43974 1.78337 0
M  V30 7034 C 673.002 0.336482 1.59285 0
M  V30 7035 O 674.191 0.600631 1.68091 0
M  V30 7036 C 671.291 1.23242 3.15697 0
M  V30 7037 C 670.464 2.46319 3.61449 0
M  V30 7038 C 669.523 2.2088 4.77597 0
M  V30 7039 O 668.549 2.942 4.87273 0
M  V30 7040 N 669.751 1.22251 5.67481 0
M  V30 7041 H 672.516 2.40993 1.78164 0
M  V30 7042 H 670.077 1.3831 0.841549 0
M  V30 7043 H 672.069 1.04113 3.91079 0
M  V30 7044 H 670.639 0.346849 3.1067 0
M  V30 7045 H 669.859 2.80904 2.76563 0
M  V30 7046 H 671.147 3.28239 3.88763 0
M  V30 7047 H 670.545 0.616433 5.62331 0
M  V30 7048 H 669.102 1.09107 6.42603 0
M  V30 7049 N 672.536 -0.895792 1.29666 0
M  V30 7050 C 673.466 -2.01673 1.17688 0
M  V30 7051 C 674.447 -1.69955 0.0701317 0
M  V30 7052 O 675.632 -1.9258 0.250289 0
M  V30 7053 C 672.762 -3.36568 0.856681 0
M  V30 7054 C 671.716 -3.82509 1.92017 0
M  V30 7055 C 671.042 -5.14574 1.4532 0
M  V30 7056 C 672.342 -4.02409 3.32963 0
M  V30 7057 H 674.036 -2.11953 2.11463 0
M  V30 7058 H 671.582 -1.01839 1.01807 0
M  V30 7059 H 673.535 -4.14498 0.759577 0
M  V30 7060 H 672.259 -3.26391 -0.116763 0
M  V30 7061 H 670.918 -3.068 2.00673 0
M  V30 7062 H 670.566 -5.00815 0.468325 0
M  V30 7063 H 670.266 -5.46283 2.16447 0
M  V30 7064 H 671.79 -5.9504 1.36968 0
M  V30 7065 H 673.204 -4.70808 3.27127 0
M  V30 7066 H 671.601 -4.45478 4.02082 0
M  V30 7067 H 672.671 -3.06616 3.75652 0
M  V30 7068 N 674.014 -1.12206 -1.10668 0
M  V30 7069 C 675.261 -0.875875 -1.82578 0
M  V30 7070 C 675.589 0.598342 -1.85068 0
M  V30 7071 O 674.844 1.45818 -1.3052 0
M  V30 7072 C 675.143 -1.39276 -3.29146 0
M  V30 7073 C 674.809 -2.8816 -3.46806 0
M  V30 7074 C 673.471 -3.28813 -3.51334 0
M  V30 7075 C 675.823 -3.8401 -3.52399 0
M  V30 7076 C 673.151 -4.64028 -3.59019 0
M  V30 7077 C 675.503 -5.19053 -3.61617 0
M  V30 7078 C 674.167 -5.59252 -3.64408 0
M  V30 7079 H 673.437 -0.320505 -0.6681 0
M  V30 7080 H 676.084 -1.40184 -1.30464 0
M  V30 7081 H 674.389 -0.787207 -3.8381 0
M  V30 7082 H 676.086 -1.17851 -3.83291 0
M  V30 7083 H 672.676 -2.55716 -3.43958 0
M  V30 7084 H 676.86 -3.53698 -3.48154 0
M  V30 7085 H 672.116 -4.94568 -3.59461 0
M  V30 7086 H 676.29 -5.93152 -3.64889 0
M  V30 7087 H 673.917 -6.64017 -3.70116 0
M  V30 7088 O 675.531 1.23095 -1.04546 0
M  V30 7089 H 676.222 1.79876 -0.718642 0
M  V30 END ATOM
M  V30 BEGIN BOND
M  V30 END BOND
M  V30 END CTAB
M  END
$$$$
