drugbank_target|P98194 Calcium-transporting ATPase type 2C member 1 (DB00228; DB00753; DB01028; DB01236; DB01373)
 OpenBabel12092119273D

  0  0  0     0  0            999 V3000
M  V30 BEGIN CTAB
M  V30 COUNTS 14300 14413 0 0 0
M  V30 BEGIN ATOM
M  V30 1 H -0.908 1.98254 -0.117106 0
M  V30 2 N 0 1.576 0 0
M  V30 3 C 0.933 2.03868 1.02534 0
M  V30 4 C 1.911 0.928543 1.3348 0
M  V30 5 O 3.095 1.19667 1.45644 0
M  V30 6 C 0.222 2.43627 2.35294 0
M  V30 7 C -0.732 3.65373 2.2001 0
M  V30 8 S 0.101 5.13292 1.52614 0
M  V30 9 C 1.257 5.56322 2.86805 0
M  V30 10 H 1.49 2.90518 0.631377 0
M  V30 11 H -0.977 1.52953 0.210867 0
M  V30 12 H 0.981 2.67203 3.11629 0
M  V30 13 H -0.358 1.57376 2.7183 0
M  V30 14 H -1.165 3.90944 3.18086 0
M  V30 15 H -1.563 3.418 1.51819 0
M  V30 16 H 0.729 5.58782 3.83104 0
M  V30 17 H 1.672 6.56266 2.65933 0
M  V30 18 H 2.08 4.83886 2.90714 0
M  V30 19 N 1.4781 -0.272755 1.55222 0
M  V30 20 C 2.4251 -1.33716 1.88119 0
M  V30 21 C 3.3951 -1.49066 0.73271 0
M  V30 22 O 4.5801 -1.63469 0.984002 0
M  V30 23 C 1.7201 -2.69238 2.15882 0
M  V30 24 C 0.8331 -2.62108 3.43399 0
M  V30 25 C -0.0319 -3.89811 3.60861 0
M  V30 26 C -0.9929 -3.77193 4.8207 0
M  V30 27 N -1.8559 -4.9673 4.96189 0
M  V30 28 H 2.9841 -1.04962 2.78903 0
M  V30 29 H 0.5211 -0.507088 1.38083 0
M  V30 30 H 2.4791 -3.48089 2.29978 0
M  V30 31 H 1.1091 -2.96194 1.28331 0
M  V30 32 H 0.1611 -1.74967 3.37773 0
M  V30 33 H 1.4731 -2.48685 4.32386 0
M  V30 34 H 0.6271 -4.77103 3.74777 0
M  V30 35 H -0.6339 -4.06102 2.7006 0
M  V30 36 H -1.6289 -2.88284 4.68159 0
M  V30 37 H -0.4039 -3.62421 5.74307 0
M  V30 38 H -2.4579 -5.13431 4.08319 0
M  V30 39 H -2.5409 -4.85839 5.79221 0
M  V30 40 H -1.2729 -5.85594 5.1449 0
M  V30 41 N 2.9562 -1.48159 -0.537278 0
M  V30 42 C 4.2022 -1.56035 -1.29541 0
M  V30 43 C 4.5352 -0.230377 -1.92829 0
M  V30 44 O 3.8102 0.762952 -1.78911 0
M  V30 45 C 4.0932 -2.69323 -2.39034 0
M  V30 46 C 3.9462 -4.12002 -1.80485 0
M  V30 47 C 5.2652 -2.78408 -3.40847 0
M  V30 48 H 2.3842 -0.567992 -0.469632 0
M  V30 49 H 5.0262 -1.80302 -0.599277 0
M  V30 50 H 3.1762 -2.48763 -2.98412 0
M  V30 51 H 4.8482 -4.43981 -1.25215 0
M  V30 52 H 3.0912 -4.19344 -1.11055 0
M  V30 53 H 3.7622 -4.87077 -2.59731 0
M  V30 54 H 6.2382 -2.97012 -2.91416 0
M  V30 55 H 5.1142 -3.59416 -4.14863 0
M  V30 56 H 5.3752 -1.86269 -4.00944 0
M  V30 57 N 4.4343 0.785586 -1.36625 0
M  V30 58 C 5.3973 1.87999 -1.31107 0
M  V30 59 C 6.3973 1.59316 -0.217959 0
M  V30 60 O 7.5873 1.67656 -0.472977 0
M  V30 61 C 4.7193 3.24861 -1.03334 0
M  V30 62 H 5.9123 1.94307 -2.2844 0
M  V30 63 H 3.4653 0.983813 -1.21453 0
M  V30 64 H 4.2003 3.24235 -0.0647432 0
M  V30 65 H 3.9853 3.4707 -1.82441 0
M  V30 66 H 5.4753 4.04929 -1.02088 0
M  V30 67 N 5.9124 1.20967 1.01018 0
M  V30 68 C 7.3284 0.965905 1.27053 0
M  V30 69 C 7.5284 -0.350785 1.98423 0
M  V30 70 O 6.5844 -1.07773 2.28344 0
M  V30 71 C 7.8974 2.15294 2.09926 0
M  V30 72 C 9.4454 2.19463 2.23171 0
M  V30 73 C 9.9204 3.3767 3.09424 0
M  V30 74 N 11.4114 3.37724 3.17012 0
M  V30 75 C 12.1464 4.25837 3.83993 0
M  V30 76 N 11.6424 5.24138 4.53047 0
M  V30 77 N 13.4354 4.1366 3.80581 0
M  V30 78 H 5.5864 2.0565 0.531194 0
M  V30 79 H 7.8494 0.90024 0.297106 0
M  V30 80 H 7.5554 3.10684 1.64828 0
M  V30 81 H 7.4294 2.13923 3.10672 0
M  V30 82 H 9.8164 1.24632 2.6749 0
M  V30 83 H 9.8974 2.2488 1.21912 0
M  V30 84 H 9.5414 4.32791 2.65808 0
M  V30 85 H 9.4714 3.29491 4.10784 0
M  V30 86 H 11.9624 2.6658 2.6785 0
M  V30 87 H 12.2754 5.87684 5.01844 0
M  V30 88 H 10.6204 5.28068 4.5185 0
M  V30 89 H 13.8114 3.36127 3.25785 0
M  V30 90 H 13.9844 4.82538 4.32505 0
M  V30 91 N 7.3905 -1.2043 1.01659 0
M  V30 92 C 8.6375 -1.89797 0.705917 0
M  V30 93 C 8.9655 -1.78848 -0.764439 0
M  V30 94 O 8.2205 -1.16694 -1.57102 0
M  V30 95 C 8.5195 -3.40464 1.08714 0
M  V30 96 C 8.1855 -3.71614 2.5537 0
M  V30 97 C 6.8475 -3.79826 2.95441 0
M  V30 98 C 9.1995 -3.85915 3.50313 0
M  V30 99 C 6.5275 -3.99797 4.29394 0
M  V30 100 C 8.8795 -4.07396 4.83954 0
M  V30 101 C 7.5435 -4.13837 5.23732 0
M  V30 102 H 6.8135 -0.694518 0.258313 0
M  V30 103 H 9.4605 -1.42691 1.27717 0
M  V30 104 H 7.7655 -3.89385 0.434309 0
M  V30 105 H 9.4625 -3.92433 0.824461 0
M  V30 106 H 6.0525 -3.65822 2.23321 0
M  V30 107 H 10.2365 -3.78926 3.20513 0
M  V30 108 H 5.4925 -4.03018 4.59768 0
M  V30 109 H 9.6665 -4.17404 5.57447 0
M  V30 110 H 7.2935 -4.29064 6.27541 0
M  V30 111 N 8.8686 -0.792821 -1.36206 0
M  V30 112 C 9.8006 -0.151469 -2.28699 0
M  V30 113 C 10.8136 0.641262 -1.49638 0
M  V30 114 O 12.0026 0.475885 -1.72039 0
M  V30 115 C 9.1026 0.808424 -3.29117 0
M  V30 116 C 8.2756 0.0650202 -4.37352 0
M  V30 117 C 7.3346 0.941358 -5.17711 0
M  V30 118 O 6.3606 0.397352 -5.67811 0
M  V30 119 N 7.5626 2.2652 -5.3448 0
M  V30 120 H 10.3276 -0.945982 -2.84379 0
M  V30 121 H 7.8886 -0.647032 -1.48409 0
M  V30 122 H 9.8806 1.3986 -3.79765 0
M  V30 123 H 8.4506 1.5038 -2.74052 0
M  V30 124 H 7.6706 -0.706255 -3.87822 0
M  V30 125 H 8.9586 -0.447847 -5.06825 0
M  V30 126 H 8.3566 2.73128 -4.95396 0
M  V30 127 H 6.9136 2.80493 -5.88359 0
M  V30 128 N 10.3467 1.47872 -0.545128 0
M  V30 129 C 11.2937 2.29849 0.2093 0
M  V30 130 C 12.2637 1.38313 0.919707 0
M  V30 131 O 13.4487 1.67277 0.917772 0
M  V30 132 C 10.5887 3.22019 1.24088 0
M  V30 133 C 9.7017 4.2864 0.537778 0
M  V30 134 C 8.8367 5.07973 1.5536 0
M  V30 135 C 7.8757 6.06381 0.8348 0
M  V30 136 N 7.0127 6.78717 1.79688 0
M  V30 137 H 11.8527 2.93845 -0.49591 0
M  V30 138 H 9.3897 1.44848 -0.256389 0
M  V30 139 H 11.3477 3.73868 1.85144 0
M  V30 140 H 9.9777 2.59914 1.91428 0
M  V30 141 H 9.0297 3.7994 -0.187046 0
M  V30 142 H 10.3417 4.98793 -0.0258907 0
M  V30 143 H 9.4957 5.63912 2.23803 0
M  V30 144 H 8.2347 4.37693 2.15118 0
M  V30 145 H 7.2397 5.49631 0.136388 0
M  V30 146 H 8.4647 6.78665 0.24313 0
M  V30 147 H 6.4107 6.11177 2.38326 0
M  V30 148 H 6.3277 7.44998 1.28505 0
M  V30 149 H 7.5957 7.39237 2.47282 0
M  V30 150 N 11.8248 0.280983 1.55075 0
M  V30 151 C 13.0738 -0.334784 1.98902 0
M  V30 152 C 13.3868 -1.56534 1.17288 0
M  V30 153 O 14.5928 -2.25443 1.51287 0
M  V30 154 C 13.0488 -0.646994 3.54037 0
M  V30 155 C 12.6568 0.564085 4.44435 0
M  V30 156 C 14.4008 -1.22506 4.06439 0
M  V30 157 C 12.3078 0.226137 5.90967 0
M  V30 158 H 11.2378 -0.128866 0.742906 0
M  V30 159 H 13.8888 0.386556 1.79382 0
M  V30 160 H 12.2708 -1.42739 3.6938 0
M  V30 161 H 13.4448 1.34082 4.40861 0
M  V30 162 H 11.7598 1.0594 4.02698 0
M  V30 163 H 14.3568 -1.49182 5.13468 0
M  V30 164 H 14.6998 -2.16085 3.55827 0
M  V30 165 H 15.2328 -0.50682 3.94558 0
M  V30 166 H 11.9718 1.12996 6.45687 0
M  V30 167 H 11.4918 -0.513717 5.97596 0
M  V30 168 H 13.1708 -0.179539 6.46751 0
M  V30 169 N 13.3029 -1.57598 0.00835791 0
M  V30 170 C 14.7139 -1.7892 -0.53333 0
M  V30 171 C 15.0649 -0.916609 -1.73473 0
M  V30 172 O 14.1899 -0.121336 -2.1606 0
M  V30 173 C 14.7849 -3.24488 -0.974313 0
M  V30 174 C 13.3439 -3.46878 -1.46125 0
M  V30 175 C 12.4909 -2.74157 -0.416302 0
M  V30 176 H 15.4419 -1.56958 0.234495 0
M  V30 177 H 15.4629 -3.3306 -1.83988 0
M  V30 178 H 14.9749 -3.87972 -0.099718 0
M  V30 179 H 13.0759 -2.8862 -2.35646 0
M  V30 180 H 13.1889 -4.55572 -1.48295 0
M  V30 181 H 11.5529 -2.39022 -0.87981 0
M  V30 182 H 12.3359 -3.40345 0.44947 0
M  V30 183 N 14.781 0.264519 -1.55364 0
M  V30 184 C 15.729 1.34702 -1.89626 0
M  V30 185 C 16.723 1.50712 -0.773459 0
M  V30 186 O 17.929 1.52395 -0.957897 0
M  V30 187 H 14.304 0.450682 -0.601988 0
M  V30 188 H 16.275 1.0306 -2.80038 0
M  V30 189 C 15.024 2.6989 -2.19214 0
M  V30 190 H 14.347 2.58365 -3.05103 0
M  V30 191 H 15.787 3.44553 -2.47102 0
M  V30 192 C 14.246 3.21637 -1.00254 0
M  V30 193 O 14.776 4.00973 -0.241501 0
M  V30 194 N 12.982 2.7943 -0.797938 0
M  V30 195 H 12.529 2.15026 -1.4185 0
M  V30 196 H 12.487 3.144 -0.00363422 0
M  V30 197 N 16.2591 1.48442 0.529413 0
M  V30 198 C 17.5071 1.56179 1.28267 0
M  V30 199 C 17.8281 0.237721 1.93546 0
M  V30 200 O 17.0981 -0.740779 1.81354 0
M  V30 201 H 15.6781 0.575367 0.476405 0
M  V30 202 H 18.3401 1.84909 0.61602 0
M  V30 203 H 17.4361 2.34312 2.06165 0
M  V30 204 N 17.7372 -0.778329 1.37039 0
M  V30 205 C 18.6472 -1.92253 1.34446 0
M  V30 206 C 19.6632 -1.72267 0.244991 0
M  V30 207 O 20.8392 -1.95615 0.479258 0
M  V30 208 C 17.9042 -3.27282 1.144 0
M  V30 209 C 16.9652 -3.59969 2.33925 0
M  V30 210 C 16.1982 -4.88555 2.14825 0
M  V30 211 O 16.4212 -5.59113 1.12912 0
M  V30 212 O 15.3552 -5.20153 3.02861 0
M  V30 213 H 19.1812 -1.97392 2.30803 0
M  V30 214 H 16.7662 -0.920154 1.17701 0
M  V30 215 H 18.6482 -4.08062 1.05182 0
M  V30 216 H 17.3232 -3.23011 0.211124 0
M  V30 217 H 16.2302 -2.7945 2.48714 0
M  V30 218 H 17.5632 -3.68976 3.25757 0
M  V30 219 N 19.2153 -1.21501 -1.00376 0
M  V30 220 C 20.1633 -0.972442 -2.11297 0
M  V30 221 C 21.1573 0.080731 -1.69208 0
M  V30 222 O 22.3633 -0.0707666 -1.79861 0
M  V30 223 H 18.7383 -0.297218 -0.690772 0
M  V30 224 H 20.7093 -1.91394 -2.28934 0
M  V30 225 C 19.4583 -0.555065 -3.43241 0
M  V30 226 H 18.7813 -1.35709 -3.76062 0
M  V30 227 H 20.2213 -0.424664 -4.21868 0
M  V30 228 C 18.6803 0.734147 -3.28804 0
M  V30 229 O 19.2103 1.78937 -3.59645 0
M  V30 230 N 17.4163 0.701133 -2.82015 0
M  V30 231 H 16.9633 -0.157874 -2.57116 0
M  V30 232 H 16.9213 1.56403 -2.72737 0
M  V30 233 N 20.6934 1.19889 -1.02296 0
M  V30 234 C 21.6034 2.26571 -0.608508 0
M  V30 235 C 22.6194 1.70299 0.356964 0
M  V30 236 O 23.7954 2.00235 0.216326 0
M  V30 237 C 20.8604 3.46677 0.0402814 0
M  V30 238 C 19.9214 4.18153 -0.97194 0
M  V30 239 C 19.1544 5.32525 -0.354016 0
M  V30 240 O 19.3774 5.64112 0.844604 0
M  V30 241 O 18.3114 5.92242 -1.07391 0
M  V30 242 H 22.1374 2.64251 -1.49684 0
M  V30 243 H 19.7224 1.26629 -0.792809 0
M  V30 244 H 21.6044 4.19475 0.402324 0
M  V30 245 H 20.2794 3.10858 0.902707 0
M  V30 246 H 19.1864 3.47499 -1.38546 0
M  V30 247 H 20.5194 4.57927 -1.80454 0
M  V30 248 N 22.1715 0.800033 1.35784 0
M  V30 249 C 23.3995 0.389606 2.03199 0
M  V30 250 C 23.8145 -0.997375 1.60306 0
M  V30 251 O 23.1715 -1.64154 0.797481 0
M  V30 252 C 23.2225 0.455855 3.58614 0
M  V30 253 O 22.9435 1.78815 3.99946 0
M  V30 254 C 24.4445 0.0374032 4.43284 0
M  V30 255 H 21.6645 0.159132 0.651857 0
M  V30 256 H 24.2085 1.08183 1.73541 0
M  V30 257 H 22.3635 -0.188057 3.86943 0
M  V30 258 H 22.7775 1.74636 4.94573 0
M  V30 259 H 24.2515 0.134882 5.51835 0
M  V30 260 H 24.7285 -1.01651 4.27275 0
M  V30 261 H 25.3345 0.654215 4.20238 0
M  V30 262 N 23.6496 -1.47581 0.552962 0
M  V30 263 C 24.5826 -2.26883 -0.244857 0
M  V30 264 C 25.5606 -1.33784 -0.924147 0
M  V30 265 O 26.7446 -1.6316 -0.943981 0
M  V30 266 C 23.8716 -3.10695 -1.34856 0
M  V30 267 C 22.9176 -4.19339 -0.778268 0
M  V30 268 S 23.7506 -5.34207 0.37184 0
M  V30 269 C 24.9066 -6.21584 -0.733779 0
M  V30 270 H 25.1396 -2.94202 0.428087 0
M  V30 271 H 22.6726 -1.50628 0.339197 0
M  V30 272 H 24.6306 -3.59555 -1.98066 0
M  V30 273 H 23.2916 -2.42746 -1.99332 0
M  V30 274 H 22.4846 -4.77695 -1.60696 0
M  V30 275 H 22.0866 -3.73338 -0.222422 0
M  V30 276 H 24.3786 -6.57676 -1.62692 0
M  V30 277 H 25.3216 -7.07851 -0.187668 0
M  V30 278 H 25.7296 -5.55125 -1.02454 0
M  V30 279 N 25.1277 -0.289203 -1.54924 0
M  V30 280 C 26.3767 0.324231 -1.99077 0
M  V30 281 C 26.6897 1.5591 -1.18117 0
M  V30 282 O 27.8957 2.24637 -1.52481 0
M  V30 283 C 26.3517 0.628209 -3.54375 0
M  V30 284 C 25.9597 -0.587647 -4.44129 0
M  V30 285 C 27.7037 1.20349 -4.07083 0
M  V30 286 C 25.6107 -0.257475 -5.90839 0
M  V30 287 H 24.5407 0.124924 -0.743579 0
M  V30 288 H 27.1917 -0.396063 -1.79175 0
M  V30 289 H 25.5737 1.40778 -3.70132 0
M  V30 290 H 26.7477 -1.36418 -4.40144 0
M  V30 291 H 25.0627 -1.08074 -4.0213 0
M  V30 292 H 27.6597 1.46456 -5.14252 0
M  V30 293 H 28.0027 2.14195 -3.56968 0
M  V30 294 H 28.5357 0.485889 -3.94821 0
M  V30 295 H 25.2747 -1.16419 -6.45079 0
M  V30 296 H 24.7947 0.482018 -5.9786 0
M  V30 297 H 26.4737 0.145238 -6.46837 0
M  V30 298 N 26.6058 1.57591 -0.0167156 0
M  V30 299 C 28.0168 1.79201 0.523834 0
M  V30 300 C 28.3678 0.925796 1.72984 0
M  V30 301 O 27.4928 0.132792 2.15992 0
M  V30 302 C 28.0878 3.25 0.957091 0
M  V30 303 C 26.6468 3.47648 1.44283 0
M  V30 304 C 25.7938 2.74374 0.401757 0
M  V30 305 H 28.7448 1.56831 -0.242816 0
M  V30 306 H 28.7658 3.34031 1.82219 0
M  V30 307 H 28.2778 3.88019 0.0791415 0
M  V30 308 H 26.3788 2.89866 2.34113 0
M  V30 309 H 26.4918 4.56352 1.45877 0
M  V30 310 H 24.8558 2.39485 0.867121 0
M  V30 311 H 25.6388 3.40102 -0.467513 0
M  V30 312 N 28.0839 -0.256276 1.55502 0
M  V30 313 C 29.3299 -0.987079 1.77157 0
M  V30 314 C 29.6629 -1.85327 0.580315 0
M  V30 315 O 28.9379 -1.89874 -0.421686 0
M  V30 316 C 29.2209 -1.85553 3.08613 0
M  V30 317 C 29.0739 -1.01816 4.38125 0
M  V30 318 C 30.3929 -2.8397 3.36228 0
M  V30 319 H 27.5119 -0.357428 0.644526 0
M  V30 320 H 30.1539 -0.258239 1.88237 0
M  V30 321 H 28.3039 -2.47695 2.99298 0
M  V30 322 H 29.9759 -0.416159 4.59419 0
M  V30 323 H 28.2189 -0.322178 4.32602 0
M  V30 324 H 28.8899 -1.65939 5.26468 0
M  V30 325 H 31.3659 -2.31964 3.45445 0
M  V30 326 H 30.2419 -3.41864 4.29442 0
M  V30 327 H 30.5029 -3.59955 2.56681 0
M  V30 328 N 29.562 -1.4872 -0.521534 0
M  V30 329 C 30.492 -1.66771 -1.63431 0
M  V30 330 C 31.473 -0.516499 -1.62069 0
M  V30 331 O 32.658 -0.750013 -1.79132 0
M  V30 332 C 29.788 -1.71515 -3.01993 0
M  V30 333 C 28.742 -2.86222 -3.18216 0
M  V30 334 C 28.068 -2.76061 -4.57924 0
M  V30 335 C 29.368 -4.27419 -3.00184 0
M  V30 336 H 31.062 -2.59932 -1.48579 0
M  V30 337 H 28.608 -1.25089 -0.713358 0
M  V30 338 H 30.561 -1.82731 -3.7972 0
M  V30 339 H 29.285 -0.749393 -3.17886 0
M  V30 340 H 27.944 -2.74575 -2.42908 0
M  V30 341 H 27.592 -1.77437 -4.70665 0
M  V30 342 H 27.292 -3.53037 -4.69722 0
M  V30 343 H 28.816 -2.89256 -5.37739 0
M  V30 344 H 30.23 -4.39855 -3.67697 0
M  V30 345 H 28.627 -5.05458 -3.2347 0
M  V30 346 H 29.697 -4.43293 -1.96518 0
M  V30 347 N 31.0401 0.771051 -1.3745 0
M  V30 348 C 32.2681 1.56015 -1.35893 0
M  V30 349 C 32.6831 1.88718 0.0555523 0
M  V30 350 O 32.0401 1.51502 1.01752 0
M  V30 351 C 32.0911 2.87001 -2.19801 0
M  V30 352 O 31.8121 2.557 -3.55738 0
M  V30 353 C 33.3131 3.81228 -2.26231 0
M  V30 354 H 30.5331 0.483317 -0.465453 0
M  V30 355 H 33.0771 0.955611 -1.80799 0
M  V30 356 H 31.2321 3.43877 -1.78402 0
M  V30 357 H 31.6461 3.39584 -3.99729 0
M  V30 358 H 33.1201 4.70139 -2.89263 0
M  V30 359 H 33.5971 4.20409 -1.27093 0
M  V30 360 H 34.2031 3.30281 -2.67945 0
M  V30 361 N 32.5182 1.22032 0.997298 0
M  V30 362 C 33.7432 1.06921 1.77715 0
M  V30 363 C 34.1682 -0.376226 1.84299 0
M  V30 364 O 33.5262 -1.27165 1.29223 0
M  V30 365 C 33.5742 1.67996 3.19076 0
M  V30 366 O 32.6782 0.930653 4.01762 0
M  V30 367 H 32.0192 0.375814 0.547412 0
M  V30 368 H 34.5492 1.61737 1.25309 0
M  V30 369 H 34.5592 1.72538 3.69723 0
M  V30 370 H 33.2342 2.73182 3.13599 0
M  V30 371 H 31.8112 0.960917 3.60307 0
M  V30 372 N 33.9963 -1.19345 1.0293 0
M  V30 373 C 34.9433 -2.2258 0.610464 0
M  V30 374 C 35.9133 -1.6179 -0.375946 0
M  V30 375 O 37.0983 -1.88844 -0.272511 0
M  V30 376 C 34.2383 -3.45085 -0.0321473 0
M  V30 377 C 33.3513 -4.20258 1.00035 0
M  V30 378 C 32.4863 -5.3019 0.32746 0
M  V30 379 C 31.5253 -5.97121 1.34584 0
M  V30 380 N 30.6623 -6.98615 0.698726 0
M  V30 381 H 35.5023 -2.57764 1.49538 0
M  V30 382 H 33.0393 -1.26644 0.748311 0
M  V30 383 H 34.9973 -4.15061 -0.421966 0
M  V30 384 H 33.6273 -3.10555 -0.88064 0
M  V30 385 H 32.6793 -3.49223 1.50823 0
M  V30 386 H 33.9913 -4.66175 1.77433 0
M  V30 387 H 33.1453 -6.06587 -0.11718 0
M  V30 388 H 31.8843 -4.85345 -0.478713 0
M  V30 389 H 30.8893 -5.19474 1.80074 0
M  V30 390 H 32.1143 -6.4405 2.15352 0
M  V30 391 H 30.0603 -6.55942 -0.0873471 0
M  V30 392 H 29.9773 -7.42724 1.41058 0
M  V30 393 H 31.2453 -7.79004 0.278102 0
M  V30 394 N 35.4744 -0.807222 -1.35358 0
M  V30 395 C 36.4214 -0.216037 -2.29787 0
M  V30 396 C 37.3914 0.650278 -1.52842 0
M  V30 397 O 38.5764 0.595227 -1.81278 0
M  V30 398 C 35.7164 0.628893 -3.39321 0
M  V30 399 C 34.8294 -0.257927 -4.31229 0
M  V30 400 C 33.9644 0.595069 -5.27856 0
M  V30 401 C 33.0034 -0.292111 -6.11403 0
M  V30 402 N 32.1404 0.520895 -7.00165 0
M  V30 403 H 36.9804 -1.02671 -2.79755 0
M  V30 404 H 34.5174 -0.517839 -1.37684 0
M  V30 405 H 36.4754 1.13393 -4.01494 0
M  V30 406 H 35.1054 1.40482 -2.90628 0
M  V30 407 H 34.1574 -0.881076 -3.70056 0
M  V30 408 H 35.4694 -0.940759 -4.89848 0
M  V30 409 H 34.6234 1.16522 -5.95405 0
M  V30 410 H 33.3624 1.31146 -4.69736 0
M  V30 411 H 32.3674 -0.874525 -5.428 0
M  V30 412 H 33.5924 -1.00638 -6.71602 0
M  V30 413 H 31.5384 1.22125 -6.44532 0
M  V30 414 H 31.4554 -0.103877 -7.55929 0
M  V30 415 H 32.7234 1.0743 -7.72062 0
M  V30 416 N 36.9525 1.47285 -0.560781 0
M  V30 417 C 37.9155 2.28535 0.174488 0
M  V30 418 C 38.9155 1.37153 0.839388 0
M  V30 419 O 40.1055 1.59748 0.694702 0
M  V30 420 C 37.2375 3.16934 1.25561 0
M  V30 421 H 38.4305 2.95012 -0.539262 0
M  V30 422 H 35.9835 1.53034 -0.317865 0
M  V30 423 H 36.7185 2.55157 2.00164 0
M  V30 424 H 36.5035 3.8419 0.783604 0
M  V30 425 H 37.9935 3.78143 1.77193 0
M  V30 426 N 38.4306 0.297415 1.54768 0
M  V30 427 C 39.6556 -0.318435 2.04941 0
M  V30 428 C 40.0806 -1.4701 1.17345 0
M  V30 429 O 39.4386 -1.80436 0.176758 0
M  V30 430 C 39.4866 -0.755749 3.52592 0
M  V30 431 O 38.5906 -1.86088 3.68028 0
M  V30 432 H 37.9316 -0.062421 0.661059 0
M  V30 433 H 40.4616 0.438215 1.99852 0
M  V30 434 H 40.4716 -1.04552 3.94376 0
M  V30 435 H 39.1466 0.0867233 4.1581 0
M  V30 436 H 37.7236 -1.57193 3.38149 0
M  V30 437 N 39.9087 -1.5758 0.0250728 0
M  V30 438 C 40.8187 -2.1343 -0.973905 0
M  V30 439 C 41.8347 -1.08556 -1.35984 0
M  V30 440 O 43.0107 -1.40592 -1.44207 0
M  V30 441 C 40.0757 -2.64703 -2.23904 0
M  V30 442 C 39.1367 -3.84276 -1.91391 0
M  V30 443 C 38.3697 -4.33095 -3.11873 0
M  V30 444 O 38.5927 -3.81107 -4.24398 0
M  V30 445 O 37.5267 -5.24984 -2.94406 0
M  V30 446 H 41.3527 -2.99057 -0.529036 0
M  V30 447 H 38.9377 -1.48118 -0.195288 0
M  V30 448 H 40.8197 -2.97769 -2.98181 0
M  V30 449 H 39.4947 -1.82161 -2.6758 0
M  V30 450 H 38.4017 -3.56143 -1.14511 0
M  V30 451 H 39.7347 -4.67968 -1.52534 0
M  V30 452 N 41.3868 0.248026 -1.55636 0
M  V30 453 C 42.3168 1.31079 -1.93237 0
M  V30 454 C 43.2978 1.50264 -0.797174 0
M  V30 455 O 44.4828 1.62891 -1.05737 0
M  V30 456 C 41.6128 2.66575 -2.22609 0
M  V30 457 C 40.5668 2.62087 -3.3837 0
M  V30 458 C 39.8928 4.01369 -3.53281 0
M  V30 459 C 41.1928 2.19171 -4.7409 0
M  V30 460 H 42.8868 0.998556 -2.82257 0
M  V30 461 H 40.4328 0.47891 -1.35803 0
M  V30 462 H 42.3858 3.41057 -2.47503 0
M  V30 463 H 41.1098 2.99432 -1.30414 0
M  V30 464 H 39.7688 1.90063 -3.13483 0
M  V30 465 H 39.4168 4.31489 -2.58508 0
M  V30 466 H 39.1168 3.99254 -4.31127 0
M  V30 467 H 40.6408 4.77552 -3.80495 0
M  V30 468 H 42.0548 2.83384 -4.98363 0
M  V30 469 H 40.4518 2.2817 -5.5503 0
M  V30 470 H 41.5218 1.14336 -4.71227 0
M  V30 471 N 42.8649 1.48995 0.513639 0
M  V30 472 C 44.2759 1.5119 1.09537 0
M  V30 473 C 44.6269 0.290906 1.94031 0
M  V30 474 O 43.7519 -0.60049 2.07902 0
M  V30 475 C 44.3469 2.73964 1.99322 0
M  V30 476 C 42.9059 2.78978 2.52682 0
M  V30 477 C 42.0529 2.44934 1.30009 0
M  V30 478 H 45.0039 1.55875 0.298125 0
M  V30 479 H 45.0249 2.53409 2.83838 0
M  V30 480 H 44.5369 3.62813 1.37799 0
M  V30 481 H 42.6379 1.94378 3.1788 0
M  V30 482 H 42.7509 3.8083 2.90698 0
M  V30 483 H 41.1149 1.9644 1.62122 0
M  V30 484 H 41.8979 3.36043 0.702131 0
M  V30 485 N 44.343 -0.763751 1.37857 0
M  V30 486 C 45.589 -1.52483 1.33704 0
M  V30 487 C 45.922 -1.94051 -0.0759612 0
M  V30 488 O 45.197 -1.64675 -1.03501 0
M  V30 489 C 45.48 -2.78441 2.28348 0
M  V30 490 C 45.333 -2.43075 3.78463 0
M  V30 491 C 46.652 -3.80415 2.21298 0
M  V30 492 H 43.771 -0.553169 0.487005 0
M  V30 493 H 46.413 -0.875562 1.68624 0
M  V30 494 H 44.563 -3.33842 1.987 0
M  V30 495 H 46.235 -1.93527 4.18742 0
M  V30 496 H 44.478 -1.75666 3.96641 0
M  V30 497 H 45.149 -3.33149 4.40132 0
M  V30 498 H 47.625 -3.34527 2.47449 0
M  V30 499 H 46.501 -4.66257 2.89647 0
M  V30 500 H 46.762 -4.25262 1.20849 0
M  V30 501 N 45.8211 -1.22559 -0.990812 0
M  V30 502 C 47.0461 -1.07862 -1.77145 0
M  V30 503 C 47.4711 0.366447 -1.84496 0
M  V30 504 O 46.8291 1.26478 -1.29896 0
M  V30 505 C 46.8771 -1.69686 -3.18181 0
M  V30 506 O 45.9811 -0.951946 -4.01263 0
M  V30 507 H 45.3221 -0.378712 -0.545411 0
M  V30 508 H 47.8521 -1.62399 -1.2445 0
M  V30 509 H 47.8621 -1.74496 -3.68802 0
M  V30 510 H 46.5371 -2.74841 -3.12146 0
M  V30 511 H 45.1141 -0.980011 -3.59792 0
M  V30 512 N 47.2992 1.18797 -1.03562 0
M  V30 513 C 48.2092 2.25913 -0.632505 0
M  V30 514 C 49.2252 1.70668 0.338882 0
M  V30 515 O 50.4012 2.00453 0.195076 0
M  V30 516 C 47.4662 3.467 0.00350942 0
M  V30 517 C 46.5272 4.17098 -1.01624 0
M  V30 518 C 45.7602 5.32119 -0.410478 0
M  V30 519 O 45.9832 5.64976 0.784725 0
M  V30 520 O 44.9172 5.9107 -1.13667 0
M  V30 521 H 48.7432 2.62648 -1.52478 0
M  V30 522 H 46.3282 1.25781 -0.806195 0
M  V30 523 H 48.2102 4.19878 0.35781 0
M  V30 524 H 46.8852 3.11798 0.869686 0
M  V30 525 H 45.7922 3.4601 -1.42224 0
M  V30 526 H 47.1252 4.55987 -1.85301 0
M  V30 527 N 48.7773 0.814389 1.34928 0
M  V30 528 C 50.0233 0.399013 1.98836 0
M  V30 529 C 50.3563 -1.03314 1.64438 0
M  V30 530 O 49.6313 -1.71811 0.911659 0
M  V30 531 C 49.9143 0.591629 3.55207 0
M  V30 532 C 49.7673 2.06928 3.99376 0
M  V30 533 C 51.0863 0.022199 4.40094 0
M  V30 534 H 48.2053 0.146451 0.722303 0
M  V30 535 H 50.8473 1.02537 1.59957 0
M  V30 536 H 48.9973 0.0584441 3.88456 0
M  V30 537 H 50.6693 2.66544 3.76499 0
M  V30 538 H 48.9123 2.56287 3.49999 0
M  V30 539 H 49.5833 2.1549 5.08201 0
M  V30 540 H 52.0593 0.477643 4.13349 0
M  V30 541 H 50.9353 0.186832 5.48582 0
M  V30 542 H 51.1963 -1.07215 4.28902 0
M  V30 543 N 50.2554 -1.46986 0.568584 0
M  V30 544 C 51.2184 -2.28624 -0.162366 0
M  V30 545 C 52.2184 -1.37596 -0.832103 0
M  V30 546 O 53.4084 -1.60115 -0.68622 0
M  V30 547 C 50.5404 -3.17596 -1.23878 0
M  V30 548 H 51.7334 -2.94722 0.554899 0
M  V30 549 H 49.2864 -1.52863 0.325976 0
M  V30 550 H 50.0214 -2.56214 -1.98808 0
M  V30 551 H 49.8064 -3.846 -0.763219 0
M  V30 552 H 51.2964 -3.79078 -1.75185 0
M  V30 553 N 51.7335 -0.305618 -1.54608 0
M  V30 554 C 52.9585 0.307562 -2.05107 0
M  V30 555 C 53.3835 1.46385 -1.18123 0
M  V30 556 O 52.7415 1.8034 -0.186324 0
M  V30 557 C 52.7895 0.73704 -3.52987 0
M  V30 558 O 51.8935 1.84134 -3.6901 0
M  V30 559 H 51.2345 0.0589143 -0.661381 0
M  V30 560 H 53.7645 -0.448807 -1.99617 0
M  V30 561 H 53.7745 1.02459 -3.94925 0
M  V30 562 H 52.4495 -0.108773 -4.15758 0
M  V30 563 H 51.0265 1.55398 -3.38978 0
M  V30 564 N 53.2116 1.57565 -0.0334293 0
M  V30 565 C 54.4606 1.91155 0.643639 0
M  V30 566 C 54.7736 0.91192 1.73042 0
M  V30 567 O 55.9796 1.13923 2.46442 0
M  V30 568 C 54.4356 3.39443 1.1961 0
M  V30 569 C 54.0436 4.47774 0.142381 0
M  V30 570 C 55.7876 3.82094 1.84944 0
M  V30 571 C 53.6946 5.87162 0.706727 0
M  V30 572 H 52.6246 0.713368 0.244176 0
M  V30 573 H 55.2756 1.8323 -0.0994323 0
M  V30 574 H 53.6576 3.42313 1.99092 0
M  V30 575 H 54.8316 4.56469 -0.630296 0
M  V30 576 H 53.1466 4.14352 -0.412446 0
M  V30 577 H 55.7436 4.83591 2.2813 0
M  V30 578 H 56.0866 3.17386 2.69392 0
M  V30 579 H 56.6196 3.81665 1.12145 0
M  V30 580 H 53.3586 6.55424 -0.0997178 0
M  V30 581 H 52.8786 5.82064 1.44779 0
M  V30 582 H 54.5576 6.35866 1.19514 0
M  V30 583 N 54.6897 -0.239769 1.55765 0
M  V30 584 C 55.6197 -1.30052 1.9393 0
M  V30 585 C 56.6007 -1.49839 0.805132 0
M  V30 586 O 57.7857 -1.62328 1.06599 0
M  V30 587 C 54.9157 -2.65391 2.2402 0
M  V30 588 C 53.8697 -2.60289 3.39755 0
M  V30 589 C 53.1957 -3.99489 3.55405 0
M  V30 590 C 54.4957 -2.16654 4.75246 0
M  V30 591 H 56.1897 -0.983573 2.82783 0
M  V30 592 H 53.7357 -0.471701 1.36055 0
M  V30 593 H 55.6887 -3.3974 2.49308 0
M  V30 594 H 54.4127 -2.98736 1.32 0
M  V30 595 H 53.0717 -1.88398 3.14487 0
M  V30 596 H 52.7197 -4.30112 2.60793 0
M  V30 597 H 52.4197 -3.96962 4.33238 0
M  V30 598 H 53.9437 -4.75528 3.83022 0
M  V30 599 H 55.3577 -2.80737 4.99859 0
M  V30 600 H 53.7547 -2.25223 5.56232 0
M  V30 601 H 54.8247 -1.11835 4.71827 0
M  V30 602 N 56.1678 -1.49265 -0.50573 0
M  V30 603 C 57.0998 -1.617 -1.62437 0
M  V30 604 C 58.1128 -0.499924 -1.54934 0
M  V30 605 O 59.3018 -0.771785 -1.60953 0
M  V30 606 C 56.4018 -1.5533 -3.01207 0
M  V30 607 C 55.5748 -2.8249 -3.33943 0
M  V30 608 C 54.6338 -2.69238 -4.52103 0
M  V30 609 O 53.6598 -3.43167 -4.5412 0
M  V30 610 N 54.8618 -1.80468 -5.51735 0
M  V30 611 H 57.6268 -2.58177 -1.52199 0
M  V30 612 H 55.1878 -1.46294 -0.693511 0
M  V30 613 H 57.1798 -1.44125 -3.78167 0
M  V30 614 H 55.7498 -0.667297 -3.05395 0
M  V30 615 H 54.9698 -3.08081 -2.45926 0
M  V30 616 H 56.2578 -3.66802 -3.5261 0
M  V30 617 H 55.6558 -1.19653 -5.52901 0
M  V30 618 H 54.2128 -1.75188 -6.27816 0
M  V30 619 N 57.6459 0.756429 -1.3826 0
M  V30 620 C 58.6089 1.85176 -1.35065 0
M  V30 621 C 59.6089 1.58818 -0.251703 0
M  V30 622 O 60.7989 1.66615 -0.508433 0
M  V30 623 C 57.9309 3.22596 -1.10201 0
M  V30 624 H 59.1239 1.89417 -2.3251 0
M  V30 625 H 56.6769 0.95783 -1.23512 0
M  V30 626 H 57.4119 3.24025 -0.133504 0
M  V30 627 H 57.1969 3.43122 -1.89762 0
M  V30 628 H 58.6869 4.02673 -1.10654 0
M  V30 629 N 59.124 1.23083 0.984299 0
M  V30 630 C 60.401 0.9689 1.69917 0
M  V30 631 C 60.781 -0.513604 2.04757 0
M  V30 632 O 60.129 -1.48383 1.73767 0
M  V30 633 C 60.339 1.87518 2.94343 0
M  V30 634 C 61.687 2.13636 3.6694 0
M  V30 635 O 62.711 1.85036 3.04368 0
M  V30 636 O 61.57 2.62119 4.79537 0
M  V30 637 H 58.664 0.365095 0.742048 0
M  V30 638 H 61.21 1.34107 1.03987 0
M  V30 639 H 59.982 2.87756 2.65164 0
M  V30 640 H 59.605 1.50514 3.6801 0
M  V30 641 N 60.6021 -1.18246 1.0419 0
M  V30 642 C 61.5321 -2.24127 0.654914 0
M  V30 643 C 62.5131 -1.66617 -0.342451 0
M  V30 644 O 63.6981 -1.92924 -0.222277 0
M  V30 645 C 60.8281 -3.47295 0.0183757 0
M  V30 646 C 59.7821 -4.17563 0.939414 0
M  V30 647 C 59.1081 -5.34438 0.167286 0
M  V30 648 C 60.4081 -4.70917 2.25908 0
M  V30 649 H 62.1021 -2.56753 1.54007 0
M  V30 650 H 59.6481 -1.23414 0.74195 0
M  V30 651 H 61.6011 -4.20572 -0.264082 0
M  V30 652 H 60.3251 -3.13907 -0.901664 0
M  V30 653 H 58.9841 -3.46186 1.20628 0
M  V30 654 H 58.6321 -4.97298 -0.7552 0
M  V30 655 H 58.3321 -5.82388 0.780901 0
M  V30 656 H 59.8561 -6.10504 -0.108125 0
M  V30 657 H 61.2701 -5.35882 2.03724 0
M  V30 658 H 59.6671 -5.29406 2.82577 0
M  V30 659 H 60.7371 -3.88272 2.9047 0
M  V30 660 N 62.0802 -0.821533 -1.34494 0
M  V30 661 C 63.0122 -0.199946 -2.28326 0
M  V30 662 C 64.0252 0.609377 -1.50965 0
M  V30 663 O 65.2142 0.439285 -1.7301 0
M  V30 664 C 62.3142 0.738431 -3.30757 0
M  V30 665 C 61.4872 -0.0277632 -4.37391 0
M  V30 666 C 60.5462 0.831332 -5.19591 0
M  V30 667 O 59.5722 0.276822 -5.68526 0
M  V30 668 N 60.7742 2.15132 -5.39165 0
M  V30 669 H 63.5392 -1.00609 -2.82308 0
M  V30 670 H 61.1002 -0.678366 -1.47003 0
M  V30 671 H 63.0922 1.31773 -3.82646 0
M  V30 672 H 61.6622 1.44533 -2.7718 0
M  V30 673 H 60.8822 -0.788359 -3.86236 0
M  V30 674 H 62.1702 -0.555251 -5.05761 0
M  V30 675 H 61.5682 2.62559 -5.01078 0
M  V30 676 H 60.1252 2.6795 -5.94177 0
M  V30 677 N 63.5583 1.46682 -0.576371 0
M  V30 678 C 64.5063 2.31953 0.17335 0
M  V30 679 C 65.5003 1.44098 0.89062 0
M  V30 680 O 66.7063 1.60759 0.809728 0
M  V30 681 H 63.0813 0.748273 0.0747727 0
M  V30 682 H 65.0523 2.93007 -0.564738 0
M  V30 683 C 63.8013 3.27142 1.17786 0
M  V30 684 H 63.1243 3.94719 0.635361 0
M  V30 685 H 64.5643 3.896 1.67296 0
M  V30 686 C 63.0233 2.52036 2.23561 0
M  V30 687 O 63.5533 2.27877 3.3081 0
M  V30 688 N 61.7593 2.12709 1.97998 0
M  V30 689 H 61.3063 2.32557 1.10792 0
M  V30 690 H 61.2643 1.62776 2.68982 0
M  V30 691 N 65.0364 0.313813 1.54444 0
M  V30 692 C 66.2844 -0.291099 1.99993 0
M  V30 693 C 66.6054 -1.53418 1.20366 0
M  V30 694 O 65.8754 -1.93544 0.302927 0
M  V30 695 H 64.4554 -0.110552 0.738774 0
M  V30 696 H 67.1174 0.428106 1.9014 0
M  V30 697 H 66.2134 -0.554268 3.07139 0
M  V30 698 N 66.5145 -1.57545 0.0417849 0
M  V30 699 C 67.4445 -2.14009 -0.933929 0
M  V30 700 C 68.4255 -1.05938 -1.33083 0
M  V30 701 O 69.6105 -1.33833 -1.40721 0
M  V30 702 C 66.7405 -2.67747 -2.21199 0
M  V30 703 C 65.6945 -3.80718 -1.95544 0
M  V30 704 C 65.0205 -4.20935 -3.29724 0
M  V30 705 C 66.3205 -5.06258 -1.28452 0
M  V30 706 H 68.0145 -2.95788 -0.463645 0
M  V30 707 H 65.5605 -1.42285 -0.221573 0
M  V30 708 H 67.5135 -3.05886 -2.89848 0
M  V30 709 H 66.2375 -1.83147 -2.70416 0
M  V30 710 H 64.8965 -3.43037 -1.2931 0
M  V30 711 H 64.5445 -3.33298 -3.76724 0
M  V30 712 H 64.2445 -4.9707 -3.13361 0
M  V30 713 H 65.7685 -4.61666 -3.9962 0
M  V30 714 H 67.1825 -5.41903 -1.8712 0
M  V30 715 H 65.5795 -5.87475 -1.22445 0
M  V30 716 H 66.6495 -4.84207 -0.259219 0
M  V30 717 N 67.9926 0.231505 -1.5589 0
M  V30 718 C 68.9406 1.30649 -1.92441 0
M  V30 719 C 69.9346 1.49037 -0.805254 0
M  V30 720 O 71.1406 1.50329 -0.990007 0
M  V30 721 H 67.5156 0.437812 -0.611412 0
M  V30 722 H 69.4866 0.970973 -2.82161 0
M  V30 723 C 68.2356 2.65179 -2.24889 0
M  V30 724 H 67.5586 2.51835 -3.10514 0
M  V30 725 H 68.9986 3.39234 -2.54355 0
M  V30 726 C 67.4576 3.19439 -1.07054 0
M  V30 727 O 67.9876 4.00371 -0.326499 0
M  V30 728 N 66.1936 2.77675 -0.85703 0
M  V30 729 H 65.7406 2.11969 -1.46379 0
M  V30 730 H 65.6986 3.14321 -0.0703223 0
M  V30 731 N 69.4707 1.49531 0.497807 0
M  V30 732 C 70.4177 1.66436 1.59899 0
M  V30 733 C 71.3877 0.505793 1.58212 0
M  V30 734 O 72.5727 0.733202 1.7615 0
M  V30 735 C 69.7127 1.7399 2.98029 0
M  V30 736 C 68.8257 3.01172 3.09708 0
M  V30 737 C 67.9607 2.99686 4.38591 0
M  V30 738 C 66.9997 4.21434 4.43914 0
M  V30 739 N 66.1367 4.1784 5.64229 0
M  V30 740 H 70.9767 2.60459 1.44793 0
M  V30 741 H 68.5137 1.29137 0.704423 0
M  V30 742 H 70.4717 1.76352 3.78095 0
M  V30 743 H 69.1017 0.834301 3.11832 0
M  V30 744 H 68.1537 3.08408 2.22685 0
M  V30 745 H 69.4657 3.91165 3.09502 0
M  V30 746 H 68.6197 3.00628 5.2698 0
M  V30 747 H 67.3587 2.07477 4.41367 0
M  V30 748 H 66.3637 4.20733 3.53926 0
M  V30 749 H 67.5887 5.14839 4.42851 0
M  V30 750 H 65.5347 3.28469 5.67841 0
M  V30 751 H 65.4517 5.01571 5.65652 0
M  V30 752 H 66.7197 4.22889 6.54817 0
M  V30 753 N 70.9488 -0.749086 1.3866 0
M  V30 754 C 72.1888 -1.52112 1.36534 0
M  V30 755 C 72.5528 -1.91951 -0.0432316 0
M  V30 756 O 73.7538 -2.68132 -0.189396 0
M  V30 757 C 72.0248 -2.73704 2.29828 0
M  V30 758 S 73.5838 -3.63519 2.45763 0
M  V30 759 H 70.4018 -0.520482 0.484375 0
M  V30 760 H 73.0038 -0.878963 1.74627 0
M  V30 761 H 71.7078 -2.42552 3.31054 0
M  V30 762 H 71.2388 -3.4286 1.929 0
M  V30 763 H 73.2538 -4.66712 1.68505 0
M  V30 764 N 72.4269 -1.23603 -0.977757 0
M  V30 765 C 73.3369 -1.03632 -2.1047 0
M  V30 766 C 74.3529 0.0199435 -1.73989 0
M  V30 767 O 75.5289 -0.176076 -2.00629 0
M  V30 768 C 72.5939 -0.63276 -3.40877 0
M  V30 769 C 71.6549 -1.76437 -3.91367 0
M  V30 770 C 70.8879 -1.37997 -5.15551 0
M  V30 771 O 71.1109 -0.265357 -5.69782 0
M  V30 772 O 70.0449 -2.20201 -5.60174 0
M  V30 773 H 73.8709 -1.98086 -2.30208 0
M  V30 774 H 71.4559 -1.02332 -1.08851 0
M  V30 775 H 73.3379 -0.418761 -4.19314 0
M  V30 776 H 72.0129 0.282754 -3.22463 0
M  V30 777 H 70.9199 -2.03304 -3.14036 0
M  V30 778 H 72.2529 -2.6583 -4.14241 0
M  V30 779 N 73.905 1.17692 -1.04816 0
M  V30 780 C 75.151 1.88137 -0.75711 0
M  V30 781 C 75.484 1.80604 0.713841 0
M  V30 782 O 74.759 1.21146 1.52164 0
M  V30 783 C 75.042 3.38318 -1.2334 0
M  V30 784 C 74.895 3.54622 -2.76701 0
M  V30 785 C 76.214 4.32214 -0.829415 0
M  V30 786 H 73.333 0.683163 -0.27651 0
M  V30 787 H 75.975 1.38424 -1.30149 0
M  V30 788 H 74.125 3.80787 -0.770286 0
M  V30 789 H 75.797 3.21194 -3.31107 0
M  V30 790 H 74.04 2.97026 -3.16161 0
M  V30 791 H 74.711 4.60028 -3.05088 0
M  V30 792 H 77.187 3.97565 -1.22805 0
M  V30 793 H 76.063 5.35838 -1.19033 0
M  V30 794 H 76.324 4.41294 0.266891 0
M  V30 795 N 75.3831 0.828654 1.34056 0
M  V30 796 C 76.6081 0.431637 2.02859 0
M  V30 797 C 77.0331 -0.956339 1.61975 0
M  V30 798 O 76.3911 -1.62338 0.807228 0
M  V30 799 C 76.4391 0.548323 3.56407 0
M  V30 800 O 75.5431 -0.429556 4.10157 0
M  V30 801 H 74.8841 0.176886 0.640006 0
M  V30 802 H 77.4141 1.12066 1.71179 0
M  V30 803 H 77.4241 0.426196 4.05768 0
M  V30 804 H 76.0991 1.5606 3.8551 0
M  V30 805 H 74.6761 -0.265836 3.71951 0
M  V30 806 N 76.8612 -1.46375 0.584142 0
M  V30 807 C 77.8112 -2.27371 -0.169232 0
M  V30 808 C 78.7952 -1.35955 -0.860523 0
M  V30 809 O 79.9872 -1.60119 -0.754382 0
M  V30 810 C 77.1162 -3.22334 -1.18134 0
M  V30 811 C 76.2022 -4.21235 -0.492088 0
M  V30 812 N 76.5932 -5.03766 0.453129 0
M  V30 813 C 74.8912 -4.39773 -0.742652 0
M  V30 814 C 75.5922 -5.75366 0.85609 0
M  V30 815 N 74.5682 -5.43214 0.204926 0
M  V30 816 H 78.3702 -2.88572 0.557097 0
M  V30 817 H 75.8842 -1.57242 0.406042 0
M  V30 818 H 77.8812 -3.79071 -1.73525 0
M  V30 819 H 76.5412 -2.62693 -1.90847 0
M  V30 820 H 77.5522 -5.11227 0.828723 0
M  V30 821 H 74.2292 -3.91279 -1.45625 0
M  V30 822 H 75.6192 -6.5172 1.63434 0
M  V30 823 N 78.3393 -0.321999 -1.54275 0
M  V30 824 C 79.7553 0.0306999 -1.5957 0
M  V30 825 C 79.9553 1.50614 -1.33857 0
M  V30 826 O 79.0113 2.2619 -1.12223 0
M  V30 827 C 80.3243 -0.386122 -2.98211 0
M  V30 828 C 81.8723 -0.336647 -3.11184 0
M  V30 829 C 82.3473 -0.728607 -4.52167 0
M  V30 830 N 83.8383 -0.681952 -4.58152 0
M  V30 831 C 84.5733 -0.957449 -5.6535 0
M  V30 832 N 84.0693 -1.3 -6.80494 0
M  V30 833 N 85.8623 -0.883113 -5.55119 0
M  V30 834 H 78.0133 -1.28332 -1.69247 0
M  V30 835 H 80.2763 -0.521716 -0.791528 0
M  V30 836 H 79.9823 -1.41404 -3.22022 0
M  V30 837 H 79.8563 0.249662 -3.76373 0
M  V30 838 H 82.2433 0.682058 -2.8711 0
M  V30 839 H 82.3243 -1.00734 -2.3513 0
M  V30 840 H 81.9683 -1.74522 -4.76974 0
M  V30 841 H 81.8983 -0.0356152 -5.26588 0
M  V30 842 H 84.3893 -0.428985 -3.75457 0
M  V30 843 H 84.7023 -1.49563 -7.58189 0
M  V30 844 H 83.0473 -1.33824 -6.81994 0
M  V30 845 H 86.2383 -0.615001 -4.64042 0
M  V30 846 H 86.4113 -1.10118 -6.38575 0
M  V30 847 N 79.8174 1.5752 -0.0501392 0
M  V30 848 C 81.2334 1.56631 0.306402 0
M  V30 849 C 81.4334 1.0577 1.71508 0
M  V30 850 O 80.4894 0.713837 2.422 0
M  V30 851 C 81.8024 3.00393 0.135811 0
M  V30 852 C 83.3504 3.12315 0.206993 0
M  V30 853 C 83.8254 4.57954 0.064944 0
M  V30 854 N 85.3164 4.63041 0.121254 0
M  V30 855 C 86.0514 5.73389 0.0354381 0
M  V30 856 N 85.5474 6.92724 -0.102666 0
M  V30 857 N 87.3404 5.62026 0.090946 0
M  V30 858 H 79.4914 1.88903 -0.971046 0
M  V30 859 H 81.7544 0.869876 -0.376855 0
M  V30 860 H 81.4604 3.41635 -0.835384 0
M  V30 861 H 81.3344 3.66373 0.897275 0
M  V30 862 H 83.7214 2.70973 1.16866 0
M  V30 863 H 83.8024 2.49016 -0.585208 0
M  V30 864 H 83.4464 4.99981 -0.893394 0
M  V30 865 H 83.3764 5.19258 0.876277 0
M  V30 866 H 85.8674 3.77216 0.227284 0
M  V30 867 H 86.1804 7.72633 -0.160882 0
M  V30 868 H 84.5254 6.94864 -0.137737 0
M  V30 869 H 87.7164 4.67684 0.197388 0
M  V30 870 H 87.8894 6.47997 0.0206089 0
M  V30 871 N 81.2955 -0.223234 1.56011 0
M  V30 872 C 82.2585 -1.26014 1.9145 0
M  V30 873 C 83.2585 -1.3989 0.792937 0
M  V30 874 O 84.4485 -1.38184 1.0607 0
M  V30 875 C 81.5805 -2.63422 2.16383 0
M  V30 876 H 82.7735 -0.95796 2.84189 0
M  V30 877 H 80.3265 -0.463576 1.49267 0
M  V30 878 H 81.0615 -2.98741 1.2619 0
M  V30 879 H 80.8465 -2.54728 2.98088 0
M  V30 880 H 82.3365 -3.38249 2.44903 0
M  V30 881 N 82.7736 -1.49793 -0.48987 0
M  V30 882 C 84.0206 -1.59841 -1.24327 0
M  V30 883 C 84.3486 -0.290135 -1.92324 0
M  V30 884 O 83.6036 0.722749 -1.81865 0
M  V30 885 C 83.9026 -2.71488 -2.32441 0
M  V30 886 C 83.5686 -4.12614 -1.81826 0
M  V30 887 C 82.2306 -4.51017 -1.67742 0
M  V30 888 C 84.5826 -5.00892 -1.4407 0
M  V30 889 C 81.9106 -5.75459 -1.14297 0
M  V30 890 C 84.2626 -6.25863 -0.920742 0
M  V30 891 C 82.9266 -6.63086 -0.766383 0
M  V30 892 H 82.1966 -0.584899 -0.454944 0
M  V30 893 H 84.8436 -1.83663 -0.542215 0
M  V30 894 H 83.1486 -2.4168 -3.0838 0
M  V30 895 H 84.8456 -2.76469 -2.90458 0
M  V30 896 H 81.4356 -3.82307 -1.93751 0
M  V30 897 H 85.6196 -4.7187 -1.53794 0
M  V30 898 H 80.8756 -6.02989 -1.01068 0
M  V30 899 H 85.0496 -6.9364 -0.619448 0
M  V30 900 H 82.6766 -7.59393 -0.350083 0
M  V30 901 N 84.2517 0.741722 -1.39055 0
M  V30 902 C 85.2017 1.84661 -1.33732 0
M  V30 903 C 86.1857 1.59397 -0.219401 0
M  V30 904 O 87.3777 1.71015 -0.456375 0
M  V30 905 C 84.5067 3.22512 -1.17647 0
M  V30 906 C 83.5927 3.53628 -2.34112 0
M  V30 907 N 83.9837 3.55723 -3.59576 0
M  V30 908 C 82.2817 3.83956 -2.26923 0
M  V30 909 C 82.9827 3.84443 -4.36553 0
M  V30 910 N 81.9587 4.01877 -3.66055 0
M  V30 911 H 85.7607 1.84576 -2.28711 0
M  V30 912 H 83.2747 0.939647 -1.32455 0
M  V30 913 H 85.2717 4.01597 -1.11917 0
M  V30 914 H 83.9317 3.2384 -0.236124 0
M  V30 915 H 84.9427 3.37196 -3.93089 0
M  V30 916 H 81.6197 3.92929 -1.41113 0
M  V30 917 H 83.0097 3.92588 -5.45274 0
M  V30 918 N 85.7298 1.2412 0.971189 0
M  V30 919 C 86.9778 1.07668 1.71032 0
M  V30 920 C 87.2988 -0.385797 1.91146 0
M  V30 921 O 86.5688 -1.27569 1.4867 0
M  V30 922 H 85.1488 0.395429 0.633755 0
M  V30 923 H 87.8108 1.55984 1.16855 0
M  V30 924 H 86.9068 1.57195 2.69622 0
M  V30 925 N 87.2079 -1.17134 1.05439 0
M  V30 926 C 88.4539 -1.87979 0.776872 0
M  V30 927 C 88.8089 -1.7965 -0.688751 0
M  V30 928 O 88.1019 -1.19535 -1.4974 0
M  V30 929 C 88.2959 -3.36833 1.19491 0
M  V30 930 C 88.1249 -3.59653 2.69963 0
M  V30 931 C 86.8949 -3.76234 3.37307 0
M  V30 932 C 89.0929 -3.59091 3.68182 0
M  V30 933 N 87.0749 -3.86922 4.76618 0
M  V30 934 C 88.4459 -3.75659 4.93235 0
M  V30 935 C 90.5009 -3.42255 3.61616 0
M  V30 936 C 89.2039 -3.77133 6.12506 0
M  V30 937 C 91.2299 -3.45018 4.8033 0
M  V30 938 C 90.5919 -3.62096 6.04207 0
M  V30 939 H 86.6909 -0.705876 0.336546 0
M  V30 940 H 89.2749 -1.40602 1.34682 0
M  V30 941 H 87.4459 -3.82873 0.652884 0
M  V30 942 H 89.1779 -3.95305 0.866966 0
M  V30 943 H 85.9329 -3.76193 2.87708 0
M  V30 944 H 86.3569 -3.96055 5.49062 0
M  V30 945 H 90.9989 -3.27986 2.66805 0
M  V30 946 H 88.7169 -3.90186 7.07659 0
M  V30 947 H 92.3029 -3.33246 4.76905 0
M  V30 948 H 91.1829 -3.64142 6.94529 0
M  V30 949 N 88.686 -0.835752 -1.33615 0
M  V30 950 C 89.634 -0.255238 -2.31195 0
M  V30 951 C 90.628 0.61107 -1.57995 0
M  V30 952 O 91.834 0.500979 -1.72888 0
M  V30 953 H 88.209 -0.0638085 -0.749288 0
M  V30 954 H 90.18 -1.09283 -2.77669 0
M  V30 955 C 88.929 0.55754 -3.43201 0
M  V30 956 H 88.252 -0.0997553 -3.99676 0
M  V30 957 H 89.692 0.929622 -4.13683 0
M  V30 958 C 88.151 1.73515 -2.88781 0
M  V30 959 O 88.681 2.83376 -2.84712 0
M  V30 960 N 86.887 1.55603 -2.4543 0
M  V30 961 H 86.434 0.662354 -2.48939 0
M  V30 962 H 86.392 2.34545 -2.09371 0
M  V30 963 N 90.1641 1.46063 -0.591896 0
M  V30 964 C 91.0741 2.34192 0.13831 0
M  V30 965 C 92.0901 1.50305 0.876608 0
M  V30 966 O 93.2661 1.8315 0.837728 0
M  V30 967 C 90.3311 3.27656 1.13326 0
M  V30 968 C 89.3921 4.27445 0.39863 0
M  V30 969 C 88.6251 5.16443 1.34618 0
M  V30 970 O 88.8481 5.08553 2.58321 0
M  V30 971 O 87.7821 5.95843 0.851768 0
M  V30 972 H 91.6081 2.98002 -0.58552 0
M  V30 973 H 89.1931 1.45188 -0.352239 0
M  V30 974 H 91.0751 3.85291 1.70671 0
M  V30 975 H 89.7501 2.6643 1.83839 0
M  V30 976 H 88.6571 3.73471 -0.216895 0
M  V30 977 H 89.9901 4.91482 -0.265709 0
M  V30 978 N 91.6422 0.330177 1.54103 0
M  V30 979 C 92.8892 -0.270405 2.00686 0
M  V30 980 C 93.2172 -1.51621 1.21825 0
M  V30 981 O 92.4722 -1.93536 0.29025 0
M  V30 982 C 92.7712 -0.643134 3.51566 0
M  V30 983 C 92.4372 0.504251 4.48072 0
M  V30 984 C 91.0992 0.819163 4.74176 0
M  V30 985 C 93.4512 1.27465 5.05373 0
M  V30 986 C 90.7792 1.90708 5.5484 0
M  V30 987 C 93.1312 2.35271 5.87223 0
M  V30 988 C 91.7952 2.67336 6.11627 0
M  V30 989 H 91.0652 -0.0989482 0.734364 0
M  V30 990 H 93.7122 0.455324 1.86008 0
M  V30 991 H 92.0172 -1.44938 3.64006 0
M  V30 992 H 93.7142 -1.11949 3.85056 0
M  V30 993 H 90.3042 0.248733 4.27878 0
M  V30 994 H 94.4882 1.04462 4.85182 0
M  V30 995 H 89.7442 2.15991 5.71977 0
M  V30 996 H 93.9182 2.95405 6.30641 0
M  V30 997 H 91.5452 3.51763 6.73919 0
M  V30 998 N 93.1203 -1.57491 0.0584922 0
M  V30 999 C 94.3973 -1.84346 -0.653918 0
M  V30 1000 C 94.7773 -0.948355 -1.88599 0
M  V30 1001 O 94.1253 -0.0112403 -2.28497 0
M  V30 1002 C 94.3353 -3.34239 -1.00425 0
M  V30 1003 C 95.6833 -4.01431 -1.38342 0
M  V30 1004 O 96.7073 -3.38907 -1.09637 0
M  V30 1005 O 95.5663 -5.11683 -1.91943 0
M  V30 1006 H 92.6603 -0.761112 -0.323478 0
M  V30 1007 H 95.2063 -1.6947 0.0884125 0
M  V30 1008 H 93.9783 -3.91089 -0.128625 0
M  V30 1009 H 93.6013 -3.54329 -1.80378 0
M  V30 1010 N 94.5984 0.214957 -1.56127 0
M  V30 1011 C 95.8474 0.936451 -1.78643 0
M  V30 1012 C 96.1604 1.85237 -0.628229 0
M  V30 1013 O 97.3664 2.613 -0.737186 0
M  V30 1014 C 95.8224 1.7154 -3.16389 0
M  V30 1015 C 95.4304 0.845299 -4.39953 0
M  V30 1016 C 97.1744 2.42772 -3.48227 0
M  V30 1017 C 95.0814 1.62198 -5.68723 0
M  V30 1018 H 94.0114 0.353401 -0.666051 0
M  V30 1019 H 96.6624 0.190169 -1.82512 0
M  V30 1020 H 95.0444 2.50484 -3.06715 0
M  V30 1021 H 96.2184 0.0959353 -4.607 0
M  V30 1022 H 94.5334 0.244789 -4.1568 0
M  V30 1023 H 97.1304 3.01394 -4.41663 0
M  V30 1024 H 97.4734 3.15984 -2.71035 0
M  V30 1025 H 98.0064 1.70813 -3.5926 0
M  V30 1026 H 94.7454 0.933011 -6.48826 0
M  V30 1027 H 94.2654 2.34579 -5.52026 0
M  V30 1028 H 95.9444 2.18095 -6.09133 0
M  V30 1029 N 96.0765 1.50051 0.48192 0
M  V30 1030 C 97.3015 1.64508 1.26301 0
M  V30 1031 C 97.7265 0.323851 1.85291 0
M  V30 1032 O 97.0845 -0.710969 1.66778 0
M  V30 1033 C 97.1325 2.7305 2.35533 0
M  V30 1034 O 96.2365 2.3355 3.39895 0
M  V30 1035 H 95.5775 0.549978 0.372048 0
M  V30 1036 H 98.1075 1.9636 0.574786 0
M  V30 1037 H 98.1175 2.95799 2.8101 0
M  V30 1038 H 96.7925 3.68946 1.91967 0
M  V30 1039 H 95.3695 2.21205 3.00204 0
M  V30 1040 N 97.5546 -0.734337 1.39446 0
M  V30 1041 C 98.4646 -1.87879 1.40495 0
M  V30 1042 C 99.4806 -1.714 0.299672 0
M  V30 1043 O 100.657 -1.93991 0.541249 0
M  V30 1044 C 97.7216 -3.23477 1.24754 0
M  V30 1045 C 96.7826 -3.52344 2.45259 0
M  V30 1046 C 96.0156 -4.81473 2.30259 0
M  V30 1047 O 96.2386 -5.55237 1.30643 0
M  V30 1048 O 95.1726 -5.10254 3.19256 0
M  V30 1049 H 98.9986 -1.89949 2.36966 0
M  V30 1050 H 96.5836 -0.882243 1.20569 0
M  V30 1051 H 98.4656 -4.04509 1.18111 0
M  V30 1052 H 97.1406 -3.22176 0.313781 0
M  V30 1053 H 96.0476 -2.71396 2.57478 0
M  V30 1054 H 97.3806 -3.58426 3.37331 0
M  V30 1055 N 99.0327 -1.24633 -0.964593 0
M  V30 1056 C 100.31 -0.995809 -1.68354 0
M  V30 1057 C 100.69 0.480964 -2.05548 0
M  V30 1058 O 100.038 1.45599 -1.76105 0
M  V30 1059 C 100.248 -1.92177 -2.91323 0
M  V30 1060 C 101.596 -2.19446 -3.63495 0
M  V30 1061 O 102.62 -1.89855 -3.01386 0
M  V30 1062 O 101.479 -2.69714 -4.75307 0
M  V30 1063 H 98.5727 -0.376854 -0.736146 0
M  V30 1064 H 101.119 -1.35745 -1.0184 0
M  V30 1065 H 99.8907 -2.91938 -2.60553 0
M  V30 1066 H 99.5137 -1.56349 -3.65569 0
M  V30 1067 N 100.511 1.16574 -1.06058 0
M  V30 1068 C 101.421 2.2452 -0.680282 0
M  V30 1069 C 102.437 1.71348 0.302604 0
M  V30 1070 O 103.613 2.00822 0.152513 0
M  V30 1071 C 100.678 3.46629 -0.0700315 0
M  V30 1072 C 99.7388 4.14849 -1.10448 0
M  V30 1073 C 98.9718 5.31129 -0.523256 0
M  V30 1074 O 99.1948 5.66514 0.664709 0
M  V30 1075 O 98.1288 5.88526 -1.26179 0
M  V30 1076 H 101.955 2.59355 -1.58015 0
M  V30 1077 H 99.5398 1.24043 -0.832694 0
M  V30 1078 H 101.422 4.20543 0.268667 0
M  V30 1079 H 100.097 3.13573 0.803353 0
M  V30 1080 H 99.0038 3.42916 -1.49532 0
M  V30 1081 H 100.337 4.51954 -1.94931 0
M  V30 1082 N 101.989 0.842826 1.3317 0
M  V30 1083 C 103.4 0.496651 1.79973 0
M  V30 1084 C 103.751 -0.984641 1.69703 0
M  V30 1085 O 102.876 -1.76743 1.24863 0
M  V30 1086 C 103.471 0.894727 3.26772 0
M  V30 1087 C 102.03 0.600629 3.71577 0
M  V30 1088 C 101.177 1.10091 2.5451 0
M  V30 1089 H 104.128 1.03116 1.20635 0
M  V30 1090 H 104.149 0.206347 3.7994 0
M  V30 1091 H 103.661 1.97287 3.34215 0
M  V30 1092 H 101.762 -0.467284 3.69658 0
M  V30 1093 H 101.875 1.15863 4.64879 0
M  V30 1094 H 100.239 0.52162 2.49301 0
M  V30 1095 H 101.022 2.18591 2.64713 0
M  V30 1096 N 103.467 -1.45747 0.599634 0
M  V30 1097 C 104.397 -2.33235 -0.111306 0
M  V30 1098 C 105.378 -1.46359 -0.866781 0
M  V30 1099 O 106.563 -1.75146 -0.838904 0
M  V30 1100 C 103.693 -3.28932 -1.11451 0
M  V30 1101 C 102.647 -4.25381 -0.472772 0
M  V30 1102 C 101.973 -5.1071 -1.58365 0
M  V30 1103 C 103.273 -5.18831 0.600948 0
M  V30 1104 H 104.967 -2.92927 0.61919 0
M  V30 1105 H 102.513 -1.40857 0.299215 0
M  V30 1106 H 104.466 -3.89002 -1.62036 0
M  V30 1107 H 103.19 -2.67381 -1.8755 0
M  V30 1108 H 101.849 -3.66598 0.0121472 0
M  V30 1109 H 101.497 -4.45533 -2.33473 0
M  V30 1110 H 101.197 -5.7604 -1.15982 0
M  V30 1111 H 102.721 -5.73647 -2.09194 0
M  V30 1112 H 104.135 -5.73019 0.179491 0
M  V30 1113 H 102.532 -5.92595 0.946076 0
M  V30 1114 H 103.602 -4.6174 1.48068 0
M  V30 1115 N 104.945 -0.338344 -1.53925 0
M  V30 1116 C 106.191 0.252842 -2.01822 0
M  V30 1117 C 106.546 1.48612 -1.22197 0
M  V30 1118 O 105.839 1.89238 -0.299892 0
M  V30 1119 C 106.033 0.62448 -3.51902 0
M  V30 1120 C 105.862 -0.571235 -4.46057 0
M  V30 1121 C 104.632 -1.07493 -4.93734 0
M  V30 1122 C 106.83 -1.42807 -4.94076 0
M  V30 1123 N 104.812 -2.23351 -5.71828 0
M  V30 1124 C 106.183 -2.43362 -5.70241 0
M  V30 1125 C 108.238 -1.45412 -4.76193 0
M  V30 1126 C 106.941 -3.46346 -6.30426 0
M  V30 1127 C 108.967 -2.47274 -5.37224 0
M  V30 1128 C 108.329 -3.46555 -6.13253 0
M  V30 1129 H 104.428 0.0559669 -0.779995 0
M  V30 1130 H 107.012 -0.476732 -1.88773 0
M  V30 1131 H 105.183 1.32317 -3.65167 0
M  V30 1132 H 106.915 1.19841 -3.86549 0
M  V30 1133 H 103.67 -0.643848 -4.69203 0
M  V30 1134 H 104.094 -2.81834 -6.15548 0
M  V30 1135 H 108.736 -0.700171 -4.16962 0
M  V30 1136 H 106.454 -4.22638 -6.88769 0
M  V30 1137 H 110.04 -2.50109 -5.25297 0
M  V30 1138 H 108.92 -4.24083 -6.59638 0
M  V30 1139 N 106.423 1.57458 -0.0668435 0
M  V30 1140 C 107.37 2.12439 0.902122 0
M  V30 1141 C 108.34 1.03565 1.2986 0
M  V30 1142 O 109.525 1.312 1.38532 0
M  V30 1143 C 106.665 2.6865 2.16614 0
M  V30 1144 C 105.778 3.91663 1.82274 0
M  V30 1145 C 104.913 4.36134 3.0325 0
M  V30 1146 C 103.952 5.51808 2.64904 0
M  V30 1147 N 103.089 5.9126 3.78624 0
M  V30 1148 H 107.929 2.94934 0.426382 0
M  V30 1149 H 105.466 1.4575 0.198819 0
M  V30 1150 H 107.424 2.99346 2.90599 0
M  V30 1151 H 106.054 1.88928 2.61737 0
M  V30 1152 H 105.106 3.6746 0.983719 0
M  V30 1153 H 106.418 4.75693 1.50059 0
M  V30 1154 H 105.572 4.68465 3.85519 0
M  V30 1155 H 104.311 3.50948 3.38655 0
M  V30 1156 H 103.316 5.19133 1.81055 0
M  V30 1157 H 104.541 6.38722 2.30675 0
M  V30 1158 H 102.487 5.09024 4.138 0
M  V30 1159 H 102.404 6.70018 3.5016 0
M  V30 1160 H 103.672 6.28212 4.61486 0
M  V30 1161 N 107.901 -0.206675 1.56239 0
M  V30 1162 C 108.848 -1.25617 1.93621 0
M  V30 1163 C 109.818 -1.45824 0.795274 0
M  V30 1164 O 111.003 -1.59148 1.05245 0
M  V30 1165 C 108.143 -2.59839 2.27107 0
M  V30 1166 C 107.256 -2.47308 3.54207 0
M  V30 1167 C 106.391 -3.74155 3.7707 0
M  V30 1168 C 105.43 -3.56407 4.97635 0
M  V30 1169 N 104.567 -4.75238 5.1681 0
M  V30 1170 H 109.407 -0.930383 2.83104 0
M  V30 1171 H 106.944 -0.448065 1.4011 0
M  V30 1172 H 108.902 -3.38021 2.44535 0
M  V30 1173 H 107.532 -2.90485 1.40778 0
M  V30 1174 H 106.584 -1.60483 3.4489 0
M  V30 1175 H 107.896 -2.30122 4.42544 0
M  V30 1176 H 107.05 -4.60778 3.94675 0
M  V30 1177 H 105.789 -3.94282 2.87042 0
M  V30 1178 H 104.794 -2.68168 4.79964 0
M  V30 1179 H 106.019 -3.37736 5.89161 0
M  V30 1180 H 103.965 -4.95651 4.29728 0
M  V30 1181 H 103.882 -4.60835 5.99306 0
M  V30 1182 H 105.15 -5.63246 5.38864 0
M  V30 1183 N 109.379 -1.50304 -0.473955 0
M  V30 1184 C 110.609 -1.64663 -1.24778 0
M  V30 1185 C 111.017 -0.328174 -1.86332 0
M  V30 1186 O 110.36 0.699536 -1.69859 0
M  V30 1187 C 110.422 -2.6778 -2.39863 0
M  V30 1188 C 110.086 -4.11413 -1.98969 0
M  V30 1189 C 111.083 -4.97372 -1.51385 0
M  V30 1190 C 108.768 -4.57312 -2.07777 0
M  V30 1191 C 110.762 -6.27277 -1.13148 0
M  V30 1192 C 108.449 -5.87223 -1.69152 0
M  V30 1193 C 109.447 -6.72031 -1.21915 0
M  V30 1194 O 109.135 -7.99518 -0.838237 0
M  V30 1195 H 108.867 -0.556602 -0.383627 0
M  V30 1196 H 111.421 -1.9726 -0.572491 0
M  V30 1197 H 109.651 -2.30419 -3.10554 0
M  V30 1198 H 111.34 -2.71388 -3.01833 0
M  V30 1199 H 112.106 -4.63128 -1.44004 0
M  V30 1200 H 107.985 -3.91449 -2.43493 0
M  V30 1201 H 111.529 -6.93425 -0.762077 0
M  V30 1202 H 107.426 -6.20989 -1.76191 0
M  V30 1203 H 108.194 -8.12764 -0.967339 0
M  V30 1204 N 110.857 0.726932 -1.39834 0
M  V30 1205 C 112.106 1.48214 -1.36805 0
M  V30 1206 C 112.419 1.95576 0.0305291 0
M  V30 1207 O 113.625 2.7088 0.183417 0
M  V30 1208 C 112.081 2.67854 -2.40379 0
M  V30 1209 C 111.689 2.27408 -3.85992 0
M  V30 1210 C 113.433 3.45641 -2.46439 0
M  V30 1211 C 111.34 3.43819 -4.81189 0
M  V30 1212 H 110.27 0.556606 -0.508631 0
M  V30 1213 H 112.921 0.792216 -1.65518 0
M  V30 1214 H 111.303 3.3896 -2.04749 0
M  V30 1215 H 112.477 1.63795 -4.30706 0
M  V30 1216 H 110.792 1.62692 -3.83302 0
M  V30 1217 H 113.389 4.32244 -3.14753 0
M  V30 1218 H 113.732 3.88669 -1.49139 0
M  V30 1219 H 114.265 2.8157 -2.81004 0
M  V30 1220 H 111.004 3.05834 -5.79781 0
M  V30 1221 H 110.524 4.06385 -4.41148 0
M  V30 1222 H 112.203 4.10043 -5.00474 0
M  V30 1223 N 112.336 1.25143 0.95797 0
M  V30 1224 C 113.561 1.12521 1.74223 0
M  V30 1225 C 113.986 -0.317402 1.85403 0
M  V30 1226 O 113.344 -1.2299 1.33204 0
M  V30 1227 C 113.392 1.78062 3.1357 0
M  V30 1228 O 112.496 1.058 3.98598 0
M  V30 1229 H 111.837 0.39304 0.535178 0
M  V30 1230 H 114.367 1.65641 1.201 0
M  V30 1231 H 114.377 1.84213 3.64046 0
M  V30 1232 H 113.052 2.83021 3.04749 0
M  V30 1233 H 111.629 1.07506 3.57067 0
M  V30 1234 N 113.814 -1.1601 1.06675 0
M  V30 1235 C 114.746 -2.20115 0.638921 0
M  V30 1236 C 115.759 -1.59916 -0.305057 0
M  V30 1237 O 116.948 -1.78245 -0.0954446 0
M  V30 1238 C 114.048 -3.38798 -0.0830083 0
M  V30 1239 C 113.221 -4.2855 0.875426 0
M  V30 1240 C 112.28 -5.25849 0.192042 0
M  V30 1241 O 111.306 -5.63102 0.830921 0
M  V30 1242 N 112.508 -5.70648 -1.06493 0
M  V30 1243 H 115.273 -2.57439 1.53444 0
M  V30 1244 H 112.834 -1.31057 0.950557 0
M  V30 1245 H 114.826 -4.00936 -0.550685 0
M  V30 1246 H 113.396 -2.99947 -0.880386 0
M  V30 1247 H 112.616 -3.63617 1.52238 0
M  V30 1248 H 113.904 -4.85393 1.52548 0
M  V30 1249 H 113.302 -5.42482 -1.60405 0
M  V30 1250 H 111.859 -6.34859 -1.47641 0
M  V30 1251 N 115.292 -0.849877 -1.32721 0
M  V30 1252 C 116.539 -0.450923 -1.97416 0
M  V30 1253 C 116.867 0.992376 -1.67279 0
M  V30 1254 O 116.122 1.71048 -0.950845 0
M  V30 1255 C 116.421 -0.631272 -3.51781 0
M  V30 1256 C 116.087 -2.04432 -4.01894 0
M  V30 1257 C 114.749 -2.4308 -4.1529 0
M  V30 1258 C 117.101 -2.96679 -4.28522 0
M  V30 1259 C 114.429 -3.73257 -4.52654 0
M  V30 1260 C 116.781 -4.26349 -4.67343 0
M  V30 1261 C 115.445 -4.64939 -4.78945 0
M  V30 1262 H 114.715 -0.165004 -0.722395 0
M  V30 1263 H 117.362 -1.07901 -1.58207 0
M  V30 1264 H 115.667 0.0800767 -3.91718 0
M  V30 1265 H 117.364 -0.302709 -3.99856 0
M  V30 1266 H 113.954 -1.73419 -3.91949 0
M  V30 1267 H 118.138 -2.68054 -4.17685 0
M  V30 1268 H 113.394 -4.02946 -4.59831 0
M  V30 1269 H 117.568 -4.97895 -4.86902 0
M  V30 1270 H 115.195 -5.65855 -5.07654 0
M  V30 1271 N 116.77 1.45427 -0.607355 0
M  V30 1272 C 117.717 2.3053 0.111625 0
M  V30 1273 C 118.687 1.4209 0.860216 0
M  V30 1274 O 119.872 1.71019 0.845998 0
M  V30 1275 C 117.012 3.26992 1.10319 0
M  V30 1276 C 116.125 4.30535 0.355493 0
M  V30 1277 C 115.26 5.14105 1.33676 0
M  V30 1278 C 114.299 6.09376 0.576862 0
M  V30 1279 N 113.436 6.85727 1.5074 0
M  V30 1280 H 118.276 2.91477 -0.620093 0
M  V30 1281 H 115.813 1.43631 -0.317594 0
M  V30 1282 H 117.771 3.81385 1.6912 0
M  V30 1283 H 116.401 2.67799 1.80232 0
M  V30 1284 H 115.453 3.78805 -0.348023 0
M  V30 1285 H 116.765 4.98235 -0.237423 0
M  V30 1286 H 115.919 5.72897 1.99684 0
M  V30 1287 H 114.658 4.46423 1.9636 0
M  V30 1288 H 113.663 5.49715 -0.0968519 0
M  V30 1289 H 114.888 6.79085 -0.0449341 0
M  V30 1290 H 112.834 6.20735 2.12189 0
M  V30 1291 H 112.751 7.49778 0.967913 0
M  V30 1292 H 114.019 7.4906 2.15706 0
M  V30 1293 N 118.248 0.346503 1.53744 0
M  V30 1294 C 119.196 -0.52422 2.26616 0
M  V30 1295 C 120.19 -1.09948 1.28871 0
M  V30 1296 O 121.396 -1.04488 1.46568 0
M  V30 1297 H 117.771 -0.187743 0.728187 0
M  V30 1298 H 119.742 0.11239 2.98188 0
M  V30 1299 C 118.491 -1.66186 3.05414 0
M  V30 1300 H 117.814 -1.22848 3.80458 0
M  V30 1301 H 119.254 -2.24622 3.59612 0
M  V30 1302 C 117.713 -2.59302 2.1509 0
M  V30 1303 O 118.243 -3.61628 1.74895 0
M  V30 1304 N 116.449 -2.28055 1.8011 0
M  V30 1305 H 115.996 -1.44883 2.12994 0
M  V30 1306 H 115.954 -2.90615 1.19958 0
M  V30 1307 N 119.726 -1.57421 0.075193 0
M  V30 1308 C 121.137 -1.81021 -0.456964 0
M  V30 1309 C 121.488 -0.98936 -1.69429 0
M  V30 1310 O 120.613 -0.212865 -2.15351 0
M  V30 1311 C 121.208 -3.28329 -0.83581 0
M  V30 1312 C 119.767 -3.52764 -1.31281 0
M  V30 1313 C 118.914 -2.75676 -0.299648 0
M  V30 1314 H 121.865 -1.55822 0.300856 0
M  V30 1315 H 121.886 -3.40564 -1.69696 0
M  V30 1316 H 121.398 -3.88046 0.0649238 0
M  V30 1317 H 119.499 -2.98355 -2.23193 0
M  V30 1318 H 119.612 -4.61451 -1.28839 0
M  V30 1319 H 117.976 -2.42538 -0.777641 0
M  V30 1320 H 118.759 -3.38132 0.593417 0
M  V30 1321 N 121.204 0.198386 -1.56346 0
M  V30 1322 C 122.134 1.24865 -1.9731 0
M  V30 1323 C 123.115 1.47651 -0.844576 0
M  V30 1324 O 124.3 1.59444 -1.10866 0
M  V30 1325 C 121.43 2.59358 -2.30977 0
M  V30 1326 C 120.384 2.5119 -3.46537 0
M  V30 1327 C 119.71 3.89926 -3.65871 0
M  V30 1328 C 121.01 2.03977 -4.80823 0
M  V30 1329 H 122.704 0.908252 -2.85291 0
M  V30 1330 H 120.25 0.435462 -1.37258 0
M  V30 1331 H 122.203 3.33011 -2.58228 0
M  V30 1332 H 120.927 2.95132 -1.39874 0
M  V30 1333 H 119.586 1.79993 -3.19371 0
M  V30 1334 H 119.234 4.23046 -2.72105 0
M  V30 1335 H 118.934 3.85336 -4.4361 0
M  V30 1336 H 120.458 4.65205 -3.95495 0
M  V30 1337 H 121.872 2.67386 -5.07127 0
M  V30 1338 H 120.269 2.10397 -5.62008 0
M  V30 1339 H 121.339 0.992861 -4.74626 0
M  V30 1340 N 122.682 1.50554 0.465978 0
M  V30 1341 C 123.931 1.61038 1.21448 0
M  V30 1342 C 124.244 0.31865 1.92987 0
M  V30 1343 O 125.45 0.302469 2.6981 0
M  V30 1344 C 123.906 2.84283 2.20706 0
M  V30 1345 C 123.514 4.20352 1.54946 0
M  V30 1346 C 125.258 3.04115 2.96166 0
M  V30 1347 C 123.165 5.34778 2.5252 0
M  V30 1348 H 122.095 0.599718 0.457005 0
M  V30 1349 H 124.746 1.7699 0.484424 0
M  V30 1350 H 123.128 2.61901 2.97025 0
M  V30 1351 H 124.302 4.53008 0.843811 0
M  V30 1352 H 122.617 4.06167 0.917475 0
M  V30 1353 H 125.214 3.86774 3.69202 0
M  V30 1354 H 125.557 2.16045 3.55852 0
M  V30 1355 H 126.09 3.26702 2.26959 0
M  V30 1356 H 122.829 6.25018 1.97566 0
M  V30 1357 H 122.349 5.06534 3.21222 0
M  V30 1358 H 124.028 5.65561 3.14245 0
M  V30 1359 N 124.16 -0.719506 1.40217 0
M  V30 1360 C 125.093 -1.84298 1.34571 0
M  V30 1361 C 126.071 -1.61149 0.216741 0
M  V30 1362 O 127.255 -1.84212 0.399756 0
M  V30 1363 C 124.382 -3.20568 1.09335 0
M  V30 1364 C 123.428 -3.62551 2.24631 0
M  V30 1365 S 124.261 -3.7012 3.87004 0
M  V30 1366 C 125.417 -5.09154 3.64024 0
M  V30 1367 H 125.65 -1.88807 2.2965 0
M  V30 1368 H 123.183 -0.885901 1.26456 0
M  V30 1369 H 125.141 -3.99246 0.954602 0
M  V30 1370 H 123.802 -3.13696 0.159164 0
M  V30 1371 H 122.995 -4.61483 2.02606 0
M  V30 1372 H 122.597 -2.91119 2.34789 0
M  V30 1373 H 124.889 -5.95955 3.22248 0
M  V30 1374 H 125.832 -5.36213 4.62473 0
M  V30 1375 H 126.24 -4.79562 2.97793 0
M  V30 1376 N 125.638 -1.25649 -0.95132 0
M  V30 1377 C 126.568 -1.08808 -2.06599 0
M  V30 1378 C 127.549 0.00382547 -1.701 0
M  V30 1379 O 128.734 -0.166325 -1.93486 0
M  V30 1380 C 125.864 -0.709542 -3.39975 0
M  V30 1381 C 124.818 -1.75206 -3.90496 0
M  V30 1382 C 124.144 -1.22811 -5.20405 0
M  V30 1383 C 125.444 -3.15153 -4.16504 0
M  V30 1384 H 127.138 -2.02048 -2.20946 0
M  V30 1385 H 124.684 -0.972835 -1.06169 0
M  V30 1386 H 126.637 -0.578649 -4.17408 0
M  V30 1387 H 125.361 0.258556 -3.25575 0
M  V30 1388 H 124.02 -1.87145 -3.15234 0
M  V30 1389 H 123.668 -0.250145 -5.02378 0
M  V30 1390 H 123.368 -1.92492 -5.55176 0
M  V30 1391 H 124.892 -1.10968 -6.00432 0
M  V30 1392 H 126.306 -3.06349 -4.84586 0
M  V30 1393 H 124.703 -3.82333 -4.62538 0
M  V30 1394 H 125.773 -3.61966 -3.22658 0
M  V30 1395 N 127.117 1.15442 -1.07289 0
M  V30 1396 C 128.047 2.22312 -0.714107 0
M  V30 1397 C 129.028 1.67467 0.298155 0
M  V30 1398 O 130.213 1.93445 0.171048 0
M  V30 1399 C 127.343 3.47124 -0.110448 0
M  V30 1400 C 126.297 4.14926 -1.04979 0
M  V30 1401 C 125.623 5.33807 -0.308924 0
M  V30 1402 C 126.923 4.64762 -2.38314 0
M  V30 1403 H 128.617 2.5258 -1.6076 0
M  V30 1404 H 126.163 1.21404 -0.77441 0
M  V30 1405 H 128.116 4.21124 0.152482 0
M  V30 1406 H 126.84 3.16187 0.81812 0
M  V30 1407 H 125.499 3.42866 -1.29764 0
M  V30 1408 H 125.147 4.99126 0.623084 0
M  V30 1409 H 124.847 5.80113 -0.935036 0
M  V30 1410 H 126.371 6.10576 -0.0537771 0
M  V30 1411 H 127.785 5.30292 -2.1786 0
M  V30 1412 H 126.182 5.21728 -2.96514 0
M  V30 1413 H 127.252 3.80434 -3.00663 0
M  V30 1414 N 128.595 0.856903 1.32268 0
M  V30 1415 C 129.525 0.31858 2.31316 0
M  V30 1416 C 130.506 -0.583487 1.59779 0
M  V30 1417 O 131.691 -0.503259 1.87566 0
M  V30 1418 C 128.821 -0.491979 3.43798 0
M  V30 1419 C 127.775 0.315849 4.26833 0
M  V30 1420 C 127.101 -0.619586 5.31098 0
M  V30 1421 C 128.401 1.54282 4.98993 0
M  V30 1422 H 130.095 1.14621 2.76591 0
M  V30 1423 H 127.641 0.552613 1.32974 0
M  V30 1424 H 129.594 -0.879012 4.1213 0
M  V30 1425 H 128.318 -1.35299 2.97257 0
M  V30 1426 H 126.977 0.684664 3.6015 0
M  V30 1427 H 126.625 -1.47751 4.8081 0
M  V30 1428 H 126.325 -0.0830621 5.87541 0
M  V30 1429 H 127.849 -1.00375 6.02293 0
M  V30 1430 H 129.263 1.22796 5.59995 0
M  V30 1431 H 127.66 2.01745 5.65172 0
M  V30 1432 H 128.73 2.30285 4.26728 0
M  V30 1433 N 130.073 -1.45103 0.615059 0
M  V30 1434 C 131.036 -2.29025 -0.0895485 0
M  V30 1435 C 132.036 -1.40174 -0.787906 0
M  V30 1436 O 133.226 -1.62217 -0.634933 0
M  V30 1437 C 130.358 -3.21376 -1.13711 0
M  V30 1438 H 131.551 -2.92807 0.648382 0
M  V30 1439 H 129.104 -1.51749 0.374444 0
M  V30 1440 H 129.839 -2.6241 -1.90556 0
M  V30 1441 H 129.624 -3.86834 -0.640475 0
M  V30 1442 H 131.114 -3.84459 -1.63036 0
M  V30 1443 N 131.551 -0.354651 -1.53558 0
M  V30 1444 C 132.776 0.242153 -2.05981 0
M  V30 1445 C 133.201 1.42553 -1.2272 0
M  V30 1446 O 132.559 1.79656 -0.243604 0
M  V30 1447 C 132.607 0.624367 -3.55154 0
M  V30 1448 O 131.711 1.72301 -3.74681 0
M  V30 1449 H 131.052 0.0378432 -0.662921 0
M  V30 1450 H 133.582 -0.512087 -1.98088 0
M  V30 1451 H 133.592 0.898433 -3.97985 0
M  V30 1452 H 132.267 -0.240989 -4.15201 0
M  V30 1453 H 130.844 1.44535 -3.4375 0
M  V30 1454 N 133.029 1.57378 -0.0835403 0
M  V30 1455 C 133.992 2.12252 0.864959 0
M  V30 1456 C 134.992 1.04916 1.21858 0
M  V30 1457 O 136.182 1.30853 1.14991 0
M  V30 1458 C 133.314 2.63358 2.16461 0
M  V30 1459 H 134.507 2.97371 0.388676 0
M  V30 1460 H 132.06 1.55423 0.165317 0
M  V30 1461 H 132.795 1.81727 2.686 0
M  V30 1462 H 132.58 3.41826 1.92087 0
M  V30 1463 H 134.07 3.05847 2.84337 0
M  V30 1464 N 134.507 -0.190092 1.56449 0
M  V30 1465 C 135.753 -0.911052 1.81184 0
M  V30 1466 C 136.086 -1.82699 0.658396 0
M  V30 1467 O 135.361 -1.91491 -0.340775 0
M  V30 1468 C 135.644 -1.72297 3.16205 0
M  V30 1469 C 135.497 -0.831419 4.42049 0
M  V30 1470 C 136.816 -2.69454 3.47969 0
M  V30 1471 H 133.935 -0.32977 0.659106 0
M  V30 1472 H 136.577 -0.178169 1.89163 0
M  V30 1473 H 134.727 -2.34778 3.09534 0
M  V30 1474 H 136.399 -0.220929 4.60771 0
M  V30 1475 H 134.642 -0.138406 4.33579 0
M  V30 1476 H 135.313 -1.43461 5.33032 0
M  V30 1477 H 137.789 -2.17104 3.54972 0
M  V30 1478 H 136.665 -3.23342 4.43555 0
M  V30 1479 H 136.926 -3.48744 2.71717 0
M  V30 1480 N 135.985 -1.50799 -0.457987 0
M  V30 1481 C 137.234 -1.6168 -1.20593 0
M  V30 1482 C 137.547 -0.32888 -1.92815 0
M  V30 1483 O 138.753 -0.316773 -2.69646 0
M  V30 1484 C 137.209 -2.8545 -2.19195 0
M  V30 1485 C 136.817 -4.21168 -1.52715 0
M  V30 1486 C 138.561 -3.05681 -2.94549 0
M  V30 1487 C 136.468 -5.3611 -2.4968 0
M  V30 1488 H 135.398 -0.602134 -0.453818 0
M  V30 1489 H 138.049 -1.77245 -0.475031 0
M  V30 1490 H 136.431 -2.63472 -2.95632 0
M  V30 1491 H 137.605 -4.53449 -0.819775 0
M  V30 1492 H 135.92 -4.06648 -0.895922 0
M  V30 1493 H 138.517 -3.88727 -3.67145 0
M  V30 1494 H 138.86 -2.17929 -3.54701 0
M  V30 1495 H 139.393 -3.27901 -2.25223 0
M  V30 1496 H 136.132 -6.26057 -1.94249 0
M  V30 1497 H 135.652 -5.0823 -3.18532 0
M  V30 1498 H 137.331 -5.6722 -3.11241 0
M  V30 1499 N 137.463 0.71206 -1.40597 0
M  V30 1500 C 138.688 1.50617 -1.42581 0
M  V30 1501 C 139.113 1.88079 -0.0282102 0
M  V30 1502 O 138.471 1.53511 0.964579 0
M  V30 1503 C 138.519 2.7557 -2.3258 0
M  V30 1504 O 137.623 3.72414 -1.77148 0
M  V30 1505 H 136.964 0.453966 -0.484573 0
M  V30 1506 H 139.494 0.876649 -1.84868 0
M  V30 1507 H 139.504 3.2406 -2.47889 0
M  V30 1508 H 138.179 2.47639 -3.34138 0
M  V30 1509 H 136.756 3.31276 -1.71204 0
M  V30 1510 N 138.941 1.26152 0.944643 0
M  V30 1511 C 140.187 1.11657 1.69294 0
M  V30 1512 C 140.52 -0.339926 1.91202 0
M  V30 1513 O 139.795 -1.24994 1.49019 0
M  V30 1514 C 140.078 1.88236 3.06984 0
M  V30 1515 C 139.931 3.41772 2.92424 0
M  V30 1516 C 141.25 1.67343 4.07043 0
M  V30 1517 H 138.369 0.407004 0.614424 0
M  V30 1518 H 141.011 1.55106 1.09737 0
M  V30 1519 H 139.161 1.51308 3.57824 0
M  V30 1520 H 140.833 3.88433 2.48832 0
M  V30 1521 H 139.076 3.68974 2.28124 0
M  V30 1522 H 139.747 3.90579 3.90067 0
M  V30 1523 H 142.223 1.99509 3.65151 0
M  V30 1524 H 141.099 2.23346 5.01406 0
M  V30 1525 H 141.36 0.617158 4.37771 0
M  V30 1526 N 140.419 -1.14872 1.07899 0
M  V30 1527 C 141.349 -2.2193 0.725887 0
M  V30 1528 C 142.33 -1.67622 -0.28927 0
M  V30 1529 O 143.515 -1.93533 -0.160787 0
M  V30 1530 C 140.645 -3.47061 0.128856 0
M  V30 1531 C 139.599 -4.14363 1.07178 0
M  V30 1532 C 138.925 -5.33636 0.337229 0
M  V30 1533 C 140.225 -4.63492 2.40775 0
M  V30 1534 H 141.919 -2.51724 1.62097 0
M  V30 1535 H 139.465 -1.20991 0.780838 0
M  V30 1536 H 141.418 -4.21199 -0.130147 0
M  V30 1537 H 140.142 -3.16617 -0.80134 0
M  V30 1538 H 138.801 -3.42173 1.3158 0
M  V30 1539 H 138.449 -4.99449 -0.596606 0
M  V30 1540 H 138.149 -5.79609 0.965788 0
M  V30 1541 H 139.673 -6.10539 0.0861567 0
M  V30 1542 H 141.087 -5.2913 2.20669 0
M  V30 1543 H 139.484 -5.20148 2.99276 0
M  V30 1544 H 140.554 -3.78834 3.02676 0
M  V30 1545 N 141.898 -0.863906 -1.31812 0
M  V30 1546 C 142.831 -0.259963 -2.26714 0
M  V30 1547 C 143.809 0.607392 -1.50829 0
M  V30 1548 O 144.993 0.562155 -1.79922 0
M  V30 1549 C 142.12 0.632456 -3.32743 0
M  V30 1550 C 141.166 -0.162743 -4.26189 0
M  V30 1551 S 141.999 -1.53726 -5.12961 0
M  V30 1552 C 143.155 -0.650803 -6.22507 0
M  V30 1553 H 143.388 -1.06445 -2.77591 0
M  V30 1554 H 140.921 -0.662071 -1.39485 0
M  V30 1555 H 142.879 1.14167 -3.94305 0
M  V30 1556 H 141.54 1.41083 -2.80632 0
M  V30 1557 H 140.733 0.517366 -5.01338 0
M  V30 1558 H 140.335 -0.60385 -3.69093 0
M  V30 1559 H 142.627 0.141134 -6.77353 0
M  V30 1560 H 143.57 -1.37322 -6.94657 0
M  V30 1561 H 143.978 -0.221041 -5.64067 0
M  V30 1562 N 143.376 1.44774 -0.622745 0
M  V30 1563 C 144.326 2.2774 0.108889 0
M  V30 1564 C 145.31 1.38189 0.824175 0
M  V30 1565 O 146.502 1.62063 0.711664 0
M  V30 1566 C 143.631 3.25353 1.09546 0
M  V30 1567 C 142.717 4.22392 0.380232 0
M  V30 1568 N 143.108 5.02388 -0.586535 0
M  V30 1569 C 141.406 4.41588 0.625792 0
M  V30 1570 C 142.107 5.72894 -1.00834 0
M  V30 1571 N 141.083 5.42479 -0.348878 0
M  V30 1572 H 144.885 2.86993 -0.63341 0
M  V30 1573 H 142.399 1.5611 -0.447589 0
M  V30 1574 H 144.396 3.83538 1.63414 0
M  V30 1575 H 143.056 2.6766 1.83815 0
M  V30 1576 H 144.067 5.0885 -0.963975 0
M  V30 1577 H 140.744 3.95003 1.352 0
M  V30 1578 H 142.134 6.47158 -1.80656 0
M  V30 1579 N 144.854 0.36279 1.53368 0
M  V30 1580 C 145.786 -0.519668 2.23231 0
M  V30 1581 C 146.799 -1.04844 1.24546 0
M  V30 1582 O 147.988 -0.955296 1.50786 0
M  V30 1583 C 145.088 -1.72995 2.9142 0
M  V30 1584 C 144.261 -1.33316 4.16588 0
M  V30 1585 C 143.32 -2.40521 4.68013 0
M  V30 1586 O 142.346 -2.03027 5.3176 0
M  V30 1587 N 143.548 -3.72065 4.45587 0
M  V30 1588 H 146.313 0.078751 2.99597 0
M  V30 1589 H 143.874 0.187833 1.60807 0
M  V30 1590 H 145.866 -2.44184 3.22733 0
M  V30 1591 H 144.436 -2.2353 2.18525 0
M  V30 1592 H 143.656 -0.451236 3.91609 0
M  V30 1593 H 144.944 -1.04432 4.97967 0
M  V30 1594 H 144.342 -4.05304 3.94646 0
M  V30 1595 H 142.899 -4.39366 4.81457 0
M  V30 1596 N 146.332 -1.57332 0.0918853 0
M  V30 1597 C 147.579 -1.94236 -0.572577 0
M  V30 1598 C 147.907 -0.973398 -1.6839 0
M  V30 1599 O 147.162 0.00756912 -1.95699 0
M  V30 1600 C 147.461 -3.37689 -1.17051 0
M  V30 1601 C 147.127 -4.50527 -0.183304 0
M  V30 1602 C 145.789 -4.81119 0.0882276 0
M  V30 1603 C 148.141 -5.18883 0.49095 0
M  V30 1604 C 145.469 -5.77395 1.04076 0
M  V30 1605 C 147.821 -6.1618 1.43193 0
M  V30 1606 C 146.485 -6.45179 1.71173 0
M  V30 1607 H 145.755 -0.710762 -0.209521 0
M  V30 1608 H 148.402 -1.9077 0.167036 0
M  V30 1609 H 146.707 -3.37718 -1.9863 0
M  V30 1610 H 148.404 -3.63543 -1.69227 0
M  V30 1611 H 144.994 -4.26681 -0.405124 0
M  V30 1612 H 149.178 -4.95427 0.294312 0
M  V30 1613 H 144.434 -5.98179 1.26457 0
M  V30 1614 H 148.608 -6.68243 1.96023 0
M  V30 1615 H 146.235 -7.1959 2.4514 0
M  V30 1616 N 147.81 0.181792 -1.56548 0
M  V30 1617 C 149.087 0.926765 -1.72251 0
M  V30 1618 C 149.467 2.00831 -0.650386 0
M  V30 1619 O 148.815 2.26008 0.336521 0
M  V30 1620 C 149.025 1.50106 -3.1507 0
M  V30 1621 C 150.373 1.97805 -3.75711 0
M  V30 1622 O 151.397 1.59922 -3.18282 0
M  V30 1623 O 150.256 2.67555 -4.76525 0
M  V30 1624 H 147.35 0.435506 -0.703039 0
M  V30 1625 H 149.896 0.170443 -1.68842 0
M  V30 1626 H 148.668 0.72212 -3.84579 0
M  V30 1627 H 148.291 2.32186 -3.22763 0
M  V30 1628 N 149.288 1.51039 0.449983 0
M  V30 1629 C 150.565 1.53612 1.21089 0
M  V30 1630 C 150.945 0.292997 2.09057 0
M  V30 1631 O 150.293 -0.72259 2.16774 0
M  V30 1632 C 150.503 2.84337 2.0237 0
M  V30 1633 C 151.851 3.35807 2.59843 0
M  V30 1634 O 152.875 2.85802 2.12593 0
M  V30 1635 O 151.734 4.23029 3.45989 0
M  V30 1636 H 148.828 0.617057 0.550608 0
M  V30 1637 H 151.374 1.63344 0.460082 0
M  V30 1638 H 150.146 3.66278 1.37681 0
M  V30 1639 H 149.769 2.77708 2.84542 0
M  V30 1640 N 150.766 -0.704594 1.40972 0
M  V30 1641 C 151.729 -1.80035 1.41845 0
M  V30 1642 C 152.729 -1.57774 0.310474 0
M  V30 1643 O 153.919 -1.64613 0.56992 0
M  V30 1644 C 151.051 -3.18284 1.22098 0
M  V30 1645 H 152.244 -1.80658 2.3938 0
M  V30 1646 H 149.797 -0.911329 1.26982 0
M  V30 1647 H 150.532 -3.23306 0.253672 0
M  V30 1648 H 150.317 -3.35843 2.02366 0
M  V30 1649 H 151.807 -3.98289 1.25522 0
M  V30 1650 N 152.244 -1.26651 -0.937939 0
M  V30 1651 C 153.49 -1.12553 -1.687 0
M  V30 1652 C 153.823 0.329782 -1.91379 0
M  V30 1653 O 153.098 1.24202 -1.4968 0
M  V30 1654 C 153.381 -1.89862 -3.05981 0
M  V30 1655 C 153.234 -3.43318 -2.90607 0
M  V30 1656 C 154.553 -1.69499 -4.0615 0
M  V30 1657 H 151.672 -0.410257 -0.612257 0
M  V30 1658 H 154.314 -1.55685 -1.08913 0
M  V30 1659 H 152.464 -1.53204 -3.57017 0
M  V30 1660 H 154.136 -3.89747 -2.46769 0
M  V30 1661 H 152.379 -3.70179 -2.26164 0
M  V30 1662 H 153.05 -3.92642 -3.8799 0
M  V30 1663 H 155.526 -2.01442 -3.64088 0
M  V30 1664 H 154.402 -2.26002 -5.00214 0
M  V30 1665 H 154.663 -0.640365 -4.37438 0
M  V30 1666 N 153.722 1.14298 -1.08507 0
M  V30 1667 C 154.947 1.8976 -0.837001 0
M  V30 1668 C 155.372 1.78097 0.605228 0
M  V30 1669 O 154.73 1.12188 1.4242 0
M  V30 1670 C 154.778 3.37685 -1.26495 0
M  V30 1671 O 153.882 4.10281 -0.417514 0
M  V30 1672 H 153.223 0.590365 -0.303917 0
M  V30 1673 H 155.753 1.44672 -1.44676 0
M  V30 1674 H 155.763 3.88501 -1.24625 0
M  V30 1675 H 154.438 3.45492 -2.31534 0
M  V30 1676 H 153.015 3.69536 -0.499722 0
M  V30 1677 N 155.201 0.870884 1.31352 0
M  V30 1678 C 156.45 0.478408 1.95944 0
M  V30 1679 C 156.763 -0.974493 1.69597 0
M  V30 1680 O 157.969 -1.47316 2.28058 0
M  V30 1681 C 156.425 0.804609 3.50791 0
M  V30 1682 C 156.033 2.27433 3.85977 0
M  V30 1683 C 157.777 0.480648 4.2177 0
M  V30 1684 C 155.684 2.5429 5.33939 0
M  V30 1685 H 154.614 0.175175 0.733369 0
M  V30 1686 H 157.265 1.06391 1.4951 0
M  V30 1687 H 155.647 0.148347 3.95722 0
M  V30 1688 H 156.821 2.97373 3.52002 0
M  V30 1689 H 155.136 2.56442 3.28065 0
M  V30 1690 H 157.733 0.658519 5.30629 0
M  V30 1691 H 158.076 -0.578979 4.12254 0
M  V30 1692 H 158.609 1.09349 3.82476 0
M  V30 1693 H 155.348 3.58939 5.48491 0
M  V30 1694 H 154.868 1.88945 5.69263 0
M  V30 1695 H 156.547 2.39066 6.01212 0
M  V30 1696 N 156.679 -1.44442 0.630414 0
M  V30 1697 C 157.907 -2.06414 0.141671 0
M  V30 1698 C 158.322 -1.47105 -1.18345 0
M  V30 1699 O 157.679 -0.593662 -1.72574 0
M  V30 1700 C 157.73 -3.61494 0.0199784 0
M  V30 1701 O 157.451 -4.18594 1.29269 0
M  V30 1702 C 158.952 -4.40499 -0.497544 0
M  V30 1703 H 156.172 -0.666292 0.0793452 0
M  V30 1704 H 158.716 -1.85323 0.864614 0
M  V30 1705 H 156.871 -3.8185 -0.653402 0
M  V30 1706 H 157.285 -5.12026 1.13707 0
M  V30 1707 H 158.759 -5.49433 -0.531708 0
M  V30 1708 H 159.236 -4.11895 -1.52445 0
M  V30 1709 H 159.842 -4.25061 0.142562 0
M  V30 1710 N 158.157 -0.370918 -1.53173 0
M  V30 1711 C 159.403 0.217423 -2.01631 0
M  V30 1712 C 159.736 1.47983 -1.25756 0
M  V30 1713 O 159.011 1.91274 -0.352764 0
M  V30 1714 C 159.294 0.503982 -3.56556 0
M  V30 1715 C 159.147 -0.77243 -4.43118 0
M  V30 1716 C 160.466 1.30234 -4.20389 0
M  V30 1717 H 157.585 0.0775486 -0.732909 0
M  V30 1718 H 160.227 -0.496863 -1.83388 0
M  V30 1719 H 158.377 1.11248 -3.72231 0
M  V30 1720 H 160.049 -1.4098 -4.39229 0
M  V30 1721 H 158.292 -1.39167 -4.10871 0
M  V30 1722 H 158.963 -0.526815 -5.4948 0
M  V30 1723 H 161.439 0.787546 -4.08579 0
M  V30 1724 H 160.315 1.47158 -5.28806 0
M  V30 1725 H 160.576 2.31237 -3.76805 0
M  V30 1726 N 159.635 1.57281 -0.100228 0
M  V30 1727 C 160.598 2.13158 0.842398 0
M  V30 1728 C 161.598 1.06202 1.20738 0
M  V30 1729 O 162.788 1.32066 1.13597 0
M  V30 1730 C 159.92 2.65639 2.13655 0
M  V30 1731 H 161.113 2.97766 0.357114 0
M  V30 1732 H 158.666 1.5559 0.148823 0
M  V30 1733 H 159.401 1.84566 2.66657 0
M  V30 1734 H 159.186 3.43844 1.88451 0
M  V30 1735 H 160.676 3.08846 2.81077 0
M  V30 1736 N 161.113 -0.173488 1.56642 0
M  V30 1737 C 162.362 -0.888758 1.81063 0
M  V30 1738 C 162.675 -1.83506 0.67712 0
M  V30 1739 O 163.881 -2.59254 0.806206 0
M  V30 1740 C 162.337 -1.63091 3.20826 0
M  V30 1741 C 161.945 -0.728357 4.4204 0
M  V30 1742 C 163.689 -2.33454 3.54541 0
M  V30 1743 C 161.596 -1.47062 5.72823 0
M  V30 1744 H 160.526 -0.335618 0.675186 0
M  V30 1745 H 163.177 -0.141712 1.82952 0
M  V30 1746 H 161.559 -2.42263 3.13248 0
M  V30 1747 H 162.733 0.0262449 4.60793 0
M  V30 1748 H 161.048 -0.134492 4.16183 0
M  V30 1749 H 163.645 -2.89578 4.49498 0
M  V30 1750 H 163.988 -3.08687 2.79317 0
M  V30 1751 H 164.521 -1.61227 3.63663 0
M  V30 1752 H 161.26 -0.760658 6.51072 0
M  V30 1753 H 160.78 -2.1986 5.58052 0
M  V30 1754 H 162.459 -2.01868 6.14702 0
M  V30 1755 N 162.591 -1.51276 -0.441967 0
M  V30 1756 C 163.521 -1.752 -1.54361 0
M  V30 1757 C 164.502 -0.601682 -1.59103 0
M  V30 1758 O 165.687 -0.843913 -1.74905 0
M  V30 1759 C 162.817 -1.87282 -2.92477 0
M  V30 1760 C 161.771 -3.02687 -3.02596 0
M  V30 1761 C 161.097 -2.99947 -4.42647 0
M  V30 1762 C 162.397 -4.4273 -2.77106 0
M  V30 1763 H 164.091 -2.67442 -1.34592 0
M  V30 1764 H 161.637 -1.28694 -0.646048 0
M  V30 1765 H 163.59 -2.02602 -3.695 0
M  V30 1766 H 162.314 -0.916844 -3.13467 0
M  V30 1767 H 160.973 -2.87065 -2.28012 0
M  V30 1768 H 160.621 -2.02136 -4.60597 0
M  V30 1769 H 160.321 -3.77439 -4.50348 0
M  V30 1770 H 161.845 -3.17354 -5.2165 0
M  V30 1771 H 163.259 -4.58727 -3.43864 0
M  V30 1772 H 161.656 -5.21893 -2.96222 0
M  V30 1773 H 162.726 -4.53087 -1.72744 0
M  V30 1774 N 164.069 0.697108 -1.41344 0
M  V30 1775 C 165.318 1.45279 -1.39918 0
M  V30 1776 C 165.631 1.95597 -0.0109624 0
M  V30 1777 O 166.837 2.71208 0.125919 0
M  V30 1778 C 165.293 2.62695 -2.46007 0
M  V30 1779 C 164.901 2.19169 -3.90729 0
M  V30 1780 C 166.645 3.40336 -2.53715 0
M  V30 1781 C 164.552 3.33535 -4.88373 0
M  V30 1782 H 163.482 0.545692 -0.520323 0
M  V30 1783 H 166.133 0.756929 -1.67161 0
M  V30 1784 H 164.515 3.34541 -2.11892 0
M  V30 1785 H 165.689 1.54623 -4.34083 0
M  V30 1786 H 164.004 1.54525 -3.86666 0
M  V30 1787 H 166.601 4.2547 -3.2385 0
M  V30 1788 H 166.944 3.85418 -1.5735 0
M  V30 1789 H 167.477 2.75546 -2.86913 0
M  V30 1790 H 164.216 2.93468 -5.86137 0
M  V30 1791 H 163.736 3.96936 -4.49668 0
M  V30 1792 H 165.415 3.99335 -5.09059 0
M  V30 1793 N 165.547 1.27147 0.931209 0
M  V30 1794 C 166.793 1.13446 1.68101 0
M  V30 1795 C 167.126 -0.319628 1.91552 0
M  V30 1796 O 166.401 -1.23407 1.50336 0
M  V30 1797 C 166.684 1.91482 3.0497 0
M  V30 1798 C 166.537 3.44855 2.88782 0
M  V30 1799 C 167.856 1.71651 4.05246 0
M  V30 1800 H 164.975 0.413498 0.610072 0
M  V30 1801 H 167.617 1.56261 1.08086 0
M  V30 1802 H 165.767 1.55095 3.56199 0
M  V30 1803 H 167.439 3.9105 2.44698 0
M  V30 1804 H 165.682 3.71373 2.24198 0
M  V30 1805 H 166.353 3.94694 3.85902 0
M  V30 1806 H 168.829 2.0337 3.63015 0
M  V30 1807 H 167.705 2.28651 4.99009 0
M  V30 1808 H 167.966 0.663555 4.37092 0
M  V30 1809 N 167.025 -1.13721 1.09112 0
M  V30 1810 C 168.271 -1.85198 0.826414 0
M  V30 1811 C 168.604 -1.83129 -0.646319 0
M  V30 1812 O 167.879 -1.2671 -1.47563 0
M  V30 1813 C 168.162 -3.33507 1.35812 0
M  V30 1814 C 168.015 -3.44108 2.89672 0
M  V30 1815 C 169.334 -4.28838 0.989256 0
M  V30 1816 H 166.453 -0.67243 0.301675 0
M  V30 1817 H 169.095 -1.33499 1.35197 0
M  V30 1818 H 167.245 -3.77666 0.911082 0
M  V30 1819 H 168.917 -3.08684 3.428 0
M  V30 1820 H 167.16 -2.85087 3.26967 0
M  V30 1821 H 167.831 -4.48388 3.21951 0
M  V30 1822 H 170.307 -3.92734 1.37475 0
M  V30 1823 H 169.183 -5.31051 1.38838 0
M  V30 1824 H 169.444 -4.4198 -0.102924 0
M  V30 1825 N 168.503 -0.877838 -1.30888 0
M  V30 1826 C 169.731 -0.507414 -2.00581 0
M  V30 1827 C 170.146 0.902216 -1.65848 0
M  V30 1828 O 169.503 1.59225 -0.891831 0
M  V30 1829 C 169.554 -0.664162 -3.55347 0
M  V30 1830 O 169.275 -2.01829 -3.8884 0
M  V30 1831 C 170.776 -0.295787 -4.42312 0
M  V30 1832 H 167.996 -0.196866 -0.641471 0
M  V30 1833 H 170.54 -1.18117 -1.66939 0
M  V30 1834 H 168.695 -0.0378619 -3.87381 0
M  V30 1835 H 169.109 -2.03174 -4.8355 0
M  V30 1836 H 170.583 -0.456388 -5.5011 0
M  V30 1837 H 171.06 0.765663 -4.32475 0
M  V30 1838 H 171.666 -0.898113 -4.15709 0
M  V30 1839 N 169.982 1.44106 -0.638065 0
M  V30 1840 C 171.228 2.02277 -0.145546 0
M  V30 1841 C 171.561 1.50125 1.23191 0
M  V30 1842 O 170.836 0.688133 1.8192 0
M  V30 1843 C 171.119 3.59829 -0.139791 0
M  V30 1844 C 170.972 4.22247 -1.55008 0
M  V30 1845 C 172.291 4.36873 0.531966 0
M  V30 1846 H 169.41 0.734992 -0.0543632 0
M  V30 1847 H 172.052 1.71592 -0.815863 0
M  V30 1848 H 170.202 3.86102 0.431007 0
M  V30 1849 H 171.874 4.07057 -2.1703 0
M  V30 1850 H 170.117 3.79476 -2.10191 0
M  V30 1851 H 170.788 5.31284 -1.49804 0
M  V30 1852 H 173.264 4.16074 0.0464781 0
M  V30 1853 H 172.14 5.4657 0.505206 0
M  V30 1854 H 172.401 4.11995 1.60352 0
M  V30 1855 N 171.46 0.379036 1.52974 0
M  V30 1856 C 172.423 -0.448865 2.24762 0
M  V30 1857 C 173.423 -0.998689 1.26027 0
M  V30 1858 O 174.613 -0.882313 1.50203 0
M  V30 1859 C 171.745 -1.62872 2.99476 0
M  V30 1860 H 172.938 0.179491 2.99362 0
M  V30 1861 H 170.491 0.13096 1.5575 0
M  V30 1862 H 171.226 -2.29479 2.29151 0
M  V30 1863 H 171.011 -1.24128 3.71934 0
M  V30 1864 H 172.501 -2.2151 3.5401 0
M  V30 1865 N 172.938 -1.57226 0.108567 0
M  V30 1866 C 174.185 -1.94833 -0.551943 0
M  V30 1867 C 174.513 -0.991204 -1.67348 0
M  V30 1868 O 173.768 -0.0131878 -1.95696 0
M  V30 1869 C 174.067 -3.38911 -1.13463 0
M  V30 1870 C 173.733 -4.50696 -0.135509 0
M  V30 1871 C 172.395 -4.80998 0.139252 0
M  V30 1872 C 174.747 -5.18333 0.545957 0
M  V30 1873 C 172.075 -5.76259 1.10194 0
M  V30 1874 C 174.427 -6.14627 1.49721 0
M  V30 1875 C 173.091 -6.43327 1.78006 0
M  V30 1876 H 172.361 -0.712944 -0.20197 0
M  V30 1877 H 175.008 -1.90582 0.18726 0
M  V30 1878 H 173.313 -3.39805 -1.95037 0
M  V30 1879 H 175.01 -3.65317 -1.65362 0
M  V30 1880 H 171.6 -4.27087 -0.359846 0
M  V30 1881 H 175.784 -4.95087 0.346842 0
M  V30 1882 H 171.04 -5.96804 1.32795 0
M  V30 1883 H 175.214 -6.66126 2.03099 0
M  V30 1884 H 172.841 -7.1695 2.52759 0
M  V30 1885 N 174.416 0.165178 -1.56732 0
M  V30 1886 C 175.662 0.882112 -1.82611 0
M  V30 1887 C 175.995 1.81628 -0.687378 0
M  V30 1888 O 175.27 1.92009 0.310267 0
M  V30 1889 C 175.553 1.67245 -3.18906 0
M  V30 1890 C 175.406 0.760987 -4.43316 0
M  V30 1891 C 176.725 2.63884 -3.52212 0
M  V30 1892 H 173.844 0.319242 -0.664269 0
M  V30 1893 H 176.486 0.148052 -1.89422 0
M  V30 1894 H 174.636 2.29824 -3.1323 0
M  V30 1895 H 176.308 0.147596 -4.61064 0
M  V30 1896 H 174.551 0.0694102 -4.33744 0
M  V30 1897 H 175.222 1.34962 -5.35247 0
M  V30 1898 H 177.698 2.11429 -3.58381 0
M  V30 1899 H 176.574 3.16245 -4.48643 0
M  V30 1900 H 176.835 3.44377 -2.77231 0
M  V30 1901 N 175.894 1.51508 0.433938 0
M  V30 1902 C 176.826 1.69266 1.54537 0
M  V30 1903 C 177.839 0.573276 1.52373 0
M  V30 1904 O 179.028 0.847698 1.57087 0
M  V30 1905 C 176.128 1.69524 2.93453 0
M  V30 1906 C 175.301 2.98101 3.20085 0
M  V30 1907 C 174.36 2.90502 4.38742 0
M  V30 1908 O 173.386 3.64442 4.3723 0
M  V30 1909 N 174.588 2.06586 5.42496 0
M  V30 1910 H 177.353 2.65145 1.39708 0
M  V30 1911 H 174.914 1.49437 0.622922 0
M  V30 1912 H 176.906 1.62004 3.70859 0
M  V30 1913 H 175.476 0.812245 3.01863 0
M  V30 1914 H 174.696 3.19464 2.30947 0
M  V30 1915 H 175.984 3.83207 3.34708 0
M  V30 1916 H 175.382 1.45896 5.46563 0
M  V30 1917 H 173.939 2.04943 6.18742 0
M  V30 1918 N 177.372 -0.689602 1.41712 0
M  V30 1919 C 178.282 -1.83314 1.46401 0
M  V30 1920 C 179.298 -1.7036 0.35405 0
M  V30 1921 O 180.474 -1.92171 0.602692 0
M  V30 1922 C 177.539 -3.19344 1.34982 0
M  V30 1923 C 176.6 -3.44363 2.56344 0
M  V30 1924 C 175.833 -4.73904 2.45461 0
M  V30 1925 O 176.056 -5.508 1.48241 0
M  V30 1926 O 174.99 -4.99839 3.35328 0
M  V30 1927 H 178.816 -1.82314 2.42889 0
M  V30 1928 H 176.401 -0.843438 1.23315 0
M  V30 1929 H 178.283 -4.00547 1.3092 0
M  V30 1930 H 176.958 -3.21014 0.41612 0
M  V30 1931 H 175.865 -2.63067 2.65982 0
M  V30 1932 H 177.198 -3.47512 3.48563 0
M  V30 1933 N 178.85 -1.27639 -0.924453 0
M  V30 1934 C 180.08 -1.16819 -1.70402 0
M  V30 1935 C 180.488 0.277191 -1.87158 0
M  V30 1936 O 179.831 1.20025 -1.39067 0
M  V30 1937 C 179.893 -1.78305 -3.12166 0
M  V30 1938 C 179.557 -3.27502 -3.18734 0
M  V30 1939 C 180.554 -4.2409 -3.00738 0
M  V30 1940 C 178.239 -3.68269 -3.4159 0
M  V30 1941 C 180.233 -5.59422 -3.05492 0
M  V30 1942 C 177.92 -5.0373 -3.45977 0
M  V30 1943 C 178.918 -5.99116 -3.27946 0
M  V30 1944 O 178.606 -7.32108 -3.32074 0
M  V30 1945 H 178.338 -0.406931 -0.539799 0
M  V30 1946 H 180.892 -1.69078 -1.16626 0
M  V30 1947 H 179.122 -1.20528 -3.67437 0
M  V30 1948 H 180.811 -1.62154 -3.72103 0
M  V30 1949 H 181.577 -3.93931 -2.82919 0
M  V30 1950 H 177.456 -2.94496 -3.54673 0
M  V30 1951 H 181 -6.33852 -2.91337 0
M  V30 1952 H 176.897 -5.33543 -3.63321 0
M  V30 1953 H 177.665 -7.40598 -3.48507 0
M  V30 1954 N 180.328 1.1314 -1.09713 0
M  V30 1955 C 181.744 1.36477 -0.827423 0
M  V30 1956 C 181.944 1.93654 0.556817 0
M  V30 1957 O 181 2.15791 1.31112 0
M  V30 1958 C 182.313 2.31334 -1.92106 0
M  V30 1959 C 183.861 2.44943 -1.94864 0
M  V30 1960 C 184.336 3.4311 -3.0338 0
M  V30 1961 N 185.827 3.50662 -3.02639 0
M  V30 1962 C 186.562 4.2651 -3.83246 0
M  V30 1963 N 186.058 5.05485 -4.73768 0
M  V30 1964 N 187.851 4.2184 -3.71493 0
M  V30 1965 H 180.002 0.743807 -1.9895 0
M  V30 1966 H 182.265 0.389823 -0.864143 0
M  V30 1967 H 181.971 1.96483 -2.91698 0
M  V30 1968 H 181.845 3.31381 -1.80184 0
M  V30 1969 H 184.232 2.79079 -0.959099 0
M  V30 1970 H 184.313 1.4481 -2.10864 0
M  V30 1971 H 183.957 3.09704 -4.02549 0
M  V30 1972 H 183.887 4.43055 -2.84622 0
M  V30 1973 H 186.378 2.94315 -2.37039 0
M  V30 1974 H 186.691 5.60675 -5.3185 0
M  V30 1975 H 185.036 5.04708 -4.77802 0
M  V30 1976 H 188.227 3.5922 -3.00131 0
M  V30 1977 H 188.4 4.80697 -4.3455 0
M  V30 1978 N 181.806 0.884767 1.30421 0
M  V30 1979 C 183.031 0.517288 2.00845 0
M  V30 1980 C 183.456 -0.886779 1.65885 0
M  V30 1981 O 182.814 -1.58768 0.875354 0
M  V30 1982 C 182.862 0.698994 3.5376 0
M  V30 1983 O 181.966 -0.255208 4.1161 0
M  V30 1984 H 181.307 0.203872 0.631927 0
M  V30 1985 H 183.837 1.19225 1.66272 0
M  V30 1986 H 183.847 0.597912 4.03595 0
M  V30 1987 H 182.522 1.72271 3.78544 0
M  V30 1988 H 181.099 -0.10784 3.72744 0
M  V30 1989 N 183.284 -1.43765 0.645699 0
M  V30 1990 C 184.194 -2.34544 -0.0512957 0
M  V30 1991 C 185.21 -1.53455 -0.82022 0
M  V30 1992 O 186.386 -1.86133 -0.769176 0
M  V30 1993 C 183.451 -3.31636 -1.01087 0
M  V30 1994 C 182.512 -4.2863 -0.239712 0
M  V30 1995 C 181.745 -5.21084 -1.15358 0
M  V30 1996 O 181.968 -5.1779 -2.39269 0
M  V30 1997 O 180.902 -5.98593 -0.630038 0
M  V30 1998 H 184.728 -2.95624 0.695718 0
M  V30 1999 H 182.313 -1.43781 0.405882 0
M  V30 2000 H 184.195 -3.9136 -1.56254 0
M  V30 2001 H 182.87 -2.73069 -1.73824 0
M  V30 2002 H 181.777 -3.72408 0.355356 0
M  V30 2003 H 183.11 -4.90157 0.447936 0
M  V30 2004 N 184.763 -0.387143 -1.52771 0
M  V30 2005 C 185.71 0.449048 -2.26389 0
M  V30 2006 C 186.68 1.05961 -1.27912 0
M  V30 2007 O 187.865 1.08804 -1.56737 0
M  V30 2008 C 185.005 1.57155 -3.0724 0
M  V30 2009 C 184.118 0.984066 -4.20643 0
M  V30 2010 C 183.253 2.07745 -4.88892 0
M  V30 2011 C 182.292 1.46574 -5.94292 0
M  V30 2012 N 181.429 2.49834 -6.56146 0
M  V30 2013 H 186.269 -0.185205 -2.97424 0
M  V30 2014 H 183.806 -0.103164 -1.46738 0
M  V30 2015 H 185.764 2.23309 -3.52405 0
M  V30 2016 H 184.394 2.17615 -2.38419 0
M  V30 2017 H 183.446 0.212193 -3.79808 0
M  V30 2018 H 184.758 0.497029 -4.96318 0
M  V30 2019 H 183.912 2.81673 -5.3735 0
M  V30 2020 H 182.651 2.59807 -4.12737 0
M  V30 2021 H 181.656 0.711696 -5.45174 0
M  V30 2022 H 182.881 0.953088 -6.72379 0
M  V30 2023 H 180.827 3.0107 -5.82832 0
M  V30 2024 H 180.744 2.05879 -7.27427 0
M  V30 2025 H 182.012 3.23399 -7.09249 0
M  V30 2026 N 186.241 1.57166 -0.116904 0
M  V30 2027 C 187.466 1.999 0.55271 0
M  V30 2028 C 187.891 0.996039 1.59564 0
M  V30 2029 O 187.249 -0.032556 1.81271 0
M  V30 2030 C 187.297 3.4152 1.15742 0
M  V30 2031 O 186.401 3.44106 2.27299 0
M  V30 2032 H 185.742 0.649447 0.138258 0
M  V30 2033 H 188.272 2.03573 -0.204759 0
M  V30 2034 H 188.282 3.79684 1.49346 0
M  V30 2035 H 186.957 4.14034 0.393493 0
M  V30 2036 H 185.534 3.17759 1.9515 0
M  V30 2037 N 187.719 -0.156864 1.56817 0
M  V30 2038 C 188.649 -1.19589 2.00551 0
M  V30 2039 C 189.63 -1.4536 0.883426 0
M  V30 2040 O 190.815 -1.56449 1.15054 0
M  V30 2041 C 187.945 -2.53143 2.37773 0
M  V30 2042 C 186.899 -2.41913 3.53075 0
M  V30 2043 C 186.225 -3.80088 3.76081 0
M  V30 2044 C 187.525 -1.91157 4.86062 0
M  V30 2045 H 189.219 -0.832293 2.87599 0
M  V30 2046 H 186.765 -0.398918 1.38364 0
M  V30 2047 H 188.718 -3.26047 2.66967 0
M  V30 2048 H 187.442 -2.91319 1.4765 0
M  V30 2049 H 186.101 -1.71462 3.24031 0
M  V30 2050 H 185.749 -4.15683 2.83225 0
M  V30 2051 H 185.449 -3.73439 4.53671 0
M  V30 2052 H 186.973 -4.54556 4.0769 0
M  V30 2053 H 188.387 -2.53846 5.14038 0
M  V30 2054 H 186.784 -1.95422 5.67389 0
M  V30 2055 H 187.854 -0.866673 4.77092 0
M  V30 2056 N 189.197 -1.51736 -0.425897 0
M  V30 2057 C 190.107 -1.76738 -1.54275 0
M  V30 2058 C 191.123 -0.65211 -1.61318 0
M  V30 2059 O 192.299 -0.935654 -1.78346 0
M  V30 2060 C 189.364 -1.89755 -2.90162 0
M  V30 2061 C 188.425 -3.13633 -2.93143 0
M  V30 2062 C 187.658 -3.2602 -4.22548 0
M  V30 2063 O 187.881 -2.44067 -5.15546 0
M  V30 2064 O 186.815 -4.19071 -4.32046 0
M  V30 2065 H 190.641 -2.71502 -1.36089 0
M  V30 2066 H 188.226 -1.36376 -0.610069 0
M  V30 2067 H 190.108 -2.00236 -3.70788 0
M  V30 2068 H 188.783 -0.981785 -3.08452 0
M  V30 2069 H 187.69 -3.08622 -2.11431 0
M  V30 2070 H 189.023 -4.04936 -2.798 0
M  V30 2071 N 190.675 0.682077 -1.42076 0
M  V30 2072 C 191.585 1.82535 -1.47371 0
M  V30 2073 C 192.601 1.7017 -0.363079 0
M  V30 2074 O 193.777 1.91848 -0.612875 0
M  V30 2075 C 190.842 3.18624 -1.36674 0
M  V30 2076 C 189.903 3.42999 -2.58167 0
M  V30 2077 C 189.136 4.72595 -2.4797 0
M  V30 2078 O 189.359 5.50006 -1.5116 0
M  V30 2079 O 188.293 4.98054 -3.37974 0
M  V30 2080 H 192.119 1.81023 -2.43853 0
M  V30 2081 H 189.704 0.836887 -1.2376 0
M  V30 2082 H 191.586 3.99847 -1.33043 0
M  V30 2083 H 190.261 3.20789 -0.433138 0
M  V30 2084 H 189.168 2.61653 -2.67373 0
M  V30 2085 H 190.501 3.45659 -3.50401 0
M  V30 2086 N 192.153 1.28127 0.917671 0
M  V30 2087 C 193.083 1.14248 2.03641 0
M  V30 2088 C 194.064 0.0412748 1.7005 0
M  V30 2089 O 195.249 0.217566 1.92977 0
M  V30 2090 C 192.379 0.799431 3.37974 0
M  V30 2091 C 191.333 1.85497 3.85713 0
M  V30 2092 C 190.659 1.36565 5.16966 0
M  V30 2093 C 191.959 3.26085 4.08002 0
M  V30 2094 H 193.653 2.07835 2.15511 0
M  V30 2095 H 191.199 1.00064 1.03553 0
M  V30 2096 H 193.152 0.689114 4.15727 0
M  V30 2097 H 191.876 -0.172145 3.26146 0
M  V30 2098 H 190.535 1.95437 3.10161 0
M  V30 2099 H 190.183 0.383253 5.01538 0
M  V30 2100 H 189.883 2.07143 5.49878 0
M  V30 2101 H 191.407 1.26848 5.97279 0
M  V30 2102 H 192.821 3.19089 4.76293 0
M  V30 2103 H 191.218 3.94462 4.52238 0
M  V30 2104 H 192.288 3.70394 3.12948 0
M  V30 2105 N 193.631 -1.12557 1.10312 0
M  V30 2106 C 194.856 -1.88405 0.867085 0
M  V30 2107 C 195.281 -1.79038 -0.576817 0
M  V30 2108 O 194.639 -1.14439 -1.40618 0
M  V30 2109 C 194.687 -3.3563 1.31851 0
M  V30 2110 O 193.791 -4.09565 0.482734 0
M  V30 2111 H 193.132 -0.585455 0.313271 0
M  V30 2112 H 195.662 -1.42352 1.4696 0
M  V30 2113 H 195.672 -3.86469 1.3079 0
M  V30 2114 H 194.347 -3.41765 2.37001 0
M  V30 2115 H 192.924 -3.68695 0.558448 0
M  V30 2116 N 195.109 -0.891671 -1.2995 0
M  V30 2117 C 196.056 -0.361736 -2.27948 0
M  V30 2118 C 197.026 0.551761 -1.56668 0
M  V30 2119 O 198.211 0.478736 -1.84696 0
M  V30 2120 C 195.351 0.411825 -3.42634 0
M  V30 2121 C 194.464 -0.531651 -4.28716 0
M  V30 2122 C 193.599 0.258167 -5.30572 0
M  V30 2123 C 192.638 -0.680349 -6.08307 0
M  V30 2124 N 191.775 0.0745613 -7.0206 0
M  V30 2125 H 196.615 -1.20254 -2.72659 0
M  V30 2126 H 194.152 -0.604352 -1.34112 0
M  V30 2127 H 196.11 0.876304 -4.07893 0
M  V30 2128 H 194.74 1.21715 -2.98974 0
M  V30 2129 H 193.792 -1.11463 -3.63703 0
M  V30 2130 H 195.104 -1.25038 -4.82874 0
M  V30 2131 H 194.258 0.784204 -6.0161 0
M  V30 2132 H 192.997 1.01008 -4.77126 0
M  V30 2133 H 192.002 -1.21796 -5.3614 0
M  V30 2134 H 193.227 -1.43145 -6.63842 0
M  V30 2135 H 191.173 0.808883 -6.50994 0
M  V30 2136 H 191.09 -0.584409 -7.53738 0
M  V30 2137 H 192.358 0.581123 -7.77331 0
M  V30 2138 N 196.587 1.43421 -0.653314 0
M  V30 2139 C 197.517 2.33487 0.0246656 0
M  V30 2140 C 198.498 1.49475 0.811863 0
M  V30 2141 O 199.683 1.78139 0.773322 0
M  V30 2142 C 196.813 3.32841 0.99166 0
M  V30 2143 C 195.767 4.26842 0.314568 0
M  V30 2144 C 195.093 5.16236 1.39302 0
M  V30 2145 C 196.393 5.16243 -0.793095 0
M  V30 2146 H 198.087 2.90427 -0.727481 0
M  V30 2147 H 195.633 1.39649 -0.351287 0
M  V30 2148 H 197.586 3.94747 1.47487 0
M  V30 2149 H 196.31 2.74158 1.77497 0
M  V30 2150 H 194.969 3.663 -0.148199 0
M  V30 2151 H 194.617 4.53891 2.16776 0
M  V30 2152 H 194.317 5.79948 0.945223 0
M  V30 2153 H 195.841 5.81015 1.87759 0
M  V30 2154 H 197.255 5.71958 -0.392039 0
M  V30 2155 H 195.652 5.88676 -1.16536 0
M  V30 2156 H 196.722 4.55927 -1.65103 0
M  V30 2157 N 198.065 0.39524 1.52563 0
M  V30 2158 C 199.311 -0.185318 2.01952 0
M  V30 2159 C 199.644 -1.45964 1.28095 0
M  V30 2160 O 198.919 -1.90689 0.38315 0
M  V30 2161 C 199.202 -0.447193 3.57312 0
M  V30 2162 C 199.055 0.842828 4.41833 0
M  V30 2163 C 200.374 -1.23529 4.22408 0
M  V30 2164 H 197.493 -0.0658788 0.73405 0
M  V30 2165 H 200.135 0.525975 1.82575 0
M  V30 2166 H 198.285 -1.05312 3.73954 0
M  V30 2167 H 199.957 1.4795 4.36931 0
M  V30 2168 H 198.2 1.45686 4.08605 0
M  V30 2169 H 198.871 0.614165 5.48573 0
M  V30 2170 H 201.347 -0.722445 4.0978 0
M  V30 2171 H 200.223 -1.38727 5.3108 0
M  V30 2172 H 200.484 -2.25213 3.80436 0
M  V30 2173 N 199.544 -1.57102 0.125237 0
M  V30 2174 C 200.955 -1.82384 -0.399142 0
M  V30 2175 C 201.306 -1.04276 -1.66195 0
M  V30 2176 O 200.431 -0.281269 -2.14564 0
M  V30 2177 C 201.026 -3.30821 -0.730932 0
M  V30 2178 C 199.585 -3.56762 -1.19992 0
M  V30 2179 C 198.732 -2.7649 -0.211792 0
M  V30 2180 H 201.683 -1.54786 0.350277 0
M  V30 2181 H 201.704 -3.4579 -1.58775 0
M  V30 2182 H 201.216 -3.87643 0.188345 0
M  V30 2183 H 199.317 -3.05305 -2.13588 0
M  V30 2184 H 199.43 -4.65317 -1.14093 0
M  V30 2185 H 197.794 -2.4489 -0.700085 0
M  V30 2186 H 198.577 -3.36073 0.700691 0
M  V30 2187 N 201.022 0.148545 -1.56898 0
M  V30 2188 C 202.433 0.708766 -1.72723 0
M  V30 2189 C 202.784 1.81734 -0.739395 0
M  V30 2190 O 201.909 2.16194 0.0943169 0
M  V30 2191 C 202.504 1.29245 -3.13179 0
M  V30 2192 C 201.063 1.79925 -3.30611 0
M  V30 2193 C 200.21 0.687111 -2.68652 0
M  V30 2194 H 203.161 -0.0771063 -1.58513 0
M  V30 2195 H 203.182 2.16224 -3.13093 0
M  V30 2196 H 202.694 0.485382 -3.85053 0
M  V30 2197 H 200.795 2.63203 -2.63732 0
M  V30 2198 H 200.908 1.92903 -4.38549 0
M  V30 2199 H 199.272 1.11335 -2.29078 0
M  V30 2200 H 200.055 -0.108483 -3.43129 0
M  V30 2201 N 202.5 1.5196 0.417844 0
M  V30 2202 C 203.41 1.77554 1.53336 0
M  V30 2203 C 204.426 0.660655 1.6097 0
M  V30 2204 O 205.602 0.945099 1.77848 0
M  V30 2205 C 202.667 1.91291 2.89152 0
M  V30 2206 C 201.728 3.15183 2.91475 0
M  V30 2207 C 200.961 3.28256 4.20813 0
M  V30 2208 O 201.184 2.46798 5.14244 0
M  V30 2209 O 200.118 4.21356 4.29817 0
M  V30 2210 H 203.944 2.7222 1.34647 0
M  V30 2211 H 201.529 1.36698 0.602828 0
M  V30 2212 H 203.411 2.02199 3.69721 0
M  V30 2213 H 202.086 0.998129 3.07927 0
M  V30 2214 H 200.993 3.09739 2.09791 0
M  V30 2215 H 202.326 4.06414 2.77648 0
M  V30 2216 N 203.978 -0.674533 1.42435 0
M  V30 2217 C 205.218 -1.4466 1.44405 0
M  V30 2218 C 205.582 -1.91911 0.0585784 0
M  V30 2219 O 206.783 -2.68759 -0.0469991 0
M  V30 2220 C 205.054 -2.61136 2.44013 0
M  V30 2221 S 206.613 -3.49981 2.64687 0
M  V30 2222 H 203.431 -0.494074 0.511284 0
M  V30 2223 H 206.033 -0.785162 1.7904 0
M  V30 2224 H 204.737 -2.24662 3.43446 0
M  V30 2225 H 204.268 -3.32153 2.10803 0
M  V30 2226 H 206.283 -4.57124 1.93007 0
M  V30 2227 N 205.456 -1.28612 -0.910864 0
M  V30 2228 C 206.406 -1.09423 -2.00026 0
M  V30 2229 C 207.39 -0.0170079 -1.60891 0
M  V30 2230 O 208.582 -0.237472 -1.754 0
M  V30 2231 C 205.711 -0.76114 -3.34756 0
M  V30 2232 C 204.797 -1.87735 -3.80285 0
M  V30 2233 N 205.188 -3.11938 -3.98156 0
M  V30 2234 C 203.486 -1.76786 -4.09467 0
M  V30 2235 C 204.187 -3.84687 -4.36338 0
M  V30 2236 N 203.163 -3.12555 -4.44759 0
M  V30 2237 H 206.965 -2.03658 -2.11898 0
M  V30 2238 H 204.479 -1.19573 -1.09891 0
M  V30 2239 H 206.476 -0.604743 -4.12491 0
M  V30 2240 H 205.136 0.173403 -3.24237 0
M  V30 2241 H 206.147 -3.47516 -3.83996 0
M  V30 2242 H 202.824 -0.905284 -4.07567 0
M  V30 2243 H 204.214 -4.91518 -4.58104 0
M  V30 2244 N 206.934 1.1197 -1.10907 0
M  V30 2245 C 208.174 1.85224 -0.864378 0
M  V30 2246 C 208.538 1.82411 0.599178 0
M  V30 2247 O 209.739 2.51057 0.960416 0
M  V30 2248 C 208.01 3.2868 -1.40371 0
M  V30 2249 S 209.569 4.1925 -1.29518 0
M  V30 2250 H 206.387 0.63878 -0.312219 0
M  V30 2251 H 208.989 1.3485 -1.41548 0
M  V30 2252 H 207.693 3.28289 -2.46281 0
M  V30 2253 H 207.224 3.84121 -0.849402 0
M  V30 2254 H 209.239 4.95539 -0.256059 0
M  V30 2255 N 208.412 0.89855 1.29475 0
M  V30 2256 C 209.658 0.524658 1.95896 0
M  V30 2257 C 209.991 -0.926468 1.70676 0
M  V30 2258 O 209.266 -1.65665 1.01908 0
M  V30 2259 C 209.549 0.81633 3.50725 0
M  V30 2260 C 209.402 2.31907 3.85408 0
M  V30 2261 C 210.721 0.302038 4.39062 0
M  V30 2262 H 207.84 0.19209 0.711527 0
M  V30 2263 H 210.482 1.12502 1.53112 0
M  V30 2264 H 208.632 0.305369 3.87298 0
M  V30 2265 H 210.304 2.89949 3.58786 0
M  V30 2266 H 208.547 2.78027 3.32992 0
M  V30 2267 H 209.218 2.47373 4.93468 0
M  V30 2268 H 211.694 0.739551 4.09475 0
M  V30 2269 H 210.57 0.535331 5.46283 0
M  V30 2270 H 210.831 -0.797216 4.34853 0
M  V30 2271 N 209.89 -1.43072 0.660911 0
M  V30 2272 C 211.306 -1.56169 0.329173 0
M  V30 2273 C 211.506 -1.64317 -1.16629 0
M  V30 2274 O 210.562 -1.60245 -1.95135 0
M  V30 2275 C 211.875 -2.81873 1.04729 0
M  V30 2276 C 213.423 -2.95627 1.02828 0
M  V30 2277 C 213.898 -4.24174 1.72744 0
M  V30 2278 N 215.389 -4.31055 1.69545 0
M  V30 2279 C 216.124 -5.29304 2.20511 0
M  V30 2280 N 215.62 -6.33786 2.79799 0
M  V30 2281 N 217.413 -5.21008 2.10966 0
M  V30 2282 H 209.564 -1.36027 1.63127 0
M  V30 2283 H 211.827 -0.653823 0.686454 0
M  V30 2284 H 211.533 -2.81942 2.10242 0
M  V30 2285 H 211.407 -3.72338 0.603702 0
M  V30 2286 H 213.794 -2.95094 -0.0184742 0
M  V30 2287 H 213.875 -2.06431 1.51063 0
M  V30 2288 H 213.519 -4.25467 2.7738 0
M  V30 2289 H 213.449 -5.1228 1.2197 0
M  V30 2290 H 215.94 -3.56174 1.26288 0
M  V30 2291 H 216.253 -7.05086 3.16344 0
M  V30 2292 H 214.598 -6.34387 2.83863 0
M  V30 2293 H 217.789 -4.38301 1.64347 0
M  V30 2294 H 217.962 -5.97416 2.50993 0
M  V30 2295 N 211.368 -0.403325 -1.52352 0
M  V30 2296 C 212.278 0.432009 -2.30588 0
M  V30 2297 C 213.294 1.05884 -1.38075 0
M  V30 2298 O 214.47 1.06161 -1.71148 0
M  V30 2299 C 211.535 1.53669 -3.10784 0
M  V30 2300 C 210.596 0.933525 -4.19027 0
M  V30 2301 C 209.829 1.98557 -4.9539 0
M  V30 2302 O 210.052 3.20283 -4.71991 0
M  V30 2303 O 208.986 1.59504 -5.80381 0
M  V30 2304 H 212.812 -0.205739 -3.03002 0
M  V30 2305 H 210.397 -0.166675 -1.48467 0
M  V30 2306 H 212.279 2.17814 -3.60742 0
M  V30 2307 H 210.954 2.15915 -2.41169 0
M  V30 2308 H 209.861 0.254954 -3.7323 0
M  V30 2309 H 211.194 0.35508 -4.90918 0
M  V30 2310 N 212.846 1.57033 -0.133567 0
M  V30 2311 C 214.094 1.953 0.519848 0
M  V30 2312 C 214.415 1.01866 1.66278 0
M  V30 2313 O 213.685 0.0776513 1.95746 0
M  V30 2314 H 212.265 0.721091 0.195032 0
M  V30 2315 H 214.927 1.93809 -0.205921 0
M  V30 2316 H 214.023 2.98695 0.904854 0
M  V30 2317 N 214.325 -0.140222 1.56975 0
M  V30 2318 C 215.272 -1.17292 1.98774 0
M  V30 2319 C 216.242 -1.4232 0.856408 0
M  V30 2320 O 217.427 -1.54541 1.119 0
M  V30 2321 C 214.567 -2.49973 2.37923 0
M  V30 2322 C 213.68 -2.32062 3.64378 0
M  V30 2323 C 212.815 -3.57825 3.926 0
M  V30 2324 C 211.854 -3.3498 5.12303 0
M  V30 2325 N 210.991 -4.52891 5.36502 0
M  V30 2326 H 215.831 -0.809472 2.86795 0
M  V30 2327 H 213.368 -0.388237 1.41884 0
M  V30 2328 H 215.326 -3.27346 2.58652 0
M  V30 2329 H 213.956 -2.84252 1.52972 0
M  V30 2330 H 213.008 -1.45711 3.51387 0
M  V30 2331 H 214.32 -2.11145 4.51906 0
M  V30 2332 H 213.474 -4.43624 4.13863 0
M  V30 2333 H 212.213 -3.81753 3.03506 0
M  V30 2334 H 211.218 -2.4757 4.90906 0
M  V30 2335 H 212.443 -3.12444 6.02956 0
M  V30 2336 H 210.389 -4.76979 4.50363 0
M  V30 2337 H 210.306 -4.35001 6.18312 0
M  V30 2338 H 211.574 -5.39884 5.62268 0
M  V30 2339 N 215.803 -1.52179 -0.40978 0
M  V30 2340 C 216.733 -1.78435 -1.5061 0
M  V30 2341 C 217.714 -0.635295 -1.57791 0
M  V30 2342 O 218.899 -0.880823 -1.73076 0
M  V30 2343 C 216.029 -1.93444 -2.88439 0
M  V30 2344 C 214.983 -3.09038 -2.96108 0
M  V30 2345 C 214.309 -3.09268 -4.36185 0
M  V30 2346 C 215.609 -4.48508 -2.67652 0
M  V30 2347 H 217.303 -2.70237 -1.28889 0
M  V30 2348 H 214.849 -1.30036 -0.618605 0
M  V30 2349 H 216.802 -2.10394 -3.65119 0
M  V30 2350 H 215.526 -0.983129 -3.11452 0
M  V30 2351 H 214.185 -2.91837 -2.21872 0
M  V30 2352 H 213.833 -2.11861 -4.56206 0
M  V30 2353 H 213.533 -3.86907 -4.42241 0
M  V30 2354 H 215.057 -3.28348 -5.14801 0
M  V30 2355 H 216.471 -4.65918 -3.34056 0
M  V30 2356 H 214.868 -5.28059 -2.85085 0
M  V30 2357 H 215.938 -4.56649 -1.63095 0
M  V30 2358 N 217.281 0.66697 -1.42791 0
M  V30 2359 C 218.191 1.80962 -1.49299 0
M  V30 2360 C 219.207 1.69775 -0.381108 0
M  V30 2361 O 220.383 1.91188 -0.633188 0
M  V30 2362 C 217.448 3.17156 -1.40045 0
M  V30 2363 C 216.509 3.40242 -2.6179 0
M  V30 2364 C 215.742 4.69939 -2.52969 0
M  V30 2365 O 215.965 5.48372 -1.56985 0
M  V30 2366 O 214.899 4.94441 -3.43237 0
M  V30 2367 H 218.725 1.78427 -2.45759 0
M  V30 2368 H 216.31 0.823713 -1.24641 0
M  V30 2369 H 218.192 3.98413 -1.37276 0
M  V30 2370 H 216.867 3.20312 -0.467138 0
M  V30 2371 H 215.774 2.58802 -2.70134 0
M  V30 2372 H 217.107 3.41923 -3.54047 0
M  V30 2373 N 218.759 1.29093 0.90403 0
M  V30 2374 C 219.709 1.10482 1.99443 0
M  V30 2375 C 220.693 0.0255401 1.6088 0
M  V30 2376 O 221.885 0.24677 1.75271 0
M  V30 2377 C 219.014 0.778882 3.34348 0
M  V30 2378 C 218.1 1.89749 3.79284 0
M  V30 2379 N 218.491 3.14045 3.96497 0
M  V30 2380 C 216.789 1.78955 4.08523 0
M  V30 2381 C 217.49 3.86996 4.34292 0
M  V30 2382 N 216.466 3.14909 4.43095 0
M  V30 2383 H 220.268 2.04778 2.10815 0
M  V30 2384 H 217.782 1.20155 1.09255 0
M  V30 2385 H 219.779 0.62661 4.12164 0
M  V30 2386 H 218.439 -0.156205 3.24324 0
M  V30 2387 H 219.45 3.49548 3.82148 0
M  V30 2388 H 216.127 0.926886 4.07081 0
M  V30 2389 H 217.517 4.93941 4.55491 0
M  V30 2390 N 220.237 -1.11381 1.11499 0
M  V30 2391 C 221.465 -1.86934 0.88675 0
M  V30 2392 C 221.88 -1.80195 -0.563476 0
M  V30 2393 O 221.237 -1.18367 -1.38908 0
M  V30 2394 C 221.288 -3.35722 1.34064 0
M  V30 2395 O 221.009 -3.4232 2.73401 0
M  V30 2396 C 222.51 -4.2818 1.14791 0
M  V30 2397 H 219.73 -0.591117 0.317523 0
M  V30 2398 H 222.274 -1.40865 1.48248 0
M  V30 2399 H 220.429 -3.79294 0.788355 0
M  V30 2400 H 220.843 -4.34971 2.93087 0
M  V30 2401 H 222.317 -5.30817 1.5145 0
M  V30 2402 H 222.794 -4.39113 0.0875279 0
M  V30 2403 H 223.4 -3.90402 1.68721 0
M  V30 2404 N 221.715 -0.905404 -1.28997 0
M  V30 2405 C 222.645 -0.404212 -2.29975 0
M  V30 2406 C 223.626 0.523784 -1.61835 0
M  V30 2407 O 224.811 0.433298 -1.89304 0
M  V30 2408 C 221.941 0.364042 -3.45387 0
M  V30 2409 C 220.895 -0.474048 -4.25367 0
M  V30 2410 C 220.221 0.422045 -5.33032 0
M  V30 2411 C 221.521 -1.72696 -4.92923 0
M  V30 2412 H 223.215 -1.24807 -2.72146 0
M  V30 2413 H 220.761 -0.601585 -1.30832 0
M  V30 2414 H 222.714 0.725447 -4.15109 0
M  V30 2415 H 221.438 1.24174 -3.02074 0
M  V30 2416 H 220.097 -0.81786 -3.57361 0
M  V30 2417 H 219.745 1.29804 -4.85963 0
M  V30 2418 H 219.445 -0.135057 -5.87445 0
M  V30 2419 H 220.969 0.779517 -6.05604 0
M  V30 2420 H 222.383 -1.43495 -5.55051 0
M  V30 2421 H 220.78 -2.22582 -5.57295 0
M  V30 2422 H 221.85 -2.45964 -4.17887 0
M  V30 2423 N 223.193 1.4272 -0.668489 0
M  V30 2424 C 224.156 2.292 0.00448567 0
M  V30 2425 C 225.156 1.43001 0.735339 0
M  V30 2426 O 226.346 1.64461 0.57429 0
M  V30 2427 C 223.478 3.25375 1.01705 0
M  V30 2428 H 224.671 2.90199 -0.756608 0
M  V30 2429 H 222.224 1.50254 -0.430506 0
M  V30 2430 H 222.959 2.69301 1.80686 0
M  V30 2431 H 222.744 3.88944 0.496463 0
M  V30 2432 H 224.234 3.90245 1.48655 0
M  V30 2433 N 224.671 0.411399 1.52136 0
M  V30 2434 C 226.087 0.0623865 1.59478 0
M  V30 2435 C 226.287 -1.42554 1.4241 0
M  V30 2436 O 225.343 -2.19263 1.2522 0
M  V30 2437 C 226.656 0.559331 2.95452 0
M  V30 2438 C 228.204 0.517503 3.08692 0
M  V30 2439 C 228.679 0.990994 4.4715 0
M  V30 2440 N 230.17 0.947908 4.53397 0
M  V30 2441 C 230.905 1.28544 5.58806 0
M  V30 2442 N 230.401 1.69454 6.71757 0
M  V30 2443 N 232.194 1.20526 5.49026 0
M  V30 2444 H 224.345 1.37982 1.61477 0
M  V30 2445 H 226.608 0.566977 0.759764 0
M  V30 2446 H 226.314 1.59938 3.1323 0
M  V30 2447 H 226.188 -0.0298014 3.77188 0
M  V30 2448 H 228.575 -0.513505 2.90598 0
M  V30 2449 H 228.656 1.14272 2.28857 0
M  V30 2450 H 228.3 2.02034 4.65988 0
M  V30 2451 H 228.23 0.34257 5.25485 0
M  V30 2452 H 230.721 0.647157 3.72317 0
M  V30 2453 H 231.034 1.93513 7.48179 0
M  V30 2454 H 229.379 1.73359 6.73032 0
M  V30 2455 H 232.57 0.884505 4.59667 0
M  V30 2456 H 232.743 1.47161 6.31069 0
M  V30 2457 N 226.149 -1.5696 0.141893 0
M  V30 2458 C 227.426 -1.87553 -0.555281 0
M  V30 2459 C 227.806 -1.04699 -1.83306 0
M  V30 2460 O 227.154 -0.132346 -2.28116 0
M  V30 2461 C 227.364 -3.39093 -0.825664 0
M  V30 2462 C 228.712 -4.08199 -1.16869 0
M  V30 2463 O 229.736 -3.44242 -0.915185 0
M  V30 2464 O 228.595 -5.21139 -1.6455 0
M  V30 2465 H 225.689 -0.777188 -0.282679 0
M  V30 2466 H 228.235 -1.68763 0.17812 0
M  V30 2467 H 227.007 -3.91221 0.0788633 0
M  V30 2468 H 226.63 -3.63393 -1.61343 0
M  V30 2469 N 227.627 0.131896 -1.57047 0
M  V30 2470 C 228.557 1.16384 -2.02428 0
M  V30 2471 C 229.538 1.43936 -0.90644 0
M  V30 2472 O 230.723 1.54599 -1.17528 0
M  V30 2473 C 227.853 2.49328 -2.4177 0
M  V30 2474 C 226.807 2.36266 -3.56879 0
M  V30 2475 C 226.133 3.74057 -3.8208 0
M  V30 2476 C 227.433 1.834 -4.89042 0
M  V30 2477 H 229.127 0.786433 -2.88887 0
M  V30 2478 H 226.673 0.376855 -1.38981 0
M  V30 2479 H 228.626 3.21759 -2.7212 0
M  V30 2480 H 227.35 2.88934 -1.52266 0
M  V30 2481 H 226.009 1.66286 -3.26718 0
M  V30 2482 H 225.657 4.11125 -2.89803 0
M  V30 2483 H 225.357 3.66174 -4.59554 0
M  V30 2484 H 226.881 4.48012 -4.1487 0
M  V30 2485 H 228.295 2.45636 -5.18011 0
M  V30 2486 H 226.692 1.8637 -5.70426 0
M  V30 2487 H 227.762 0.790662 -4.7841 0
M  V30 2488 N 229.106 1.52395 0.401703 0
M  V30 2489 C 230.352 1.67065 1.14966 0
M  V30 2490 C 230.685 0.403052 1.89971 0
M  V30 2491 O 229.96 -0.598774 1.85054 0
M  V30 2492 C 230.243 2.8975 2.13815 0
M  V30 2493 C 230.096 4.26578 1.42658 0
M  V30 2494 C 231.415 3.07965 3.14397 0
M  V30 2495 H 228.534 0.607968 0.416587 0
M  V30 2496 H 231.176 1.84965 0.434511 0
M  V30 2497 H 229.326 2.74619 2.74803 0
M  V30 2498 H 230.998 4.53451 0.847329 0
M  V30 2499 H 229.241 4.27639 0.72849 0
M  V30 2500 H 229.912 5.08483 2.14823 0
M  V30 2501 H 232.388 3.22043 2.63491 0
M  V30 2502 H 231.264 3.95308 3.80819 0
M  V30 2503 H 231.525 2.21611 3.82545 0
M  V30 2504 N 230.584 -0.659388 1.43143 0
M  V30 2505 C 231.995 -1.24041 1.39537 0
M  V30 2506 C 232.346 -1.95963 0.0963364 0
M  V30 2507 O 231.471 -2.00892 -0.804438 0
M  V30 2508 C 232.066 -2.25601 2.52764 0
M  V30 2509 C 230.625 -2.79195 2.52443 0
M  V30 2510 C 229.772 -1.53743 2.30778 0
M  V30 2511 H 232.723 -0.451792 1.52133 0
M  V30 2512 H 232.744 -3.07651 2.23899 0
M  V30 2513 H 232.256 -1.73226 3.47296 0
M  V30 2514 H 230.357 -3.35649 1.61773 0
M  V30 2515 H 230.47 -3.2716 3.50004 0
M  V30 2516 H 228.834 -1.80869 1.79328 0
M  V30 2517 H 229.617 -1.03312 3.27386 0
M  V30 2518 N 232.062 -1.29571 -0.897171 0
M  V30 2519 C 233.31 -1.17456 -1.64464 0
M  V30 2520 C 233.631 0.273698 -1.9307 0
M  V30 2521 O 232.901 1.18684 -1.55855 0
M  V30 2522 H 231.481 -0.431706 -0.609622 0
M  V30 2523 H 234.143 -1.62531 -1.07562 0
M  V30 2524 H 233.239 -1.72648 -2.59998 0
M  V30 2525 N 233.54 1.10788 -1.12088 0
M  V30 2526 C 234.817 1.79136 -0.785476 0
M  V30 2527 C 235.197 1.98246 0.725377 0
M  V30 2528 O 234.545 1.57258 1.65778 0
M  V30 2529 C 234.755 3.12375 -1.55636 0
M  V30 2530 C 236.103 3.8731 -1.74001 0
M  V30 2531 O 237.127 3.22085 -1.52117 0
M  V30 2532 O 235.986 5.04369 -2.10415 0
M  V30 2533 H 233.08 0.776226 -0.285311 0
M  V30 2534 H 235.626 1.1747 -1.2247 0
M  V30 2535 H 234.398 2.93863 -2.5838 0
M  V30 2536 H 234.021 3.81758 -1.11114 0
M  V30 2537 N 235.018 0.912232 1.28515 0
M  V30 2538 C 236.246 0.560416 1.99166 0
M  V30 2539 C 236.661 -0.857927 1.68182 0
M  V30 2540 O 236.018 -1.56805 0.933733 0
M  V30 2541 C 236.069 0.758142 3.53461 0
M  V30 2542 O 235.79 2.12067 3.83352 0
M  V30 2543 C 237.291 0.412954 4.41372 0
M  V30 2544 H 234.511 0.213805 0.636026 0
M  V30 2545 H 237.055 1.22502 1.63749 0
M  V30 2546 H 235.21 0.140556 3.87145 0
M  V30 2547 H 235.624 2.15923 4.77993 0
M  V30 2548 H 237.098 0.60208 5.48707 0
M  V30 2549 H 237.575 -0.65073 4.34353 0
M  V30 2550 H 238.181 1.00802 4.13182 0
M  V30 2551 N 236.496 -1.42363 0.676048 0
M  V30 2552 C 237.742 -2.0182 0.199125 0
M  V30 2553 C 238.075 -1.53339 -1.19168 0
M  V30 2554 O 237.35 -0.736124 -1.80032 0
M  V30 2555 C 237.633 -3.59331 0.235144 0
M  V30 2556 C 237.486 -4.17989 1.66149 0
M  V30 2557 C 238.805 -4.3813 -0.41595 0
M  V30 2558 H 235.924 -0.733293 0.0738311 0
M  V30 2559 H 238.566 -1.69368 0.86107 0
M  V30 2560 H 236.716 -3.87109 -0.328487 0
M  V30 2561 H 238.388 -4.0116 2.27747 0
M  V30 2562 H 236.631 -3.7377 2.20178 0
M  V30 2563 H 237.302 -5.27126 1.63837 0
M  V30 2564 H 239.778 -4.16051 0.0638529 0
M  V30 2565 H 238.654 -5.47717 -0.360115 0
M  V30 2566 H 238.915 -4.16101 -1.49373 0
M  V30 2567 N 237.974 -0.419461 -1.51915 0
M  V30 2568 C 239.214 0.152336 -2.03832 0
M  V30 2569 C 239.578 1.41501 -1.29775 0
M  V30 2570 O 240.779 2.06591 -1.7197 0
M  V30 2571 C 239.05 0.383812 -3.55333 0
M  V30 2572 S 240.609 0.921577 -4.29013 0
M  V30 2573 H 237.427 0.0402193 -0.709862 0
M  V30 2574 H 240.029 -0.574758 -1.8686 0
M  V30 2575 H 238.733 -0.541794 -4.06808 0
M  V30 2576 H 238.264 1.13849 -3.76566 0
M  V30 2577 H 240.279 2.20108 -4.4471 0
M  V30 2578 N 239.452 1.56882 -0.150215 0
M  V30 2579 C 240.382 2.19935 0.784284 0
M  V30 2580 C 241.363 1.14854 1.25469 0
M  V30 2581 O 242.548 1.43209 1.31168 0
M  V30 2582 C 239.678 2.82349 2.02229 0
M  V30 2583 C 238.632 3.93285 1.68853 0
M  V30 2584 C 237.958 4.42649 2.99944 0
M  V30 2585 C 239.258 5.13904 0.932714 0
M  V30 2586 H 240.952 2.9828 0.258781 0
M  V30 2587 H 238.498 1.43473 0.123029 0
M  V30 2588 H 240.451 3.25126 2.68088 0
M  V30 2589 H 239.175 2.0134 2.57157 0
M  V30 2590 H 237.834 3.5113 1.05371 0
M  V30 2591 H 237.482 3.58458 3.52869 0
M  V30 2592 H 237.182 5.17476 2.78374 0
M  V30 2593 H 238.706 4.88099 3.66868 0
M  V30 2594 H 240.12 5.53506 1.49345 0
M  V30 2595 H 238.517 5.94515 0.81684 0
M  V30 2596 H 239.587 4.84842 -0.0749568 0
M  V30 2597 N 240.93 -0.123565 1.57115 0
M  V30 2598 C 242.155 -0.850398 1.89164 0
M  V30 2599 C 242.58 -1.7286 0.741688 0
M  V30 2600 O 241.938 -1.78665 -0.307958 0
M  V30 2601 C 241.986 -1.66353 3.19936 0
M  V30 2602 O 241.09 -2.77004 3.0552 0
M  V30 2603 H 240.431 -0.235454 0.620852 0
M  V30 2604 H 242.961 -0.107335 2.04318 0
M  V30 2605 H 242.971 -2.05372 3.52543 0
M  V30 2606 H 241.646 -1.01881 4.03228 0
M  V30 2607 H 240.223 -2.41221 2.84371 0
M  V30 2608 N 242.408 -1.52605 -0.393616 0
M  V30 2609 C 243.654 -1.67672 -1.14079 0
M  V30 2610 C 243.987 -0.413121 -1.89755 0
M  V30 2611 O 243.262 0.588952 -1.85369 0
M  V30 2612 C 243.545 -2.9088 -2.12276 0
M  V30 2613 C 243.398 -4.27329 -1.40394 0
M  V30 2614 C 244.717 -3.09628 -3.12759 0
M  V30 2615 H 241.836 -0.610168 -0.413356 0
M  V30 2616 H 244.478 -1.85193 -0.424696 0
M  V30 2617 H 242.628 -2.76073 -2.73342 0
M  V30 2618 H 244.3 -4.53894 -0.82327 0
M  V30 2619 H 242.543 -4.2802 -0.705801 0
M  V30 2620 H 243.214 -5.09615 -2.12123 0
M  V30 2621 H 245.69 -3.23436 -2.61779 0
M  V30 2622 H 244.566 -3.97322 -3.78717 0
M  V30 2623 H 244.827 -2.23637 -3.81365 0
M  V30 2624 N 243.887 0.651787 -1.4349 0
M  V30 2625 C 245.135 1.40888 -1.44897 0
M  V30 2626 C 245.456 1.94856 -0.0749086 0
M  V30 2627 O 244.726 1.74518 0.889956 0
M  V30 2628 H 243.306 0.522887 -0.533478 0
M  V30 2629 H 245.968 0.768609 -1.79104 0
M  V30 2630 H 245.064 2.25052 -2.16236 0
M  V30 2631 N 245.365 1.30045 0.890287 0
M  V30 2632 C 246.642 1.09227 1.62262 0
M  V30 2633 C 247.022 -0.360305 2.08002 0
M  V30 2634 O 246.37 -1.35084 1.84295 0
M  V30 2635 C 246.58 2.08835 2.79623 0
M  V30 2636 C 247.928 2.40266 3.50082 0
M  V30 2637 O 248.952 2.07104 2.89804 0
M  V30 2638 O 247.811 2.96967 4.58773 0
M  V30 2639 H 244.905 0.419132 0.712922 0
M  V30 2640 H 247.451 1.41451 0.937529 0
M  V30 2641 H 246.223 3.06633 2.43089 0
M  V30 2642 H 245.846 1.77397 3.55832 0
M  V30 2643 N 246.843 -1.10192 1.12674 0
M  V30 2644 C 248.259 -1.34235 0.863317 0
M  V30 2645 C 248.459 -1.95062 -0.505277 0
M  V30 2646 O 247.515 -2.19192 -1.25345 0
M  V30 2647 C 248.828 -2.2616 1.98172 0
M  V30 2648 C 250.376 -2.3969 2.0129 0
M  V30 2649 C 250.851 -3.34946 3.1237 0
M  V30 2650 N 252.342 -3.42515 3.11829 0
M  V30 2651 C 253.077 -4.16199 3.94419 0
M  V30 2652 N 252.573 -4.92747 4.87004 0
M  V30 2653 N 254.366 -4.11843 3.82547 0
M  V30 2654 H 246.517 -0.690798 2.00853 0
M  V30 2655 H 248.78 -0.366774 0.874174 0
M  V30 2656 H 248.486 -1.8868 2.96804 0
M  V30 2657 H 248.36 -3.26488 1.88906 0
M  V30 2658 H 250.747 -2.76438 1.03276 0
M  V30 2659 H 250.828 -1.39169 2.14629 0
M  V30 2660 H 250.472 -2.98923 4.10619 0
M  V30 2661 H 250.402 -4.35353 2.96269 0
M  V30 2662 H 252.893 -2.87926 2.44759 0
M  V30 2663 H 253.206 -5.46376 5.46528 0
M  V30 2664 H 251.551 -4.91862 4.91016 0
M  V30 2665 H 254.742 -3.51136 3.0955 0
M  V30 2666 H 254.915 -4.69007 4.47142 0
M  V30 2667 N 248.321 -0.919034 -1.28029 0
M  V30 2668 C 249.567 -0.555757 -1.95036 0
M  V30 2669 C 249.9 0.899198 -1.72128 0
M  V30 2670 O 249.175 1.64023 -1.04531 0
M  V30 2671 C 249.458 -0.872024 -3.49382 0
M  V30 2672 C 249.311 -2.3801 -3.81669 0
M  V30 2673 C 250.63 -0.37185 -4.38526 0
M  V30 2674 H 247.749 -0.203386 -0.708381 0
M  V30 2675 H 250.391 -1.14924 -1.51303 0
M  V30 2676 H 248.541 -0.366946 -3.86763 0
M  V30 2677 H 250.213 -2.9562 -3.54128 0
M  V30 2678 H 248.456 -2.83289 -3.28526 0
M  V30 2679 H 249.127 -2.55192 -4.8947 0
M  V30 2680 H 251.603 -0.804602 -4.08247 0
M  V30 2681 H 250.479 -0.622173 -5.45362 0
M  V30 2682 H 250.74 0.727934 -4.36066 0
M  V30 2683 N 249.799 1.42003 -0.683588 0
M  V30 2684 C 251.21 1.84501 -0.285736 0
M  V30 2685 C 251.561 1.57213 1.17382 0
M  V30 2686 O 250.686 1.03642 1.89966 0
M  V30 2687 C 251.281 3.34912 -0.511821 0
M  V30 2688 C 249.84 3.76025 -0.168005 0
M  V30 2689 C 248.987 2.6551 -0.799983 0
M  V30 2690 H 251.938 1.31724 -0.885119 0
M  V30 2691 H 251.959 3.79784 0.233292 0
M  V30 2692 H 251.471 3.54741 -1.57418 0
M  V30 2693 H 249.572 3.61801 0.890567 0
M  V30 2694 H 249.685 4.75141 -0.614661 0
M  V30 2695 H 248.049 2.53654 -0.230568 0
M  V30 2696 H 248.832 2.8816 -1.86597 0
M  V30 2697 N 251.277 0.427512 1.51691 0
M  V30 2698 C 252.24 -0.377132 2.26076 0
M  V30 2699 C 253.24 -0.958089 1.29141 0
M  V30 2700 O 254.43 -0.83408 1.52934 0
M  V30 2701 C 251.562 -1.53262 3.04506 0
M  V30 2702 H 252.755 0.27464 2.9864 0
M  V30 2703 H 250.308 0.180445 1.55255 0
M  V30 2704 H 251.043 -2.22072 2.36335 0
M  V30 2705 H 250.828 -1.12232 3.75694 0
M  V30 2706 H 252.318 -2.10135 3.60878 0
M  V30 2707 N 252.755 -1.56801 0.158532 0
M  V30 2708 C 254.032 -1.88131 -0.535357 0
M  V30 2709 C 254.412 -1.06638 -1.82186 0
M  V30 2710 O 253.76 -0.156533 -2.27963 0
M  V30 2711 C 253.97 -3.39949 -0.789653 0
M  V30 2712 C 255.318 -4.09416 -1.12533 0
M  V30 2713 O 256.342 -3.45194 -0.878622 0
M  V30 2714 O 255.201 -5.22855 -1.59014 0
M  V30 2715 H 252.295 -0.780143 -0.27442 0
M  V30 2716 H 254.841 -1.68564 0.19601 0
M  V30 2717 H 253.613 -3.91115 0.120353 0
M  V30 2718 H 253.236 -3.65084 -1.57479 0
M  V30 2719 N 254.233 0.115231 -1.57178 0
M  V30 2720 C 255.163 1.1423 -2.03651 0
M  V30 2721 C 256.144 1.42967 -0.921655 0
M  V30 2722 O 257.329 1.53343 -1.19162 0
M  V30 2723 C 254.459 2.4675 -2.44401 0
M  V30 2724 C 253.413 2.32467 -3.59365 0
M  V30 2725 C 252.739 3.69984 -3.86026 0
M  V30 2726 C 254.039 1.78203 -4.90959 0
M  V30 2727 H 255.733 0.755749 -2.89705 0
M  V30 2728 H 253.279 0.362093 -1.39373 0
M  V30 2729 H 255.232 3.18854 -2.75517 0
M  V30 2730 H 253.956 2.87302 -1.55322 0
M  V30 2731 H 252.615 1.62811 -3.28463 0
M  V30 2732 H 252.263 4.08028 -2.94147 0
M  V30 2733 H 251.963 3.61279 -4.63412 0
M  V30 2734 H 253.487 4.43587 -4.19599 0
M  V30 2735 H 254.901 2.40128 -5.20587 0
M  V30 2736 H 253.298 1.8031 -5.72371 0
M  V30 2737 H 254.368 0.739876 -4.79222 0
M  V30 2738 N 255.711 1.52812 0.385517 0
M  V30 2739 C 257.127 1.4214 0.725829 0
M  V30 2740 C 257.327 0.544589 1.94001 0
M  V30 2741 O 256.383 0.0193693 2.52493 0
M  V30 2742 C 257.696 2.85042 0.957668 0
M  V30 2743 C 259.244 2.94543 1.05892 0
M  V30 2744 C 259.719 4.38464 1.32337 0
M  V30 2745 N 261.21 4.41804 1.39151 0
M  V30 2746 C 261.945 5.5025 1.61285 0
M  V30 2747 N 261.441 6.68775 1.80866 0
M  V30 2748 N 263.234 5.37798 1.63492 0
M  V30 2749 H 255.385 2.08338 -0.413383 0
M  V30 2750 H 257.648 0.940016 -0.122775 0
M  V30 2751 H 257.354 3.51431 0.137568 0
M  V30 2752 H 257.228 3.27505 1.87137 0
M  V30 2753 H 259.615 2.28321 1.86959 0
M  V30 2754 H 259.696 2.55504 0.123057 0
M  V30 2755 H 259.34 5.05254 0.517793 0
M  V30 2756 H 259.27 4.75059 2.27214 0
M  V30 2757 H 261.761 3.56377 1.25713 0
M  V30 2758 H 262.074 7.47197 1.97271 0
M  V30 2759 H 260.419 6.71797 1.78083 0
M  V30 2760 H 263.61 4.44171 1.47749 0
M  V30 2761 H 263.783 6.22382 1.80402 0
M  V30 2762 N 257.189 -0.644168 1.43834 0
M  V30 2763 C 258.119 -1.76814 1.52509 0
M  V30 2764 C 259.1 -1.65823 0.379052 0
M  V30 2765 O 260.285 -1.84781 0.597466 0
M  V30 2766 C 257.415 -3.15288 1.4564 0
M  V30 2767 C 256.369 -3.41053 2.58586 0
M  V30 2768 C 255.695 -4.79421 2.36769 0
M  V30 2769 C 256.995 -3.34902 4.00797 0
M  V30 2770 H 258.689 -1.69812 2.46586 0
M  V30 2771 H 256.235 -0.815542 1.1868 0
M  V30 2772 H 258.188 -3.93681 1.50311 0
M  V30 2773 H 256.912 -3.23043 0.480725 0
M  V30 2774 H 255.571 -2.65035 2.53282 0
M  V30 2775 H 255.219 -4.83863 1.37424 0
M  V30 2776 H 254.919 -4.9762 3.12487 0
M  V30 2777 H 256.443 -5.6006 2.43238 0
M  V30 2778 H 257.857 -4.03218 4.07539 0
M  V30 2779 H 256.254 -3.64637 4.76613 0
M  V30 2780 H 257.324 -2.32928 4.25291 0
M  V30 2781 N 258.668 -1.30515 -0.883378 0
M  V30 2782 C 259.915 -1.1943 -1.63532 0
M  V30 2783 C 260.243 0.250627 -1.92878 0
M  V30 2784 O 259.498 1.19556 -1.54935 0
M  V30 2785 C 259.797 -1.96994 -2.98209 0
M  V30 2786 C 259.463 -3.466 -2.88408 0
M  V30 2787 C 258.125 -3.87397 -2.85442 0
M  V30 2788 C 260.477 -4.41863 -2.76418 0
M  V30 2789 C 257.805 -5.21745 -2.68327 0
M  V30 2790 C 260.157 -5.7632 -2.60841 0
M  V30 2791 C 258.821 -6.16354 -2.56251 0
M  V30 2792 H 258.091 -0.437025 -0.598406 0
M  V30 2793 H 260.738 -1.61635 -1.02696 0
M  V30 2794 H 259.043 -1.47429 -3.63004 0
M  V30 2795 H 260.74 -1.85808 -3.55354 0
M  V30 2796 H 257.33 -3.14182 -2.91527 0
M  V30 2797 H 261.514 -4.11285 -2.77775 0
M  V30 2798 H 256.77 -5.51853 -2.63189 0
M  V30 2799 H 260.944 -6.49772 -2.50538 0
M  V30 2800 H 258.571 -7.20401 -2.42748 0
M  V30 2801 N 260.146 1.09593 -1.13257 0
M  V30 2802 C 261.056 2.19739 -0.821691 0
M  V30 2803 C 262.072 1.72926 0.19302 0
M  V30 2804 O 263.248 2.01385 0.0244895 0
M  V30 2805 C 260.313 3.45482 -0.290333 0
M  V30 2806 C 259.374 4.06985 -1.36607 0
M  V30 2807 C 258.607 5.26726 -0.859975 0
M  V30 2808 O 258.83 5.69594 0.303082 0
M  V30 2809 O 257.764 5.7931 -1.63351 0
M  V30 2810 H 261.59 2.48781 -1.74189 0
M  V30 2811 H 259.175 1.18496 -0.909894 0
M  V30 2812 H 261.057 4.214 0.000674022 0
M  V30 2813 H 259.732 3.18047 0.602306 0
M  V30 2814 H 258.639 3.32712 -1.71037 0
M  V30 2815 H 259.972 4.38643 -2.23279 0
M  V30 2816 N 261.624 0.925811 1.2754 0
M  V30 2817 C 262.587 0.428129 2.25166 0
M  V30 2818 C 263.587 -0.452261 1.54309 0
M  V30 2819 O 264.777 -0.253608 1.72344 0
M  V30 2820 C 261.909 -0.384749 3.38722 0
M  V30 2821 H 263.102 1.29066 2.70706 0
M  V30 2822 H 260.655 0.706323 1.3943 0
M  V30 2823 H 261.39 -1.26618 2.98561 0
M  V30 2824 H 261.175 0.246454 3.91325 0
M  V30 2825 H 262.665 -0.723389 4.11287 0
M  V30 2826 N 263.102 -1.41638 0.69111 0
M  V30 2827 C 264.348 -2.01598 0.220519 0
M  V30 2828 C 264.681 -1.54594 -1.17535 0
M  V30 2829 O 263.956 -0.755177 -1.79241 0
M  V30 2830 C 264.239 -3.59062 0.273243 0
M  V30 2831 C 264.092 -4.16203 1.70573 0
M  V30 2832 C 265.411 -4.38546 -0.369457 0
M  V30 2833 H 262.53 -0.732468 0.0816045 0
M  V30 2834 H 265.172 -1.68445 0.878986 0
M  V30 2835 H 263.322 -3.87435 -0.287411 0
M  V30 2836 H 264.994 -3.98722 2.31989 0
M  V30 2837 H 263.237 -3.71414 2.2413 0
M  V30 2838 H 263.908 -5.25358 1.69419 0
M  V30 2839 H 266.384 -4.1596 0.107977 0
M  V30 2840 H 265.26 -5.48069 -0.302002 0
M  V30 2841 H 265.521 -4.17662 -1.44951 0
M  V30 2842 N 264.58 -0.43555 -1.51462 0
M  V30 2843 C 265.857 0.191364 -1.94662 0
M  V30 2844 C 266.237 1.60254 -1.37411 0
M  V30 2845 O 265.585 2.2152 -0.560458 0
M  V30 2846 C 265.795 0.17091 -3.48581 0
M  V30 2847 C 267.143 0.377357 -4.2292 0
M  V30 2848 O 268.167 0.249104 -3.55328 0
M  V30 2849 O 267.026 0.63247 -5.42828 0
M  V30 2850 H 264.12 0.130932 -0.816569 0
M  V30 2851 H 266.666 -0.4934 -1.62369 0
M  V30 2852 H 265.438 -0.815738 -3.82703 0
M  V30 2853 H 265.061 0.898659 -3.87311 0
M  V30 2854 N 266.058 1.56714 -0.166846 0
M  V30 2855 C 266.988 2.20754 0.760913 0
M  V30 2856 C 267.969 1.16178 1.24244 0
M  V30 2857 O 269.154 1.44592 1.29641 0
M  V30 2858 C 266.284 2.84478 1.99223 0
M  V30 2859 C 265.238 3.95053 1.64672 0
M  V30 2860 C 264.564 4.45805 2.95232 0
M  V30 2861 C 265.864 5.14865 0.878155 0
M  V30 2862 H 267.558 2.98537 0.22713 0
M  V30 2863 H 265.104 1.43596 0.107805 0
M  V30 2864 H 267.057 3.27951 2.64624 0
M  V30 2865 H 265.781 2.04056 2.55007 0
M  V30 2866 H 264.44 3.52228 1.01641 0
M  V30 2867 H 264.088 3.62181 3.49047 0
M  V30 2868 H 263.788 5.204 2.7287 0
M  V30 2869 H 265.312 4.91962 3.6167 0
M  V30 2870 H 266.726 5.55059 1.43466 0
M  V30 2871 H 265.123 5.95348 0.753738 0
M  V30 2872 H 266.193 4.84735 -0.126377 0
M  V30 2873 N 267.536 -0.106894 1.57237 0
M  V30 2874 C 268.761 -0.830287 1.90055 0
M  V30 2875 C 269.186 -1.72064 0.75998 0
M  V30 2876 O 268.544 -1.78982 -0.288991 0
M  V30 2877 C 268.592 -1.6295 3.21683 0
M  V30 2878 O 267.696 -2.73748 3.08441 0
M  V30 2879 H 267.037 -0.228855 0.623315 0
M  V30 2880 H 269.567 -0.085658 2.04421 0
M  V30 2881 H 269.577 -2.01621 3.54701 0
M  V30 2882 H 268.252 -0.975989 4.04286 0
M  V30 2883 H 266.829 -2.38192 2.86913 0
M  V30 2884 N 269.014 -1.53014 -0.377408 0
M  V30 2885 C 270.263 -1.67845 -1.11853 0
M  V30 2886 C 270.576 -0.430625 -1.90801 0
M  V30 2887 O 271.782 -0.459261 -2.67587 0
M  V30 2888 C 270.238 -2.96668 -2.03756 0
M  V30 2889 C 269.846 -4.28671 -1.30175 0
M  V30 2890 C 271.59 -3.20865 -2.77932 0
M  V30 2891 C 269.497 -5.48591 -2.20911 0
M  V30 2892 H 268.427 -0.625343 -0.421263 0
M  V30 2893 H 271.078 -1.79514 -0.380409 0
M  V30 2894 H 269.46 -2.78773 -2.8125 0
M  V30 2895 H 270.634 -4.57157 -0.578259 0
M  V30 2896 H 268.949 -4.10825 -0.679108 0
M  V30 2897 H 271.546 -4.07642 -3.46024 0
M  V30 2898 H 271.889 -2.36424 -3.4265 0
M  V30 2899 H 272.422 -3.39379 -2.07525 0
M  V30 2900 H 269.161 -6.35474 -1.6079 0
M  V30 2901 H 268.681 -5.244 -2.91144 0
M  V30 2902 H 270.36 -5.8292 -2.80736 0
M  V30 2903 N 270.492 0.636531 -1.44174 0
M  V30 2904 C 271.769 1.39463 -1.37148 0
M  V30 2905 C 272.149 2.11082 -0.027507 0
M  V30 2906 O 271.497 2.05954 0.989716 0
M  V30 2907 C 271.707 2.36552 -2.56601 0
M  V30 2908 C 273.055 3.00048 -3.00427 0
M  V30 2909 O 274.079 2.46878 -2.56767 0
M  V30 2910 O 272.938 3.96488 -3.76111 0
M  V30 2911 H 270.032 0.623903 -0.542839 0
M  V30 2912 H 272.578 0.662039 -1.56253 0
M  V30 2913 H 271.35 1.82692 -3.46034 0
M  V30 2914 H 270.973 3.17236 -2.39681 0
M  V30 2915 N 271.97 1.30982 0.876444 0
M  V30 2916 C 272.88 1.2003 2.01569 0
M  V30 2917 C 273.896 0.11838 1.73597 0
M  V30 2918 O 275.072 0.33495 1.98595 0
M  V30 2919 C 272.137 0.901637 3.34771 0
M  V30 2920 C 271.198 2.06979 3.76109 0
M  V30 2921 C 270.431 1.78529 5.02954 0
M  V30 2922 O 270.654 0.717296 5.65872 0
M  V30 2923 O 269.588 2.64019 5.40905 0
M  V30 2924 H 273.414 2.15753 2.13739 0
M  V30 2925 H 270.999 1.10658 1.00375 0
M  V30 2926 H 272.881 0.750645 4.1466 0
M  V30 2927 H 271.556 -0.0256141 3.2369 0
M  V30 2928 H 270.463 2.27616 2.96887 0
M  V30 2929 H 271.796 2.97907 3.91807 0
M  V30 2930 N 273.449 -1.08991 1.13837 0
M  V30 2931 C 274.674 -1.85551 0.926585 0
M  V30 2932 C 275.099 -1.80782 -0.519566 0
M  V30 2933 O 274.457 -1.18855 -1.36906 0
M  V30 2934 C 274.505 -3.31266 1.42462 0
M  V30 2935 O 273.609 -4.07822 0.612789 0
M  V30 2936 H 272.95 -0.575192 0.331738 0
M  V30 2937 H 275.48 -1.37604 1.51414 0
M  V30 2938 H 275.49 -3.82112 1.43019 0
M  V30 2939 H 274.165 -3.34052 2.47754 0
M  V30 2940 H 272.742 -3.66731 0.675463 0
M  V30 2941 N 274.927 -0.932562 -1.27047 0
M  V30 2942 C 276.152 -0.591474 -1.98787 0
M  V30 2943 C 276.577 0.824601 -1.69062 0
M  V30 2944 O 275.935 1.5541 -0.933677 0
M  V30 2945 C 275.983 -0.829808 -3.50922 0
M  V30 2946 O 275.087 0.102266 -4.12273 0
M  V30 2947 H 274.428 -0.227185 -0.623926 0
M  V30 2948 H 276.958 -1.25314 -1.61733 0
M  V30 2949 H 276.968 -0.747292 -4.01098 0
M  V30 2950 H 275.643 -1.86201 -3.7189 0
M  V30 2951 H 274.22 -0.0305761 -3.72887 0
M  V30 2952 N 276.405 1.4127 -0.698611 0
M  V30 2953 C 277.335 2.33447 -0.049629 0
M  V30 2954 C 278.316 1.51982 0.763898 0
M  V30 2955 O 279.501 1.80509 0.716257 0
M  V30 2956 C 276.631 3.35828 0.885267 0
M  V30 2957 C 275.585 4.27627 0.178613 0
M  V30 2958 C 274.911 5.20406 1.22807 0
M  V30 2959 C 276.211 5.13459 -0.956933 0
M  V30 2960 H 277.905 2.87966 -0.81951 0
M  V30 2961 H 275.451 1.38461 -0.395538 0
M  V30 2962 H 277.404 3.9924 1.34854 0
M  V30 2963 H 276.128 2.79666 1.68685 0
M  V30 2964 H 274.787 3.65643 -0.26466 0
M  V30 2965 H 274.435 4.60558 2.02226 0
M  V30 2966 H 274.135 5.82661 0.760239 0
M  V30 2967 H 275.659 5.86695 1.69179 0
M  V30 2968 H 277.073 5.70421 -0.573805 0
M  V30 2969 H 275.47 5.8467 -1.35205 0
M  V30 2970 H 276.54 4.50443 -1.79524 0
M  V30 2971 N 277.883 0.443576 1.51229 0
M  V30 2972 C 279.111 -0.11929 2.06556 0
M  V30 2973 C 279.526 -1.35921 1.31038 0
M  V30 2974 O 278.883 -1.78675 0.371704 0
M  V30 2975 C 278.934 -0.435228 3.5887 0
M  V30 2976 O 278.655 0.755486 4.31537 0
M  V30 2977 C 280.156 -1.04808 4.30732 0
M  V30 2978 H 277.376 -0.0051584 0.67098 0
M  V30 2979 H 279.92 0.624453 1.94733 0
M  V30 2980 H 278.075 -1.12887 3.70588 0
M  V30 2981 H 278.489 0.483491 5.22267 0
M  V30 2982 H 279.963 -1.2191 5.3837 0
M  V30 2983 H 280.44 -2.03081 3.89429 0
M  V30 2984 H 281.046 -0.393637 4.23474 0
M  V30 2985 N 279.361 -1.56624 0.175154 0
M  V30 2986 C 280.609 -1.96609 -0.467885 0
M  V30 2987 C 280.93 -1.06238 -1.63519 0
M  V30 2988 O 280.2 -0.129523 -1.95471 0
M  V30 2989 H 278.78 -0.726008 -0.175845 0
M  V30 2990 H 281.442 -1.93195 0.257234 0
M  V30 2991 H 280.538 -3.00989 -0.825342 0
M  V30 2992 N 280.839 0.0985539 -1.57292 0
M  V30 2993 C 281.749 1.13824 -2.05137 0
M  V30 2994 C 282.765 1.44076 -0.975604 0
M  V30 2995 O 283.941 1.54786 -1.28853 0
M  V30 2996 C 281.006 2.43969 -2.46333 0
M  V30 2997 C 280.067 2.2093 -3.68087 0
M  V30 2998 C 279.3 3.44869 -4.0731 0
M  V30 2999 O 279.523 4.52972 -3.46659 0
M  V30 3000 O 278.457 3.34661 -5.00285 0
M  V30 3001 H 282.283 0.761881 -2.93988 0
M  V30 3002 H 279.868 0.310818 -1.46131 0
M  V30 3003 H 281.75 3.20609 -2.73473 0
M  V30 3004 H 280.425 2.81038 -1.60621 0
M  V30 3005 H 279.332 1.42081 -3.46069 0
M  V30 3006 H 280.665 1.88755 -4.54568 0
M  V30 3007 N 282.317 1.53212 0.369288 0
M  V30 3008 C 283.545 1.73119 1.13303 0
M  V30 3009 C 283.96 0.458455 1.83149 0
M  V30 3010 O 283.317 -0.568403 1.73423 0
M  V30 3011 C 283.368 2.89413 2.16616 0
M  V30 3012 O 283.089 4.11761 1.49614 0
M  V30 3013 C 284.59 3.21161 3.05566 0
M  V30 3014 H 281.81 0.579107 0.338934 0
M  V30 3015 H 284.354 1.99942 0.429338 0
M  V30 3016 H 282.509 2.64994 2.82589 0
M  V30 3017 H 282.923 4.76858 2.18419 0
M  V30 3018 H 284.397 4.05949 3.74045 0
M  V30 3019 H 284.874 2.36369 3.70171 0
M  V30 3020 H 285.48 3.47492 2.45213 0
M  V30 3021 N 283.795 -0.628877 1.44509 0
M  V30 3022 C 285.023 -1.41554 1.50897 0
M  V30 3023 C 285.438 -1.8832 0.134564 0
M  V30 3024 O 284.795 -1.60969 -0.859965 0
M  V30 3025 C 284.846 -2.63435 2.47556 0
M  V30 3026 O 284.567 -2.18619 3.79654 0
M  V30 3027 C 286.068 -3.56537 2.63431 0
M  V30 3028 H 283.288 -0.434044 0.511709 0
M  V30 3029 H 285.832 -0.768895 1.89495 0
M  V30 3030 H 283.987 -3.24187 2.12089 0
M  V30 3031 H 284.401 -2.97652 4.31861 0
M  V30 3032 H 285.875 -4.38657 3.35088 0
M  V30 3033 H 286.352 -4.05493 1.68738 0
M  V30 3034 H 286.958 -3.01653 2.9981 0
M  V30 3035 N 285.273 -1.31445 -0.869486 0
M  V30 3036 C 286.684 -1.19042 -1.43826 0
M  V30 3037 C 287.035 0.202919 -1.95148 0
M  V30 3038 O 286.16 1.10071 -1.86315 0
M  V30 3039 C 286.755 -2.15499 -2.6143 0
M  V30 3040 C 285.314 -2.07028 -3.14351 0
M  V30 3041 C 284.461 -2.04701 -1.87063 0
M  V30 3042 H 287.412 -1.43489 -0.677984 0
M  V30 3043 H 287.433 -1.74488 -3.38134 0
M  V30 3044 H 286.945 -3.16899 -2.24046 0
M  V30 3045 H 285.046 -1.08825 -3.56354 0
M  V30 3046 H 285.159 -2.96157 -3.766 0
M  V30 3047 H 283.523 -1.49724 -2.06046 0
M  V30 3048 H 284.306 -3.07857 -1.51917 0
M  V30 3049 N 286.751 1.08385 -1.14413 0
M  V30 3050 C 287.991 1.8238 -0.922868 0
M  V30 3051 C 288.355 1.84225 0.540842 0
M  V30 3052 O 289.556 2.53985 0.880058 0
M  V30 3053 C 287.827 3.24048 -1.50757 0
M  V30 3054 S 289.386 4.14917 -1.4279 0
M  V30 3055 H 286.204 0.628524 -0.332384 0
M  V30 3056 H 288.806 1.30278 -1.45766 0
M  V30 3057 H 287.51 3.20288 -2.56601 0
M  V30 3058 H 287.041 3.81224 -0.971178 0
M  V30 3059 H 289.056 4.94473 -0.413582 0
M  V30 3060 N 288.23 0.939286 1.26551 0
M  V30 3061 C 289.455 0.602008 1.98471 0
M  V30 3062 C 289.88 -0.815624 1.69497 0
M  V30 3063 O 289.238 -1.54912 0.941905 0
M  V30 3064 C 289.286 0.848407 3.50477 0
M  V30 3065 O 288.39 -0.0804009 4.12322 0
M  V30 3066 H 287.731 0.23049 0.622712 0
M  V30 3067 H 290.261 1.2617 1.61066 0
M  V30 3068 H 290.271 0.768553 4.00696 0
M  V30 3069 H 288.946 1.88171 3.70897 0
M  V30 3070 H 287.523 0.0503508 3.72866 0
M  V30 3071 N 289.708 -1.40897 0.706093 0
M  V30 3072 C 290.655 -2.30751 0.0474474 0
M  V30 3073 C 291.625 -1.47678 -0.76029 0
M  V30 3074 O 292.81 -1.76441 -0.726177 0
M  V30 3075 C 289.95 -3.33815 -0.875309 0
M  V30 3076 C 289.063 -4.31961 -0.0580623 0
M  V30 3077 C 288.198 -5.22093 -0.979425 0
M  V30 3078 C 287.237 -6.11902 -0.155706 0
M  V30 3079 N 286.374 -6.94482 -1.03144 0
M  V30 3080 H 291.214 -2.86513 0.819413 0
M  V30 3081 H 288.751 -1.41102 0.415783 0
M  V30 3082 H 290.709 -3.92129 -1.42446 0
M  V30 3083 H 289.339 -2.79579 -1.61356 0
M  V30 3084 H 288.391 -3.75507 0.608147 0
M  V30 3085 H 289.703 -4.95415 0.580082 0
M  V30 3086 H 288.857 -5.85292 -1.59744 0
M  V30 3087 H 287.596 -4.5889 -1.65141 0
M  V30 3088 H 286.601 -5.47742 0.475309 0
M  V30 3089 H 287.826 -6.77162 0.512635 0
M  V30 3090 H 285.772 -6.33877 -1.68924 0
M  V30 3091 H 285.689 -7.54665 -0.449108 0
M  V30 3092 H 286.957 -7.6214 -1.63593 0
M  V30 3093 N 291.186 -0.45159 -1.50991 0
M  V30 3094 C 292.432 0.110237 -2.025 0
M  V30 3095 C 292.765 1.41109 -1.33424 0
M  V30 3096 O 292.04 1.89135 -0.453659 0
M  V30 3097 C 292.323 0.314271 -3.58726 0
M  V30 3098 C 292.176 -1.00623 -4.38401 0
M  V30 3099 C 293.495 1.07767 -4.26702 0
M  V30 3100 H 290.614 0.0385897 -0.735989 0
M  V30 3101 H 293.256 -0.593374 -1.80497 0
M  V30 3102 H 291.406 0.913601 -3.77605 0
M  V30 3103 H 293.078 -1.64064 -4.31139 0
M  V30 3104 H 291.321 -1.6075 -4.02917 0
M  V30 3105 H 291.992 -0.817341 -5.45915 0
M  V30 3106 H 294.468 0.56986 -4.12179 0
M  V30 3107 H 293.344 1.18921 -5.35863 0
M  V30 3108 H 293.605 2.10939 -3.88532 0
M  V30 3109 N 292.664 1.56529 -0.183458 0
M  V30 3110 C 293.892 2.01623 0.464285 0
M  V30 3111 C 294.307 1.06366 1.55986 0
M  V30 3112 O 293.664 0.0665398 1.82379 0
M  V30 3113 C 293.715 3.46475 1.03139 0
M  V30 3114 O 293.436 4.38095 -0.0204675 0
M  V30 3115 C 294.937 4.0703 1.75617 0
M  V30 3116 H 292.157 0.660596 0.117704 0
M  V30 3117 H 294.701 2.02451 -0.288751 0
M  V30 3118 H 292.856 3.46383 1.73486 0
M  V30 3119 H 293.27 5.22973 0.399952 0
M  V30 3120 H 294.744 5.10271 2.10542 0
M  V30 3121 H 295.221 3.49819 2.65563 0
M  V30 3122 H 295.827 4.1086 1.09882 0
M  V30 3123 N 294.142 -0.090211 1.57342 0
M  V30 3124 C 295.105 -1.09335 2.01441 0
M  V30 3125 C 296.105 -1.32666 0.908641 0
M  V30 3126 O 297.295 -1.28697 1.174 0
M  V30 3127 C 294.427 -2.44136 2.3793 0
M  V30 3128 H 295.62 -0.713662 2.91285 0
M  V30 3129 H 293.173 -0.335404 1.52659 0
M  V30 3130 H 293.908 -2.86972 1.51055 0
M  V30 3131 H 293.693 -2.28548 3.18603 0
M  V30 3132 H 295.183 -3.16277 2.72688 0
M  V30 3133 N 295.62 -1.53406 -0.361157 0
M  V30 3134 C 297.031 -1.61442 -0.937728 0
M  V30 3135 C 297.382 -0.48461 -1.90121 0
M  V30 3136 O 296.507 0.388312 -2.12888 0
M  V30 3137 C 297.102 -2.92624 -1.70753 0
M  V30 3138 C 295.661 -3.02981 -2.23337 0
M  V30 3139 C 294.808 -2.5677 -1.04712 0
M  V30 3140 H 297.759 -1.58083 -0.139816 0
M  V30 3141 H 297.78 -2.80675 -2.56908 0
M  V30 3142 H 297.292 -3.74834 -1.00604 0
M  V30 3143 H 295.393 -2.25368 -2.96715 0
M  V30 3144 H 295.506 -4.0814 -2.50916 0
M  V30 3145 H 293.87 -2.11752 -1.41539 0
M  V30 3146 H 294.653 -3.41402 -0.360539 0
M  V30 3147 N 297.098 0.621204 -1.44841 0
M  V30 3148 C 298.03 1.74615 -1.48466 0
M  V30 3149 C 299.043 1.58377 -0.37691 0
M  V30 3150 O 300.232 1.66508 -0.643215 0
M  V30 3151 C 297.332 3.12459 -1.31236 0
M  V30 3152 C 296.505 3.55064 -2.55438 0
M  V30 3153 C 295.564 4.71821 -2.32963 0
M  V30 3154 O 294.59 4.79628 -3.06505 0
M  V30 3155 N 295.792 5.64186 -1.36654 0
M  V30 3156 H 298.557 1.71973 -2.45449 0
M  V30 3157 H 296.118 0.806077 -1.40407 0
M  V30 3158 H 298.11 3.88302 -1.14032 0
M  V30 3159 H 296.68 3.09686 -0.4258 0
M  V30 3160 H 295.9 2.69324 -2.87851 0
M  V30 3161 H 297.188 3.80284 -3.38026 0
M  V30 3162 H 296.586 5.6058 -0.759344 0
M  V30 3163 H 295.143 6.39618 -1.25425 0
M  V30 3164 N 298.576 1.31904 0.862503 0
M  V30 3165 C 299.987 1.19803 1.43193 0
M  V30 3166 C 300.338 -0.192567 1.95253 0
M  V30 3167 O 299.463 -1.09081 1.86896 0
M  V30 3168 C 300.058 2.16883 2.60283 0
M  V30 3169 C 298.617 2.08692 3.13248 0
M  V30 3170 C 297.764 2.05691 1.85975 0
M  V30 3171 H 300.715 1.43846 0.670365 0
M  V30 3172 H 300.736 1.76278 3.37204 0
M  V30 3173 H 300.248 3.18083 2.22363 0
M  V30 3174 H 298.349 1.10713 3.55771 0
M  V30 3175 H 298.462 2.9815 3.75025 0
M  V30 3176 H 296.826 1.50814 2.05249 0
M  V30 3177 H 297.609 3.08659 1.50282 0
M  V30 3178 N 300.054 -1.07777 1.14986 0
M  V30 3179 C 301.017 -2.13041 0.845358 0
M  V30 3180 C 302.017 -1.60071 -0.152931 0
M  V30 3181 O 303.207 -1.74033 0.0761879 0
M  V30 3182 C 300.339 -3.39896 0.261383 0
M  V30 3183 H 301.532 -2.41485 1.77834 0
M  V30 3184 H 299.085 -1.23595 0.956757 0
M  V30 3185 H 299.82 -3.17091 -0.68 0
M  V30 3186 H 299.605 -3.79642 0.980514 0
M  V30 3187 H 301.095 -4.17548 0.0657687 0
M  V30 3188 N 301.532 -0.945985 -1.26051 0
M  V30 3189 C 302.495 -0.463897 -2.24456 0
M  V30 3190 C 303.495 0.427655 -1.55009 0
M  V30 3191 O 304.685 0.226157 -1.72726 0
M  V30 3192 C 301.817 0.330812 -3.39291 0
M  V30 3193 H 303.01 -1.33357 -2.68619 0
M  V30 3194 H 300.563 -0.728416 -1.38289 0
M  V30 3195 H 301.298 1.21852 -3.00537 0
M  V30 3196 H 301.083 -0.308679 -3.90883 0
M  V30 3197 H 302.573 0.657865 -4.12386 0
M  V30 3198 N 303.011 1.40521 -0.713556 0
M  V30 3199 C 304.239 2.05237 -0.261775 0
M  V30 3200 C 304.654 1.53755 1.09567 0
M  V30 3201 O 304.011 0.693268 1.6882 0
M  V30 3202 C 304.062 3.60763 -0.230706 0
M  V30 3203 O 303.783 4.10345 -1.53455 0
M  V30 3204 C 305.284 4.42651 0.239874 0
M  V30 3205 H 302.504 0.660533 -0.118057 0
M  V30 3206 H 305.048 1.79967 -0.971192 0
M  V30 3207 H 303.203 3.8501 0.429661 0
M  V30 3208 H 303.617 5.04526 -1.43366 0
M  V30 3209 H 305.091 5.51599 0.210468 0
M  V30 3210 H 305.568 4.20082 1.28171 0
M  V30 3211 H 306.174 4.23507 -0.390142 0
M  V30 3212 N 304.489 0.459591 1.5075 0
M  V30 3213 C 305.437 -0.354678 2.2988 0
M  V30 3214 C 306.431 -1.00086 1.36672 0
M  V30 3215 O 307.637 -0.933277 1.53915 0
M  V30 3216 H 304.012 -0.13321 0.740107 0
M  V30 3217 H 305.983 0.333269 2.96533 0
M  V30 3218 C 304.732 -1.43073 3.169 0
M  V30 3219 H 304.055 -0.942882 3.88523 0
M  V30 3220 H 305.495 -1.97328 3.75284 0
M  V30 3221 C 303.954 -2.42633 2.33732 0
M  V30 3222 O 304.484 -3.47658 2.01238 0
M  V30 3223 N 302.69 -2.14066 1.9653 0
M  V30 3224 H 302.237 -1.28685 2.23155 0
M  V30 3225 H 302.195 -2.80917 1.41185 0
M  V30 3226 N 305.967 -1.56429 0.191757 0
M  V30 3227 C 307.215 -1.97095 -0.447006 0
M  V30 3228 C 307.536 -1.07967 -1.62383 0
M  V30 3229 O 306.806 -0.150248 -1.95323 0
M  V30 3230 H 305.386 -0.727832 -0.168135 0
M  V30 3231 H 308.048 -1.92911 0.27771 0
M  V30 3232 H 307.144 -3.01848 -0.793371 0
M  V30 3233 N 307.445 0.0818655 -1.57387 0
M  V30 3234 C 308.722 0.815343 -1.77796 0
M  V30 3235 C 309.102 1.96289 -0.77679 0
M  V30 3236 O 308.45 2.27691 0.192106 0
M  V30 3237 C 308.66 1.29765 -3.23978 0
M  V30 3238 C 310.008 1.7351 -3.8753 0
M  V30 3239 O 311.032 1.39356 -3.27808 0
M  V30 3240 O 309.891 2.36708 -4.92576 0
M  V30 3241 H 306.985 0.389914 -0.729312 0
M  V30 3242 H 309.531 0.0627213 -1.69584 0
M  V30 3243 H 308.303 0.47608 -3.88393 0
M  V30 3244 H 307.926 2.11189 -3.36875 0
M  V30 3245 N 308.923 1.53595 0.353017 0
M  V30 3246 C 309.853 1.83902 1.43883 0
M  V30 3247 C 310.834 0.693421 1.55324 0
M  V30 3248 O 312.019 0.944452 1.69687 0
M  V30 3249 C 309.149 2.04016 2.8106 0
M  V30 3250 C 308.103 3.19814 2.84434 0
M  V30 3251 C 307.429 3.25244 4.24406 0
M  V30 3252 C 308.729 4.58133 2.50822 0
M  V30 3253 H 310.423 2.74835 1.1877 0
M  V30 3254 H 307.969 1.32242 0.569917 0
M  V30 3255 H 309.922 2.238 3.57059 0
M  V30 3256 H 308.646 1.09804 3.07588 0
M  V30 3257 H 307.305 2.9987 2.10887 0
M  V30 3258 H 306.953 2.28646 4.48029 0
M  V30 3259 H 306.653 4.03054 4.27576 0
M  V30 3260 H 308.177 3.47228 5.0226 0
M  V30 3261 H 309.591 4.77995 3.16534 0
M  V30 3262 H 307.988 5.38276 2.6529 0
M  V30 3263 H 309.058 4.62387 1.46034 0
M  V30 3264 N 310.401 -0.613514 1.45168 0
M  V30 3265 C 311.364 -1.7065 1.53007 0
M  V30 3266 C 312.364 -1.5548 0.410184 0
M  V30 3267 O 313.554 -1.60656 0.673455 0
M  V30 3268 C 310.686 -3.09875 1.42093 0
M  V30 3269 H 311.879 -1.65068 2.50385 0
M  V30 3270 H 309.432 -0.828728 1.32521 0
M  V30 3271 H 310.167 -3.21039 0.458769 0
M  V30 3272 H 309.952 -3.22293 2.23315 0
M  V30 3273 H 311.442 -3.895 1.50598 0
M  V30 3274 N 311.879 -1.3236 -0.855495 0
M  V30 3275 C 313.104 -1.2601 -1.64731 0
M  V30 3276 C 313.529 0.169068 -1.87339 0
M  V30 3277 O 312.887 1.12016 -1.42556 0
M  V30 3278 C 312.935 -2.02417 -2.98429 0
M  V30 3279 O 312.039 -1.3714 -3.8893 0
M  V30 3280 H 311.38 -0.434325 -0.502253 0
M  V30 3281 H 313.91 -1.74661 -1.06558 0
M  V30 3282 H 313.92 -2.12559 -3.48257 0
M  V30 3283 H 312.595 -3.06343 -2.81295 0
M  V30 3284 H 311.172 -1.3554 -3.47395 0
M  V30 3285 N 313.357 1.07166 -1.15556 0
M  V30 3286 C 314.773 1.31899 -0.898603 0
M  V30 3287 C 314.973 1.96333 0.453383 0
M  V30 3288 O 314.029 2.22438 1.19489 0
M  V30 3289 C 315.342 2.20826 -2.04099 0
M  V30 3290 C 316.89 2.34269 -2.07574 0
M  V30 3291 C 317.365 3.26546 -3.21141 0
M  V30 3292 N 318.856 3.34127 -3.20801 0
M  V30 3293 C 319.591 4.05595 -4.05315 0
M  V30 3294 N 319.087 4.79661 -4.99897 0
M  V30 3295 N 320.88 4.01555 -3.93332 0
M  V30 3296 H 313.031 0.637302 -2.02613 0
M  V30 3297 H 315.294 0.343468 -0.883591 0
M  V30 3298 H 315 1.80744 -3.01703 0
M  V30 3299 H 314.874 3.21364 -1.97496 0
M  V30 3300 H 317.261 2.73603 -1.10568 0
M  V30 3301 H 317.342 1.33429 -2.18244 0
M  V30 3302 H 316.986 2.87931 -4.184 0
M  V30 3303 H 316.916 4.27345 -3.07708 0
M  V30 3304 H 319.407 2.81336 -2.52306 0
M  V30 3305 H 319.72 5.31694 -5.60822 0
M  V30 3306 H 318.065 4.78671 -5.03884 0
M  V30 3307 H 321.256 3.42806 -3.18751 0
M  V30 3308 H 321.429 4.56987 -4.5942 0
M  V30 3309 N 314.835 0.952656 1.25548 0
M  V30 3310 C 316.06 0.623025 1.97821 0
M  V30 3311 C 316.485 -0.7976 1.70352 0
M  V30 3312 O 315.843 -1.53905 0.958283 0
M  V30 3313 C 315.891 0.885532 3.49558 0
M  V30 3314 O 314.995 -0.0366641 4.12384 0
M  V30 3315 H 314.336 0.237082 0.620232 0
M  V30 3316 H 316.866 1.27871 1.59719 0
M  V30 3317 H 316.876 0.811009 3.99858 0
M  V30 3318 H 315.551 1.92094 3.6888 0
M  V30 3319 H 314.128 0.0898954 3.72792 0
M  V30 3320 N 316.313 -1.40141 0.720998 0
M  V30 3321 C 317.261 -2.3252 0.0608547 0
M  V30 3322 C 318.255 -1.52326 -0.741152 0
M  V30 3323 O 319.461 -1.68089 -0.643911 0
M  V30 3324 H 315.836 -0.751999 0.000876664 0
M  V30 3325 H 317.807 -2.8584 0.856614 0
M  V30 3326 C 316.556 -3.37331 -0.842809 0
M  V30 3327 H 315.879 -3.99108 -0.235084 0
M  V30 3328 H 317.319 -4.04452 -1.27257 0
M  V30 3329 C 315.778 -2.73246 -1.97074 0
M  V30 3330 O 316.308 -2.59998 -3.06209 0
M  V30 3331 N 314.514 -2.31547 -1.75597 0
M  V30 3332 H 314.061 -2.42522 -0.868368 0
M  V30 3333 H 314.019 -1.89007 -2.51244 0
M  V30 3334 N 317.792 -0.46758 -1.50504 0
M  V30 3335 C 319.041 0.0902868 -2.01498 0
M  V30 3336 C 319.354 1.411 -1.35463 0
M  V30 3337 O 320.56 2.0536 -1.77594 0
M  V30 3338 C 319.016 0.21142 -3.59278 0
M  V30 3339 C 318.624 -1.10065 -4.34269 0
M  V30 3340 C 320.368 0.721433 -4.18325 0
M  V30 3341 C 318.275 -0.943505 -5.83825 0
M  V30 3342 H 317.205 0.037517 -0.753066 0
M  V30 3343 H 319.856 -0.601943 -1.73346 0
M  V30 3344 H 318.238 0.967352 -3.84003 0
M  V30 3345 H 319.412 -1.86726 -4.21272 0
M  V30 3346 H 317.727 -1.5415 -3.86816 0
M  V30 3347 H 320.324 0.85598 -5.27804 0
M  V30 3348 H 320.667 1.71186 -3.79475 0
M  V30 3349 H 321.2 0.0229843 -3.97793 0
M  V30 3350 H 317.939 -1.90719 -6.27141 0
M  V30 3351 H 317.459 -0.217213 -5.99407 0
M  V30 3352 H 319.138 -0.608715 -6.4413 0
M  V30 3353 N 319.27 1.56325 -0.20005 0
M  V30 3354 C 320.233 2.18084 0.705132 0
M  V30 3355 C 321.233 1.13666 1.1374 0
M  V30 3356 O 322.423 1.39023 1.04968 0
M  V30 3357 C 319.555 2.78689 1.96329 0
M  V30 3358 H 320.748 2.99435 0.167023 0
M  V30 3359 H 318.301 1.56221 0.0495725 0
M  V30 3360 H 319.036 2.0115 2.5438 0
M  V30 3361 H 318.821 3.55133 1.66202 0
M  V30 3362 H 320.311 3.26096 2.60866 0
M  V30 3363 N 320.748 -0.0735177 1.57428 0
M  V30 3364 C 321.995 -0.772999 1.87166 0
M  V30 3365 C 322.323 -1.77665 0.791551 0
M  V30 3366 O 321.578 -1.94541 -0.212636 0
M  V30 3367 C 321.877 -1.51799 3.23561 0
M  V30 3368 C 321.543 -0.654484 4.46125 0
M  V30 3369 C 320.205 -0.416511 4.79394 0
M  V30 3370 C 322.557 -0.0555862 5.2117 0
M  V30 3371 C 319.885 0.429869 5.85123 0
M  V30 3372 C 322.237 0.778239 6.27795 0
M  V30 3373 C 320.901 1.0261 6.59566 0
M  V30 3374 H 320.171 -0.282861 0.684888 0
M  V30 3375 H 322.818 -0.0338272 1.9147 0
M  V30 3376 H 321.123 -2.32932 3.1504 0
M  V30 3377 H 322.82 -2.06397 3.43804 0
M  V30 3378 H 319.41 -0.850091 4.20085 0
M  V30 3379 H 323.594 -0.226558 4.95783 0
M  V30 3380 H 318.85 0.630665 6.08139 0
M  V30 3381 H 323.024 1.24906 6.85107 0
M  V30 3382 H 320.651 1.68371 7.4132 0
M  V30 3383 N 322.226 -1.5378 -0.344866 0
M  V30 3384 C 323.159 -1.7649 -1.4466 0
M  V30 3385 C 324.137 -0.613954 -1.50563 0
M  V30 3386 O 325.321 -0.84896 -1.683 0
M  V30 3387 C 322.448 -1.86235 -2.82903 0
M  V30 3388 C 321.494 -3.08375 -2.94631 0
M  V30 3389 S 322.327 -4.67457 -2.61236 0
M  V30 3390 C 323.483 -4.80079 -4.0159 0
M  V30 3391 H 323.716 -2.69661 -1.2518 0
M  V30 3392 H 321.249 -1.44632 -0.540455 0
M  V30 3393 H 323.207 -1.92535 -3.62547 0
M  V30 3394 H 321.868 -0.940786 -2.9968 0
M  V30 3395 H 321.061 -3.11865 -3.95925 0
M  V30 3396 H 320.663 -3.00294 -2.22934 0
M  V30 3397 H 322.955 -4.61407 -4.96094 0
M  V30 3398 H 323.898 -5.82168 -4.03095 0
M  V30 3399 H 324.306 -4.08544 -3.89554 0
M  V30 3400 N 323.704 0.605807 -1.45491 0
M  V30 3401 C 324.952 1.36207 -1.49305 0
M  V30 3402 C 325.273 1.94519 -0.136863 0
M  V30 3403 O 324.543 1.77261 0.833983 0
M  V30 3404 H 323.123 0.50565 -0.549843 0
M  V30 3405 H 325.785 0.711239 -1.81459 0
M  V30 3406 H 324.881 2.18058 -2.23287 0
M  V30 3407 N 325.182 1.32811 0.848464 0
M  V30 3408 C 326.41 1.26739 1.63538 0
M  V30 3409 C 326.825 -0.163484 1.88091 0
M  V30 3410 O 326.182 -1.10258 1.45429 0
M  V30 3411 C 326.233 2.03013 2.99112 0
M  V30 3412 O 325.954 3.40518 2.75643 0
M  V30 3413 C 327.455 2.04038 3.93552 0
M  V30 3414 H 324.675 0.437024 0.509167 0
M  V30 3415 H 327.219 1.75033 1.05753 0
M  V30 3416 H 325.374 1.58426 3.53525 0
M  V30 3417 H 325.788 3.79635 3.61908 0
M  V30 3418 H 327.262 2.61877 4.85926 0
M  V30 3419 H 327.739 1.0282 4.26995 0
M  V30 3420 H 328.345 2.486 3.45077 0
M  V30 3421 N 326.66 -1.06551 1.16123 0
M  V30 3422 C 327.59 -2.15935 0.88851 0
M  V30 3423 C 328.571 -1.69306 -0.164135 0
M  V30 3424 O 329.756 -1.94193 -0.0167857 0
M  V30 3425 C 326.886 -3.45149 0.385942 0
M  V30 3426 C 325.84 -4.05271 1.3762 0
M  V30 3427 C 325.166 -5.29664 0.732137 0
M  V30 3428 C 326.466 -4.44355 2.74493 0
M  V30 3429 H 328.16 -2.39006 1.80323 0
M  V30 3430 H 325.706 -1.14866 0.868435 0
M  V30 3431 H 327.659 -4.21004 0.182647 0
M  V30 3432 H 326.383 -3.21689 -0.564274 0
M  V30 3433 H 325.042 -3.3147 1.56599 0
M  V30 3434 H 324.69 -5.02499 -0.224483 0
M  V30 3435 H 324.39 -5.70848 1.39307 0
M  V30 3436 H 325.914 -6.08218 0.538802 0
M  V30 3437 H 327.328 -5.11303 2.59311 0
M  V30 3438 H 325.725 -4.96515 3.37035 0
M  V30 3439 H 326.795 -3.55339 3.29943 0
M  V30 3440 N 328.138 -0.959301 -1.25041 0
M  V30 3441 C 329.384 -0.617525 -1.9317 0
M  V30 3442 C 329.717 0.843981 -1.74902 0
M  V30 3443 O 328.992 1.60615 -1.09696 0
M  V30 3444 C 329.275 -0.982736 -3.46431 0
M  V30 3445 C 329.128 -2.50032 -3.73904 0
M  V30 3446 C 330.447 -0.511176 -4.37121 0
M  V30 3447 H 327.566 -0.22582 -0.701552 0
M  V30 3448 H 330.208 -1.19679 -1.4757 0
M  V30 3449 H 328.358 -0.489806 -3.854 0
M  V30 3450 H 330.03 -3.06737 -3.44544 0
M  V30 3451 H 328.273 -2.93598 -3.19348 0
M  V30 3452 H 328.944 -2.70635 -4.81103 0
M  V30 3453 H 331.42 -0.934075 -4.0548 0
M  V30 3454 H 330.296 -0.795361 -5.43107 0
M  V30 3455 H 330.557 0.588834 -4.38161 0
M  V30 3456 N 329.616 1.39756 -0.72842 0
M  V30 3457 C 331.032 1.5442 -0.403308 0
M  V30 3458 C 331.232 1.69694 1.08656 0
M  V30 3459 O 330.288 1.69373 1.87267 0
M  V30 3460 C 331.601 2.76555 -1.18058 0
M  V30 3461 C 333.149 2.90384 -1.16815 0
M  V30 3462 C 333.624 4.15449 -1.92785 0
M  V30 3463 N 335.115 4.22475 -1.89918 0
M  V30 3464 C 335.85 5.1818 -2.45514 0
M  V30 3465 N 335.346 6.19714 -3.09719 0
M  V30 3466 N 337.139 5.1035 -2.35584 0
M  V30 3467 H 329.29 1.28089 -1.69431 0
M  V30 3468 H 331.553 0.620327 -0.716867 0
M  V30 3469 H 331.259 2.7159 -2.23455 0
M  V30 3470 H 331.133 3.69033 -0.780662 0
M  V30 3471 H 333.52 2.94846 -0.12234 0
M  V30 3472 H 333.601 1.98988 -1.6074 0
M  V30 3473 H 333.245 4.11749 -2.97364 0
M  V30 3474 H 333.175 5.05877 -1.46272 0
M  V30 3475 H 335.666 3.49743 -1.43138 0
M  V30 3476 H 335.979 6.8919 -3.49625 0
M  V30 3477 H 334.324 6.20121 -3.13807 0
M  V30 3478 H 337.515 4.2996 -1.85072 0
M  V30 3479 H 337.688 5.84761 -2.79211 0
M  V30 3480 N 331.094 0.475555 1.50254 0
M  V30 3481 C 332.334 -0.0765802 2.04256 0
M  V30 3482 C 332.698 -1.36587 1.34937 0
M  V30 3483 O 333.899 -2.00066 1.79519 0
M  V30 3484 C 332.17 -0.251668 3.56513 0
M  V30 3485 S 333.729 -0.761716 4.32138 0
M  V30 3486 H 330.547 -0.0138456 0.710865 0
M  V30 3487 H 333.149 0.643714 1.84598 0
M  V30 3488 H 331.853 0.692404 4.04517 0
M  V30 3489 H 331.384 -0.997946 3.80532 0
M  V30 3490 H 333.399 -2.03451 4.52573 0
M  V30 3491 N 332.573 -1.56217 0.208337 0
M  V30 3492 C 333.821 -1.97558 -0.426076 0
M  V30 3493 C 334.142 -1.09683 -1.61229 0
M  V30 3494 O 333.412 -0.170956 -1.95153 0
M  V30 3495 H 331.992 -0.729575 -0.160405 0
M  V30 3496 H 334.654 -1.92606 0.298155 0
M  V30 3497 H 333.75 -3.02672 -0.761312 0
M  V30 3498 N 334.051 0.0651679 -1.57465 0
M  V30 3499 C 334.998 1.07675 -2.04144 0
M  V30 3500 C 335.968 1.38071 -0.923335 0
M  V30 3501 O 337.153 1.49026 -1.19146 0
M  V30 3502 C 334.293 2.38337 -2.49579 0
M  V30 3503 C 333.406 2.14413 -3.75035 0
M  V30 3504 C 332.541 3.38686 -4.09225 0
M  V30 3505 C 331.58 3.10156 -5.27702 0
M  V30 3506 N 330.717 4.26778 -5.57499 0
M  V30 3507 H 335.557 0.671716 -2.90331 0
M  V30 3508 H 333.094 0.3201 -1.43575 0
M  V30 3509 H 335.052 3.14632 -2.73975 0
M  V30 3510 H 333.682 2.7663 -1.6636 0
M  V30 3511 H 332.734 1.2878 -3.57939 0
M  V30 3512 H 334.046 1.89344 -4.61466 0
M  V30 3513 H 333.2 4.23373 -4.34558 0
M  V30 3514 H 331.939 3.66837 -3.21374 0
M  V30 3515 H 330.944 2.23866 -5.02159 0
M  V30 3516 H 332.169 2.8332 -6.17176 0
M  V30 3517 H 330.115 4.54948 -4.72608 0
M  V30 3518 H 330.032 4.05005 -6.38362 0
M  V30 3519 H 331.3 5.12443 -5.87386 0
M  V30 3520 N 335.529 1.53961 0.336706 0
M  V30 3521 C 336.492 1.81724 1.39675 0
M  V30 3522 C 337.492 0.688532 1.45313 0
M  V30 3523 O 338.682 0.956829 1.45569 0
M  V30 3524 C 335.814 1.96543 2.78538 0
M  V30 3525 H 337.007 2.76424 1.16318 0
M  V30 3526 H 334.56 1.45478 0.571474 0
M  V30 3527 H 335.295 1.0401 3.07168 0
M  V30 3528 H 335.08 2.78665 2.75841 0
M  V30 3529 H 336.57 2.19516 3.5525 0
M  V30 3530 N 337.007 -0.598083 1.45811 0
M  V30 3531 C 337.954 -1.7082 1.55207 0
M  V30 3532 C 338.924 -1.61278 0.39732 0
M  V30 3533 O 340.109 -1.80717 0.612038 0
M  V30 3534 C 337.249 -3.09144 1.53376 0
M  V30 3535 C 336.362 -3.29423 2.79472 0
M  V30 3536 C 335.497 -4.57907 2.69248 0
M  V30 3537 C 334.536 -4.71476 3.90354 0
M  V30 3538 N 333.673 -5.9127 3.78608 0
M  V30 3539 H 338.513 -1.62125 2.50039 0
M  V30 3540 H 336.05 -0.790389 1.24062 0
M  V30 3541 H 338.008 -3.89186 1.50301 0
M  V30 3542 H 336.638 -3.16773 0.620876 0
M  V30 3543 H 335.69 -2.43091 2.92594 0
M  V30 3544 H 337.002 -3.3532 3.69272 0
M  V30 3545 H 336.156 -5.46157 2.64192 0
M  V30 3546 H 334.895 -4.54423 1.77063 0
M  V30 3547 H 333.9 -3.81648 3.95759 0
M  V30 3548 H 335.125 -4.76751 4.83617 0
M  V30 3549 H 333.071 -5.88813 2.89199 0
M  V30 3550 H 332.988 -5.98369 4.6205 0
M  V30 3551 H 334.256 -6.81992 3.77501 0
M  V30 3552 N 338.485 -1.33259 -0.841409 0
M  V30 3553 C 339.733 -1.24326 -1.59334 0
M  V30 3554 C 340.054 0.191564 -1.94057 0
M  V30 3555 O 339.324 1.11967 -1.60749 0
M  V30 3556 H 337.904 -0.457174 -0.590763 0
M  V30 3557 H 340.566 -1.66947 -1.00571 0
M  V30 3558 H 339.662 -1.8352 -2.52442 0
M  V30 3559 N 339.963 1.05934 -1.16686 0
M  V30 3560 C 341.209 1.79065 -0.95203 0
M  V30 3561 C 341.542 1.87147 0.518629 0
M  V30 3562 O 340.817 1.36574 1.38484 0
M  V30 3563 C 341.1 3.23359 -1.58464 0
M  V30 3564 C 340.953 3.23336 -3.12689 0
M  V30 3565 C 342.272 4.21004 -1.28232 0
M  V30 3566 H 339.391 0.65005 -0.34728 0
M  V30 3567 H 342.033 1.23868 -1.44072 0
M  V30 3568 H 340.183 3.70493 -1.16908 0
M  V30 3569 H 341.855 2.84336 -3.6325 0
M  V30 3570 H 340.098 2.61886 -3.4583 0
M  V30 3571 H 340.769 4.25144 -3.52075 0
M  V30 3572 H 343.245 3.8233 -1.64203 0
M  V30 3573 H 342.121 5.20225 -1.75092 0
M  V30 3574 H 342.382 4.41639 -0.201791 0
M  V30 3575 N 341.441 0.965919 1.2453 0
M  V30 3576 C 342.687 0.62776 1.92839 0
M  V30 3577 C 343.02 -0.834694 1.75347 0
M  V30 3578 O 342.295 -1.60031 1.10546 0
M  V30 3579 C 342.578 1.00109 3.45905 0
M  V30 3580 C 342.431 2.52011 3.72573 0
M  V30 3581 C 343.75 0.53435 4.36844 0
M  V30 3582 H 340.869 0.229537 0.700344 0
M  V30 3583 H 343.511 1.2046 1.46933 0
M  V30 3584 H 341.661 0.510238 3.85135 0
M  V30 3585 H 343.333 3.08559 3.42912 0
M  V30 3586 H 341.576 2.95287 3.17786 0
M  V30 3587 H 342.247 2.73183 4.79661 0
M  V30 3588 H 344.723 0.955565 4.04979 0
M  V30 3589 H 343.599 0.824152 5.42678 0
M  V30 3590 H 343.86 -0.565589 4.38467 0
M  V30 3591 N 342.919 -1.39368 0.735821 0
M  V30 3592 C 344.168 -1.99733 0.281004 0
M  V30 3593 C 344.481 -1.59055 -1.13846 0
M  V30 3594 O 345.687 -2.12262 -1.69284 0
M  V30 3595 C 344.143 -3.57057 0.451462 0
M  V30 3596 C 343.751 -4.06697 1.87886 0
M  V30 3597 C 345.495 -4.2446 0.0584616 0
M  V30 3598 C 343.402 -5.56598 1.99883 0
M  V30 3599 H 342.332 -0.747163 0.101311 0
M  V30 3600 H 344.983 -1.59357 0.909819 0
M  V30 3601 H 343.365 -3.95234 -0.246263 0
M  V30 3602 H 344.539 -3.79853 2.60861 0
M  V30 3603 H 342.854 -3.5196 2.22515 0
M  V30 3604 H 345.451 -5.34549 0.127099 0
M  V30 3605 H 345.794 -4.04444 -0.986433 0
M  V30 3606 H 346.327 -3.9146 0.707374 0
M  V30 3607 H 343.066 -5.81494 3.02564 0
M  V30 3608 H 342.586 -5.85242 1.31346 0
M  V30 3609 H 344.265 -6.22022 1.78039 0
M  V30 3610 N 344.397 -0.483516 -1.5 0
M  V30 3611 C 345.645 0.067027 -2.01989 0
M  V30 3612 C 345.966 1.3909 -1.36671 0
M  V30 3613 O 345.236 1.88978 -0.516152 0
M  V30 3614 H 343.816 0.0277606 -0.746484 0
M  V30 3615 H 346.478 -0.636773 -1.84204 0
M  V30 3616 H 345.574 0.209484 -3.11396 0
M  V30 3617 N 345.875 1.56104 -0.216619 0
M  V30 3618 C 347.103 2.02563 0.421413 0
M  V30 3619 C 347.518 1.0965 1.53695 0
M  V30 3620 O 346.875 0.10521 1.82196 0
M  V30 3621 C 346.926 3.48584 0.957665 0
M  V30 3622 O 346.647 4.37953 -0.113389 0
M  V30 3623 C 348.148 4.10664 1.66943 0
M  V30 3624 H 345.368 0.662944 0.103665 0
M  V30 3625 H 347.912 2.01793 -0.331629 0
M  V30 3626 H 346.067 3.49985 1.661 0
M  V30 3627 H 346.481 5.23704 0.288932 0
M  V30 3628 H 347.955 5.14622 1.99671 0
M  V30 3629 H 348.432 3.55373 2.58083 0
M  V30 3630 H 349.038 4.13098 1.01142 0
M  V30 3631 N 347.353 -0.0568162 1.57498 0
M  V30 3632 C 348.601 -0.751617 1.87604 0
M  V30 3633 C 348.922 -1.77351 0.81066 0
M  V30 3634 O 348.192 -1.95254 -0.159018 0
M  V30 3635 H 346.772 -0.280583 0.692302 0
M  V30 3636 H 349.434 -0.0293483 1.94878 0
M  V30 3637 H 348.53 -1.25852 2.856 0
M  V30 3638 N 348.832 -1.54138 -0.328536 0
M  V30 3639 C 349.742 -1.86192 -1.42723 0
M  V30 3640 C 350.758 -0.753382 -1.56844 0
M  V30 3641 O 351.934 -1.04718 -1.72035 0
M  V30 3642 C 348.999 -2.07824 -2.77507 0
M  V30 3643 C 348.06 -3.31641 -2.72603 0
M  V30 3644 C 347.293 -3.52232 -4.00959 0
M  V30 3645 O 347.516 -2.7636 -4.9898 0
M  V30 3646 O 346.45 -4.45699 -4.0452 0
M  V30 3647 H 350.276 -2.79608 -1.18547 0
M  V30 3648 H 347.861 -1.3998 -0.522104 0
M  V30 3649 H 349.743 -2.23411 -3.57303 0
M  V30 3650 H 348.418 -1.17596 -3.01584 0
M  V30 3651 H 347.325 -3.21444 -1.91376 0
M  V30 3652 H 348.658 -4.2191 -2.53481 0
M  V30 3653 N 350.31 0.590341 -1.46126 0
M  V30 3654 C 351.258 1.72105 -1.5647 0
M  V30 3655 C 352.252 1.63756 -0.433612 0
M  V30 3656 O 353.458 1.69342 -0.610194 0
M  V30 3657 H 349.833 0.568889 -0.491802 0
M  V30 3658 H 351.804 1.6051 -2.51553 0
M  V30 3659 C 350.553 3.10493 -1.56491 0
M  V30 3660 H 349.876 3.17583 -2.4286 0
M  V30 3661 H 351.316 3.8939 -1.67785 0
M  V30 3662 C 349.775 3.3563 -0.292231 0
M  V30 3663 O 350.305 3.96875 0.620739 0
M  V30 3664 N 348.511 2.90026 -0.182523 0
M  V30 3665 H 348.058 2.40367 -0.926356 0
M  V30 3666 H 348.016 3.07218 0.668152 0
M  V30 3667 N 351.788 1.33704 0.83433 0
M  V30 3668 C 353.013 1.28615 1.62705 0
M  V30 3669 C 353.438 -0.139242 1.87584 0
M  V30 3670 O 352.796 -1.09734 1.4432 0
M  V30 3671 C 352.844 2.07139 2.95171 0
M  V30 3672 O 351.948 1.4331 3.86699 0
M  V30 3673 H 351.289 0.44226 0.49528 0
M  V30 3674 H 353.819 1.76335 1.03766 0
M  V30 3675 H 353.829 2.18073 3.44831 0
M  V30 3676 H 352.504 3.10779 2.76386 0
M  V30 3677 H 351.081 1.4105 3.45195 0
M  V30 3678 N 353.266 -1.05314 1.17247 0
M  V30 3679 C 354.176 -2.16538 0.90268 0
M  V30 3680 C 355.192 -1.73523 -0.128707 0
M  V30 3681 O 356.368 -2.01337 0.0502701 0
M  V30 3682 C 353.433 -3.44167 0.418356 0
M  V30 3683 C 352.494 -4.01635 1.51618 0
M  V30 3684 C 351.727 -5.23171 1.05487 0
M  V30 3685 O 351.95 -5.70327 -0.0914715 0
M  V30 3686 O 350.884 -5.72848 1.8474 0
M  V30 3687 H 354.71 -2.42145 1.83302 0
M  V30 3688 H 352.295 -1.15037 0.953246 0
M  V30 3689 H 354.177 -4.21112 0.155726 0
M  V30 3690 H 352.852 -3.20063 -0.48385 0
M  V30 3691 H 351.759 -3.26135 1.83268 0
M  V30 3692 H 353.092 -4.30053 2.39405 0
M  V30 3693 N 354.744 -0.972509 -1.24016 0
M  V30 3694 C 355.991 -0.637034 -1.92219 0
M  V30 3695 C 356.319 0.828418 -1.75976 0
M  V30 3696 O 355.574 1.61206 -1.10955 0
M  V30 3697 C 355.873 -0.963694 -3.44162 0
M  V30 3698 C 355.539 -2.41807 -3.80579 0
M  V30 3699 C 354.201 -2.81556 -3.9023 0
M  V30 3700 C 356.553 -3.36172 -3.98293 0
M  V30 3701 C 353.881 -4.14702 -4.15017 0
M  V30 3702 C 356.233 -4.68952 -4.24578 0
M  V30 3703 C 354.897 -5.08472 -4.32449 0
M  V30 3704 H 354.167 -0.233107 -0.703379 0
M  V30 3705 H 356.814 -1.2249 -1.47202 0
M  V30 3706 H 355.119 -0.29365 -3.90698 0
M  V30 3707 H 356.816 -0.682449 -3.9515 0
M  V30 3708 H 353.406 -2.09988 -3.73635 0
M  V30 3709 H 357.59 -3.06644 -3.90234 0
M  V30 3710 H 352.846 -4.4494 -4.19331 0
M  V30 3711 H 357.02 -5.42037 -4.37229 0
M  V30 3712 H 354.647 -6.11665 -4.51409 0
M  V30 3713 N 356.222 1.38976 -0.743202 0
M  V30 3714 C 357.47 1.99948 -0.29417 0
M  V30 3715 C 357.791 1.59279 1.12495 0
M  V30 3716 O 357.061 0.844808 1.76748 0
M  V30 3717 H 355.641 0.739473 -0.105774 0
M  V30 3718 H 358.303 1.699 -0.954986 0
M  V30 3719 H 357.399 3.10142 -0.349056 0
M  V30 3720 N 357.7 0.491464 1.49741 0
M  V30 3721 C 358.61 -0.296835 2.32715 0
M  V30 3722 C 359.626 -0.976536 1.44013 0
M  V30 3723 O 360.802 -0.960023 1.77047 0
M  V30 3724 C 357.867 -1.35288 3.19215 0
M  V30 3725 C 356.928 -0.687632 4.23757 0
M  V30 3726 C 356.161 -1.69336 5.06123 0
M  V30 3727 O 356.384 -2.92219 4.89861 0
M  V30 3728 O 355.318 -1.25394 5.88693 0
M  V30 3729 H 359.144 0.382048 3.01287 0
M  V30 3730 H 356.729 0.252953 1.47243 0
M  V30 3731 H 358.611 -1.96411 3.72828 0
M  V30 3732 H 357.286 -2.01487 2.53347 0
M  V30 3733 H 356.193 -0.0369159 3.74082 0
M  V30 3734 H 357.526 -0.0682566 4.92153 0
M  V30 3735 N 359.178 -1.55987 0.224894 0
M  V30 3736 C 360.424 -1.98684 -0.406502 0
M  V30 3737 C 360.757 -1.11248 -1.59177 0
M  V30 3738 O 360.032 -0.170909 -1.93748 0
M  V30 3739 C 360.315 -3.50218 -0.837808 0
M  V30 3740 C 360.168 -4.48426 0.351332 0
M  V30 3741 C 361.487 -4.06243 -1.69278 0
M  V30 3742 H 358.606 -0.722337 -0.146283 0
M  V30 3743 H 361.248 -1.87255 0.321799 0
M  V30 3744 H 359.398 -3.60089 -1.45837 0
M  V30 3745 H 361.07 -4.50562 0.989526 0
M  V30 3746 H 359.313 -4.22159 0.998207 0
M  V30 3747 H 359.984 -5.52 0.00655905 0
M  V30 3748 H 362.46 -3.99337 -1.16914 0
M  V30 3749 H 361.336 -5.12581 -1.96346 0
M  V30 3750 H 361.597 -3.53332 -2.65723 0
M  V30 3751 N 360.656 0.0484629 -1.57525 0
M  V30 3752 C 361.903 0.743125 -1.88372 0
M  V30 3753 C 362.231 1.76383 -0.819715 0
M  V30 3754 O 361.486 1.94855 0.181659 0
M  V30 3755 C 361.785 1.46632 -3.25935 0
M  V30 3756 C 361.451 0.583427 -4.4711 0
M  V30 3757 C 360.113 0.340191 -4.79996 0
M  V30 3758 C 362.465 -0.0273345 -5.21193 0
M  V30 3759 C 359.793 -0.522903 -5.84365 0
M  V30 3760 C 362.145 -0.878017 -6.26477 0
M  V30 3761 C 360.809 -1.1309 -6.5785 0
M  V30 3762 H 360.079 0.271929 -0.689301 0
M  V30 3763 H 362.726 0.00336166 -1.915 0
M  V30 3764 H 361.031 2.2789 -3.18706 0
M  V30 3765 H 362.728 2.00902 -3.47044 0
M  V30 3766 H 359.318 0.783151 -4.21384 0
M  V30 3767 H 363.502 0.147654 -4.9608 0
M  V30 3768 H 358.758 -0.727335 -6.07058 0
M  V30 3769 H 362.932 -1.35789 -6.83033 0
M  V30 3770 H 360.559 -1.80144 -7.38547 0
M  V30 3771 N 362.134 1.5431 0.320358 0
M  V30 3772 C 363.081 1.83918 1.39438 0
M  V30 3773 C 364.051 0.686525 1.51248 0
M  V30 3774 O 365.236 0.933269 1.66417 0
M  V30 3775 C 362.376 2.075 2.75749 0
M  V30 3776 C 361.489 3.35177 2.72544 0
M  V30 3777 C 360.624 3.48704 4.00723 0
M  V30 3778 C 359.663 4.70244 3.91838 0
M  V30 3779 N 358.8 4.80679 5.11754 0
M  V30 3780 H 363.64 2.75544 1.13489 0
M  V30 3781 H 361.177 1.36459 0.549309 0
M  V30 3782 H 363.135 2.19166 3.54996 0
M  V30 3783 H 361.765 1.19163 3 0
M  V30 3784 H 360.817 3.32233 1.85271 0
M  V30 3785 H 362.129 4.24534 2.61863 0
M  V30 3786 H 361.283 3.59928 4.88402 0
M  V30 3787 H 360.022 2.57445 4.14214 0
M  V30 3788 H 359.027 4.59072 3.02544 0
M  V30 3789 H 360.252 5.6289 3.7991 0
M  V30 3790 H 358.198 3.92337 5.25745 0
M  V30 3791 H 358.115 5.64007 5.0342 0
M  V30 3792 H 359.383 4.96239 6.01138 0
M  V30 3793 N 363.613 -0.582584 1.46437 0
M  V30 3794 C 364.546 -1.70633 1.51524 0
M  V30 3795 C 365.524 -1.58349 0.369351 0
M  V30 3796 O 366.708 -1.79563 0.573516 0
M  V30 3797 C 363.835 -3.08687 1.39392 0
M  V30 3798 C 362.881 -3.3949 2.58164 0
M  V30 3799 S 363.714 -3.31548 4.20519 0
M  V30 3800 C 364.87 -4.72139 4.10896 0
M  V30 3801 H 365.103 -1.66058 2.46601 0
M  V30 3802 H 362.636 -0.761337 1.34324 0
M  V30 3803 H 364.594 -3.8833 1.33079 0
M  V30 3804 H 363.255 -3.10751 0.457436 0
M  V30 3805 H 362.448 -4.40071 2.45669 0
M  V30 3806 H 362.05 -2.67415 2.61468 0
M  V30 3807 H 364.342 -5.62527 3.77584 0
M  V30 3808 H 365.285 -4.89692 5.11476 0
M  V30 3809 H 365.693 -4.48995 3.42146 0
M  V30 3810 N 365.091 -1.34144 -0.827227 0
M  V30 3811 C 366.024 -1.19707 -1.94282 0
M  V30 3812 C 367.002 -0.0897256 -1.62352 0
M  V30 3813 O 368.186 -0.254095 -1.8678 0
M  V30 3814 C 365.313 -0.838646 -3.28153 0
M  V30 3815 C 364.359 -1.95514 -3.79047 0
M  V30 3816 S 365.192 -3.56793 -3.99323 0
M  V30 3817 C 366.348 -3.22983 -5.36127 0
M  V30 3818 H 366.581 -2.1414 -2.06231 0
M  V30 3819 H 364.114 -1.19121 -0.982321 0
M  V30 3820 H 366.072 -0.638637 -4.05502 0
M  V30 3821 H 364.733 0.0872776 -3.13979 0
M  V30 3822 H 363.926 -1.658 -4.75948 0
M  V30 3823 H 363.528 -2.11241 -3.08631 0
M  V30 3824 H 365.82 -2.74531 -6.19386 0
M  V30 3825 H 366.763 -4.19008 -5.70822 0
M  V30 3826 H 367.171 -2.59276 -5.01434 0
M  V30 3827 N 366.569 1.04691 -1.17803 0
M  V30 3828 C 367.501 2.12571 -0.857097 0
M  V30 3829 C 368.514 1.62174 0.142647 0
M  V30 3830 O 369.703 1.78301 -0.0843387 0
M  V30 3831 C 366.803 3.37915 -0.258216 0
M  V30 3832 C 365.976 4.1757 -1.30207 0
M  V30 3833 C 365.035 5.2125 -0.720029 0
M  V30 3834 O 364.061 5.51888 -1.39314 0
M  V30 3835 N 365.263 5.78466 0.485507 0
M  V30 3836 H 368.028 2.40698 -1.78562 0
M  V30 3837 H 365.589 1.20831 -1.07757 0
M  V30 3838 H 367.581 4.04442 0.144584 0
M  V30 3839 H 366.151 3.07281 0.574199 0
M  V30 3840 H 365.371 3.46458 -1.88043 0
M  V30 3841 H 366.659 4.67586 -2.00601 0
M  V30 3842 H 366.057 5.55866 1.05022 0
M  V30 3843 H 364.614 6.4649 0.830307 0
M  V30 3844 N 368.047 0.979072 1.23499 0
M  V30 3845 C 369.01 0.523244 2.23147 0
M  V30 3846 C 370.01 -0.386406 1.56088 0
M  V30 3847 O 371.2 -0.180283 1.73265 0
M  V30 3848 C 368.332 -0.240739 3.40049 0
M  V30 3849 H 369.525 1.40432 2.64989 0
M  V30 3850 H 367.078 0.764824 1.36309 0
M  V30 3851 H 367.813 -1.13841 3.03662 0
M  V30 3852 H 367.598 0.412207 3.89927 0
M  V30 3853 H 369.088 -0.548297 4.13985 0
M  V30 3854 N 369.525 -1.3858 0.750561 0
M  V30 3855 C 370.435 -2.34278 0.122825 0
M  V30 3856 C 371.451 -1.59116 -0.704131 0
M  V30 3857 O 372.627 -1.91326 -0.628987 0
M  V30 3858 C 369.692 -3.38221 -0.762086 0
M  V30 3859 C 368.753 -4.29227 0.078896 0
M  V30 3860 C 367.986 -5.28205 -0.763874 0
M  V30 3861 O 368.209 -5.34112 -2.00201 0
M  V30 3862 O 367.143 -6.01618 -0.18428 0
M  V30 3863 H 370.969 -2.89649 0.913088 0
M  V30 3864 H 368.554 -1.40374 0.511417 0
M  V30 3865 H 370.436 -4.01872 -1.26793 0
M  V30 3866 H 369.111 -2.85211 -1.5309 0
M  V30 3867 H 368.018 -3.68747 0.630621 0
M  V30 3868 H 369.351 -4.85484 0.810289 0
M  V30 3869 N 371.003 -0.499398 -1.49478 0
M  V30 3870 C 371.913 0.284489 -2.32869 0
M  V30 3871 C 372.929 0.968885 -1.44529 0
M  V30 3872 O 374.105 0.95062 -1.77553 0
M  V30 3873 C 371.17 1.33594 -3.19928 0
M  V30 3874 C 370.231 0.665149 -4.24116 0
M  V30 3875 C 369.464 1.6665 -5.07014 0
M  V30 3876 O 369.687 2.89618 -4.91404 0
M  V30 3877 O 368.621 1.22271 -5.8935 0
M  V30 3878 H 372.447 -0.39802 -3.01081 0
M  V30 3879 H 370.032 -0.260758 -1.47107 0
M  V30 3880 H 371.914 1.94431 -3.73864 0
M  V30 3881 H 370.589 2.0014 -2.54412 0
M  V30 3882 H 369.496 0.0170769 -3.74096 0
M  V30 3883 H 370.829 0.0421555 -4.92182 0
M  V30 3884 N 372.481 1.55866 -0.233164 0
M  V30 3885 C 373.444 2.1953 0.658715 0
M  V30 3886 C 374.444 1.16053 1.11303 0
M  V30 3887 O 375.634 1.41218 1.01996 0
M  V30 3888 C 372.766 2.82791 1.90373 0
M  V30 3889 H 373.959 2.99721 0.10347 0
M  V30 3890 H 371.512 1.56291 0.0164245 0
M  V30 3891 H 372.247 2.06501 2.50056 0
M  V30 3892 H 372.032 3.58578 1.58632 0
M  V30 3893 H 373.522 3.31556 2.53891 0
M  V30 3894 N 373.959 -0.0401083 1.57549 0
M  V30 3895 C 375.37 -0.588097 1.77196 0
M  V30 3896 C 375.721 -1.76209 0.862832 0
M  V30 3897 O 374.846 -2.16331 0.0548389 0
M  V30 3898 C 375.441 -1.07363 3.21339 0
M  V30 3899 C 374 -1.56723 3.42221 0
M  V30 3900 C 373.147 -0.50041 2.72747 0
M  V30 3901 H 376.098 0.186119 1.57605 0
M  V30 3902 H 376.119 -1.94143 3.27244 0
M  V30 3903 H 375.631 -0.218975 3.87482 0
M  V30 3904 H 373.732 -2.4441 2.81237 0
M  V30 3905 H 373.845 -1.62234 4.50796 0
M  V30 3906 H 372.209 -0.952894 2.36203 0
M  V30 3907 H 372.992 0.344599 3.41566 0
M  V30 3908 N 375.437 -1.54477 -0.31217 0
M  V30 3909 C 376.384 -1.84655 -1.38461 0
M  V30 3910 C 377.354 -0.694536 -1.50882 0
M  V30 3911 O 378.539 -0.942081 -1.6592 0
M  V30 3912 C 375.679 -2.0896 -2.74645 0
M  V30 3913 C 374.792 -3.36618 -2.70763 0
M  V30 3914 C 373.927 -3.50824 -3.98868 0
M  V30 3915 C 372.966 -4.72315 -3.89339 0
M  V30 3916 N 372.103 -4.83387 -5.09197 0
M  V30 3917 H 376.943 -2.76142 -1.12026 0
M  V30 3918 H 374.48 -1.36748 -0.542065 0
M  V30 3919 H 376.438 -2.21045 -3.53829 0
M  V30 3920 H 375.068 -1.20752 -2.99364 0
M  V30 3921 H 374.12 -3.33211 -1.83506 0
M  V30 3922 H 375.432 -4.25917 -2.59608 0
M  V30 3923 H 374.586 -3.62513 -4.86486 0
M  V30 3924 H 373.325 -2.59638 -4.12843 0
M  V30 3925 H 372.33 -4.6067 -3.00105 0
M  V30 3926 H 373.555 -5.64897 -3.76919 0
M  V30 3927 H 371.501 -3.9512 -5.23657 0
M  V30 3928 H 371.418 -5.66669 -5.00422 0
M  V30 3929 H 372.686 -4.9942 -5.98498 0
M  V30 3930 N 376.915 0.57481 -1.46744 0
M  V30 3931 C 378.143 1.35856 -1.56047 0
M  V30 3932 C 378.558 1.87691 -0.204365 0
M  V30 3933 O 377.915 1.64049 0.79963 0
M  V30 3934 C 377.966 2.54066 -2.57163 0
M  V30 3935 O 377.687 2.04377 -3.87507 0
M  V30 3936 C 379.188 3.46514 -2.76483 0
M  V30 3937 H 376.408 0.414754 -0.527466 0
M  V30 3938 H 378.952 0.698035 -1.92218 0
M  V30 3939 H 377.107 3.16092 -2.23974 0
M  V30 3940 H 377.521 2.81419 -4.4261 0
M  V30 3941 H 378.995 4.25919 -3.51137 0
M  V30 3942 H 379.472 3.98951 -1.83671 0
M  V30 3943 H 380.078 2.90318 -3.10799 0
M  V30 3944 N 378.394 1.34581 0.820102 0
M  V30 3945 C 379.805 1.24298 1.39309 0
M  V30 3946 C 380.156 -0.130351 1.95767 0
M  V30 3947 O 379.281 -1.0308 1.90272 0
M  V30 3948 C 379.876 2.25054 2.53251 0
M  V30 3949 C 378.435 2.18552 3.0645 0
M  V30 3950 C 377.582 2.11503 1.79337 0
M  V30 3951 H 380.533 1.45906 0.624262 0
M  V30 3952 H 380.554 1.86917 3.31425 0
M  V30 3953 H 380.066 3.24996 2.1213 0
M  V30 3954 H 378.167 1.21976 3.52069 0
M  V30 3955 H 378.28 3.0993 3.65349 0
M  V30 3956 H 376.644 1.57268 2.00347 0
M  V30 3957 H 377.427 3.13284 1.40386 0
M  V30 3958 N 379.872 -1.04064 1.18357 0
M  V30 3959 C 380.802 -2.14001 0.934113 0
M  V30 3960 C 381.783 -1.69616 -0.128186 0
M  V30 3961 O 382.968 -1.94185 0.0244093 0
M  V30 3962 C 380.098 -3.44253 0.459066 0
M  V30 3963 C 379.052 -4.02261 1.46185 0
M  V30 3964 C 378.378 -5.27992 0.844322 0
M  V30 3965 C 379.678 -4.38432 2.83856 0
M  V30 3966 H 381.372 -2.35127 1.85352 0
M  V30 3967 H 378.918 -1.12998 0.892604 0
M  V30 3968 H 380.871 -4.20522 0.271907 0
M  V30 3969 H 379.595 -3.22813 -0.495912 0
M  V30 3970 H 378.254 -3.28074 1.63595 0
M  V30 3971 H 377.902 -5.02862 -0.117845 0
M  V30 3972 H 377.602 -5.67765 1.51384 0
M  V30 3973 H 379.126 -6.06938 0.667693 0
M  V30 3974 H 380.54 -5.05688 2.70098 0
M  V30 3975 H 378.937 -4.89254 3.47491 0
M  V30 3976 H 380.007 -3.4826 3.37406 0
M  V30 3977 N 381.35 -0.985608 -1.22978 0
M  V30 3978 C 382.282 -0.488154 -2.23941 0
M  V30 3979 C 383.295 0.41282 -1.57479 0
M  V30 3980 O 384.484 0.216121 -1.77187 0
M  V30 3981 C 381.584 0.312611 -3.37455 0
M  V30 3982 C 380.757 -0.582741 -4.33501 0
M  V30 3983 C 379.816 0.165064 -5.25941 0
M  V30 3984 O 378.842 -0.447077 -5.67442 0
M  V30 3985 N 380.044 1.44953 -5.62111 0
M  V30 3986 H 382.809 -1.3563 -2.67254 0
M  V30 3987 H 380.37 -0.859477 -1.37203 0
M  V30 3988 H 382.362 0.821357 -3.96277 0
M  V30 3989 H 380.932 1.0818 -2.93285 0
M  V30 3990 H 380.152 -1.27225 -3.73105 0
M  V30 3991 H 381.44 -1.19275 -4.94622 0
M  V30 3992 H 380.838 1.9683 -5.30353 0
M  V30 3993 H 379.395 1.90361 -6.23383 0
M  V30 3994 N 382.828 1.3818 -0.7579 0
M  V30 3995 C 383.775 2.30416 -0.133057 0
M  V30 3996 C 384.745 1.50398 0.704957 0
M  V30 3997 O 385.93 1.79014 0.660192 0
M  V30 3998 C 383.07 3.36834 0.750813 0
M  V30 3999 C 382.183 4.31879 -0.102297 0
M  V30 4000 C 381.318 5.25368 0.784979 0
M  V30 4001 C 380.357 6.12058 -0.0715046 0
M  V30 4002 N 379.494 6.97832 0.772972 0
M  V30 4003 H 384.334 2.83274 -0.925186 0
M  V30 4004 H 381.871 1.39461 -0.467866 0
M  V30 4005 H 383.829 3.97145 1.27794 0
M  V30 4006 H 382.459 2.85374 1.50868 0
M  V30 4007 H 381.511 3.72991 -0.747095 0
M  V30 4008 H 382.823 4.92921 -0.763552 0
M  V30 4009 H 381.977 5.90818 1.37911 0
M  V30 4010 H 380.716 4.64703 1.47996 0
M  V30 4011 H 379.721 5.456 -0.678272 0
M  V30 4012 H 380.946 6.74793 -0.763606 0
M  V30 4013 H 378.892 6.3971 1.45282 0
M  V30 4014 H 378.809 7.55812 0.168709 0
M  V30 4015 H 380.077 7.67687 1.35194 0
M  V30 4016 N 384.306 0.507319 1.49211 0
M  V30 4017 C 385.531 -0.033725 2.07373 0
M  V30 4018 C 385.956 -1.29485 1.36437 0
M  V30 4019 O 385.314 -1.76294 0.423087 0
M  V30 4020 C 385.362 -0.263945 3.59633 0
M  V30 4021 O 384.466 -1.33737 3.90113 0
M  V30 4022 H 383.807 0.0290331 0.663365 0
M  V30 4023 H 386.337 0.708749 1.91932 0
M  V30 4024 H 386.347 -0.493536 4.05004 0
M  V30 4025 H 385.022 0.657424 4.10671 0
M  V30 4026 H 383.599 -1.09224 3.56545 0
M  V30 4027 N 385.784 -1.5574 0.241426 0
M  V30 4028 C 386.717 -2.17168 -0.700935 0
M  V30 4029 C 387.695 -1.12206 -1.1768 0
M  V30 4030 O 388.879 -1.40565 -1.25593 0
M  V30 4031 C 386.006 -2.76796 -1.95196 0
M  V30 4032 C 385.052 -3.94764 -1.61442 0
M  V30 4033 S 385.885 -5.30613 -0.72182 0
M  V30 4034 C 387.041 -5.93691 -1.98197 0
M  V30 4035 H 387.274 -2.96761 -0.178882 0
M  V30 4036 H 384.807 -1.54378 0.0259299 0
M  V30 4037 H 386.765 -3.11787 -2.67019 0
M  V30 4038 H 385.426 -1.9716 -2.44514 0
M  V30 4039 H 384.619 -4.35057 -2.54443 0
M  V30 4040 H 384.221 -3.61022 -0.976672 0
M  V30 4041 H 386.513 -6.10874 -2.92983 0
M  V30 4042 H 387.456 -6.89258 -1.62262 0
M  V30 4043 H 387.864 -5.22709 -2.13156 0
M  V30 4044 N 387.262 0.0317525 -1.57568 0
M  V30 4045 C 388.539 0.758366 -1.803 0
M  V30 4046 C 388.919 1.93718 -0.838845 0
M  V30 4047 O 388.267 2.28187 0.119571 0
M  V30 4048 C 388.477 1.19392 -3.27943 0
M  V30 4049 C 389.825 1.61094 -3.92854 0
M  V30 4050 O 390.849 1.28857 -3.32076 0
M  V30 4051 O 389.708 2.20918 -4.99858 0
M  V30 4052 H 386.802 0.366514 -0.741348 0
M  V30 4053 H 389.348 0.00873765 -1.69698 0
M  V30 4054 H 388.12 0.352275 -3.89711 0
M  V30 4055 H 387.743 2.00365 -3.43424 0
M  V30 4056 N 388.74 1.54641 0.303973 0
M  V30 4057 C 389.67 1.88386 1.3796 0
M  V30 4058 C 390.651 0.742485 1.5304 0
M  V30 4059 O 391.836 0.997959 1.66597 0
M  V30 4060 C 388.966 2.12854 2.74427 0
M  V30 4061 C 387.92 3.28702 2.74115 0
M  V30 4062 C 387.246 3.38582 4.13844 0
M  V30 4063 C 388.546 4.65881 2.3612 0
M  V30 4064 H 390.24 2.78474 1.09966 0
M  V30 4065 H 387.786 1.33988 0.527556 0
M  V30 4066 H 389.739 2.35047 3.49758 0
M  V30 4067 H 388.463 1.19535 3.03939 0
M  V30 4068 H 387.122 3.06428 2.0124 0
M  V30 4069 H 386.77 2.42784 4.40528 0
M  V30 4070 H 386.47 4.16453 4.14537 0
M  V30 4071 H 387.994 3.63031 4.90959 0
M  V30 4072 H 389.408 4.87823 3.01167 0
M  V30 4073 H 387.805 5.46444 2.48031 0
M  V30 4074 H 388.875 4.66799 1.3125 0
M  V30 4075 N 390.218 -0.567019 1.47046 0
M  V30 4076 C 391.148 -1.68482 1.61667 0
M  V30 4077 C 392.129 -1.6358 0.466418 0
M  V30 4078 O 393.314 -1.81354 0.694574 0
M  V30 4079 C 390.444 -3.07124 1.62148 0
M  V30 4080 C 389.398 -3.26867 2.76301 0
M  V30 4081 C 388.724 -4.66196 2.61849 0
M  V30 4082 C 390.024 -3.13186 4.17986 0
M  V30 4083 H 391.718 -1.56502 2.5524 0
M  V30 4084 H 389.264 -0.751486 1.22836 0
M  V30 4085 H 391.217 -3.8516 1.70968 0
M  V30 4086 H 389.941 -3.2004 0.651287 0
M  V30 4087 H 388.6 -2.51237 2.66975 0
M  V30 4088 H 388.248 -4.75898 1.62879 0
M  V30 4089 H 387.948 -4.80356 3.38425 0
M  V30 4090 H 389.472 -5.46379 2.72584 0
M  V30 4091 H 390.886 -3.81049 4.2834 0
M  V30 4092 H 389.283 -3.3886 4.95272 0
M  V30 4093 H 390.353 -2.10057 4.3704 0
M  V30 4094 N 391.696 -1.35014 -0.812953 0
M  V30 4095 C 392.944 -1.27678 -1.56661 0
M  V30 4096 C 393.265 0.150359 -1.94419 0
M  V30 4097 O 392.535 1.08532 -1.63088 0
M  V30 4098 H 391.115 -0.469602 -0.580933 0
M  V30 4099 H 393.777 -1.69043 -0.970076 0
M  V30 4100 H 392.873 -1.88833 -2.48492 0
M  V30 4101 N 393.175 1.03435 -1.18907 0
M  V30 4102 C 394.122 2.11591 -0.921837 0
M  V30 4103 C 395.092 1.65499 0.141226 0
M  V30 4104 O 396.277 1.908 0.000242829 0
M  V30 4105 C 393.417 3.42012 -0.460616 0
M  V30 4106 C 392.53 4.01682 -1.58982 0
M  V30 4107 C 391.665 5.20091 -1.08069 0
M  V30 4108 C 390.704 5.71805 -2.18416 0
M  V30 4109 N 389.841 6.81494 -1.68849 0
M  V30 4110 H 394.681 2.33787 -1.8479 0
M  V30 4111 H 392.218 1.1467 -0.921373 0
M  V30 4112 H 394.176 4.16834 -0.174642 0
M  V30 4113 H 392.806 3.19944 0.428467 0
M  V30 4114 H 391.858 3.24127 -1.99113 0
M  V30 4115 H 393.17 4.36084 -2.4214 0
M  V30 4116 H 392.324 6.02051 -0.749615 0
M  V30 4117 H 391.063 4.87209 -0.218771 0
M  V30 4118 H 390.068 4.88461 -2.5236 0
M  V30 4119 H 391.293 6.06728 -3.05054 0
M  V30 4120 H 389.239 6.50475 -0.849572 0
M  V30 4121 H 389.156 7.14994 -2.45601 0
M  V30 4122 H 390.424 7.67063 -1.38689 0
M  V30 4123 N 394.653 0.992116 1.22453 0
M  V30 4124 C 395.585 0.500024 2.23679 0
M  V30 4125 C 396.598 -0.404463 1.57696 0
M  V30 4126 O 397.787 -0.206722 1.77299 0
M  V30 4127 C 394.887 -0.294711 3.37616 0
M  V30 4128 C 394.06 0.605723 4.33186 0
M  V30 4129 C 393.119 -0.13717 5.26021 0
M  V30 4130 O 392.145 0.477164 5.67196 0
M  V30 4131 N 393.347 -1.4197 5.62872 0
M  V30 4132 H 396.112 1.37045 2.66531 0
M  V30 4133 H 393.673 0.866741 1.36745 0
M  V30 4134 H 395.665 -0.800329 3.96707 0
M  V30 4135 H 394.235 -1.06623 2.93854 0
M  V30 4136 H 393.455 1.29202 3.72425 0
M  V30 4137 H 394.743 1.21896 4.93983 0
M  V30 4138 H 394.141 -1.94015 5.31389 0
M  V30 4139 H 392.698 -1.87052 6.24383 0
M  V30 4140 N 396.131 -1.37776 0.765217 0
M  V30 4141 C 397.061 -2.32945 0.160953 0
M  V30 4142 C 398.042 -1.55454 -0.690516 0
M  V30 4143 O 399.227 -1.83721 -0.629318 0
M  V30 4144 C 396.357 -3.39669 -0.724031 0
M  V30 4145 C 395.311 -4.27992 0.0256173 0
M  V30 4146 C 394.637 -5.25673 -0.978383 0
M  V30 4147 C 395.937 -5.08309 1.20082 0
M  V30 4148 H 397.631 -2.83728 0.955969 0
M  V30 4149 H 395.177 -1.36416 0.461149 0
M  V30 4150 H 397.13 -4.05219 -1.15652 0
M  V30 4151 H 395.854 -2.87396 -1.5515 0
M  V30 4152 H 394.513 -3.63964 0.438812 0
M  V30 4153 H 394.161 -4.69682 -1.80022 0
M  V30 4154 H 393.861 -5.85625 -0.481378 0
M  V30 4155 H 395.385 -5.94098 -1.40995 0
M  V30 4156 H 396.799 -5.67034 0.845307 0
M  V30 4157 H 395.196 -5.77554 1.62947 0
M  V30 4158 H 396.266 -4.41365 2.00811 0
M  V30 4159 N 397.609 -0.515225 -1.4894 0
M  V30 4160 C 398.834 0.022727 -2.07388 0
M  V30 4161 C 399.259 1.2876 -1.37122 0
M  V30 4162 O 398.617 1.76067 -0.432431 0
M  V30 4163 C 398.665 0.244869 -3.59768 0
M  V30 4164 O 397.769 1.31667 -3.90817 0
M  V30 4165 H 397.11 -0.0325506 -0.663202 0
M  V30 4166 H 399.64 -0.718918 -1.91553 0
M  V30 4167 H 399.65 0.47205 -4.0526 0
M  V30 4168 H 398.325 -0.679194 -4.10317 0
M  V30 4169 H 396.902 1.07331 -3.5712 0
M  V30 4170 N 399.087 1.5561 -0.249682 0
M  V30 4171 C 400.334 1.99011 0.374287 0
M  V30 4172 C 400.662 1.13785 1.57744 0
M  V30 4173 O 399.917 0.189326 1.94782 0
M  V30 4174 C 400.216 3.4775 0.824887 0
M  V30 4175 C 399.882 4.50086 -0.270819 0
M  V30 4176 C 398.544 4.77791 -0.571746 0
M  V30 4177 C 400.896 5.11312 -1.01041 0
M  V30 4178 C 398.224 5.63997 -1.61629 0
M  V30 4179 C 400.576 5.98651 -2.0445 0
M  V30 4180 C 399.24 6.24688 -2.35204 0
M  V30 4181 H 398.51 0.728233 0.136961 0
M  V30 4182 H 401.157 1.88122 -0.358087 0
M  V30 4183 H 399.462 3.55985 1.63651 0
M  V30 4184 H 401.159 3.78721 1.31799 0
M  V30 4185 H 397.749 4.28592 -0.026136 0
M  V30 4186 H 401.933 4.89953 -0.791177 0
M  V30 4187 H 397.189 5.82425 -1.85988 0
M  V30 4188 H 401.363 6.45135 -2.62248 0
M  V30 4189 H 398.99 6.91281 -3.16282 0
M  V30 4190 N 400.565 -0.0233959 1.57583 0
M  V30 4191 C 401.795 -0.723631 1.93513 0
M  V30 4192 C 402.203 -1.69115 0.848333 0
M  V30 4193 O 401.546 -1.82781 -0.183484 0
M  V30 4194 C 401.608 -1.53075 3.25282 0
M  V30 4195 C 401.272 -0.727388 4.51174 0
M  V30 4196 C 402.269 -0.0251924 5.19894 0
M  V30 4197 C 399.954 -0.680256 4.97672 0
M  V30 4198 C 401.948 0.713374 6.33395 0
M  V30 4199 C 399.635 0.0620523 6.11068 0
M  V30 4200 C 400.633 0.757622 6.78785 0
M  V30 4201 O 400.321 1.48787 7.90011 0
M  V30 4202 H 400.053 -0.208051 0.643188 0
M  V30 4203 H 402.607 0.0167489 2.05393 0
M  V30 4204 H 400.837 -2.31508 3.09744 0
M  V30 4205 H 402.526 -2.11413 3.46496 0
M  V30 4206 H 403.292 -0.0526003 4.84971 0
M  V30 4207 H 399.171 -1.21116 4.44805 0
M  V30 4208 H 402.715 1.25683 6.86185 0
M  V30 4209 H 398.612 0.0913634 6.45435 0
M  V30 4210 H 399.38 1.40213 8.06401 0
M  V30 4211 N 402.043 -1.548 -0.295768 0
M  V30 4212 C 403.268 -1.78653 -1.05346 0
M  V30 4213 C 403.693 -0.546894 -1.79974 0
M  V30 4214 O 403.051 0.502763 -1.7419 0
M  V30 4215 C 403.099 -2.99679 -2.00561 0
M  V30 4216 O 402.203 -2.7317 -3.08953 0
M  V30 4217 H 401.544 -0.59116 -0.302367 0
M  V30 4218 H 404.074 -2.01895 -0.331598 0
M  V30 4219 H 404.084 -3.27793 -2.42932 0
M  V30 4220 H 402.759 -3.89562 -1.4565 0
M  V30 4221 H 401.336 -2.56089 -2.71059 0
M  V30 4222 N 403.521 0.559213 -1.47345 0
M  V30 4223 C 404.768 1.31648 -1.53867 0
M  V30 4224 C 405.096 1.93468 -0.200104 0
M  V30 4225 O 404.351 1.78295 0.806799 0
M  V30 4226 C 404.65 2.44853 -2.6035 0
M  V30 4227 C 404.316 2.00876 -4.03683 0
M  V30 4228 C 402.978 1.88599 -4.42701 0
M  V30 4229 C 405.33 1.67279 -4.93626 0
M  V30 4230 C 402.658 1.41017 -5.69501 0
M  V30 4231 C 405.01 1.21169 -6.20887 0
M  V30 4232 C 403.674 1.07487 -6.58789 0
M  V30 4233 H 402.944 0.481734 -0.56304 0
M  V30 4234 H 405.591 0.627301 -1.80934 0
M  V30 4235 H 403.896 3.19318 -2.27032 0
M  V30 4236 H 405.593 3.03039 -2.62619 0
M  V30 4237 H 402.183 2.11374 -3.72853 0
M  V30 4238 H 406.367 1.75638 -4.64182 0
M  V30 4239 H 401.623 1.29086 -5.97618 0
M  V30 4240 H 405.797 0.942345 -6.89995 0
M  V30 4241 H 403.424 0.703946 -7.56934 0
M  V30 4242 N 404.999 1.35443 0.805782 0
M  V30 4243 C 406.247 1.28507 1.55982 0
M  V30 4244 C 406.568 -0.140046 1.94496 0
M  V30 4245 O 405.838 -1.07666 1.63661 0
M  V30 4246 H 404.418 0.472676 0.578434 0
M  V30 4247 H 407.08 1.69555 0.961098 0
M  V30 4248 H 406.176 1.90148 2.47488 0
M  V30 4249 N 406.477 -1.02803 1.19454 0
M  V30 4250 C 407.726 -1.7562 0.991996 0
M  V30 4251 C 408.039 -1.89672 -0.477901 0
M  V30 4252 O 409.245 -2.59468 -0.799287 0
M  V30 4253 C 407.701 -3.15812 1.72601 0
M  V30 4254 C 407.309 -3.0981 3.23607 0
M  V30 4255 C 409.053 -3.92918 1.60674 0
M  V30 4256 C 406.96 -4.44939 3.89594 0
M  V30 4257 H 405.89 -0.658352 0.367543 0
M  V30 4258 H 408.541 -1.15044 1.42959 0
M  V30 4259 H 406.923 -3.7686 1.21624 0
M  V30 4260 H 408.097 -2.58138 3.81709 0
M  V30 4261 H 406.412 -2.46201 3.35819 0
M  V30 4262 H 409.009 -4.9287 2.07323 0
M  V30 4263 H 409.352 -4.12502 0.561025 0
M  V30 4264 H 409.885 -3.38472 2.09001 0
M  V30 4265 H 406.624 -4.30559 4.94267 0
M  V30 4266 H 406.144 -4.96664 3.36281 0
M  V30 4267 H 407.823 -5.1382 3.93189 0
M  V30 4268 N 407.956 -0.998596 -1.21925 0
M  V30 4269 C 409.205 -0.673085 -1.90138 0
M  V30 4270 C 409.518 0.79895 -1.78539 0
M  V30 4271 O 410.724 1.23628 -2.4172 0
M  V30 4272 C 409.18 -1.15339 -3.40918 0
M  V30 4273 C 408.788 -2.65106 -3.61141 0
M  V30 4274 C 410.532 -0.902476 -4.14796 0
M  V30 4275 C 408.439 -3.0671 -5.05651 0
M  V30 4276 H 407.369 -0.248057 -0.712028 0
M  V30 4277 H 410.02 -1.20891 -1.38049 0
M  V30 4278 H 408.402 -0.545658 -3.92223 0
M  V30 4279 H 409.576 -3.31274 -3.20304 0
M  V30 4280 H 407.891 -2.88142 -3.00605 0
M  V30 4281 H 410.488 -1.18895 -5.21314 0
M  V30 4282 H 410.831 0.161349 -4.15987 0
M  V30 4283 H 411.364 -1.47269 -3.69536 0
M  V30 4284 H 408.103 -4.12292 -5.09603 0
M  V30 4285 H 407.623 -2.45249 -5.47369 0
M  V30 4286 H 409.302 -2.9833 -5.74115 0
M  V30 4287 N 409.434 1.37368 -0.772513 0
M  V30 4288 C 410.682 1.99279 -0.336516 0
M  V30 4289 C 411.003 1.6163 1.09091 0
M  V30 4290 O 410.273 0.882109 1.74916 0
M  V30 4291 H 408.853 0.737063 -0.121435 0
M  V30 4292 H 411.515 1.67836 -0.990809 0
M  V30 4293 H 410.611 3.09332 -0.414763 0
M  V30 4294 N 410.912 0.523116 1.48665 0
M  V30 4295 C 412.161 -0.01544 2.01694 0
M  V30 4296 C 412.474 -1.35975 1.40606 0
M  V30 4297 O 413.68 -1.98627 1.85093 0
M  V30 4298 C 412.136 -0.0779303 3.59816 0
M  V30 4299 C 411.744 1.26107 4.29885 0
M  V30 4300 C 413.488 -0.565678 4.20714 0
M  V30 4301 C 411.395 1.15954 5.79921 0
M  V30 4302 H 410.325 -0.00954163 0.75394 0
M  V30 4303 H 412.976 0.665865 1.70993 0
M  V30 4304 H 411.358 -0.824165 3.87329 0
M  V30 4305 H 412.532 2.02233 4.14051 0
M  V30 4306 H 410.847 1.68401 3.80828 0
M  V30 4307 H 413.444 -0.6595 5.30617 0
M  V30 4308 H 413.787 -1.56984 3.85567 0
M  V30 4309 H 414.32 0.12467 3.97605 0
M  V30 4310 H 411.059 2.13864 6.19631 0
M  V30 4311 H 410.579 0.439529 5.98187 0
M  V30 4312 H 412.258 0.847361 6.41427 0
M  V30 4313 N 412.39 -1.55475 0.257931 0
M  V30 4314 C 413.639 -1.98383 -0.364275 0
M  V30 4315 C 413.952 -1.14952 -1.58258 0
M  V30 4316 O 415.158 -1.47924 -2.27664 0
M  V30 4317 C 413.614 -3.53037 -0.699479 0
M  V30 4318 C 413.222 -4.45223 0.498046 0
M  V30 4319 C 414.966 -4.04575 -1.28526 0
M  V30 4320 C 412.873 -5.91238 0.138383 0
M  V30 4321 H 411.803 -0.740911 -0.13988 0
M  V30 4322 H 414.454 -1.79936 0.359883 0
M  V30 4323 H 412.836 -3.6722 -1.48207 0
M  V30 4324 H 414.01 -4.42803 1.27522 0
M  V30 4325 H 412.325 -4.04226 0.999503 0
M  V30 4326 H 414.922 -5.11196 -1.56788 0
M  V30 4327 H 415.265 -3.5258 -2.21344 0
M  V30 4328 H 415.798 -3.93762 -0.565337 0
M  V30 4329 H 412.537 -6.47294 1.03398 0
M  V30 4330 H 412.057 -5.96768 -0.602374 0
M  V30 4331 H 413.736 -6.46413 -0.27553 0
M  V30 4332 N 413.868 0.0150385 -1.57593 0
M  V30 4333 C 414.801 1.04475 -2.0288 0
M  V30 4334 C 415.779 1.3436 -0.915764 0
M  V30 4335 O 416.963 1.46779 -1.18271 0
M  V30 4336 C 414.09 2.37608 -2.41371 0
M  V30 4337 C 413.136 2.23487 -3.63257 0
M  V30 4338 S 413.969 1.57505 -5.11813 0
M  V30 4339 C 415.125 2.921 -5.5356 0
M  V30 4340 H 415.358 0.65907 -2.89903 0
M  V30 4341 H 412.891 0.225452 -1.52745 0
M  V30 4342 H 414.849 3.14165 -2.64217 0
M  V30 4343 H 413.51 2.7332 -1.54775 0
M  V30 4344 H 412.703 3.21802 -3.87891 0
M  V30 4345 H 412.305 1.55074 -3.40335 0
M  V30 4346 H 414.597 3.88419 -5.55101 0
M  V30 4347 H 415.54 2.72184 -6.53698 0
M  V30 4348 H 415.948 2.95318 -4.8109 0
M  V30 4349 N 415.346 1.54954 0.287554 0
M  V30 4350 C 416.276 1.89839 1.35954 0
M  V30 4351 C 417.257 0.758675 1.52244 0
M  V30 4352 O 418.442 1.01557 1.65529 0
M  V30 4353 C 415.572 2.15753 2.72154 0
M  V30 4354 C 414.526 3.3159 2.70614 0
M  V30 4355 C 413.852 3.42952 4.10229 0
M  V30 4356 C 415.152 4.68359 2.31165 0
M  V30 4357 H 416.846 2.79625 1.07007 0
M  V30 4358 H 414.392 1.3454 0.513316 0
M  V30 4359 H 416.345 2.38743 3.47246 0
M  V30 4360 H 415.069 1.22752 3.02654 0
M  V30 4361 H 413.728 3.08545 1.97979 0
M  V30 4362 H 413.376 2.47443 4.37928 0
M  V30 4363 H 413.076 4.20826 4.10097 0
M  V30 4364 H 414.6 3.68218 4.87081 0
M  V30 4365 H 416.014 4.9099 2.95976 0
M  V30 4366 H 414.411 5.49044 2.42221 0
M  V30 4367 H 415.481 4.68165 1.26291 0
M  V30 4368 N 416.824 -0.551391 1.4764 0
M  V30 4369 C 418.07 -1.31024 1.54792 0
M  V30 4370 C 418.403 -1.9304 0.211967 0
M  V30 4371 O 417.678 -1.78175 -0.77999 0
M  V30 4372 C 417.961 -2.41593 2.67029 0
M  V30 4373 C 417.814 -1.84408 4.10261 0
M  V30 4374 C 419.133 -3.43488 2.75143 0
M  V30 4375 H 416.252 -0.475031 0.563485 0
M  V30 4376 H 418.894 -0.616454 1.79722 0
M  V30 4377 H 417.044 -3.00772 2.45904 0
M  V30 4378 H 418.716 -1.29445 4.42766 0
M  V30 4379 H 416.959 -1.15051 4.18265 0
M  V30 4380 H 417.63 -2.64367 4.84576 0
M  V30 4381 H 420.106 -2.94236 2.94218 0
M  V30 4382 H 418.982 -4.18274 3.55441 0
M  V30 4383 H 419.243 -4.02703 1.82435 0
M  V30 4384 N 418.302 -1.35869 -0.798587 0
M  V30 4385 C 419.55 -1.29332 -1.55298 0
M  V30 4386 C 419.871 0.129729 -1.94568 0
M  V30 4387 O 419.141 1.06796 -1.6423 0
M  V30 4388 H 417.721 -0.475737 -0.57592 0
M  V30 4389 H 420.383 -1.70062 -0.952093 0
M  V30 4390 H 419.479 -1.91458 -2.46476 0
M  V30 4391 N 419.78 1.02168 -1.19998 0
M  V30 4392 C 421.026 1.7606 -1.01855 0
M  V30 4393 C 421.381 1.87178 0.445222 0
M  V30 4394 O 420.674 1.3828 1.32624 0
M  V30 4395 C 420.868 3.18081 -1.62969 0
M  V30 4396 C 420.697 3.20809 -3.15137 0
M  V30 4397 C 419.467 3.28342 -3.84083 0
M  V30 4398 C 421.665 3.07268 -4.1242 0
M  V30 4399 N 419.647 3.2052 -5.23584 0
M  V30 4400 C 421.018 3.0716 -5.38566 0
M  V30 4401 C 423.073 2.91448 -4.03686 0
M  V30 4402 C 421.776 2.92853 -6.56985 0
M  V30 4403 C 423.802 2.78494 -5.21723 0
M  V30 4404 C 423.164 2.79046 -6.46771 0
M  V30 4405 H 419.263 0.655192 -0.426905 0
M  V30 4406 H 421.847 1.21564 -1.52087 0
M  V30 4407 H 420.018 3.70882 -1.15329 0
M  V30 4408 H 421.75 3.80375 -1.38192 0
M  V30 4409 H 418.505 3.34859 -3.34913 0
M  V30 4410 H 418.929 3.19997 -5.96599 0
M  V30 4411 H 423.571 2.89838 -3.07821 0
M  V30 4412 H 421.289 2.93213 -7.53028 0
M  V30 4413 H 424.875 2.67278 -5.16773 0
M  V30 4414 H 423.755 2.69134 -7.36571 0
M  V30 4415 N 421.258 1.00505 1.21394 0
M  V30 4416 C 422.188 0.585684 2.26035 0
M  V30 4417 C 423.169 -0.393525 1.65485 0
M  V30 4418 O 424.354 -0.281497 1.92149 0
M  V30 4419 C 421.484 -0.0884283 3.47187 0
M  V30 4420 C 420.438 0.810567 4.20254 0
M  V30 4421 C 419.764 0.00286382 5.347 0
M  V30 4422 C 421.064 2.1132 4.77641 0
M  V30 4423 H 422.758 1.46039 2.61368 0
M  V30 4424 H 420.304 0.703648 1.25638 0
M  V30 4425 H 422.257 -0.393286 4.19561 0
M  V30 4426 H 420.981 -0.997766 3.10986 0
M  V30 4427 H 419.64 1.09925 3.49731 0
M  V30 4428 H 419.288 -0.907765 4.94741 0
M  V30 4429 H 418.988 0.601444 5.84514 0
M  V30 4430 H 420.512 -0.295808 6.09883 0
M  V30 4431 H 421.926 1.87148 5.41893 0
M  V30 4432 H 420.323 2.66164 5.37845 0
M  V30 4433 H 421.393 2.78393 3.9702 0
M  V30 4434 N 422.737 -1.36956 0.779787 0
M  V30 4435 C 423.667 -2.32761 0.185651 0
M  V30 4436 C 424.648 -1.56177 -0.673989 0
M  V30 4437 O 425.833 -1.84378 -0.609797 0
M  V30 4438 C 422.963 -3.40418 -0.687964 0
M  V30 4439 C 421.917 -4.27941 0.0710102 0
M  V30 4440 C 421.243 -5.26681 -0.922573 0
M  V30 4441 C 422.543 -5.07006 1.25467 0
M  V30 4442 H 424.237 -2.82698 0.986008 0
M  V30 4443 H 421.783 -1.3592 0.475592 0
M  V30 4444 H 423.736 -4.06423 -1.11348 0
M  V30 4445 H 422.46 -2.89025 -1.52093 0
M  V30 4446 H 421.119 -3.63478 0.47739 0
M  V30 4447 H 420.767 -4.71565 -1.7503 0
M  V30 4448 H 420.467 -5.86103 -0.419237 0
M  V30 4449 H 421.991 -5.9556 -1.34686 0
M  V30 4450 H 423.405 -5.66105 0.905401 0
M  V30 4451 H 421.802 -5.75793 1.69063 0
M  V30 4452 H 422.872 -4.3921 2.05481 0
M  V30 4453 N 424.215 -0.530993 -1.48385 0
M  V30 4454 C 425.463 0.00273189 -2.021 0
M  V30 4455 C 425.784 1.34672 -1.41027 0
M  V30 4456 O 425.054 1.8724 -0.576012 0
M  V30 4457 H 423.634 0.00399774 -0.746989 0
M  V30 4458 H 426.296 -0.695054 -1.82085 0
M  V30 4459 H 425.392 0.11031 -3.11905 0
M  V30 4460 N 425.693 1.55336 -0.266172 0
M  V30 4461 C 426.64 2.22172 0.625165 0
M  V30 4462 C 427.61 1.19211 1.15663 0
M  V30 4463 O 428.795 1.47723 1.20758 0
M  V30 4464 C 425.935 2.93972 1.8076 0
M  V30 4465 C 425.048 4.11632 1.31084 0
M  V30 4466 C 424.183 4.71099 2.45436 0
M  V30 4467 C 423.222 5.8097 1.92718 0
M  V30 4468 N 422.359 6.34538 3.00509 0
M  V30 4469 H 427.199 2.9796 0.0485582 0
M  V30 4470 H 424.736 1.47095 0.0122024 0
M  V30 4471 H 426.694 3.33811 2.50251 0
M  V30 4472 H 425.324 2.20623 2.35638 0
M  V30 4473 H 424.376 3.76975 0.509326 0
M  V30 4474 H 425.688 4.90893 0.884633 0
M  V30 4475 H 424.842 5.13612 3.22936 0
M  V30 4476 H 423.581 3.91096 2.91368 0
M  V30 4477 H 422.586 5.37916 1.13695 0
M  V30 4478 H 423.811 6.62836 1.47733 0
M  V30 4479 H 421.757 5.57433 3.45839 0
M  V30 4480 H 421.674 7.09046 2.62279 0
M  V30 4481 H 422.942 6.81709 3.78011 0
M  V30 4482 N 427.171 -0.0066808 1.57599 0
M  V30 4483 C 428.448 -0.729586 1.81484 0
M  V30 4484 C 428.828 -1.92359 0.869558 0
M  V30 4485 O 428.176 -2.28348 -0.0832533 0
M  V30 4486 C 428.386 -1.1416 3.29801 0
M  V30 4487 C 429.734 -1.54823 3.95367 0
M  V30 4488 O 430.758 -1.23558 3.34084 0
M  V30 4489 O 429.617 -2.12937 5.03309 0
M  V30 4490 H 426.711 -0.354674 0.747085 0
M  V30 4491 H 429.257 0.0182609 1.6969 0
M  V30 4492 H 428.029 -0.290231 3.90222 0
M  V30 4493 H 427.652 -1.94876 3.46568 0
M  V30 4494 N 428.649 -1.55105 -0.279332 0
M  V30 4495 C 429.898 -1.74618 -1.00952 0
M  V30 4496 C 430.211 -0.551096 -1.87676 0
M  V30 4497 O 431.417 -0.628507 -2.64125 0
M  V30 4498 C 429.873 -3.09025 -1.84476 0
M  V30 4499 C 429.481 -4.36081 -1.0265 0
M  V30 4500 C 431.225 -3.37891 -2.56963 0
M  V30 4501 C 429.132 -5.6153 -1.85576 0
M  V30 4502 H 428.062 -0.650868 -0.38064 0
M  V30 4503 H 430.713 -1.81569 -0.265475 0
M  V30 4504 H 429.095 -2.96095 -2.62952 0
M  V30 4505 H 430.269 -4.59909 -0.286354 0
M  V30 4506 H 428.584 -4.14312 -0.416464 0
M  V30 4507 H 431.181 -4.28822 -3.19399 0
M  V30 4508 H 431.524 -2.57737 -3.26921 0
M  V30 4509 H 432.057 -3.5189 -1.85522 0
M  V30 4510 H 428.796 -6.44413 -1.2005 0
M  V30 4511 H 428.316 -5.41854 -2.57204 0
M  V30 4512 H 429.995 -5.99594 -2.43096 0
M  V30 4513 N 430.127 0.543554 -1.4793 0
M  V30 4514 C 431.057 1.65888 -1.64327 0
M  V30 4515 C 432.038 1.62818 -0.492383 0
M  V30 4516 O 433.223 1.80226 -0.723338 0
M  V30 4517 C 430.353 3.04506 -1.67013 0
M  V30 4518 C 429.307 3.2243 -2.81466 0
M  V30 4519 C 428.633 4.61972 -2.69233 0
M  V30 4520 C 429.933 3.06496 -4.22915 0
M  V30 4521 H 431.627 1.52421 -2.57698 0
M  V30 4522 H 429.173 0.731849 -1.24016 0
M  V30 4523 H 431.126 3.82391 -1.77074 0
M  V30 4524 H 429.85 3.18964 -0.70212 0
M  V30 4525 H 428.509 2.46957 -2.70938 0
M  V30 4526 H 428.157 4.73247 -1.7043 0
M  V30 4527 H 427.857 4.74911 -3.46025 0
M  V30 4528 H 429.381 5.41974 -2.81242 0
M  V30 4529 H 430.795 3.74186 -4.34348 0
M  V30 4530 H 429.192 3.30938 -5.006 0
M  V30 4531 H 430.262 2.03077 -4.40327 0
M  V30 4532 N 431.605 1.3629 0.791371 0
M  V30 4533 C 432.515 1.32606 1.93527 0
M  V30 4534 C 433.531 0.228541 1.72493 0
M  V30 4535 O 434.707 0.460571 1.96063 0
M  V30 4536 C 431.772 1.11271 3.28359 0
M  V30 4537 C 430.833 2.3048 3.62185 0
M  V30 4538 C 430.066 2.10154 4.90583 0
M  V30 4539 O 430.289 1.07572 5.60165 0
M  V30 4540 O 429.223 2.97884 5.23019 0
M  V30 4541 H 433.049 2.28909 1.99585 0
M  V30 4542 H 430.634 1.16818 0.931344 0
M  V30 4543 H 432.516 1.01283 4.09047 0
M  V30 4544 H 431.191 0.180292 3.23198 0
M  V30 4545 H 430.098 2.46036 2.81811 0
M  V30 4546 H 431.431 3.22221 3.72068 0
M  V30 4547 N 433.083 -1.0153 1.20538 0
M  V30 4548 C 434.016 -2.09759 0.898695 0
M  V30 4549 C 434.994 -1.61909 -0.149733 0
M  V30 4550 O 436.178 -1.88486 -0.0230293 0
M  V30 4551 C 433.305 -3.36913 0.347512 0
M  V30 4552 C 432.351 -4.03655 1.37713 0
M  V30 4553 S 433.184 -4.47402 2.94265 0
M  V30 4554 C 434.34 -5.77756 2.40726 0
M  V30 4555 H 434.573 -2.3545 1.81523 0
M  V30 4556 H 432.106 -1.14665 1.03399 0
M  V30 4557 H 434.064 -4.10484 0.0360518 0
M  V30 4558 H 432.725 -3.09291 -0.547546 0
M  V30 4559 H 431.918 -4.9514 0.940872 0
M  V30 4560 H 431.52 -3.36313 1.63614 0
M  V30 4561 H 433.812 -6.52994 1.80569 0
M  V30 4562 H 434.755 -6.2618 3.30612 0
M  V30 4563 H 435.163 -5.34081 1.82806 0
M  V30 4564 N 434.561 -1.01147 -1.20859 0
M  V30 4565 C 435.808 -0.697865 -1.90095 0
M  V30 4566 C 436.136 0.772014 -1.78522 0
M  V30 4567 O 435.391 1.57595 -1.16027 0
M  V30 4568 C 435.69 -1.0727 -3.40922 0
M  V30 4569 C 435.356 -2.53792 -3.72693 0
M  V30 4570 C 434.018 -2.93829 -3.81075 0
M  V30 4571 C 436.37 -3.48674 -3.87397 0
M  V30 4572 C 433.698 -4.27696 -4.01613 0
M  V30 4573 C 436.05 -4.82223 -4.09444 0
M  V30 4574 C 434.714 -5.21973 -4.16054 0
M  V30 4575 H 433.984 -0.255367 -0.695607 0
M  V30 4576 H 436.631 -1.27111 -1.43231 0
M  V30 4577 H 434.936 -0.417799 -3.89566 0
M  V30 4578 H 436.633 -0.807818 -3.92779 0
M  V30 4579 H 433.223 -2.21768 -3.66765 0
M  V30 4580 H 437.407 -3.18904 -3.80281 0
M  V30 4581 H 432.663 -4.58055 -4.04964 0
M  V30 4582 H 436.837 -5.55672 -4.19763 0
M  V30 4583 H 434.464 -6.25717 -4.31721 0
M  V30 4584 N 436.039 1.36541 -0.78704 0
M  V30 4585 C 437.267 2.03561 -0.370199 0
M  V30 4586 C 437.682 1.59347 1.01263 0
M  V30 4587 O 437.039 0.781781 1.64907 0
M  V30 4588 C 437.09 3.59033 -0.421614 0
M  V30 4589 O 436.811 4.01634 -1.7499 0
M  V30 4590 C 438.312 4.433 0.00489763 0
M  V30 4591 H 435.532 0.653346 -0.152904 0
M  V30 4592 H 438.076 1.74566 -1.06522 0
M  V30 4593 H 436.231 3.86746 0.224971 0
M  V30 4594 H 436.645 4.96217 -1.69909 0
M  V30 4595 H 438.119 5.51939 -0.0822184 0
M  V30 4596 H 438.596 4.26285 1.05723 0
M  V30 4597 H 439.202 4.20843 -0.614085 0
M  V30 4598 N 437.518 0.538854 1.48102 0
M  V30 4599 C 438.767 0.0059532 2.01699 0
M  V30 4600 C 439.08 -1.34476 1.42041 0
M  V30 4601 O 440.286 -1.96653 1.87189 0
M  V30 4602 C 438.742 -0.0397627 3.59878 0
M  V30 4603 C 438.35 1.30659 4.28523 0
M  V30 4604 C 440.094 -0.521024 4.2129 0
M  V30 4605 C 438.001 1.22098 5.78659 0
M  V30 4606 H 436.931 -0.00154456 0.753998 0
M  V30 4607 H 439.582 0.683963 1.70277 0
M  V30 4608 H 437.964 -0.783037 3.88181 0
M  V30 4609 H 439.138 2.06613 4.11883 0
M  V30 4610 H 437.453 1.7243 3.79021 0
M  V30 4611 H 440.05 -0.603184 5.31287 0
M  V30 4612 H 440.393 -1.52885 3.8721 0
M  V30 4613 H 440.926 0.166834 3.9745 0
M  V30 4614 H 437.665 2.20424 6.17328 0
M  V30 4615 H 437.185 0.50295 5.97688 0
M  V30 4616 H 438.864 0.915345 6.40492 0
M  V30 4617 N 438.996 -1.55193 0.274407 0
M  V30 4618 C 440.221 -2.04446 -0.348824 0
M  V30 4619 C 440.646 -1.15149 -1.48735 0
M  V30 4620 O 440.004 -0.149952 -1.80679 0
M  V30 4621 C 440.052 -3.51431 -0.808009 0
M  V30 4622 O 439.156 -3.65225 -1.91531 0
M  V30 4623 H 438.497 -0.66006 -0.0722276 0
M  V30 4624 H 441.027 -2.00481 0.408498 0
M  V30 4625 H 441.037 -3.92781 -1.10395 0
M  V30 4626 H 439.712 -4.15892 0.0249865 0
M  V30 4627 H 438.289 -3.35778 -1.62196 0
M  V30 4628 N 440.474 -0.00167713 -1.576 0
M  V30 4629 C 441.72 0.683832 -1.90923 0
M  V30 4630 C 442.053 1.7333 -0.875799 0
M  V30 4631 O 441.328 1.94215 0.10525 0
M  V30 4632 C 441.611 1.32543 -3.3482 0
M  V30 4633 C 441.464 0.287387 -4.48881 0
M  V30 4634 C 442.783 2.25114 -3.78169 0
M  V30 4635 H 439.902 0.247125 -0.694333 0
M  V30 4636 H 442.544 -0.0533149 -1.89925 0
M  V30 4637 H 440.694 1.95372 -3.35801 0
M  V30 4638 H 442.366 -0.341346 -4.60035 0
M  V30 4639 H 440.609 -0.39017 -4.32042 0
M  V30 4640 H 441.28 0.775393 -5.46527 0
M  V30 4641 H 443.756 1.723 -3.7875 0
M  V30 4642 H 442.632 2.66971 -4.79602 0
M  V30 4643 H 442.893 3.13092 -3.12131 0
M  V30 4644 N 441.952 1.55251 0.271103 0
M  V30 4645 C 443.177 1.80306 1.02491 0
M  V30 4646 C 443.602 0.575457 1.79081 0
M  V30 4647 O 442.96 -0.474987 1.74967 0
M  V30 4648 C 443.008 3.02832 1.95768 0
M  V30 4649 O 442.112 2.78051 3.04568 0
M  V30 4650 H 441.453 0.595896 0.292923 0
M  V30 4651 H 443.983 2.02397 0.299436 0
M  V30 4652 H 443.993 3.31616 2.37686 0
M  V30 4653 H 442.668 3.9183 1.39434 0
M  V30 4654 H 441.245 2.60369 2.66951 0
M  V30 4655 N 443.43 -0.535701 1.48216 0
M  V30 4656 C 444.36 -1.65014 1.65204 0
M  V30 4657 C 445.341 -1.62554 0.501011 0
M  V30 4658 O 446.526 -1.7984 0.732886 0
M  V30 4659 C 443.656 -3.03616 1.68626 0
M  V30 4660 C 442.61 -3.20932 2.83172 0
M  V30 4661 C 441.936 -4.60537 2.71679 0
M  V30 4662 C 443.236 -3.04249 4.24535 0
M  V30 4663 H 444.93 -1.51053 2.58502 0
M  V30 4664 H 442.476 -0.725262 1.24402 0
M  V30 4665 H 444.429 -3.81446 1.79099 0
M  V30 4666 H 443.153 -3.18587 0.719026 0
M  V30 4667 H 441.812 -2.45517 2.72244 0
M  V30 4668 H 441.46 -4.72336 1.72937 0
M  V30 4669 H 441.16 -4.73069 3.48538 0
M  V30 4670 H 442.684 -5.40475 2.84112 0
M  V30 4671 H 444.098 -3.71877 4.36326 0
M  V30 4672 H 442.495 -3.28278 5.02348 0
M  V30 4673 H 443.565 -2.00739 4.41397 0
M  V30 4674 N 444.908 -1.36708 -0.784132 0
M  V30 4675 C 445.871 -1.31307 -1.87859 0
M  V30 4676 C 446.871 -0.219654 -1.59293 0
M  V30 4677 O 448.061 -0.47476 -1.67606 0
M  V30 4678 C 445.193 -1.03679 -3.24751 0
M  V30 4679 H 446.386 -2.28647 -1.94064 0
M  V30 4680 H 443.939 -1.21558 -0.98252 0
M  V30 4681 H 444.674 -0.0681936 -3.24228 0
M  V30 4682 H 444.459 -1.82811 -3.46876 0
M  V30 4683 H 445.949 -1.02518 -4.04821 0
M  V30 4684 N 446.386 1.0089 -1.21074 0
M  V30 4685 C 447.632 1.74866 -1.02712 0
M  V30 4686 C 447.965 1.89178 0.438787 0
M  V30 4687 O 447.24 1.42325 1.32567 0
M  V30 4688 C 447.523 3.16347 -1.72036 0
M  V30 4689 C 447.376 3.09782 -3.26121 0
M  V30 4690 C 448.695 4.15187 -1.45973 0
M  V30 4691 H 445.814 0.634736 -0.374539 0
M  V30 4692 H 448.456 1.17646 -1.49196 0
M  V30 4693 H 446.606 3.65201 -1.32517 0
M  V30 4694 H 448.278 2.68673 -3.74983 0
M  V30 4695 H 446.521 2.46982 -3.56626 0
M  V30 4696 H 447.192 4.09829 -3.6979 0
M  V30 4697 H 449.668 3.75022 -1.80272 0
M  V30 4698 H 448.544 5.12331 -1.96999 0
M  V30 4699 H 448.805 4.40386 -0.388924 0
M  V30 4700 N 447.864 1.01787 1.20321 0
M  V30 4701 C 448.827 0.593972 2.2137 0
M  V30 4702 C 449.827 -0.336553 1.57239 0
M  V30 4703 O 451.017 -0.125069 1.7375 0
M  V30 4704 C 448.149 -0.132433 3.40643 0
M  V30 4705 H 449.342 1.48791 2.60387 0
M  V30 4706 H 446.895 0.807803 1.33807 0
M  V30 4707 H 447.63 -1.04123 3.0713 0
M  V30 4708 H 447.415 0.53605 3.88418 0
M  V30 4709 H 448.905 -0.416314 4.1552 0
M  V30 4710 N 449.342 -1.36122 0.79427 0
M  V30 4711 C 450.305 -2.28309 0.201889 0
M  V30 4712 C 451.305 -1.49041 -0.603603 0
M  V30 4713 O 452.495 -1.68964 -0.423888 0
M  V30 4714 C 449.627 -3.3321 -0.719978 0
M  V30 4715 H 450.82 -2.82208 1.01481 0
M  V30 4716 H 448.373 -1.45768 0.564037 0
M  V30 4717 H 449.108 -2.84475 -1.55706 0
M  V30 4718 H 448.893 -3.91835 -0.144266 0
M  V30 4719 H 450.383 -4.02044 -1.12916 0
M  V30 4720 N 450.82 -0.546701 -1.47814 0
M  V30 4721 C 452.069 -0.0166497 -2.01693 0
M  V30 4722 C 452.382 1.33721 -1.42752 0
M  V30 4723 O 453.588 1.95658 -1.8823 0
M  V30 4724 C 452.044 0.0206769 -3.59894 0
M  V30 4725 C 451.652 -1.3293 -4.27824 0
M  V30 4726 C 453.396 0.498674 -4.21561 0
M  V30 4727 C 451.303 -1.25165 -5.78003 0
M  V30 4728 H 450.233 -0.0024541 -0.753996 0
M  V30 4729 H 452.884 -0.692984 -1.69912 0
M  V30 4730 H 451.266 0.76244 -3.88591 0
M  V30 4731 H 452.44 -2.08795 -4.10781 0
M  V30 4732 H 450.755 -1.74438 -3.78101 0
M  V30 4733 H 453.352 0.575 -5.31599 0
M  V30 4734 H 453.695 1.5083 -3.88016 0
M  V30 4735 H 454.228 -0.18791 -3.97356 0
M  V30 4736 H 450.967 -2.23695 -6.1615 0
M  V30 4737 H 450.487 -0.53464 -5.97412 0
M  V30 4738 H 452.166 -0.949299 -6.39998 0
M  V30 4739 N 452.299 1.55045 -0.282633 0
M  V30 4740 C 453.71 1.85473 0.213655 0
M  V30 4741 C 454.061 1.20465 1.54863 0
M  V30 4742 O 453.186 0.495676 2.10647 0
M  V30 4743 C 453.781 3.36496 0.394445 0
M  V30 4744 C 452.34 3.67022 0.834961 0
M  V30 4745 C 451.487 2.77218 -0.0674081 0
M  V30 4746 H 454.438 1.50478 -0.504202 0
M  V30 4747 H 454.459 3.60007 1.23186 0
M  V30 4748 H 453.971 3.83782 -0.577326 0
M  V30 4749 H 452.072 3.25241 1.81794 0
M  V30 4750 H 452.185 4.74433 0.667075 0
M  V30 4751 H 450.549 2.5069 0.450196 0
M  V30 4752 H 451.332 3.2732 -1.0352 0
M  V30 4753 N 453.777 0.010035 1.57597 0
M  V30 4754 C 454.687 -0.994226 2.12491 0
M  V30 4755 C 455.703 -1.37013 1.07254 0
M  V30 4756 O 456.879 -1.45542 1.3921 0
M  V30 4757 C 453.944 -2.2642 2.62555 0
M  V30 4758 C 453.005 -1.95049 3.82432 0
M  V30 4759 C 452.238 -3.15991 4.30099 0
M  V30 4760 O 452.461 -4.28015 3.7704 0
M  V30 4761 O 451.395 -2.99403 5.22151 0
M  V30 4762 H 455.221 -0.557549 2.98538 0
M  V30 4763 H 452.806 -0.209413 1.47925 0
M  V30 4764 H 454.688 -3.01009 2.9491 0
M  V30 4765 H 453.363 -2.69306 1.796 0
M  V30 4766 H 452.27 -1.17904 3.55034 0
M  V30 4767 H 453.603 -1.56992 4.66491 0
M  V30 4768 N 455.255 -1.55392 -0.262866 0
M  V30 4769 C 456.503 -1.76127 -0.991147 0
M  V30 4770 C 456.824 -0.571083 -1.8645 0
M  V30 4771 O 456.094 0.413698 -1.91482 0
M  V30 4772 H 454.674 -0.649528 -0.368948 0
M  V30 4773 H 457.336 -1.9281 -0.284655 0
M  V30 4774 H 456.432 -2.6663 -1.62219 0
M  V30 4775 N 456.733 0.527833 -1.48498 0
M  V30 4776 C 457.663 1.64136 -1.66077 0
M  V30 4777 C 458.644 1.62286 -0.509625 0
M  V30 4778 O 459.829 1.79449 -0.742413 0
M  V30 4779 C 456.959 3.02717 -1.70234 0
M  V30 4780 C 455.913 3.19426 -2.8487 0
M  V30 4781 C 455.239 4.5909 -2.74118 0
M  V30 4782 C 456.539 3.01993 -4.26142 0
M  V30 4783 H 458.233 1.4968 -2.593 0
M  V30 4784 H 455.779 0.718654 -1.24785 0
M  V30 4785 H 457.732 3.80491 -1.8112 0
M  V30 4786 H 456.456 3.18201 -0.735911 0
M  V30 4787 H 455.115 2.4407 -2.73542 0
M  V30 4788 H 454.763 4.71413 -1.7544 0
M  V30 4789 H 454.463 4.71214 -3.51042 0
M  V30 4790 H 455.987 5.3896 -2.86974 0
M  V30 4791 H 457.401 3.69558 -4.38292 0
M  V30 4792 H 455.798 3.2561 -5.04082 0
M  V30 4793 H 456.868 1.98396 -4.42456 0
M  V30 4794 N 458.211 1.37122 0.776871 0
M  V30 4795 C 459.622 1.28667 1.35284 0
M  V30 4796 C 459.973 -0.0680035 1.96082 0
M  V30 4797 O 459.098 -0.969743 1.93455 0
M  V30 4798 C 459.693 2.32997 2.45963 0
M  V30 4799 C 458.252 2.28191 2.99342 0
M  V30 4800 C 457.399 2.17101 1.72517 0
M  V30 4801 H 460.35 1.47819 0.577527 0
M  V30 4802 H 460.371 1.97366 3.2531 0
M  V30 4803 H 459.883 3.3158 2.01684 0
M  V30 4804 H 457.984 1.33115 3.4801 0
M  V30 4805 H 458.097 3.21397 3.55304 0
M  V30 4806 H 456.461 1.63562 1.95242 0
M  V30 4807 H 457.244 3.17591 1.30348 0
M  V30 4808 N 459.689 -1.00246 1.21608 0
M  V30 4809 C 460.938 -1.73476 1.02902 0
M  V30 4810 C 461.251 -1.90643 -0.437561 0
M  V30 4811 O 462.457 -2.61105 -0.74407 0
M  V30 4812 C 460.913 -3.12079 1.79261 0
M  V30 4813 C 460.521 -3.02877 3.30106 0
M  V30 4814 C 462.265 -3.89421 1.68972 0
M  V30 4815 C 460.172 -4.36575 3.98944 0
M  V30 4816 H 459.102 -0.650408 0.381425 0
M  V30 4817 H 461.753 -1.11985 1.45367 0
M  V30 4818 H 460.135 -3.74196 1.2959 0
M  V30 4819 H 461.309 -2.49983 3.87098 0
M  V30 4820 H 459.624 -2.39022 3.40965 0
M  V30 4821 H 462.221 -4.88362 2.17731 0
M  V30 4822 H 462.564 -4.1122 0.648397 0
M  V30 4823 H 463.097 -3.33963 2.16133 0
M  V30 4824 H 459.836 -4.19978 5.03288 0
M  V30 4825 H 459.356 -4.8942 3.4674 0
M  V30 4826 H 461.035 -5.05364 4.04 0
M  V30 4827 N 461.167 -1.02423 -1.1978 0
M  V30 4828 C 462.413 -0.719051 -1.89625 0
M  V30 4829 C 462.746 0.750083 -1.7913 0
M  V30 4830 O 462.021 1.54574 -1.18056 0
M  V30 4831 C 462.304 -1.16499 -3.40735 0
M  V30 4832 C 462.157 -2.695 -3.60125 0
M  V30 4833 C 463.476 -0.742166 -4.33797 0
M  V30 4834 H 460.595 -0.26269 -0.688595 0
M  V30 4835 H 463.237 -1.27333 -1.41018 0
M  V30 4836 H 461.387 -0.69341 -3.82262 0
M  V30 4837 H 463.059 -3.24569 -3.278 0
M  V30 4838 H 461.302 -3.10113 -3.03336 0
M  V30 4839 H 461.973 -2.95757 -4.66081 0
M  V30 4840 H 464.449 -1.1477 -3.99959 0
M  V30 4841 H 463.325 -1.08213 -5.38127 0
M  V30 4842 H 463.586 0.355747 -4.40666 0
M  V30 4843 N 462.645 1.35699 -0.801477 0
M  V30 4844 C 463.891 1.99208 -0.380022 0
M  V30 4845 C 464.224 1.63445 1.04878 0
M  V30 4846 O 463.499 0.895223 1.72673 0
M  V30 4847 C 463.782 3.55755 -0.557708 0
M  V30 4848 C 463.635 4.01332 -2.03107 0
M  V30 4849 C 464.954 4.40096 0.0197968 0
M  V30 4850 H 462.073 0.723667 -0.139552 0
M  V30 4851 H 464.715 1.60928 -1.01006 0
M  V30 4852 H 462.865 3.88494 -0.0213741 0
M  V30 4853 H 464.537 3.79026 -2.62939 0
M  V30 4854 H 462.78 3.52429 -2.52936 0
M  V30 4855 H 463.451 5.10234 -2.1063 0
M  V30 4856 H 465.927 4.13786 -0.438179 0
M  V30 4857 H 464.803 5.48735 -0.134477 0
M  V30 4858 H 465.064 4.2786 1.11303 0
M  V30 4859 N 464.123 0.554532 1.47522 0
M  V30 4860 C 465.351 0.034257 2.06872 0
M  V30 4861 C 465.766 -1.25826 1.40759 0
M  V30 4862 O 465.123 -1.75425 0.503217 0
M  V30 4863 C 465.174 -0.167827 3.6111 0
M  V30 4864 O 464.895 1.07351 4.24744 0
M  V30 4865 C 466.396 -0.72569 4.3732 0
M  V30 4866 H 463.616 0.0446275 0.669514 0
M  V30 4867 H 466.16 0.767181 1.89564 0
M  V30 4868 H 464.315 -0.850872 3.7794 0
M  V30 4869 H 464.729 0.869563 5.17242 0
M  V30 4870 H 466.203 -0.816394 5.45929 0
M  V30 4871 H 466.68 -1.73635 4.0342 0
M  V30 4872 H 467.286 -0.0784292 4.25228 0
M  V30 4873 N 465.601 -1.54893 0.290851 0
M  V30 4874 C 466.847 -2.0023 -0.321867 0
M  V30 4875 C 467.18 -1.179 -1.54316 0
M  V30 4876 O 466.455 -0.25293 -1.92848 0
M  V30 4877 C 466.738 -3.53456 -0.688515 0
M  V30 4878 C 466.591 -4.46532 0.541209 0
M  V30 4879 C 467.91 -4.13057 -1.51895 0
M  V30 4880 H 465.029 -0.727891 -0.115515 0
M  V30 4881 H 467.671 -1.85722 0.400931 0
M  V30 4882 H 465.821 -3.6595 -1.30433 0
M  V30 4883 H 467.493 -4.4596 1.17973 0
M  V30 4884 H 465.736 -4.17545 1.17636 0
M  V30 4885 H 466.407 -5.51475 0.240675 0
M  V30 4886 H 468.883 -4.03937 -0.99872 0
M  V30 4887 H 467.759 -5.20448 -1.74429 0
M  V30 4888 H 468.02 -3.64284 -2.50498 0
M  V30 4889 N 467.08 -0.0183926 -1.57589 0
M  V30 4890 C 468.308 0.673046 -1.95647 0
M  V30 4891 C 468.723 1.66275 -0.894312 0
M  V30 4892 O 468.08 1.82072 0.124975 0
M  V30 4893 C 468.131 1.38884 -3.33756 0
M  V30 4894 O 467.852 0.438806 -4.35897 0
M  V30 4895 C 469.353 2.1731 -3.86383 0
M  V30 4896 H 466.573 0.186292 -0.644621 0
M  V30 4897 H 469.117 -0.0749748 -2.04363 0
M  V30 4898 H 467.272 2.08835 -3.26293 0
M  V30 4899 H 467.686 0.945869 -5.15901 0
M  V30 4900 H 469.16 2.62863 -4.85394 0
M  V30 4901 H 469.637 3.00764 -3.20059 0
M  V30 4902 H 470.243 1.52339 -3.97081 0
M  V30 4903 N 468.558 1.5553 0.254621 0
M  V30 4904 C 469.488 1.9268 1.31897 0
M  V30 4905 C 470.469 0.790797 1.506 0
M  V30 4906 O 471.654 1.05045 1.63337 0
M  V30 4907 C 468.784 2.21477 2.67517 0
M  V30 4908 C 467.738 3.37256 2.63519 0
M  V30 4909 C 467.064 3.51576 4.02862 0
M  V30 4910 C 468.364 4.73157 2.21179 0
M  V30 4911 H 470.058 2.81832 1.01051 0
M  V30 4912 H 467.604 1.35599 0.484662 0
M  V30 4913 H 469.557 2.46055 3.42104 0
M  V30 4914 H 468.281 1.29144 2.99982 0
M  V30 4915 H 466.94 3.12675 1.9139 0
M  V30 4916 H 466.588 2.56676 4.32581 0
M  V30 4917 H 466.288 4.2943 4.01078 0
M  V30 4918 H 467.812 3.78467 4.79161 0
M  V30 4919 H 469.226 4.97158 2.85494 0
M  V30 4920 H 467.623 5.54058 2.30521 0
M  V30 4921 H 468.693 4.70739 1.16332 0
M  V30 4922 N 470.036 -0.519951 1.48776 0
M  V30 4923 C 470.999 -1.60574 1.6355 0
M  V30 4924 C 471.999 -1.52557 0.508234 0
M  V30 4925 O 473.189 -1.56047 0.774262 0
M  V30 4926 C 470.321 -3.00211 1.61512 0
M  V30 4927 H 471.514 -1.4881 2.60376 0
M  V30 4928 H 469.067 -0.742772 1.37523 0
M  V30 4929 H 469.802 -3.17471 0.662009 0
M  V30 4930 H 469.587 -3.07439 2.43359 0
M  V30 4931 H 471.077 -3.79134 1.75064 0
M  V30 4932 N 471.514 -1.37532 -0.769588 0
M  V30 4933 C 472.444 -1.36172 -1.89682 0
M  V30 4934 C 473.425 -0.23001 -1.68538 0
M  V30 4935 O 474.61 -0.43069 -1.89364 0
M  V30 4936 C 471.74 -1.1701 -3.26995 0
M  V30 4937 C 470.694 -2.27216 -3.62708 0
M  V30 4938 C 470.02 -1.93174 -4.98586 0
M  V30 4939 C 471.32 -3.6941 -3.69234 0
M  V30 4940 H 473.014 -2.30499 -1.91078 0
M  V30 4941 H 470.56 -1.10953 -0.917902 0
M  V30 4942 H 472.513 -1.14688 -4.05493 0
M  V30 4943 H 471.237 -0.191395 -3.26039 0
M  V30 4944 H 469.896 -2.28697 -2.86519 0
M  V30 4945 H 469.544 -0.938281 -4.94171 0
M  V30 4946 H 469.244 -2.66973 -5.23449 0
M  V30 4947 H 470.768 -1.92443 -5.79481 0
M  V30 4948 H 472.182 -3.70047 -4.37879 0
M  V30 4949 H 470.579 -4.4228 -4.05597 0
M  V30 4950 H 471.649 -4.0288 -2.69844 0
M  V30 4951 N 472.992 0.995999 -1.22138 0
M  V30 4952 C 474.24 1.73167 -1.042 0
M  V30 4953 C 474.561 1.90329 0.42423 0
M  V30 4954 O 473.831 1.4607 1.30539 0
M  V30 4955 H 472.411 0.641593 -0.38258 0
M  V30 4956 H 475.073 1.19974 -1.53598 0
M  V30 4957 H 474.169 2.72734 -1.51731 0
M  V30 4958 N 474.47 1.03057 1.19235 0
M  V30 4959 C 475.716 0.729098 1.89241 0
M  V30 4960 C 476.049 -0.740573 1.79525 0
M  V30 4961 O 475.324 -1.53946 1.18874 0
M  V30 4962 C 475.607 1.18304 3.40112 0
M  V30 4963 C 475.46 2.71406 3.5869 0
M  V30 4964 C 476.779 0.765161 4.33397 0
M  V30 4965 H 473.898 0.266338 0.687192 0
M  V30 4966 H 476.54 1.28079 1.40341 0
M  V30 4967 H 474.69 0.713672 3.81889 0
M  V30 4968 H 476.362 3.26303 3.26074 0
M  V30 4969 H 474.605 3.11717 3.01687 0
M  V30 4970 H 475.276 2.98225 4.64506 0
M  V30 4971 H 477.752 1.16889 3.99345 0
M  V30 4972 H 476.628 1.11065 5.37546 0
M  V30 4973 H 476.889 -0.332372 4.40849 0
M  V30 4974 N 475.948 -1.35272 0.808662 0
M  V30 4975 C 476.881 -2.27595 0.165994 0
M  V30 4976 C 477.859 -1.48189 -0.669241 0
M  V30 4977 O 479.043 -1.77444 -0.636073 0
M  V30 4978 C 476.17 -3.29843 -0.769505 0
M  V30 4979 C 475.216 -4.26498 -0.0136267 0
M  V30 4980 S 476.049 -5.18878 1.32384 0
M  V30 4981 C 477.205 -6.24666 0.392838 0
M  V30 4982 H 477.438 -2.81755 0.948756 0
M  V30 4983 H 474.971 -1.42103 0.603828 0
M  V30 4984 H 476.929 -3.89247 -1.30374 0
M  V30 4985 H 475.59 -2.74558 -1.52567 0
M  V30 4986 H 474.783 -4.98769 -0.724227 0
M  V30 4987 H 474.385 -3.71274 0.450713 0
M  V30 4988 H 476.677 -6.7619 -0.4211 0
M  V30 4989 H 477.62 -6.99741 1.0848 0
M  V30 4990 H 478.028 -5.64499 -0.0123908 0
M  V30 4991 N 477.426 -0.562348 -1.47226 0
M  V30 4992 C 478.842 -0.222492 -1.58042 0
M  V30 4993 C 479.042 1.27505 -1.56028 0
M  V30 4994 O 478.098 2.05555 -1.46641 0
M  V30 4995 C 479.411 -0.853694 -2.88327 0
M  V30 4996 C 480.959 -0.825397 -3.01921 0
M  V30 4997 C 481.434 -1.43576 -4.34914 0
M  V30 4998 N 482.925 -1.39918 -4.41562 0
M  V30 4999 C 483.66 -1.84103 -5.43041 0
M  V30 5000 N 483.156 -2.36167 -6.51304 0
M  V30 5001 N 484.949 -1.75142 -5.34118 0
M  V30 5002 H 477.1 -1.53525 -1.46778 0
M  V30 5003 H 479.363 -0.640527 -0.698877 0
M  V30 5004 H 479.069 -1.90635 -2.95552 0
M  V30 5005 H 478.943 -0.34977 -3.75575 0
M  V30 5006 H 481.33 0.218583 -2.94289 0
M  V30 5007 H 481.411 -1.36713 -2.16202 0
M  V30 5008 H 481.055 -2.47884 -4.43301 0
M  V30 5009 H 480.985 -0.869427 -5.19373 0
M  V30 5010 H 483.476 -1.0184 -3.63919 0
M  V30 5011 H 483.789 -2.67793 -7.24919 0
M  V30 5012 H 482.134 -2.40181 -6.52179 0
M  V30 5013 H 485.325 -1.34241 -4.48439 0
M  V30 5014 H 485.498 -2.09895 -6.13065 0
M  V30 5015 N 478.904 1.54736 -0.299062 0
M  V30 5016 C 479.837 2.1962 0.619851 0
M  V30 5017 C 480.815 1.16496 1.13434 0
M  V30 5018 O 481.999 1.4513 1.2029 0
M  V30 5019 C 479.126 2.8385 1.84788 0
M  V30 5020 C 478.172 4.00484 1.46679 0
M  V30 5021 S 479.005 5.32926 0.524389 0
M  V30 5022 C 480.161 6.00638 1.76026 0
M  V30 5023 H 480.394 2.97221 0.0686177 0
M  V30 5024 H 477.927 1.54176 -0.0832085 0
M  V30 5025 H 479.885 3.21483 2.55263 0
M  V30 5026 H 478.546 2.06099 2.37028 0
M  V30 5027 H 477.739 4.44201 2.38121 0
M  V30 5028 H 477.341 3.64398 0.842008 0
M  V30 5029 H 479.633 6.21327 2.70109 0
M  V30 5030 H 480.576 6.94805 1.36569 0
M  V30 5031 H 480.984 5.3026 1.93609 0
M  V30 5032 N 480.382 0.0267497 1.57577 0
M  V30 5033 C 481.628 -0.653371 1.91987 0
M  V30 5034 C 481.961 -1.71915 0.903263 0
M  V30 5035 O 481.236 -1.94358 -0.0743387 0
M  V30 5036 C 481.519 -1.272 3.36886 0
M  V30 5037 C 481.372 -0.215938 4.49281 0
M  V30 5038 C 482.691 -2.19069 3.81703 0
M  V30 5039 H 479.81 -0.236047 0.698177 0
M  V30 5040 H 482.452 0.0835236 1.89816 0
M  V30 5041 H 480.602 -1.90005 3.38866 0
M  V30 5042 H 482.274 0.41449 4.59434 0
M  V30 5043 H 480.517 0.458855 4.31366 0
M  V30 5044 H 481.188 -0.688347 5.47691 0
M  V30 5045 H 483.664 -1.66253 3.81444 0
M  V30 5046 H 482.54 -2.59307 4.83788 0
M  V30 5047 H 482.801 -3.08087 3.17072 0
M  V30 5048 N 481.861 -1.55662 -0.24637 0
M  V30 5049 C 482.808 -1.90361 -1.30504 0
M  V30 5050 C 483.778 -0.757905 -1.47801 0
M  V30 5051 O 484.963 -1.01161 -1.61775 0
M  V30 5052 C 482.103 -2.2042 -2.65535 0
M  V30 5053 C 481.216 -3.47799 -2.56242 0
M  V30 5054 C 480.351 -3.67426 -3.8363 0
M  V30 5055 C 479.39 -4.88403 -3.68956 0
M  V30 5056 N 478.527 -5.04548 -4.88237 0
M  V30 5057 H 483.367 -2.80645 -1.00213 0
M  V30 5058 H 480.904 -1.38924 -0.483577 0
M  V30 5059 H 482.862 -2.35853 -3.44135 0
M  V30 5060 H 481.492 -1.3334 -2.93973 0
M  V30 5061 H 480.544 -3.40694 -1.69208 0
M  V30 5062 H 481.856 -4.36544 -2.4131 0
M  V30 5063 H 481.01 -3.82821 -4.70673 0
M  V30 5064 H 479.749 -2.76914 -4.01459 0
M  V30 5065 H 478.754 -4.72984 -2.80296 0
M  V30 5066 H 479.979 -5.80375 -3.52621 0
M  V30 5067 H 477.925 -4.16974 -5.06427 0
M  V30 5068 H 477.842 -5.87384 -4.75937 0
M  V30 5069 H 479.11 -5.24355 -5.76777 0
M  V30 5070 N 483.339 0.512053 -1.4905 0
M  V30 5071 C 484.286 1.6148 -1.64902 0
M  V30 5072 C 485.256 1.58687 -0.490673 0
M  V30 5073 O 486.441 1.76842 -0.71636 0
M  V30 5074 C 483.581 2.99676 -1.71139 0
M  V30 5075 C 482.694 3.12568 -2.98203 0
M  V30 5076 C 481.829 4.4143 -2.95487 0
M  V30 5077 C 480.868 4.47916 -4.17179 0
M  V30 5078 N 480.005 5.68191 -4.12437 0
M  V30 5079 H 484.845 1.47271 -2.59066 0
M  V30 5080 H 482.382 0.716713 -1.28459 0
M  V30 5081 H 484.34 3.79761 -1.72736 0
M  V30 5082 H 482.97 3.12614 -0.804508 0
M  V30 5083 H 482.022 2.25618 -3.06269 0
M  V30 5084 H 483.334 3.1322 -3.88194 0
M  V30 5085 H 482.488 5.29825 -2.95585 0
M  V30 5086 H 481.227 4.43326 -2.03256 0
M  V30 5087 H 480.232 3.57925 -4.17337 0
M  V30 5088 H 481.457 4.47744 -5.1059 0
M  V30 5089 H 479.403 5.7095 -3.23036 0
M  V30 5090 H 479.32 5.70413 -4.96151 0
M  V30 5091 H 480.588 6.58823 -4.16621 0
M  V30 5092 N 484.817 1.37938 0.762283 0
M  V30 5093 C 486.233 1.18945 1.06415 0
M  V30 5094 C 486.433 0.0321163 2.01474 0
M  V30 5095 O 485.489 -0.624844 2.44647 0
M  V30 5096 C 486.802 2.51218 1.65258 0
M  V30 5097 C 488.35 2.57824 1.7747 0
M  V30 5098 C 488.825 3.90251 2.39725 0
M  V30 5099 N 490.316 3.91744 2.47166 0
M  V30 5100 C 491.051 4.90966 2.96209 0
M  V30 5101 N 490.547 6.00585 3.45354 0
M  V30 5102 N 492.34 4.78363 2.9517 0
M  V30 5103 H 484.491 2.11994 0.131301 0
M  V30 5104 H 486.754 0.940262 0.120879 0
M  V30 5105 H 486.46 3.36317 1.02878 0
M  V30 5106 H 486.334 2.68989 2.64433 0
M  V30 5107 H 488.721 1.73126 2.3898 0
M  V30 5108 H 488.802 2.43928 0.770241 0
M  V30 5109 H 488.446 4.75368 1.78852 0
M  V30 5110 H 488.376 4.01454 3.40796 0
M  V30 5111 H 490.867 3.12563 2.12397 0
M  V30 5112 H 491.18 6.72236 3.81207 0
M  V30 5113 H 489.525 6.04217 3.43434 0
M  V30 5114 H 492.716 3.91841 2.56082 0
M  V30 5115 H 492.889 5.55843 3.33081 0
M  V30 5116 N 486.295 -0.989507 1.22664 0
M  V30 5117 C 487.258 -2.06183 1.00106 0
M  V30 5118 C 488.258 -1.60765 -0.0337726 0
M  V30 5119 O 489.448 -1.72989 0.205072 0
M  V30 5120 C 486.58 -3.37021 0.51279 0
M  V30 5121 H 487.773 -2.27629 1.95256 0
M  V30 5122 H 485.326 -1.16158 1.0458 0
M  V30 5123 H 486.061 -3.21261 -0.442917 0
M  V30 5124 H 485.846 -3.71323 1.25942 0
M  V30 5125 H 487.336 -4.1591 0.375315 0
M  V30 5126 N 487.773 -1.03688 -1.18687 0
M  V30 5127 C 489.022 -0.733235 -1.879 0
M  V30 5128 C 489.335 0.741745 -1.8099 0
M  V30 5129 O 490.541 1.15875 -2.4553 0
M  V30 5130 C 488.997 -1.26127 -3.37076 0
M  V30 5131 C 488.605 -2.76461 -3.52524 0
M  V30 5132 C 490.349 -1.03398 -4.11715 0
M  V30 5133 C 488.256 -3.22642 -4.95637 0
M  V30 5134 H 487.186 -0.270584 -0.703776 0
M  V30 5135 H 489.837 -1.25222 -1.34133 0
M  V30 5136 H 488.219 -0.670165 -3.90288 0
M  V30 5137 H 489.393 -3.41296 -3.09602 0
M  V30 5138 H 487.708 -2.97559 -2.91286 0
M  V30 5139 H 490.305 -1.3542 -5.17267 0
M  V30 5140 H 490.648 0.0289246 -4.1629 0
M  V30 5141 H 491.181 -1.5895 -3.64664 0
M  V30 5142 H 487.92 -4.28296 -4.96228 0
M  V30 5143 H 487.44 -2.62539 -5.39289 0
M  V30 5144 H 489.119 -3.16444 -5.64333 0
M  V30 5145 N 489.251 1.34841 -0.815825 0
M  V30 5146 C 490.497 1.98793 -0.401129 0
M  V30 5147 C 490.83 1.64548 1.03139 0
M  V30 5148 O 490.105 0.913487 1.71714 0
M  V30 5149 C 490.388 3.55143 -0.595409 0
M  V30 5150 C 490.241 3.99155 -2.07352 0
M  V30 5151 C 491.56 4.40092 -0.0268823 0
M  V30 5152 H 488.679 0.722146 -0.14722 0
M  V30 5153 H 491.321 1.59847 -1.02707 0
M  V30 5154 H 489.471 3.8845 -0.0625779 0
M  V30 5155 H 491.143 3.76216 -2.66945 0
M  V30 5156 H 489.386 3.49726 -2.56659 0
M  V30 5157 H 490.057 5.07971 -2.1603 0
M  V30 5158 H 492.533 4.13298 -0.482042 0
M  V30 5159 H 491.409 5.48562 -0.19267 0
M  V30 5160 H 491.67 4.29016 1.06759 0
M  V30 5161 N 490.729 0.570148 1.46925 0
M  V30 5162 C 491.676 -0.170257 2.30171 0
M  V30 5163 C 492.646 -0.896099 1.39855 0
M  V30 5164 O 493.831 -0.889248 1.68811 0
M  V30 5165 C 490.971 -1.18605 3.24079 0
M  V30 5166 C 490.084 -0.464947 4.29491 0
M  V30 5167 C 489.219 -1.46716 5.10537 0
M  V30 5168 C 488.258 -0.731758 6.0771 0
M  V30 5169 N 487.395 -1.68142 6.81669 0
M  V30 5170 H 492.235 0.545713 2.92961 0
M  V30 5171 H 489.772 0.280938 1.44392 0
M  V30 5172 H 491.73 -1.78771 3.76957 0
M  V30 5173 H 490.36 -1.86989 2.63125 0
M  V30 5174 H 489.412 0.251506 3.79568 0
M  V30 5175 H 490.724 0.110548 4.98677 0
M  V30 5176 H 489.878 -2.14199 5.6763 0
M  V30 5177 H 488.617 -2.07658 4.41282 0
M  V30 5178 H 487.622 -0.0430787 5.49783 0
M  V30 5179 H 488.847 -0.127904 6.7898 0
M  V30 5180 H 486.793 -2.27918 6.15134 0
M  V30 5181 H 486.71 -1.15841 7.47072 0
M  V30 5182 H 487.978 -2.347 7.43328 0
M  V30 5183 N 492.207 -1.54576 0.307264 0
M  V30 5184 C 493.154 -2.23751 -0.56604 0
M  V30 5185 C 494.124 -1.22235 -1.12462 0
M  V30 5186 O 495.309 -1.50873 -1.16799 0
M  V30 5187 C 492.449 -2.98661 -1.72903 0
M  V30 5188 C 491.562 -4.14963 -1.20124 0
M  V30 5189 C 490.697 -4.77441 -2.3286 0
M  V30 5190 C 489.736 -5.85875 -1.77247 0
M  V30 5191 N 488.873 -6.42282 -2.8358 0
M  V30 5192 H 493.713 -2.97984 0.0304578 0
M  V30 5193 H 491.25 -1.47076 0.0268015 0
M  V30 5194 H 493.208 -3.40329 -2.41313 0
M  V30 5195 H 491.838 -2.26793 -2.29706 0
M  V30 5196 H 490.89 -3.78193 -0.409198 0
M  V30 5197 H 492.202 -4.93066 -0.754171 0
M  V30 5198 H 491.356 -5.21993 -3.09205 0
M  V30 5199 H 490.095 -3.98684 -2.80896 0
M  V30 5200 H 489.1 -5.40741 -0.993926 0
M  V30 5201 H 490.325 -6.6652 -1.30107 0
M  V30 5202 H 488.271 -5.66406 -3.30939 0
M  V30 5203 H 488.188 -7.1575 -2.43388 0
M  V30 5204 H 489.456 -6.91492 -3.59804 0
M  V30 5205 N 493.685 -0.035106 -1.57561 0
M  V30 5206 C 494.615 0.942993 -2.13612 0
M  V30 5207 C 495.596 1.33531 -1.05373 0
M  V30 5208 O 496.781 1.41287 -1.33235 0
M  V30 5209 C 493.911 2.22332 -2.66807 0
M  V30 5210 C 492.865 1.97156 -3.79886 0
M  V30 5211 C 492.191 3.31506 -4.19533 0
M  V30 5212 C 493.491 1.30596 -5.05709 0
M  V30 5213 H 495.185 0.476179 -2.95589 0
M  V30 5214 H 492.731 0.227602 -1.4219 0
M  V30 5215 H 494.684 2.91142 -3.04654 0
M  V30 5216 H 493.408 2.7119 -1.81999 0
M  V30 5217 H 492.067 1.30763 -3.42486 0
M  V30 5218 H 491.715 3.78134 -3.31698 0
M  V30 5219 H 491.415 3.15465 -4.95738 0
M  V30 5220 H 492.939 4.01574 -4.59968 0
M  V30 5221 H 494.353 1.89416 -5.41105 0
M  V30 5222 H 492.75 1.24934 -5.86951 0
M  V30 5223 H 493.82 0.279742 -4.84092 0
M  V30 5224 N 495.163 1.55791 0.238111 0
M  V30 5225 C 496.574 1.68383 0.806472 0
M  V30 5226 C 496.925 0.634157 1.85669 0
M  V30 5227 O 496.05 -0.217913 2.153 0
M  V30 5228 C 496.645 3.05268 1.46959 0
M  V30 5229 C 495.204 3.1977 1.98555 0
M  V30 5230 C 494.351 2.64279 0.839763 0
M  V30 5231 H 497.302 1.58694 0.0137535 0
M  V30 5232 H 497.323 3.00203 2.33792 0
M  V30 5233 H 496.835 3.81643 0.704993 0
M  V30 5234 H 494.936 2.48234 2.77868 0
M  V30 5235 H 495.049 4.26788 2.17689 0
M  V30 5236 H 493.413 2.22329 1.24265 0
M  V30 5237 H 494.196 3.43187 0.0881032 0
M  V30 5238 N 496.642 -0.504142 1.49319 0
M  V30 5239 C 497.891 -1.25507 1.57895 0
M  V30 5240 C 498.204 -1.93735 0.269433 0
M  V30 5241 O 499.41 -2.70492 0.233706 0
M  V30 5242 C 497.866 -2.27869 2.78574 0
M  V30 5243 C 497.474 -1.65594 4.16272 0
M  V30 5244 C 499.218 -3.0381 2.96479 0
M  V30 5245 C 497.125 -2.66048 5.28178 0
M  V30 5246 H 496.055 -0.47212 0.587894 0
M  V30 5247 H 498.706 -0.52931 1.757 0
M  V30 5248 H 497.088 -3.03594 2.54257 0
M  V30 5249 H 498.262 -0.958826 4.50714 0
M  V30 5250 H 496.577 -1.02055 4.037 0
M  V30 5251 H 499.174 -3.78925 3.77253 0
M  V30 5252 H 499.517 -3.61235 2.06918 0
M  V30 5253 H 500.05 -2.352 3.20821 0
M  V30 5254 H 496.789 -2.13408 6.19788 0
M  V30 5255 H 496.309 -3.34009 4.98195 0
M  V30 5256 H 497.988 -3.28536 5.57381 0
M  V30 5257 N 498.12 -1.38341 -0.754957 0
M  V30 5258 C 499.366 -1.34672 -1.51628 0
M  V30 5259 C 499.699 0.0636036 -1.94096 0
M  V30 5260 O 498.974 1.0245 -1.6533 0
M  V30 5261 C 499.257 -2.30116 -2.76981 0
M  V30 5262 C 499.11 -3.80003 -2.4066 0
M  V30 5263 C 500.429 -2.23715 -3.78998 0
M  V30 5264 H 497.548 -0.490517 -0.550056 0
M  V30 5265 H 500.19 -1.69178 -0.864807 0
M  V30 5266 H 498.34 -2.00821 -3.3257 0
M  V30 5267 H 500.012 -4.19966 -1.90856 0
M  V30 5268 H 498.255 -3.97751 -1.73137 0
M  V30 5269 H 498.926 -4.42244 -3.30339 0
M  V30 5270 H 501.402 -2.49574 -3.32945 0
M  V30 5271 H 500.278 -2.9261 -4.64403 0
M  V30 5272 H 500.539 -1.23554 -4.24484 0
M  V30 5273 N 499.598 0.982988 -1.23187 0
M  V30 5274 C 500.508 2.10907 -1.02739 0
M  V30 5275 C 501.524 1.73979 0.0273188 0
M  V30 5276 O 502.7 2.00702 -0.16757 0
M  V30 5277 C 499.765 3.41142 -0.618304 0
M  V30 5278 C 498.826 3.92112 -1.74777 0
M  V30 5279 C 498.059 5.16131 -1.3581 0
M  V30 5280 O 498.282 5.6989 -0.241201 0
M  V30 5281 O 497.216 5.61103 -2.17824 0
M  V30 5282 H 501.042 2.31046 -1.97108 0
M  V30 5283 H 498.627 1.09284 -1.01869 0
M  V30 5284 H 500.509 4.19488 -0.400982 0
M  V30 5285 H 499.184 3.2234 0.296421 0
M  V30 5286 H 498.091 3.14895 -2.0197 0
M  V30 5287 H 499.424 4.15364 -2.64071 0
M  V30 5288 N 501.076 1.04316 1.18135 0
M  V30 5289 C 502.304 0.768117 1.92113 0
M  V30 5290 C 502.719 -0.675057 1.76319 0
M  V30 5291 O 502.076 -1.46038 1.09449 0
M  V30 5292 C 502.127 1.12808 3.43448 0
M  V30 5293 O 501.848 2.5146 3.58747 0
M  V30 5294 C 503.349 0.8779 4.3452 0
M  V30 5295 H 500.569 0.279937 0.609817 0
M  V30 5296 H 503.113 1.39149 1.49859 0
M  V30 5297 H 501.268 0.549623 3.83481 0
M  V30 5298 H 501.682 2.65313 4.52448 0
M  V30 5299 H 503.156 1.17959 5.39249 0
M  V30 5300 H 503.633 -0.187239 4.38801 0
M  V30 5301 H 504.239 1.43977 4.00188 0
M  V30 5302 N 502.554 -1.34406 0.822964 0
M  V30 5303 C 503.484 -2.32052 0.259608 0
M  V30 5304 C 504.465 -1.58243 -0.623961 0
M  V30 5305 O 505.65 -1.86224 -0.55083 0
M  V30 5306 C 502.78 -3.42434 -0.579314 0
M  V30 5307 C 501.734 -4.27499 0.20712 0
M  V30 5308 C 501.06 -5.29349 -0.754547 0
M  V30 5309 C 502.36 -5.02758 1.41533 0
M  V30 5310 H 504.054 -2.79418 1.07545 0
M  V30 5311 H 501.6 -1.34338 0.518593 0
M  V30 5312 H 503.553 -4.0976 -0.983612 0
M  V30 5313 H 502.277 -2.93717 -1.4282 0
M  V30 5314 H 500.936 -3.61776 0.592787 0
M  V30 5315 H 500.584 -4.76895 -1.59939 0
M  V30 5316 H 500.284 -5.8714 -0.232561 0
M  V30 5317 H 501.808 -5.99544 -1.1567 0
M  V30 5318 H 503.222 -5.62938 1.08504 0
M  V30 5319 H 501.619 -5.70123 1.87296 0
M  V30 5320 H 502.689 -4.32451 2.1935 0
M  V30 5321 N 504.032 -0.577932 -1.46621 0
M  V30 5322 C 505.28 -0.061566 -2.02006 0
M  V30 5323 C 505.601 1.30117 -1.4524 0
M  V30 5324 O 504.871 1.85313 -0.63529 0
M  V30 5325 H 503.451 -0.0197692 -0.746738 0
M  V30 5326 H 506.113 -0.752631 -1.79782 0
M  V30 5327 H 505.209 0.0110238 -3.12098 0
M  V30 5328 N 505.51 1.54411 -0.315457 0
M  V30 5329 C 506.75 2.02329 0.290236 0
M  V30 5330 C 507.114 1.19878 1.49977 0
M  V30 5331 O 508.315 1.57562 2.17779 0
M  V30 5332 C 506.586 3.51912 0.623937 0
M  V30 5333 S 508.145 4.21775 1.21044 0
M  V30 5334 H 504.963 0.705499 0.0882739 0
M  V30 5335 H 507.565 1.90328 -0.446694 0
M  V30 5336 H 506.269 4.09546 -0.264624 0
M  V30 5337 H 505.8 3.67977 1.39128 0
M  V30 5338 H 507.815 4.28757 2.49764 0
M  V30 5339 N 506.988 0.0434614 1.5754 0
M  V30 5340 C 508.228 -0.636023 1.94253 0
M  V30 5341 C 508.592 -1.68461 0.921132 0
M  V30 5342 O 509.793 -2.41762 1.17494 0
M  V30 5343 C 508.064 -1.22357 3.35803 0
M  V30 5344 S 509.623 -1.92213 3.94461 0
M  V30 5345 H 506.441 -0.209041 0.679575 0
M  V30 5346 H 509.043 0.110556 1.95187 0
M  V30 5347 H 507.747 -0.448162 4.07946 0
M  V30 5348 H 507.278 -2.00713 3.38346 0
M  V30 5349 H 509.293 -3.20199 3.79061 0
M  V30 5350 N 508.466 -1.55915 -0.229846 0
M  V30 5351 C 509.414 -1.9258 -1.30444 0
M  V30 5352 C 510.408 -0.806839 -1.48951 0
M  V30 5353 O 511.614 -0.991606 -1.50224 0
M  V30 5354 H 507.989 -0.611878 -0.437161 0
M  V30 5355 H 509.96 -2.82264 -0.96797 0
M  V30 5356 C 508.709 -2.25171 -2.6494 0
M  V30 5357 H 508.032 -3.10782 -2.51504 0
M  V30 5358 H 509.472 -2.54716 -3.38963 0
M  V30 5359 C 507.931 -1.07394 -3.19324 0
M  V30 5360 O 508.461 -0.330759 -4.00336 0
M  V30 5361 N 506.667 -0.859984 -2.77584 0
M  V30 5362 H 506.214 -1.46605 -2.11813 0
M  V30 5363 H 506.172 -0.0736671 -3.14314 0
M  V30 5364 N 509.944 0.496216 -1.49584 0
M  V30 5365 C 511.19 1.25189 -1.59548 0
M  V30 5366 C 511.523 1.9212 -0.283466 0
M  V30 5367 O 510.798 1.80947 0.713324 0
M  V30 5368 C 511.081 2.31516 -2.75812 0
M  V30 5369 C 510.934 1.69054 -4.16822 0
M  V30 5370 C 512.253 3.3304 -2.87702 0
M  V30 5371 H 509.372 0.45379 -0.580727 0
M  V30 5372 H 512.014 0.549327 -1.81886 0
M  V30 5373 H 510.164 2.91438 -2.56897 0
M  V30 5374 H 511.836 1.12923 -4.47265 0
M  V30 5375 H 510.079 0.994485 -4.22247 0
M  V30 5376 H 510.75 2.462 -4.94054 0
M  V30 5377 H 513.226 2.83114 -3.04936 0
M  V30 5378 H 512.102 4.04794 -3.7072 0
M  V30 5379 H 512.363 3.95655 -1.97255 0
M  V30 5380 N 511.423 1.38739 0.74761 0
M  V30 5381 C 512.672 1.3459 1.50228 0
M  V30 5382 C 512.985 -0.0595592 1.95509 0
M  V30 5383 O 514.191 -0.22361 2.70578 0
M  V30 5384 C 512.647 2.36377 2.71393 0
M  V30 5385 C 512.255 3.82573 2.33113 0
M  V30 5386 C 513.999 2.41281 3.49262 0
M  V30 5387 C 511.906 4.76032 3.50924 0
M  V30 5388 H 510.836 0.500312 0.564096 0
M  V30 5389 H 513.487 1.64324 0.8167 0
M  V30 5390 H 511.869 1.99694 3.41962 0
M  V30 5391 H 513.043 4.28227 1.70171 0
M  V30 5392 H 511.358 3.80844 1.68365 0
M  V30 5393 H 513.955 3.08301 4.36869 0
M  V30 5394 H 514.298 1.43353 3.9084 0
M  V30 5395 H 514.831 2.76793 2.85711 0
M  V30 5396 H 511.57 5.75177 3.14408 0
M  V30 5397 H 511.09 4.35066 4.12889 0
M  V30 5398 H 512.769 4.94331 4.17427 0
M  V30 5399 N 512.901 -0.976442 1.23707 0
M  V30 5400 C 514.141 -1.73331 1.08332 0
M  V30 5401 C 514.505 -1.88346 -0.372781 0
M  V30 5402 O 515.706 -2.60877 -0.647813 0
M  V30 5403 C 513.977 -3.09159 1.7932 0
M  V30 5404 S 515.536 -4.00376 1.79567 0
M  V30 5405 H 512.354 -0.596045 0.387622 0
M  V30 5406 H 514.956 -1.16625 1.56904 0
M  V30 5407 H 513.66 -2.95884 2.84395 0
M  V30 5408 H 513.191 -3.70932 1.31046 0
M  V30 5409 H 515.206 -4.88742 0.857094 0
M  V30 5410 N 514.379 -1.04941 -1.1758 0
M  V30 5411 C 515.604 -0.778253 -1.92245 0
M  V30 5412 C 516.029 0.659707 -1.76152 0
M  V30 5413 O 515.387 1.45803 -1.07755 0
M  V30 5414 C 515.435 -1.16051 -3.41416 0
M  V30 5415 O 514.539 -0.291153 -4.11371 0
M  V30 5416 H 513.88 -0.285619 -0.599431 0
M  V30 5417 H 516.41 -1.40159 -1.49052 0
M  V30 5418 H 516.42 -1.12619 -3.92149 0
M  V30 5419 H 515.095 -2.208 -3.52449 0
M  V30 5420 H 513.672 -0.385851 -3.70898 0
M  V30 5421 N 515.857 1.33968 -0.830081 0
M  V30 5422 C 517.134 1.92554 -0.343858 0
M  V30 5423 C 517.514 1.7573 1.16971 0
M  V30 5424 O 516.862 1.14035 1.98011 0
M  V30 5425 C 517.072 3.40147 -0.781073 0
M  V30 5426 C 518.42 4.17299 -0.78402 0
M  V30 5427 O 519.444 3.48762 -0.724112 0
M  V30 5428 O 518.303 5.39631 -0.863739 0
M  V30 5429 H 515.397 0.821469 -0.0954827 0
M  V30 5430 H 517.943 1.42897 -0.915348 0
M  V30 5431 H 516.715 3.46225 -1.82329 0
M  V30 5432 H 516.338 3.97166 -0.18567 0
M  V30 5433 N 517.335 0.585699 1.46312 0
M  V30 5434 C 518.282 -0.145835 2.30339 0
M  V30 5435 C 519.252 -0.881215 1.40797 0
M  V30 5436 O 520.437 -0.871293 1.69744 0
M  V30 5437 C 517.577 -1.15161 3.25318 0
M  V30 5438 C 516.69 -0.419367 4.2996 0
M  V30 5439 C 515.825 -1.41293 5.12064 0
M  V30 5440 C 514.864 -0.667261 6.08452 0
M  V30 5441 N 514.001 -1.60903 6.83414 0
M  V30 5442 H 518.841 0.576755 2.92365 0
M  V30 5443 H 516.378 0.296237 1.44086 0
M  V30 5444 H 518.336 -1.74763 3.78832 0
M  V30 5445 H 516.966 -1.84188 2.65094 0
M  V30 5446 H 516.018 0.291751 3.7928 0
M  V30 5447 H 517.33 0.163433 4.98532 0
M  V30 5448 H 516.484 -2.08167 5.6987 0
M  V30 5449 H 515.223 -2.02966 4.43459 0
M  V30 5450 H 514.228 0.0152356 5.49798 0
M  V30 5451 H 515.453 -0.0558817 6.79077 0
M  V30 5452 H 513.399 -2.21381 6.17516 0
M  V30 5453 H 513.316 -1.07911 7.48259 0
M  V30 5454 H 514.584 -2.26802 7.45775 0
M  V30 5455 N 518.813 -1.54241 0.323641 0
M  V30 5456 C 520.041 -2.04985 -0.280871 0
M  V30 5457 C 520.456 -1.19978 -1.45777 0
M  V30 5458 O 519.813 -0.230471 -1.81039 0
M  V30 5459 C 519.864 -3.54353 -0.715258 0
M  V30 5460 O 519.585 -4.36132 0.414817 0
M  V30 5461 C 521.086 -4.21189 -1.38257 0
M  V30 5462 H 518.306 -0.66851 -0.0577502 0
M  V30 5463 H 520.85 -1.99029 0.469852 0
M  V30 5464 H 519.005 -3.60596 -1.41596 0
M  V30 5465 H 519.419 -5.2445 0.0725227 0
M  V30 5466 H 520.893 -5.27154 -1.63745 0
M  V30 5467 H 521.37 -3.72307 -2.32989 0
M  V30 5468 H 521.976 -4.19085 -0.724447 0
M  V30 5469 N 520.291 -0.0518155 -1.57515 0
M  V30 5470 C 521.539 0.620595 -1.92336 0
M  V30 5471 C 521.86 1.71345 -0.930907 0
M  V30 5472 O 521.13 1.95885 0.0241341 0
M  V30 5473 H 519.71 0.232226 -0.709986 0
M  V30 5474 H 522.372 -0.104969 -1.94617 0
M  V30 5475 H 521.468 1.05879 -2.93592 0
M  V30 5476 N 521.769 1.56035 0.221574 0
M  V30 5477 C 522.997 1.8313 0.962864 0
M  V30 5478 C 523.412 0.630934 1.77946 0
M  V30 5479 O 522.769 -0.400519 1.78051 0
M  V30 5480 C 522.82 3.08742 1.88045 0
M  V30 5481 O 522.541 4.24147 1.09686 0
M  V30 5482 C 524.042 3.48824 2.73563 0
M  V30 5483 H 521.262 0.608775 0.282194 0
M  V30 5484 H 523.806 2.03124 0.23681 0
M  V30 5485 H 521.961 2.90723 2.56045 0
M  V30 5486 H 522.375 4.95505 1.71974 0
M  V30 5487 H 523.849 4.39752 3.3365 0
M  V30 5488 H 524.326 2.70575 3.45956 0
M  V30 5489 H 524.932 3.69282 2.10976 0
M  V30 5490 N 523.247 -0.488276 1.49845 0
M  V30 5491 C 524.177 -1.59675 1.70371 0
M  V30 5492 C 525.158 -1.60878 0.552473 0
M  V30 5493 O 526.343 -1.77417 0.78973 0
M  V30 5494 C 523.473 -2.98098 1.782 0
M  V30 5495 C 522.427 -3.11761 2.93239 0
M  V30 5496 C 521.753 -4.51661 2.86193 0
M  V30 5497 C 523.053 -2.90589 4.33999 0
M  V30 5498 H 524.747 -1.42752 2.63177 0
M  V30 5499 H 522.293 -0.685317 1.26647 0
M  V30 5500 H 524.246 -3.75555 1.91144 0
M  V30 5501 H 522.97 -3.16138 0.820018 0
M  V30 5502 H 521.629 -2.36732 2.79917 0
M  V30 5503 H 521.277 -4.66595 1.87877 0
M  V30 5504 H 520.977 -4.61742 3.63412 0
M  V30 5505 H 522.501 -5.31162 3.01163 0
M  V30 5506 H 523.915 -3.57807 4.47936 0
M  V30 5507 H 522.312 -3.1213 5.12538 0
M  V30 5508 H 523.382 -1.86595 4.4756 0
M  V30 5509 N 524.725 -1.39134 -0.740242 0
M  V30 5510 C 525.953 -1.39334 -1.5295 0
M  V30 5511 C 526.368 0.0135008 -1.88795 0
M  V30 5512 O 525.725 0.983524 -1.5373 0
M  V30 5513 C 525.776 -2.2614 -2.82034 0
M  V30 5514 O 525.497 -3.61345 -2.47712 0
M  V30 5515 C 526.998 -2.34666 -3.76094 0
M  V30 5516 H 524.218 -0.476103 -0.472828 0
M  V30 5517 H 526.762 -1.82883 -0.9151 0
M  V30 5518 H 524.917 -1.86018 -3.39818 0
M  V30 5519 H 525.331 -4.07194 -3.30595 0
M  V30 5520 H 526.805 -2.99663 -4.63579 0
M  V30 5521 H 527.282 -1.36426 -4.17474 0
M  V30 5522 H 527.888 -2.75236 -3.2423 0
M  V30 5523 N 526.204 0.969867 -1.24223 0
M  V30 5524 C 527.151 2.06407 -1.0327 0
M  V30 5525 C 528.121 1.66014 0.0533 0
M  V30 5526 O 529.306 1.90533 -0.100896 0
M  V30 5527 C 526.446 3.3909 -0.641262 0
M  V30 5528 C 525.559 3.9269 -1.80051 0
M  V30 5529 C 524.694 5.13631 -1.35486 0
M  V30 5530 C 523.733 5.59423 -2.48419 0
M  V30 5531 N 522.87 6.71586 -2.04737 0
M  V30 5532 H 527.71 2.23663 -1.96923 0
M  V30 5533 H 525.247 1.09624 -0.980862 0
M  V30 5534 H 527.205 4.15323 -0.395351 0
M  V30 5535 H 525.835 3.21765 0.258269 0
M  V30 5536 H 524.887 3.13116 -2.16014 0
M  V30 5537 H 526.199 4.22636 -2.64916 0
M  V30 5538 H 525.353 5.97231 -1.0677 0
M  V30 5539 H 524.092 4.85364 -0.476722 0
M  V30 5540 H 523.097 4.74398 -2.77897 0
M  V30 5541 H 524.322 5.89705 -3.36786 0
M  V30 5542 H 522.268 6.45058 -1.19318 0
M  V30 5543 H 522.185 7.0097 -2.83156 0
M  V30 5544 H 523.453 7.58633 -1.79154 0
M  V30 5545 N 527.682 1.05563 1.17022 0
M  V30 5546 C 528.63 0.653887 2.2322 0
M  V30 5547 C 529.624 -0.326642 1.66221 0
M  V30 5548 O 530.83 -0.192301 1.7897 0
M  V30 5549 H 527.205 0.193297 0.726733 0
M  V30 5550 H 529.176 1.5596 2.54399 0
M  V30 5551 C 527.925 0.0485434 3.47666 0
M  V30 5552 H 527.248 0.79413 3.91834 0
M  V30 5553 H 528.688 -0.195133 4.23551 0
M  V30 5554 C 527.147 -1.20583 3.14581 0
M  V30 5555 O 527.677 -2.29475 3.29703 0
M  V30 5556 N 525.883 -1.10493 2.68774 0
M  V30 5557 H 525.43 -0.218795 2.56669 0
M  V30 5558 H 525.388 -1.94507 2.47011 0
M  V30 5559 N 529.16 -1.33526 0.837174 0
M  V30 5560 C 530.07 -2.33023 0.271568 0
M  V30 5561 C 531.086 -1.63272 -0.601514 0
M  V30 5562 O 532.262 -1.94939 -0.506038 0
M  V30 5563 C 529.327 -3.42382 -0.545448 0
M  V30 5564 C 528.388 -4.27857 0.351709 0
M  V30 5565 C 527.621 -5.31994 -0.426409 0
M  V30 5566 O 527.844 -5.45763 -1.65828 0
M  V30 5567 O 526.778 -6.01572 0.1987 0
M  V30 5568 H 530.604 -2.83256 1.09545 0
M  V30 5569 H 528.189 -1.36837 0.599655 0
M  V30 5570 H 530.071 -4.09122 -1.00979 0
M  V30 5571 H 528.746 -2.94369 -1.34641 0
M  V30 5572 H 527.653 -3.6399 0.863853 0
M  V30 5573 H 528.986 -4.79349 1.1174 0
M  V30 5574 N 530.638 -0.59345 -1.46 0
M  V30 5575 C 531.571 0.182196 -2.27472 0
M  V30 5576 C 532.549 0.886901 -1.36282 0
M  V30 5577 O 533.733 0.898627 -1.65701 0
M  V30 5578 C 530.86 1.26236 -3.14296 0
M  V30 5579 C 529.906 0.662331 -4.21326 0
M  V30 5580 S 530.739 -0.519017 -5.32979 0
M  V30 5581 C 531.895 0.562086 -6.23371 0
M  V30 5582 H 532.128 -0.509056 -2.92909 0
M  V30 5583 H 529.661 -0.380607 -1.49635 0
M  V30 5584 H 531.619 1.88075 -3.64881 0
M  V30 5585 H 530.28 1.92562 -2.48151 0
M  V30 5586 H 529.473 1.47461 -4.81945 0
M  V30 5587 H 529.075 0.119381 -3.73809 0
M  V30 5588 H 531.367 1.44494 -6.61912 0
M  V30 5589 H 532.31 -0.00760776 -7.081 0
M  V30 5590 H 532.718 0.871061 -5.57739 0
M  V30 5591 N 532.116 1.54067 -0.331816 0
M  V30 5592 C 533.344 2.05131 0.269996 0
M  V30 5593 C 533.759 1.20749 1.45138 0
M  V30 5594 O 533.116 0.240069 1.80914 0
M  V30 5595 C 533.167 3.54728 0.696456 0
M  V30 5596 O 532.888 4.35906 -0.43794 0
M  V30 5597 C 534.389 4.21916 1.36021 0
M  V30 5598 H 531.609 0.668807 0.0542042 0
M  V30 5599 H 534.153 1.98777 -0.4804 0
M  V30 5600 H 532.308 3.61342 1.39681 0
M  V30 5601 H 532.722 5.24404 -0.100334 0
M  V30 5602 H 534.196 5.28015 1.60947 0
M  V30 5603 H 534.673 3.73538 2.31011 0
M  V30 5604 H 535.279 4.19463 0.702212 0
M  V30 5605 N 533.594 0.0601682 1.57485 0
M  V30 5606 C 534.84 -0.612501 1.93329 0
M  V30 5607 C 535.173 -1.6996 0.939526 0
M  V30 5608 O 534.448 -1.94472 -0.0330957 0
M  V30 5609 C 534.731 -1.20025 3.39508 0
M  V30 5610 C 534.584 -0.12059 4.49638 0
M  V30 5611 C 535.903 -2.10923 3.86264 0
M  V30 5612 H 533.022 -0.221185 0.703027 0
M  V30 5613 H 535.664 0.123768 1.89596 0
M  V30 5614 H 533.814 -1.82774 3.42821 0
M  V30 5615 H 535.486 0.51185 4.58452 0
M  V30 5616 H 533.729 0.550251 4.30296 0
M  V30 5617 H 534.4 -0.572019 5.49028 0
M  V30 5618 H 536.876 -1.58124 3.84884 0
M  V30 5619 H 535.752 -2.48987 4.8918 0
M  V30 5620 H 536.013 -3.01292 3.23536 0
M  V30 5621 N 535.072 -1.5615 -0.213296 0
M  V30 5622 C 536.3 -1.83638 -0.953139 0
M  V30 5623 C 536.715 -0.640362 -1.77609 0
M  V30 5624 O 536.072 0.391071 -1.78261 0
M  V30 5625 C 536.123 -3.09735 -1.86405 0
M  V30 5626 O 535.844 -4.24723 -1.07435 0
M  V30 5627 C 537.345 -3.5027 -2.71709 0
M  V30 5628 H 534.565 -0.610263 -0.278962 0
M  V30 5629 H 537.109 -2.03247 -0.226035 0
M  V30 5630 H 535.264 -2.92077 -2.545 0
M  V30 5631 H 535.678 -4.9641 -1.69343 0
M  V30 5632 H 537.152 -4.41515 -3.31313 0
M  V30 5633 H 537.629 -2.72406 -3.44516 0
M  V30 5634 H 538.235 -3.70396 -2.09015 0
M  V30 5635 N 536.55 0.480323 -1.50102 0
M  V30 5636 C 537.5 1.57685 -1.6468 0
M  V30 5637 C 538.484 1.52878 -0.5017 0
M  V30 5638 O 539.676 1.60058 -0.755668 0
M  V30 5639 C 536.805 2.96185 -1.73578 0
M  V30 5640 C 535.891 3.0591 -2.93734 0
M  V30 5641 N 536.282 2.85471 -4.1754 0
M  V30 5642 C 534.58 3.37036 -2.92101 0
M  V30 5643 C 535.281 2.99921 -4.9842 0
M  V30 5644 N 534.257 3.29715 -4.32191 0
M  V30 5645 H 538.059 1.40568 -2.58104 0
M  V30 5646 H 535.573 0.686874 -1.47159 0
M  V30 5647 H 537.57 3.75015 -1.82124 0
M  V30 5648 H 536.23 3.14356 -0.813057 0
M  V30 5649 H 537.241 2.61235 -4.47188 0
M  V30 5650 H 533.918 3.61253 -2.09291 0
M  V30 5651 H 535.308 2.88436 -6.06839 0
M  V30 5652 N 538.028 1.39524 0.732853 0
M  V30 5653 C 539.277 1.36175 1.48792 0
M  V30 5654 C 539.59 -0.0388195 1.95561 0
M  V30 5655 O 540.796 -0.194899 2.708 0
M  V30 5656 C 539.252 2.39242 2.68871 0
M  V30 5657 C 538.86 3.85024 2.29042 0
M  V30 5658 C 540.604 2.44972 3.46683 0
M  V30 5659 C 538.511 4.79727 3.45856 0
M  V30 5660 H 537.441 0.506267 0.558757 0
M  V30 5661 H 540.092 1.65181 0.799226 0
M  V30 5662 H 538.474 2.0331 3.39825 0
M  V30 5663 H 539.648 4.30008 1.6562 0
M  V30 5664 H 537.963 3.82609 1.64316 0
M  V30 5665 H 540.56 3.12918 4.33574 0
M  V30 5666 H 540.903 1.4749 3.89297 0
M  V30 5667 H 541.436 2.79808 2.82759 0
M  V30 5668 H 538.175 5.78479 3.08289 0
M  V30 5669 H 537.695 4.39421 4.08251 0
M  V30 5670 H 539.374 4.98731 4.12161 0
M  V30 5671 N 539.506 -0.963266 1.24736 0
M  V30 5672 C 540.753 -1.7068 1.0897 0
M  V30 5673 C 541.081 -1.90934 -0.370751 0
M  V30 5674 O 540.336 -1.47155 -1.29011 0
M  V30 5675 C 540.635 -3.09944 1.7796 0
M  V30 5676 C 540.301 -3.09518 3.27887 0
M  V30 5677 C 538.963 -3.09109 3.68789 0
M  V30 5678 C 541.315 -3.03509 4.23712 0
M  V30 5679 C 538.643 -3.00429 5.03944 0
M  V30 5680 C 540.995 -2.96371 5.5888 0
M  V30 5681 C 539.659 -2.94293 5.99123 0
M  V30 5682 H 538.929 -0.624564 0.398749 0
M  V30 5683 H 541.576 -1.12603 1.54896 0
M  V30 5684 H 539.881 -3.71513 1.2444 0
M  V30 5685 H 541.578 -3.66278 1.63222 0
M  V30 5686 H 538.168 -3.10603 2.95337 0
M  V30 5687 H 542.352 -3.0295 3.93109 0
M  V30 5688 H 537.608 -2.97183 5.34314 0
M  V30 5689 H 541.782 -2.90681 6.32833 0
M  V30 5690 H 539.409 -2.87322 7.03811 0
M  V30 5691 N 540.985 -1.06182 -1.16461 0
M  V30 5692 C 542.213 -0.798583 -1.90867 0
M  V30 5693 C 542.628 0.646921 -1.77371 0
M  V30 5694 O 541.985 1.44279 -1.11758 0
M  V30 5695 C 542.036 -1.18258 -3.4161 0
M  V30 5696 O 541.757 -2.57135 -3.54701 0
M  V30 5697 C 543.258 -0.946917 -4.33069 0
M  V30 5698 H 540.478 -0.289603 -0.605286 0
M  V30 5699 H 543.022 -1.41515 -1.47627 0
M  V30 5700 H 541.177 -0.610562 -3.82558 0
M  V30 5701 H 541.591 -2.72477 -4.4817 0
M  V30 5702 H 543.065 -1.26523 -5.37304 0
M  V30 5703 H 543.542 0.117406 -4.39043 0
M  V30 5704 H 544.148 -1.50326 -3.97847 0
M  V30 5705 N 542.463 1.3308 -0.844243 0
M  V30 5706 C 543.688 2.02341 -0.455282 0
M  V30 5707 C 544.113 1.6308 0.93737 0
M  V30 5708 O 543.471 0.826118 1.61385 0
M  V30 5709 C 543.519 3.55743 -0.58988 0
M  V30 5710 O 542.623 4.1063 0.38166 0
M  V30 5711 H 541.964 0.637898 -0.184343 0
M  V30 5712 H 544.494 1.6986 -1.14056 0
M  V30 5713 H 544.504 4.05243 -0.473522 0
M  V30 5714 H 543.179 3.83662 -1.60549 0
M  V30 5715 H 541.756 3.72236 0.22241 0
M  V30 5716 N 543.941 0.601185 1.45683 0
M  V30 5717 C 545.218 0.0261659 1.95582 0
M  V30 5718 C 545.598 -1.4399 1.5437 0
M  V30 5719 O 544.946 -2.13919 0.80318 0
M  V30 5720 C 545.156 0.217557 3.48321 0
M  V30 5721 C 546.504 0.0950076 4.24494 0
M  V30 5722 O 547.528 0.147345 3.55895 0
M  V30 5723 O 546.387 -0.025261 5.46494 0
M  V30 5724 H 543.481 -0.0393688 0.826062 0
M  V30 5725 H 546.027 0.670798 1.55879 0
M  V30 5726 H 544.799 1.23601 3.71266 0
M  V30 5727 H 544.422 -0.46264 3.94899 0
M  V30 5728 N 545.419 -1.53889 0.339982 0
M  V30 5729 C 546.667 -2.00458 -0.257112 0
M  V30 5730 C 546.988 -1.22953 -1.51353 0
M  V30 5731 O 546.258 -0.335734 -1.93002 0
M  V30 5732 H 544.838 -0.740544 -0.0979965 0
M  V30 5733 H 547.5 -1.89386 0.460317 0
M  V30 5734 H 546.596 -3.08035 -0.502057 0
M  V30 5735 N 546.897 -0.0685191 -1.57451 0
M  V30 5736 C 547.827 0.89747 -2.15564 0
M  V30 5737 C 548.808 1.31266 -1.08181 0
M  V30 5738 O 549.993 1.38429 -1.36202 0
M  V30 5739 C 547.123 2.16623 -2.71463 0
M  V30 5740 C 546.077 1.89054 -3.83982 0
M  V30 5741 C 545.403 3.22532 -4.26471 0
M  V30 5742 C 546.703 1.1984 -5.08366 0
M  V30 5743 H 548.397 0.413373 -2.96533 0
M  V30 5744 H 545.943 0.197391 -1.42641 0
M  V30 5745 H 547.896 2.84614 -3.10761 0
M  V30 5746 H 546.62 2.67269 -1.8771 0
M  V30 5747 H 545.279 1.23469 -3.45183 0
M  V30 5748 H 544.927 3.71013 -3.39644 0
M  V30 5749 H 544.627 3.04879 -5.02317 0
M  V30 5750 H 546.151 3.91727 -4.68383 0
M  V30 5751 H 547.565 1.77896 -5.45001 0
M  V30 5752 H 545.962 1.12456 -5.89469 0
M  V30 5753 H 547.032 0.176996 -4.84577 0
M  V30 5754 N 548.375 1.56261 0.205012 0
M  V30 5755 C 549.325 1.90155 1.25798 0
M  V30 5756 C 550.309 0.766227 1.41484 0
M  V30 5757 O 551.501 1.02893 1.44021 0
M  V30 5758 C 548.63 2.23603 2.60493 0
M  V30 5759 C 547.716 3.43568 2.48639 0
M  V30 5760 N 548.107 4.61747 2.06455 0
M  V30 5761 C 546.405 3.4751 2.79558 0
M  V30 5762 C 547.106 5.43907 2.06253 0
M  V30 5763 N 546.082 4.84051 2.47377 0
M  V30 5764 H 549.884 2.79031 0.922986 0
M  V30 5765 H 547.398 1.57048 0.413501 0
M  V30 5766 H 549.395 2.46067 3.36537 0
M  V30 5767 H 548.055 1.36049 2.94823 0
M  V30 5768 H 549.066 4.86598 1.77321 0
M  V30 5769 H 545.743 2.70345 3.18151 0
M  V30 5770 H 547.133 6.48542 1.75622 0
M  V30 5771 N 549.853 -0.472356 1.50355 0
M  V30 5772 C 550.816 -1.5529 1.68576 0
M  V30 5773 C 551.816 -1.50863 0.556511 0
M  V30 5774 O 553.006 -1.53505 0.823516 0
M  V30 5775 C 550.138 -2.94921 1.70981 0
M  V30 5776 H 551.331 -1.40451 2.64978 0
M  V30 5777 H 548.884 -0.698645 1.39816 0
M  V30 5778 H 549.619 -3.15204 0.762675 0
M  V30 5779 H 549.404 -2.99541 2.53017 0
M  V30 5780 H 550.894 -3.73372 1.87037 0
M  V30 5781 N 551.331 -1.39911 -0.725443 0
M  V30 5782 C 552.241 -1.41688 -1.8698 0
M  V30 5783 C 553.257 -0.310579 -1.71206 0
M  V30 5784 O 554.433 -0.55359 -1.93642 0
M  V30 5785 C 551.498 -1.26811 -3.22676 0
M  V30 5786 C 550.559 -2.47497 -3.50776 0
M  V30 5787 C 549.792 -2.3332 -4.79997 0
M  V30 5788 O 550.015 -1.34175 -5.54394 0
M  V30 5789 O 548.949 -3.22498 -5.08211 0
M  V30 5790 H 552.775 -2.38171 -1.88436 0
M  V30 5791 H 550.36 -1.21128 -0.874548 0
M  V30 5792 H 552.242 -1.20684 -4.03749 0
M  V30 5793 H 550.917 -0.334289 -3.21969 0
M  V30 5794 H 549.824 -2.59201 -2.69751 0
M  V30 5795 H 551.157 -3.39606 -3.5627 0
M  V30 5796 N 552.809 0.956637 -1.25245 0
M  V30 5797 C 554.055 1.70352 -1.10036 0
M  V30 5798 C 554.388 1.90869 0.358156 0
M  V30 5799 O 553.663 1.47819 1.26411 0
M  V30 5800 C 553.946 3.08766 -1.85298 0
M  V30 5801 C 553.799 2.95672 -3.38966 0
M  V30 5802 C 555.118 4.08622 -1.63451 0
M  V30 5803 H 552.237 0.618279 -0.401123 0
M  V30 5804 H 554.879 1.11212 -1.54051 0
M  V30 5805 H 553.029 3.59252 -1.47887 0
M  V30 5806 H 554.701 2.52527 -3.86041 0
M  V30 5807 H 552.944 2.31634 -3.6678 0
M  V30 5808 H 553.615 3.93776 -3.86839 0
M  V30 5809 H 556.091 3.67038 -1.96015 0
M  V30 5810 H 554.967 5.03514 -2.18551 0
M  V30 5811 H 555.228 4.3834 -0.575357 0
M  V30 5812 N 554.287 1.06798 1.15896 0
M  V30 5813 C 555.515 0.808694 1.90441 0
M  V30 5814 C 555.93 -0.637506 1.77711 0
M  V30 5815 O 555.287 -1.43684 1.12522 0
M  V30 5816 C 555.338 1.20068 3.40978 0
M  V30 5817 O 555.059 2.59013 3.53333 0
M  V30 5818 C 556.56 0.96987 4.3256 0
M  V30 5819 H 553.78 0.292809 0.603742 0
M  V30 5820 H 556.324 1.42296 1.46874 0
M  V30 5821 H 554.479 0.630842 3.82229 0
M  V30 5822 H 554.893 2.7485 4.46719 0
M  V30 5823 H 556.367 1.29371 5.36626 0
M  V30 5824 H 556.844 -0.0941209 4.39099 0
M  V30 5825 H 557.45 1.52433 3.97044 0
M  V30 5826 N 555.766 -1.3263 0.851289 0
M  V30 5827 C 557.014 -1.96978 0.452128 0
M  V30 5828 C 557.335 -1.67715 -0.99482 0
M  V30 5829 O 556.605 -0.98259 -1.69476 0
M  V30 5830 H 555.185 -0.72873 0.164202 0
M  V30 5831 H 557.847 -1.61774 1.08698 0
M  V30 5832 H 556.943 -3.06387 0.594407 0
M  V30 5833 N 557.244 -0.608902 -1.45362 0
M  V30 5834 C 558.49 -0.104762 -2.02529 0
M  V30 5835 C 558.823 1.26191 -1.47613 0
M  V30 5836 O 558.098 1.8327 -0.65134 0
M  V30 5837 C 558.381 -0.0672661 -3.60037 0
M  V30 5838 C 558.234 -1.4647 -4.25284 0
M  V30 5839 C 559.553 0.619877 -4.35713 0
M  V30 5840 H 556.672 -0.0395438 -0.735938 0
M  V30 5841 H 559.314 -0.781126 -1.73201 0
M  V30 5842 H 557.464 0.50871 -3.85155 0
M  V30 5843 H 559.136 -2.08785 -4.11347 0
M  V30 5844 H 557.379 -2.02502 -3.83634 0
M  V30 5845 H 558.05 -1.39069 -5.34195 0
M  V30 5846 H 560.526 0.130297 -4.15896 0
M  V30 5847 H 559.402 0.615224 -5.45441 0
M  V30 5848 H 559.663 1.68621 -4.0868 0
M  V30 5849 N 558.722 1.53707 -0.348139 0
M  V30 5850 C 559.97 2.00591 0.246478 0
M  V30 5851 C 560.291 1.23753 1.50699 0
M  V30 5852 O 559.561 0.345964 1.92821 0
M  V30 5853 H 558.141 0.741053 0.0940679 0
M  V30 5854 H 560.803 1.89139 -0.470354 0
M  V30 5855 H 559.899 3.08297 0.485714 0
M  V30 5856 N 560.2 0.0768682 1.57412 0
M  V30 5857 C 561.43 -0.5991 1.97723 0
M  V30 5858 C 561.838 -1.63378 0.954166 0
M  V30 5859 O 561.181 -1.83578 -0.0668706 0
M  V30 5860 C 561.243 -1.32078 3.34358 0
M  V30 5861 C 560.907 -0.438985 4.54887 0
M  V30 5862 C 561.904 0.305492 5.19002 0
M  V30 5863 C 559.589 -0.362378 5.00991 0
M  V30 5864 C 561.583 1.11475 6.27576 0
M  V30 5865 C 559.27 0.450543 6.09437 0
M  V30 5866 C 560.268 1.18777 6.72593 0
M  V30 5867 O 559.956 1.98727 7.7895 0
M  V30 5868 H 559.688 -0.166725 0.655117 0
M  V30 5869 H 562.242 0.147337 2.04871 0
M  V30 5870 H 560.472 -2.1134 3.2384 0
M  V30 5871 H 562.161 -1.88949 3.5924 0
M  V30 5872 H 562.927 0.25593 4.84324 0
M  V30 5873 H 558.806 -0.925832 4.51608 0
M  V30 5874 H 562.35 1.69068 6.76803 0
M  V30 5875 H 558.247 0.501651 6.43548 0
M  V30 5876 H 559.015 1.91214 7.95851 0
M  V30 5877 N 561.678 -1.56367 -0.196722 0
M  V30 5878 C 562.626 -1.95304 -1.2633 0
M  V30 5879 C 563.62 -0.838252 -1.47206 0
M  V30 5880 O 564.826 -1.02325 -1.48087 0
M  V30 5881 H 561.201 -0.621013 -0.424083 0
M  V30 5882 H 563.172 -2.84254 -0.907879 0
M  V30 5883 C 561.921 -2.3074 -2.60104 0
M  V30 5884 H 561.244 -3.16047 -2.44856 0
M  V30 5885 H 562.684 -2.61849 -3.33484 0
M  V30 5886 C 561.143 -1.14143 -3.16975 0
M  V30 5887 O 561.673 -0.415602 -3.99544 0
M  V30 5888 N 559.879 -0.91867 -2.75697 0
M  V30 5889 H 559.426 -1.51065 -2.08656 0
M  V30 5890 H 559.384 -0.140321 -3.14087 0
M  V30 5891 N 563.156 0.464375 -1.50603 0
M  V30 5892 C 564.088 1.57916 -1.66118 0
M  V30 5893 C 565.101 1.53497 -0.54246 0
M  V30 5894 O 566.29 1.58763 -0.815877 0
M  V30 5895 C 563.39 2.96809 -1.63577 0
M  V30 5896 C 562.563 3.26026 -2.91592 0
M  V30 5897 C 561.622 4.44506 -2.81604 0
M  V30 5898 O 560.648 4.44484 -3.55559 0
M  V30 5899 N 561.85 5.46549 -1.95614 0
M  V30 5900 H 564.615 1.45022 -2.62276 0
M  V30 5901 H 562.176 0.652903 -1.48151 0
M  V30 5902 H 564.168 3.74048 -1.54499 0
M  V30 5903 H 562.738 3.03438 -0.751262 0
M  V30 5904 H 561.958 2.37337 -3.14746 0
M  V30 5905 H 563.246 3.42361 -3.76386 0
M  V30 5906 H 562.644 5.49391 -1.34854 0
M  V30 5907 H 561.201 6.22746 -1.92435 0
M  V30 5908 N 564.634 1.40294 0.718013 0
M  V30 5909 C 565.881 1.3844 1.47786 0
M  V30 5910 C 566.209 -0.0140838 1.94495 0
M  V30 5911 O 565.464 -0.998165 1.68331 0
M  V30 5912 C 565.763 2.31814 2.72024 0
M  V30 5913 C 565.429 3.79117 2.44093 0
M  V30 5914 C 564.091 4.19249 2.36185 0
M  V30 5915 C 566.443 4.72212 2.20602 0
M  V30 5916 C 563.771 5.50516 2.02851 0
M  V30 5917 C 566.123 6.03775 1.88781 0
M  V30 5918 C 564.787 6.42953 1.79354 0
M  V30 5919 H 564.057 0.506588 0.540786 0
M  V30 5920 H 566.704 1.72929 0.822663 0
M  V30 5921 H 565.009 1.90501 3.42369 0
M  V30 5922 H 566.706 2.27664 3.30106 0
M  V30 5923 H 563.296 3.47318 2.51133 0
M  V30 5924 H 567.48 4.42026 2.25669 0
M  V30 5925 H 562.736 5.79776 1.94088 0
M  V30 5926 H 566.91 6.75428 1.69617 0
M  V30 5927 H 564.537 7.44584 1.53291 0
M  V30 5928 N 566.112 -0.949982 1.2575 0
M  V30 5929 C 567.36 -1.6918 1.10555 0
M  V30 5930 C 567.681 -1.91773 -0.353298 0
M  V30 5931 O 566.951 -1.50814 -1.25027 0
M  V30 5932 H 565.531 -0.626952 0.406129 0
M  V30 5933 H 568.193 -1.1419 1.57945 0
M  V30 5934 H 567.289 -2.66915 1.61749 0
M  V30 5935 N 567.59 -1.07411 -1.15328 0
M  V30 5936 C 568.5 -0.706438 -2.23711 0
M  V30 5937 C 569.516 0.282586 -1.7169 0
M  V30 5938 O 570.692 0.129066 -2.00986 0
M  V30 5939 C 567.757 -0.11048 -3.46524 0
M  V30 5940 C 566.818 -1.15282 -4.13532 0
M  V30 5941 C 566.051 -0.585205 -5.30482 0
M  V30 5942 O 566.274 0.598549 -5.67251 0
M  V30 5943 O 565.208 -1.33039 -5.87013 0
M  V30 5944 H 569.034 -1.61031 -2.57493 0
M  V30 5945 H 566.619 -0.847113 -1.23062 0
M  V30 5946 H 568.501 0.21957 -4.20828 0
M  V30 5947 H 567.176 0.766703 -3.14489 0
M  V30 5948 H 566.083 -1.53523 -3.41147 0
M  V30 5949 H 567.416 -2.00192 -4.49649 0
M  V30 5950 N 569.068 1.32177 -0.85831 0
M  V30 5951 C 570.314 1.97417 -0.46417 0
M  V30 5952 C 570.647 1.67746 0.978514 0
M  V30 5953 O 569.922 0.967654 1.68721 0
M  V30 5954 C 570.205 3.53069 -0.708094 0
M  V30 5955 C 570.058 3.92357 -2.19946 0
M  V30 5956 C 571.377 4.39783 -0.166881 0
M  V30 5957 H 568.496 0.717097 -0.17012 0
M  V30 5958 H 571.138 1.56499 -1.07741 0
M  V30 5959 H 569.288 3.88054 -0.186128 0
M  V30 5960 H 570.96 3.67533 -2.78779 0
M  V30 5961 H 569.203 3.41384 -2.67656 0
M  V30 5962 H 569.874 5.00841 -2.32082 0
M  V30 5963 H 572.35 4.11556 -0.613285 0
M  V30 5964 H 571.226 5.47671 -0.367093 0
M  V30 5965 H 571.487 4.32196 0.930559 0
M  V30 5966 N 570.547 0.616602 1.45037 0
M  V30 5967 C 571.796 0.112861 2.01384 0
M  V30 5968 C 572.109 -1.26758 1.48969 0
M  V30 5969 O 573.315 -1.86454 1.9735 0
M  V30 5970 C 571.771 0.151057 3.59583 0
M  V30 5971 C 571.379 1.53191 4.20995 0
M  V30 5972 C 573.123 -0.296974 4.2346 0
M  V30 5973 C 571.03 1.526 5.71373 0
M  V30 5974 H 569.96 0.0384254 0.75302 0
M  V30 5975 H 572.611 0.773262 1.66412 0
M  V30 5976 H 570.993 -0.57617 3.91786 0
M  V30 5977 H 572.167 2.28156 4.00352 0
M  V30 5978 H 570.482 1.92279 3.69348 0
M  V30 5979 H 573.079 -0.320712 5.33737 0
M  V30 5980 H 573.422 -1.32145 3.9477 0
M  V30 5981 H 573.955 0.377279 3.96007 0
M  V30 5982 H 570.694 2.52837 6.04776 0
M  V30 5983 H 570.214 0.819064 5.94181 0
M  V30 5984 H 571.893 1.25357 6.3474 0
M  V30 5985 N 572.025 -1.5352 0.356285 0
M  V30 5986 C 573.271 -2.01414 -0.236653 0
M  V30 5987 C 573.604 -1.24339 -1.49176 0
M  V30 5988 O 572.879 -0.334496 -1.91602 0
M  V30 5989 C 573.162 -3.56059 -0.537982 0
M  V30 5990 C 573.015 -4.43835 0.730112 0
M  V30 5991 C 574.334 -4.19127 -1.34239 0
M  V30 5992 H 571.453 -0.732135 -0.0845386 0
M  V30 5993 H 574.095 -1.83854 0.479341 0
M  V30 5994 H 572.245 -3.71153 -1.14795 0
M  V30 5995 H 573.917 -4.40555 1.36782 0
M  V30 5996 H 572.16 -4.1218 1.3524 0
M  V30 5997 H 572.831 -5.49958 0.474358 0
M  V30 5998 H 575.307 -4.07809 -0.826498 0
M  V30 5999 H 574.183 -5.27378 -1.52198 0
M  V30 6000 H 574.444 -3.74581 -2.34822 0
M  V30 6001 N 573.503 -0.0852151 -1.57369 0
M  V30 6002 C 574.78 0.622534 -1.85429 0
M  V30 6003 C 575.16 1.86962 -0.980229 0
M  V30 6004 O 574.508 2.28445 -0.0500219 0
M  V30 6005 C 574.718 0.947374 -3.35896 0
M  V30 6006 C 576.066 1.31509 -4.03721 0
M  V30 6007 O 577.09 1.03869 -3.40719 0
M  V30 6008 O 575.949 1.83231 -5.14868 0
M  V30 6009 H 573.043 0.310513 -0.766492 0
M  V30 6010 H 575.589 -0.117164 -1.69295 0
M  V30 6011 H 574.361 0.0622264 -3.91251 0
M  V30 6012 H 573.984 1.74338 -3.5734 0
M  V30 6013 N 574.981 1.5647 0.188427 0
M  V30 6014 C 576.229 1.80655 0.905986 0
M  V30 6015 C 576.55 0.659391 1.83513 0
M  V30 6016 O 575.82 -0.321868 1.93238 0
M  V30 6017 H 574.4 0.666391 0.337538 0
M  V30 6018 H 577.062 1.93949 0.192339 0
M  V30 6019 H 576.158 2.74066 1.49313 0
M  V30 6020 N 576.459 -0.456382 1.50847 0
M  V30 6021 C 577.736 -1.21739 1.53098 0
M  V30 6022 C 578.116 -2.09179 0.284132 0
M  V30 6023 O 577.464 -2.16466 -0.731773 0
M  V30 6024 C 577.674 -2.03573 2.83477 0
M  V30 6025 C 579.022 -2.61264 3.34703 0
M  V30 6026 O 580.046 -2.13802 2.84898 0
M  V30 6027 O 578.905 -3.47779 4.21559 0
M  V30 6028 H 575.999 -0.553219 0.614718 0
M  V30 6029 H 578.545 -0.467003 1.63148 0
M  V30 6030 H 577.317 -1.39232 3.65691 0
M  V30 6031 H 576.94 -2.85716 2.76499 0
M  V30 6032 N 577.937 -1.40673 -0.710563 0
M  V30 6033 C 579.183 -1.39428 -1.47267 0
M  V30 6034 C 579.516 0.00182129 -1.942 0
M  V30 6035 O 578.791 0.971387 -1.68506 0
M  V30 6036 C 579.074 -2.38812 -2.6952 0
M  V30 6037 C 578.927 -3.87467 -2.28449 0
M  V30 6038 C 580.246 -2.3566 -3.71689 0
M  V30 6039 H 577.365 -0.507768 -0.534173 0
M  V30 6040 H 580.007 -1.71843 -0.810547 0
M  V30 6041 H 578.157 -2.113 -3.26013 0
M  V30 6042 H 579.829 -4.25825 -1.77399 0
M  V30 6043 H 578.072 -4.03058 -1.60395 0
M  V30 6044 H 578.743 -4.5253 -3.16103 0
M  V30 6045 H 581.219 -2.6004 -3.24836 0
M  V30 6046 H 580.095 -3.07237 -4.54859 0
M  V30 6047 H 580.356 -1.36996 -4.20339 0
M  V30 6048 N 579.415 0.9433 -1.26252 0
M  V30 6049 C 580.661 1.69175 -1.11837 0
M  V30 6050 C 580.994 1.91238 0.337891 0
M  V30 6051 O 580.269 1.49152 1.24836 0
M  V30 6052 C 580.552 3.06783 -1.88563 0
M  V30 6053 C 580.405 2.9206 -3.42083 0
M  V30 6054 C 581.724 4.06865 -1.67776 0
M  V30 6055 H 578.843 0.61399 -0.407658 0
M  V30 6056 H 581.485 1.09572 -1.55222 0
M  V30 6057 H 579.635 3.57663 -1.51689 0
M  V30 6058 H 581.307 2.48419 -3.88698 0
M  V30 6059 H 579.55 2.27731 -3.69217 0
M  V30 6060 H 580.221 3.89651 -3.90994 0
M  V30 6061 H 582.697 3.64939 -1.99897 0
M  V30 6062 H 581.573 5.01168 -2.23879 0
M  V30 6063 H 581.834 4.37705 -0.621816 0
M  V30 6064 N 580.893 1.08022 1.14757 0
M  V30 6065 C 581.843 0.676345 2.17737 0
M  V30 6066 C 582.827 -0.302018 1.5804 0
M  V30 6067 O 584.019 -0.11466 1.76628 0
M  V30 6068 C 581.148 0.082984 3.432 0
M  V30 6069 C 580.234 1.0869 4.09936 0
M  V30 6070 N 580.625 2.26891 4.52055 0
M  V30 6071 C 578.923 0.921768 4.36371 0
M  V30 6072 C 579.624 2.90636 5.0389 0
M  V30 6073 N 578.6 2.18266 4.97856 0
M  V30 6074 H 582.402 1.5765 2.4804 0
M  V30 6075 H 579.916 0.954374 1.31398 0
M  V30 6076 H 581.913 -0.224289 4.16296 0
M  V30 6077 H 580.573 -0.812206 3.14378 0
M  V30 6078 H 581.584 2.6457 4.45223 0
M  V30 6079 H 578.261 0.0800499 4.17423 0
M  V30 6080 H 579.651 3.9104 5.46386 0
M  V30 6081 N 582.371 -1.3172 0.865308 0
M  V30 6082 C 583.619 -1.96487 0.472995 0
M  V30 6083 C 583.94 -1.68761 -0.976975 0
M  V30 6084 O 583.21 -1.00051 -1.68424 0
M  V30 6085 H 581.79 -0.726947 0.171922 0
M  V30 6086 H 584.452 -1.60612 1.10407 0
M  V30 6087 H 583.548 -3.0574 0.62687 0
M  V30 6088 N 583.85 -0.624285 -1.44708 0
M  V30 6089 C 585.096 -0.126051 -2.02107 0
M  V30 6090 C 585.425 1.2496 -1.49048 0
M  V30 6091 O 584.68 1.84163 -0.662005 0
M  V30 6092 C 584.979 -0.0546353 -3.57358 0
M  V30 6093 C 584.644 -1.36815 -4.29642 0
M  V30 6094 C 583.307 -1.72792 -4.49106 0
M  V30 6095 C 585.659 -2.23549 -4.70824 0
M  V30 6096 C 582.986 -2.95222 -5.07012 0
M  V30 6097 C 585.339 -3.45243 -5.30085 0
M  V30 6098 C 584.003 -3.81452 -5.47769 0
M  V30 6099 H 583.273 -0.0461252 -0.739563 0
M  V30 6100 H 585.92 -0.809236 -1.73562 0
M  V30 6101 H 584.225 0.711891 -3.85278 0
M  V30 6102 H 585.922 0.347282 -3.99493 0
M  V30 6103 H 582.512 -1.07817 -4.14817 0
M  V30 6104 H 586.696 -1.9705 -4.55505 0
M  V30 6105 H 581.952 -3.23361 -5.18891 0
M  V30 6106 H 586.125 -4.12689 -5.60946 0
M  V30 6107 H 583.753 -4.76403 -5.92405 0
M  V30 6108 N 585.328 1.53329 -0.364422 0
M  V30 6109 C 586.558 2.05359 0.226096 0
M  V30 6110 C 586.966 1.23777 1.43094 0
M  V30 6111 O 586.309 0.271139 1.81688 0
M  V30 6112 C 586.371 3.52918 0.684794 0
M  V30 6113 C 586.035 4.55218 -0.403206 0
M  V30 6114 C 587.032 5.04583 -1.2527 0
M  V30 6115 C 584.717 4.99134 -0.563117 0
M  V30 6116 C 586.711 5.96463 -2.24745 0
M  V30 6117 C 584.398 5.9082 -1.56124 0
M  V30 6118 C 585.396 6.39375 -2.40184 0
M  V30 6119 O 585.084 7.29255 -3.38293 0
M  V30 6120 H 584.816 0.674588 0.0436772 0
M  V30 6121 H 587.37 1.98688 -0.520782 0
M  V30 6122 H 585.6 3.57122 1.48326 0
M  V30 6123 H 587.289 3.87812 1.19818 0
M  V30 6124 H 588.055 4.71403 -1.14034 0
M  V30 6125 H 583.934 4.60928 0.0813909 0
M  V30 6126 H 587.478 6.34285 -2.90393 0
M  V30 6127 H 583.375 6.23414 -1.67407 0
M  V30 6128 H 584.143 7.47249 -3.34009 0
M  V30 6129 N 586.806 0.0935595 1.57322 0
M  V30 6130 C 587.754 -0.883457 2.15169 0
M  V30 6131 C 588.748 -1.29324 1.09415 0
M  V30 6132 O 589.954 -1.26795 1.27762 0
M  V30 6133 H 586.329 -0.302923 0.688289 0
M  V30 6134 H 588.3 -0.370845 2.96087 0
M  V30 6135 C 587.049 -2.13345 2.74552 0
M  V30 6136 H 586.372 -1.82702 3.55612 0
M  V30 6137 H 587.812 -2.7977 3.18598 0
M  V30 6138 C 586.271 -2.90646 1.70371 0
M  V30 6139 O 586.801 -3.85133 1.14173 0
M  V30 6140 N 585.007 -2.54157 1.40899 0
M  V30 6141 H 584.554 -1.77391 1.86789 0
M  V30 6142 H 584.512 -3.06178 0.714301 0
M  V30 6143 N 588.284 -1.56567 -0.180126 0
M  V30 6144 C 589.695 -1.7126 -0.743422 0
M  V30 6145 C 590.046 -0.70263 -1.83187 0
M  V30 6146 O 589.171 0.137856 -2.1596 0
M  V30 6147 C 589.766 -3.10512 -1.35528 0
M  V30 6148 C 588.325 -3.26919 -1.8655 0
M  V30 6149 C 587.472 -2.67213 -0.741099 0
M  V30 6150 H 590.423 -1.58636 0.0451543 0
M  V30 6151 H 590.444 -3.08673 -2.22489 0
M  V30 6152 H 589.956 -3.83997 -0.562862 0
M  V30 6153 H 588.057 -2.58376 -2.68464 0
M  V30 6154 H 588.17 -4.34574 -2.01699 0
M  V30 6155 H 586.534 -2.26788 -1.15927 0
M  V30 6156 H 587.317 -3.43277 0.0393291 0
M  V30 6157 N 589.762 0.448376 -1.51087 0
M  V30 6158 C 590.725 1.52588 -1.71025 0
M  V30 6159 C 591.725 1.49958 -0.580442 0
M  V30 6160 O 592.915 1.52176 -0.847833 0
M  V30 6161 C 590.047 2.92163 -1.75652 0
M  V30 6162 H 591.24 1.36218 -2.67179 0
M  V30 6163 H 588.793 0.676313 -1.4091 0
M  V30 6164 H 589.528 3.13951 -0.812724 0
M  V30 6165 H 589.313 2.95478 -2.57751 0
M  V30 6166 H 590.803 3.70349 -1.92953 0
M  V30 6167 N 591.24 1.41047 0.703093 0
M  V30 6168 C 592.486 1.40207 1.46526 0
M  V30 6169 C 592.819 0.00847763 1.94198 0
M  V30 6170 O 592.094 -0.962437 1.69019 0
M  V30 6171 C 592.377 2.40238 2.6825 0
M  V30 6172 C 592.23 3.88674 2.26391 0
M  V30 6173 C 593.549 2.37627 3.70434 0
M  V30 6174 H 590.668 0.510594 0.531472 0
M  V30 6175 H 593.31 1.72271 0.801422 0
M  V30 6176 H 591.46 2.13026 3.24888 0
M  V30 6177 H 593.132 4.2676 1.75138 0
M  V30 6178 H 591.375 4.03903 1.58255 0
M  V30 6179 H 592.046 4.542 3.13698 0
M  V30 6180 H 594.522 2.61759 3.23452 0
M  V30 6181 H 593.398 3.09645 4.53223 0
M  V30 6182 H 593.659 1.39223 4.19606 0
M  V30 6183 N 592.718 -0.936591 1.26751 0
M  V30 6184 C 593.943 -1.72288 1.15462 0
M  V30 6185 C 594.368 -1.85915 -0.285887 0
M  V30 6186 O 593.726 -1.35272 -1.20711 0
M  V30 6187 C 593.774 -3.10503 1.83359 0
M  V30 6188 O 592.878 -3.96745 1.1255 0
M  V30 6189 H 592.219 -0.52843 0.402067 0
M  V30 6190 H 594.749 -1.17271 1.67656 0
M  V30 6191 H 594.759 -3.60867 1.90365 0
M  V30 6192 H 593.434 -2.99901 2.88153 0
M  V30 6193 H 592.011 -3.55191 1.13551 0
M  V30 6194 N 594.196 -1.08629 -1.14182 0
M  V30 6195 C 595.612 -0.814363 -1.3726 0
M  V30 6196 C 595.812 0.575271 -1.93114 0
M  V30 6197 O 594.868 1.33165 -2.1453 0
M  V30 6198 C 596.181 -1.8989 -2.33157 0
M  V30 6199 C 597.729 -1.92518 -2.46791 0
M  V30 6200 C 598.204 -3.00092 -3.45989 0
M  V30 6201 N 599.695 -2.99279 -3.53534 0
M  V30 6202 C 600.43 -3.79158 -4.30147 0
M  V30 6203 N 599.926 -4.68923 -5.09983 0
M  V30 6204 N 601.719 -3.67451 -4.25366 0
M  V30 6205 H 593.87 -1.98232 -0.762758 0
M  V30 6206 H 596.133 -0.860383 -0.398051 0
M  V30 6207 H 595.839 -2.89809 -1.99257 0
M  V30 6208 H 595.713 -1.77013 -3.33086 0
M  V30 6209 H 598.1 -0.932425 -2.79982 0
M  V30 6210 H 598.181 -2.09473 -1.46816 0
M  V30 6211 H 597.825 -3.99575 -3.13532 0
M  V30 6212 H 597.755 -2.80382 -4.45751 0
M  V30 6213 H 600.246 -2.3422 -2.96563 0
M  V30 6214 H 600.559 -5.26475 -5.65724 0
M  V30 6215 H 598.904 -4.72964 -5.09244 0
M  V30 6216 H 602.095 -2.9669 -3.62067 0
M  V30 6217 H 602.268 -4.29944 -4.84822 0
M  V30 6218 N 595.674 1.31259 -0.872281 0
M  V30 6219 C 596.923 1.95893 -0.480493 0
M  V30 6220 C 597.236 1.697 0.972688 0
M  V30 6221 O 598.442 2.28214 1.47073 0
M  V30 6222 C 596.898 3.50705 -0.808342 0
M  V30 6223 C 596.506 3.85735 -2.27844 0
M  V30 6224 C 598.25 4.21719 -0.485136 0
M  V30 6225 C 596.157 5.33668 -2.54858 0
M  V30 6226 H 595.087 0.733182 -0.175955 0
M  V30 6227 H 597.738 1.49396 -1.0655 0
M  V30 6228 H 596.12 3.95706 -0.152558 0
M  V30 6229 H 597.294 3.51686 -2.97748 0
M  V30 6230 H 595.609 3.27792 -2.56791 0
M  V30 6231 H 598.206 5.30559 -0.664166 0
M  V30 6232 H 598.549 4.12316 0.574592 0
M  V30 6233 H 599.082 3.82359 -1.09756 0
M  V30 6234 H 595.821 5.48109 -3.59523 0
M  V30 6235 H 595.341 5.69061 -1.8955 0
M  V30 6236 H 597.02 6.00958 -2.39706 0
M  V30 6237 N 597.152 0.631951 1.44375 0
M  V30 6238 C 598.398 0.13697 2.02337 0
M  V30 6239 C 598.731 -1.23826 1.49602 0
M  V30 6240 O 598.006 -1.8221 0.680415 0
M  V30 6241 C 598.289 0.124536 3.59885 0
M  V30 6242 C 598.142 1.53217 4.229 0
M  V30 6243 C 599.461 -0.550481 4.36644 0
M  V30 6244 H 596.58 0.051247 0.735216 0
M  V30 6245 H 599.222 0.808581 1.71936 0
M  V30 6246 H 597.372 -0.44737 3.85916 0
M  V30 6247 H 599.044 2.15303 4.07973 0
M  V30 6248 H 597.287 2.0858 3.80364 0
M  V30 6249 H 597.958 1.4755 5.31914 0
M  V30 6250 H 600.434 -0.0641154 4.16051 0
M  V30 6251 H 599.31 -0.528371 5.46351 0
M  V30 6252 H 599.571 -1.62097 4.11311 0
M  V30 6253 N 598.631 -1.53133 0.372548 0
M  V30 6254 C 599.541 -2.29671 -0.478379 0
M  V30 6255 C 600.557 -1.35913 -1.08644 0
M  V30 6256 O 601.733 -1.68975 -1.09588 0
M  V30 6257 C 598.798 -3.07625 -1.599 0
M  V30 6258 C 597.859 -4.17061 -1.01776 0
M  V30 6259 C 597.092 -4.91289 -2.08497 0
M  V30 6260 O 597.315 -4.65442 -3.29727 0
M  V30 6261 O 596.249 -5.7705 -1.71164 0
M  V30 6262 H 600.075 -3.03355 0.144649 0
M  V30 6263 H 597.66 -1.48773 0.136729 0
M  V30 6264 H 599.542 -3.56281 -2.25038 0
M  V30 6265 H 598.217 -2.3677 -2.2073 0
M  V30 6266 H 597.124 -3.72641 -0.330098 0
M  V30 6267 H 598.457 -4.90102 -0.453915 0
M  V30 6268 N 600.109 -0.101901 -1.5727 0
M  V30 6269 C 601.072 0.840129 -2.13247 0
M  V30 6270 C 602.072 1.20625 -1.06331 0
M  V30 6271 O 603.262 1.13456 -1.32186 0
M  V30 6272 C 600.394 2.13372 -2.65867 0
M  V30 6273 H 601.587 0.353945 -2.97804 0
M  V30 6274 H 599.14 0.147167 -1.55606 0
M  V30 6275 H 599.875 2.66461 -1.84849 0
M  V30 6276 H 599.66 1.88085 -3.44044 0
M  V30 6277 H 601.15 2.80748 -3.09145 0
M  V30 6278 N 601.587 1.56661 0.17182 0
M  V30 6279 C 602.835 1.81606 0.886774 0
M  V30 6280 C 603.156 0.678818 1.82803 0
M  V30 6281 O 602.426 -0.301354 1.93568 0
M  V30 6282 H 601.006 0.669934 0.330451 0
M  V30 6283 H 603.668 1.94142 0.171757 0
M  V30 6284 H 602.764 2.75634 1.46398 0
M  V30 6285 N 603.065 -0.440357 1.51323 0
M  V30 6286 C 604.305 -1.19956 1.65499 0
M  V30 6287 C 604.669 -1.88559 0.361878 0
M  V30 6288 O 605.87 -2.66109 0.379383 0
M  V30 6289 C 604.141 -2.1918 2.82303 0
M  V30 6290 S 605.7 -3.03627 3.1679 0
M  V30 6291 H 602.518 -0.406833 0.583102 0
M  V30 6292 H 605.12 -0.491596 1.89218 0
M  V30 6293 H 603.824 -1.67414 3.74701 0
M  V30 6294 H 603.355 -2.94561 2.60763 0
M  V30 6295 H 605.37 -4.20773 2.62991 0
M  V30 6296 N 604.543 -1.41418 -0.695603 0
M  V30 6297 C 605.789 -1.40982 -1.4578 0
M  V30 6298 C 606.122 -0.0187763 -1.94191 0
M  V30 6299 O 605.397 0.95346 -1.69527 0
M  V30 6300 C 605.68 -2.41657 -2.66972 0
M  V30 6301 C 605.533 -3.89869 -2.24327 0
M  V30 6302 C 606.852 -2.39589 -3.69168 0
M  V30 6303 H 603.971 -0.513405 -0.528757 0
M  V30 6304 H 606.613 -1.72693 -0.792275 0
M  V30 6305 H 604.763 -2.14746 -3.23754 0
M  V30 6306 H 606.435 -4.27683 -1.72872 0
M  V30 6307 H 604.678 -4.04737 -1.56111 0
M  V30 6308 H 605.349 -4.55857 -3.11285 0
M  V30 6309 H 607.825 -2.63471 -3.2206 0
M  V30 6310 H 606.701 -3.12044 -4.51575 0
M  V30 6311 H 606.962 -1.41447 -4.18862 0
M  V30 6312 N 606.021 0.929856 -1.27246 0
M  V30 6313 C 607.261 1.6919 -1.14691 0
M  V30 6314 C 607.625 1.896 0.302621 0
M  V30 6315 O 608.826 2.63102 0.550543 0
M  V30 6316 C 607.097 3.02291 -1.9067 0
M  V30 6317 S 608.656 3.93436 -1.94303 0
M  V30 6318 H 605.474 0.581248 -0.409477 0
M  V30 6319 H 608.076 1.10722 -1.61124 0
M  V30 6320 H 606.78 2.85125 -2.95181 0
M  V30 6321 H 606.311 3.65813 -1.44723 0
M  V30 6322 H 608.326 4.85224 -1.0379 0
M  V30 6323 N 607.499 1.09233 1.13605 0
M  V30 6324 C 608.447 0.724572 2.21027 0
M  V30 6325 C 609.441 -0.273595 1.67176 0
M  V30 6326 O 610.647 -0.135266 1.79491 0
M  V30 6327 H 607.022 0.216319 0.720215 0
M  V30 6328 H 608.993 1.63975 2.49309 0
M  V30 6329 C 607.742 0.159126 3.47336 0
M  V30 6330 H 607.065 0.918387 3.89109 0
M  V30 6331 H 608.505 -0.0602851 4.23957 0
M  V30 6332 C 606.964 -1.10514 3.18258 0
M  V30 6333 O 607.494 -2.18869 3.36837 0
M  V30 6334 N 605.7 -1.01886 2.72154 0
M  V30 6335 H 605.247 -0.137027 2.57235 0
M  V30 6336 H 605.205 -1.8655 2.53074 0
M  V30 6337 N 608.977 -1.30795 0.87923 0
M  V30 6338 C 610.254 -1.91145 0.415086 0
M  V30 6339 C 610.634 -1.7995 -1.10368 0
M  V30 6340 O 609.982 -1.21305 -1.93642 0
M  V30 6341 C 610.192 -3.37014 0.906778 0
M  V30 6342 C 611.54 -4.14101 0.938358 0
M  V30 6343 O 612.564 -3.45834 0.853053 0
M  V30 6344 O 611.423 -5.36054 1.06342 0
M  V30 6345 H 608.517 -0.81736 0.125905 0
M  V30 6346 H 611.063 -1.39401 0.967753 0
M  V30 6347 H 609.835 -3.3922 1.95053 0
M  V30 6348 H 609.458 -3.96204 0.332948 0
M  V30 6349 N 610.455 -0.639598 -1.44038 0
M  V30 6350 C 611.418 0.0506628 -2.29144 0
M  V30 6351 C 612.418 0.764001 -1.41491 0
M  V30 6352 O 613.608 0.607309 -1.63271 0
M  V30 6353 C 610.74 1.0824 -3.2326 0
M  V30 6354 H 611.933 -0.697987 -2.91664 0
M  V30 6355 H 609.486 -0.400146 -1.51091 0
M  V30 6356 H 610.221 1.86075 -2.65606 0
M  V30 6357 H 610.006 0.574725 -3.87865 0
M  V30 6358 H 611.496 1.56487 -3.87171 0
M  V30 6359 N 611.933 1.52934 -0.380664 0
M  V30 6360 C 613.179 2.01765 0.20458 0
M  V30 6361 C 613.512 1.26696 1.47179 0
M  V30 6362 O 612.787 0.364936 1.91046 0
M  V30 6363 C 613.07 3.56869 0.481269 0
M  V30 6364 C 612.923 4.42617 -0.800629 0
M  V30 6365 C 614.242 4.2121 1.27554 0
M  V30 6366 H 611.361 0.733388 0.0728803 0
M  V30 6367 H 614.003 1.83068 -0.50853 0
M  V30 6368 H 612.153 3.72932 1.08875 0
M  V30 6369 H 613.825 4.38323 -1.43773 0
M  V30 6370 H 612.068 4.09977 -1.4178 0
M  V30 6371 H 612.739 5.49134 -0.561791 0
M  V30 6372 H 615.215 4.09072 0.761514 0
M  V30 6373 H 614.091 5.29732 1.43788 0
M  V30 6374 H 614.352 3.78269 2.28833 0
M  V30 6375 N 613.412 0.11024 1.57214 0
M  V30 6376 C 614.661 -0.549638 1.94067 0
M  V30 6377 C 614.974 -1.68388 0.995234 0
M  V30 6378 O 616.18 -2.40593 1.25807 0
M  V30 6379 C 614.636 -1.02912 3.44873 0
M  V30 6380 C 614.244 0.0761861 4.47935 0
M  V30 6381 C 615.988 -1.66087 3.9066 0
M  V30 6382 C 613.895 -0.419502 5.8991 0
M  V30 6383 H 612.825 -0.209092 0.724428 0
M  V30 6384 H 615.476 0.188683 1.82527 0
M  V30 6385 H 613.858 -1.82159 3.51616 0
M  V30 6386 H 615.032 0.852185 4.52851 0
M  V30 6387 H 613.347 0.614052 4.11847 0
M  V30 6388 H 615.944 -2.04272 4.94143 0
M  V30 6389 H 616.287 -2.53591 3.30148 0
M  V30 6390 H 616.82 -0.933959 3.86681 0
M  V30 6391 H 613.559 0.419277 6.54158 0
M  V30 6392 H 613.079 -1.16217 5.88433 0
M  V30 6393 H 614.758 -0.883577 6.40938 0
M  V30 6394 N 614.89 -1.56749 -0.16351 0
M  V30 6395 C 616.306 -1.51043 -0.515567 0
M  V30 6396 C 616.506 -0.815855 -1.84245 0
M  V30 6397 O 615.562 -0.379477 -2.49632 0
M  V30 6398 C 616.875 -2.95791 -0.541114 0
M  V30 6399 C 618.423 -3.0664 -0.627776 0
M  V30 6400 C 618.898 -4.52861 -0.684141 0
M  V30 6401 N 620.389 -4.5714 -0.746818 0
M  V30 6402 C 621.124 -5.67634 -0.811137 0
M  V30 6403 N 620.62 -6.8774 -0.835811 0
M  V30 6404 N 622.413 -5.55624 -0.850756 0
M  V30 6405 H 614.564 -2.00307 0.70645 0
M  V30 6406 H 616.827 -0.912876 0.255659 0
M  V30 6407 H 616.533 -3.49797 0.365329 0
M  V30 6408 H 616.407 -3.50858 -1.38487 0
M  V30 6409 H 618.794 -2.52663 -1.52464 0
M  V30 6410 H 618.875 -2.54645 0.242805 0
M  V30 6411 H 618.519 -5.07472 0.2085 0
M  V30 6412 H 618.449 -5.02621 -1.57098 0
M  V30 6413 H 620.94 -3.70669 -0.735717 0
M  V30 6414 H 621.253 -7.67701 -0.886279 0
M  V30 6415 H 619.598 -6.90334 -0.803958 0
M  V30 6416 H 622.789 -4.60709 -0.828535 0
M  V30 6417 H 622.962 -6.41756 -0.897418 0
M  V30 6418 N 616.368 0.432326 -1.51554 0
M  V30 6419 C 617.316 1.54572 -1.73811 0
M  V30 6420 C 618.31 1.58246 -0.604539 0
M  V30 6421 O 619.516 1.6193 -0.786041 0
M  V30 6422 H 615.891 0.513626 -0.549265 0
M  V30 6423 H 617.862 1.32977 -2.67132 0
M  V30 6424 C 616.611 2.92181 -1.88483 0
M  V30 6425 H 615.934 2.90088 -2.75116 0
M  V30 6426 H 617.374 3.69439 -2.08065 0
M  V30 6427 C 615.833 3.3065 -0.645909 0
M  V30 6428 O 616.363 4.01216 0.197093 0
M  V30 6429 N 614.569 2.86464 -0.488538 0
M  V30 6430 H 614.116 2.29209 -1.17562 0
M  V30 6431 H 614.074 3.12565 0.339156 0
M  V30 6432 N 617.846 1.41785 0.688094 0
M  V30 6433 C 618.794 1.44436 1.82321 0
M  V30 6434 C 619.788 0.321544 1.6632 0
M  V30 6435 O 620.994 0.493931 1.73091 0
M  V30 6436 H 617.369 0.452084 0.600936 0
M  V30 6437 H 619.34 2.40087 1.77202 0
M  V30 6438 C 618.089 1.35071 3.20392 0
M  V30 6439 H 617.412 2.2076 3.33324 0
M  V30 6440 H 618.852 1.40988 3.99873 0
M  V30 6441 C 617.311 0.0639127 3.36839 0
M  V30 6442 O 617.841 -0.888495 3.91751 0
M  V30 6443 N 616.047 -0.0146114 2.90596 0
M  V30 6444 H 615.594 0.761191 2.46097 0
M  V30 6445 H 615.552 -0.874988 3.01979 0
M  V30 6446 N 619.324 -0.923095 1.27737 0
M  V30 6447 C 620.552 -1.70525 1.17171 0
M  V30 6448 C 620.967 -1.86847 -0.270881 0
M  V30 6449 O 620.324 -1.38879 -1.18401 0
M  V30 6450 C 620.375 -3.10242 1.85559 0
M  V30 6451 O 620.096 -2.94683 3.24182 0
M  V30 6452 C 621.597 -4.04586 1.81176 0
M  V30 6453 H 618.817 -0.533347 0.407163 0
M  V30 6454 H 621.361 -1.15599 1.68692 0
M  V30 6455 H 619.516 -3.62014 1.3793 0
M  V30 6456 H 619.93 -3.83045 3.58297 0
M  V30 6457 H 621.404 -5.00119 2.33633 0
M  V30 6458 H 621.881 -4.3218 0.782099 0
M  V30 6459 H 622.487 -3.58741 2.2844 0
M  V30 6460 N 620.802 -1.09834 -1.13024 0
M  V30 6461 C 621.732 -0.763451 -2.20666 0
M  V30 6462 C 622.713 0.260778 -1.68089 0
M  V30 6463 O 623.898 0.127915 -1.93778 0
M  V30 6464 C 621.028 -0.187744 -3.46792 0
M  V30 6465 C 619.982 -1.14196 -4.12484 0
M  V30 6466 C 619.308 -0.427755 -5.32986 0
M  V30 6467 C 620.608 -2.48607 -4.59338 0
M  V30 6468 H 622.302 -1.66347 -2.48936 0
M  V30 6469 H 619.848 -0.801261 -1.19649 0
M  V30 6470 H 621.801 0.0586375 -4.21359 0
M  V30 6471 H 620.525 0.747485 -3.17931 0
M  V30 6472 H 619.184 -1.37369 -3.3989 0
M  V30 6473 H 618.832 0.511747 -5.0039 0
M  V30 6474 H 618.532 -1.06403 -5.77886 0
M  V30 6475 H 620.056 -0.189772 -6.10305 0
M  V30 6476 H 621.47 -2.29618 -5.25308 0
M  V30 6477 H 619.867 -3.08062 -5.14993 0
M  V30 6478 H 620.937 -3.09062 -3.73642 0
M  V30 6479 N 622.28 1.30327 -0.886154 0
M  V30 6480 C 623.213 2.26241 -0.298407 0
M  V30 6481 C 624.191 1.51839 0.581704 0
M  V30 6482 O 625.375 1.80851 0.531536 0
M  V30 6483 C 622.502 3.33768 0.575888 0
M  V30 6484 C 621.548 4.25852 -0.235057 0
M  V30 6485 S 622.381 5.10277 -1.62411 0
M  V30 6486 C 623.537 6.21313 -0.756368 0
M  V30 6487 H 623.77 2.75744 -1.11141 0
M  V30 6488 H 621.303 1.38341 -0.685651 0
M  V30 6489 H 623.261 3.96186 1.07458 0
M  V30 6490 H 621.922 2.82986 1.363 0
M  V30 6491 H 621.115 5.02143 0.432198 0
M  V30 6492 H 620.717 3.68015 -0.666409 0
M  V30 6493 H 623.009 6.77495 0.0261451 0
M  V30 6494 H 623.952 6.92226 -1.49093 0
M  V30 6495 H 624.36 5.63611 -0.316749 0
M  V30 6496 N 623.758 0.647228 1.43697 0
M  V30 6497 C 625.006 0.157876 2.01482 0
M  V30 6498 C 625.327 -1.23039 1.51282 0
M  V30 6499 O 624.597 -1.82071 0.722982 0
M  V30 6500 H 623.177 0.0553745 0.744945 0
M  V30 6501 H 625.839 0.83755 1.75986 0
M  V30 6502 H 624.935 0.137895 3.11795 0
M  V30 6503 N 625.236 -1.5273 0.388769 0
M  V30 6504 C 626.183 -2.26437 -0.446639 0
M  V30 6505 C 627.153 -1.28025 -1.05824 0
M  V30 6506 O 628.338 -1.56852 -1.08637 0
M  V30 6507 C 625.478 -3.07407 -1.56828 0
M  V30 6508 C 624.591 -4.20747 -0.979589 0
M  V30 6509 C 623.726 -4.89113 -2.07224 0
M  V30 6510 C 622.765 -5.94447 -1.45942 0
M  V30 6511 N 621.902 -6.56411 -2.49135 0
M  V30 6512 H 626.742 -2.97404 0.18837 0
M  V30 6513 H 624.279 -1.46727 0.104725 0
M  V30 6514 H 626.237 -3.52642 -2.22934 0
M  V30 6515 H 624.867 -2.3865 -2.17361 0
M  V30 6516 H 623.919 -3.7983 -0.208151 0
M  V30 6517 H 625.231 -4.9637 -0.491747 0
M  V30 6518 H 624.385 -5.3765 -2.81101 0
M  V30 6519 H 623.124 -4.13013 -2.59368 0
M  V30 6520 H 622.129 -5.4525 -0.705894 0
M  V30 6521 H 623.354 -6.7248 -0.945932 0
M  V30 6522 H 621.3 -5.83152 -3.00449 0
M  V30 6523 H 621.217 -7.27645 -2.05105 0
M  V30 6524 H 622.485 -7.09592 -3.22644 0
M  V30 6525 N 626.714 -0.118576 -1.57153 0
M  V30 6526 C 628.125 0.40687 -1.82213 0
M  V30 6527 C 628.476 1.66636 -1.03571 0
M  V30 6528 O 627.601 2.14682 -0.272171 0
M  V30 6529 C 628.196 0.744949 -3.30509 0
M  V30 6530 C 626.755 1.21503 -3.5625 0
M  V30 6531 C 625.902 0.223511 -2.76398 0
M  V30 6532 H 628.853 -0.343712 -1.54933 0
M  V30 6533 H 628.874 1.6024 -3.45114 0
M  V30 6534 H 628.386 -0.171911 -3.87719 0
M  V30 6535 H 626.487 2.1488 -3.04396 0
M  V30 6536 H 626.6 1.16065 -4.64829 0
M  V30 6537 H 624.964 0.71046 -2.44591 0
M  V30 6538 H 625.747 -0.686439 -3.36367 0
M  V30 6539 N 628.193 1.56834 0.155195 0
M  V30 6540 C 629.421 1.87049 0.884326 0
M  V30 6541 C 629.836 0.705839 1.7511 0
M  V30 6542 O 629.193 -0.324641 1.79589 0
M  V30 6543 C 629.244 3.1644 1.74781 0
M  V30 6544 O 628.965 4.28417 0.915978 0
M  V30 6545 C 630.466 3.60113 2.58522 0
M  V30 6546 H 627.686 0.620196 0.25612 0
M  V30 6547 H 630.23 2.03946 0.150445 0
M  V30 6548 H 628.385 3.01321 2.43484 0
M  V30 6549 H 628.799 5.02353 1.50803 0
M  V30 6550 H 630.273 4.53508 3.14698 0
M  V30 6551 H 630.75 2.85005 3.34169 0
M  V30 6552 H 631.356 3.77898 1.95124 0
M  V30 6553 N 629.671 -0.424282 1.51781 0
M  V30 6554 C 630.581 -1.54087 1.76902 0
M  V30 6555 C 631.597 -1.61249 0.653826 0
M  V30 6556 O 632.773 -1.78247 0.937552 0
M  V30 6557 C 629.838 -2.8996 1.90063 0
M  V30 6558 C 628.899 -2.92809 3.13945 0
M  V30 6559 C 628.132 -4.22201 3.26469 0
M  V30 6560 O 628.355 -5.15286 2.44616 0
M  V30 6561 O 627.289 -4.31599 4.1953 0
M  V30 6562 H 631.115 -1.358 2.71647 0
M  V30 6563 H 628.7 -0.608618 1.36441 0
M  V30 6564 H 630.582 -3.70575 2.0063 0
M  V30 6565 H 629.257 -3.08347 0.985067 0
M  V30 6566 H 628.164 -2.11102 3.08847 0
M  V30 6567 H 629.497 -2.79369 4.05233 0
M  V30 6568 N 631.149 -1.42148 -0.680565 0
M  V30 6569 C 632.397 -1.42029 -1.43779 0
M  V30 6570 C 632.718 -0.0356347 -1.94967 0
M  V30 6571 O 631.988 0.924936 -1.7269 0
M  V30 6572 H 630.568 -0.522835 -0.533529 0
M  V30 6573 H 633.23 -1.7752 -0.804538 0
M  V30 6574 H 632.326 -2.11658 -2.29363 0
M  V30 6575 N 632.627 0.916307 -1.28225 0
M  V30 6576 C 633.59 1.99996 -1.11957 0
M  V30 6577 C 634.59 1.60688 -0.0600152 0
M  V30 6578 O 635.78 1.71499 -0.30558 0
M  V30 6579 C 632.912 3.33458 -0.708411 0
M  V30 6580 H 634.105 2.15858 -2.08196 0
M  V30 6581 H 631.658 1.09863 -1.11175 0
M  V30 6582 H 632.393 3.23297 0.254859 0
M  V30 6583 H 632.178 3.63349 -1.47377 0
M  V30 6584 H 633.668 4.13014 -0.617164 0
M  V30 6585 N 634.105 1.10431 1.1244 0
M  V30 6586 C 635.035 0.775143 2.20258 0
M  V30 6587 C 636.016 -0.25186 1.68225 0
M  V30 6588 O 637.201 -0.117637 1.93843 0
M  V30 6589 C 634.331 0.206133 3.46688 0
M  V30 6590 C 633.285 1.16382 4.11873 0
M  V30 6591 C 632.611 0.456014 5.32752 0
M  V30 6592 C 633.911 2.5104 4.58013 0
M  V30 6593 H 635.605 1.67665 2.4805 0
M  V30 6594 H 633.151 0.807595 1.19222 0
M  V30 6595 H 635.104 -0.036291 4.21384 0
M  V30 6596 H 633.828 -0.730614 3.18323 0
M  V30 6597 H 632.487 1.39169 3.39157 0
M  V30 6598 H 632.135 -0.485203 5.00654 0
M  V30 6599 H 631.835 1.09466 5.77314 0
M  V30 6600 H 633.359 0.222135 6.10196 0
M  V30 6601 H 634.773 2.32401 5.24083 0
M  V30 6602 H 633.17 3.10789 5.13352 0
M  V30 6603 H 634.24 3.11039 3.71998 0
M  V30 6604 N 635.583 -1.29855 0.893053 0
M  V30 6605 C 636.832 -1.95104 0.511597 0
M  V30 6606 C 637.145 -1.71226 -0.945567 0
M  V30 6607 O 638.351 -2.30525 -1.43424 0
M  V30 6608 C 636.807 -3.49374 0.864034 0
M  V30 6609 C 636.415 -3.82061 2.33952 0
M  V30 6610 C 638.159 -4.20894 0.552167 0
M  V30 6611 C 636.066 -5.29546 2.63316 0
M  V30 6612 H 634.996 -0.73029 0.187597 0
M  V30 6613 H 637.647 -1.47682 1.08914 0
M  V30 6614 H 636.029 -3.95413 0.215493 0
M  V30 6615 H 637.203 -3.46904 3.03305 0
M  V30 6616 H 635.518 -3.23665 2.61973 0
M  V30 6617 H 638.115 -5.29435 0.748489 0
M  V30 6618 H 638.458 -4.13178 -0.508924 0
M  V30 6619 H 638.991 -3.80564 1.15825 0
M  V30 6620 H 635.73 -5.4232 3.68197 0
M  V30 6621 H 635.25 -5.65974 1.9858 0
M  V30 6622 H 636.929 -5.97068 2.49236 0
M  V30 6623 N 637.061 -0.65484 -1.43351 0
M  V30 6624 C 638.024 0.0263562 -2.29185 0
M  V30 6625 C 639.024 0.748951 -1.42293 0
M  V30 6626 O 640.214 0.589957 -1.63906 0
M  V30 6627 C 637.346 1.04806 -3.2439 0
M  V30 6628 H 638.539 -0.728883 -2.90908 0
M  V30 6629 H 636.092 -0.416149 -1.50658 0
M  V30 6630 H 636.827 1.83247 -2.67565 0
M  V30 6631 H 636.612 0.533554 -3.88453 0
M  V30 6632 H 638.102 1.52372 -3.88809 0
M  V30 6633 N 638.539 1.52521 -0.396863 0
M  V30 6634 C 639.469 2.29582 0.425941 0
M  V30 6635 C 640.45 1.33281 1.05689 0
M  V30 6636 O 641.635 1.62181 1.06823 0
M  V30 6637 C 638.765 3.10821 1.54943 0
M  V30 6638 C 637.719 4.15069 1.04413 0
M  V30 6639 C 637.045 4.84578 2.26028 0
M  V30 6640 C 638.345 5.22191 0.106767 0
M  V30 6641 H 640.039 2.98612 -0.217045 0
M  V30 6642 H 637.585 1.43611 -0.105826 0
M  V30 6643 H 639.538 3.63492 2.13193 0
M  V30 6644 H 638.262 2.39538 2.22011 0
M  V30 6645 H 636.921 3.63389 0.484118 0
M  V30 6646 H 636.569 4.09835 2.91623 0
M  V30 6647 H 636.269 5.55043 1.92876 0
M  V30 6648 H 637.793 5.40056 2.84906 0
M  V30 6649 H 639.207 5.70176 0.597685 0
M  V30 6650 H 637.604 5.99947 -0.135352 0
M  V30 6651 H 638.674 4.77531 -0.842134 0
M  V30 6652 N 640.017 0.126909 1.57088 0
M  V30 6653 C 640.98 -0.806097 2.14557 0
M  V30 6654 C 641.98 -1.18918 1.08236 0
M  V30 6655 O 643.17 -1.11339 1.33975 0
M  V30 6656 C 640.302 -2.09116 2.69227 0
M  V30 6657 H 641.495 -0.306522 2.98329 0
M  V30 6658 H 639.048 -0.122393 1.5582 0
M  V30 6659 H 639.783 -2.63486 1.89065 0
M  V30 6660 H 639.568 -1.82588 3.46993 0
M  V30 6661 H 641.058 -2.75794 3.13572 0
M  V30 6662 N 641.495 -1.56914 -0.146875 0
M  V30 6663 C 642.428 -1.93425 -1.21087 0
M  V30 6664 C 643.406 -0.800106 -1.41552 0
M  V30 6665 O 644.59 -1.05572 -1.56162 0
M  V30 6666 C 641.717 -2.20639 -2.56975 0
M  V30 6667 C 640.763 -3.43279 -2.53104 0
M  V30 6668 S 641.596 -4.96836 -1.99786 0
M  V30 6669 C 642.752 -5.27172 -3.37403 0
M  V30 6670 H 642.985 -2.8337 -0.899378 0
M  V30 6671 H 640.518 -1.50322 -0.352494 0
M  V30 6672 H 642.476 -2.36998 -3.35175 0
M  V30 6673 H 641.137 -1.31357 -2.85314 0
M  V30 6674 H 640.33 -3.59599 -3.53136 0
M  V30 6675 H 639.932 -3.26163 -1.83012 0
M  V30 6676 H 642.224 -5.20647 -4.33513 0
M  V30 6677 H 643.167 -6.28626 -3.25937 0
M  V30 6678 H 643.575 -4.54687 -3.34544 0
M  V30 6679 N 642.974 0.416227 -1.52004 0
M  V30 6680 C 643.921 1.50666 -1.74838 0
M  V30 6681 C 644.891 1.55245 -0.590599 0
M  V30 6682 O 646.076 1.71928 -0.827374 0
M  V30 6683 C 643.216 2.88185 -1.89851 0
M  V30 6684 C 642.329 2.92971 -3.17478 0
M  V30 6685 C 641.464 4.21745 -3.22962 0
M  V30 6686 C 640.503 4.20478 -4.4482 0
M  V30 6687 N 639.64 5.40811 -4.47736 0
M  V30 6688 H 644.48 1.30498 -2.67907 0
M  V30 6689 H 642.017 0.633568 -1.32757 0
M  V30 6690 H 643.975 3.68007 -1.96537 0
M  V30 6691 H 642.605 3.06865 -1.00169 0
M  V30 6692 H 641.657 2.05684 -3.19997 0
M  V30 6693 H 642.969 2.87899 -4.07328 0
M  V30 6694 H 642.123 5.09954 -3.28682 0
M  V30 6695 H 640.862 4.29503 -2.31038 0
M  V30 6696 H 639.867 3.30659 -4.39254 0
M  V30 6697 H 641.092 4.14366 -5.38031 0
M  V30 6698 H 639.038 5.4925 -3.58692 0
M  V30 6699 H 638.955 5.37705 -5.31422 0
M  V30 6700 H 640.223 6.30993 -4.57676 0
M  V30 6701 N 644.452 1.42507 0.673017 0
M  V30 6702 C 645.385 1.40557 1.79774 0
M  V30 6703 C 646.363 0.269606 1.60349 0
M  V30 6704 O 647.547 0.460105 1.82798 0
M  V30 6705 C 644.674 1.19815 3.168 0
M  V30 6706 C 643.72 2.36429 3.5497 0
M  V30 6707 S 644.553 3.98963 3.57196 0
M  V30 6708 C 645.709 3.80567 4.9691 0
M  V30 6709 H 645.942 2.35734 1.81154 0
M  V30 6710 H 643.475 1.293 0.843846 0
M  V30 6711 H 645.433 1.08535 3.95892 0
M  V30 6712 H 644.094 0.262215 3.13004 0
M  V30 6713 H 643.287 2.17669 4.54573 0
M  V30 6714 H 642.889 2.44233 2.83242 0
M  V30 6715 H 645.181 3.41668 5.85038 0
M  V30 6716 H 646.124 4.79852 5.20718 0
M  V30 6717 H 646.532 3.13399 4.69512 0
M  V30 6718 N 645.93 -0.909495 1.28709 0
M  V30 6719 C 647.178 -1.65577 1.15882 0
M  V30 6720 C 647.499 -1.928 -0.292108 0
M  V30 6721 O 646.769 -1.54716 -1.20166 0
M  V30 6722 H 645.349 -0.613714 0.425869 0
M  V30 6723 H 648.011 -1.09108 1.61498 0
M  V30 6724 H 647.107 -2.61634 1.70159 0
M  V30 6725 N 647.408 -1.11026 -1.11852 0
M  V30 6726 C 648.338 -0.786812 -2.19844 0
M  V30 6727 C 649.319 0.242935 -1.68356 0
M  V30 6728 O 650.504 0.107355 -1.93903 0
M  V30 6729 C 647.634 -0.224516 -3.46574 0
M  V30 6730 C 646.588 -1.18564 -4.1125 0
M  V30 6731 C 645.914 -0.484261 -5.32503 0
M  V30 6732 C 647.214 -2.53465 -4.56676 0
M  V30 6733 H 648.908 -1.68978 -2.47158 0
M  V30 6734 H 646.454 -0.813906 -1.18792 0
M  V30 6735 H 648.407 0.0139435 -4.21398 0
M  V30 6736 H 647.131 0.713722 -3.18706 0
M  V30 6737 H 645.79 -1.40966 -3.38414 0
M  V30 6738 H 645.438 0.458646 -5.00905 0
M  V30 6739 H 645.138 -1.12526 -5.76725 0
M  V30 6740 H 646.662 -0.254492 -6.10069 0
M  V30 6741 H 648.076 -2.35177 -5.22843 0
M  V30 6742 H 646.473 -3.13507 -5.11697 0
M  V30 6743 H 647.543 -3.13008 -3.70343 0
M  V30 6744 N 648.886 1.2938 -0.899927 0
M  V30 6745 C 650.163 1.9046 -0.445443 0
M  V30 6746 C 650.543 1.81683 1.07492 0
M  V30 6747 O 649.891 1.24371 1.91688 0
M  V30 6748 C 650.101 3.35529 -0.960279 0
M  V30 6749 C 651.449 4.12556 -1.00412 0
M  V30 6750 O 652.473 3.44434 -0.907965 0
M  V30 6751 O 651.332 5.34294 -1.14857 0
M  V30 6752 H 648.426 0.815253 -0.138893 0
M  V30 6753 H 650.972 1.37844 -0.989808 0
M  V30 6754 H 649.744 3.36074 -2.00425 0
M  V30 6755 H 649.367 3.95624 -0.395939 0
M  V30 6756 N 650.364 0.662433 1.43002 0
M  V30 6757 C 651.612 0.179237 2.01304 0
M  V30 6758 C 651.933 -1.21428 1.52579 0
M  V30 6759 O 651.203 -1.81294 0.742252 0
M  V30 6760 H 649.783 0.0632725 0.744316 0
M  V30 6761 H 652.445 0.856169 1.75088 0
M  V30 6762 H 651.541 0.170957 3.11631 0
M  V30 6763 N 651.842 -1.52309 0.404946 0
M  V30 6764 C 652.772 -2.29805 -0.41376 0
M  V30 6765 C 653.753 -1.3384 -1.0498 0
M  V30 6766 O 654.938 -1.62745 -1.05961 0
M  V30 6767 C 652.068 -3.11639 -1.53292 0
M  V30 6768 C 651.022 -4.15616 -1.02211 0
M  V30 6769 C 650.348 -4.8577 -2.23455 0
M  V30 6770 C 651.648 -5.2224 -0.0790725 0
M  V30 6771 H 653.342 -2.98493 0.232878 0
M  V30 6772 H 650.888 -1.43552 0.113441 0
M  V30 6773 H 652.841 -3.64618 -2.11262 0
M  V30 6774 H 651.565 -2.40712 -2.20738 0
M  V30 6775 H 650.224 -3.63641 -0.46484 0
M  V30 6776 H 649.872 -4.11376 -2.89445 0
M  V30 6777 H 649.572 -5.56058 -1.89929 0
M  V30 6778 H 651.096 -5.4156 -2.82038 0
M  V30 6779 H 652.51 -5.70485 -0.567438 0
M  V30 6780 H 650.907 -5.99867 0.167167 0
M  V30 6781 H 651.977 -4.77078 0.867447 0
M  V30 6782 N 653.32 -0.135238 -1.57019 0
M  V30 6783 C 654.252 0.839675 -2.13265 0
M  V30 6784 C 655.265 1.21887 -1.07923 0
M  V30 6785 O 656.454 1.16499 -1.35241 0
M  V30 6786 C 653.554 2.13647 -2.63075 0
M  V30 6787 C 652.727 1.92646 -3.92691 0
M  V30 6788 C 651.786 3.06205 -4.27931 0
M  V30 6789 O 650.812 2.78409 -4.96465 0
M  V30 6790 N 652.014 4.33072 -3.86561 0
M  V30 6791 H 654.779 0.359026 -2.97542 0
M  V30 6792 H 652.34 0.0486979 -1.61827 0
M  V30 6793 H 654.332 2.88641 -2.8367 0
M  V30 6794 H 652.902 2.5301 -1.83588 0
M  V30 6795 H 652.122 1.01754 -3.80841 0
M  V30 6796 H 653.41 1.75939 -4.77413 0
M  V30 6797 H 652.808 4.58526 -3.31316 0
M  V30 6798 H 651.365 5.04885 -4.12231 0
M  V30 6799 N 654.798 1.5699 0.138552 0
M  V30 6800 C 655.73 1.95515 1.1961 0
M  V30 6801 C 656.743 0.852002 1.38726 0
M  V30 6802 O 657.932 1.13038 1.38147 0
M  V30 6803 C 655.032 2.2213 2.55952 0
M  V30 6804 C 654.205 3.53424 2.57702 0
M  V30 6805 C 653.264 3.6848 3.75645 0
M  V30 6806 O 652.29 4.4079 3.60129 0
M  V30 6807 N 653.492 3.05777 4.93438 0
M  V30 6808 H 656.257 2.86838 0.868557 0
M  V30 6809 H 653.818 1.58542 0.328033 0
M  V30 6810 H 655.81 2.29435 3.33379 0
M  V30 6811 H 654.38 1.3703 2.80965 0
M  V30 6812 H 653.6 3.57484 1.6613 0
M  V30 6813 H 654.888 4.39759 2.55909 0
M  V30 6814 H 654.286 2.46961 5.08947 0
M  V30 6815 H 652.843 3.18631 5.6861 0
M  V30 6816 N 656.276 -0.40816 1.52223 0
M  V30 6817 C 657.553 -1.16807 1.56893 0
M  V30 6818 C 657.933 -2.08169 0.350537 0
M  V30 6819 O 657.281 -2.18684 -0.662536 0
M  V30 6820 C 657.491 -1.94451 2.8981 0
M  V30 6821 C 658.839 -2.50484 3.42845 0
M  V30 6822 O 659.863 -2.0463 2.91556 0
M  V30 6823 O 658.722 -3.34192 4.3241 0
M  V30 6824 H 655.816 -0.533382 0.632007 0
M  V30 6825 H 658.362 -0.414862 1.64551 0
M  V30 6826 H 657.134 -1.27527 3.69936 0
M  V30 6827 H 656.757 -2.76775 2.85449 0
M  V30 6828 N 657.755 -1.42862 -0.66545 0
M  V30 6829 C 658.985 -1.47032 -1.45138 0
M  V30 6830 C 659.393 -0.0829977 -1.89018 0
M  V30 6831 O 658.736 0.914551 -1.59316 0
M  V30 6832 C 658.798 -2.34302 -2.72659 0
M  V30 6833 C 658.462 -3.82034 -2.50796 0
M  V30 6834 C 659.459 -4.73453 -2.14799 0
M  V30 6835 C 657.144 -4.26397 -2.655 0
M  V30 6836 C 659.138 -6.07228 -1.93785 0
M  V30 6837 C 656.825 -5.6023 -2.44103 0
M  V30 6838 C 657.823 -6.50462 -2.08299 0
M  V30 6839 O 657.511 -7.8182 -1.87116 0
M  V30 6840 H 657.243 -0.501969 -0.452772 0
M  V30 6841 H 659.797 -1.88137 -0.82423 0
M  V30 6842 H 658.027 -1.88063 -3.37889 0
M  V30 6843 H 659.716 -2.29818 -3.34572 0
M  V30 6844 H 660.482 -4.4046 -2.03026 0
M  V30 6845 H 656.361 -3.56448 -2.92345 0
M  V30 6846 H 659.905 -6.7762 -1.65763 0
M  V30 6847 H 655.802 -5.92793 -2.55475 0
M  V30 6848 H 656.57 -7.93274 -2.01639 0
M  V30 6849 N 659.233 0.902656 -1.29189 0
M  V30 6850 C 660.482 1.6475 -1.16362 0
M  V30 6851 C 660.795 1.93517 0.284682 0
M  V30 6852 O 662.001 2.66192 0.534229 0
M  V30 6853 C 660.457 2.96848 -2.03493 0
M  V30 6854 C 660.065 2.75687 -3.5313 0
M  V30 6855 C 661.809 3.74762 -1.99383 0
M  V30 6856 C 659.716 4.03492 -4.32375 0
M  V30 6857 H 658.646 0.618041 -0.431904 0
M  V30 6858 H 661.297 1.0008 -1.53806 0
M  V30 6859 H 659.679 3.62715 -1.58916 0
M  V30 6860 H 660.853 2.18431 -4.05739 0
M  V30 6861 H 659.168 2.11171 -3.58881 0
M  V30 6862 H 661.765 4.69515 -2.5585 0
M  V30 6863 H 662.108 4.04767 -0.973123 0
M  V30 6864 H 662.641 3.15732 -2.41988 0
M  V30 6865 H 659.38 3.78656 -5.3507 0
M  V30 6866 H 658.9 4.60318 -3.84535 0
M  V30 6867 H 660.579 4.71662 -4.42881 0
M  V30 6868 N 660.711 1.11618 1.11262 0
M  V30 6869 C 662.127 0.850468 1.35053 0
M  V30 6870 C 662.327 -0.523868 1.94571 0
M  V30 6871 O 661.383 -1.2743 2.17986 0
M  V30 6872 C 662.696 1.96005 2.28041 0
M  V30 6873 C 664.244 1.98993 2.416 0
M  V30 6874 C 664.719 3.0916 3.37911 0
M  V30 6875 N 666.21 3.08547 3.45475 0
M  V30 6876 C 666.945 3.9043 4.19943 0
M  V30 6877 N 666.441 4.8228 4.97371 0
M  V30 6878 N 668.234 3.786 4.15474 0
M  V30 6879 H 660.385 2.00184 0.709932 0
M  V30 6880 H 662.648 0.870635 0.375099 0
M  V30 6881 H 662.354 2.9499 1.91503 0
M  V30 6882 H 662.228 1.85782 3.28275 0
M  V30 6883 H 664.615 1.00633 2.77411 0
M  V30 6884 H 664.696 2.13292 1.4121 0
M  V30 6885 H 664.34 4.07748 3.02827 0
M  V30 6886 H 664.27 2.92102 4.3816 0
M  V30 6887 H 666.761 2.42 2.90249 0
M  V30 6888 H 667.074 5.41289 5.51567 0
M  V30 6889 H 665.419 4.863 4.96525 0
M  V30 6890 H 668.61 3.06185 3.54074 0
M  V30 6891 H 668.783 4.42647 4.73253 0
M  V30 6892 N 662.189 -1.289 0.906776 0
M  V30 6893 C 663.136 -2.2751 0.388313 0
M  V30 6894 C 664.106 -1.57301 -0.533439 0
M  V30 6895 O 665.291 -1.85243 -0.457148 0
M  V30 6896 C 662.431 -3.43091 -0.37181 0
M  V30 6897 C 661.544 -4.28066 0.581647 0
M  V30 6898 C 660.679 -5.30837 -0.19623 0
M  V30 6899 C 659.718 -6.07472 0.751294 0
M  V30 6900 N 658.855 -7.021 0.00737727 0
M  V30 6901 H 663.695 -2.71237 1.23428 0
M  V30 6902 H 661.232 -1.33397 0.619962 0
M  V30 6903 H 663.19 -4.08888 -0.828641 0
M  V30 6904 H 661.82 -3.00374 -1.18218 0
M  V30 6905 H 660.872 -3.62378 1.157 0
M  V30 6906 H 662.184 -4.81382 1.30665 0
M  V30 6907 H 661.338 -6.02485 -0.71394 0
M  V30 6908 H 660.077 -4.78272 -0.954324 0
M  V30 6909 H 659.082 -5.34682 1.28044 0
M  V30 6910 H 660.307 -6.62126 1.50883 0
M  V30 6911 H 658.253 -6.51894 -0.732854 0
M  V30 6912 H 658.17 -7.53004 0.672334 0
M  V30 6913 H 659.438 -7.77956 -0.490365 0
M  V30 6914 N 663.667 -0.670007 -1.42649 0
M  V30 6915 C 664.63 0.00204659 -2.292 0
M  V30 6916 C 665.63 0.733817 -1.4308 0
M  V30 6917 O 666.82 0.57254 -1.64522 0
M  V30 6918 C 663.952 1.01359 -3.25483 0
M  V30 6919 H 665.145 -0.759696 -2.90118 0
M  V30 6920 H 662.698 -0.432105 -1.50208 0
M  V30 6921 H 663.433 1.80399 -2.69493 0
M  V30 6922 H 663.218 0.492323 -3.88997 0
M  V30 6923 H 664.708 1.4824 -3.90403 0
M  V30 6924 N 665.145 1.52092 -0.413018 0
M  V30 6925 C 666.055 2.30858 0.417318 0
M  V30 6926 C 667.071 1.38746 1.05003 0
M  V30 6927 O 668.247 1.71821 1.05069 0
M  V30 6928 C 665.312 3.11756 1.51687 0
M  V30 6929 C 664.373 4.19613 0.906825 0
M  V30 6930 C 663.606 4.96644 1.95399 0
M  V30 6931 O 663.829 4.7402 3.17271 0
M  V30 6932 O 662.763 5.81385 1.55805 0
M  V30 6933 H 666.589 3.02865 -0.225028 0
M  V30 6934 H 664.174 1.48358 -0.176126 0
M  V30 6935 H 666.056 3.62122 2.15512 0
M  V30 6936 H 664.731 2.42539 2.14375 0
M  V30 6937 H 663.638 3.73385 0.231183 0
M  V30 6938 H 664.971 4.91134 0.323814 0
M  V30 6939 N 666.623 0.143563 1.56945 0
M  V30 6940 C 667.853 -0.514699 2.00086 0
M  V30 6941 C 668.261 -1.59184 1.0226 0
M  V30 6942 O 667.604 -1.83697 0.0110514 0
M  V30 6943 C 667.666 -1.17778 3.39659 0
M  V30 6944 C 667.33 -0.245657 4.56339 0
M  V30 6945 C 668.327 0.525343 5.17239 0
M  V30 6946 C 666.012 -0.149564 5.02077 0
M  V30 6947 C 668.006 1.37992 6.22284 0
M  V30 6948 C 665.693 0.708621 6.06978 0
M  V30 6949 C 666.691 1.47197 6.6695 0
M  V30 6950 O 666.379 2.31586 7.6982 0
M  V30 6951 H 666.111 -0.138789 0.661599 0
M  V30 6952 H 668.665 0.234098 2.04062 0
M  V30 6953 H 666.895 -1.97415 3.32512 0
M  V30 6954 H 668.584 -1.73542 3.6693 0
M  V30 6955 H 669.35 0.461118 4.82803 0
M  V30 6956 H 665.229 -0.733457 4.55128 0
M  V30 6957 H 668.773 1.97621 6.69023 0
M  V30 6958 H 664.67 0.77415 6.40841 0
M  V30 6959 H 665.438 2.24796 7.87025 0
M  V30 6960 N 668.101 -1.57061 -0.130224 0
M  V30 6961 C 669.512 -1.73539 -0.68856 0
M  V30 6962 C 669.863 -0.760554 -1.80859 0
M  V30 6963 O 668.988 0.0690796 -2.1629 0
M  V30 6964 C 669.583 -3.14666 -1.25581 0
M  V30 6965 C 668.142 -3.32689 -1.76055 0
M  V30 6966 C 667.289 -2.69436 -0.655712 0
M  V30 6967 H 670.24 -1.58412 0.0956002 0
M  V30 6968 H 670.261 -3.15595 -2.12556 0
M  V30 6969 H 669.773 -3.85593 -0.440412 0
M  V30 6970 H 667.874 -2.66786 -2.60108 0
M  V30 6971 H 667.987 -4.4077 -1.87772 0
M  V30 6972 H 666.351 -2.30362 -1.08654 0
M  V30 6973 H 667.134 -3.42979 0.14852 0
M  V30 6974 N 669.579 0.400081 -1.52437 0
M  V30 6975 C 670.826 1.14619 -1.6694 0
M  V30 6976 C 671.154 1.90262 -0.403797 0
M  V30 6977 O 670.409 1.85835 0.61351 0
M  V30 6978 C 670.708 2.15914 -2.84808 0
M  V30 6979 C 670.374 1.57011 -4.2268 0
M  V30 6980 C 669.036 1.40672 -4.60179 0
M  V30 6981 C 671.388 1.14081 -5.08562 0
M  V30 6982 C 668.716 0.799335 -5.81229 0
M  V30 6983 C 671.068 0.547573 -6.30226 0
M  V30 6984 C 669.732 0.371389 -6.66466 0
M  V30 6985 H 669.002 0.419419 -0.610875 0
M  V30 6986 H 671.649 0.432227 -1.86558 0
M  V30 6987 H 669.954 2.93488 -2.59561 0
M  V30 6988 H 671.651 2.73533 -2.93225 0
M  V30 6989 H 668.241 1.70713 -3.93135 0
M  V30 6990 H 672.425 1.2551 -4.80168 0
M  V30 6991 H 667.681 0.65093 -6.07925 0
M  V30 6992 H 671.855 0.206575 -6.96094 0
M  V30 6993 H 669.482 -0.10135 -7.60132 0
M  V30 6994 N 671.057 1.43213 0.657864 0
M  V30 6995 C 672.282 1.48227 1.45064 0
M  V30 6996 C 672.707 0.0999939 1.87834 0
M  V30 6997 O 672.065 -0.905269 1.57081 0
M  V30 6998 C 672.113 2.42931 2.6649 0
M  V30 6999 O 671.217 1.91237 3.6538 0
M  V30 7000 H 670.558 0.501551 0.435135 0
M  V30 7001 H 673.088 1.8808 0.805431 0
M  V30 7002 H 673.098 2.6008 3.1436 0
M  V30 7003 H 671.773 3.43348 2.34701 0
M  V30 7004 H 670.35 1.83726 3.24498 0
M  V30 7005 N 672.536 -0.895792 1.29666 0
M  V30 7006 C 673.761 -1.68528 1.20885 0
M  V30 7007 C 674.186 -1.8673 -0.226595 0
M  V30 7008 O 673.544 -1.39044 -1.16347 0
M  V30 7009 C 673.592 -3.04512 1.93144 0
M  V30 7010 O 672.696 -3.92963 1.25115 0
M  V30 7011 H 672.037 -0.515371 0.418675 0
M  V30 7012 H 674.567 -1.11878 1.71302 0
M  V30 7013 H 674.577 -3.54628 2.0175 0
M  V30 7014 H 673.252 -2.90582 2.97548 0
M  V30 7015 H 671.829 -3.51399 1.24794 0
M  V30 7016 N 674.014 -1.12206 -1.10668 0
M  V30 7017 C 674.924 -0.800686 -2.20513 0
M  V30 7018 C 675.94 0.209512 -1.72734 0
M  V30 7019 O 677.116 0.043705 -2.01353 0
M  V30 7020 C 674.181 -0.257353 -3.45744 0
M  V30 7021 C 673.242 -1.32718 -4.0827 0
M  V30 7022 C 672.475 -0.809674 -5.27522 0
M  V30 7023 O 672.698 0.35742 -5.69279 0
M  V30 7024 O 671.632 -1.57816 -5.80842 0
M  V30 7025 H 675.458 -1.71807 -2.50432 0
M  V30 7026 H 673.043 -0.898546 -1.19359 0
M  V30 7027 H 674.925 0.0408849 -4.2138 0
M  V30 7028 H 673.6 0.632627 -3.17458 0
M  V30 7029 H 672.507 -1.67855 -3.34329 0
M  V30 7030 H 673.84 -2.19083 -4.40753 0
M  V30 7031 N 675.492 1.28418 -0.913599 0
M  V30 7032 C 676.424 2.26368 -0.359169 0
M  V30 7033 C 677.437 1.54858 0.502285 0
M  V30 7034 O 678.626 1.75659 0.31719 0
M  V30 7035 C 675.726 3.35112 0.50526 0
M  V30 7036 C 674.899 4.36126 -0.333648 0
M  V30 7037 C 673.958 5.24134 0.465845 0
M  V30 7038 O 672.984 5.6907 -0.121538 0
M  V30 7039 N 674.186 5.52892 1.76891 0
M  V30 7040 H 676.951 2.74579 -1.2011 0
M  V30 7041 H 674.512 1.41898 -0.779532 0
M  V30 7042 H 676.504 3.90926 1.04684 0
M  V30 7043 H 675.074 2.86611 1.2479 0
M  V30 7044 H 674.294 3.79776 -1.0566 0
M  V30 7045 H 675.582 5.00638 -0.907669 0
M  V30 7046 H 674.98 5.18217 2.26865 0
M  V30 7047 H 673.537 6.11464 2.25732 0
M  V30 7048 N 676.97 0.677563 1.42291 0
M  V30 7049 C 677.917 0.000947061 2.308 0
M  V30 7050 C 678.887 -0.789889 1.46116 0
M  V30 7051 O 680.072 -0.761578 1.74942 0
M  V30 7052 C 677.212 -0.942387 3.31984 0
M  V30 7053 C 676.325 -0.14508 4.31756 0
M  V30 7054 C 675.46 -1.08442 5.20013 0
M  V30 7055 C 674.499 -0.278958 6.11464 0
M  V30 7056 N 673.636 -1.17115 6.92263 0
M  V30 7057 H 678.476 0.761521 2.88106 0
M  V30 7058 H 676.013 0.38727 1.41911 0
M  V30 7059 H 677.971 -1.50317 3.89179 0
M  V30 7060 H 676.601 -1.66956 2.76271 0
M  V30 7061 H 675.653 0.532368 3.76656 0
M  V30 7062 H 676.965 0.48015 4.96484 0
M  V30 7063 H 676.119 -1.71504 5.81955 0
M  V30 7064 H 674.858 -1.74353 4.55469 0
M  V30 7065 H 673.863 0.364856 5.48588 0
M  V30 7066 H 675.088 0.376099 6.78058 0
M  V30 7067 H 673.034 -1.81661 6.30345 0
M  V30 7068 H 672.951 -0.601063 7.53607 0
M  V30 7069 H 674.219 -1.78915 7.58689 0
M  V30 7070 N 678.448 -1.51871 0.421078 0
M  V30 7071 C 679.694 -2.02894 -0.143346 0
M  V30 7072 C 680.049 -1.30054 -1.41787 0
M  V30 7073 O 679.342 -0.401776 -1.8734 0
M  V30 7074 C 679.536 -3.54764 -0.433292 0
M  V30 7075 C 679.365 -4.42316 0.811584 0
M  V30 7076 C 678.135 -4.872 1.34033 0
M  V30 7077 C 680.333 -4.85631 1.69313 0
M  V30 7078 N 678.315 -5.58915 2.53944 0
M  V30 7079 C 679.686 -5.56248 2.7384 0
M  V30 7080 C 681.741 -4.67634 1.70947 0
M  V30 7081 C 680.444 -6.10777 3.79927 0
M  V30 7082 C 682.47 -5.23068 2.7596 0
M  V30 7083 C 681.832 -5.93617 3.79207 0
M  V30 7084 H 677.931 -0.78188 -0.0137104 0
M  V30 7085 H 680.515 -1.85919 0.578105 0
M  V30 7086 H 678.686 -3.71787 -1.12378 0
M  V30 7087 H 680.418 -3.92464 -0.987644 0
M  V30 7088 H 677.173 -4.65035 0.896606 0
M  V30 7089 H 677.597 -5.99408 3.14704 0
M  V30 7090 H 682.239 -4.12566 0.9246 0
M  V30 7091 H 679.957 -6.64909 4.59262 0
M  V30 7092 H 683.543 -5.11005 2.78147 0
M  V30 7093 H 682.423 -6.35743 4.5913 0
M  V30 7094 N 679.926 -0.151884 -1.56866 0
M  V30 7095 C 680.859 0.824094 -2.128 0
M  V30 7096 C 681.837 1.2391 -1.05286 0
M  V30 7097 O 683.021 1.33433 -1.33146 0
M  V30 7098 C 680.148 2.1072 -2.65169 0
M  V30 7099 C 679.194 1.83774 -3.84876 0
M  V30 7100 S 680.027 1.02436 -5.25611 0
M  V30 7101 C 681.183 2.31855 -5.81373 0
M  V30 7102 H 681.416 0.348456 -2.95251 0
M  V30 7103 H 678.949 0.0624794 -1.54274 0
M  V30 7104 H 680.907 2.84428 -2.95992 0
M  V30 7105 H 679.568 2.55398 -1.8284 0
M  V30 7106 H 678.761 2.78929 -4.19779 0
M  V30 7107 H 678.363 1.18172 -3.5484 0
M  V30 7108 H 680.655 3.27469 -5.93102 0
M  V30 7109 H 681.598 2.01449 -6.7884 0
M  V30 7110 H 682.006 2.42727 -5.09651 0
M  V30 7111 N 681.404 1.57128 0.121893 0
M  V30 7112 C 682.367 1.99197 1.13372 0
M  V30 7113 C 683.367 0.881728 1.3447 0
M  V30 7114 O 684.557 1.14783 1.31036 0
M  V30 7115 C 681.689 2.32963 2.4888 0
M  V30 7116 H 682.882 2.89788 0.772204 0
M  V30 7117 H 680.435 1.51952 0.366093 0
M  V30 7118 H 681.17 1.45243 2.89957 0
M  V30 7119 H 680.955 3.13934 2.34921 0
M  V30 7120 H 682.445 2.66261 3.21706 0
M  V30 7121 N 682.882 -0.391992 1.52647 0
M  V30 7122 C 684.128 -1.139 1.67793 0
M  V30 7123 C 684.461 -1.89711 0.41514 0
M  V30 7124 O 683.736 -1.85431 -0.586979 0
M  V30 7125 C 684.019 -2.11966 2.91105 0
M  V30 7126 C 683.872 -1.39939 4.27478 0
M  V30 7127 C 685.191 -3.1243 3.09961 0
M  V30 7128 H 682.31 -0.412707 0.610608 0
M  V30 7129 H 684.952 -0.422725 1.85238 0
M  V30 7130 H 683.102 -2.73048 2.76364 0
M  V30 7131 H 684.774 -0.818439 4.53982 0
M  V30 7132 H 683.017 -0.701246 4.28095 0
M  V30 7133 H 683.688 -2.1158 5.09841 0
M  V30 7134 H 686.164 -2.61435 3.23714 0
M  V30 7135 H 685.04 -3.78294 3.97725 0
M  V30 7136 H 685.301 -3.81127 2.24042 0
M  V30 7137 N 684.36 -1.4356 -0.65026 0
M  V30 7138 C 685.307 -1.48948 -1.76304 0
M  V30 7139 C 686.277 -0.338919 -1.62605 0
M  V30 7140 O 687.462 -0.54649 -1.82806 0
M  V30 7141 C 684.602 -1.42131 -3.14472 0
M  V30 7142 C 683.715 -2.67415 -3.39284 0
M  V30 7143 C 682.85 -2.52565 -4.67316 0
M  V30 7144 C 681.889 -3.73103 -4.85243 0
M  V30 7145 N 681.026 -3.57046 -6.04535 0
M  V30 7146 H 685.866 -2.44032 -1.71034 0
M  V30 7147 H 683.403 -1.21131 -0.834601 0
M  V30 7148 H 685.361 -1.36172 -3.94351 0
M  V30 7149 H 683.991 -0.506273 -3.18805 0
M  V30 7150 H 683.043 -2.8364 -2.53481 0
M  V30 7151 H 684.355 -3.56943 -3.48415 0
M  V30 7152 H 683.509 -2.44331 -5.55326 0
M  V30 7153 H 682.248 -1.60566 -4.60511 0
M  V30 7154 H 681.253 -3.81743 -3.95667 0
M  V30 7155 H 682.478 -4.66115 -4.93876 0
M  V30 7156 H 680.424 -2.67783 -5.98856 0
M  V30 7157 H 680.341 -4.40178 -6.14638 0
M  V30 7158 H 681.609 -3.52669 -6.95158 0
M  V30 7159 N 685.838 0.888903 -1.30139 0
M  V30 7160 C 687.078 1.65456 -1.20015 0
M  V30 7161 C 687.442 1.90467 0.242148 0
M  V30 7162 O 688.643 2.6472 0.466561 0
M  V30 7163 C 686.914 2.96071 -2.00191 0
M  V30 7164 S 688.473 3.87055 -2.06721 0
M  V30 7165 H 685.291 0.567927 -0.427761 0
M  V30 7166 H 687.893 1.05539 -1.64565 0
M  V30 7167 H 686.597 2.7559 -3.04103 0
M  V30 7168 H 686.128 3.61023 -1.56288 0
M  V30 7169 H 688.143 4.81676 -1.19174 0
M  V30 7170 N 687.317 1.12792 1.10072 0
M  V30 7171 C 688.563 0.886857 1.82381 0
M  V30 7172 C 688.896 -0.58576 1.85155 0
M  V30 7173 O 688.171 -1.43317 1.31493 0
M  V30 7174 C 688.454 1.46703 3.28862 0
M  V30 7175 C 688.307 3.00829 3.34398 0
M  V30 7176 C 689.626 1.12971 4.25353 0
M  V30 7177 H 686.745 0.32362 0.662148 0
M  V30 7178 H 689.387 1.39513 1.28982 0
M  V30 7179 H 687.537 1.03476 3.74466 0
M  V30 7180 H 689.209 3.52764 2.97247 0
M  V30 7181 H 687.452 3.36164 2.74183 0
M  V30 7182 H 688.123 3.36519 4.3756 0
M  V30 7183 H 690.599 1.50313 3.88001 0
M  V30 7184 H 689.475 1.56223 5.26199 0
M  V30 7185 H 689.736 0.0424452 4.4208 0
M  V30 7186 N 688.795 -1.27931 0.920396 0
M  V30 7187 C 689.745 -2.24727 0.384966 0
M  V30 7188 C 690.729 -1.52715 -0.506661 0
M  V30 7189 O 691.921 -1.73599 -0.345298 0
M  V30 7190 C 689.05 -3.41324 -0.3678 0
M  V30 7191 C 688.136 -4.20649 0.539925 0
M  V30 7192 N 688.527 -4.77906 1.6565 0
M  V30 7193 C 686.825 -4.4469 0.341557 0
M  V30 7194 C 687.526 -5.37652 2.22047 0
M  V30 7195 N 686.502 -5.2218 1.51093 0
M  V30 7196 H 690.304 -2.66572 1.23761 0
M  V30 7197 H 687.818 -1.42779 0.773819 0
M  V30 7198 H 689.815 -4.0976 -0.768277 0
M  V30 7199 H 688.475 -3.01012 -1.21746 0
M  V30 7200 H 689.486 -4.76073 2.03899 0
M  V30 7201 H 686.163 -4.14868 -0.468045 0
M  V30 7202 H 687.553 -5.92948 3.1601 0
M  V30 7203 N 690.273 -0.685099 -1.4193 0
M  V30 7204 C 691.689 -0.355632 -1.55587 0
M  V30 7205 C 691.889 1.13823 -1.66273 0
M  V30 7206 O 690.945 1.92387 -1.63534 0
M  V30 7207 C 692.258 -1.09498 -2.80055 0
M  V30 7208 C 693.806 -1.07831 -2.93839 0
M  V30 7209 C 694.281 -1.79919 -4.21181 0
M  V30 7210 N 695.772 -1.76837 -4.28115 0
M  V30 7211 C 696.507 -2.29463 -5.25485 0
M  V30 7212 N 696.003 -2.90516 -6.28945 0
M  V30 7213 N 697.796 -2.19779 -5.17353 0
M  V30 7214 H 689.947 -1.65412 -1.33239 0
M  V30 7215 H 692.21 -0.697453 -0.642078 0
M  V30 7216 H 691.916 -2.14997 -2.78333 0
M  V30 7217 H 691.79 -0.666813 -3.71259 0
M  V30 7218 H 694.177 -0.0316152 -2.95083 0
M  V30 7219 H 694.258 -1.54545 -2.03837 0
M  V30 7220 H 693.902 -2.84562 -4.20698 0
M  V30 7221 H 693.832 -1.30647 -5.10136 0
M  V30 7222 H 696.323 -1.32315 -3.53979 0
M  V30 7223 H 696.636 -3.28266 -6.99615 0
M  V30 7224 H 694.981 -2.94589 -6.29478 0
M  V30 7225 H 698.172 -1.71763 -4.35448 0
M  V30 7226 H 698.345 -2.61097 -5.9307 0
M  V30 7227 N 691.751 1.51645 -0.429126 0
M  V30 7228 C 692.979 2.06433 0.138994 0
M  V30 7229 C 693.394 1.29735 1.37165 0
M  V30 7230 O 692.751 0.354638 1.79021 0
M  V30 7231 C 692.802 3.58439 0.469452 0
M  V30 7232 O 692.523 4.32238 -0.714273 0
M  V30 7233 C 694.024 4.29712 1.08914 0
M  V30 7234 H 691.244 0.6709 0.0115608 0
M  V30 7235 H 693.788 1.9532 -0.605843 0
M  V30 7236 H 691.943 3.69494 1.16419 0
M  V30 7237 H 692.357 5.22704 -0.433633 0
M  V30 7238 H 693.831 5.37182 1.27042 0
M  V30 7239 H 694.308 3.87473 2.06788 0
M  V30 7240 H 694.914 4.2308 0.434028 0
M  V30 7241 N 693.229 0.160201 1.56784 0
M  V30 7242 C 694.161 -0.80564 2.14574 0
M  V30 7243 C 695.174 -1.20154 1.09849 0
M  V30 7244 O 696.363 -1.14333 1.37078 0
M  V30 7245 C 693.463 -2.09434 2.6644 0
M  V30 7246 C 692.636 -1.86375 3.95706 0
M  V30 7247 C 691.695 -2.99358 4.32749 0
M  V30 7248 O 690.721 -2.70475 5.00831 0
M  V30 7249 N 691.923 -4.26867 3.93402 0
M  V30 7250 H 694.688 -0.311644 2.98075 0
M  V30 7251 H 692.249 -0.0229465 1.61884 0
M  V30 7252 H 694.241 -2.84091 2.88226 0
M  V30 7253 H 692.811 -2.50057 1.8759 0
M  V30 7254 H 692.031 -0.956821 3.82412 0
M  V30 7255 H 693.319 -1.68322 4.80151 0
M  V30 7256 H 692.717 -4.53197 3.38569 0
M  V30 7257 H 691.274 -4.98263 4.20211 0
M  V30 7258 N 694.707 -1.5719 -0.113559 0
M  V30 7259 C 695.639 -1.97393 -1.16484 0
M  V30 7260 C 696.652 -0.873964 -1.37352 0
M  V30 7261 O 697.841 -1.15222 -1.36331 0
M  V30 7262 C 694.941 -2.26174 -2.52386 0
M  V30 7263 C 694.114 -3.57479 -2.52046 0
M  V30 7264 C 693.173 -3.74409 -3.69735 0
M  V30 7265 O 692.199 -4.46463 -3.53071 0
M  V30 7266 N 693.401 -3.13588 -4.88511 0
M  V30 7267 H 696.166 -2.88184 -0.822814 0
M  V30 7268 H 693.727 -1.59044 -0.302769 0
M  V30 7269 H 695.719 -2.3471 -3.29687 0
M  V30 7270 H 694.289 -1.41483 -2.7875 0
M  V30 7271 H 693.509 -3.60081 -1.60421 0
M  V30 7272 H 694.797 -4.43775 -2.48881 0
M  V30 7273 H 694.195 -2.55026 -5.04953 0
M  V30 7274 H 692.752 -3.27637 -5.63469 0
M  V30 7275 N 696.185 0.383891 -1.52853 0
M  V30 7276 C 697.462 1.14296 -1.58732 0
M  V30 7277 C 697.842 2.07585 -0.383611 0
M  V30 7278 O 697.19 2.1971 0.627661 0
M  V30 7279 C 697.4 1.89816 -2.92867 0
M  V30 7280 C 698.748 2.44998 -3.46787 0
M  V30 7281 O 699.772 1.99966 -2.94774 0
M  V30 7282 O 698.631 3.2727 -4.37672 0
M  V30 7283 H 695.725 0.52326 -0.640413 0
M  V30 7284 H 698.271 0.388631 -1.6519 0
M  V30 7285 H 697.043 1.21626 -3.71918 0
M  V30 7286 H 696.666 2.72199 -2.89816 0
M  V30 7287 N 697.663 1.43903 0.642637 0
M  V30 7288 C 699.079 1.27536 0.959519 0
M  V30 7289 C 699.279 0.202751 2.00477 0
M  V30 7290 O 698.335 -0.415256 2.49062 0
M  V30 7291 C 699.648 2.6432 1.43372 0
M  V30 7292 C 701.196 2.71937 1.54981 0
M  V30 7293 C 701.671 4.09164 2.05789 0
M  V30 7294 N 703.162 4.11282 2.13076 0
M  V30 7295 C 703.897 5.14303 2.53534 0
M  V30 7296 N 703.393 6.27693 2.93212 0
M  V30 7297 N 705.186 5.01657 2.53567 0
M  V30 7298 H 697.337 2.12344 -0.0488376 0
M  V30 7299 H 699.6 0.947124 0.0407559 0
M  V30 7300 H 699.306 3.43826 0.740048 0
M  V30 7301 H 699.18 2.90432 2.40685 0
M  V30 7302 H 701.567 1.92757 2.23448 0
M  V30 7303 H 701.648 2.49578 0.560739 0
M  V30 7304 H 701.292 4.88815 1.37921 0
M  V30 7305 H 701.222 4.28893 3.05546 0
M  V30 7306 H 703.713 3.2944 1.85143 0
M  V30 7307 H 704.026 7.02125 3.22863 0
M  V30 7308 H 702.371 6.31149 2.90991 0
M  V30 7309 H 705.562 4.12134 2.21952 0
M  V30 7310 H 705.735 5.82072 2.84774 0
M  V30 7311 N 699.141 -0.881989 1.30609 0
M  V30 7312 C 700.552 -1.44956 1.17664 0
M  V30 7313 C 700.903 -1.94945 -0.221531 0
M  V30 7314 O 700.028 -1.85257 -1.11844 0
M  V30 7315 C 700.623 -2.63474 2.12995 0
M  V30 7316 C 699.182 -3.16312 2.04019 0
M  V30 7317 C 698.329 -1.89008 2.02907 0
M  V30 7318 H 701.28 -0.691645 1.42835 0
M  V30 7319 H 701.301 -3.39783 1.71253 0
M  V30 7320 H 700.813 -2.2706 3.14746 0
M  V30 7321 H 698.914 -3.57376 1.0542 0
M  V30 7322 H 699.027 -3.79409 2.9255 0
M  V30 7323 H 697.391 -2.07465 1.47751 0
M  V30 7324 H 698.174 -1.54848 3.06394 0
M  V30 7325 N 700.619 -1.13374 -1.09472 0
M  V30 7326 C 701.529 -0.824029 -2.19652 0
M  V30 7327 C 702.545 0.19118 -1.72947 0
M  V30 7328 O 703.721 0.0223464 -2.01388 0
M  V30 7329 C 700.786 -0.294009 -3.45451 0
M  V30 7330 C 699.847 -1.3704 -4.0684 0
M  V30 7331 C 699.08 -0.86558 -5.26634 0
M  V30 7332 O 699.303 0.29702 -5.69626 0
M  V30 7333 O 698.237 -1.63968 -5.79136 0
M  V30 7334 H 702.063 -1.74454 -2.48595 0
M  V30 7335 H 699.648 -0.911155 -1.18399 0
M  V30 7336 H 701.53 -0.00381039 -4.214 0
M  V30 7337 H 700.205 0.598921 -3.18111 0
M  V30 7338 H 699.112 -1.71391 -3.3253 0
M  V30 7339 H 700.445 -2.23746 -4.38405 0
M  V30 7340 N 702.098 1.27442 -0.927168 0
M  V30 7341 C 703.347 1.93679 -0.563146 0
M  V30 7342 C 703.66 1.73673 0.899837 0
M  V30 7343 O 704.866 2.34247 1.37262 0
M  V30 7344 C 703.322 3.46961 -0.95636 0
M  V30 7345 C 702.93 3.75724 -2.43999 0
M  V30 7346 C 704.674 4.19282 -0.663565 0
M  V30 7347 C 702.581 5.22378 -2.77263 0
M  V30 7348 H 701.511 0.725059 -0.206894 0
M  V30 7349 H 704.162 1.44743 -1.12791 0
M  V30 7350 H 702.544 3.94703 -0.320254 0
M  V30 7351 H 703.718 3.38741 -3.12396 0
M  V30 7352 H 702.033 3.16605 -2.70463 0
M  V30 7353 H 704.63 5.27265 -0.888596 0
M  V30 7354 H 704.973 4.14382 0.399198 0
M  V30 7355 H 705.506 3.7736 -1.25875 0
M  V30 7356 H 702.245 5.32367 -3.82446 0
M  V30 7357 H 701.765 5.6051 -2.13516 0
M  V30 7358 H 703.444 5.9025 -2.64979 0
M  V30 7359 N 703.576 0.692616 1.41565 0
M  V30 7360 C 704.816 0.226453 2.03142 0
M  V30 7361 C 705.18 -1.1512 1.5366 0
M  V30 7362 O 706.381 -1.71305 2.07143 0
M  V30 7363 C 704.652 0.27855 3.56313 0
M  V30 7364 S 706.211 -0.114001 4.38652 0
M  V30 7365 H 703.029 0.0914767 0.705091 0
M  V30 7366 H 705.631 0.909737 1.73043 0
M  V30 7367 H 704.335 1.28325 3.89821 0
M  V30 7368 H 703.866 -0.423981 3.91109 0
M  V30 7369 H 705.881 -1.34256 4.77692 0
M  V30 7370 N 705.054 -1.51416 0.437162 0
M  V30 7371 C 706.301 -2.02086 -0.129364 0
M  V30 7372 C 706.629 -1.32133 -1.42728 0
M  V30 7373 O 705.884 -0.424916 -1.91031 0
M  V30 7374 C 706.183 -3.55203 -0.39564 0
M  V30 7375 C 705.849 -4.43447 0.81644 0
M  V30 7376 C 704.511 -4.67285 1.14884 0
M  V30 7377 C 706.863 -4.95219 1.62503 0
M  V30 7378 C 704.191 -5.40141 2.29052 0
M  V30 7379 C 706.543 -5.69327 2.7577 0
M  V30 7380 C 705.207 -5.91429 3.09464 0
M  V30 7381 H 704.477 -0.739486 -0.0473375 0
M  V30 7382 H 707.124 -1.82368 0.584321 0
M  V30 7383 H 705.429 -3.73252 -1.19121 0
M  V30 7384 H 707.126 -3.91944 -0.847399 0
M  V30 7385 H 703.716 -4.2509 0.547422 0
M  V30 7386 H 707.9 -4.76686 1.38144 0
M  V30 7387 H 703.156 -5.55468 2.55471 0
M  V30 7388 H 707.33 -6.08433 3.38795 0
M  V30 7389 H 704.957 -6.47662 3.98042 0
M  V30 7390 N 706.532 -0.168513 -1.56696 0
M  V30 7391 C 707.465 0.801477 -2.13662 0
M  V30 7392 C 708.443 1.22786 -1.06594 0
M  V30 7393 O 709.627 1.32014 -1.34554 0
M  V30 7394 C 706.754 2.07896 -2.6739 0
M  V30 7395 C 705.8 1.79681 -3.86803 0
M  V30 7396 S 706.633 0.968556 -5.26668 0
M  V30 7397 C 707.789 2.25676 -5.83799 0
M  V30 7398 H 708.022 0.317121 -2.95604 0
M  V30 7399 H 705.555 0.0461132 -1.54331 0
M  V30 7400 H 707.513 2.81272 -2.98992 0
M  V30 7401 H 706.174 2.53445 -1.85539 0
M  V30 7402 H 705.367 2.74461 -4.22714 0
M  V30 7403 H 704.969 1.14402 -3.56073 0
M  V30 7404 H 707.261 3.2116 -5.96542 0
M  V30 7405 H 708.204 1.94238 -6.80939 0
M  V30 7406 H 708.612 2.37308 -5.12197 0
M  V30 7407 N 708.01 1.57248 0.105221 0
M  V30 7408 C 708.957 2.01338 1.12835 0
M  V30 7409 C 709.927 0.887897 1.40377 0
M  V30 7410 O 711.112 1.15315 1.5201 0
M  V30 7411 C 708.252 2.43432 2.44611 0
M  V30 7412 C 707.365 3.69457 2.23888 0
M  V30 7413 C 706.5 4.00473 3.48991 0
M  V30 7414 C 705.539 5.19638 3.23485 0
M  V30 7415 N 704.676 5.46457 4.40828 0
M  V30 7416 H 709.516 2.88527 0.745386 0
M  V30 7417 H 707.053 1.42714 0.356535 0
M  V30 7418 H 709.011 2.65879 3.21503 0
M  V30 7419 H 707.641 1.59266 2.80774 0
M  V30 7420 H 706.693 3.54545 1.37847 0
M  V30 7421 H 708.005 4.56497 2.01026 0
M  V30 7422 H 707.159 4.23642 4.34295 0
M  V30 7423 H 705.898 3.11935 3.74897 0
M  V30 7424 H 704.903 4.96299 2.36574 0
M  V30 7425 H 706.128 6.09766 2.98935 0
M  V30 7426 H 704.074 4.60876 4.66829 0
M  V30 7427 H 703.991 6.27849 4.2112 0
M  V30 7428 H 705.259 5.74155 5.27225 0
M  V30 7429 N 709.488 -0.375779 1.53054 0
M  V30 7430 C 710.736 -1.11727 1.68409 0
M  V30 7431 C 711.057 -1.90127 0.43323 0
M  V30 7432 O 710.327 -1.87945 -0.552595 0
M  V30 7433 H 708.907 -0.415451 0.620813 0
M  V30 7434 H 711.569 -0.424869 1.90213 0
M  V30 7435 H 710.665 -1.8128 2.54055 0
M  V30 7436 N 710.966 -1.44241 -0.634997 0
M  V30 7437 C 711.929 -1.50457 -1.72903 0
M  V30 7438 C 712.929 -0.387058 -1.56072 0
M  V30 7439 O 714.119 -0.649531 -1.61638 0
M  V30 7440 C 711.251 -1.37477 -3.1195 0
M  V30 7441 H 712.444 -2.47907 -1.68767 0
M  V30 7442 H 709.997 -1.31276 -0.84831 0
M  V30 7443 H 710.732 -0.41106 -3.21684 0
M  V30 7444 H 710.517 -2.18506 -3.25573 0
M  V30 7445 H 712.007 -1.44799 -3.91692 0
M  V30 7446 N 712.444 0.87505 -1.31075 0
M  V30 7447 C 713.674 1.65818 -1.2324 0
M  V30 7448 C 714.082 1.8808 0.205536 0
M  V30 7449 O 713.425 1.43548 1.14628 0
M  V30 7450 C 713.487 3.05131 -1.90093 0
M  V30 7451 C 713.151 3.05999 -3.39432 0
M  V30 7452 C 714.148 2.84328 -4.35263 0
M  V30 7453 C 711.833 3.27281 -3.81041 0
M  V30 7454 C 713.827 2.83912 -5.70678 0
M  V30 7455 C 711.514 3.26493 -5.16571 0
M  V30 7456 C 712.512 3.04834 -6.112 0
M  V30 7457 O 712.2 3.03882 -7.44252 0
M  V30 7458 H 711.932 0.52387 -0.427242 0
M  V30 7459 H 714.486 1.10086 -1.73408 0
M  V30 7460 H 712.716 3.62568 -1.34468 0
M  V30 7461 H 714.405 3.65641 -1.76242 0
M  V30 7462 H 715.171 2.67673 -4.04445 0
M  V30 7463 H 711.05 3.43171 -3.07822 0
M  V30 7464 H 714.594 2.66925 -6.44513 0
M  V30 7465 H 710.491 3.42687 -5.47025 0
M  V30 7466 H 711.259 3.19979 -7.53363 0
M  V30 7467 N 713.922 1.13953 1.08869 0
M  V30 7468 C 714.832 0.835666 2.19212 0
M  V30 7469 C 715.848 -0.182005 1.73045 0
M  V30 7470 O 717.024 -0.0116661 2.01397 0
M  V30 7471 C 714.089 0.312325 3.4529 0
M  V30 7472 C 713.15 1.39196 4.06107 0
M  V30 7473 C 712.383 0.893496 5.26168 0
M  V30 7474 O 712.606 -0.266807 5.69776 0
M  V30 7475 O 711.54 1.67037 5.78258 0
M  V30 7476 H 715.366 1.75769 2.47667 0
M  V30 7477 H 712.951 0.917421 1.17914 0
M  V30 7478 H 714.833 0.0261582 4.21392 0
M  V30 7479 H 713.508 -0.582042 3.18424 0
M  V30 7480 H 712.415 1.73152 3.31616 0
M  V30 7481 H 713.748 2.26068 4.37212 0
M  V30 7482 N 715.4 -1.26948 0.933913 0
M  V30 7483 C 716.332 -2.25768 0.395137 0
M  V30 7484 C 717.345 -1.55637 -0.477585 0
M  V30 7485 O 718.534 -1.76142 -0.289204 0
M  V30 7486 C 715.634 -3.35874 -0.451882 0
M  V30 7487 C 714.807 -4.3554 0.40299 0
M  V30 7488 C 713.866 -5.24809 -0.3824 0
M  V30 7489 O 712.892 -5.68805 0.212057 0
M  V30 7490 N 714.094 -5.55636 -1.68072 0
M  V30 7491 H 716.859 -2.72634 1.24463 0
M  V30 7492 H 714.42 -1.40639 0.802008 0
M  V30 7493 H 716.412 -3.92542 -0.984516 0
M  V30 7494 H 714.982 -2.8856 -1.20215 0
M  V30 7495 H 714.202 -3.78047 1.11688 0
M  V30 7496 H 715.49 -4.99131 0.987201 0
M  V30 7497 H 714.888 -5.2176 -2.18592 0
M  V30 7498 H 713.445 -6.14978 -2.15975 0
M  V30 7499 N 716.879 -0.700114 -1.41195 0
M  V30 7500 C 718.125 -0.233351 -2.01453 0
M  V30 7501 C 718.458 1.16548 -1.55339 0
M  V30 7502 O 717.733 1.78756 -0.766575 0
M  V30 7503 C 718.016 -0.2961 -3.58881 0
M  V30 7504 C 717.869 -1.7322 -4.15108 0
M  V30 7505 C 719.188 0.341525 -4.38773 0
M  V30 7506 H 716.307 -0.0862667 -0.731934 0
M  V30 7507 H 718.949 -0.889693 -1.67882 0
M  V30 7508 H 717.099 0.262736 -3.87611 0
M  V30 7509 H 718.771 -2.34523 -3.97236 0
M  V30 7510 H 717.014 -2.2649 -3.69979 0
M  V30 7511 H 717.685 -1.7276 -5.24269 0
M  V30 7512 H 720.161 -0.134461 -4.15883 0
M  V30 7513 H 719.037 0.267098 -5.4825 0
M  V30 7514 H 719.298 1.42289 -4.18577 0
M  V30 7515 N 718.357 1.51182 -0.445186 0
M  V30 7516 C 719.606 2.01342 0.120189 0
M  V30 7517 C 719.919 1.33353 1.43095 0
M  V30 7518 O 721.125 1.74525 2.07974 0
M  V30 7519 C 719.581 3.58925 0.264732 0
M  V30 7520 C 719.189 4.35855 -1.03606 0
M  V30 7521 C 720.933 4.17208 0.783455 0
M  V30 7522 C 718.84 5.85162 -0.856731 0
M  V30 7523 H 717.77 0.752426 0.0486922 0
M  V30 7524 H 720.421 1.74221 -0.576143 0
M  V30 7525 H 718.803 3.82525 1.02425 0
M  V30 7526 H 719.977 4.23997 -1.80452 0
M  V30 7527 H 718.292 3.89062 -1.48391 0
M  V30 7528 H 720.889 5.26475 0.934239 0
M  V30 7529 H 721.232 3.76892 1.768 0
M  V30 7530 H 721.765 3.97715 0.0820346 0
M  V30 7531 H 718.504 6.29904 -1.81388 0
M  V30 7532 H 718.024 5.99663 -0.128206 0
M  V30 7533 H 719.703 6.44963 -0.513027 0
M  V30 7534 N 719.835 0.176821 1.56605 0
M  V30 7535 C 720.782 -0.751312 2.18229 0
M  V30 7536 C 721.752 -1.22297 1.12395 0
M  V30 7537 O 722.937 -1.29015 1.40569 0
M  V30 7538 C 720.077 -1.97291 2.83143 0
M  V30 7539 C 719.19 -1.54431 4.03454 0
M  V30 7540 C 718.325 -2.72 4.56278 0
M  V30 7541 C 717.364 -2.25657 5.68986 0
M  V30 7542 N 716.501 -3.36338 6.16296 0
M  V30 7543 H 721.341 -0.219033 2.97194 0
M  V30 7544 H 718.878 -0.0963803 1.46784 0
M  V30 7545 H 720.836 -2.68949 3.1894 0
M  V30 7546 H 719.466 -2.4788 2.06773 0
M  V30 7547 H 718.518 -0.724273 3.73441 0
M  V30 7548 H 719.83 -1.16417 4.85024 0
M  V30 7549 H 718.984 -3.51806 4.94285 0
M  V30 7550 H 717.723 -3.13277 3.73777 0
M  V30 7551 H 716.728 -1.44299 5.30526 0
M  V30 7552 H 717.953 -1.85432 6.53293 0
M  V30 7553 H 715.899 -3.7718 5.36723 0
M  V30 7554 H 715.816 -3.02435 6.9287 0
M  V30 7555 H 717.084 -4.16413 6.58954 0
M  V30 7556 N 721.313 -1.57302 -0.09688 0
M  V30 7557 C 722.543 -1.89926 -0.813114 0
M  V30 7558 C 722.951 -0.76852 -1.72888 0
M  V30 7559 O 722.294 0.268549 -1.81726 0
M  V30 7560 C 722.356 -3.17787 -1.68082 0
M  V30 7561 C 722.02 -4.4729 -0.937061 0
M  V30 7562 C 723.017 -5.1921 -0.267687 0
M  V30 7563 C 720.702 -4.93957 -0.911671 0
M  V30 7564 C 722.696 -6.36034 0.417129 0
M  V30 7565 C 720.383 -6.10693 -0.223068 0
M  V30 7566 C 721.381 -6.8158 0.440155 0
M  V30 7567 O 721.069 -7.96092 1.11772 0
M  V30 7568 H 720.801 -0.632783 -0.237828 0
M  V30 7569 H 723.355 -2.05248 -0.0790818 0
M  V30 7570 H 721.585 -2.98607 -2.45705 0
M  V30 7571 H 723.274 -3.36257 -2.27346 0
M  V30 7572 H 724.04 -4.84198 -0.278774 0
M  V30 7573 H 719.919 -4.38671 -1.41734 0
M  V30 7574 H 723.463 -6.91301 0.93537 0
M  V30 7575 H 719.36 -6.45159 -0.209821 0
M  V30 7576 H 720.128 -8.12064 1.02443 0
M  V30 7577 N 722.791 0.367657 -1.53252 0
M  V30 7578 C 724.031 1.11923 -1.71034 0
M  V30 7579 C 724.395 1.86618 -0.45143 0
M  V30 7580 O 725.596 2.63996 -0.505915 0
M  V30 7581 C 723.867 2.05461 -2.92439 0
M  V30 7582 S 725.426 2.88167 -3.30916 0
M  V30 7583 H 722.244 0.378549 -0.601848 0
M  V30 7584 H 724.846 0.400757 -1.91348 0
M  V30 7585 H 723.55 1.49346 -3.82262 0
M  V30 7586 H 723.081 2.81784 -2.7452 0
M  V30 7587 H 725.096 4.07746 -2.82767 0
M  V30 7588 N 724.269 1.44576 0.627338 0
M  V30 7589 C 725.497 1.51048 1.41394 0
M  V30 7590 C 725.912 0.136568 1.88305 0
M  V30 7591 O 725.269 -0.858251 1.6106 0
M  V30 7592 C 725.32 2.47837 2.63172 0
M  V30 7593 O 725.041 3.79887 2.18215 0
M  V30 7594 C 726.542 2.63811 3.56257 0
M  V30 7595 H 723.762 0.512171 0.4335 0
M  V30 7596 H 726.306 1.89576 0.766878 0
M  V30 7597 H 724.461 2.12433 3.23961 0
M  V30 7598 H 724.875 4.32177 2.97192 0
M  V30 7599 H 726.349 3.35554 4.38301 0
M  V30 7600 H 726.826 1.69169 4.05313 0
M  V30 7601 H 727.432 3.0013 3.01333 0
M  V30 7602 N 725.747 -0.868086 1.31537 0
M  V30 7603 C 726.975 -1.65402 1.24298 0
M  V30 7604 C 727.39 -1.87827 -0.191389 0
M  V30 7605 O 726.747 -1.43776 -1.12404 0
M  V30 7606 C 726.798 -3.02093 1.9855 0
M  V30 7607 O 726.519 -2.80668 3.36388 0
M  V30 7608 C 728.02 -3.96538 1.98173 0
M  V30 7609 H 725.24 -0.515598 0.429417 0
M  V30 7610 H 727.784 -1.0834 1.73444 0
M  V30 7611 H 725.939 -3.55838 1.53161 0
M  V30 7612 H 726.353 -3.67504 3.74221 0
M  V30 7613 H 727.827 -4.8976 2.54635 0
M  V30 7614 H 728.304 -4.28474 0.964697 0
M  V30 7615 H 728.91 -3.48729 2.4345 0
M  V30 7616 N 727.225 -1.14528 -1.08264 0
M  V30 7617 C 728.455 -0.936604 -1.8415 0
M  V30 7618 C 728.863 0.518298 -1.81962 0
M  V30 7619 O 728.206 1.37096 -1.22272 0
M  V30 7620 C 728.268 -1.36182 -3.32708 0
M  V30 7621 C 727.932 -2.83257 -3.58629 0
M  V30 7622 C 728.929 -3.81366 -3.5335 0
M  V30 7623 C 726.614 -3.20704 -3.86593 0
M  V30 7624 C 728.608 -5.14929 -3.75668 0
M  V30 7625 C 726.295 -4.54443 -4.08564 0
M  V30 7626 C 727.293 -5.51365 -4.03095 0
M  V30 7627 O 726.981 -6.8269 -4.24488 0
M  V30 7628 H 726.713 -0.333254 -0.588148 0
M  V30 7629 H 729.267 -1.5247 -1.3763 0
M  V30 7630 H 727.497 -0.717063 -3.79994 0
M  V30 7631 H 729.186 -1.12372 -3.90035 0
M  V30 7632 H 729.952 -3.53781 -3.31759 0
M  V30 7633 H 725.831 -2.45857 -3.89969 0
M  V30 7634 H 729.375 -5.90568 -3.71315 0
M  V30 7635 H 725.272 -4.81747 -4.29639 0
M  V30 7636 H 726.04 -6.8897 -4.41886 0
M  V30 7637 N 728.703 1.26451 -0.940633 0
M  V30 7638 C 729.635 2.25556 -0.407104 0
M  V30 7639 C 730.648 1.55888 0.469324 0
M  V30 7640 O 731.837 1.76292 0.279858 0
M  V30 7641 C 728.937 3.36109 0.434064 0
M  V30 7642 C 728.11 4.3532 -0.426082 0
M  V30 7643 C 727.169 5.25004 0.354563 0
M  V30 7644 O 726.195 5.68684 -0.242219 0
M  V30 7645 N 727.397 5.5652 1.65123 0
M  V30 7646 H 730.162 2.7197 -1.25907 0
M  V30 7647 H 727.723 1.40212 -0.809456 0
M  V30 7648 H 729.715 3.93059 0.963684 0
M  V30 7649 H 728.285 2.89194 1.18683 0
M  V30 7650 H 727.505 3.77449 -1.13692 0
M  V30 7651 H 728.793 4.986 -1.01366 0
M  V30 7652 H 728.191 5.22912 2.15822 0
M  V30 7653 H 726.748 6.16115 2.12711 0
M  V30 7654 N 730.181 0.707592 1.40822 0
M  V30 7655 C 731.406 0.251626 2.05868 0
M  V30 7656 C 731.831 -1.09503 1.5294 0
M  V30 7657 O 731.189 -1.68806 0.661385 0
M  V30 7658 C 731.237 0.23287 3.59847 0
M  V30 7659 O 730.341 -0.788477 4.04792 0
M  V30 7660 H 729.682 0.119936 0.653078 0
M  V30 7661 H 732.212 0.96583 1.80369 0
M  V30 7662 H 732.222 0.0678204 4.07944 0
M  V30 7663 H 730.897 1.21565 3.97737 0
M  V30 7664 H 729.474 -0.591802 3.68174 0
M  V30 7665 N 731.66 -1.50943 0.453197 0
M  V30 7666 C 732.607 -2.28128 -0.350197 0
M  V30 7667 C 733.577 -1.32398 -1.00299 0
M  V30 7668 O 734.762 -1.61319 -1.01887 0
M  V30 7669 C 731.902 -3.13782 -1.43649 0
M  V30 7670 C 731.015 -4.24523 -0.800255 0
M  V30 7671 C 730.15 -4.97462 -1.86293 0
M  V30 7672 C 729.189 -6.00102 -1.20598 0
M  V30 7673 N 728.326 -6.66387 -2.21071 0
M  V30 7674 H 733.166 -2.96337 0.31434 0
M  V30 7675 H 730.703 -1.46151 0.166863 0
M  V30 7676 H 732.661 -3.6178 -2.07776 0
M  V30 7677 H 731.291 -2.47655 -2.07044 0
M  V30 7678 H 730.343 -3.80371 -0.0468651 0
M  V30 7679 H 731.655 -4.98009 -0.280777 0
M  V30 7680 H 730.809 -5.49088 -2.58044 0
M  V30 7681 H 729.548 -4.23642 -2.41617 0
M  V30 7682 H 728.553 -5.47753 -0.474 0
M  V30 7683 H 729.778 -6.75887 -0.659859 0
M  V30 7684 H 727.724 -5.9537 -2.75446 0
M  V30 7685 H 727.641 -7.3569 -1.74058 0
M  V30 7686 H 728.909 -7.22638 -2.92257 0
M  V30 7687 N 733.138 -0.185124 -1.56509 0
M  V30 7688 C 734.386 0.455357 -1.96903 0
M  V30 7689 C 734.707 1.62839 -1.07277 0
M  V30 7690 O 733.977 1.95385 -0.141966 0
M  V30 7691 H 732.557 0.171218 -0.727113 0
M  V30 7692 H 735.219 -0.26953 -1.93027 0
M  V30 7693 H 734.315 0.80616 -3.01509 0
M  V30 7694 N 734.616 1.57351 0.0885366 0
M  V30 7695 C 735.548 1.99221 1.13329 0
M  V30 7696 C 736.561 0.895705 1.35945 0
M  V30 7697 O 737.75 1.17376 1.34481 0
M  V30 7698 C 734.85 2.3016 2.48756 0
M  V30 7699 C 734.023 3.61444 2.46327 0
M  V30 7700 C 733.082 3.80244 3.63732 0
M  V30 7701 O 732.108 4.52024 3.45924 0
M  V30 7702 N 733.31 3.2132 4.8346 0
M  V30 7703 H 736.075 2.89456 0.776862 0
M  V30 7704 H 733.636 1.59505 0.277428 0
M  V30 7705 H 735.628 2.39925 3.25911 0
M  V30 7706 H 734.198 1.459 2.76464 0
M  V30 7707 H 733.418 3.62588 1.54673 0
M  V30 7708 H 734.706 4.47678 2.41789 0
M  V30 7709 H 734.104 2.63028 5.00832 0
M  V30 7710 H 732.661 3.3656 5.58185 0
M  V30 7711 N 736.094 -0.359525 1.53444 0
M  V30 7712 C 737.322 -1.12198 1.73837 0
M  V30 7713 C 737.737 -1.82854 0.470107 0
M  V30 7714 O 737.094 -1.73781 -0.557349 0
M  V30 7715 C 737.145 -2.14769 2.90786 0
M  V30 7716 O 736.866 -1.46989 4.12706 0
M  V30 7717 C 738.367 -3.03514 3.231 0
M  V30 7718 H 735.587 -0.33524 0.581253 0
M  V30 7719 H 738.131 -0.416598 2.00212 0
M  V30 7720 H 736.286 -2.80896 2.66788 0
M  V30 7721 H 736.7 -2.15378 4.78239 0
M  V30 7722 H 738.174 -3.71453 4.08322 0
M  V30 7723 H 738.651 -3.68658 2.38721 0
M  V30 7724 H 739.257 -2.42996 3.49046 0
M  V30 7725 N 737.572 -1.44907 -0.619662 0
M  V30 7726 C 738.502 -1.55488 -1.742 0
M  V30 7727 C 739.483 -0.407143 -1.65156 0
M  V30 7728 O 740.668 -0.628743 -1.8374 0
M  V30 7729 C 737.798 -1.5097 -3.1277 0
M  V30 7730 C 736.752 -2.64337 -3.36615 0
M  V30 7731 C 736.078 -2.44872 -4.75333 0
M  V30 7732 C 737.378 -4.06423 -3.28051 0
M  V30 7733 H 739.072 -2.49432 -1.65602 0
M  V30 7734 H 736.618 -1.20047 -0.795281 0
M  V30 7735 H 738.571 -1.56971 -3.91073 0
M  V30 7736 H 737.295 -0.535486 -3.2218 0
M  V30 7737 H 735.954 -2.57744 -2.60698 0
M  V30 7738 H 735.602 -1.45617 -4.81461 0
M  V30 7739 H 735.302 -3.20888 -4.92244 0
M  V30 7740 H 736.826 -2.52709 -5.55851 0
M  V30 7741 H 738.24 -4.14324 -3.96243 0
M  V30 7742 H 736.637 -4.82733 -3.56495 0
M  V30 7743 H 737.707 -4.29183 -2.25676 0
M  V30 7744 N 739.05 0.861098 -1.31996 0
M  V30 7745 C 740.278 1.6474 -1.25173 0
M  V30 7746 C 740.693 1.87926 0.181425 0
M  V30 7747 O 740.05 1.4437 1.1164 0
M  V30 7748 C 740.101 3.01036 -2.0015 0
M  V30 7749 O 739.822 2.7888 -3.37872 0
M  V30 7750 C 741.323 3.95481 -2.00273 0
M  V30 7751 H 738.543 0.513314 -0.432146 0
M  V30 7752 H 741.087 1.07419 -1.74016 0
M  V30 7753 H 739.242 3.55021 -1.55046 0
M  V30 7754 H 739.656 3.65514 -3.76165 0
M  V30 7755 H 741.13 4.88403 -2.57229 0
M  V30 7756 H 741.607 4.27957 -0.987407 0
M  V30 7757 H 742.213 3.47433 -2.45296 0
M  V30 7758 N 740.528 1.15101 1.07655 0
M  V30 7759 C 741.458 0.867864 2.16773 0
M  V30 7760 C 742.439 -0.180283 1.69142 0
M  V30 7761 O 743.624 -0.0353152 1.94168 0
M  V30 7762 C 740.754 0.35299 3.45501 0
M  V30 7763 C 739.708 1.33746 4.06566 0
M  V30 7764 C 739.034 0.681562 5.30338 0
M  V30 7765 C 740.334 2.7024 4.46954 0
M  V30 7766 H 742.028 1.78034 2.40716 0
M  V30 7767 H 739.574 0.857435 1.15689 0
M  V30 7768 H 741.527 0.142465 4.21159 0
M  V30 7769 H 740.251 -0.594945 3.21135 0
M  V30 7770 H 738.91 1.53429 3.32949 0
M  V30 7771 H 738.558 -0.272422 5.02262 0
M  V30 7772 H 738.258 1.33853 5.72151 0
M  V30 7773 H 739.782 0.48074 6.08705 0
M  V30 7774 H 741.196 2.5442 5.13754 0
M  V30 7775 H 739.593 3.32282 4.99709 0
M  V30 7776 H 740.663 3.26537 3.58471 0
M  V30 7777 N 742.006 -1.2595 0.947325 0
M  V30 7778 C 743.234 -1.97544 0.615127 0
M  V30 7779 C 743.649 -1.70484 -0.811221 0
M  V30 7780 O 743.006 -0.97662 -1.5417 0
M  V30 7781 C 743.057 -3.51236 0.855328 0
M  V30 7782 O 742.778 -3.77359 2.22558 0
M  V30 7783 C 744.279 -4.40066 0.534515 0
M  V30 7784 H 741.499 -0.629888 0.231263 0
M  V30 7785 H 744.043 -1.60308 1.26971 0
M  V30 7786 H 742.198 -3.8661 0.247266 0
M  V30 7787 H 742.612 -4.71857 2.29022 0
M  V30 7788 H 744.086 -5.46838 0.753168 0
M  V30 7789 H 744.563 -4.35982 -0.530701 0
M  V30 7790 H 745.169 -4.10245 1.12158 0
M  V30 7791 N 743.484 -0.715051 -1.40445 0
M  V30 7792 C 744.416 -0.0227516 -2.29189 0
M  V30 7793 C 745.429 0.724313 -1.458 0
M  V30 7794 O 746.618 0.571781 -1.69094 0
M  V30 7795 C 743.718 0.992038 -3.24055 0
M  V30 7796 C 742.891 0.310613 -4.36296 0
M  V30 7797 C 741.95 1.23071 -5.11605 0
M  V30 7798 O 740.976 0.71571 -5.64682 0
M  V30 7799 N 742.178 2.56188 -5.2091 0
M  V30 7800 H 744.943 -0.78473 -2.89244 0
M  V30 7801 H 742.504 -0.562637 -1.51809 0
M  V30 7802 H 744.496 1.60973 -3.71308 0
M  V30 7803 H 743.066 1.65538 -2.65171 0
M  V30 7804 H 742.286 -0.487269 -3.91177 0
M  V30 7805 H 743.574 -0.162415 -5.08541 0
M  V30 7806 H 742.972 3.00527 -4.7927 0
M  V30 7807 H 741.529 3.13103 -5.71673 0
M  V30 7808 N 744.962 1.50701 -0.461195 0
M  V30 7809 C 745.894 2.26124 0.374244 0
M  V30 7810 C 746.907 1.31064 0.965715 0
M  V30 7811 O 748.096 1.56647 0.855801 0
M  V30 7812 C 745.196 3.01996 1.5379 0
M  V30 7813 C 744.369 4.24336 1.06101 0
M  V30 7814 C 743.428 4.82585 2.09756 0
M  V30 7815 O 742.454 5.43775 1.68219 0
M  V30 7816 N 743.656 4.68712 3.42475 0
M  V30 7817 H 746.421 2.9846 -0.2723 0
M  V30 7818 H 743.982 1.59256 -0.291415 0
M  V30 7819 H 745.974 3.37846 2.22806 0
M  V30 7820 H 744.544 2.32521 2.08933 0
M  V30 7821 H 743.764 3.93707 0.197085 0
M  V30 7822 H 745.052 5.03678 0.720156 0
M  V30 7823 H 744.45 4.20026 3.78938 0
M  V30 7824 H 743.007 5.08858 4.07317 0
M  V30 7825 N 746.441 0.193421 1.56409 0
M  V30 7826 C 747.373 -0.759944 2.16235 0
M  V30 7827 C 748.386 -1.17797 1.12373 0
M  V30 7828 O 749.575 -1.11399 1.39472 0
M  V30 7829 C 746.675 -2.03735 2.70823 0
M  V30 7830 C 745.848 -1.77939 3.9957 0
M  V30 7831 C 744.907 -2.90111 4.39001 0
M  V30 7832 O 743.933 -2.59791 5.06456 0
M  V30 7833 N 745.135 -4.18426 4.02368 0
M  V30 7834 H 747.9 -0.248348 2.98669 0
M  V30 7835 H 745.461 0.0113966 1.61896 0
M  V30 7836 H 747.453 -2.77914 2.94187 0
M  V30 7837 H 746.023 -2.46022 1.92852 0
M  V30 7838 H 745.243 -0.875491 3.84355 0
M  V30 7839 H 746.531 -1.58099 4.83614 0
M  V30 7840 H 745.929 -4.45913 3.48106 0
M  V30 7841 H 744.486 -4.89237 4.30686 0
M  V30 7842 N 747.919 -1.57396 -0.0801906 0
M  V30 7843 C 749.335 -1.53564 -0.434778 0
M  V30 7844 C 749.535 -0.912372 -1.79661 0
M  V30 7845 O 748.591 -0.511268 -2.4727 0
M  V30 7846 C 749.904 -2.98244 -0.383561 0
M  V30 7847 C 751.452 -3.09536 -0.46435 0
M  V30 7848 C 751.927 -4.55851 -0.443128 0
M  V30 7849 N 753.418 -4.60456 -0.503448 0
M  V30 7850 C 754.153 -5.71135 -0.509106 0
M  V30 7851 N 753.649 -6.91203 -0.47008 0
M  V30 7852 N 755.442 -5.59353 -0.555035 0
M  V30 7853 H 747.593 -1.96281 0.811635 0
M  V30 7854 H 749.856 -0.898041 0.303689 0
M  V30 7855 H 749.562 -3.47369 0.550236 0
M  V30 7856 H 749.436 -3.57705 -1.19694 0
M  V30 7857 H 751.823 -2.6039 -1.38857 0
M  V30 7858 H 751.904 -2.53 0.377445 0
M  V30 7859 H 751.548 -5.05653 0.477207 0
M  V30 7860 H 751.478 -5.10242 -1.30234 0
M  V30 7861 H 753.969 -3.74048 -0.538199 0
M  V30 7862 H 754.282 -7.7132 -0.478091 0
M  V30 7863 H 752.627 -6.93625 -0.436897 0
M  V30 7864 H 755.818 -4.64453 -0.583158 0
M  V30 7865 H 755.991 -6.4561 -0.555976 0
M  V30 7866 N 749.397 0.351382 -1.53633 0
M  V30 7867 C 750.674 1.10903 -1.6112 0
M  V30 7868 C 751.054 2.06725 -0.427556 0
M  V30 7869 O 750.402 2.20992 0.580916 0
M  V30 7870 C 750.612 1.83561 -2.96827 0
M  V30 7871 C 751.96 2.37587 -3.51906 0
M  V30 7872 O 752.984 1.93669 -2.9895 0
M  V30 7873 O 751.843 3.17913 -4.44515 0
M  V30 7874 H 748.937 0.509558 -0.651368 0
M  V30 7875 H 751.483 0.353504 -1.65977 0
M  V30 7876 H 750.255 1.1371 -3.74414 0
M  V30 7877 H 749.878 2.6599 -2.95525 0
M  V30 7878 N 750.875 1.45233 0.611969 0
M  V30 7879 C 752.121 1.49242 1.37312 0
M  V30 7880 C 752.454 0.131963 1.93751 0
M  V30 7881 O 751.729 -0.852999 1.74798 0
M  V30 7882 C 752.012 2.56811 2.52428 0
M  V30 7883 C 751.865 4.02284 2.01215 0
M  V30 7884 C 753.184 2.60705 3.54572 0
M  V30 7885 H 750.303 0.54336 0.497925 0
M  V30 7886 H 752.945 1.77019 0.690242 0
M  V30 7887 H 751.095 2.33256 3.10683 0
M  V30 7888 H 752.767 4.37035 1.47643 0
M  V30 7889 H 751.01 4.1315 1.32248 0
M  V30 7890 H 751.681 4.7323 2.84178 0
M  V30 7891 H 754.157 2.81799 3.06151 0
M  V30 7892 H 753.033 3.37841 4.32614 0
M  V30 7893 H 753.294 1.65627 4.09903 0
M  V30 7894 N 752.353 -0.854086 1.3245 0
M  V30 7895 C 753.583 -1.63836 1.25862 0
M  V30 7896 C 753.991 -1.88383 -0.175588 0
M  V30 7897 O 753.334 -1.45353 -1.1233 0
M  V30 7898 C 753.396 -3.02068 1.94923 0
M  V30 7899 C 753.06 -3.0056 3.44257 0
M  V30 7900 C 754.057 -2.77368 4.39731 0
M  V30 7901 C 751.742 -3.21177 3.862 0
M  V30 7902 C 753.736 -2.74797 5.75122 0
M  V30 7903 C 751.423 -3.18234 5.217 0
M  V30 7904 C 752.421 -2.95072 6.15972 0
M  V30 7905 O 752.109 -2.92003 7.48992 0
M  V30 7906 H 751.841 -0.517007 0.435523 0
M  V30 7907 H 754.395 -1.07314 1.75137 0
M  V30 7908 H 752.625 -3.60382 1.40219 0
M  V30 7909 H 754.314 -3.62791 1.82037 0
M  V30 7910 H 755.08 -2.61205 4.08653 0
M  V30 7911 H 750.959 -3.38231 3.13243 0
M  V30 7912 H 754.503 -2.56638 6.48678 0
M  V30 7913 H 750.4 -3.33941 5.52407 0
M  V30 7914 H 751.168 -3.07953 7.58358 0
M  V30 7915 N 753.831 -1.1567 -1.07043 0
M  V30 7916 C 754.763 -0.814095 -2.14255 0
M  V30 7917 C 755.776 0.175293 -1.61854 0
M  V30 7918 O 756.965 -0.0483984 -1.78434 0
M  V30 7919 C 754.065 -0.190082 -3.38367 0
M  V30 7920 C 753.238 -1.21768 -4.20109 0
M  V30 7921 C 752.297 -0.614863 -5.22595 0
M  V30 7922 O 751.323 -1.28167 -5.54583 0
M  V30 7923 N 752.525 0.601955 -5.77371 0
M  V30 7924 H 755.29 -1.73677 -2.44247 0
M  V30 7925 H 752.851 -1.05301 -1.22977 0
M  V30 7926 H 754.843 0.22604 -4.04068 0
M  V30 7927 H 753.413 0.635992 -3.06062 0
M  V30 7928 H 752.633 -1.81025 -3.50177 0
M  V30 7929 H 753.921 -1.9114 -4.71533 0
M  V30 7930 H 753.319 1.162 -5.53637 0
M  V30 7931 H 751.876 0.96039 -6.44686 0
M  V30 7932 N 755.309 1.25446 -0.953992 0
M  V30 7933 C 756.241 2.25111 -0.431004 0
M  V30 7934 C 757.254 1.56377 0.452764 0
M  V30 7935 O 758.443 1.76579 0.261144 0
M  V30 7936 C 755.543 3.3655 0.39839 0
M  V30 7937 C 754.716 4.34843 -0.472229 0
M  V30 7938 C 753.775 5.25351 0.29886 0
M  V30 7939 O 752.801 5.68396 -0.302522 0
M  V30 7940 N 754.003 5.5824 1.59211 0
M  V30 7941 H 756.768 2.70619 -1.28785 0
M  V30 7942 H 754.329 1.39346 -0.824281 0
M  V30 7943 H 756.321 3.94059 0.921941 0
M  V30 7944 H 754.891 2.90436 1.15609 0
M  V30 7945 H 754.111 3.76222 -1.17689 0
M  V30 7946 H 755.399 4.97497 -1.06648 0
M  V30 7947 H 754.797 5.25172 2.10264 0
M  V30 7948 H 753.354 6.18336 2.06164 0
M  V30 7949 N 756.787 0.722489 1.40064 0
M  V30 7950 C 757.697 0.0755984 2.34478 0
M  V30 7951 C 758.713 -0.736046 1.57665 0
M  V30 7952 O 759.889 -0.667407 1.9002 0
M  V30 7953 C 756.954 -0.830075 3.36616 0
M  V30 7954 C 756.015 -0.00759884 4.29299 0
M  V30 7955 C 755.248 -0.870139 5.26559 0
M  V30 7956 O 755.471 -2.10921 5.2997 0
M  V30 7957 O 754.405 -0.305454 6.01124 0
M  V30 7958 H 758.231 0.854545 2.9143 0
M  V30 7959 H 755.816 0.483032 1.41376 0
M  V30 7960 H 757.698 -1.34864 3.99236 0
M  V30 7961 H 756.373 -1.58805 2.82069 0
M  V30 7962 H 755.28 0.556199 3.69942 0
M  V30 7963 H 756.613 0.712312 4.87018 0
M  V30 7964 N 758.265 -1.50454 0.469181 0
M  V30 7965 C 759.212 -2.28486 -0.325982 0
M  V30 7966 C 760.182 -1.33455 -0.988893 0
M  V30 7967 O 761.367 -1.6239 -1.0017 0
M  V30 7968 C 758.507 -3.15288 -1.40313 0
M  V30 7969 C 757.62 -4.25348 -0.755183 0
M  V30 7970 C 756.755 -4.9941 -1.81006 0
M  V30 7971 C 755.794 -6.01348 -1.14226 0
M  V30 7972 N 754.931 -6.68695 -2.1399 0
M  V30 7973 H 759.771 -2.95987 0.345753 0
M  V30 7974 H 757.308 -1.45965 0.182355 0
M  V30 7975 H 759.266 -3.63964 -2.03927 0
M  V30 7976 H 757.896 -2.49837 -2.04405 0
M  V30 7977 H 756.948 -3.80399 -0.00651901 0
M  V30 7978 H 758.26 -4.98279 -0.227941 0
M  V30 7979 H 757.414 -5.51794 -2.52206 0
M  V30 7980 H 756.153 -4.26181 -2.3711 0
M  V30 7981 H 755.158 -5.48225 -0.415876 0
M  V30 7982 H 756.383 -6.76548 -0.588135 0
M  V30 7983 H 754.329 -5.98258 -2.69115 0
M  V30 7984 H 754.246 -7.37495 -1.66246 0
M  V30 7985 H 755.514 -7.25697 -2.84576 0
M  V30 7986 N 759.743 -0.201713 -1.56304 0
M  V30 7987 C 760.706 0.702811 -2.18159 0
M  V30 7988 C 761.706 1.13619 -1.13787 0
M  V30 7989 O 762.896 1.0482 -1.39134 0
M  V30 7990 C 760.028 1.96032 -2.78898 0
M  V30 7991 H 761.221 0.163836 -2.99452 0
M  V30 7992 H 758.774 0.04791 -1.56227 0
M  V30 7993 H 759.509 2.54165 -2.01421 0
M  V30 7994 H 759.294 1.65824 -3.55309 0
M  V30 7995 H 760.784 2.60519 -3.26373 0
M  V30 7996 N 761.222 1.57436 0.0718424 0
M  V30 7997 C 762.638 1.53792 0.426628 0
M  V30 7998 C 762.838 0.921887 1.79174 0
M  V30 7999 O 761.894 0.524374 2.46995 0
M  V30 8000 C 763.207 2.98443 0.367739 0
M  V30 8001 C 764.755 3.09778 0.447928 0
M  V30 8002 C 765.23 4.5608 0.418946 0
M  V30 8003 N 766.721 4.60716 0.479022 0
M  V30 8004 C 767.456 5.71397 0.47881 0
M  V30 8005 N 766.952 6.91443 0.433417 0
M  V30 8006 N 768.745 5.59639 0.525364 0
M  V30 8007 H 760.896 1.95848 -0.822033 0
M  V30 8008 H 763.159 0.896418 -0.308447 0
M  V30 8009 H 762.865 3.47072 -0.56865 0
M  V30 8010 H 762.739 3.58335 1.17795 0
M  V30 8011 H 765.126 2.61122 1.37474 0
M  V30 8012 H 765.207 2.52796 -0.390857 0
M  V30 8013 H 764.851 5.05393 -0.504016 0
M  V30 8014 H 764.781 5.10925 1.27526 0
M  V30 8015 H 767.272 3.74328 0.518355 0
M  V30 8016 H 767.585 7.71562 0.43718 0
M  V30 8017 H 765.93 6.93847 0.400106 0
M  V30 8018 H 769.121 4.64756 0.558519 0
M  V30 8019 H 769.294 6.45896 0.52173 0
M  V30 8020 N 762.7 -0.34323 1.53817 0
M  V30 8021 C 763.633 -1.44472 1.76644 0
M  V30 8022 C 764.611 -1.50498 0.615556 0
M  V30 8023 O 765.795 -1.6821 0.850751 0
M  V30 8024 C 762.922 -2.82705 1.86536 0
M  V30 8025 C 761.968 -2.94302 3.08688 0
M  V30 8026 S 762.801 -2.60739 4.67735 0
M  V30 8027 C 763.957 -4.01079 4.80506 0
M  V30 8028 H 764.19 -1.24893 2.69794 0
M  V30 8029 H 761.723 -0.538915 1.4469 0
M  V30 8030 H 763.681 -3.62342 1.92921 0
M  V30 8031 H 762.342 -2.9958 0.943975 0
M  V30 8032 H 761.535 -3.95593 3.12286 0
M  V30 8033 H 761.137 -2.22614 3.00531 0
M  V30 8034 H 763.429 -4.95603 4.61935 0
M  V30 8035 H 764.372 -4.02475 5.82597 0
M  V30 8036 H 764.78 -3.89119 4.08958 0
M  V30 8037 N 764.178 -1.45556 -0.604258 0
M  V30 8038 C 765.426 -1.4945 -1.36048 0
M  V30 8039 C 765.747 -0.138933 -1.94504 0
M  V30 8040 O 765.017 0.832097 -1.7735 0
M  V30 8041 H 763.597 -0.550381 -0.505064 0
M  V30 8042 H 766.259 -1.81535 -0.709308 0
M  V30 8043 H 765.355 -2.23519 -2.17821 0
M  V30 8044 N 765.656 0.84705 -1.32902 0
M  V30 8045 C 766.881 1.63925 -1.27056 0
M  V30 8046 C 767.306 1.87443 0.157136 0
M  V30 8047 O 766.664 1.43266 1.11106 0
M  V30 8048 C 766.712 2.97134 -2.04313 0
M  V30 8049 O 765.816 3.88049 -1.39614 0
M  V30 8050 H 765.157 0.499477 -0.437514 0
M  V30 8051 H 767.687 1.05443 -1.75336 0
M  V30 8052 H 767.697 3.46896 -2.14772 0
M  V30 8053 H 766.372 2.79339 -3.08128 0
M  V30 8054 H 764.949 3.46525 -1.3775 0
M  V30 8055 N 767.134 1.16236 1.06428 0
M  V30 8056 C 768.097 0.870163 2.1204 0
M  V30 8057 C 769.097 -0.134239 1.60239 0
M  V30 8058 O 770.287 0.0964932 1.73933 0
M  V30 8059 C 767.419 0.301033 3.39568 0
M  V30 8060 H 768.612 1.8064 2.39394 0
M  V30 8061 H 766.165 0.971116 1.2247 0
M  V30 8062 H 766.9 -0.642948 3.17863 0
M  V30 8063 H 766.685 1.02475 3.78472 0
M  V30 8064 H 768.175 0.114494 4.17443 0
M  V30 8065 N 768.612 -1.24939 0.960631 0
M  V30 8066 C 769.86 -1.92437 0.617441 0
M  V30 8067 C 770.181 -1.75543 -0.849101 0
M  V30 8068 O 769.451 -1.12269 -1.60538 0
M  V30 8069 H 768.031 -0.712192 0.225371 0
M  V30 8070 H 770.693 -1.5198 1.22017 0
M  V30 8071 H 769.789 -3.00247 0.851933 0
M  V30 8072 N 770.09 -0.729906 -1.39679 0
M  V30 8073 C 771.02 -0.101618 -2.33279 0
M  V30 8074 C 772.001 0.729854 -1.53646 0
M  V30 8075 O 773.186 0.67587 -1.82059 0
M  V30 8076 C 770.316 0.81024 -3.37716 0
M  V30 8077 C 769.27 0.0833126 -4.27919 0
M  V30 8078 C 768.596 1.11185 -5.23012 0
M  V30 8079 C 769.896 -1.07107 -5.112 0
M  V30 8080 H 771.59 -0.883452 -2.86069 0
M  V30 8081 H 769.136 -0.426283 -1.37546 0
M  V30 8082 H 771.089 1.25927 -4.02145 0
M  V30 8083 H 769.813 1.62413 -2.83354 0
M  V30 8084 H 768.472 -0.346043 -3.64963 0
M  V30 8085 H 768.12 1.91917 -4.64948 0
M  V30 8086 H 767.82 0.63026 -5.8421 0
M  V30 8087 H 769.344 1.56068 -5.90318 0
M  V30 8088 H 770.758 -0.700726 -5.69002 0
M  V30 8089 H 769.155 -1.48196 -5.81514 0
M  V30 8090 H 770.225 -1.89513 -4.46332 0
M  V30 8091 N 771.568 1.50203 -0.477153 0
M  V30 8092 C 772.984 1.59056 -0.131663 0
M  V30 8093 C 773.184 1.48473 1.36227 0
M  V30 8094 O 772.24 1.34635 2.13611 0
M  V30 8095 C 773.553 2.92741 -0.687254 0
M  V30 8096 C 775.101 3.0615 -0.651223 0
M  V30 8097 C 775.576 4.42419 -1.18446 0
M  V30 8098 N 777.067 4.48847 -1.14413 0
M  V30 8099 C 777.802 5.52689 -1.52717 0
M  V30 8100 N 777.298 6.63754 -1.98499 0
M  V30 8101 N 779.091 5.43267 -1.44282 0
M  V30 8102 H 771.242 1.55325 -1.44872 0
M  V30 8103 H 773.505 0.734395 -0.599473 0
M  V30 8104 H 773.211 3.0598 -1.73405 0
M  V30 8105 H 773.085 3.76961 -0.134215 0
M  V30 8106 H 775.472 2.92556 0.386677 0
M  V30 8107 H 775.553 2.23673 -1.24114 0
M  V30 8108 H 775.197 4.56763 -2.22103 0
M  V30 8109 H 775.127 5.23498 -0.570709 0
M  V30 8110 H 777.618 3.69152 -0.808416 0
M  V30 8111 H 777.931 7.39059 -2.25859 0
M  V30 8112 H 776.276 6.64858 -2.02456 0
M  V30 8113 H 779.467 4.55387 -1.08352 0
M  V30 8114 H 779.64 6.24074 -1.74459 0
M  V30 8115 N 773.046 0.209999 1.56195 0
M  V30 8116 C 774.292 -0.425442 1.98287 0
M  V30 8117 C 774.625 -1.60232 1.09724 0
M  V30 8118 O 773.9 -1.93902 0.152414 0
M  V30 8119 C 774.183 -0.871189 3.49403 0
M  V30 8120 C 774.036 0.308527 4.48741 0
M  V30 8121 C 775.355 -1.73146 4.04609 0
M  V30 8122 H 772.474 -0.153169 0.720908 0
M  V30 8123 H 775.116 0.303916 1.87554 0
M  V30 8124 H 773.266 -1.49266 3.58681 0
M  V30 8125 H 774.938 0.946487 4.51486 0
M  V30 8126 H 773.181 0.957878 4.23092 0
M  V30 8127 H 773.852 -0.0461143 5.51981 0
M  V30 8128 H 776.328 -1.2072 3.98203 0
M  V30 8129 H 775.204 -2.01228 5.10684 0
M  V30 8130 H 775.465 -2.69083 3.5078 0
M  V30 8131 N 774.524 -1.57472 -0.0634922 0
M  V30 8132 C 775.454 -2.07297 -1.07473 0
M  V30 8133 C 776.435 -0.968162 -1.39859 0
M  V30 8134 O 777.62 -1.24139 -1.49343 0
M  V30 8135 C 774.75 -2.52381 -2.38581 0
M  V30 8136 C 773.704 -3.66813 -2.20526 0
M  V30 8137 C 773.03 -3.97982 -3.57092 0
M  V30 8138 C 774.33 -4.96553 -1.61965 0
M  V30 8139 H 776.024 -2.92033 -0.660092 0
M  V30 8140 H 773.57 -1.40488 -0.316074 0
M  V30 8141 H 775.523 -2.85852 -3.09624 0
M  V30 8142 H 774.247 -1.64684 -2.8204 0
M  V30 8143 H 772.906 -3.33639 -1.51924 0
M  V30 8144 H 772.554 -3.07403 -3.98136 0
M  V30 8145 H 772.254 -4.7504 -3.45848 0
M  V30 8146 H 773.778 -4.33956 -4.29552 0
M  V30 8147 H 775.192 -5.28201 -2.22883 0
M  V30 8148 H 773.589 -5.7799 -1.61394 0
M  V30 8149 H 774.659 -4.81396 -0.581918 0
M  V30 8150 N 776.003 0.335068 -1.53997 0
M  V30 8151 C 776.966 1.39481 -1.81872 0
M  V30 8152 C 777.966 1.4524 -0.690078 0
M  V30 8153 O 779.156 1.45467 -0.958377 0
M  V30 8154 C 776.288 2.78329 -1.9684 0
M  V30 8155 H 777.481 1.16024 -2.76547 0
M  V30 8156 H 775.034 0.569926 -1.45539 0
M  V30 8157 H 775.769 3.07058 -1.04337 0
M  V30 8158 H 775.554 2.75544 -2.78958 0
M  V30 8159 H 777.044 3.55016 -2.19894 0
M  V30 8160 N 777.481 1.45874 0.596531 0
M  V30 8161 C 778.411 1.5824 1.71705 0
M  V30 8162 C 779.392 0.433366 1.64487 0
M  V30 8163 O 780.577 0.657895 1.82717 0
M  V30 8164 C 777.707 1.55927 3.10329 0
M  V30 8165 C 776.661 2.69659 3.32367 0
M  V30 8166 C 775.987 2.52403 4.71377 0
M  V30 8167 C 777.287 4.11591 3.21544 0
M  V30 8168 H 778.981 2.52035 1.61613 0
M  V30 8169 H 776.527 1.21297 0.776082 0
M  V30 8170 H 778.48 1.63173 3.88526 0
M  V30 8171 H 777.204 0.586674 3.21288 0
M  V30 8172 H 775.863 2.61859 2.56564 0
M  V30 8173 H 775.511 1.53258 4.79083 0
M  V30 8174 H 775.211 3.28679 4.87077 0
M  V30 8175 H 776.735 2.6152 5.5176 0
M  V30 8176 H 778.149 4.20576 3.89601 0
M  V30 8177 H 776.546 4.88344 3.4877 0
M  V30 8178 H 777.616 4.32719 2.1882 0
M  V30 8179 N 778.959 -0.83999 1.33349 0
M  V30 8180 C 779.922 -1.93128 1.23426 0
M  V30 8181 C 780.922 -1.60065 0.153599 0
M  V30 8182 O 782.112 -1.69425 0.405049 0
M  V30 8183 C 779.244 -3.28761 0.901622 0
M  V30 8184 H 780.437 -2.03352 2.20427 0
M  V30 8185 H 777.99 -1.03194 1.17391 0
M  V30 8186 H 778.725 -3.24233 -0.0659337 0
M  V30 8187 H 778.51 -3.54138 1.68311 0
M  V30 8188 H 780 -4.08714 0.856913 0
M  V30 8189 N 780.437 -1.16799 -1.0581 0
M  V30 8190 C 781.662 -0.977402 -1.82925 0
M  V30 8191 C 782.087 0.469514 -1.82146 0
M  V30 8192 O 781.445 1.33576 -1.22585 0
M  V30 8193 C 781.493 -1.51543 -3.27211 0
M  V30 8194 O 780.597 -0.725021 -4.05977 0
M  V30 8195 H 779.938 -0.347474 -0.565825 0
M  V30 8196 H 782.468 -1.55151 -1.33376 0
M  V30 8197 H 782.478 -1.53502 -3.78023 0
M  V30 8198 H 781.153 -2.56872 -3.27093 0
M  V30 8199 H 779.73 -0.77634 -3.64729 0
M  V30 8200 N 781.915 1.24427 -0.967243 0
M  V30 8201 C 783.163 1.92107 -0.627638 0
M  V30 8202 C 783.484 1.75991 0.83978 0
M  V30 8203 O 782.754 1.13118 1.59941 0
M  V30 8204 H 781.334 0.710986 -0.229145 0
M  V30 8205 H 783.996 1.51331 -1.22821 0
M  V30 8206 H 783.092 2.99791 -0.867844 0
M  V30 8207 N 783.393 0.737304 1.3929 0
M  V30 8208 C 784.804 0.355966 1.83275 0
M  V30 8209 C 785.155 -1.11295 1.6158 0
M  V30 8210 O 784.28 -1.85871 1.10819 0
M  V30 8211 C 784.875 0.63931 3.32713 0
M  V30 8212 C 783.434 0.31144 3.75109 0
M  V30 8213 C 782.581 0.900765 2.62262 0
M  V30 8214 H 785.532 0.934763 1.28249 0
M  V30 8215 H 785.553 -0.0881293 3.80398 0
M  V30 8216 H 785.065 1.70847 3.48472 0
M  V30 8217 H 783.166 -0.751791 3.64937 0
M  V30 8218 H 783.279 0.795611 4.72448 0
M  V30 8219 H 781.643 0.327239 2.52589 0
M  V30 8220 H 782.426 1.97463 2.80826 0
M  V30 8221 N 784.871 -1.49948 0.485112 0
M  V30 8222 C 785.781 -2.32587 -0.306697 0
M  V30 8223 C 786.797 -1.43598 -0.982632 0
M  V30 8224 O 787.973 -1.76638 -0.967519 0
M  V30 8225 C 785.038 -3.18638 -1.3664 0
M  V30 8226 C 784.099 -4.23462 -0.705589 0
M  V30 8227 C 783.332 -5.05401 -1.7148 0
M  V30 8228 O 783.555 -4.88618 -2.94293 0
M  V30 8229 O 782.489 -5.88157 -1.27889 0
M  V30 8230 H 786.315 -3.01447 0.369272 0
M  V30 8231 H 783.9 -1.47349 0.246709 0
M  V30 8232 H 785.782 -3.71992 -1.9799 0
M  V30 8233 H 784.457 -2.52491 -2.02559 0
M  V30 8234 H 783.364 -3.74063 -0.0527733 0
M  V30 8235 H 784.697 -4.92119 -0.0891187 0
M  V30 8236 N 786.349 -0.21828 -1.56081 0
M  V30 8237 C 787.279 0.687922 -2.23136 0
M  V30 8238 C 788.26 1.20357 -1.202 0
M  V30 8239 O 789.445 1.24817 -1.48776 0
M  V30 8240 C 786.575 1.89762 -2.90874 0
M  V30 8241 C 785.529 1.51595 -4.00254 0
M  V30 8242 C 784.855 2.80415 -4.55271 0
M  V30 8243 C 786.155 0.708404 -5.17474 0
M  V30 8244 H 787.849 0.128854 -2.99123 0
M  V30 8245 H 785.395 0.0605354 -1.43873 0
M  V30 8246 H 787.348 2.53699 -3.36474 0
M  V30 8247 H 786.072 2.4816 -2.1233 0
M  V30 8248 H 784.731 0.900058 -3.55379 0
M  V30 8249 H 784.379 3.36951 -3.73461 0
M  V30 8250 H 784.079 2.55613 -5.2909 0
M  V30 8251 H 785.603 3.453 -5.03587 0
M  V30 8252 H 787.017 1.2514 -5.59476 0
M  V30 8253 H 785.414 0.557593 -5.97504 0
M  V30 8254 H 786.484 -0.285679 -4.84058 0
M  V30 8255 N 787.827 1.57504 0.0551401 0
M  V30 8256 C 789.075 1.87684 0.74962 0
M  V30 8257 C 789.396 0.812547 1.77264 0
M  V30 8258 O 788.666 -0.15694 1.9527 0
M  V30 8259 H 787.246 0.6926 0.279846 0
M  V30 8260 H 789.908 1.94881 0.0272745 0
M  V30 8261 H 789.004 2.85734 1.25548 0
M  V30 8262 N 789.305 -0.326896 1.54172 0
M  V30 8263 C 790.237 -1.42319 1.79661 0
M  V30 8264 C 791.25 -1.47989 0.678456 0
M  V30 8265 O 792.439 -1.50773 0.955503 0
M  V30 8266 C 789.539 -2.80876 1.89636 0
M  V30 8267 C 788.712 -2.98449 3.19761 0
M  V30 8268 C 787.771 -4.17347 3.2048 0
M  V30 8269 O 786.797 -4.10667 3.94134 0
M  V30 8270 N 787.999 -5.26717 2.44027 0
M  V30 8271 H 790.764 -1.20819 2.74268 0
M  V30 8272 H 788.325 -0.516866 1.53428 0
M  V30 8273 H 790.317 -3.58619 1.87549 0
M  V30 8274 H 788.887 -2.95442 1.02141 0
M  V30 8275 H 788.107 -2.08035 3.34836 0
M  V30 8276 H 789.395 -3.07083 4.05681 0
M  V30 8277 H 788.793 -5.35019 1.8377 0
M  V30 8278 H 787.35 -6.02891 2.47721 0
M  V30 8279 N 790.784 -1.46188 -0.588786 0
M  V30 8280 C 791.714 -1.59148 -1.70863 0
M  V30 8281 C 792.695 -0.442083 -1.64255 0
M  V30 8282 O 793.88 -0.667575 -1.82365 0
M  V30 8283 C 791.01 -1.5757 -3.09498 0
M  V30 8284 C 789.964 -2.71418 -3.30932 0
M  V30 8285 C 789.29 -2.549 -4.70032 0
M  V30 8286 C 790.59 -4.1329 -3.19356 0
M  V30 8287 H 792.284 -2.52889 -1.60274 0
M  V30 8288 H 789.83 -1.21707 -0.769638 0
M  V30 8289 H 791.783 -1.65231 -3.87655 0
M  V30 8290 H 790.507 -0.603705 -3.20972 0
M  V30 8291 H 789.166 -2.63216 -2.55172 0
M  V30 8292 H 788.814 -1.55797 -4.78264 0
M  V30 8293 H 788.514 -3.31257 -4.85327 0
M  V30 8294 H 790.038 -2.64443 -5.50366 0
M  V30 8295 H 791.452 -4.22636 -3.87365 0
M  V30 8296 H 789.849 -4.90187 -3.46175 0
M  V30 8297 H 790.919 -4.33874 -2.16522 0
M  V30 8298 N 792.262 0.832906 -1.33792 0
M  V30 8299 C 793.49 1.62048 -1.28639 0
M  V30 8300 C 793.905 1.88269 0.141522 0
M  V30 8301 O 793.262 1.46706 1.08553 0
M  V30 8302 C 793.313 2.96722 -2.0649 0
M  V30 8303 O 793.034 2.7165 -3.43712 0
M  V30 8304 C 794.535 3.91144 -2.08617 0
M  V30 8305 H 791.755 0.504032 -0.442937 0
M  V30 8306 H 794.299 1.03704 -1.76255 0
M  V30 8307 H 792.454 3.51652 -1.62541 0
M  V30 8308 H 792.868 3.57453 -3.83833 0
M  V30 8309 H 794.342 4.82837 -2.67531 0
M  V30 8310 H 794.819 4.25766 -1.07796 0
M  V30 8311 H 795.425 3.42152 -2.52611 0
M  V30 8312 N 793.74 1.17359 1.05189 0
M  V30 8313 C 794.987 0.961987 1.78191 0
M  V30 8314 C 795.315 -0.509363 1.87712 0
M  V30 8315 O 794.57 -1.39425 1.37329 0
M  V30 8316 C 794.869 1.54821 3.22126 0
M  V30 8317 C 794.535 3.04378 3.32663 0
M  V30 8318 C 793.197 3.45201 3.35246 0
M  V30 8319 C 795.549 4.00387 3.33677 0
M  V30 8320 C 792.877 4.80629 3.36471 0
M  V30 8321 C 795.229 5.35715 3.36441 0
M  V30 8322 C 793.893 5.76002 3.37311 0
M  V30 8323 H 793.163 0.352016 0.652047 0
M  V30 8324 H 795.81 1.46249 1.23627 0
M  V30 8325 H 794.115 0.969432 3.79617 0
M  V30 8326 H 795.812 1.36004 3.77232 0
M  V30 8327 H 792.402 2.71836 3.31366 0
M  V30 8328 H 796.586 3.69906 3.30882 0
M  V30 8329 H 791.842 5.11155 3.35455 0
M  V30 8330 H 796.016 6.09886 3.36173 0
M  V30 8331 H 793.643 6.80919 3.38013 0
M  V30 8332 N 795.218 -1.23913 0.973828 0
M  V30 8333 C 796.148 -2.27453 0.527969 0
M  V30 8334 C 797.129 -1.6443 -0.435513 0
M  V30 8335 O 798.314 -1.9137 -0.330306 0
M  V30 8336 C 795.444 -3.4685 -0.176757 0
M  V30 8337 C 794.398 -4.22181 0.703352 0
M  V30 8338 C 793.724 -5.34534 -0.133215 0
M  V30 8339 C 795.024 -4.82865 1.99096 0
M  V30 8340 H 796.718 -2.65 1.3934 0
M  V30 8341 H 794.264 -1.27388 0.671446 0
M  V30 8342 H 796.217 -4.18424 -0.499934 0
M  V30 8343 H 794.941 -3.08346 -1.07659 0
M  V30 8344 H 793.6 -3.52416 1.00989 0
M  V30 8345 H 793.248 -4.92271 -1.03338 0
M  V30 8346 H 792.948 -5.85855 0.452494 0
M  V30 8347 H 794.472 -6.08933 -0.450924 0
M  V30 8348 H 795.886 -5.46481 1.73297 0
M  V30 8349 H 794.283 -5.44444 2.52389 0
M  V30 8350 H 795.353 -4.03977 2.68199 0
M  V30 8351 N 796.696 -0.74468 -1.38897 0
M  V30 8352 C 797.944 -0.296298 -1.99916 0
M  V30 8353 C 798.265 1.12325 -1.59399 0
M  V30 8354 O 797.535 1.76658 -0.846689 0
M  V30 8355 H 796.115 -0.106561 -0.73936 0
M  V30 8356 H 798.777 -0.956793 -1.69798 0
M  V30 8357 H 797.873 -0.352356 -3.10105 0
M  V30 8358 N 798.174 1.49689 -0.493057 0
M  V30 8359 C 799.104 2.31826 0.279073 0
M  V30 8360 C 800.085 1.39733 0.969987 0
M  V30 8361 O 801.27 1.68646 0.962925 0
M  V30 8362 C 798.4 3.20046 1.34862 0
M  V30 8363 C 797.354 4.20869 0.77805 0
M  V30 8364 C 796.68 4.97971 1.94753 0
M  V30 8365 C 797.98 5.21813 -0.225543 0
M  V30 8366 H 799.674 2.96627 -0.406512 0
M  V30 8367 H 797.22 1.42647 -0.196943 0
M  V30 8368 H 799.173 3.76315 1.89645 0
M  V30 8369 H 797.897 2.53172 2.06328 0
M  V30 8370 H 796.556 3.65733 0.252036 0
M  V30 8371 H 796.204 4.27552 2.64969 0
M  V30 8372 H 795.904 5.66186 1.57187 0
M  V30 8373 H 797.428 5.57082 2.49984 0
M  V30 8374 H 798.842 5.72823 0.233864 0
M  V30 8375 H 797.239 5.97872 -0.516622 0
M  V30 8376 H 798.309 4.71209 -1.14412 0
M  V30 8377 N 799.652 0.226554 1.55963 0
M  V30 8378 C 800.898 -0.404387 1.98727 0
M  V30 8379 C 801.231 -1.59059 1.11418 0
M  V30 8380 O 800.506 -1.93729 0.172971 0
M  V30 8381 C 800.789 -0.834081 3.50307 0
M  V30 8382 C 800.642 0.356104 4.48388 0
M  V30 8383 C 801.961 -1.68845 4.06423 0
M  V30 8384 H 799.08 -0.145515 0.722492 0
M  V30 8385 H 801.722 0.323791 1.87221 0
M  V30 8386 H 799.872 -1.45454 3.60244 0
M  V30 8387 H 801.544 0.99432 4.50456 0
M  V30 8388 H 799.787 1.0027 4.22053 0
M  V30 8389 H 800.458 0.0124333 5.51999 0
M  V30 8390 H 802.934 -1.16489 3.99461 0
M  V30 8391 H 801.81 -1.958 5.1279 0
M  V30 8392 H 802.071 -2.65347 3.53615 0
M  V30 8393 N 801.13 -1.57531 -0.0467866 0
M  V30 8394 C 802.378 -1.88078 -0.739656 0
M  V30 8395 C 802.699 -0.821936 -1.76831 0
M  V30 8396 O 801.969 0.146582 -1.95351 0
M  V30 8397 H 800.549 -0.694075 -0.276169 0
M  V30 8398 H 803.211 -1.94893 -0.0169391 0
M  V30 8399 H 802.307 -2.86396 -1.24031 0
M  V30 8400 N 802.608 0.318715 -1.54344 0
M  V30 8401 C 803.857 1.05363 -1.71993 0
M  V30 8402 C 804.17 1.89018 -0.503155 0
M  V30 8403 O 805.376 2.65639 -0.561085 0
M  V30 8404 C 803.832 1.92281 -3.0423 0
M  V30 8405 C 803.44 1.13715 -4.33328 0
M  V30 8406 C 805.184 2.65479 -3.31242 0
M  V30 8407 C 803.091 1.99806 -5.56625 0
M  V30 8408 H 802.021 0.397081 -0.64097 0
M  V30 8409 H 804.672 0.311598 -1.80835 0
M  V30 8410 H 803.054 2.70402 -2.89307 0
M  V30 8411 H 804.228 0.403305 -4.59032 0
M  V30 8412 H 802.543 0.521769 -4.13118 0
M  V30 8413 H 805.14 3.30209 -4.20555 0
M  V30 8414 H 805.483 3.33374 -2.49334 0
M  V30 8415 H 806.016 1.94417 -3.47054 0
M  V30 8416 H 802.755 1.36411 -6.41149 0
M  V30 8417 H 802.275 2.70911 -5.35133 0
M  V30 8418 H 803.954 2.58277 -5.93213 0
M  V30 8419 N 804.086 1.46499 0.581025 0
M  V30 8420 C 805.335 1.51162 1.3354 0
M  V30 8421 C 805.648 0.168433 1.94873 0
M  V30 8422 O 806.854 0.092883 2.71341 0
M  V30 8423 C 805.31 2.66362 2.42032 0
M  V30 8424 C 804.918 4.07109 1.86994 0
M  V30 8425 C 806.662 2.80297 3.188 0
M  V30 8426 C 804.569 5.13645 2.93125 0
M  V30 8427 H 803.499 0.562576 0.502021 0
M  V30 8428 H 806.15 1.72713 0.619863 0
M  V30 8429 H 804.532 2.38143 3.16392 0
M  V30 8430 H 805.706 4.45125 1.19166 0
M  V30 8431 H 804.021 3.97854 1.22887 0
M  V30 8432 H 806.618 3.5706 3.9801 0
M  V30 8433 H 806.961 1.87875 3.71495 0
M  V30 8434 H 807.494 3.0817 2.51547 0
M  V30 8435 H 804.233 6.07866 2.45315 0
M  V30 8436 H 803.753 4.80172 3.59437 0
M  V30 8437 H 805.432 5.39562 3.57046 0
M  V30 8438 N 805.565 -0.825799 1.34232 0
M  V30 8439 C 806.842 -1.56741 1.17011 0
M  V30 8440 C 807.222 -2.09512 -0.258425 0
M  V30 8441 O 806.57 -1.90664 -1.25935 0
M  V30 8442 C 806.78 -2.69104 2.22225 0
M  V30 8443 C 808.128 -3.37947 2.57055 0
M  V30 8444 O 809.152 -2.79358 2.20992 0
M  V30 8445 O 808.011 -4.43743 3.1899 0
M  V30 8446 H 805.105 -0.69163 0.453405 0
M  V30 8447 H 807.651 -0.867422 1.45856 0
M  V30 8448 H 806.423 -2.27844 3.18124 0
M  V30 8449 H 806.046 -3.46756 1.94541 0
M  V30 8450 N 807.043 -1.17915 -1.04565 0
M  V30 8451 C 808.454 -0.976383 -1.59134 0
M  V30 8452 C 808.805 0.475267 -1.90357 0
M  V30 8453 O 807.93 1.35172 -1.6899 0
M  V30 8454 C 808.525 -1.76604 -2.89131 0
M  V30 8455 C 807.084 -1.60777 -3.40335 0
M  V30 8456 C 806.231 -1.76369 -2.13985 0
M  V30 8457 H 809.182 -1.32532 -0.872985 0
M  V30 8458 H 809.203 -1.25215 -3.59307 0
M  V30 8459 H 808.715 -2.82252 -2.66375 0
M  V30 8460 H 806.816 -0.576436 -3.68114 0
M  V30 8461 H 806.929 -2.40268 -4.14497 0
M  V30 8462 H 805.293 -1.19268 -2.25049 0
M  V30 8463 H 806.076 -2.83441 -1.9369 0
M  V30 8464 N 808.521 1.23394 -0.980386 0
M  V30 8465 C 809.932 1.73631 -0.686239 0
M  V30 8466 C 810.283 1.79259 0.797541 0
M  V30 8467 O 809.408 1.43046 1.62379 0
M  V30 8468 C 810.003 3.15332 -1.239 0
M  V30 8469 C 808.562 3.63024 -0.994494 0
M  V30 8470 C 807.709 2.41279 -1.36673 0
M  V30 8471 H 810.66 1.08918 -1.15423 0
M  V30 8472 H 810.681 3.75556 -0.611414 0
M  V30 8473 H 810.193 3.11204 -2.31892 0
M  V30 8474 H 808.294 3.72535 0.0693492 0
M  V30 8475 H 808.407 4.49825 -1.64906 0
M  V30 8476 H 806.771 2.42295 -0.785195 0
M  V30 8477 H 807.554 2.39822 -2.45642 0
M  V30 8478 N 809.999 0.752036 1.385 0
M  V30 8479 C 811.415 0.42946 1.53713 0
M  V30 8480 C 811.615 -1.0576 1.71514 0
M  V30 8481 O 810.671 -1.84366 1.72527 0
M  V30 8482 C 811.984 1.22735 2.74511 0
M  V30 8483 C 813.532 1.21727 2.8836 0
M  V30 8484 C 814.007 1.99809 4.12117 0
M  V30 8485 N 815.498 1.97062 4.19191 0
M  V30 8486 C 816.233 2.54274 5.13938 0
M  V30 8487 N 815.729 3.20193 6.14368 0
M  V30 8488 N 817.522 2.44212 5.06277 0
M  V30 8489 H 809.673 1.71581 1.25195 0
M  V30 8490 H 811.936 0.727293 0.60807 0
M  V30 8491 H 811.642 2.28032 2.67758 0
M  V30 8492 H 811.516 0.843186 3.67655 0
M  V30 8493 H 813.903 0.172367 2.94596 0
M  V30 8494 H 813.984 1.64094 1.96232 0
M  V30 8495 H 813.628 3.0431 4.06642 0
M  V30 8496 H 813.558 1.54837 5.03322 0
M  V30 8497 H 816.049 1.49054 3.47263 0
M  V30 8498 H 816.362 3.61272 6.83156 0
M  V30 8499 H 814.707 3.24287 6.14705 0
M  V30 8500 H 817.898 1.92343 4.26757 0
M  V30 8501 H 818.071 2.89096 5.79937 0
M  V30 8502 N 811.477 -1.49425 0.500989 0
M  V30 8503 C 812.705 -2.06861 -0.0403443 0
M  V30 8504 C 813.12 -1.36132 -1.30819 0
M  V30 8505 O 812.477 -0.439647 -1.77125 0
M  V30 8506 C 812.528 -3.6027 -0.297902 0
M  V30 8507 O 812.249 -4.28338 0.919686 0
M  V30 8508 C 813.75 -4.34419 -0.882876 0
M  V30 8509 H 810.97 -0.670688 0.0204619 0
M  V30 8510 H 813.514 -1.92207 0.698342 0
M  V30 8511 H 811.669 -3.74627 -0.98657 0
M  V30 8512 H 812.083 -5.2004 0.682528 0
M  V30 8513 H 813.557 -5.42631 -1.01268 0
M  V30 8514 H 814.034 -3.96898 -1.88066 0
M  V30 8515 H 814.64 -4.24669 -0.231677 0
M  V30 8516 N 812.955 -0.234822 -1.55841 0
M  V30 8517 C 814.203 0.392483 -1.98252 0
M  V30 8518 C 814.524 1.59344 -1.12404 0
M  V30 8519 O 813.794 1.94834 -0.204055 0
M  V30 8520 H 812.374 0.147999 -0.732192 0
M  V30 8521 H 815.036 -0.330804 -1.92072 0
M  V30 8522 H 814.132 0.709829 -3.03921 0
M  V30 8523 N 814.433 1.57553 0.0384317 0
M  V30 8524 C 815.679 1.89121 0.732199 0
M  V30 8525 C 816.012 0.831404 1.75503 0
M  V30 8526 O 815.287 -0.154642 1.93884 0
M  V30 8527 C 815.57 3.31338 1.41021 0
M  V30 8528 C 815.423 4.48004 0.401532 0
M  V30 8529 C 816.742 3.72318 2.34665 0
M  V30 8530 H 813.861 0.687819 0.264715 0
M  V30 8531 H 816.503 1.89999 -0.00496279 0
M  V30 8532 H 814.653 3.3072 2.03854 0
M  V30 8533 H 816.325 4.60755 -0.224159 0
M  V30 8534 H 814.568 4.32895 -0.280092 0
M  V30 8535 H 815.239 5.44377 0.91423 0
M  V30 8536 H 817.715 3.74243 1.81883 0
M  V30 8537 H 816.591 4.72652 2.7909 0
M  V30 8538 H 816.852 3.04062 3.20934 0
M  V30 8539 N 815.911 -0.310526 1.54511 0
M  V30 8540 C 816.858 -1.38264 1.84802 0
M  V30 8541 C 817.828 -1.50808 0.696141 0
M  V30 8542 O 819.013 -1.6582 0.943846 0
M  V30 8543 C 816.153 -2.74422 2.09252 0
M  V30 8544 C 815.266 -2.70405 3.36906 0
M  V30 8545 C 814.401 -3.98495 3.51248 0
M  V30 8546 C 813.44 -3.88836 4.72729 0
M  V30 8547 N 812.577 -5.08683 4.83928 0
M  V30 8548 H 817.417 -1.11732 2.76261 0
M  V30 8549 H 814.954 -0.540609 1.36806 0
M  V30 8550 H 816.912 -3.53593 2.21422 0
M  V30 8551 H 815.542 -2.99235 1.2107 0
M  V30 8552 H 814.594 -1.83151 3.33406 0
M  V30 8553 H 815.906 -2.59155 4.26193 0
M  V30 8554 H 815.06 -4.861 3.63031 0
M  V30 8555 H 813.799 -4.12567 2.60077 0
M  V30 8556 H 812.804 -2.99615 4.60989 0
M  V30 8557 H 814.029 -3.76318 5.65298 0
M  V30 8558 H 811.975 -5.23236 3.95677 0
M  V30 8559 H 811.892 -4.99819 5.67201 0
M  V30 8560 H 813.16 -5.97966 5.00057 0
M  V30 8561 N 817.389 -1.46805 -0.573248 0
M  V30 8562 C 818.299 -1.60687 -1.70929 0
M  V30 8563 C 819.315 -0.490084 -1.66956 0
M  V30 8564 O 820.491 -0.755482 -1.86693 0
M  V30 8565 C 817.556 -1.60259 -3.07438 0
M  V30 8566 C 816.617 -2.83242 -3.22603 0
M  V30 8567 C 815.85 -2.82825 -4.52599 0
M  V30 8568 O 816.073 -1.92113 -5.37074 0
M  V30 8569 O 815.007 -3.74489 -4.71213 0
M  V30 8570 H 818.833 -2.56782 -1.62163 0
M  V30 8571 H 816.418 -1.29706 -0.741399 0
M  V30 8572 H 818.3 -1.6275 -3.88704 0
M  V30 8573 H 816.975 -0.673268 -3.16621 0
M  V30 8574 H 815.882 -2.86302 -2.40794 0
M  V30 8575 H 817.215 -3.75415 -3.18315 0
M  V30 8576 N 818.867 0.818669 -1.34668 0
M  V30 8577 C 819.83 1.9114 -1.26483 0
M  V30 8578 C 820.83 1.598 -0.179044 0
M  V30 8579 O 822.02 1.6876 -0.431952 0
M  V30 8580 C 819.152 3.27285 -0.95381 0
M  V30 8581 H 820.345 1.9982 -2.23634 0
M  V30 8582 H 817.898 1.01314 -1.19018 0
M  V30 8583 H 818.633 3.24297 0.0143428 0
M  V30 8584 H 818.418 3.51416 -1.73924 0
M  V30 8585 H 819.908 4.07299 -0.921827 0
M  V30 8586 N 820.346 1.18468 1.03938 0
M  V30 8587 C 821.592 0.982286 1.77423 0
M  V30 8588 C 821.925 -0.48679 1.88 0
M  V30 8589 O 821.2 -1.36146 1.38905 0
M  V30 8590 C 821.483 1.63929 3.20623 0
M  V30 8591 C 821.336 3.18132 3.17982 0
M  V30 8592 C 822.655 1.3536 4.18767 0
M  V30 8593 H 819.774 0.358264 0.644062 0
M  V30 8594 H 822.416 1.46154 1.21405 0
M  V30 8595 H 820.566 1.2318 3.68455 0
M  V30 8596 H 822.238 3.68024 2.78129 0
M  V30 8597 H 820.481 3.50225 2.55978 0
M  V30 8598 H 821.152 3.5924 4.19107 0
M  V30 8599 H 823.628 1.70669 3.79488 0
M  V30 8600 H 822.504 1.83896 5.17178 0
M  V30 8601 H 822.765 0.276722 4.41233 0
M  V30 8602 N 821.824 -1.22873 0.986916 0
M  V30 8603 C 823.052 -1.95487 0.677663 0
M  V30 8604 C 823.467 -1.72978 -0.756572 0
M  V30 8605 O 822.824 -1.02517 -1.50985 0
M  V30 8606 C 822.875 -3.48337 0.966638 0
M  V30 8607 O 822.596 -3.70087 2.34451 0
M  V30 8608 C 824.097 -4.38142 0.674248 0
M  V30 8609 H 821.317 -0.622211 0.251185 0
M  V30 8610 H 823.861 -1.56187 1.32007 0
M  V30 8611 H 822.016 -3.85628 0.370137 0
M  V30 8612 H 822.43 -4.64332 2.43918 0
M  V30 8613 H 823.904 -5.44165 0.926759 0
M  V30 8614 H 824.381 -4.3745 -0.391728 0
M  V30 8615 H 824.987 -4.06469 1.25152 0
M  V30 8616 N 823.302 -0.75937 -1.38099 0
M  V30 8617 C 824.53 -0.329111 -2.04266 0
M  V30 8618 C 824.945 1.04453 -1.57274 0
M  V30 8619 O 824.302 1.66449 -0.748397 0
M  V30 8620 C 824.353 -0.349192 -3.5981 0
M  V30 8621 O 824.074 -1.66863 -4.05078 0
M  V30 8622 C 825.575 0.0942106 -4.432 0
M  V30 8623 H 822.795 -0.13971 -0.656294 0
M  V30 8624 H 825.339 -1.02984 -1.76677 0
M  V30 8625 H 823.494 0.302846 -3.86214 0
M  V30 8626 H 823.908 -1.59877 -4.9954 0
M  V30 8627 H 825.382 0.0290004 -5.51992 0
M  V30 8628 H 825.859 1.1429 -4.24069 0
M  V30 8629 H 826.465 -0.529171 -4.21995 0
M  V30 8630 N 824.78 1.49157 -0.508906 0
M  V30 8631 C 825.71 2.32109 0.254469 0
M  V30 8632 C 826.691 1.40754 0.955111 0
M  V30 8633 O 827.876 1.69658 0.944983 0
M  V30 8634 C 825.006 3.21458 1.3146 0
M  V30 8635 C 823.96 4.2167 0.733368 0
M  V30 8636 C 823.286 5.00009 1.8946 0
M  V30 8637 C 824.586 5.21544 -0.280875 0
M  V30 8638 H 826.28 2.9618 -0.43795 0
M  V30 8639 H 823.826 1.4243 -0.212062 0
M  V30 8640 H 825.779 3.78305 1.85643 0
M  V30 8641 H 824.503 2.55346 2.03632 0
M  V30 8642 H 823.162 3.65979 0.213231 0
M  V30 8643 H 822.81 4.30338 2.60419 0
M  V30 8644 H 822.51 5.67821 1.51173 0
M  V30 8645 H 824.034 5.59702 2.44061 0
M  V30 8646 H 825.448 5.73039 0.173095 0
M  V30 8647 H 823.845 5.97291 -0.580006 0
M  V30 8648 H 824.915 4.69969 -1.19404 0
M  V30 8649 N 826.258 0.243083 1.55714 0
M  V30 8650 C 827.507 -0.383188 1.98027 0
M  V30 8651 C 827.82 -1.59347 1.13436 0
M  V30 8652 O 829.026 -2.29065 1.45745 0
M  V30 8653 C 827.482 -0.733135 3.52354 0
M  V30 8654 C 827.09 0.455539 4.45678 0
M  V30 8655 C 828.834 -1.32381 4.03331 0
M  V30 8656 C 826.741 0.0819591 5.91343 0
M  V30 8657 H 825.671 -0.146944 0.739543 0
M  V30 8658 H 828.322 0.342697 1.80272 0
M  V30 8659 H 826.704 -1.51704 3.65789 0
M  V30 8660 H 827.878 1.23291 4.44 0
M  V30 8661 H 826.193 0.960886 4.05162 0
M  V30 8662 H 828.79 -1.61658 5.09677 0
M  V30 8663 H 829.133 -2.24698 3.50452 0
M  V30 8664 H 829.666 -0.602885 3.93205 0
M  V30 8665 H 826.405 0.972171 6.48251 0
M  V30 8666 H 825.925 -0.659291 5.96166 0
M  V30 8667 H 827.604 -0.3372 6.46121 0
M  V30 8668 N 827.736 -1.57571 -0.0300757 0
M  V30 8669 C 828.699 -2.05468 -1.01565 0
M  V30 8670 C 829.699 -0.958628 -1.29101 0
M  V30 8671 O 830.889 -1.22228 -1.24121 0
M  V30 8672 C 828.021 -2.47077 -2.34874 0
M  V30 8673 H 829.214 -2.93797 -0.601936 0
M  V30 8674 H 826.767 -1.53828 -0.276878 0
M  V30 8675 H 827.502 -1.61901 -2.80996 0
M  V30 8676 H 827.287 -3.27097 -2.16218 0
M  V30 8677 H 828.777 -2.84564 -3.05635 0
M  V30 8678 N 829.214 0.302327 -1.54673 0
M  V30 8679 C 830.439 1.06103 -1.78205 0
M  V30 8680 C 830.864 1.80204 -0.53926 0
M  V30 8681 O 830.222 1.73975 0.510142 0
M  V30 8682 C 830.27 2.01829 -2.98827 0
M  V30 8683 O 829.374 3.10108 -2.71858 0
M  V30 8684 H 828.715 0.30487 -0.589873 0
M  V30 8685 H 831.245 0.340153 -2.01753 0
M  V30 8686 H 831.255 2.44319 -3.2676 0
M  V30 8687 H 829.93 1.473 -3.88942 0
M  V30 8688 H 828.507 2.72142 -2.54937 0
M  V30 8689 N 830.692 1.47107 0.565454 0
M  V30 8690 C 831.94 1.53005 1.32038 0
M  V30 8691 C 832.261 0.190453 1.94068 0
M  V30 8692 O 831.531 -0.784783 1.79494 0
M  V30 8693 H 830.111 0.563578 0.490294 0
M  V30 8694 H 832.773 1.83351 0.660928 0
M  V30 8695 H 831.869 2.29215 2.11818 0
M  V30 8696 N 832.17 -0.811516 1.35101 0
M  V30 8697 C 833.416 -1.57068 1.28287 0
M  V30 8698 C 833.749 -1.93667 -0.143808 0
M  V30 8699 O 833.024 -1.60953 -1.09199 0
M  V30 8700 C 833.307 -2.86259 2.18466 0
M  V30 8701 C 833.16 -2.56168 3.69727 0
M  V30 8702 C 834.479 -3.87924 2.07852 0
M  V30 8703 H 831.598 -0.569869 0.467353 0
M  V30 8704 H 834.24 -0.934023 1.65457 0
M  V30 8705 H 832.39 -3.4059 1.86898 0
M  V30 8706 H 834.062 -2.08059 4.11715 0
M  V30 8707 H 832.305 -1.89436 3.90252 0
M  V30 8708 H 832.976 -3.48344 4.28206 0
M  V30 8709 H 835.452 -3.4298 2.35593 0
M  V30 8710 H 834.328 -4.76106 2.73157 0
M  V30 8711 H 834.589 -4.2923 1.05896 0
M  V30 8712 N 833.648 -1.19017 -1.03309 0
M  V30 8713 C 834.873 -1.01598 -1.80811 0
M  V30 8714 C 835.298 0.430773 -1.83101 0
M  V30 8715 O 834.656 1.30946 -1.25391 0
M  V30 8716 C 834.704 -1.5845 -3.23923 0
M  V30 8717 O 833.808 -0.810972 -4.04348 0
M  V30 8718 H 833.149 -0.359398 -0.558327 0
M  V30 8719 H 835.679 -1.57945 -1.30055 0
M  V30 8720 H 835.689 -1.61486 -3.74682 0
M  V30 8721 H 834.364 -2.63752 -3.21571 0
M  V30 8722 H 832.941 -0.85353 -3.63 0
M  V30 8723 N 835.127 1.22348 -0.993418 0
M  V30 8724 C 836.376 1.90422 -0.665019 0
M  V30 8725 C 836.689 1.78199 0.806512 0
M  V30 8726 O 837.895 2.41193 1.24652 0
M  V30 8727 C 836.351 3.41403 -1.13893 0
M  V30 8728 C 835.959 3.62262 -2.63572 0
M  V30 8729 C 837.703 4.15175 -0.884884 0
M  V30 8730 C 835.61 5.06947 -3.04564 0
M  V30 8731 H 834.54 0.713073 -0.245037 0
M  V30 8732 H 837.191 1.3856 -1.20305 0
M  V30 8733 H 835.573 3.9245 -0.529027 0
M  V30 8734 H 836.747 3.21705 -3.29913 0
M  V30 8735 H 835.062 3.01824 -2.86865 0
M  V30 8736 H 837.659 5.21813 -1.16684 0
M  V30 8737 H 838.002 4.15915 0.178982 0
M  V30 8738 H 838.535 3.70157 -1.45701 0
M  V30 8739 H 835.274 5.11346 -4.10128 0
M  V30 8740 H 834.794 5.48404 -2.42927 0
M  V30 8741 H 836.473 5.75374 -2.95894 0
M  V30 8742 N 836.605 0.766683 1.37694 0
M  V30 8743 C 837.552 0.147725 2.30327 0
M  V30 8744 C 838.522 -0.695366 1.50844 0
M  V30 8745 O 839.707 -0.64878 1.79431 0
M  V30 8746 C 836.847 -0.72935 3.37305 0
M  V30 8747 C 835.96 0.129795 4.31805 0
M  V30 8748 C 835.095 -0.751511 5.25857 0
M  V30 8749 C 834.134 0.110475 6.12 0
M  V30 8750 N 833.271 -0.728522 6.9831 0
M  V30 8751 H 838.111 0.943204 2.82679 0
M  V30 8752 H 835.648 0.476736 1.3916 0
M  V30 8753 H 837.606 -1.25263 3.97951 0
M  V30 8754 H 836.236 -1.49048 2.86329 0
M  V30 8755 H 835.288 0.770829 3.72508 0
M  V30 8756 H 836.6 0.794923 4.92425 0
M  V30 8757 H 835.754 -1.34146 5.91684 0
M  V30 8758 H 834.493 -1.45034 4.65636 0
M  V30 8759 H 833.498 0.712999 5.45157 0
M  V30 8760 H 834.723 0.806557 6.74293 0
M  V30 8761 H 832.669 -1.41206 6.40622 0
M  V30 8762 H 832.586 -0.12058 7.55904 0
M  V30 8763 H 833.854 -1.30303 7.68532 0
M  V30 8764 N 838.083 -1.48885 0.516809 0
M  V30 8765 C 839.016 -2.26218 -0.30011 0
M  V30 8766 C 839.994 -1.31491 -0.956496 0
M  V30 8767 O 841.178 -1.6081 -0.983488 0
M  V30 8768 C 838.305 -3.07315 -1.42392 0
M  V30 8769 C 837.351 -4.17316 -0.880295 0
M  V30 8770 S 838.184 -5.34955 0.24146 0
M  V30 8771 C 839.34 -6.1961 -0.885138 0
M  V30 8772 H 839.573 -2.95158 0.356217 0
M  V30 8773 H 837.106 -1.5141 0.302365 0
M  V30 8774 H 839.064 -3.54619 -2.06775 0
M  V30 8775 H 837.725 -2.37813 -2.05192 0
M  V30 8776 H 836.918 -4.73635 -1.72297 0
M  V30 8777 H 836.52 -3.72685 -0.313396 0
M  V30 8778 H 838.812 -6.53513 -1.78682 0
M  V30 8779 H 839.755 -7.07183 -0.360226 0
M  V30 8780 H 840.163 -5.52461 -1.1596 0
M  V30 8781 N 839.561 -0.251338 -1.55583 0
M  V30 8782 C 840.81 0.372681 -1.98227 0
M  V30 8783 C 841.123 1.58743 -1.1428 0
M  V30 8784 O 842.329 2.28289 -1.46957 0
M  V30 8785 C 840.785 0.714439 -3.52738 0
M  V30 8786 C 840.393 -0.479168 -4.4543 0
M  V30 8787 C 842.137 1.3024 -4.04027 0
M  V30 8788 C 840.044 -0.113318 -5.91291 0
M  V30 8789 H 838.974 0.14302 -0.740312 0
M  V30 8790 H 841.625 -0.352253 -1.80087 0
M  V30 8791 H 840.007 1.49762 -3.66589 0
M  V30 8792 H 841.181 -1.25644 -4.4334 0
M  V30 8793 H 839.496 -0.982359 -4.04646 0
M  V30 8794 H 842.093 1.58953 -5.10527 0
M  V30 8795 H 842.436 2.22837 -3.51638 0
M  V30 8796 H 842.969 0.582024 -3.93519 0
M  V30 8797 H 839.708 -1.00654 -6.47726 0
M  V30 8798 H 839.228 0.627666 -5.96507 0
M  V30 8799 H 840.907 0.30293 -6.4629 0
M  V30 8800 N 841.039 1.57585 0.0217189 0
M  V30 8801 C 842.267 1.93871 0.722619 0
M  V30 8802 C 842.682 0.851706 1.68498 0
M  V30 8803 O 842.039 -0.17127 1.81695 0
M  V30 8804 C 842.09 3.30114 1.47333 0
M  V30 8805 O 841.811 4.34639 0.549597 0
M  V30 8806 C 843.312 3.80727 2.27072 0
M  V30 8807 H 840.532 0.639671 0.202637 0
M  V30 8808 H 843.076 2.04487 -0.0229414 0
M  V30 8809 H 841.231 3.20872 2.17071 0
M  V30 8810 H 841.645 5.13326 1.07686 0
M  V30 8811 H 843.119 4.78547 2.75131 0
M  V30 8812 H 843.596 3.12301 3.08812 0
M  V30 8813 H 844.202 3.93075 1.62395 0
M  V30 8814 N 842.517 -0.29412 1.54831 0
M  V30 8815 C 843.765 -1.02643 1.74094 0
M  V30 8816 C 844.086 -1.87563 0.533402 0
M  V30 8817 O 843.356 -1.9061 -0.452192 0
M  V30 8818 H 841.936 -0.381959 0.641963 0
M  V30 8819 H 844.598 -0.323444 1.92197 0
M  V30 8820 H 843.694 -1.67558 2.63307 0
M  V30 8821 N 843.995 -1.47404 -0.557645 0
M  V30 8822 C 845.272 -1.44488 -1.31843 0
M  V30 8823 C 845.652 -0.1416 -2.10625 0
M  V30 8824 O 845 0.876908 -2.11004 0
M  V30 8825 C 845.21 -2.69016 -2.22331 0
M  V30 8826 C 846.558 -3.16212 -2.83364 0
M  V30 8827 O 847.582 -2.69741 -2.32634 0
M  V30 8828 O 846.441 -3.96999 -3.75571 0
M  V30 8829 H 843.535 -0.57578 -0.593639 0
M  V30 8830 H 846.081 -1.59605 -0.576584 0
M  V30 8831 H 844.853 -3.55406 -1.63715 0
M  V30 8832 H 844.476 -2.56484 -3.03812 0
M  V30 8833 N 845.473 0.80434 -1.35529 0
M  V30 8834 C 846.698 1.598 -1.32207 0
M  V30 8835 C 847.123 1.87848 0.0974226 0
M  V30 8836 O 846.481 1.46728 1.06492 0
M  V30 8837 C 846.529 2.90483 -2.13663 0
M  V30 8838 O 845.633 3.83411 -1.51888 0
M  V30 8839 H 844.974 0.485305 -0.453183 0
M  V30 8840 H 847.504 0.998119 -1.78602 0
M  V30 8841 H 847.514 3.39888 -2.257 0
M  V30 8842 H 846.189 2.69395 -3.16859 0
M  V30 8843 H 844.766 3.41967 -1.48704 0
M  V30 8844 N 846.951 1.19563 1.02676 0
M  V30 8845 C 847.883 0.893054 2.11086 0
M  V30 8846 C 848.896 -0.115101 1.62393 0
M  V30 8847 O 850.085 0.11459 1.78132 0
M  V30 8848 C 847.185 0.315533 3.37428 0
M  V30 8849 C 846.358 1.37276 4.153 0
M  V30 8850 C 845.417 0.808398 5.19953 0
M  V30 8851 O 844.443 1.48661 5.49444 0
M  V30 8852 N 845.645 -0.387253 5.79207 0
M  V30 8853 H 848.41 1.82622 2.37633 0
M  V30 8854 H 845.971 1.09792 1.18984 0
M  V30 8855 H 847.963 -0.0759166 4.04629 0
M  V30 8856 H 846.533 -0.521961 3.08211 0
M  V30 8857 H 845.753 1.93897 3.43217 0
M  V30 8858 H 847.041 2.08509 4.64114 0
M  V30 8859 H 846.439 -0.955725 5.57568 0
M  V30 8860 H 844.996 -0.720457 6.47806 0
M  V30 8861 N 848.429 -1.21819 0.999893 0
M  V30 8862 C 849.339 -2.27691 0.565159 0
M  V30 8863 C 850.355 -1.69587 -0.389398 0
M  V30 8864 O 851.531 -1.99786 -0.254499 0
M  V30 8865 C 848.596 -3.46537 -0.106432 0
M  V30 8866 C 847.657 -4.19932 0.891964 0
M  V30 8867 C 846.89 -5.33103 0.252327 0
M  V30 8868 O 847.113 -5.62398 -0.952103 0
M  V30 8869 O 846.047 -5.94184 0.960698 0
M  V30 8870 H 849.873 -2.67059 1.44613 0
M  V30 8871 H 847.458 -1.28119 0.768499 0
M  V30 8872 H 849.34 -4.18631 -0.482301 0
M  V30 8873 H 848.015 -3.09079 -0.961865 0
M  V30 8874 H 846.922 -3.5008 1.3189 0
M  V30 8875 H 848.255 -4.61287 1.71682 0
M  V30 8876 N 849.908 -0.773975 -1.37286 0
M  V30 8877 C 851.136 -0.350758 -2.03905 0
M  V30 8878 C 851.551 1.02779 -1.58373 0
M  V30 8879 O 850.908 1.65646 -0.766009 0
M  V30 8880 C 850.959 -0.387335 -3.59419 0
M  V30 8881 O 850.68 -1.7115 -4.03286 0
M  V30 8882 C 852.181 0.047198 -4.43275 0
M  V30 8883 H 849.401 -0.146663 -0.654775 0
M  V30 8884 H 851.945 -1.04852 -1.75574 0
M  V30 8885 H 850.1 0.261865 -3.86514 0
M  V30 8886 H 850.514 -1.65166 -4.97816 0
M  V30 8887 H 851.988 -0.0295474 -5.51992 0
M  V30 8888 H 852.465 1.09786 -4.25257 0
M  V30 8889 H 853.071 -0.573899 -4.2141 0
M  V30 8890 N 851.386 1.48609 -0.524698 0
M  V30 8891 C 852.349 2.28041 0.230166 0
M  V30 8892 C 853.349 1.35065 0.872584 0
M  V30 8893 O 854.539 1.58007 0.73345 0
M  V30 8894 C 851.671 3.13778 1.33252 0
M  V30 8895 H 852.864 2.96239 -0.467161 0
M  V30 8896 H 850.417 1.53763 -0.280452 0
M  V30 8897 H 851.152 2.502 2.06327 0
M  V30 8898 H 850.937 3.82165 0.877058 0
M  V30 8899 H 852.427 3.7371 1.86362 0
M  V30 8900 N 852.864 0.259585 1.55447 0
M  V30 8901 C 854.11 -0.362143 1.9954 0
M  V30 8902 C 854.443 -1.5666 1.14767 0
M  V30 8903 O 853.718 -1.93319 0.214025 0
M  V30 8904 C 854.001 -0.759588 3.51998 0
M  V30 8905 C 853.854 0.451134 4.47532 0
M  V30 8906 C 855.173 -1.60186 4.09913 0
M  V30 8907 H 852.292 -0.130157 0.725416 0
M  V30 8908 H 854.934 0.363431 1.86492 0
M  V30 8909 H 853.084 -1.3778 3.63248 0
M  V30 8910 H 854.756 1.08965 4.48246 0
M  V30 8911 H 852.999 1.092 4.19831 0
M  V30 8912 H 853.67 0.129518 5.51848 0
M  V30 8913 H 856.146 -1.0799 4.01842 0
M  V30 8914 H 855.022 -1.84879 5.16828 0
M  V30 8915 H 855.283 -2.57787 3.59163 0
M  V30 8916 N 854.342 -1.57594 -0.0133615 0
M  V30 8917 C 855.305 -2.06534 -0.993799 0
M  V30 8918 C 856.305 -0.972267 -1.28077 0
M  V30 8919 O 857.495 -1.23537 -1.22818 0
M  V30 8920 C 854.627 -2.49554 -2.3224 0
M  V30 8921 H 855.82 -2.94419 -0.570741 0
M  V30 8922 H 853.373 -1.54113 -0.260546 0
M  V30 8923 H 854.108 -1.64872 -2.79263 0
M  V30 8924 H 853.893 -3.29371 -2.12737 0
M  V30 8925 H 855.383 -2.8779 -3.026 0
M  V30 8926 N 855.82 0.285905 -1.54985 0
M  V30 8927 C 857.069 1.01691 -1.74189 0
M  V30 8928 C 857.382 1.87908 -0.543135 0
M  V30 8929 O 858.588 2.64389 -0.617305 0
M  V30 8930 C 857.044 1.85785 -3.0824 0
M  V30 8931 C 856.652 1.04497 -4.35642 0
M  V30 8932 C 858.396 2.58393 -3.36798 0
M  V30 8933 C 856.303 1.87955 -5.60738 0
M  V30 8934 H 855.233 0.383396 -0.649248 0
M  V30 8935 H 857.884 0.27317 -1.81455 0
M  V30 8936 H 856.266 2.64205 -2.94978 0
M  V30 8937 H 857.44 0.305847 -4.59784 0
M  V30 8938 H 855.755 0.434023 -4.14132 0
M  V30 8939 H 858.352 3.21214 -4.27464 0
M  V30 8940 H 858.695 3.28011 -2.56349 0
M  V30 8941 H 859.228 1.87012 -3.511 0
M  V30 8942 H 855.967 1.22781 -6.43898 0
M  V30 8943 H 855.487 2.59499 -5.40759 0
M  V30 8944 H 857.166 2.45636 -5.98558 0
M  V30 8945 N 857.298 1.47698 0.54982 0
M  V30 8946 C 858.261 1.60282 1.63837 0
M  V30 8947 C 859.261 0.477394 1.5355 0
M  V30 8948 O 860.451 0.742665 1.57576 0
M  V30 8949 C 857.583 1.55431 3.03404 0
M  V30 8950 H 858.776 2.57325 1.54026 0
M  V30 8951 H 856.329 1.35999 0.770329 0
M  V30 8952 H 857.064 0.597912 3.1874 0
M  V30 8953 H 856.849 2.37116 3.12279 0
M  V30 8954 H 858.339 1.6739 3.82584 0
M  V30 8955 N 858.776 -0.797141 1.35954 0
M  V30 8956 C 860.001 -1.59097 1.33053 0
M  V30 8957 C 860.426 -1.87897 -0.0874592 0
M  V30 8958 O 859.784 -1.47291 -1.05712 0
M  V30 8959 C 859.832 -2.89346 2.152 0
M  V30 8960 O 858.936 -3.826 1.5392 0
M  V30 8961 H 858.277 -0.482895 0.45575 0
M  V30 8962 H 860.807 -0.988633 1.79129 0
M  V30 8963 H 860.817 -3.38686 2.27499 0
M  V30 8964 H 859.492 -2.6771 3.18283 0
M  V30 8965 H 858.069 -3.41174 1.50516 0
M  V30 8966 N 860.254 -1.20106 -1.0204 0
M  V30 8967 C 861.67 -0.955099 -1.27867 0
M  V30 8968 C 861.87 0.367595 -1.98119 0
M  V30 8969 O 860.926 1.09705 -2.27423 0
M  V30 8970 C 862.239 -2.13507 -2.11744 0
M  V30 8971 C 863.787 -2.17563 -2.25023 0
M  V30 8972 C 864.262 -3.35035 -3.12275 0
M  V30 8973 N 865.753 -3.35024 -3.19864 0
M  V30 8974 C 866.488 -4.22566 -3.8759 0
M  V30 8975 N 865.984 -5.20278 -4.57474 0
M  V30 8976 N 867.777 -4.10418 -3.84075 0
M  V30 8977 H 859.928 -2.05193 -0.54861 0
M  V30 8978 H 862.191 -0.897689 -0.304728 0
M  V30 8979 H 861.897 -3.09275 -1.67456 0
M  V30 8980 H 861.771 -2.11281 -3.12474 0
M  V30 8981 H 864.158 -1.22359 -2.68537 0
M  V30 8982 H 864.239 -2.23838 -1.23815 0
M  V30 8983 H 863.883 -4.30522 -2.69468 0
M  V30 8984 H 863.813 -3.25996 -4.13563 0
M  V30 8985 H 866.304 -2.64299 -2.701 0
M  V30 8986 H 866.617 -5.83408 -5.06809 0
M  V30 8987 H 864.962 -5.24219 -4.56311 0
M  V30 8988 H 868.153 -3.33353 -3.28623 0
M  V30 8989 H 868.326 -4.78854 -4.36581 0
M  V30 8990 N 861.732 1.21287 -1.00634 0
M  V30 8991 C 862.662 2.25973 -0.588089 0
M  V30 8992 C 863.643 1.65527 0.391764 0
M  V30 8993 O 864.828 1.92179 0.279452 0
M  V30 8994 C 861.958 3.47197 0.0847336 0
M  V30 8995 C 860.912 4.20168 -0.815039 0
M  V30 8996 C 860.238 5.34699 -0.00855393 0
M  V30 8997 C 861.538 4.77416 -2.11828 0
M  V30 8998 H 863.232 2.61212 -1.46317 0
M  V30 8999 H 860.778 1.25563 -0.704985 0
M  V30 9000 H 862.731 4.19602 0.388821 0
M  V30 9001 H 861.455 3.11092 0.994456 0
M  V30 9002 H 860.114 3.49614 -1.10297 0
M  V30 9003 H 859.762 4.94837 0.902499 0
M  V30 9004 H 859.462 5.84449 -0.607664 0
M  V30 9005 H 860.986 6.09914 0.289317 0
M  V30 9006 H 862.4 5.41694 -1.87725 0
M  V30 9007 H 860.797 5.37561 -2.66736 0
M  V30 9008 H 861.867 3.96724 -2.78816 0
M  V30 9009 N 863.21 0.781244 1.36873 0
M  V30 9010 C 864.458 0.349198 1.9906 0
M  V30 9011 C 864.779 -1.0806 1.62321 0
M  V30 9012 O 864.049 -1.74351 0.893229 0
M  V30 9013 H 862.629 0.126126 0.736275 0
M  V30 9014 H 865.291 1.00148 1.67202 0
M  V30 9015 H 864.387 0.434451 3.09061 0
M  V30 9016 N 864.689 -1.48329 0.532571 0
M  V30 9017 C 865.619 -2.32485 -0.217511 0
M  V30 9018 C 866.6 -1.42255 -0.932598 0
M  V30 9019 O 867.785 -1.7114 -0.917873 0
M  V30 9020 C 864.915 -3.23509 -1.26329 0
M  V30 9021 C 863.869 -4.22784 -0.666191 0
M  V30 9022 C 863.195 -5.0296 -1.81482 0
M  V30 9023 C 864.495 -5.21031 0.363813 0
M  V30 9024 H 866.189 -2.95445 0.485014 0
M  V30 9025 H 863.735 -1.42075 0.234694 0
M  V30 9026 H 865.688 -3.81211 -1.79601 0
M  V30 9027 H 864.412 -2.58554 -1.99543 0
M  V30 9028 H 863.071 -3.66272 -0.15498 0
M  V30 9029 H 862.719 -4.34427 -2.5354 0
M  V30 9030 H 862.419 -5.70154 -1.4212 0
M  V30 9031 H 863.943 -5.63514 -2.35126 0
M  V30 9032 H 865.357 -5.73241 -0.0819079 0
M  V30 9033 H 863.754 -5.96292 0.674956 0
M  V30 9034 H 864.824 -4.6801 1.26865 0
M  V30 9035 N 866.167 -0.267825 -1.55308 0
M  V30 9036 C 867.397 0.354073 -2.03543 0
M  V30 9037 C 867.805 1.50554 -1.14586 0
M  V30 9038 O 867.148 1.83028 -0.156991 0
M  V30 9039 C 867.21 0.904148 -3.47945 0
M  V30 9040 C 866.874 -0.11775 -4.56848 0
M  V30 9041 C 867.871 -0.934707 -5.11429 0
M  V30 9042 C 865.556 -0.249885 -5.01678 0
M  V30 9043 C 867.55 -1.87005 -6.0935 0
M  V30 9044 C 865.237 -1.18872 -5.99427 0
M  V30 9045 C 866.235 -1.99731 -6.53144 0
M  V30 9046 O 865.923 -2.92028 -7.48983 0
M  V30 9047 H 865.655 0.0857765 -0.670536 0
M  V30 9048 H 868.209 -0.395515 -2.01556 0
M  V30 9049 H 866.439 1.70368 -3.47148 0
M  V30 9050 H 868.128 1.43835 -3.79561 0
M  V30 9051 H 868.894 -0.84332 -4.77612 0
M  V30 9052 H 864.773 0.369469 -4.59517 0
M  V30 9053 H 868.317 -2.5016 -6.51203 0
M  V30 9054 H 864.214 -1.28095 -6.32663 0
M  V30 9055 H 864.982 -2.86627 -7.66673 0
M  V30 9056 N 867.645 1.57599 0.00500368 0
M  V30 9057 C 868.87 1.95026 0.705663 0
M  V30 9058 C 869.295 0.869643 1.6679 0
M  V30 9059 O 868.653 -0.172659 1.80476 0
M  V30 9060 C 868.701 3.31545 1.4181 0
M  V30 9061 O 867.805 3.25495 2.53232 0
M  V30 9062 H 867.146 0.636808 0.188074 0
M  V30 9063 H 869.676 2.04547 -0.046696 0
M  V30 9064 H 869.686 3.66996 1.78265 0
M  V30 9065 H 868.361 4.09751 0.712543 0
M  V30 9066 H 866.938 3.01714 2.19142 0
M  V30 9067 N 869.123 -0.277682 1.55134 0
M  V30 9068 C 870.07 -1.34313 1.87693 0
M  V30 9069 C 871.04 -1.49298 0.727973 0
M  V30 9070 O 872.225 -1.6378 0.978807 0
M  V30 9071 C 869.365 -2.69922 2.15026 0
M  V30 9072 C 868.478 -2.63197 3.42565 0
M  V30 9073 C 867.613 -3.90955 3.59622 0
M  V30 9074 C 866.652 -3.78722 4.8087 0
M  V30 9075 N 865.789 -4.98303 4.94609 0
M  V30 9076 H 870.629 -1.05847 2.78569 0
M  V30 9077 H 868.166 -0.511469 1.37922 0
M  V30 9078 H 870.124 -3.48817 2.28872 0
M  V30 9079 H 868.754 -2.966 1.2739 0
M  V30 9080 H 867.806 -1.76038 3.37216 0
M  V30 9081 H 869.118 -2.50056 4.31594 0
M  V30 9082 H 868.272 -4.78291 3.7326 0
M  V30 9083 H 867.011 -4.06957 2.6877 0
M  V30 9084 H 866.016 -2.89769 4.67241 0
M  V30 9085 H 867.241 -3.64242 5.73153 0
M  V30 9086 H 865.187 -5.14725 4.06687 0
M  V30 9087 H 865.104 -4.87675 5.77676 0
M  V30 9088 H 866.372 -5.87225 5.12628 0
M  V30 9089 N 870.601 -1.47988 -0.541979 0
M  V30 9090 C 871.829 -1.59034 -1.32347 0
M  V30 9091 C 872.244 -0.246123 -1.87189 0
M  V30 9092 O 871.601 0.762889 -1.6579 0
M  V30 9093 C 871.652 -2.62759 -2.48274 0
M  V30 9094 O 871.373 -3.91963 -1.95695 0
M  V30 9095 C 872.874 -2.84133 -3.4027 0
M  V30 9096 H 870.094 -0.536574 -0.402901 0
M  V30 9097 H 872.638 -1.93725 -0.655045 0
M  V30 9098 H 870.793 -2.3096 -3.11025 0
M  V30 9099 H 871.207 -4.48769 -2.7149 0
M  V30 9100 H 872.681 -3.60538 -4.17991 0
M  V30 9101 H 873.158 -1.92512 -3.9476 0
M  V30 9102 H 873.764 -3.17188 -2.83322 0
M  V30 9103 N 872.079 0.78992 -1.36375 0
M  V30 9104 C 873.304 1.58389 -1.33895 0
M  V30 9105 C 873.729 1.8794 0.0774934 0
M  V30 9106 O 873.087 1.4785 1.0493 0
M  V30 9107 C 873.135 2.88201 -2.16732 0
M  V30 9108 O 872.239 3.81778 -1.55946 0
M  V30 9109 H 871.58 0.480471 -0.458305 0
M  V30 9110 H 874.11 0.979119 -1.79651 0
M  V30 9111 H 874.12 3.37475 -2.29292 0
M  V30 9112 H 872.795 2.66019 -3.19698 0
M  V30 9113 H 871.372 3.40371 -1.52323 0
M  V30 9114 N 873.557 1.20646 1.01402 0
M  V30 9115 C 874.489 0.915392 2.10127 0
M  V30 9116 C 875.502 -0.0978705 1.62506 0
M  V30 9117 O 876.691 0.133477 1.78 0
M  V30 9118 C 873.791 0.351304 3.37074 0
M  V30 9119 C 872.964 1.41673 4.13821 0
M  V30 9120 C 872.023 0.8635 5.19067 0
M  V30 9121 O 871.049 1.54481 5.47836 0
M  V30 9122 N 872.251 -0.325799 5.79585 0
M  V30 9123 H 875.016 1.85132 2.35682 0
M  V30 9124 H 872.577 1.11048 1.17813 0
M  V30 9125 H 874.569 -0.032996 4.04687 0
M  V30 9126 H 873.139 -0.489242 3.08748 0
M  V30 9127 H 872.359 1.97526 3.41141 0
M  V30 9128 H 873.647 2.1342 4.61876 0
M  V30 9129 H 873.045 -0.896534 5.58551 0
M  V30 9130 H 871.602 -0.651708 6.48534 0
M  V30 9131 N 875.035 -1.20752 1.01276 0
M  V30 9132 C 876.26 -1.94547 0.718769 0
M  V30 9133 C 876.685 -1.7404 -0.713563 0
M  V30 9134 O 876.043 -1.03221 -1.49047 0
M  V30 9135 C 876.091 -3.44823 1.05497 0
M  V30 9136 O 875.195 -4.12072 0.164516 0
M  V30 9137 H 874.536 -0.607931 0.267051 0
M  V30 9138 H 877.066 -1.53292 1.35509 0
M  V30 9139 H 877.076 -3.95427 1.00507 0
M  V30 9140 H 875.751 -3.59072 2.09858 0
M  V30 9141 H 874.328 -3.71909 0.271615 0
M  V30 9142 N 876.513 -0.788492 -1.36457 0
M  V30 9143 C 877.759 -0.360995 -1.99561 0
M  V30 9144 C 878.092 1.06433 -1.62437 0
M  V30 9145 O 877.367 1.7352 -0.878705 0
M  V30 9146 C 877.65 -0.523735 -3.56271 0
M  V30 9147 C 877.503 -1.99268 -4.03252 0
M  V30 9148 C 878.822 0.0617908 -4.40057 0
M  V30 9149 H 875.941 -0.13264 -0.724966 0
M  V30 9150 H 878.583 -0.994659 -1.61884 0
M  V30 9151 H 876.733 0.0156979 -3.88497 0
M  V30 9152 H 878.405 -2.59311 -3.81518 0
M  V30 9153 H 876.648 -2.49561 -3.54826 0
M  V30 9154 H 877.319 -2.05752 -5.12221 0
M  V30 9155 H 879.795 -0.398674 -4.14186 0
M  V30 9156 H 878.671 -0.0821089 -5.48839 0
M  V30 9157 H 878.932 1.15381 -4.26778 0
M  V30 9158 N 877.991 1.48044 -0.54043 0
M  V30 9159 C 879.216 2.07396 -0.0124765 0
M  V30 9160 C 879.641 1.39288 1.26414 0
M  V30 9161 O 878.999 0.462252 1.75308 0
M  V30 9162 C 879.047 3.60131 0.18377 0
M  V30 9163 O 878.151 3.92995 1.25014 0
M  V30 9164 H 877.492 0.662554 -0.0438026 0
M  V30 9165 H 880.022 1.90306 -0.751327 0
M  V30 9166 H 880.032 4.06003 0.403197 0
M  V30 9167 H 878.707 4.09105 -0.74874 0
M  V30 9168 H 877.284 3.5889 1.01254 0
M  V30 9169 N 879.47 0.276058 1.55163 0
M  V30 9170 C 880.718 -0.339782 1.99223 0
M  V30 9171 C 881.039 -1.56307 1.16589 0
M  V30 9172 O 880.309 -1.94225 0.25564 0
M  V30 9173 H 878.889 -0.128534 0.735859 0
M  V30 9174 H 881.551 0.381612 1.91128 0
M  V30 9175 H 880.647 -0.629 3.05696 0
M  V30 9176 N 880.948 -1.576 0.00335426 0
M  V30 9177 C 881.858 -2.12067 -1.00322 0
M  V30 9178 C 882.874 -1.06672 -1.37467 0
M  V30 9179 O 884.05 -1.38592 -1.46131 0
M  V30 9180 C 881.115 -2.61593 -2.27531 0
M  V30 9181 C 880.176 -3.81602 -1.96668 0
M  V30 9182 C 879.409 -4.28756 -3.17811 0
M  V30 9183 O 879.632 -3.75222 -4.2961 0
M  V30 9184 O 878.566 -5.20877 -3.01613 0
M  V30 9185 H 882.392 -2.98299 -0.570199 0
M  V30 9186 H 879.977 -1.47835 -0.215682 0
M  V30 9187 H 881.859 -2.93631 -3.02256 0
M  V30 9188 H 880.534 -1.78457 -2.70065 0
M  V30 9189 H 879.441 -3.54531 -1.19408 0
M  V30 9190 H 880.774 -4.65822 -1.58968 0
M  V30 9191 N 882.426 0.269451 -1.5528 0
M  V30 9192 C 883.336 1.35511 -1.91505 0
M  V30 9193 C 884.352 1.53854 -0.812712 0
M  V30 9194 O 885.528 1.67912 -1.1121 0
M  V30 9195 C 882.593 2.6937 -2.18267 0
M  V30 9196 C 881.654 2.59743 -3.41807 0
M  V30 9197 C 880.887 3.87219 -3.67283 0
M  V30 9198 O 881.11 4.88066 -2.95208 0
M  V30 9199 O 880.044 3.87209 -4.60818 0
M  V30 9200 H 883.87 1.07785 -2.8393 0
M  V30 9201 H 881.455 0.468282 -1.41871 0
M  V30 9202 H 883.337 3.48513 -2.36889 0
M  V30 9203 H 882.012 2.96874 -1.29024 0
M  V30 9204 H 880.919 1.78964 -3.28516 0
M  V30 9205 H 882.252 2.37188 -4.3128 0
M  V30 9206 N 883.904 1.48273 0.534124 0
M  V30 9207 C 885.153 1.55334 1.28663 0
M  V30 9208 C 885.466 0.230345 1.94239 0
M  V30 9209 O 886.672 0.179161 2.70908 0
M  V30 9210 C 885.128 2.73927 2.33435 0
M  V30 9211 C 884.736 4.12852 1.73947 0
M  V30 9212 C 886.48 2.90298 3.09722 0
M  V30 9213 C 884.387 5.22711 2.76636 0
M  V30 9214 H 883.317 0.578262 0.483869 0
M  V30 9215 H 885.968 1.74598 0.564602 0
M  V30 9216 H 884.35 2.48089 3.08655 0
M  V30 9217 H 885.524 4.48691 1.04944 0
M  V30 9218 H 883.839 4.01562 1.10167 0
M  V30 9219 H 886.436 3.69542 3.86449 0
M  V30 9220 H 886.779 1.99598 3.6533 0
M  V30 9221 H 887.312 3.16017 2.41616 0
M  V30 9222 H 884.051 6.15362 2.25852 0
M  V30 9223 H 883.571 4.91364 3.43979 0
M  V30 9224 H 885.25 5.50648 3.39699 0
M  V30 9225 N 885.382 -0.782676 1.36792 0
M  V30 9226 C 886.659 -1.52939 1.21939 0
M  V30 9227 C 887.039 -2.10228 -0.191639 0
M  V30 9228 O 886.387 -1.94574 -1.19805 0
M  V30 9229 C 886.597 -2.61898 2.30674 0
M  V30 9230 C 887.945 -3.29598 2.67676 0
M  V30 9231 O 888.969 -2.72186 2.29768 0
M  V30 9232 O 887.828 -4.3337 3.32946 0
M  V30 9233 H 884.922 -0.676856 0.47518 0
M  V30 9234 H 887.468 -0.82058 1.48542 0
M  V30 9235 H 886.24 -2.17607 3.25212 0
M  V30 9236 H 885.863 -3.40391 2.05475 0
M  V30 9237 N 886.86 -1.21182 -1.00761 0
M  V30 9238 C 887.823 -0.970339 -2.07646 0
M  V30 9239 C 888.823 0.0576345 -1.60697 0
M  V30 9240 O 890.013 -0.179369 -1.73274 0
M  V30 9241 C 887.145 -0.462703 -3.37745 0
M  V30 9242 H 888.338 -1.91856 -2.30502 0
M  V30 9243 H 885.891 -1.02844 -1.17698 0
M  V30 9244 H 886.626 0.490559 -3.20568 0
M  V30 9245 H 886.411 -1.20416 -3.73152 0
M  V30 9246 H 887.901 -0.313531 -4.16421 0
M  V30 9247 N 888.338 1.20213 -1.01915 0
M  V30 9248 C 889.271 2.2181 -0.536243 0
M  V30 9249 C 890.249 1.57144 0.417689 0
M  V30 9250 O 891.433 1.85461 0.337088 0
M  V30 9251 C 888.56 3.37989 0.219303 0
M  V30 9252 C 887.606 4.2097 -0.684571 0
M  V30 9253 S 888.439 4.90216 -2.15519 0
M  V30 9254 C 889.595 6.09814 -1.40988 0
M  V30 9255 H 889.828 2.62429 -1.39709 0
M  V30 9256 H 887.361 1.30305 -0.828254 0
M  V30 9257 H 889.319 4.05335 0.649112 0
M  V30 9258 H 887.98 2.95825 1.05575 0
M  V30 9259 H 887.173 5.03897 -0.101833 0
M  V30 9260 H 886.775 3.58892 -1.05227 0
M  V30 9261 H 889.067 6.73964 -0.691243 0
M  V30 9262 H 890.01 6.72552 -2.21539 0
M  V30 9263 H 890.418 5.5709 -0.911645 0
M  V30 9264 N 889.816 0.795718 1.36037 0
M  V30 9265 C 891.093 0.294743 1.93367 0
M  V30 9266 C 891.473 -1.21406 1.72696 0
M  V30 9267 O 890.821 -2.00849 1.08959 0
M  V30 9268 C 891.031 0.694254 3.42025 0
M  V30 9269 C 892.379 0.677566 4.19159 0
M  V30 9270 O 893.403 0.635119 3.50492 0
M  V30 9271 O 892.262 0.726127 5.41655 0
M  V30 9272 H 889.356 0.0745459 0.823633 0
M  V30 9273 H 891.902 0.878685 1.4518 0
M  V30 9274 H 890.674 1.73458 3.50753 0
M  V30 9275 H 890.297 0.0845338 3.9751 0
M  V30 9276 N 891.294 -1.47756 0.548274 0
M  V30 9277 C 892.54 -2.02789 0.0209265 0
M  V30 9278 C 892.873 -1.42268 -1.32187 0
M  V30 9279 O 892.148 -0.575001 -1.85806 0
M  V30 9280 C 892.431 -3.60007 -0.0816674 0
M  V30 9281 C 892.284 -4.30977 1.28759 0
M  V30 9282 C 893.603 -4.32777 -0.799515 0
M  V30 9283 H 890.722 -0.736944 0.00907884 0
M  V30 9284 H 893.364 -1.76282 0.708839 0
M  V30 9285 H 891.514 -3.82722 -0.667537 0
M  V30 9286 H 893.186 -4.19629 1.91597 0
M  V30 9287 H 891.429 -3.9168 1.86466 0
M  V30 9288 H 892.1 -5.39488 1.16861 0
M  V30 9289 H 894.576 -4.15001 -0.30216 0
M  V30 9290 H 893.452 -5.42431 -0.840239 0
M  V30 9291 H 893.713 -4.01358 -1.85375 0
M  V30 9292 N 892.772 -0.284283 -1.55015 0
M  V30 9293 C 893.704 0.63258 -2.20298 0
M  V30 9294 C 894.717 1.11045 -1.1905 0
M  V30 9295 O 895.906 1.03078 -1.4573 0
M  V30 9296 C 893.006 1.87599 -2.82241 0
M  V30 9297 C 892.179 1.5434 -4.09265 0
M  V30 9298 C 891.238 2.64023 -4.55169 0
M  V30 9299 O 890.264 2.29821 -5.20741 0
M  V30 9300 N 891.466 3.94255 -4.26079 0
M  V30 9301 H 894.231 0.0737928 -2.99609 0
M  V30 9302 H 891.792 -0.105767 -1.61554 0
M  V30 9303 H 893.784 2.60289 -3.0989 0
M  V30 9304 H 892.354 2.3436 -2.06868 0
M  V30 9305 H 891.574 0.649912 -3.88806 0
M  V30 9306 H 892.862 1.29634 -4.92009 0
M  V30 9307 H 892.26 4.24859 -3.73512 0
M  V30 9308 H 890.817 4.63295 -4.58477 0
M  V30 9309 N 894.251 1.57596 -0.0117121 0
M  V30 9310 C 895.183 2.06025 1.0043 0
M  V30 9311 C 896.196 0.980348 1.29973 0
M  V30 9312 O 897.385 1.25691 1.26744 0
M  V30 9313 C 894.485 2.45514 2.33615 0
M  V30 9314 C 893.658 3.76378 2.22842 0
M  V30 9315 C 892.717 4.02606 3.38814 0
M  V30 9316 O 891.743 4.73108 3.16477 0
M  V30 9317 N 892.945 3.51416 4.62047 0
M  V30 9318 H 895.71 2.93811 0.591206 0
M  V30 9319 H 893.271 1.60947 0.175427 0
M  V30 9320 H 895.263 2.60166 3.09993 0
M  V30 9321 H 893.833 1.63186 2.66625 0
M  V30 9322 H 893.053 3.71691 1.313 0
M  V30 9323 H 894.341 4.62149 2.12829 0
M  V30 9324 H 893.739 2.94346 4.83091 0
M  V30 9325 H 892.296 3.71377 5.35651 0
M  V30 9326 N 895.729 -0.261212 1.5542 0
M  V30 9327 C 896.659 -1.32712 1.92119 0
M  V30 9328 C 897.64 -1.50934 0.784406 0
M  V30 9329 O 898.825 -1.63781 1.04352 0
M  V30 9330 C 895.955 -2.68453 2.20341 0
M  V30 9331 C 894.909 -2.64947 3.36136 0
M  V30 9332 C 894.235 -4.04349 3.49865 0
M  V30 9333 C 895.535 -2.23182 4.72215 0
M  V30 9334 H 897.229 -1.02245 2.81401 0
M  V30 9335 H 894.775 -0.490406 1.35392 0
M  V30 9336 H 896.728 -3.43144 2.44603 0
M  V30 9337 H 895.452 -3.00527 1.27871 0
M  V30 9338 H 894.111 -1.92714 3.11861 0
M  V30 9339 H 893.759 -4.33665 2.5484 0
M  V30 9340 H 893.459 -4.02895 4.27726 0
M  V30 9341 H 894.983 -4.80761 3.76432 0
M  V30 9342 H 896.397 -2.87599 4.95943 0
M  V30 9343 H 894.794 -2.32867 5.53076 0
M  V30 9344 H 895.864 -1.18327 4.70241 0
M  V30 9345 N 897.207 -1.48554 -0.526253 0
M  V30 9346 C 898.432 -1.60686 -1.31129 0
M  V30 9347 C 898.857 -0.268701 -1.86171 0
M  V30 9348 O 898.215 0.760167 -1.64594 0
M  V30 9349 C 898.263 -2.65938 -2.43536 0
M  V30 9350 O 897.367 -2.23356 -3.46678 0
M  V30 9351 H 896.708 -0.538691 -0.388211 0
M  V30 9352 H 899.238 -1.94567 -0.632826 0
M  V30 9353 H 899.248 -2.87327 -2.89668 0
M  V30 9354 H 897.923 -3.63085 -2.02835 0
M  V30 9355 H 896.5 -2.12196 -3.06639 0
M  V30 9356 N 898.685 0.775411 -1.37205 0
M  V30 9357 C 899.617 1.89761 -1.28544 0
M  V30 9358 C 900.63 1.61542 -0.201996 0
M  V30 9359 O 901.819 1.72528 -0.457848 0
M  V30 9360 C 898.919 3.24904 -0.963885 0
M  V30 9361 C 898.092 3.80796 -2.15205 0
M  V30 9362 C 897.151 4.94407 -1.80135 0
M  V30 9363 O 896.177 5.10185 -2.52388 0
M  V30 9364 N 897.379 5.75722 -0.743298 0
M  V30 9365 H 900.144 1.97708 -2.25237 0
M  V30 9366 H 897.705 0.954348 -1.30782 0
M  V30 9367 H 899.697 3.9842 -0.710182 0
M  V30 9368 H 898.267 3.12483 -0.085632 0
M  V30 9369 H 897.487 2.99101 -2.56773 0
M  V30 9370 H 898.775 4.1487 -2.94552 0
M  V30 9371 H 898.173 5.65518 -0.143655 0
M  V30 9372 H 896.73 6.4948 -0.549446 0
M  V30 9373 N 900.163 1.21714 1.00117 0
M  V30 9374 C 901.412 1.03087 1.73367 0
M  V30 9375 C 901.725 -0.435532 1.90689 0
M  V30 9376 O 902.931 -0.741291 2.61184 0
M  V30 9377 C 901.387 1.79593 3.11888 0
M  V30 9378 C 900.995 3.30428 3.02525 0
M  V30 9379 C 902.739 1.69386 3.89241 0
M  V30 9380 C 900.646 3.99408 4.3615 0
M  V30 9381 H 899.576 0.382117 0.650002 0
M  V30 9382 H 902.227 1.45486 1.11831 0
M  V30 9383 H 900.609 1.29988 3.74058 0
M  V30 9384 H 901.783 3.87364 2.49571 0
M  V30 9385 H 900.098 3.4122 2.38659 0
M  V30 9386 H 902.695 2.18251 4.8813 0
M  V30 9387 H 903.038 0.652773 4.1115 0
M  V30 9388 H 903.571 2.16489 3.33733 0
M  V30 9389 H 900.31 5.03735 4.19442 0
M  V30 9390 H 899.83 3.47261 4.8905 0
M  V30 9391 H 901.509 4.04537 5.04934 0
M  V30 9392 N 901.641 -1.19671 1.02551 0
M  V30 9393 C 902.887 -1.89548 0.721069 0
M  V30 9394 C 903.22 -1.79209 -0.748176 0
M  V30 9395 O 902.495 -1.1822 -1.54448 0
M  V30 9396 C 902.778 -3.4061 1.16861 0
M  V30 9397 C 902.631 -3.59838 2.69883 0
M  V30 9398 C 903.95 -4.33718 0.746782 0
M  V30 9399 H 901.069 -0.688315 0.263422 0
M  V30 9400 H 903.711 -1.40883 1.27483 0
M  V30 9401 H 901.861 -3.82188 0.697477 0
M  V30 9402 H 903.533 -3.27454 3.24917 0
M  V30 9403 H 901.776 -3.03005 3.10435 0
M  V30 9404 H 902.447 -4.65766 2.96253 0
M  V30 9405 H 904.923 -3.99837 1.15195 0
M  V30 9406 H 903.799 -5.38012 1.08786 0
M  V30 9407 H 904.06 -4.40704 -0.351057 0
M  V30 9408 N 903.119 -0.802921 -1.35613 0
M  V30 9409 C 904.53 -0.443004 -1.81368 0
M  V30 9410 C 904.881 1.03459 -1.66706 0
M  V30 9411 O 904.006 1.80372 -1.19561 0
M  V30 9412 C 904.601 -0.797324 -3.29284 0
M  V30 9413 C 903.16 -0.490055 -3.73196 0
M  V30 9414 C 902.307 -1.02487 -2.57666 0
M  V30 9415 H 905.258 -0.994888 -1.23643 0
M  V30 9416 H 905.279 -0.0934638 -3.80385 0
M  V30 9417 H 904.791 -1.87278 -3.39924 0
M  V30 9418 H 902.892 0.576818 -3.68108 0
M  V30 9419 H 903.005 -1.02012 -4.68114 0
M  V30 9420 H 901.369 -0.44738 -2.5074 0
M  V30 9421 H 902.152 -2.10636 -2.71085 0
M  V30 9422 N 904.597 1.47463 -0.556102 0
M  V30 9423 C 905.544 2.29998 0.192213 0
M  V30 9424 C 906.514 1.38993 0.909403 0
M  V30 9425 O 907.699 1.67954 0.905316 0
M  V30 9426 C 904.839 3.22932 1.21692 0
M  V30 9427 C 903.952 4.29027 0.505908 0
M  V30 9428 C 903.087 5.09114 1.51581 0
M  V30 9429 C 902.126 6.06984 0.789714 0
M  V30 9430 N 901.263 6.80033 1.74639 0
M  V30 9431 H 906.103 2.93468 -0.517734 0
M  V30 9432 H 903.64 1.44654 -0.267147 0
M  V30 9433 H 905.598 3.75234 1.8236 0
M  V30 9434 H 904.228 2.61329 1.89491 0
M  V30 9435 H 903.28 3.7979 -0.215276 0
M  V30 9436 H 904.592 4.9876 -0.062958 0
M  V30 9437 H 903.746 5.6556 2.19606 0
M  V30 9438 H 902.485 4.3928 2.11859 0
M  V30 9439 H 901.49 5.49717 0.0955382 0
M  V30 9440 H 902.715 6.78827 0.192688 0
M  V30 9441 H 900.661 6.12931 2.33777 0
M  V30 9442 H 900.578 7.45933 1.22965 0
M  V30 9443 H 901.846 7.41054 2.41782 0
M  V30 9444 N 906.075 0.2925 1.54862 0
M  V30 9445 C 907.321 -0.319736 2.00264 0
M  V30 9446 C 907.654 -1.5419 1.18064 0
M  V30 9447 O 906.929 -1.92821 0.254983 0
M  V30 9448 C 907.212 -0.684753 3.5353 0
M  V30 9449 C 907.065 0.545961 4.46474 0
M  V30 9450 C 908.384 -1.51456 4.13218 0
M  V30 9451 H 905.503 -0.11474 0.728014 0
M  V30 9452 H 908.145 0.402907 1.85679 0
M  V30 9453 H 906.295 -1.30044 3.66089 0
M  V30 9454 H 907.967 1.18448 4.45834 0
M  V30 9455 H 906.21 1.1808 4.1742 0
M  V30 9456 H 906.881 0.246544 5.51449 0
M  V30 9457 H 909.357 -0.994421 4.04043 0
M  V30 9458 H 908.233 -1.73875 5.20633 0
M  V30 9459 H 908.494 -2.5011 3.64551 0
M  V30 9460 N 907.553 -1.57587 0.0200696 0
M  V30 9461 C 908.516 -2.08595 -0.949767 0
M  V30 9462 C 909.516 -0.999215 -1.25985 0
M  V30 9463 O 910.706 -1.26115 -1.2017 0
M  V30 9464 C 907.838 -2.54424 -2.26895 0
M  V30 9465 H 909.031 -2.95563 -0.508161 0
M  V30 9466 H 906.584 -1.54631 -0.227798 0
M  V30 9467 H 907.319 -1.70758 -2.75703 0
M  V30 9468 H 907.104 -3.3381 -2.05702 0
M  V30 9469 H 908.594 -2.94144 -2.96427 0
M  V30 9470 N 909.032 0.252966 -1.55557 0
M  V30 9471 C 910.278 0.983306 -1.77367 0
M  V30 9472 C 910.611 1.85203 -0.584258 0
M  V30 9473 O 909.886 1.89963 0.417644 0
M  V30 9474 C 910.169 1.84896 -3.09007 0
M  V30 9475 C 910.022 1.00883 -4.38341 0
M  V30 9476 C 911.341 2.83254 -3.36831 0
M  V30 9477 H 908.46 0.356056 -0.645286 0
M  V30 9478 H 911.102 0.254232 -1.88291 0
M  V30 9479 H 909.252 2.47058 -2.99825 0
M  V30 9480 H 910.924 0.40638 -4.59507 0
M  V30 9481 H 909.167 0.31297 -4.3267 0
M  V30 9482 H 909.838 1.64818 -5.2682 0
M  V30 9483 H 912.314 2.31228 -3.45937 0
M  V30 9484 H 911.19 3.40949 -4.30169 0
M  V30 9485 H 911.451 3.59407 -2.57447 0
M  V30 9486 N 910.51 1.48831 0.518367 0
M  V30 9487 C 911.757 1.57439 1.27355 0
M  V30 9488 C 912.085 0.25338 1.92843 0
M  V30 9489 O 911.34 -0.757323 1.80452 0
M  V30 9490 C 911.639 2.67003 2.3758 0
M  V30 9491 C 911.305 4.09069 1.89667 0
M  V30 9492 C 909.967 4.47733 1.76319 0
M  V30 9493 C 912.319 4.98052 1.53603 0
M  V30 9494 C 909.647 5.73173 1.25258 0
M  V30 9495 C 911.999 6.23992 1.04001 0
M  V30 9496 C 910.663 6.61503 0.892784 0
M  V30 9497 H 909.933 0.57611 0.466023 0
M  V30 9498 H 912.58 1.82595 0.577166 0
M  V30 9499 H 910.885 2.35751 3.12936 0
M  V30 9500 H 912.582 2.70876 2.95681 0
M  V30 9501 H 909.172 3.7854 2.01011 0
M  V30 9502 H 913.356 4.68849 1.62771 0
M  V30 9503 H 908.612 6.0095 1.12557 0
M  V30 9504 H 912.786 6.92331 0.751706 0
M  V30 9505 H 910.413 7.58587 0.494939 0
M  V30 9506 N 911.988 -0.768124 1.37614 0
M  V30 9507 C 913.218 -1.555 1.36027 0
M  V30 9508 C 913.626 -1.89119 -0.0554273 0
M  V30 9509 O 912.969 -1.52203 -1.02859 0
M  V30 9510 C 913.031 -2.8906 2.13739 0
M  V30 9511 C 912.695 -2.78058 3.62674 0
M  V30 9512 C 913.692 -2.48841 4.5648 0
M  V30 9513 C 911.377 -2.95966 4.05844 0
M  V30 9514 C 913.371 -2.37665 5.91434 0
M  V30 9515 C 911.058 -2.84411 5.40882 0
M  V30 9516 C 912.056 -2.55301 6.33491 0
M  V30 9517 O 911.744 -2.43779 7.66046 0
M  V30 9518 H 911.476 -0.488263 0.467521 0
M  V30 9519 H 914.03 -0.959583 1.81607 0
M  V30 9520 H 912.26 -3.50735 1.62854 0
M  V30 9521 H 913.949 -3.5048 2.04741 0
M  V30 9522 H 914.715 -2.34687 4.24437 0
M  V30 9523 H 910.594 -3.17625 3.34119 0
M  V30 9524 H 914.138 -2.14865 6.63686 0
M  V30 9525 H 910.035 -2.98134 5.72527 0
M  V30 9526 H 910.803 -2.59101 7.76408 0
M  V30 9527 N 913.466 -1.22244 -0.994698 0
M  V30 9528 C 914.882 -0.982006 -1.25813 0
M  V30 9529 C 915.082 0.325488 -1.98854 0
M  V30 9530 O 914.138 1.04857 -2.29698 0
M  V30 9531 C 915.451 -2.1795 -2.07167 0
M  V30 9532 C 916.999 -2.22287 -2.20358 0
M  V30 9533 C 917.474 -3.41583 -3.05098 0
M  V30 9534 N 918.965 -3.41734 -3.12686 0
M  V30 9535 C 919.7 -4.30692 -3.78539 0
M  V30 9536 N 919.196 -5.29865 -4.46335 0
M  V30 9537 N 920.989 -4.18473 -3.75283 0
M  V30 9538 H 913.14 -2.0631 -0.504963 0
M  V30 9539 H 915.403 -0.90395 -0.285618 0
M  V30 9540 H 915.109 -3.12758 -1.60858 0
M  V30 9541 H 914.983 -2.17862 -3.07922 0
M  V30 9542 H 917.37 -1.28028 -2.65881 0
M  V30 9543 H 917.451 -2.26414 -1.19039 0
M  V30 9544 H 917.095 -4.36141 -2.60275 0
M  V30 9545 H 917.025 -3.34695 -4.06555 0
M  V30 9546 H 919.516 -2.69969 -2.64433 0
M  V30 9547 H 919.829 -5.94027 -4.9432 0
M  V30 9548 H 918.174 -5.3378 -4.45089 0
M  V30 9549 H 921.365 -3.40249 -3.21478 0
M  V30 9550 H 921.538 -4.88007 -4.26326 0
M  V30 9551 N 914.944 1.19125 -1.03184 0
M  V30 9552 C 915.907 2.20662 -0.619766 0
M  V30 9553 C 916.907 1.57621 0.318179 0
M  V30 9554 O 918.097 1.73885 0.104783 0
M  V30 9555 C 915.229 3.40774 0.0926696 0
M  V30 9556 H 916.422 2.58633 -1.5182 0
M  V30 9557 H 913.975 1.32855 -0.823364 0
M  V30 9558 H 914.71 3.08324 1.00531 0
M  V30 9559 H 914.495 3.87766 -0.581344 0
M  V30 9560 H 915.985 4.15977 0.367792 0
M  V30 9561 N 916.422 0.810101 1.35185 0
M  V30 9562 C 917.647 0.40364 2.03434 0
M  V30 9563 C 918.072 -0.97857 1.60641 0
M  V30 9564 O 917.43 -1.63435 0.784779 0
M  V30 9565 C 917.478 0.499154 3.57129 0
M  V30 9566 O 916.582 -0.486039 4.09526 0
M  V30 9567 H 915.923 0.168049 0.642383 0
M  V30 9568 H 918.453 1.09696 1.72708 0
M  V30 9569 H 918.463 0.370236 4.06317 0
M  V30 9570 H 917.138 1.50733 3.87624 0
M  V30 9571 H 915.715 -0.31707 3.7155 0
M  V30 9572 N 917.9 -1.47166 0.563914 0
M  V30 9573 C 919.311 -1.86231 0.132307 0
M  V30 9574 C 919.662 -1.46976 -1.29971 0
M  V30 9575 O 918.787 -0.875911 -1.97881 0
M  V30 9576 C 919.382 -3.37996 0.233335 0
M  V30 9577 C 917.941 -3.76127 -0.143278 0
M  V30 9578 C 917.088 -2.71212 0.577857 0
M  V30 9579 H 920.039 -1.38588 0.773249 0
M  V30 9580 H 920.06 -3.76558 -0.546309 0
M  V30 9581 H 919.572 -3.66535 1.27568 0
M  V30 9582 H 917.673 -3.53205 -1.18648 0
M  V30 9583 H 917.786 -4.78595 0.219952 0
M  V30 9584 H 916.15 -2.54692 0.020186 0
M  V30 9585 H 916.933 -3.02593 1.62149 0
M  V30 9586 N 919.378 -0.300708 -1.54705 0
M  V30 9587 C 920.794 0.0526874 -1.59513 0
M  V30 9588 C 920.994 1.52444 -1.31769 0
M  V30 9589 O 920.05 2.27716 -1.09096 0
M  V30 9590 C 921.363 -0.344989 -2.98714 0
M  V30 9591 C 922.911 -0.29373 -3.11619 0
M  V30 9592 C 923.386 -0.666225 -4.53129 0
M  V30 9593 N 924.877 -0.618749 -4.59049 0
M  V30 9594 C 925.612 -0.879447 -5.66616 0
M  V30 9595 N 925.108 -1.2061 -6.82221 0
M  V30 9596 N 926.901 -0.806528 -5.56284 0
M  V30 9597 H 919.052 -1.25988 -1.71 0
M  V30 9598 H 921.315 -0.510758 -0.798643 0
M  V30 9599 H 921.021 -1.36953 -3.2394 0
M  V30 9600 H 920.895 0.301507 -3.75993 0
M  V30 9601 H 923.282 0.72156 -2.86142 0
M  V30 9602 H 923.363 -0.974844 -2.36496 0
M  V30 9603 H 923.007 -1.67932 -4.79334 0
M  V30 9604 H 922.937 0.0369575 -5.26587 0
M  V30 9605 H 925.428 -0.377202 -3.76013 0
M  V30 9606 H 925.741 -1.391 -7.60178 0
M  V30 9607 H 924.086 -1.24413 -6.83774 0
M  V30 9608 H 927.277 -0.550993 -4.64846 0
M  V30 9609 H 927.45 -1.01307 -6.40032 0
M  V30 9610 N 920.856 1.57574 -0.0284266 0
M  V30 9611 C 921.806 2.06674 0.962804 0
M  V30 9612 C 922.79 0.967115 1.28591 0
M  V30 9613 O 923.982 1.23068 1.27214 0
M  V30 9614 C 921.111 2.59682 2.24545 0
M  V30 9615 C 920.197 3.76573 1.95073 0
M  V30 9616 N 920.588 4.8721 1.35869 0
M  V30 9617 C 918.886 3.85046 2.25068 0
M  V30 9618 C 919.587 5.68436 1.23514 0
M  V30 9619 N 918.563 5.15323 1.73041 0
M  V30 9620 H 922.365 2.89615 0.500013 0
M  V30 9621 H 919.879 1.61437 0.176604 0
M  V30 9622 H 921.876 2.93148 2.96428 0
M  V30 9623 H 920.536 1.7817 2.71451 0
M  V30 9624 H 921.547 5.07477 1.03379 0
M  V30 9625 H 918.224 3.14439 2.74653 0
M  V30 9626 H 919.614 6.67387 0.777403 0
M  V30 9627 N 922.334 -0.244713 1.55689 0
M  V30 9628 C 923.281 -1.30301 1.905 0
M  V30 9629 C 924.251 -1.4772 0.759478 0
M  V30 9630 O 925.436 -1.61667 1.01333 0
M  V30 9631 C 922.576 -2.653 2.20703 0
M  V30 9632 C 921.689 -2.55872 3.48071 0
M  V30 9633 C 920.824 -3.83238 3.67834 0
M  V30 9634 C 919.863 -3.68436 4.88796 0
M  V30 9635 N 919 -4.877 5.05068 0
M  V30 9636 H 923.84 -0.999143 2.80751 0
M  V30 9637 H 921.377 -0.482099 1.38976 0
M  V30 9638 H 923.335 -3.43884 2.36219 0
M  V30 9639 H 921.965 -2.93831 1.33653 0
M  V30 9640 H 921.017 -1.68846 3.40874 0
M  V30 9641 H 922.329 -2.40845 4.36801 0
M  V30 9642 H 921.483 -4.70266 3.83321 0
M  V30 9643 H 920.222 -4.01165 2.77341 0
M  V30 9644 H 919.227 -2.79793 4.73282 0
M  V30 9645 H 920.452 -3.52003 5.8075 0
M  V30 9646 H 918.398 -5.05983 4.17513 0
M  V30 9647 H 918.315 -4.75312 5.8789 0
M  V30 9648 H 919.583 -5.76219 5.24969 0
M  V30 9649 N 923.813 -1.49104 -0.510467 0
M  V30 9650 C 924.746 -1.59667 -1.63039 0
M  V30 9651 C 925.724 -0.446145 -1.5636 0
M  V30 9652 O 926.908 -0.660414 -1.76552 0
M  V30 9653 C 924.035 -1.54282 -3.01521 0
M  V30 9654 C 923.081 -2.74415 -3.26494 0
M  V30 9655 S 923.914 -4.3619 -3.10643 0
M  V30 9656 C 925.07 -4.33435 -4.51536 0
M  V30 9657 H 925.303 -2.54407 -1.53833 0
M  V30 9658 H 922.836 -1.37878 -0.694916 0
M  V30 9659 H 924.794 -1.51861 -3.81377 0
M  V30 9660 H 923.455 -0.608458 -3.0815 0
M  V30 9661 H 922.648 -2.66841 -4.27565 0
M  V30 9662 H 922.25 -2.74199 -2.54344 0
M  V30 9663 H 924.542 -4.04571 -5.43441 0
M  V30 9664 H 925.485 -5.34752 -4.64162 0
M  V30 9665 H 925.893 -3.63638 -4.31773 0
M  V30 9666 N 925.291 0.760815 -1.38019 0
M  V30 9667 C 926.238 1.8744 -1.34666 0
M  V30 9668 C 927.208 1.64762 -0.210386 0
M  V30 9669 O 928.393 1.86528 -0.401479 0
M  V30 9670 C 925.533 3.24648 -1.17037 0
M  V30 9671 C 924.646 3.59206 -2.3999 0
M  V30 9672 C 923.781 4.8568 -2.15148 0
M  V30 9673 C 922.82 5.13002 -3.3391 0
M  V30 9674 N 921.957 6.30668 -3.08549 0
M  V30 9675 H 926.797 1.8964 -2.29871 0
M  V30 9676 H 924.334 0.927004 -1.14215 0
M  V30 9677 H 926.292 4.03814 -1.04834 0
M  V30 9678 H 924.922 3.21793 -0.254758 0
M  V30 9679 H 923.974 2.74939 -2.62893 0
M  V30 9680 H 925.286 3.75328 -3.28527 0
M  V30 9681 H 924.44 5.72773 -2.00039 0
M  V30 9682 H 923.179 4.71682 -1.23965 0
M  V30 9683 H 922.184 4.2438 -3.49545 0
M  V30 9684 H 923.409 5.28901 -4.25958 0
M  V30 9685 H 921.355 6.18008 -2.20006 0
M  V30 9686 H 921.272 6.47257 -3.90633 0
M  V30 9687 H 922.54 7.20669 -2.9708 0
M  V30 9688 N 926.769 1.22769 0.988202 0
M  V30 9689 C 928.018 1.0492 1.72263 0
M  V30 9690 C 928.331 -0.415282 1.91141 0
M  V30 9691 O 929.537 -0.713547 2.61956 0
M  V30 9692 C 927.993 1.82891 3.09966 0
M  V30 9693 C 927.601 3.33618 2.99003 0
M  V30 9694 C 929.345 1.73505 3.87423 0
M  V30 9695 C 927.252 4.04012 4.3189 0
M  V30 9696 H 926.182 0.38899 0.645912 0
M  V30 9697 H 928.833 1.46664 1.10281 0
M  V30 9698 H 927.215 1.33948 3.72658 0
M  V30 9699 H 928.389 3.8999 2.45448 0
M  V30 9700 H 926.704 3.43732 2.35027 0
M  V30 9701 H 929.301 2.23416 4.85787 0
M  V30 9702 H 929.644 0.696344 4.10435 0
M  V30 9703 H 930.177 2.20016 3.31418 0
M  V30 9704 H 926.916 5.08155 4.14075 0
M  V30 9705 H 926.436 3.52428 4.8534 0
M  V30 9706 H 928.115 4.0987 5.00615 0
M  V30 9707 N 928.247 -1.18576 1.03814 0
M  V30 9708 C 929.496 -1.87822 0.735235 0
M  V30 9709 C 929.809 -1.81069 -0.739819 0
M  V30 9710 O 931.015 -2.45654 -1.15614 0
M  V30 9711 C 929.471 -3.36941 1.26486 0
M  V30 9712 C 929.079 -3.5223 2.76836 0
M  V30 9713 C 930.823 -4.11604 1.03836 0
M  V30 9714 C 928.73 -4.95294 3.23169 0
M  V30 9715 H 927.66 -0.703487 0.271333 0
M  V30 9716 H 930.311 -1.34 1.25365 0
M  V30 9717 H 928.693 -3.90217 0.674318 0
M  V30 9718 H 929.867 -3.09239 3.41625 0
M  V30 9719 H 928.182 -2.90969 2.97869 0
M  V30 9720 H 930.779 -5.17123 1.3597 0
M  V30 9721 H 931.122 -4.16293 -0.0244945 0
M  V30 9722 H 931.655 -3.64494 1.59338 0
M  V30 9723 H 928.394 -4.95772 4.28824 0
M  V30 9724 H 927.914 -5.3901 2.63113 0
M  V30 9725 H 929.593 -5.63996 3.17045 0
M  V30 9726 N 929.725 -0.817259 -1.34754 0
M  V30 9727 C 930.672 -0.233108 -2.2962 0
M  V30 9728 C 931.642 0.638902 -1.53321 0
M  V30 9729 O 932.827 0.581739 -1.81715 0
M  V30 9730 C 929.967 0.603659 -3.39779 0
M  V30 9731 C 929.08 -0.289967 -4.31026 0
M  V30 9732 C 928.215 0.555825 -5.28284 0
M  V30 9733 C 927.254 -0.337539 -6.11169 0
M  V30 9734 N 926.391 0.468847 -7.00533 0
M  V30 9735 H 931.231 -1.04747 -2.78984 0
M  V30 9736 H 928.768 -0.528056 -1.37295 0
M  V30 9737 H 930.726 1.10407 -4.02326 0
M  V30 9738 H 929.356 1.38319 -2.91664 0
M  V30 9739 H 928.408 -0.908552 -3.69391 0
M  V30 9740 H 929.72 -0.977136 -4.89135 0
M  V30 9741 H 928.874 1.12094 -5.96255 0
M  V30 9742 H 927.613 1.27652 -4.70698 0
M  V30 9743 H 926.618 -0.914839 -5.42135 0
M  V30 9744 H 927.843 -1.05626 -6.70835 0
M  V30 9745 H 925.789 1.17332 -6.45422 0
M  V30 9746 H 925.706 -0.160052 -7.55831 0
M  V30 9747 H 926.974 1.01689 -7.72839 0
M  V30 9748 N 931.203 1.46865 -0.571711 0
M  V30 9749 C 932.428 2.07323 -0.0564655 0
M  V30 9750 C 932.853 1.41938 1.23431 0
M  V30 9751 O 932.211 0.499334 1.74288 0
M  V30 9752 C 932.259 3.6044 0.107339 0
M  V30 9753 O 931.363 3.95558 1.1665 0
M  V30 9754 H 930.704 0.661475 -0.0578465 0
M  V30 9755 H 933.234 1.88669 -0.791524 0
M  V30 9756 H 933.244 4.06767 0.316987 0
M  V30 9757 H 931.919 4.07425 -0.835348 0
M  V30 9758 H 930.496 3.60957 0.936189 0
M  V30 9759 N 932.681 0.308908 1.54543 0
M  V30 9760 C 933.611 -0.556657 2.26768 0
M  V30 9761 C 934.592 -1.13145 1.27013 0
M  V30 9762 O 935.777 -1.15931 1.558 0
M  V30 9763 C 932.907 -1.72481 3.01443 0
M  V30 9764 C 931.861 -1.28001 4.08411 0
M  V30 9765 C 931.187 -2.53395 4.70845 0
M  V30 9766 C 932.487 -0.405497 5.20724 0
M  V30 9767 H 934.181 0.0457618 2.99365 0
M  V30 9768 H 931.727 0.0234495 1.43981 0
M  V30 9769 H 933.68 -2.3365 3.50693 0
M  V30 9770 H 932.404 -2.35359 2.26437 0
M  V30 9771 H 931.063 -0.69133 3.60022 0
M  V30 9772 H 930.711 -3.14604 3.92471 0
M  V30 9773 H 930.411 -2.2433 5.43093 0
M  V30 9774 H 931.935 -3.15352 5.22863 0
M  V30 9775 H 933.349 -0.923076 5.6582 0
M  V30 9776 H 931.746 -0.208282 5.99738 0
M  V30 9777 H 932.816 0.567412 4.81569 0
M  V30 9778 N 934.159 -1.57557 0.0367827 0
M  V30 9779 C 935.091 -2.07597 -0.971395 0
M  V30 9780 C 936.104 -1.0009 -1.28397 0
M  V30 9781 O 937.293 -1.27692 -1.24728 0
M  V30 9782 C 934.393 -2.492 -2.2968 0
M  V30 9783 C 933.566 -3.79875 -2.16826 0
M  V30 9784 C 932.625 -4.07946 -3.32366 0
M  V30 9785 O 931.651 -4.78083 -3.0891 0
M  V30 9786 N 932.853 -3.58722 -4.56397 0
M  V30 9787 H 935.618 -2.94714 -0.544389 0
M  V30 9788 H 933.179 -1.61205 -0.1498 0
M  V30 9789 H 935.171 -2.65065 -3.05815 0
M  V30 9790 H 933.741 -1.67407 -2.63995 0
M  V30 9791 H 932.961 -3.73732 -1.2537 0
M  V30 9792 H 934.249 -4.65476 -2.0545 0
M  V30 9793 H 933.647 -3.01994 -4.78347 0
M  V30 9794 H 932.204 -3.79852 -5.29675 0
M  V30 9795 N 935.637 0.236453 -1.55816 0
M  V30 9796 C 936.584 1.29289 -1.91188 0
M  V30 9797 C 937.554 1.47315 -0.767301 0
M  V30 9798 O 938.739 1.61128 -1.02189 0
M  V30 9799 C 935.879 2.64126 -2.22107 0
M  V30 9800 C 934.992 2.54022 -3.49423 0
M  V30 9801 C 934.127 3.81282 -3.69861 0
M  V30 9802 C 933.166 3.65839 -4.90743 0
M  V30 9803 N 932.303 4.85014 -5.07647 0
M  V30 9804 H 937.143 0.98424 -2.81277 0
M  V30 9805 H 934.68 0.474722 -1.39229 0
M  V30 9806 H 936.638 3.42626 -2.3804 0
M  V30 9807 H 935.268 2.93118 -1.35209 0
M  V30 9808 H 934.32 1.67036 -3.41765 0
M  V30 9809 H 935.632 2.38525 -4.38072 0
M  V30 9810 H 934.786 4.68226 -3.8581 0
M  V30 9811 H 933.525 3.99688 -2.79465 0
M  V30 9812 H 932.53 2.77279 -4.74759 0
M  V30 9813 H 933.755 3.48918 -5.82609 0
M  V30 9814 H 931.701 5.03762 -4.20191 0
M  V30 9815 H 931.618 4.72188 -5.90402 0
M  V30 9816 H 932.886 5.73427 -5.28017 0
M  V30 9817 N 937.115 1.49373 0.502552 0
M  V30 9818 C 938.063 1.66411 1.62512 0
M  V30 9819 C 939.057 0.530062 1.60893 0
M  V30 9820 O 940.263 0.709648 1.65421 0
M  V30 9821 H 936.638 0.524707 0.538689 0
M  V30 9822 H 938.609 2.60639 1.45293 0
M  V30 9823 C 937.358 1.74648 3.00655 0
M  V30 9824 H 936.681 2.61285 3.02606 0
M  V30 9825 H 938.121 1.90605 3.78742 0
M  V30 9826 C 936.58 0.490963 3.33303 0
M  V30 9827 O 937.11 -0.384039 3.9986 0
M  V30 9828 N 935.316 0.354375 2.88431 0
M  V30 9829 H 934.863 1.06742 2.34444 0
M  V30 9830 H 934.821 -0.484593 3.10643 0
M  V30 9831 N 938.594 -0.753485 1.38421 0
M  V30 9832 C 939.842 -1.50962 1.34368 0
M  V30 9833 C 940.163 -1.94889 -0.0656895 0
M  V30 9834 O 939.433 -1.67652 -1.01339 0
M  V30 9835 H 938.013 -0.559967 0.494415 0
M  V30 9836 H 940.675 -0.895665 1.73101 0
M  V30 9837 H 939.771 -2.40048 1.99458 0
M  V30 9838 N 940.072 -1.23292 -0.981677 0
M  V30 9839 C 941.297 -1.09176 -1.76339 0
M  V30 9840 C 941.722 0.352726 -1.84763 0
M  V30 9841 O 941.08 1.25509 -1.30832 0
M  V30 9842 C 941.128 -1.72046 -3.16911 0
M  V30 9843 O 940.232 -0.98174 -4.00544 0
M  V30 9844 H 939.573 -0.382755 -0.542581 0
M  V30 9845 H 942.103 -1.63319 -1.23239 0
M  V30 9846 H 942.113 -1.77232 -3.67495 0
M  V30 9847 H 940.788 -2.77154 -3.10095 0
M  V30 9848 H 939.365 -1.00672 -3.59054 0
M  V30 9849 N 941.55 1.18024 -1.04442 0
M  V30 9850 C 942.796 1.88377 -0.751133 0
M  V30 9851 C 943.129 1.80377 0.719571 0
M  V30 9852 O 942.404 1.20662 1.52548 0
M  V30 9853 C 942.687 3.38708 -1.22265 0
M  V30 9854 C 942.54 3.55499 -2.75574 0
M  V30 9855 C 943.859 4.32475 -0.815688 0
M  V30 9856 H 940.978 0.684037 -0.27434 0
M  V30 9857 H 943.62 1.38837 -1.29709 0
M  V30 9858 H 941.77 3.8103 -0.758192 0
M  V30 9859 H 943.442 3.22244 -3.30086 0
M  V30 9860 H 941.685 2.98028 -3.15217 0
M  V30 9861 H 942.356 4.60994 -3.03625 0
M  V30 9862 H 944.832 3.97953 -1.21542 0
M  V30 9863 H 943.708 5.36213 -1.17331 0
M  V30 9864 H 943.969 4.41207 0.280901 0
M  V30 9865 N 943.028 0.824394 1.34319 0
M  V30 9866 C 944.274 0.413779 1.98534 0
M  V30 9867 C 944.607 -1.02089 1.65201 0
M  V30 9868 O 943.882 -1.71129 0.924402 0
M  V30 9869 C 944.165 0.61801 3.54757 0
M  V30 9870 C 944.018 2.0989 3.97827 0
M  V30 9871 C 945.337 0.0549041 4.40066 0
M  V30 9872 H 942.456 0.151815 0.721194 0
M  V30 9873 H 945.098 1.03723 1.5919 0
M  V30 9874 H 943.248 0.0873107 3.88402 0
M  V30 9875 H 944.92 2.69335 3.74508 0
M  V30 9876 H 943.163 2.58881 3.48085 0
M  V30 9877 H 943.834 2.1926 5.06586 0
M  V30 9878 H 946.31 0.508348 4.12983 0
M  V30 9879 H 945.186 0.227595 5.48428 0
M  V30 9880 H 945.447 -1.04025 4.29687 0
M  V30 9881 N 944.506 -1.46559 0.579492 0
M  V30 9882 C 945.469 -2.28739 -0.145371 0
M  V30 9883 C 946.469 -1.38211 -0.821854 0
M  V30 9884 O 947.659 -1.6062 -0.674302 0
M  V30 9885 C 944.791 -3.18507 -1.21515 0
M  V30 9886 H 945.984 -2.94301 0.576786 0
M  V30 9887 H 943.537 -1.52616 0.337327 0
M  V30 9888 H 944.272 -2.57685 -1.96899 0
M  V30 9889 H 944.057 -3.85157 -0.734616 0
M  V30 9890 H 945.547 -3.80369 -1.72363 0
M  V30 9891 N 945.984 -0.3171 -1.54377 0
M  V30 9892 C 946.917 0.594178 -2.20329 0
M  V30 9893 C 947.895 1.12067 -1.17812 0
M  V30 9894 O 949.079 1.18588 -1.46524 0
M  V30 9895 C 946.206 1.81463 -2.85987 0
M  V30 9896 C 945.252 1.41996 -4.02168 0
M  V30 9897 S 946.085 0.462159 -5.33502 0
M  V30 9898 C 947.241 1.69004 -6.02651 0
M  V30 9899 H 947.474 0.0339261 -2.97281 0
M  V30 9900 H 945.007 -0.101196 -1.54068 0
M  V30 9901 H 946.965 2.51494 -3.2444 0
M  V30 9902 H 945.626 2.34606 -2.08851 0
M  V30 9903 H 944.819 2.32921 -4.4695 0
M  V30 9904 H 944.421 0.799423 -3.65356 0
M  V30 9905 H 946.713 2.62839 -6.24437 0
M  V30 9906 H 947.656 1.28451 -6.96352 0
M  V30 9907 H 948.064 1.87408 -5.32483 0
M  V30 9908 N 947.462 1.57535 -0.0451378 0
M  V30 9909 C 948.69 1.96761 0.639742 0
M  V30 9910 C 949.105 0.922405 1.64734 0
M  V30 9911 O 948.462 -0.0940535 1.82257 0
M  V30 9912 C 948.513 3.36066 1.33199 0
M  V30 9913 O 948.234 4.36579 0.364757 0
M  V30 9914 C 949.735 3.90015 2.1072 0
M  V30 9915 H 946.955 0.64769 0.175324 0
M  V30 9916 H 949.499 2.04206 -0.109651 0
M  V30 9917 H 947.654 3.2979 2.03266 0
M  V30 9918 H 948.068 5.17432 0.858168 0
M  V30 9919 H 949.542 4.89785 2.54586 0
M  V30 9920 H 950.019 3.25117 2.95288 0
M  V30 9921 H 950.625 3.99609 1.45577 0
M  V30 9922 N 948.94 -0.228186 1.55939 0
M  V30 9923 C 950.188 -0.951668 1.78291 0
M  V30 9924 C 950.509 -1.85132 0.612474 0
M  V30 9925 O 949.779 -1.92356 -0.370942 0
M  V30 9926 H 948.359 -0.354388 0.657585 0
M  V30 9927 H 951.021 -0.241635 1.93396 0
M  V30 9928 H 950.117 -1.56239 2.70177 0
M  V30 9929 N 950.418 -1.49637 -0.494624 0
M  V30 9930 C 951.695 -1.4995 -1.25596 0
M  V30 9931 C 952.075 -0.230805 -2.09834 0
M  V30 9932 O 951.423 0.786625 -2.14533 0
M  V30 9933 C 951.633 -2.78204 -2.10721 0
M  V30 9934 C 952.981 -3.27946 -2.69698 0
M  V30 9935 O 954.005 -2.79365 -2.20984 0
M  V30 9936 O 952.864 -4.12571 -3.58395 0
M  V30 9937 H 949.958 -0.60044 -0.568684 0
M  V30 9938 H 952.504 -1.61906 -0.508371 0
M  V30 9939 H 951.276 -3.62029 -1.48494 0
M  V30 9940 H 950.899 -2.69139 -2.92661 0
M  V30 9941 N 951.896 0.746133 -1.38819 0
M  V30 9942 C 953.144 1.50247 -1.35167 0
M  V30 9943 C 953.465 1.94921 0.0553531 0
M  V30 9944 O 952.735 1.68187 1.00449 0
M  V30 9945 H 951.315 0.557337 -0.497377 0
M  V30 9946 H 953.977 0.886472 -1.73573 0
M  V30 9947 H 953.073 2.38986 -2.00728 0
M  V30 9948 N 953.375 1.23811 0.975125 0
M  V30 9949 C 954.621 1.07495 1.71967 0
M  V30 9950 C 954.954 -0.386451 1.90316 0
M  V30 9951 O 954.229 -1.28591 1.45927 0
M  V30 9952 C 954.512 1.80694 3.11483 0
M  V30 9953 C 954.365 3.3454 3.00671 0
M  V30 9954 C 955.684 1.57367 4.11003 0
M  V30 9955 H 952.803 0.3919 0.624166 0
M  V30 9956 H 955.445 1.52383 1.13487 0
M  V30 9957 H 953.595 1.42538 3.61407 0
M  V30 9958 H 955.267 3.8225 2.5823 0
M  V30 9959 H 953.51 3.63301 2.37054 0
M  V30 9960 H 954.181 3.80951 3.99475 0
M  V30 9961 H 956.657 1.90545 3.69908 0
M  V30 9962 H 955.533 2.11052 5.06703 0
M  V30 9963 H 955.794 0.510221 4.39146 0
M  V30 9964 N 954.853 -1.17469 1.05066 0
M  V30 9965 C 955.801 -2.23495 0.644418 0
M  V30 9966 C 956.795 -1.66081 -0.333685 0
M  V30 9967 O 958.001 -1.78887 -0.199886 0
M  V30 9968 H 954.376 -0.727546 0.190214 0
M  V30 9969 H 956.347 -2.55058 1.5488 0
M  V30 9970 C 955.096 -3.47684 0.0338051 0
M  V30 9971 H 954.419 -3.92167 0.777513 0
M  V30 9972 H 955.859 -4.23464 -0.213086 0
M  V30 9973 C 954.318 -3.14067 -1.21915 0
M  V30 9974 O 954.848 -3.28728 -2.3087 0
M  V30 9975 N 953.054 -2.68304 -1.11631 0
M  V30 9976 H 952.601 -2.56574 -0.229673 0
M  V30 9977 H 952.559 -2.46184 -1.95553 0
M  V30 9978 N 956.331 -0.831506 -1.3388 0
M  V30 9979 C 957.608 -0.345907 -1.92517 0
M  V30 9980 C 957.988 1.16784 -1.75854 0
M  V30 9981 O 957.336 1.97889 -1.14245 0
M  V30 9982 C 957.546 -0.784692 -3.40064 0
M  V30 9983 C 958.894 -0.78846 -4.17215 0
M  V30 9984 O 959.918 -0.727823 -3.48685 0
M  V30 9985 O 958.777 -0.869481 -5.39539 0
M  V30 9986 H 955.871 -0.0963568 -0.821367 0
M  V30 9987 H 958.417 -0.916868 -1.42799 0
M  V30 9988 H 957.189 -1.82697 -3.46031 0
M  V30 9989 H 956.812 -0.189897 -3.97146 0
M  V30 9990 N 957.809 1.4625 -0.587256 0
M  V30 9991 C 958.772 2.28812 0.133238 0
M  V30 9992 C 959.772 1.38645 0.814513 0
M  V30 9993 O 960.962 1.60975 0.665774 0
M  V30 9994 C 958.094 3.19147 1.19824 0
M  V30 9995 H 959.287 2.93991 -0.592386 0
M  V30 9996 H 956.84 1.52435 -0.345416 0
M  V30 9997 H 957.575 2.58725 1.95529 0
M  V30 9998 H 957.36 3.85541 0.71418 0
M  V30 9999 H 958.85 3.81278 1.70344 0
M  V30 10000 N 959.287 0.325282 1.54207 0
M  V30 10001 C 960.533 -0.277185 2.00897 0
M  V30 10002 C 960.866 -1.51651 1.21308 0
M  V30 10003 O 960.141 -1.92237 0.295825 0
M  V30 10004 C 960.424 -0.60961 3.54902 0
M  V30 10005 C 960.277 0.640542 4.45216 0
M  V30 10006 C 961.596 -1.42656 4.16338 0
M  V30 10007 H 958.715 -0.0992722 0.730284 0
M  V30 10008 H 961.357 0.442201 1.84783 0
M  V30 10009 H 959.507 -1.22249 3.68765 0
M  V30 10010 H 961.179 1.27878 4.43221 0
M  V30 10011 H 959.422 1.26908 4.14821 0
M  V30 10012 H 960.093 0.363459 5.50802 0
M  V30 10013 H 962.569 -0.908494 4.06061 0
M  V30 10014 H 961.445 -1.62792 5.24204 0
M  V30 10015 H 961.706 -2.42321 3.69774 0
M  V30 10016 N 960.765 -1.57509 0.0534917 0
M  V30 10017 C 961.728 -2.10563 -0.905307 0
M  V30 10018 C 962.728 -1.02571 -1.23838 0
M  V30 10019 O 963.918 -1.28635 -1.17468 0
M  V30 10020 C 961.05 -2.5918 -2.21447 0
M  V30 10021 H 962.243 -2.96575 -0.445354 0
M  V30 10022 H 959.796 -1.55079 -0.194947 0
M  V30 10023 H 960.531 -1.76568 -2.72019 0
M  V30 10024 H 960.316 -3.38098 -1.98575 0
M  V30 10025 H 961.806 -3.00365 -2.90122 0
M  V30 10026 N 962.243 0.219913 -1.56058 0
M  V30 10027 C 963.173 1.27572 -1.9557 0
M  V30 10028 C 964.154 1.48801 -0.824148 0
M  V30 10029 O 965.339 1.60957 -1.08658 0
M  V30 10030 C 962.469 2.62517 -2.27381 0
M  V30 10031 C 961.423 2.55941 -3.43042 0
M  V30 10032 C 960.749 3.94931 -3.60463 0
M  V30 10033 C 962.049 2.10584 -4.77966 0
M  V30 10034 H 963.743 0.947482 -2.84013 0
M  V30 10035 H 961.289 0.454337 -1.36645 0
M  V30 10036 H 963.242 3.36538 -2.53615 0
M  V30 10037 H 961.966 2.97031 -1.35794 0
M  V30 10038 H 960.625 1.84377 -3.1686 0
M  V30 10039 H 960.273 4.26756 -2.66249 0
M  V30 10040 H 959.973 3.91413 -4.38258 0
M  V30 10041 H 961.497 4.70611 -3.89046 0
M  V30 10042 H 962.911 2.74349 -5.03394 0
M  V30 10043 H 961.308 2.18122 -5.59055 0
M  V30 10044 H 962.378 1.05818 -4.73213 0
M  V30 10045 N 963.721 1.49897 0.486681 0
M  V30 10046 C 964.668 1.67619 1.58658 0
M  V30 10047 C 965.638 0.517537 1.57831 0
M  V30 10048 O 966.823 0.746272 1.756 0
M  V30 10049 C 963.963 1.762 2.96728 0
M  V30 10050 C 963.076 3.03465 3.07462 0
M  V30 10051 C 962.211 3.02937 4.36351 0
M  V30 10052 C 961.25 4.24721 4.4077 0
M  V30 10053 N 960.387 4.22021 5.61108 0
M  V30 10054 H 965.227 2.61528 1.42853 0
M  V30 10055 H 962.764 1.29657 0.694807 0
M  V30 10056 H 964.722 1.79156 3.76774 0
M  V30 10057 H 963.352 0.857452 3.11203 0
M  V30 10058 H 962.404 3.10054 2.20387 0
M  V30 10059 H 963.716 3.93454 3.06586 0
M  V30 10060 H 962.87 3.04536 5.24731 0
M  V30 10061 H 961.609 2.10751 4.39813 0
M  V30 10062 H 960.614 4.23352 3.5079 0
M  V30 10063 H 961.839 5.18116 4.39013 0
M  V30 10064 H 959.785 3.3268 5.65385 0
M  V30 10065 H 959.702 5.05761 5.61909 0
M  V30 10066 H 960.97 4.27743 6.51656 0
M  V30 10067 N 965.199 -0.738761 1.39212 0
M  V30 10068 C 966.162 -1.83441 1.37412 0
M  V30 10069 C 967.162 -1.58484 0.271908 0
M  V30 10070 O 968.352 -1.65954 0.529609 0
M  V30 10071 C 965.484 -3.21167 1.143 0
M  V30 10072 H 966.677 -1.86441 2.34904 0
M  V30 10073 H 964.23 -0.942023 1.24722 0
M  V30 10074 H 964.965 -3.23829 0.174756 0
M  V30 10075 H 964.75 -3.40678 1.94116 0
M  V30 10076 H 966.24 -4.01231 1.15773 0
M  V30 10077 N 966.677 -1.24326 -0.968545 0
M  V30 10078 C 967.64 -1.03591 -2.04454 0
M  V30 10079 C 968.64 0.0064809 -1.60799 0
M  V30 10080 O 969.83 -0.234404 -1.72616 0
M  V30 10081 C 966.962 -0.56992 -3.36102 0
M  V30 10082 H 968.155 -1.99092 -2.24282 0
M  V30 10083 H 965.708 -1.06537 -1.14366 0
M  V30 10084 H 966.443 0.388325 -3.21967 0
M  V30 10085 H 966.228 -1.32227 -3.69132 0
M  V30 10086 H 967.718 -0.445854 -4.15213 0
M  V30 10087 N 968.156 1.1691 -1.05688 0
M  V30 10088 C 969.433 1.83266 -0.683601 0
M  V30 10089 C 969.813 1.93858 0.835602 0
M  V30 10090 O 969.161 1.47696 1.7435 0
M  V30 10091 C 969.371 3.20625 -1.37842 0
M  V30 10092 C 970.719 3.96473 -1.51967 0
M  V30 10093 O 971.743 3.30122 -1.33783 0
M  V30 10094 O 970.602 5.15393 -1.81749 0
M  V30 10095 H 967.696 0.791028 -0.241254 0
M  V30 10096 H 970.242 1.24165 -1.15677 0
M  V30 10097 H 969.014 3.07914 -2.41463 0
M  V30 10098 H 968.637 3.87398 -0.894921 0
M  V30 10099 N 969.634 0.838594 1.33437 0
M  V30 10100 C 970.883 0.430484 1.97053 0
M  V30 10101 C 971.196 -1.01556 1.6717 0
M  V30 10102 O 972.402 -1.52834 2.24397 0
M  V30 10103 C 970.858 0.718828 3.52648 0
M  V30 10104 C 970.466 2.17953 3.91408 0
M  V30 10105 C 972.21 0.377654 4.22817 0
M  V30 10106 C 970.117 2.41194 5.39981 0
M  V30 10107 H 969.047 0.157239 0.737422 0
M  V30 10108 H 971.698 1.02714 1.5206 0
M  V30 10109 H 970.08 0.0518042 3.95966 0
M  V30 10110 H 971.254 2.88701 3.59149 0
M  V30 10111 H 969.569 2.48366 3.34221 0
M  V30 10112 H 972.166 0.528926 5.32077 0
M  V30 10113 H 972.509 -0.679338 4.1072 0
M  V30 10114 H 973.042 0.999899 3.85028 0
M  V30 10115 H 969.781 3.45457 5.57081 0
M  V30 10116 H 969.301 1.75007 5.73701 0
M  V30 10117 H 970.98 2.24334 6.06863 0
M  V30 10118 N 971.112 -1.45937 0.595003 0
M  V30 10119 C 972.36 -2.01921 0.0851368 0
M  V30 10120 C 972.681 -1.46748 -1.28413 0
M  V30 10121 O 971.951 -0.656873 -1.84559 0
M  V30 10122 H 970.531 -0.746457 0.0284826 0
M  V30 10123 H 973.193 -1.78891 0.773561 0
M  V30 10124 H 972.289 -3.1209 0.0254002 0
M  V30 10125 N 972.59 -0.333456 -1.54032 0
M  V30 10126 C 973.836 0.266527 -2.01041 0
M  V30 10127 C 974.169 1.51006 -1.2211 0
M  V30 10128 O 973.444 1.92078 -0.306016 0
M  V30 10129 C 973.727 0.59078 -3.55221 0
M  V30 10130 C 973.58 -0.664143 -4.4487 0
M  V30 10131 C 974.899 1.40447 -4.17088 0
M  V30 10132 H 972.018 0.0953979 -0.7308 0
M  V30 10133 H 974.66 -0.451995 -1.84545 0
M  V30 10134 H 972.81 1.20292 -3.69408 0
M  V30 10135 H 974.482 -1.30227 -4.42537 0
M  V30 10136 H 972.725 -1.29106 -4.14143 0
M  V30 10137 H 973.396 -0.392664 -5.50602 0
M  V30 10138 H 975.872 0.886946 -4.06537 0
M  V30 10139 H 974.748 1.6001 -5.2506 0
M  V30 10140 H 975.009 2.40357 -3.71054 0
M  V30 10141 N 974.068 1.57479 -0.061844 0
M  V30 10142 C 975.031 2.1104 0.894127 0
M  V30 10143 C 976.031 1.03227 1.23292 0
M  V30 10144 O 977.221 1.29256 1.16784 0
M  V30 10145 C 974.353 2.6035 2.20069 0
M  V30 10146 H 975.546 2.96807 0.429619 0
M  V30 10147 H 973.099 1.55181 0.18672 0
M  V30 10148 H 973.834 1.78008 2.71079 0
M  V30 10149 H 973.619 3.39146 1.9678 0
M  V30 10150 H 975.109 3.019 2.88525 0
M  V30 10151 N 975.546 -0.211634 1.56173 0
M  V30 10152 C 976.479 -1.28982 1.88252 0
M  V30 10153 C 977.457 -1.4474 0.740889 0
M  V30 10154 O 978.641 -1.60394 0.990249 0
M  V30 10155 C 975.768 -2.65879 2.09824 0
M  V30 10156 C 974.814 -2.67082 3.3252 0
M  V30 10157 S 975.647 -2.2016 4.8815 0
M  V30 10158 C 976.803 -3.58913 5.12769 0
M  V30 10159 H 977.036 -1.01578 2.79409 0
M  V30 10160 H 974.569 -0.414351 1.48736 0
M  V30 10161 H 976.527 -3.44688 2.22935 0
M  V30 10162 H 975.188 -2.90502 1.19447 0
M  V30 10163 H 974.381 -3.67703 3.44689 0
M  V30 10164 H 973.983 -1.96343 3.18317 0
M  V30 10165 H 976.275 -4.54671 5.02276 0
M  V30 10166 H 977.218 -3.51652 6.14611 0
M  V30 10167 H 977.626 -3.5306 4.40465 0
M  V30 10168 N 977.024 -1.50153 -0.478725 0
M  V30 10169 C 978.272 -1.60443 -1.22892 0
M  V30 10170 C 978.593 -0.303276 -1.92627 0
M  V30 10171 O 977.863 0.678798 -1.83764 0
M  V30 10172 H 976.443 -0.591205 -0.456602 0
M  V30 10173 H 979.105 -1.86893 -0.552905 0
M  V30 10174 H 978.201 -2.41175 -1.98094 0
M  V30 10175 N 978.502 0.731368 -1.39602 0
M  V30 10176 C 979.434 1.85575 -1.34516 0
M  V30 10177 C 980.447 1.60818 -0.253287 0
M  V30 10178 O 981.636 1.70984 -0.512505 0
M  V30 10179 C 978.736 3.21673 -1.06676 0
M  V30 10180 C 977.909 3.73757 -2.27211 0
M  V30 10181 C 976.968 4.88426 -1.95773 0
M  V30 10182 O 975.994 5.01898 -2.68491 0
M  V30 10183 N 977.196 5.73065 -0.926083 0
M  V30 10184 H 979.961 1.90442 -2.31413 0
M  V30 10185 H 977.522 0.912258 -1.33752 0
M  V30 10186 H 979.514 3.95959 -0.836577 0
M  V30 10187 H 978.084 3.12052 -0.185003 0
M  V30 10188 H 977.304 2.90781 -2.66158 0
M  V30 10189 H 978.592 4.05289 -3.07601 0
M  V30 10190 H 977.99 5.64774 -0.323497 0
M  V30 10191 H 976.547 6.47403 -0.755795 0
M  V30 10192 N 979.98 1.24838 0.961938 0
M  V30 10193 C 981.208 1.11871 1.74047 0
M  V30 10194 C 981.623 -0.328209 1.85925 0
M  V30 10195 O 980.98 -1.22616 1.35173 0
M  V30 10196 C 981.031 1.75931 3.15801 0
M  V30 10197 O 980.752 3.14967 3.04512 0
M  V30 10198 C 982.253 1.68649 4.09966 0
M  V30 10199 H 979.473 0.390569 0.545616 0
M  V30 10200 H 982.017 1.65058 1.20732 0
M  V30 10201 H 980.172 1.26733 3.66084 0
M  V30 10202 H 980.586 3.46349 3.93882 0
M  V30 10203 H 982.06 2.18144 5.07067 0
M  V30 10204 H 982.537 0.648831 4.34381 0
M  V30 10205 H 983.143 2.17301 3.65596 0
M  V30 10206 N 981.458 -1.16348 1.06306 0
M  V30 10207 C 982.706 -1.86512 0.778311 0
M  V30 10208 C 983.027 -1.82107 -0.697273 0
M  V30 10209 O 982.297 -1.2547 -1.50446 0
M  V30 10210 H 980.877 -0.690529 0.284919 0
M  V30 10211 H 983.539 -1.41092 1.34458 0
M  V30 10212 H 982.635 -2.91947 1.10333 0
M  V30 10213 N 982.937 -0.845659 -1.3299 0
M  V30 10214 C 984.165 -0.45835 -2.01759 0
M  V30 10215 C 984.58 0.94239 -1.63598 0
M  V30 10216 O 983.937 1.61353 -0.852738 0
M  V30 10217 C 983.988 -0.577311 -3.5686 0
M  V30 10218 O 983.709 -1.92287 -3.93646 0
M  V30 10219 C 985.21 -0.187839 -4.42902 0
M  V30 10220 H 982.43 -0.181165 -0.646081 0
M  V30 10221 H 984.974 -1.14011 -1.6977 0
M  V30 10222 H 983.129 0.0566146 -3.87359 0
M  V30 10223 H 983.543 -1.91322 -4.88361 0
M  V30 10224 H 985.017 -0.322105 -5.51059 0
M  V30 10225 H 985.494 0.870896 -4.30479 0
M  V30 10226 H 986.1 -0.796473 -4.17776 0
M  V30 10227 N 984.415 1.45619 -0.602734 0
M  V30 10228 C 985.692 1.9558 -0.0282472 0
M  V30 10229 C 986.072 1.54523 1.43826 0
M  V30 10230 O 985.42 0.805456 2.13833 0
M  V30 10231 C 985.63 3.48298 -0.221263 0
M  V30 10232 C 986.978 4.24483 -0.0995249 0
M  V30 10233 O 988.002 3.55879 -0.151132 0
M  V30 10234 O 986.861 5.46497 0.0194454 0
M  V30 10235 H 983.955 0.826104 0.0384897 0
M  V30 10236 H 986.501 1.55808 -0.672456 0
M  V30 10237 H 985.273 3.71134 -1.23997 0
M  V30 10238 H 984.896 3.94948 0.458437 0
M  V30 10239 N 985.893 0.34162 1.53853 0
M  V30 10240 C 987.139 -0.255862 2.01179 0
M  V30 10241 C 987.472 -1.50356 1.22909 0
M  V30 10242 O 986.747 -1.91913 0.316198 0
M  V30 10243 C 987.03 -0.571934 3.55529 0
M  V30 10244 C 986.883 0.687727 4.44511 0
M  V30 10245 C 988.202 -1.38233 4.17827 0
M  V30 10246 H 985.321 -0.091521 0.731295 0
M  V30 10247 H 987.963 0.461775 1.84303 0
M  V30 10248 H 986.113 -1.18331 3.70041 0
M  V30 10249 H 987.785 1.32572 4.4184 0
M  V30 10250 H 986.028 1.313 4.13452 0
M  V30 10251 H 986.699 0.421858 5.50386 0
M  V30 10252 H 989.175 -0.865374 4.07002 0
M  V30 10253 H 988.051 -1.57223 5.25901 0
M  V30 10254 H 988.312 -2.38386 3.72323 0
M  V30 10255 N 987.371 -1.57444 0.0701946 0
M  V30 10256 C 988.611 -1.95304 -0.60296 0
M  V30 10257 C 988.975 -0.949592 -1.66873 0
M  V30 10258 O 990.176 -1.2158 -2.39733 0
M  V30 10259 C 988.447 -3.37831 -1.16639 0
M  V30 10260 S 990.006 -3.97667 -1.8549 0
M  V30 10261 H 986.824 -0.683026 -0.197476 0
M  V30 10262 H 989.426 -1.94971 0.143669 0
M  V30 10263 H 988.13 -4.08648 -0.378856 0
M  V30 10264 H 987.661 -3.41704 -1.94942 0
M  V30 10265 H 989.676 -3.84441 -3.13719 0
M  V30 10266 N 988.849 0.203349 -1.56283 0
M  V30 10267 C 989.796 1.25205 -1.93888 0
M  V30 10268 C 990.766 1.45654 -0.798376 0
M  V30 10269 O 991.951 1.58924 -1.05583 0
M  V30 10270 C 989.091 2.59355 -2.27659 0
M  V30 10271 C 988.204 2.46553 -3.54733 0
M  V30 10272 C 987.339 3.73351 -3.77865 0
M  V30 10273 C 986.378 3.55347 -4.98392 0
M  V30 10274 N 985.515 4.74137 -5.17821 0
M  V30 10275 H 990.355 0.924356 -2.83301 0
M  V30 10276 H 987.892 0.445082 -1.40205 0
M  V30 10277 H 989.85 3.375 -2.45254 0
M  V30 10278 H 988.48 2.90184 -1.41396 0
M  V30 10279 H 987.532 1.59749 -3.45231 0
M  V30 10280 H 988.844 2.2918 -4.43033 0
M  V30 10281 H 987.998 4.59937 -3.95655 0
M  V30 10282 H 986.737 3.9367 -2.8788 0
M  V30 10283 H 985.742 2.67146 -4.80534 0
M  V30 10284 H 986.967 3.36482 -5.89879 0
M  V30 10285 H 984.913 4.94735 -4.30782 0
M  V30 10286 H 984.83 4.59558 -6.00285 0
M  V30 10287 H 986.098 5.62098 -5.40061 0
M  V30 10288 N 990.327 1.50405 0.470755 0
M  V30 10289 C 991.237 1.7208 1.59454 0
M  V30 10290 C 992.253 0.603932 1.63183 0
M  V30 10291 O 993.429 0.882296 1.81046 0
M  V30 10292 C 990.494 1.81057 2.95667 0
M  V30 10293 C 989.555 3.04792 3.02324 0
M  V30 10294 C 988.788 3.13332 4.3204 0
M  V30 10295 O 989.011 2.28655 5.22564 0
M  V30 10296 O 987.945 4.0606 4.44296 0
M  V30 10297 H 991.771 2.67343 1.44089 0
M  V30 10298 H 989.356 1.34505 0.650286 0
M  V30 10299 H 991.238 1.8914 3.76569 0
M  V30 10300 H 989.913 0.889782 3.11231 0
M  V30 10301 H 988.82 3.0221 2.205 0
M  V30 10302 H 990.153 3.96451 2.91698 0
M  V30 10303 N 991.805 -0.723954 1.39988 0
M  V30 10304 C 992.768 -1.81973 1.3935 0
M  V30 10305 C 993.768 -1.58187 0.288702 0
M  V30 10306 O 994.958 -1.65383 0.547181 0
M  V30 10307 C 992.09 -3.19937 1.177 0
M  V30 10308 H 993.283 -1.83939 2.36868 0
M  V30 10309 H 990.836 -0.928742 1.25714 0
M  V30 10310 H 991.571 -3.23625 0.209093 0
M  V30 10311 H 991.356 -3.386 1.97719 0
M  V30 10312 H 992.846 -3.99981 1.20022 0
M  V30 10313 N 993.283 -1.25346 -0.955304 0
M  V30 10314 C 994.246 -1.05754 -2.03344 0
M  V30 10315 C 995.246 -0.0105743 -1.60797 0
M  V30 10316 O 996.436 -0.252699 -1.72357 0
M  V30 10317 C 993.568 -0.605536 -3.35479 0
M  V30 10318 H 994.761 -2.01459 -2.22158 0
M  V30 10319 H 992.314 -1.07744 -1.1323 0
M  V30 10320 H 993.049 0.354154 -3.2236 0
M  V30 10321 H 992.834 -1.36134 -3.67709 0
M  V30 10322 H 994.324 -0.489867 -4.14717 0
M  V30 10323 N 994.761 1.15782 -1.06922 0
M  V30 10324 C 996.038 1.8253 -0.703 0
M  V30 10325 C 996.418 1.94733 0.814994 0
M  V30 10326 O 995.766 1.49537 1.72774 0
M  V30 10327 C 995.976 3.19145 -1.41234 0
M  V30 10328 C 997.324 3.94839 -1.56164 0
M  V30 10329 O 998.348 3.28685 -1.37277 0
M  V30 10330 O 997.207 5.13436 -1.87205 0
M  V30 10331 H 994.301 0.788425 -0.24963 0
M  V30 10332 H 996.847 1.22931 -1.16988 0
M  V30 10333 H 995.619 3.05336 -2.44715 0
M  V30 10334 H 995.242 3.86427 -0.935959 0
M  V30 10335 N 996.239 0.8527 1.3254 0
M  V30 10336 C 997.172 0.240733 2.26927 0
M  V30 10337 C 998.15 -0.620158 1.50309 0
M  V30 10338 O 999.334 -0.577389 1.79439 0
M  V30 10339 C 996.461 -0.660644 3.32195 0
M  V30 10340 C 995.507 0.126604 4.26312 0
M  V30 10341 S 996.34 1.49372 5.14245 0
M  V30 10342 C 997.496 0.598002 6.23037 0
M  V30 10343 H 997.729 1.04088 2.78483 0
M  V30 10344 H 995.262 0.650222 1.40041 0
M  V30 10345 H 997.22 -1.17506 3.93323 0
M  V30 10346 H 995.881 -1.43458 2.79426 0
M  V30 10347 H 995.074 -0.559851 5.00881 0
M  V30 10348 H 994.676 0.572536 3.69592 0
M  V30 10349 H 996.968 -0.198555 6.77209 0
M  V30 10350 H 997.911 1.31428 6.95796 0
M  V30 10351 H 998.319 0.173211 5.64234 0
M  V30 10352 N 997.718 -1.45297 0.610449 0
M  V30 10353 C 998.967 -2.0143 0.104323 0
M  V30 10354 C 999.28 -1.48431 -1.27388 0
M  V30 10355 O 1000.49 -1.96558 -1.87289 0
M  V30 10356 C 998.942 -3.59644 0.135812 0
M  V30 10357 C 998.55 -4.2164 1.51405 0
M  V30 10358 C 1000.29 -4.2333 -0.314922 0
M  V30 10359 C 998.201 -5.72015 1.50176 0
M  V30 10360 H 997.131 -0.753176 0.035233 0
M  V30 10361 H 999.782 -1.66738 0.7662 0
M  V30 10362 H 998.164 -3.91538 -0.592773 0
M  V30 10363 H 999.338 -4.01315 2.26457 0
M  V30 10364 H 997.653 -3.70159 1.90712 0
M  V30 10365 H 1000.25 -5.33597 -0.343335 0
M  V30 10366 H 1000.59 -3.94206 -1.33817 0
M  V30 10367 H 1001.13 -3.96163 0.360489 0
M  V30 10368 H 997.865 -6.05842 2.50271 0
M  V30 10369 H 997.385 -5.94523 0.793869 0
M  V30 10370 H 999.064 -6.35266 1.22665 0
M  V30 10371 N 999.196 -0.349774 -1.5367 0
M  V30 10372 C 1000.13 0.496338 -2.28164 0
M  V30 10373 C 1001.11 1.09737 -1.29968 0
M  V30 10374 O 1002.29 1.11759 -1.58819 0
M  V30 10375 C 999.422 1.64428 -3.0591 0
M  V30 10376 C 998.376 1.17127 -4.11661 0
M  V30 10377 C 997.702 2.40822 -4.77398 0
M  V30 10378 C 999.002 0.267293 -5.21616 0
M  V30 10379 H 1000.7 -0.125117 -2.99138 0
M  V30 10380 H 998.242 -0.0616152 -1.43868 0
M  V30 10381 H 1000.19 2.2427 -3.56765 0
M  V30 10382 H 998.919 2.29272 -2.32598 0
M  V30 10383 H 997.578 0.595634 -3.61729 0
M  V30 10384 H 997.226 3.04088 -4.00674 0
M  V30 10385 H 996.926 2.09852 -5.48849 0
M  V30 10386 H 998.45 3.01378 -5.3104 0
M  V30 10387 H 999.864 0.772734 -5.68068 0
M  V30 10388 H 998.261 0.0491991 -6.0008 0
M  V30 10389 H 999.331 -0.694892 -4.79895 0
M  V30 10390 N 1000.67 1.57404 -0.0785433 0
M  V30 10391 C 1001.92 1.94031 0.589896 0
M  V30 10392 C 1002.25 0.959297 1.68852 0
M  V30 10393 O 1001.53 -0.0103978 1.94497 0
M  V30 10394 C 1001.81 3.40886 1.16055 0
M  V30 10395 C 1001.66 4.49748 0.0681072 0
M  V30 10396 C 1002.98 3.88699 2.06401 0
M  V30 10397 H 1000.1 0.70556 0.212965 0
M  V30 10398 H 1002.74 1.89439 -0.145886 0
M  V30 10399 H 1000.89 3.4493 1.78761 0
M  V30 10400 H 1002.57 4.57823 -0.565318 0
M  V30 10401 H 1000.81 4.29625 -0.600431 0
M  V30 10402 H 1001.48 5.49658 0.507906 0
M  V30 10403 H 1003.96 3.86703 1.53622 0
M  V30 10404 H 1002.83 4.92052 2.43261 0
M  V30 10405 H 1003.09 3.2703 2.97496 0
M  V30 10406 N 1002.15 -0.195058 1.56388 0
M  V30 10407 C 1003.43 -0.941335 1.71459 0
M  V30 10408 C 1003.81 -2.01375 0.633336 0
M  V30 10409 O 1003.16 -2.25715 -0.35567 0
M  V30 10410 C 1003.37 -1.52772 3.13786 0
M  V30 10411 C 1004.71 -2.00983 3.7402 0
M  V30 10412 O 1005.74 -1.62614 3.16915 0
M  V30 10413 O 1004.6 -2.71586 4.7424 0
M  V30 10414 H 1001.69 -0.441451 0.699321 0
M  V30 10415 H 1004.24 -0.184752 1.68691 0
M  V30 10416 H 1003.01 -0.754699 3.83953 0
M  V30 10417 H 1002.63 -2.34914 3.20782 0
M  V30 10418 N 1003.63 -1.50653 -0.462772 0
M  V30 10419 C 1004.91 -1.5258 -1.22387 0
M  V30 10420 C 1005.29 -0.275263 -2.09298 0
M  V30 10421 O 1004.63 0.740943 -2.16153 0
M  V30 10422 C 1004.84 -2.82611 -2.04773 0
M  V30 10423 C 1006.19 -3.33592 -2.62681 0
M  V30 10424 O 1007.22 -2.83989 -2.15008 0
M  V30 10425 O 1006.08 -4.20081 -3.49563 0
M  V30 10426 H 1003.17 -0.612367 -0.55582 0
M  V30 10427 H 1005.72 -1.62948 -0.473914 0
M  V30 10428 H 1004.49 -3.65098 -1.40781 0
M  V30 10429 H 1004.11 -2.75286 -2.86886 0
M  V30 10430 N 1005.11 0.71652 -1.4037 0
M  V30 10431 C 1006.39 1.46947 -1.29097 0
M  V30 10432 C 1006.77 2.10903 0.0911182 0
M  V30 10433 O 1006.11 2.00068 1.10385 0
M  V30 10434 C 1006.32 2.50594 -2.42907 0
M  V30 10435 C 1007.67 3.16451 -2.83097 0
M  V30 10436 O 1008.7 2.60913 -2.42493 0
M  V30 10437 O 1007.55 4.16991 -3.53244 0
M  V30 10438 H 1004.65 0.653413 -0.506932 0
M  V30 10439 H 1007.19 0.748774 -1.52287 0
M  V30 10440 H 1005.97 2.01843 -3.35224 0
M  V30 10441 H 1005.59 3.302 -2.21481 0
M  V30 10442 N 1006.59 1.25851 0.948643 0
M  V30 10443 C 1007.83 1.10954 1.69397 0
M  V30 10444 C 1008.16 -0.348443 1.91353 0
M  V30 10445 O 1007.42 -1.27285 1.48651 0
M  V30 10446 C 1007.72 1.81565 3.07846 0
M  V30 10447 C 1007.38 3.31477 3.0567 0
M  V30 10448 C 1006.04 3.72371 3.04784 0
M  V30 10449 C 1008.4 4.27225 2.98543 0
M  V30 10450 C 1005.72 5.07416 2.94527 0
M  V30 10451 C 1008.08 5.62301 2.89828 0
M  V30 10452 C 1006.74 6.02516 2.87281 0
M  V30 10453 H 1006.01 0.406011 0.619868 0
M  V30 10454 H 1008.66 1.562 1.10787 0
M  V30 10455 H 1006.96 1.28767 3.70035 0
M  V30 10456 H 1008.66 1.67486 3.64348 0
M  V30 10457 H 1005.25 2.98941 3.07135 0
M  V30 10458 H 1009.43 3.96618 2.98342 0
M  V30 10459 H 1004.69 5.37746 2.90928 0
M  V30 10460 H 1008.86 6.36182 2.83276 0
M  V30 10461 H 1006.49 7.07116 2.79089 0
M  V30 10462 N 1008.06 -1.15214 1.07534 0
M  V30 10463 C 1009 -2.19634 0.655261 0
M  V30 10464 C 1010.01 -1.60139 -0.293165 0
M  V30 10465 O 1011.2 -1.78311 -0.0821957 0
M  V30 10466 C 1008.3 -3.38851 -0.0578281 0
M  V30 10467 C 1007.47 -4.27888 0.90725 0
M  V30 10468 C 1006.53 -5.25692 0.231115 0
M  V30 10469 O 1005.56 -5.62469 0.872746 0
M  V30 10470 N 1006.76 -5.71424 -1.0225 0
M  V30 10471 H 1009.52 -2.56292 1.55353 0
M  V30 10472 H 1007.08 -1.30347 0.960271 0
M  V30 10473 H 1009.08 -4.01334 -0.520874 0
M  V30 10474 H 1007.65 -3.00593 -0.858071 0
M  V30 10475 H 1006.87 -3.62475 1.54937 0
M  V30 10476 H 1008.15 -4.84246 1.56151 0
M  V30 10477 H 1007.55 -5.43659 -1.56369 0
M  V30 10478 H 1006.11 -6.35938 -1.42919 0
M  V30 10479 N 1009.54 -0.859717 -1.32086 0
M  V30 10480 C 1010.77 -0.479724 -2.01262 0
M  V30 10481 C 1011.19 0.924985 -1.64589 0
M  V30 10482 O 1010.54 1.60439 -0.869803 0
M  V30 10483 C 1010.59 -0.615128 -3.56228 0
M  V30 10484 O 1010.31 -1.96451 -3.91585 0
M  V30 10485 C 1011.82 -0.234804 -4.42678 0
M  V30 10486 H 1009.04 -0.188007 -0.644123 0
M  V30 10487 H 1011.58 -1.15805 -1.68551 0
M  V30 10488 H 1009.73 0.0155268 -3.87397 0
M  V30 10489 H 1010.15 -1.96491 -4.86304 0
M  V30 10490 H 1011.62 -0.380534 -5.50687 0
M  V30 10491 H 1012.1 0.825189 -4.31378 0
M  V30 10492 H 1012.71 -0.840739 -4.16907 0
M  V30 10493 N 1011.02 1.44971 -0.618145 0
M  V30 10494 C 1012.27 2.01372 -0.115004 0
M  V30 10495 C 1012.58 1.49104 1.26599 0
M  V30 10496 O 1013.79 1.97549 1.86244 0
M  V30 10497 C 1012.24 3.59567 -0.154883 0
M  V30 10498 C 1011.85 4.20832 -1.53639 0
M  V30 10499 C 1013.6 4.23491 0.292468 0
M  V30 10500 C 1011.5 5.7121 -1.53208 0
M  V30 10501 H 1010.43 0.752979 -0.0392267 0
M  V30 10502 H 1013.08 1.66329 -0.775032 0
M  V30 10503 H 1011.47 3.91847 0.572001 0
M  V30 10504 H 1012.64 4.00109 -2.28582 0
M  V30 10505 H 1010.96 3.69143 -1.92672 0
M  V30 10506 H 1013.55 5.33771 0.315032 0
M  V30 10507 H 1013.9 3.9491 1.31725 0
M  V30 10508 H 1014.43 3.95967 -0.381493 0
M  V30 10509 H 1011.17 6.04506 -2.53481 0
M  V30 10510 H 1010.69 5.94094 -0.825387 0
M  V30 10511 H 1012.37 6.34606 -1.26032 0
M  V30 10512 N 1012.5 0.357919 1.53482 0
M  V30 10513 C 1013.43 -0.535553 2.21827 0
M  V30 10514 C 1014.41 -1.08904 1.20742 0
M  V30 10515 O 1015.59 -1.14661 1.49616 0
M  V30 10516 C 1012.72 -1.73817 2.90698 0
M  V30 10517 C 1011.77 -1.31283 4.05792 0
M  V30 10518 S 1012.6 -0.320548 5.3454 0
M  V30 10519 C 1013.76 -1.52967 6.0692 0
M  V30 10520 H 1013.99 0.0449045 2.97266 0
M  V30 10521 H 1011.52 0.142009 1.53746 0
M  V30 10522 H 1013.48 -2.42803 3.30994 0
M  V30 10523 H 1012.14 -2.28987 2.14998 0
M  V30 10524 H 1011.33 -2.20989 4.52968 0
M  V30 10525 H 1010.94 -0.702275 3.67347 0
M  V30 10526 H 1013.23 -2.46191 6.31186 0
M  V30 10527 H 1014.17 -1.09943 6.99513 0
M  V30 10528 H 1014.58 -1.73224 5.37265 0
M  V30 10529 N 1013.98 -1.5736 0.0868897 0
M  V30 10530 C 1015.2 -1.98809 -0.590757 0
M  V30 10531 C 1015.63 -0.965407 -1.61436 0
M  V30 10532 O 1014.98 0.067143 -1.81176 0
M  V30 10533 C 1015.03 -3.39249 -1.22238 0
M  V30 10534 O 1014.14 -3.39706 -2.33824 0
M  V30 10535 H 1013.48 -0.64669 -0.150626 0
M  V30 10536 H 1016.01 -2.03927 0.165873 0
M  V30 10537 H 1016.02 -3.76765 -1.56564 0
M  V30 10538 H 1014.69 -4.13208 -0.472434 0
M  V30 10539 H 1013.27 -3.13977 -2.01178 0
M  V30 10540 N 1015.45 0.186762 -1.56489 0
M  V30 10541 C 1016.42 1.21511 -1.94339 0
M  V30 10542 C 1017.42 1.38001 -0.82537 0
M  V30 10543 O 1018.61 1.3567 -1.09266 0
M  V30 10544 C 1015.74 2.583 -2.22472 0
M  V30 10545 H 1016.93 0.891371 -2.86347 0
M  V30 10546 H 1014.49 0.428612 -1.50308 0
M  V30 10547 H 1015.22 2.95715 -1.33129 0
M  V30 10548 H 1015.01 2.47701 -3.03951 0
M  V30 10549 H 1016.5 3.32441 -2.5273 0
M  V30 10550 N 1016.93 1.50896 0.454776 0
M  V30 10551 C 1018.18 1.61936 1.20248 0
M  V30 10552 C 1018.49 0.332983 1.92745 0
M  V30 10553 O 1019.7 0.322512 2.69578 0
M  V30 10554 C 1018.16 2.85916 2.18587 0
M  V30 10555 C 1017.76 4.21492 1.51818 0
M  V30 10556 C 1019.51 3.06307 2.93898 0
M  V30 10557 C 1017.42 5.3664 2.48539 0
M  V30 10558 H 1016.35 0.603098 0.452536 0
M  V30 10559 H 1019 1.77345 0.471257 0
M  V30 10560 H 1017.38 2.64101 2.95071 0
M  V30 10561 H 1018.55 4.53623 0.810123 0
M  V30 10562 H 1016.87 4.06837 0.887265 0
M  V30 10563 H 1019.46 3.89507 3.66317 0
M  V30 10564 H 1019.81 2.18683 3.54236 0
M  V30 10565 H 1020.34 3.2838 2.24525 0
M  V30 10566 H 1017.08 6.26469 1.92916 0
M  V30 10567 H 1016.6 5.08907 3.17449 0
M  V30 10568 H 1018.28 5.67881 3.10033 0
M  V30 10569 N 1018.41 -0.709066 1.40748 0
M  V30 10570 C 1019.32 -1.85314 1.43861 0
M  V30 10571 C 1020.34 -1.70832 0.330539 0
M  V30 10572 O 1021.51 -1.92983 0.576152 0
M  V30 10573 C 1018.58 -3.21174 1.30568 0
M  V30 10574 C 1017.64 -3.47863 2.51574 0
M  V30 10575 C 1016.87 -4.77241 2.38906 0
M  V30 10576 O 1017.09 -5.52791 1.40636 0
M  V30 10577 O 1016.03 -5.04413 3.28407 0
M  V30 10578 H 1019.85 -1.85644 2.40354 0
M  V30 10579 H 1017.44 -0.860352 1.2214 0
M  V30 10580 H 1019.32 -4.02313 1.25388 0
M  V30 10581 H 1018 -3.21557 0.371841 0
M  V30 10582 H 1016.9 -2.66708 2.62331 0
M  V30 10583 H 1018.24 -3.52283 3.43741 0
M  V30 10584 N 1019.89 -1.26353 -0.941956 0
M  V30 10585 C 1020.8 -1.09618 -2.07415 0
M  V30 10586 C 1021.82 -0.0298963 -1.73974 0
M  V30 10587 O 1022.99 -0.233466 -2.00042 0
M  V30 10588 C 1020.06 -0.73013 -3.38925 0
M  V30 10589 C 1019.12 -1.87574 -3.86153 0
M  V30 10590 C 1018.35 -1.52706 -5.11387 0
M  V30 10591 O 1018.57 -0.428438 -5.68789 0
M  V30 10592 O 1017.51 -2.36154 -5.53638 0
M  V30 10593 H 1021.33 -2.04598 -2.2444 0
M  V30 10594 H 1018.92 -1.05407 -1.05876 0
M  V30 10595 H 1020.8 -0.538684 -4.17943 0
M  V30 10596 H 1019.48 0.190282 -3.2314 0
M  V30 10597 H 1018.38 -2.12214 -3.08084 0
M  V30 10598 H 1019.72 -2.77585 -4.06457 0
M  V30 10599 N 1021.37 1.14642 -1.08144 0
M  V30 10600 C 1022.62 1.8525 -0.807885 0
M  V30 10601 C 1022.94 1.83194 0.668213 0
M  V30 10602 O 1022.21 1.27848 1.48431 0
M  V30 10603 H 1020.79 0.685909 -0.295868 0
M  V30 10604 H 1023.45 1.38935 -1.36686 0
M  V30 10605 H 1022.54 2.90155 -1.14964 0
M  V30 10606 N 1022.85 0.866709 1.31628 0
M  V30 10607 C 1023.79 0.318169 2.28596 0
M  V30 10608 C 1024.76 -0.581558 1.55586 0
M  V30 10609 O 1025.95 -0.513895 1.83749 0
M  V30 10610 C 1023.09 -0.477137 3.41786 0
M  V30 10611 C 1022.2 0.449739 4.29653 0
M  V30 10612 C 1021.34 -0.359373 5.29983 0
M  V30 10613 C 1020.37 0.564138 6.09495 0
M  V30 10614 N 1019.51 -0.208526 7.0179 0
M  V30 10615 H 1024.35 1.15029 2.74904 0
M  V30 10616 H 1021.89 0.578649 1.35241 0
M  V30 10617 H 1023.85 -0.953985 4.06146 0
M  V30 10618 H 1022.48 -1.27398 2.96597 0
M  V30 10619 H 1021.53 1.04502 3.65764 0
M  V30 10620 H 1022.84 1.158 4.85172 0
M  V30 10621 H 1021.99 -0.89887 6.00004 0
M  V30 10622 H 1020.73 -1.10094 4.75111 0
M  V30 10623 H 1019.74 1.11542 5.38366 0
M  V30 10624 H 1020.96 1.30451 6.66453 0
M  V30 10625 H 1018.91 -0.932969 6.49332 0
M  V30 10626 H 1018.83 0.440463 7.54716 0
M  V30 10627 H 1020.09 -0.72936 7.7608 0
M  V30 10628 N 1024.32 -1.44642 0.625825 0
M  V30 10629 C 1025.57 -2.01695 0.127948 0
M  V30 10630 C 1025.89 -1.49439 -1.25271 0
M  V30 10631 O 1025.16 -0.695873 -1.83124 0
M  V30 10632 H 1023.74 -0.745685 0.0443096 0
M  V30 10633 H 1026.4 -1.7721 0.811332 0
M  V30 10634 H 1025.5 -3.11966 0.0915933 0
M  V30 10635 N 1025.8 -0.366053 -1.5329 0
M  V30 10636 C 1027.05 0.224614 -2.00445 0
M  V30 10637 C 1027.36 1.49829 -1.2574 0
M  V30 10638 O 1028.57 2.16759 -1.63487 0
M  V30 10639 C 1027.03 0.450818 -3.57065 0
M  V30 10640 C 1026.63 -0.808257 -4.40649 0
M  V30 10641 C 1028.38 0.999116 -4.12575 0
M  V30 10642 C 1026.28 -0.551612 -5.88822 0
M  V30 10643 H 1025.21 0.0877114 -0.748881 0
M  V30 10644 H 1027.87 -0.484866 -1.76978 0
M  V30 10645 H 1026.25 1.22157 -3.76688 0
M  V30 10646 H 1027.42 -1.58184 -4.32798 0
M  V30 10647 H 1025.74 -1.27981 -3.96245 0
M  V30 10648 H 1028.33 1.20646 -5.20911 0
M  V30 10649 H 1028.68 1.96139 -3.67199 0
M  V30 10650 H 1029.21 0.288518 -3.96752 0
M  V30 10651 H 1025.95 -1.48423 -6.38475 0
M  V30 10652 H 1025.47 0.183462 -5.99519 0
M  V30 10653 H 1027.15 -0.177307 -6.46757 0
M  V30 10654 N 1027.28 1.57312 -0.0952337 0
M  V30 10655 C 1028.51 1.98409 0.575984 0
M  V30 10656 C 1028.92 0.973168 1.62253 0
M  V30 10657 O 1028.26 -0.0454416 1.83644 0
M  V30 10658 C 1028.32 3.35877 1.28167 0
M  V30 10659 C 1027.99 4.55368 0.385868 0
M  V30 10660 C 1028.98 5.1861 -0.366041 0
M  V30 10661 C 1026.67 5.0138 0.303885 0
M  V30 10662 C 1028.66 6.26233 -1.18791 0
M  V30 10663 C 1026.35 6.0887 -0.521637 0
M  V30 10664 C 1027.35 6.71161 -1.26618 0
M  V30 10665 O 1027.04 7.76577 -2.07804 0
M  V30 10666 H 1026.77 0.657018 0.159068 0
M  V30 10667 H 1029.32 2.04685 -0.171237 0
M  V30 10668 H 1027.55 3.26284 2.07547 0
M  V30 10669 H 1029.24 3.6142 1.84744 0
M  V30 10670 H 1030.01 4.83993 -0.312435 0
M  V30 10671 H 1025.89 4.52657 0.873065 0
M  V30 10672 H 1029.43 6.74784 -1.76955 0
M  V30 10673 H 1025.33 6.42918 -0.576722 0
M  V30 10674 H 1026.09 7.93566 -2.00489 0
M  V30 10675 N 1028.76 -0.17846 1.56586 0
M  V30 10676 C 1029.71 -1.24042 1.96765 0
M  V30 10677 C 1030.7 -1.46218 0.855375 0
M  V30 10678 O 1031.91 -1.46882 1.04046 0
M  V30 10679 H 1028.28 -0.416807 0.62592 0
M  V30 10680 H 1030.25 -0.874644 2.85294 0
M  V30 10681 C 1029 -2.57394 2.3376 0
M  V30 10682 H 1028.32 -2.41151 3.18883 0
M  V30 10683 H 1029.76 -3.30405 2.65723 0
M  V30 10684 C 1028.22 -3.15621 1.17835 0
M  V30 10685 O 1028.75 -3.99032 0.462202 0
M  V30 10686 N 1026.96 -2.74606 0.950783 0
M  V30 10687 H 1026.51 -2.06878 1.5349 0
M  V30 10688 H 1026.46 -3.13902 0.176967 0
M  V30 10689 N 1030.24 -1.51135 -0.446768 0
M  V30 10690 C 1031.18 -1.72328 -1.56224 0
M  V30 10691 C 1032.18 -0.589411 -1.58815 0
M  V30 10692 O 1033.38 -0.770554 -1.62673 0
M  V30 10693 H 1029.76 -0.544339 -0.518844 0
M  V30 10694 H 1031.73 -2.65851 -1.3552 0
M  V30 10695 C 1030.48 -1.85686 -2.93966 0
M  V30 10696 H 1029.8 -2.72336 -2.927 0
M  V30 10697 H 1031.24 -2.0453 -3.71407 0
M  V30 10698 C 1029.7 -0.614328 -3.31252 0
M  V30 10699 O 1030.23 0.235369 -4.0101 0
M  V30 10700 N 1028.44 -0.461181 -2.86917 0
M  V30 10701 H 1027.98 -1.15369 -2.30321 0
M  V30 10702 H 1027.94 0.368966 -3.12227 0
M  V30 10703 N 1031.71 0.701592 -1.41122 0
M  V30 10704 C 1032.96 1.45722 -1.39456 0
M  V30 10705 C 1033.28 1.95599 -0.00475228 0
M  V30 10706 O 1034.48 2.71166 0.134529 0
M  V30 10707 C 1032.94 2.63475 -2.45172 0
M  V30 10708 C 1032.55 2.20409 -3.90031 0
M  V30 10709 C 1034.29 3.4114 -2.52633 0
M  V30 10710 C 1032.2 3.35084 -4.87312 0
M  V30 10711 H 1031.13 0.547341 -0.518588 0
M  V30 10712 H 1033.78 0.762233 -1.6692 0
M  V30 10713 H 1032.16 3.35212 -2.10829 0
M  V30 10714 H 1033.33 1.56 -4.3359 0
M  V30 10715 H 1031.65 1.55752 -3.86174 0
M  V30 10716 H 1034.25 4.26496 -3.22498 0
M  V30 10717 H 1034.59 3.85915 -1.56125 0
M  V30 10718 H 1035.12 2.76456 -2.86037 0
M  V30 10719 H 1031.86 2.95327 -5.85203 0
M  V30 10720 H 1031.38 3.98362 -4.48406 0
M  V30 10721 H 1033.06 4.00949 -5.07788 0
M  V30 10722 N 1033.19 1.2685 0.935242 0
M  V30 10723 C 1034.14 1.08923 2.03481 0
M  V30 10724 C 1035.11 -0.00749786 1.66098 0
M  V30 10725 O 1036.29 0.153401 1.90182 0
M  V30 10726 C 1033.43 0.734529 3.37192 0
M  V30 10727 C 1032.55 1.90812 3.87576 0
M  V30 10728 C 1031.68 1.49599 5.097 0
M  V30 10729 C 1030.72 2.63752 5.5236 0
M  V30 10730 N 1029.86 2.23179 6.65684 0
M  V30 10731 H 1034.7 2.03016 2.18148 0
M  V30 10732 H 1032.23 1.01072 1.06878 0
M  V30 10733 H 1034.19 0.509734 4.14074 0
M  V30 10734 H 1032.82 -0.169438 3.22355 0
M  V30 10735 H 1031.87 2.24567 3.0704 0
M  V30 10736 H 1033.19 2.7647 4.1517 0
M  V30 10737 H 1032.34 1.23199 5.9406 0
M  V30 10738 H 1031.08 0.61039 4.83865 0
M  V30 10739 H 1030.08 2.90874 4.66554 0
M  V30 10740 H 1031.31 3.5292 5.80193 0
M  V30 10741 H 1029.26 1.37061 6.41522 0
M  V30 10742 H 1029.17 3.02379 6.92895 0
M  V30 10743 H 1030.44 2.00007 7.53404 0
M  V30 10744 N 1034.67 -1.14067 1.0875 0
M  V30 10745 C 1035.62 -2.21332 0.715195 0
M  V30 10746 C 1036.61 -1.67059 -0.280679 0
M  V30 10747 O 1037.82 -1.79432 -0.142874 0
M  V30 10748 H 1034.19 -0.721126 0.213264 0
M  V30 10749 H 1036.16 -2.50002 1.62916 0
M  V30 10750 C 1034.91 -3.474 0.144401 0
M  V30 10751 H 1034.24 -3.89495 0.901884 0
M  V30 10752 H 1035.68 -4.23928 -0.0782564 0
M  V30 10753 C 1034.14 -3.17787 -1.11862 0
M  V30 10754 O 1034.67 -3.35906 -2.20295 0
M  V30 10755 N 1032.87 -2.71719 -1.03039 0
M  V30 10756 H 1032.42 -2.57175 -0.14793 0
M  V30 10757 H 1032.38 -2.52281 -1.87621 0
M  V30 10758 N 1036.15 -0.873678 -1.31166 0
M  V30 10759 C 1037.4 -0.486457 -1.9657 0
M  V30 10760 C 1037.72 0.962042 -1.69041 0
M  V30 10761 O 1036.98 1.69305 -0.981543 0
M  V30 10762 C 1037.28 -0.69462 -3.50585 0
M  V30 10763 C 1036.94 -2.11647 -3.98141 0
M  V30 10764 C 1035.61 -2.50531 -4.10838 0
M  V30 10765 C 1037.96 -3.0436 -4.23101 0
M  V30 10766 C 1035.29 -3.81361 -4.45848 0
M  V30 10767 C 1037.64 -4.34709 -4.59577 0
M  V30 10768 C 1036.3 -4.73502 -4.70481 0
M  V30 10769 H 1035.57 -0.178007 -0.719301 0
M  V30 10770 H 1038.22 -1.10737 -1.56235 0
M  V30 10771 H 1036.52 0.00940878 -3.91799 0
M  V30 10772 H 1038.22 -0.374782 -3.99245 0
M  V30 10773 H 1034.81 -1.8046 -3.88757 0
M  V30 10774 H 1038.99 -2.75544 -4.12782 0
M  V30 10775 H 1034.25 -4.11174 -4.52488 0
M  V30 10776 H 1038.42 -5.06596 -4.77842 0
M  V30 10777 H 1036.05 -5.74919 -4.97365 0
M  V30 10778 N 1037.63 1.44308 -0.633487 0
M  V30 10779 C 1038.87 2.02322 -0.139123 0
M  V30 10780 C 1039.21 1.49733 1.23667 0
M  V30 10781 O 1038.48 0.682353 1.82138 0
M  V30 10782 C 1038.76 3.59871 -0.128366 0
M  V30 10783 C 1038.62 4.22737 -1.53667 0
M  V30 10784 C 1039.94 4.36702 0.545834 0
M  V30 10785 H 1037.05 0.735161 -0.0520293 0
M  V30 10786 H 1039.7 1.7185 -0.810411 0
M  V30 10787 H 1037.85 3.85963 0.443263 0
M  V30 10788 H 1039.52 4.07744 -2.15737 0
M  V30 10789 H 1037.76 3.80142 -2.08985 0
M  V30 10790 H 1038.43 5.31757 -1.48116 0
M  V30 10791 H 1040.91 4.16057 0.0596879 0
M  V30 10792 H 1039.78 5.46407 0.522557 0
M  V30 10793 H 1040.05 4.11483 1.6166 0
M  V30 10794 N 1039.1 0.374177 1.53094 0
M  V30 10795 C 1040.52 0.0234783 1.59583 0
M  V30 10796 C 1040.72 -1.45984 1.38892 0
M  V30 10797 O 1039.78 -2.22251 1.19836 0
M  V30 10798 C 1041.09 0.487117 2.96728 0
M  V30 10799 C 1042.64 0.442073 3.09862 0
M  V30 10800 C 1043.11 0.881659 4.49434 0
M  V30 10801 N 1044.6 0.837062 4.55574 0
M  V30 10802 C 1045.34 1.14878 5.61774 0
M  V30 10803 N 1044.83 1.53022 6.75689 0
M  V30 10804 N 1046.63 1.07102 5.51802 0
M  V30 10805 H 1038.78 1.34003 1.64794 0
M  V30 10806 H 1041.04 0.548281 0.773364 0
M  V30 10807 H 1040.75 1.52252 3.17037 0
M  V30 10808 H 1040.62 -0.121772 3.77003 0
M  V30 10809 H 1043.01 -0.584216 2.89259 0
M  V30 10810 H 1043.09 1.08657 2.31576 0
M  V30 10811 H 1042.73 1.90611 4.70776 0
M  V30 10812 H 1042.66 0.214326 5.26164 0
M  V30 10813 H 1045.15 0.556173 3.73785 0
M  V30 10814 H 1045.47 1.75211 7.52676 0
M  V30 10815 H 1043.81 1.56895 6.77059 0
M  V30 10816 H 1047 0.772149 4.61688 0
M  V30 10817 H 1047.18 1.31728 6.3447 0
M  V30 10818 N 1040.58 -1.57259 0.103575 0
M  V30 10819 C 1041.83 -1.94657 -0.558126 0
M  V30 10820 C 1042.16 -0.985886 -1.67662 0
M  V30 10821 O 1041.41 -0.0069745 -1.95699 0
M  V30 10822 C 1041.71 -3.38549 -1.14538 0
M  V30 10823 C 1041.38 -4.50651 -0.149818 0
M  V30 10824 C 1040.04 -4.8104 0.12398 0
M  V30 10825 C 1042.39 -5.18503 0.529497 0
M  V30 10826 C 1039.72 -5.76606 1.08364 0
M  V30 10827 C 1042.07 -6.15099 1.47769 0
M  V30 10828 C 1040.74 -6.43889 1.75963 0
M  V30 10829 H 1040.01 -0.712299 -0.204233 0
M  V30 10830 H 1042.65 -1.90641 0.181208 0
M  V30 10831 H 1040.96 -3.39185 -1.96115 0
M  V30 10832 H 1042.65 -3.6479 -1.66521 0
M  V30 10833 H 1039.24 -4.2697 -0.373404 0
M  V30 10834 H 1043.43 -4.95194 0.331121 0
M  V30 10835 H 1038.68 -5.97223 1.30899 0
M  V30 10836 H 1042.86 -6.66767 2.00983 0
M  V30 10837 H 1040.49 -7.17749 2.50481 0
M  V30 10838 N 1042.06 0.170153 -1.56679 0
M  V30 10839 C 1042.99 1.23525 -1.93066 0
M  V30 10840 C 1044.01 1.40414 -0.823879 0
M  V30 10841 O 1045.19 1.40396 -1.10232 0
M  V30 10842 C 1042.29 2.60376 -2.16928 0
M  V30 10843 C 1041.47 2.6477 -3.4816 0
M  V30 10844 C 1040.53 3.82993 -3.60837 0
M  V30 10845 O 1039.55 3.68937 -4.33444 0
M  V30 10846 N 1040.75 4.99498 -2.95773 0
M  V30 10847 H 1043.52 0.926172 -2.8503 0
M  V30 10848 H 1041.08 0.359909 -1.57849 0
M  V30 10849 H 1043.07 3.37934 -2.22672 0
M  V30 10850 H 1041.64 2.83669 -1.31342 0
M  V30 10851 H 1040.86 1.73298 -3.54064 0
M  V30 10852 H 1042.15 2.64717 -4.34514 0
M  V30 10853 H 1041.55 5.13819 -2.36657 0
M  V30 10854 H 1040.11 5.74914 -3.07111 0
M  V30 10855 N 1043.54 1.5137 0.438746 0
M  V30 10856 C 1044.47 1.75528 1.53987 0
M  V30 10857 C 1045.45 0.605067 1.58975 0
M  V30 10858 O 1046.63 0.847634 1.74725 0
M  V30 10859 C 1043.76 1.87904 2.92078 0
M  V30 10860 C 1042.72 3.0333 3.01951 0
M  V30 10861 C 1042.04 3.00888 4.42007 0
M  V30 10862 C 1043.34 4.43319 2.76163 0
M  V30 10863 H 1045.04 2.67728 1.34022 0
M  V30 10864 H 1042.58 1.28831 0.643308 0
M  V30 10865 H 1044.54 2.03388 3.69068 0
M  V30 10866 H 1043.26 0.923514 3.13271 0
M  V30 10867 H 1041.92 2.87549 2.274 0
M  V30 10868 H 1041.57 2.03116 4.60166 0
M  V30 10869 H 1041.27 3.78397 4.49544 0
M  V30 10870 H 1042.79 3.18464 5.20973 0
M  V30 10871 H 1044.21 4.59458 3.42887 0
M  V30 10872 H 1042.6 5.22523 2.9511 0
M  V30 10873 H 1043.67 4.53453 1.71779 0
M  V30 10874 N 1045.02 -0.694098 1.41492 0
M  V30 10875 C 1046.24 -1.48789 1.44488 0
M  V30 10876 C 1046.67 -1.88028 0.0521588 0
M  V30 10877 O 1046.02 -1.54727 -0.944952 0
M  V30 10878 C 1046.07 -2.72586 2.3607 0
M  V30 10879 O 1045.18 -3.70128 1.81876 0
M  V30 10880 H 1044.52 -0.447758 0.490315 0
M  V30 10881 H 1047.05 -0.853036 1.85969 0
M  V30 10882 H 1047.06 -3.20877 2.51995 0
M  V30 10883 H 1045.73 -2.43363 3.37264 0
M  V30 10884 H 1044.31 -3.29069 1.75408 0
M  V30 10885 N 1046.49 -1.27344 -0.928501 0
M  V30 10886 C 1047.72 -1.16447 -1.7102 0
M  V30 10887 C 1048.14 0.278799 -1.8673 0
M  V30 10888 O 1047.49 1.18989 -1.38376 0
M  V30 10889 C 1047.55 -1.84242 -3.11026 0
M  V30 10890 O 1047.27 -3.2293 -2.96054 0
M  V30 10891 C 1048.77 -1.7946 -4.05351 0
M  V30 10892 H 1045.99 -0.404898 -0.535069 0
M  V30 10893 H 1048.53 -1.68201 -1.16313 0
M  V30 10894 H 1046.69 -1.36395 -3.62595 0
M  V30 10895 H 1047.1 -3.5667 -3.8456 0
M  V30 10896 H 1048.57 -2.31511 -5.01105 0
M  V30 10897 H 1049.05 -0.763771 -4.32508 0
M  V30 10898 H 1049.66 -2.26918 -3.59706 0
M  V30 10899 N 1047.97 1.13488 -1.09353 0
M  V30 10900 C 1049.2 1.89133 -0.85108 0
M  V30 10901 C 1049.62 1.78542 0.591976 0
M  V30 10902 O 1048.98 1.13243 1.41583 0
M  V30 10903 C 1049.03 3.36736 -1.29001 0
M  V30 10904 O 1048.13 4.09959 -0.447993 0
M  V30 10905 H 1047.47 0.58809 -0.308296 0
M  V30 10906 H 1050 1.43593 -1.45747 0
M  V30 10907 H 1050.01 3.87564 -1.27508 0
M  V30 10908 H 1048.69 3.43762 -2.34095 0
M  V30 10909 H 1047.27 3.69155 -0.52717 0
M  V30 10910 N 1049.45 0.880621 1.30701 0
M  V30 10911 C 1050.7 0.492957 1.95583 0
M  V30 10912 C 1051.01 -0.961863 1.70316 0
M  V30 10913 O 1052.22 -1.45617 2.29146 0
M  V30 10914 C 1050.68 0.830656 3.50183 0
M  V30 10915 C 1050.28 2.30295 3.84276 0
M  V30 10916 C 1052.03 0.511979 4.21401 0
M  V30 10917 C 1049.93 2.58251 5.32034 0
M  V30 10918 H 1048.86 0.18062 0.732047 0
M  V30 10919 H 1051.52 1.075 1.48715 0
M  V30 10920 H 1049.9 0.177752 3.95601 0
M  V30 10921 H 1051.07 2.99981 3.49783 0
M  V30 10922 H 1049.39 2.58873 3.2615 0
M  V30 10923 H 1051.98 0.697935 5.30125 0
M  V30 10924 H 1052.33 -0.548327 4.12673 0
M  V30 10925 H 1052.86 1.12189 3.81652 0
M  V30 10926 H 1049.6 3.63005 5.45809 0
M  V30 10927 H 1049.12 1.9317 5.67843 0
M  V30 10928 H 1050.8 2.43527 5.99419 0
M  V30 10929 N 1050.93 -1.4397 0.641131 0
M  V30 10930 C 1051.89 -2.29149 -0.0482243 0
M  V30 10931 C 1052.89 -1.41572 -0.762495 0
M  V30 10932 O 1054.08 -1.63335 -0.605571 0
M  V30 10933 C 1051.21 -3.23375 -1.07896 0
M  V30 10934 H 1052.41 -2.9159 0.70109 0
M  V30 10935 H 1049.96 -1.51048 0.401754 0
M  V30 10936 H 1050.7 -2.65804 -1.85792 0
M  V30 10937 H 1050.48 -3.87926 -0.570597 0
M  V30 10938 H 1051.97 -3.87337 -1.56075 0
M  V30 10939 N 1052.41 -0.382291 -1.52893 0
M  V30 10940 C 1053.37 0.44408 -2.24857 0
M  V30 10941 C 1054.37 0.996004 -1.26239 0
M  V30 10942 O 1055.56 0.879114 -1.5039 0
M  V30 10943 C 1052.69 1.62234 -2.99822 0
M  V30 10944 H 1053.89 -0.185862 -2.99324 0
M  V30 10945 H 1051.44 -0.134275 -1.55722 0
M  V30 10946 H 1052.17 2.28991 -2.29638 0
M  V30 10947 H 1051.96 1.23336 -3.72197 0
M  V30 10948 H 1053.45 2.20756 -3.54481 0
M  V30 10949 N 1053.89 1.57202 -0.111913 0
M  V30 10950 C 1054.82 2.17957 0.837683 0
M  V30 10951 C 1055.8 1.1176 1.28233 0
M  V30 10952 O 1056.98 1.39967 1.34621 0
M  V30 10953 C 1054.11 2.77333 2.09054 0
M  V30 10954 C 1053.07 3.8905 1.78393 0
M  V30 10955 C 1052.39 4.35203 3.10649 0
M  V30 10956 C 1053.69 5.11477 1.05775 0
M  V30 10957 H 1055.39 2.9756 0.331441 0
M  V30 10958 H 1052.93 1.43131 0.157979 0
M  V30 10959 H 1054.88 3.18492 2.75936 0
M  V30 10960 H 1053.61 1.95009 2.6199 0
M  V30 10961 H 1052.27 3.48456 1.13903 0
M  V30 10962 H 1051.92 3.49747 3.61506 0
M  V30 10963 H 1051.62 5.10534 2.9091 0
M  V30 10964 H 1053.14 4.79007 3.78661 0
M  V30 10965 H 1054.55 5.497 1.62798 0
M  V30 10966 H 1052.95 5.92346 0.961573 0
M  V30 10967 H 1054.02 4.84881 0.043297 0
M  V30 10968 N 1055.36 -0.161842 1.56767 0
M  V30 10969 C 1056.59 -0.892247 1.86672 0
M  V30 10970 C 1057.01 -1.75407 0.69841 0
M  V30 10971 O 1056.36 -1.7945 -0.332251 0
M  V30 10972 C 1056.41 -1.7612 3.15696 0
M  V30 10973 O 1056.14 -0.934131 4.28025 0
M  V30 10974 C 1057.64 -2.60046 3.59014 0
M  V30 10975 H 1054.86 -0.258747 0.619105 0
M  V30 10976 H 1057.4 -0.159089 2.0388 0
M  V30 10977 H 1055.56 -2.44759 3.00286 0
M  V30 10978 H 1055.97 -1.52931 5.01709 0
M  V30 10979 H 1057.44 -3.16618 4.5217 0
M  V30 10980 H 1057.92 -3.35374 2.83586 0
M  V30 10981 H 1058.53 -1.96724 3.77067 0
M  V30 10982 N 1056.84 -1.516 -0.430713 0
M  V30 10983 C 1057.77 -1.76342 -1.53054 0
M  V30 10984 C 1058.75 -0.61349 -1.58652 0
M  V30 10985 O 1059.94 -0.856888 -1.74273 0
M  V30 10986 C 1057.07 -1.8945 -2.91077 0
M  V30 10987 C 1056.02 -3.04928 -3.00339 0
M  V30 10988 C 1055.35 -3.03228 -4.40405 0
M  V30 10989 C 1056.65 -4.44777 -2.73808 0
M  V30 10990 H 1058.34 -2.68435 -1.326 0
M  V30 10991 H 1055.89 -1.29171 -0.636466 0
M  V30 10992 H 1057.84 -2.05343 -3.67984 0
M  V30 10993 H 1056.56 -0.940114 -3.12777 0
M  V30 10994 H 1055.22 -2.88751 -2.25872 0
M  V30 10995 H 1054.87 -2.05553 -4.59083 0
M  V30 10996 H 1054.57 -3.80776 -4.47531 0
M  V30 10997 H 1056.1 -3.21222 -5.19277 0
M  V30 10998 H 1057.51 -4.6127 -3.40445 0
M  V30 10999 H 1055.91 -5.2408 -2.92335 0
M  V30 11000 H 1056.98 -4.54358 -1.69372 0
M  V30 11001 N 1058.32 0.686584 -1.41858 0
M  V30 11002 C 1059.57 1.44235 -1.40994 0
M  V30 11003 C 1059.88 1.95583 -0.0254979 0
M  V30 11004 O 1061.09 2.71294 0.10576 0
M  V30 11005 C 1059.54 2.6086 -2.47952 0
M  V30 11006 C 1059.15 2.16259 -3.92347 0
M  V30 11007 C 1060.9 3.38441 -2.56237 0
M  V30 11008 C 1058.8 3.29896 -4.90838 0
M  V30 11009 H 1057.73 0.54181 -0.524364 0
M  V30 11010 H 1060.38 0.744486 -1.67719 0
M  V30 11011 H 1058.77 3.32957 -2.14373 0
M  V30 11012 H 1059.94 1.51392 -4.35221 0
M  V30 11013 H 1058.25 1.51648 -3.87804 0
M  V30 11014 H 1060.85 4.23052 -3.27003 0
M  V30 11015 H 1061.19 3.84238 -1.6021 0
M  V30 11016 H 1061.73 2.73406 -2.88953 0
M  V30 11017 H 1058.47 2.89104 -5.88302 0
M  V30 11018 H 1057.99 3.93584 -4.52606 0
M  V30 11019 H 1059.67 3.95541 -5.12012 0
M  V30 11020 N 1059.8 1.27835 0.921735 0
M  V30 11021 C 1061.02 1.17465 1.70929 0
M  V30 11022 C 1061.45 -0.264171 1.86236 0
M  V30 11023 O 1060.81 -1.19124 1.36671 0
M  V30 11024 C 1060.85 1.8697 3.08342 0
M  V30 11025 O 1059.96 1.17173 3.95404 0
M  V30 11026 H 1059.3 0.408206 0.523702 0
M  V30 11027 H 1061.83 1.69013 1.15307 0
M  V30 11028 H 1061.84 1.94564 3.58621 0
M  V30 11029 H 1060.51 2.91633 2.96518 0
M  V30 11030 H 1059.09 1.17688 3.53842 0
M  V30 11031 N 1061.28 -1.12907 1.09954 0
M  V30 11032 C 1062.21 -2.20585 0.765799 0
M  V30 11033 C 1063.19 -1.68117 -0.258989 0
M  V30 11034 O 1064.37 -1.93792 -0.125853 0
M  V30 11035 C 1061.5 -3.46772 0.191435 0
M  V30 11036 C 1060.46 -4.12363 1.14635 0
M  V30 11037 C 1059.78 -5.3294 0.433426 0
M  V30 11038 C 1061.08 -4.59073 2.49096 0
M  V30 11039 H 1062.78 -2.48759 1.66612 0
M  V30 11040 H 1060.32 -1.19563 0.802534 0
M  V30 11041 H 1062.27 -4.21365 -0.0541535 0
M  V30 11042 H 1061 -3.18011 -0.744101 0
M  V30 11043 H 1059.66 -3.39744 1.37731 0
M  V30 11044 H 1059.31 -5.00444 -0.506422 0
M  V30 11045 H 1059.01 -5.77772 1.07018 0
M  V30 11046 H 1060.53 -6.10284 0.196267 0
M  V30 11047 H 1061.94 -5.25063 2.30177 0
M  V30 11048 H 1060.34 -5.14665 3.0861 0
M  V30 11049 H 1061.41 -3.73313 3.0946 0
M  V30 11050 N 1062.75 -0.88754 -1.30232 0
M  V30 11051 C 1063.72 -0.361095 -2.26338 0
M  V30 11052 C 1064.72 0.497871 -1.52898 0
M  V30 11053 O 1065.91 0.30466 -1.71515 0
M  V30 11054 C 1063.04 0.485135 -3.3743 0
M  V30 11055 H 1064.23 -1.20973 -2.74419 0
M  V30 11056 H 1061.78 -0.664619 -1.41466 0
M  V30 11057 H 1062.52 1.35425 -2.9467 0
M  V30 11058 H 1062.3 -0.130173 -3.91884 0
M  V30 11059 H 1063.79 0.845169 -4.08958 0
M  V30 11060 N 1064.23 1.43628 -0.648757 0
M  V30 11061 C 1065.46 2.06217 -0.167945 0
M  V30 11062 C 1065.88 1.486 1.16462 0
M  V30 11063 O 1065.23 0.61559 1.71804 0
M  V30 11064 C 1065.28 3.6144 -0.0660114 0
M  V30 11065 O 1065 4.16914 -1.34589 0
M  V30 11066 C 1066.51 4.41097 0.441408 0
M  V30 11067 H 1063.73 0.665228 -0.0878237 0
M  V30 11068 H 1066.27 1.84207 -0.888144 0
M  V30 11069 H 1064.42 3.82651 0.604722 0
M  V30 11070 H 1064.84 5.10537 -1.20218 0
M  V30 11071 H 1066.31 5.50066 0.461697 0
M  V30 11072 H 1066.79 4.13803 1.47187 0
M  V30 11073 H 1067.4 4.24845 -0.19668 0
M  V30 11074 N 1065.71 0.390394 1.52688 0
M  V30 11075 C 1066.64 -0.43567 2.294 0
M  V30 11076 C 1067.62 -1.06253 1.32832 0
M  V30 11077 O 1068.81 -1.07509 1.61726 0
M  V30 11078 C 1065.94 -1.56259 3.10162 0
M  V30 11079 C 1064.89 -1.06172 4.14622 0
M  V30 11080 C 1064.22 -2.2808 4.83615 0
M  V30 11081 C 1065.52 -0.128902 5.22141 0
M  V30 11082 H 1067.21 0.204384 2.98702 0
M  V30 11083 H 1064.76 0.0997377 1.43654 0
M  V30 11084 H 1066.71 -2.14732 3.62585 0
M  V30 11085 H 1065.43 -2.23025 2.38595 0
M  V30 11086 H 1064.09 -0.499518 3.63181 0
M  V30 11087 H 1063.74 -2.93358 4.08595 0
M  V30 11088 H 1063.44 -1.95227 5.5422 0
M  V30 11089 H 1064.96 -2.87193 5.38844 0
M  V30 11090 H 1066.38 -0.621849 5.69917 0
M  V30 11091 H 1064.78 0.109919 5.99999 0
M  V30 11092 H 1065.85 0.821884 4.77884 0
M  V30 11093 N 1067.19 -1.57141 0.120249 0
M  V30 11094 C 1068.12 -2.11097 -0.8668 0
M  V30 11095 C 1069.1 -1.02768 -1.26006 0
M  V30 11096 O 1070.28 -1.3043 -1.36089 0
M  V30 11097 C 1067.41 -2.6087 -2.1602 0
M  V30 11098 C 1066.46 -3.81095 -1.91491 0
M  V30 11099 S 1067.29 -5.23441 -1.13005 0
M  V30 11100 C 1068.45 -5.76583 -2.43521 0
M  V30 11101 H 1068.68 -2.94489 -0.407871 0
M  V30 11102 H 1066.21 -1.54116 -0.0935491 0
M  V30 11103 H 1068.17 -2.90201 -2.90333 0
M  V30 11104 H 1066.83 -1.77657 -2.5903 0
M  V30 11105 H 1066.02 -4.14074 -2.8733 0
M  V30 11106 H 1065.63 -3.52387 -1.25297 0
M  V30 11107 H 1067.92 -5.86384 -3.39352 0
M  V30 11108 H 1068.86 -6.74644 -2.15085 0
M  V30 11109 H 1069.27 -5.04657 -2.52946 0
M  V30 11110 N 1068.67 0.153526 -1.5685 0
M  V30 11111 C 1069.61 1.20896 -1.98713 0
M  V30 11112 C 1070.61 1.44839 -0.878529 0
M  V30 11113 O 1071.81 1.45208 -1.0637 0
M  V30 11114 H 1068.19 0.406797 -0.632472 0
M  V30 11115 H 1070.16 0.829145 -2.86649 0
M  V30 11116 C 1068.91 2.53642 -2.37825 0
M  V30 11117 H 1068.23 2.36047 -3.22679 0
M  V30 11118 H 1069.67 3.26136 -2.70946 0
M  V30 11119 C 1068.13 3.13706 -1.22841 0
M  V30 11120 O 1068.66 3.98246 -0.525626 0
M  V30 11121 N 1066.87 2.73059 -0.99435 0
M  V30 11122 H 1066.41 2.0441 -1.56761 0
M  V30 11123 H 1066.37 3.1358 -0.226883 0
M  V30 11124 N 1070.14 1.51827 0.422667 0
M  V30 11125 C 1071.39 1.6522 1.17084 0
M  V30 11126 C 1071.72 0.375508 1.90841 0
M  V30 11127 O 1070.97 -0.641029 1.84903 0
M  V30 11128 C 1071.27 2.81572 2.20119 0
M  V30 11129 C 1070.94 4.20303 1.63268 0
M  V30 11130 C 1069.6 4.5804 1.47488 0
M  V30 11131 C 1071.95 5.06812 1.21618 0
M  V30 11132 C 1069.28 5.79979 0.885531 0
M  V30 11133 C 1071.63 6.29343 0.641071 0
M  V30 11134 C 1070.3 6.65841 0.470286 0
M  V30 11135 H 1069.57 0.604581 0.428442 0
M  V30 11136 H 1072.21 1.85896 0.459874 0
M  V30 11137 H 1070.52 2.55175 2.97309 0
M  V30 11138 H 1072.22 2.89132 2.77856 0
M  V30 11139 H 1068.81 3.90557 1.76531 0
M  V30 11140 H 1072.99 4.78251 1.32624 0
M  V30 11141 H 1068.25 6.06892 0.741105 0
M  V30 11142 H 1072.42 6.9571 0.309888 0
M  V30 11143 H 1070.05 7.60199 0.0115038 0
M  V30 11144 N 1071.62 -0.679052 1.4222 0
M  V30 11145 C 1073.03 -1.25953 1.37815 0
M  V30 11146 C 1073.38 -1.96077 0.0693215 0
M  V30 11147 O 1072.51 -1.99765 -0.832047 0
M  V30 11148 C 1073.1 -2.29063 2.49631 0
M  V30 11149 C 1071.66 -2.82647 2.48571 0
M  V30 11150 C 1070.81 -1.56909 2.28637 0
M  V30 11151 H 1073.76 -0.472714 1.51496 0
M  V30 11152 H 1073.78 -3.10708 2.19638 0
M  V30 11153 H 1073.29 -1.77996 3.44876 0
M  V30 11154 H 1071.4 -3.37846 1.57132 0
M  V30 11155 H 1071.51 -3.31952 3.45463 0
M  V30 11156 H 1069.87 -1.83323 1.76819 0
M  V30 11157 H 1070.66 -1.07814 3.25931 0
M  V30 11158 N 1073.1 -1.28322 -0.914942 0
M  V30 11159 C 1074.05 -1.12003 -2.03858 0
M  V30 11160 C 1075.04 -0.0396287 -1.69354 0
M  V30 11161 O 1076.25 -0.198309 -1.78904 0
M  V30 11162 H 1072.62 -0.34552 -0.667922 0
M  V30 11163 H 1074.59 -2.07168 -2.14765 0
M  V30 11164 C 1073.34 -0.797402 -3.38433 0
M  V30 11165 H 1072.67 -1.62071 -3.65476 0
M  V30 11166 H 1074.11 -0.723165 -4.17787 0
M  V30 11167 C 1072.57 0.498807 -3.33187 0
M  V30 11168 O 1073.1 1.52946 -3.71444 0
M  V30 11169 N 1071.3 0.499101 -2.86282 0
M  V30 11170 H 1070.85 -0.340056 -2.55346 0
M  V30 11171 H 1070.81 1.36641 -2.83155 0
M  V30 11172 N 1074.58 1.12322 -1.10551 0
M  V30 11173 C 1075.99 1.6539 -0.8662 0
M  V30 11174 C 1076.34 1.86695 0.603284 0
M  V30 11175 O 1075.47 1.59432 1.46323 0
M  V30 11176 C 1076.06 3.00443 -1.56587 0
M  V30 11177 C 1074.62 3.50456 -1.37323 0
M  V30 11178 C 1073.77 2.25454 -1.61449 0
M  V30 11179 H 1076.72 0.960866 -1.26305 0
M  V30 11180 H 1076.74 3.66972 -1.00557 0
M  V30 11181 H 1076.25 2.84905 -2.63535 0
M  V30 11182 H 1074.35 3.71176 -0.325431 0
M  V30 11183 H 1074.46 4.29839 -2.11601 0
M  V30 11184 H 1072.83 2.32621 -1.03729 0
M  V30 11185 H 1073.61 2.12469 -2.69651 0
M  V30 11186 N 1076.06 0.894434 1.2976 0
M  V30 11187 C 1076.99 0.3847 2.30309 0
M  V30 11188 C 1077.97 -0.537486 1.61385 0
M  V30 11189 O 1079.15 -0.449332 1.8893 0
M  V30 11190 C 1076.28 -0.393311 3.45066 0
M  V30 11191 C 1075.24 0.437968 4.25753 0
M  V30 11192 C 1074.56 -0.467221 5.32655 0
M  V30 11193 C 1075.86 1.6851 4.9437 0
M  V30 11194 H 1077.56 1.22496 2.73194 0
M  V30 11195 H 1075.1 0.590471 1.31337 0
M  V30 11196 H 1077.06 -0.760614 4.14479 0
M  V30 11197 H 1075.78 -1.2673 3.0101 0
M  V30 11198 H 1074.44 0.787533 3.58041 0
M  V30 11199 H 1074.09 -1.33919 4.84845 0
M  V30 11200 H 1073.79 0.0852482 5.87538 0
M  V30 11201 H 1075.31 -0.830833 6.04921 0
M  V30 11202 H 1076.72 1.38784 5.56248 0
M  V30 11203 H 1075.12 2.17849 5.59162 0
M  V30 11204 H 1076.19 2.42412 4.19958 0
M  V30 11205 N 1077.53 -1.43282 0.656365 0
M  V30 11206 C 1078.48 -2.32556 -0.0452037 0
M  V30 11207 C 1079.48 -1.48789 -0.80982 0
M  V30 11208 O 1080.68 -1.64979 -0.719865 0
M  V30 11209 H 1077.06 -0.751258 -0.0334043 0
M  V30 11210 H 1079.03 -2.89448 0.725423 0
M  V30 11211 C 1077.78 -3.33138 -0.995706 0
M  V30 11212 H 1077.1 -3.97622 -0.416774 0
M  V30 11213 H 1078.54 -3.98231 -1.45562 0
M  V30 11214 C 1077 -2.63978 -2.09325 0
M  V30 11215 O 1077.53 -2.45769 -3.17743 0
M  V30 11216 N 1075.74 -2.23301 -1.8597 0
M  V30 11217 H 1075.28 -2.38312 -0.97802 0
M  V30 11218 H 1075.24 -1.77358 -2.59599 0
M  V30 11219 N 1079.01 -0.398486 -1.52479 0
M  V30 11220 C 1079.98 0.420206 -2.25315 0
M  V30 11221 C 1080.98 0.982559 -1.27289 0
M  V30 11222 O 1082.17 0.863113 -1.51314 0
M  V30 11223 C 1079.3 1.59045 -3.01525 0
M  V30 11224 H 1080.49 -0.217599 -2.9911 0
M  V30 11225 H 1078.04 -0.150784 -1.55571 0
M  V30 11226 H 1078.78 2.26542 -2.32054 0
M  V30 11227 H 1078.56 1.19382 -3.73484 0
M  V30 11228 H 1080.05 2.16984 -3.56802 0
M  V30 11229 N 1080.49 1.57075 -0.12858 0
M  V30 11230 C 1081.42 2.11553 0.855593 0
M  V30 11231 C 1082.4 1.03435 1.25459 0
M  V30 11232 O 1083.59 1.3115 1.35395 0
M  V30 11233 C 1080.71 2.62012 2.14633 0
M  V30 11234 C 1079.76 3.82105 1.89467 0
M  V30 11235 S 1080.59 5.24033 1.10228 0
M  V30 11236 C 1081.75 5.77867 2.4046 0
M  V30 11237 H 1081.98 2.94701 0.392248 0
M  V30 11238 H 1079.51 1.54164 0.0853746 0
M  V30 11239 H 1081.47 2.91737 2.8879 0
M  V30 11240 H 1080.13 1.79029 2.58084 0
M  V30 11241 H 1079.33 4.15592 2.8513 0
M  V30 11242 H 1078.93 3.53047 1.23427 0
M  V30 11243 H 1081.22 5.88175 3.36238 0
M  V30 11244 H 1082.16 6.75775 2.11504 0
M  V30 11245 H 1082.57 5.05991 2.50266 0
M  V30 11246 N 1081.97 -0.145205 1.5693 0
M  V30 11247 C 1082.9 -1.20438 1.95006 0
M  V30 11248 C 1083.91 -1.39085 0.846114 0
M  V30 11249 O 1085.1 -1.38625 1.12452 0
M  V30 11250 C 1082.2 -2.56892 2.21043 0
M  V30 11251 C 1081.38 -2.59197 3.52329 0
M  V30 11252 C 1080.44 -3.77204 3.66884 0
M  V30 11253 O 1079.46 -3.61995 4.39259 0
M  V30 11254 N 1080.66 -4.9473 3.03682 0
M  V30 11255 H 1083.43 -0.880709 2.86467 0
M  V30 11256 H 1080.99 -0.334751 1.58401 0
M  V30 11257 H 1082.98 -3.34349 2.2802 0
M  V30 11258 H 1081.55 -2.81544 1.35838 0
M  V30 11259 H 1080.77 -1.67644 3.56776 0
M  V30 11260 H 1082.06 -2.57771 4.3867 0
M  V30 11261 H 1081.46 -5.09989 2.44801 0
M  V30 11262 H 1080.01 -5.69956 3.16218 0
M  V30 11263 N 1083.45 -1.52049 -0.414609 0
M  V30 11264 C 1084.7 -1.65067 -1.15912 0
M  V30 11265 C 1085.01 -0.383969 -1.91794 0
M  V30 11266 O 1086.22 -0.393872 -2.68628 0
M  V30 11267 C 1084.67 -2.91611 -2.1093 0
M  V30 11268 C 1084.28 -4.25369 -1.4059 0
M  V30 11269 C 1086.02 -3.13992 -2.85674 0
M  V30 11270 C 1083.93 -5.43041 -2.34223 0
M  V30 11271 H 1082.86 -0.614884 -0.436387 0
M  V30 11272 H 1085.51 -1.78533 -0.424072 0
M  V30 11273 H 1083.89 -2.71831 -2.87965 0
M  V30 11274 H 1085.07 -4.55611 -0.689568 0
M  V30 11275 H 1083.38 -4.09047 -0.779088 0
M  V30 11276 H 1085.98 -3.99082 -3.55861 0
M  V30 11277 H 1086.32 -2.27998 -3.48314 0
M  V30 11278 H 1086.86 -3.34217 -2.1574 0
M  V30 11279 H 1083.59 -6.31364 -1.76238 0
M  V30 11280 H 1083.11 -5.17144 -3.03845 0
M  V30 11281 H 1084.79 -5.75901 -2.94868 0
M  V30 11282 N 1084.93 0.6715 -1.42579 0
M  V30 11283 C 1085.86 1.79693 -1.49107 0
M  V30 11284 C 1086.84 1.66516 -0.347338 0
M  V30 11285 O 1088.02 1.85887 -0.562094 0
M  V30 11286 C 1085.15 3.1801 -1.39596 0
M  V30 11287 C 1084.11 3.45926 -2.5203 0
M  V30 11288 C 1083.43 4.83852 -2.27577 0
M  V30 11289 C 1084.73 3.4249 -3.94333 0
M  V30 11290 H 1086.43 1.74486 -2.433 0
M  V30 11291 H 1083.97 0.838042 -1.17102 0
M  V30 11292 H 1085.92 3.96478 -1.42771 0
M  V30 11293 H 1084.65 3.23901 -0.418989 0
M  V30 11294 H 1083.31 2.6982 -2.48178 0
M  V30 11295 H 1082.96 4.86398 -1.28165 0
M  V30 11296 H 1082.66 5.03493 -3.02934 0
M  V30 11297 H 1084.18 5.646 -2.32506 0
M  V30 11298 H 1085.59 4.10922 -3.9977 0
M  V30 11299 H 1083.99 3.73666 -4.69568 0
M  V30 11300 H 1085.06 2.41002 -4.20768 0
M  V30 11301 N 1086.4 1.28806 0.908124 0
M  V30 11302 C 1087.65 1.17469 1.6605 0
M  V30 11303 C 1088 -0.272864 1.90455 0
M  V30 11304 O 1087.3 -1.19476 1.49787 0
M  V30 11305 C 1087.49 1.91267 3.01914 0
M  V30 11306 C 1087.32 3.43051 2.90769 0
M  V30 11307 C 1086.09 4.12395 2.9199 0
M  V30 11308 C 1088.29 4.38696 2.68422 0
M  V30 11309 N 1086.27 5.50604 2.71493 0
M  V30 11310 C 1087.64 5.64307 2.56823 0
M  V30 11311 C 1089.7 4.28557 2.53463 0
M  V30 11312 C 1088.4 6.80931 2.31789 0
M  V30 11313 C 1090.43 5.44923 2.2981 0
M  V30 11314 C 1089.79 6.69501 2.1897 0
M  V30 11315 H 1085.89 0.484813 0.61358 0
M  V30 11316 H 1088.47 1.62528 1.07204 0
M  V30 11317 H 1086.64 1.48634 3.58835 0
M  V30 11318 H 1088.37 1.72267 3.66205 0
M  V30 11319 H 1085.13 3.64024 3.02958 0
M  V30 11320 H 1085.55 6.23269 2.6432 0
M  V30 11321 H 1090.19 3.32944 2.60592 0
M  V30 11322 H 1087.91 7.76607 2.23399 0
M  V30 11323 H 1091.5 5.38971 2.19092 0
M  V30 11324 H 1090.38 7.58025 2.00918 0
M  V30 11325 N 1087.88 -1.11734 1.11145 0
M  V30 11326 C 1089.13 -1.82766 0.853194 0
M  V30 11327 C 1089.44 -1.85408 -0.623168 0
M  V30 11328 O 1090.65 -2.52509 -0.997574 0
M  V30 11329 C 1089.11 -3.28215 1.47658 0
M  V30 11330 C 1088.71 -3.33911 2.98676 0
M  V30 11331 C 1090.46 -4.04168 1.29803 0
M  V30 11332 C 1088.36 -4.73739 3.54013 0
M  V30 11333 H 1087.29 -0.684807 0.315523 0
M  V30 11334 H 1089.95 -1.25756 1.33633 0
M  V30 11335 H 1088.33 -3.85138 0.921116 0
M  V30 11336 H 1089.5 -2.86887 3.606 0
M  V30 11337 H 1087.82 -2.71437 3.15771 0
M  V30 11338 H 1090.41 -5.07429 1.68582 0
M  V30 11339 H 1090.76 -4.15606 0.240302 0
M  V30 11340 H 1091.29 -3.53623 1.82196 0
M  V30 11341 H 1088.03 -4.67497 4.59485 0
M  V30 11342 H 1087.55 -5.21186 2.9686 0
M  V30 11343 H 1089.23 -5.42691 3.52271 0
M  V30 11344 N 1089.36 -0.901303 -1.29284 0
M  V30 11345 C 1090.31 -0.370142 -2.29636 0
M  V30 11346 C 1091.3 0.53157 -1.60844 0
M  V30 11347 O 1092.51 0.414194 -1.7517 0
M  V30 11348 H 1088.88 -0.101072 -0.745177 0
M  V30 11349 H 1090.85 -1.22985 -2.71877 0
M  V30 11350 C 1089.6 0.385806 -3.45553 0
M  V30 11351 H 1088.93 -0.298818 -3.98682 0
M  V30 11352 H 1090.37 0.722299 -4.17802 0
M  V30 11353 C 1088.82 1.58907 -2.97069 0
M  V30 11354 O 1089.35 2.68835 -2.98481 0
M  V30 11355 N 1087.56 1.43178 -2.5288 0
M  V30 11356 H 1087.11 0.537467 -2.51931 0
M  V30 11357 H 1087.07 2.23819 -2.208 0
M  V30 11358 N 1090.84 1.42931 -0.663954 0
M  V30 11359 C 1092.09 2.00904 -0.179011 0
M  V30 11360 C 1092.4 1.53056 1.21791 0
M  V30 11361 O 1093.61 2.03374 1.79865 0
M  V30 11362 C 1092.06 3.58892 -0.269198 0
M  V30 11363 C 1091.67 4.15731 -1.66949 0
M  V30 11364 C 1093.41 4.24207 0.157589 0
M  V30 11365 C 1091.32 5.66047 -1.71303 0
M  V30 11366 H 1090.25 0.75135 -0.0631623 0
M  V30 11367 H 1092.9 1.6378 -0.827556 0
M  V30 11368 H 1091.28 3.93469 0.447048 0
M  V30 11369 H 1092.46 3.92634 -2.41195 0
M  V30 11370 H 1090.77 3.62826 -2.04318 0
M  V30 11371 H 1093.37 5.34503 0.145057 0
M  V30 11372 H 1093.71 3.98901 1.19095 0
M  V30 11373 H 1094.25 3.94552 -0.507274 0
M  V30 11374 H 1090.98 5.96136 -2.72584 0
M  V30 11375 H 1090.5 5.91167 -1.01398 0
M  V30 11376 H 1092.18 6.30275 -1.46158 0
M  V30 11377 N 1092.32 0.406567 1.52266 0
M  V30 11378 C 1093.56 -0.171391 2.00971 0
M  V30 11379 C 1093.88 -1.46443 1.29668 0
M  V30 11380 O 1095.08 -2.12348 1.69176 0
M  V30 11381 C 1093.54 -0.35599 3.58135 0
M  V30 11382 C 1093.15 0.924803 4.38351 0
M  V30 11383 C 1094.89 -0.889378 4.15079 0
M  V30 11384 C 1092.8 0.707534 5.87152 0
M  V30 11385 H 1091.73 -0.0678253 0.750943 0
M  V30 11386 H 1094.38 0.531619 1.7563 0
M  V30 11387 H 1092.76 -1.12127 3.79794 0
M  V30 11388 H 1093.94 1.69603 4.28452 0
M  V30 11389 H 1092.25 1.38442 3.92712 0
M  V30 11390 H 1094.85 -1.06792 5.23927 0
M  V30 11391 H 1095.19 -1.86334 3.7227 0
M  V30 11392 H 1095.72 -0.183224 3.97378 0
M  V30 11393 H 1092.46 1.65299 6.34316 0
M  V30 11394 H 1091.98 -0.024446 5.99795 0
M  V30 11395 H 1093.66 0.348721 6.4606 0
M  V30 11396 N 1093.79 -1.57004 0.136909 0
M  V30 11397 C 1094.73 -2.12004 -0.844362 0
M  V30 11398 C 1095.71 -1.04099 -1.24909 0
M  V30 11399 O 1096.89 -1.31866 -1.34698 0
M  V30 11400 C 1094.02 -2.63147 -2.13241 0
M  V30 11401 C 1093.06 -3.83105 -1.87438 0
M  V30 11402 S 1093.9 -5.2461 -1.07447 0
M  V30 11403 C 1095.05 -5.79134 -2.37392 0
M  V30 11404 H 1095.28 -2.94905 -0.376614 0
M  V30 11405 H 1092.82 -1.54207 -0.0771977 0
M  V30 11406 H 1094.78 -2.93264 -2.87239 0
M  V30 11407 H 1093.44 -1.80395 -2.57131 0
M  V30 11408 H 1092.63 -4.17099 -2.82922 0
M  V30 11409 H 1092.23 -3.53696 -1.21553 0
M  V30 11410 H 1094.52 -5.8995 -3.33114 0
M  V30 11411 H 1095.47 -6.76887 -2.07918 0
M  V30 11412 H 1095.87 -5.07311 -2.47579 0
M  V30 11413 N 1095.27 0.136881 -1.57004 0
M  V30 11414 C 1096.55 0.87705 -1.74835 0
M  V30 11415 C 1096.93 1.98886 -0.707639 0
M  V30 11416 O 1096.28 2.26879 0.271652 0
M  V30 11417 C 1096.49 1.41021 -3.1924 0
M  V30 11418 C 1097.84 1.86963 -3.81222 0
M  V30 11419 O 1098.86 1.5074 -3.22732 0
M  V30 11420 O 1097.72 2.53798 -4.83993 0
M  V30 11421 H 1094.81 0.415192 -0.715223 0
M  V30 11422 H 1097.36 0.122016 -1.69261 0
M  V30 11423 H 1096.13 0.611677 -3.8649 0
M  V30 11424 H 1095.75 2.22846 -3.2928 0
M  V30 11425 N 1096.75 1.52266 0.40654 0
M  V30 11426 C 1098 1.66123 1.15097 0
M  V30 11427 C 1098.32 0.394836 1.90961 0
M  V30 11428 O 1097.59 -0.590349 1.86793 0
M  V30 11429 H 1096.17 0.612317 0.427875 0
M  V30 11430 H 1098.83 1.89318 0.463106 0
M  V30 11431 H 1097.93 2.50351 1.86361 0
M  V30 11432 N 1098.23 -0.663929 1.42933 0
M  V30 11433 C 1099.64 -1.24484 1.39143 0
M  V30 11434 C 1099.99 -1.95993 0.0901142 0
M  V30 11435 O 1099.12 -2.00636 -0.810812 0
M  V30 11436 C 1099.71 -2.26402 2.52047 0
M  V30 11437 C 1098.27 -2.79995 2.51555 0
M  V30 11438 C 1097.42 -1.54475 2.30289 0
M  V30 11439 H 1100.37 -0.456619 1.51989 0
M  V30 11440 H 1100.39 -3.08361 2.22921 0
M  V30 11441 H 1099.9 -1.74328 3.46744 0
M  V30 11442 H 1098 -3.36161 1.60707 0
M  V30 11443 H 1098.11 -3.2827 3.48964 0
M  V30 11444 H 1096.48 -1.81437 1.78753 0
M  V30 11445 H 1097.26 -1.04351 3.27056 0
M  V30 11446 N 1099.71 -1.29285 -0.901281 0
M  V30 11447 C 1101.12 -1.15499 -1.46686 0
M  V30 11448 C 1101.47 0.250446 -1.94595 0
M  V30 11449 O 1100.59 1.14581 -1.83576 0
M  V30 11450 C 1101.19 -2.0906 -2.66607 0
M  V30 11451 C 1099.75 -1.99301 -3.19306 0
M  V30 11452 C 1098.89 -2.00079 -1.91999 0
M  V30 11453 H 1101.85 -1.41793 -0.712773 0
M  V30 11454 H 1101.87 -1.6619 -3.42288 0
M  V30 11455 H 1101.38 -3.11341 -2.31707 0
M  V30 11456 H 1099.48 -1.00103 -3.58901 0
M  V30 11457 H 1099.59 -2.86885 -3.8371 0
M  V30 11458 H 1097.96 -1.44655 -2.09636 0
M  V30 11459 H 1098.74 -3.04061 -1.59379 0
M  V30 11460 N 1101.18 1.11143 -1.11736 0
M  V30 11461 C 1102.15 2.15456 -0.78174 0
M  V30 11462 C 1103.15 1.59547 0.200383 0
M  V30 11463 O 1104.34 1.74183 -0.0244893 0
M  V30 11464 C 1101.47 3.40523 -0.160364 0
M  V30 11465 H 1102.66 2.46658 -1.70586 0
M  V30 11466 H 1100.22 1.26381 -0.919644 0
M  V30 11467 H 1100.95 3.14932 0.773835 0
M  V30 11468 H 1100.74 3.82386 -0.867378 0
M  V30 11469 H 1102.23 4.17559 0.0582175 0
M  V30 11470 N 1102.66 0.908147 1.28804 0
M  V30 11471 C 1103.59 0.34957 2.26519 0
M  V30 11472 C 1104.61 -0.508845 1.54643 0
M  V30 11473 O 1105.8 -0.324633 1.75523 0
M  V30 11474 C 1102.9 -0.519461 3.34895 0
M  V30 11475 C 1102.07 0.315157 4.36263 0
M  V30 11476 C 1101.13 -0.488059 5.23932 0
M  V30 11477 O 1100.15 0.0974133 5.69117 0
M  V30 11478 N 1101.36 -1.79233 5.52137 0
M  V30 11479 H 1104.12 1.18945 2.75086 0
M  V30 11480 H 1101.68 0.77351 1.42227 0
M  V30 11481 H 1103.67 -1.0634 3.90479 0
M  V30 11482 H 1102.24 -1.26004 2.8608 0
M  V30 11483 H 1101.46 1.04049 3.8022 0
M  V30 11484 H 1102.75 0.886438 5.01019 0
M  V30 11485 H 1102.15 -2.2906 5.1725 0
M  V30 11486 H 1100.71 -2.28322 6.10502 0
M  V30 11487 N 1104.14 -1.42577 0.671525 0
M  V30 11488 C 1105.37 -2.06442 0.199152 0
M  V30 11489 C 1105.79 -1.50104 -1.1336 0
M  V30 11490 O 1105.15 -0.618211 -1.70434 0
M  V30 11491 C 1105.2 -3.60323 0.141215 0
M  V30 11492 O 1104.3 -4.02655 -0.891238 0
M  V30 11493 H 1103.64 -0.655919 0.103277 0
M  V30 11494 H 1106.17 -1.82768 0.919614 0
M  V30 11495 H 1106.18 -4.07984 -0.0360209 0
M  V30 11496 H 1104.86 -4.00702 1.11403 0
M  V30 11497 H 1103.43 -3.66549 -0.685309 0
M  V30 11498 N 1105.62 -0.414636 -1.52048 0
M  V30 11499 C 1106.55 0.399119 -2.30064 0
M  V30 11500 C 1107.53 1.04126 -1.34506 0
M  V30 11501 O 1108.71 1.04923 -1.63416 0
M  V30 11502 C 1105.84 1.51305 -3.12608 0
M  V30 11503 C 1104.8 0.995621 -4.16259 0
M  V30 11504 C 1104.12 2.20357 -4.87183 0
M  V30 11505 C 1105.42 0.0458178 -5.2228 0
M  V30 11506 H 1107.12 -0.251879 -2.98339 0
M  V30 11507 H 1104.66 -0.122579 -1.43477 0
M  V30 11508 H 1106.62 2.08936 -3.65956 0
M  V30 11509 H 1105.34 2.19201 -2.42113 0
M  V30 11510 H 1104 0.441676 -3.6393 0
M  V30 11511 H 1103.65 2.8682 -4.13211 0
M  V30 11512 H 1103.35 1.86385 -5.57256 0
M  V30 11513 H 1104.87 2.78584 -5.43345 0
M  V30 11514 H 1106.29 0.531102 -5.70835 0
M  V30 11515 H 1104.68 -0.20536 -5.99749 0
M  V30 11516 H 1105.75 -0.897807 -4.76516 0
M  V30 11517 N 1107.1 1.56929 -0.145233 0
M  V30 11518 C 1108.34 1.95681 0.50532 0
M  V30 11519 C 1108.67 1.03098 1.65516 0
M  V30 11520 O 1107.94 0.0921961 1.95683 0
M  V30 11521 H 1106.52 0.72252 0.189668 0
M  V30 11522 H 1109.18 1.93651 -0.220318 0
M  V30 11523 H 1108.27 2.99359 0.882631 0
M  V30 11524 N 1108.58 -0.128553 1.57075 0
M  V30 11525 C 1109.82 -0.839252 1.8462 0
M  V30 11526 C 1110.15 -1.79974 0.729582 0
M  V30 11527 O 1109.43 -1.92681 -0.265369 0
M  V30 11528 C 1109.71 -1.59756 3.22723 0
M  V30 11529 C 1109.57 -0.657313 4.44971 0
M  V30 11530 C 1110.88 -2.55592 3.58275 0
M  V30 11531 H 1108 -0.303652 0.671539 0
M  V30 11532 H 1110.65 -0.103802 1.89716 0
M  V30 11533 H 1108.8 -2.22451 3.18509 0
M  V30 11534 H 1110.47 -0.0399471 4.61283 0
M  V30 11535 H 1108.71 0.0318416 4.33788 0
M  V30 11536 H 1109.38 -1.22433 5.38251 0
M  V30 11537 H 1111.86 -2.03007 3.63218 0
M  V30 11538 H 1110.73 -3.05687 4.55902 0
M  V30 11539 H 1110.99 -3.37813 2.85193 0
M  V30 11540 N 1110.05 -1.5248 -0.398459 0
M  V30 11541 C 1110.96 -1.79492 -1.51062 0
M  V30 11542 C 1111.98 -0.681101 -1.60116 0
M  V30 11543 O 1113.16 -0.967671 -1.7663 0
M  V30 11544 C 1110.22 -1.94958 -2.86692 0
M  V30 11545 C 1109.28 -3.1887 -2.87438 0
M  V30 11546 C 1108.51 -3.33588 -4.16599 0
M  V30 11547 O 1108.74 -2.53327 -5.11059 0
M  V30 11548 O 1107.67 -4.26795 -4.24416 0
M  V30 11549 H 1111.5 -2.73913 -1.31169 0
M  V30 11550 H 1109.08 -1.37455 -0.585372 0
M  V30 11551 H 1110.96 -2.06891 -3.67116 0
M  V30 11552 H 1109.64 -1.03726 -3.06631 0
M  V30 11553 H 1108.55 -3.12386 -2.0583 0
M  V30 11554 H 1109.88 -4.09917 -2.7245 0
M  V30 11555 N 1111.53 0.65634 -1.43283 0
M  V30 11556 C 1112.94 1.23744 -1.39801 0
M  V30 11557 C 1113.29 1.95942 -0.100507 0
M  V30 11558 O 1112.42 2.01063 0.800161 0
M  V30 11559 C 1113.01 2.25062 -2.53244 0
M  V30 11560 C 1111.57 2.78657 -2.53036 0
M  V30 11561 C 1110.72 1.53251 -2.31105 0
M  V30 11562 H 1113.67 0.448553 -1.52229 0
M  V30 11563 H 1113.69 3.07174 -2.24553 0
M  V30 11564 H 1113.2 1.72487 -3.47664 0
M  V30 11565 H 1111.3 3.35304 -1.62487 0
M  V30 11566 H 1111.42 3.26414 -3.507 0
M  V30 11567 H 1109.78 1.80487 -1.79713 0
M  V30 11568 H 1110.56 1.02615 -3.27605 0
M  V30 11569 N 1113.01 1.29761 0.894412 0
M  V30 11570 C 1114.26 1.18214 1.64782 0
M  V30 11571 C 1114.59 -0.264635 1.92388 0
M  V30 11572 O 1113.86 -1.19051 1.53809 0
M  V30 11573 C 1114.15 2.00138 2.99361 0
M  V30 11574 C 1114 3.52984 2.78787 0
M  V30 11575 C 1115.32 1.83187 4.00163 0
M  V30 11576 H 1112.44 0.430802 0.597979 0
M  V30 11577 H 1115.08 1.59292 1.03566 0
M  V30 11578 H 1113.23 1.65233 3.51611 0
M  V30 11579 H 1114.9 3.97898 2.33398 0
M  V30 11580 H 1113.14 3.77642 2.13469 0
M  V30 11581 H 1113.82 4.05585 3.7444 0
M  V30 11582 H 1116.29 2.13684 3.57041 0
M  V30 11583 H 1115.17 2.42849 4.92255 0
M  V30 11584 H 1115.43 0.788469 4.35012 0
M  V30 11585 N 1114.49 -1.10549 1.12324 0
M  V30 11586 C 1115.76 -1.78968 0.789287 0
M  V30 11587 C 1116.14 -1.984 -0.721156 0
M  V30 11588 O 1115.49 -1.5761 -1.65443 0
M  V30 11589 C 1115.7 -3.12044 1.563 0
M  V30 11590 C 1117.05 -3.86939 1.74825 0
M  V30 11591 O 1118.07 -3.21761 1.52802 0
M  V30 11592 O 1116.93 -5.0392 2.11488 0
M  V30 11593 H 1114.03 -0.775617 0.286962 0
M  V30 11594 H 1116.57 -1.17209 1.2272 0
M  V30 11595 H 1115.35 -2.93313 2.59005 0
M  V30 11596 H 1114.97 -3.81521 1.11926 0
M  V30 11597 N 1115.97 -0.914965 -1.28321 0
M  V30 11598 C 1116.91 -0.402792 -2.27258 0
M  V30 11599 C 1117.88 0.523412 -1.57638 0
M  V30 11600 O 1119.07 0.445344 -1.8553 0
M  V30 11601 C 1116.21 0.349956 -3.43321 0
M  V30 11602 C 1115.32 -0.608892 -4.27687 0
M  V30 11603 C 1114.46 0.162425 -5.30952 0
M  V30 11604 C 1113.49 -0.789959 -6.06981 0
M  V30 11605 N 1112.63 -0.0520826 -7.02081 0
M  V30 11606 H 1117.47 -1.25153 -2.70446 0
M  V30 11607 H 1115.01 -0.628444 -1.33 0
M  V30 11608 H 1116.97 0.802589 -4.09407 0
M  V30 11609 H 1115.6 1.16303 -3.01121 0
M  V30 11610 H 1114.65 -1.18005 -3.61634 0
M  V30 11611 H 1115.96 -1.33727 -4.8054 0
M  V30 11612 H 1115.11 0.675563 -6.02927 0
M  V30 11613 H 1113.85 0.923851 -4.7887 0
M  V30 11614 H 1112.86 -1.31446 -5.33856 0
M  V30 11615 H 1114.08 -1.55096 -6.61152 0
M  V30 11616 H 1112.03 0.691331 -6.52347 0
M  V30 11617 H 1111.95 -0.720267 -7.52561 0
M  V30 11618 H 1113.21 0.44082 -7.78253 0
M  V30 11619 N 1117.44 1.42219 -0.679077 0
M  V30 11620 C 1118.72 1.95155 -0.13188 0
M  V30 11621 C 1119.1 1.6193 1.35433 0
M  V30 11622 O 1118.45 0.917672 2.09263 0
M  V30 11623 C 1118.66 3.46635 -0.405578 0
M  V30 11624 C 1120.01 4.23359 -0.324394 0
M  V30 11625 O 1121.03 3.54578 -0.339564 0
M  V30 11626 O 1119.89 5.45831 -0.270268 0
M  V30 11627 H 1116.98 0.826983 -0.00535438 0
M  V30 11628 H 1119.53 1.52024 -0.754101 0
M  V30 11629 H 1118.3 3.6404 -1.43495 0
M  V30 11630 H 1117.92 3.96823 0.248439 0
M  V30 11631 N 1118.92 0.422693 1.51826 0
M  V30 11632 C 1120.17 -0.148861 2.02253 0
M  V30 11633 C 1120.5 -1.43629 1.30707 0
M  V30 11634 O 1119.78 -1.89967 0.417482 0
M  V30 11635 C 1120.06 -0.382672 3.58061 0
M  V30 11636 C 1119.91 0.922386 4.40241 0
M  V30 11637 C 1121.23 -1.1589 4.24567 0
M  V30 11638 H 1118.35 -0.0526279 0.735119 0
M  V30 11639 H 1120.99 0.558821 1.81596 0
M  V30 11640 H 1119.14 -0.985495 3.75793 0
M  V30 11641 H 1120.81 1.55806 4.34191 0
M  V30 11642 H 1119.06 1.53032 4.05911 0
M  V30 11643 H 1119.73 0.713012 5.47376 0
M  V30 11644 H 1122.2 -0.648415 4.11017 0
M  V30 11645 H 1121.08 -1.29125 5.33496 0
M  V30 11646 H 1121.34 -2.18315 3.84436 0
M  V30 11647 N 1120.4 -1.5685 0.153553 0
M  V30 11648 C 1121.65 -1.95509 -0.495911 0
M  V30 11649 C 1121.96 -1.04129 -1.65579 0
M  V30 11650 O 1123.17 -1.32394 -2.37032 0
M  V30 11651 C 1121.62 -3.47579 -0.933622 0
M  V30 11652 C 1121.23 -4.47555 0.199684 0
M  V30 11653 C 1122.98 -3.95092 -1.55251 0
M  V30 11654 C 1120.88 -5.90843 -0.256663 0
M  V30 11655 H 1119.81 -0.729919 -0.189035 0
M  V30 11656 H 1122.46 -1.81938 0.238947 0
M  V30 11657 H 1120.85 -3.56506 -1.72394 0
M  V30 11658 H 1122.02 -4.50329 0.976744 0
M  V30 11659 H 1120.33 -4.09997 0.727394 0
M  V30 11660 H 1122.93 -4.99588 -1.90567 0
M  V30 11661 H 1123.27 -3.37015 -2.4439 0
M  V30 11662 H 1123.81 -3.89109 -0.826969 0
M  V30 11663 H 1120.55 -6.52753 0.599515 0
M  V30 11664 H 1120.07 -5.91414 -0.999458 0
M  V30 11665 H 1121.75 -6.43131 -0.70649 0
M  V30 11666 N 1121.88 0.120221 -1.57141 0
M  V30 11667 C 1123.29 0.473718 -1.52408 0
M  V30 11668 C 1123.49 1.81925 -0.866354 0
M  V30 11669 O 1122.55 2.48491 -0.448173 0
M  V30 11670 C 1123.86 0.459338 -2.97171 0
M  V30 11671 C 1125.41 0.542975 -3.08254 0
M  V30 11672 C 1125.89 0.558996 -4.54576 0
M  V30 11673 N 1127.38 0.620469 -4.59026 0
M  V30 11674 C 1128.11 0.654292 -5.69655 0
M  V30 11675 N 1127.61 0.645835 -6.89783 0
M  V30 11676 N 1129.4 0.697208 -5.57759 0
M  V30 11677 H 1121.55 -0.76142 -1.98283 0
M  V30 11678 H 1123.81 -0.280736 -0.905479 0
M  V30 11679 H 1123.52 -0.461654 -3.48657 0
M  V30 11680 H 1123.39 1.28759 -3.54543 0
M  V30 11681 H 1125.78 1.45439 -2.56772 0
M  V30 11682 H 1125.86 -0.312936 -2.53879 0
M  V30 11683 H 1125.51 -0.348367 -5.06704 0
M  V30 11684 H 1125.44 1.43177 -5.06762 0
M  V30 11685 H 1127.93 0.633218 -3.72557 0
M  V30 11686 H 1128.24 0.674233 -7.69853 0
M  V30 11687 H 1126.59 0.613279 -6.92289 0
M  V30 11688 H 1129.78 0.70117 -4.62819 0
M  V30 11689 H 1129.95 0.7201 -6.43986 0
M  V30 11690 N 1123.36 1.52689 0.390367 0
M  V30 11691 C 1124.3 1.7737 1.47677 0
M  V30 11692 C 1125.27 0.616864 1.54221 0
M  V30 11693 O 1126.46 0.856437 1.70499 0
M  V30 11694 C 1123.6 1.94715 2.84921 0
M  V30 11695 C 1122.71 3.22405 2.8754 0
M  V30 11696 C 1121.85 3.30074 4.16202 0
M  V30 11697 C 1120.89 4.51893 4.12867 0
M  V30 11698 N 1120.02 4.56851 5.33134 0
M  V30 11699 H 1124.86 2.70084 1.25932 0
M  V30 11700 H 1122.4 1.33813 0.610943 0
M  V30 11701 H 1124.36 2.02755 3.64618 0
M  V30 11702 H 1122.99 1.05363 3.0512 0
M  V30 11703 H 1122.04 3.23442 2.00223 0
M  V30 11704 H 1123.35 4.12156 2.80943 0
M  V30 11705 H 1122.51 3.3729 5.04302 0
M  V30 11706 H 1121.24 2.38295 4.25519 0
M  V30 11707 H 1120.25 4.44803 3.23156 0
M  V30 11708 H 1121.47 5.44987 4.05174 0
M  V30 11709 H 1119.42 3.67963 5.43083 0
M  V30 11710 H 1119.34 5.40472 5.28607 0
M  V30 11711 H 1120.61 4.6832 6.23134 0
M  V30 11712 N 1124.83 -0.648732 1.43629 0
M  V30 11713 C 1126.25 -1.23001 1.40455 0
M  V30 11714 C 1126.6 -1.95886 0.110897 0
M  V30 11715 O 1125.72 -2.01485 -0.789487 0
M  V30 11716 C 1126.32 -2.23716 2.54434 0
M  V30 11717 C 1124.88 -2.77311 2.54511 0
M  V30 11718 C 1124.02 -1.52024 2.31914 0
M  V30 11719 H 1126.97 -0.440473 1.52465 0
M  V30 11720 H 1126.99 -3.05979 2.26179 0
M  V30 11721 H 1126.51 -1.7064 3.48574 0
M  V30 11722 H 1124.61 -3.34437 1.64263 0
M  V30 11723 H 1124.72 -3.2455 3.52426 0
M  V30 11724 H 1123.08 -1.79531 1.80667 0
M  V30 11725 H 1123.87 -1.00876 3.28145 0
M  V30 11726 N 1126.31 -1.30234 -0.887518 0
M  V30 11727 C 1127.72 -1.17048 -1.45453 0
M  V30 11728 C 1128.07 0.229793 -1.9485 0
M  V30 11729 O 1127.2 1.12628 -1.84781 0
M  V30 11730 C 1127.79 -2.11876 -2.64375 0
M  V30 11731 C 1126.35 -2.02676 -3.17174 0
M  V30 11732 C 1125.5 -2.02104 -1.89866 0
M  V30 11733 H 1128.45 -1.42541 -0.697694 0
M  V30 11734 H 1128.47 -1.69811 -3.40506 0
M  V30 11735 H 1127.98 -3.13781 -2.28392 0
M  V30 11736 H 1126.09 -1.03904 -3.57819 0
M  V30 11737 H 1126.2 -2.90939 -3.80646 0
M  V30 11738 H 1124.56 -1.4687 -2.0809 0
M  V30 11739 H 1125.35 -3.05735 -1.56145 0
M  V30 11740 N 1127.79 1.09952 -1.12909 0
M  V30 11741 C 1129.21 1.34051 -0.866172 0
M  V30 11742 C 1129.41 1.95169 0.501125 0
M  V30 11743 O 1128.46 2.19458 1.24878 0
M  V30 11744 C 1129.78 2.25738 -1.98653 0
M  V30 11745 C 1131.32 2.39261 -2.01799 0
M  V30 11746 C 1131.8 3.3428 -3.13083 0
M  V30 11747 N 1133.29 3.41851 -3.12558 0
M  V30 11748 C 1134.02 4.15358 -3.95304 0
M  V30 11749 N 1133.52 4.91709 -4.88051 0
M  V30 11750 N 1135.31 4.11027 -3.83423 0
M  V30 11751 H 1127.46 0.686521 -2.00999 0
M  V30 11752 H 1129.73 0.364913 -0.874953 0
M  V30 11753 H 1129.43 1.88048 -2.97205 0
M  V30 11754 H 1129.31 3.26085 -1.89601 0
M  V30 11755 H 1131.69 2.76218 -1.03864 0
M  V30 11756 H 1131.78 1.38712 -2.14925 0
M  V30 11757 H 1131.42 2.98048 -4.11254 0
M  V30 11758 H 1131.35 4.34721 -2.97195 0
M  V30 11759 H 1133.84 2.87405 -2.45371 0
M  V30 11760 H 1134.15 5.45212 -5.47689 0
M  V30 11761 H 1132.5 4.90816 -4.92061 0
M  V30 11762 H 1135.69 3.50477 -3.10296 0
M  V30 11763 H 1135.86 4.68054 -4.4814 0
M  V30 11764 N 1129.27 0.921757 1.27833 0
M  V30 11765 C 1130.22 0.406628 2.29018 0
M  V30 11766 C 1131.21 -0.505914 1.61669 0
M  V30 11767 O 1132.42 -0.386273 1.75807 0
M  V30 11768 H 1128.79 0.112914 0.743475 0
M  V30 11769 H 1130.76 1.27295 2.69886 0
M  V30 11770 C 1129.51 -0.330783 3.46123 0
M  V30 11771 H 1128.83 0.362207 3.98156 0
M  V30 11772 H 1130.27 -0.655738 4.18899 0
M  V30 11773 C 1128.73 -1.54161 2.9956 0
M  V30 11774 O 1129.26 -2.64052 3.0272 0
M  V30 11775 N 1127.47 -1.39137 2.55126 0
M  V30 11776 H 1127.02 -0.497319 2.52754 0
M  V30 11777 H 1126.97 -2.20278 2.24333 0
M  V30 11778 N 1130.75 -1.41857 0.686609 0
M  V30 11779 C 1131.99 -2.02176 0.22284 0
M  V30 11780 C 1132.35 -1.53373 -1.16165 0
M  V30 11781 O 1131.64 -0.73123 -1.77098 0
M  V30 11782 C 1131.83 -3.56783 0.209951 0
M  V30 11783 C 1131.66 -4.20591 1.59166 0
M  V30 11784 C 1130.43 -4.55264 2.19232 0
M  V30 11785 C 1132.63 -4.47394 2.53659 0
M  V30 11786 N 1130.61 -5.04313 3.5006 0
M  V30 11787 C 1131.98 -4.98121 3.69155 0
M  V30 11788 C 1134.04 -4.29396 2.52039 0
M  V30 11789 C 1132.74 -5.32741 4.83301 0
M  V30 11790 C 1134.77 -4.65099 3.65291 0
M  V30 11791 C 1134.13 -5.15988 4.79516 0
M  V30 11792 H 1130.23 -0.771663 0.126731 0
M  V30 11793 H 1132.81 -1.72538 0.902153 0
M  V30 11794 H 1130.98 -3.85913 -0.438816 0
M  V30 11795 H 1132.72 -4.03813 -0.267806 0
M  V30 11796 H 1129.47 -4.41417 1.71604 0
M  V30 11797 H 1129.9 -5.33253 4.17098 0
M  V30 11798 H 1134.54 -3.89296 1.64949 0
M  V30 11799 H 1132.26 -5.71767 5.71058 0
M  V30 11800 H 1135.84 -4.52839 3.65279 0
M  V30 11801 H 1134.72 -5.43098 5.65698 0
M  V30 11802 N 1132.22 -0.430739 -1.51599 0
M  V30 11803 C 1133.17 0.384024 -2.27583 0
M  V30 11804 C 1134.14 1.02254 -1.30895 0
M  V30 11805 O 1135.33 1.0427 -1.59789 0
M  V30 11806 C 1132.47 1.48291 -3.11615 0
M  V30 11807 C 1131.58 0.863187 -4.23288 0
M  V30 11808 C 1130.71 1.93657 -4.94642 0
M  V30 11809 C 1129.75 1.29493 -5.98246 0
M  V30 11810 N 1128.89 2.30939 -6.63032 0
M  V30 11811 H 1133.73 -0.270314 -2.96771 0
M  V30 11812 H 1131.27 -0.145148 -1.46382 0
M  V30 11813 H 1133.23 2.13124 -3.58656 0
M  V30 11814 H 1131.86 2.10697 -2.44554 0
M  V30 11815 H 1130.91 0.103326 -3.8026 0
M  V30 11816 H 1132.22 0.354676 -4.97537 0
M  V30 11817 H 1131.37 2.66167 -5.45197 0
M  V30 11818 H 1130.11 2.4788 -4.20008 0
M  V30 11819 H 1129.12 0.555262 -5.46989 0
M  V30 11820 H 1130.34 0.760122 -6.74833 0
M  V30 11821 H 1128.29 2.84254 -5.91216 0
M  V30 11822 H 1128.21 1.84961 -7.33025 0
M  V30 11823 H 1129.47 3.02953 -7.1822 0
M  V30 11824 N 1133.7 1.56767 -0.161869 0
M  V30 11825 C 1134.98 1.88245 0.531352 0
M  V30 11826 C 1135.36 1.07025 1.81958 0
M  V30 11827 O 1134.71 0.161385 2.27929 0
M  V30 11828 C 1134.92 3.40117 0.782416 0
M  V30 11829 C 1136.27 4.09655 1.11661 0
M  V30 11830 O 1137.29 3.4538 0.871274 0
M  V30 11831 O 1136.15 5.23192 1.57901 0
M  V30 11832 H 1133.24 0.780725 0.272759 0
M  V30 11833 H 1135.79 1.68522 -0.199597 0
M  V30 11834 H 1134.56 3.91088 -0.128677 0
M  V30 11835 H 1134.18 3.65418 1.56702 0
M  V30 11836 N 1135.18 -0.111886 1.57202 0
M  V30 11837 C 1136.41 -0.836317 1.89791 0
M  V30 11838 C 1136.83 -1.72304 0.754513 0
M  V30 11839 O 1136.19 -1.78889 -0.294672 0
M  V30 11840 C 1136.24 -1.63971 3.21164 0
M  V30 11841 O 1135.34 -2.74726 3.0757 0
M  V30 11842 H 1134.68 -0.230833 0.622585 0
M  V30 11843 H 1137.21 -0.0921478 2.04392 0
M  V30 11844 H 1137.22 -2.02746 3.54059 0
M  V30 11845 H 1135.9 -0.98882 4.03974 0
M  V30 11846 H 1134.47 -2.39101 2.86156 0
M  V30 11847 N 1136.66 -1.52894 -0.382264 0
M  V30 11848 C 1137.91 -1.67489 -1.12385 0
M  V30 11849 C 1138.22 -0.424565 -1.90937 0
M  V30 11850 O 1139.43 -0.450763 -2.67732 0
M  V30 11851 C 1137.88 -2.96019 -2.04697 0
M  V30 11852 C 1137.49 -4.28255 -1.31535 0
M  V30 11853 C 1139.23 -3.19981 -2.78949 0
M  V30 11854 C 1137.14 -5.47887 -2.22652 0
M  V30 11855 H 1136.07 -0.624002 -0.423246 0
M  V30 11856 H 1138.72 -1.79392 -0.386107 0
M  V30 11857 H 1137.1 -2.77878 -2.82134 0
M  V30 11858 H 1138.28 -4.56971 -0.592771 0
M  V30 11859 H 1136.59 -4.10607 -0.692148 0
M  V30 11860 H 1139.19 -4.06541 -3.47316 0
M  V30 11861 H 1139.53 -2.35335 -3.43399 0
M  V30 11862 H 1140.07 -3.38718 -2.08602 0
M  V30 11863 H 1136.81 -6.3496 -1.62806 0
M  V30 11864 H 1136.33 -5.23473 -2.92807 0
M  V30 11865 H 1138 -5.82026 -2.82586 0
M  V30 11866 N 1138.14 0.641106 -1.43971 0
M  V30 11867 C 1139.07 1.76489 -1.52885 0
M  V30 11868 C 1140.05 1.65742 -0.38258 0
M  V30 11869 O 1141.23 1.84653 -0.601397 0
M  V30 11870 C 1138.36 3.14977 -1.4631 0
M  V30 11871 C 1137.32 3.40502 -2.59311 0
M  V30 11872 C 1136.64 4.78916 -2.37789 0
M  V30 11873 C 1137.94 3.34048 -4.01509 0
M  V30 11874 H 1139.64 1.69286 -2.46946 0
M  V30 11875 H 1137.18 0.813015 -1.18853 0
M  V30 11876 H 1139.14 3.9336 -1.51149 0
M  V30 11877 H 1137.86 3.2294 -0.487599 0
M  V30 11878 H 1136.52 2.64495 -2.53846 0
M  V30 11879 H 1136.17 4.8357 -1.38454 0
M  V30 11880 H 1135.87 4.96954 -3.13545 0
M  V30 11881 H 1137.39 5.59541 -2.4443 0
M  V30 11882 H 1138.81 4.0235 -4.08396 0
M  V30 11883 H 1137.2 3.63622 -4.77388 0
M  V30 11884 H 1138.27 2.32022 -4.25786 0
M  V30 11885 N 1139.62 1.30703 0.880598 0
M  V30 11886 C 1140.84 1.22714 1.6658 0
M  V30 11887 C 1141.26 -0.209303 1.87636 0
M  V30 11888 O 1140.62 -1.13771 1.42697 0
M  V30 11889 C 1140.67 1.95659 3.03974 0
M  V30 11890 O 1140.39 3.33695 2.83865 0
M  V30 11891 C 1141.89 1.9438 3.98411 0
M  V30 11892 H 1139.11 0.424478 0.519673 0
M  V30 11893 H 1141.65 1.72402 1.0999 0
M  V30 11894 H 1139.81 1.49758 3.57283 0
M  V30 11895 H 1140.22 3.70697 3.71058 0
M  V30 11896 H 1141.7 2.4995 4.92168 0
M  V30 11897 H 1142.17 0.923767 4.29375 0
M  V30 11898 H 1142.78 2.40112 3.51036 0
M  V30 11899 N 1141.09 -1.09351 1.1349 0
M  V30 11900 C 1142.04 -2.16008 0.812981 0
M  V30 11901 C 1143.01 -1.64566 -0.225252 0
M  V30 11902 O 1144.2 -1.90552 -0.0973261 0
M  V30 11903 C 1141.34 -3.43913 0.285996 0
M  V30 11904 C 1140.45 -4.09251 1.38338 0
M  V30 11905 C 1139.58 -5.24916 0.814652 0
M  V30 11906 C 1138.62 -5.82178 1.89038 0
M  V30 11907 N 1137.76 -6.89203 1.33955 0
M  V30 11908 H 1142.6 -2.42887 1.72655 0
M  V30 11909 H 1140.14 -1.19209 0.861833 0
M  V30 11910 H 1142.09 -4.17183 -0.0376794 0
M  V30 11911 H 1140.72 -3.17349 -0.590707 0
M  V30 11912 H 1139.78 -3.33838 1.82363 0
M  V30 11913 H 1141.09 -4.4784 2.19638 0
M  V30 11914 H 1140.24 -6.05086 0.442306 0
M  V30 11915 H 1138.98 -4.87691 -0.029416 0
M  V30 11916 H 1137.99 -5.00669 2.27179 0
M  V30 11917 H 1139.21 -6.21464 2.73787 0
M  V30 11918 H 1137.16 -6.53956 0.517494 0
M  V30 11919 H 1137.07 -7.26565 2.08902 0
M  V30 11920 H 1138.34 -7.73126 0.994793 0
M  V30 11921 N 1142.57 -0.928524 -1.27343 0
M  V30 11922 C 1143.52 -0.418768 -2.28799 0
M  V30 11923 C 1144.51 0.497334 -1.61935 0
M  V30 11924 O 1145.72 0.376945 -1.76009 0
M  V30 11925 H 1142.09 -0.116855 -0.742865 0
M  V30 11926 H 1144.07 -1.28725 -2.69207 0
M  V30 11927 C 1142.81 0.312422 -3.46294 0
M  V30 11928 H 1142.14 -0.383317 -3.97958 0
M  V30 11929 H 1143.58 0.633514 -4.19241 0
M  V30 11930 C 1142.04 1.5257 -3.00373 0
M  V30 11931 O 1142.57 2.62443 -3.04116 0
M  V30 11932 N 1140.77 1.37782 -2.5586 0
M  V30 11933 H 1140.32 0.483908 -2.53014 0
M  V30 11934 H 1140.28 2.19085 -2.25498 0
M  V30 11935 N 1144.05 1.41491 -0.694123 0
M  V30 11936 C 1144.98 2.33462 -0.0422169 0
M  V30 11937 C 1145.96 1.51739 0.76872 0
M  V30 11938 O 1147.15 1.8028 0.721985 0
M  V30 11939 C 1144.28 3.35545 0.895925 0
M  V30 11940 C 1143.23 4.27568 0.192188 0
M  V30 11941 C 1142.56 5.20014 1.24459 0
M  V30 11942 C 1143.86 5.1376 -0.940626 0
M  V30 11943 H 1145.55 2.88225 -0.810363 0
M  V30 11944 H 1143.1 1.38586 -0.39114 0
M  V30 11945 H 1145.05 3.9881 1.36121 0
M  V30 11946 H 1143.77 2.79129 1.69572 0
M  V30 11947 H 1142.43 3.65726 -0.25305 0
M  V30 11948 H 1142.08 4.59913 2.03687 0
M  V30 11949 H 1141.78 5.82417 0.778734 0
M  V30 11950 H 1143.3 5.86155 1.71041 0
M  V30 11951 H 1144.72 5.70601 -0.555692 0
M  V30 11952 H 1143.11 5.85097 -1.33349 0
M  V30 11953 H 1144.18 4.51011 -1.78093 0
M  V30 11954 N 1145.53 0.438773 1.51369 0
M  V30 11955 C 1146.78 -0.128723 2.01289 0
M  V30 11956 C 1147.09 -1.43659 1.32745 0
M  V30 11957 O 1148.3 -2.08712 1.73642 0
M  V30 11958 C 1146.75 -0.279945 3.5881 0
M  V30 11959 C 1146.36 1.01758 4.3629 0
M  V30 11960 C 1148.1 -0.801133 4.16872 0
M  V30 11961 C 1146.01 0.831918 5.85519 0
M  V30 11962 H 1144.94 -0.0518814 0.752213 0
M  V30 11963 H 1147.59 0.568753 1.74463 0
M  V30 11964 H 1145.97 -1.04046 3.82087 0
M  V30 11965 H 1147.15 1.78653 4.24758 0
M  V30 11966 H 1145.46 1.46741 3.89687 0
M  V30 11967 H 1148.06 -0.956548 5.26074 0
M  V30 11968 H 1148.4 -1.78396 3.76139 0
M  V30 11969 H 1148.94 -0.0988934 3.97677 0
M  V30 11970 H 1145.67 1.78716 6.30667 0
M  V30 11971 H 1145.19 0.102785 5.99712 0
M  V30 11972 H 1146.87 0.485681 6.45174 0
M  V30 11973 N 1147.01 -1.56678 0.170181 0
M  V30 11974 C 1147.94 -2.20916 -0.756213 0
M  V30 11975 C 1148.92 -1.16442 -1.23997 0
M  V30 11976 O 1150.1 -1.44867 -1.29333 0
M  V30 11977 C 1147.23 -2.84901 -1.98617 0
M  V30 11978 C 1146.19 -3.95403 -1.63831 0
M  V30 11979 C 1145.51 -4.46432 -2.94282 0
M  V30 11980 C 1146.81 -5.15051 -0.867195 0
M  V30 11981 H 1148.51 -2.98585 -0.220776 0
M  V30 11982 H 1146.05 -1.43619 -0.104748 0
M  V30 11983 H 1148 -3.28514 -2.63926 0
M  V30 11984 H 1146.73 -2.04598 -2.54572 0
M  V30 11985 H 1145.39 -3.52444 -1.00891 0
M  V30 11986 H 1145.04 -3.62923 -3.48276 0
M  V30 11987 H 1144.74 -5.20979 -2.71762 0
M  V30 11988 H 1146.26 -4.92731 -3.60622 0
M  V30 11989 H 1147.67 -5.55363 -1.42285 0
M  V30 11990 H 1146.07 -5.95507 -0.741065 0
M  V30 11991 H 1147.14 -4.84707 0.136693 0
M  V30 11992 N 1148.48 0.103547 -1.57259 0
M  V30 11993 C 1149.43 1.12621 -2.01458 0
M  V30 11994 C 1150.4 1.40282 -0.889391 0
M  V30 11995 O 1151.59 1.51887 -1.15477 0
M  V30 11996 C 1148.73 2.44352 -2.43692 0
M  V30 11997 C 1147.84 2.23495 -3.69695 0
M  V30 11998 C 1146.97 3.48565 -4.00844 0
M  V30 11999 C 1146.01 3.22932 -5.19982 0
M  V30 12000 N 1145.15 4.40246 -5.46926 0
M  V30 12001 H 1149.99 0.742315 -2.88606 0
M  V30 12002 H 1147.53 0.355016 -1.42752 0
M  V30 12003 H 1149.48 3.2122 -2.66221 0
M  V30 12004 H 1148.11 2.80605 -1.59565 0
M  V30 12005 H 1147.17 1.3747 -3.54692 0
M  V30 12006 H 1148.48 2.0054 -4.56711 0
M  V30 12007 H 1147.63 4.33844 -4.24104 0
M  V30 12008 H 1146.37 3.74565 -3.12333 0
M  V30 12009 H 1145.38 2.36045 -4.96551 0
M  V30 12010 H 1146.6 2.98286 -6.10084 0
M  V30 12011 H 1144.55 4.66338 -4.61373 0
M  V30 12012 H 1144.46 4.20452 -6.28296 0
M  V30 12013 H 1145.73 5.26614 -5.74716 0
M  V30 12014 N 1149.96 1.53094 0.37415 0
M  V30 12015 C 1151.21 1.68082 1.11495 0
M  V30 12016 C 1151.52 0.434685 1.90709 0
M  V30 12017 O 1152.73 0.464956 2.67489 0
M  V30 12018 C 1151.19 2.97101 2.03124 0
M  V30 12019 C 1150.79 4.28947 1.29262 0
M  V30 12020 C 1152.54 3.21456 2.77248 0
M  V30 12021 C 1150.44 5.4906 2.19743 0
M  V30 12022 H 1149.37 0.626238 0.419931 0
M  V30 12023 H 1152.03 1.79594 0.376588 0
M  V30 12024 H 1150.41 2.79371 2.80656 0
M  V30 12025 H 1151.58 4.57279 0.568528 0
M  V30 12026 H 1149.9 4.10968 0.670362 0
M  V30 12027 H 1152.49 4.08377 3.45155 0
M  V30 12028 H 1152.84 2.37153 3.42146 0
M  V30 12029 H 1153.37 3.3982 2.06803 0
M  V30 12030 H 1150.11 6.35815 1.59437 0
M  V30 12031 H 1149.63 5.25019 2.90027 0
M  V30 12032 H 1151.31 5.83517 2.79495 0
M  V30 12033 N 1151.44 -0.633461 1.44309 0
M  V30 12034 C 1152.37 -1.75676 1.53819 0
M  V30 12035 C 1153.35 -1.65537 0.391365 0
M  V30 12036 O 1154.54 -1.84332 0.611181 0
M  V30 12037 C 1151.67 -3.14197 1.47979 0
M  V30 12038 C 1150.62 -3.39122 2.61113 0
M  V30 12039 C 1149.95 -4.77648 2.40325 0
M  V30 12040 C 1151.25 -3.31914 4.03274 0
M  V30 12041 H 1152.94 -1.67974 2.47841 0
M  V30 12042 H 1150.49 -0.8067 1.19283 0
M  V30 12043 H 1152.44 -3.92553 1.53233 0
M  V30 12044 H 1151.16 -3.22677 0.504718 0
M  V30 12045 H 1149.82 -2.63145 2.55245 0
M  V30 12046 H 1149.47 -4.82829 1.41016 0
M  V30 12047 H 1149.17 -4.95284 3.16177 0
M  V30 12048 H 1150.69 -5.58237 2.47394 0
M  V30 12049 H 1152.11 -4.00178 4.10524 0
M  V30 12050 H 1150.5 -3.61085 4.7931 0
M  V30 12051 H 1151.57 -2.29761 4.2701 0
M  V30 12052 N 1152.92 -1.31168 -0.873655 0
M  V30 12053 C 1154.16 -1.20821 -1.62881 0
M  V30 12054 C 1154.5 0.233994 -1.92785 0
M  V30 12055 O 1153.77 1.16588 -1.55684 0
M  V30 12056 C 1154.06 -2.04875 -2.96139 0
M  V30 12057 C 1153.91 -3.57375 -2.73136 0
M  V30 12058 C 1155.23 -1.8953 -3.97198 0
M  V30 12059 H 1152.35 -0.44026 -0.59105 0
M  V30 12060 H 1154.99 -1.6092 -1.01019 0
M  V30 12061 H 1153.14 -1.70806 -3.48938 0
M  V30 12062 H 1154.81 -4.01561 -2.27038 0
M  V30 12063 H 1153.05 -3.8099 -2.07434 0
M  V30 12064 H 1153.72 -4.1149 -3.6794 0
M  V30 12065 H 1156.2 -2.19337 -3.53596 0
M  V30 12066 H 1155.08 -2.5065 -4.8833 0
M  V30 12067 H 1155.34 -0.857576 -4.33703 0
M  V30 12068 N 1154.4 1.08748 -1.14068 0
M  V30 12069 C 1155.62 1.85353 -0.930532 0
M  V30 12070 C 1156.05 1.80892 0.515717 0
M  V30 12071 O 1155.4 1.19146 1.36652 0
M  V30 12072 C 1155.45 3.30962 -1.43167 0
M  V30 12073 O 1154.56 4.0769 -0.621468 0
M  V30 12074 H 1153.9 0.574485 -0.332962 0
M  V30 12075 H 1156.43 1.37282 -1.51707 0
M  V30 12076 H 1156.44 3.81807 -1.43832 0
M  V30 12077 H 1155.11 3.33524 -2.48464 0
M  V30 12078 H 1153.69 3.66587 -0.683267 0
M  V30 12079 N 1155.87 0.935264 1.26849 0
M  V30 12080 C 1157.1 0.595704 1.98661 0
M  V30 12081 C 1157.52 -0.821001 1.69237 0
M  V30 12082 O 1156.88 -1.55211 0.936982 0
M  V30 12083 C 1156.93 0.837275 3.50745 0
M  V30 12084 O 1156.03 -0.0934914 4.12294 0
M  V30 12085 H 1155.38 0.228512 0.623441 0
M  V30 12086 H 1157.91 1.25658 1.61466 0
M  V30 12087 H 1157.92 0.755827 4.00938 0
M  V30 12088 H 1156.59 1.86993 3.71492 0
M  V30 12089 H 1155.17 0.0385124 3.7288 0
M  V30 12090 N 1157.35 -1.41121 0.701616 0
M  V30 12091 C 1158.6 -2.00359 0.232214 0
M  V30 12092 C 1158.91 -1.56231 -1.17691 0
M  V30 12093 O 1160.12 -2.08071 -1.74409 0
M  V30 12094 C 1158.58 -3.58052 0.364257 0
M  V30 12095 C 1158.18 -4.11158 1.77913 0
M  V30 12096 C 1159.93 -4.24476 -0.0450628 0
M  V30 12097 C 1157.84 -5.61306 1.8625 0
M  V30 12098 H 1156.77 -0.749411 0.0830609 0
M  V30 12099 H 1159.42 -1.61528 0.870689 0
M  V30 12100 H 1157.8 -3.94515 -0.342569 0
M  V30 12101 H 1158.97 -3.86101 2.5152 0
M  V30 12102 H 1157.29 -3.57282 2.13866 0
M  V30 12103 H 1159.88 -5.347 -0.00329209 0
M  V30 12104 H 1160.23 -4.01919 -1.08477 0
M  V30 12105 H 1160.76 -3.93069 0.611704 0
M  V30 12106 H 1157.5 -5.88699 2.88294 0
M  V30 12107 H 1157.02 -5.88271 1.17036 0
M  V30 12108 H 1158.7 -6.26179 1.62817 0
M  V30 12109 N 1158.83 -0.446794 -1.51134 0
M  V30 12110 C 1160.08 0.118047 -2.01354 0
M  V30 12111 C 1160.39 1.42953 -1.33505 0
M  V30 12112 O 1161.6 2.07788 -1.74747 0
M  V30 12113 C 1160.05 0.260912 -3.58953 0
M  V30 12114 C 1159.66 -1.0407 -4.35745 0
M  V30 12115 C 1161.41 0.779014 -4.17291 0
M  V30 12116 C 1159.31 -0.862958 -5.8507 0
M  V30 12117 H 1158.24 0.0478915 -0.752478 0
M  V30 12118 H 1160.89 -0.577997 -1.74159 0
M  V30 12119 H 1159.28 1.02018 -3.82633 0
M  V30 12120 H 1160.45 -1.80903 -4.23805 0
M  V30 12121 H 1158.77 -1.48805 -3.88904 0
M  V30 12122 H 1161.36 0.928636 -5.26574 0
M  V30 12123 H 1161.71 1.76399 -3.7708 0
M  V30 12124 H 1162.24 0.0778022 -3.97724 0
M  V30 12125 H 1158.98 -1.82059 -6.2971 0
M  V30 12126 H 1158.5 -0.134588 -5.99649 0
M  V30 12127 H 1160.18 -0.51989 -6.44908 0
M  V30 12128 N 1160.31 1.56586 -0.178487 0
M  V30 12129 C 1161.56 1.96273 0.464745 0
M  V30 12130 C 1161.87 1.0675 1.63902 0
M  V30 12131 O 1163.08 1.36148 2.34896 0
M  V30 12132 C 1161.53 3.49021 0.878207 0
M  V30 12133 C 1161.14 4.4718 -0.270861 0
M  V30 12134 C 1162.88 3.97512 1.48946 0
M  V30 12135 C 1160.79 5.91176 0.162632 0
M  V30 12136 H 1159.72 0.732834 0.177398 0
M  V30 12137 H 1162.37 1.81534 -0.267861 0
M  V30 12138 H 1160.75 3.59203 1.667 0
M  V30 12139 H 1161.93 4.48718 -1.04826 0
M  V30 12140 H 1160.24 4.08788 -0.792529 0
M  V30 12141 H 1162.84 5.02556 1.82595 0
M  V30 12142 H 1163.18 3.40861 2.38997 0
M  V30 12143 H 1163.72 3.90376 0.76496 0
M  V30 12144 H 1160.46 6.51716 -0.703286 0
M  V30 12145 H 1159.98 5.9293 0.905243 0
M  V30 12146 H 1161.65 6.44174 0.604084 0
M  V30 12147 N 1161.79 -0.095206 1.57312 0
M  V30 12148 C 1163.03 -0.799903 1.86358 0
M  V30 12149 C 1163.37 -1.78386 0.767593 0
M  V30 12150 O 1162.64 -1.93201 -0.224439 0
M  V30 12151 C 1162.92 -1.52875 3.26039 0
M  V30 12152 C 1162.78 -0.562781 4.46265 0
M  V30 12153 C 1164.1 -2.47935 3.63616 0
M  V30 12154 H 1161.21 -0.289339 0.677829 0
M  V30 12155 H 1163.86 -0.0635369 1.89894 0
M  V30 12156 H 1162.01 -2.15645 3.23156 0
M  V30 12157 H 1163.68 0.0579068 4.61264 0
M  V30 12158 H 1161.92 0.123847 4.33623 0
M  V30 12159 H 1162.59 -1.10989 5.40727 0
M  V30 12160 H 1165.07 -1.95257 3.67442 0
M  V30 12161 H 1163.94 -2.95948 4.62283 0
M  V30 12162 H 1164.21 -3.31687 2.92294 0
M  V30 12163 N 1163.26 -1.53291 -0.366026 0
M  V30 12164 C 1164.5 -1.71153 -1.11741 0
M  V30 12165 C 1164.87 -0.453416 -1.86569 0
M  V30 12166 O 1166.07 -0.508724 -2.63942 0
M  V30 12167 C 1164.34 -2.92657 -2.0515 0
M  V30 12168 S 1165.9 -3.31223 -2.87814 0
M  V30 12169 H 1162.72 -0.602251 -0.377909 0
M  V30 12170 H 1165.32 -1.91391 -0.398721 0
M  V30 12171 H 1164.02 -3.8242 -1.48939 0
M  V30 12172 H 1163.55 -2.7482 -2.81492 0
M  V30 12173 H 1165.57 -2.83201 -4.07445 0
M  V30 12174 N 1164.74 0.6258 -1.44643 0
M  V30 12175 C 1165.99 1.38251 -1.47414 0
M  V30 12176 C 1166.31 1.94689 -0.110043 0
M  V30 12177 O 1165.58 1.76095 0.858333 0
M  V30 12178 H 1164.16 0.513179 -0.542823 0
M  V30 12179 H 1166.82 0.736179 -1.80462 0
M  V30 12180 H 1165.92 2.21115 -2.2026 0
M  V30 12181 N 1166.22 1.31629 0.866686 0
M  V30 12182 C 1167.45 1.24474 1.65269 0
M  V30 12183 C 1167.86 -0.18939 1.87848 0
M  V30 12184 O 1167.22 -1.12251 1.43895 0
M  V30 12185 C 1167.27 1.98872 3.01881 0
M  V30 12186 O 1166.99 3.36687 2.8031 0
M  V30 12187 C 1168.49 1.98595 3.96327 0
M  V30 12188 H 1165.71 0.429966 0.515141 0
M  V30 12189 H 1168.26 1.73559 1.08156 0
M  V30 12190 H 1166.41 1.53539 3.55675 0
M  V30 12191 H 1166.83 3.74612 3.67105 0
M  V30 12192 H 1168.3 2.55156 4.89489 0
M  V30 12193 H 1168.78 0.969257 4.28371 0
M  V30 12194 H 1169.38 2.43821 3.4847 0
M  V30 12195 N 1167.7 -1.08142 1.14644 0
M  V30 12196 C 1168.63 -2.17139 0.858667 0
M  V30 12197 C 1169.61 -1.69064 -0.187452 0
M  V30 12198 O 1170.8 -1.94151 -0.0435458 0
M  V30 12199 C 1167.93 -3.45648 0.33834 0
M  V30 12200 C 1166.88 -4.07129 1.32021 0
M  V30 12201 C 1166.21 -5.30623 0.659075 0
M  V30 12202 C 1167.51 -4.48095 2.68343 0
M  V30 12203 H 1169.2 -2.41468 1.77012 0
M  V30 12204 H 1166.75 -1.16052 0.852523 0
M  V30 12205 H 1168.7 -4.21216 0.124611 0
M  V30 12206 H 1167.42 -3.2088 -0.608553 0
M  V30 12207 H 1166.08 -3.33596 1.52016 0
M  V30 12208 H 1165.73 -5.02142 -0.293711 0
M  V30 12209 H 1165.43 -5.72714 1.31427 0
M  V30 12210 H 1166.95 -6.08903 0.454933 0
M  V30 12211 H 1168.37 -5.14828 2.5224 0
M  V30 12212 H 1166.76 -5.01113 3.30161 0
M  V30 12213 H 1167.83 -3.59852 3.25015 0
M  V30 12214 N 1169.18 -0.941978 -1.26351 0
M  V30 12215 C 1170.42 -0.589971 -1.93715 0
M  V30 12216 C 1170.75 0.871085 -1.73903 0
M  V30 12217 O 1170.01 1.63864 -1.06991 0
M  V30 12218 C 1170.31 -0.879481 -3.4641 0
M  V30 12219 C 1169.97 -2.32454 -3.86362 0
M  V30 12220 C 1168.63 -2.71957 -3.9698 0
M  V30 12221 C 1170.99 -3.2636 -4.06373 0
M  V30 12222 C 1168.31 -4.04459 -4.25006 0
M  V30 12223 C 1170.67 -4.58459 -4.35887 0
M  V30 12224 C 1169.33 -4.97775 -4.4472 0
M  V30 12225 H 1168.6 -0.215886 -0.708854 0
M  V30 12226 H 1171.25 -1.18863 -1.50146 0
M  V30 12227 H 1169.55 -0.198289 -3.91298 0
M  V30 12228 H 1171.25 -0.585887 -3.96697 0
M  V30 12229 H 1167.84 -2.00814 -3.78645 0
M  V30 12230 H 1172.02 -2.97037 -3.97596 0
M  V30 12231 H 1167.28 -4.34582 -4.30057 0
M  V30 12232 H 1171.45 -5.31213 -4.50317 0
M  V30 12233 H 1169.08 -6.00475 -4.66191 0
M  V30 12234 N 1170.66 1.40747 -0.709091 0
M  V30 12235 C 1171.9 2.013 -0.246174 0
M  V30 12236 C 1172.23 1.56078 1.15556 0
M  V30 12237 O 1171.51 0.777941 1.78265 0
M  V30 12238 C 1171.79 3.58685 -0.318945 0
M  V30 12239 C 1171.65 4.13997 -1.75859 0
M  V30 12240 C 1172.96 4.38981 0.31358 0
M  V30 12241 H 1170.08 0.73137 -0.0909255 0
M  V30 12242 H 1172.73 1.67312 -0.900365 0
M  V30 12243 H 1170.88 3.8777 0.23805 0
M  V30 12244 H 1172.55 3.95735 -2.37047 0
M  V30 12245 H 1170.79 3.6853 -2.28841 0
M  V30 12246 H 1171.46 5.23158 -1.76095 0
M  V30 12247 H 1173.94 4.15789 -0.160939 0
M  V30 12248 H 1172.81 5.48409 0.232184 0
M  V30 12249 H 1173.07 4.19474 1.39621 0
M  V30 12250 N 1172.13 0.454803 1.50895 0
M  V30 12251 C 1173.38 -0.10577 2.02224 0
M  V30 12252 C 1173.71 -1.41176 1.33789 0
M  V30 12253 O 1172.96 -1.90522 0.447181 0
M  V30 12254 C 1173.26 -0.354159 3.55641 0
M  V30 12255 C 1172.93 0.868136 4.42464 0
M  V30 12256 C 1171.59 1.2033 4.65912 0
M  V30 12257 C 1173.94 1.68272 4.93289 0
M  V30 12258 C 1171.27 2.3534 5.37431 0
M  V30 12259 C 1173.62 2.82396 5.6607 0
M  V30 12260 C 1172.29 3.16346 5.87777 0
M  V30 12261 H 1171.56 -0.0387041 0.739989 0
M  V30 12262 H 1174.2 0.605564 1.81673 0
M  V30 12263 H 1172.51 -1.14757 3.74617 0
M  V30 12264 H 1174.21 -0.8016 3.92906 0
M  V30 12265 H 1170.8 0.596995 4.24422 0
M  V30 12266 H 1174.98 1.43698 4.75042 0
M  V30 12267 H 1170.24 2.61936 5.52449 0
M  V30 12268 H 1174.41 3.45873 6.04438 0
M  V30 12269 H 1172.04 4.05574 6.42973 0
M  V30 12270 N 1173.61 -1.56489 0.186789 0
M  V30 12271 C 1174.86 -1.98399 -0.448244 0
M  V30 12272 C 1175.21 -1.07139 -1.59809 0
M  V30 12273 O 1174.51 -0.114119 -1.9126 0
M  V30 12274 C 1174.7 -3.44145 -0.964315 0
M  V30 12275 C 1174.53 -4.495 0.133992 0
M  V30 12276 C 1173.3 -5.01857 0.588851 0
M  V30 12277 C 1175.5 -5.05637 0.939971 0
M  V30 12278 N 1173.48 -5.90866 1.66585 0
M  V30 12279 C 1174.85 -5.91236 1.86655 0
M  V30 12280 C 1176.9 -4.88093 0.983319 0
M  V30 12281 C 1175.61 -6.61167 2.83286 0
M  V30 12282 C 1177.63 -5.58757 1.93764 0
M  V30 12283 C 1177 -6.44096 2.85167 0
M  V30 12284 H 1173.09 -0.770833 -0.131684 0
M  V30 12285 H 1175.68 -1.9252 0.290571 0
M  V30 12286 H 1173.85 -3.50541 -1.6726 0
M  V30 12287 H 1175.58 -3.73036 -1.56926 0
M  V30 12288 H 1172.34 -4.73244 0.183712 0
M  V30 12289 H 1172.76 -6.40075 2.2053 0
M  V30 12290 H 1177.4 -4.218 0.290658 0
M  V30 12291 H 1175.12 -7.26664 3.53532 0
M  V30 12292 H 1178.71 -5.47163 1.97748 0
M  V30 12293 H 1177.59 -6.97813 3.57808 0
M  V30 12294 N 1175.09 0.086862 -1.5736 0
M  V30 12295 C 1176.51 0.441284 -1.53378 0
M  V30 12296 C 1176.71 1.80046 -0.904748 0
M  V30 12297 O 1175.76 2.47484 -0.500781 0
M  V30 12298 C 1177.07 0.3962 -2.98078 0
M  V30 12299 C 1178.62 0.477468 -3.09337 0
M  V30 12300 C 1179.1 0.462448 -4.55659 0
M  V30 12301 N 1180.59 0.522963 -4.60238 0
M  V30 12302 C 1181.32 0.533313 -5.70914 0
M  V30 12303 N 1180.82 0.499376 -6.90998 0
M  V30 12304 N 1182.61 0.578742 -5.59113 0
M  V30 12305 H 1174.76 -0.803308 -1.96623 0
M  V30 12306 H 1177.03 -0.299879 -0.89932 0
M  V30 12307 H 1176.73 -0.535505 -3.47599 0
M  V30 12308 H 1176.61 1.21209 -3.57195 0
M  V30 12309 H 1178.99 1.39959 -2.59799 0
M  V30 12310 H 1179.07 -0.366717 -2.53158 0
M  V30 12311 H 1178.72 -0.455768 -5.05851 0
M  V30 12312 H 1178.65 1.32396 -5.09685 0
M  V30 12313 H 1181.14 0.554051 -3.73816 0
M  V30 12314 H 1181.45 0.510784 -7.7111 0
M  V30 12315 H 1179.8 0.466296 -6.93434 0
M  V30 12316 H 1182.99 0.602841 -4.64202 0
M  V30 12317 H 1183.16 0.583339 -6.45369 0
M  V30 12318 N 1176.57 1.53483 0.357892 0
M  V30 12319 C 1177.48 1.83434 1.4625 0
M  V30 12320 C 1178.49 0.723313 1.58254 0
M  V30 12321 O 1179.67 1.01416 1.74002 0
M  V30 12322 C 1176.73 2.0249 2.81423 0
M  V30 12323 C 1175.8 3.26378 2.78883 0
M  V30 12324 C 1175.03 3.44516 4.07608 0
M  V30 12325 O 1175.25 2.66787 5.04163 0
M  V30 12326 O 1174.19 4.37898 4.12952 0
M  V30 12327 H 1178.01 2.77294 1.23861 0
M  V30 12328 H 1175.6 1.38958 0.548722 0
M  V30 12329 H 1177.48 2.16552 3.61501 0
M  V30 12330 H 1176.15 1.11819 3.03773 0
M  V30 12331 H 1175.06 3.17733 1.97475 0
M  V30 12332 H 1176.39 4.16996 2.61486 0
M  V30 12333 N 1178.05 -0.61812 1.44973 0
M  V30 12334 C 1178.98 -1.74035 1.55673 0
M  V30 12335 C 1179.96 -1.65112 0.4089 0
M  V30 12336 O 1181.14 -1.83673 0.630698 0
M  V30 12337 C 1178.27 -3.1261 1.51303 0
M  V30 12338 C 1177.23 -3.36334 2.64696 0
M  V30 12339 C 1176.55 -4.75072 2.45378 0
M  V30 12340 C 1177.85 -3.27618 4.06772 0
M  V30 12341 H 1179.55 -1.65336 2.49608 0
M  V30 12342 H 1177.09 -0.794003 1.20132 0
M  V30 12343 H 1179.04 -3.90906 1.57388 0
M  V30 12344 H 1177.77 -3.22123 0.538914 0
M  V30 12345 H 1176.43 -2.60423 2.58022 0
M  V30 12346 H 1176.08 -4.81306 1.46129 0
M  V30 12347 H 1175.78 -4.91903 3.21412 0
M  V30 12348 H 1177.3 -5.55582 2.53301 0
M  V30 12349 H 1178.71 -3.95802 4.14746 0
M  V30 12350 H 1177.11 -3.55981 4.83113 0
M  V30 12351 H 1178.18 -2.25219 4.29423 0
M  V30 12352 N 1179.52 -1.32087 -0.859693 0
M  V30 12353 C 1180.94 -1.10968 -1.14709 0
M  V30 12354 C 1181.14 0.113139 -2.01182 0
M  V30 12355 O 1180.2 0.799499 -2.39508 0
M  V30 12356 C 1181.51 -2.38657 -1.8293 0
M  V30 12357 C 1183.06 -2.44366 -1.95587 0
M  V30 12358 C 1183.53 -3.71963 -2.67222 0
M  V30 12359 N 1185.02 -3.72916 -2.7475 0
M  V30 12360 C 1185.76 -4.68346 -3.30816 0
M  V30 12361 N 1185.25 -5.74139 -3.87732 0
M  V30 12362 N 1187.05 -4.55851 -3.28872 0
M  V30 12363 H 1179.2 -2.10497 -0.283711 0
M  V30 12364 H 1181.46 -0.929108 -0.188315 0
M  V30 12365 H 1181.17 -3.2803 -1.26844 0
M  V30 12366 H 1181.04 -2.49236 -2.83128 0
M  V30 12367 H 1183.43 -1.55456 -2.50833 0
M  V30 12368 H 1183.51 -2.37744 -0.944001 0
M  V30 12369 H 1183.15 -4.61245 -2.1264 0
M  V30 12370 H 1183.08 -3.75855 -3.68837 0
M  V30 12371 H 1185.57 -2.96447 -2.34367 0
M  V30 12372 H 1185.89 -6.43021 -4.28654 0
M  V30 12373 H 1184.23 -5.779 -3.86078 0
M  V30 12374 H 1187.42 -3.72371 -2.83651 0
M  V30 12375 H 1187.6 -5.30398 -3.72266 0
M  V30 12376 N 1181 1.07532 -1.15215 0
M  V30 12377 C 1182.28 1.76813 -0.83646 0
M  V30 12378 C 1182.66 2.00242 0.6683 0
M  V30 12379 O 1182.01 1.61941 1.61206 0
M  V30 12380 C 1182.22 3.0779 -1.64519 0
M  V30 12381 C 1183.56 3.82168 -1.85022 0
M  V30 12382 O 1184.59 3.17596 -1.61279 0
M  V30 12383 O 1183.45 4.98135 -2.24775 0
M  V30 12384 H 1180.54 0.767736 -0.307426 0
M  V30 12385 H 1183.09 1.13914 -1.25784 0
M  V30 12386 H 1181.86 2.86342 -2.6669 0
M  V30 12387 H 1181.48 3.78419 -1.22002 0
M  V30 12388 N 1182.48 0.948665 1.2585 0
M  V30 12389 C 1183.43 0.455115 2.28104 0
M  V30 12390 C 1184.42 -0.471508 1.62706 0
M  V30 12391 O 1185.63 -0.348895 1.76586 0
M  V30 12392 H 1182 0.128659 0.740912 0
M  V30 12393 H 1183.97 1.32991 2.67125 0
M  V30 12394 C 1182.72 -0.25729 3.46747 0
M  V30 12395 H 1182.05 0.44658 3.97298 0
M  V30 12396 H 1183.49 -0.566736 4.20195 0
M  V30 12397 C 1181.95 -1.47772 3.02762 0
M  V30 12398 O 1182.48 -2.57571 3.08253 0
M  V30 12399 N 1180.68 -1.33694 2.5802 0
M  V30 12400 H 1180.23 -0.443595 2.53752 0
M  V30 12401 H 1180.19 -2.1547 2.28954 0
M  V30 12402 N 1183.96 -1.40369 0.716545 0
M  V30 12403 C 1185.2 -2.01167 0.256846 0
M  V30 12404 C 1185.54 -1.56689 -1.14727 0
M  V30 12405 O 1184.81 -0.787384 -1.7785 0
M  V30 12406 C 1185.1 -3.58511 0.337963 0
M  V30 12407 C 1184.95 -4.13059 1.78052 0
M  V30 12408 C 1186.27 -4.39142 -0.290295 0
M  V30 12409 H 1183.39 -0.730877 0.0948028 0
M  V30 12410 H 1186.03 -1.66833 0.909225 0
M  V30 12411 H 1184.18 -3.87891 -0.217482 0
M  V30 12412 H 1185.85 -3.94472 2.39143 0
M  V30 12413 H 1184.09 -3.67311 2.30793 0
M  V30 12414 H 1184.76 -5.22217 1.78867 0
M  V30 12415 H 1187.24 -4.15697 0.182987 0
M  V30 12416 H 1186.12 -5.48524 -0.203097 0
M  V30 12417 H 1186.38 -4.20209 -1.37394 0
M  V30 12418 N 1185.44 -0.462799 -1.50652 0
M  V30 12419 C 1186.69 0.0966838 -2.01468 0
M  V30 12420 C 1187 1.41529 -1.35014 0
M  V30 12421 O 1188.2 2.05923 -1.76941 0
M  V30 12422 C 1186.66 0.222826 -3.5921 0
M  V30 12423 C 1186.27 -1.08686 -4.34616 0
M  V30 12424 C 1188.01 0.734711 -4.18094 0
M  V30 12425 C 1185.92 -0.924964 -5.84122 0
M  V30 12426 H 1184.85 0.0399078 -0.752943 0
M  V30 12427 H 1187.5 -0.596437 -1.73536 0
M  V30 12428 H 1185.88 0.979539 -3.83694 0
M  V30 12429 H 1187.06 -1.85388 -4.21862 0
M  V30 12430 H 1185.37 -1.52922 -3.87303 0
M  V30 12431 H 1187.97 0.872734 -5.2753 0
M  V30 12432 H 1188.31 1.72389 -3.7893 0
M  V30 12433 H 1188.84 0.0356139 -3.97784 0
M  V30 12434 H 1185.58 -1.88727 -6.27744 0
M  V30 12435 H 1185.1 -0.198181 -5.99473 0
M  V30 12436 H 1186.78 -0.588262 -6.4432 0
M  V30 12437 N 1186.91 1.56388 -0.195085 0
M  V30 12438 C 1188.14 2.01963 0.449289 0
M  V30 12439 C 1188.56 1.07522 1.55192 0
M  V30 12440 O 1187.91 0.0800915 1.82324 0
M  V30 12441 C 1187.97 3.47231 1.00561 0
M  V30 12442 O 1187.69 4.38068 -0.0530241 0
M  V30 12443 C 1189.19 4.08324 1.72587 0
M  V30 12444 H 1186.41 0.661452 0.112792 0
M  V30 12445 H 1188.95 2.02231 -0.303788 0
M  V30 12446 H 1187.11 3.47663 1.70907 0
M  V30 12447 H 1187.52 5.23256 0.361076 0
M  V30 12448 H 1188.99 5.11821 2.06744 0
M  V30 12449 H 1189.47 3.51782 2.62956 0
M  V30 12450 H 1190.08 4.11665 1.06826 0
M  V30 12451 N 1188.39 -0.0785156 1.57404 0
M  V30 12452 C 1189.8 -0.631132 1.75709 0
M  V30 12453 C 1190.15 -1.78261 0.819605 0
M  V30 12454 O 1189.28 -2.164 0.00206912 0
M  V30 12455 C 1189.87 -1.15168 3.18625 0
M  V30 12456 C 1188.43 -1.65021 3.38297 0
M  V30 12457 C 1187.58 -0.566773 2.71446 0
M  V30 12458 H 1190.53 0.147631 1.58012 0
M  V30 12459 H 1190.55 -2.02065 3.22413 0
M  V30 12460 H 1190.06 -0.313399 3.86833 0
M  V30 12461 H 1188.17 -2.51196 2.75194 0
M  V30 12462 H 1188.28 -1.73179 4.46706 0
M  V30 12463 H 1186.64 -1.01021 2.33809 0
M  V30 12464 H 1187.43 0.261204 3.42305 0
M  V30 12465 N 1189.87 -1.5367 -0.349747 0
M  V30 12466 C 1191.29 -1.43796 -0.692457 0
M  V30 12467 C 1191.49 -0.58972 -1.92677 0
M  V30 12468 O 1190.54 -0.078294 -2.52379 0
M  V30 12469 C 1191.86 -2.872 -0.890881 0
M  V30 12470 C 1193.4 -2.96935 -0.989892 0
M  V30 12471 C 1193.88 -4.41433 -1.22068 0
M  V30 12472 N 1195.37 -4.44932 -1.28802 0
M  V30 12473 C 1196.1 -5.53864 -1.48398 0
M  V30 12474 N 1195.6 -6.72814 -1.65208 0
M  V30 12475 N 1197.39 -5.41467 -1.50896 0
M  V30 12476 H 1189.54 -2.07317 0.461895 0
M  V30 12477 H 1191.81 -0.936895 0.144681 0
M  V30 12478 H 1191.51 -3.51656 -0.0555095 0
M  V30 12479 H 1191.39 -3.31784 -1.79442 0
M  V30 12480 H 1193.77 -2.32622 -1.81579 0
M  V30 12481 H 1193.86 -2.55721 -0.0633906 0
M  V30 12482 H 1193.5 -5.06325 -0.399729 0
M  V30 12483 H 1193.43 -4.80233 -2.16064 0
M  V30 12484 H 1195.92 -3.59214 -1.17361 0
M  V30 12485 H 1196.23 -7.51598 -1.79779 0
M  V30 12486 H 1194.58 -6.7577 -1.62356 0
M  V30 12487 H 1197.77 -4.47498 -1.37342 0
M  V30 12488 H 1197.94 -6.26423 -1.65826 0
M  V30 12489 N 1191.35 0.610423 -1.45298 0
M  V30 12490 C 1192.63 1.36966 -1.39641 0
M  V30 12491 C 1193.01 2.10998 -0.0655757 0
M  V30 12492 O 1192.35 2.07705 0.952407 0
M  V30 12493 C 1192.56 2.31885 -2.60826 0
M  V30 12494 C 1193.91 2.9458 -3.05791 0
M  V30 12495 O 1194.94 2.42207 -2.61179 0
M  V30 12496 O 1193.79 3.89639 -3.83202 0
M  V30 12497 H 1190.89 0.61401 -0.554004 0
M  V30 12498 H 1193.43 0.633748 -1.57422 0
M  V30 12499 H 1192.21 1.76421 -3.49272 0
M  V30 12500 H 1191.83 3.12861 -2.45364 0
M  V30 12501 N 1192.83 1.32541 0.852676 0
M  V30 12502 C 1194.05 1.2622 1.6394 0
M  V30 12503 C 1194.47 -0.169455 1.88038 0
M  V30 12504 O 1193.83 -1.10719 1.45078 0
M  V30 12505 C 1193.88 2.02062 2.99755 0
M  V30 12506 O 1193.6 3.39641 2.76723 0
M  V30 12507 C 1195.1 2.02787 3.94198 0
M  V30 12508 H 1192.32 0.435405 0.510552 0
M  V30 12509 H 1194.86 1.74696 1.06309 0
M  V30 12510 H 1193.02 1.57303 3.54026 0
M  V30 12511 H 1193.43 3.78484 3.63111 0
M  V30 12512 H 1194.91 2.60333 4.86755 0
M  V30 12513 H 1195.38 1.01464 4.27319 0
M  V30 12514 H 1195.99 2.47504 3.45864 0
M  V30 12515 N 1194.3 -1.0692 1.15784 0
M  V30 12516 C 1195.53 -1.8331 0.959422 0
M  V30 12517 C 1195.95 -1.82268 -0.492332 0
M  V30 12518 O 1195.3 -1.23727 -1.34156 0
M  V30 12519 C 1195.36 -3.30202 1.47135 0
M  V30 12520 O 1195.08 -3.31328 2.86624 0
M  V30 12521 C 1196.58 -4.23346 1.31504 0
M  V30 12522 H 1193.8 -0.578202 0.340475 0
M  V30 12523 H 1196.34 -1.34939 1.53661 0
M  V30 12524 H 1194.5 -3.75908 0.936587 0
M  V30 12525 H 1194.91 -4.23135 3.0993 0
M  V30 12526 H 1196.38 -5.24465 1.72163 0
M  V30 12527 H 1196.86 -4.38431 0.259773 0
M  V30 12528 H 1197.47 -3.8348 1.83911 0
M  V30 12529 N 1195.78 -0.955326 -1.25345 0
M  V30 12530 C 1196.72 -0.420299 -2.24296 0
M  V30 12531 C 1197.69 0.498753 -1.54762 0
M  V30 12532 O 1198.88 0.432971 -1.8346 0
M  V30 12533 C 1196 0.394576 -3.36394 0
M  V30 12534 C 1195.05 -0.464973 -4.23958 0
M  V30 12535 S 1195.88 -1.89764 -5.00749 0
M  V30 12536 C 1197.04 -1.09121 -6.16314 0
M  V30 12537 H 1197.27 -1.25888 -2.69331 0
M  V30 12538 H 1194.81 -0.759449 -1.34431 0
M  V30 12539 H 1196.76 0.858788 -4.01416 0
M  V30 12540 H 1195.42 1.20799 -2.89942 0
M  V30 12541 H 1194.62 0.160055 -5.03746 0
M  V30 12542 H 1194.22 -0.864422 -3.63873 0
M  V30 12543 H 1196.51 -0.340218 -6.76645 0
M  V30 12544 H 1197.45 -1.86304 -6.83152 0
M  V30 12545 H 1197.86 -0.621033 -5.61073 0
M  V30 12546 N 1197.26 1.39987 -0.723979 0
M  V30 12547 C 1198.49 2.05037 -0.27702 0
M  V30 12548 C 1198.9 1.54565 1.08421 0
M  V30 12549 O 1198.26 0.705795 1.683 0
M  V30 12550 C 1198.31 3.60582 -0.25751 0
M  V30 12551 O 1198.03 4.09194 -1.565 0
M  V30 12552 C 1199.53 4.42817 0.206972 0
M  V30 12553 H 1196.75 0.659637 -0.122963 0
M  V30 12554 H 1199.3 1.7924 -0.98454 0
M  V30 12555 H 1197.45 3.85319 0.401037 0
M  V30 12556 H 1197.87 5.03447 -1.47112 0
M  V30 12557 H 1199.34 5.5174 0.16947 0
M  V30 12558 H 1199.82 4.21023 1.25045 0
M  V30 12559 H 1200.42 4.23205 -0.421604 0
M  V30 12560 N 1198.74 0.470782 1.50404 0
M  V30 12561 C 1199.99 -0.084316 2.02324 0
M  V30 12562 C 1200.31 -1.39749 1.35279 0
M  V30 12563 O 1199.57 -1.90037 0.467364 0
M  V30 12564 C 1199.87 -0.316419 3.55997 0
M  V30 12565 C 1199.53 0.915017 4.41518 0
M  V30 12566 C 1198.2 1.25265 4.6461 0
M  V30 12567 C 1200.55 1.73494 4.91477 0
M  V30 12568 C 1197.88 2.41027 5.34905 0
M  V30 12569 C 1200.23 2.88384 5.63043 0
M  V30 12570 C 1198.89 3.22562 5.84389 0
M  V30 12571 H 1198.16 -0.0308534 0.740357 0
M  V30 12572 H 1200.81 0.624799 1.81021 0
M  V30 12573 H 1199.11 -1.10778 3.75813 0
M  V30 12574 H 1200.81 -0.759882 3.93734 0
M  V30 12575 H 1197.4 0.641977 4.23765 0
M  V30 12576 H 1201.59 1.48728 4.73491 0
M  V30 12577 H 1196.84 2.67781 5.49639 0
M  V30 12578 H 1201.02 3.52264 6.00735 0
M  V30 12579 H 1198.64 4.1237 6.38635 0
M  V30 12580 N 1200.22 -1.56282 0.203376 0
M  V30 12581 C 1201.45 -2.02198 -0.438572 0
M  V30 12582 C 1201.86 -1.08343 -1.54619 0
M  V30 12583 O 1201.22 -0.0897594 -1.82279 0
M  V30 12584 C 1201.27 -3.4776 -0.987184 0
M  V30 12585 O 1200.99 -4.38034 0.0762552 0
M  V30 12586 C 1202.49 -4.09234 -1.70419 0
M  V30 12587 H 1199.71 -0.662041 -0.109282 0
M  V30 12588 H 1202.25 -2.02067 0.314509 0
M  V30 12589 H 1200.41 -3.48564 -1.69061 0
M  V30 12590 H 1200.82 -5.2344 -0.333322 0
M  V30 12591 H 1202.3 -5.1291 -2.04027 0
M  V30 12592 H 1202.77 -3.53172 -2.61087 0
M  V30 12593 H 1203.38 -4.12226 -1.04641 0
M  V30 12594 N 1201.7 0.070167 -1.57444 0
M  V30 12595 C 1202.94 0.774338 -1.89165 0
M  V30 12596 C 1203.3 1.7466 -0.797353 0
M  V30 12597 O 1204.5 2.49599 -0.997682 0
M  V30 12598 C 1202.77 1.46235 -3.26114 0
M  V30 12599 S 1204.33 2.20136 -3.79586 0
M  V30 12600 H 1201.15 0.257464 -0.662747 0
M  V30 12601 H 1203.75 0.0303734 -1.95476 0
M  V30 12602 H 1202.45 0.740942 -4.03656 0
M  V30 12603 H 1201.99 2.24571 -3.23004 0
M  V30 12604 H 1204 3.4668 -3.55003 0
M  V30 12605 N 1203.17 1.53854 0.341593 0
M  V30 12606 C 1204.42 1.71194 1.08162 0
M  V30 12607 C 1204.75 0.47614 1.88582 0
M  V30 12608 O 1204 -0.542115 1.88041 0
M  V30 12609 C 1204.3 2.92844 2.04884 0
M  V30 12610 C 1203.97 4.28366 1.40759 0
M  V30 12611 C 1202.63 4.65214 1.23 0
M  V30 12612 C 1204.98 5.12546 0.945819 0
M  V30 12613 C 1202.31 5.83857 0.576852 0
M  V30 12614 C 1204.66 6.31857 0.306568 0
M  V30 12615 C 1203.33 6.67398 0.116677 0
M  V30 12616 H 1202.6 0.626442 0.395792 0
M  V30 12617 H 1205.24 1.88073 0.360688 0
M  V30 12618 H 1203.55 2.70576 2.83365 0
M  V30 12619 H 1205.25 3.03454 2.62139 0
M  V30 12620 H 1201.84 3.99366 1.5558 0
M  V30 12621 H 1206.02 4.84609 1.07087 0
M  V30 12622 H 1201.28 6.09967 0.418363 0
M  V30 12623 H 1205.45 6.96375 -0.0593285 0
M  V30 12624 H 1203.08 7.59191 -0.391477 0
M  V30 12625 N 1204.65 -0.602709 1.4562 0
M  V30 12626 C 1205.9 -1.36359 1.50113 0
M  V30 12627 C 1206.23 -1.93663 0.144297 0
M  V30 12628 O 1205.51 -1.75337 -0.841851 0
M  V30 12629 C 1205.79 -2.50788 2.58413 0
M  V30 12630 C 1205.64 -1.98649 4.03557 0
M  V30 12631 C 1206.96 -3.52905 2.62957 0
M  V30 12632 H 1204.08 -0.494455 0.54652 0
M  V30 12633 H 1206.72 -0.678957 1.77455 0
M  V30 12634 H 1204.87 -3.09191 2.3523 0
M  V30 12635 H 1206.54 -1.44857 4.37966 0
M  V30 12636 H 1204.79 -1.29615 4.13984 0
M  V30 12637 H 1205.46 -2.81159 4.7503 0
M  V30 12638 H 1207.93 -3.0435 2.83743 0
M  V30 12639 H 1206.81 -4.30454 3.40589 0
M  V30 12640 H 1207.07 -4.0884 1.68233 0
M  V30 12641 N 1206.13 -1.32992 -0.845635 0
M  V30 12642 C 1207.38 -1.24065 -1.60044 0
M  V30 12643 C 1207.7 0.195282 -1.93517 0
M  V30 12644 O 1206.96 1.1507 -1.58296 0
M  V30 12645 C 1207.26 -2.05454 -2.92444 0
M  V30 12646 C 1206.92 -3.54718 -2.78362 0
M  V30 12647 C 1205.59 -3.95413 -2.74229 0
M  V30 12648 C 1207.94 -4.49598 -2.63649 0
M  V30 12649 C 1205.27 -5.29216 -2.53274 0
M  V30 12650 C 1207.62 -5.83554 -2.44228 0
M  V30 12651 C 1206.28 -6.2344 -2.38493 0
M  V30 12652 H 1205.55 -0.453985 -0.585644 0
M  V30 12653 H 1208.2 -1.6451 -0.980244 0
M  V30 12654 H 1206.5 -1.57765 -3.58633 0
M  V30 12655 H 1208.2 -1.95909 -3.49887 0
M  V30 12656 H 1204.79 -3.22403 -2.82409 0
M  V30 12657 H 1208.98 -4.19072 -2.65881 0
M  V30 12658 H 1204.23 -5.59164 -2.47275 0
M  V30 12659 H 1208.41 -6.56681 -2.31825 0
M  V30 12660 H 1206.03 -7.27058 -2.22015 0
M  V30 12661 N 1207.61 1.06304 -1.1635 0
M  V30 12662 C 1208.85 1.79101 -0.94494 0
M  V30 12663 C 1209.18 1.87217 0.527251 0
M  V30 12664 O 1208.44 1.35992 1.40729 0
M  V30 12665 C 1208.74 3.23589 -1.51741 0
M  V30 12666 C 1208.4 3.35552 -3.0119 0
M  V30 12667 C 1207.06 3.38525 -3.41986 0
M  V30 12668 C 1209.42 3.37482 -3.97184 0
M  V30 12669 C 1206.74 3.41042 -4.77396 0
M  V30 12670 C 1209.1 3.41537 -5.3248 0
M  V30 12671 C 1207.76 3.42792 -5.72757 0
M  V30 12672 H 1207.03 0.655377 -0.345778 0
M  V30 12673 H 1209.68 1.25017 -1.45062 0
M  V30 12674 H 1207.98 3.80525 -0.933164 0
M  V30 12675 H 1209.68 3.78512 -1.32399 0
M  V30 12676 H 1206.27 3.33944 -2.68662 0
M  V30 12677 H 1210.45 3.34397 -3.66732 0
M  V30 12678 H 1205.71 3.40317 -5.07931 0
M  V30 12679 H 1209.88 3.41977 -6.0665 0
M  V30 12680 H 1207.51 3.44495 -6.77663 0
M  V30 12681 N 1209.09 0.96196 1.24836 0
M  V30 12682 C 1210.36 0.537809 1.88061 0
M  V30 12683 C 1210.74 -0.985023 1.8671 0
M  V30 12684 O 1210.09 -1.85394 1.33572 0
M  V30 12685 C 1210.3 1.12279 3.30446 0
M  V30 12686 C 1211.65 1.20414 4.07168 0
M  V30 12687 O 1212.67 1.07488 3.39595 0
M  V30 12688 O 1211.53 1.4078 5.28056 0
M  V30 12689 H 1208.63 0.178491 0.807509 0
M  V30 12690 H 1211.17 1.05586 1.32852 0
M  V30 12691 H 1209.94 2.16578 3.25898 0
M  V30 12692 H 1209.57 0.58843 3.93222 0
M  V30 12693 N 1210.56 -1.39601 0.731392 0
M  V30 12694 C 1211.5 -2.28169 0.0378735 0
M  V30 12695 C 1212.47 -1.44195 -0.751434 0
M  V30 12696 O 1213.66 -1.7359 -0.734753 0
M  V30 12697 C 1210.79 -3.24999 -0.953589 0
M  V30 12698 C 1209.83 -4.25748 -0.253203 0
M  V30 12699 S 1210.66 -5.25496 1.03025 0
M  V30 12700 C 1211.82 -6.25886 0.0412927 0
M  V30 12701 H 1212.05 -2.8664 0.788973 0
M  V30 12702 H 1209.59 -1.45271 0.523044 0
M  V30 12703 H 1211.54 -3.81308 -1.52035 0
M  V30 12704 H 1210.21 -2.65554 -1.6775 0
M  V30 12705 H 1209.4 -4.93913 -1.00328 0
M  V30 12706 H 1209 -3.7322 0.241426 0
M  V30 12707 H 1211.29 -6.72757 -0.800305 0
M  V30 12708 H 1212.24 -7.0473 0.68999 0
M  V30 12709 H 1212.64 -5.63538 -0.329495 0
M  V30 12710 N 1212.04 -0.478751 -1.50152 0
M  V30 12711 C 1213.29 0.073585 -2.02366 0
M  V30 12712 C 1213.62 1.3903 -1.36018 0
M  V30 12713 O 1212.87 1.89787 -0.477435 0
M  V30 12714 C 1213.17 0.297535 -3.56159 0
M  V30 12715 C 1212.84 -0.938419 -4.41027 0
M  V30 12716 C 1211.5 -1.27727 -4.63939 0
M  V30 12717 C 1213.85 -1.76098 -4.9055 0
M  V30 12718 C 1211.18 -2.4386 -5.33619 0
M  V30 12719 C 1213.53 -2.91366 -5.61506 0
M  V30 12720 C 1212.2 -3.25657 -5.8267 0
M  V30 12721 H 1211.47 0.0269267 -0.740511 0
M  V30 12722 H 1214.11 -0.63439 -1.80687 0
M  V30 12723 H 1212.42 1.08783 -3.76395 0
M  V30 12724 H 1214.11 0.73899 -3.94132 0
M  V30 12725 H 1210.7 -0.664441 -4.23418 0
M  V30 12726 H 1214.89 -1.51237 -4.72696 0
M  V30 12727 H 1210.14 -2.70692 -5.48211 0
M  V30 12728 H 1214.32 -3.55445 -5.98859 0
M  V30 12729 H 1211.95 -4.15751 -6.36439 0
M  V30 12730 N 1213.52 1.56172 -0.211661 0
M  V30 12731 C 1214.47 2.21206 0.719063 0
M  V30 12732 C 1215.46 1.18835 1.20725 0
M  V30 12733 O 1216.67 1.36939 1.16823 0
M  V30 12734 H 1213.04 0.709129 0.250279 0
M  V30 12735 H 1215.01 2.98038 0.147022 0
M  V30 12736 C 1213.76 2.89826 1.92084 0
M  V30 12737 H 1213.09 3.68351 1.55428 0
M  V30 12738 H 1214.53 3.38744 2.55006 0
M  V30 12739 C 1212.99 1.91756 2.77004 0
M  V30 12740 O 1213.52 1.42826 3.75451 0
M  V30 12741 N 1211.72 1.59622 2.42836 0
M  V30 12742 H 1211.27 1.99606 1.62835 0
M  V30 12743 H 1211.23 0.942641 2.99936 0
M  V30 12744 N 1215 -0.0618163 1.57479 0
M  V30 12745 C 1215.96 -1.05684 2.0338 0
M  V30 12746 C 1216.96 -1.31006 0.932423 0
M  V30 12747 O 1218.15 -1.26559 1.19702 0
M  V30 12748 C 1215.28 -2.39805 2.42294 0
M  V30 12749 H 1216.48 -0.661006 2.92525 0
M  V30 12750 H 1214.03 -0.307814 1.53239 0
M  V30 12751 H 1214.76 -2.84201 1.56207 0
M  V30 12752 H 1214.55 -2.22764 3.22674 0
M  V30 12753 H 1216.04 -3.11307 2.78349 0
M  V30 12754 N 1216.48 -1.54033 -0.333429 0
M  V30 12755 C 1217.41 -1.85719 -1.4153 0
M  V30 12756 C 1218.39 -0.713144 -1.54429 0
M  V30 12757 O 1219.57 -0.965984 -1.68471 0
M  V30 12758 C 1216.7 -2.07578 -2.78439 0
M  V30 12759 C 1215.66 -3.23411 -2.80338 0
M  V30 12760 C 1214.98 -3.30622 -4.2023 0
M  V30 12761 C 1216.28 -4.6129 -2.44968 0
M  V30 12762 H 1217.98 -2.76325 -1.15261 0
M  V30 12763 H 1215.52 -1.32957 -0.55303 0
M  V30 12764 H 1217.48 -2.28329 -3.5418 0
M  V30 12765 H 1216.2 -1.13713 -3.06165 0
M  V30 12766 H 1214.86 -3.02531 -2.07052 0
M  V30 12767 H 1214.51 -2.34333 -4.45081 0
M  V30 12768 H 1214.21 -4.08466 -4.22409 0
M  V30 12769 H 1215.73 -3.53596 -4.97798 0
M  V30 12770 H 1217.14 -4.81987 -3.10421 0
M  V30 12771 H 1215.54 -5.41611 -2.58414 0
M  V30 12772 H 1216.61 -4.6421 -1.40134 0
M  V30 12773 N 1217.95 0.594978 -1.45938 0
M  V30 12774 C 1219.18 1.38482 -1.54394 0
M  V30 12775 C 1219.6 1.87222 -0.181563 0
M  V30 12776 O 1218.96 1.60869 0.836119 0
M  V30 12777 C 1219.01 2.55676 -2.54287 0
M  V30 12778 O 1218.11 3.5672 -2.06941 0
M  V30 12779 H 1217.46 0.412918 -0.519995 0
M  V30 12780 H 1219.99 0.722899 -1.91404 0
M  V30 12781 H 1220 3.02756 -2.73501 0
M  V30 12782 H 1218.67 2.19552 -3.53228 0
M  V30 12783 H 1217.25 3.16204 -1.97661 0
M  V30 12784 N 1219.43 1.33438 0.838571 0
M  V30 12785 C 1220.66 1.28097 1.63113 0
M  V30 12786 C 1221.08 -0.145197 1.87539 0
M  V30 12787 O 1220.44 -1.10191 1.43971 0
M  V30 12788 C 1220.49 2.06201 2.95827 0
M  V30 12789 O 1219.59 1.42082 3.87152 0
M  V30 12790 H 1218.93 0.440685 0.496681 0
M  V30 12791 H 1221.46 1.76004 1.04325 0
M  V30 12792 H 1221.47 2.16977 3.45521 0
M  V30 12793 H 1220.15 3.099 2.77371 0
M  V30 12794 H 1218.73 1.39953 3.45641 0
M  V30 12795 N 1220.91 -1.05686 1.16912 0
M  V30 12796 C 1222.33 -1.30744 0.915327 0
M  V30 12797 C 1222.53 -1.96895 -0.428344 0
M  V30 12798 O 1221.58 -2.23941 -1.16647 0
M  V30 12799 C 1222.9 -2.18209 2.06894 0
M  V30 12800 C 1224.44 -2.31607 2.1054 0
M  V30 12801 C 1224.92 -3.2243 3.25273 0
M  V30 12802 N 1226.41 -3.30015 3.2503 0
M  V30 12803 C 1227.14 -4.00401 4.10447 0
M  V30 12804 N 1226.64 -4.73256 5.05965 0
M  V30 12805 N 1228.43 -3.96514 3.98413 0
M  V30 12806 H 1220.58 -0.611449 2.03409 0
M  V30 12807 H 1222.85 -0.332188 0.887894 0
M  V30 12808 H 1222.55 -1.76887 3.0398 0
M  V30 12809 H 1222.43 -3.18823 2.01573 0
M  V30 12810 H 1224.81 -2.72173 1.14044 0
M  V30 12811 H 1224.9 -1.30639 2.19925 0
M  V30 12812 H 1224.54 -2.82579 4.22032 0
M  V30 12813 H 1224.47 -4.23392 3.13125 0
M  V30 12814 H 1226.96 -2.781 2.55869 0
M  V30 12815 H 1227.27 -5.24509 5.67547 0
M  V30 12816 H 1225.62 -4.72215 5.09939 0
M  V30 12817 H 1228.81 -3.38719 3.2309 0
M  V30 12818 H 1228.98 -4.511 4.65202 0
M  V30 12819 N 1222.39 -0.968567 -1.24324 0
M  V30 12820 C 1223.61 -0.648166 -1.97012 0
M  V30 12821 C 1224.04 0.775842 -1.71354 0
M  V30 12822 O 1223.4 1.52672 -0.977804 0
M  V30 12823 C 1223.44 -0.929974 -3.48402 0
M  V30 12824 O 1222.55 -0.015854 -4.12397 0
M  V30 12825 H 1221.89 -0.244961 -0.617163 0
M  V30 12826 H 1224.42 -1.29895 -1.58077 0
M  V30 12827 H 1224.43 -0.861863 -3.98793 0
M  V30 12828 H 1223.1 -1.96776 -3.66404 0
M  V30 12829 H 1221.68 -0.137361 -3.72647 0
M  V30 12830 N 1223.87 1.39211 -0.738786 0
M  V30 12831 C 1224.8 2.29117 -0.0616489 0
M  V30 12832 C 1225.81 1.47008 0.699462 0
M  V30 12833 O 1227 1.70041 0.542998 0
M  V30 12834 C 1224.1 3.25692 0.936893 0
M  V30 12835 C 1223.27 4.3676 0.236515 0
M  V30 12836 C 1222.33 5.1362 1.1437 0
M  V30 12837 O 1221.36 5.65816 0.619762 0
M  V30 12838 N 1222.56 5.25184 2.4731 0
M  V30 12839 H 1225.33 2.8787 -0.833711 0
M  V30 12840 H 1222.89 1.50832 -0.588323 0
M  V30 12841 H 1224.88 3.73987 1.54648 0
M  V30 12842 H 1223.45 2.67943 1.61014 0
M  V30 12843 H 1222.67 3.90293 -0.553594 0
M  V30 12844 H 1223.96 5.08192 -0.248707 0
M  V30 12845 H 1223.35 4.84302 2.92349 0
M  V30 12846 H 1221.91 5.76905 3.03355 0
M  V30 12847 N 1225.34 0.486708 1.49896 0
M  V30 12848 C 1226.57 -0.0600816 2.06813 0
M  V30 12849 C 1226.99 -1.32112 1.34877 0
M  V30 12850 O 1226.34 -1.77537 0.422725 0
M  V30 12851 C 1226.4 -0.332266 3.5997 0
M  V30 12852 O 1226.12 0.878771 4.29196 0
M  V30 12853 C 1227.62 -0.924289 4.33557 0
M  V30 12854 H 1224.84 0.0140611 0.670853 0
M  V30 12855 H 1227.38 0.67997 1.92864 0
M  V30 12856 H 1225.54 -1.02227 3.73669 0
M  V30 12857 H 1225.95 0.632873 5.20668 0
M  V30 12858 H 1227.42 -1.06441 5.4164 0
M  V30 12859 H 1227.9 -1.91844 3.95085 0
M  V30 12860 H 1228.51 -0.272189 4.24428 0
M  V30 12861 N 1226.82 -1.56058 0.219941 0
M  V30 12862 C 1227.77 -2.20218 -0.690846 0
M  V30 12863 C 1228.74 -1.15725 -1.19151 0
M  V30 12864 O 1229.93 -1.44073 -1.2509 0
M  V30 12865 C 1227.07 -2.88477 -1.89408 0
M  V30 12866 C 1226.18 -4.07559 -1.43246 0
M  V30 12867 C 1225.31 -4.63605 -2.59314 0
M  V30 12868 C 1224.35 -5.74993 -2.0988 0
M  V30 12869 N 1223.49 -6.25337 -3.19214 0
M  V30 12870 H 1228.33 -2.97685 -0.136992 0
M  V30 12871 H 1225.87 -1.46994 -0.055865 0
M  V30 12872 H 1227.82 -3.26235 -2.60051 0
M  V30 12873 H 1226.45 -2.1353 -2.42084 0
M  V30 12874 H 1225.51 -3.75297 -0.621013 0
M  V30 12875 H 1226.82 -4.8805 -1.02997 0
M  V30 12876 H 1225.97 -5.03798 -3.38041 0
M  V30 12877 H 1224.71 -3.82274 -3.0285 0
M  V30 12878 H 1223.72 -5.34304 -1.29613 0
M  V30 12879 H 1224.94 -6.58158 -1.67345 0
M  V30 12880 H 1222.89 -5.4692 -3.62236 0
M  V30 12881 H 1222.8 -7.00947 -2.83213 0
M  V30 12882 H 1224.07 -6.70187 -3.98083 0
M  V30 12883 N 1228.3 0.053464 -1.57509 0
M  V30 12884 C 1229.53 0.765301 -1.92764 0
M  V30 12885 C 1229.95 1.69385 -0.817943 0
M  V30 12886 O 1229.31 1.7986 0.228075 0
M  V30 12887 C 1229.36 1.51938 -3.27028 0
M  V30 12888 O 1228.46 2.63121 -3.17555 0
M  V30 12889 H 1227.8 0.207567 -0.630723 0
M  V30 12890 H 1230.33 0.0162254 -2.04594 0
M  V30 12891 H 1230.34 1.89466 -3.6134 0
M  V30 12892 H 1229.02 0.838207 -4.07366 0
M  V30 12893 H 1227.59 2.28316 -2.94832 0
M  V30 12894 N 1229.78 1.54207 0.325255 0
M  V30 12895 C 1231.03 1.72587 1.06497 0
M  V30 12896 C 1231.36 0.497228 1.87727 0
M  V30 12897 O 1230.63 -0.505804 1.87808 0
M  V30 12898 C 1230.92 3.00046 1.99109 0
M  V30 12899 C 1230.77 4.33158 1.21221 0
M  V30 12900 C 1232.09 3.23251 2.98658 0
M  V30 12901 H 1229.21 0.627974 0.38577 0
M  V30 12902 H 1231.85 1.869 0.34179 0
M  V30 12903 H 1230 2.87973 2.60775 0
M  V30 12904 H 1231.67 4.57111 0.620289 0
M  V30 12905 H 1229.91 4.30739 0.514462 0
M  V30 12906 H 1230.59 5.18558 1.89214 0
M  V30 12907 H 1233.06 3.34774 2.47114 0
M  V30 12908 H 1231.94 4.13796 3.60645 0
M  V30 12909 H 1232.2 2.40401 3.71026 0
M  V30 12910 N 1231.26 -0.58723 1.46251 0
M  V30 12911 C 1232.5 -1.3456 1.51327 0
M  V30 12912 C 1232.83 -1.93815 0.163146 0
M  V30 12913 O 1232.09 -1.76723 -0.840677 0
M  V30 12914 C 1232.39 -2.49776 2.5563 0
M  V30 12915 C 1232.05 -2.08543 3.99776 0
M  V30 12916 C 1230.71 -1.97013 4.39021 0
M  V30 12917 C 1233.07 -1.76669 4.90344 0
M  V30 12918 C 1230.39 -1.5186 5.66706 0
M  V30 12919 C 1232.75 -1.32996 6.18462 0
M  V30 12920 C 1231.41 -1.20039 6.56618 0
M  V30 12921 H 1230.68 -0.492391 0.553744 0
M  V30 12922 H 1233.33 -0.661715 1.79704 0
M  V30 12923 H 1231.63 -3.23592 2.20897 0
M  V30 12924 H 1233.33 -3.07995 2.56788 0
M  V30 12925 H 1229.92 -2.18451 3.68751 0
M  V30 12926 H 1234.1 -1.84465 4.60746 0
M  V30 12927 H 1229.36 -1.40467 5.95045 0
M  V30 12928 H 1233.53 -1.07385 6.88071 0
M  V30 12929 H 1231.16 -0.848268 7.55452 0
M  V30 12930 N 1232.74 -1.33881 -0.831482 0
M  V30 12931 C 1233.65 -1.26802 -1.97379 0
M  V30 12932 C 1234.66 -0.177233 -1.73095 0
M  V30 12933 O 1235.84 -0.402163 -1.97344 0
M  V30 12934 C 1232.9 -1.01474 -3.31517 0
M  V30 12935 C 1231.96 -2.19626 -3.68867 0
M  V30 12936 C 1231.2 -1.95497 -4.96605 0
M  V30 12937 O 1231.42 -0.908948 -5.63111 0
M  V30 12938 O 1230.35 -2.82226 -5.31632 0
M  V30 12939 H 1234.18 -2.22883 -2.06293 0
M  V30 12940 H 1231.76 -1.14001 -0.965613 0
M  V30 12941 H 1233.65 -0.890954 -4.11874 0
M  V30 12942 H 1232.32 -0.0842656 -3.2359 0
M  V30 12943 H 1231.23 -2.37561 -2.88991 0
M  V30 12944 H 1232.56 -3.11034 -3.81469 0
M  V30 12945 N 1234.21 1.05064 -1.1747 0
M  V30 12946 C 1235.46 1.77481 -0.958301 0
M  V30 12947 C 1235.78 1.88725 0.51401 0
M  V30 12948 O 1236.98 2.57895 0.848657 0
M  V30 12949 C 1235.44 3.19048 -1.66543 0
M  V30 12950 C 1235.05 3.1593 -3.17636 0
M  V30 12951 C 1236.79 3.95912 -1.53146 0
M  V30 12952 C 1234.7 4.52293 -3.81032 0
M  V30 12953 H 1233.63 0.665247 -0.354913 0
M  V30 12954 H 1236.28 1.17751 -1.40737 0
M  V30 12955 H 1234.66 3.79113 -1.1441 0
M  V30 12956 H 1235.83 2.65375 -3.76713 0
M  V30 12957 H 1234.15 2.52564 -3.31059 0
M  V30 12958 H 1236.75 4.96737 -1.9788 0
M  V30 12959 H 1237.09 4.13498 -0.482203 0
M  V30 12960 H 1237.62 3.42399 -2.02504 0
M  V30 12961 H 1234.36 4.39913 -4.8596 0
M  V30 12962 H 1233.88 5.02991 -3.26741 0
M  V30 12963 H 1235.56 5.2123 -3.83312 0
M  V30 12964 N 1235.69 0.975146 1.23809 0
M  V30 12965 C 1236.94 0.639858 1.91704 0
M  V30 12966 C 1237.26 -0.828557 1.76522 0
M  V30 12967 O 1236.53 -1.59217 1.14135 0
M  V30 12968 H 1235.11 0.233667 0.709513 0
M  V30 12969 H 1237.77 1.23782 1.50545 0
M  V30 12970 H 1236.87 0.886915 2.99233 0
M  V30 12971 N 1237.17 -1.38817 0.746158 0
M  V30 12972 C 1238.1 -2.33144 0.128836 0
M  V30 12973 C 1239.08 -1.54487 -0.711873 0
M  V30 12974 O 1240.27 -1.82836 -0.654577 0
M  V30 12975 C 1237.4 -3.38639 -0.770772 0
M  V30 12976 C 1236.35 -4.27987 -0.0333669 0
M  V30 12977 C 1235.68 -5.24274 -1.05073 0
M  V30 12978 C 1236.98 -5.09915 1.13066 0
M  V30 12979 H 1238.67 -2.85019 0.916778 0
M  V30 12980 H 1236.22 -1.37039 0.442306 0
M  V30 12981 H 1238.17 -4.03587 -1.21225 0
M  V30 12982 H 1236.89 -2.8523 -1.59095 0
M  V30 12983 H 1235.55 -3.64534 0.388612 0
M  V30 12984 H 1235.2 -4.67156 -1.86478 0
M  V30 12985 H 1234.9 -5.84906 -0.562037 0
M  V30 12986 H 1236.42 -5.92099 -1.49169 0
M  V30 12987 H 1237.84 -5.68145 0.767084 0
M  V30 12988 H 1236.23 -5.79744 1.54972 0
M  V30 12989 H 1237.3 -4.4409 1.94709 0
M  V30 12990 N 1238.65 -0.49465 -1.49636 0
M  V30 12991 C 1239.89 0.0505629 -2.04337 0
M  V30 12992 C 1240.25 1.34858 -1.36665 0
M  V30 12993 O 1241.45 1.97763 -1.82052 0
M  V30 12994 C 1239.72 0.206247 -3.56804 0
M  V30 12995 S 1241.28 0.706624 -4.33073 0
M  V30 12996 H 1238.1 0.00479193 -0.710984 0
M  V30 12997 H 1240.7 -0.667169 -1.83764 0
M  V30 12998 H 1239.41 -0.743862 -4.03602 0
M  V30 12999 H 1238.94 0.949406 -3.81772 0
M  V30 13000 H 1240.95 1.97672 -4.55127 0
M  V30 13001 N 1240.13 1.55939 -0.228214 0
M  V30 13002 C 1241.35 2.0332 0.409364 0
M  V30 13003 C 1241.78 1.10683 1.52088 0
M  V30 13004 O 1241.13 0.0962484 1.81044 0
M  V30 13005 C 1241.18 3.48877 0.911981 0
M  V30 13006 O 1240.29 3.59378 2.02289 0
M  V30 13007 H 1239.63 0.657625 0.0917909 0
M  V30 13008 H 1242.16 2.01605 -0.348802 0
M  V30 13009 H 1242.17 3.89331 1.22007 0
M  V30 13010 H 1240.84 4.15783 0.0984902 0
M  V30 13011 H 1239.42 3.30815 1.72093 0
M  V30 13012 N 1241.6 -0.0451101 1.57535 0
M  V30 13013 C 1242.55 -1.0692 2.06569 0
M  V30 13014 C 1243.55 -1.38443 0.976218 0
M  V30 13015 O 1244.75 -1.37536 1.1612 0
M  V30 13016 H 1241.13 -0.36226 0.658993 0
M  V30 13017 H 1243.1 -0.629709 2.9168 0
M  V30 13018 C 1241.85 -2.36656 2.54733 0
M  V30 13019 H 1241.17 -2.13257 3.38174 0
M  V30 13020 H 1242.61 -3.06696 2.92769 0
M  V30 13021 C 1241.07 -3.04499 1.4416 0
M  V30 13022 O 1241.6 -3.93679 0.798721 0
M  V30 13023 N 1239.81 -2.6556 1.18009 0
M  V30 13024 H 1239.35 -1.93126 1.7047 0
M  V30 13025 H 1239.31 -3.11272 0.442363 0
M  V30 13026 N 1243.08 -1.54377 -0.317073 0
M  V30 13027 C 1244.5 -1.45232 -0.6618 0
M  V30 13028 C 1244.7 -0.630457 -1.91383 0
M  V30 13029 O 1243.75 -0.13181 -2.52156 0
M  V30 13030 C 1245.07 -2.89025 -0.829761 0
M  V30 13031 C 1246.62 -2.98967 -0.926685 0
M  V30 13032 C 1247.09 -4.43923 -1.12677 0
M  V30 13033 N 1248.58 -4.47564 -1.19335 0
M  V30 13034 C 1249.32 -5.56887 -1.36617 0
M  V30 13035 N 1248.81 -6.76167 -1.50899 0
M  V30 13036 N 1250.61 -5.44546 -1.39377 0
M  V30 13037 H 1242.76 -2.0629 0.505766 0
M  V30 13038 H 1245.02 -0.933615 0.164522 0
M  V30 13039 H 1244.73 -3.51695 0.0190945 0
M  V30 13040 H 1244.6 -3.35515 -1.72364 0
M  V30 13041 H 1246.99 -2.36421 -1.76604 0
M  V30 13042 H 1247.07 -2.55798 -0.00913402 0
M  V30 13043 H 1246.71 -5.07059 -0.29224 0
M  V30 13044 H 1246.64 -4.84708 -2.05829 0
M  V30 13045 H 1249.13 -3.61623 -1.09715 0
M  V30 13046 H 1249.45 -7.55242 -1.63796 0
M  V30 13047 H 1247.79 -6.79062 -1.47985 0
M  V30 13048 H 1250.98 -4.50311 -1.27819 0
M  V30 13049 H 1251.15 -6.29799 -1.52502 0
M  V30 13050 N 1244.56 0.579466 -1.4656 0
M  V30 13051 C 1245.49 1.7031 -1.51887 0
M  V30 13052 C 1246.47 1.58271 -0.372721 0
M  V30 13053 O 1247.66 1.79441 -0.577336 0
M  V30 13054 C 1244.78 3.0839 -1.40048 0
M  V30 13055 C 1243.83 3.3894 -2.58886 0
M  V30 13056 S 1244.66 3.30652 -4.21224 0
M  V30 13057 C 1245.82 4.71264 -4.119 0
M  V30 13058 H 1246.05 1.65533 -2.46954 0
M  V30 13059 H 1243.58 0.758477 -1.34486 0
M  V30 13060 H 1245.54 3.88046 -1.33905 0
M  V30 13061 H 1244.2 3.10653 -0.464048 0
M  V30 13062 H 1243.4 4.39547 -2.46605 0
M  V30 13063 H 1243 2.66858 -2.62036 0
M  V30 13064 H 1245.29 5.61722 -3.7878 0
M  V30 13065 H 1246.23 4.88602 -5.12517 0
M  V30 13066 H 1246.64 4.48266 -3.43101 0
M  V30 13067 N 1246.04 1.3432 0.824371 0
M  V30 13068 C 1247.29 1.26595 1.5805 0
M  V30 13069 C 1247.61 -0.164471 1.93803 0
M  V30 13070 O 1246.87 -1.12537 1.60106 0
M  V30 13071 C 1247.17 2.1008 2.89139 0
M  V30 13072 C 1246.83 3.59102 2.72684 0
M  V30 13073 C 1245.5 3.99726 2.67904 0
M  V30 13074 C 1247.85 4.53736 2.56463 0
M  V30 13075 C 1245.18 5.33178 2.44822 0
M  V30 13076 C 1247.53 5.87366 2.34913 0
M  V30 13077 C 1246.19 6.27155 2.28544 0
M  V30 13078 H 1245.46 0.463245 0.578347 0
M  V30 13079 H 1248.11 1.66048 0.953948 0
M  V30 13080 H 1246.41 1.6345 3.56078 0
M  V30 13081 H 1248.11 2.01451 3.46726 0
M  V30 13082 H 1244.7 3.26855 2.77244 0
M  V30 13083 H 1248.88 4.23248 2.5918 0
M  V30 13084 H 1244.14 5.63028 2.38348 0
M  V30 13085 H 1248.31 6.60286 2.21349 0
M  V30 13086 H 1245.94 7.30498 2.1042 0
M  V30 13087 N 1247.52 -1.0444 1.18026 0
M  V30 13088 C 1248.76 -1.79143 0.984238 0
M  V30 13089 C 1249.12 -1.85955 -0.478002 0
M  V30 13090 O 1250.32 -2.56826 -0.793345 0
M  V30 13091 C 1248.59 -3.18744 1.61669 0
M  V30 13092 S 1250.15 -4.09832 1.56791 0
M  V30 13093 H 1246.97 -0.61688 0.353525 0
M  V30 13094 H 1249.57 -1.25256 1.50104 0
M  V30 13095 H 1248.28 -3.11394 2.67324 0
M  V30 13096 H 1247.81 -3.77708 1.10001 0
M  V30 13097 H 1249.82 -4.92785 0.581175 0
M  V30 13098 N 1248.99 -0.981699 -1.2329 0
M  V30 13099 C 1250.22 -0.668399 -1.95489 0
M  V30 13100 C 1250.63 0.768976 -1.72868 0
M  V30 13101 O 1249.98 1.52925 -1.01783 0
M  V30 13102 C 1250.04 -0.880535 -3.4855 0
M  V30 13103 C 1249.7 -2.30023 -3.9489 0
M  V30 13104 C 1250.7 -3.27899 -4.03458 0
M  V30 13105 C 1248.38 -2.63167 -4.27842 0
M  V30 13106 C 1250.38 -4.56999 -4.44332 0
M  V30 13107 C 1248.06 -3.92489 -4.68397 0
M  V30 13108 C 1249.06 -4.89216 -4.76609 0
M  V30 13109 O 1248.75 -6.16229 -5.16253 0
M  V30 13110 H 1248.48 -0.247255 -0.629159 0
M  V30 13111 H 1251.04 -1.31606 -1.57699 0
M  V30 13112 H 1249.27 -0.175698 -3.86301 0
M  V30 13113 H 1250.96 -0.564198 -4.0196 0
M  V30 13114 H 1251.72 -3.03624 -3.78203 0
M  V30 13115 H 1247.6 -1.88588 -4.20661 0
M  V30 13116 H 1251.14 -5.32498 -4.50656 0
M  V30 13117 H 1247.04 -4.16558 -4.93102 0
M  V30 13118 H 1247.81 -6.20001 -5.34361 0
M  V30 13119 N 1250.47 1.3842 -0.753509 0
M  V30 13120 C 1251.44 2.28808 -0.134022 0
M  V30 13121 C 1252.44 1.47184 0.647583 0
M  V30 13122 O 1253.63 1.67631 0.473861 0
M  V30 13123 C 1250.76 3.30926 0.81858 0
M  V30 13124 H 1251.95 2.85097 -0.930586 0
M  V30 13125 H 1249.5 1.47378 -0.520514 0
M  V30 13126 H 1250.24 2.79728 1.64082 0
M  V30 13127 H 1250.02 3.91234 0.260526 0
M  V30 13128 H 1251.51 3.98515 1.24802 0
M  V30 13129 N 1251.95 0.502579 1.49372 0
M  V30 13130 C 1253.2 -0.0414423 2.02758 0
M  V30 13131 C 1253.53 -1.36499 1.38136 0
M  V30 13132 O 1252.8 -1.87487 0.517593 0
M  V30 13133 C 1253.09 -0.192333 3.59586 0
M  V30 13134 C 1252.94 1.15445 4.34733 0
M  V30 13135 C 1254.26 -0.932218 4.30114 0
M  V30 13136 H 1251.38 -0.0135869 0.736875 0
M  V30 13137 H 1254.02 0.654296 1.78379 0
M  V30 13138 H 1252.17 -0.78491 3.80488 0
M  V30 13139 H 1253.84 1.78603 4.25322 0
M  V30 13140 H 1252.09 1.74333 3.97228 0
M  V30 13141 H 1252.76 1.00216 5.42827 0
M  V30 13142 H 1255.23 -0.429632 4.13876 0
M  V30 13143 H 1254.11 -1.00664 5.39591 0
M  V30 13144 H 1254.37 -1.9763 3.95468 0
M  V30 13145 N 1253.43 -1.55816 0.23648 0
M  V30 13146 C 1254.36 -2.23924 -0.661834 0
M  V30 13147 C 1255.34 -1.21597 -1.18946 0
M  V30 13148 O 1256.52 -1.50222 -1.23073 0
M  V30 13149 C 1253.65 -2.93069 -1.86355 0
M  V30 13150 C 1252.61 -4.01996 -1.46913 0
M  V30 13151 C 1251.93 -4.58512 -2.75083 0
M  V30 13152 C 1253.23 -5.18265 -0.647964 0
M  V30 13153 H 1254.93 -2.99253 -0.0939368 0
M  V30 13154 H 1252.47 -1.43934 -0.0437407 0
M  V30 13155 H 1254.43 -3.39412 -2.49755 0
M  V30 13156 H 1253.15 -2.15212 -2.45665 0
M  V30 13157 H 1251.81 -3.56406 -0.858522 0
M  V30 13158 H 1251.46 -3.77368 -3.3257 0
M  V30 13159 H 1251.16 -5.32037 -2.49421 0
M  V30 13160 H 1252.68 -5.07583 -3.39399 0
M  V30 13161 H 1254.1 -5.60898 -1.18602 0
M  V30 13162 H 1252.49 -5.98114 -0.487823 0
M  V30 13163 H 1253.56 -4.83691 0.342151 0
M  V30 13164 N 1254.91 0.036755 -1.57557 0
M  V30 13165 C 1256.15 0.727665 -1.88546 0
M  V30 13166 C 1256.48 1.76304 -0.833179 0
M  V30 13167 O 1255.75 1.9544 0.13414 0
M  V30 13168 H 1254.33 0.271744 -0.695819 0
M  V30 13169 H 1256.99 0.00452915 -1.94899 0
M  V30 13170 H 1256.08 1.22205 -2.8718 0
M  V30 13171 N 1256.39 1.54543 0.308881 0
M  V30 13172 C 1257.61 1.77753 1.06857 0
M  V30 13173 C 1258.04 0.531616 1.80431 0
M  V30 13174 O 1257.39 -0.517513 1.73757 0
M  V30 13175 C 1257.44 2.97968 2.03094 0
M  V30 13176 O 1256.55 2.70541 3.11257 0
M  V30 13177 H 1255.89 0.588576 0.307368 0
M  V30 13178 H 1258.42 2.01607 0.348703 0
M  V30 13179 H 1258.43 3.25722 2.45702 0
M  V30 13180 H 1257.1 3.88314 1.48948 0
M  V30 13181 H 1255.68 2.53781 2.7322 0
M  V30 13182 N 1257.86 -0.571685 1.46866 0
M  V30 13183 C 1259.11 -1.32574 1.5201 0
M  V30 13184 C 1259.43 -1.94762 0.180838 0
M  V30 13185 O 1260.63 -2.71276 0.110158 0
M  V30 13186 C 1259.09 -2.40331 2.67897 0
M  V30 13187 C 1258.7 -1.84398 4.08291 0
M  V30 13188 C 1260.44 -3.17009 2.82321 0
M  V30 13189 C 1258.35 -2.89849 5.15501 0
M  V30 13190 H 1257.28 -0.498428 0.565761 0
M  V30 13191 H 1259.93 -0.608853 1.73105 0
M  V30 13192 H 1258.31 -3.14869 2.40153 0
M  V30 13193 H 1259.48 -1.16329 4.45875 0
M  V30 13194 H 1257.8 -1.20351 3.98628 0
M  V30 13195 H 1260.4 -3.95729 3.59587 0
M  V30 13196 H 1260.74 -3.70292 1.90236 0
M  V30 13197 H 1261.27 -2.4958 3.09765 0
M  V30 13198 H 1258.01 -2.4144 6.09415 0
M  V30 13199 H 1257.53 -3.56372 4.82451 0
M  V30 13200 H 1259.21 -3.53603 5.41825 0
M  V30 13201 N 1259.34 -1.34755 -0.817236 0
M  V30 13202 C 1260.27 -1.21147 -1.93387 0
M  V30 13203 C 1261.25 -0.101788 -1.62281 0
M  V30 13204 O 1262.44 -0.267968 -1.86586 0
M  V30 13205 C 1259.56 -0.86301 -3.27521 0
M  V30 13206 C 1258.61 -1.98325 -3.77584 0
M  V30 13207 S 1259.44 -3.59751 -3.9666 0
M  V30 13208 C 1260.6 -3.26959 -5.33712 0
M  V30 13209 H 1260.83 -2.15667 -2.04634 0
M  V30 13210 H 1258.36 -1.19848 -0.973441 0
M  V30 13211 H 1260.32 -0.668754 -4.05016 0
M  V30 13212 H 1258.98 0.0639417 -3.14035 0
M  V30 13213 H 1258.18 -1.69332 -4.74703 0
M  V30 13214 H 1257.78 -2.13529 -3.07053 0
M  V30 13215 H 1260.07 -2.79126 -6.17329 0
M  V30 13216 H 1261.01 -4.23238 -5.67693 0
M  V30 13217 H 1261.42 -2.62996 -4.99493 0
M  V30 13218 N 1260.82 1.03812 -1.18578 0
M  V30 13219 C 1262.07 1.76706 -0.980776 0
M  V30 13220 C 1262.39 1.88729 0.490562 0
M  V30 13221 O 1261.66 1.41413 1.35569 0
M  V30 13222 H 1260.24 0.654586 -0.359898 0
M  V30 13223 H 1262.9 1.25274 -1.49306 0
M  V30 13224 H 1262 2.77876 -1.42096 0
M  V30 13225 N 1262.3 0.988223 1.22768 0
M  V30 13226 C 1263.23 0.492919 2.23837 0
M  V30 13227 C 1264.24 -0.409467 1.57567 0
M  V30 13228 O 1265.43 -0.21235 1.77232 0
M  V30 13229 C 1262.53 -0.305428 3.37521 0
M  V30 13230 C 1261.7 0.591966 4.33376 0
M  V30 13231 C 1260.76 -0.15387 5.25975 0
M  V30 13232 O 1259.79 0.459153 5.67345 0
M  V30 13233 N 1260.99 -1.43756 5.62418 0
M  V30 13234 H 1263.76 1.36199 2.66965 0
M  V30 13235 H 1261.32 0.862395 1.3702 0
M  V30 13236 H 1263.31 -0.812921 3.96451 0
M  V30 13237 H 1261.88 -1.07556 2.93514 0
M  V30 13238 H 1261.1 1.28019 3.72833 0
M  V30 13239 H 1262.39 1.20327 4.94367 0
M  V30 13240 H 1261.79 -1.95701 5.30771 0
M  V30 13241 H 1260.34 -1.89034 6.23786 0
M  V30 13242 N 1263.78 -1.38018 0.760839 0
M  V30 13243 C 1264.71 -2.32995 0.153557 0
M  V30 13244 C 1265.69 -1.55234 -0.695448 0
M  V30 13245 O 1266.87 -1.8352 -0.635148 0
M  V30 13246 C 1264 -3.39437 -0.734811 0
M  V30 13247 C 1262.96 -4.27998 0.0120287 0
M  V30 13248 C 1262.28 -5.25359 -0.995067 0
M  V30 13249 C 1263.58 -5.08687 1.18468 0
M  V30 13250 H 1265.28 -2.8403 0.946956 0
M  V30 13251 H 1262.82 -1.36562 0.456816 0
M  V30 13252 H 1264.77 -4.0485 -1.16938 0
M  V30 13253 H 1263.5 -2.86901 -1.56061 0
M  V30 13254 H 1262.16 -3.64102 0.427254 0
M  V30 13255 H 1261.81 -4.69108 -1.81512 0
M  V30 13256 H 1261.51 -5.85469 -0.499969 0
M  V30 13257 H 1263.03 -5.93648 -1.4288 0
M  V30 13258 H 1264.44 -5.67299 0.8273 0
M  V30 13259 H 1262.84 -5.78068 1.61112 0
M  V30 13260 H 1263.91 -4.42 1.99409 0
M  V30 13261 N 1265.25 -0.510493 -1.49103 0
M  V30 13262 C 1266.18 0.251999 -2.32136 0
M  V30 13263 C 1267.16 0.953613 -1.40855 0
M  V30 13264 O 1268.35 0.943178 -1.69758 0
M  V30 13265 C 1265.48 1.31118 -3.21598 0
M  V30 13266 C 1264.43 0.72888 -4.21748 0
M  V30 13267 C 1263.76 1.88928 -5.0021 0
M  V30 13268 C 1265.06 -0.286425 -5.21514 0
M  V30 13269 H 1266.75 -0.441102 -2.96133 0
M  V30 13270 H 1264.3 -0.213577 -1.42407 0
M  V30 13271 H 1266.25 1.8524 -3.78503 0
M  V30 13272 H 1264.98 2.0336 -2.55563 0
M  V30 13273 H 1263.64 0.209336 -3.66002 0
M  V30 13274 H 1263.28 2.59961 -4.30615 0
M  V30 13275 H 1262.98 1.50568 -5.67981 0
M  V30 13276 H 1264.51 2.43465 -5.59962 0
M  V30 13277 H 1265.92 0.166997 -5.73057 0
M  V30 13278 H 1264.32 -0.586361 -5.97228 0
M  V30 13279 H 1265.39 -1.19904 -4.69842 0
M  V30 13280 N 1266.73 1.55688 -0.24474 0
M  V30 13281 C 1267.98 1.99186 0.381167 0
M  V30 13282 C 1268.31 1.13266 1.57748 0
M  V30 13283 O 1267.59 0.195568 1.93514 0
M  V30 13284 C 1267.87 3.51257 0.793142 0
M  V30 13285 C 1267.72 4.47942 -0.408409 0
M  V30 13286 C 1269.04 4.08365 1.64091 0
M  V30 13287 H 1266.16 0.724141 0.137073 0
M  V30 13288 H 1268.8 1.8683 -0.345619 0
M  V30 13289 H 1266.95 3.61917 1.4124 0
M  V30 13290 H 1268.62 4.49265 -1.04682 0
M  V30 13291 H 1266.87 4.20854 -1.05189 0
M  V30 13292 H 1267.54 5.51946 -0.0768531 0
M  V30 13293 H 1270.01 4.00794 1.1182 0
M  V30 13294 H 1268.89 5.1504 1.89802 0
M  V30 13295 H 1269.15 3.56687 2.61202 0
M  V30 13296 N 1268.21 -0.0283989 1.57574 0
M  V30 13297 C 1269.46 -0.718121 1.88483 0
M  V30 13298 C 1269.77 -1.76485 0.843345 0
M  V30 13299 O 1270.98 -2.50721 1.04169 0
M  V30 13300 C 1269.43 -1.32832 3.3449 0
M  V30 13301 C 1269.04 -0.317905 4.46871 0
M  V30 13302 C 1270.79 -1.99788 3.74546 0
M  V30 13303 C 1268.69 -0.936489 5.83938 0
M  V30 13304 H 1267.62 -0.271969 0.703242 0
M  V30 13305 H 1270.27 0.0274862 1.83479 0
M  V30 13306 H 1268.66 -2.12366 3.34241 0
M  V30 13307 H 1269.83 0.450767 4.5859 0
M  V30 13308 H 1268.14 0.249605 4.15651 0
M  V30 13309 H 1270.74 -2.46923 4.74271 0
M  V30 13310 H 1271.08 -2.81633 3.06575 0
M  V30 13311 H 1271.62 -1.27029 3.76973 0
M  V30 13312 H 1268.36 -0.15744 6.55311 0
M  V30 13313 H 1267.88 -1.67499 5.75938 0
M  V30 13314 H 1269.56 -1.44363 6.30689 0
M  V30 13315 N 1269.69 -1.54705 -0.300681 0
M  V30 13316 C 1270.92 -1.77735 -1.05327 0
M  V30 13317 C 1271.33 -0.53709 -1.81417 0
M  V30 13318 O 1270.67 0.502663 -1.76689 0
M  V30 13319 C 1270.73 -2.93222 -2.07993 0
M  V30 13320 C 1270.39 -4.313 -1.51095 0
M  V30 13321 C 1271.39 -5.11317 -0.94082 0
M  V30 13322 C 1269.08 -4.77901 -1.54648 0
M  V30 13323 C 1271.07 -6.36055 -0.413791 0
M  V30 13324 C 1268.76 -6.02602 -1.01558 0
M  V30 13325 C 1269.76 -6.81515 -0.450209 0
M  V30 13326 O 1269.44 -8.03867 0.0726375 0
M  V30 13327 H 1269.18 -0.596468 -0.318122 0
M  V30 13328 H 1271.73 -2.02475 -0.345404 0
M  V30 13329 H 1269.96 -2.64108 -2.82461 0
M  V30 13330 H 1271.65 -3.03826 -2.69156 0
M  V30 13331 H 1272.41 -4.76458 -0.906268 0
M  V30 13332 H 1268.29 -4.16507 -1.97594 0
M  V30 13333 H 1271.84 -6.97594 0.0281534 0
M  V30 13334 H 1267.73 -6.36948 -1.04728 0
M  V30 13335 H 1268.5 -8.1849 -0.0406321 0
M  V30 13336 N 1271.17 0.563888 -1.47167 0
M  V30 13337 C 1272.41 1.32136 -1.53448 0
M  V30 13338 C 1272.74 1.9353 -0.19396 0
M  V30 13339 O 1272 1.78038 0.812456 0
M  V30 13340 C 1272.3 2.45678 -2.59571 0
M  V30 13341 C 1271.96 2.02157 -4.03043 0
M  V30 13342 C 1270.62 1.90003 -4.421 0
M  V30 13343 C 1272.98 1.68846 -4.93093 0
M  V30 13344 C 1270.3 1.42825 -5.6905 0
M  V30 13345 C 1272.66 1.2314 -6.20499 0
M  V30 13346 C 1271.32 1.09578 -6.58444 0
M  V30 13347 H 1270.59 0.483519 -0.561507 0
M  V30 13348 H 1273.24 0.633042 -1.80734 0
M  V30 13349 H 1271.54 3.20037 -2.26017 0
M  V30 13350 H 1273.24 3.03871 -2.61655 0
M  V30 13351 H 1269.83 2.12557 -3.7218 0
M  V30 13352 H 1274.01 1.77111 -4.63622 0
M  V30 13353 H 1269.27 1.30983 -5.97205 0
M  V30 13354 H 1273.44 0.964247 -6.89692 0
M  V30 13355 H 1271.07 0.727975 -7.56706 0
M  V30 13356 N 1272.64 1.35187 0.810078 0
M  V30 13357 C 1274.06 1.25329 1.38381 0
M  V30 13358 C 1274.41 -0.115799 1.95858 0
M  V30 13359 O 1273.53 -1.01663 1.91033 0
M  V30 13360 C 1274.13 2.2693 2.51572 0
M  V30 13361 C 1272.69 2.20824 3.04818 0
M  V30 13362 C 1271.83 2.1283 1.7776 0
M  V30 13363 H 1274.78 1.46366 0.613402 0
M  V30 13364 H 1274.8 1.89375 3.30026 0
M  V30 13365 H 1274.32 3.26563 2.09709 0
M  V30 13366 H 1272.42 1.24589 3.51153 0
M  V30 13367 H 1272.53 3.12637 3.63036 0
M  V30 13368 H 1270.89 1.58752 1.99173 0
M  V30 13369 H 1271.68 3.14318 1.38054 0
M  V30 13370 N 1274.12 -1.03182 1.19127 0
M  V30 13371 C 1275.53 -1.57984 0.994888 0
M  V30 13372 C 1275.88 -1.90898 -0.453019 0
M  V30 13373 O 1275.01 -1.70556 -1.33191 0
M  V30 13374 C 1275.6 -2.8705 1.79966 0
M  V30 13375 C 1274.16 -3.38435 1.64737 0
M  V30 13376 C 1273.31 -2.11912 1.78854 0
M  V30 13377 H 1276.26 -0.857458 1.33542 0
M  V30 13378 H 1276.28 -3.57821 1.294 0
M  V30 13379 H 1275.79 -2.63062 2.85341 0
M  V30 13380 H 1273.9 -3.67416 0.619358 0
M  V30 13381 H 1274.01 -4.11665 2.45089 0
M  V30 13382 H 1272.37 -2.23642 1.21886 0
M  V30 13383 H 1273.16 -1.90369 2.85682 0
M  V30 13384 N 1275.6 -0.99472 -1.22242 0
M  V30 13385 C 1276.53 -0.566499 -2.26524 0
M  V30 13386 C 1277.51 0.407541 -1.65146 0
M  V30 13387 O 1278.7 0.297777 -1.91903 0
M  V30 13388 C 1275.83 0.11786 -3.471 0
M  V30 13389 C 1274.78 -0.774908 -4.20927 0
M  V30 13390 C 1274.11 0.0424687 -5.34683 0
M  V30 13391 C 1275.41 -2.07263 -4.79416 0
M  V30 13392 H 1277.1 -1.43818 -2.62596 0
M  V30 13393 H 1274.65 -0.692971 -1.2623 0
M  V30 13394 H 1276.6 0.428842 -4.19212 0
M  V30 13395 H 1275.32 1.0241 -3.10129 0
M  V30 13396 H 1273.98 -1.06956 -3.50651 0
M  V30 13397 H 1273.63 0.949677 -4.93954 0
M  V30 13398 H 1273.33 -0.551867 -5.85003 0
M  V30 13399 H 1274.85 0.347504 -6.0961 0
M  V30 13400 H 1276.27 -1.82548 -5.4346 0
M  V30 13401 H 1274.67 -2.61594 -5.40082 0
M  V30 13402 H 1275.74 -2.75017 -3.99366 0
M  V30 13403 N 1277.08 1.37613 -0.768148 0
M  V30 13404 C 1278.01 2.28935 -0.110234 0
M  V30 13405 C 1279.02 1.48459 0.668122 0
M  V30 13406 O 1280.21 1.71154 0.506808 0
M  V30 13407 C 1277.31 3.27606 0.867598 0
M  V30 13408 C 1276.49 4.37163 0.143819 0
M  V30 13409 C 1275.54 5.15931 1.03449 0
M  V30 13410 O 1274.57 5.67003 0.499605 0
M  V30 13411 N 1275.77 5.30311 2.36114 0
M  V30 13412 H 1278.54 2.86037 -0.894585 0
M  V30 13413 H 1276.1 1.4955 -0.620185 0
M  V30 13414 H 1278.09 3.77183 1.4668 0
M  V30 13415 H 1276.66 2.71298 1.55294 0
M  V30 13416 H 1275.88 3.89031 -0.636257 0
M  V30 13417 H 1277.17 5.0755 -0.356446 0
M  V30 13418 H 1276.57 4.90394 2.82011 0
M  V30 13419 H 1275.12 5.83209 2.9105 0
M  V30 13420 N 1278.56 0.518393 1.4883 0
M  V30 13421 C 1279.5 -0.250684 2.29435 0
M  V30 13422 C 1280.47 -0.944481 1.36634 0
M  V30 13423 O 1281.66 -0.947766 1.65596 0
M  V30 13424 C 1278.8 -1.29871 3.1973 0
M  V30 13425 C 1277.91 -0.61493 4.27601 0
M  V30 13426 C 1277.05 -1.64489 5.05091 0
M  V30 13427 C 1276.09 -0.943932 6.04778 0
M  V30 13428 N 1275.22 -1.91889 6.75369 0
M  V30 13429 H 1280.06 0.44288 2.94691 0
M  V30 13430 H 1277.6 0.230246 1.45287 0
M  V30 13431 H 1279.56 -1.91851 3.70471 0
M  V30 13432 H 1278.19 -1.96081 2.56422 0
M  V30 13433 H 1277.24 0.118552 3.80215 0
M  V30 13434 H 1278.55 -0.063994 4.98759 0
M  V30 13435 H 1277.71 -2.33928 5.59788 0
M  V30 13436 H 1276.44 -2.2297 4.33746 0
M  V30 13437 H 1275.45 -0.235407 5.49296 0
M  V30 13438 H 1276.67 -0.365383 6.78116 0
M  V30 13439 H 1274.62 -2.493 6.06783 0
M  V30 13440 H 1274.54 -1.41909 7.42562 0
M  V30 13441 H 1275.81 -2.60563 7.34661 0
M  V30 13442 N 1280.03 -1.55556 0.252993 0
M  V30 13443 C 1281.28 -1.99385 -0.370599 0
M  V30 13444 C 1281.61 -1.14101 -1.57145 0
M  V30 13445 O 1280.89 -0.205828 -1.93408 0
M  V30 13446 C 1281.17 -3.51672 -0.774503 0
M  V30 13447 C 1281.02 -4.47719 0.432159 0
M  V30 13448 C 1282.34 -4.0923 -1.61923 0
M  V30 13449 H 1279.46 -0.724858 -0.133231 0
M  V30 13450 H 1282.1 -1.86644 0.355522 0
M  V30 13451 H 1280.25 -3.62661 -1.39318 0
M  V30 13452 H 1281.93 -4.48704 1.07063 0
M  V30 13453 H 1280.17 -4.2029 1.07419 0
M  V30 13454 H 1280.84 -5.51898 0.106123 0
M  V30 13455 H 1283.32 -4.01381 -1.09693 0
M  V30 13456 H 1282.19 -5.16039 -1.87068 0
M  V30 13457 H 1282.45 -3.58067 -2.59307 0
M  V30 13458 N 1281.51 0.0200419 -1.57587 0
M  V30 13459 C 1282.76 0.709027 -1.89681 0
M  V30 13460 C 1283.09 1.74876 -0.851396 0
M  V30 13461 O 1282.34 1.95151 0.146483 0
M  V30 13462 C 1282.64 1.40729 -3.28527 0
M  V30 13463 C 1282.31 0.502686 -4.48089 0
M  V30 13464 C 1280.97 0.253558 -4.80532 0
M  V30 13465 C 1283.32 -0.121338 -5.21059 0
M  V30 13466 C 1280.65 -0.628221 -5.83327 0
M  V30 13467 C 1283 -0.990873 -6.24792 0
M  V30 13468 C 1281.67 -1.24937 -6.55703 0
M  V30 13469 H 1280.94 0.259451 -0.694094 0
M  V30 13470 H 1283.58 -0.03118 -1.91475 0
M  V30 13471 H 1281.89 2.22105 -3.22764 0
M  V30 13472 H 1283.58 1.94609 -3.50611 0
M  V30 13473 H 1280.17 0.707018 -4.22728 0
M  V30 13474 H 1284.36 0.0581516 -4.96266 0
M  V30 13475 H 1279.61 -0.836712 -6.05648 0
M  V30 13476 H 1283.79 -1.48087 -6.80473 0
M  V30 13477 H 1281.42 -1.93436 -7.35178 0
M  V30 13478 N 1282.99 1.54862 0.292472 0
M  V30 13479 C 1283.92 1.82786 1.38282 0
M  V30 13480 C 1284.94 0.711253 1.46441 0
M  V30 13481 O 1286.12 0.988851 1.48607 0
M  V30 13482 C 1283.22 1.95845 2.76582 0
M  V30 13483 C 1282.4 3.2633 2.91252 0
M  V30 13484 C 1281.46 3.29697 4.10105 0
M  V30 13485 O 1280.48 4.03184 4.01785 0
M  V30 13486 N 1281.68 2.557 5.21151 0
M  V30 13487 H 1284.45 2.76891 1.1468 0
M  V30 13488 H 1282.01 1.54541 0.482561 0
M  V30 13489 H 1284 1.95491 3.54352 0
M  V30 13490 H 1282.57 1.08696 2.93094 0
M  V30 13491 H 1281.79 3.39387 2.00525 0
M  V30 13492 H 1283.08 4.12421 2.9797 0
M  V30 13493 H 1282.48 1.95642 5.30792 0
M  V30 13494 H 1281.04 2.61089 5.97223 0
M  V30 13495 N 1284.47 -0.556076 1.47464 0
M  V30 13496 C 1285.7 -1.33858 1.57764 0
M  V30 13497 C 1286.11 -1.87415 0.22825 0
M  V30 13498 O 1285.47 -1.65054 -0.778674 0
M  V30 13499 C 1285.52 -2.5077 2.60378 0
M  V30 13500 O 1285.24 -1.99426 3.90078 0
M  V30 13501 C 1286.74 -3.42965 2.80873 0
M  V30 13502 H 1283.96 -0.408003 0.532705 0
M  V30 13503 H 1286.51 -0.673501 1.93091 0
M  V30 13504 H 1284.66 -3.13214 2.27982 0
M  V30 13505 H 1285.07 -2.75759 4.46158 0
M  V30 13506 H 1286.55 -4.21412 3.56533 0
M  V30 13507 H 1287.03 -3.96579 1.88737 0
M  V30 13508 H 1287.63 -2.86336 3.14471 0
M  V30 13509 N 1285.95 -1.35615 -0.802897 0
M  V30 13510 C 1286.86 -1.3096 -1.94645 0
M  V30 13511 C 1287.87 -0.213909 -1.7268 0
M  V30 13512 O 1289.05 -0.443932 -1.96446 0
M  V30 13513 C 1286.11 -1.08483 -3.2929 0
M  V30 13514 C 1285.18 -2.27401 -3.64126 0
M  V30 13515 C 1284.41 -2.05987 -4.92347 0
M  V30 13516 O 1284.63 -1.02819 -5.61057 0
M  V30 13517 O 1283.57 -2.93439 -5.25526 0
M  V30 13518 H 1287.39 -2.27209 -2.01519 0
M  V30 13519 H 1284.98 -1.16024 -0.941214 0
M  V30 13520 H 1286.86 -0.978118 -4.09891 0
M  V30 13521 H 1285.53 -0.152885 -3.23339 0
M  V30 13522 H 1284.44 -2.43638 -2.83886 0
M  V30 13523 H 1285.77 -3.19055 -3.74786 0
M  V30 13524 N 1287.43 1.02549 -1.19673 0
M  V30 13525 C 1288.65 1.8016 -1.02748 0
M  V30 13526 C 1289.08 1.83372 0.419105 0
M  V30 13527 O 1288.43 1.26222 1.30144 0
M  V30 13528 C 1288.48 3.22907 -1.60509 0
M  V30 13529 O 1287.59 4.03823 -0.836702 0
M  V30 13530 H 1286.93 0.556027 -0.362946 0
M  V30 13531 H 1289.46 1.29047 -1.5877 0
M  V30 13532 H 1289.47 3.73646 -1.63868 0
M  V30 13533 H 1288.14 3.19885 -2.65794 0
M  V30 13534 H 1286.72 3.6245 -0.876626 0
M  V30 13535 N 1288.9 1.00119 1.21713 0
M  V30 13536 C 1289.83 0.578504 2.2622 0
M  V30 13537 C 1290.81 -0.398777 1.6536 0
M  V30 13538 O 1292 -0.287596 1.92059 0
M  V30 13539 C 1289.13 -0.0994508 3.47158 0
M  V30 13540 C 1288.08 0.79722 4.2051 0
M  V30 13541 C 1287.41 -0.0141125 5.34698 0
M  V30 13542 C 1288.71 2.09802 4.7831 0
M  V30 13543 H 1290.4 1.45208 2.6183 0
M  V30 13544 H 1287.95 0.699656 1.2586 0
M  V30 13545 H 1289.9 -0.406605 4.19434 0
M  V30 13546 H 1288.63 -1.00763 3.10667 0
M  V30 13547 H 1287.29 1.08814 3.50079 0
M  V30 13548 H 1286.93 -0.923468 4.9445 0
M  V30 13549 H 1286.63 0.582883 5.84702 0
M  V30 13550 H 1288.16 -0.31517 6.09786 0
M  V30 13551 H 1289.57 1.85427 5.42485 0
M  V30 13552 H 1287.97 2.64455 5.38687 0
M  V30 13553 H 1289.04 2.77132 3.97902 0
M  V30 13554 N 1290.38 -1.37203 0.775435 0
M  V30 13555 C 1291.61 -2.04396 0.351737 0
M  V30 13556 C 1292.03 -1.58099 -1.01913 0
M  V30 13557 O 1291.39 -0.742932 -1.65379 0
M  V30 13558 C 1291.44 -3.58283 0.408105 0
M  V30 13559 O 1290.54 -4.08156 -0.590104 0
M  V30 13560 H 1289.88 -0.646451 0.151647 0
M  V30 13561 H 1292.41 -1.75443 1.05265 0
M  V30 13562 H 1292.42 -4.07127 0.266711 0
M  V30 13563 H 1291.1 -3.91335 1.40819 0
M  V30 13564 H 1289.67 -3.70622 -0.411524 0
M  V30 13565 N 1291.86 -0.526279 -1.48553 0
M  V30 13566 C 1293.11 0.0111473 -2.01697 0
M  V30 13567 C 1293.42 1.35675 -1.40895 0
M  V30 13568 O 1294.63 1.98233 -1.85515 0
M  V30 13569 C 1293.08 0.0702721 -3.59831 0
M  V30 13570 C 1292.69 -1.27022 -4.29616 0
M  V30 13571 C 1294.44 0.556722 -4.20834 0
M  V30 13572 C 1292.34 -1.17188 -5.79673 0
M  V30 13573 H 1291.27 0.00793697 -0.753958 0
M  V30 13574 H 1293.92 -0.669503 -1.70851 0
M  V30 13575 H 1292.31 0.81592 -3.87503 0
M  V30 13576 H 1293.48 -2.03114 -4.1362 0
M  V30 13577 H 1291.79 -1.69211 -3.80469 0
M  V30 13578 H 1294.39 0.648205 -5.30756 0
M  V30 13579 H 1294.73 1.56163 -3.859 0
M  V30 13580 H 1295.27 -0.133132 -3.97577 0
M  V30 13581 H 1292.01 -2.15182 -6.19174 0
M  V30 13582 H 1291.53 -0.452259 -5.98093 0
M  V30 13583 H 1293.21 -0.861011 -6.41245 0
M  V30 13584 N 1293.34 1.5542 -0.261239 0
M  V30 13585 C 1294.27 2.24949 0.626126 0
M  V30 13586 C 1295.25 1.23474 1.16997 0
M  V30 13587 O 1296.43 1.52161 1.20667 0
M  V30 13588 C 1293.56 2.95996 1.81669 0
M  V30 13589 C 1292.52 4.04282 1.40499 0
M  V30 13590 C 1291.84 4.62831 2.67753 0
M  V30 13591 C 1293.14 5.1923 0.56543 0
M  V30 13592 H 1294.84 2.99364 0.0463164 0
M  V30 13593 H 1292.38 1.43985 0.0208366 0
M  V30 13594 H 1294.34 3.43343 2.44323 0
M  V30 13595 H 1293.06 2.19093 2.42211 0
M  V30 13596 H 1291.72 3.57726 0.801712 0
M  V30 13597 H 1291.37 3.82611 3.26524 0
M  V30 13598 H 1291.07 5.35938 2.40925 0
M  V30 13599 H 1292.59 5.12918 3.31281 0
M  V30 13600 H 1294.01 5.62714 1.09663 0
M  V30 13601 H 1292.4 5.98814 0.392607 0
M  V30 13602 H 1293.47 4.83086 -0.419059 0
M  V30 13603 N 1294.82 -0.0116844 1.57596 0
M  V30 13604 C 1296.09 -0.735344 1.81251 0
M  V30 13605 C 1296.47 -1.92634 0.863446 0
M  V30 13606 O 1295.82 -2.28321 -0.0905028 0
M  V30 13607 C 1296.03 -1.15206 3.29437 0
M  V30 13608 C 1297.38 -1.56078 3.94873 0
M  V30 13609 O 1298.4 -1.24618 3.3369 0
M  V30 13610 O 1297.26 -2.14534 5.0263 0
M  V30 13611 H 1294.36 -0.357044 0.745955 0
M  V30 13612 H 1296.9 0.0128733 1.69695 0
M  V30 13613 H 1295.67 -0.302619 3.90128 0
M  V30 13614 H 1295.3 -1.95975 3.45947 0
M  V30 13615 N 1296.29 -1.55015 -0.284256 0
M  V30 13616 C 1297.22 -1.90128 -1.3555 0
M  V30 13617 C 1298.2 -0.761914 -1.52082 0
M  V30 13618 O 1299.39 -1.01909 -1.65312 0
M  V30 13619 C 1296.52 -2.16332 -2.71695 0
M  V30 13620 C 1295.47 -3.32166 -2.69907 0
M  V30 13621 C 1294.8 -3.43824 -4.09498 0
M  V30 13622 C 1296.1 -4.6885 -2.30168 0
M  V30 13623 H 1297.79 -2.79852 -1.06411 0
M  V30 13624 H 1295.34 -1.34649 -0.510451 0
M  V30 13625 H 1297.29 -2.39482 -3.46737 0
M  V30 13626 H 1296.02 -1.23395 -3.02392 0
M  V30 13627 H 1294.68 -3.08965 -1.97322 0
M  V30 13628 H 1294.32 -2.48375 -4.374 0
M  V30 13629 H 1294.02 -4.21698 -4.092 0
M  V30 13630 H 1295.55 -3.69254 -4.86296 0
M  V30 13631 H 1296.96 -4.91619 -2.9493 0
M  V30 13632 H 1295.36 -5.49558 -2.41052 0
M  V30 13633 H 1296.43 -4.68433 -1.25294 0
M  V30 13634 N 1297.77 0.548248 -1.47757 0
M  V30 13635 C 1298.7 1.66409 -1.63799 0
M  V30 13636 C 1299.68 1.62973 -0.487211 0
M  V30 13637 O 1300.87 1.80455 -0.717612 0
M  V30 13638 C 1298 3.05035 -1.66046 0
M  V30 13639 C 1296.95 3.23322 -2.80441 0
M  V30 13640 C 1296.28 4.62824 -2.67765 0
M  V30 13641 C 1297.58 3.07837 -4.2194 0
M  V30 13642 H 1299.27 1.53239 -2.57212 0
M  V30 13643 H 1296.82 0.735783 -1.23783 0
M  V30 13644 H 1298.77 3.82951 -1.75859 0
M  V30 13645 H 1297.49 3.19185 -0.69199 0
M  V30 13646 H 1296.15 2.47816 -2.70153 0
M  V30 13647 H 1295.8 4.73786 -1.68927 0
M  V30 13648 H 1295.5 4.76007 -3.44515 0
M  V30 13649 H 1297.03 5.42864 -2.7952 0
M  V30 13650 H 1298.44 3.75563 -4.33157 0
M  V30 13651 H 1296.84 3.32525 -4.99547 0
M  V30 13652 H 1297.91 2.04474 -4.3968 0
M  V30 13653 N 1299.25 1.36039 0.795694 0
M  V30 13654 C 1300.5 1.29919 1.5533 0
M  V30 13655 C 1300.82 -0.123325 1.94109 0
M  V30 13656 O 1300.08 -1.09115 1.62457 0
M  V30 13657 C 1300.38 2.16166 2.84617 0
M  V30 13658 C 1300.04 3.64805 2.65006 0
M  V30 13659 C 1298.71 4.05319 2.59365 0
M  V30 13660 C 1301.06 4.59073 2.46781 0
M  V30 13661 C 1298.39 5.38251 2.33458 0
M  V30 13662 C 1300.74 5.92216 2.22402 0
M  V30 13663 C 1299.4 6.31862 2.1519 0
M  V30 13664 H 1298.67 0.475408 0.568391 0
M  V30 13665 H 1301.32 1.68035 0.918512 0
M  V30 13666 H 1299.62 1.70967 3.5253 0
M  V30 13667 H 1301.32 2.0876 3.42375 0
M  V30 13668 H 1297.91 3.32662 2.70248 0
M  V30 13669 H 1302.1 4.28651 2.50144 0
M  V30 13670 H 1297.35 5.67957 2.26352 0
M  V30 13671 H 1301.53 6.64833 2.07293 0
M  V30 13672 H 1299.15 7.34797 1.94878 0
M  V30 13673 N 1300.73 -1.01913 1.20215 0
M  V30 13674 C 1301.66 -2.12282 0.97256 0
M  V30 13675 C 1302.64 -1.6982 -0.0975709 0
M  V30 13676 O 1303.82 -1.94109 0.0594307 0
M  V30 13677 C 1300.95 -3.43369 0.521085 0
M  V30 13678 C 1299.91 -3.99559 1.53417 0
M  V30 13679 C 1299.23 -5.26383 0.93942 0
M  V30 13680 C 1300.53 -4.33241 2.91718 0
M  V30 13681 H 1302.23 -2.31746 1.89563 0
M  V30 13682 H 1299.77 -1.1137 0.912841 0
M  V30 13683 H 1301.73 -4.19963 0.347713 0
M  V30 13684 H 1300.45 -3.23655 -0.437605 0
M  V30 13685 H 1299.11 -3.25069 1.69486 0
M  V30 13686 H 1298.76 -5.02993 -0.0271236 0
M  V30 13687 H 1298.46 -5.64942 1.616 0
M  V30 13688 H 1299.98 -6.05635 0.777059 0
M  V30 13689 H 1301.4 -5.00734 2.79175 0
M  V30 13690 H 1299.79 -4.82907 3.56259 0
M  V30 13691 H 1300.86 -3.42118 3.43633 0
M  V30 13692 N 1302.21 -1.00763 -1.2118 0
M  V30 13693 C 1303.14 -0.590493 -2.2591 0
M  V30 13694 C 1304.12 0.390002 -1.65569 0
M  V30 13695 O 1305.3 0.277406 -1.92208 0
M  V30 13696 C 1302.43 0.0810388 -3.47205 0
M  V30 13697 C 1301.39 -0.81951 -4.20081 0
M  V30 13698 C 1300.71 -0.014244 -5.34698 0
M  V30 13699 C 1302.01 -2.12336 -4.7719 0
M  V30 13700 H 1303.71 -1.46595 -2.61056 0
M  V30 13701 H 1301.25 -0.706321 -1.25487 0
M  V30 13702 H 1303.21 0.384355 -4.19644 0
M  V30 13703 H 1301.93 0.991145 -3.11197 0
M  V30 13704 H 1300.59 -1.10669 -3.49497 0
M  V30 13705 H 1300.24 0.897233 -4.94933 0
M  V30 13706 H 1299.94 -0.613883 -5.84384 0
M  V30 13707 H 1301.46 0.282827 -6.09945 0
M  V30 13708 H 1302.87 -1.88301 -5.41494 0
M  V30 13709 H 1301.27 -2.67308 -5.37277 0
M  V30 13710 H 1302.34 -2.79238 -3.96427 0
M  V30 13711 N 1303.68 1.3679 -0.7827 0
M  V30 13712 C 1304.93 1.99023 -0.351316 0
M  V30 13713 C 1305.25 1.62436 1.07887 0
M  V30 13714 O 1304.52 0.895084 1.74256 0
M  V30 13715 H 1303.1 0.736141 -0.126909 0
M  V30 13716 H 1305.77 1.67095 -1.00325 0
M  V30 13717 H 1304.86 3.09015 -0.43774 0
M  V30 13718 N 1305.16 0.53415 1.48272 0
M  V30 13719 C 1306.09 -0.215037 2.32508 0
M  V30 13720 C 1307.07 -0.931083 1.42355 0
M  V30 13721 O 1308.26 -0.916051 1.71237 0
M  V30 13722 C 1305.39 -1.25985 3.23643 0
M  V30 13723 C 1304.34 -0.661692 4.22854 0
M  V30 13724 C 1303.67 -1.80946 5.03153 0
M  V30 13725 C 1304.97 0.369358 5.20992 0
M  V30 13726 H 1306.66 0.488158 2.95394 0
M  V30 13727 H 1304.21 0.236206 1.4205 0
M  V30 13728 H 1306.16 -1.79195 3.81402 0
M  V30 13729 H 1304.89 -1.99268 2.58766 0
M  V30 13730 H 1303.54 -0.151082 3.66289 0
M  V30 13731 H 1303.19 -2.53077 4.34696 0
M  V30 13732 H 1302.89 -1.41513 5.70305 0
M  V30 13733 H 1304.42 -2.34526 5.63764 0
M  V30 13734 H 1305.83 -0.0758076 5.7325 0
M  V30 13735 H 1304.23 0.681301 5.9622 0
M  V30 13736 H 1305.3 1.27363 4.67875 0
M  V30 13737 N 1306.64 -1.55279 0.269478 0
M  V30 13738 C 1307.87 -2.03876 -0.352418 0
M  V30 13739 C 1308.28 -1.14804 -1.49885 0
M  V30 13740 O 1307.64 -0.166989 -1.81734 0
M  V30 13741 C 1307.69 -3.51634 -0.838799 0
M  V30 13742 O 1307.41 -4.37316 0.261972 0
M  V30 13743 C 1308.91 -4.16094 -1.52909 0
M  V30 13744 H 1306.13 -0.66608 -0.0811043 0
M  V30 13745 H 1308.68 -2.00551 0.399929 0
M  V30 13746 H 1306.83 -3.55421 -1.54125 0
M  V30 13747 H 1307.25 -5.24383 -0.111013 0
M  V30 13748 H 1308.72 -5.21102 -1.82089 0
M  V30 13749 H 1309.2 -3.63928 -2.45872 0
M  V30 13750 H 1309.8 -4.16293 -0.87063 0
M  V30 13751 N 1308.12 0.00332656 -1.576 0
M  V30 13752 C 1309.34 0.703587 -1.95101 0
M  V30 13753 C 1309.77 1.66697 -0.871418 0
M  V30 13754 O 1309.13 1.80494 0.170739 0
M  V30 13755 C 1309.17 1.41457 -3.31696 0
M  V30 13756 O 1308.28 2.52885 -3.25765 0
M  V30 13757 H 1307.62 0.187396 -0.637008 0
M  V30 13758 H 1310.15 -0.0488727 -2.04542 0
M  V30 13759 H 1310.16 1.77874 -3.67185 0
M  V30 13760 H 1308.83 0.708182 -4.09826 0
M  V30 13761 H 1307.41 2.18821 -3.01947 0
M  V30 13762 N 1309.6 1.55164 0.276031 0
M  V30 13763 C 1310.82 1.7998 1.03063 0
M  V30 13764 C 1311.25 0.569769 1.79263 0
M  V30 13765 O 1310.6 -0.48054 1.74816 0
M  V30 13766 C 1310.65 3.02209 1.96728 0
M  V30 13767 O 1309.76 2.77083 3.05449 0
M  V30 13768 H 1309.1 0.594963 0.294814 0
M  V30 13769 H 1311.63 2.02301 0.305861 0
M  V30 13770 H 1311.64 3.3086 2.38738 0
M  V30 13771 H 1310.31 3.91386 1.40677 0
M  V30 13772 H 1308.89 2.5952 2.67776 0
M  V30 13773 N 1311.07 -0.540404 1.48045 0
M  V30 13774 C 1312.32 -1.2987 1.55762 0
M  V30 13775 C 1312.65 -1.92877 0.226307 0
M  V30 13776 O 1311.93 -1.7875 -0.766727 0
M  V30 13777 C 1312.21 -2.39602 2.68817 0
M  V30 13778 C 1312.06 -1.81354 4.1162 0
M  V30 13779 C 1313.38 -3.41434 2.77688 0
M  V30 13780 H 1310.5 -0.47083 0.566999 0
M  V30 13781 H 1313.14 -0.603081 1.80175 0
M  V30 13782 H 1311.29 -2.98936 2.48132 0
M  V30 13783 H 1312.97 -1.26151 4.43716 0
M  V30 13784 H 1311.21 -1.1194 4.19108 0
M  V30 13785 H 1311.88 -2.60758 4.86528 0
M  V30 13786 H 1314.36 -2.92042 2.96396 0
M  V30 13787 H 1313.23 -4.15621 3.5854 0
M  V30 13788 H 1313.49 -4.01336 1.85422 0
M  V30 13789 N 1312.55 -1.36459 -0.788468 0
M  V30 13790 C 1313.79 -1.32124 -1.55957 0
M  V30 13791 C 1314.16 0.0981565 -1.91749 0
M  V30 13792 O 1315.36 0.266067 -2.6748 0
M  V30 13793 C 1313.63 -2.219 -2.8017 0
M  V30 13794 S 1315.19 -2.35257 -3.70405 0
M  V30 13795 H 1312.01 -0.469279 -0.534133 0
M  V30 13796 H 1314.61 -1.72039 -0.928587 0
M  V30 13797 H 1313.31 -3.23976 -2.51928 0
M  V30 13798 H 1312.84 -1.83008 -3.48241 0
M  V30 13799 H 1314.86 -1.55077 -4.71344 0
M  V30 13800 N 1314.03 1.01274 -1.20754 0
M  V30 13801 C 1315.28 1.74342 -1.01428 0
M  V30 13802 C 1315.59 1.90265 0.453708 0
M  V30 13803 O 1316.8 2.60465 0.76618 0
M  V30 13804 C 1315.25 3.13588 -1.76609 0
M  V30 13805 C 1314.86 3.05664 -3.27526 0
M  V30 13806 C 1316.61 3.9084 -1.65664 0
M  V30 13807 C 1314.51 4.39942 -3.95228 0
M  V30 13808 H 1313.44 0.653619 -0.375897 0
M  V30 13809 H 1316.09 1.13214 -1.44412 0
M  V30 13810 H 1314.48 3.75281 -1.26413 0
M  V30 13811 H 1315.65 2.53256 -3.84965 0
M  V30 13812 H 1313.97 2.41904 -3.38927 0
M  V30 13813 H 1316.56 4.9019 -2.13583 0
M  V30 13814 H 1316.91 4.11754 -0.61351 0
M  V30 13815 H 1317.44 3.35783 -2.13294 0
M  V30 13816 H 1314.18 4.24229 -4.9971 0
M  V30 13817 H 1313.7 4.92342 -3.42578 0
M  V30 13818 H 1315.38 5.08771 -3.99701 0
M  V30 13819 N 1315.51 1.01404 1.20644 0
M  V30 13820 C 1316.76 0.702949 1.90227 0
M  V30 13821 C 1317.09 -0.765243 1.78487 0
M  V30 13822 O 1316.36 -1.55569 1.16741 0
M  V30 13823 C 1316.65 1.13606 3.4171 0
M  V30 13824 C 1316.5 2.66437 3.62397 0
M  V30 13825 C 1317.82 0.705361 4.34411 0
M  V30 13826 H 1314.94 0.256842 0.690797 0
M  V30 13827 H 1317.58 1.26133 1.42093 0
M  V30 13828 H 1315.73 0.660977 3.82836 0
M  V30 13829 H 1317.4 3.21778 3.3054 0
M  V30 13830 H 1315.64 3.0753 3.05954 0
M  V30 13831 H 1316.32 2.91795 4.68572 0
M  V30 13832 H 1318.79 1.11375 4.00918 0
M  V30 13833 H 1317.67 1.03647 5.39026 0
M  V30 13834 H 1317.93 -0.393094 4.40349 0
M  V30 13835 N 1316.99 -1.36373 0.789944 0
M  V30 13836 C 1317.95 -2.28372 0.194639 0
M  V30 13837 C 1318.95 -1.48849 -0.608332 0
M  V30 13838 O 1320.14 -1.68829 -0.42925 0
M  V30 13839 C 1317.27 -3.3298 -0.730553 0
M  V30 13840 H 1318.47 -2.82529 1.00585 0
M  V30 13841 H 1316.02 -1.45946 0.559406 0
M  V30 13842 H 1316.75 -2.8398 -1.56608 0
M  V30 13843 H 1316.54 -3.91787 -0.156706 0
M  V30 13844 H 1318.03 -4.01684 -1.14192 0
M  V30 13845 N 1318.47 -0.542005 -1.47987 0
M  V30 13846 C 1319.38 0.217677 -2.33588 0
M  V30 13847 C 1320.39 0.927093 -1.47245 0
M  V30 13848 O 1321.57 0.899378 -1.80203 0
M  V30 13849 C 1318.63 1.24376 -3.23622 0
M  V30 13850 C 1317.69 0.543407 -4.25847 0
M  V30 13851 C 1316.93 1.5206 -5.11579 0
M  V30 13852 O 1317.15 2.75425 -4.99497 0
M  V30 13853 O 1316.08 1.05341 -5.9261 0
M  V30 13854 H 1319.91 -0.484089 -2.99817 0
M  V30 13855 H 1317.49 -0.302783 -1.463 0
M  V30 13856 H 1319.38 1.83644 -3.7928 0
M  V30 13857 H 1318.05 1.92772 -2.6004 0
M  V30 13858 H 1316.96 -0.090074 -3.73992 0
M  V30 13859 H 1318.29 -0.0988264 -4.92101 0
M  V30 13860 N 1319.94 1.55134 -0.277709 0
M  V30 13861 C 1321.19 1.98831 0.338982 0
M  V30 13862 C 1321.51 1.16958 1.56781 0
M  V30 13863 O 1322.71 1.50811 2.25762 0
M  V30 13864 C 1321.17 3.53899 0.654465 0
M  V30 13865 C 1320.78 4.44553 -0.554703 0
M  V30 13866 C 1322.52 4.06179 1.23364 0
M  V30 13867 C 1320.43 5.91014 -0.213663 0
M  V30 13868 H 1319.36 0.742632 0.130434 0
M  V30 13869 H 1322.01 1.79463 -0.382768 0
M  V30 13870 H 1320.39 3.69078 1.43519 0
M  V30 13871 H 1321.56 4.41143 -1.33151 0
M  V30 13872 H 1319.88 4.02921 -1.0509 0
M  V30 13873 H 1322.48 5.13152 1.50265 0
M  V30 13874 H 1322.82 3.5537 2.16836 0
M  V30 13875 H 1323.35 3.9445 0.515147 0
M  V30 13876 H 1320.09 6.45924 -1.11633 0
M  V30 13877 H 1319.61 5.97486 0.526329 0
M  V30 13878 H 1321.29 6.46712 0.19319 0
M  V30 13879 N 1321.42 0.00503138 1.57599 0
M  V30 13880 C 1322.67 -0.677979 1.89964 0
M  V30 13881 C 1322.98 -1.74657 0.88059 0
M  V30 13882 O 1324.19 -2.48455 1.09463 0
M  V30 13883 C 1322.65 -1.25708 3.37232 0
M  V30 13884 C 1322.25 -0.223045 4.47444 0
M  V30 13885 C 1324 -1.91799 3.787 0
M  V30 13886 C 1321.9 -0.812416 5.85793 0
M  V30 13887 H 1320.83 -0.256991 0.708852 0
M  V30 13888 H 1323.49 0.0663988 1.8338 0
M  V30 13889 H 1321.87 -2.05228 3.3867 0
M  V30 13890 H 1323.04 0.54794 4.57531 0
M  V30 13891 H 1321.36 0.337714 4.15028 0
M  V30 13892 H 1323.95 -2.36808 4.79402 0
M  V30 13893 H 1324.3 -2.75067 3.1248 0
M  V30 13894 H 1324.83 -1.19004 3.79583 0
M  V30 13895 H 1321.57 -0.0184031 6.55497 0
M  V30 13896 H 1321.09 -1.55244 5.79361 0
M  V30 13897 H 1322.77 -1.30952 6.33609 0
M  V30 13898 N 1322.9 -1.55308 -0.267798 0
M  V30 13899 C 1323.85 -1.88544 -1.33115 0
M  V30 13900 C 1324.82 -0.737465 -1.48831 0
M  V30 13901 O 1326 -0.989215 -1.63154 0
M  V30 13902 C 1323.14 -2.1674 -2.68547 0
M  V30 13903 C 1322.25 -3.44234 -2.61011 0
M  V30 13904 C 1321.39 -3.62104 -3.88657 0
M  V30 13905 C 1320.43 -4.83272 -3.75652 0
M  V30 13906 N 1319.57 -4.97772 -4.95144 0
M  V30 13907 H 1324.41 -2.79237 -1.04071 0
M  V30 13908 H 1321.94 -1.38245 -0.502677 0
M  V30 13909 H 1323.9 -2.31088 -3.47353 0
M  V30 13910 H 1322.53 -1.29276 -2.95783 0
M  V30 13911 H 1321.58 -3.3833 -1.73887 0
M  V30 13912 H 1322.89 -4.33177 -2.47303 0
M  V30 13913 H 1322.05 -3.76298 -4.75904 0
M  V30 13914 H 1320.79 -2.71356 -4.05238 0
M  V30 13915 H 1319.79 -4.69076 -2.86788 0
M  V30 13916 H 1321.02 -5.75461 -3.60585 0
M  V30 13917 H 1318.96 -4.09956 -5.12125 0
M  V30 13918 H 1318.88 -5.80769 -4.83987 0
M  V30 13919 H 1320.15 -5.16357 -5.83949 0
M  V30 13920 N 1324.38 0.532545 -1.4833 0
M  V30 13921 C 1325.32 1.63737 -1.62661 0
M  V30 13922 C 1326.29 1.59348 -0.468758 0
M  V30 13923 O 1327.48 1.77812 -0.691921 0
M  V30 13924 C 1324.62 3.02006 -1.66993 0
M  V30 13925 C 1323.73 3.16648 -2.93867 0
M  V30 13926 C 1322.87 4.4546 -2.89376 0
M  V30 13927 C 1321.91 4.53622 -4.10966 0
M  V30 13928 N 1321.04 5.7382 -4.04567 0
M  V30 13929 H 1325.88 1.50828 -2.57012 0
M  V30 13930 H 1323.42 0.734348 -1.27459 0
M  V30 13931 H 1325.38 3.82105 -1.67486 0
M  V30 13932 H 1324.01 3.13693 -0.76135 0
M  V30 13933 H 1323.06 2.29817 -3.0313 0
M  V30 13934 H 1324.37 3.1854 -3.8384 0
M  V30 13935 H 1323.53 5.33848 -2.88256 0
M  V30 13936 H 1322.27 4.46085 -1.97127 0
M  V30 13937 H 1321.27 3.63642 -4.12364 0
M  V30 13938 H 1322.5 4.54738 -5.04371 0
M  V30 13939 H 1320.44 5.75347 -3.15137 0
M  V30 13940 H 1320.36 5.77196 -4.88243 0
M  V30 13941 H 1321.63 6.64502 -4.07502 0
M  V30 13942 N 1325.86 1.36875 0.78122 0
M  V30 13943 C 1327.1 1.31754 1.54171 0
M  V30 13944 C 1327.43 -0.100632 1.93939 0
M  V30 13945 O 1326.71 -1.05587 1.63345 0
M  V30 13946 C 1326.99 2.24789 2.81322 0
M  V30 13947 C 1326.85 3.75342 2.47868 0
M  V30 13948 C 1328.16 2.16442 3.83198 0
M  V30 13949 H 1325.28 0.479931 0.559317 0
M  V30 13950 H 1327.93 1.67497 0.896935 0
M  V30 13951 H 1326.08 1.94438 3.36342 0
M  V30 13952 H 1327.75 4.16247 1.98836 0
M  V30 13953 H 1325.99 3.94375 1.80696 0
M  V30 13954 H 1326.66 4.3586 3.38719 0
M  V30 13955 H 1329.14 2.43175 3.37647 0
M  V30 13956 H 1328.01 2.83695 4.69903 0
M  V30 13957 H 1328.27 1.15431 4.26765 0
M  V30 13958 N 1327.33 -1.00632 1.21289 0
M  V30 13959 C 1328.24 -2.12829 0.986957 0
M  V30 13960 C 1329.26 -1.73895 -0.0605152 0
M  V30 13961 O 1330.44 -2.00985 0.129238 0
M  V30 13962 C 1327.5 -3.4226 0.553089 0
M  V30 13963 C 1326.56 -3.95376 1.67262 0
M  V30 13964 C 1325.79 -5.18629 1.25936 0
M  V30 13965 O 1326.02 -5.70246 0.132402 0
M  V30 13966 O 1324.95 -5.65157 2.07077 0
M  V30 13967 H 1328.78 -2.34765 1.92663 0
M  V30 13968 H 1326.36 -1.11208 0.997654 0
M  V30 13969 H 1328.24 -4.20177 0.320856 0
M  V30 13970 H 1326.92 -3.21716 -0.357881 0
M  V30 13971 H 1325.83 -3.18692 1.95924 0
M  V30 13972 H 1327.16 -4.20328 2.56097 0
M  V30 13973 N 1328.81 -1.02043 -1.20104 0
M  V30 13974 C 1330.23 -0.735967 -1.41618 0
M  V30 13975 C 1330.43 0.68285 -1.89577 0
M  V30 13976 O 1329.48 1.45007 -2.06711 0
M  V30 13977 C 1330.8 -1.76492 -2.43457 0
M  V30 13978 C 1332.34 -1.78349 -2.57217 0
M  V30 13979 C 1332.82 -2.80181 -3.62302 0
M  V30 13980 N 1334.31 -2.78945 -3.69789 0
M  V30 13981 C 1335.05 -3.54395 -4.50768 0
M  V30 13982 N 1334.54 -4.39533 -5.35521 0
M  V30 13983 N 1336.33 -3.42974 -4.45337 0
M  V30 13984 H 1328.49 -1.93634 -0.872916 0
M  V30 13985 H 1330.75 -0.836663 -0.445757 0
M  V30 13986 H 1330.45 -2.78158 -2.15223 0
M  V30 13987 H 1330.33 -1.58022 -3.42504 0
M  V30 13988 H 1332.72 -0.773665 -2.84778 0
M  V30 13989 H 1332.8 -2.00894 -1.58352 0
M  V30 13990 H 1332.44 -3.81331 -3.35484 0
M  V30 13991 H 1332.37 -2.54898 -4.60798 0
M  V30 13992 H 1334.86 -2.17189 -3.09253 0
M  V30 13993 H 1335.17 -4.93863 -5.94407 0
M  V30 13994 H 1333.52 -4.43609 -5.3501 0
M  V30 13995 H 1336.71 -2.75881 -3.78163 0
M  V30 13996 H 1336.88 -4.02028 -5.0821 0
M  V30 13997 N 1330.29 1.35952 -0.797165 0
M  V30 13998 C 1331.52 2.0381 -0.38421 0
M  V30 13999 C 1331.94 1.597 0.993854 0
M  V30 14000 O 1331.3 0.769148 1.64176 0
M  V30 14001 C 1331.35 3.57589 -0.465054 0
M  V30 14002 O 1330.45 4.09043 0.525095 0
M  V30 14003 H 1329.79 0.643957 -0.161912 0
M  V30 14004 H 1332.32 1.73746 -1.08043 0
M  V30 14005 H 1332.33 4.06651 -0.331448 0
M  V30 14006 H 1331.01 3.89045 -1.47027 0
M  V30 14007 H 1329.58 3.7123 0.352509 0
M  V30 14008 N 1331.77 0.549846 1.47697 0
M  V30 14009 C 1333.18 0.209085 1.58225 0
M  V30 14010 C 1333.38 -1.28823 1.54941 0
M  V30 14011 O 1332.44 -2.0679 1.44893 0
M  V30 14012 C 1333.75 0.829219 2.89041 0
M  V30 14013 C 1335.3 0.79977 3.0261 0
M  V30 14014 C 1335.78 1.39884 4.36115 0
M  V30 14015 N 1337.27 1.36169 4.42733 0
M  V30 14016 C 1338 1.79492 5.44583 0
M  V30 14017 N 1337.5 2.30637 6.53283 0
M  V30 14018 N 1339.29 1.70608 5.35583 0
M  V30 14019 H 1331.44 1.52275 1.48074 0
M  V30 14020 H 1333.71 0.634579 0.704283 0
M  V30 14021 H 1333.41 1.88122 2.97158 0
M  V30 14022 H 1333.29 0.317916 3.75858 0
M  V30 14023 H 1335.67 -0.243525 2.94093 0
M  V30 14024 H 1335.75 1.34875 2.17353 0
M  V30 14025 H 1335.4 2.44116 4.45387 0
M  V30 14026 H 1335.33 0.825362 5.20092 0
M  V30 14027 H 1337.82 0.987505 3.64769 0
M  V30 14028 H 1338.13 2.61637 7.27163 0
M  V30 14029 H 1336.48 2.34643 6.54192 0
M  V30 14030 H 1339.67 1.30434 4.4956 0
M  V30 14031 H 1339.84 2.0469 6.14822 0
M  V30 14032 N 1333.25 -1.54984 0.285932 0
M  V30 14033 C 1334.16 -2.26621 -0.606648 0
M  V30 14034 C 1335.17 -1.29595 -1.16108 0
M  V30 14035 O 1336.35 -1.62551 -1.18908 0
M  V30 14036 C 1333.41 -2.98156 -1.76929 0
M  V30 14037 C 1332.47 -4.10685 -1.25045 0
M  V30 14038 C 1331.71 -4.788 -2.35768 0
M  V30 14039 O 1331.93 -4.46183 -3.55354 0
M  V30 14040 O 1330.86 -5.66523 -2.03312 0
M  V30 14041 H 1334.69 -3.03689 -0.0259981 0
M  V30 14042 H 1332.28 -1.49306 0.0529355 0
M  V30 14043 H 1334.16 -3.43076 -2.44697 0
M  V30 14044 H 1332.83 -2.23996 -2.33683 0
M  V30 14045 H 1331.74 -3.70198 -0.538919 0
M  V30 14046 H 1333.07 -4.86778 -0.728528 0
M  V30 14047 N 1334.72 -0.0133892 -1.57594 0
M  V30 14048 C 1335.67 0.97367 -2.09257 0
M  V30 14049 C 1336.64 1.33298 -0.990998 0
M  V30 14050 O 1337.83 1.42903 -1.26425 0
M  V30 14051 C 1334.97 2.25603 -2.61147 0
M  V30 14052 C 1334.08 1.95456 -3.85254 0
M  V30 14053 C 1333.21 3.17871 -4.25596 0
M  V30 14054 C 1332.25 2.83471 -5.42504 0
M  V30 14055 N 1331.39 3.98464 -5.78075 0
M  V30 14056 H 1336.23 0.526189 -2.93318 0
M  V30 14057 H 1333.77 0.248148 -1.44992 0
M  V30 14058 H 1335.73 3.00587 -2.89315 0
M  V30 14059 H 1334.36 2.67995 -1.7994 0
M  V30 14060 H 1333.41 1.10781 -3.63912 0
M  V30 14061 H 1334.72 1.6611 -4.70328 0
M  V30 14062 H 1333.87 4.0119 -4.55117 0
M  V30 14063 H 1332.61 3.50365 -3.39257 0
M  V30 14064 H 1331.62 1.98562 -5.12692 0
M  V30 14065 H 1332.84 2.5221 -6.30529 0
M  V30 14066 H 1330.79 4.3083 -4.94694 0
M  V30 14067 H 1330.71 3.72688 -6.57753 0
M  V30 14068 H 1331.97 4.82532 -6.12195 0
M  V30 14069 N 1336.2 1.55448 0.259558 0
M  V30 14070 C 1337.45 1.7589 0.987201 0
M  V30 14071 C 1337.76 0.574951 1.86959 0
M  V30 14072 O 1338.97 0.662091 2.63303 0
M  V30 14073 C 1337.43 3.11349 1.80526 0
M  V30 14074 C 1337.03 4.37353 0.970882 0
M  V30 14075 C 1338.78 3.41136 2.5264 0
M  V30 14076 C 1336.69 5.63847 1.7841 0
M  V30 14077 H 1335.62 0.655662 0.372321 0
M  V30 14078 H 1338.27 1.81893 0.242332 0
M  V30 14079 H 1336.65 2.9942 2.5916 0
M  V30 14080 H 1337.82 4.60237 0.227763 0
M  V30 14081 H 1336.14 4.14809 0.363669 0
M  V30 14082 H 1338.73 4.32855 3.13912 0
M  V30 14083 H 1339.08 2.61879 3.23612 0
M  V30 14084 H 1339.61 3.54224 1.81026 0
M  V30 14085 H 1336.35 6.4589 1.11834 0
M  V30 14086 H 1335.87 5.45086 2.50283 0
M  V30 14087 H 1337.55 6.02641 2.35441 0
M  V30 14088 N 1337.68 -0.524672 1.4861 0
M  V30 14089 C 1338.61 -1.64481 1.59621 0
M  V30 14090 C 1339.63 -1.55557 0.480181 0
M  V30 14091 O 1340.81 -1.61921 0.751254 0
M  V30 14092 C 1337.91 -3.03158 1.51487 0
M  V30 14093 C 1337.09 -3.37509 2.78221 0
M  V30 14094 C 1336.15 -4.5549 2.63467 0
M  V30 14095 O 1335.17 -4.58448 3.37364 0
M  V30 14096 N 1336.37 -5.53986 1.73437 0
M  V30 14097 H 1339.14 -1.5547 2.56221 0
M  V30 14098 H 1336.7 -0.712059 1.45401 0
M  V30 14099 H 1338.69 -3.79969 1.39305 0
M  V30 14100 H 1337.26 -3.06219 0.628406 0
M  V30 14101 H 1336.48 -2.49824 3.04929 0
M  V30 14102 H 1337.77 -3.57246 3.62288 0
M  V30 14103 H 1337.17 -5.54378 1.12612 0
M  V30 14104 H 1335.73 -6.29993 1.6719 0
M  V30 14105 N 1339.16 -1.37287 -0.77395 0
M  V30 14106 C 1340.11 -1.32872 -1.88716 0
M  V30 14107 C 1341.08 -0.194655 -1.64955 0
M  V30 14108 O 1342.26 -0.383662 -1.86903 0
M  V30 14109 C 1339.4 -1.13934 -3.2575 0
M  V30 14110 C 1338.51 -2.36552 -3.61479 0
M  V30 14111 C 1337.65 -2.10504 -4.87711 0
M  V30 14112 C 1336.69 -3.28999 -5.16165 0
M  V30 14113 N 1335.82 -3.02517 -6.33584 0
M  V30 14114 H 1340.66 -2.28051 -1.91825 0
M  V30 14115 H 1338.2 -1.13325 -0.93786 0
M  V30 14116 H 1340.16 -1.00976 -4.04796 0
M  V30 14117 H 1338.79 -0.22404 -3.22022 0
M  V30 14118 H 1337.84 -2.60257 -2.77435 0
M  V30 14119 H 1339.15 -3.24931 -3.78446 0
M  V30 14120 H 1338.31 -1.94564 -5.74656 0
M  V30 14121 H 1337.05 -1.19459 -4.72843 0
M  V30 14122 H 1336.05 -3.4548 -4.27696 0
M  V30 14123 H 1337.28 -4.20892 -5.32942 0
M  V30 14124 H 1335.22 -2.14099 -6.20079 0
M  V30 14125 H 1335.14 -3.84439 -6.50955 0
M  V30 14126 H 1336.41 -2.9019 -7.23471 0
M  V30 14127 N 1340.64 0.999871 -1.21821 0
M  V30 14128 C 1341.59 2.0729 -0.949465 0
M  V30 14129 C 1342.57 1.60606 0.0972572 0
M  V30 14130 O 1343.76 1.76643 -0.11235 0
M  V30 14131 C 1340.89 3.39315 -0.521565 0
M  V30 14132 C 1339.98 3.92653 -1.60264 0
M  V30 14133 N 1340.37 4.19297 -2.82884 0
M  V30 14134 C 1338.67 4.20984 -1.4727 0
M  V30 14135 C 1339.37 4.62547 -3.52739 0
M  V30 14136 N 1338.34 4.65826 -2.80191 0
M  V30 14137 H 1342.15 2.25822 -1.881 0
M  V30 14138 H 1339.66 1.18102 -1.1147 0
M  V30 14139 H 1341.66 4.15743 -0.310376 0
M  V30 14140 H 1340.32 3.22187 0.403152 0
M  V30 14141 H 1341.33 4.07698 -3.19378 0
M  V30 14142 H 1338 4.12966 -0.613654 0
M  V30 14143 H 1339.39 4.91843 -4.57756 0
M  V30 14144 N 1342.11 1.02678 1.19562 0
M  V30 14145 C 1343.36 0.723086 1.89471 0
M  V30 14146 C 1343.69 -0.746269 1.79289 0
M  V30 14147 O 1342.97 -1.54322 1.18384 0
M  V30 14148 C 1343.25 1.17224 3.40486 0
M  V30 14149 C 1343.1 2.70266 3.5955 0
M  V30 14150 C 1344.42 0.751397 4.33638 0
M  V30 14151 H 1341.54 0.264155 0.688034 0
M  V30 14152 H 1344.18 1.27633 1.40747 0
M  V30 14153 H 1342.33 0.701544 3.82113 0
M  V30 14154 H 1344.01 3.25266 3.27108 0
M  V30 14155 H 1342.25 3.10758 3.02675 0
M  V30 14156 H 1342.92 2.96748 4.65451 0
M  V30 14157 H 1345.4 1.15621 3.99714 0
M  V30 14158 H 1344.27 1.09358 5.37896 0
M  V30 14159 H 1344.53 -0.346367 4.40741 0
M  V30 14160 N 1343.59 -1.35528 0.804364 0
M  V30 14161 C 1344.82 -2.03604 0.395013 0
M  V30 14162 C 1345.24 -1.60225 -0.985371 0
M  V30 14163 O 1344.6 -0.777844 -1.63766 0
M  V30 14164 C 1344.65 -3.57337 0.484011 0
M  V30 14165 O 1343.75 -4.09316 -0.503395 0
M  V30 14166 H 1343.09 -0.643089 0.165325 0
M  V30 14167 H 1345.62 -1.73171 1.08963 0
M  V30 14168 H 1345.63 -4.0647 0.353009 0
M  V30 14169 H 1344.31 -3.8826 1.49088 0
M  V30 14170 H 1342.89 -3.71412 -0.332817 0
M  V30 14171 N 1345.07 -0.557671 -1.47404 0
M  V30 14172 C 1346.3 -0.0366797 -2.07368 0
M  V30 14173 C 1346.72 1.2478 -1.40754 0
M  V30 14174 O 1346.08 1.74757 -0.48268 0
M  V30 14175 C 1346.13 0.141728 -3.60321 0
M  V30 14176 O 1345.23 1.20419 -3.94427 0
M  V30 14177 H 1344.57 -0.0515319 -0.661997 0
M  V30 14178 H 1347.1 -0.773485 -1.89416 0
M  V30 14179 H 1347.11 0.355787 -4.06446 0
M  V30 14180 H 1345.79 -0.796433 -4.08203 0
M  V30 14181 H 1344.36 0.970589 -3.60047 0
M  V30 14182 N 1346.55 1.54831 -0.294147 0
M  V30 14183 C 1347.78 2.04411 0.319938 0
M  V30 14184 C 1348.19 1.17174 1.4804 0
M  V30 14185 O 1347.55 0.195881 1.81446 0
M  V30 14186 C 1347.6 3.52924 0.782751 0
M  V30 14187 O 1347.32 4.36844 -0.331512 0
M  V30 14188 C 1348.82 4.18474 1.4627 0
M  V30 14189 H 1346.04 0.667286 0.0704973 0
M  V30 14190 H 1348.59 1.9989 -0.431785 0
M  V30 14191 H 1346.74 3.57828 1.48451 0
M  V30 14192 H 1347.16 5.24493 0.0275743 0
M  V30 14193 H 1348.63 5.23933 1.73776 0
M  V30 14194 H 1349.11 3.67793 2.40052 0
M  V30 14195 H 1349.71 4.17626 0.804291 0
M  V30 14196 N 1348.03 0.0217466 1.57585 0
M  V30 14197 C 1349.25 -0.67246 1.96196 0
M  V30 14198 C 1349.68 -1.6529 0.897827 0
M  V30 14199 O 1349.04 -1.80743 -0.142002 0
M  V30 14200 C 1349.08 -1.36162 3.33905 0
M  V30 14201 O 1348.19 -2.47671 3.29747 0
M  V30 14202 H 1347.53 -0.177238 0.639908 0
M  V30 14203 H 1350.06 0.0814073 2.04438 0
M  V30 14204 H 1350.07 -1.7201 3.69968 0
M  V30 14205 H 1348.74 -0.642893 4.10901 0
M  V30 14206 H 1347.32 -2.13989 3.0539 0
M  V30 14207 N 1349.51 -1.55583 -0.251311 0
M  V30 14208 C 1350.73 -1.81597 -1.00186 0
M  V30 14209 C 1351.16 -0.598216 -1.78334 0
M  V30 14210 O 1350.51 0.452667 -1.75558 0
M  V30 14211 C 1350.56 -3.05301 -1.91895 0
M  V30 14212 O 1349.67 -2.81907 -3.01002 0
M  V30 14213 H 1349.01 -0.599578 -0.285311 0
M  V30 14214 H 1351.54 -2.02762 -0.273638 0
M  V30 14215 H 1351.55 -3.34616 -2.33444 0
M  V30 14216 H 1350.22 -3.93574 -1.34433 0
M  V30 14217 H 1348.8 -2.63747 -2.63613 0
M  V30 14218 N 1350.98 0.516783 -1.48886 0
M  V30 14219 C 1352.21 1.30103 -1.61518 0
M  V30 14220 C 1352.63 1.85996 -0.28055 0
M  V30 14221 O 1351.99 1.65075 0.749671 0
M  V30 14222 C 1352.04 2.41837 -2.67483 0
M  V30 14223 O 1351.14 3.45249 -2.25559 0
M  V30 14224 H 1350.48 0.384774 -0.541152 0
M  V30 14225 H 1353.01 0.620424 -1.94966 0
M  V30 14226 H 1353.02 2.87832 -2.89165 0
M  V30 14227 H 1351.7 2.00519 -3.64369 0
M  V30 14228 H 1350.28 3.05281 -2.14144 0
M  V30 14229 N 1352.46 1.37696 0.766659 0
M  V30 14230 C 1353.71 1.33185 1.52539 0
M  V30 14231 C 1354.04 -0.0821239 1.94327 0
M  V30 14232 O 1353.29 -1.05645 1.64735 0
M  V30 14233 C 1353.59 2.22154 2.79968 0
M  V30 14234 C 1353.26 3.70344 2.57208 0
M  V30 14235 C 1351.92 4.10729 2.50709 0
M  V30 14236 C 1354.27 4.64205 2.36988 0
M  V30 14237 C 1351.6 5.43082 2.21988 0
M  V30 14238 C 1353.95 5.96801 2.0979 0
M  V30 14239 C 1352.61 6.36284 2.01739 0
M  V30 14240 H 1351.88 0.487357 0.558179 0
M  V30 14241 H 1354.53 1.69945 0.882662 0
M  V30 14242 H 1352.84 1.78406 3.48825 0
M  V30 14243 H 1354.53 2.15975 3.37869 0
M  V30 14244 H 1351.12 3.38319 2.63131 0
M  V30 14245 H 1355.31 4.3386 2.40996 0
M  V30 14246 H 1350.56 5.7263 2.14254 0
M  V30 14247 H 1354.74 6.6908 1.93145 0
M  V30 14248 H 1352.36 7.38765 1.79248 0
M  V30 14249 N 1353.94 -0.993397 1.22349 0
M  V30 14250 C 1354.87 -2.10171 1.01737 0
M  V30 14251 C 1355.85 -1.69989 -0.0615276 0
M  V30 14252 O 1357.04 -1.93939 0.100591 0
M  V30 14253 C 1354.17 -3.42186 0.593801 0
M  V30 14254 C 1353.12 -3.96215 1.61858 0
M  V30 14255 C 1352.45 -5.24272 1.05086 0
M  V30 14256 C 1353.75 -4.26956 3.00842 0
M  V30 14257 H 1355.44 -2.27673 1.94436 0
M  V30 14258 H 1352.99 -1.09408 0.936258 0
M  V30 14259 H 1354.94 -4.19131 0.436715 0
M  V30 14260 H 1353.66 -3.2451 -0.368855 0
M  V30 14261 H 1352.32 -3.21401 1.76343 0
M  V30 14262 H 1351.97 -5.02937 0.0795747 0
M  V30 14263 H 1351.67 -5.61387 1.73547 0
M  V30 14264 H 1353.19 -6.03851 0.905349 0
M  V30 14265 H 1354.61 -4.94699 2.89734 0
M  V30 14266 H 1353 -4.75242 3.66422 0
M  V30 14267 H 1354.07 -3.34752 3.50812 0
M  V30 14268 N 1355.42 -1.03311 -1.19015 0
M  V30 14269 C 1356.33 -0.627735 -2.26046 0
M  V30 14270 C 1357.34 0.342483 -1.70596 0
M  V30 14271 O 1358.52 0.199307 -2.00411 0
M  V30 14272 C 1355.58 0.0108274 -3.46698 0
M  V30 14273 C 1354.65 -1.00743 -4.17312 0
M  V30 14274 C 1353.88 -0.399245 -5.32205 0
M  V30 14275 O 1354.1 0.796649 -5.64809 0
M  V30 14276 O 1353.04 -1.12419 -5.91308 0
M  V30 14277 H 1356.86 -1.51923 -2.6297 0
M  V30 14278 H 1354.45 -0.803538 -1.25951 0
M  V30 14279 H 1356.33 0.366672 -4.19802 0
M  V30 14280 H 1355 0.876265 -3.11614 0
M  V30 14281 H 1353.91 -1.41494 -3.4631 0
M  V30 14282 H 1355.24 -1.84338 -4.56377 0
M  V30 14283 N 1356.9 1.35099 -0.81154 0
M  V30 14284 C 1358.14 1.9892 -0.394815 0
M  V30 14285 C 1358.47 1.6422 1.0366 0
M  V30 14286 O 1357.75 0.908031 1.72003 0
M  V30 14287 C 1358.03 3.55331 -0.58413 0
M  V30 14288 C 1357.89 3.99812 -2.06084 0
M  V30 14289 C 1359.2 4.40098 -0.0129096 0
M  V30 14290 H 1356.32 0.72261 -0.144926 0
M  V30 14291 H 1358.97 1.60173 -1.02199 0
M  V30 14292 H 1357.12 3.88468 -0.0502446 0
M  V30 14293 H 1358.79 3.77061 -2.65749 0
M  V30 14294 H 1357.03 3.50539 -2.55548 0
M  V30 14295 H 1357.7 5.08655 -2.14416 0
M  V30 14296 H 1360.18 4.13449 -0.468917 0
M  V30 14297 H 1359.05 5.4862 -0.175252 0
M  V30 14298 H 1359.31 4.28675 1.0812 0
M  V30 14299 O 1358.41 0.706436 1.4523 0
M  V30 14300 H 1359.1 0.248661 1.92097 0
M  V30 END ATOM
M  V30 BEGIN BOND
M  V30 END BOND
M  V30 END CTAB
M  END
$$$$
