drugbank_target|P00352 Retinal dehydrogenase 1 (DB00157; DB00162; DB00755; DB04447)
 OpenBabel12092119343D

  0  0  0     0  0            999 V3000
M  V30 BEGIN CTAB
M  V30 COUNTS 7718 7801 0 0 0
M  V30 BEGIN ATOM
M  V30 1 H -0.908 1.98254 -0.117106 0
M  V30 2 N 0 1.576 0 0
M  V30 3 C 0.933 2.03868 1.02534 0
M  V30 4 C 1.911 0.928543 1.3348 0
M  V30 5 O 3.095 1.19667 1.45644 0
M  V30 6 C 0.222 2.43627 2.35294 0
M  V30 7 C -0.732 3.65373 2.2001 0
M  V30 8 S 0.101 5.13292 1.52614 0
M  V30 9 C 1.257 5.56322 2.86805 0
M  V30 10 H 1.49 2.90518 0.631377 0
M  V30 11 H -0.977 1.52953 0.210867 0
M  V30 12 H 0.981 2.67203 3.11629 0
M  V30 13 H -0.358 1.57376 2.7183 0
M  V30 14 H -1.165 3.90944 3.18086 0
M  V30 15 H -1.563 3.418 1.51819 0
M  V30 16 H 0.729 5.58782 3.83104 0
M  V30 17 H 1.672 6.56266 2.65933 0
M  V30 18 H 2.08 4.83886 2.90714 0
M  V30 19 N 1.4781 -0.272755 1.55222 0
M  V30 20 C 2.7031 -1.02683 1.80197 0
M  V30 21 C 3.1281 -1.79142 0.573551 0
M  V30 22 O 2.4861 -1.74917 -0.476849 0
M  V30 23 C 2.5341 -1.9609 3.02624 0
M  V30 24 O 1.6381 -3.04863 2.77727 0
M  V30 25 H 0.9791 -0.293557 0.595584 0
M  V30 26 H 3.5091 -0.30159 2.02365 0
M  V30 27 H 3.5191 -2.38039 3.31363 0
M  V30 28 H 2.1941 -1.39851 3.91682 0
M  V30 29 H 0.7711 -2.67228 2.60084 0
M  V30 30 N 2.9562 -1.48159 -0.537278 0
M  V30 31 C 4.1812 -1.59707 -1.32319 0
M  V30 32 C 4.6062 -0.254859 -1.86365 0
M  V30 33 O 3.9642 0.772378 -1.64024 0
M  V30 34 C 4.0122 -2.6412 -2.45505 0
M  V30 35 O 3.1162 -2.20774 -3.48328 0
M  V30 36 H 2.4572 -0.535791 -0.392204 0
M  V30 37 H 4.9872 -1.94092 -0.647268 0
M  V30 38 H 4.9972 -2.85166 -2.91795 0
M  V30 39 H 3.6722 -3.61567 -2.05528 0
M  V30 40 H 2.2492 -2.09911 -3.08207 0
M  V30 41 N 4.4343 0.785586 -1.36625 0
M  V30 42 C 5.6593 1.57963 -1.34397 0
M  V30 43 C 6.0843 1.87964 0.071526 0
M  V30 44 O 5.4423 1.48182 1.0446 0
M  V30 45 C 5.4903 2.87511 -2.17646 0
M  V30 46 O 4.5943 3.81281 -1.57158 0
M  V30 47 H 3.9353 0.479014 -0.459828 0
M  V30 48 H 6.4653 0.973411 -1.79961 0
M  V30 49 H 6.4753 3.36745 -2.30362 0
M  V30 50 H 5.1503 2.65002 -3.20541 0
M  V30 51 H 3.7273 3.39885 -1.53403 0
M  V30 52 N 5.9124 1.20967 1.01018 0
M  V30 53 C 7.1604 1.02172 1.74371 0
M  V30 54 C 7.4814 -0.446414 1.89821 0
M  V30 55 O 6.7514 -1.32234 1.44537 0
M  V30 56 H 5.3314 0.375066 0.646014 0
M  V30 57 H 7.9934 1.52187 1.21758 0
M  V30 58 H 7.0894 1.48538 2.74487 0
M  V30 59 N 7.3905 -1.2043 1.01659 0
M  V30 60 C 8.6185 -1.93777 0.725132 0
M  V30 61 C 9.0335 -1.74772 -0.714166 0
M  V30 62 O 8.3905 -1.06169 -1.4844 0
M  V30 63 C 8.4415 -3.45876 1.05129 0
M  V30 64 O 8.1625 -3.6426 2.43406 0
M  V30 65 C 9.6635 -4.36368 0.780891 0
M  V30 66 H 6.8835 -0.615901 0.266284 0
M  V30 67 H 9.4275 -1.52922 1.35776 0
M  V30 68 H 7.5825 -3.8461 0.464065 0
M  V30 69 H 7.9965 -4.58246 2.55169 0
M  V30 70 H 9.4705 -5.41743 1.05918 0
M  V30 71 H 9.9475 -4.38275 -0.284937 0
M  V30 72 H 10.5535 -4.03296 1.35027 0
M  V30 73 N 8.8686 -0.792821 -1.36206 0
M  V30 74 C 10.2796 -0.429513 -1.81692 0
M  V30 75 C 10.6306 1.04695 -1.65932 0
M  V30 76 O 9.7556 1.81256 -1.18218 0
M  V30 77 C 10.3506 -0.772831 -3.29868 0
M  V30 78 C 8.9096 -0.462307 -3.7355 0
M  V30 79 C 8.0566 -1.00569 -2.5842 0
M  V30 80 H 11.0076 -0.985672 -1.24379 0
M  V30 81 H 11.0286 -0.0651928 -3.80444 0
M  V30 82 H 10.5406 -1.84747 -3.41307 0
M  V30 83 H 8.6416 0.604158 -3.67669 0
M  V30 84 H 8.7546 -0.985299 -4.68859 0
M  V30 85 H 7.1186 -0.428734 -2.51066 0
M  V30 86 H 7.9016 -2.08616 -2.72643 0
M  V30 87 N 10.3467 1.47872 -0.545128 0
M  V30 88 C 11.6237 1.9554 0.0485222 0
M  V30 89 C 12.0037 1.4876 1.49779 0
M  V30 90 O 11.3517 0.720925 2.16829 0
M  V30 91 C 11.5617 3.48898 -0.084417 0
M  V30 92 C 12.9097 4.24547 0.0671239 0
M  V30 93 O 13.9337 3.56198 -0.0113649 0
M  V30 94 O 12.7927 5.45999 0.233882 0
M  V30 95 H 9.8867 0.823957 0.0708773 0
M  V30 96 H 12.4327 1.58327 -0.610798 0
M  V30 97 H 11.2047 3.75714 -1.09337 0
M  V30 98 H 10.8277 3.92845 0.613066 0
M  V30 99 N 11.8248 0.280983 1.55075 0
M  V30 100 C 12.7548 -0.597469 2.25727 0
M  V30 101 C 13.7358 -1.15417 1.24952 0
M  V30 102 O 14.9208 -1.18722 1.53684 0
M  V30 103 C 12.0508 -1.7789 2.98283 0
M  V30 104 C 11.0048 -1.35347 4.06036 0
M  V30 105 C 10.3308 -2.61846 4.66198 0
M  V30 106 C 11.6308 -0.499354 5.19907 0
M  V30 107 H 13.3248 -0.00824265 2.99399 0
M  V30 108 H 10.8708 -0.0025244 1.44 0
M  V30 109 H 12.8238 -2.39937 3.46422 0
M  V30 110 H 11.5478 -2.39405 2.22155 0
M  V30 111 H 10.2068 -0.756156 3.58717 0
M  V30 112 H 9.8548 -3.21632 3.86732 0
M  V30 113 H 9.5548 -2.3409 5.38958 0
M  V30 114 H 11.0788 -3.24732 5.1709 0
M  V30 115 H 12.4928 -1.02498 5.64063 0
M  V30 116 H 10.8898 -0.316424 5.99265 0
M  V30 117 H 11.9598 0.480459 4.82514 0
M  V30 118 N 13.3029 -1.57598 0.00835791 0
M  V30 119 C 14.7139 -1.7892 -0.53333 0
M  V30 120 C 15.0649 -0.916609 -1.73473 0
M  V30 121 O 14.1899 -0.121336 -2.1606 0
M  V30 122 C 14.7849 -3.24488 -0.974313 0
M  V30 123 C 13.3439 -3.46878 -1.46125 0
M  V30 124 C 12.4909 -2.74157 -0.416302 0
M  V30 125 H 15.4419 -1.56958 0.234495 0
M  V30 126 H 15.4629 -3.3306 -1.83988 0
M  V30 127 H 14.9749 -3.87972 -0.099718 0
M  V30 128 H 13.0759 -2.8862 -2.35646 0
M  V30 129 H 13.1889 -4.55572 -1.48295 0
M  V30 130 H 11.5529 -2.39022 -0.87981 0
M  V30 131 H 12.3359 -3.40345 0.44947 0
M  V30 132 N 14.781 0.264519 -1.55364 0
M  V30 133 C 16.027 0.99646 -1.76631 0
M  V30 134 C 16.36 1.85632 -0.570478 0
M  V30 135 O 15.635 1.89647 0.43175 0
M  V30 136 C 15.918 1.87187 -3.07625 0
M  V30 137 C 15.771 1.04138 -4.37579 0
M  V30 138 C 17.09 2.85749 -3.34717 0
M  V30 139 H 14.209 0.360841 -0.642622 0
M  V30 140 H 16.851 0.268218 -1.88097 0
M  V30 141 H 15.001 2.49279 -2.9798 0
M  V30 142 H 16.673 0.440517 -4.59192 0
M  V30 143 H 14.916 0.345115 -4.32425 0
M  V30 144 H 15.587 1.68729 -5.2558 0
M  V30 145 H 18.063 2.33793 -3.4421 0
M  V30 146 H 16.939 3.44136 -4.27623 0
M  V30 147 H 17.2 3.61311 -2.54768 0
M  V30 148 N 16.2591 1.48442 0.529413 0
M  V30 149 C 17.1891 1.65902 1.64313 0
M  V30 150 C 18.1701 0.507897 1.6234 0
M  V30 151 O 19.3551 0.740503 1.79528 0
M  V30 152 C 16.4851 1.69911 3.02898 0
M  V30 153 C 15.4391 2.8453 3.19729 0
M  V30 154 C 14.7651 2.73629 4.59381 0
M  V30 155 C 16.0651 4.25821 3.02447 0
M  V30 156 H 17.7591 2.5914 1.49955 0
M  V30 157 H 15.3051 1.24709 0.719982 0
M  V30 158 H 17.2581 1.80715 3.80684 0
M  V30 159 H 15.9821 0.732524 3.18279 0
M  V30 160 H 14.6411 2.73283 2.44361 0
M  V30 161 H 14.2891 1.74938 4.71599 0
M  V30 162 H 13.9891 3.50541 4.71588 0
M  V30 163 H 15.5131 2.86401 5.39265 0
M  V30 164 H 16.9271 4.37898 3.70024 0
M  V30 165 H 15.3241 5.03735 3.26146 0
M  V30 166 H 16.3941 4.42244 1.98867 0
M  V30 167 N 17.7372 -0.778329 1.37039 0
M  V30 168 C 18.6672 -1.90546 1.34962 0
M  V30 169 C 19.6482 -1.68681 0.219274 0
M  V30 170 O 20.8332 -1.89634 0.418624 0
M  V30 171 C 17.9632 -3.27734 1.14925 0
M  V30 172 C 16.9172 -3.64147 2.24902 0
M  V30 173 C 16.2432 -4.99806 1.89996 0
M  V30 174 C 17.5432 -3.71579 3.67051 0
M  V30 175 H 19.2372 -1.92541 2.29277 0
M  V30 176 H 16.7832 -0.924948 1.10366 0
M  V30 177 H 18.7362 -4.06215 1.12104 0
M  V30 178 H 17.4602 -3.26154 0.170631 0
M  V30 179 H 16.1192 -2.8797 2.26868 0
M  V30 180 H 15.7672 -4.94759 0.906796 0
M  V30 181 H 15.4672 -5.25139 2.63634 0
M  V30 182 H 16.9912 -5.80694 1.88749 0
M  V30 183 H 18.4052 -4.40227 3.67251 0
M  V30 184 H 16.8022 -4.08405 4.39688 0
M  V30 185 H 17.8722 -2.72404 4.01154 0
M  V30 186 N 19.2153 -1.21501 -1.00376 0
M  V30 187 C 20.4433 -1.059 -1.77744 0
M  V30 188 C 20.8583 0.391125 -1.84704 0
M  V30 189 O 20.2153 1.27133 -1.30933 0
M  V30 190 C 20.2663 -1.65111 -3.21591 0
M  V30 191 O 19.9873 -3.0445 -3.15027 0
M  V30 192 C 21.4883 -1.54637 -4.15454 0
M  V30 193 H 18.7083 -0.371825 -0.558558 0
M  V30 194 H 21.2523 -1.60865 -1.26264 0
M  V30 195 H 19.4073 -1.14235 -3.70175 0
M  V30 196 H 19.8213 -3.3278 -4.0541 0
M  V30 197 H 21.2953 -2.00808 -5.14179 0
M  V30 198 H 21.7723 -0.501022 -4.36333 0
M  V30 199 H 22.3783 -2.04767 -3.72761 0
M  V30 200 N 20.6934 1.19889 -1.02296 0
M  V30 201 C 21.9704 1.85148 -0.630832 0
M  V30 202 C 22.3504 1.91385 0.890782 0
M  V30 203 O 21.6984 1.42642 1.78509 0
M  V30 204 C 21.9084 3.24442 -1.28602 0
M  V30 205 C 23.2564 4.00663 -1.4055 0
M  V30 206 O 24.2804 3.33818 -1.24273 0
M  V30 207 O 23.1394 5.20387 -1.66913 0
M  V30 208 H 20.2334 0.797613 -0.218499 0
M  V30 209 H 22.7794 1.27427 -1.12074 0
M  V30 210 H 21.5514 3.14704 -2.32545 0
M  V30 211 H 21.1744 3.89802 -0.7836 0
M  V30 212 N 22.1715 0.800033 1.35784 0
M  V30 213 C 23.1015 0.220184 2.3246 0
M  V30 214 C 24.0825 -0.65073 1.57161 0
M  V30 215 O 25.2675 -0.582359 1.85263 0
M  V30 216 C 22.3975 -0.637353 3.41402 0
M  V30 217 C 21.3515 0.134531 4.27789 0
M  V30 218 C 20.6775 -0.844285 5.27992 0
M  V30 219 C 21.9775 1.32979 5.05088 0
M  V30 220 H 23.6715 1.02787 2.81203 0
M  V30 221 H 21.2175 0.495717 1.35199 0
M  V30 222 H 23.1705 -1.05302 4.08031 0
M  V30 223 H 21.8945 -1.47785 2.91251 0
M  V30 224 H 20.5535 0.531296 3.6273 0
M  V30 225 H 20.2015 -1.68011 4.74111 0
M  V30 226 H 19.9015 -0.332184 5.8666 0
M  V30 227 H 21.4255 -1.2583 5.97494 0
M  V30 228 H 22.8395 0.98934 5.64699 0
M  V30 229 H 21.2365 1.77593 5.7322 0
M  V30 230 H 22.3065 2.11978 4.36111 0
M  V30 231 N 23.6496 -1.47581 0.552962 0
M  V30 232 C 24.5966 -2.29957 -0.197108 0
M  V30 233 C 25.5666 -1.38799 -0.912359 0
M  V30 234 O 26.7516 -1.67761 -0.908888 0
M  V30 235 C 23.8916 -3.22672 -1.22379 0
M  V30 236 C 23.0046 -4.28919 -0.515038 0
M  V30 237 C 22.1396 -5.0879 -1.52664 0
M  V30 238 C 21.1786 -6.06815 -0.802631 0
M  V30 239 N 20.3156 -6.7966 -1.76086 0
M  V30 240 H 25.1556 -2.93578 0.511486 0
M  V30 241 H 22.6926 -1.4471 0.264067 0
M  V30 242 H 24.6506 -3.74845 -1.83159 0
M  V30 243 H 23.2806 -2.60925 -1.90047 0
M  V30 244 H 22.3326 -3.79835 0.207192 0
M  V30 245 H 23.6446 -4.98773 0.0523425 0
M  V30 246 H 22.7986 -5.65091 -2.20809 0
M  V30 247 H 21.5376 -4.38828 -2.12794 0
M  V30 248 H 20.5426 -5.49695 -0.107238 0
M  V30 249 H 21.7676 -6.78784 -0.207135 0
M  V30 250 H 19.7136 -6.12432 -2.35081 0
M  V30 251 H 19.6306 -7.45669 -1.24552 0
M  V30 252 H 20.8986 -7.40538 -2.43359 0
M  V30 253 N 25.1277 -0.289203 -1.54924 0
M  V30 254 C 26.3767 0.324231 -1.99077 0
M  V30 255 C 26.6897 1.5591 -1.18117 0
M  V30 256 O 27.8957 2.24637 -1.52481 0
M  V30 257 C 26.3517 0.628209 -3.54375 0
M  V30 258 C 25.9597 -0.587647 -4.44129 0
M  V30 259 C 27.7037 1.20349 -4.07083 0
M  V30 260 C 25.6107 -0.257475 -5.90839 0
M  V30 261 H 24.5407 0.124924 -0.743579 0
M  V30 262 H 27.1917 -0.396063 -1.79175 0
M  V30 263 H 25.5737 1.40778 -3.70132 0
M  V30 264 H 26.7477 -1.36418 -4.40144 0
M  V30 265 H 25.0627 -1.08074 -4.0213 0
M  V30 266 H 27.6597 1.46456 -5.14252 0
M  V30 267 H 28.0027 2.14195 -3.56968 0
M  V30 268 H 28.5357 0.485889 -3.94821 0
M  V30 269 H 25.2747 -1.16419 -6.45079 0
M  V30 270 H 24.7947 0.482018 -5.9786 0
M  V30 271 H 26.4737 0.145238 -6.46837 0
M  V30 272 N 26.6058 1.57591 -0.0167156 0
M  V30 273 C 27.5378 2.06343 0.997753 0
M  V30 274 C 28.5508 0.984469 1.29661 0
M  V30 275 O 29.7398 1.26093 1.26344 0
M  V30 276 C 26.8398 2.46255 2.32834 0
M  V30 277 C 26.0128 3.77083 2.21646 0
M  V30 278 C 25.0718 4.0368 3.37534 0
M  V30 279 O 24.0978 4.7411 3.14973 0
M  V30 280 N 25.2998 3.52881 4.60929 0
M  V30 281 H 28.0648 2.93997 0.581875 0
M  V30 282 H 25.6258 1.61002 0.170316 0
M  V30 283 H 27.6178 2.61149 3.09166 0
M  V30 284 H 26.1878 1.64032 2.66106 0
M  V30 285 H 25.4078 3.72106 1.30119 0
M  V30 286 H 26.6958 4.62822 2.11361 0
M  V30 287 H 26.0938 2.95878 4.82154 0
M  V30 288 H 24.6508 3.73076 5.34469 0
M  V30 289 N 28.0839 -0.256276 1.55502 0
M  V30 290 C 29.3139 -1.00196 1.80677 0
M  V30 291 C 29.7219 -1.79805 0.588797 0
M  V30 292 O 29.0649 -1.78055 -0.451883 0
M  V30 293 C 29.1269 -1.99515 2.99055 0
M  V30 294 C 28.7909 -1.38688 4.35448 0
M  V30 295 C 29.7879 -0.794079 5.138 0
M  V30 296 C 27.4729 -1.40906 4.82132 0
M  V30 297 C 29.4669 -0.231562 6.36979 0
M  V30 298 C 27.1539 -0.842684 6.05262 0
M  V30 299 C 28.1519 -0.254953 6.82524 0
M  V30 300 O 27.8399 0.3027 8.0333 0
M  V30 301 H 27.5719 -0.300919 0.60533 0
M  V30 302 H 30.1259 -0.287307 2.03381 0
M  V30 303 H 28.3559 -2.74785 2.72084 0
M  V30 304 H 30.0449 -2.60349 3.11405 0
M  V30 305 H 30.8109 -0.769519 4.78856 0
M  V30 306 H 26.6899 -1.85591 4.21992 0
M  V30 307 H 30.2339 0.227816 6.97228 0
M  V30 308 H 26.1309 -0.86454 6.39684 0
M  V30 309 H 26.8989 0.193662 8.18271 0
M  V30 310 N 29.562 -1.4872 -0.521534 0
M  V30 311 C 30.79 -1.60843 -1.30142 0
M  V30 312 C 31.205 -0.271897 -1.86832 0
M  V30 313 O 30.562 0.739969 -1.66825 0
M  V30 314 C 30.613 -2.66155 -2.4463 0
M  V30 315 O 30.334 -3.94623 -1.90275 0
M  V30 316 C 31.835 -2.88795 -3.36322 0
M  V30 317 H 29.055 -0.542075 -0.395468 0
M  V30 318 H 31.599 -1.94609 -0.628285 0
M  V30 319 H 29.754 -2.35224 -3.07812 0
M  V30 320 H 30.168 -4.52468 -2.65279 0
M  V30 321 H 31.642 -3.66264 -4.12983 0
M  V30 322 H 32.119 -1.97934 -3.9207 0
M  V30 323 H 32.725 -3.21063 -2.78924 0
M  V30 324 N 31.0401 0.771051 -1.3745 0
M  V30 325 C 31.9871 1.88435 -1.3327 0
M  V30 326 C 32.9571 1.64914 -0.198136 0
M  V30 327 O 34.1421 1.86821 -0.387606 0
M  V30 328 C 31.2821 3.25509 -1.14622 0
M  V30 329 C 30.3951 3.60979 -2.37314 0
M  V30 330 C 29.5301 4.87265 -2.11533 0
M  V30 331 C 28.5691 5.15469 -3.30088 0
M  V30 332 N 27.7061 6.32944 -3.03853 0
M  V30 333 H 32.5461 1.91344 -2.28455 0
M  V30 334 H 30.0831 0.935466 -1.13523 0
M  V30 335 H 32.0411 4.04582 -1.01831 0
M  V30 336 H 30.6711 3.21974 -0.230837 0
M  V30 337 H 29.7231 2.76885 -2.60842 0
M  V30 338 H 31.0351 3.77759 -3.25729 0
M  V30 339 H 30.1891 5.74244 -1.95777 0
M  V30 340 H 28.9281 4.7259 -1.20457 0
M  V30 341 H 27.9331 4.26966 -3.46382 0
M  V30 342 H 29.1581 5.32052 -4.22016 0
M  V30 343 H 27.1041 6.19625 -2.15407 0
M  V30 344 H 27.0211 6.50143 -3.85812 0
M  V30 345 H 28.2891 7.22857 -2.91716 0
M  V30 346 N 32.5182 1.22032 0.997298 0
M  V30 347 C 33.7672 1.03637 1.73038 0
M  V30 348 C 34.0802 -0.429475 1.90827 0
M  V30 349 O 35.2862 -0.732995 2.61418 0
M  V30 350 C 33.7422 1.80582 3.11317 0
M  V30 351 C 33.3502 3.31387 3.01474 0
M  V30 352 C 35.0942 1.70621 3.88701 0
M  V30 353 C 33.0012 4.00791 4.3488 0
M  V30 354 H 31.9312 0.384179 0.648785 0
M  V30 355 H 34.5822 1.4584 1.11368 0
M  V30 356 H 32.9642 1.31175 3.73643 0
M  V30 357 H 34.1382 3.88155 2.4834 0
M  V30 358 H 32.4532 3.41976 2.37575 0
M  V30 359 H 35.0502 2.19799 4.87434 0
M  V30 360 H 35.3932 0.665823 4.10941 0
M  V30 361 H 35.9262 2.17547 3.33044 0
M  V30 362 H 32.6652 5.05064 4.1784 0
M  V30 363 H 32.1852 3.48811 4.87945 0
M  V30 364 H 33.8642 4.06139 5.03647 0
M  V30 365 N 33.9963 -1.19345 1.0293 0
M  V30 366 C 35.2433 -1.89038 0.726008 0
M  V30 367 C 35.5713 -1.79649 -0.745427 0
M  V30 368 O 34.8263 -1.18354 -1.55855 0
M  V30 369 C 35.1253 -3.39292 1.12319 0
M  V30 370 C 34.7913 -3.68885 2.59297 0
M  V30 371 C 33.4533 -3.76671 2.99453 0
M  V30 372 C 35.8053 -3.82178 3.54386 0
M  V30 373 C 33.1333 -3.9522 4.33611 0
M  V30 374 C 35.4853 -4.0224 4.88248 0
M  V30 375 C 34.1493 -4.08259 5.28092 0
M  V30 376 H 33.4193 -0.691739 0.265665 0
M  V30 377 H 36.0663 -1.41328 1.29223 0
M  V30 378 H 34.3713 -3.88903 0.475584 0
M  V30 379 H 36.0683 -3.91536 0.866037 0
M  V30 380 H 32.6583 -3.63433 2.27189 0
M  V30 381 H 36.8423 -3.75505 3.24514 0
M  V30 382 H 32.0983 -3.98119 4.64016 0
M  V30 383 H 36.2723 -4.11468 5.61843 0
M  V30 384 H 33.8993 -4.22384 6.32057 0
M  V30 385 N 35.4744 -0.807222 -1.35358 0
M  V30 386 C 36.7234 -0.384376 -1.98004 0
M  V30 387 C 37.0364 1.0543 -1.64754 0
M  V30 388 O 38.2424 1.58029 -2.20769 0
M  V30 389 C 36.6984 -0.636326 -3.5423 0
M  V30 390 C 36.3064 -2.08759 -3.96388 0
M  V30 391 C 38.0504 -0.278869 -4.23583 0
M  V30 392 C 35.9574 -2.28525 -5.45463 0
M  V30 393 H 34.8874 -0.139986 -0.740891 0
M  V30 394 H 37.5384 -0.991369 -1.54415 0
M  V30 395 H 35.9204 0.0406256 -3.95979 0
M  V30 396 H 37.0944 -2.8024 -3.6579 0
M  V30 397 H 35.4094 -2.40497 -3.39926 0
M  V30 398 H 38.0064 -0.404599 -5.33167 0
M  V30 399 H 38.3494 0.775012 -4.09022 0
M  V30 400 H 38.8824 -0.909764 -3.87257 0
M  V30 401 H 35.6214 -3.32361 -5.64992 0
M  V30 402 H 35.1414 -1.61569 -5.77629 0
M  V30 403 H 36.8204 -2.10109 -6.11934 0
M  V30 404 N 36.9525 1.47285 -0.560781 0
M  V30 405 C 37.9005 2.31756 0.197942 0
M  V30 406 C 38.8945 1.43146 0.905854 0
M  V30 407 O 40.1005 1.59891 0.826733 0
M  V30 408 H 36.4755 0.747438 0.0827049 0
M  V30 409 H 38.4465 2.9359 -0.533629 0
M  V30 410 C 37.1955 3.25874 1.21249 0
M  V30 411 H 36.5185 3.94023 0.67719 0
M  V30 412 H 37.9585 3.87803 1.71419 0
M  V30 413 C 36.4175 2.49651 2.26221 0
M  V30 414 O 36.9475 2.24355 3.33208 0
M  V30 415 N 35.1535 2.10597 2.00243 0
M  V30 416 H 34.7005 2.31369 1.13252 0
M  V30 417 H 34.6585 1.59913 2.70694 0
M  V30 418 N 38.4306 0.297415 1.54768 0
M  V30 419 C 39.3786 -0.596051 2.24833 0
M  V30 420 C 40.3726 -1.13992 1.25308 0
M  V30 421 O 41.5786 -1.09098 1.4317 0
M  V30 422 H 37.9536 -0.210814 0.721846 0
M  V30 423 H 39.9246 0.0174667 2.98395 0
M  V30 424 C 38.6736 -1.75818 2.99972 0
M  V30 425 H 37.9966 -1.3489 3.76357 0
M  V30 426 H 39.4366 -2.35949 3.52284 0
M  V30 427 C 37.8956 -2.66014 2.06732 0
M  V30 428 O 38.4256 -3.67009 1.63302 0
M  V30 429 N 36.6316 -2.33669 1.72763 0
M  V30 430 H 36.1786 -1.51586 2.08277 0
M  V30 431 H 36.1366 -2.94285 1.10652 0
M  V30 432 N 39.9087 -1.5758 0.0250728 0
M  V30 433 C 40.8187 -2.1343 -0.973905 0
M  V30 434 C 41.8347 -1.08556 -1.35984 0
M  V30 435 O 43.0107 -1.40592 -1.44207 0
M  V30 436 C 40.0757 -2.64703 -2.23904 0
M  V30 437 C 39.1367 -3.84276 -1.91391 0
M  V30 438 C 38.3697 -4.33095 -3.11873 0
M  V30 439 O 38.5927 -3.81107 -4.24398 0
M  V30 440 O 37.5267 -5.24984 -2.94406 0
M  V30 441 H 41.3527 -2.99057 -0.529036 0
M  V30 442 H 38.9377 -1.48118 -0.195288 0
M  V30 443 H 40.8197 -2.97769 -2.98181 0
M  V30 444 H 39.4947 -1.82161 -2.6758 0
M  V30 445 H 38.4017 -3.56143 -1.14511 0
M  V30 446 H 39.7347 -4.67968 -1.52534 0
M  V30 447 N 41.3868 0.248026 -1.55636 0
M  V30 448 C 42.6328 0.973427 -1.78594 0
M  V30 449 C 42.9878 1.83007 -0.593823 0
M  V30 450 O 42.2808 1.87097 0.412961 0
M  V30 451 C 42.4748 1.86819 -3.04686 0
M  V30 452 C 42.3038 1.09965 -4.36048 0
M  V30 453 C 41.0738 0.805204 -4.98843 0
M  V30 454 C 43.2718 0.477783 -5.12076 0
M  V30 455 N 41.2538 0.0124859 -6.13899 0
M  V30 456 C 42.6248 -0.179565 -6.1974 0
M  V30 457 C 44.6798 0.388136 -4.96385 0
M  V30 458 C 43.3828 -0.91795 -7.13419 0
M  V30 459 C 45.4088 -0.336716 -5.90441 0
M  V30 460 C 44.7708 -0.982705 -6.97511 0
M  V30 461 H 40.8698 0.337348 -0.705493 0
M  V30 462 H 43.4538 0.24667 -1.93131 0
M  V30 463 H 41.6248 2.56698 -2.9148 0
M  V30 464 H 43.3568 2.52907 -3.15944 0
M  V30 465 H 40.1118 1.11671 -4.60246 0
M  V30 466 H 40.5358 -0.371933 -6.75978 0
M  V30 467 H 45.1778 0.873237 -4.13684 0
M  V30 468 H 42.8958 -1.41466 -7.95621 0
M  V30 469 H 46.4818 -0.406731 -5.80377 0
M  V30 470 H 45.3618 -1.53464 -7.69037 0
M  V30 471 N 42.8649 1.48995 0.513639 0
M  V30 472 C 43.8149 1.61127 1.61314 0
M  V30 473 C 44.7989 0.467521 1.53958 0
M  V30 474 O 45.9909 0.719826 1.61702 0
M  V30 475 C 43.1199 1.66937 2.99978 0
M  V30 476 C 42.2059 2.86847 3.12377 0
M  V30 477 N 42.5969 4.11078 2.94701 0
M  V30 478 C 40.8949 2.84521 3.43459 0
M  V30 479 C 41.5959 4.91615 3.10949 0
M  V30 480 N 40.5719 4.24739 3.3926 0
M  V30 481 H 44.3739 2.54909 1.46282 0
M  V30 482 H 41.8879 1.45593 0.719483 0
M  V30 483 H 43.8849 1.73725 3.78979 0
M  V30 484 H 42.5449 0.742831 3.16089 0
M  V30 485 H 43.5559 4.41258 2.71131 0
M  V30 486 H 40.2329 2.01192 3.65825 0
M  V30 487 H 41.6229 6.00264 3.01882 0
M  V30 488 N 44.343 -0.763751 1.37857 0
M  V30 489 C 45.62 -1.51244 1.24035 0
M  V30 490 C 46 -2.10472 -0.162649 0
M  V30 491 O 45.348 -1.96206 -1.17112 0
M  V30 492 C 45.558 -2.58694 2.34261 0
M  V30 493 C 46.906 -3.25878 2.72193 0
M  V30 494 O 47.93 -2.68993 2.33497 0
M  V30 495 O 46.789 -4.2874 3.38887 0
M  V30 496 H 43.883 -0.670243 0.484462 0
M  V30 497 H 46.429 -0.800031 1.49658 0
M  V30 498 H 45.201 -2.13105 3.2818 0
M  V30 499 H 44.824 -3.37527 2.10146 0
M  V30 500 N 45.8211 -1.22559 -0.990812 0
M  V30 501 C 47.0461 -1.07862 -1.77145 0
M  V30 502 C 47.4711 0.366447 -1.84496 0
M  V30 503 O 46.8291 1.26478 -1.29896 0
M  V30 504 C 46.8771 -1.69686 -3.18181 0
M  V30 505 O 45.9811 -0.951946 -4.01263 0
M  V30 506 H 45.3221 -0.378712 -0.545411 0
M  V30 507 H 47.8521 -1.62399 -1.2445 0
M  V30 508 H 47.8621 -1.74496 -3.68802 0
M  V30 509 H 46.5371 -2.74841 -3.12146 0
M  V30 510 H 45.1141 -0.980011 -3.59792 0
M  V30 511 N 47.2992 1.18797 -1.03562 0
M  V30 512 C 48.5452 1.8893 -0.737113 0
M  V30 513 C 48.8782 1.79837 0.732956 0
M  V30 514 O 48.1532 1.19525 1.5344 0
M  V30 515 C 48.4362 3.39607 -1.19745 0
M  V30 516 C 48.2892 3.57537 -2.72924 0
M  V30 517 C 49.6082 4.33069 -0.783526 0
M  V30 518 H 46.7272 0.686057 -0.269249 0
M  V30 519 H 49.3692 1.39797 -1.28673 0
M  V30 520 H 47.5192 3.81583 -0.729855 0
M  V30 521 H 49.1912 3.24688 -3.27682 0
M  V30 522 H 47.4342 3.00363 -3.12993 0
M  V30 523 H 48.1052 4.63238 -3.00191 0
M  V30 524 H 50.5812 3.98846 -1.18581 0
M  V30 525 H 49.4572 5.3707 -1.13343 0
M  V30 526 H 49.7182 4.40986 0.313681 0
M  V30 527 N 48.7773 0.814389 1.34928 0
M  V30 528 C 50.0023 0.410097 2.03305 0
M  V30 529 C 50.4273 -0.973464 1.60951 0
M  V30 530 O 49.7853 -1.63185 0.789964 0
M  V30 531 C 49.8333 0.51049 3.56968 0
M  V30 532 O 48.9373 -0.473035 4.09678 0
M  V30 533 H 48.2783 0.170088 0.641846 0
M  V30 534 H 50.8083 1.10244 1.72358 0
M  V30 535 H 50.8183 0.383135 4.06197 0
M  V30 536 H 49.4933 1.51963 3.87144 0
M  V30 537 H 48.0703 -0.305272 3.71648 0
M  V30 538 N 50.2554 -1.46986 0.568584 0
M  V30 539 C 51.5034 -2.02041 0.0487022 0
M  V30 540 C 51.8244 -1.44408 -1.31039 0
M  V30 541 O 51.0944 -0.623477 -1.85714 0
M  V30 542 H 49.6744 -0.746849 0.015014 0
M  V30 543 H 52.3364 -1.80257 0.741168 0
M  V30 544 H 51.4324 -3.12085 -0.0308961 0
M  V30 545 N 51.7335 -0.305618 -1.54608 0
M  V30 546 C 52.6805 0.568421 -2.23691 0
M  V30 547 C 53.6505 1.12592 -1.22116 0
M  V30 548 O 54.8355 1.16959 -1.50749 0
M  V30 549 C 51.9755 1.7322 -2.98477 0
M  V30 550 C 51.0885 1.20566 -4.14835 0
M  V30 551 C 50.2235 2.33368 -4.77193 0
M  V30 552 C 49.2625 1.7787 -5.85686 0
M  V30 553 N 48.3995 2.84263 -6.4198 0
M  V30 554 H 53.2395 -0.0272867 -2.97988 0
M  V30 555 H 50.7765 -0.0252363 -1.47078 0
M  V30 556 H 52.7345 2.41675 -3.40072 0
M  V30 557 H 51.3645 2.29947 -2.26548 0
M  V30 558 H 50.4165 0.413223 -3.78149 0
M  V30 559 H 51.7285 0.759417 -4.92985 0
M  V30 560 H 50.8825 3.09761 -5.21664 0
M  V30 561 H 49.6215 2.8132 -3.98385 0
M  V30 562 H 48.6265 0.99968 -5.40635 0
M  V30 563 H 49.8515 1.30816 -6.66381 0
M  V30 564 H 47.7975 3.31541 -5.66053 0
M  V30 565 H 47.7145 2.44149 -7.15491 0
M  V30 566 H 48.9825 3.6054 -6.91109 0
M  V30 567 N 53.2116 1.57565 -0.0334293 0
M  V30 568 C 54.1586 2.10478 0.946981 0
M  V30 569 C 55.1286 1.00787 1.32027 0
M  V30 570 O 56.3136 1.28232 1.41284 0
M  V30 571 C 53.4536 2.63994 2.22263 0
M  V30 572 C 52.5666 3.87709 1.90541 0
M  V30 573 C 51.7016 4.29604 3.12433 0
M  V30 574 C 50.7406 5.46065 2.76549 0
M  V30 575 N 49.8776 5.83096 3.9108 0
M  V30 576 H 54.7176 2.93963 0.488846 0
M  V30 577 H 52.2546 1.45296 0.22969 0
M  V30 578 H 54.2126 2.93114 2.96884 0
M  V30 579 H 52.8426 1.83333 2.65685 0
M  V30 580 H 51.8946 3.65291 1.06144 0
M  V30 581 H 53.2066 4.72403 1.60116 0
M  V30 582 H 52.3606 4.60182 3.9537 0
M  V30 583 H 51.0996 3.43685 3.46023 0
M  V30 584 H 50.1046 5.15176 1.92026 0
M  V30 585 H 51.3296 6.33685 2.44171 0
M  V30 586 H 49.2756 5.00132 4.24504 0
M  V30 587 H 49.1926 6.6244 3.64293 0
M  V30 588 H 50.4606 6.18282 4.74708 0
M  V30 589 N 54.6897 -0.239769 1.55765 0
M  V30 590 C 55.9367 -0.966801 1.7793 0
M  V30 591 C 56.2647 -1.85046 0.599015 0
M  V30 592 O 55.5197 -1.91197 -0.417395 0
M  V30 593 C 55.8187 -1.852 3.05672 0
M  V30 594 C 55.4847 -1.1231 4.36689 0
M  V30 595 C 54.1467 -0.921689 4.72291 0
M  V30 596 C 56.4987 -0.607019 5.17653 0
M  V30 597 C 53.8267 -0.191996 5.86386 0
M  V30 598 C 56.1787 0.109241 6.32506 0
M  V30 599 C 54.8427 0.322073 6.66723 0
M  V30 600 H 54.1127 -0.353778 0.651093 0
M  V30 601 H 56.7597 -0.23634 1.90036 0
M  V30 602 H 55.0647 -2.64975 2.8861 0
M  V30 603 H 56.7617 -2.41635 3.20021 0
M  V30 604 H 53.3517 -1.29004 4.08725 0
M  V30 605 H 57.5357 -0.750153 4.90598 0
M  V30 606 H 52.7917 -0.0166949 6.11398 0
M  V30 607 H 56.9657 0.516737 6.9448 0
M  V30 608 H 54.5927 0.88944 7.54979 0
M  V30 609 N 56.1678 -1.49265 -0.50573 0
M  V30 610 C 57.5788 -1.51769 -1.08734 0
M  V30 611 C 57.9298 -0.301192 -1.93874 0
M  V30 612 O 57.0548 0.589456 -2.08217 0
M  V30 613 C 57.6498 -2.75017 -1.97867 0
M  V30 614 C 56.2088 -2.80314 -2.51199 0
M  V30 615 C 55.3558 -2.4562 -1.28709 0
M  V30 616 H 58.3068 -1.56031 -0.289855 0
M  V30 617 H 58.3278 -2.5491 -2.82491 0
M  V30 618 H 57.8398 -3.63539 -1.35873 0
M  V30 619 H 55.9408 -1.96061 -3.16845 0
M  V30 620 H 56.0538 -3.82366 -2.88675 0
M  V30 621 H 54.4178 -1.97297 -1.61078 0
M  V30 622 H 55.2008 -3.36411 -0.6843 0
M  V30 623 N 57.6459 0.756429 -1.3826 0
M  V30 624 C 58.8919 1.51772 -1.34511 0
M  V30 625 C 59.2249 1.94089 0.0656691 0
M  V30 626 O 58.4999 1.65221 1.02626 0
M  V30 627 C 58.7829 2.77226 -2.29821 0
M  V30 628 C 58.6359 2.41065 -3.79747 0
M  V30 629 C 59.9549 3.79236 -2.23312 0
M  V30 630 H 57.0739 0.550578 -0.489931 0
M  V30 631 H 59.7159 0.866607 -1.69086 0
M  V30 632 H 57.8659 3.32784 -2.00467 0
M  V30 633 H 59.5379 1.91303 -4.19763 0
M  V30 634 H 57.7809 1.7356 -3.97567 0
M  V30 635 H 58.4519 3.3081 -4.41892 0
M  V30 636 H 60.9279 3.3321 -2.49219 0
M  V30 637 H 59.8039 4.64714 -2.92116 0
M  V30 638 H 60.0649 4.24615 -1.23102 0
M  V30 639 N 59.124 1.23083 0.984299 0
M  V30 640 C 60.371 1.06057 1.72505 0
M  V30 641 C 60.699 -0.403105 1.90277 0
M  V30 642 O 59.954 -1.3149 1.44944 0
M  V30 643 C 60.253 1.72673 3.1292 0
M  V30 644 C 59.919 3.22586 3.15038 0
M  V30 645 C 58.581 3.63489 3.15324 0
M  V30 646 C 60.933 4.185 3.10657 0
M  V30 647 C 58.261 4.98772 3.08939 0
M  V30 648 C 60.613 5.53769 3.05814 0
M  V30 649 C 59.277 5.94041 3.04419 0
M  V30 650 H 58.547 0.388091 0.631242 0
M  V30 651 H 61.194 1.52963 1.15215 0
M  V30 652 H 59.499 1.18116 3.73572 0
M  V30 653 H 61.196 1.56982 3.68996 0
M  V30 654 H 57.786 2.90022 3.15571 0
M  V30 655 H 61.97 3.87911 3.09579 0
M  V30 656 H 57.226 5.29193 3.0621 0
M  V30 657 H 61.4 6.27808 3.0138 0
M  V30 658 H 59.027 6.98833 2.99227 0
M  V30 659 N 60.6021 -1.18246 1.0419 0
M  V30 660 C 61.5501 -2.23968 0.627792 0
M  V30 661 C 62.5441 -1.65828 -0.346019 0
M  V30 662 O 63.7501 -1.78733 -0.213175 0
M  V30 663 H 60.1251 -0.728939 0.184802 0
M  V30 664 H 62.0961 -2.56202 1.52981 0
M  V30 665 C 60.8451 -3.47699 0.00796591 0
M  V30 666 H 60.1681 -3.92734 0.748347 0
M  V30 667 H 61.6081 -4.23294 -0.24455 0
M  V30 668 C 60.0671 -3.13153 -1.24246 0
M  V30 669 O 60.5971 -3.27003 -2.33307 0
M  V30 670 N 58.8031 -2.67467 -1.13622 0
M  V30 671 H 58.3501 -2.56396 -0.248734 0
M  V30 672 H 58.3081 -2.44724 -1.97377 0
M  V30 673 N 62.0802 -0.821533 -1.34494 0
M  V30 674 C 63.4912 -0.467956 -1.8074 0
M  V30 675 C 63.8422 1.01151 -1.68116 0
M  V30 676 O 62.9672 1.78707 -1.22036 0
M  V30 677 C 63.5622 -0.842627 -3.28154 0
M  V30 678 C 62.1212 -0.541439 -3.72485 0
M  V30 679 C 61.2682 -1.06028 -2.56229 0
M  V30 680 H 64.2192 -1.01183 -1.22261 0
M  V30 681 H 64.2402 -0.145876 -3.8022 0
M  V30 682 H 63.7522 -1.91945 -3.37311 0
M  V30 683 H 61.8532 0.526034 -3.68868 0
M  V30 684 H 61.9662 -1.08453 -4.66663 0
M  V30 685 H 60.3302 -0.481892 -2.501 0
M  V30 686 H 61.1132 -2.14352 -2.68157 0
M  V30 687 N 63.5583 1.46682 -0.576371 0
M  V30 688 C 64.5213 2.28707 0.150239 0
M  V30 689 C 65.5213 1.38035 0.824794 0
M  V30 690 O 66.7113 1.60476 0.677719 0
M  V30 691 C 63.8433 3.18248 1.22192 0
M  V30 692 H 65.0363 2.94423 -0.570521 0
M  V30 693 H 62.5893 1.52688 -0.334078 0
M  V30 694 H 63.3243 2.57265 1.97447 0
M  V30 695 H 63.1093 3.85 0.742812 0
M  V30 696 H 64.5993 3.80001 1.73172 0
M  V30 697 N 65.0364 0.313813 1.54444 0
M  V30 698 C 66.2644 -0.293918 2.04802 0
M  V30 699 C 66.6794 -1.46537 1.19047 0
M  V30 700 O 66.0364 -1.81182 0.218939 0
M  V30 701 C 66.0874 -0.737806 3.53891 0
M  V30 702 O 65.8084 0.387038 4.36387 0
M  V30 703 C 67.3094 -1.40936 4.203 0
M  V30 704 H 64.5294 -0.0620057 0.668129 0
M  V30 705 H 67.0734 0.457169 1.99324 0
M  V30 706 H 65.2284 -1.43889 3.59687 0
M  V30 707 H 65.6424 0.0391274 5.24485 0
M  V30 708 H 67.1164 -1.67099 5.26101 0
M  V30 709 H 67.5934 -2.35355 3.70816 0
M  V30 710 H 68.1994 -0.751117 4.18615 0
M  V30 711 N 66.5145 -1.57545 0.0417849 0
M  V30 712 C 67.4245 -2.14451 -0.951213 0
M  V30 713 C 68.4405 -1.09992 -1.34825 0
M  V30 714 O 69.6165 -1.42114 -1.42708 0
M  V30 715 C 66.6815 -2.67063 -2.21084 0
M  V30 716 C 65.7425 -3.86284 -1.87304 0
M  V30 717 C 64.9755 -4.36378 -3.07261 0
M  V30 718 O 65.1985 -3.85587 -4.20332 0
M  V30 719 O 64.1325 -5.28077 -2.88822 0
M  V30 720 H 67.9585 -2.99601 -0.497287 0
M  V30 721 H 65.5435 -1.48317 -0.179567 0
M  V30 722 H 67.4255 -3.00914 -2.95006 0
M  V30 723 H 66.1005 -1.84989 -2.65633 0
M  V30 724 H 65.0075 -3.57338 -1.10727 0
M  V30 725 H 66.3405 -4.6956 -1.47562 0
M  V30 726 N 67.9926 0.231505 -1.5589 0
M  V30 727 C 68.9026 1.308 -1.94752 0
M  V30 728 C 69.9186 1.51826 -0.849989 0
M  V30 729 O 71.0946 1.6515 -1.15271 0
M  V30 730 C 68.1596 2.63968 -2.24771 0
M  V30 731 C 67.2206 2.51331 -3.48039 0
M  V30 732 C 66.4536 3.78148 -3.76616 0
M  V30 733 O 66.6766 4.80722 -3.07022 0
M  V30 734 O 65.6106 3.75857 -4.70123 0
M  V30 735 H 69.4366 1.0083 -2.86474 0
M  V30 736 H 67.0216 0.433547 -1.42971 0
M  V30 737 H 68.9036 3.42633 -2.45318 0
M  V30 738 H 67.5786 2.9364 -1.36225 0
M  V30 739 H 66.4856 1.709 -3.32782 0
M  V30 740 H 67.8186 2.26601 -4.36936 0
M  V30 741 N 69.4707 1.49531 0.497807 0
M  V30 742 C 70.3807 1.69176 1.62532 0
M  V30 743 C 71.3967 0.5744 1.64246 0
M  V30 744 O 72.5727 0.849497 1.82608 0
M  V30 745 C 69.6377 1.75695 2.98885 0
M  V30 746 C 68.6987 2.9929 3.07773 0
M  V30 747 C 67.9317 3.05488 4.37622 0
M  V30 748 O 68.1547 2.19192 5.26603 0
M  V30 749 O 67.0887 3.9798 4.51548 0
M  V30 750 H 70.9147 2.647 1.48887 0
M  V30 751 H 68.4997 1.3331 0.674441 0
M  V30 752 H 70.3817 1.82317 3.79919 0
M  V30 753 H 69.0567 0.8335 3.12785 0
M  V30 754 H 67.9637 2.98183 2.25915 0
M  V30 755 H 69.2967 3.91125 2.98801 0
M  V30 756 N 70.9488 -0.749086 1.3866 0
M  V30 757 C 71.8788 -1.8764 1.38973 0
M  V30 758 C 72.8598 -1.68178 0.255004 0
M  V30 759 O 74.0448 -1.88704 0.458754 0
M  V30 760 C 71.1748 -3.25222 1.21851 0
M  V30 761 C 70.1288 -3.59295 2.32575 0
M  V30 762 C 69.4548 -4.95663 2.00555 0
M  V30 763 C 70.7548 -3.63709 3.7485 0
M  V30 764 H 72.4488 -1.87635 2.3331 0
M  V30 765 H 69.9948 -0.901329 1.12303 0
M  V30 766 H 71.9478 -4.03746 1.20695 0
M  V30 767 H 70.6718 -3.25719 0.239775 0
M  V30 768 H 69.3308 -2.83093 2.32925 0
M  V30 769 H 68.9788 -4.92724 1.01154 0
M  V30 770 H 68.6788 -5.19429 2.74714 0
M  V30 771 H 70.2028 -5.7656 2.01024 0
M  V30 772 H 71.6168 -4.32338 3.76506 0
M  V30 773 H 70.0138 -3.98986 4.48252 0
M  V30 774 H 71.0838 -2.63834 4.06841 0
M  V30 775 N 72.4269 -1.23603 -0.977757 0
M  V30 776 C 73.6669 -1.08148 -1.73446 0
M  V30 777 C 74.0309 0.374785 -1.88307 0
M  V30 778 O 75.2319 0.650588 -2.60808 0
M  V30 779 C 73.5029 -1.78991 -3.0935 0
M  V30 780 S 75.0619 -1.79141 -4.00567 0
M  V30 781 H 71.8799 -0.386987 -0.596458 0
M  V30 782 H 74.4819 -1.5678 -1.16792 0
M  V30 783 H 73.1859 -2.8408 -2.96187 0
M  V30 784 H 72.7169 -1.30651 -3.71071 0
M  V30 785 H 74.7319 -0.851892 -4.88833 0
M  V30 786 N 73.905 1.17692 -1.04816 0
M  V30 787 C 74.837 2.21103 -0.603822 0
M  V30 788 C 75.85 1.59411 0.33046 0
M  V30 789 O 77.039 1.7807 0.12379 0
M  V30 790 C 74.139 3.38623 0.136898 0
M  V30 791 C 73.312 4.29888 -0.807137 0
M  V30 792 C 72.371 5.26088 -0.10836 0
M  V30 793 O 71.397 5.64353 -0.741232 0
M  V30 794 N 72.599 5.68882 1.15558 0
M  V30 795 H 75.364 2.59848 -1.49329 0
M  V30 796 H 72.925 1.32553 -0.929587 0
M  V30 797 H 74.917 4.00009 0.614401 0
M  V30 798 H 73.487 2.98508 0.927993 0
M  V30 799 H 72.707 3.65993 -1.46434 0
M  V30 800 H 73.995 4.87759 -1.44807 0
M  V30 801 H 73.393 5.39861 1.69015 0
M  V30 802 H 71.95 6.32429 1.57722 0
M  V30 803 N 75.3831 0.828654 1.34056 0
M  V30 804 C 76.6291 0.42008 1.98402 0
M  V30 805 C 76.9621 -1.01564 1.65525 0
M  V30 806 O 76.2371 -1.70834 0.929831 0
M  V30 807 C 76.5201 0.62927 3.54559 0
M  V30 808 C 76.3731 2.11152 3.97159 0
M  V30 809 C 77.6921 0.0688756 4.40046 0
M  V30 810 H 74.8111 0.154104 0.720709 0
M  V30 811 H 77.4531 1.04228 1.5886 0
M  V30 812 H 75.6031 0.0996418 3.88372 0
M  V30 813 H 77.2751 2.70522 3.73651 0
M  V30 814 H 75.5181 2.59985 3.47261 0
M  V30 815 H 76.1891 2.20868 5.05887 0
M  V30 816 H 78.6651 0.521458 4.1282 0
M  V30 817 H 77.5411 0.245006 5.48353 0
M  V30 818 H 77.8021 -1.0266 4.30015 0
M  V30 819 N 76.8612 -1.46375 0.584142 0
M  V30 820 C 77.7712 -2.34115 -0.150728 0
M  V30 821 C 78.7872 -1.49838 -0.884567 0
M  V30 822 O 79.9632 -1.82704 -0.847429 0
M  V30 823 C 77.0282 -3.2705 -1.15062 0
M  V30 824 C 76.0892 -4.27228 -0.421293 0
M  V30 825 C 75.3222 -5.15722 -1.37355 0
M  V30 826 O 75.5452 -5.07176 -2.61014 0
M  V30 827 O 74.4792 -5.95383 -0.883355 0
M  V30 828 H 78.3052 -2.98309 0.569708 0
M  V30 829 H 75.8902 -1.45373 0.344535 0
M  V30 830 H 77.7722 -3.84381 -1.72712 0
M  V30 831 H 76.4472 -2.65451 -1.8525 0
M  V30 832 H 75.3542 -3.7358 0.197085 0
M  V30 833 H 76.6872 -4.91616 0.239641 0
M  V30 834 N 78.3393 -0.321999 -1.54275 0
M  V30 835 C 79.2493 0.553631 -2.27974 0
M  V30 836 C 80.2653 1.13054 -1.32268 0
M  V30 837 O 81.4413 1.15084 -1.6528 0
M  V30 838 C 78.5063 1.69927 -3.02201 0
M  V30 839 C 77.5673 1.15433 -4.1349 0
M  V30 840 C 76.8003 2.24537 -4.84168 0
M  V30 841 O 77.0233 3.44852 -4.5435 0
M  V30 842 O 75.9573 1.90044 -5.7111 0
M  V30 843 H 79.7833 -0.0448345 -3.03667 0
M  V30 844 H 77.3683 -0.0877418 -1.49142 0
M  V30 845 H 79.2503 2.3663 -3.48689 0
M  V30 846 H 77.9253 2.28395 -2.29385 0
M  V30 847 H 76.8323 0.452436 -3.71354 0
M  V30 848 H 78.1653 0.614805 -4.88345 0
M  V30 849 N 79.8174 1.5752 -0.0501392 0
M  V30 850 C 81.0654 1.9227 0.622642 0
M  V30 851 C 81.3864 0.929083 1.71444 0
M  V30 852 O 80.6564 -0.0262186 1.95882 0
M  V30 853 H 79.2364 0.709739 0.232981 0
M  V30 854 H 81.8984 1.94628 -0.102898 0
M  V30 855 H 80.9944 2.93479 1.06191 0
M  V30 856 N 81.2955 -0.223234 1.56011 0
M  V30 857 C 82.5725 -0.972108 1.69733 0
M  V30 858 C 82.9525 -2.02485 0.59691 0
M  V30 859 O 82.3005 -2.25037 -0.396324 0
M  V30 860 C 82.5105 -1.58407 3.10979 0
M  V30 861 C 83.8585 -2.07696 3.70334 0
M  V30 862 O 84.8825 -1.68304 3.1393 0
M  V30 863 O 83.7415 -2.80096 4.69264 0
M  V30 864 H 80.8355 -0.453993 0.691245 0
M  V30 865 H 83.3815 -0.215149 1.68331 0
M  V30 866 H 82.1535 -0.823831 3.82529 0
M  V30 867 H 81.7765 -2.40661 3.16493 0
M  V30 868 N 82.7736 -1.49793 -0.48987 0
M  V30 869 C 83.7206 -1.67281 -1.59014 0
M  V30 870 C 84.6906 -0.514177 -1.57941 0
M  V30 871 O 85.8756 -0.742533 -1.75759 0
M  V30 872 C 83.0156 -1.75569 -2.97102 0
M  V30 873 C 82.1286 -3.0281 -3.08107 0
M  V30 874 C 81.2636 -3.02008 -4.36995 0
M  V30 875 C 80.3026 -4.23782 -4.41673 0
M  V30 876 N 79.4396 -4.20826 -5.62005 0
M  V30 877 H 84.2796 -2.61224 -1.43409 0
M  V30 878 H 81.8166 -1.29508 -0.697565 0
M  V30 879 H 83.7746 -1.78354 -3.77155 0
M  V30 880 H 82.4046 -0.850827 -3.11385 0
M  V30 881 H 81.4566 -3.09584 -2.21047 0
M  V30 882 H 82.7686 -3.92801 -3.07423 0
M  V30 883 H 81.9226 -3.03418 -5.25378 0
M  V30 884 H 80.6616 -2.09815 -4.4026 0
M  V30 885 H 79.6666 -4.22604 -3.5169 0
M  V30 886 H 80.8916 -5.17181 -4.40115 0
M  V30 887 H 78.8376 -3.31476 -5.66091 0
M  V30 888 H 78.7546 -5.04564 -5.62984 0
M  V30 889 H 80.0226 -4.26355 -6.52565 0
M  V30 890 N 84.2517 0.741722 -1.39055 0
M  V30 891 C 85.1617 1.88621 -1.39496 0
M  V30 892 C 86.1777 1.71557 -0.290578 0
M  V30 893 O 87.3537 1.94275 -0.530954 0
M  V30 894 C 84.4187 3.24134 -1.23037 0
M  V30 895 C 83.4797 3.5364 -2.43387 0
M  V30 896 C 82.7127 4.82687 -2.27703 0
M  V30 897 O 82.9357 5.55922 -1.27696 0
M  V30 898 O 81.8697 5.1194 -3.16545 0
M  V30 899 H 85.6957 1.91203 -2.35956 0
M  V30 900 H 83.2807 0.888625 -1.20099 0
M  V30 901 H 85.1627 4.0513 -1.15964 0
M  V30 902 H 83.8377 3.22337 -0.296691 0
M  V30 903 H 82.7447 2.72758 -2.56035 0
M  V30 904 H 84.0777 3.60209 -3.35425 0
M  V30 905 N 85.7298 1.2412 0.971189 0
M  V30 906 C 87.0068 0.986867 1.6888 0
M  V30 907 C 87.3868 -0.491857 2.0529 0
M  V30 908 O 86.7348 -1.46531 1.75331 0
M  V30 909 C 86.9448 1.9063 2.92338 0
M  V30 910 C 88.2928 2.17515 3.64654 0
M  V30 911 O 89.3168 1.88254 3.02388 0
M  V30 912 O 88.1758 2.6719 4.7673 0
M  V30 913 H 85.2698 0.372944 0.738134 0
M  V30 914 H 87.8158 1.35203 1.02559 0
M  V30 915 H 86.5878 2.90552 2.62097 0
M  V30 916 H 86.2108 1.54408 3.66393 0
M  V30 917 N 87.2079 -1.17134 1.05439 0
M  V30 918 C 88.4539 -1.87733 0.767077 0
M  V30 919 C 88.7869 -1.8098 -0.704253 0
M  V30 920 O 88.0619 -1.21951 -1.5152 0
M  V30 921 C 88.3449 -3.37659 1.25133 0
M  V30 922 C 88.1979 -3.53149 2.78578 0
M  V30 923 C 89.5169 -4.31768 0.852324 0
M  V30 924 H 86.6359 -0.681687 0.280129 0
M  V30 925 H 89.2779 -1.37732 1.30881 0
M  V30 926 H 87.4279 -3.80373 0.790469 0
M  V30 927 H 89.0999 -3.19434 3.32806 0
M  V30 928 H 87.3429 -2.95345 3.17732 0
M  V30 929 H 88.0139 -4.58403 3.07523 0
M  V30 930 H 90.4899 -3.96909 1.24911 0
M  V30 931 H 89.3659 -5.35199 1.21873 0
M  V30 932 H 89.6269 -4.41429 -0.243485 0
M  V30 933 N 88.686 -0.835752 -1.33615 0
M  V30 934 C 89.963 -0.352017 -1.92406 0
M  V30 935 C 90.343 1.16225 -1.76224 0
M  V30 936 O 89.691 1.97526 -1.14873 0
M  V30 937 C 89.901 -0.795485 -3.39813 0
M  V30 938 C 91.249 -0.801703 -4.16963 0
M  V30 939 O 92.273 -0.738889 -3.48452 0
M  V30 940 O 91.132 -0.886607 -5.3926 0
M  V30 941 H 88.226 -0.0989641 -0.821057 0
M  V30 942 H 90.772 -0.921397 -1.42507 0
M  V30 943 H 89.544 -1.83795 -3.45449 0
M  V30 944 H 89.167 -0.202505 -3.97084 0
M  V30 945 N 90.1641 1.46063 -0.591896 0
M  V30 946 C 91.1111 2.30399 0.136069 0
M  V30 947 C 92.0811 1.41169 0.875238 0
M  V30 948 O 93.2661 1.70112 0.86409 0
M  V30 949 C 90.4061 3.25804 1.13781 0
M  V30 950 C 89.5191 4.30134 0.401137 0
M  V30 951 C 88.6541 5.12659 1.39121 0
M  V30 952 C 87.6931 6.0873 0.641462 0
M  V30 953 N 86.8301 6.8409 1.58004 0
M  V30 954 H 91.6701 2.92118 -0.589144 0
M  V30 955 H 89.2071 1.43959 -0.302342 0
M  V30 956 H 91.1651 3.79569 1.73156 0
M  V30 957 H 89.7951 2.65872 1.83062 0
M  V30 958 H 88.8471 3.79152 -0.307826 0
M  V30 959 H 90.1591 4.98458 -0.184565 0
M  V30 960 H 89.3131 5.70747 2.05749 0
M  V30 961 H 88.0521 4.44316 2.01084 0
M  V30 962 H 87.0571 5.49786 -0.0385419 0
M  V30 963 H 88.2821 6.79095 0.0270945 0
M  V30 964 H 86.2281 6.18449 2.18761 0
M  V30 965 H 86.1451 7.48709 1.04738 0
M  V30 966 H 87.4131 7.4673 2.23639 0
M  V30 967 N 91.6422 0.330177 1.54103 0
M  V30 968 C 92.6052 -0.520144 2.2322 0
M  V30 969 C 93.6052 -1.03828 1.22786 0
M  V30 970 O 94.7952 -0.929652 1.4732 0
M  V30 971 C 91.9272 -1.72317 2.94142 0
M  V30 972 H 93.1202 0.0841605 2.99782 0
M  V30 973 H 90.6732 0.0813433 1.56088 0
M  V30 974 H 91.4082 -2.36653 2.21734 0
M  V30 975 H 91.1932 -1.35898 3.67796 0
M  V30 976 H 92.6832 -2.3266 3.46784 0
M  V30 977 N 93.1203 -1.57491 0.0584922 0
M  V30 978 C 94.3663 -1.93264 -0.614558 0
M  V30 979 C 94.6993 -0.937717 -1.7006 0
M  V30 980 O 93.9743 0.0351652 -1.94468 0
M  V30 981 C 94.2573 -3.3938 -1.20386 0
M  V30 982 C 94.1103 -4.49625 -0.125375 0
M  V30 983 C 95.4293 -3.86039 -2.11334 0
M  V30 984 H 92.5483 -0.702791 -0.221933 0
M  V30 985 H 95.1903 -1.8961 0.12175 0
M  V30 986 H 93.3403 -3.42626 -1.83139 0
M  V30 987 H 95.0123 -4.58506 0.506971 0
M  V30 988 H 93.2553 -4.30354 0.545672 0
M  V30 989 H 93.9263 -5.48967 -0.577861 0
M  V30 990 H 96.4023 -3.84716 -1.58534 0
M  V30 991 H 95.2783 -4.88914 -2.49507 0
M  V30 992 H 95.5393 -3.23215 -3.01636 0
M  V30 993 N 94.5984 0.214957 -1.56127 0
M  V30 994 C 95.5454 1.26642 -1.92952 0
M  V30 995 C 96.5154 1.46244 -0.78753 0
M  V30 996 O 97.7004 1.59704 -1.04399 0
M  V30 997 C 94.8404 2.6104 -2.25726 0
M  V30 998 C 93.9534 2.49183 -3.52891 0
M  V30 999 C 93.0884 3.76149 -3.7508 0
M  V30 1000 C 92.1274 3.59041 -4.95738 0
M  V30 1001 N 91.2644 4.77972 -5.14283 0
M  V30 1002 H 96.1044 0.945384 -2.82607 0
M  V30 1003 H 93.6414 0.455489 -1.3987 0
M  V30 1004 H 95.5994 3.39313 -2.42739 0
M  V30 1005 H 94.2294 2.91227 -1.39236 0
M  V30 1006 H 93.2814 1.6231 -3.44034 0
M  V30 1007 H 94.5934 2.32466 -4.41318 0
M  V30 1008 H 93.7474 4.62865 -3.92226 0
M  V30 1009 H 92.4864 3.95799 -2.84947 0
M  V30 1010 H 91.4914 2.7071 -4.78535 0
M  V30 1011 H 92.7164 3.40856 -5.87362 0
M  V30 1012 H 90.6624 4.97923 -4.27093 0
M  V30 1013 H 90.5794 4.64006 -5.96853 0
M  V30 1014 H 91.8474 5.66096 -5.35869 0
M  V30 1015 N 96.0765 1.50051 0.48192 0
M  V30 1016 C 97.0395 1.67584 1.5636 0
M  V30 1017 C 98.0395 0.546894 1.51214 0
M  V30 1018 O 99.2295 0.813725 1.54026 0
M  V30 1019 C 96.3615 1.691 2.96003 0
M  V30 1020 H 97.5545 2.64078 1.42136 0
M  V30 1021 H 95.1075 1.39369 0.707533 0
M  V30 1022 H 95.8425 0.742589 3.15684 0
M  V30 1023 H 95.6275 2.51105 3.01146 0
M  V30 1024 H 97.1175 1.84656 3.74556 0
M  V30 1025 N 97.5546 -0.734337 1.39446 0
M  V30 1026 C 98.5176 -1.83004 1.37994 0
M  V30 1027 C 99.5176 -1.58397 0.276938 0
M  V30 1028 O 100.708 -1.65785 0.534875 0
M  V30 1029 C 97.8396 -3.20802 1.1532 0
M  V30 1030 H 99.0326 -1.85694 2.35494 0
M  V30 1031 H 96.5856 -0.938059 1.25021 0
M  V30 1032 H 97.3206 -3.23772 0.185036 0
M  V30 1033 H 97.1056 -3.4006 1.95197 0
M  V30 1034 H 98.5956 -4.00862 1.17046 0
M  V30 1035 N 99.0327 -1.24633 -0.964593 0
M  V30 1036 C 100.449 -1.01239 -1.2338 0
M  V30 1037 C 100.649 0.2769 -1.99588 0
M  V30 1038 O 99.7047 0.992241 -2.32187 0
M  V30 1039 C 101.018 -2.22937 -2.01791 0
M  V30 1040 C 102.566 -2.27594 -2.14872 0
M  V30 1041 C 103.041 -3.48921 -2.96678 0
M  V30 1042 N 104.532 -3.49257 -3.04259 0
M  V30 1043 C 105.267 -4.39795 -3.67924 0
M  V30 1044 N 104.763 -5.40591 -4.33281 0
M  V30 1045 N 106.556 -4.275 -3.64966 0
M  V30 1046 H 98.7067 -2.0748 -0.454502 0
M  V30 1047 H 100.97 -0.910647 -0.26349 0
M  V30 1048 H 100.676 -3.16587 -1.53184 0
M  V30 1049 H 100.55 -2.25306 -3.02518 0
M  V30 1050 H 102.937 -1.34473 -2.6268 0
M  V30 1051 H 103.018 -2.2925 -1.13482 0
M  V30 1052 H 102.662 -4.42359 -2.49562 0
M  V30 1053 H 102.592 -3.4451 -3.98272 0
M  V30 1054 H 105.083 -2.76337 -2.57771 0
M  V30 1055 H 105.396 -6.05904 -4.79687 0
M  V30 1056 H 103.741 -5.44475 -4.3194 0
M  V30 1057 H 106.932 -3.47987 -3.13086 0
M  V30 1058 H 107.105 -4.98258 -4.14298 0
M  V30 1059 N 100.511 1.16574 -1.06058 0
M  V30 1060 C 101.443 2.2045 -0.627239 0
M  V30 1061 C 102.456 1.59752 0.313534 0
M  V30 1062 O 103.645 1.78192 0.104896 0
M  V30 1063 C 100.745 3.3875 0.100974 0
M  V30 1064 C 99.9178 4.29008 -0.852687 0
M  V30 1065 C 98.9768 5.25944 -0.164152 0
M  V30 1066 O 98.0028 5.63535 -0.801047 0
M  V30 1067 N 99.2048 5.70075 1.09518 0
M  V30 1068 H 101.97 2.58249 -1.52077 0
M  V30 1069 H 99.5308 1.3156 -0.943594 0
M  V30 1070 H 101.523 4.00638 0.57194 0
M  V30 1071 H 100.093 2.99476 0.89628 0
M  V30 1072 H 99.3128 3.64419 -1.50308 0
M  V30 1073 H 100.601 4.86195 -1.49972 0
M  V30 1074 H 99.9988 5.41624 1.6328 0
M  V30 1075 H 98.5558 6.34067 1.51006 0
M  V30 1076 N 101.989 0.842826 1.3317 0
M  V30 1077 C 102.952 0.284065 2.27433 0
M  V30 1078 C 103.952 -0.54948 1.5112 0
M  V30 1079 O 105.142 -0.362699 1.70382 0
M  V30 1080 C 102.274 -0.599384 3.35589 0
M  V30 1081 H 103.467 1.11589 2.78366 0
M  V30 1082 H 101.02 0.616221 1.4364 0
M  V30 1083 H 101.755 -1.45349 2.89904 0
M  V30 1084 H 101.54 -0.00291266 3.921 0
M  V30 1085 H 103.03 -0.983488 4.05854 0
M  V30 1086 N 103.467 -1.45747 0.599634 0
M  V30 1087 C 104.714 -2.02292 0.0917284 0
M  V30 1088 C 105.042 -1.46906 -1.27472 0
M  V30 1089 O 104.297 -0.630652 -1.8526 0
M  V30 1090 C 104.596 -3.57399 -0.00602758 0
M  V30 1091 C 104.262 -4.31902 1.29503 0
M  V30 1092 C 102.924 -4.51974 1.65144 0
M  V30 1093 C 105.276 -4.74551 2.15525 0
M  V30 1094 C 102.604 -5.11949 2.86574 0
M  V30 1095 C 104.956 -5.35868 3.36196 0
M  V30 1096 C 103.62 -5.54165 3.72099 0
M  V30 1097 H 102.89 -0.740239 0.0335658 0
M  V30 1098 H 105.537 -1.7491 0.779661 0
M  V30 1099 H 103.842 -3.84014 -0.777183 0
M  V30 1100 H 105.539 -3.98846 -0.415038 0
M  V30 1101 H 102.129 -4.16588 1.00761 0
M  V30 1102 H 106.313 -4.58784 1.8929 0
M  V30 1103 H 101.569 -5.24305 3.14507 0
M  V30 1104 H 105.743 -5.6787 4.03109 0
M  V30 1105 H 103.37 -6.00406 4.6628 0
M  V30 1106 N 104.945 -0.338344 -1.53925 0
M  V30 1107 C 105.877 0.555117 -2.22376 0
M  V30 1108 C 106.89 1.06812 -1.22862 0
M  V30 1109 O 108.079 0.979163 -1.49247 0
M  V30 1110 C 105.179 1.77609 -2.88631 0
M  V30 1111 C 104.352 1.39927 -4.14414 0
M  V30 1112 C 103.411 2.47936 -4.64127 0
M  V30 1113 O 102.437 2.11461 -5.28463 0
M  V30 1114 N 103.639 3.79107 -4.39612 0
M  V30 1115 H 106.404 -0.0310778 -2.99684 0
M  V30 1116 H 103.965 -0.162226 -1.61085 0
M  V30 1117 H 105.957 2.49287 -3.18807 0
M  V30 1118 H 104.527 2.26978 -2.14941 0
M  V30 1119 H 103.747 0.513481 -3.90841 0
M  V30 1120 H 105.035 1.12341 -4.96243 0
M  V30 1121 H 104.433 4.11531 -3.88148 0
M  V30 1122 H 102.99 4.4697 -4.74406 0
M  V30 1123 N 106.423 1.57458 -0.0668435 0
M  V30 1124 C 107.672 1.92477 0.602947 0
M  V30 1125 C 107.985 0.948419 1.71068 0
M  V30 1126 O 109.191 1.19124 2.43971 0
M  V30 1127 C 107.647 3.41903 1.12383 0
M  V30 1128 C 107.255 4.47975 0.04737 0
M  V30 1129 C 108.999 3.85931 1.76797 0
M  V30 1130 C 106.906 5.88529 0.582022 0
M  V30 1131 H 105.836 0.718387 0.22899 0
M  V30 1132 H 108.487 1.82978 -0.138276 0
M  V30 1133 H 106.869 3.46459 1.91787 0
M  V30 1134 H 108.043 4.55029 -0.726978 0
M  V30 1135 H 106.358 4.13384 -0.500243 0
M  V30 1136 H 108.955 4.88322 2.17821 0
M  V30 1137 H 109.298 3.23029 2.62599 0
M  V30 1138 H 109.831 3.83958 1.04024 0
M  V30 1139 H 106.57 6.55065 -0.238721 0
M  V30 1140 H 106.09 5.85004 1.324 0
M  V30 1141 H 107.769 6.38258 1.05999 0
M  V30 1142 N 107.901 -0.206675 1.56239 0
M  V30 1143 C 109.149 -0.927007 1.79586 0
M  V30 1144 C 109.47 -1.8427 0.637929 0
M  V30 1145 O 108.74 -1.92849 -0.344398 0
M  V30 1146 H 107.32 -0.345292 0.662407 0
M  V30 1147 H 109.982 -0.21496 1.93711 0
M  V30 1148 H 109.078 -1.52501 2.72305 0
M  V30 1149 N 109.379 -1.50304 -0.473955 0
M  V30 1150 C 110.604 -1.65175 -1.25427 0
M  V30 1151 C 111.029 -0.333673 -1.85117 0
M  V30 1152 O 110.387 0.702114 -1.67153 0
M  V30 1153 C 110.435 -2.74295 -2.34082 0
M  V30 1154 O 109.539 -2.35349 -3.38651 0
M  V30 1155 H 108.88 -0.551944 -0.369126 0
M  V30 1156 H 111.41 -1.96662 -0.564364 0
M  V30 1157 H 111.42 -2.97285 -2.79438 0
M  V30 1158 H 110.095 -3.69959 -1.90008 0
M  V30 1159 H 108.672 -2.22794 -2.99027 0
M  V30 1160 N 110.857 0.726932 -1.39834 0
M  V30 1161 C 112.268 1.30558 -1.3346 0
M  V30 1162 C 112.619 1.962 -0.00273003 0
M  V30 1163 O 111.744 1.96826 0.899371 0
M  V30 1164 C 112.339 2.37404 -2.41713 0
M  V30 1165 C 110.898 2.90921 -2.38835 0
M  V30 1166 C 110.045 1.64578 -2.2318 0
M  V30 1167 H 112.996 0.523862 -1.49804 0
M  V30 1168 H 113.017 3.17984 -2.08966 0
M  V30 1169 H 112.529 1.89599 -3.38635 0
M  V30 1170 H 110.63 3.42985 -1.45575 0
M  V30 1171 H 110.743 3.43487 -3.33997 0
M  V30 1172 H 109.107 1.89219 -1.70494 0
M  V30 1173 H 109.89 1.18814 -3.22084 0
M  V30 1174 N 112.336 1.25143 0.95797 0
M  V30 1175 C 113.582 1.10863 1.70531 0
M  V30 1176 C 113.937 -0.347391 1.89238 0
M  V30 1177 O 113.23 -1.25262 1.44983 0
M  V30 1178 C 113.424 1.79272 3.09187 0
M  V30 1179 C 113.253 3.31376 3.04006 0
M  V30 1180 C 112.023 4.0062 3.07948 0
M  V30 1181 C 114.221 4.27825 2.8543 0
M  V30 1182 N 112.203 5.39526 2.9289 0
M  V30 1183 C 113.574 5.53794 2.78769 0
M  V30 1184 C 115.629 4.1828 2.70085 0
M  V30 1185 C 114.332 6.7131 2.58331 0
M  V30 1186 C 116.358 5.35485 2.51017 0
M  V30 1187 C 115.72 6.60393 2.45073 0
M  V30 1188 H 111.819 0.460362 0.632132 0
M  V30 1189 H 114.403 1.58196 1.13499 0
M  V30 1190 H 112.574 1.34439 3.64391 0
M  V30 1191 H 114.306 1.57764 3.72683 0
M  V30 1192 H 111.061 3.51855 3.17009 0
M  V30 1193 H 111.485 6.12416 2.88574 0
M  V30 1194 H 116.127 3.22461 2.73457 0
M  V30 1195 H 113.845 7.67243 2.53701 0
M  V30 1196 H 117.431 5.29959 2.40073 0
M  V30 1197 H 116.311 7.49557 2.30509 0
M  V30 1198 N 113.814 -1.1601 1.06675 0
M  V30 1199 C 115.23 -1.38622 0.790948 0
M  V30 1200 C 115.43 -1.92109 -0.607965 0
M  V30 1201 O 114.486 -2.12239 -1.36787 0
M  V30 1202 C 115.799 -2.36347 1.85905 0
M  V30 1203 C 117.347 -2.50023 1.88301 0
M  V30 1204 C 117.822 -3.51033 2.94176 0
M  V30 1205 N 119.313 -3.58563 2.93235 0
M  V30 1206 C 120.048 -4.36521 3.71803 0
M  V30 1207 N 119.544 -5.17869 4.602 0
M  V30 1208 N 121.337 -4.31541 3.60178 0
M  V30 1209 H 113.488 -0.796294 1.96908 0
M  V30 1210 H 115.751 -0.412597 0.853503 0
M  V30 1211 H 115.457 -2.04147 2.86386 0
M  V30 1212 H 115.331 -3.36042 1.71334 0
M  V30 1213 H 117.718 -2.81524 0.884769 0
M  V30 1214 H 117.799 -1.5035 2.06951 0
M  V30 1215 H 117.443 -3.20268 3.94196 0
M  V30 1216 H 117.373 -4.50445 2.72776 0
M  V30 1217 H 119.864 -3.00496 2.29152 0
M  V30 1218 H 120.177 -5.74578 5.16797 0
M  V30 1219 H 118.522 -5.17199 4.64253 0
M  V30 1220 H 121.713 -3.67051 2.90502 0
M  V30 1221 H 121.886 -4.9205 4.21653 0
M  V30 1222 N 115.292 -0.849877 -1.32721 0
M  V30 1223 C 116.52 -0.464754 -2.01613 0
M  V30 1224 C 116.935 0.937191 -1.63897 0
M  V30 1225 O 116.292 1.61081 -0.857856 0
M  V30 1226 C 116.343 -0.588638 -3.56675 0
M  V30 1227 O 116.064 -1.93535 -3.93034 0
M  V30 1228 C 117.565 -0.2019 -4.4284 0
M  V30 1229 H 114.785 -0.183215 -0.645502 0
M  V30 1230 H 117.329 -1.1455 -1.69407 0
M  V30 1231 H 115.484 0.0443159 -3.87375 0
M  V30 1232 H 115.898 -1.92871 -4.87751 0
M  V30 1233 H 117.372 -0.339599 -5.50954 0
M  V30 1234 H 117.849 0.857224 -4.30753 0
M  V30 1235 H 118.455 -0.809733 -4.17521 0
M  V30 1236 N 116.77 1.45427 -0.607355 0
M  V30 1237 C 117.703 2.27635 0.160482 0
M  V30 1238 C 118.681 1.37122 0.873857 0
M  V30 1239 O 119.865 1.66551 0.882775 0
M  V30 1240 C 116.992 3.15486 1.23231 0
M  V30 1241 C 116.038 4.21939 0.622097 0
M  V30 1242 S 116.871 5.32459 -0.569852 0
M  V30 1243 C 118.027 6.23879 0.502577 0
M  V30 1244 H 118.26 2.9241 -0.536983 0
M  V30 1245 H 115.793 1.49265 -0.394868 0
M  V30 1246 H 117.751 3.66659 1.84585 0
M  V30 1247 H 116.412 2.49977 1.90185 0
M  V30 1248 H 115.605 4.8333 1.42856 0
M  V30 1249 H 115.207 3.73906 0.0837063 0
M  V30 1250 H 117.499 6.63261 1.38171 0
M  V30 1251 H 118.442 7.0806 -0.0751759 0
M  V30 1252 H 118.85 5.58545 0.8178 0
M  V30 1253 N 118.248 0.346503 1.53744 0
M  V30 1254 C 119.525 -0.304532 1.93215 0
M  V30 1255 C 119.905 -1.67993 1.27834 0
M  V30 1256 O 119.253 -2.24411 0.430352 0
M  V30 1257 C 119.463 -0.373852 3.46992 0
M  V30 1258 C 120.811 -0.62329 4.2 0
M  V30 1259 O 121.835 -0.455847 3.53271 0
M  V30 1260 O 120.694 -0.947879 5.38217 0
M  V30 1261 H 117.788 -0.178318 0.807547 0
M  V30 1262 H 120.334 0.397895 1.64969 0
M  V30 1263 H 119.106 0.591224 3.86808 0
M  V30 1264 H 118.729 -1.12294 3.81413 0
M  V30 1265 N 119.726 -1.57421 0.075193 0
M  V30 1266 C 120.689 -2.11791 -0.876203 0
M  V30 1267 C 121.689 -1.04268 -1.22412 0
M  V30 1268 O 122.879 -1.30242 -1.15684 0
M  V30 1269 C 120.011 -2.62207 -2.17854 0
M  V30 1270 H 121.204 -2.9716 -0.40444 0
M  V30 1271 H 118.757 -1.55333 -0.173557 0
M  V30 1272 H 119.492 -1.803 -2.6956 0
M  V30 1273 H 119.277 -3.40802 -1.93897 0
M  V30 1274 H 120.767 -3.04335 -2.85955 0
M  V30 1275 N 121.204 0.198386 -1.56346 0
M  V30 1276 C 122.429 0.939682 -1.84891 0
M  V30 1277 C 122.854 1.76202 -0.658369 0
M  V30 1278 O 122.212 1.76993 0.392851 0
M  V30 1279 C 122.26 1.81428 -3.11635 0
M  V30 1280 O 121.364 2.91265 -2.91956 0
M  V30 1281 H 120.705 0.264807 -0.608912 0
M  V30 1282 H 123.235 0.204695 -2.03573 0
M  V30 1283 H 123.245 2.21958 -3.42343 0
M  V30 1284 H 121.92 1.21004 -3.97908 0
M  V30 1285 H 120.497 2.54514 -2.72538 0
M  V30 1286 N 122.682 1.50554 0.465978 0
M  V30 1287 C 123.592 1.72585 1.58907 0
M  V30 1288 C 124.608 0.60911 1.6299 0
M  V30 1289 O 125.784 0.88804 1.80765 0
M  V30 1290 C 122.849 1.81995 2.95091 0
M  V30 1291 C 121.91 3.05751 3.01355 0
M  V30 1292 C 121.143 3.14702 4.31043 0
M  V30 1293 O 121.366 2.30313 5.21835 0
M  V30 1294 O 120.3 4.07468 4.43005 0
M  V30 1295 H 124.126 2.67799 1.43239 0
M  V30 1296 H 121.711 1.34711 0.646013 0
M  V30 1297 H 123.593 1.90335 3.75966 0
M  V30 1298 H 122.268 0.899659 3.10947 0
M  V30 1299 H 121.175 3.02908 2.19539 0
M  V30 1300 H 122.508 3.97375 2.90437 0
M  V30 1301 N 124.16 -0.719506 1.40217 0
M  V30 1302 C 125.576 -1.02707 1.22161 0
M  V30 1303 C 125.776 -2.0128 0.0940557 0
M  V30 1304 O 124.832 -2.46452 -0.549318 0
M  V30 1305 C 126.145 -1.57454 2.56181 0
M  V30 1306 C 127.693 -1.69458 2.63159 0
M  V30 1307 C 128.168 -2.27611 3.97438 0
M  V30 1308 N 129.659 -2.35002 3.99159 0
M  V30 1309 C 130.394 -2.80972 4.99842 0
M  V30 1310 N 129.89 -3.26723 6.10921 0
M  V30 1311 N 131.683 -2.80321 4.87213 0
M  V30 1312 H 123.834 -0.0660492 2.12297 0
M  V30 1313 H 126.097 -0.0919077 0.943534 0
M  V30 1314 H 125.803 -0.924873 3.39321 0
M  V30 1315 H 125.677 -2.56036 2.76993 0
M  V30 1316 H 128.064 -2.33543 1.80393 0
M  V30 1317 H 128.145 -0.694867 2.46181 0
M  V30 1318 H 127.789 -1.6415 4.80643 0
M  V30 1319 H 127.719 -3.2829 4.11744 0
M  V30 1320 H 130.21 -2.02685 3.18947 0
M  V30 1321 H 130.523 -3.60355 6.8364 0
M  V30 1322 H 128.868 -3.24692 6.14492 0
M  V30 1323 H 132.059 -2.43912 3.9953 0
M  V30 1324 H 132.232 -3.15831 5.65822 0
M  V30 1325 N 125.638 -1.25649 -0.95132 0
M  V30 1326 C 126.886 -1.10375 -1.69298 0
M  V30 1327 C 127.207 0.355339 -1.91735 0
M  V30 1328 O 126.477 1.25188 -1.50681 0
M  V30 1329 H 125.057 -0.405461 -0.627384 0
M  V30 1330 H 127.719 -1.57823 -1.14358 0
M  V30 1331 H 126.815 -1.61465 -2.67087 0
M  V30 1332 N 127.117 1.15442 -1.07289 0
M  V30 1333 C 128.533 1.38201 -0.798288 0
M  V30 1334 C 128.733 1.92429 0.597769 0
M  V30 1335 O 127.789 2.12962 1.3566 0
M  V30 1336 C 129.102 2.35357 -1.87156 0
M  V30 1337 C 130.65 2.49021 -1.89624 0
M  V30 1338 C 131.125 3.49468 -2.96034 0
M  V30 1339 N 132.616 3.57003 -2.95132 0
M  V30 1340 C 133.351 4.34543 -3.74112 0
M  V30 1341 N 132.847 5.15421 -4.6294 0
M  V30 1342 N 134.64 4.29625 -3.62462 0
M  V30 1343 H 126.791 0.78584 -1.97328 0
M  V30 1344 H 129.054 0.408065 -0.855679 0
M  V30 1345 H 128.76 2.02626 -2.87464 0
M  V30 1346 H 128.634 3.35129 -1.73114 0
M  V30 1347 H 131.021 2.81051 -0.899687 0
M  V30 1348 H 131.102 1.4925 -2.07745 0
M  V30 1349 H 130.746 3.18173 -3.95889 0
M  V30 1350 H 130.676 4.48992 -2.75161 0
M  V30 1351 H 133.167 2.99276 -2.30743 0
M  V30 1352 H 133.48 5.7183 -5.19837 0
M  V30 1353 H 131.825 5.14729 -4.66989 0
M  V30 1354 H 135.016 3.65505 -2.92444 0
M  V30 1355 H 135.189 4.89807 -4.24256 0
M  V30 1356 N 128.595 0.856903 1.32268 0
M  V30 1357 C 129.525 0.31858 2.31316 0
M  V30 1358 C 130.506 -0.583487 1.59779 0
M  V30 1359 O 131.691 -0.503259 1.87566 0
M  V30 1360 C 128.821 -0.491979 3.43798 0
M  V30 1361 C 127.775 0.315849 4.26833 0
M  V30 1362 C 127.101 -0.619586 5.31098 0
M  V30 1363 C 128.401 1.54282 4.98993 0
M  V30 1364 H 130.095 1.14621 2.76591 0
M  V30 1365 H 127.641 0.552613 1.32974 0
M  V30 1366 H 129.594 -0.879012 4.1213 0
M  V30 1367 H 128.318 -1.35299 2.97257 0
M  V30 1368 H 126.977 0.684664 3.6015 0
M  V30 1369 H 126.625 -1.47751 4.8081 0
M  V30 1370 H 126.325 -0.0830621 5.87541 0
M  V30 1371 H 127.849 -1.00375 6.02293 0
M  V30 1372 H 129.263 1.22796 5.59995 0
M  V30 1373 H 127.66 2.01745 5.65172 0
M  V30 1374 H 128.73 2.30285 4.26728 0
M  V30 1375 N 130.073 -1.45103 0.615059 0
M  V30 1376 C 131.003 -2.33339 -0.0865619 0
M  V30 1377 C 131.984 -1.4727 -0.851209 0
M  V30 1378 O 133.169 -1.76026 -0.820281 0
M  V30 1379 C 130.299 -3.30095 -1.07956 0
M  V30 1380 C 129.253 -4.25858 -0.427628 0
M  V30 1381 C 128.579 -5.12361 -1.5294 0
M  V30 1382 C 129.879 -5.18165 0.655944 0
M  V30 1383 H 131.573 -2.92254 0.650224 0
M  V30 1384 H 129.119 -1.40532 0.314138 0
M  V30 1385 H 131.072 -3.90698 -1.57901 0
M  V30 1386 H 129.796 -2.69355 -1.84703 0
M  V30 1387 H 128.455 -3.66564 0.0510292 0
M  V30 1388 H 128.103 -4.47984 -2.28734 0
M  V30 1389 H 127.803 -5.77238 -1.09865 0
M  V30 1390 H 129.327 -5.75833 -2.03098 0
M  V30 1391 H 130.741 -5.72796 0.240257 0
M  V30 1392 H 129.138 -5.91559 1.00888 0
M  V30 1393 H 130.208 -4.60144 1.52957 0
M  V30 1394 N 131.551 -0.354651 -1.53558 0
M  V30 1395 C 132.781 0.239167 -2.05211 0
M  V30 1396 C 133.189 1.43879 -1.22863 0
M  V30 1397 O 132.532 1.81857 -0.259565 0
M  V30 1398 C 132.594 0.707251 -3.52474 0
M  V30 1399 C 132.258 -0.374212 -4.55465 0
M  V30 1400 C 133.255 -1.22054 -5.0537 0
M  V30 1401 C 130.94 -0.531323 -4.99482 0
M  V30 1402 C 132.934 -2.20942 -5.97882 0
M  V30 1403 C 130.621 -1.52358 -5.91802 0
M  V30 1404 C 131.619 -2.36108 -6.40892 0
M  V30 1405 O 131.307 -3.33643 -7.31394 0
M  V30 1406 H 131.039 0.0479716 -0.674296 0
M  V30 1407 H 133.593 -0.508121 -1.99016 0
M  V30 1408 H 131.823 1.50596 -3.56171 0
M  V30 1409 H 133.512 1.22285 -3.87042 0
M  V30 1410 H 134.278 -1.1103 -4.7212 0
M  V30 1411 H 130.157 0.110738 -4.60867 0
M  V30 1412 H 133.701 -2.86348 -6.36121 0
M  V30 1413 H 129.598 -1.63434 -6.24467 0
M  V30 1414 H 130.366 -3.29244 -7.4936 0
M  V30 1415 N 133.029 1.57378 -0.0835403 0
M  V30 1416 C 133.976 2.13384 0.879539 0
M  V30 1417 C 134.946 1.04936 1.28754 0
M  V30 1418 O 136.131 1.32662 1.37133 0
M  V30 1419 C 133.271 2.70932 2.13752 0
M  V30 1420 C 132.384 3.93575 1.7811 0
M  V30 1421 C 131.519 4.39326 2.98607 0
M  V30 1422 C 130.558 5.54587 2.59037 0
M  V30 1423 N 129.695 5.95243 3.72331 0
M  V30 1424 H 134.535 2.9537 0.395076 0
M  V30 1425 H 132.072 1.45953 0.183349 0
M  V30 1426 H 134.03 3.02411 2.87408 0
M  V30 1427 H 132.66 1.91693 2.59718 0
M  V30 1428 H 131.712 3.68483 0.94469 0
M  V30 1429 H 133.024 4.77258 1.45005 0
M  V30 1430 H 132.178 4.72528 3.80529 0
M  V30 1431 H 130.917 3.5452 3.34913 0
M  V30 1432 H 129.922 5.21024 1.75539 0
M  V30 1433 H 131.147 6.41133 2.23887 0
M  V30 1434 H 129.093 5.13385 4.08378 0
M  V30 1435 H 129.01 6.73694 3.43034 0
M  V30 1436 H 130.278 6.33072 4.54797 0
M  V30 1437 N 134.507 -0.190092 1.56449 0
M  V30 1438 C 135.437 -1.23816 1.97969 0
M  V30 1439 C 136.418 -1.47201 0.852395 0
M  V30 1440 O 137.603 -1.58854 1.1171 0
M  V30 1441 C 134.733 -2.5813 2.3235 0
M  V30 1442 C 133.687 -2.49348 3.47864 0
M  V30 1443 C 133.013 -3.8798 3.67934 0
M  V30 1444 C 134.313 -2.01424 4.81898 0
M  V30 1445 H 136.007 -0.89311 2.85769 0
M  V30 1446 H 133.553 -0.428177 1.37487 0
M  V30 1447 H 135.506 -3.31637 2.59991 0
M  V30 1448 H 134.23 -2.94386 1.41438 0
M  V30 1449 H 132.889 -1.78297 3.20321 0
M  V30 1450 H 132.537 -4.21597 2.74344 0
M  V30 1451 H 132.237 -3.82978 4.45648 0
M  V30 1452 H 133.761 -4.63101 3.97957 0
M  V30 1453 H 135.175 -2.64693 5.08538 0
M  V30 1454 H 133.572 -2.07413 5.63116 0
M  V30 1455 H 134.642 -0.967677 4.75146 0
M  V30 1456 N 135.985 -1.50799 -0.457987 0
M  V30 1457 C 136.948 -1.7005 -1.53674 0
M  V30 1458 C 137.948 -0.570881 -1.50325 0
M  V30 1459 O 139.138 -0.838126 -1.52712 0
M  V30 1460 C 136.27 -1.73788 -2.93276 0
M  V30 1461 H 137.463 -2.66306 -1.37917 0
M  V30 1462 H 135.016 -1.40477 -0.685271 0
M  V30 1463 H 135.751 -0.792717 -3.14462 0
M  V30 1464 H 135.536 -2.55864 -2.97113 0
M  V30 1465 H 137.026 -1.90591 -3.71571 0
M  V30 1466 N 137.463 0.71206 -1.40597 0
M  V30 1467 C 138.74 1.46536 -1.29563 0
M  V30 1468 C 139.12 2.10931 0.0844217 0
M  V30 1469 O 138.468 2.00418 1.0975 0
M  V30 1470 C 138.678 2.49821 -2.43701 0
M  V30 1471 C 140.026 3.15551 -2.841 0
M  V30 1472 O 141.05 2.60142 -2.4332 0
M  V30 1473 O 139.909 4.15867 -3.54566 0
M  V30 1474 H 137.003 0.651801 -0.509004 0
M  V30 1475 H 139.549 0.743935 -1.52524 0
M  V30 1476 H 138.321 2.00778 -3.35863 0
M  V30 1477 H 137.944 3.29495 -2.22528 0
M  V30 1478 N 138.941 1.26152 0.944643 0
M  V30 1479 C 139.871 1.09902 2.06019 0
M  V30 1480 C 140.852 0.00519538 1.70099 0
M  V30 1481 O 142.037 0.176583 1.93396 0
M  V30 1482 C 139.167 0.727562 3.39594 0
M  V30 1483 C 138.121 1.77274 3.89561 0
M  V30 1484 C 137.447 1.25569 5.19747 0
M  V30 1485 C 138.747 3.17357 4.14827 0
M  V30 1486 H 140.441 2.03217 2.19871 0
M  V30 1487 H 137.987 0.978452 1.05652 0
M  V30 1488 H 139.94 0.600777 4.17095 0
M  V30 1489 H 138.664 -0.241287 3.25707 0
M  V30 1490 H 137.323 1.88814 3.14237 0
M  V30 1491 H 136.971 0.276783 5.02238 0
M  V30 1492 H 136.671 1.95433 5.54148 0
M  V30 1493 H 138.195 1.1415 5.99835 0
M  V30 1494 H 139.609 3.08914 4.82954 0
M  V30 1495 H 138.006 3.84781 4.60504 0
M  V30 1496 H 139.076 3.63673 3.20734 0
M  V30 1497 N 140.419 -1.14872 1.07899 0
M  V30 1498 C 141.668 -1.85135 0.800499 0
M  V30 1499 C 141.981 -1.83547 -0.676014 0
M  V30 1500 O 143.187 -2.49548 -1.06948 0
M  V30 1501 C 141.643 -3.3231 1.38197 0
M  V30 1502 C 141.251 -3.42329 2.8899 0
M  V30 1503 C 142.995 -4.0772 1.18174 0
M  V30 1504 C 140.902 -4.83684 3.403 0
M  V30 1505 H 139.832 -0.693563 0.29578 0
M  V30 1506 H 142.483 -1.29532 1.29976 0
M  V30 1507 H 140.865 -3.87618 0.810431 0
M  V30 1508 H 142.039 -2.97097 3.52236 0
M  V30 1509 H 140.354 -2.80369 3.07867 0
M  V30 1510 H 142.951 -5.12049 1.5398 0
M  V30 1511 H 143.294 -4.16124 0.12117 0
M  V30 1512 H 143.827 -3.58696 1.71994 0
M  V30 1513 H 140.566 -4.80465 4.45907 0
M  V30 1514 H 140.086 -5.29474 2.81811 0
M  V30 1515 H 141.765 -5.52558 3.36584 0
M  V30 1516 N 141.898 -0.863906 -1.31812 0
M  V30 1517 C 142.808 -0.318461 -2.32428 0
M  V30 1518 C 143.824 0.568496 -1.64451 0
M  V30 1519 O 145 0.46666 -1.95919 0
M  V30 1520 C 142.065 0.476355 -3.43412 0
M  V30 1521 C 141.126 -0.43784 -4.27061 0
M  V30 1522 C 140.359 0.319138 -5.32745 0
M  V30 1523 O 140.582 1.54799 -5.48993 0
M  V30 1524 O 139.516 -0.319861 -6.01049 0
M  V30 1525 H 143.342 -1.15229 -2.80991 0
M  V30 1526 H 140.927 -0.627103 -1.35602 0
M  V30 1527 H 142.809 0.927156 -4.11074 0
M  V30 1528 H 141.484 1.28683 -2.97022 0
M  V30 1529 H 140.391 -0.937013 -3.62175 0
M  V30 1530 H 141.724 -1.21375 -4.77 0
M  V30 1531 N 143.376 1.44774 -0.622745 0
M  V30 1532 C 144.792 1.56986 -0.287652 0
M  V30 1533 C 144.992 1.61167 1.20944 0
M  V30 1534 O 144.048 1.55015 1.99315 0
M  V30 1535 C 145.361 2.84551 -0.972188 0
M  V30 1536 C 146.909 2.9825 -0.949536 0
M  V30 1537 C 147.384 4.28605 -1.61437 0
M  V30 1538 N 148.875 4.35399 -1.58057 0
M  V30 1539 C 149.61 5.34964 -2.064 0
M  V30 1540 N 149.106 6.40981 -2.62897 0
M  V30 1541 N 150.899 5.26419 -1.97078 0
M  V30 1542 H 143.05 1.40304 -1.59463 0
M  V30 1543 H 145.313 0.671794 -0.668878 0
M  V30 1544 H 145.019 2.87417 -2.02693 0
M  V30 1545 H 144.893 3.73807 -0.504771 0
M  V30 1546 H 147.28 2.94941 0.0967067 0
M  V30 1547 H 147.361 2.10364 -1.45536 0
M  V30 1548 H 147.005 4.32672 -2.66002 0
M  V30 1549 H 146.935 5.15334 -1.08344 0
M  V30 1550 H 149.426 3.59397 -1.16801 0
M  V30 1551 H 149.739 7.13225 -2.97539 0
M  V30 1552 H 148.084 6.4169 -2.66943 0
M  V30 1553 H 151.275 4.42504 -1.52669 0
M  V30 1554 H 151.448 6.03861 -2.35066 0
M  V30 1555 N 144.854 0.36279 1.53368 0
M  V30 1556 C 146.131 -0.284021 1.93527 0
M  V30 1557 C 146.511 -1.66628 1.29608 0
M  V30 1558 O 145.859 -2.23942 0.45413 0
M  V30 1559 C 146.069 -0.337028 3.47369 0
M  V30 1560 C 147.417 -0.578708 4.20638 0
M  V30 1561 O 148.441 -0.418352 3.53735 0
M  V30 1562 O 147.3 -0.89074 5.39192 0
M  V30 1563 H 144.394 -0.169743 0.809393 0
M  V30 1564 H 146.94 0.41537 1.64538 0
M  V30 1565 H 145.712 0.632217 3.86159 0
M  V30 1566 H 145.335 -1.08243 3.82582 0
M  V30 1567 N 146.332 -1.57332 0.0918853 0
M  V30 1568 C 147.748 -1.57389 -0.264766 0
M  V30 1569 C 147.948 -1.10281 -1.68643 0
M  V30 1570 O 147.004 -0.777801 -2.40222 0
M  V30 1571 C 148.317 -3.00648 -0.0561195 0
M  V30 1572 C 149.865 -3.12754 -0.124116 0
M  V30 1573 C 150.34 -4.57965 0.0564972 0
M  V30 1574 N 151.831 -4.632 0.00155611 0
M  V30 1575 C 152.566 -5.73281 0.116598 0
M  V30 1576 N 152.062 -6.92208 0.286294 0
M  V30 1577 N 153.855 -5.6207 0.0580973 0
M  V30 1578 H 146.006 -1.86262 1.02079 0
M  V30 1579 H 148.269 -0.859579 0.399786 0
M  V30 1580 H 147.975 -3.393 0.925669 0
M  V30 1581 H 147.849 -3.68623 -0.799823 0
M  V30 1582 H 150.236 -2.73976 -1.09641 0
M  V30 1583 H 150.317 -2.47377 0.651024 0
M  V30 1584 H 149.961 -4.97436 1.02564 0
M  V30 1585 H 149.891 -5.21399 -0.738297 0
M  V30 1586 H 152.382 -3.77686 -0.127192 0
M  V30 1587 H 152.695 -7.71934 0.365676 0
M  V30 1588 H 151.04 -6.94254 0.32192 0
M  V30 1589 H 154.231 -4.68043 -0.0733204 0
M  V30 1590 H 154.404 -6.47824 0.151203 0
M  V30 1591 N 147.81 0.181792 -1.56548 0
M  V30 1592 C 148.74 1.22765 -1.98623 0
M  V30 1593 C 149.721 1.46747 -0.860189 0
M  V30 1594 O 150.906 1.58259 -1.12551 0
M  V30 1595 C 148.036 2.56894 -2.33715 0
M  V30 1596 C 146.99 2.475 -3.49182 0
M  V30 1597 C 146.316 3.86023 -3.69986 0
M  V30 1598 C 147.616 1.98866 -4.82959 0
M  V30 1599 H 149.31 0.877942 -2.86239 0
M  V30 1600 H 146.856 0.42088 -1.37712 0
M  V30 1601 H 148.809 3.30253 -2.61746 0
M  V30 1602 H 147.533 2.93632 -1.42997 0
M  V30 1603 H 146.192 1.76596 -3.21262 0
M  V30 1604 H 145.84 4.20136 -2.76576 0
M  V30 1605 H 145.54 3.80609 -4.47672 0
M  V30 1606 H 147.064 4.60984 -4.00407 0
M  V30 1607 H 148.478 2.61992 -5.09934 0
M  V30 1608 H 146.875 2.04424 -5.64208 0
M  V30 1609 H 147.945 0.942465 -4.75653 0
M  V30 1610 N 149.288 1.51039 0.449983 0
M  V30 1611 C 150.218 1.74379 1.55288 0
M  V30 1612 C 151.199 0.593236 1.5942 0
M  V30 1613 O 152.384 0.834625 1.7535 0
M  V30 1614 C 149.514 1.85728 2.93466 0
M  V30 1615 C 148.468 3.01078 3.04197 0
M  V30 1616 C 147.794 2.97595 4.44231 0
M  V30 1617 C 149.094 4.41254 2.7945 0
M  V30 1618 H 150.788 2.66725 1.36008 0
M  V30 1619 H 148.334 1.2835 0.652864 0
M  V30 1620 H 150.287 2.0064 3.70569 0
M  V30 1621 H 149.011 0.900207 3.13949 0
M  V30 1622 H 147.67 2.85851 2.29531 0
M  V30 1623 H 147.318 1.99691 4.61663 0
M  V30 1624 H 147.018 3.75046 4.52343 0
M  V30 1625 H 148.542 3.14583 5.23326 0
M  V30 1626 H 149.956 4.56897 3.46292 0
M  V30 1627 H 148.353 5.20315 2.98985 0
M  V30 1628 H 149.423 4.52164 1.75144 0
M  V30 1629 N 150.766 -0.704594 1.40972 0
M  V30 1630 C 151.696 -1.83124 1.44872 0
M  V30 1631 C 152.677 -1.67281 0.30838 0
M  V30 1632 O 153.862 -1.87149 0.518556 0
M  V30 1633 C 150.992 -3.21181 1.32136 0
M  V30 1634 C 149.946 -3.51714 2.43888 0
M  V30 1635 C 149.272 -4.89032 2.16222 0
M  V30 1636 C 150.572 -3.516 3.86232 0
M  V30 1637 H 152.266 -1.80117 2.39161 0
M  V30 1638 H 149.812 -0.865145 1.15114 0
M  V30 1639 H 151.765 -3.99702 1.33479 0
M  V30 1640 H 150.489 -3.24791 0.343279 0
M  V30 1641 H 149.148 -2.75539 2.41813 0
M  V30 1642 H 148.796 -4.89256 1.16778 0
M  V30 1643 H 148.496 -5.10426 2.911 0
M  V30 1644 H 150.02 -5.69873 2.19265 0
M  V30 1645 H 151.434 -4.2014 3.9007 0
M  V30 1646 H 149.831 -3.84523 4.60719 0
M  V30 1647 H 150.901 -2.50757 4.15029 0
M  V30 1648 N 152.244 -1.26651 -0.937939 0
M  V30 1649 C 153.207 -1.08546 -2.01867 0
M  V30 1650 C 154.207 -0.0327327 -1.60767 0
M  V30 1651 O 155.397 -0.276427 -1.71993 0
M  V30 1652 C 152.529 -0.651711 -3.34613 0
M  V30 1653 H 153.722 -2.04502 -2.1936 0
M  V30 1654 H 151.275 -1.09294 -1.11734 0
M  V30 1655 H 152.01 0.309696 -3.22818 0
M  V30 1656 H 151.795 -1.41189 -3.65798 0
M  V30 1657 H 153.285 -0.546973 -4.14002 0
M  V30 1658 N 153.722 1.14298 -1.08507 0
M  V30 1659 C 154.95 1.89219 -0.836876 0
M  V30 1660 C 155.365 1.78638 0.611054 0
M  V30 1661 O 154.722 1.14643 1.41998 0
M  V30 1662 C 154.773 3.39158 -1.25116 0
M  V30 1663 O 154.494 3.49449 -2.64229 0
M  V30 1664 C 155.995 4.31073 -1.03398 0
M  V30 1665 H 153.215 0.599328 -0.301739 0
M  V30 1666 H 155.759 1.44746 -1.44461 0
M  V30 1667 H 153.914 3.81251 -0.687514 0
M  V30 1668 H 154.328 4.42589 -2.81452 0
M  V30 1669 H 155.802 5.34646 -1.37323 0
M  V30 1670 H 156.279 4.3919 0.0289259 0
M  V30 1671 H 156.885 3.94738 -1.58311 0
M  V30 1672 N 155.201 0.870884 1.31352 0
M  V30 1673 C 156.134 0.271983 2.26573 0
M  V30 1674 C 157.112 -0.599385 1.51149 0
M  V30 1675 O 158.296 -0.552605 1.80218 0
M  V30 1676 C 155.423 -0.614801 3.33073 0
M  V30 1677 C 154.469 0.185342 4.26097 0
M  V30 1678 S 155.302 1.56444 5.12138 0
M  V30 1679 C 156.458 0.683807 6.22153 0
M  V30 1680 H 156.691 1.07916 2.77023 0
M  V30 1681 H 154.224 0.669459 1.39132 0
M  V30 1682 H 156.182 -1.12074 3.94905 0
M  V30 1683 H 154.843 -1.39593 2.81376 0
M  V30 1684 H 154.036 -0.490771 5.01605 0
M  V30 1685 H 153.638 0.623415 3.68768 0
M  V30 1686 H 155.93 -0.10521 6.77418 0
M  V30 1687 H 156.873 1.41004 6.93919 0
M  V30 1688 H 157.281 0.250952 5.63942 0
M  V30 1689 N 156.679 -1.44442 0.630414 0
M  V30 1690 C 157.589 -2.34476 -0.0761693 0
M  V30 1691 C 158.605 -1.52576 -0.836449 0
M  V30 1692 O 159.781 -1.85307 -0.788874 0
M  V30 1693 C 156.846 -3.30545 -1.04599 0
M  V30 1694 C 155.907 -4.28352 -0.28516 0
M  V30 1695 C 155.14 -5.19831 -1.20878 0
M  V30 1696 O 155.363 -5.15223 -2.44747 0
M  V30 1697 O 154.297 -5.97892 -0.693491 0
M  V30 1698 H 158.123 -2.96345 0.664324 0
M  V30 1699 H 155.708 -1.44203 0.39061 0
M  V30 1700 H 157.59 -3.89681 -1.60396 0
M  V30 1701 H 156.265 -2.7121 -1.76711 0
M  V30 1702 H 155.172 -3.72764 0.315837 0
M  V30 1703 H 156.505 -4.90605 0.395924 0
M  V30 1704 N 158.157 -0.370918 -1.53173 0
M  V30 1705 C 159.382 0.220293 -2.06227 0
M  V30 1706 C 159.807 1.41243 -1.24225 0
M  V30 1707 O 159.165 1.79387 -0.262645 0
M  V30 1708 C 159.213 0.586663 -3.55796 0
M  V30 1709 O 158.317 1.68317 -3.76488 0
M  V30 1710 H 157.658 0.0308099 -0.663285 0
M  V30 1711 H 160.188 -0.533068 -1.97534 0
M  V30 1712 H 160.198 0.85617 -3.98916 0
M  V30 1713 H 158.873 -0.285013 -4.14922 0
M  V30 1714 H 157.45 1.40881 -3.45264 0
M  V30 1715 N 159.635 1.57281 -0.100228 0
M  V30 1716 C 160.568 2.09976 0.893612 0
M  V30 1717 C 161.546 1.01155 1.27304 0
M  V30 1718 O 162.73 1.28687 1.37739 0
M  V30 1719 C 159.857 2.58098 2.19324 0
M  V30 1720 C 158.903 3.78626 1.96328 0
M  V30 1721 S 159.736 5.21959 1.19662 0
M  V30 1722 C 160.892 5.73435 2.50844 0
M  V30 1723 H 161.125 2.93946 0.44534 0
M  V30 1724 H 158.658 1.53985 0.113167 0
M  V30 1725 H 160.616 2.8648 2.94005 0
M  V30 1726 H 159.277 1.74344 2.61272 0
M  V30 1727 H 158.47 4.10382 2.92579 0
M  V30 1728 H 158.072 3.50763 1.29775 0
M  V30 1729 H 160.364 5.82015 3.46792 0
M  V30 1730 H 161.307 6.7185 2.23659 0
M  V30 1731 H 161.715 5.01395 2.59352 0
M  V30 1732 N 161.113 -0.173488 1.56642 0
M  V30 1733 C 162.061 -1.23417 1.97157 0
M  V30 1734 C 163.055 -1.45946 0.860013 0
M  V30 1735 O 164.261 -1.46551 1.04512 0
M  V30 1736 H 160.636 -0.414818 0.62724 0
M  V30 1737 H 162.607 -0.865582 2.8557 0
M  V30 1738 C 161.356 -2.5665 2.34576 0
M  V30 1739 H 160.679 -2.40137 3.19647 0
M  V30 1740 H 162.119 -3.2956 2.6677 0
M  V30 1741 C 160.578 -3.15245 1.18836 0
M  V30 1742 O 161.108 -3.98883 0.474869 0
M  V30 1743 N 159.314 -2.74303 0.959497 0
M  V30 1744 H 158.861 -2.0639 1.54146 0
M  V30 1745 H 158.819 -3.13844 0.186932 0
M  V30 1746 N 162.591 -1.51276 -0.441967 0
M  V30 1747 C 163.839 -1.63392 -1.18943 0
M  V30 1748 C 164.16 -0.350159 -1.9183 0
M  V30 1749 O 163.43 0.633784 -1.85364 0
M  V30 1750 H 162.01 -0.602164 -0.442049 0
M  V30 1751 H 164.672 -1.88186 -0.507165 0
M  V30 1752 H 163.768 -2.45934 -1.92154 0
M  V30 1753 N 164.069 0.697108 -1.41344 0
M  V30 1754 C 165.317 1.45426 -1.40341 0
M  V30 1755 C 165.638 1.94996 -0.0128787 0
M  V30 1756 O 164.908 1.71599 0.945027 0
M  V30 1757 H 163.488 0.539594 -0.516573 0
M  V30 1758 H 166.15 0.825201 -1.76569 0
M  V30 1759 H 165.246 2.31817 -2.08967 0
M  V30 1760 N 165.547 1.27147 0.931209 0
M  V30 1761 C 166.494 1.09568 2.03134 0
M  V30 1762 C 167.464 -0.00222433 1.661 0
M  V30 1763 O 168.649 0.159439 1.90133 0
M  V30 1764 C 165.789 0.745231 3.36957 0
M  V30 1765 C 164.902 1.92041 3.86968 0
M  V30 1766 C 164.037 1.51216 5.09222 0
M  V30 1767 C 163.076 2.65504 5.5152 0
M  V30 1768 N 162.213 2.25291 6.64972 0
M  V30 1769 H 167.053 2.03708 2.17502 0
M  V30 1770 H 164.59 1.01411 1.06556 0
M  V30 1771 H 166.548 0.522878 4.1391 0
M  V30 1772 H 165.178 -0.159202 3.22407 0
M  V30 1773 H 164.23 2.25541 3.06326 0
M  V30 1774 H 165.542 2.77787 4.1429 0
M  V30 1775 H 164.696 1.25084 5.93666 0
M  V30 1776 H 163.435 0.625749 4.83669 0
M  V30 1777 H 162.44 2.92354 4.65628 0
M  V30 1778 H 163.665 3.54761 5.7907 0
M  V30 1779 H 161.611 1.39098 6.41083 0
M  V30 1780 H 161.528 3.04577 6.91931 0
M  V30 1781 H 162.796 2.02398 7.52765 0
M  V30 1782 N 167.025 -1.13721 1.09112 0
M  V30 1783 C 167.955 -2.21148 0.749385 0
M  V30 1784 C 168.936 -1.6792 -0.271475 0
M  V30 1785 O 170.121 -1.93693 -0.140251 0
M  V30 1786 C 167.251 -3.46905 0.165659 0
M  V30 1787 C 166.205 -4.13203 1.11567 0
M  V30 1788 C 165.531 -5.33248 0.393809 0
M  V30 1789 C 166.831 -4.60912 2.45678 0
M  V30 1790 H 168.525 -2.4999 1.64758 0
M  V30 1791 H 166.071 -1.20156 0.793626 0
M  V30 1792 H 168.024 -4.21313 -0.085466 0
M  V30 1793 H 166.748 -3.17449 -0.767714 0
M  V30 1794 H 165.407 -3.40758 1.35202 0
M  V30 1795 H 165.055 -5.00054 -0.543599 0
M  V30 1796 H 164.755 -5.78552 1.02721 0
M  V30 1797 H 166.279 -6.10413 0.150908 0
M  V30 1798 H 167.693 -5.26759 2.26269 0
M  V30 1799 H 166.09 -5.16944 3.04776 0
M  V30 1800 H 167.16 -3.75603 3.06677 0
M  V30 1801 N 168.503 -0.877838 -1.30888 0
M  V30 1802 C 169.733 -0.506678 -2.00291 0
M  V30 1803 C 170.141 0.907449 -1.66018 0
M  V30 1804 O 169.484 1.60719 -0.88967 0
M  V30 1805 C 169.546 -0.59323 -3.54572 0
M  V30 1806 C 169.21 -1.97038 -4.12341 0
M  V30 1807 C 170.207 -2.93889 -4.28865 0
M  V30 1808 C 167.892 -2.27383 -4.47886 0
M  V30 1809 C 169.886 -4.19224 -4.80136 0
M  V30 1810 C 167.573 -3.52965 -4.98857 0
M  V30 1811 C 168.571 -4.48701 -5.14934 0
M  V30 1812 O 168.259 -5.72056 -5.64808 0
M  V30 1813 H 167.991 -0.1951 -0.647234 0
M  V30 1814 H 170.545 -1.18301 -1.6791 0
M  V30 1815 H 168.775 0.140057 -3.86446 0
M  V30 1816 H 170.464 -0.234372 -4.05223 0
M  V30 1817 H 171.23 -2.71756 -4.01714 0
M  V30 1818 H 167.109 -1.53639 -4.34645 0
M  V30 1819 H 170.653 -4.93956 -4.92599 0
M  V30 1820 H 166.55 -3.74939 -5.25443 0
M  V30 1821 H 167.318 -5.74337 -5.83163 0
M  V30 1822 N 169.982 1.44106 -0.638065 0
M  V30 1823 C 171.207 2.0685 -0.150916 0
M  V30 1824 C 171.632 1.47417 1.16833 0
M  V30 1825 O 170.99 0.578264 1.71831 0
M  V30 1826 C 171.038 3.60555 -0.05708 0
M  V30 1827 O 170.142 4.00465 0.984972 0
M  V30 1828 H 169.483 0.658151 -0.0879399 0
M  V30 1829 H 172.013 1.84865 -0.876707 0
M  V30 1830 H 172.023 4.07789 0.131232 0
M  V30 1831 H 170.698 4.03193 -1.02021 0
M  V30 1832 H 169.275 3.64849 0.770672 0
M  V30 1833 N 171.46 0.379036 1.52974 0
M  V30 1834 C 172.408 -0.476033 2.27677 0
M  V30 1835 C 173.402 -1.0719 1.31174 0
M  V30 1836 O 174.608 -1.01355 1.48752 0
M  V30 1837 H 170.983 -0.172255 0.732006 0
M  V30 1838 H 172.954 0.175615 2.97883 0
M  V30 1839 C 171.703 -1.5967 3.0887 0
M  V30 1840 H 171.026 -1.1475 3.82978 0
M  V30 1841 H 172.466 -2.16943 3.64296 0
M  V30 1842 C 170.925 -2.54682 2.20542 0
M  V30 1843 O 171.455 -3.57836 1.82527 0
M  V30 1844 N 169.661 -2.24183 1.84907 0
M  V30 1845 H 169.208 -1.40333 2.1602 0
M  V30 1846 H 169.166 -2.88006 1.26096 0
M  V30 1847 N 172.938 -1.57226 0.108567 0
M  V30 1848 C 173.901 -2.13602 -0.831082 0
M  V30 1849 C 174.901 -1.06841 -1.20173 0
M  V30 1850 O 176.091 -1.32666 -1.12895 0
M  V30 1851 C 173.223 -2.66769 -2.12243 0
M  V30 1852 H 174.416 -2.97951 -0.341317 0
M  V30 1853 H 171.969 -1.55667 -0.14057 0
M  V30 1854 H 172.704 -1.85977 -2.65675 0
M  V30 1855 H 172.489 -3.44839 -1.86625 0
M  V30 1856 H 173.979 -3.10332 -2.79435 0
M  V30 1857 N 174.416 0.165178 -1.56732 0
M  V30 1858 C 175.646 0.894919 -1.86212 0
M  V30 1859 C 176.054 1.76066 -0.692627 0
M  V30 1860 O 175.397 1.80387 0.347303 0
M  V30 1861 C 175.459 1.8174 -3.10179 0
M  V30 1862 C 175.123 1.13064 -4.42793 0
M  V30 1863 C 176.12 0.493169 -5.17556 0
M  V30 1864 C 173.805 1.12556 -4.89527 0
M  V30 1865 C 175.799 -0.140209 -6.37246 0
M  V30 1866 C 173.486 0.488366 -6.09145 0
M  V30 1867 C 174.484 -0.143411 -6.82849 0
M  V30 1868 O 174.172 -0.77055 -8.00199 0
M  V30 1869 H 173.904 0.265114 -0.621844 0
M  V30 1870 H 176.458 0.168242 -2.0471 0
M  V30 1871 H 174.688 2.58455 -2.87642 0
M  V30 1872 H 176.377 2.4175 -3.26055 0
M  V30 1873 H 177.143 0.489023 -4.82528 0
M  V30 1874 H 173.022 1.60672 -4.32094 0
M  V30 1875 H 176.566 -0.633932 -6.94714 0
M  V30 1876 H 172.463 0.490116 -6.43637 0
M  V30 1877 H 173.231 -0.670408 -8.1575 0
M  V30 1878 N 175.894 1.51508 0.433938 0
M  V30 1879 C 176.824 1.76016 1.53429 0
M  V30 1880 C 177.805 0.610112 1.58782 0
M  V30 1881 O 178.99 0.853177 1.74455 0
M  V30 1882 C 176.12 1.88831 2.9148 0
M  V30 1883 C 175.074 3.04288 3.00987 0
M  V30 1884 C 174.4 3.0229 4.4105 0
M  V30 1885 C 175.7 4.44193 2.74754 0
M  V30 1886 H 177.394 2.68152 1.33171 0
M  V30 1887 H 174.94 1.29035 0.639214 0
M  V30 1888 H 176.893 2.04559 3.6842 0
M  V30 1889 H 175.617 0.933455 3.12976 0
M  V30 1890 H 174.276 2.8827 2.26486 0
M  V30 1891 H 173.924 2.04576 4.59519 0
M  V30 1892 H 173.624 3.79822 4.4834 0
M  V30 1893 H 175.148 3.20116 5.1996 0
M  V30 1894 H 176.562 4.60544 3.41426 0
M  V30 1895 H 174.959 5.23457 2.9345 0
M  V30 1896 H 176.029 4.53996 1.70339 0
M  V30 1897 N 177.372 -0.689602 1.41712 0
M  V30 1898 C 178.32 -1.82475 1.44242 0
M  V30 1899 C 179.314 -1.66354 0.319774 0
M  V30 1900 O 180.52 -1.73143 0.492089 0
M  V30 1901 H 176.895 -0.601416 0.451445 0
M  V30 1902 H 178.866 -1.77458 2.39899 0
M  V30 1903 C 177.615 -3.20535 1.3473 0
M  V30 1904 H 176.938 -3.33559 2.20405 0
M  V30 1905 H 178.378 -4.00023 1.40562 0
M  V30 1906 C 176.837 -3.36846 0.0603281 0
M  V30 1907 O 177.367 -3.91656 -0.892663 0
M  V30 1908 N 175.573 -2.90595 -0.0177039 0
M  V30 1909 H 175.12 -2.46178 0.758572 0
M  V30 1910 H 175.078 -3.01886 -0.878201 0
M  V30 1911 N 178.85 -1.27639 -0.924453 0
M  V30 1912 C 180.127 -1.04887 -1.651 0
M  V30 1913 C 180.507 0.415327 -2.06974 0
M  V30 1914 O 179.855 1.39923 -1.80648 0
M  V30 1915 C 180.065 -2.01348 -2.85061 0
M  V30 1916 C 181.413 -2.30899 -3.56329 0
M  V30 1917 O 182.437 -1.99348 -2.95193 0
M  V30 1918 O 181.296 -2.84699 -4.66485 0
M  V30 1919 H 178.39 -0.400083 -0.723784 0
M  V30 1920 H 180.936 -1.38916 -0.974703 0
M  V30 1921 H 179.708 -3.0008 -2.51133 0
M  V30 1922 H 179.331 -1.679 -3.6041 0
M  V30 1923 N 180.328 1.1314 -1.09713 0
M  V30 1924 C 181.258 2.20748 -0.761102 0
M  V30 1925 C 182.239 1.68061 0.262566 0
M  V30 1926 O 183.424 1.93765 0.129977 0
M  V30 1927 C 180.554 3.46812 -0.184054 0
M  V30 1928 C 179.508 4.12606 -1.13757 0
M  V30 1929 C 178.834 5.33031 -0.422083 0
M  V30 1930 C 180.134 4.59603 -2.48118 0
M  V30 1931 H 181.828 2.49113 -1.66082 0
M  V30 1932 H 179.374 1.19734 -0.799987 0
M  V30 1933 H 181.327 4.21353 0.0631215 0
M  V30 1934 H 180.051 3.17851 0.750868 0
M  V30 1935 H 178.71 3.40036 -1.37007 0
M  V30 1936 H 178.358 5.00335 0.517072 0
M  V30 1937 H 178.058 5.77999 -1.05788 0
M  V30 1938 H 179.582 6.10325 -0.183277 0
M  V30 1939 H 180.996 5.25552 -2.29059 0
M  V30 1940 H 179.393 5.15321 -3.07514 0
M  V30 1941 H 180.463 3.73971 -3.08665 0
M  V30 1942 N 181.806 0.884767 1.30421 0
M  V30 1943 C 182.769 0.356277 2.26414 0
M  V30 1944 C 183.769 -0.501124 1.52792 0
M  V30 1945 O 184.959 -0.30831 1.7145 0
M  V30 1946 C 182.091 -0.492316 3.37326 0
M  V30 1947 H 183.284 1.20389 2.74675 0
M  V30 1948 H 180.837 0.661607 1.41607 0
M  V30 1949 H 181.572 -1.36052 2.94381 0
M  V30 1950 H 181.357 0.121832 3.91911 0
M  V30 1951 H 182.847 -0.853871 4.08777 0
M  V30 1952 N 183.284 -1.43765 0.645699 0
M  V30 1953 C 184.532 -2.01499 0.155731 0
M  V30 1954 C 184.853 -1.51151 -1.232 0
M  V30 1955 O 184.123 -0.721044 -1.82148 0
M  V30 1956 H 182.703 -0.745003 0.0545817 0
M  V30 1957 H 185.365 -1.76075 0.835677 0
M  V30 1958 H 184.461 -3.1181 0.134577 0
M  V30 1959 N 184.763 -0.387143 -1.52771 0
M  V30 1960 C 186.003 0.195537 -2.03463 0
M  V30 1961 C 186.367 1.44222 -1.26744 0
M  V30 1962 O 187.568 2.10192 -1.67549 0
M  V30 1963 C 185.839 0.459097 -3.54439 0
M  V30 1964 S 187.398 1.01237 -4.26962 0
M  V30 1965 H 184.216 0.0552675 -0.708849 0
M  V30 1966 H 186.818 -0.534992 -1.88037 0
M  V30 1967 H 185.522 -0.455382 -4.07866 0
M  V30 1968 H 185.053 1.21811 -3.74066 0
M  V30 1969 H 187.068 2.29492 -4.39941 0
M  V30 1970 N 186.241 1.57166 -0.116904 0
M  V30 1971 C 187.49 1.94298 0.541407 0
M  V30 1972 C 187.803 1.00236 1.67964 0
M  V30 1973 O 189.009 1.26826 2.40057 0
M  V30 1974 C 187.465 3.45306 1.01449 0
M  V30 1975 C 187.073 4.47899 -0.0951738 0
M  V30 1976 C 188.817 3.91361 1.6443 0
M  V30 1977 C 186.724 5.90083 0.394491 0
M  V30 1978 H 185.654 0.725308 0.206019 0
M  V30 1979 H 188.305 1.82446 -0.196419 0
M  V30 1980 H 186.687 3.52385 1.80667 0
M  V30 1981 H 187.861 4.52486 -0.871374 0
M  V30 1982 H 186.176 4.11583 -0.631505 0
M  V30 1983 H 188.773 4.95004 2.02176 0
M  V30 1984 H 189.116 3.3122 2.52189 0
M  V30 1985 H 189.649 3.87073 0.917559 0
M  V30 1986 H 186.388 6.53974 -0.447004 0
M  V30 1987 H 185.908 5.88921 1.13722 0
M  V30 1988 H 187.587 6.41307 0.856399 0
M  V30 1989 N 187.719 -0.156864 1.56817 0
M  V30 1990 C 188.666 -1.19394 1.97519 0
M  V30 1991 C 189.636 -1.4322 0.841265 0
M  V30 1992 O 190.821 -1.55719 1.10255 0
M  V30 1993 C 187.961 -2.52483 2.35258 0
M  V30 1994 C 187.074 -2.35914 3.61896 0
M  V30 1995 C 186.209 -3.61969 3.88782 0
M  V30 1996 C 185.248 -3.40395 5.08722 0
M  V30 1997 N 184.385 -4.58556 5.31668 0
M  V30 1998 H 189.225 -0.839845 2.85921 0
M  V30 1999 H 186.762 -0.403264 1.41464 0
M  V30 2000 H 188.72 -3.30071 2.55165 0
M  V30 2001 H 187.35 -2.85859 1.49949 0
M  V30 2002 H 186.402 -1.49429 3.49821 0
M  V30 2003 H 187.714 -2.15926 4.49641 0
M  V30 2004 H 186.868 -4.47989 4.09135 0
M  V30 2005 H 185.607 -3.84951 2.9944 0
M  V30 2006 H 184.612 -2.52763 4.88253 0
M  V30 2007 H 185.837 -3.18822 5.99608 0
M  V30 2008 H 183.783 -4.81729 4.45279 0
M  V30 2009 H 183.7 -4.41535 6.13664 0
M  V30 2010 H 184.968 -5.45817 5.5651 0
M  V30 2011 N 189.197 -1.51736 -0.425897 0
M  V30 2012 C 190.425 -1.68794 -1.1965 0
M  V30 2013 C 190.84 -0.390164 -1.84725 0
M  V30 2014 O 190.197 0.632376 -1.71194 0
M  V30 2015 C 190.248 -2.81174 -2.27208 0
M  V30 2016 O 189.969 -4.05925 -1.64793 0
M  V30 2017 C 191.47 -3.09599 -3.17275 0
M  V30 2018 H 188.69 -0.566128 -0.360194 0
M  V30 2019 H 191.234 -1.98211 -0.503249 0
M  V30 2020 H 189.389 -2.54324 -2.9223 0
M  V30 2021 H 189.803 -4.68423 -2.35967 0
M  V30 2022 H 191.277 -3.91786 -3.88854 0
M  V30 2023 H 191.754 -2.22468 -3.78688 0
M  V30 2024 H 192.36 -3.38151 -2.57941 0
M  V30 2025 N 190.675 0.682077 -1.42076 0
M  V30 2026 C 191.605 1.80796 -1.47767 0
M  V30 2027 C 192.586 1.6677 -0.334954 0
M  V30 2028 O 193.771 1.863 -0.548264 0
M  V30 2029 C 190.901 3.19038 -1.37229 0
M  V30 2030 C 189.855 3.47789 -2.49453 0
M  V30 2031 C 189.181 4.8553 -2.23975 0
M  V30 2032 C 190.481 3.45411 -3.91776 0
M  V30 2033 H 192.175 1.7629 -2.41997 0
M  V30 2034 H 189.721 0.846721 -1.16476 0
M  V30 2035 H 191.674 3.97528 -1.39821 0
M  V30 2036 H 190.398 3.24204 -0.394907 0
M  V30 2037 H 189.057 2.71657 -2.46166 0
M  V30 2038 H 188.705 4.87337 -1.24547 0
M  V30 2039 H 188.405 5.0573 -2.99184 0
M  V30 2040 H 189.929 5.66312 -2.28304 0
M  V30 2041 H 191.343 4.13882 -3.96705 0
M  V30 2042 H 189.74 3.77145 -4.66778 0
M  V30 2043 H 190.81 2.44122 -4.18966 0
M  V30 2044 N 192.153 1.28127 0.917671 0
M  V30 2045 C 193.569 1.05749 1.19538 0
M  V30 2046 C 193.769 -0.202633 2.00479 0
M  V30 2047 O 192.825 -0.905382 2.3571 0
M  V30 2048 C 194.138 2.30273 1.93378 0
M  V30 2049 C 195.686 2.35412 2.06277 0
M  V30 2050 C 196.161 3.59692 2.83524 0
M  V30 2051 N 197.652 3.60309 2.91087 0
M  V30 2052 C 198.387 4.53147 3.51348 0
M  V30 2053 N 197.883 5.563 4.12919 0
M  V30 2054 N 199.676 4.40751 3.48849 0
M  V30 2055 H 191.827 2.09024 0.377184 0
M  V30 2056 H 194.09 0.919798 0.22951 0
M  V30 2057 H 193.796 3.22055 1.41328 0
M  V30 2058 H 193.67 2.36378 2.93947 0
M  V30 2059 H 196.057 1.4413 2.57508 0
M  V30 2060 H 196.138 2.33304 1.04895 0
M  V30 2061 H 195.782 4.51316 2.32973 0
M  V30 2062 H 195.712 3.59054 3.85211 0
M  V30 2063 H 198.203 2.85714 2.47338 0
M  V30 2064 H 198.516 6.2329 4.56869 0
M  V30 2065 H 196.861 5.60131 4.11435 0
M  V30 2066 H 200.052 3.59367 2.99955 0
M  V30 2067 H 200.225 5.13291 3.9552 0
M  V30 2068 N 193.631 -1.12557 1.10312 0
M  V30 2069 C 194.861 -1.87592 0.865617 0
M  V30 2070 C 195.269 -1.79851 -0.587389 0
M  V30 2071 O 194.612 -1.16949 -1.41664 0
M  V30 2072 C 194.674 -3.37665 1.23381 0
M  V30 2073 C 194.338 -3.69181 2.69359 0
M  V30 2074 C 195.335 -3.67652 3.67597 0
M  V30 2075 C 193.02 -3.98555 3.05711 0
M  V30 2076 C 195.014 -3.95053 5.00212 0
M  V30 2077 C 192.701 -4.25616 4.38514 0
M  V30 2078 C 193.699 -4.23851 5.35574 0
M  V30 2079 O 193.387 -4.50242 6.65986 0
M  V30 2080 H 193.119 -0.600442 0.310557 0
M  V30 2081 H 195.673 -1.4335 1.47105 0
M  V30 2082 H 193.903 -3.82454 0.571467 0
M  V30 2083 H 195.592 -3.94041 0.973994 0
M  V30 2084 H 196.358 -3.45024 3.40857 0
M  V30 2085 H 192.237 -3.99071 2.30789 0
M  V30 2086 H 195.781 -3.93591 5.75962 0
M  V30 2087 H 191.678 -4.47718 4.64994 0
M  V30 2088 H 192.446 -4.67867 6.71597 0
M  V30 2089 N 195.109 -0.891671 -1.2995 0
M  V30 2090 C 196.349 -0.520296 -1.97667 0
M  V30 2091 C 196.713 0.914797 -1.68806 0
M  V30 2092 O 197.914 1.39263 -2.29911 0
M  V30 2093 C 196.185 -0.795222 -3.48441 0
M  V30 2094 S 197.744 -0.526953 -4.35624 0
M  V30 2095 H 194.562 -0.19333 -0.684211 0
M  V30 2096 H 197.164 -1.15238 -1.57926 0
M  V30 2097 H 195.868 -1.83805 -3.66938 0
M  V30 2098 H 195.399 -0.15095 -3.9311 0
M  V30 2099 H 197.414 0.631533 -4.92165 0
M  V30 2100 N 196.587 1.43421 -0.653314 0
M  V30 2101 C 197.55 2.29182 0.0287951 0
M  V30 2102 C 198.55 1.42213 0.750465 0
M  V30 2103 O 199.74 1.63843 0.591701 0
M  V30 2104 C 196.872 3.24278 1.05151 0
M  V30 2105 H 198.065 2.90985 -0.725786 0
M  V30 2106 H 195.618 1.50702 -0.414545 0
M  V30 2107 H 196.353 2.6737 1.83532 0
M  V30 2108 H 196.138 3.88396 0.537687 0
M  V30 2109 H 197.628 3.88647 1.52786 0
M  V30 2110 N 198.065 0.39524 1.52563 0
M  V30 2111 C 199.313 -0.184678 2.01254 0
M  V30 2112 C 199.634 -1.46822 1.28329 0
M  V30 2113 O 198.904 -1.91666 0.405094 0
M  V30 2114 H 197.484 -0.0712355 0.743596 0
M  V30 2115 H 200.146 0.528293 1.87603 0
M  V30 2116 H 199.242 -0.390681 3.09645 0
M  V30 2117 N 199.544 -1.57102 0.125237 0
M  V30 2118 C 200.79 -1.96488 -0.525753 0
M  V30 2119 C 201.145 -1.00786 -1.6389 0
M  V30 2120 O 200.438 -0.038979 -1.9156 0
M  V30 2121 C 200.632 -3.40096 -1.09862 0
M  V30 2122 C 200.461 -4.4968 -0.0425004 0
M  V30 2123 C 199.231 -5.03781 0.391463 0
M  V30 2124 C 201.429 -5.08936 0.740829 0
M  V30 2125 N 199.411 -5.96948 1.4327 0
M  V30 2126 C 200.782 -5.98105 1.6331 0
M  V30 2127 C 202.837 -4.91576 0.791029 0
M  V30 2128 C 201.54 -6.71774 2.57122 0
M  V30 2129 C 203.566 -5.6593 1.71688 0
M  V30 2130 C 202.928 -6.5479 2.59672 0
M  V30 2131 H 199.027 -0.765072 -0.161831 0
M  V30 2132 H 201.611 -1.93511 0.214801 0
M  V30 2133 H 199.782 -3.43707 -1.80887 0
M  V30 2134 H 201.514 -3.66591 -1.71444 0
M  V30 2135 H 198.269 -4.736 -0.00213584 0
M  V30 2136 H 198.693 -6.48236 1.95243 0
M  V30 2137 H 203.335 -4.22615 0.124915 0
M  V30 2138 H 201.053 -7.39977 3.24744 0
M  V30 2139 H 204.639 -5.54501 1.76125 0
M  V30 2140 H 203.519 -7.11316 3.30149 0
M  V30 2141 N 201.022 0.148545 -1.56898 0
M  V30 2142 C 201.985 1.16736 -1.97244 0
M  V30 2143 C 202.985 1.35947 -0.858777 0
M  V30 2144 O 204.175 1.32966 -1.12542 0
M  V30 2145 C 201.307 2.52798 -2.28705 0
M  V30 2146 H 202.5 0.821279 -2.88435 0
M  V30 2147 H 200.053 0.391831 -1.51309 0
M  V30 2148 H 200.788 2.92381 -1.403 0
M  V30 2149 H 200.573 2.40216 -3.09901 0
M  V30 2150 H 202.063 3.26179 -2.60762 0
M  V30 2151 N 202.5 1.5196 0.417844 0
M  V30 2152 C 203.777 1.56146 1.17803 0
M  V30 2153 C 204.157 0.337275 2.08388 0
M  V30 2154 O 203.505 -0.676447 2.18258 0
M  V30 2155 C 203.715 2.88566 1.96293 0
M  V30 2156 C 205.063 3.41244 2.52662 0
M  V30 2157 O 206.087 2.90247 2.06483 0
M  V30 2158 O 204.946 4.30273 3.36938 0
M  V30 2159 H 202.04 0.628598 0.537395 0
M  V30 2160 H 204.586 1.64283 0.425331 0
M  V30 2161 H 203.358 3.69116 1.2988 0
M  V30 2162 H 202.981 2.83681 2.78587 0
M  V30 2163 N 203.978 -0.674533 1.42435 0
M  V30 2164 C 204.925 -1.78807 1.45934 0
M  V30 2165 C 205.895 -1.63157 0.311271 0
M  V30 2166 O 207.08 -1.83707 0.515383 0
M  V30 2167 C 204.22 -3.16839 1.36773 0
M  V30 2168 C 203.333 -3.43774 2.61617 0
M  V30 2169 C 202.468 -4.71536 2.44597 0
M  V30 2170 C 201.507 -4.91505 3.64814 0
M  V30 2171 N 200.644 -6.10508 3.46734 0
M  V30 2172 H 205.484 -1.75151 2.41093 0
M  V30 2173 H 203.021 -0.85504 1.19697 0
M  V30 2174 H 204.979 -3.96606 1.29459 0
M  V30 2175 H 203.609 -3.19619 0.452089 0
M  V30 2176 H 202.661 -2.58259 2.79297 0
M  V30 2177 H 203.973 -3.54423 3.50978 0
M  V30 2178 H 203.127 -5.59393 2.3487 0
M  V30 2179 H 201.866 -4.6317 1.52726 0
M  V30 2180 H 200.871 -4.0209 3.74972 0
M  V30 2181 H 202.096 -5.01716 4.57665 0
M  V30 2182 H 200.042 -6.03315 2.5758 0
M  V30 2183 H 199.959 -6.2202 4.29682 0
M  V30 2184 H 201.227 -7.01044 3.40819 0
M  V30 2185 N 205.456 -1.28612 -0.910864 0
M  V30 2186 C 206.705 -1.15311 -1.65488 0
M  V30 2187 C 207.018 0.296999 -1.93332 0
M  V30 2188 O 208.224 0.551168 -2.65847 0
M  V30 2189 C 206.68 -2.01599 -2.98137 0
M  V30 2190 C 206.288 -3.51367 -2.7793 0
M  V30 2191 C 208.032 -1.96993 -3.76024 0
M  V30 2192 C 205.939 -4.29797 -4.06237 0
M  V30 2193 H 204.869 -0.42796 -0.620779 0
M  V30 2194 H 207.52 -1.53166 -1.01057 0
M  V30 2195 H 205.902 -1.56603 -3.63719 0
M  V30 2196 H 207.076 -4.0434 -2.21011 0
M  V30 2197 H 205.391 -3.57529 -2.13452 0
M  V30 2198 H 207.988 -2.52856 -4.71135 0
M  V30 2199 H 208.331 -0.94733 -4.05378 0
M  V30 2200 H 208.864 -2.39973 -3.17266 0
M  V30 2201 H 205.603 -5.32648 -3.82055 0
M  V30 2202 H 205.123 -3.81596 -4.62757 0
M  V30 2203 H 206.802 -4.39869 -4.74473 0
M  V30 2204 N 206.934 1.1197 -1.10907 0
M  V30 2205 C 207.866 2.17592 -0.720175 0
M  V30 2206 C 208.879 1.60938 0.245495 0
M  V30 2207 O 210.068 1.78476 0.0292245 0
M  V30 2208 C 207.168 3.38873 -0.0427917 0
M  V30 2209 C 206.341 4.25006 -1.03388 0
M  V30 2210 C 205.4 5.24774 -0.387075 0
M  V30 2211 O 204.426 5.59631 -1.03934 0
M  V30 2212 N 205.628 5.74208 0.852407 0
M  V30 2213 H 208.393 2.51567 -1.62893 0
M  V30 2214 H 205.954 1.27439 -0.998543 0
M  V30 2215 H 207.946 4.02703 0.401501 0
M  V30 2216 H 206.516 3.03007 0.768456 0
M  V30 2217 H 205.736 3.57716 -1.65629 0
M  V30 2218 H 207.024 4.79397 -1.70458 0
M  V30 2219 H 206.422 5.48062 1.40161 0
M  V30 2220 H 204.979 6.39901 1.23977 0
M  V30 2221 N 208.412 0.89855 1.29475 0
M  V30 2222 C 209.66 0.522847 1.9522 0
M  V30 2223 C 209.981 -0.93371 1.71192 0
M  V30 2224 O 209.251 -1.65823 1.04305 0
M  V30 2225 H 207.831 0.190366 0.722336 0
M  V30 2226 H 210.493 1.14459 1.5775 0
M  V30 2227 H 209.589 0.704476 3.04045 0
M  V30 2228 N 209.89 -1.43072 0.660911 0
M  V30 2229 C 211.306 -1.56169 0.329173 0
M  V30 2230 C 211.506 -1.64317 -1.16629 0
M  V30 2231 O 210.562 -1.60245 -1.95135 0
M  V30 2232 C 211.875 -2.81873 1.04729 0
M  V30 2233 C 213.423 -2.95627 1.02828 0
M  V30 2234 C 213.898 -4.24174 1.72744 0
M  V30 2235 N 215.389 -4.31055 1.69545 0
M  V30 2236 C 216.124 -5.29304 2.20511 0
M  V30 2237 N 215.62 -6.33786 2.79799 0
M  V30 2238 N 217.413 -5.21008 2.10966 0
M  V30 2239 H 209.564 -1.36027 1.63127 0
M  V30 2240 H 211.827 -0.653823 0.686454 0
M  V30 2241 H 211.533 -2.81942 2.10242 0
M  V30 2242 H 211.407 -3.72338 0.603702 0
M  V30 2243 H 213.794 -2.95094 -0.0184742 0
M  V30 2244 H 213.875 -2.06431 1.51063 0
M  V30 2245 H 213.519 -4.25467 2.7738 0
M  V30 2246 H 213.449 -5.1228 1.2197 0
M  V30 2247 H 215.94 -3.56174 1.26288 0
M  V30 2248 H 216.253 -7.05086 3.16344 0
M  V30 2249 H 214.598 -6.34387 2.83863 0
M  V30 2250 H 217.789 -4.38301 1.64347 0
M  V30 2251 H 217.962 -5.97416 2.50993 0
M  V30 2252 N 211.368 -0.403325 -1.52352 0
M  V30 2253 C 212.596 0.174012 -2.06167 0
M  V30 2254 C 213.011 1.39347 -1.27388 0
M  V30 2255 O 212.368 1.79597 -0.324201 0
M  V30 2256 C 212.419 0.530223 -3.5759 0
M  V30 2257 O 212.14 -0.640806 -4.33388 0
M  V30 2258 C 213.641 1.16192 -4.27802 0
M  V30 2259 H 210.861 0.0229464 -0.670608 0
M  V30 2260 H 213.405 -0.572604 -1.9632 0
M  V30 2261 H 211.56 1.22673 -3.67464 0
M  V30 2262 H 211.974 -0.344851 -5.23365 0
M  V30 2263 H 213.448 1.36141 -5.34948 0
M  V30 2264 H 213.925 2.13335 -3.83907 0
M  V30 2265 H 214.531 0.505775 -4.22282 0
M  V30 2266 N 212.846 1.57033 -0.133567 0
M  V30 2267 C 214.095 1.94861 0.520768 0
M  V30 2268 C 214.408 1.02012 1.66892 0
M  V30 2269 O 215.614 1.29365 2.38699 0
M  V30 2270 C 214.07 3.46362 0.977809 0
M  V30 2271 C 213.678 4.47773 -0.142674 0
M  V30 2272 C 215.422 3.93083 1.60269 0
M  V30 2273 C 213.329 5.90468 0.331883 0
M  V30 2274 H 212.259 0.727453 0.198315 0
M  V30 2275 H 214.91 1.82227 -0.215759 0
M  V30 2276 H 213.292 3.54282 1.7692 0
M  V30 2277 H 214.466 4.51536 -0.919317 0
M  V30 2278 H 212.781 4.10891 -0.675124 0
M  V30 2279 H 215.378 4.97121 1.96914 0
M  V30 2280 H 215.721 3.33876 2.48662 0
M  V30 2281 H 216.254 3.88025 0.876453 0
M  V30 2282 H 212.993 6.53463 -0.516341 0
M  V30 2283 H 212.513 5.90094 1.07469 0
M  V30 2284 H 214.192 6.42179 0.788332 0
M  V30 2285 N 214.325 -0.140222 1.56975 0
M  V30 2286 C 215.736 -0.699596 1.73097 0
M  V30 2287 C 216.087 -1.8134 0.749022 0
M  V30 2288 O 215.212 -2.16241 -0.0828503 0
M  V30 2289 C 215.807 -1.27582 3.1386 0
M  V30 2290 C 214.366 -1.78169 3.31561 0
M  V30 2291 C 213.513 -0.672855 2.69013 0
M  V30 2292 H 216.464 0.0855115 1.58469 0
M  V30 2293 H 216.485 -2.14561 3.14235 0
M  V30 2294 H 215.997 -0.464955 3.85305 0
M  V30 2295 H 214.098 -2.61801 2.65124 0
M  V30 2296 H 214.211 -1.90574 4.39566 0
M  V30 2297 H 212.575 -1.10118 2.29665 0
M  V30 2298 H 213.358 0.126679 3.43066 0
M  V30 2299 N 215.803 -1.52179 -0.40978 0
M  V30 2300 C 217.052 -1.65434 -1.15388 0
M  V30 2301 C 217.365 -0.390056 -1.91671 0
M  V30 2302 O 218.571 -0.402399 -2.68501 0
M  V30 2303 C 217.027 -2.92279 -2.10003 0
M  V30 2304 C 216.635 -4.25813 -1.39239 0
M  V30 2305 C 218.379 -3.14897 -2.84675 0
M  V30 2306 C 216.286 -5.43782 -2.32498 0
M  V30 2307 H 215.216 -0.616267 -0.434432 0
M  V30 2308 H 217.867 -1.78666 -0.418401 0
M  V30 2309 H 216.249 -2.72744 -2.871 0
M  V30 2310 H 217.423 -4.55828 -0.675099 0
M  V30 2311 H 215.738 -4.09292 -0.766097 0
M  V30 2312 H 218.335 -4.0021 -3.54593 0
M  V30 2313 H 218.678 -2.29103 -3.47588 0
M  V30 2314 H 219.211 -3.34901 -2.14677 0
M  V30 2315 H 215.95 -6.3192 -1.74233 0
M  V30 2316 H 215.47 -5.18106 -3.02201 0
M  V30 2317 H 217.149 -5.76834 -2.93038 0
M  V30 2318 N 217.281 0.66697 -1.42791 0
M  V30 2319 C 218.558 1.4234 -1.34159 0
M  V30 2320 C 218.938 2.11093 0.0172729 0
M  V30 2321 O 218.286 2.03808 1.03318 0
M  V30 2322 C 218.496 2.41942 -2.51526 0
M  V30 2323 C 219.844 3.06353 -2.93995 0
M  V30 2324 O 220.868 2.52269 -2.51473 0
M  V30 2325 O 219.727 4.04376 -3.67617 0
M  V30 2326 H 216.821 0.635277 -0.529483 0
M  V30 2327 H 219.367 0.695034 -1.54814 0
M  V30 2328 H 218.139 1.89991 -3.42081 0
M  V30 2329 H 217.762 3.22249 -2.32898 0
M  V30 2330 N 218.759 1.29093 0.90403 0
M  V30 2331 C 220.007 1.16583 1.65085 0
M  V30 2332 C 220.328 -0.283933 1.92922 0
M  V30 2333 O 219.598 -1.19509 1.55224 0
M  V30 2334 H 218.178 0.428467 0.611903 0
M  V30 2335 H 220.84 1.61959 1.08422 0
M  V30 2336 H 219.936 1.71266 2.6091 0
M  V30 2337 N 220.237 -1.11381 1.11499 0
M  V30 2338 C 221.185 -2.19522 0.768956 0
M  V30 2339 C 222.179 -1.67693 -0.239857 0
M  V30 2340 O 223.385 -1.79727 -0.0990755 0
M  V30 2341 H 219.76 -0.715711 0.230786 0
M  V30 2342 H 221.731 -2.45954 1.68964 0
M  V30 2343 C 220.48 -3.46945 0.229073 0
M  V30 2344 H 219.803 -3.8718 0.996596 0
M  V30 2345 H 221.243 -4.23993 0.0251441 0
M  V30 2346 C 219.702 -3.2042 -1.04079 0
M  V30 2347 O 220.232 -3.41178 -2.12038 0
M  V30 2348 N 218.438 -2.74151 -0.963823 0
M  V30 2349 H 217.985 -2.57459 -0.0851722 0
M  V30 2350 H 217.943 -2.56781 -1.81414 0
M  V30 2351 N 221.715 -0.905404 -1.28997 0
M  V30 2352 C 222.962 -0.534248 -1.95325 0
M  V30 2353 C 223.29 0.920535 -1.71337 0
M  V30 2354 O 222.545 1.66861 -1.02254 0
M  V30 2355 C 222.844 -0.779906 -3.48787 0
M  V30 2356 C 222.51 -2.21293 -3.92861 0
M  V30 2357 C 221.172 -2.60475 -4.04606 0
M  V30 2358 C 223.524 -3.14587 -4.15553 0
M  V30 2359 C 220.852 -3.9212 -4.36416 0
M  V30 2360 C 223.204 -4.45787 -4.48839 0
M  V30 2361 C 221.868 -4.84834 -4.58794 0
M  V30 2362 H 221.138 -0.195495 -0.714747 0
M  V30 2363 H 223.785 -1.14514 -1.53488 0
M  V30 2364 H 222.09 -0.0861365 -3.91705 0
M  V30 2365 H 223.787 -0.472029 -3.98212 0
M  V30 2366 H 220.377 -1.89887 -3.84241 0
M  V30 2367 H 224.561 -2.85528 -4.0594 0
M  V30 2368 H 219.817 -4.22086 -4.42327 0
M  V30 2369 H 223.991 -5.18098 -4.65346 0
M  V30 2370 H 221.618 -5.86877 -4.83197 0
M  V30 2371 N 223.193 1.4272 -0.668489 0
M  V30 2372 C 224.44 2.01624 -0.18814 0
M  V30 2373 C 224.768 1.5282 1.20317 0
M  V30 2374 O 224.023 0.718323 1.8204 0
M  V30 2375 C 224.322 3.57021 -0.164499 0
M  V30 2376 C 223.988 4.25232 -1.49962 0
M  V30 2377 C 222.65 4.4358 -1.8652 0
M  V30 2378 C 225.002 4.63727 -2.37921 0
M  V30 2379 C 222.33 4.97694 -3.10674 0
M  V30 2380 C 224.682 5.19218 -3.6138 0
M  V30 2381 C 223.346 5.3578 -3.98115 0
M  V30 2382 H 222.616 0.737795 -0.0688454 0
M  V30 2383 H 225.263 1.70991 -0.862225 0
M  V30 2384 H 223.568 3.87285 0.593079 0
M  V30 2385 H 225.265 4.00372 0.224271 0
M  V30 2386 H 221.855 4.11306 -1.20522 0
M  V30 2387 H 226.039 4.4923 -2.10964 0
M  V30 2388 H 221.295 5.08702 -3.39164 0
M  V30 2389 H 225.469 5.4799 -4.29743 0
M  V30 2390 H 223.096 5.77475 -4.94395 0
M  V30 2391 N 224.671 0.411399 1.52136 0
M  V30 2392 C 225.899 -0.163076 2.06256 0
M  V30 2393 C 226.314 -1.3867 1.28125 0
M  V30 2394 O 225.671 -1.79423 0.333721 0
M  V30 2395 C 225.722 -0.511252 3.57867 0
M  V30 2396 O 225.443 0.66378 4.33042 0
M  V30 2397 C 226.944 -1.13921 4.28412 0
M  V30 2398 H 224.164 -0.0193897 0.67072 0
M  V30 2399 H 226.708 0.583007 1.96013 0
M  V30 2400 H 224.863 -1.20723 3.6811 0
M  V30 2401 H 225.277 0.372601 5.23175 0
M  V30 2402 H 226.751 -1.33302 5.35663 0
M  V30 2403 H 227.228 -2.11296 3.85033 0
M  V30 2404 H 227.834 -0.483373 4.22544 0
M  V30 2405 N 226.149 -1.5696 0.141893 0
M  V30 2406 C 227.379 -2.00031 -0.516828 0
M  V30 2407 C 227.787 -1.02091 -1.59293 0
M  V30 2408 O 227.13 -0.00909657 -1.83698 0
M  V30 2409 C 227.192 -3.39534 -1.1814 0
M  V30 2410 C 226.856 -4.56313 -0.250513 0
M  V30 2411 C 227.853 -5.17295 0.519839 0
M  V30 2412 C 225.538 -5.02061 -0.154907 0
M  V30 2413 C 227.532 -6.2243 1.3733 0
M  V30 2414 C 225.219 -6.07053 0.702161 0
M  V30 2415 C 226.217 -6.67106 1.46487 0
M  V30 2416 O 225.905 -7.70066 2.30767 0
M  V30 2417 H 225.637 -0.661451 -0.139493 0
M  V30 2418 H 228.191 -2.04086 0.231926 0
M  V30 2419 H 226.421 -3.32302 -1.97769 0
M  V30 2420 H 228.11 -3.66745 -1.73933 0
M  V30 2421 H 228.876 -4.82852 0.45598 0
M  V30 2422 H 224.755 -4.5505 -0.7383 0
M  V30 2423 H 228.299 -6.69233 1.96909 0
M  V30 2424 H 224.196 -6.40923 0.76733 0
M  V30 2425 H 224.964 -7.87264 2.23959 0
M  V30 2426 N 227.627 0.131896 -1.57047 0
M  V30 2427 C 228.855 0.856461 -1.88341 0
M  V30 2428 C 229.27 1.74042 -0.731757 0
M  V30 2429 O 228.627 1.80051 0.297945 0
M  V30 2430 C 228.678 1.70064 -3.18999 0
M  V30 2431 O 228.399 0.852278 -4.2973 0
M  V30 2432 C 229.9 2.53148 -3.63911 0
M  V30 2433 H 227.12 0.246885 -0.62393 0
M  V30 2434 H 229.664 0.120152 -2.04147 0
M  V30 2435 H 227.819 2.38984 -3.04902 0
M  V30 2436 H 228.233 1.43329 -5.04537 0
M  V30 2437 H 229.707 3.07931 -4.58129 0
M  V30 2438 H 230.184 3.29901 -2.89935 0
M  V30 2439 H 230.79 1.89492 -3.80753 0
M  V30 2440 N 229.106 1.52395 0.401703 0
M  V30 2441 C 230.522 1.41363 0.740864 0
M  V30 2442 C 230.722 0.523982 1.94568 0
M  V30 2443 O 229.778 -0.00741204 2.52499 0
M  V30 2444 C 231.091 2.84011 0.987847 0
M  V30 2445 C 232.639 2.93404 1.09011 0
M  V30 2446 C 233.114 4.37036 1.3698 0
M  V30 2447 N 234.605 4.40304 1.43829 0
M  V30 2448 C 235.34 5.48508 1.67112 0
M  V30 2449 N 234.836 6.66819 1.87949 0
M  V30 2450 N 236.629 5.36034 1.69187 0
M  V30 2451 H 228.78 2.08765 -0.391262 0
M  V30 2452 H 231.043 0.941265 -0.112798 0
M  V30 2453 H 230.749 3.51265 0.174835 0
M  V30 2454 H 230.623 3.25502 1.906 0
M  V30 2455 H 233.01 2.26325 1.8937 0
M  V30 2456 H 233.091 2.55359 0.15015 0
M  V30 2457 H 232.735 5.04676 0.571353 0
M  V30 2458 H 232.665 4.72623 2.3224 0
M  V30 2459 H 235.156 3.55024 1.29486 0
M  V30 2460 H 235.469 7.45063 2.05185 0
M  V30 2461 H 233.814 6.6987 1.85199 0
M  V30 2462 H 237.005 4.42579 1.52451 0
M  V30 2463 H 237.178 6.20434 1.86993 0
M  V30 2464 N 230.584 -0.659388 1.43143 0
M  V30 2465 C 231.534 -1.7655 1.44271 0
M  V30 2466 C 232.518 -1.57847 0.311961 0
M  V30 2467 O 233.71 -1.68064 0.555306 0
M  V30 2468 C 230.839 -3.15104 1.36251 0
M  V30 2469 C 229.925 -3.39377 2.54331 0
M  V30 2470 N 230.316 -3.34153 3.79704 0
M  V30 2471 C 228.614 -3.70072 2.48922 0
M  V30 2472 C 229.315 -3.58337 4.58225 0
M  V30 2473 N 228.291 -3.79851 3.88863 0
M  V30 2474 H 232.093 -1.70928 2.39083 0
M  V30 2475 H 229.607 -0.860823 1.37708 0
M  V30 2476 H 231.604 -3.94389 1.35141 0
M  V30 2477 H 230.264 -3.21913 0.424531 0
M  V30 2478 H 231.275 -3.13704 4.1208 0
M  V30 2479 H 227.952 -3.84034 1.63781 0
M  V30 2480 H 229.342 -3.60129 5.67236 0
M  V30 2481 N 232.062 -1.29571 -0.897171 0
M  V30 2482 C 232.972 -1.16808 -2.03453 0
M  V30 2483 C 233.988 -0.0907471 -1.73763 0
M  V30 2484 O 235.164 -0.303312 -1.99103 0
M  V30 2485 C 232.229 -0.848264 -3.36163 0
M  V30 2486 C 231.29 -2.0097 -3.79354 0
M  V30 2487 C 230.523 -1.70505 -5.05731 0
M  V30 2488 O 230.746 -0.62718 -5.66941 0
M  V30 2489 O 229.68 -2.5538 -5.45036 0
M  V30 2490 H 233.506 -2.12325 -2.17144 0
M  V30 2491 H 231.091 -1.09047 -1.02123 0
M  V30 2492 H 232.973 -0.684581 -4.15802 0
M  V30 2493 H 231.648 0.0771071 -3.23608 0
M  V30 2494 H 230.555 -2.22863 -3.00471 0
M  V30 2495 H 231.888 -2.91636 -3.96496 0
M  V30 2496 N 233.54 1.10788 -1.12088 0
M  V30 2497 C 234.951 1.64181 -0.88891 0
M  V30 2498 C 235.302 1.87508 0.577498 0
M  V30 2499 O 234.427 1.61434 1.44112 0
M  V30 2500 C 235.022 2.98257 -1.60712 0
M  V30 2501 C 233.581 3.4853 -1.42139 0
M  V30 2502 C 232.728 2.23208 -1.6454 0
M  V30 2503 H 235.679 0.943368 -1.27618 0
M  V30 2504 H 235.7 3.65552 -1.05604 0
M  V30 2505 H 235.212 2.81246 -2.67436 0
M  V30 2506 H 233.313 3.70692 -0.376552 0
M  V30 2507 H 233.426 4.26882 -2.17505 0
M  V30 2508 H 231.79 2.31169 -1.06925 0
M  V30 2509 H 232.573 2.08733 -2.72554 0
M  V30 2510 N 235.018 0.912232 1.28515 0
M  V30 2511 C 236.267 0.540504 1.94323 0
M  V30 2512 C 236.58 -0.920044 1.72611 0
M  V30 2513 O 237.786 -1.39986 2.32629 0
M  V30 2514 C 236.242 0.915803 3.48053 0
M  V30 2515 C 235.85 2.39598 3.78546 0
M  V30 2516 C 237.594 0.614588 4.20027 0
M  V30 2517 C 235.501 2.71148 5.25578 0
M  V30 2518 H 234.431 0.198418 0.727424 0
M  V30 2519 H 237.082 1.11094 1.46049 0
M  V30 2520 H 235.464 0.274168 3.9505 0
M  V30 2521 H 236.638 3.08422 3.42364 0
M  V30 2522 H 234.953 2.66749 3.1974 0
M  V30 2523 H 237.55 0.827002 5.28266 0
M  V30 2524 H 237.893 -0.447531 4.13887 0
M  V30 2525 H 238.426 1.21462 3.78803 0
M  V30 2526 H 235.165 3.76207 5.36794 0
M  V30 2527 H 234.685 2.0696 5.62963 0
M  V30 2528 H 236.364 2.58072 5.93302 0
M  V30 2529 N 236.496 -1.42363 0.676048 0
M  V30 2530 C 237.744 -2.01123 0.198437 0
M  V30 2531 C 238.065 -1.53731 -1.19966 0
M  V30 2532 O 237.335 -0.759518 -1.80577 0
M  V30 2533 H 235.915 -0.743678 0.0703721 0
M  V30 2534 H 238.577 -1.74263 0.872837 0
M  V30 2535 H 237.673 -3.11454 0.200686 0
M  V30 2536 N 237.974 -0.419461 -1.51915 0
M  V30 2537 C 239.22 0.153166 -2.02221 0
M  V30 2538 C 239.553 1.43907 -1.30401 0
M  V30 2539 O 238.828 1.90055 -0.413438 0
M  V30 2540 C 239.111 0.390291 -3.57979 0
M  V30 2541 C 238.964 -0.913014 -4.40436 0
M  V30 2542 C 240.283 1.16794 -4.2432 0
M  V30 2543 H 237.402 0.0541924 -0.735005 0
M  V30 2544 H 240.044 -0.554955 -1.81715 0
M  V30 2545 H 238.194 0.993491 -3.75582 0
M  V30 2546 H 239.866 -1.54882 -4.34522 0
M  V30 2547 H 238.109 -1.52168 -4.06236 0
M  V30 2548 H 238.78 -0.701361 -5.47526 0
M  V30 2549 H 241.256 0.657161 -4.10878 0
M  V30 2550 H 240.132 1.3026 -5.3322 0
M  V30 2551 H 240.393 2.19132 -3.83971 0
M  V30 2552 N 239.452 1.56882 -0.150215 0
M  V30 2553 C 240.692 1.98119 0.502804 0
M  V30 2554 C 241.056 1.03327 1.61826 0
M  V30 2555 O 242.257 1.33621 2.33236 0
M  V30 2556 C 240.528 3.43329 0.992988 0
M  V30 2557 S 242.087 4.0659 1.65015 0
M  V30 2558 H 238.905 0.692189 0.162467 0
M  V30 2559 H 241.507 1.93988 -0.242689 0
M  V30 2560 H 240.211 4.10046 0.170436 0
M  V30 2561 H 239.742 3.5118 1.77303 0
M  V30 2562 H 241.757 3.99906 2.93752 0
M  V30 2563 N 240.93 -0.123565 1.57115 0
M  V30 2564 C 242.178 -0.83051 1.84247 0
M  V30 2565 C 242.499 -1.80629 0.73471 0
M  V30 2566 O 241.769 -1.94403 -0.241688 0
M  V30 2567 H 240.349 -0.309694 0.679778 0
M  V30 2568 H 243.011 -0.111976 1.94578 0
M  V30 2569 H 242.107 -1.37852 2.80006 0
M  V30 2570 N 242.408 -1.52605 -0.393616 0
M  V30 2571 C 243.34 -1.73303 -1.49995 0
M  V30 2572 C 244.353 -0.613473 -1.50799 0
M  V30 2573 O 245.542 -0.889049 -1.54784 0
M  V30 2574 C 242.642 -1.77245 -2.88855 0
M  V30 2575 C 241.815 -3.06483 -3.12069 0
M  V30 2576 C 240.874 -3.02033 -4.30886 0
M  V30 2577 O 239.9 -3.75907 -4.27414 0
M  V30 2578 N 241.102 -2.20897 -5.36828 0
M  V30 2579 H 243.867 -2.68756 -1.32629 0
M  V30 2580 H 241.428 -1.51036 -0.583083 0
M  V30 2581 H 243.42 -1.7178 -3.66434 0
M  V30 2582 H 241.99 -0.891993 -2.99603 0
M  V30 2583 H 241.21 -3.25474 -2.22396 0
M  V30 2584 H 242.498 -3.91947 -3.2443 0
M  V30 2585 H 241.896 -1.60336 -5.42502 0
M  V30 2586 H 240.453 -2.21275 -6.13091 0
M  V30 2587 N 243.887 0.651787 -1.4349 0
M  V30 2588 C 245.136 1.40754 -1.44469 0
M  V30 2589 C 245.449 1.95463 -0.0731845 0
M  V30 2590 O 246.655 2.71471 0.0395721 0
M  V30 2591 C 245.111 2.54735 -2.5424 0
M  V30 2592 C 244.719 2.06628 -3.97504 0
M  V30 2593 C 246.463 3.32092 -2.64414 0
M  V30 2594 C 244.37 3.17829 -4.98737 0
M  V30 2595 H 243.3 0.528862 -0.53742 0
M  V30 2596 H 245.951 0.703365 -1.69485 0
M  V30 2597 H 244.333 3.2763 -2.22428 0
M  V30 2598 H 245.507 1.40734 -4.38783 0
M  V30 2599 H 243.822 1.42146 -3.91387 0
M  V30 2600 H 246.419 4.14952 -3.37223 0
M  V30 2601 H 246.762 3.80217 -1.69532 0
M  V30 2602 H 247.295 2.66279 -2.95534 0
M  V30 2603 H 244.034 2.74671 -5.95177 0
M  V30 2604 H 243.554 3.82429 -4.62069 0
M  V30 2605 H 245.233 3.82937 -5.21505 0
M  V30 2606 N 245.365 1.30045 0.890287 0
M  V30 2607 C 246.614 1.17929 1.63633 0
M  V30 2608 C 246.927 -0.266204 1.9378 0
M  V30 2609 O 248.133 -0.508804 2.6669 0
M  V30 2610 C 246.589 2.06317 2.94892 0
M  V30 2611 C 246.197 3.55745 2.72305 0
M  V30 2612 C 247.941 2.0295 3.72843 0
M  V30 2613 C 245.848 4.36205 3.99348 0
M  V30 2614 H 244.778 0.437782 0.613892 0
M  V30 2615 H 247.429 1.54754 0.986075 0
M  V30 2616 H 245.811 1.6237 3.61182 0
M  V30 2617 H 246.985 4.07805 2.1455 0
M  V30 2618 H 245.3 3.6088 2.07737 0
M  V30 2619 H 247.897 2.60319 4.67053 0
M  V30 2620 H 248.24 1.0117 4.0382 0
M  V30 2621 H 248.773 2.4499 3.13408 0
M  V30 2622 H 245.512 5.38659 3.73533 0
M  V30 2623 H 245.032 3.8891 4.56628 0
M  V30 2624 H 246.711 4.47362 4.67415 0
M  V30 2625 N 246.843 -1.10192 1.12674 0
M  V30 2626 C 248.254 -1.63707 0.897604 0
M  V30 2627 C 248.605 -1.87812 -0.567546 0
M  V30 2628 O 247.73 -1.62196 -1.43253 0
M  V30 2629 C 248.325 -2.974 1.62292 0
M  V30 2630 C 246.884 -3.47772 1.43986 0
M  V30 2631 C 246.031 -2.22332 1.65722 0
M  V30 2632 H 248.982 -0.936587 1.28116 0
M  V30 2633 H 249.003 -3.64986 1.07541 0
M  V30 2634 H 248.515 -2.79824 2.68924 0
M  V30 2635 H 246.616 -3.70487 0.396206 0
M  V30 2636 H 246.729 -4.25723 2.19765 0
M  V30 2637 H 245.093 -2.30599 1.08149 0
M  V30 2638 H 245.876 -2.07285 2.73657 0
M  V30 2639 N 248.321 -0.919034 -1.28029 0
M  V30 2640 C 249.567 -0.565221 -1.95389 0
M  V30 2641 C 249.922 0.882325 -1.70976 0
M  V30 2642 O 249.215 1.61988 -1.02325 0
M  V30 2643 C 249.409 -0.816855 -3.4794 0
M  V30 2644 C 249.238 -2.28731 -3.87185 0
M  V30 2645 C 248.008 -2.93841 -4.11079 0
M  V30 2646 C 250.206 -3.26415 -3.97439 0
M  V30 2647 N 248.188 -4.31129 -4.37037 0
M  V30 2648 C 249.559 -4.48884 -4.27672 0
M  V30 2649 C 251.614 -3.21742 -3.79982 0
M  V30 2650 C 250.317 -5.67268 -4.42266 0
M  V30 2651 C 252.343 -4.39431 -3.95796 0
M  V30 2652 C 251.705 -5.60675 -4.26407 0
M  V30 2653 H 247.804 -0.256797 -0.738633 0
M  V30 2654 H 250.388 -1.18386 -1.54573 0
M  V30 2655 H 248.559 -0.227445 -3.87733 0
M  V30 2656 H 250.291 -0.426542 -4.02446 0
M  V30 2657 H 247.046 -2.44547 -4.05578 0
M  V30 2658 H 247.47 -5.02127 -4.5409 0
M  V30 2659 H 252.112 -2.29079 -3.55363 0
M  V30 2660 H 249.83 -6.60406 -4.65714 0
M  V30 2661 H 253.416 -4.37323 -3.83719 0
M  V30 2662 H 252.296 -6.50223 -4.38383 0
M  V30 2663 N 249.799 1.42003 -0.683588 0
M  V30 2664 C 250.747 2.326 0.000815408 0
M  V30 2665 C 251.741 1.50308 0.781278 0
M  V30 2666 O 252.947 1.66322 0.688251 0
M  V30 2667 H 249.322 0.751758 0.0190616 0
M  V30 2668 H 251.293 2.88011 -0.780528 0
M  V30 2669 C 250.042 3.34978 0.93195 0
M  V30 2670 H 249.365 3.98345 0.340817 0
M  V30 2671 H 250.805 4.00936 1.37936 0
M  V30 2672 C 249.264 2.67925 2.04249 0
M  V30 2673 O 249.794 2.51788 3.12995 0
M  V30 2674 N 248 2.2681 1.81675 0
M  V30 2675 H 247.547 2.40135 0.932363 0
M  V30 2676 H 247.505 1.8228 2.56167 0
M  V30 2677 N 251.277 0.427512 1.51691 0
M  V30 2678 C 252.524 -0.142229 2.02 0
M  V30 2679 C 252.852 -1.43566 1.31221 0
M  V30 2680 O 252.107 -1.91298 0.412744 0
M  V30 2681 C 252.406 -0.418249 3.54944 0
M  V30 2682 C 252.072 0.788187 4.43958 0
M  V30 2683 C 250.734 1.11906 4.68007 0
M  V30 2684 C 253.086 1.59347 4.96244 0
M  V30 2685 C 250.414 2.25608 5.41588 0
M  V30 2686 C 252.766 2.7214 5.71072 0
M  V30 2687 C 251.43 3.05692 5.93387 0
M  V30 2688 H 250.7 -0.0520451 0.73917 0
M  V30 2689 H 253.347 0.572697 1.82736 0
M  V30 2690 H 251.652 -1.21496 3.72486 0
M  V30 2691 H 253.349 -0.872339 3.91397 0
M  V30 2692 H 249.939 0.520344 4.2543 0
M  V30 2693 H 254.123 1.35106 4.77556 0
M  V30 2694 H 249.379 2.51929 5.57083 0
M  V30 2695 H 253.553 3.34914 6.10578 0
M  V30 2696 H 251.18 3.9391 6.50184 0
M  V30 2697 N 252.755 -1.56801 0.158532 0
M  V30 2698 C 254.166 -1.83189 -0.360366 0
M  V30 2699 C 254.517 -1.07778 -1.63946 0
M  V30 2700 O 253.642 -0.326718 -2.13919 0
M  V30 2701 C 254.237 -3.32297 -0.660595 0
M  V30 2702 C 252.796 -3.59227 -1.12398 0
M  V30 2703 C 251.943 -2.76877 -0.153097 0
M  V30 2704 H 254.894 -1.54008 0.383031 0
M  V30 2705 H 254.915 -3.4908 -1.51405 0
M  V30 2706 H 254.427 -3.87156 0.270527 0
M  V30 2707 H 252.528 -3.09766 -2.07064 0
M  V30 2708 H 252.641 -4.67632 -1.04197 0
M  V30 2709 H 251.005 -2.46319 -0.647983 0
M  V30 2710 H 251.788 -3.34511 0.77182 0
M  V30 2711 N 254.233 0.115231 -1.57178 0
M  V30 2712 C 255.163 1.1423 -2.03651 0
M  V30 2713 C 256.144 1.42967 -0.921655 0
M  V30 2714 O 257.329 1.53343 -1.19162 0
M  V30 2715 C 254.459 2.4675 -2.44401 0
M  V30 2716 C 253.413 2.32467 -3.59365 0
M  V30 2717 C 252.739 3.69984 -3.86026 0
M  V30 2718 C 254.039 1.78203 -4.90959 0
M  V30 2719 H 255.733 0.755749 -2.89705 0
M  V30 2720 H 253.279 0.362093 -1.39373 0
M  V30 2721 H 255.232 3.18854 -2.75517 0
M  V30 2722 H 253.956 2.87302 -1.55322 0
M  V30 2723 H 252.615 1.62811 -3.28463 0
M  V30 2724 H 252.263 4.08028 -2.94147 0
M  V30 2725 H 251.963 3.61279 -4.63412 0
M  V30 2726 H 253.487 4.43587 -4.19599 0
M  V30 2727 H 254.901 2.40128 -5.20587 0
M  V30 2728 H 253.298 1.8031 -5.72371 0
M  V30 2729 H 254.368 0.739876 -4.79222 0
M  V30 2730 N 255.711 1.52812 0.385517 0
M  V30 2731 C 256.957 1.68275 1.13188 0
M  V30 2732 C 257.29 0.423179 1.89533 0
M  V30 2733 O 256.565 -0.579113 1.85679 0
M  V30 2734 C 256.848 2.92001 2.1073 0
M  V30 2735 C 256.701 4.28067 1.38125 0
M  V30 2736 C 258.02 3.11283 3.11113 0
M  V30 2737 H 255.139 0.612352 0.410115 0
M  V30 2738 H 257.781 1.85415 0.414869 0
M  V30 2739 H 255.931 2.77519 2.71874 0
M  V30 2740 H 257.603 4.54324 0.799187 0
M  V30 2741 H 255.846 4.28388 0.683092 0
M  V30 2742 H 256.517 5.10733 2.09417 0
M  V30 2743 H 258.993 3.2482 2.6006 0
M  V30 2744 H 257.869 3.99325 3.76605 0
M  V30 2745 H 258.13 2.25656 3.80173 0
M  V30 2746 N 257.189 -0.644168 1.43834 0
M  V30 2747 C 258.122 -1.76906 1.44151 0
M  V30 2748 C 259.1 -1.59774 0.301857 0
M  V30 2749 O 260.284 -1.81834 0.496841 0
M  V30 2750 C 257.411 -3.14321 1.26174 0
M  V30 2751 C 256.457 -3.50134 2.43533 0
M  V30 2752 S 257.29 -3.49085 4.06079 0
M  V30 2753 C 258.446 -4.89142 3.90501 0
M  V30 2754 H 258.679 -1.76368 2.39336 0
M  V30 2755 H 256.212 -0.817624 1.30974 0
M  V30 2756 H 258.17 -3.93625 1.16489 0
M  V30 2757 H 256.831 -3.12412 0.325224 0
M  V30 2758 H 256.024 -4.50095 2.26783 0
M  V30 2759 H 255.626 -2.78264 2.4989 0
M  V30 2760 H 257.918 -5.78036 3.53385 0
M  V30 2761 H 258.861 -5.10945 4.90246 0
M  V30 2762 H 259.269 -4.63102 3.22795 0
M  V30 2763 N 258.668 -1.30515 -0.883378 0
M  V30 2764 C 259.598 -1.19607 -2.00541 0
M  V30 2765 C 260.579 -0.086346 -1.69881 0
M  V30 2766 O 261.764 -0.268654 -1.92333 0
M  V30 2767 C 258.894 -0.888758 -3.35736 0
M  V30 2768 C 257.848 -1.95659 -3.8066 0
M  V30 2769 C 257.174 -1.50224 -5.13164 0
M  V30 2770 C 258.474 -3.36788 -3.99213 0
M  V30 2771 H 260.168 -2.13476 -2.09925 0
M  V30 2772 H 257.714 -1.02775 -1.00863 0
M  V30 2773 H 259.667 -0.799094 -4.13754 0
M  V30 2774 H 258.391 0.0856125 -3.26488 0
M  V30 2775 H 257.05 -2.03591 -3.04871 0
M  V30 2776 H 256.698 -0.516092 -5.00345 0
M  V30 2777 H 256.398 -2.2165 -5.44192 0
M  V30 2778 H 257.922 -1.42639 -5.93706 0
M  V30 2779 H 259.336 -3.31605 -4.67665 0
M  V30 2780 H 257.733 -4.06314 -4.41621 0
M  V30 2781 H 258.803 -3.78561 -3.03017 0
M  V30 2782 N 260.146 1.09593 -1.13257 0
M  V30 2783 C 261.395 1.81105 -0.887917 0
M  V30 2784 C 261.708 1.86563 0.587672 0
M  V30 2785 O 262.914 2.54367 0.949204 0
M  V30 2786 C 261.37 3.25338 -1.53895 0
M  V30 2787 C 260.978 3.28151 -3.04994 0
M  V30 2788 C 262.722 4.01617 -1.37492 0
M  V30 2789 C 260.629 4.66897 -3.6299 0
M  V30 2790 H 259.559 0.678661 -0.328534 0
M  V30 2791 H 262.21 1.23183 -1.36008 0
M  V30 2792 H 260.592 3.8331 -0.994446 0
M  V30 2793 H 261.766 2.79953 -3.66009 0
M  V30 2794 H 260.081 2.65361 -3.20893 0
M  V30 2795 H 262.678 5.04119 -1.78235 0
M  V30 2796 H 263.021 4.15072 -0.31957 0
M  V30 2797 H 263.554 3.50082 -1.88912 0
M  V30 2798 H 260.293 4.58643 -4.68323 0
M  V30 2799 H 259.813 5.15426 -3.06752 0
M  V30 2800 H 261.492 5.3587 -3.62563 0
M  V30 2801 N 261.624 0.925811 1.2754 0
M  V30 2802 C 262.87 0.575575 1.95086 0
M  V30 2803 C 263.225 -0.873246 1.71441 0
M  V30 2804 O 262.518 -1.61443 1.03183 0
M  V30 2805 C 262.712 0.835296 3.47502 0
M  V30 2806 C 262.541 2.30781 3.85967 0
M  V30 2807 C 261.311 2.96017 4.09514 0
M  V30 2808 C 263.509 3.28519 3.95702 0
M  V30 2809 N 261.491 4.3344 4.34744 0
M  V30 2810 C 262.862 4.51146 4.25285 0
M  V30 2811 C 264.917 3.23753 3.7827 0
M  V30 2812 C 263.62 5.69606 4.39251 0
M  V30 2813 C 265.646 4.41523 3.9346 0
M  V30 2814 C 265.008 5.62928 4.23428 0
M  V30 2815 H 261.107 0.260711 0.737261 0
M  V30 2816 H 263.691 1.19204 1.53943 0
M  V30 2817 H 261.862 0.248005 3.87607 0
M  V30 2818 H 263.594 0.447878 4.02214 0
M  V30 2819 H 260.349 2.46695 4.04275 0
M  V30 2820 H 260.773 5.04528 4.5142 0
M  V30 2821 H 265.415 2.3096 3.54143 0
M  V30 2822 H 263.133 6.62866 4.62205 0
M  V30 2823 H 266.719 4.39351 3.81394 0
M  V30 2824 H 265.599 6.52538 4.34929 0
M  V30 2825 N 263.102 -1.41638 0.69111 0
M  V30 2826 C 264.049 -2.30789 0.0229705 0
M  V30 2827 C 265.019 -1.46863 -0.775911 0
M  V30 2828 O 266.204 -1.75661 -0.74485 0
M  V30 2829 C 263.344 -3.32868 -0.910666 0
M  V30 2830 C 262.457 -4.31875 -0.103874 0
M  V30 2831 C 261.592 -5.21024 -1.03475 0
M  V30 2832 C 260.631 -6.11702 -0.220598 0
M  V30 2833 N 259.768 -6.93349 -1.10504 0
M  V30 2834 H 264.608 -2.87366 0.788978 0
M  V30 2835 H 262.145 -1.41535 0.400794 0
M  V30 2836 H 264.103 -3.90596 -1.46597 0
M  V30 2837 H 262.733 -2.77851 -1.64312 0
M  V30 2838 H 261.785 -3.76131 0.568285 0
M  V30 2839 H 263.097 -4.96003 0.527504 0
M  V30 2840 H 262.251 -5.83565 -1.65943 0
M  V30 2841 H 260.99 -4.57112 -1.69999 0
M  V30 2842 H 259.995 -5.48215 0.417187 0
M  V30 2843 H 261.22 -6.77668 0.440784 0
M  V30 2844 H 259.166 -6.3205 -1.75638 0
M  V30 2845 H 259.083 -7.54146 -0.529125 0
M  V30 2846 H 260.351 -7.60362 -1.71667 0
M  V30 2847 N 264.58 -0.43555 -1.51462 0
M  V30 2848 C 265.829 0.133007 -2.01261 0
M  V30 2849 C 266.142 1.43942 -1.32439 0
M  V30 2850 O 267.348 2.09081 -1.73198 0
M  V30 2851 C 265.804 0.287581 -3.58749 0
M  V30 2852 C 265.412 -1.00829 -4.36506 0
M  V30 2853 C 267.156 0.810004 -4.167 0
M  V30 2854 C 265.063 -0.819454 -5.85695 0
M  V30 2855 H 263.993 0.0534822 -0.752101 0
M  V30 2856 H 266.644 -0.565038 -1.74584 0
M  V30 2857 H 265.026 1.04859 -3.81865 0
M  V30 2858 H 266.2 -1.77749 -4.25138 0
M  V30 2859 H 264.515 -1.45911 -3.89999 0
M  V30 2860 H 267.112 0.967743 -5.2587 0
M  V30 2861 H 267.455 1.79196 -3.75758 0
M  V30 2862 H 267.988 0.107357 -3.97655 0
M  V30 2863 H 264.727 -1.77374 -6.31046 0
M  V30 2864 H 264.247 -0.0900208 -5.99732 0
M  V30 2865 H 265.926 -0.471949 -6.45276 0
M  V30 2866 N 266.058 1.56714 -0.166846 0
M  V30 2867 C 267.306 1.96358 0.478305 0
M  V30 2868 C 267.627 1.0537 1.6408 0
M  V30 2869 O 266.897 0.119154 1.95537 0
M  V30 2870 H 265.477 0.725065 0.179692 0
M  V30 2871 H 268.139 1.93329 -0.246985 0
M  V30 2872 H 267.235 3.00547 0.841292 0
M  V30 2873 N 267.536 -0.106894 1.57237 0
M  V30 2874 C 268.947 -0.662723 1.74542 0
M  V30 2875 C 269.298 -1.7971 0.787319 0
M  V30 2876 O 268.423 -2.16368 -0.0369636 0
M  V30 2877 C 269.018 -1.20896 3.16496 0
M  V30 2878 C 267.577 -1.71096 3.35266 0
M  V30 2879 C 266.724 -0.615642 2.7038 0
M  V30 2880 H 269.675 0.119106 1.58252 0
M  V30 2881 H 269.696 -2.07847 3.18716 0
M  V30 2882 H 269.208 -0.383122 3.86204 0
M  V30 2883 H 267.309 -2.56119 2.70618 0
M  V30 2884 H 267.422 -1.81208 4.43509 0
M  V30 2885 H 265.786 -1.05222 2.31949 0
M  V30 2886 H 266.569 0.199419 3.4272 0
M  V30 2887 N 269.014 -1.53014 -0.377408 0
M  V30 2888 C 269.977 -1.77957 -1.44444 0
M  V30 2889 C 270.977 -0.649763 -1.47087 0
M  V30 2890 O 272.167 -0.917897 -1.48055 0
M  V30 2891 C 269.299 -1.89089 -2.83651 0
M  V30 2892 H 270.492 -2.73243 -1.23606 0
M  V30 2893 H 268.045 -1.43912 -0.609844 0
M  V30 2894 H 268.78 -0.958293 -3.09818 0
M  V30 2895 H 268.565 -2.71254 -2.83132 0
M  V30 2896 H 270.055 -2.1002 -3.60945 0
M  V30 2897 N 270.492 0.636531 -1.44174 0
M  V30 2898 C 271.422 1.76003 -1.53444 0
M  V30 2899 C 272.403 1.65619 -0.387841 0
M  V30 2900 O 273.588 1.84461 -0.607257 0
M  V30 2901 C 270.718 3.14511 -1.4731 0
M  V30 2902 C 269.672 3.39677 -2.60391 0
M  V30 2903 C 268.998 4.78159 -2.39308 0
M  V30 2904 C 270.298 3.32772 -4.02567 0
M  V30 2905 H 271.992 1.68501 -2.47483 0
M  V30 2906 H 269.538 0.809237 -1.19111 0
M  V30 2907 H 271.491 3.92878 -1.52397 0
M  V30 2908 H 270.215 3.22783 -0.49785 0
M  V30 2909 H 268.874 2.63688 -2.54684 0
M  V30 2910 H 268.522 4.83128 -1.39988 0
M  V30 2911 H 268.222 4.95956 -3.15122 0
M  V30 2912 H 269.746 5.58762 -2.46205 0
M  V30 2913 H 271.16 4.01051 -4.09672 0
M  V30 2914 H 269.557 3.62104 -4.7854 0
M  V30 2915 H 270.627 2.30669 -4.2652 0
M  V30 2916 N 271.97 1.30982 0.876444 0
M  V30 2917 C 273.195 1.23373 1.66715 0
M  V30 2918 C 273.62 -0.19885 1.87046 0
M  V30 2919 O 272.978 -1.1427 1.40756 0
M  V30 2920 C 273.026 1.97644 3.01611 0
M  V30 2921 O 272.13 1.30935 3.91062 0
M  V30 2922 H 271.471 0.426279 0.509099 0
M  V30 2923 H 274.001 1.72944 1.09323 0
M  V30 2924 H 274.011 2.06992 3.51594 0
M  V30 2925 H 272.686 3.01829 2.86133 0
M  V30 2926 H 271.263 1.29996 3.49507 0
M  V30 2927 N 273.449 -1.08991 1.13837 0
M  V30 2928 C 274.689 -1.82867 0.913183 0
M  V30 2929 C 275.053 -1.83936 -0.550604 0
M  V30 2930 O 276.254 -2.53515 -0.893515 0
M  V30 2931 C 274.525 -3.24843 1.49036 0
M  V30 2932 S 276.084 -4.15669 1.40588 0
M  V30 2933 H 272.902 -0.630278 0.329046 0
M  V30 2934 H 275.504 -1.31049 1.45073 0
M  V30 2935 H 274.208 -3.21644 2.54899 0
M  V30 2936 H 273.739 -3.81734 0.950947 0
M  V30 2937 H 275.754 -4.94686 0.387353 0
M  V30 2938 N 274.927 -0.932562 -1.27047 0
M  V30 2939 C 276.175 -0.574422 -1.93765 0
M  V30 2940 C 276.496 0.887993 -1.73608 0
M  V30 2941 O 275.766 1.62999 -1.08665 0
M  V30 2942 H 274.346 -0.209451 -0.717035 0
M  V30 2943 H 277.008 -1.18601 -1.5466 0
M  V30 2944 H 276.104 -0.784841 -3.02071 0
M  V30 2945 N 276.405 1.4127 -0.698611 0
M  V30 2946 C 277.353 2.32588 -0.023855 0
M  V30 2947 C 278.347 1.51128 0.765292 0
M  V30 2948 O 279.553 1.67043 0.670571 0
M  V30 2949 H 275.928 0.751918 0.0110871 0
M  V30 2950 H 277.899 2.87167 -0.811031 0
M  V30 2951 C 276.648 3.35947 0.896369 0
M  V30 2952 H 275.971 3.98684 0.298548 0
M  V30 2953 H 277.411 4.02376 1.33676 0
M  V30 2954 C 275.87 2.70076 2.01396 0
M  V30 2955 O 276.4 2.55093 3.10307 0
M  V30 2956 N 274.606 2.28724 1.79259 0
M  V30 2957 H 274.153 2.4111 0.906841 0
M  V30 2958 H 274.111 1.84986 2.54219 0
M  V30 2959 N 277.883 0.443576 1.51229 0
M  V30 2960 C 279.111 -0.11929 2.06556 0
M  V30 2961 C 279.526 -1.35921 1.31038 0
M  V30 2962 O 278.883 -1.78675 0.371704 0
M  V30 2963 C 278.934 -0.435228 3.5887 0
M  V30 2964 O 278.655 0.755486 4.31537 0
M  V30 2965 C 280.156 -1.04808 4.30732 0
M  V30 2966 H 277.376 -0.0051584 0.67098 0
M  V30 2967 H 279.92 0.624453 1.94733 0
M  V30 2968 H 278.075 -1.12887 3.70588 0
M  V30 2969 H 278.489 0.483491 5.22267 0
M  V30 2970 H 279.963 -1.2191 5.3837 0
M  V30 2971 H 280.44 -2.03081 3.89429 0
M  V30 2972 H 281.046 -0.393637 4.23474 0
M  V30 2973 N 279.361 -1.56624 0.175154 0
M  V30 2974 C 280.607 -1.9729 -0.469506 0
M  V30 2975 C 280.94 -1.06128 -1.62636 0
M  V30 2976 O 280.215 -0.109183 -1.94193 0
M  V30 2977 C 280.498 -3.47375 -0.948804 0
M  V30 2978 C 280.351 -4.49317 0.208491 0
M  V30 2979 C 281.67 -4.00652 -1.82116 0
M  V30 2980 H 278.789 -0.717317 -0.16919 0
M  V30 2981 H 281.431 -1.88184 0.262062 0
M  V30 2982 H 279.581 -3.55267 -1.57219 0
M  V30 2983 H 281.253 -4.53482 0.845682 0
M  V30 2984 H 279.496 -4.25121 0.863395 0
M  V30 2985 H 280.167 -5.51741 -0.169059 0
M  V30 2986 H 282.643 -3.95416 -1.2956 0
M  V30 2987 H 281.519 -5.06075 -2.12554 0
M  V30 2988 H 281.78 -3.44699 -2.7683 0
M  V30 2989 N 280.839 0.0985539 -1.57292 0
M  V30 2990 C 282.085 0.803867 -1.86188 0
M  V30 2991 C 282.418 1.78549 -0.763794 0
M  V30 2992 O 281.693 1.93153 0.22855 0
M  V30 2993 C 281.976 1.53568 -3.25713 0
M  V30 2994 C 281.829 0.572277 -4.46145 0
M  V30 2995 C 283.148 2.48708 -3.63087 0
M  V30 2996 H 280.267 0.290781 -0.677211 0
M  V30 2997 H 282.909 0.0675783 -1.8988 0
M  V30 2998 H 281.059 2.16332 -3.22696 0
M  V30 2999 H 282.731 -0.0480894 -4.61275 0
M  V30 3000 H 280.974 -0.114618 -4.33649 0
M  V30 3001 H 281.645 1.12139 -5.40489 0
M  V30 3002 H 284.121 1.96039 -3.67026 0
M  V30 3003 H 282.997 2.96932 -4.61652 0
M  V30 3004 H 283.258 3.32309 -2.91588 0
M  V30 3005 N 282.317 1.53212 0.369288 0
M  V30 3006 C 283.563 1.69466 1.11397 0
M  V30 3007 C 283.896 0.443257 1.89074 0
M  V30 3008 O 283.171 -0.559386 1.86282 0
M  V30 3009 C 283.454 2.9422 2.07621 0
M  V30 3010 C 283.307 4.29508 1.33577 0
M  V30 3011 C 284.626 3.14565 3.07794 0
M  V30 3012 H 281.745 0.616667 0.403597 0
M  V30 3013 H 284.387 1.85845 0.395179 0
M  V30 3014 H 282.537 2.80387 2.68916 0
M  V30 3015 H 284.209 4.55147 0.750955 0
M  V30 3016 H 282.452 4.29088 0.637618 0
M  V30 3017 H 283.123 5.12926 2.03989 0
M  V30 3018 H 285.599 3.2756 2.56601 0
M  V30 3019 H 284.475 4.03297 3.72348 0
M  V30 3020 H 284.736 2.29675 3.77759 0
M  V30 3021 N 283.795 -0.628877 1.44509 0
M  V30 3022 C 284.742 -1.74074 1.51549 0
M  V30 3023 C 285.712 -1.62084 0.363021 0
M  V30 3024 O 286.897 -1.81975 0.573567 0
M  V30 3025 C 284.037 -3.12328 1.46784 0
M  V30 3026 C 283.15 -3.35277 2.72422 0
M  V30 3027 C 282.285 -4.63515 2.59475 0
M  V30 3028 C 281.324 -4.7965 3.80266 0
M  V30 3029 N 280.461 -5.99168 3.65981 0
M  V30 3030 H 285.301 -1.67392 2.46544 0
M  V30 3031 H 282.838 -0.816527 1.22357 0
M  V30 3032 H 284.796 -3.92286 1.42012 0
M  V30 3033 H 283.426 -3.18018 0.553544 0
M  V30 3034 H 282.478 -2.49242 2.87372 0
M  V30 3035 H 283.79 -3.43078 3.62076 0
M  V30 3036 H 282.944 -5.51638 2.52548 0
M  V30 3037 H 281.683 -4.58076 1.67384 0
M  V30 3038 H 280.688 -3.89957 3.87574 0
M  V30 3039 H 281.913 -4.86902 4.73395 0
M  V30 3040 H 279.859 -5.94814 2.76644 0
M  V30 3041 H 279.776 -6.08035 4.49254 0
M  V30 3042 H 281.044 -6.89846 3.6295 0
M  V30 3043 N 285.273 -1.31445 -0.869486 0
M  V30 3044 C 286.684 -1.19042 -1.43826 0
M  V30 3045 C 287.035 0.202919 -1.95148 0
M  V30 3046 O 286.16 1.10071 -1.86315 0
M  V30 3047 C 286.755 -2.15499 -2.6143 0
M  V30 3048 C 285.314 -2.07028 -3.14351 0
M  V30 3049 C 284.461 -2.04701 -1.87063 0
M  V30 3050 H 287.412 -1.43489 -0.677984 0
M  V30 3051 H 287.433 -1.74488 -3.38134 0
M  V30 3052 H 286.945 -3.16899 -2.24046 0
M  V30 3053 H 285.046 -1.08825 -3.56354 0
M  V30 3054 H 285.159 -2.96157 -3.766 0
M  V30 3055 H 283.523 -1.49724 -2.06046 0
M  V30 3056 H 284.306 -3.07857 -1.51917 0
M  V30 3057 N 286.751 1.08385 -1.14413 0
M  V30 3058 C 287.714 2.13486 -0.834048 0
M  V30 3059 C 288.714 1.59988 0.161418 0
M  V30 3060 O 289.904 1.74071 -0.0669575 0
M  V30 3061 C 287.036 3.4003 -0.243354 0
M  V30 3062 H 288.229 2.42425 -1.7655 0
M  V30 3063 H 285.782 1.24101 -0.950189 0
M  V30 3064 H 286.517 3.16726 0.696807 0
M  V30 3065 H 286.302 3.80157 -0.960367 0
M  V30 3066 H 287.792 4.17577 -0.0436242 0
M  V30 3067 N 288.23 0.939286 1.26551 0
M  V30 3068 C 289.14 0.453432 2.30176 0
M  V30 3069 C 290.156 -0.471649 1.67486 0
M  V30 3070 O 291.332 -0.35164 1.98306 0
M  V30 3071 C 288.397 -0.275326 3.45605 0
M  V30 3072 C 287.458 0.686084 4.23782 0
M  V30 3073 C 286.691 -0.00798994 5.33699 0
M  V30 3074 O 286.914 -1.22528 5.57085 0
M  V30 3075 O 285.848 0.669746 5.98162 0
M  V30 3076 H 289.674 1.31416 2.73795 0
M  V30 3077 H 287.259 0.705095 1.31715 0
M  V30 3078 H 289.141 -0.685911 4.1578 0
M  V30 3079 H 287.816 -1.11147 3.0402 0
M  V30 3080 H 286.723 1.14658 3.56096 0
M  V30 3081 H 288.056 1.48979 4.69112 0
M  V30 3082 N 289.708 -1.40897 0.706093 0
M  V30 3083 C 290.64 -2.29199 0.00815776 0
M  V30 3084 C 291.653 -1.45336 -0.733582 0
M  V30 3085 O 292.842 -1.68727 -0.582537 0
M  V30 3086 C 289.942 -3.23417 -1.01265 0
M  V30 3087 C 289.115 -4.36089 -0.338387 0
M  V30 3088 C 288.174 -5.10811 -1.26326 0
M  V30 3089 O 287.2 -5.64215 -0.751651 0
M  V30 3090 N 288.402 -5.19269 -2.595 0
M  V30 3091 H 291.167 -2.89738 0.766297 0
M  V30 3092 H 288.728 -1.52164 0.55296 0
M  V30 3093 H 290.72 -3.70276 -1.63334 0
M  V30 3094 H 289.29 -2.64112 -1.67223 0
M  V30 3095 H 288.51 -3.91479 0.462352 0
M  V30 3096 H 289.798 -5.08634 0.130031 0
M  V30 3097 H 289.196 -4.77347 -3.03573 0
M  V30 3098 H 287.753 -5.69667 -3.16737 0
M  V30 3099 N 291.186 -0.45159 -1.50991 0
M  V30 3100 C 292.414 0.108334 -2.06616 0
M  V30 3101 C 292.829 1.35224 -1.31757 0
M  V30 3102 O 292.186 1.78475 -0.381174 0
M  V30 3103 C 292.237 0.41619 -3.59096 0
M  V30 3104 O 291.958 -0.778361 -4.3113 0
M  V30 3105 C 293.459 1.02523 -4.31282 0
M  V30 3106 H 290.679 0.00159995 -0.670998 0
M  V30 3107 H 293.223 -0.634771 -1.94399 0
M  V30 3108 H 291.378 1.10921 -3.71181 0
M  V30 3109 H 291.792 -0.511181 -5.22003 0
M  V30 3110 H 293.266 1.19053 -5.39009 0
M  V30 3111 H 293.743 2.01013 -3.905 0
M  V30 3112 H 294.349 0.371173 -4.23677 0
M  V30 3113 N 292.664 1.56529 -0.183458 0
M  V30 3114 C 294.075 1.83739 0.331177 0
M  V30 3115 C 294.426 1.10373 1.62211 0
M  V30 3116 O 293.551 0.36071 2.13373 0
M  V30 3117 C 294.146 3.33306 0.607646 0
M  V30 3118 C 292.705 3.60969 1.06668 0
M  V30 3119 C 291.852 2.77086 0.109029 0
M  V30 3120 H 294.803 1.53379 -0.407484 0
M  V30 3121 H 294.824 3.51444 1.45832 0
M  V30 3122 H 294.336 3.86677 -0.332086 0
M  V30 3123 H 292.437 3.13021 2.0211 0
M  V30 3124 H 292.55 4.69231 0.967447 0
M  V30 3125 H 290.914 2.47319 0.608714 0
M  V30 3126 H 291.697 3.33241 -0.82494 0
M  V30 3127 N 294.142 -0.090211 1.57342 0
M  V30 3128 C 295.072 -1.10976 2.05443 0
M  V30 3129 C 296.053 -1.41482 0.944284 0
M  V30 3130 O 297.238 -1.51428 1.21586 0
M  V30 3131 C 294.368 -2.42831 2.48295 0
M  V30 3132 C 293.322 -2.26721 3.63018 0
M  V30 3133 C 292.648 -3.63796 3.91863 0
M  V30 3134 C 293.948 -1.7037 4.93732 0
M  V30 3135 H 295.642 -0.709564 2.9087 0
M  V30 3136 H 293.188 -0.339874 1.39932 0
M  V30 3137 H 295.141 -3.14431 2.80555 0
M  V30 3138 H 293.865 -2.84795 1.59873 0
M  V30 3139 H 292.524 -1.57565 3.31012 0
M  V30 3140 H 292.172 -4.03297 3.00601 0
M  V30 3141 H 291.872 -3.53861 4.69101 0
M  V30 3142 H 293.396 -4.36855 4.26603 0
M  V30 3143 H 294.81 -2.31816 5.24342 0
M  V30 3144 H 293.207 -1.71181 5.75167 0
M  V30 3145 H 294.277 -0.663542 4.80339 0
M  V30 3146 N 295.62 -1.53406 -0.361157 0
M  V30 3147 C 296.848 -1.73717 -1.12383 0
M  V30 3148 C 297.263 -0.468161 -1.82904 0
M  V30 3149 O 296.62 0.559198 -1.73722 0
M  V30 3150 C 296.671 -2.90558 -2.15078 0
M  V30 3151 O 296.392 -4.12549 -1.47428 0
M  V30 3152 C 297.893 -3.22777 -3.03858 0
M  V30 3153 H 295.113 -0.580896 -0.335858 0
M  V30 3154 H 297.657 -2.00167 -0.418728 0
M  V30 3155 H 295.812 -2.66489 -2.8118 0
M  V30 3156 H 296.226 -4.78009 -2.15887 0
M  V30 3157 H 297.7 -4.07927 -3.71887 0
M  V30 3158 H 298.177 -2.38329 -3.68912 0
M  V30 3159 H 298.783 -3.48787 -2.43367 0
M  V30 3160 N 297.098 0.621204 -1.44841 0
M  V30 3161 C 298.061 1.71459 -1.521 0
M  V30 3162 C 299.061 1.55696 -0.401933 0
M  V30 3163 O 300.251 1.61011 -0.664925 0
M  V30 3164 C 297.383 3.10624 -1.40447 0
M  V30 3165 H 298.576 1.66394 -2.49506 0
M  V30 3166 H 296.129 0.835745 -1.3208 0
M  V30 3167 H 296.864 3.21277 -0.441737 0
M  V30 3168 H 296.649 3.23473 -2.21602 0
M  V30 3169 H 298.139 3.90293 -1.4853 0
M  V30 3170 N 298.576 1.31904 0.862503 0
M  V30 3171 C 299.506 1.22782 1.98612 0
M  V30 3172 C 300.487 0.113362 1.69722 0
M  V30 3173 O 301.672 0.299218 1.91881 0
M  V30 3174 C 298.802 0.942058 3.34279 0
M  V30 3175 C 297.756 2.0169 3.77499 0
M  V30 3176 C 297.082 1.58369 5.10709 0
M  V30 3177 C 298.382 3.43096 3.93805 0
M  V30 3178 H 300.076 2.16788 2.06502 0
M  V30 3179 H 297.622 1.04366 0.992154 0
M  V30 3180 H 299.575 0.864818 4.1243 0
M  V30 3181 H 298.299 -0.0336603 3.26583 0
M  V30 3182 H 296.958 2.08416 3.01593 0
M  V30 3183 H 296.606 0.595628 4.99461 0
M  V30 3184 H 296.306 2.30279 5.40597 0
M  V30 3185 H 297.83 1.52067 5.91361 0
M  V30 3186 H 299.244 3.39003 4.62331 0
M  V30 3187 H 297.641 4.13288 4.35101 0
M  V30 3188 H 298.711 3.83334 2.96957 0
M  V30 3189 N 300.054 -1.07777 1.14986 0
M  V30 3190 C 301.004 -2.13082 0.811181 0
M  V30 3191 C 301.988 -1.59619 -0.202597 0
M  V30 3192 O 303.18 -1.77 -0.00398275 0
M  V30 3193 C 300.309 -3.42009 0.297439 0
M  V30 3194 C 299.395 -4.02337 1.34112 0
M  V30 3195 N 299.786 -4.36982 2.54716 0
M  V30 3196 C 298.084 -4.29752 1.19285 0
M  V30 3197 C 298.785 -4.84729 3.21578 0
M  V30 3198 N 297.761 -4.83233 2.48972 0
M  V30 3199 H 301.563 -2.37696 1.72853 0
M  V30 3200 H 299.077 -1.25173 1.03468 0
M  V30 3201 H 301.074 -4.16884 0.0364777 0
M  V30 3202 H 299.734 -3.18841 -0.614022 0
M  V30 3203 H 300.745 -4.27807 2.91894 0
M  V30 3204 H 297.422 -4.16106 0.340926 0
M  V30 3205 H 298.812 -5.20863 4.24442 0
M  V30 3206 N 301.532 -0.945985 -1.26051 0
M  V30 3207 C 302.778 -0.597002 -1.93814 0
M  V30 3208 C 303.111 0.862484 -1.73997 0
M  V30 3209 O 302.386 1.61769 -1.07986 0
M  V30 3210 C 302.669 -0.945937 -3.47454 0
M  V30 3211 C 302.522 -2.46052 -3.76535 0
M  V30 3212 C 303.841 -0.464785 -4.37639 0
M  V30 3213 H 300.96 -0.218366 -0.703907 0
M  V30 3214 H 303.602 -1.18107 -1.48831 0
M  V30 3215 H 301.752 -0.448902 -3.85898 0
M  V30 3216 H 303.424 -3.03065 -3.47778 0
M  V30 3217 H 301.667 -2.90194 -3.22444 0
M  V30 3218 H 302.338 -2.65517 -4.83947 0
M  V30 3219 H 304.814 -0.891016 -4.06448 0
M  V30 3220 H 303.69 -0.737712 -5.4392 0
M  V30 3221 H 303.951 0.635274 -4.37512 0
M  V30 3222 N 303.011 1.40521 -0.713556 0
M  V30 3223 C 303.974 2.29098 -0.0684347 0
M  V30 3224 C 304.974 1.45268 0.689472 0
M  V30 3225 O 306.164 1.66205 0.521677 0
M  V30 3226 C 303.296 3.28446 0.913024 0
M  V30 3227 H 304.489 2.87645 -0.84855 0
M  V30 3228 H 302.042 1.48809 -0.47809 0
M  V30 3229 H 302.777 2.74913 1.72027 0
M  V30 3230 H 302.562 3.90327 0.372472 0
M  V30 3231 H 304.052 3.94777 1.36165 0
M  V30 3232 N 304.489 0.459591 1.5075 0
M  V30 3233 C 305.714 -0.0996819 2.0716 0
M  V30 3234 C 306.139 -1.33761 1.32249 0
M  V30 3235 O 305.497 -1.77551 0.366786 0
M  V30 3236 C 305.545 -0.378226 3.58611 0
M  V30 3237 O 304.649 -1.46081 3.85661 0
M  V30 3238 H 303.99 0.00791392 0.663953 0
M  V30 3239 H 306.52 0.647329 1.9409 0
M  V30 3240 H 306.53 -0.622135 4.03229 0
M  V30 3241 H 305.205 0.526439 4.12555 0
M  V30 3242 H 303.782 -1.20511 3.5289 0
M  V30 3243 N 305.967 -1.56429 0.191757 0
M  V30 3244 C 306.897 -2.21937 -0.725696 0
M  V30 3245 C 307.878 -1.1814 -1.2238 0
M  V30 3246 O 309.063 -1.46636 -1.27325 0
M  V30 3247 C 306.193 -2.87611 -1.94672 0
M  V30 3248 C 305.147 -3.97623 -1.58366 0
M  V30 3249 C 304.473 -4.50446 -2.88102 0
M  V30 3250 C 305.773 -5.16197 -0.796133 0
M  V30 3251 H 307.467 -2.98861 -0.179606 0
M  V30 3252 H 305.013 -1.43749 -0.0849464 0
M  V30 3253 H 306.966 -3.3212 -2.59373 0
M  V30 3254 H 305.69 -2.08087 -2.51728 0
M  V30 3255 H 304.349 -3.53801 -0.960247 0
M  V30 3256 H 303.997 -3.67688 -3.43241 0
M  V30 3257 H 303.697 -5.24675 -2.64556 0
M  V30 3258 H 305.221 -4.97654 -3.53798 0
M  V30 3259 H 306.635 -5.57271 -1.34618 0
M  V30 3260 H 305.032 -5.96471 -0.658928 0
M  V30 3261 H 306.102 -4.84473 0.203478 0
M  V30 3262 N 307.445 0.0818655 -1.57387 0
M  V30 3263 C 308.694 0.781681 -1.85937 0
M  V30 3264 C 309.007 1.79246 -0.782957 0
M  V30 3265 O 310.213 2.54112 -0.955987 0
M  V30 3266 C 308.669 1.44109 -3.29789 0
M  V30 3267 C 308.277 0.469396 -4.45534 0
M  V30 3268 C 310.021 2.12386 -3.67549 0
M  V30 3269 C 307.928 1.13415 -5.80423 0
M  V30 3270 H 306.858 0.295682 -0.693605 0
M  V30 3271 H 309.509 0.0348051 -1.83467 0
M  V30 3272 H 307.891 2.23588 -3.2684 0
M  V30 3273 H 309.065 -0.294856 -4.59856 0
M  V30 3274 H 307.38 -0.108383 -4.16259 0
M  V30 3275 H 309.977 2.62878 -4.65617 0
M  V30 3276 H 310.32 2.91877 -2.96839 0
M  V30 3277 H 310.853 1.39751 -3.72444 0
M  V30 3278 H 307.592 0.379771 -6.54399 0
M  V30 3279 H 307.112 1.8695 -5.69921 0
M  V30 3280 H 308.791 1.65686 -6.25426 0
M  V30 3281 N 308.923 1.53595 0.353017 0
M  V30 3282 C 309.87 1.80919 1.43308 0
M  V30 3283 C 310.84 0.654288 1.5267 0
M  V30 3284 O 312.025 0.897759 1.6836 0
M  V30 3285 C 309.165 2.01605 2.80089 0
M  V30 3286 C 308.278 3.29321 2.79593 0
M  V30 3287 C 307.413 3.40125 4.0803 0
M  V30 3288 C 306.452 4.61826 4.01725 0
M  V30 3289 N 305.589 4.69716 5.21834 0
M  V30 3290 H 310.429 2.73074 1.19308 0
M  V30 3291 H 307.966 1.35263 0.578131 0
M  V30 3292 H 309.924 2.11586 3.59565 0
M  V30 3293 H 308.554 1.12772 3.0246 0
M  V30 3294 H 307.606 3.28229 1.92276 0
M  V30 3295 H 308.918 4.18884 2.70809 0
M  V30 3296 H 308.072 3.49488 4.95927 0
M  V30 3297 H 306.811 2.48601 4.19582 0
M  V30 3298 H 305.816 4.52552 3.12213 0
M  V30 3299 H 307.041 5.54705 3.91764 0
M  V30 3300 H 304.987 3.81097 5.33948 0
M  V30 3301 H 304.904 5.53202 5.1527 0
M  V30 3302 H 306.172 4.83376 6.11529 0
M  V30 3303 N 310.401 -0.613514 1.45168 0
M  V30 3304 C 311.311 -1.75296 1.55912 0
M  V30 3305 C 312.327 -1.68244 0.443856 0
M  V30 3306 O 313.503 -1.88706 0.70371 0
M  V30 3307 C 310.568 -3.1174 1.5172 0
M  V30 3308 C 309.629 -3.30291 2.74238 0
M  V30 3309 C 308.862 -4.60226 2.70236 0
M  V30 3310 O 309.085 -5.42168 1.77229 0
M  V30 3311 O 308.019 -4.81361 3.61352 0
M  V30 3312 H 311.845 -1.69183 2.52212 0
M  V30 3313 H 309.43 -0.776886 1.27612 0
M  V30 3314 H 311.312 -3.93044 1.51968 0
M  V30 3315 H 309.987 -3.18357 0.585697 0
M  V30 3316 H 308.894 -2.48598 2.79553 0
M  V30 3317 H 310.227 -3.28547 3.66494 0
M  V30 3318 N 311.879 -1.3236 -0.855495 0
M  V30 3319 C 312.842 -1.21164 -1.94556 0
M  V30 3320 C 313.842 -0.134908 -1.60233 0
M  V30 3321 O 315.032 -0.385249 -1.69887 0
M  V30 3322 C 312.164 -0.863192 -3.29791 0
M  V30 3323 H 313.357 -2.18038 -2.05911 0
M  V30 3324 H 310.91 -1.16179 -1.04557 0
M  V30 3325 H 311.645 0.103769 -3.24134 0
M  V30 3326 H 311.43 -1.64166 -3.56078 0
M  V30 3327 H 312.92 -0.809156 -4.09686 0
M  V30 3328 N 313.357 1.07166 -1.15556 0
M  V30 3329 C 314.605 1.79443 -0.929764 0
M  V30 3330 C 314.926 1.87246 0.544414 0
M  V30 3331 O 314.196 1.37473 1.39564 0
M  V30 3332 H 312.776 0.664625 -0.341003 0
M  V30 3333 H 315.438 1.29499 -1.45657 0
M  V30 3334 H 314.534 2.81832 -1.34079 0
M  V30 3335 N 314.835 0.952656 1.25548 0
M  V30 3336 C 316.082 0.606373 1.93208 0
M  V30 3337 C 316.41 -0.85631 1.74636 0
M  V30 3338 O 315.665 -1.62951 1.08376 0
M  V30 3339 C 315.964 0.908818 3.45652 0
M  V30 3340 C 315.63 2.35722 3.84378 0
M  V30 3341 C 314.292 2.75312 3.9466 0
M  V30 3342 C 316.644 3.29793 4.03591 0
M  V30 3343 C 313.972 4.08047 4.21562 0
M  V30 3344 C 316.324 4.62138 4.31985 0
M  V30 3345 C 314.988 5.01528 4.40484 0
M  V30 3346 H 314.258 0.221888 0.706998 0
M  V30 3347 H 316.905 1.20132 1.49133 0
M  V30 3348 H 315.21 0.231456 3.91116 0
M  V30 3349 H 316.907 0.619498 3.96186 0
M  V30 3350 H 313.497 2.04017 3.76928 0
M  V30 3351 H 317.681 3.00397 3.95064 0
M  V30 3352 H 312.937 4.38212 4.26357 0
M  V30 3353 H 317.111 5.35012 4.45797 0
M  V30 3354 H 314.738 6.04406 4.61083 0
M  V30 3355 N 316.313 -1.40141 0.720998 0
M  V30 3356 C 317.724 -1.83678 0.334553 0
M  V30 3357 C 318.075 -1.6027 -1.13173 0
M  V30 3358 O 317.2 -1.08643 -1.87152 0
M  V30 3359 C 317.795 -3.33437 0.600437 0
M  V30 3360 C 316.354 -3.75447 0.267642 0
M  V30 3361 C 315.501 -2.63296 0.870097 0
M  V30 3362 H 318.452 -1.29331 0.919732 0
M  V30 3363 H 318.473 -3.80269 -0.132517 0
M  V30 3364 H 317.985 -3.50442 1.66768 0
M  V30 3365 H 316.086 -3.64035 -0.794329 0
M  V30 3366 H 316.199 -4.73344 0.74042 0
M  V30 3367 H 314.563 -2.52954 0.297739 0
M  V30 3368 H 315.346 -2.83112 1.94172 0
M  V30 3369 N 317.792 -0.46758 -1.50504 0
M  V30 3370 C 319.203 -0.0116166 -1.86696 0
M  V30 3371 C 319.554 1.39202 -1.38265 0
M  V30 3372 O 318.679 2.0313 -0.746132 0
M  V30 3373 C 319.274 -0.0143044 -3.38797 0
M  V30 3374 C 317.833 0.386175 -3.74414 0
M  V30 3375 C 316.98 -0.401287 -2.74381 0
M  V30 3376 H 319.931 -0.682022 -1.43297 0
M  V30 3377 H 319.952 0.788641 -3.72237 0
M  V30 3378 H 319.464 -1.03602 -3.74016 0
M  V30 3379 H 317.565 1.41237 -3.44794 0
M  V30 3380 H 317.678 0.0899596 -4.79016 0
M  V30 3381 H 316.042 0.144536 -2.5429 0
M  V30 3382 H 316.825 -1.42244 -3.12444 0
M  V30 3383 N 319.27 1.56325 -0.20005 0
M  V30 3384 C 320.518 1.97329 0.436547 0
M  V30 3385 C 320.839 1.08826 1.61808 0
M  V30 3386 O 320.109 0.160604 1.95241 0
M  V30 3387 H 318.689 0.728714 0.164272 0
M  V30 3388 H 321.351 1.92761 -0.287937 0
M  V30 3389 H 320.447 3.02264 0.777353 0
M  V30 3390 N 320.748 -0.0735177 1.57428 0
M  V30 3391 C 321.994 -0.774145 1.87443 0
M  V30 3392 C 322.327 -1.77311 0.792103 0
M  V30 3393 O 321.602 -1.93492 -0.197793 0
M  V30 3394 C 321.885 -1.48367 3.28115 0
M  V30 3395 C 321.738 -0.501227 4.46999 0
M  V30 3396 C 323.057 -2.429 3.66998 0
M  V30 3397 H 320.176 -0.279971 0.681752 0
M  V30 3398 H 322.818 -0.0373616 1.89963 0
M  V30 3399 H 320.968 -2.11171 3.26097 0
M  V30 3400 H 322.64 0.121468 4.6114 0
M  V30 3401 H 320.883 0.183593 4.33411 0
M  V30 3402 H 321.554 -1.03526 5.42205 0
M  V30 3403 H 324.03 -1.90175 3.70098 0
M  V30 3404 H 322.906 -2.89549 4.66318 0
M  V30 3405 H 323.167 -3.27628 2.96837 0
M  V30 3406 N 322.226 -1.5378 -0.344866 0
M  V30 3407 C 323.472 -1.71216 -1.08687 0
M  V30 3408 C 323.805 -0.473281 -1.88345 0
M  V30 3409 O 323.08 0.52968 -1.87149 0
M  V30 3410 C 323.363 -2.97486 -2.02914 0
M  V30 3411 C 323.216 -4.31579 -1.26727 0
M  V30 3412 C 324.535 -3.19422 -3.0275 0
M  V30 3413 H 321.654 -0.62301 -0.393735 0
M  V30 3414 H 324.296 -1.8645 -0.365563 0
M  V30 3415 H 322.446 -2.84629 -2.64421 0
M  V30 3416 H 324.118 -4.56284 -0.67845 0
M  V30 3417 H 322.361 -4.30049 -0.569273 0
M  V30 3418 H 323.032 -5.16106 -1.95803 0
M  V30 3419 H 325.508 -3.316 -2.51357 0
M  V30 3420 H 324.384 -4.09169 -3.65885 0
M  V30 3421 H 324.645 -2.35656 -3.74057 0
M  V30 3422 N 323.704 0.605807 -1.45491 0
M  V30 3423 C 324.652 1.73754 -1.54636 0
M  V30 3424 C 325.646 1.64207 -0.416219 0
M  V30 3425 O 326.852 1.69979 -0.592199 0
M  V30 3426 H 323.227 0.574073 -0.485741 0
M  V30 3427 H 325.198 1.63169 -2.49837 0
M  V30 3428 C 323.947 3.12135 -1.53189 0
M  V30 3429 H 323.27 3.20141 -2.39478 0
M  V30 3430 H 324.71 3.91147 -1.63645 0
M  V30 3431 C 323.169 3.35921 -0.256616 0
M  V30 3432 O 323.699 3.96194 0.662798 0
M  V30 3433 N 321.905 2.90204 -0.151751 0
M  V30 3434 H 321.452 2.41336 -0.90081 0
M  V30 3435 H 321.41 3.06492 0.700699 0
M  V30 3436 N 325.182 1.32811 0.848464 0
M  V30 3437 C 326.431 1.23075 1.59798 0
M  V30 3438 C 326.744 -0.204419 1.94529 0
M  V30 3439 O 327.95 -0.423701 2.68173 0
M  V30 3440 C 326.406 2.15594 2.88179 0
M  V30 3441 C 326.014 3.64228 2.60849 0
M  V30 3442 C 327.758 2.14709 3.66197 0
M  V30 3443 C 325.665 4.48689 3.85269 0
M  V30 3444 H 324.595 0.457091 0.599653 0
M  V30 3445 H 327.246 1.57813 0.936342 0
M  V30 3446 H 325.628 1.73778 3.55833 0
M  V30 3447 H 326.802 4.14424 2.01467 0
M  V30 3448 H 325.117 3.67306 1.96151 0
M  V30 3449 H 327.714 2.75046 4.58534 0
M  V30 3450 H 328.057 1.13966 4.00397 0
M  V30 3451 H 328.59 2.54837 3.05455 0
M  V30 3452 H 325.329 5.5027 3.56207 0
M  V30 3453 H 324.849 4.03241 4.44024 0
M  V30 3454 H 326.528 4.62006 4.52946 0
M  V30 3455 N 326.66 -1.06551 1.16123 0
M  V30 3456 C 327.906 -1.79567 0.94252 0
M  V30 3457 C 328.239 -1.86869 -0.528547 0
M  V30 3458 O 327.514 -1.35838 -1.39206 0
M  V30 3459 C 327.797 -3.24195 1.56747 0
M  V30 3460 C 327.65 -3.24989 3.10969 0
M  V30 3461 C 328.969 -4.21678 1.25998 0
M  V30 3462 H 326.088 -0.651883 0.343828 0
M  V30 3463 H 328.73 -1.2463 1.43413 0
M  V30 3464 H 326.88 -3.71107 1.14942 0
M  V30 3465 H 328.552 -2.86258 3.61737 0
M  V30 3466 H 326.795 -2.63716 3.44436 0
M  V30 3467 H 327.466 -4.27005 3.49815 0
M  V30 3468 H 329.942 -3.83196 1.62174 0
M  V30 3469 H 328.818 -5.21146 1.7233 0
M  V30 3470 H 329.079 -4.4174 0.178367 0
M  V30 3471 N 328.138 -0.959301 -1.25041 0
M  V30 3472 C 329.549 -0.65667 -1.74771 0
M  V30 3473 C 329.9 0.827852 -1.77879 0
M  V30 3474 O 329.025 1.64783 -1.40269 0
M  V30 3475 C 329.62 -1.1853 -3.1739 0
M  V30 3476 C 328.179 -0.932734 -3.6466 0
M  V30 3477 C 327.326 -1.32558 -2.43564 0
M  V30 3478 H 330.277 -1.13558 -1.10862 0
M  V30 3479 H 330.298 -0.547582 -3.76539 0
M  V30 3480 H 329.81 -2.26576 -3.15095 0
M  V30 3481 H 327.911 0.13257 -3.72364 0
M  V30 3482 H 328.024 -1.57248 -4.52559 0
M  V30 3483 H 326.388 -0.743956 -2.43593 0
M  V30 3484 H 327.171 -2.41537 -2.43957 0
M  V30 3485 N 329.616 1.39756 -0.72842 0
M  V30 3486 C 330.864 2.00248 -0.272946 0
M  V30 3487 C 331.185 1.58077 1.14178 0
M  V30 3488 O 330.455 0.826014 1.77634 0
M  V30 3489 H 329.035 0.740554 -0.0979247 0
M  V30 3490 H 331.697 1.70903 -0.936912 0
M  V30 3491 H 330.793 3.10495 -0.316142 0
M  V30 3492 N 331.094 0.475555 1.50254 0
M  V30 3493 C 332.324 -0.0753399 2.06463 0
M  V30 3494 C 332.732 -1.33661 1.33908 0
M  V30 3495 O 332.075 -1.79219 0.403257 0
M  V30 3496 C 332.137 -0.424921 3.5698 0
M  V30 3497 C 331.801 0.734965 4.51051 0
M  V30 3498 C 332.798 1.61827 4.94073 0
M  V30 3499 C 330.483 0.926557 4.9368 0
M  V30 3500 C 332.477 2.67754 5.78434 0
M  V30 3501 C 330.164 1.98904 5.77824 0
M  V30 3502 C 331.162 2.8629 6.20103 0
M  V30 3503 O 330.85 3.90708 7.02568 0
M  V30 3504 H 330.582 0.00576308 0.675975 0
M  V30 3505 H 333.136 0.664662 1.94349 0
M  V30 3506 H 331.366 -1.21817 3.67012 0
M  V30 3507 H 333.055 -0.911422 3.95535 0
M  V30 3508 H 333.821 1.48196 4.61804 0
M  V30 3509 H 329.7 0.25584 4.6029 0
M  V30 3510 H 333.244 3.35992 6.11355 0
M  V30 3511 H 329.141 2.12541 6.09505 0
M  V30 3512 H 329.909 3.87751 7.20827 0
M  V30 3513 N 332.573 -1.56217 0.208337 0
M  V30 3514 C 333.821 -1.97558 -0.426076 0
M  V30 3515 C 334.142 -1.09683 -1.61229 0
M  V30 3516 O 333.412 -0.170956 -1.95153 0
M  V30 3517 H 331.992 -0.729575 -0.160405 0
M  V30 3518 H 334.654 -1.92606 0.298155 0
M  V30 3519 H 333.75 -3.02672 -0.761312 0
M  V30 3520 N 334.051 0.0651679 -1.57465 0
M  V30 3521 C 335.462 0.616213 -1.76238 0
M  V30 3522 C 335.813 1.7756 -0.834689 0
M  V30 3523 O 334.938 2.1639 -0.0204156 0
M  V30 3524 C 335.533 1.12462 -3.1959 0
M  V30 3525 C 334.092 1.62147 -3.39684 0
M  V30 3526 C 333.239 0.543739 -2.71917 0
M  V30 3527 H 336.19 -0.161022 -1.57881 0
M  V30 3528 H 336.211 1.99324 -3.24114 0
M  V30 3529 H 335.723 0.280592 -3.87084 0
M  V30 3530 H 333.824 2.48854 -2.77313 0
M  V30 3531 H 333.937 1.69385 -4.48158 0
M  V30 3532 H 332.301 0.990352 -2.34657 0
M  V30 3533 H 333.084 -0.290216 -3.42071 0
M  V30 3534 N 335.529 1.53961 0.336706 0
M  V30 3535 C 336.757 1.75483 1.09605 0
M  V30 3536 C 337.172 0.4972 1.82136 0
M  V30 3537 O 336.529 -0.53149 1.74589 0
M  V30 3538 C 336.58 2.93943 2.10428 0
M  V30 3539 O 336.301 4.14842 1.40846 0
M  V30 3540 C 337.802 3.27571 2.98684 0
M  V30 3541 H 335.022 0.586166 0.326574 0
M  V30 3542 H 337.566 2.00808 0.38683 0
M  V30 3543 H 335.721 2.70929 2.76905 0
M  V30 3544 H 336.135 4.81383 2.08255 0
M  V30 3545 H 337.609 4.13791 3.6535 0
M  V30 3546 H 338.086 2.44168 3.65074 0
M  V30 3547 H 338.692 3.52615 2.37787 0
M  V30 3548 N 337.007 -0.598083 1.45811 0
M  V30 3549 C 337.97 -1.69018 1.54808 0
M  V30 3550 C 338.97 -1.55037 0.426652 0
M  V30 3551 O 340.16 -1.59932 0.690456 0
M  V30 3552 C 337.292 -3.0835 1.45371 0
M  V30 3553 H 338.485 -1.62403 2.52121 0
M  V30 3554 H 336.038 -0.814626 1.33392 0
M  V30 3555 H 336.773 -3.20534 0.492793 0
M  V30 3556 H 336.558 -3.19907 2.26721 0
M  V30 3557 H 338.048 -3.8788 1.54721 0
M  V30 3558 N 338.485 -1.33259 -0.841409 0
M  V30 3559 C 339.733 -1.24326 -1.59334 0
M  V30 3560 C 340.054 0.191564 -1.94057 0
M  V30 3561 O 339.324 1.11967 -1.60749 0
M  V30 3562 H 337.904 -0.457174 -0.590763 0
M  V30 3563 H 340.566 -1.66947 -1.00571 0
M  V30 3564 H 339.662 -1.8352 -2.52442 0
M  V30 3565 N 339.963 1.05934 -1.16686 0
M  V30 3566 C 340.926 2.11669 -0.879144 0
M  V30 3567 C 341.926 1.60294 0.127445 0
M  V30 3568 O 343.116 1.7389 -0.103865 0
M  V30 3569 C 340.248 3.39438 -0.315425 0
M  V30 3570 H 341.441 2.38626 -1.81653 0
M  V30 3571 H 338.994 1.22058 -0.976299 0
M  V30 3572 H 339.729 3.18132 0.629468 0
M  V30 3573 H 339.514 3.78034 -1.04079 0
M  V30 3574 H 341.004 4.17391 -0.132189 0
M  V30 3575 N 341.441 0.965919 1.2453 0
M  V30 3576 C 342.404 0.499547 2.2369 0
M  V30 3577 C 343.404 -0.40294 1.5567 0
M  V30 3578 O 344.594 -0.19865 1.73064 0
M  V30 3579 C 341.726 -0.276792 3.39774 0
M  V30 3580 H 342.919 1.37613 2.66463 0
M  V30 3581 H 340.472 0.750324 1.37112 0
M  V30 3582 H 341.207 -1.17055 3.02438 0
M  V30 3583 H 340.992 0.370826 3.90343 0
M  V30 3584 H 342.482 -0.592175 4.1338 0
M  V30 3585 N 342.919 -1.39368 0.735821 0
M  V30 3586 C 344.168 -1.99733 0.281004 0
M  V30 3587 C 344.481 -1.59055 -1.13846 0
M  V30 3588 O 345.687 -2.12262 -1.69284 0
M  V30 3589 C 344.143 -3.57057 0.451462 0
M  V30 3590 C 343.751 -4.06697 1.87886 0
M  V30 3591 C 345.495 -4.2446 0.0584616 0
M  V30 3592 C 343.402 -5.56598 1.99883 0
M  V30 3593 H 342.332 -0.747163 0.101311 0
M  V30 3594 H 344.983 -1.59357 0.909819 0
M  V30 3595 H 343.365 -3.95234 -0.246263 0
M  V30 3596 H 344.539 -3.79853 2.60861 0
M  V30 3597 H 342.854 -3.5196 2.22515 0
M  V30 3598 H 345.451 -5.34549 0.127099 0
M  V30 3599 H 345.794 -4.04444 -0.986433 0
M  V30 3600 H 346.327 -3.9146 0.707374 0
M  V30 3601 H 343.066 -5.81494 3.02564 0
M  V30 3602 H 342.586 -5.85242 1.31346 0
M  V30 3603 H 344.265 -6.22022 1.78039 0
M  V30 3604 N 344.397 -0.483516 -1.5 0
M  V30 3605 C 345.622 0.0667119 -2.07293 0
M  V30 3606 C 346.047 1.3164 -1.3436 0
M  V30 3607 O 345.405 1.76945 -0.394987 0
M  V30 3608 C 345.453 0.321126 -3.59167 0
M  V30 3609 O 344.557 1.39927 -3.87936 0
M  V30 3610 H 343.898 -0.0184758 -0.663743 0
M  V30 3611 H 346.428 -0.678125 -1.93035 0
M  V30 3612 H 346.438 0.557906 -4.04168 0
M  V30 3613 H 345.113 -0.592007 -4.11665 0
M  V30 3614 H 343.69 1.14882 -3.54763 0
M  V30 3615 N 345.875 1.56104 -0.216619 0
M  V30 3616 C 347.1 2.0301 0.424462 0
M  V30 3617 C 347.525 1.0955 1.52907 0
M  V30 3618 O 346.883 0.0827914 1.81111 0
M  V30 3619 C 346.931 3.4819 0.937883 0
M  V30 3620 O 346.035 3.57865 2.04955 0
M  V30 3621 H 345.376 0.656925 0.0966755 0
M  V30 3622 H 347.906 2.01859 -0.33381 0
M  V30 3623 H 347.916 3.88413 1.24897 0
M  V30 3624 H 346.591 4.15699 0.129387 0
M  V30 3625 H 345.168 3.29527 1.74546 0
M  V30 3626 N 347.353 -0.0568162 1.57498 0
M  V30 3627 C 348.303 -1.07315 2.01166 0
M  V30 3628 C 349.287 -1.33632 0.896171 0
M  V30 3629 O 350.479 -1.33682 1.16009 0
M  V30 3630 C 347.608 -2.38257 2.47161 0
M  V30 3631 C 346.694 -2.1515 3.65474 0
M  V30 3632 N 347.085 -1.62014 4.7915 0
M  V30 3633 C 345.383 -2.45559 3.72313 0
M  V30 3634 C 346.084 -1.54069 5.60926 0
M  V30 3635 N 345.06 -2.00652 5.05213 0
M  V30 3636 H 348.862 -0.655878 2.86488 0
M  V30 3637 H 346.376 -0.263635 1.60246 0
M  V30 3638 H 348.373 -3.11845 2.76691 0
M  V30 3639 H 347.033 -2.80687 1.63232 0
M  V30 3640 H 348.044 -1.30667 5.01145 0
M  V30 3641 H 344.721 -2.91253 2.99129 0
M  V30 3642 H 346.111 -1.13712 6.62208 0
M  V30 3643 N 348.832 -1.54138 -0.328536 0
M  V30 3644 C 349.765 -1.78014 -1.4278 0
M  V30 3645 C 350.743 -0.629889 -1.49904 0
M  V30 3646 O 351.927 -0.866763 -1.6739 0
M  V30 3647 C 349.054 -1.89225 -2.80912 0
M  V30 3648 C 348.1 -3.11483 -2.91343 0
M  V30 3649 S 348.933 -4.70201 -2.56263 0
M  V30 3650 C 350.089 -4.84312 -3.96476 0
M  V30 3651 H 350.322 -2.70974 -1.22313 0
M  V30 3652 H 347.855 -1.45197 -0.525084 0
M  V30 3653 H 349.813 -1.9637 -3.60485 0
M  V30 3654 H 348.474 -0.972518 -2.98665 0
M  V30 3655 H 347.667 -3.16046 -3.92595 0
M  V30 3656 H 347.269 -3.02642 -2.19736 0
M  V30 3657 H 349.561 -4.66643 -4.91173 0
M  V30 3658 H 350.504 -5.86411 -3.96898 0
M  V30 3659 H 350.912 -4.12652 -3.85199 0
M  V30 3660 N 350.31 0.590341 -1.46126 0
M  V30 3661 C 351.587 1.35029 -1.41515 0
M  V30 3662 C 351.967 2.10888 -0.0946472 0
M  V30 3663 O 351.315 2.08998 0.923693 0
M  V30 3664 C 351.525 2.28269 -2.63997 0
M  V30 3665 C 352.873 2.90338 -3.09821 0
M  V30 3666 O 353.897 2.38585 -2.64492 0
M  V30 3667 O 352.756 3.84321 -3.88535 0
M  V30 3668 H 349.85 0.606317 -0.562413 0
M  V30 3669 H 352.396 0.611994 -1.58281 0
M  V30 3670 H 351.168 1.71591 -3.51671 0
M  V30 3671 H 350.791 3.0945 -2.49652 0
M  V30 3672 N 351.788 1.33704 0.83433 0
M  V30 3673 C 353.037 1.24763 1.58484 0
M  V30 3674 C 353.35 -0.183775 1.94735 0
M  V30 3675 O 354.556 -0.395234 2.68608 0
M  V30 3676 C 353.012 2.18638 2.85876 0
M  V30 3677 C 352.62 3.66974 2.56971 0
M  V30 3678 C 354.364 2.18581 3.63899 0
M  V30 3679 C 352.271 4.5275 3.80488 0
M  V30 3680 H 351.201 0.463425 0.594772 0
M  V30 3681 H 353.852 1.58797 0.919551 0
M  V30 3682 H 352.234 1.77542 3.5397 0
M  V30 3683 H 353.408 4.16538 1.9706 0
M  V30 3684 H 351.723 3.69366 1.92244 0
M  V30 3685 H 354.32 2.79894 4.55591 0
M  V30 3686 H 354.663 1.18207 3.99165 0
M  V30 3687 H 355.196 2.58062 3.02735 0
M  V30 3688 H 351.935 5.54017 3.5035 0
M  V30 3689 H 351.455 4.07927 4.39722 0
M  V30 3690 H 353.134 4.66784 4.4802 0
M  V30 3691 N 353.266 -1.05314 1.17247 0
M  V30 3692 C 354.543 -1.75184 0.87005 0
M  V30 3693 C 354.923 -2.01481 -0.629965 0
M  V30 3694 O 354.271 -1.64988 -1.58086 0
M  V30 3695 C 354.481 -3.04594 1.70363 0
M  V30 3696 C 355.829 -3.78567 1.92281 0
M  V30 3697 O 356.853 -3.14461 1.67311 0
M  V30 3698 O 355.712 -4.93755 2.3424 0
M  V30 3699 H 352.806 -0.761729 0.322021 0
M  V30 3700 H 355.352 -1.11493 1.27935 0
M  V30 3701 H 354.124 -2.81201 2.72106 0
M  V30 3702 H 353.747 -3.76022 1.29202 0
M  V30 3703 N 354.744 -0.972509 -1.24016 0
M  V30 3704 C 355.691 -0.505969 -2.25186 0
M  V30 3705 C 356.661 0.451009 -1.5986 0
M  V30 3706 O 357.846 0.360307 -1.87367 0
M  V30 3707 C 354.986 0.193089 -3.44559 0
M  V30 3708 C 354.099 -0.803222 -4.24467 0
M  V30 3709 C 353.234 -0.0797793 -5.3114 0
M  V30 3710 C 352.273 -1.06583 -6.02749 0
M  V30 3711 N 351.41 -0.372074 -7.01113 0
M  V30 3712 H 356.25 -1.37351 -2.64459 0
M  V30 3713 H 353.787 -0.688419 -1.29997 0
M  V30 3714 H 355.745 0.615125 -4.1264 0
M  V30 3715 H 354.375 1.02455 -3.06109 0
M  V30 3716 H 353.427 -1.34368 -3.55878 0
M  V30 3717 H 354.739 -1.55494 -4.73944 0
M  V30 3718 H 353.893 0.400015 -6.0538 0
M  V30 3719 H 352.632 0.704597 -4.82583 0
M  V30 3720 H 351.637 -1.55645 -5.27309 0
M  V30 3721 H 352.862 -1.85074 -6.53395 0
M  V30 3722 H 350.808 0.393238 -6.5482 0
M  V30 3723 H 350.725 -1.06258 -7.48495 0
M  V30 3724 H 351.993 0.0855932 -7.79453 0
M  V30 3725 N 356.222 1.38976 -0.743202 0
M  V30 3726 C 357.468 2.0064 -0.295189 0
M  V30 3727 C 357.801 1.5885 1.11716 0
M  V30 3728 O 357.076 0.821181 1.76315 0
M  V30 3729 C 357.359 3.578 -0.406318 0
M  V30 3730 C 357.212 4.09586 -1.85903 0
M  V30 3731 C 358.531 4.39616 0.206439 0
M  V30 3732 H 355.65 0.728935 -0.108733 0
M  V30 3733 H 358.292 1.65067 -0.940897 0
M  V30 3734 H 356.442 3.88235 0.143419 0
M  V30 3735 H 358.114 3.89837 -2.46627 0
M  V30 3736 H 356.357 3.6284 -2.3776 0
M  V30 3737 H 357.028 5.18708 -1.888 0
M  V30 3738 H 359.504 4.15273 -0.262283 0
M  V30 3739 H 358.38 5.48812 0.0983819 0
M  V30 3740 H 358.641 4.22754 1.2935 0
M  V30 3741 N 357.7 0.491464 1.49741 0
M  V30 3742 C 358.663 -0.280906 2.27472 0
M  V30 3743 C 359.663 -0.902454 1.33088 0
M  V30 3744 O 360.853 -0.768465 1.56334 0
M  V30 3745 C 357.985 -1.40209 3.10732 0
M  V30 3746 H 359.178 0.401056 2.97206 0
M  V30 3747 H 356.731 0.246131 1.5435 0
M  V30 3748 H 357.466 -2.11849 2.45541 0
M  V30 3749 H 357.251 -0.961969 3.80117 0
M  V30 3750 H 358.741 -1.9464 3.69466 0
M  V30 3751 N 359.178 -1.55987 0.224894 0
M  V30 3752 C 360.425 -1.9839 -0.4059 0
M  V30 3753 C 360.753 -1.11261 -1.59535 0
M  V30 3754 O 360.008 -0.158314 -1.95059 0
M  V30 3755 C 360.307 -3.46394 -0.880106 0
M  V30 3756 C 359.973 -4.5046 0.19918 0
M  V30 3757 C 358.635 -4.7864 0.495661 0
M  V30 3758 C 360.987 -5.12855 0.928939 0
M  V30 3759 C 358.315 -5.66497 1.52636 0
M  V30 3760 C 360.667 -6.01828 1.949 0
M  V30 3761 C 359.331 -6.28351 2.25236 0
M  V30 3762 H 358.601 -0.725961 -0.148529 0
M  V30 3763 H 361.248 -1.88668 0.328113 0
M  V30 3764 H 359.553 -3.53337 -1.69294 0
M  V30 3765 H 361.25 -3.76577 -1.37808 0
M  V30 3766 H 357.84 -4.28579 -0.0420526 0
M  V30 3767 H 362.024 -4.9115 0.713129 0
M  V30 3768 H 357.28 -5.8531 1.76698 0
M  V30 3769 H 361.454 -6.49225 2.51951 0
M  V30 3770 H 359.081 -6.96226 3.05244 0
M  V30 3771 N 360.656 0.0484629 -1.57525 0
M  V30 3772 C 361.884 0.755421 -1.92616 0
M  V30 3773 C 362.299 1.69919 -0.822984 0
M  V30 3774 O 361.656 1.81378 0.202085 0
M  V30 3775 C 361.707 1.52915 -3.27566 0
M  V30 3776 O 361.428 0.62329 -4.33644 0
M  V30 3777 C 362.929 2.33502 -3.76818 0
M  V30 3778 H 360.149 0.213465 -0.63614 0
M  V30 3779 H 362.693 0.0117698 -2.04497 0
M  V30 3780 H 360.848 2.22486 -3.17142 0
M  V30 3781 H 361.262 1.16383 -5.11425 0
M  V30 3782 H 362.736 2.83214 -4.73808 0
M  V30 3783 H 363.213 3.14068 -3.07014 0
M  V30 3784 H 363.819 1.69043 -3.90262 0
M  V30 3785 N 362.134 1.5431 0.320358 0
M  V30 3786 C 363.382 1.72327 1.05583 0
M  V30 3787 C 363.703 0.50149 1.88441 0
M  V30 3788 O 362.973 -0.48448 1.89815 0
M  V30 3789 H 361.553 0.635387 0.3928 0
M  V30 3790 H 364.215 1.91621 0.356019 0
M  V30 3791 H 363.311 2.60426 1.72003 0
M  V30 3792 N 363.613 -0.582584 1.46437 0
M  V30 3793 C 364.838 -1.37168 1.55563 0
M  V30 3794 C 365.263 -1.87061 0.19743 0
M  V30 3795 O 364.621 -1.61572 -0.822451 0
M  V30 3796 C 364.669 -2.53511 2.56446 0
M  V30 3797 O 363.773 -3.54953 2.09958 0
M  V30 3798 H 363.114 -0.408494 0.523477 0
M  V30 3799 H 365.644 -0.706646 1.9201 0
M  V30 3800 H 365.654 -3.00426 2.76058 0
M  V30 3801 H 364.329 -2.16549 3.55076 0
M  V30 3802 H 362.906 -3.14516 2.00334 0
M  V30 3803 N 365.091 -1.34144 -0.827227 0
M  V30 3804 C 366.319 -1.29325 -1.61501 0
M  V30 3805 C 366.734 0.13354 -1.88327 0
M  V30 3806 O 366.091 1.0793 -1.47164 0
M  V30 3807 C 366.142 -2.07746 -2.95844 0
M  V30 3808 O 365.863 -3.4486 -2.70191 0
M  V30 3809 C 367.364 -2.10273 -3.90256 0
M  V30 3810 H 364.584 -0.445069 -0.50215 0
M  V30 3811 H 367.128 -1.76693 -1.02955 0
M  V30 3812 H 365.283 -1.6403 -3.5096 0
M  V30 3813 H 365.697 -3.85345 -3.55822 0
M  V30 3814 H 367.171 -2.69575 -4.81698 0
M  V30 3815 H 367.648 -1.096 -4.25305 0
M  V30 3816 H 368.254 -2.54059 -3.41078 0
M  V30 3817 N 366.569 1.04691 -1.17803 0
M  V30 3818 C 367.479 2.16057 -0.914151 0
M  V30 3819 C 368.495 1.73589 0.119503 0
M  V30 3820 O 369.671 2.01308 -0.0609468 0
M  V30 3821 C 366.736 3.4394 -0.436603 0
M  V30 3822 C 365.797 4.00825 -1.53746 0
M  V30 3823 C 365.03 5.22604 -1.0826 0
M  V30 3824 O 365.253 5.70367 0.0612244 0
M  V30 3825 O 364.187 5.7186 -1.87775 0
M  V30 3826 H 368.013 2.41169 -1.84584 0
M  V30 3827 H 365.598 1.1453 -0.959334 0
M  V30 3828 H 367.48 4.21024 -0.178057 0
M  V30 3829 H 366.155 3.20316 0.466869 0
M  V30 3830 H 365.062 3.25158 -1.84995 0
M  V30 3831 H 366.395 4.28778 -2.41683 0
M  V30 3832 N 368.047 0.979072 1.23499 0
M  V30 3833 C 369.293 0.648178 1.92163 0
M  V30 3834 C 369.626 -0.816049 1.76222 0
M  V30 3835 O 368.901 -1.58849 1.12237 0
M  V30 3836 C 369.184 1.03773 3.44824 0
M  V30 3837 C 369.037 2.55948 3.69879 0
M  V30 3838 C 370.356 0.580653 4.36253 0
M  V30 3839 H 367.475 0.236952 0.69787 0
M  V30 3840 H 370.117 1.22012 1.45647 0
M  V30 3841 H 368.267 0.551058 3.84572 0
M  V30 3842 H 369.939 3.12179 3.3962 0
M  V30 3843 H 368.182 2.98641 3.14636 0
M  V30 3844 H 368.853 2.78255 4.76737 0
M  V30 3845 H 371.329 0.998465 4.03943 0
M  V30 3846 H 370.205 0.881663 5.41773 0
M  V30 3847 H 370.466 -0.519052 4.39042 0
M  V30 3848 N 369.525 -1.3858 0.750561 0
M  V30 3849 C 370.773 -1.99789 0.30477 0
M  V30 3850 C 371.094 -1.59874 -1.11649 0
M  V30 3851 O 370.364 -0.85417 -1.76297 0
M  V30 3852 H 368.944 -0.738902 0.109694 0
M  V30 3853 H 371.606 -1.69391 0.963983 0
M  V30 3854 H 370.702 -3.09952 0.365499 0
M  V30 3855 N 371.003 -0.499398 -1.49478 0
M  V30 3856 C 371.95 0.279881 -2.29097 0
M  V30 3857 C 372.92 0.961805 -1.3542 0
M  V30 3858 O 374.105 0.968777 -1.64376 0
M  V30 3859 C 371.245 1.33932 -3.18051 0
M  V30 3860 C 370.358 0.669333 -4.26783 0
M  V30 3861 C 369.493 1.70907 -5.02955 0
M  V30 3862 C 368.532 1.02087 -6.03527 0
M  V30 3863 N 367.669 2.00474 -6.7287 0
M  V30 3864 H 372.509 -0.405317 -2.95231 0
M  V30 3865 H 370.046 -0.211726 -1.45568 0
M  V30 3866 H 372.004 1.96553 -3.67998 0
M  V30 3867 H 370.634 1.9933 -2.53904 0
M  V30 3868 H 369.686 -0.0701234 -3.80335 0
M  V30 3869 H 370.998 0.127503 -4.98637 0
M  V30 3870 H 370.152 2.41037 -5.56764 0
M  V30 3871 H 368.891 2.28476 -4.30871 0
M  V30 3872 H 367.896 0.305338 -5.48951 0
M  V30 3873 H 369.121 0.451708 -6.77596 0
M  V30 3874 H 367.067 2.57007 -6.03559 0
M  V30 3875 H 366.984 1.51353 -7.40694 0
M  V30 3876 H 368.252 2.69897 -7.31284 0
M  V30 3877 N 372.481 1.55866 -0.233164 0
M  V30 3878 C 373.411 2.23783 0.666599 0
M  V30 3879 C 374.392 1.21343 1.19205 0
M  V30 3880 O 375.577 1.4996 1.23392 0
M  V30 3881 C 372.707 2.92671 1.86978 0
M  V30 3882 C 371.661 4.01682 1.47768 0
M  V30 3883 C 370.987 4.57926 2.76058 0
M  V30 3884 C 372.287 5.18126 0.658993 0
M  V30 3885 H 373.981 2.99232 0.100306 0
M  V30 3886 H 371.527 1.43924 0.046804 0
M  V30 3887 H 373.48 3.3888 2.50476 0
M  V30 3888 H 372.204 2.14688 2.46123 0
M  V30 3889 H 370.863 3.56222 0.866106 0
M  V30 3890 H 370.511 3.76659 3.33372 0
M  V30 3891 H 370.211 5.31505 2.50552 0
M  V30 3892 H 371.735 5.06859 3.40479 0
M  V30 3893 H 373.149 5.60644 1.19795 0
M  V30 3894 H 371.546 5.98009 0.500552 0
M  V30 3895 H 372.616 4.83763 -0.331856 0
M  V30 3896 N 373.959 -0.0401083 1.57549 0
M  V30 3897 C 375.208 -0.732108 1.87944 0
M  V30 3898 C 375.521 -1.77107 0.830206 0
M  V30 3899 O 376.727 -2.51488 1.02302 0
M  V30 3900 C 375.183 -1.35315 3.33494 0
M  V30 3901 C 374.791 -0.351105 4.46622 0
M  V30 3902 C 376.535 -2.02566 3.73051 0
M  V30 3903 C 374.442 -0.979859 5.83226 0
M  V30 3904 H 373.372 -0.277188 0.701201 0
M  V30 3905 H 376.023 0.0138501 1.83495 0
M  V30 3906 H 374.405 -2.14844 3.32653 0
M  V30 3907 H 375.579 0.416674 4.58912 0
M  V30 3908 H 373.894 0.218708 4.15825 0
M  V30 3909 H 376.491 -2.50441 4.72423 0
M  V30 3910 H 376.834 -2.83904 3.04474 0
M  V30 3911 H 377.367 -1.29827 3.76018 0
M  V30 3912 H 374.106 -0.206135 6.55176 0
M  V30 3913 H 373.626 -1.71774 5.74677 0
M  V30 3914 H 375.305 -1.49046 6.29599 0
M  V30 3915 N 375.437 -1.54477 -0.31217 0
M  V30 3916 C 376.384 -1.84655 -1.38461 0
M  V30 3917 C 377.354 -0.694536 -1.50882 0
M  V30 3918 O 378.539 -0.942081 -1.6592 0
M  V30 3919 C 375.679 -2.0896 -2.74645 0
M  V30 3920 C 374.792 -3.36618 -2.70763 0
M  V30 3921 C 373.927 -3.50824 -3.98868 0
M  V30 3922 C 372.966 -4.72315 -3.89339 0
M  V30 3923 N 372.103 -4.83387 -5.09197 0
M  V30 3924 H 376.943 -2.76142 -1.12026 0
M  V30 3925 H 374.48 -1.36748 -0.542065 0
M  V30 3926 H 376.438 -2.21045 -3.53829 0
M  V30 3927 H 375.068 -1.20752 -2.99364 0
M  V30 3928 H 374.12 -3.33211 -1.83506 0
M  V30 3929 H 375.432 -4.25917 -2.59608 0
M  V30 3930 H 374.586 -3.62513 -4.86486 0
M  V30 3931 H 373.325 -2.59638 -4.12843 0
M  V30 3932 H 372.33 -4.6067 -3.00105 0
M  V30 3933 H 373.555 -5.64897 -3.76919 0
M  V30 3934 H 371.501 -3.9512 -5.23657 0
M  V30 3935 H 371.418 -5.66669 -5.00422 0
M  V30 3936 H 372.686 -4.9942 -5.98498 0
M  V30 3937 N 376.915 0.57481 -1.46744 0
M  V30 3938 C 377.825 1.711 -1.60505 0
M  V30 3939 C 378.841 1.67008 -0.488307 0
M  V30 3940 O 380.017 1.86774 -0.753495 0
M  V30 3941 C 377.082 3.07608 -1.59932 0
M  V30 3942 C 376.143 3.22904 -2.82898 0
M  V30 3943 C 375.376 4.529 -2.82343 0
M  V30 3944 O 375.599 5.37278 -1.91542 0
M  V30 3945 O 374.533 4.71611 -3.73987 0
M  V30 3946 H 378.359 1.62436 -2.56609 0
M  V30 3947 H 375.944 0.742779 -1.29627 0
M  V30 3948 H 377.826 3.88877 -1.62336 0
M  V30 3949 H 376.501 3.16692 -0.669898 0
M  V30 3950 H 375.408 2.41099 -2.86046 0
M  V30 3951 H 376.741 3.18715 -3.75076 0
M  V30 3952 N 378.394 1.34581 0.820102 0
M  V30 3953 C 379.357 1.2628 1.91275 0
M  V30 3954 C 380.357 0.177344 1.59819 0
M  V30 3955 O 381.547 0.430156 1.68806 0
M  V30 3956 C 378.679 0.950327 3.27386 0
M  V30 3957 H 379.872 2.23421 2.00057 0
M  V30 3958 H 377.425 1.1891 1.0144 0
M  V30 3959 H 378.16 -0.0177938 3.24295 0
M  V30 3960 H 377.945 1.73549 3.51601 0
M  V30 3961 H 379.435 0.917492 4.07396 0
M  V30 3962 N 379.872 -1.04064 1.18357 0
M  V30 3963 C 380.835 -2.10243 0.912707 0
M  V30 3964 C 381.835 -1.60477 -0.101928 0
M  V30 3965 O 383.025 -1.73703 0.131517 0
M  V30 3966 C 380.157 -3.38893 0.369387 0
M  V30 3967 H 381.35 -2.35706 1.85426 0
M  V30 3968 H 378.903 -1.20489 0.995594 0
M  V30 3969 H 379.638 -3.19094 -0.578776 0
M  V30 3970 H 379.423 -3.76331 1.1008 0
M  V30 3971 H 380.913 -4.17128 0.198575 0
M  V30 3972 N 381.35 -0.985608 -1.22978 0
M  V30 3973 C 382.598 -0.656087 -1.91154 0
M  V30 3974 C 382.919 0.813561 -1.77218 0
M  V30 3975 O 382.189 1.58244 -1.1548 0
M  V30 3976 H 380.769 -0.239674 -0.707506 0
M  V30 3977 H 383.431 -1.25054 -1.49491 0
M  V30 3978 H 382.527 -0.912253 -2.9847 0
M  V30 3979 N 382.828 1.3818 -0.7579 0
M  V30 3980 C 383.775 2.30416 -0.133057 0
M  V30 3981 C 384.745 1.50398 0.704957 0
M  V30 3982 O 385.93 1.79014 0.660192 0
M  V30 3983 C 383.07 3.36834 0.750813 0
M  V30 3984 C 382.183 4.31879 -0.102297 0
M  V30 3985 C 381.318 5.25368 0.784979 0
M  V30 3986 C 380.357 6.12058 -0.0715046 0
M  V30 3987 N 379.494 6.97832 0.772972 0
M  V30 3988 H 384.334 2.83274 -0.925186 0
M  V30 3989 H 381.871 1.39461 -0.467866 0
M  V30 3990 H 383.829 3.97145 1.27794 0
M  V30 3991 H 382.459 2.85374 1.50868 0
M  V30 3992 H 381.511 3.72991 -0.747095 0
M  V30 3993 H 382.823 4.92921 -0.763552 0
M  V30 3994 H 381.977 5.90818 1.37911 0
M  V30 3995 H 380.716 4.64703 1.47996 0
M  V30 3996 H 379.721 5.456 -0.678272 0
M  V30 3997 H 380.946 6.74793 -0.763606 0
M  V30 3998 H 378.892 6.3971 1.45282 0
M  V30 3999 H 378.809 7.55812 0.168709 0
M  V30 4000 H 380.077 7.67687 1.35194 0
M  V30 4001 N 384.306 0.507319 1.49211 0
M  V30 4002 C 385.531 -0.033725 2.07373 0
M  V30 4003 C 385.956 -1.29485 1.36437 0
M  V30 4004 O 385.314 -1.76294 0.423087 0
M  V30 4005 C 385.362 -0.263945 3.59633 0
M  V30 4006 O 384.466 -1.33737 3.90113 0
M  V30 4007 H 383.807 0.0290331 0.663365 0
M  V30 4008 H 386.337 0.708749 1.91932 0
M  V30 4009 H 386.347 -0.493536 4.05004 0
M  V30 4010 H 385.022 0.657424 4.10671 0
M  V30 4011 H 383.599 -1.09224 3.56545 0
M  V30 4012 N 385.784 -1.5574 0.241426 0
M  V30 4013 C 386.732 -2.22538 -0.676718 0
M  V30 4014 C 387.726 -1.21117 -1.18436 0
M  V30 4015 O 388.932 -1.39144 -1.14188 0
M  V30 4016 H 385.307 -0.713776 -0.236701 0
M  V30 4017 H 387.278 -2.98264 -0.0901187 0
M  V30 4018 C 386.027 -2.93439 -1.86518 0
M  V30 4019 H 385.35 -3.7125 -1.4837 0
M  V30 4020 H 386.79 -3.43549 -2.48495 0
M  V30 4021 C 385.249 -1.97008 -2.73294 0
M  V30 4022 O 385.779 -1.49965 -3.72657 0
M  V30 4023 N 383.985 -1.64227 -2.39745 0
M  V30 4024 H 383.532 -2.02677 -1.58996 0
M  V30 4025 H 383.49 -0.999708 -2.98083 0
M  V30 4026 N 387.262 0.0317525 -1.57568 0
M  V30 4027 C 388.192 1.03274 -2.0942 0
M  V30 4028 C 389.173 1.3788 -0.996143 0
M  V30 4029 O 390.358 1.46811 -1.27122 0
M  V30 4030 C 387.488 2.33448 -2.57137 0
M  V30 4031 C 386.442 2.13091 -3.71182 0
M  V30 4032 C 385.768 3.49001 -4.05095 0
M  V30 4033 C 387.068 1.51928 -4.99715 0
M  V30 4034 H 388.762 0.60112 -2.93303 0
M  V30 4035 H 386.308 0.287705 -1.41097 0
M  V30 4036 H 388.261 3.03802 -2.92032 0
M  V30 4037 H 386.985 2.78665 -1.70333 0
M  V30 4038 H 385.644 1.45171 -3.36632 0
M  V30 4039 H 385.292 3.91862 -3.15362 0
M  V30 4040 H 384.992 3.36207 -4.81911 0
M  V30 4041 H 386.516 4.20721 -4.42522 0
M  V30 4042 H 387.93 2.12196 -5.32584 0
M  V30 4043 H 386.327 1.49716 -5.81124 0
M  V30 4044 H 387.397 0.484811 -4.8247 0
M  V30 4045 N 388.74 1.54641 0.303973 0
M  V30 4046 C 389.687 1.85386 1.37479 0
M  V30 4047 C 390.657 0.702528 1.50512 0
M  V30 4048 O 391.842 0.950867 1.65418 0
M  V30 4049 C 388.982 2.10413 2.73533 0
M  V30 4050 C 388.095 3.38049 2.68974 0
M  V30 4051 C 387.23 3.52934 3.97002 0
M  V30 4052 C 386.269 4.74373 3.86829 0
M  V30 4053 N 385.406 4.8608 5.06627 0
M  V30 4054 H 390.246 2.76732 1.1056 0
M  V30 4055 H 387.783 1.37034 0.534805 0
M  V30 4056 H 389.741 2.22919 3.52652 0
M  V30 4057 H 388.371 1.22338 2.98719 0
M  V30 4058 H 387.423 3.3418 1.81736 0
M  V30 4059 H 388.735 4.27288 2.57346 0
M  V30 4060 H 387.889 3.65088 4.84557 0
M  V30 4061 H 386.628 2.61824 4.1146 0
M  V30 4062 H 385.633 4.62255 2.97658 0
M  V30 4063 H 386.858 5.66888 3.73918 0
M  V30 4064 H 384.804 3.97891 5.21554 0
M  V30 4065 H 384.721 5.69315 4.9741 0
M  V30 4066 H 385.989 5.02587 5.95841 0
M  V30 4067 N 390.218 -0.567019 1.47046 0
M  V30 4068 C 391.634 -0.891975 1.32348 0
M  V30 4069 C 391.834 -1.99154 0.306616 0
M  V30 4070 O 390.89 -2.50883 -0.28532 0
M  V30 4071 C 392.203 -1.29449 2.7141 0
M  V30 4072 C 393.751 -1.40646 2.79621 0
M  V30 4073 C 394.226 -1.84257 4.19301 0
M  V30 4074 N 395.717 -1.91424 4.21795 0
M  V30 4075 C 396.452 -2.26476 5.26779 0
M  V30 4076 N 395.948 -2.60211 6.42077 0
M  V30 4077 N 397.741 -2.27166 5.14152 0
M  V30 4078 H 389.892 0.159074 2.11803 0
M  V30 4079 H 392.155 0.00849752 0.947962 0
M  V30 4080 H 391.861 -0.560448 3.47206 0
M  V30 4081 H 391.735 -2.25273 3.02542 0
M  V30 4082 H 394.122 -2.13133 2.04104 0
M  V30 4083 H 394.203 -0.430339 2.52154 0
M  V30 4084 H 393.847 -1.12343 4.95319 0
M  V30 4085 H 393.777 -2.82855 4.44185 0
M  V30 4086 H 396.268 -1.6778 3.38612 0
M  V30 4087 H 396.581 -2.85956 7.17948 0
M  V30 4088 H 394.926 -2.57813 6.45413 0
M  V30 4089 H 398.117 -2.00244 4.23107 0
M  V30 4090 H 398.29 -2.54154 5.96079 0
M  V30 4091 N 391.696 -1.35014 -0.812953 0
M  V30 4092 C 392.942 -1.2812 -1.57204 0
M  V30 4093 C 393.275 0.145869 -1.93651 0
M  V30 4094 O 392.55 1.0937 -1.60836 0
M  V30 4095 C 392.833 -2.18162 -2.86492 0
M  V30 4096 C 392.686 -3.69454 -2.56561 0
M  V30 4097 C 394.005 -2.07439 -3.88145 0
M  V30 4098 H 391.124 -0.466746 -0.570366 0
M  V30 4099 H 393.766 -1.65357 -0.935783 0
M  V30 4100 H 391.916 -1.86535 -3.40789 0
M  V30 4101 H 393.588 -4.11493 -2.08497 0
M  V30 4102 H 391.831 -3.9005 -1.89851 0
M  V30 4103 H 392.502 -4.27835 -3.48799 0
M  V30 4104 H 394.978 -2.35228 -3.4323 0
M  V30 4105 H 393.854 -2.7265 -4.76396 0
M  V30 4106 H 394.115 -1.05439 -4.29343 0
M  V30 4107 N 393.175 1.03435 -1.18907 0
M  V30 4108 C 394.403 1.80381 -1.01342 0
M  V30 4109 C 394.818 1.83649 0.438005 0
M  V30 4110 O 394.175 1.27655 1.30424 0
M  V30 4111 C 394.226 3.25689 -1.56873 0
M  V30 4112 O 393.947 3.22673 -2.96334 0
M  V30 4113 C 395.448 4.19255 -1.44014 0
M  V30 4114 H 392.668 0.56784 -0.35749 0
M  V30 4115 H 395.212 1.30317 -1.576 0
M  V30 4116 H 393.367 3.72962 -1.04777 0
M  V30 4117 H 393.781 4.13748 -3.22355 0
M  V30 4118 H 395.255 5.19123 -1.87657 0
M  V30 4119 H 395.732 4.37467 -0.389815 0
M  V30 4120 H 396.338 3.77851 -1.95214 0
M  V30 4121 N 394.653 0.992116 1.22453 0
M  V30 4122 C 395.583 0.561677 2.26644 0
M  V30 4123 C 396.564 -0.411055 1.65059 0
M  V30 4124 O 397.749 -0.301861 1.9184 0
M  V30 4125 C 394.879 -0.125247 3.47074 0
M  V30 4126 C 393.833 0.765948 4.21091 0
M  V30 4127 C 393.159 -0.0538484 5.34673 0
M  V30 4128 C 394.459 2.06242 4.79856 0
M  V30 4129 H 396.153 1.43259 2.62902 0
M  V30 4130 H 393.699 0.690283 1.26377 0
M  V30 4131 H 395.652 -0.437764 4.1912 0
M  V30 4132 H 394.376 -1.03069 3.0991 0
M  V30 4133 H 393.035 1.0621 3.50878 0
M  V30 4134 H 392.683 -0.960188 4.9375 0
M  V30 4135 H 392.383 0.539415 5.85119 0
M  V30 4136 H 393.907 -0.360477 6.09535 0
M  V30 4137 H 395.321 1.8139 5.43848 0
M  V30 4138 H 393.718 2.60444 5.40638 0
M  V30 4139 H 394.788 2.74167 3.99951 0
M  V30 4140 N 396.131 -1.37776 0.765217 0
M  V30 4141 C 397.041 -2.34135 0.147666 0
M  V30 4142 C 398.057 -1.59854 -0.687215 0
M  V30 4143 O 399.233 -1.91983 -0.608659 0
M  V30 4144 C 396.298 -3.3901 -0.72617 0
M  V30 4145 C 395.359 -4.2912 0.124417 0
M  V30 4146 C 394.592 -5.28986 -0.707807 0
M  V30 4147 O 394.815 -5.36205 -1.94525 0
M  V30 4148 O 393.749 -6.01779 -0.12046 0
M  V30 4149 H 397.575 -2.88664 0.943758 0
M  V30 4150 H 395.16 -1.39824 0.526277 0
M  V30 4151 H 397.042 -4.03195 -1.22524 0
M  V30 4152 H 395.717 -2.86819 -1.50056 0
M  V30 4153 H 394.624 -3.68057 0.669696 0
M  V30 4154 H 395.957 -4.84598 0.861736 0
M  V30 4155 N 397.609 -0.515225 -1.4894 0
M  V30 4156 C 398.539 0.244628 -2.32215 0
M  V30 4157 C 399.52 0.949136 -1.41157 0
M  V30 4158 O 400.705 0.937783 -1.70057 0
M  V30 4159 C 397.835 1.30096 -3.22013 0
M  V30 4160 C 396.789 0.715486 -4.21977 0
M  V30 4161 C 396.115 1.87339 -5.00808 0
M  V30 4162 C 397.415 -0.302982 -5.2142 0
M  V30 4163 H 399.109 -0.450501 -2.95991 0
M  V30 4164 H 396.655 -0.218098 -1.42339 0
M  V30 4165 H 398.608 1.84037 -3.79089 0
M  V30 4166 H 397.332 2.02547 -2.56207 0
M  V30 4167 H 395.991 0.197715 -3.66066 0
M  V30 4168 H 395.639 2.58592 -4.31438 0
M  V30 4169 H 395.339 1.48764 -5.68457 0
M  V30 4170 H 396.863 2.41686 -5.60732 0
M  V30 4171 H 398.277 0.148802 -5.73107 0
M  V30 4172 H 396.674 -0.60532 -5.97039 0
M  V30 4173 H 397.744 -1.21395 -4.69459 0
M  V30 4174 N 399.087 1.5561 -0.249682 0
M  V30 4175 C 400.335 1.98618 0.373548 0
M  V30 4176 C 400.656 1.13919 1.58264 0
M  V30 4177 O 399.926 0.222637 1.94631 0
M  V30 4178 H 398.506 0.733571 0.141006 0
M  V30 4179 H 401.168 1.91748 -0.349117 0
M  V30 4180 H 400.264 3.04584 0.680796 0
M  V30 4181 N 400.565 -0.0233959 1.57583 0
M  V30 4182 C 401.813 -0.711654 1.89156 0
M  V30 4183 C 402.134 -1.75591 0.848096 0
M  V30 4184 O 401.404 -1.95547 -0.117566 0
M  V30 4185 H 399.984 -0.265835 0.698098 0
M  V30 4186 H 402.646 0.0119948 1.94896 0
M  V30 4187 H 401.742 -1.19766 2.88206 0
M  V30 4188 N 402.043 -1.548 -0.295768 0
M  V30 4189 C 402.99 -1.86113 -1.36494 0
M  V30 4190 C 403.96 -0.7105 -1.50137 0
M  V30 4191 O 405.145 -0.959626 -1.64912 0
M  V30 4192 C 402.285 -2.11861 -2.72413 0
M  V30 4193 C 401.398 -3.39471 -2.67177 0
M  V30 4194 C 400.533 -3.55035 -3.95125 0
M  V30 4195 C 399.572 -4.76418 -3.84308 0
M  V30 4196 N 398.709 -4.8876 -5.04042 0
M  V30 4197 H 403.549 -2.77314 -1.09091 0
M  V30 4198 H 401.086 -1.37315 -0.52753 0
M  V30 4199 H 403.044 -2.24786 -3.51464 0
M  V30 4200 H 401.674 -1.2392 -2.98066 0
M  V30 4201 H 400.726 -3.35139 -1.79962 0
M  V30 4202 H 402.038 -4.28646 -2.55076 0
M  V30 4203 H 401.192 -3.67653 -4.82614 0
M  V30 4204 H 399.931 -2.64002 -4.10066 0
M  V30 4205 H 398.936 -4.63827 -2.95202 0
M  V30 4206 H 400.161 -5.68863 -3.70906 0
M  V30 4207 H 398.107 -4.00652 -5.19436 0
M  V30 4208 H 398.024 -5.71945 -4.94384 0
M  V30 4209 H 399.292 -5.0574 -5.93167 0
M  V30 4210 N 403.521 0.559213 -1.47345 0
M  V30 4211 C 404.746 1.34676 -1.57725 0
M  V30 4212 C 405.171 1.86723 -0.227164 0
M  V30 4213 O 404.529 1.6286 0.796642 0
M  V30 4214 C 404.577 2.49399 -2.60447 0
M  V30 4215 O 403.681 3.51567 -2.15578 0
M  V30 4216 H 403.022 0.400115 -0.52991 0
M  V30 4217 H 405.552 0.676009 -1.93109 0
M  V30 4218 H 405.562 2.95996 -2.80803 0
M  V30 4219 H 404.237 2.10873 -3.58477 0
M  V30 4220 H 402.814 3.11289 -2.05313 0
M  V30 4221 N 404.999 1.35443 0.805782 0
M  V30 4222 C 406.41 1.25768 1.37983 0
M  V30 4223 C 406.761 -0.10958 1.95894 0
M  V30 4224 O 405.886 -1.01056 1.91355 0
M  V30 4225 C 406.481 2.27727 2.5085 0
M  V30 4226 C 405.04 2.2179 3.04115 0
M  V30 4227 C 404.187 2.13393 1.77084 0
M  V30 4228 H 407.138 1.4656 0.608752 0
M  V30 4229 H 407.159 1.90422 3.29424 0
M  V30 4230 H 406.671 3.27227 2.08671 0
M  V30 4231 H 404.772 1.25703 3.50756 0
M  V30 4232 H 404.885 3.13788 3.62042 0
M  V30 4233 H 403.249 1.59384 1.98668 0
M  V30 4234 H 404.032 3.14755 1.37056 0
M  V30 4235 N 406.477 -1.02803 1.19454 0
M  V30 4236 C 407.717 -1.77769 1.00883 0
M  V30 4237 C 408.081 -1.86596 -0.45233 0
M  V30 4238 O 409.282 -2.57895 -0.757877 0
M  V30 4239 C 407.553 -3.16486 1.66046 0
M  V30 4240 S 409.112 -4.07632 1.62424 0
M  V30 4241 H 405.93 -0.611949 0.361993 0
M  V30 4242 H 408.532 -1.23175 1.51816 0
M  V30 4243 H 407.236 -3.0768 2.7159 0
M  V30 4244 H 406.767 -3.76156 1.15196 0
M  V30 4245 H 408.782 -4.91937 0.64903 0
M  V30 4246 N 407.956 -0.998596 -1.21925 0
M  V30 4247 C 409.205 -0.673085 -1.90138 0
M  V30 4248 C 409.518 0.79895 -1.78539 0
M  V30 4249 O 410.724 1.23628 -2.4172 0
M  V30 4250 C 409.18 -1.15339 -3.40918 0
M  V30 4251 C 408.788 -2.65106 -3.61141 0
M  V30 4252 C 410.532 -0.902476 -4.14796 0
M  V30 4253 C 408.439 -3.0671 -5.05651 0
M  V30 4254 H 407.369 -0.248057 -0.712028 0
M  V30 4255 H 410.02 -1.20891 -1.38049 0
M  V30 4256 H 408.402 -0.545658 -3.92223 0
M  V30 4257 H 409.576 -3.31274 -3.20304 0
M  V30 4258 H 407.891 -2.88142 -3.00605 0
M  V30 4259 H 410.488 -1.18895 -5.21314 0
M  V30 4260 H 410.831 0.161349 -4.15987 0
M  V30 4261 H 411.364 -1.47269 -3.69536 0
M  V30 4262 H 408.103 -4.12292 -5.09603 0
M  V30 4263 H 407.623 -2.45249 -5.47369 0
M  V30 4264 H 409.302 -2.9833 -5.74115 0
M  V30 4265 N 409.434 1.37368 -0.772513 0
M  V30 4266 C 410.68 1.99969 -0.337681 0
M  V30 4267 C 411.013 1.61184 1.08321 0
M  V30 4268 O 410.288 0.858395 1.74533 0
M  V30 4269 C 410.571 3.56858 -0.482121 0
M  V30 4270 C 410.424 4.0555 -1.94549 0
M  V30 4271 C 411.743 4.39955 0.113143 0
M  V30 4272 H 408.862 0.726464 -0.124171 0
M  V30 4273 H 411.504 1.63034 -0.975699 0
M  V30 4274 H 409.654 3.88452 0.0610361 0
M  V30 4275 H 411.326 3.84518 -2.54841 0
M  V30 4276 H 409.569 3.57715 -2.45403 0
M  V30 4277 H 410.24 5.14587 -1.9976 0
M  V30 4278 H 412.716 4.14623 -0.35031 0
M  V30 4279 H 411.592 5.48897 -0.0180514 0
M  V30 4280 H 411.853 4.25403 1.20354 0
M  V30 4281 N 410.912 0.523116 1.48665 0
M  V30 4282 C 411.842 -0.23231 2.32342 0
M  V30 4283 C 412.823 -0.941637 1.41659 0
M  V30 4284 O 414.008 -0.928751 1.70552 0
M  V30 4285 C 411.138 -1.28387 3.22698 0
M  V30 4286 C 410.092 -0.693098 4.22351 0
M  V30 4287 C 409.418 -1.8468 5.01794 0
M  V30 4288 C 410.718 0.33063 5.21252 0
M  V30 4289 H 412.412 0.466192 2.95748 0
M  V30 4290 H 409.958 0.225643 1.42221 0
M  V30 4291 H 411.911 -1.82024 3.80059 0
M  V30 4292 H 410.635 -2.01186 2.57278 0
M  V30 4293 H 409.294 -0.178299 3.66166 0
M  V30 4294 H 408.942 -2.56301 4.32804 0
M  V30 4295 H 408.642 -1.45747 5.69238 0
M  V30 4296 H 410.166 -2.38709 5.62006 0
M  V30 4297 H 411.58 -0.118407 5.73178 0
M  V30 4298 H 409.977 0.636974 5.9671 0
M  V30 4299 H 411.047 1.23883 4.68808 0
M  V30 4300 N 412.39 -1.55475 0.257931 0
M  V30 4301 C 413.353 -2.20551 -0.623706 0
M  V30 4302 C 414.353 -1.17809 -1.09443 0
M  V30 4303 O 415.543 -1.42823 -0.997362 0
M  V30 4304 C 412.675 -2.85784 -1.8585 0
M  V30 4305 H 413.868 -2.99848 -0.0557743 0
M  V30 4306 H 411.421 -1.56298 0.0084422 0
M  V30 4307 H 412.156 -2.10453 -2.46739 0
M  V30 4308 H 411.941 -3.61057 -1.52907 0
M  V30 4309 H 413.431 -3.35553 -2.48584 0
M  V30 4310 N 413.868 0.0150385 -1.57593 0
M  V30 4311 C 415.145 0.7392 -1.81094 0
M  V30 4312 C 415.525 1.92817 -0.859344 0
M  V30 4313 O 414.873 2.28301 0.095362 0
M  V30 4314 C 415.083 1.15907 -3.29191 0
M  V30 4315 C 416.431 1.56918 -3.9454 0
M  V30 4316 O 417.455 1.25328 -3.33424 0
M  V30 4317 O 416.314 2.15604 -5.02173 0
M  V30 4318 H 413.408 0.358631 -0.745193 0
M  V30 4319 H 415.954 -0.00926156 -1.69697 0
M  V30 4320 H 414.726 0.310921 -3.90063 0
M  V30 4321 H 414.349 1.96711 -3.45529 0
M  V30 4322 N 415.346 1.54954 0.287554 0
M  V30 4323 C 416.309 1.86076 1.33823 0
M  V30 4324 C 417.309 0.734414 1.43049 0
M  V30 4325 O 418.499 1.00266 1.42452 0
M  V30 4326 C 415.631 2.05305 2.72144 0
M  V30 4327 H 416.824 2.79984 1.07465 0
M  V30 4328 H 414.377 1.47223 0.524902 0
M  V30 4329 H 415.112 1.1373 3.03704 0
M  V30 4330 H 414.897 2.873 2.66836 0
M  V30 4331 H 416.387 2.30706 3.48087 0
M  V30 4332 N 416.824 -0.551391 1.4764 0
M  V30 4333 C 418.101 -1.31229 1.45046 0
M  V30 4334 C 418.481 -2.10563 0.150527 0
M  V30 4335 O 417.829 -2.11374 -0.867956 0
M  V30 4336 C 418.039 -2.21189 2.69956 0
M  V30 4337 C 419.387 -2.82021 3.1741 0
M  V30 4338 O 420.411 -2.31488 2.70724 0
M  V30 4339 O 419.27 -3.73885 3.98588 0
M  V30 4340 H 416.364 -0.591193 0.578291 0
M  V30 4341 H 418.91 -0.569813 1.59847 0
M  V30 4342 H 417.682 -1.62207 3.56096 0
M  V30 4343 H 417.305 -3.02722 2.57769 0
M  V30 4344 N 418.302 -1.35869 -0.798587 0
M  V30 4345 C 419.232 -1.32118 -1.92528 0
M  V30 4346 C 420.213 -0.194209 -1.68988 0
M  V30 4347 O 421.398 -0.390426 -1.90235 0
M  V30 4348 C 418.528 -1.10047 -3.29404 0
M  V30 4349 C 417.482 -2.19471 -3.67446 0
M  V30 4350 C 416.808 -1.82555 -5.02571 0
M  V30 4351 C 418.108 -3.61495 -3.76987 0
M  V30 4352 H 419.802 -2.26394 -1.95924 0
M  V30 4353 H 417.348 -1.08981 -0.94123 0
M  V30 4354 H 419.301 -1.06061 -4.07835 0
M  V30 4355 H 418.025 -0.122195 -3.26371 0
M  V30 4356 H 416.684 -2.22568 -2.91306 0
M  V30 4357 H 416.332 -0.833249 -4.9605 0
M  V30 4358 H 416.032 -2.5581 -5.28995 0
M  V30 4359 H 417.556 -1.80108 -5.83432 0
M  V30 4360 H 418.97 -3.60676 -4.4563 0
M  V30 4361 H 417.367 -4.33577 -4.14887 0
M  V30 4362 H 418.437 -3.97065 -2.78329 0
M  V30 4363 N 419.78 1.02168 -1.19998 0
M  V30 4364 C 421.057 1.72816 -0.916191 0
M  V30 4365 C 421.437 2.03081 0.576325 0
M  V30 4366 O 420.785 1.69122 1.53656 0
M  V30 4367 C 420.995 2.9997 -1.78378 0
M  V30 4368 C 422.343 3.73336 -2.02251 0
M  V30 4369 O 423.367 3.09914 -1.75589 0
M  V30 4370 O 422.226 4.87371 -2.47249 0
M  V30 4371 H 419.32 0.752924 -0.342103 0
M  V30 4372 H 421.866 1.08062 -1.30846 0
M  V30 4373 H 420.638 2.73888 -2.79466 0
M  V30 4374 H 420.261 3.72464 -1.39126 0
M  V30 4375 N 421.258 1.00505 1.21394 0
M  V30 4376 C 422.206 0.558623 2.25792 0
M  V30 4377 C 423.2 -0.396848 1.64686 0
M  V30 4378 O 424.406 -0.268035 1.77993 0
M  V30 4379 H 420.781 0.1623 0.734277 0
M  V30 4380 H 422.752 1.4503 2.60785 0
M  V30 4381 C 421.501 -0.0989574 3.47559 0
M  V30 4382 H 420.824 0.627225 3.94849 0
M  V30 4383 H 422.264 -0.3746 4.22342 0
M  V30 4384 C 420.723 -1.33817 3.09184 0
M  V30 4385 O 421.253 -2.43252 3.19674 0
M  V30 4386 N 419.459 -1.21793 2.63846 0
M  V30 4387 H 419.006 -0.32746 2.5551 0
M  V30 4388 H 418.964 -2.04809 2.38539 0
M  V30 4389 N 422.737 -1.36956 0.779787 0
M  V30 4390 C 423.7 -2.2851 0.177662 0
M  V30 4391 C 424.7 -1.48393 -0.619377 0
M  V30 4392 O 425.89 -1.68505 -0.441785 0
M  V30 4393 C 423.022 -3.32428 -0.755279 0
M  V30 4394 H 424.215 -2.83269 0.984823 0
M  V30 4395 H 421.768 -1.46358 0.548544 0
M  V30 4396 H 422.503 -2.82808 -1.58714 0
M  V30 4397 H 422.288 -3.91659 -0.185817 0
M  V30 4398 H 423.778 -4.00824 -1.17174 0
M  V30 4399 N 424.215 -0.530993 -1.48385 0
M  V30 4400 C 425.461 0.00274135 -2.028 0
M  V30 4401 C 425.794 1.33838 -1.40716 0
M  V30 4402 O 425.069 1.86465 -0.553277 0
M  V30 4403 C 425.352 0.123676 -3.59888 0
M  V30 4404 C 425.205 -1.2372 -4.3245 0
M  V30 4405 C 426.524 0.849967 -4.31814 0
M  V30 4406 H 423.643 -0.000477758 -0.737 0
M  V30 4407 H 426.285 -0.688217 -1.77098 0
M  V30 4408 H 424.435 0.712157 -3.81917 0
M  V30 4409 H 426.107 -1.86687 -4.21836 0
M  V30 4410 H 424.35 -1.81882 -3.93829 0
M  V30 4411 H 425.021 -1.10557 -5.40815 0
M  V30 4412 H 427.497 0.350572 -4.14621 0
M  V30 4413 H 426.373 0.903486 -5.41413 0
M  V30 4414 H 426.634 1.90047 -3.99167 0
M  V30 4415 N 425.693 1.55336 -0.266172 0
M  V30 4416 C 426.603 2.2583 0.635458 0
M  V30 4417 C 427.619 1.28106 1.17749 0
M  V30 4418 O 428.795 1.61024 1.20968 0
M  V30 4419 C 425.86 2.95879 1.80712 0
M  V30 4420 C 424.921 4.09059 1.30265 0
M  V30 4421 C 424.154 4.75759 2.41846 0
M  V30 4422 O 424.377 4.41622 3.61007 0
M  V30 4423 O 423.311 5.63888 2.1051 0
M  V30 4424 H 427.137 3.03631 0.0646693 0
M  V30 4425 H 424.722 1.49361 -0.0339177 0
M  V30 4426 H 426.604 3.39932 2.49047 0
M  V30 4427 H 425.279 2.21002 2.36516 0
M  V30 4428 H 424.186 3.69482 0.586019 0
M  V30 4429 H 425.519 4.85811 0.790458 0
M  V30 4430 N 427.171 -0.0066808 1.57599 0
M  V30 4431 C 428.418 -0.69292 1.90276 0
M  V30 4432 C 428.746 -1.74148 0.866192 0
M  V30 4433 O 428.001 -1.95268 -0.129933 0
M  V30 4434 C 428.3 -1.37939 3.29708 0
M  V30 4435 C 427.966 -0.464679 4.48499 0
M  V30 4436 C 426.628 -0.212809 4.80729 0
M  V30 4437 C 428.98 0.16551 5.20937 0
M  V30 4438 C 426.308 0.677653 5.82773 0
M  V30 4439 C 428.66 1.04381 6.23929 0
M  V30 4440 C 427.324 1.30492 6.54621 0
M  V30 4441 H 426.594 -0.253558 0.696268 0
M  V30 4442 H 429.241 0.0474123 1.91441 0
M  V30 4443 H 427.546 -2.1936 3.24636 0
M  V30 4444 H 429.243 -1.9163 3.52249 0
M  V30 4445 H 425.833 -0.671153 4.23313 0
M  V30 4446 H 430.017 -0.0160756 4.96297 0
M  V30 4447 H 425.273 0.88803 6.04917 0
M  V30 4448 H 429.447 1.53851 6.79193 0
M  V30 4449 H 427.074 1.99662 7.33512 0
M  V30 4450 N 428.649 -1.55105 -0.279332 0
M  V30 4451 C 429.612 -1.86783 -1.32834 0
M  V30 4452 C 430.612 -0.74199 -1.42657 0
M  V30 4453 O 431.802 -1.0102 -1.41918 0
M  V30 4454 C 428.934 -2.06746 -2.71052 0
M  V30 4455 H 430.127 -2.8055 -1.05979 0
M  V30 4456 H 427.68 -1.47499 -0.517087 0
M  V30 4457 H 428.415 -1.15339 -3.03097 0
M  V30 4458 H 428.2 -2.88711 -2.65309 0
M  V30 4459 H 429.69 -2.32549 -3.46858 0
M  V30 4460 N 430.127 0.543554 -1.4793 0
M  V30 4461 C 431.077 1.64527 -1.57844 0
M  V30 4462 C 432.061 1.54869 -0.436408 0
M  V30 4463 O 433.253 1.63119 -0.687101 0
M  V30 4464 C 430.382 3.03281 -1.6086 0
M  V30 4465 C 429.468 3.18093 -2.80495 0
M  V30 4466 N 429.859 3.02923 -4.05057 0
M  V30 4467 C 428.157 3.49121 -2.77543 0
M  V30 4468 C 428.858 3.20791 -4.85251 0
M  V30 4469 N 427.834 3.47749 -4.17818 0
M  V30 4470 H 431.636 1.51388 -2.5191 0
M  V30 4471 H 429.15 0.748671 -1.44113 0
M  V30 4472 H 431.147 3.82403 -1.66054 0
M  V30 4473 H 429.807 3.17521 -0.678996 0
M  V30 4474 H 430.818 2.79966 -4.35705 0
M  V30 4475 H 427.495 3.69804 -1.93781 0
M  V30 4476 H 428.885 3.13915 -5.9406 0
M  V30 4477 N 431.605 1.3629 0.791371 0
M  V30 4478 C 432.555 1.26988 1.89362 0
M  V30 4479 C 433.539 0.161795 1.60084 0
M  V30 4480 O 434.731 0.394426 1.72549 0
M  V30 4481 C 431.86 1.05944 3.26544 0
M  V30 4482 C 430.946 2.21211 3.61838 0
M  V30 4483 N 431.337 3.46518 3.68455 0
M  V30 4484 C 429.635 2.12933 3.91887 0
M  V30 4485 C 430.336 4.2241 3.99931 0
M  V30 4486 N 429.312 3.51329 4.14812 0
M  V30 4487 H 433.114 2.21908 1.92702 0
M  V30 4488 H 430.628 1.28982 0.986787 0
M  V30 4489 H 432.625 0.973666 4.05371 0
M  V30 4490 H 431.285 0.119223 3.24481 0
M  V30 4491 H 432.296 3.80677 3.51148 0
M  V30 4492 H 428.973 1.26855 3.97761 0
M  V30 4493 H 430.363 5.30767 4.1199 0
M  V30 4494 N 433.083 -1.0153 1.20538 0
M  V30 4495 C 434.331 -1.74803 1.01432 0
M  V30 4496 C 434.652 -1.8963 -0.454456 0
M  V30 4497 O 433.922 -1.43975 -1.32846 0
M  V30 4498 H 432.502 -0.647598 0.372324 0
M  V30 4499 H 435.164 -1.22402 1.5167 0
M  V30 4500 H 434.26 -2.75114 1.47373 0
M  V30 4501 N 434.561 -1.01147 -1.20859 0
M  V30 4502 C 435.807 -0.698899 -1.90377 0
M  V30 4503 C 436.14 0.76904 -1.78324 0
M  V30 4504 O 435.415 1.55817 -1.16409 0
M  V30 4505 C 435.698 -1.12878 -3.41951 0
M  V30 4506 C 435.551 -2.65665 -3.62963 0
M  V30 4507 C 436.87 -0.696114 -4.3456 0
M  V30 4508 H 433.989 -0.255372 -0.691342 0
M  V30 4509 H 436.631 -1.25831 -1.42361 0
M  V30 4510 H 434.781 -0.652827 -3.82976 0
M  V30 4511 H 436.453 -3.21074 -3.31224 0
M  V30 4512 H 434.696 -3.06878 -3.06608 0
M  V30 4513 H 435.367 -2.90797 -4.69192 0
M  V30 4514 H 437.843 -1.10521 -4.01154 0
M  V30 4515 H 436.719 -1.025 -5.39245 0
M  V30 4516 H 436.98 0.402465 -4.40264 0
M  V30 4517 N 436.039 1.36541 -0.78704 0
M  V30 4518 C 437.286 1.99304 -0.358341 0
M  V30 4519 C 437.614 1.62467 1.06933 0
M  V30 4520 O 436.869 0.870019 1.75297 0
M  V30 4521 C 437.168 3.54343 -0.466485 0
M  V30 4522 C 436.834 4.10993 -1.85461 0
M  V30 4523 C 435.496 4.26177 -2.23443 0
M  V30 4524 C 437.848 4.41895 -2.76366 0
M  V30 4525 C 435.176 4.69573 -3.51736 0
M  V30 4526 C 437.528 4.86722 -4.04084 0
M  V30 4527 C 436.192 5.00112 -4.42091 0
M  V30 4528 H 435.462 0.729306 -0.131126 0
M  V30 4529 H 438.109 1.63068 -1.00404 0
M  V30 4530 H 436.414 3.90918 0.262719 0
M  V30 4531 H 438.111 4.00833 -0.115854 0
M  V30 4532 H 434.701 3.99612 -1.54946 0
M  V30 4533 H 438.885 4.29735 -2.48277 0
M  V30 4534 H 434.141 4.78127 -3.81057 0
M  V30 4535 H 438.315 5.09598 -4.7464 0
M  V30 4536 H 435.942 5.33498 -5.41557 0
M  V30 4537 N 437.518 0.538854 1.48102 0
M  V30 4538 C 438.748 0.0122958 2.06596 0
M  V30 4539 C 439.156 -1.27861 1.39457 0
M  V30 4540 O 438.499 -1.77348 0.478907 0
M  V30 4541 C 438.561 -0.273131 3.58461 0
M  V30 4542 C 438.225 0.92561 4.47528 0
M  V30 4543 C 439.222 1.82637 4.86765 0
M  V30 4544 C 436.907 1.13511 4.89306 0
M  V30 4545 C 438.901 2.92047 5.66558 0
M  V30 4546 C 436.588 2.23233 5.68868 0
M  V30 4547 C 437.586 3.12333 6.07402 0
M  V30 4548 O 437.274 4.20155 6.85365 0
M  V30 4549 H 437.006 0.0344283 0.675123 0
M  V30 4550 H 439.56 0.746494 1.91355 0
M  V30 4551 H 437.79 -1.06141 3.71848 0
M  V30 4552 H 439.479 -0.742842 3.99045 0
M  V30 4553 H 440.245 1.67649 4.55103 0
M  V30 4554 H 436.124 0.450835 4.5879 0
M  V30 4555 H 439.668 3.6162 5.96554 0
M  V30 4556 H 435.565 2.38201 5.99942 0
M  V30 4557 H 436.333 4.17975 7.03732 0
M  V30 4558 N 438.996 -1.55193 0.274407 0
M  V30 4559 C 439.946 -2.19184 -0.627882 0
M  V30 4560 C 440.93 -1.15625 -1.11892 0
M  V30 4561 O 442.122 -1.41441 -1.06411 0
M  V30 4562 C 439.251 -2.91591 -1.81189 0
M  V30 4563 C 438.337 -4.02438 -1.33807 0
M  V30 4564 N 438.728 -5.0246 -0.580349 0
M  V30 4565 C 437.026 -4.15496 -1.62109 0
M  V30 4566 C 437.727 -5.80756 -0.331344 0
M  V30 4567 N 436.703 -5.36038 -0.903556 0
M  V30 4568 H 440.505 -2.93871 -0.0411216 0
M  V30 4569 H 438.019 -1.62213 0.0779348 0
M  V30 4570 H 440.016 -3.35883 -2.46957 0
M  V30 4571 H 438.676 -2.18414 -2.40261 0
M  V30 4572 H 439.687 -5.17399 -0.227762 0
M  V30 4573 H 436.364 -3.53509 -2.22121 0
M  V30 4574 H 437.754 -6.71335 0.275454 0
M  V30 4575 N 440.474 -0.00167713 -1.576 0
M  V30 4576 C 441.406 1.0174 -2.05382 0
M  V30 4577 C 442.419 1.30595 -0.972052 0
M  V30 4578 O 443.608 1.27542 -1.24882 0
M  V30 4579 C 440.708 2.35174 -2.44022 0
M  V30 4580 C 439.881 2.25234 -3.74951 0
M  V30 4581 C 438.94 3.4137 -4.00441 0
M  V30 4582 O 437.966 3.19483 -4.71083 0
M  V30 4583 N 439.168 4.64275 -3.48467 0
M  V30 4584 H 441.933 0.609902 -2.93428 0
M  V30 4585 H 439.494 0.185672 -1.60832 0
M  V30 4586 H 441.486 3.11643 -2.58187 0
M  V30 4587 H 440.056 2.67659 -1.61485 0
M  V30 4588 H 439.276 1.33664 -3.70847 0
M  V30 4589 H 440.564 2.15767 -4.60784 0
M  V30 4590 H 439.962 4.84955 -2.91264 0
M  V30 4591 H 438.519 5.38005 -3.67959 0
M  V30 4592 N 441.952 1.55251 0.271103 0
M  V30 4593 C 443.2 1.75599 1.00047 0
M  V30 4594 C 443.521 0.561188 1.8675 0
M  V30 4595 O 442.791 -0.423846 1.9126 0
M  V30 4596 H 441.371 0.647562 0.372387 0
M  V30 4597 H 444.033 1.92656 0.294876 0
M  V30 4598 H 443.129 2.65766 1.6363 0
M  V30 4599 N 443.43 -0.535701 1.48216 0
M  V30 4600 C 444.362 -1.65662 1.58394 0
M  V30 4601 C 445.375 -1.5591 0.468607 0
M  V30 4602 O 446.564 -1.62475 0.7392 0
M  V30 4603 C 443.664 -3.04276 1.4923 0
M  V30 4604 C 442.837 -3.39567 2.75705 0
M  V30 4605 C 441.896 -4.57436 2.60075 0
M  V30 4606 O 440.922 -4.60942 3.33948 0
M  V30 4607 N 442.124 -5.55259 1.69315 0
M  V30 4608 H 444.889 -1.5737 2.55058 0
M  V30 4609 H 442.45 -0.722845 1.44867 0
M  V30 4610 H 444.442 -3.80994 1.36477 0
M  V30 4611 H 443.012 -3.06677 0.605632 0
M  V30 4612 H 442.232 -2.52083 3.03064 0
M  V30 4613 H 443.52 -3.59929 3.59623 0
M  V30 4614 H 442.918 -5.552 1.08489 0
M  V30 4615 H 441.475 -6.31218 1.62504 0
M  V30 4616 N 444.908 -1.36708 -0.784132 0
M  V30 4617 C 446.148 -1.32618 -1.55537 0
M  V30 4618 C 446.512 0.0920681 -1.91779 0
M  V30 4619 O 447.713 0.257573 -2.67563 0
M  V30 4620 C 445.984 -2.22788 -2.79464 0
M  V30 4621 S 447.543 -2.36432 -3.69656 0
M  V30 4622 H 444.361 -0.470973 -0.53264 0
M  V30 4623 H 446.963 -1.72333 -0.92312 0
M  V30 4624 H 445.667 -3.24774 -2.50899 0
M  V30 4625 H 445.198 -1.84112 -3.47658 0
M  V30 4626 H 447.213 -1.56573 -4.7085 0
M  V30 4627 N 446.386 1.0089 -1.21074 0
M  V30 4628 C 447.626 1.76142 -1.03699 0
M  V30 4629 C 447.99 1.87292 0.422587 0
M  V30 4630 O 449.191 2.59068 0.716752 0
M  V30 4631 C 447.462 3.13805 -1.7106 0
M  V30 4632 S 449.021 4.04996 -1.68889 0
M  V30 4633 H 445.839 0.606113 -0.371683 0
M  V30 4634 H 448.441 1.20744 -1.53756 0
M  V30 4635 H 447.145 3.0332 -2.76451 0
M  V30 4636 H 446.676 3.74276 -1.21166 0
M  V30 4637 H 448.691 4.90842 -0.727211 0
M  V30 4638 N 447.864 1.01787 1.20321 0
M  V30 4639 C 449.113 0.703249 1.89043 0
M  V30 4640 C 449.426 -0.770445 1.79787 0
M  V30 4641 O 450.632 -1.19767 2.43656 0
M  V30 4642 C 449.088 1.20749 3.3904 0
M  V30 4643 C 448.696 2.70817 3.56878 0
M  V30 4644 C 450.44 0.968352 4.13308 0
M  V30 4645 C 448.347 3.14716 5.00708 0
M  V30 4646 H 447.277 0.259354 0.707991 0
M  V30 4647 H 449.928 1.23072 1.36108 0
M  V30 4648 H 448.31 0.607989 3.91305 0
M  V30 4649 H 449.484 3.36327 3.14993 0
M  V30 4650 H 447.799 2.92888 2.95983 0
M  V30 4651 H 450.396 1.27173 5.19356 0
M  V30 4652 H 450.739 -0.095149 4.16191 0
M  V30 4653 H 451.272 1.53129 3.67146 0
M  V30 4654 H 448.011 4.20347 5.02979 0
M  V30 4655 H 447.531 2.53927 5.43398 0
M  V30 4656 H 449.21 3.07426 5.69296 0
M  V30 4657 N 449.342 -1.36122 0.79427 0
M  V30 4658 C 450.305 -2.28309 0.201889 0
M  V30 4659 C 451.305 -1.49041 -0.603603 0
M  V30 4660 O 452.495 -1.68964 -0.423888 0
M  V30 4661 C 449.627 -3.3321 -0.719978 0
M  V30 4662 H 450.82 -2.82208 1.01481 0
M  V30 4663 H 448.373 -1.45768 0.564037 0
M  V30 4664 H 449.108 -2.84475 -1.55706 0
M  V30 4665 H 448.893 -3.91835 -0.144266 0
M  V30 4666 H 450.383 -4.02044 -1.12916 0
M  V30 4667 N 450.82 -0.546701 -1.47814 0
M  V30 4668 C 451.783 0.196287 -2.28358 0
M  V30 4669 C 452.783 0.852437 -1.36346 0
M  V30 4670 O 453.973 0.709913 -1.59078 0
M  V30 4671 C 451.105 1.28579 -3.15722 0
M  V30 4672 H 452.298 -0.511086 -2.95513 0
M  V30 4673 H 449.851 -0.303248 -1.5333 0
M  V30 4674 H 450.586 2.0259 -2.53235 0
M  V30 4675 H 450.371 0.820229 -3.83425 0
M  V30 4676 H 451.861 1.80793 -3.76435 0
M  V30 4677 N 452.299 1.55045 -0.282633 0
M  V30 4678 C 453.524 2.04628 0.337977 0
M  V30 4679 C 453.949 1.15937 1.48123 0
M  V30 4680 O 453.307 0.159532 1.80597 0
M  V30 4681 C 453.355 3.51854 0.78936 0
M  V30 4682 O 452.459 3.66236 1.89592 0
M  V30 4683 H 451.8 0.660434 0.0687261 0
M  V30 4684 H 454.33 2.00261 -0.419124 0
M  V30 4685 H 454.34 3.93361 1.08311 0
M  V30 4686 H 453.015 4.15873 -0.0470419 0
M  V30 4687 H 451.592 3.36633 1.60413 0
M  V30 4688 N 453.777 0.010035 1.57597 0
M  V30 4689 C 455.193 -0.346164 1.55801 0
M  V30 4690 C 455.393 -1.74144 1.01371 0
M  V30 4691 O 454.449 -2.43938 0.651968 0
M  V30 4692 C 455.762 -0.212216 2.9995 0
M  V30 4693 C 457.31 -0.286409 3.11687 0
M  V30 4694 C 457.785 -0.18147 4.5764 0
M  V30 4695 N 459.276 -0.239056 4.62583 0
M  V30 4696 C 460.011 -0.181351 5.73113 0
M  V30 4697 N 459.507 -0.073661 6.92761 0
M  V30 4698 N 461.3 -0.233949 5.61613 0
M  V30 4699 H 453.451 0.922657 1.91313 0
M  V30 4700 H 455.714 0.354595 0.879185 0
M  V30 4701 H 455.42 0.748169 3.4365 0
M  V30 4702 H 455.294 -0.990224 3.6397 0
M  V30 4703 H 457.681 -1.23724 2.67911 0
M  V30 4704 H 457.762 0.521645 2.50425 0
M  V30 4705 H 457.406 0.765863 5.02093 0
M  V30 4706 H 457.336 -1.00814 5.1686 0
M  V30 4707 H 459.827 -0.32321 3.76515 0
M  V30 4708 H 460.14 -0.0358003 7.72792 0
M  V30 4709 H 458.485 -0.0391461 6.94989 0
M  V30 4710 H 461.676 -0.316347 4.6703 0
M  V30 4711 H 461.849 -0.185514 6.47734 0
M  V30 4712 N 455.255 -1.55392 -0.262866 0
M  V30 4713 C 456.504 -1.75679 -0.990943 0
M  V30 4714 C 456.817 -0.57097 -1.87081 0
M  V30 4715 O 458.023 -0.656486 -2.63444 0
M  V30 4716 C 456.479 -3.10964 -1.81188 0
M  V30 4717 C 456.087 -4.37146 -0.980188 0
M  V30 4718 C 457.831 -3.40597 -2.53365 0
M  V30 4719 C 455.738 -5.63466 -1.7961 0
M  V30 4720 H 454.668 -0.654868 -0.373716 0
M  V30 4721 H 457.319 -1.81841 -0.246203 0
M  V30 4722 H 455.701 -2.98867 -2.59797 0
M  V30 4723 H 456.875 -4.60187 -0.237558 0
M  V30 4724 H 455.19 -4.14731 -0.372497 0
M  V30 4725 H 457.787 -4.32186 -3.14833 0
M  V30 4726 H 458.13 -2.6119 -3.24169 0
M  V30 4727 H 458.663 -3.53838 -1.81779 0
M  V30 4728 H 455.402 -6.4565 -1.13209 0
M  V30 4729 H 454.922 -5.44552 -2.51443 0
M  V30 4730 H 456.601 -6.02139 -2.36723 0
M  V30 4731 N 456.733 0.527833 -1.48498 0
M  V30 4732 C 457.98 1.28354 -1.56625 0
M  V30 4733 C 458.308 1.93 -0.241096 0
M  V30 4734 O 457.563 1.79967 0.768798 0
M  V30 4735 C 457.862 2.39275 -2.65485 0
M  V30 4736 C 457.528 1.92268 -4.07853 0
M  V30 4737 C 456.19 1.79166 -4.46602 0
M  V30 4738 C 458.542 1.56771 -4.97064 0
M  V30 4739 C 455.87 1.28905 -5.72364 0
M  V30 4740 C 458.222 1.07972 -6.23318 0
M  V30 4741 C 456.886 0.934887 -6.60921 0
M  V30 4742 H 456.156 0.469682 -0.573131 0
M  V30 4743 H 458.803 0.588781 -1.82224 0
M  V30 4744 H 457.108 3.1443 -2.33754 0
M  V30 4745 H 458.805 2.974 -2.68988 0
M  V30 4746 H 455.395 2.03417 -3.77252 0
M  V30 4747 H 459.579 1.65753 -4.67803 0
M  V30 4748 H 454.835 1.16381 -6.00221 0
M  V30 4749 H 459.009 0.795775 -6.91838 0
M  V30 4750 H 456.636 0.543231 -7.58257 0
M  V30 4751 N 458.211 1.37122 0.776871 0
M  V30 4752 C 459.457 1.32243 1.53752 0
M  V30 4753 C 459.79 -0.0944745 1.9397 0
M  V30 4754 O 459.065 -1.05068 1.6368 0
M  V30 4755 C 459.348 2.25681 2.80607 0
M  V30 4756 C 459.201 3.76127 2.46676 0
M  V30 4757 C 460.52 2.17657 3.82509 0
M  V30 4758 H 457.639 0.481704 0.557791 0
M  V30 4759 H 460.281 1.6778 0.891612 0
M  V30 4760 H 458.431 1.95505 3.35723 0
M  V30 4761 H 460.103 4.16877 1.97513 0
M  V30 4762 H 458.346 3.94946 1.79443 0
M  V30 4763 H 459.017 4.36933 3.37333 0
M  V30 4764 H 461.493 2.44245 3.36873 0
M  V30 4765 H 460.369 2.85185 4.69 0
M  V30 4766 H 460.63 1.16785 4.26396 0
M  V30 4767 N 459.689 -1.00246 1.21608 0
M  V30 4768 C 460.599 -2.12515 0.993709 0
M  V30 4769 C 461.615 -1.73913 -0.0549939 0
M  V30 4770 O 462.791 -2.00943 0.135619 0
M  V30 4771 C 459.856 -3.42083 0.563953 0
M  V30 4772 C 458.917 -3.94843 1.68516 0
M  V30 4773 C 458.15 -5.18226 1.27582 0
M  V30 4774 O 458.373 -5.70201 0.150506 0
M  V30 4775 O 457.307 -5.64497 2.0887 0
M  V30 4776 H 461.133 -2.34152 1.93407 0
M  V30 4777 H 458.718 -1.10891 1.00118 0
M  V30 4778 H 460.6 -4.20073 0.334194 0
M  V30 4779 H 459.275 -3.21828 -0.347665 0
M  V30 4780 H 458.182 -3.18068 1.96935 0
M  V30 4781 H 459.515 -4.19512 2.5743 0
M  V30 4782 N 461.167 -1.02423 -1.1978 0
M  V30 4783 C 462.077 -0.610919 -2.26506 0
M  V30 4784 C 463.093 0.355152 -1.70337 0
M  V30 4785 O 464.269 0.214195 -2.00258 0
M  V30 4786 C 461.334 0.0365921 -3.46681 0
M  V30 4787 C 460.395 -0.976389 -4.18049 0
M  V30 4788 C 459.628 -0.359683 -5.32487 0
M  V30 4789 O 459.851 0.838601 -5.64202 0
M  V30 4790 O 458.785 -1.08022 -5.92127 0
M  V30 4791 H 462.611 -1.49965 -2.64091 0
M  V30 4792 H 460.196 -0.794156 -1.26545 0
M  V30 4793 H 462.078 0.39786 -4.19518 0
M  V30 4794 H 460.753 0.899398 -3.10954 0
M  V30 4795 H 459.66 -1.38916 -3.47352 0
M  V30 4796 H 460.993 -1.80941 -4.57735 0
M  V30 4797 N 462.645 1.35699 -0.801477 0
M  V30 4798 C 463.87 2.03687 -0.390678 0
M  V30 4799 C 464.295 1.60015 0.988778 0
M  V30 4800 O 463.653 0.774357 1.63931 0
M  V30 4801 C 463.701 3.57439 -0.476404 0
M  V30 4802 O 462.805 4.09208 0.512106 0
M  V30 4803 H 462.146 0.64344 -0.163956 0
M  V30 4804 H 464.676 1.73403 -1.08594 0
M  V30 4805 H 464.686 4.06544 -0.344357 0
M  V30 4806 H 463.361 3.88576 -1.48262 0
M  V30 4807 H 461.938 3.7134 0.340721 0
M  V30 4808 N 464.123 0.554532 1.47522 0
M  V30 4809 C 465.372 0.0273458 2.01681 0
M  V30 4810 C 465.685 -1.32962 1.43459 0
M  V30 4811 O 466.891 -1.94657 1.89265 0
M  V30 4812 C 465.347 -0.00159057 3.599 0
M  V30 4813 C 464.955 1.35197 4.27113 0
M  V30 4814 C 466.699 -0.476311 4.21819 0
M  V30 4815 C 464.606 1.28229 5.77331 0
M  V30 4816 H 463.536 0.00645269 0.753972 0
M  V30 4817 H 466.187 0.701985 1.69542 0
M  V30 4818 H 464.569 -0.741821 3.8899 0
M  V30 4819 H 465.743 2.1097 4.09668 0
M  V30 4820 H 464.058 1.76441 3.77171 0
M  V30 4821 H 466.655 -0.5468 5.31897 0
M  V30 4822 H 466.998 -1.4877 3.8881 0
M  V30 4823 H 467.531 0.20898 3.97251 0
M  V30 4824 H 464.27 2.26959 6.14955 0
M  V30 4825 H 463.79 0.566314 5.97121 0
M  V30 4826 H 465.469 0.983226 6.39485 0
M  V30 4827 N 465.601 -1.54893 0.290851 0
M  V30 4828 C 466.831 -2.04047 -0.323818 0
M  V30 4829 C 467.239 -1.16809 -1.48837 0
M  V30 4830 O 466.582 -0.184145 -1.82775 0
M  V30 4831 C 466.644 -3.49248 -0.852395 0
M  V30 4832 C 466.308 -4.56623 0.185557 0
M  V30 4833 C 467.305 -5.09985 1.01053 0
M  V30 4834 C 464.99 -5.01252 0.324332 0
M  V30 4835 C 466.984 -6.06507 1.96031 0
M  V30 4836 C 464.671 -5.97596 1.27757 0
M  V30 4837 C 465.669 -6.50107 2.09405 0
M  V30 4838 O 465.357 -7.44565 3.03114 0
M  V30 4839 H 465.089 -0.671735 -0.0758129 0
M  V30 4840 H 467.643 -2.00947 0.425393 0
M  V30 4841 H 465.873 -3.49639 -1.65195 0
M  V30 4842 H 467.562 -3.81654 -1.38185 0
M  V30 4843 H 468.328 -4.76307 0.914129 0
M  V30 4844 H 464.207 -4.60015 -0.301213 0
M  V30 4845 H 467.751 -6.47418 2.598 0
M  V30 4846 H 463.648 -6.30691 1.37473 0
M  V30 4847 H 464.416 -7.62334 2.97976 0
M  V30 4848 N 467.08 -0.0183926 -1.57589 0
M  V30 4849 C 468.357 0.700621 -1.82622 0
M  V30 4850 C 468.737 1.90951 -0.90005 0
M  V30 4851 O 468.085 2.28452 0.0469145 0
M  V30 4852 C 468.295 1.08899 -3.31575 0
M  V30 4853 C 469.643 1.48514 -3.9778 0
M  V30 4854 O 470.667 1.18227 -3.36007 0
M  V30 4855 O 469.526 2.04903 -5.06633 0
M  V30 4856 H 466.62 0.342743 -0.752633 0
M  V30 4857 H 469.166 -0.0452548 -1.6964 0
M  V30 4858 H 467.938 0.228113 -3.90635 0
M  V30 4859 H 467.561 1.89338 -3.49624 0
M  V30 4860 N 468.558 1.5553 0.254621 0
M  V30 4861 C 469.468 1.92789 1.33677 0
M  V30 4862 C 470.484 0.827356 1.53071 0
M  V30 4863 O 471.66 1.12807 1.66843 0
M  V30 4864 C 468.725 2.20827 2.67275 0
M  V30 4865 C 467.786 3.4427 2.5647 0
M  V30 4866 C 467.019 3.70961 3.83697 0
M  V30 4867 O 467.242 2.99852 4.85227 0
M  V30 4868 O 466.176 4.64491 3.82794 0
M  V30 4869 H 470.002 2.84945 1.05071 0
M  V30 4870 H 467.587 1.42312 0.454723 0
M  V30 4871 H 469.469 2.40204 3.46237 0
M  V30 4872 H 468.144 1.31851 2.9563 0
M  V30 4873 H 467.051 3.30209 1.75821 0
M  V30 4874 H 468.384 4.33524 2.33062 0
M  V30 4875 N 470.036 -0.519951 1.48776 0
M  V30 4876 C 471.283 -1.27522 1.57303 0
M  V30 4877 C 471.611 -1.92869 0.251328 0
M  V30 4878 O 470.866 -1.80372 -0.759243 0
M  V30 4879 C 471.165 -2.37864 2.6675 0
M  V30 4880 C 470.831 -1.90103 4.08867 0
M  V30 4881 C 469.493 -1.76795 4.47546 0
M  V30 4882 C 471.845 -1.54133 4.97888 0
M  V30 4883 C 469.173 -1.25868 5.73039 0
M  V30 4884 C 471.525 -1.04665 6.23881 0
M  V30 4885 C 470.189 -0.899823 6.61407 0
M  V30 4886 H 469.459 -0.466636 0.575614 0
M  V30 4887 H 472.106 -0.579109 1.82534 0
M  V30 4888 H 470.411 -3.13186 2.35418 0
M  V30 4889 H 472.108 -2.95969 2.70561 0
M  V30 4890 H 468.698 -2.01414 3.78326 0
M  V30 4891 H 472.882 -1.6327 4.68675 0
M  V30 4892 H 468.138 -1.13196 6.0083 0
M  V30 4893 H 472.312 -0.759074 6.92251 0
M  V30 4894 H 469.939 -0.503011 7.58534 0
M  V30 4895 N 471.514 -1.37532 -0.769588 0
M  V30 4896 C 472.76 -1.33057 -1.53048 0
M  V30 4897 C 473.093 0.0841865 -1.94017 0
M  V30 4898 O 472.368 1.04198 -1.64235 0
M  V30 4899 C 472.651 -2.27166 -2.79406 0
M  V30 4900 C 472.504 -3.77429 -2.44677 0
M  V30 4901 C 473.823 -2.19683 -3.81349 0
M  V30 4902 H 470.942 -0.484655 -0.555228 0
M  V30 4903 H 473.584 -1.68251 -0.882702 0
M  V30 4904 H 471.734 -1.97283 -3.34682 0
M  V30 4905 H 473.406 -4.17918 -1.953 0
M  V30 4906 H 471.649 -3.95892 -1.77346 0
M  V30 4907 H 472.32 -4.38716 -3.35011 0
M  V30 4908 H 474.796 -2.46029 -3.35573 0
M  V30 4909 H 473.672 -2.87668 -4.67481 0
M  V30 4910 H 473.933 -1.19045 -4.25771 0
M  V30 4911 N 472.992 0.995999 -1.22138 0
M  V30 4912 C 474.408 1.25917 -0.980667 0
M  V30 4913 C 474.608 1.98819 0.327604 0
M  V30 4914 O 473.664 2.29587 1.05101 0
M  V30 4915 C 474.977 2.07399 -2.17729 0
M  V30 4916 C 476.525 2.20594 -2.22052 0
M  V30 4917 C 477 3.05462 -3.41258 0
M  V30 4918 N 478.491 3.13049 -3.41401 0
M  V30 4919 C 479.226 3.78997 -4.30289 0
M  V30 4920 N 478.722 4.46899 -5.2939 0
M  V30 4921 N 480.515 3.75728 -4.18073 0
M  V30 4922 H 472.666 0.507158 -2.06256 0
M  V30 4923 H 474.929 0.28658 -0.903646 0
M  V30 4924 H 474.635 1.61191 -3.12586 0
M  V30 4925 H 474.509 3.08154 -2.17534 0
M  V30 4926 H 476.896 2.66017 -1.27745 0
M  V30 4927 H 476.977 1.1928 -2.26287 0
M  V30 4928 H 476.621 2.60739 -4.35864 0
M  V30 4929 H 476.551 4.06911 -3.34262 0
M  V30 4930 H 479.042 2.64721 -2.69688 0
M  V30 4931 H 479.355 4.94952 -5.935 0
M  V30 4932 H 477.7 4.45657 -5.33306 0
M  V30 4933 H 480.891 3.2184 -3.39907 0
M  V30 4934 H 481.064 4.26845 -4.87553 0
M  V30 4935 N 474.47 1.03057 1.19235 0
M  V30 4936 C 475.886 0.747947 1.40989 0
M  V30 4937 C 476.086 -0.666752 1.90149 0
M  V30 4938 O 475.142 -1.43249 2.07933 0
M  V30 4939 C 476.455 1.7855 2.41951 0
M  V30 4940 C 478.003 1.80524 2.55695 0
M  V30 4941 C 478.478 2.83243 3.59913 0
M  V30 4942 N 479.969 2.8207 3.67411 0
M  V30 4943 C 480.704 3.58204 4.47747 0
M  V30 4944 N 480.2 4.44057 5.31775 0
M  V30 4945 N 481.993 3.46738 4.42413 0
M  V30 4946 H 474.144 1.94367 0.856468 0
M  V30 4947 H 476.407 0.840412 0.438647 0
M  V30 4948 H 476.113 2.79973 2.12857 0
M  V30 4949 H 475.987 1.6092 3.41152 0
M  V30 4950 H 478.374 0.79778 2.84112 0
M  V30 4951 H 478.455 2.02229 1.56643 0
M  V30 4952 H 478.099 3.84161 3.32239 0
M  V30 4953 H 478.029 2.58795 4.5862 0
M  V30 4954 H 480.52 2.19803 3.074 0
M  V30 4955 H 480.833 4.98884 5.90199 0
M  V30 4956 H 479.178 4.48129 5.3123 0
M  V30 4957 H 482.369 2.79077 3.75811 0
M  V30 4958 H 482.542 4.06322 5.04783 0
M  V30 4959 N 475.948 -1.35272 0.808662 0
M  V30 4960 C 477.173 -2.03477 0.401475 0
M  V30 4961 C 477.598 -1.60537 -0.980279 0
M  V30 4962 O 476.956 -0.78304 -1.63518 0
M  V30 4963 C 477.004 -3.57181 0.495354 0
M  V30 4964 O 476.108 -4.09474 -0.490397 0
M  V30 4965 H 475.449 -0.642561 0.167366 0
M  V30 4966 H 477.979 -1.72824 1.09512 0
M  V30 4967 H 477.989 -4.06356 0.365912 0
M  V30 4968 H 476.664 -3.87784 1.5032 0
M  V30 4969 H 475.241 -3.71516 -0.321023 0
M  V30 4970 N 477.426 -0.562348 -1.47226 0
M  V30 4971 C 478.672 -0.0402761 -2.0276 0
M  V30 4972 C 479.005 1.30823 -1.43523 0
M  V30 4973 O 478.28 1.85249 -0.592705 0
M  V30 4974 C 478.563 0.047311 -3.60069 0
M  V30 4975 C 478.416 -1.32865 -4.29729 0
M  V30 4976 C 479.735 0.758182 -4.3352 0
M  V30 4977 H 476.854 -0.0161105 -0.736824 0
M  V30 4978 H 479.496 -0.725628 -1.75598 0
M  V30 4979 H 477.646 0.630986 -3.83342 0
M  V30 4980 H 479.318 -1.95593 -4.17781 0
M  V30 4981 H 477.561 -1.90195 -3.89882 0
M  V30 4982 H 478.232 -1.22004 -5.38349 0
M  V30 4983 H 480.708 0.262546 -4.15271 0
M  V30 4984 H 479.584 0.78844 -5.43208 0
M  V30 4985 H 479.845 1.81537 -4.03109 0
M  V30 4986 N 478.904 1.54736 -0.299062 0
M  V30 4987 C 479.814 2.27127 0.587413 0
M  V30 4988 C 480.83 1.30575 1.15005 0
M  V30 4989 O 482.006 1.63554 1.17525 0
M  V30 4990 C 479.071 2.99645 1.74395 0
M  V30 4991 C 478.132 4.11731 1.21559 0
M  V30 4992 C 477.365 4.80781 2.317 0
M  V30 4993 O 477.588 4.4918 3.51558 0
M  V30 4994 O 476.522 5.68226 1.98501 0
M  V30 4995 H 480.348 3.037 0.000250109 0
M  V30 4996 H 477.933 1.49256 -0.0655919 0
M  V30 4997 H 479.815 3.45138 2.4178 0
M  V30 4998 H 478.49 2.25969 2.31775 0
M  V30 4999 H 477.397 3.70641 0.507514 0
M  V30 5000 H 478.73 4.87379 0.687233 0
M  V30 5001 N 480.382 0.0267497 1.57577 0
M  V30 5002 C 481.798 -0.32962 1.56159 0
M  V30 5003 C 481.998 -1.73059 1.03213 0
M  V30 5004 O 481.054 -2.43233 0.677804 0
M  V30 5005 C 482.367 -0.18039 3.00158 0
M  V30 5006 C 483.915 -0.253334 3.11973 0
M  V30 5007 C 484.39 -0.132921 4.57807 0
M  V30 5008 N 485.881 -0.189979 4.6281 0
M  V30 5009 C 486.616 -0.120554 5.73273 0
M  V30 5010 N 486.112 -0.000180315 6.928 0
M  V30 5011 N 487.905 -0.174369 5.61829 0
M  V30 5012 H 480.056 0.942896 1.90324 0
M  V30 5013 H 482.319 0.3639 0.875375 0
M  V30 5014 H 482.025 0.784576 3.42837 0
M  V30 5015 H 481.899 -0.951565 3.65 0
M  V30 5016 H 484.286 -1.20876 2.69208 0
M  V30 5017 H 484.367 0.548177 2.49857 0
M  V30 5018 H 484.011 0.819073 5.01252 0
M  V30 5019 H 483.941 -0.953264 5.179 0
M  V30 5020 H 486.432 -0.283257 3.76837 0
M  V30 5021 H 486.745 0.0461666 7.72786 0
M  V30 5022 H 485.09 0.034569 6.94991 0
M  V30 5023 H 488.281 -0.266794 4.67339 0
M  V30 5024 H 488.454 -0.116802 6.47895 0
M  V30 5025 N 481.861 -1.55662 -0.24637 0
M  V30 5026 C 482.824 -1.89558 -1.28842 0
M  V30 5027 C 483.824 -0.772082 -1.41052 0
M  V30 5028 O 485.014 -1.04007 -1.39743 0
M  V30 5029 C 482.146 -2.12449 -2.66605 0
M  V30 5030 H 483.339 -2.82735 -1.00004 0
M  V30 5031 H 480.892 -1.48562 -0.485684 0
M  V30 5032 H 481.627 -1.21742 -3.00582 0
M  V30 5033 H 481.412 -2.94273 -2.59125 0
M  V30 5034 H 482.902 -2.39854 -3.41847 0
M  V30 5035 N 483.339 0.512053 -1.4905 0
M  V30 5036 C 484.286 1.6148 -1.64902 0
M  V30 5037 C 485.256 1.58687 -0.490673 0
M  V30 5038 O 486.441 1.76842 -0.71636 0
M  V30 5039 C 483.581 2.99676 -1.71139 0
M  V30 5040 C 482.694 3.12568 -2.98203 0
M  V30 5041 C 481.829 4.4143 -2.95487 0
M  V30 5042 C 480.868 4.47916 -4.17179 0
M  V30 5043 N 480.005 5.68191 -4.12437 0
M  V30 5044 H 484.845 1.47271 -2.59066 0
M  V30 5045 H 482.382 0.716713 -1.28459 0
M  V30 5046 H 484.34 3.79761 -1.72736 0
M  V30 5047 H 482.97 3.12614 -0.804508 0
M  V30 5048 H 482.022 2.25618 -3.06269 0
M  V30 5049 H 483.334 3.1322 -3.88194 0
M  V30 5050 H 482.488 5.29825 -2.95585 0
M  V30 5051 H 481.227 4.43326 -2.03256 0
M  V30 5052 H 480.232 3.57925 -4.17337 0
M  V30 5053 H 481.457 4.47744 -5.1059 0
M  V30 5054 H 479.403 5.7095 -3.23036 0
M  V30 5055 H 479.32 5.70413 -4.96151 0
M  V30 5056 H 480.588 6.58823 -4.16621 0
M  V30 5057 N 484.817 1.37938 0.762283 0
M  V30 5058 C 485.764 1.34467 1.87583 0
M  V30 5059 C 486.734 0.208633 1.64785 0
M  V30 5060 O 487.919 0.399494 1.86571 0
M  V30 5061 C 485.059 1.16692 3.24772 0
M  V30 5062 C 484.172 2.39608 3.59461 0
M  V30 5063 C 483.307 2.14631 4.85908 0
M  V30 5064 C 482.346 3.33364 5.13357 0
M  V30 5065 N 481.483 3.07877 6.30996 0
M  V30 5066 H 486.323 2.29669 1.89885 0
M  V30 5067 H 483.86 1.14116 0.928219 0
M  V30 5068 H 485.818 1.04405 4.03925 0
M  V30 5069 H 484.448 0.251333 3.2182 0
M  V30 5070 H 483.5 2.626 2.75219 0
M  V30 5071 H 484.812 3.28128 3.75678 0
M  V30 5072 H 483.966 1.99429 5.72986 0
M  V30 5073 H 482.705 1.23463 4.71814 0
M  V30 5074 H 481.71 3.49094 4.24751 0
M  V30 5075 H 482.935 4.25395 5.29354 0
M  V30 5076 H 480.881 2.19348 6.18241 0
M  V30 5077 H 480.798 3.89944 6.47673 0
M  V30 5078 H 482.066 2.96313 7.20985 0
M  V30 5079 N 486.295 -0.989507 1.22664 0
M  V30 5080 C 487.525 -1.7624 1.0781 0
M  V30 5081 C 487.933 -1.85466 -0.374036 0
M  V30 5082 O 487.276 -1.32645 -1.27087 0
M  V30 5083 C 487.338 -3.21007 1.61849 0
M  V30 5084 C 487.002 -3.35316 3.10503 0
M  V30 5085 C 487.999 -3.22362 4.07896 0
M  V30 5086 C 485.684 -3.60258 3.50028 0
M  V30 5087 C 487.678 -3.34139 5.42798 0
M  V30 5088 C 485.365 -3.71676 4.85078 0
M  V30 5089 C 486.363 -3.58625 5.81272 0
M  V30 5090 O 486.051 -3.69655 7.1387 0
M  V30 5091 H 485.783 -0.560209 0.378341 0
M  V30 5092 H 488.337 -1.25252 1.62792 0
M  V30 5093 H 486.567 -3.73202 1.01279 0
M  V30 5094 H 488.256 -3.80024 1.42606 0
M  V30 5095 H 489.022 -3.03 3.78703 0
M  V30 5096 H 484.901 -3.69492 2.75675 0
M  V30 5097 H 488.445 -3.23869 6.17863 0
M  V30 5098 H 484.342 -3.90545 5.1395 0
M  V30 5099 H 485.11 -3.86507 7.21495 0
M  V30 5100 N 487.773 -1.03688 -1.18687 0
M  V30 5101 C 489.022 -0.733235 -1.879 0
M  V30 5102 C 489.335 0.741745 -1.8099 0
M  V30 5103 O 490.541 1.15875 -2.4553 0
M  V30 5104 C 488.997 -1.26127 -3.37076 0
M  V30 5105 C 488.605 -2.76461 -3.52524 0
M  V30 5106 C 490.349 -1.03398 -4.11715 0
M  V30 5107 C 488.256 -3.22642 -4.95637 0
M  V30 5108 H 487.186 -0.270584 -0.703776 0
M  V30 5109 H 489.837 -1.25222 -1.34133 0
M  V30 5110 H 488.219 -0.670165 -3.90288 0
M  V30 5111 H 489.393 -3.41296 -3.09602 0
M  V30 5112 H 487.708 -2.97559 -2.91286 0
M  V30 5113 H 490.305 -1.3542 -5.17267 0
M  V30 5114 H 490.648 0.0289246 -4.1629 0
M  V30 5115 H 491.181 -1.5895 -3.64664 0
M  V30 5116 H 487.92 -4.28296 -4.96228 0
M  V30 5117 H 487.44 -2.62539 -5.39289 0
M  V30 5118 H 489.119 -3.16444 -5.64333 0
M  V30 5119 N 489.251 1.34841 -0.815825 0
M  V30 5120 C 490.181 2.32187 -0.247298 0
M  V30 5121 C 491.162 1.5791 0.632344 0
M  V30 5122 O 492.347 1.8593 0.560698 0
M  V30 5123 C 489.477 3.42122 0.597466 0
M  V30 5124 C 488.431 4.27602 -0.184446 0
M  V30 5125 C 487.757 5.28942 0.782609 0
M  V30 5126 C 489.057 5.03502 -1.38865 0
M  V30 5127 H 490.751 2.79985 -1.06061 0
M  V30 5128 H 488.297 1.34611 -0.511461 0
M  V30 5129 H 490.25 4.09232 1.00533 0
M  V30 5130 H 488.974 2.92956 1.44376 0
M  V30 5131 H 487.633 3.62085 -0.573592 0
M  V30 5132 H 487.281 4.7604 1.62466 0
M  V30 5133 H 486.981 5.87008 0.263695 0
M  V30 5134 H 488.505 5.98922 1.18848 0
M  V30 5135 H 489.919 5.63506 -1.05518 0
M  V30 5136 H 488.316 5.71108 -1.8427 0
M  V30 5137 H 489.386 4.33608 -2.17054 0
M  V30 5138 N 490.729 0.570148 1.46925 0
M  V30 5139 C 491.977 0.0508523 2.02036 0
M  V30 5140 C 492.298 -1.30885 1.44548 0
M  V30 5141 O 491.568 -1.85647 0.625453 0
M  V30 5142 H 490.148 0.0158088 0.746833 0
M  V30 5143 H 492.81 0.743086 1.80178 0
M  V30 5144 H 491.906 -0.027575 3.12088 0
M  V30 5145 N 492.207 -1.54576 0.307264 0
M  V30 5146 C 493.155 -2.25208 -0.581723 0
M  V30 5147 C 494.149 -1.26031 -1.13192 0
M  V30 5148 O 495.355 -1.43862 -1.08184 0
M  V30 5149 H 491.73 -0.723173 -0.206214 0
M  V30 5150 H 493.701 -2.98378 0.0364663 0
M  V30 5151 C 492.45 -3.01086 -1.73904 0
M  V30 5152 H 491.773 -3.77208 -1.32491 0
M  V30 5153 H 493.213 -3.5378 -2.33701 0
M  V30 5154 C 491.672 -2.08422 -2.64692 0
M  V30 5155 O 492.202 -1.65636 -3.65961 0
M  V30 5156 N 490.408 -1.74247 -2.32564 0
M  V30 5157 H 489.955 -2.09238 -1.50257 0
M  V30 5158 H 489.913 -1.12524 -2.93574 0
M  V30 5159 N 493.685 -0.035106 -1.57561 0
M  V30 5160 C 495.096 0.502885 -1.798 0
M  V30 5161 C 495.447 1.71892 -0.945921 0
M  V30 5162 O 494.572 2.15822 -0.157991 0
M  V30 5163 C 495.167 0.919097 -3.26095 0
M  V30 5164 C 493.726 1.40216 -3.49308 0
M  V30 5165 C 492.873 0.369709 -2.74824 0
M  V30 5166 H 495.824 -0.261102 -1.56537 0
M  V30 5167 H 495.845 1.78308 -3.36135 0
M  V30 5168 H 495.357 0.0338526 -3.88085 0
M  V30 5169 H 493.458 2.30714 -2.92578 0
M  V30 5170 H 493.571 1.40541 -4.58023 0
M  V30 5171 H 491.935 0.839113 -2.40481 0
M  V30 5172 H 492.718 -0.507173 -3.39533 0
M  V30 5173 N 495.163 1.55791 0.238111 0
M  V30 5174 C 496.093 1.94068 1.29846 0
M  V30 5175 C 497.074 0.806726 1.49753 0
M  V30 5176 O 498.259 1.06772 1.62214 0
M  V30 5177 C 495.389 2.24302 2.65153 0
M  V30 5178 C 494.343 3.40032 2.59927 0
M  V30 5179 C 493.669 3.55829 3.99111 0
M  V30 5180 C 494.969 4.75476 2.16148 0
M  V30 5181 H 496.663 2.82887 0.980563 0
M  V30 5182 H 494.209 1.36105 0.470253 0
M  V30 5183 H 496.162 2.4967 3.39475 0
M  V30 5184 H 494.886 1.32318 2.98596 0
M  V30 5185 H 493.545 3.14687 1.88063 0
M  V30 5186 H 493.193 2.6125 4.29834 0
M  V30 5187 H 492.893 4.3366 3.96501 0
M  V30 5188 H 494.417 3.83528 4.7512 0
M  V30 5189 H 495.831 5.00158 2.80205 0
M  V30 5190 H 494.228 5.56472 2.24631 0
M  V30 5191 H 495.298 4.71946 1.11333 0
M  V30 5192 N 496.642 -0.504142 1.49319 0
M  V30 5193 C 497.87 -1.28256 1.62351 0
M  V30 5194 C 498.285 -1.86502 0.293682 0
M  V30 5195 O 497.642 -1.67678 -0.720449 0
M  V30 5196 C 497.693 -2.41507 2.68992 0
M  V30 5197 O 497.414 -1.85656 3.96817 0
M  V30 5198 C 498.915 -3.32929 2.927 0
M  V30 5199 H 496.135 -0.389115 0.546654 0
M  V30 5200 H 498.679 -0.605531 1.95329 0
M  V30 5201 H 496.834 -3.05046 2.38801 0
M  V30 5202 H 497.248 -2.59981 4.55533 0
M  V30 5203 H 498.722 -4.0868 3.71058 0
M  V30 5204 H 499.199 -3.89733 2.02496 0
M  V30 5205 H 499.805 -2.75158 3.24296 0
M  V30 5206 N 498.12 -1.38341 -0.754957 0
M  V30 5207 C 499.531 -1.30803 -1.3322 0
M  V30 5208 C 499.882 0.0368 -1.96165 0
M  V30 5209 O 499.007 0.938844 -1.94974 0
M  V30 5210 C 499.602 -2.3688 -2.42225 0
M  V30 5211 C 498.161 -2.32925 -2.95674 0
M  V30 5212 C 497.308 -2.19819 -1.69042 0
M  V30 5213 H 500.259 -1.48719 -0.553937 0
M  V30 5214 H 500.28 -2.02517 -3.22129 0
M  V30 5215 H 499.792 -3.34747 -1.96383 0
M  V30 5216 H 497.893 -1.38635 -3.45848 0
M  V30 5217 H 498.006 -3.27008 -3.50146 0
M  V30 5218 H 496.37 -1.66648 -1.92615 0
M  V30 5219 H 497.153 -3.19625 -1.25279 0
M  V30 5220 N 499.598 0.982988 -1.23187 0
M  V30 5221 C 500.846 1.72052 -1.06031 0
M  V30 5222 C 501.167 1.90769 0.404019 0
M  V30 5223 O 500.437 1.47446 1.28982 0
M  V30 5224 H 499.017 0.637499 -0.389363 0
M  V30 5225 H 501.679 1.18338 -1.54862 0
M  V30 5226 H 500.775 2.7111 -1.54615 0
M  V30 5227 N 501.076 1.04316 1.18135 0
M  V30 5228 C 502.322 0.749128 1.88457 0
M  V30 5229 C 502.655 -0.72149 1.803 0
M  V30 5230 O 501.93 -1.52676 1.205 0
M  V30 5231 C 502.213 1.21905 3.38838 0
M  V30 5232 C 502.066 2.75195 3.55792 0
M  V30 5233 C 503.385 0.811085 4.32561 0
M  V30 5234 H 500.504 0.273611 0.684329 0
M  V30 5235 H 503.146 1.29561 1.38975 0
M  V30 5236 H 501.296 0.754137 3.8111 0
M  V30 5237 H 502.968 3.29743 3.22595 0
M  V30 5238 H 501.211 3.14899 2.98364 0
M  V30 5239 H 501.882 3.03135 4.61317 0
M  V30 5240 H 504.358 1.21118 3.98082 0
M  V30 5241 H 503.234 1.16761 5.36338 0
M  V30 5242 H 503.495 -0.285596 4.41177 0
M  V30 5243 N 502.554 -1.34406 0.822964 0
M  V30 5244 C 503.782 -2.02508 0.424039 0
M  V30 5245 C 504.197 -1.61975 -0.970022 0
M  V30 5246 O 503.554 -0.825228 -1.62777 0
M  V30 5247 C 503.605 -3.57789 0.516657 0
M  V30 5248 O 503.326 -3.96853 1.85577 0
M  V30 5249 C 504.827 -4.43157 0.112637 0
M  V30 5250 H 502.047 -0.649063 0.170173 0
M  V30 5251 H 504.591 -1.7168 1.11113 0
M  V30 5252 H 502.746 -3.87207 -0.122353 0
M  V30 5253 H 503.16 -4.91538 1.83005 0
M  V30 5254 H 504.634 -5.51527 0.228526 0
M  V30 5255 H 505.111 -4.28939 -0.943837 0
M  V30 5256 H 505.717 -4.19067 0.725449 0
M  V30 5257 N 504.032 -0.577932 -1.46621 0
M  V30 5258 C 504.964 0.195801 -2.28362 0
M  V30 5259 C 505.977 0.859983 -1.38232 0
M  V30 5260 O 507.166 0.730349 -1.62875 0
M  V30 5261 C 504.266 1.29639 -3.13124 0
M  V30 5262 C 503.439 0.725049 -4.31349 0
M  V30 5263 C 502.498 1.71274 -4.97546 0
M  V30 5264 O 501.524 1.25067 -5.5529 0
M  V30 5265 N 502.726 3.04672 -4.94121 0
M  V30 5266 H 505.491 -0.505468 -2.95407 0
M  V30 5267 H 503.052 -0.415381 -1.56481 0
M  V30 5268 H 505.044 1.95631 -3.54275 0
M  V30 5269 H 503.614 1.90059 -2.48186 0
M  V30 5270 H 502.834 -0.112205 -3.9404 0
M  V30 5271 H 504.122 0.323034 -5.07774 0
M  V30 5272 H 503.52 3.4484 -4.48444 0
M  V30 5273 H 502.077 3.66166 -5.39227 0
M  V30 5274 N 505.51 1.54411 -0.315457 0
M  V30 5275 C 506.758 2.00023 0.288971 0
M  V30 5276 C 507.079 1.20529 1.5329 0
M  V30 5277 O 506.349 0.304986 1.93511 0
M  V30 5278 H 504.929 0.738891 0.109766 0
M  V30 5279 H 507.591 1.90094 -0.430129 0
M  V30 5280 H 506.687 3.07198 0.550999 0
M  V30 5281 N 506.988 0.0434614 1.5754 0
M  V30 5282 C 508.399 -0.493343 1.80064 0
M  V30 5283 C 508.75 -1.71388 0.955023 0
M  V30 5284 O 507.875 -2.15736 0.169434 0
M  V30 5285 C 508.47 -0.90179 3.26578 0
M  V30 5286 C 507.029 -1.38362 3.50047 0
M  V30 5287 C 506.176 -0.355129 2.75017 0
M  V30 5288 H 509.127 0.2694 1.56397 0
M  V30 5289 H 509.148 -1.76523 3.37075 0
M  V30 5290 H 508.66 -0.013271 3.88098 0
M  V30 5291 H 506.761 -2.29159 2.93798 0
M  V30 5292 H 506.874 -1.3811 4.58762 0
M  V30 5293 H 505.238 -0.826348 2.40922 0
M  V30 5294 H 506.021 0.525172 3.39259 0
M  V30 5295 N 508.466 -1.55915 -0.229846 0
M  V30 5296 C 509.398 -1.88209 -1.30805 0
M  V30 5297 C 510.411 -0.769672 -1.43457 0
M  V30 5298 O 511.6 -1.04792 -1.44502 0
M  V30 5299 C 508.7 -2.06829 -2.68468 0
M  V30 5300 C 507.873 -3.37798 -2.77869 0
M  V30 5301 C 506.932 -3.45952 -3.96489 0
M  V30 5302 O 505.958 -4.19043 -3.85216 0
M  V30 5303 N 507.16 -2.76488 -5.10426 0
M  V30 5304 H 509.925 -2.81286 -1.03431 0
M  V30 5305 H 507.486 -1.5636 -0.41991 0
M  V30 5306 H 509.478 -2.09608 -3.46189 0
M  V30 5307 H 508.048 -1.20416 -2.88477 0
M  V30 5308 H 507.268 -3.4719 -1.86689 0
M  V30 5309 H 508.556 -4.24091 -2.81113 0
M  V30 5310 H 507.954 -2.16868 -5.2248 0
M  V30 5311 H 506.511 -2.84938 -5.8622 0
M  V30 5312 N 509.944 0.496216 -1.49584 0
M  V30 5313 C 511.193 1.24668 -1.58558 0
M  V30 5314 C 511.506 1.9359 -0.279703 0
M  V30 5315 O 512.712 2.70365 -0.248048 0
M  V30 5316 C 511.168 2.26388 -2.79779 0
M  V30 5317 C 510.776 1.63384 -4.17145 0
M  V30 5318 C 512.52 3.02233 -2.98086 0
M  V30 5319 C 510.427 2.63243 -5.29582 0
M  V30 5320 H 509.357 0.468995 -0.590389 0
M  V30 5321 H 512.008 0.519985 -1.75978 0
M  V30 5322 H 510.39 3.02241 -2.55863 0
M  V30 5323 H 511.564 0.93491 -4.51216 0
M  V30 5324 H 509.879 0.999121 -4.04236 0
M  V30 5325 H 512.476 3.76919 -3.79257 0
M  V30 5326 H 512.819 3.60132 -2.08831 0
M  V30 5327 H 513.352 2.33495 -3.22063 0
M  V30 5328 H 510.091 2.10119 -6.20911 0
M  V30 5329 H 509.611 3.31363 -4.99959 0
M  V30 5330 H 511.29 3.25575 -5.59115 0
M  V30 5331 N 511.423 1.38739 0.74761 0
M  V30 5332 C 512.7 1.25791 1.49786 0
M  V30 5333 C 513.08 -0.138075 2.10648 0
M  V30 5334 O 512.428 -1.14815 1.9756 0
M  V30 5335 C 512.638 2.37265 2.55942 0
M  V30 5336 C 513.986 2.75978 3.22679 0
M  V30 5337 O 515.01 2.36621 2.6625 0
M  V30 5338 O 513.869 3.43867 4.24756 0
M  V30 5339 H 510.963 0.492251 0.664543 0
M  V30 5340 H 513.509 1.50582 0.782511 0
M  V30 5341 H 512.281 3.30644 2.0926 0
M  V30 5342 H 511.904 2.14071 3.35051 0
M  V30 5343 N 512.901 -0.976442 1.23707 0
M  V30 5344 C 513.848 -2.06952 1.02174 0
M  V30 5345 C 514.818 -1.65984 -0.0621034 0
M  V30 5346 O 516.003 -1.90584 0.0907906 0
M  V30 5347 C 513.143 -3.39425 0.62327 0
M  V30 5348 C 512.256 -3.9364 1.77966 0
M  V30 5349 C 511.391 -5.14343 1.3276 0
M  V30 5350 C 510.43 -5.60733 2.45449 0
M  V30 5351 N 509.567 -6.72662 2.01172 0
M  V30 5352 H 514.407 -2.24704 1.95734 0
M  V30 5353 H 511.944 -1.10143 0.975034 0
M  V30 5354 H 513.902 -4.15526 0.37332 0
M  V30 5355 H 512.532 -3.21624 -0.275329 0
M  V30 5356 H 511.584 -3.14258 2.14351 0
M  V30 5357 H 512.896 -4.24035 2.62671 0
M  V30 5358 H 512.05 -5.97789 1.03601 0
M  V30 5359 H 510.789 -4.8561 0.450975 0
M  V30 5360 H 509.794 -4.75865 2.75378 0
M  V30 5361 H 511.019 -5.91483 3.33654 0
M  V30 5362 H 508.965 -6.45681 1.15895 0
M  V30 5363 H 508.882 -7.02462 2.79434 0
M  V30 5364 H 510.15 -7.59572 1.75129 0
M  V30 5365 N 514.379 -1.04941 -1.1758 0
M  V30 5366 C 515.289 -0.658826 -2.25159 0
M  V30 5367 C 516.305 0.318941 -1.71052 0
M  V30 5368 O 517.481 0.171669 -2.00667 0
M  V30 5369 C 514.546 -0.0369522 -3.4668 0
M  V30 5370 C 513.607 -1.06484 -4.15884 0
M  V30 5371 C 512.84 -0.472551 -5.31604 0
M  V30 5372 O 513.063 0.718736 -5.65854 0
M  V30 5373 O 511.997 -1.20557 -5.89703 0
M  V30 5374 H 515.823 -1.55533 -2.60851 0
M  V30 5375 H 513.408 -0.820819 -1.24832 0
M  V30 5376 H 515.29 0.308784 -4.20267 0
M  V30 5377 H 513.965 0.833238 -3.12792 0
M  V30 5378 H 512.872 -1.46253 -3.44327 0
M  V30 5379 H 514.205 -1.9061 -4.53794 0
M  V30 5380 N 515.857 1.33968 -0.830081 0
M  V30 5381 C 516.789 2.28194 -0.21448 0
M  V30 5382 C 517.802 1.5135 0.599752 0
M  V30 5383 O 518.991 1.73286 0.42826 0
M  V30 5384 C 516.091 3.31221 0.717356 0
M  V30 5385 C 515.264 4.37365 -0.055613 0
M  V30 5386 C 514.323 5.2011 0.798231 0
M  V30 5387 O 513.349 5.68691 0.240616 0
M  V30 5388 N 514.551 5.40523 2.11695 0
M  V30 5389 H 517.316 2.81662 -1.02405 0
M  V30 5390 H 514.877 1.46568 -0.687713 0
M  V30 5391 H 516.869 3.83477 1.29334 0
M  V30 5392 H 515.439 2.78095 1.42765 0
M  V30 5393 H 514.659 3.85727 -0.812936 0
M  V30 5394 H 515.947 5.05397 -0.587444 0
M  V30 5395 H 515.345 5.0274 2.59363 0
M  V30 5396 H 513.902 5.95871 2.64162 0
M  V30 5397 N 517.335 0.585699 1.46312 0
M  V30 5398 C 518.565 0.0780166 2.06453 0
M  V30 5399 C 518.973 -1.2336 1.43454 0
M  V30 5400 O 518.316 -1.75734 0.535086 0
M  V30 5401 C 518.378 -0.158951 3.59148 0
M  V30 5402 C 518.042 1.06752 4.44357 0
M  V30 5403 C 519.039 1.98031 4.80708 0
M  V30 5404 C 516.724 1.2902 4.85447 0
M  V30 5405 C 518.718 3.09924 5.5698 0
M  V30 5406 C 516.405 2.41218 5.61478 0
M  V30 5407 C 517.403 3.31499 5.97158 0
M  V30 5408 O 517.091 4.41747 6.71651 0
M  V30 5409 H 516.823 0.0558894 0.673686 0
M  V30 5410 H 519.377 0.806994 1.88883 0
M  V30 5411 H 517.607 -0.942575 3.75037 0
M  V30 5412 H 519.296 -0.615513 4.01206 0
M  V30 5413 H 520.062 1.82043 4.49539 0
M  V30 5414 H 515.941 0.596567 4.57124 0
M  V30 5415 H 519.485 3.80415 5.84748 0
M  V30 5416 H 515.382 2.57167 5.9206 0
M  V30 5417 H 516.15 4.40152 6.90079 0
M  V30 5418 N 518.813 -1.54241 0.323641 0
M  V30 5419 C 520.09 -1.92741 -0.333181 0
M  V30 5420 C 520.47 -1.25326 -1.69872 0
M  V30 5421 O 519.818 -0.396991 -2.25025 0
M  V30 5422 C 520.028 -3.46399 -0.425322 0
M  V30 5423 C 521.376 -4.19029 -0.68557 0
M  V30 5424 O 522.4 -3.52555 -0.50824 0
M  V30 5425 O 521.259 -5.36751 -1.02767 0
M  V30 5426 H 518.353 -0.804811 -0.190286 0
M  V30 5427 H 520.899 -1.65542 0.373361 0
M  V30 5428 H 519.671 -3.87643 0.533737 0
M  V30 5429 H 519.294 -3.79704 -1.17944 0
M  V30 5430 N 520.291 -0.0518155 -1.57515 0
M  V30 5431 C 521.238 0.922352 -2.11569 0
M  V30 5432 C 522.208 1.30842 -1.02321 0
M  V30 5433 O 523.393 1.39778 -1.29872 0
M  V30 5434 C 520.533 2.19167 -2.6657 0
M  V30 5435 C 519.646 1.86003 -3.89906 0
M  V30 5436 C 518.781 3.07398 -4.33221 0
M  V30 5437 C 517.82 2.70158 -5.49255 0
M  V30 5438 N 516.957 3.84248 -5.8762 0
M  V30 5439 H 521.797 0.454506 -2.94514 0
M  V30 5440 H 519.334 0.212718 -1.45554 0
M  V30 5441 H 521.292 2.93443 -2.96559 0
M  V30 5442 H 519.922 2.63528 -1.86421 0
M  V30 5443 H 518.974 1.01874 -3.66505 0
M  V30 5444 H 520.286 1.54592 -4.74239 0
M  V30 5445 H 519.44 3.89972 -4.64765 0
M  V30 5446 H 518.179 3.41988 -3.477 0
M  V30 5447 H 517.184 1.86001 -5.17382 0
M  V30 5448 H 518.409 2.36759 -6.36492 0
M  V30 5449 H 516.355 4.18638 -5.05053 0
M  V30 5450 H 516.272 3.56538 -6.66646 0
M  V30 5451 H 517.54 4.6746 -6.2378 0
M  V30 5452 N 521.769 1.56035 0.221574 0
M  V30 5453 C 523.018 1.78245 0.944016 0
M  V30 5454 C 523.331 0.620371 1.85501 0
M  V30 5455 O 524.537 0.726103 2.6161 0
M  V30 5456 C 522.993 3.15659 1.7288 0
M  V30 5457 C 522.601 4.39591 0.863942 0
M  V30 5458 C 524.345 3.47195 2.44246 0
M  V30 5459 C 522.252 5.6803 1.64607 0
M  V30 5460 H 521.182 0.664547 0.356222 0
M  V30 5461 H 523.833 1.8243 0.197904 0
M  V30 5462 H 522.215 3.0565 2.51781 0
M  V30 5463 H 523.389 4.60655 0.115464 0
M  V30 5464 H 521.704 4.15572 0.262407 0
M  V30 5465 H 524.301 4.40381 3.03263 0
M  V30 5466 H 524.644 2.69693 3.1713 0
M  V30 5467 H 525.177 3.58533 1.72334 0
M  V30 5468 H 521.916 6.48425 0.960507 0
M  V30 5469 H 521.436 5.51027 2.36917 0
M  V30 5470 H 523.115 6.08203 2.20675 0
M  V30 5471 N 523.247 -0.488276 1.49845 0
M  V30 5472 C 524.177 -1.59675 1.70371 0
M  V30 5473 C 525.158 -1.60878 0.552473 0
M  V30 5474 O 526.343 -1.77417 0.78973 0
M  V30 5475 C 523.473 -2.98098 1.782 0
M  V30 5476 C 522.427 -3.11761 2.93239 0
M  V30 5477 C 521.753 -4.51661 2.86193 0
M  V30 5478 C 523.053 -2.90589 4.33999 0
M  V30 5479 H 524.747 -1.42752 2.63177 0
M  V30 5480 H 522.293 -0.685317 1.26647 0
M  V30 5481 H 524.246 -3.75555 1.91144 0
M  V30 5482 H 522.97 -3.16138 0.820018 0
M  V30 5483 H 521.629 -2.36732 2.79917 0
M  V30 5484 H 521.277 -4.66595 1.87877 0
M  V30 5485 H 520.977 -4.61742 3.63412 0
M  V30 5486 H 522.501 -5.31162 3.01163 0
M  V30 5487 H 523.915 -3.57807 4.47936 0
M  V30 5488 H 522.312 -3.1213 5.12538 0
M  V30 5489 H 523.382 -1.86595 4.4756 0
M  V30 5490 N 524.725 -1.39134 -0.740242 0
M  V30 5491 C 526.002 -1.26584 -1.49117 0
M  V30 5492 C 526.382 0.126902 -2.10718 0
M  V30 5493 O 525.73 1.13765 -1.98166 0
M  V30 5494 C 525.94 -2.38619 -2.54681 0
M  V30 5495 C 527.288 -2.77685 -3.21211 0
M  V30 5496 O 528.312 -2.38029 -2.64991 0
M  V30 5497 O 527.171 -3.46115 -4.22926 0
M  V30 5498 H 524.265 -0.495769 -0.661923 0
M  V30 5499 H 526.811 -1.50995 -0.774514 0
M  V30 5500 H 525.583 -3.3175 -2.07504 0
M  V30 5501 H 525.206 -2.15845 -3.33911 0
M  V30 5502 N 526.204 0.969867 -1.24223 0
M  V30 5503 C 527.134 2.08191 -1.05729 0
M  V30 5504 C 528.115 1.70075 0.0290765 0
M  V30 5505 O 529.3 1.93712 -0.137583 0
M  V30 5506 C 526.43 3.40991 -0.658995 0
M  V30 5507 C 525.384 3.93054 -1.69389 0
M  V30 5508 C 524.71 5.22171 -1.15072 0
M  V30 5509 C 526.01 4.21137 -3.08935 0
M  V30 5510 H 527.704 2.23921 -1.98746 0
M  V30 5511 H 525.25 1.07602 -0.956967 0
M  V30 5512 H 527.203 4.18221 -0.51662 0
M  V30 5513 H 525.927 3.25155 0.30686 0
M  V30 5514 H 524.586 3.17977 -1.82444 0
M  V30 5515 H 524.234 5.02694 -0.175539 0
M  V30 5516 H 523.934 5.57973 -1.84229 0
M  V30 5517 H 525.458 6.02013 -1.02042 0
M  V30 5518 H 526.872 4.8908 -2.99121 0
M  V30 5519 H 525.269 4.68163 -3.75425 0
M  V30 5520 H 526.339 3.27996 -3.57137 0
M  V30 5521 N 527.682 1.05563 1.17022 0
M  V30 5522 C 528.931 0.763036 1.8671 0
M  V30 5523 C 529.244 -0.712857 1.82147 0
M  V30 5524 O 530.45 -1.11955 2.47343 0
M  V30 5525 C 528.906 1.31474 3.35026 0
M  V30 5526 C 528.514 2.82034 3.48081 0
M  V30 5527 C 530.258 1.09935 4.10018 0
M  V30 5528 C 528.165 3.30486 4.90442 0
M  V30 5529 H 527.095 0.281747 0.699382 0
M  V30 5530 H 529.746 1.2734 1.32124 0
M  V30 5531 H 528.128 0.732171 3.89173 0
M  V30 5532 H 529.302 3.46178 3.04133 0
M  V30 5533 H 527.617 3.02156 2.86515 0
M  V30 5534 H 530.214 1.43632 5.15048 0
M  V30 5535 H 530.557 0.0373072 4.16283 0
M  V30 5536 H 531.09 1.64732 3.62089 0
M  V30 5537 H 527.829 4.36137 4.89352 0
M  V30 5538 H 527.349 2.71086 5.35044 0
M  V30 5539 H 529.028 3.25382 5.59227 0
M  V30 5540 N 529.16 -1.33526 0.837174 0
M  V30 5541 C 530.07 -2.33023 0.271568 0
M  V30 5542 C 531.086 -1.63272 -0.601514 0
M  V30 5543 O 532.262 -1.94939 -0.506038 0
M  V30 5544 C 529.327 -3.42382 -0.545448 0
M  V30 5545 C 528.388 -4.27857 0.351709 0
M  V30 5546 C 527.621 -5.31994 -0.426409 0
M  V30 5547 O 527.844 -5.45763 -1.65828 0
M  V30 5548 O 526.778 -6.01572 0.1987 0
M  V30 5549 H 530.604 -2.83256 1.09545 0
M  V30 5550 H 528.189 -1.36837 0.599655 0
M  V30 5551 H 530.071 -4.09122 -1.00979 0
M  V30 5552 H 528.746 -2.94369 -1.34641 0
M  V30 5553 H 527.653 -3.6399 0.863853 0
M  V30 5554 H 528.986 -4.79349 1.1174 0
M  V30 5555 N 530.638 -0.59345 -1.46 0
M  V30 5556 C 531.863 -0.0872365 -2.07216 0
M  V30 5557 C 532.288 1.2131 -1.43755 0
M  V30 5558 O 531.646 1.73528 -0.525152 0
M  V30 5559 C 531.694 0.0538197 -3.6056 0
M  V30 5560 O 530.798 1.10765 -3.97247 0
M  V30 5561 H 530.139 -0.0676598 -0.660544 0
M  V30 5562 H 532.669 -0.819445 -1.87473 0
M  V30 5563 H 532.679 0.256567 -4.07193 0
M  V30 5564 H 531.354 -0.895739 -4.0614 0
M  V30 5565 H 529.931 0.882501 -3.62307 0
M  V30 5566 N 532.116 1.54067 -0.331816 0
M  V30 5567 C 533.364 2.00319 0.267739 0
M  V30 5568 C 533.685 1.22148 1.52003 0
M  V30 5569 O 532.955 0.325494 1.93177 0
M  V30 5570 H 531.535 0.740014 0.101922 0
M  V30 5571 H 534.197 1.89628 -0.450267 0
M  V30 5572 H 533.293 3.07765 0.518385 0
M  V30 5573 N 533.594 0.0601682 1.57485 0
M  V30 5574 C 534.541 -0.91112 2.12055 0
M  V30 5575 C 535.511 -1.30298 1.03013 0
M  V30 5576 O 536.696 -1.39087 1.30612 0
M  V30 5577 C 533.836 -2.1775 2.67729 0
M  V30 5578 C 532.949 -1.83933 3.90887 0
M  V30 5579 C 532.084 -3.05096 4.34845 0
M  V30 5580 C 531.123 -2.67241 5.5068 0
M  V30 5581 N 530.26 -3.81127 5.8965 0
M  V30 5582 H 535.1 -0.43888 2.9475 0
M  V30 5583 H 532.637 -0.204995 1.45665 0
M  V30 5584 H 534.595 -2.91866 2.98111 0
M  V30 5585 H 533.225 -2.62535 1.87816 0
M  V30 5586 H 532.277 -0.999287 3.6704 0
M  V30 5587 H 533.589 -1.52074 4.75052 0
M  V30 5588 H 532.743 -3.87502 4.66827 0
M  V30 5589 H 531.482 -3.40139 3.49509 0
M  V30 5590 H 530.487 -1.83254 5.18361 0
M  V30 5591 H 531.712 -2.3338 6.37738 0
M  V30 5592 H 529.658 -4.15954 5.07266 0
M  V30 5593 H 529.575 -3.52997 6.68528 0
M  V30 5594 H 530.843 -4.64145 6.2625 0
M  V30 5595 N 535.072 -1.5615 -0.213296 0
M  V30 5596 C 536.019 -1.93086 -1.26437 0
M  V30 5597 C 536.989 -0.789086 -1.4616 0
M  V30 5598 O 538.174 -1.04569 -1.59593 0
M  V30 5599 C 535.314 -2.26003 -2.608 0
M  V30 5600 C 534.427 -3.53156 -2.48807 0
M  V30 5601 C 533.562 -3.7548 -3.7575 0
M  V30 5602 C 532.601 -4.96119 -3.58514 0
M  V30 5603 N 531.738 -5.14791 -4.77425 0
M  V30 5604 H 536.578 -2.82707 -0.942376 0
M  V30 5605 H 534.115 -1.39919 -0.454001 0
M  V30 5606 H 536.073 -2.431 -3.39055 0
M  V30 5607 H 534.703 -1.39546 -2.91079 0
M  V30 5608 H 533.755 -3.44207 -1.61944 0
M  V30 5609 H 535.067 -4.41565 -2.31996 0
M  V30 5610 H 534.221 -3.92718 -4.62447 0
M  V30 5611 H 532.96 -2.85368 -3.95495 0
M  V30 5612 H 531.965 -4.78823 -2.70201 0
M  V30 5613 H 533.19 -5.87724 -3.40231 0
M  V30 5614 H 531.136 -4.27623 -4.97468 0
M  V30 5615 H 531.053 -5.97347 -4.63371 0
M  V30 5616 H 532.321 -5.36471 -5.65525 0
M  V30 5617 N 536.55 0.480323 -1.50102 0
M  V30 5618 C 537.46 1.60547 -1.71061 0
M  V30 5619 C 538.476 1.63564 -0.593529 0
M  V30 5620 O 539.652 1.81604 -0.870751 0
M  V30 5621 C 536.717 2.96814 -1.79171 0
M  V30 5622 C 535.778 3.04259 -3.02861 0
M  V30 5623 C 535.011 4.34027 -3.10574 0
M  V30 5624 O 535.234 5.24009 -2.25323 0
M  V30 5625 O 534.168 4.46873 -4.03223 0
M  V30 5626 H 537.994 1.45788 -2.6642 0
M  V30 5627 H 535.579 0.658838 -1.34088 0
M  V30 5628 H 537.461 3.77765 -1.86738 0
M  V30 5629 H 536.136 3.11791 -0.869947 0
M  V30 5630 H 535.043 2.22419 -3.008 0
M  V30 5631 H 536.376 2.94216 -3.94586 0
M  V30 5632 N 538.028 1.39524 0.732853 0
M  V30 5633 C 539.276 1.36594 1.48951 0
M  V30 5634 C 539.597 -0.0367507 1.94965 0
M  V30 5635 O 538.867 -0.988391 1.69138 0
M  V30 5636 H 537.447 0.502673 0.552566 0
M  V30 5637 H 540.109 1.74411 0.869869 0
M  V30 5638 H 539.205 2.03 2.3706 0
M  V30 5639 N 539.506 -0.963266 1.24736 0
M  V30 5640 C 540.469 -2.04013 1.04457 0
M  V30 5641 C 541.469 -1.608 0.000335555 0
M  V30 5642 O 542.659 -1.72515 0.241719 0
M  V30 5643 C 539.791 -3.35858 0.584162 0
M  V30 5644 H 540.984 -2.23436 2.00041 0
M  V30 5645 H 538.537 -1.13914 1.07021 0
M  V30 5646 H 539.272 -3.22128 -0.374673 0
M  V30 5647 H 539.057 -3.68568 1.3379 0
M  V30 5648 H 540.547 -4.1502 0.463451 0
M  V30 5649 N 540.985 -1.06182 -1.16461 0
M  V30 5650 C 541.932 -0.671613 -2.20812 0
M  V30 5651 C 542.902 0.331186 -1.62765 0
M  V30 5652 O 544.087 0.22033 -1.89524 0
M  V30 5653 C 541.227 -0.063029 -3.45042 0
M  V30 5654 C 540.34 -1.11587 -4.1734 0
M  V30 5655 C 539.475 -0.473546 -5.29085 0
M  V30 5656 C 538.514 -1.51 -5.93182 0
M  V30 5657 N 537.651 -0.891118 -6.96422 0
M  V30 5658 H 542.491 -1.56589 -2.53542 0
M  V30 5659 H 540.028 -0.782951 -1.24532 0
M  V30 5660 H 541.986 0.307344 -4.16066 0
M  V30 5661 H 540.616 0.794663 -3.12866 0
M  V30 5662 H 539.668 -1.60396 -3.44931 0
M  V30 5663 H 540.98 -1.90221 -4.61104 0
M  V30 5664 H 540.134 -0.0501432 -6.06679 0
M  V30 5665 H 538.873 0.344687 -4.8648 0
M  V30 5666 H 537.878 -1.94331 -5.14311 0
M  V30 5667 H 539.103 -2.33031 -6.37866 0
M  V30 5668 H 537.049 -0.0935753 -6.55933 0
M  V30 5669 H 536.966 -1.61486 -7.38551 0
M  V30 5670 H 538.234 -0.492822 -7.77941 0
M  V30 5671 N 542.463 1.3308 -0.844243 0
M  V30 5672 C 543.393 2.3161 -0.296493 0
M  V30 5673 C 544.374 1.59215 0.598707 0
M  V30 5674 O 545.559 1.87077 0.521134 0
M  V30 5675 C 542.689 3.43313 0.524762 0
M  V30 5676 C 541.643 4.27115 -0.275106 0
M  V30 5677 C 540.969 5.30483 0.670236 0
M  V30 5678 C 542.269 5.00443 -1.49514 0
M  V30 5679 H 543.963 2.77672 -1.11976 0
M  V30 5680 H 541.509 1.33496 -0.539899 0
M  V30 5681 H 543.462 4.11273 0.918298 0
M  V30 5682 H 542.186 2.95952 1.3813 0
M  V30 5683 H 540.845 3.60787 -0.650267 0
M  V30 5684 H 540.493 4.79379 1.52332 0
M  V30 5685 H 540.193 5.87435 0.139123 0
M  V30 5686 H 541.717 6.01308 1.06117 0
M  V30 5687 H 543.131 5.61141 -1.17447 0
M  V30 5688 H 541.528 5.67071 -1.96343 0
M  V30 5689 H 542.598 4.28906 -2.26202 0
M  V30 5690 N 543.941 0.601185 1.45683 0
M  V30 5691 C 544.851 -0.123395 2.34275 0
M  V30 5692 C 545.867 -0.86702 1.5086 0
M  V30 5693 O 547.043 -0.826049 1.8368 0
M  V30 5694 C 544.108 -1.11237 3.2837 0
M  V30 5695 C 543.169 -0.371405 4.2769 0
M  V30 5696 C 542.402 -1.31327 5.1729 0
M  V30 5697 O 542.625 -2.55078 5.10188 0
M  V30 5698 O 541.559 -0.813811 5.96373 0
M  V30 5699 H 545.385 0.604483 2.97623 0
M  V30 5700 H 542.97 0.361477 1.44961 0
M  V30 5701 H 544.852 -1.68214 3.8637 0
M  V30 5702 H 543.527 -1.82139 2.67595 0
M  V30 5703 H 542.434 0.24067 3.73325 0
M  V30 5704 H 543.767 0.296998 4.91303 0
M  V30 5705 N 545.419 -1.53889 0.339982 0
M  V30 5706 C 546.659 -2.02765 -0.258011 0
M  V30 5707 C 547.023 -1.22249 -1.48051 0
M  V30 5708 O 548.224 -1.61007 -2.15245 0
M  V30 5709 C 546.495 -3.5286 -0.567872 0
M  V30 5710 S 548.054 -4.23647 -1.14318 0
M  V30 5711 H 544.872 -0.706814 -0.0770389 0
M  V30 5712 H 547.474 -1.89594 0.476917 0
M  V30 5713 H 546.178 -4.09073 0.329745 0
M  V30 5714 H 545.709 -3.70144 -1.33256 0
M  V30 5715 H 547.724 -4.32676 -2.42911 0
M  V30 5716 N 546.897 -0.0685191 -1.57451 0
M  V30 5717 C 548.145 0.60016 -1.92983 0
M  V30 5718 C 548.466 1.70348 -0.949028 0
M  V30 5719 O 547.736 1.959 0.00335647 0
M  V30 5720 H 546.316 0.224682 -0.712409 0
M  V30 5721 H 548.978 -0.125605 -1.94495 0
M  V30 5722 H 548.074 1.02759 -2.94698 0
M  V30 5723 N 548.375 1.56261 0.205012 0
M  V30 5724 C 549.623 1.79684 0.925096 0
M  V30 5725 C 549.944 0.63989 1.84202 0
M  V30 5726 O 549.214 -0.342345 1.92885 0
M  V30 5727 H 547.794 0.662774 0.344587 0
M  V30 5728 H 550.456 1.93734 0.212899 0
M  V30 5729 H 549.552 2.72467 1.52211 0
M  V30 5730 N 549.853 -0.472356 1.50355 0
M  V30 5731 C 551.101 -1.22211 1.60962 0
M  V30 5732 C 551.422 -1.92497 0.311439 0
M  V30 5733 O 550.692 -1.8405 -0.671002 0
M  V30 5734 H 549.272 -0.454092 0.593135 0
M  V30 5735 H 551.934 -0.544977 1.87126 0
M  V30 5736 H 551.03 -1.9707 2.42012 0
M  V30 5737 N 551.331 -1.39911 -0.725443 0
M  V30 5738 C 552.742 -1.33599 -1.30415 0
M  V30 5739 C 553.093 -0.00481792 -1.96199 0
M  V30 5740 O 552.218 0.897275 -1.96921 0
M  V30 5741 C 552.813 -2.41965 -2.37146 0
M  V30 5742 C 551.372 -2.39144 -2.90667 0
M  V30 5743 C 550.519 -2.23355 -1.64341 0
M  V30 5744 H 553.47 -1.4986 -0.522267 0
M  V30 5745 H 553.491 -2.09304 -3.17761 0
M  V30 5746 H 553.003 -3.38837 -1.89238 0
M  V30 5747 H 551.104 -1.4594 -3.4283 0
M  V30 5748 H 551.217 -3.34362 -3.43131 0
M  V30 5749 H 549.581 -1.70696 -1.89037 0
M  V30 5750 H 550.364 -3.2221 -1.18471 0
M  V30 5751 N 552.809 0.956637 -1.25245 0
M  V30 5752 C 554.055 1.70413 -1.11044 0
M  V30 5753 C 554.41 1.89275 0.345377 0
M  V30 5754 O 553.703 1.45116 1.25107 0
M  V30 5755 C 553.897 3.08996 -1.79601 0
M  V30 5756 C 553.726 3.03654 -3.317 0
M  V30 5757 C 552.496 3.07521 -4.00947 0
M  V30 5758 C 554.694 2.84975 -4.28128 0
M  V30 5759 N 552.676 2.92316 -5.39838 0
M  V30 5760 C 554.047 2.7818 -5.5409 0
M  V30 5761 C 556.102 2.6964 -4.18568 0
M  V30 5762 C 554.805 2.57616 -6.71585 0
M  V30 5763 C 556.831 2.50447 -5.35752 0
M  V30 5764 C 556.193 2.4437 -6.60653 0
M  V30 5765 H 552.292 0.631642 -0.461035 0
M  V30 5766 H 554.876 1.13331 -1.58317 0
M  V30 5767 H 553.047 3.64248 -1.34826 0
M  V30 5768 H 554.779 3.72515 -1.58161 0
M  V30 5769 H 551.534 3.16635 -3.52192 0
M  V30 5770 H 551.958 2.87923 -6.12723 0
M  V30 5771 H 556.6 2.73113 -3.22752 0
M  V30 5772 H 554.318 2.52885 -7.67512 0
M  V30 5773 H 557.904 2.39509 -5.30214 0
M  V30 5774 H 556.784 2.29712 -7.49801 0
M  V30 5775 N 554.287 1.06798 1.15896 0
M  V30 5776 C 555.535 0.786211 1.8618 0
M  V30 5777 C 555.856 -0.689547 1.82401 0
M  V30 5778 O 555.126 -1.49913 1.26107 0
M  V30 5779 H 553.706 0.287843 0.689315 0
M  V30 5780 H 556.368 1.35055 1.40521 0
M  V30 5781 H 555.464 1.1157 2.91477 0
M  V30 5782 N 555.766 -1.3263 0.851289 0
M  V30 5783 C 556.714 -2.30882 0.282202 0
M  V30 5784 C 557.708 -1.58697 -0.592589 0
M  V30 5785 O 558.914 -1.73461 -0.480768 0
M  V30 5786 H 555.289 -0.748492 0.0725487 0
M  V30 5787 H 557.26 -2.76374 1.12516 0
M  V30 5788 C 556.009 -3.43828 -0.517449 0
M  V30 5789 H 555.332 -3.99532 0.146392 0
M  V30 5790 H 556.772 -4.1474 -0.88128 0
M  V30 5791 C 555.231 -2.90786 -1.70133 0
M  V30 5792 O 555.761 -2.88 -2.80034 0
M  V30 5793 N 553.967 -2.4723 -1.52728 0
M  V30 5794 H 553.514 -2.49695 -0.633257 0
M  V30 5795 H 553.472 -2.12094 -2.32085 0
M  V30 5796 N 557.244 -0.608902 -1.45362 0
M  V30 5797 C 558.191 0.109172 -2.30542 0
M  V30 5798 C 559.161 0.858704 -1.42181 0
M  V30 5799 O 560.346 0.844178 -1.71109 0
M  V30 5800 C 557.486 1.09971 -3.27109 0
M  V30 5801 C 556.599 0.350911 -4.30572 0
M  V30 5802 C 555.734 1.33129 -5.14247 0
M  V30 5803 C 554.773 0.570377 -6.09437 0
M  V30 5804 N 553.91 1.5001 -6.85887 0
M  V30 5805 H 558.75 -0.623195 -2.91411 0
M  V30 5806 H 556.287 -0.319122 -1.43597 0
M  V30 5807 H 558.245 1.68714 -3.81564 0
M  V30 5808 H 556.875 1.79947 -2.67991 0
M  V30 5809 H 555.927 -0.352054 -3.78767 0
M  V30 5810 H 557.239 -0.242725 -4.98209 0
M  V30 5811 H 556.393 1.99074 -5.73109 0
M  V30 5812 H 555.132 1.95885 -4.46632 0
M  V30 5813 H 554.137 -0.102702 -5.49704 0
M  V30 5814 H 555.362 -0.0521607 -6.7908 0
M  V30 5815 H 553.308 2.11529 -6.2096 0
M  V30 5816 H 553.225 0.959934 -7.49881 0
M  V30 5817 H 554.493 2.14909 -7.49289 0
M  V30 5818 N 558.722 1.53707 -0.348139 0
M  V30 5819 C 559.97 2.00591 0.246478 0
M  V30 5820 C 560.291 1.23753 1.50699 0
M  V30 5821 O 559.561 0.345964 1.92821 0
M  V30 5822 H 558.141 0.741053 0.0940679 0
M  V30 5823 H 560.803 1.89139 -0.470354 0
M  V30 5824 H 559.899 3.08297 0.485714 0
M  V30 5825 N 560.2 0.0768682 1.57412 0
M  V30 5826 C 561.43 -0.5991 1.97723 0
M  V30 5827 C 561.838 -1.63378 0.954166 0
M  V30 5828 O 561.181 -1.83578 -0.0668706 0
M  V30 5829 C 561.243 -1.32078 3.34358 0
M  V30 5830 C 560.907 -0.438985 4.54887 0
M  V30 5831 C 561.904 0.305492 5.19002 0
M  V30 5832 C 559.589 -0.362378 5.00991 0
M  V30 5833 C 561.583 1.11475 6.27576 0
M  V30 5834 C 559.27 0.450543 6.09437 0
M  V30 5835 C 560.268 1.18777 6.72593 0
M  V30 5836 O 559.956 1.98727 7.7895 0
M  V30 5837 H 559.688 -0.166725 0.655117 0
M  V30 5838 H 562.242 0.147337 2.04871 0
M  V30 5839 H 560.472 -2.1134 3.2384 0
M  V30 5840 H 562.161 -1.88949 3.5924 0
M  V30 5841 H 562.927 0.25593 4.84324 0
M  V30 5842 H 558.806 -0.925832 4.51608 0
M  V30 5843 H 562.35 1.69068 6.76803 0
M  V30 5844 H 558.247 0.501651 6.43548 0
M  V30 5845 H 559.015 1.91214 7.95851 0
M  V30 5846 N 561.678 -1.56367 -0.196722 0
M  V30 5847 C 562.925 -1.80529 -0.917366 0
M  V30 5848 C 563.253 -0.649817 -1.83324 0
M  V30 5849 O 562.508 0.36451 -1.92275 0
M  V30 5850 C 562.807 -3.10663 -1.767 0
M  V30 5851 C 562.473 -4.3962 -1.00225 0
M  V30 5852 C 561.135 -4.74653 -0.791095 0
M  V30 5853 C 563.487 -5.1913 -0.464035 0
M  V30 5854 C 560.815 -5.86692 -0.0302155 0
M  V30 5855 C 563.167 -6.31964 0.283625 0
M  V30 5856 C 561.831 -6.65581 0.505813 0
M  V30 5857 H 561.101 -0.660602 -0.335688 0
M  V30 5858 H 563.748 -1.90615 -0.183844 0
M  V30 5859 H 562.053 -2.95807 -2.56915 0
M  V30 5860 H 563.75 -3.26563 -2.32718 0
M  V30 5861 H 560.34 -4.12127 -1.17684 0
M  V30 5862 H 564.524 -4.9248 -0.614575 0
M  V30 5863 H 559.78 -6.11211 0.151917 0
M  V30 5864 H 563.954 -6.92791 0.708057 0
M  V30 5865 H 561.581 -7.52239 1.0973 0
M  V30 5866 N 563.156 0.464375 -1.50603 0
M  V30 5867 C 564.402 1.21776 -1.62168 0
M  V30 5868 C 564.735 1.91476 -0.324154 0
M  V30 5869 O 564.01 1.8242 0.674782 0
M  V30 5870 C 564.293 2.25614 -2.80661 0
M  V30 5871 C 564.146 1.60175 -4.20314 0
M  V30 5872 C 565.465 3.26862 -2.94702 0
M  V30 5873 H 562.584 0.44137 -0.590222 0
M  V30 5874 H 565.226 0.510623 -1.8301 0
M  V30 5875 H 563.376 2.85923 -2.63021 0
M  V30 5876 H 565.048 1.03411 -4.4956 0
M  V30 5877 H 563.291 0.904697 -4.24261 0
M  V30 5878 H 563.962 2.35665 -4.99165 0
M  V30 5879 H 566.438 2.76582 -3.10872 0
M  V30 5880 H 565.314 3.96839 -3.79223 0
M  V30 5881 H 565.575 3.91382 -2.05603 0
M  V30 5882 N 564.634 1.40294 0.718013 0
M  V30 5883 C 565.566 1.36281 1.84283 0
M  V30 5884 C 566.579 0.268621 1.60569 0
M  V30 5885 O 567.768 0.528798 1.70487 0
M  V30 5886 C 564.868 1.09741 3.2064 0
M  V30 5887 C 564.041 2.30767 3.71571 0
M  V30 5888 C 563.1 2.00424 4.86535 0
M  V30 5889 O 562.126 2.73268 4.99313 0
M  V30 5890 N 563.328 0.980724 5.72156 0
M  V30 5891 H 566.093 2.3322 1.88225 0
M  V30 5892 H 563.654 1.34616 0.899453 0
M  V30 5893 H 565.646 0.874322 3.95143 0
M  V30 5894 H 564.216 0.214771 3.11861 0
M  V30 5895 H 563.436 2.68921 2.88228 0
M  V30 5896 H 564.724 3.11455 4.02335 0
M  V30 5897 H 564.122 0.377375 5.6444 0
M  V30 5898 H 562.679 0.817538 6.46653 0
M  V30 5899 N 566.112 -0.949982 1.2575 0
M  V30 5900 C 567.523 -1.50989 1.09815 0
M  V30 5901 C 567.874 -1.93497 -0.324556 0
M  V30 5902 O 566.999 -1.79068 -1.21506 0
M  V30 5903 C 567.594 -2.74394 1.98729 0
M  V30 5904 C 566.153 -3.26682 1.86965 0
M  V30 5905 C 565.3 -1.99498 1.92603 0
M  V30 5906 H 568.251 -0.766387 1.38968 0
M  V30 5907 H 568.272 -3.48383 1.53001 0
M  V30 5908 H 567.784 -2.43425 3.02268 0
M  V30 5909 H 565.885 -3.62461 0.863279 0
M  V30 5910 H 565.998 -3.94383 2.72027 0
M  V30 5911 H 564.362 -2.15005 1.36546 0
M  V30 5912 H 565.145 -1.70871 2.97755 0
M  V30 5913 N 567.59 -1.07411 -1.15328 0
M  V30 5914 C 568.818 -0.818782 -1.90009 0
M  V30 5915 C 569.233 0.628072 -1.78047 0
M  V30 5916 O 568.59 1.43085 -1.13282 0
M  V30 5917 C 568.641 -1.21874 -3.40337 0
M  V30 5918 O 568.362 -2.60883 -3.51954 0
M  V30 5919 C 569.863 -0.992796 -4.3204 0
M  V30 5920 H 567.083 -0.296007 -0.60218 0
M  V30 5921 H 569.627 -1.43073 -1.46117 0
M  V30 5922 H 567.782 -0.651103 -3.81889 0
M  V30 5923 H 568.196 -2.77216 -4.45255 0
M  V30 5924 H 569.67 -1.32215 -5.35932 0
M  V30 5925 H 570.147 0.0708331 -4.39143 0
M  V30 5926 H 570.753 -1.54537 -3.9623 0
M  V30 5927 N 569.068 1.32177 -0.85831 0
M  V30 5928 C 570.314 1.97417 -0.46417 0
M  V30 5929 C 570.647 1.67746 0.978514 0
M  V30 5930 O 569.922 0.967654 1.68721 0
M  V30 5931 C 570.205 3.53069 -0.708094 0
M  V30 5932 C 570.058 3.92357 -2.19946 0
M  V30 5933 C 571.377 4.39783 -0.166881 0
M  V30 5934 H 568.496 0.717097 -0.17012 0
M  V30 5935 H 571.138 1.56499 -1.07741 0
M  V30 5936 H 569.288 3.88054 -0.186128 0
M  V30 5937 H 570.96 3.67533 -2.78779 0
M  V30 5938 H 569.203 3.41384 -2.67656 0
M  V30 5939 H 569.874 5.00841 -2.32082 0
M  V30 5940 H 572.35 4.11556 -0.613285 0
M  V30 5941 H 571.226 5.47671 -0.367093 0
M  V30 5942 H 571.487 4.32196 0.930559 0
M  V30 5943 N 570.547 0.616602 1.45037 0
M  V30 5944 C 571.794 0.115331 2.02171 0
M  V30 5945 C 572.122 -1.25748 1.48383 0
M  V30 5946 O 571.377 -1.84511 0.652229 0
M  V30 5947 C 571.676 0.0356829 3.57382 0
M  V30 5948 C 571.342 1.34535 4.30362 0
M  V30 5949 C 570.004 1.70408 4.50016 0
M  V30 5950 C 572.356 2.21049 4.72003 0
M  V30 5951 C 569.684 2.92529 5.0857 0
M  V30 5952 C 572.036 3.42427 5.31908 0
M  V30 5953 C 570.7 3.78541 5.49784 0
M  V30 5954 H 569.97 0.0422024 0.739797 0
M  V30 5955 H 572.617 0.80002 1.73988 0
M  V30 5956 H 570.922 -0.732314 3.84895 0
M  V30 5957 H 572.619 -0.368463 3.99304 0
M  V30 5958 H 569.209 1.05615 4.15383 0
M  V30 5959 H 573.393 1.94632 4.56544 0
M  V30 5960 H 568.649 3.20605 5.20598 0
M  V30 5961 H 572.823 4.09709 5.63127 0
M  V30 5962 H 570.45 4.73255 5.94923 0
M  V30 5963 N 572.025 -1.5352 0.356285 0
M  V30 5964 C 573.25 -2.06007 -0.239961 0
M  V30 5965 C 573.675 -1.22872 -1.42422 0
M  V30 5966 O 573.033 -0.245516 -1.7963 0
M  V30 5967 C 573.081 -3.5522 -0.620587 0
M  V30 5968 O 572.185 -3.74864 -1.71902 0
M  V30 5969 H 571.526 -0.662961 -0.0371377 0
M  V30 5970 H 574.056 -1.98033 0.514194 0
M  V30 5971 H 574.066 -3.98081 -0.894197 0
M  V30 5972 H 572.741 -4.15175 0.245407 0
M  V30 5973 H 571.318 -3.43904 -1.44169 0
M  V30 5974 N 573.503 -0.0852151 -1.57369 0
M  V30 5975 C 574.451 0.894856 -2.14698 0
M  V30 5976 C 575.445 1.29903 -1.08727 0
M  V30 5977 O 576.651 1.27471 -1.27088 0
M  V30 5978 H 573.026 0.306569 -0.686673 0
M  V30 5979 H 574.997 0.386542 -2.95886 0
M  V30 5980 C 573.746 2.14798 -2.73417 0
M  V30 5981 H 573.069 1.84585 -3.54638 0
M  V30 5982 H 574.509 2.81456 -3.1711 0
M  V30 5983 C 572.968 2.91546 -1.68828 0
M  V30 5984 O 573.498 3.85733 -1.12129 0
M  V30 5985 N 571.704 2.54901 -1.39549 0
M  V30 5986 H 571.251 1.7838 -1.85845 0
M  V30 5987 H 571.209 3.06553 -0.698054 0
M  V30 5988 N 574.981 1.5647 0.188427 0
M  V30 5989 C 576.227 1.81281 0.909124 0
M  V30 5990 C 576.56 0.66034 1.82628 0
M  V30 5991 O 575.835 -0.338737 1.91528 0
M  V30 5992 C 576.118 3.16388 1.7196 0
M  V30 5993 C 575.971 4.42137 0.826714 0
M  V30 5994 C 577.29 3.48256 2.69083 0
M  V30 5995 H 574.409 0.659457 0.329068 0
M  V30 5996 H 577.051 1.89182 0.176156 0
M  V30 5997 H 575.201 3.09784 2.34448 0
M  V30 5998 H 576.873 4.60794 0.216025 0
M  V30 5999 H 575.116 4.33594 0.133792 0
M  V30 6000 H 575.787 5.33184 1.42893 0
M  V30 6001 H 578.263 3.55203 2.16726 0
M  V30 6002 H 577.139 4.43899 3.2287 0
M  V30 6003 H 577.4 2.72088 3.48455 0
M  V30 6004 N 576.459 -0.456382 1.50847 0
M  V30 6005 C 577.687 -1.23026 1.66349 0
M  V30 6006 C 578.102 -1.85473 0.352868 0
M  V30 6007 O 577.459 -1.69885 -0.666739 0
M  V30 6008 C 577.51 -2.32827 2.76539 0
M  V30 6009 O 577.231 -1.72938 4.02522 0
M  V30 6010 C 578.732 -3.23448 3.03144 0
M  V30 6011 H 575.952 -0.371527 0.558756 0
M  V30 6012 H 578.496 -0.543082 1.97157 0
M  V30 6013 H 576.651 -2.97294 2.48384 0
M  V30 6014 H 577.065 -2.45357 4.63573 0
M  V30 6015 H 578.539 -3.96669 3.83872 0
M  V30 6016 H 579.016 -3.83094 2.14793 0
M  V30 6017 H 579.622 -2.64702 3.32886 0
M  V30 6018 N 577.937 -1.40673 -0.710563 0
M  V30 6019 C 579.214 -1.29718 -1.46398 0
M  V30 6020 C 579.594 0.082177 -2.1094 0
M  V30 6021 O 578.942 1.09536 -2.00534 0
M  V30 6022 C 579.152 -2.43967 -2.49562 0
M  V30 6023 C 580.5 -2.84436 -3.15248 0
M  V30 6024 O 581.524 -2.43597 -2.59883 0
M  V30 6025 O 580.383 -3.55008 -4.1549 0
M  V30 6026 H 577.477 -0.509697 -0.651258 0
M  V30 6027 H 580.023 -1.52603 -0.742312 0
M  V30 6028 H 578.795 -3.36076 -2.0042 0
M  V30 6029 H 578.418 -2.22879 -3.29258 0
M  V30 6030 N 579.415 0.9433 -1.26252 0
M  V30 6031 C 580.325 2.07532 -1.09397 0
M  V30 6032 C 581.341 1.73977 -0.0280449 0
M  V30 6033 O 582.517 2.00067 -0.231337 0
M  V30 6034 C 579.582 3.39002 -0.726523 0
M  V30 6035 C 578.643 3.86353 -1.87163 0
M  V30 6036 C 577.876 5.11549 -1.52162 0
M  V30 6037 O 578.099 5.68834 -0.422385 0
M  V30 6038 O 577.033 5.53889 -2.35565 0
M  V30 6039 H 580.859 2.24658 -2.04359 0
M  V30 6040 H 578.444 1.05988 -1.05295 0
M  V30 6041 H 580.326 4.18 -0.534236 0
M  V30 6042 H 579.001 3.2312 0.193721 0
M  V30 6043 H 577.908 3.0831 -2.11886 0
M  V30 6044 H 579.241 4.06752 -2.77152 0
M  V30 6045 N 580.893 1.08022 1.14757 0
M  V30 6046 C 581.826 0.650738 2.18725 0
M  V30 6047 C 582.804 -0.335496 1.59101 0
M  V30 6048 O 583.988 -0.240295 1.86962 0
M  V30 6049 C 581.115 -0.0434377 3.38672 0
M  V30 6050 C 580.161 0.90232 4.16846 0
M  V30 6051 S 580.994 2.40693 4.78359 0
M  V30 6052 C 582.15 1.72475 6.01667 0
M  V30 6053 H 582.383 1.53152 2.54817 0
M  V30 6054 H 579.916 0.894823 1.25826 0
M  V30 6055 H 581.874 -0.437684 4.0816 0
M  V30 6056 H 580.535 -0.900659 3.0091 0
M  V30 6057 H 579.728 0.363445 5.02688 0
M  V30 6058 H 579.33 1.23728 3.52941 0
M  V30 6059 H 581.622 1.0404 6.69464 0
M  V30 6060 H 582.565 2.56175 6.60136 0
M  V30 6061 H 582.973 1.19979 5.51602 0
M  V30 6062 N 582.371 -1.3172 0.865308 0
M  V30 6063 C 583.787 -1.4958 0.556596 0
M  V30 6064 C 583.987 -1.79763 -0.910353 0
M  V30 6065 O 583.043 -1.87351 -1.6928 0
M  V30 6066 C 584.356 -2.63277 1.45279 0
M  V30 6067 C 585.904 -2.77161 1.45433 0
M  V30 6068 C 586.379 -3.93949 2.33598 0
M  V30 6069 N 587.87 -4.01228 2.31453 0
M  V30 6070 C 588.605 -4.90855 2.96393 0
M  V30 6071 N 588.101 -5.85416 3.70486 0
M  V30 6072 N 589.894 -4.84063 2.85726 0
M  V30 6073 H 582.045 -1.10396 1.81456 0
M  V30 6074 H 584.308 -0.54507 0.775631 0
M  V30 6075 H 584.014 -2.47734 2.49641 0
M  V30 6076 H 583.888 -3.59309 1.14792 0
M  V30 6077 H 586.275 -2.9212 0.41831 0
M  V30 6078 H 586.356 -1.8181 1.79941 0
M  V30 6079 H 586 -3.79748 3.37274 0
M  V30 6080 H 585.93 -4.88598 1.96417 0
M  V30 6081 H 588.421 -3.3357 1.77593 0
M  V30 6082 H 588.734 -6.50525 4.17178 0
M  V30 6083 H 587.079 -5.85409 3.74594 0
M  V30 6084 H 590.27 -4.09163 2.27384 0
M  V30 6085 H 590.443 -5.53708 3.36617 0
M  V30 6086 N 583.85 -0.624285 -1.44708 0
M  V30 6087 C 585.099 -0.123539 -2.01321 0
M  V30 6088 C 585.412 1.25966 -1.49639 0
M  V30 6089 O 586.618 1.85405 -1.98336 0
M  V30 6090 C 585.074 -0.170124 -3.59498 0
M  V30 6091 C 584.682 -1.55421 -4.20176 0
M  V30 6092 C 586.426 0.274513 -4.23611 0
M  V30 6093 C 584.332 -1.55628 -5.70556 0
M  V30 6094 H 583.263 -0.0424183 -0.752806 0
M  V30 6095 H 585.913 -0.782076 -1.65999 0
M  V30 6096 H 584.296 0.555385 -3.92086 0
M  V30 6097 H 585.47 -2.30276 -3.99136 0
M  V30 6098 H 583.784 -1.94235 -3.68323 0
M  V30 6099 H 586.382 0.292402 -5.339 0
M  V30 6100 H 586.725 1.3005 -3.95465 0
M  V30 6101 H 587.258 -0.398275 -3.95801 0
M  V30 6102 H 583.997 -2.56041 -6.03426 0
M  V30 6103 H 583.517 -0.850563 -5.93739 0
M  V30 6104 H 585.196 -1.28721 -6.34066 0
M  V30 6105 N 585.328 1.53329 -0.364422 0
M  V30 6106 C 586.291 2.24323 0.470292 0
M  V30 6107 C 587.291 1.25068 1.01067 0
M  V30 6108 O 588.481 1.49354 0.896605 0
M  V30 6109 C 585.613 2.97908 1.65722 0
M  V30 6110 H 586.806 2.9952 -0.150917 0
M  V30 6111 H 584.359 1.55868 -0.116092 0
M  V30 6112 H 585.094 2.2695 2.31655 0
M  V30 6113 H 584.879 3.70732 1.27671 0
M  V30 6114 H 586.369 3.5188 2.24878 0
M  V30 6115 N 586.806 0.0935595 1.57322 0
M  V30 6116 C 587.753 -0.865935 2.1394 0
M  V30 6117 C 588.723 -1.28083 1.05754 0
M  V30 6118 O 589.908 -1.36285 1.33533 0
M  V30 6119 C 587.048 -2.12023 2.72287 0
M  V30 6120 C 586.161 -1.756 3.94701 0
M  V30 6121 C 585.296 -2.95804 4.41218 0
M  V30 6122 C 584.335 -2.555 5.56225 0
M  V30 6123 N 583.472 -3.68534 5.97601 0
M  V30 6124 H 588.312 -0.376261 2.95615 0
M  V30 6125 H 585.849 -0.174052 1.46067 0
M  V30 6126 H 587.807 -2.85477 3.04235 0
M  V30 6127 H 586.437 -2.58492 1.93343 0
M  V30 6128 H 585.489 -0.921208 3.69077 0
M  V30 6129 H 586.801 -1.41964 4.78171 0
M  V30 6130 H 585.955 -3.77513 4.74941 0
M  V30 6131 H 584.694 -3.32649 3.56645 0
M  V30 6132 H 583.699 -1.72218 5.22131 0
M  V30 6133 H 584.924 -2.19801 6.42545 0
M  V30 6134 H 582.87 -4.051 5.15974 0
M  V30 6135 H 582.787 -3.38737 6.75865 0
M  V30 6136 H 584.055 -4.50757 6.35955 0
M  V30 6137 N 588.284 -1.56567 -0.180126 0
M  V30 6138 C 589.194 -1.98947 -1.24327 0
M  V30 6139 C 590.21 -0.899446 -1.4895 0
M  V30 6140 O 591.386 -1.20639 -1.61271 0
M  V30 6141 C 588.451 -2.33328 -2.56435 0
M  V30 6142 C 587.512 -3.56114 -2.39752 0
M  V30 6143 C 586.745 -3.88845 -3.65561 0
M  V30 6144 O 586.968 -3.22662 -4.70368 0
M  V30 6145 O 585.902 -4.82226 -3.60197 0
M  V30 6146 H 589.728 -2.89634 -0.913565 0
M  V30 6147 H 587.313 -1.44319 -0.386306 0
M  V30 6148 H 589.195 -2.5645 -3.34382 0
M  V30 6149 H 587.87 -1.45806 -2.89002 0
M  V30 6150 H 586.777 -3.38221 -1.59866 0
M  V30 6151 H 588.11 -4.4415 -2.12113 0
M  V30 6152 N 589.762 0.448376 -1.51087 0
M  V30 6153 C 590.672 1.56882 -1.74428 0
M  V30 6154 C 591.688 1.62268 -0.62809 0
M  V30 6155 O 592.864 1.79716 -0.909075 0
M  V30 6156 C 589.929 2.92947 -1.85426 0
M  V30 6157 C 588.99 2.97766 -3.09247 0
M  V30 6158 C 588.223 4.27341 -3.19711 0
M  V30 6159 O 588.446 5.19112 -2.36387 0
M  V30 6160 O 587.38 4.38219 -4.12611 0
M  V30 6161 H 591.206 1.40104 -2.69452 0
M  V30 6162 H 588.791 0.630247 -1.35456 0
M  V30 6163 H 590.673 3.73719 -1.94709 0
M  V30 6164 H 589.348 3.09876 -0.935887 0
M  V30 6165 H 588.255 2.15989 -3.0545 0
M  V30 6166 H 589.588 2.8578 -4.00738 0
M  V30 6167 N 591.24 1.41047 0.703093 0
M  V30 6168 C 592.489 1.39301 1.4587 0
M  V30 6169 C 592.802 0.00267077 1.956 0
M  V30 6170 O 594.008 -0.137414 2.71152 0
M  V30 6171 C 592.464 2.44891 2.63735 0
M  V30 6172 C 592.072 3.89796 2.20824 0
M  V30 6173 C 593.816 2.5227 3.41409 0
M  V30 6174 C 591.723 4.86955 3.35602 0
M  V30 6175 H 590.653 0.518005 0.547893 0
M  V30 6176 H 593.304 1.66839 0.764009 0
M  V30 6177 H 591.686 2.10472 3.35436 0
M  V30 6178 H 592.86 4.33424 1.56461 0
M  V30 6179 H 591.175 3.86008 1.56163 0
M  V30 6180 H 593.772 3.22044 4.26839 0
M  V30 6181 H 594.115 1.55714 3.86081 0
M  V30 6182 H 594.648 2.85742 2.7676 0
M  V30 6183 H 591.387 5.84888 2.9595 0
M  V30 6184 H 590.907 4.47982 3.98839 0
M  V30 6185 H 592.586 5.07361 4.01489 0
M  V30 6186 N 592.718 -0.936591 1.26751 0
M  V30 6187 C 593.965 -1.68331 1.12566 0
M  V30 6188 C 594.293 -1.91677 -0.330168 0
M  V30 6189 O 593.548 -1.49859 -1.2586 0
M  V30 6190 C 593.847 -3.06099 1.84494 0
M  V30 6191 C 593.513 -3.02493 3.34378 0
M  V30 6192 C 592.175 -3.01217 3.75262 0
M  V30 6193 C 594.527 -2.94453 4.30055 0
M  V30 6194 C 591.855 -2.89672 5.10203 0
M  V30 6195 C 594.207 -2.84449 5.65041 0
M  V30 6196 C 592.871 -2.81518 6.0523 0
M  V30 6197 H 592.141 -0.615965 0.411907 0
M  V30 6198 H 594.788 -1.09292 1.5725 0
M  V30 6199 H 593.093 -3.6879 1.32292 0
M  V30 6200 H 594.79 -3.62733 1.70955 0
M  V30 6201 H 591.38 -3.04269 3.01858 0
M  V30 6202 H 595.564 -2.94544 3.99447 0
M  V30 6203 H 590.82 -2.85783 5.40498 0
M  V30 6204 H 594.994 -2.77192 6.38856 0
M  V30 6205 H 592.621 -2.72329 7.09747 0
M  V30 6206 N 594.196 -1.08629 -1.14182 0
M  V30 6207 C 595.444 -0.815731 -1.84906 0
M  V30 6208 C 595.765 0.660441 -1.83475 0
M  V30 6209 O 595.035 1.47888 -1.28476 0
M  V30 6210 H 593.615 -0.298773 -0.684648 0
M  V30 6211 H 596.277 -1.37274 -1.38354 0
M  V30 6212 H 595.373 -1.16193 -2.89665 0
M  V30 6213 N 595.674 1.31259 -0.872281 0
M  V30 6214 C 597.085 1.78822 -0.536617 0
M  V30 6215 C 597.436 1.71855 0.946594 0
M  V30 6216 O 596.561 1.28769 1.73918 0
M  V30 6217 C 597.156 3.24698 -0.967294 0
M  V30 6218 C 595.715 3.70147 -0.683251 0
M  V30 6219 C 594.862 2.51994 -1.15733 0
M  V30 6220 H 597.813 1.18308 -1.05777 0
M  V30 6221 H 597.834 3.79386 -0.290929 0
M  V30 6222 H 597.346 3.29737 -2.04683 0
M  V30 6223 H 595.447 3.70607 0.384825 0
M  V30 6224 H 595.56 4.62183 -1.2619 0
M  V30 6225 H 593.924 2.48078 -0.577024 0
M  V30 6226 H 594.707 2.59778 -2.24434 0
M  V30 6227 N 597.152 0.631951 1.44375 0
M  V30 6228 C 598.398 0.13697 2.02337 0
M  V30 6229 C 598.731 -1.23826 1.49602 0
M  V30 6230 O 598.006 -1.8221 0.680415 0
M  V30 6231 C 598.289 0.124536 3.59885 0
M  V30 6232 C 598.142 1.53217 4.229 0
M  V30 6233 C 599.461 -0.550481 4.36644 0
M  V30 6234 H 596.58 0.051247 0.735216 0
M  V30 6235 H 599.222 0.808581 1.71936 0
M  V30 6236 H 597.372 -0.44737 3.85916 0
M  V30 6237 H 599.044 2.15303 4.07973 0
M  V30 6238 H 597.287 2.0858 3.80364 0
M  V30 6239 H 597.958 1.4755 5.31914 0
M  V30 6240 H 600.434 -0.0641154 4.16051 0
M  V30 6241 H 599.31 -0.528371 5.46351 0
M  V30 6242 H 599.571 -1.62097 4.11311 0
M  V30 6243 N 598.631 -1.53133 0.372548 0
M  V30 6244 C 599.563 -2.23557 -0.505444 0
M  V30 6245 C 600.576 -1.25211 -1.04049 0
M  V30 6246 O 601.765 -1.51391 -0.945675 0
M  V30 6247 C 598.865 -2.92516 -1.71136 0
M  V30 6248 C 598.038 -4.17428 -1.30661 0
M  V30 6249 C 597.097 -4.69535 -2.37536 0
M  V30 6250 O 596.123 -5.33042 -1.99637 0
M  V30 6251 N 597.325 -4.47947 -3.6922 0
M  V30 6252 H 600.09 -2.9954 0.0978259 0
M  V30 6253 H 597.651 -1.60684 0.198068 0
M  V30 6254 H 599.643 -3.24281 -2.42124 0
M  V30 6255 H 598.213 -2.19944 -2.22134 0
M  V30 6256 H 597.433 -3.91888 -0.426292 0
M  V30 6257 H 598.721 -4.98622 -1.01259 0
M  V30 6258 H 598.119 -3.97219 -4.02783 0
M  V30 6259 H 596.676 -4.84245 -4.36292 0
M  V30 6260 N 600.109 -0.101901 -1.5727 0
M  V30 6261 C 601.041 0.884723 -2.11436 0
M  V30 6262 C 602.054 1.24149 -1.05314 0
M  V30 6263 O 603.243 1.19341 -1.3274 0
M  V30 6264 C 600.343 2.19179 -2.58484 0
M  V30 6265 C 599.516 2.00933 -3.88516 0
M  V30 6266 C 598.575 3.15213 -4.2134 0
M  V30 6267 O 597.601 2.88877 -4.90448 0
M  V30 6268 N 598.803 4.41174 -3.77288 0
M  V30 6269 H 601.568 0.422058 -2.96713 0
M  V30 6270 H 599.129 0.0830128 -1.61687 0
M  V30 6271 H 601.121 2.94593 -2.77484 0
M  V30 6272 H 599.691 2.56847 -1.7818 0
M  V30 6273 H 598.911 1.09809 -3.78597 0
M  V30 6274 H 600.199 1.86026 -4.73573 0
M  V30 6275 H 599.597 4.6545 -3.21516 0
M  V30 6276 H 598.154 5.13515 -4.01429 0
M  V30 6277 N 601.587 1.56661 0.17182 0
M  V30 6278 C 602.836 1.81158 0.886831 0
M  V30 6279 C 603.149 0.679072 1.83434 0
M  V30 6280 O 604.355 0.808964 2.59168 0
M  V30 6281 C 602.811 3.20999 1.6275 0
M  V30 6282 C 602.419 4.42117 0.723652 0
M  V30 6283 C 604.163 3.5479 2.33076 0
M  V30 6284 C 602.07 5.7298 1.46452 0
M  V30 6285 H 601 0.675543 0.334899 0
M  V30 6286 H 603.651 1.82967 0.139765 0
M  V30 6287 H 602.033 3.13506 2.4193 0
M  V30 6288 H 603.207 4.60789 -0.0311485 0
M  V30 6289 H 601.522 4.16197 0.130063 0
M  V30 6290 H 604.119 4.49806 2.89099 0
M  V30 6291 H 604.462 2.79646 3.08389 0
M  V30 6292 H 604.995 3.63834 1.6084 0
M  V30 6293 H 601.734 6.51152 0.753729 0
M  V30 6294 H 601.254 5.58285 2.19266 0
M  V30 6295 H 602.933 6.14916 2.01214 0
M  V30 6296 N 603.065 -0.440357 1.51323 0
M  V30 6297 C 603.998 -1.55414 1.67098 0
M  V30 6298 C 604.976 -1.54108 0.518599 0
M  V30 6299 O 606.16 -1.7328 0.742054 0
M  V30 6300 C 603.287 -2.93996 1.68179 0
M  V30 6301 C 602.333 -3.13338 2.89347 0
M  V30 6302 S 603.166 -2.89957 4.50206 0
M  V30 6303 C 604.322 -4.30826 4.54027 0
M  V30 6304 H 604.555 -1.41798 2.61306 0
M  V30 6305 H 602.088 -0.629841 1.40969 0
M  V30 6306 H 604.046 -3.73878 1.69487 0
M  V30 6307 H 602.707 -3.04976 0.751542 0
M  V30 6308 H 601.9 -4.14652 2.86495 0
M  V30 6309 H 601.502 -2.41276 2.85766 0
M  V30 6310 H 603.794 -5.23977 4.29481 0
M  V30 6311 H 604.737 -4.38712 5.55822 0
M  V30 6312 H 605.145 -4.1434 3.83384 0
M  V30 6313 N 604.543 -1.41418 -0.695603 0
M  V30 6314 C 605.49 -1.43264 -1.80954 0
M  V30 6315 C 606.46 -0.287016 -1.63601 0
M  V30 6316 O 607.645 -0.488054 -1.84452 0
M  V30 6317 C 604.785 -1.32054 -3.18835 0
M  V30 6318 C 603.898 -2.56485 -3.4762 0
M  V30 6319 C 603.033 -2.3757 -4.75115 0
M  V30 6320 C 602.072 -3.57477 -4.96867 0
M  V30 6321 N 601.209 -3.37632 -6.15588 0
M  V30 6322 H 606.049 -2.38467 -1.78711 0
M  V30 6323 H 603.586 -1.18415 -0.872715 0
M  V30 6324 H 605.544 -1.23558 -3.98484 0
M  V30 6325 H 604.174 -0.404592 -3.20254 0
M  V30 6326 H 603.226 -2.75432 -2.62376 0
M  V30 6327 H 604.538 -3.45678 -3.59594 0
M  V30 6328 H 603.692 -2.2654 -5.62818 0
M  V30 6329 H 602.431 -1.45834 -4.65386 0
M  V30 6330 H 601.436 -3.68961 -4.07612 0
M  V30 6331 H 602.661 -4.50167 -5.08455 0
M  V30 6332 H 600.607 -2.48596 -6.07072 0
M  V30 6333 H 600.524 -4.20401 -6.2833 0
M  V30 6334 H 601.792 -3.30375 -7.06026 0
M  V30 6335 N 606.021 0.929856 -1.27246 0
M  V30 6336 C 607.268 1.67731 -1.13457 0
M  V30 6337 C 607.596 1.9185 0.319998 0
M  V30 6338 O 606.851 1.50524 1.25064 0
M  V30 6339 C 607.15 3.05116 -1.86115 0
M  V30 6340 C 606.816 3.00715 -3.35978 0
M  V30 6341 C 605.478 2.99222 -3.76855 0
M  V30 6342 C 607.83 2.92168 -4.3161 0
M  V30 6343 C 605.158 2.86962 -5.11732 0
M  V30 6344 C 607.51 2.81449 -5.66542 0
M  V30 6345 C 606.174 2.78305 -6.06715 0
M  V30 6346 H 605.444 0.613772 -0.415168 0
M  V30 6347 H 608.091 1.08456 -1.57827 0
M  V30 6348 H 606.396 3.68083 -1.34246 0
M  V30 6349 H 608.093 3.61822 -1.72876 0
M  V30 6350 H 604.683 3.02664 -3.03468 0
M  V30 6351 H 608.867 2.92421 -4.01003 0
M  V30 6352 H 604.123 2.82913 -5.42006 0
M  V30 6353 H 608.297 2.738 -6.40317 0
M  V30 6354 H 605.924 2.68561 -7.11181 0
M  V30 6355 N 607.499 1.09233 1.13605 0
M  V30 6356 C 608.446 0.729921 2.18954 0
M  V30 6357 C 609.416 -0.287916 1.63586 0
M  V30 6358 O 610.601 -0.170003 1.90041 0
M  V30 6359 C 607.741 0.154489 3.44754 0
M  V30 6360 C 606.854 1.22613 4.14234 0
M  V30 6361 C 605.989 0.613657 5.27644 0
M  V30 6362 C 605.028 1.66674 5.8897 0
M  V30 6363 N 604.165 1.07545 6.93814 0
M  V30 6364 H 609.005 1.63257 2.49302 0
M  V30 6365 H 606.542 0.815693 1.22413 0
M  V30 6366 H 608.5 -0.196923 4.16735 0
M  V30 6367 H 607.13 -0.711433 3.14863 0
M  V30 6368 H 606.182 1.69485 3.40557 0
M  V30 6369 H 607.494 2.0238 4.55899 0
M  V30 6370 H 606.648 0.210976 6.06333 0
M  V30 6371 H 605.387 -0.215584 4.87223 0
M  V30 6372 H 604.392 2.07899 5.08978 0
M  V30 6373 H 605.617 2.49861 6.31464 0
M  V30 6374 H 603.563 0.267451 6.55455 0
M  V30 6375 H 603.48 1.81011 7.3401 0
M  V30 6376 H 604.748 0.698906 7.7636 0
M  V30 6377 N 608.977 -1.30795 0.87923 0
M  V30 6378 C 610.202 -2.01063 0.508769 0
M  V30 6379 C 610.627 -1.65508 -0.893803 0
M  V30 6380 O 609.985 -0.868616 -1.59138 0
M  V30 6381 C 610.033 -3.54054 0.683991 0
M  V30 6382 O 609.137 -4.11498 -0.272654 0
M  V30 6383 H 608.478 -0.632786 0.201191 0
M  V30 6384 H 611.008 -1.66776 1.18519 0
M  V30 6385 H 611.018 -4.03845 0.580798 0
M  V30 6386 H 609.693 -3.79271 1.70665 0
M  V30 6387 H 608.27 -3.72695 -0.12364 0
M  V30 6388 N 610.455 -0.639598 -1.44038 0
M  V30 6389 C 611.385 0.0469443 -2.33453 0
M  V30 6390 C 612.366 0.82609 -1.48694 0
M  V30 6391 O 613.551 0.790285 -1.77393 0
M  V30 6392 C 610.681 1.02338 -3.3188 0
M  V30 6393 C 609.635 0.355284 -4.26523 0
M  V30 6394 C 608.961 1.44221 -5.14883 0
M  V30 6395 C 610.261 -0.743798 -5.16977 0
M  V30 6396 H 611.955 -0.699735 -2.91108 0
M  V30 6397 H 609.501 -0.337946 -1.39978 0
M  V30 6398 H 611.454 1.51247 -3.93322 0
M  V30 6399 H 610.178 1.80105 -2.72451 0
M  V30 6400 H 608.837 -0.113239 -3.66425 0
M  V30 6401 H 608.485 2.21097 -4.51802 0
M  V30 6402 H 608.185 1.00052 -5.79019 0
M  V30 6403 H 609.709 1.93295 -5.79197 0
M  V30 6404 H 611.123 -0.337444 -5.72306 0
M  V30 6405 H 609.52 -1.10914 -5.89761 0
M  V30 6406 H 610.59 -1.60745 -4.57481 0
M  V30 6407 N 611.933 1.52934 -0.380664 0
M  V30 6408 C 613.21 1.93845 0.261417 0
M  V30 6409 C 613.59 1.31544 1.65104 0
M  V30 6410 O 612.938 0.480234 2.23397 0
M  V30 6411 C 613.148 3.47739 0.296466 0
M  V30 6412 C 614.496 4.21284 0.529578 0
M  V30 6413 O 615.52 3.54199 0.377041 0
M  V30 6414 O 614.379 5.40195 0.827753 0
M  V30 6415 H 611.473 0.811318 0.160285 0
M  V30 6416 H 614.019 1.64042 -0.434544 0
M  V30 6417 H 612.791 3.85395 -0.67724 0
M  V30 6418 H 612.414 3.8382 1.0377 0
M  V30 6419 N 613.412 0.11024 1.57214 0
M  V30 6420 C 614.689 -0.592956 1.86396 0
M  V30 6421 C 615.069 -1.85379 1.00985 0
M  V30 6422 O 614.417 -2.28337 0.0863592 0
M  V30 6423 C 614.627 -0.893816 3.3736 0
M  V30 6424 C 615.975 -1.25069 4.05762 0
M  V30 6425 O 616.999 -0.984356 3.42329 0
M  V30 6426 O 615.858 -1.75017 5.17718 0
M  V30 6427 H 612.952 -0.29828 0.771335 0
M  V30 6428 H 615.498 0.144083 1.69087 0
M  V30 6429 H 614.27 2.6031e-05 3.913 0
M  V30 6430 H 613.893 -1.68631 3.60068 0
M  V30 6431 N 614.89 -1.56749 -0.16351 0
M  V30 6432 C 616.136 -1.82704 -0.880168 0
M  V30 6433 C 616.469 -0.689311 -1.81555 0
M  V30 6434 O 615.744 0.308224 -1.92042 0
M  V30 6435 C 616.027 -3.19084 -1.66905 0
M  V30 6436 C 615.88 -4.43397 -0.756269 0
M  V30 6437 C 617.199 -3.52493 -2.63509 0
M  V30 6438 H 614.318 -0.664608 -0.318535 0
M  V30 6439 H 616.96 -1.89438 -0.146036 0
M  V30 6440 H 615.11 -3.13475 -2.2949 0
M  V30 6441 H 616.782 -4.61079 -0.14269 0
M  V30 6442 H 615.025 -4.33752 -0.0647944 0
M  V30 6443 H 615.696 -5.3539 -1.34393 0
M  V30 6444 H 618.172 -3.58606 -2.11047 0
M  V30 6445 H 617.048 -4.48979 -3.15767 0
M  V30 6446 H 617.309 -2.77597 -3.44082 0
M  V30 6447 N 616.368 0.432326 -1.51554 0
M  V30 6448 C 617.617 1.17831 -1.63703 0
M  V30 6449 C 617.93 1.92229 -0.36156 0
M  V30 6450 O 619.136 2.69069 -0.362495 0
M  V30 6451 C 617.592 2.14318 -2.89129 0
M  V30 6452 C 617.2 1.45544 -4.23699 0
M  V30 6453 C 618.944 2.89319 -3.10636 0
M  V30 6454 C 616.851 2.40545 -5.4027 0
M  V30 6455 H 615.781 0.443533 -0.60975 0
M  V30 6456 H 618.432 0.444878 -1.78026 0
M  V30 6457 H 616.814 2.91117 -2.68452 0
M  V30 6458 H 617.988 0.742693 -4.54775 0
M  V30 6459 H 616.303 0.826772 -4.0811 0
M  V30 6460 H 618.9 3.60495 -3.94902 0
M  V30 6461 H 619.243 3.50951 -2.23918 0
M  V30 6462 H 619.776 2.19625 -3.31677 0
M  V30 6463 H 616.515 1.83594 -6.29264 0
M  V30 6464 H 616.035 3.09859 -5.13563 0
M  V30 6465 H 617.714 3.01569 -5.72421 0
M  V30 6466 N 617.846 1.41785 0.688094 0
M  V30 6467 C 618.793 1.44221 1.80191 0
M  V30 6468 C 619.763 0.295688 1.63447 0
M  V30 6469 O 620.948 0.49783 1.84191 0
M  V30 6470 C 618.088 1.33743 3.1813 0
M  V30 6471 C 617.201 2.58325 3.46254 0
M  V30 6472 C 616.336 2.40086 4.73848 0
M  V30 6473 C 615.375 3.60107 4.94964 0
M  V30 6474 N 614.512 3.40892 6.13789 0
M  V30 6475 H 619.352 2.39411 1.77444 0
M  V30 6476 H 616.889 1.18876 0.866423 0
M  V30 6477 H 618.847 1.25669 3.97823 0
M  V30 6478 H 617.477 0.42157 3.20035 0
M  V30 6479 H 616.529 2.7682 2.60912 0
M  V30 6480 H 617.841 3.4758 3.57756 0
M  V30 6481 H 616.995 2.29522 5.61609 0
M  V30 6482 H 615.734 1.483 4.64606 0
M  V30 6483 H 614.739 3.71118 4.05649 0
M  V30 6484 H 615.964 4.52857 5.06061 0
M  V30 6485 H 613.91 2.51812 6.05745 0
M  V30 6486 H 613.827 4.23727 6.26092 0
M  V30 6487 H 615.095 3.34114 7.04264 0
M  V30 6488 N 619.324 -0.923095 1.27737 0
M  V30 6489 C 620.74 -1.19985 1.05241 0
M  V30 6490 C 620.94 -2.00391 -0.21113 0
M  V30 6491 O 619.996 -2.35324 -0.915366 0
M  V30 6492 C 621.309 -1.94352 2.29451 0
M  V30 6493 C 622.857 -2.07273 2.34536 0
M  V30 6494 C 623.332 -2.85046 3.58487 0
M  V30 6495 N 624.823 -2.92612 3.59072 0
M  V30 6496 C 625.558 -3.53266 4.51654 0
M  V30 6497 N 625.054 -4.15274 5.54545 0
M  V30 6498 N 626.847 -3.50714 4.39268 0
M  V30 6499 H 618.998 -0.386042 2.08862 0
M  V30 6500 H 621.261 -0.233407 0.918817 0
M  V30 6501 H 620.967 -1.42692 3.21453 0
M  V30 6502 H 620.841 -2.94947 2.3513 0
M  V30 6503 H 623.228 -2.58117 1.43037 0
M  V30 6504 H 623.309 -1.05884 2.32857 0
M  V30 6505 H 622.953 -2.34884 4.50324 0
M  V30 6506 H 622.883 -3.8673 3.57418 0
M  V30 6507 H 625.374 -2.48547 2.84663 0
M  V30 6508 H 625.687 -4.59507 6.21348 0
M  V30 6509 H 624.032 -4.13806 5.58382 0
M  V30 6510 H 627.223 -3.01475 3.58093 0
M  V30 6511 H 627.396 -3.97693 5.1161 0
M  V30 6512 N 620.802 -1.09834 -1.13024 0
M  V30 6513 C 621.765 -0.745058 -2.16752 0
M  V30 6514 C 622.765 0.227435 -1.59183 0
M  V30 6515 O 623.955 0.0050786 -1.74199 0
M  V30 6516 C 621.087 -0.102543 -3.40746 0
M  V30 6517 H 622.28 -1.66375 -2.49518 0
M  V30 6518 H 619.833 -0.898061 -1.27924 0
M  V30 6519 H 620.568 0.827177 -3.13573 0
M  V30 6520 H 620.353 -0.80235 -3.83803 0
M  V30 6521 H 621.843 0.129082 -4.174 0
M  V30 6522 N 622.28 1.30327 -0.886154 0
M  V30 6523 C 623.228 2.30052 -0.343317 0
M  V30 6524 C 624.222 1.60212 0.550305 0
M  V30 6525 O 625.428 1.74674 0.434609 0
M  V30 6526 H 621.803 0.746306 -0.0923681 0
M  V30 6527 H 623.774 2.73294 -1.19804 0
M  V30 6528 C 622.523 3.45079 0.426107 0
M  V30 6529 H 621.846 3.99003 -0.25227 0
M  V30 6530 H 623.286 4.16931 0.771009 0
M  V30 6531 C 621.745 2.95195 1.62363 0
M  V30 6532 O 622.275 2.95323 2.723 0
M  V30 6533 N 620.481 2.51192 1.4612 0
M  V30 6534 H 620.028 2.51286 0.566832 0
M  V30 6535 H 619.986 2.18173 2.2638 0
M  V30 6536 N 623.758 0.647228 1.43697 0
M  V30 6537 C 624.706 -0.0600105 2.32523 0
M  V30 6538 C 625.7 -0.819277 1.48271 0
M  V30 6539 O 626.906 -0.730356 1.64517 0
M  V30 6540 H 623.281 -0.0381872 0.75103 0
M  V30 6541 H 625.252 0.706978 2.89904 0
M  V30 6542 C 624.001 -1.0169 3.32497 0
M  V30 6543 H 623.324 -0.442083 3.97348 0
M  V30 6544 H 624.764 -1.48095 3.97296 0
M  V30 6545 C 623.223 -2.11002 2.6264 0
M  V30 6546 O 623.753 -3.19302 2.4374 0
M  V30 6547 N 621.959 -1.87388 2.22113 0
M  V30 6548 H 621.506 -0.993174 2.37684 0
M  V30 6549 H 621.464 -2.60723 1.75701 0
M  V30 6550 N 625.236 -1.5273 0.388769 0
M  V30 6551 C 626.464 -2.05992 -0.193677 0
M  V30 6552 C 626.879 -1.26053 -1.40557 0
M  V30 6553 O 626.236 -0.307049 -1.79898 0
M  V30 6554 C 626.287 -3.57068 -0.564321 0
M  V30 6555 O 626.008 -4.3398 0.599422 0
M  V30 6556 C 627.509 -4.26674 -1.20269 0
M  V30 6557 H 624.729 -0.670358 -0.0293445 0
M  V30 6558 H 627.273 -1.96857 0.553844 0
M  V30 6559 H 625.428 -3.66277 -1.26174 0
M  V30 6560 H 625.842 -5.2367 0.294895 0
M  V30 6561 H 627.316 -5.33625 -1.4124 0
M  V30 6562 H 627.793 -3.81854 -2.16989 0
M  V30 6563 H 628.399 -4.2178 -0.546047 0
M  V30 6564 N 626.714 -0.118576 -1.57153 0
M  V30 6565 C 627.961 0.539526 -1.9518 0
M  V30 6566 C 628.289 1.66714 -1.00184 0
M  V30 6567 O 627.544 1.95683 -0.0256482 0
M  V30 6568 C 627.843 1.11303 -3.39627 0
M  V30 6569 C 627.509 0.106809 -4.50773 0
M  V30 6570 C 626.171 -0.169876 -4.809 0
M  V30 6571 C 628.523 -0.57895 -5.17975 0
M  V30 6572 C 625.851 -1.13861 -5.75545 0
M  V30 6573 C 628.203 -1.53631 -6.13661 0
M  V30 6574 C 626.867 -1.82099 -6.42181 0
M  V30 6575 H 626.137 0.197427 -0.714215 0
M  V30 6576 H 628.784 -0.199391 -1.90459 0
M  V30 6577 H 627.089 1.92869 -3.4104 0
M  V30 6578 H 628.786 1.63032 -3.66363 0
M  V30 6579 H 625.376 0.332645 -4.27307 0
M  V30 6580 H 629.56 -0.378359 -4.94856 0
M  V30 6581 H 624.816 -1.36592 -5.95947 0
M  V30 6582 H 628.99 -2.07337 -6.64819 0
M  V30 6583 H 626.617 -2.57319 -7.15326 0
M  V30 6584 N 628.193 1.56834 0.155195 0
M  V30 6585 C 629.423 1.86778 0.883044 0
M  V30 6586 C 629.831 0.703824 1.75622 0
M  V30 6587 O 629.174 -0.33581 1.80605 0
M  V30 6588 C 629.236 3.1133 1.79761 0
M  V30 6589 C 628.9 4.43504 1.10242 0
M  V30 6590 C 629.897 5.17859 0.460204 0
M  V30 6591 C 627.582 4.90233 1.09437 0
M  V30 6592 C 629.576 6.37144 -0.180782 0
M  V30 6593 C 627.263 6.09444 0.449569 0
M  V30 6594 C 628.261 6.82744 -0.186888 0
M  V30 6595 O 627.949 7.99692 -0.821486 0
M  V30 6596 H 627.681 0.62352 0.261149 0
M  V30 6597 H 630.235 2.04813 0.155204 0
M  V30 6598 H 628.465 2.89282 2.56618 0
M  V30 6599 H 630.154 3.27587 2.39669 0
M  V30 6600 H 630.92 4.8283 0.458289 0
M  V30 6601 H 626.799 4.33109 1.57917 0
M  V30 6602 H 630.343 6.94296 -0.678154 0
M  V30 6603 H 626.24 6.43936 0.449123 0
M  V30 6604 H 627.008 8.15306 -0.722337 0
M  V30 6605 N 629.671 -0.424282 1.51781 0
M  V30 6606 C 630.919 -1.17028 1.64769 0
M  V30 6607 C 631.24 -1.91409 0.372523 0
M  V30 6608 O 630.51 -1.86091 -0.612108 0
M  V30 6609 H 629.09 -0.434992 0.607282 0
M  V30 6610 H 631.752 -0.485169 1.88765 0
M  V30 6611 H 630.848 -1.8927 2.4816 0
M  V30 6612 N 631.149 -1.42148 -0.680565 0
M  V30 6613 C 632.079 -1.4796 -1.80638 0
M  V30 6614 C 633.06 -0.336728 -1.66734 0
M  V30 6615 O 634.245 -0.550247 -1.86242 0
M  V30 6616 C 631.375 -1.37569 -3.18892 0
M  V30 6617 C 630.329 -2.49823 -3.47524 0
M  V30 6618 C 629.655 -2.24491 -4.85291 0
M  V30 6619 C 630.955 -3.92144 -3.44994 0
M  V30 6620 H 632.649 -2.42184 -1.76032 0
M  V30 6621 H 630.195 -1.16566 -0.845481 0
M  V30 6622 H 632.148 -1.40243 -3.97379 0
M  V30 6623 H 630.872 -0.398357 -3.24162 0
M  V30 6624 H 629.531 -2.46455 -2.71395 0
M  V30 6625 H 629.179 -1.25066 -4.87204 0
M  V30 6626 H 628.879 -2.99722 -5.05411 0
M  V30 6627 H 630.403 -2.28906 -5.66069 0
M  V30 6628 H 631.817 -3.97145 -4.13459 0
M  V30 6629 H 630.214 -4.67179 -3.76648 0
M  V30 6630 H 631.284 -4.19225 -2.43676 0
M  V30 6631 N 632.627 0.916307 -1.28225 0
M  V30 6632 C 633.852 1.7043 -1.18188 0
M  V30 6633 C 634.277 1.86346 0.256274 0
M  V30 6634 O 633.635 1.37175 1.18544 0
M  V30 6635 C 633.683 3.07546 -1.88275 0
M  V30 6636 O 632.787 3.94904 -1.18848 0
M  V30 6637 H 632.128 0.521967 -0.410423 0
M  V30 6638 H 634.658 1.14589 -1.69501 0
M  V30 6639 H 634.668 3.57793 -1.96082 0
M  V30 6640 H 633.343 2.95279 -2.92887 0
M  V30 6641 H 631.92 3.53339 -1.19187 0
M  V30 6642 N 634.105 1.10431 1.1244 0
M  V30 6643 C 635.068 0.756542 2.16354 0
M  V30 6644 C 636.068 -0.21899 1.59302 0
M  V30 6645 O 637.258 0.00415969 1.742 0
M  V30 6646 C 634.39 0.120612 3.40687 0
M  V30 6647 H 635.583 1.67696 2.48632 0
M  V30 6648 H 633.136 0.904832 1.27446 0
M  V30 6649 H 633.871 -0.810536 3.14008 0
M  V30 6650 H 633.656 0.822693 3.83372 0
M  V30 6651 H 635.146 -0.106945 4.17463 0
M  V30 6652 N 635.583 -1.29855 0.893053 0
M  V30 6653 C 636.831 -1.9544 0.514566 0
M  V30 6654 C 637.152 -1.70795 -0.940959 0
M  V30 6655 O 636.422 -1.03601 -1.66264 0
M  V30 6656 H 635.002 -0.723137 0.187302 0
M  V30 6657 H 637.664 -1.58234 1.13789 0
M  V30 6658 H 636.76 -3.04341 0.691581 0
M  V30 6659 N 637.061 -0.65484 -1.43351 0
M  V30 6660 C 638.307 -0.169142 -2.02093 0
M  V30 6661 C 638.64 1.21431 -1.51553 0
M  V30 6662 O 637.915 1.81105 -0.709317 0
M  V30 6663 C 638.198 -0.181775 -3.59641 0
M  V30 6664 C 638.051 -1.59926 -4.20409 0
M  V30 6665 C 639.37 0.480945 -4.37464 0
M  V30 6666 H 636.489 -0.0629371 -0.734308 0
M  V30 6667 H 639.131 -0.835833 -1.70628 0
M  V30 6668 H 637.281 0.385918 -3.86578 0
M  V30 6669 H 638.953 -2.21766 -4.04497 0
M  V30 6670 H 637.196 -2.14605 -3.76998 0
M  V30 6671 H 637.867 -1.55994 -5.295 0
M  V30 6672 H 640.343 -0.00208273 -4.161 0
M  V30 6673 H 639.219 0.441384 -5.47122 0
M  V30 6674 H 639.48 1.55533 -4.13838 0
M  V30 6675 N 638.539 1.52521 -0.396863 0
M  V30 6676 C 639.786 2.01672 0.182898 0
M  V30 6677 C 640.114 1.28302 1.46181 0
M  V30 6678 O 639.369 0.374118 1.92091 0
M  V30 6679 C 639.668 3.5403 0.489677 0
M  V30 6680 C 639.334 4.45456 -0.698581 0
M  V30 6681 C 637.996 4.70166 -1.02454 0
M  V30 6682 C 640.348 4.99354 -1.49316 0
M  V30 6683 C 637.676 5.46024 -2.1465 0
M  V30 6684 C 640.028 5.76439 -2.60579 0
M  V30 6685 C 638.692 5.99426 -2.93675 0
M  V30 6686 H 637.962 0.737971 0.066927 0
M  V30 6687 H 640.609 1.83853 -0.535764 0
M  V30 6688 H 638.914 3.69963 1.28976 0
M  V30 6689 H 640.611 3.8956 0.951018 0
M  V30 6690 H 637.201 4.26392 -0.434525 0
M  V30 6691 H 641.385 4.80182 -1.25457 0
M  V30 6692 H 636.641 5.62046 -2.40654 0
M  V30 6693 H 640.815 6.17202 -3.22544 0
M  V30 6694 H 638.442 6.57988 -3.80731 0
M  V30 6695 N 640.017 0.126909 1.57088 0
M  V30 6696 C 641.245 -0.53667 1.99819 0
M  V30 6697 C 641.66 -1.5972 1.00673 0
M  V30 6698 O 641.017 -1.825 0.000747365 0
M  V30 6699 C 641.068 -1.15563 3.42531 0
M  V30 6700 O 640.789 -0.137483 4.37884 0
M  V30 6701 C 642.29 -1.90176 4.00435 0
M  V30 6702 H 639.51 -0.141443 0.655923 0
M  V30 6703 H 642.054 0.215578 2.03361 0
M  V30 6704 H 640.209 -1.85861 3.39904 0
M  V30 6705 H 640.623 -0.588229 5.21191 0
M  V30 6706 H 642.097 -2.28801 5.02349 0
M  V30 6707 H 642.574 -2.78002 3.40017 0
M  V30 6708 H 643.18 -1.24623 4.06632 0
M  V30 6709 N 641.495 -1.56914 -0.146875 0
M  V30 6710 C 642.442 -1.98275 -1.18134 0
M  V30 6711 C 643.412 -0.850367 -1.42681 0
M  V30 6712 O 644.597 -1.11244 -1.55014 0
M  V30 6713 C 641.737 -2.36861 -2.5098 0
M  V30 6714 C 640.85 -3.63391 -2.33605 0
M  V30 6715 C 639.985 -3.91079 -3.59486 0
M  V30 6716 C 639.024 -5.10879 -3.37149 0
M  V30 6717 N 638.161 -5.34577 -4.55161 0
M  V30 6718 H 643.001 -2.8645 -0.821622 0
M  V30 6719 H 640.538 -1.41718 -0.394248 0
M  V30 6720 H 642.496 -2.57262 -3.28439 0
M  V30 6721 H 641.126 -1.51766 -2.84898 0
M  V30 6722 H 640.178 -3.50766 -1.47199 0
M  V30 6723 H 641.49 -4.51007 -2.13059 0
M  V30 6724 H 640.644 -4.11979 -4.45374 0
M  V30 6725 H 639.383 -3.01885 -3.83036 0
M  V30 6726 H 638.388 -4.89853 -2.49649 0
M  V30 6727 H 639.613 -6.01626 -3.14997 0
M  V30 6728 H 637.559 -4.48337 -4.78884 0
M  V30 6729 H 637.476 -6.16463 -4.37618 0
M  V30 6730 H 638.744 -5.59975 -5.42263 0
M  V30 6731 N 642.974 0.416227 -1.52004 0
M  V30 6732 C 644.251 1.17637 -1.56272 0
M  V30 6733 C 644.631 2.08352 -0.339493 0
M  V30 6734 O 643.979 2.1833 0.674124 0
M  V30 6735 C 644.189 1.95986 -2.88774 0
M  V30 6736 C 645.537 2.52299 -3.41512 0
M  V30 6737 O 646.561 2.06174 -2.90467 0
M  V30 6738 O 645.42 3.3648 -4.30631 0
M  V30 6739 H 642.514 0.536726 -0.629169 0
M  V30 6740 H 645.06 0.423583 -1.64329 0
M  V30 6741 H 643.832 1.29487 -3.69254 0
M  V30 6742 H 643.455 2.78285 -2.83978 0
M  V30 6743 N 644.452 1.42507 0.673017 0
M  V30 6744 C 645.701 1.42364 1.42883 0
M  V30 6745 C 646.014 0.0441598 1.9555 0
M  V30 6746 O 647.22 -0.0798679 2.71382 0
M  V30 6747 C 645.676 2.5043 2.58482 0
M  V30 6748 C 645.284 3.94392 2.12506 0
M  V30 6749 C 647.028 2.59455 3.35981 0
M  V30 6750 C 644.935 4.93964 3.25198 0
M  V30 6751 H 643.865 0.52951 0.536782 0
M  V30 6752 H 646.516 1.68422 0.728448 0
M  V30 6753 H 644.898 2.1754 3.30896 0
M  V30 6754 H 646.072 4.36645 1.47233 0
M  V30 6755 H 644.387 3.89233 1.4794 0
M  V30 6756 H 646.984 3.31025 4.19912 0
M  V30 6757 H 647.327 1.63869 3.82691 0
M  V30 6758 H 647.86 2.91549 2.70637 0
M  V30 6759 H 644.599 5.91034 2.83477 0
M  V30 6760 H 644.119 4.56341 3.89247 0
M  V30 6761 H 645.798 5.15763 3.90637 0
M  V30 6762 N 645.93 -0.909495 1.28709 0
M  V30 6763 C 647.207 -1.63865 1.06806 0
M  V30 6764 C 647.587 -2.07445 -0.391143 0
M  V30 6765 O 646.935 -1.82269 -1.37805 0
M  V30 6766 C 647.145 -2.82692 2.04661 0
M  V30 6767 C 648.493 -3.5361 2.35042 0
M  V30 6768 O 649.517 -2.92847 2.02779 0
M  V30 6769 O 648.376 -4.63131 2.90124 0
M  V30 6770 H 645.47 -0.719065 0.408502 0
M  V30 6771 H 648.016 -0.958424 1.40044 0
M  V30 6772 H 646.788 -2.47614 3.0299 0
M  V30 6773 H 646.411 -3.58426 1.72095 0
M  V30 6774 N 647.408 -1.11026 -1.11852 0
M  V30 6775 C 648.355 -0.764662 -2.17765 0
M  V30 6776 C 649.325 0.261854 -1.64023 0
M  V30 6777 O 650.51 0.139748 -1.90288 0
M  V30 6778 C 647.65 -0.209317 -3.44465 0
M  V30 6779 C 646.763 -1.29187 -4.12231 0
M  V30 6780 C 645.898 -0.697523 -5.266 0
M  V30 6781 C 644.937 -1.76023 -5.86244 0
M  V30 6782 N 644.074 -1.18569 -6.92016 0
M  V30 6783 H 648.914 -1.67202 -2.46673 0
M  V30 6784 H 646.451 -0.835065 -1.21099 0
M  V30 6785 H 648.409 0.130599 -4.16996 0
M  V30 6786 H 647.039 0.661251 -3.15955 0
M  V30 6787 H 646.091 -1.74881 -3.37818 0
M  V30 6788 H 647.403 -2.09607 -4.52622 0
M  V30 6789 H 646.557 -0.307412 -6.05921 0
M  V30 6790 H 645.296 0.138044 -4.87505 0
M  V30 6791 H 644.301 -2.1597 -5.05606 0
M  V30 6792 H 645.526 -2.59875 -6.27409 0
M  V30 6793 H 643.472 -0.371695 -6.54946 0
M  V30 6794 H 643.389 -1.92666 -7.31038 0
M  V30 6795 H 644.657 -0.82233 -7.7515 0
M  V30 6796 N 648.886 1.2938 -0.899927 0
M  V30 6797 C 649.849 2.25983 -0.382677 0
M  V30 6798 C 650.849 1.53366 0.483259 0
M  V30 6799 O 652.039 1.71798 0.28828 0
M  V30 6800 C 649.171 3.37878 0.452915 0
M  V30 6801 H 650.364 2.73252 -1.23586 0
M  V30 6802 H 647.917 1.40825 -0.678088 0
M  V30 6803 H 648.652 2.95949 1.32608 0
M  V30 6804 H 648.437 3.91742 -0.167562 0
M  V30 6805 H 649.927 4.09746 0.806107 0
M  V30 6806 N 650.364 0.662433 1.43002 0
M  V30 6807 C 651.613 0.176873 2.00923 0
M  V30 6808 C 651.926 -1.21954 1.52927 0
M  V30 6809 O 653.132 -1.80081 2.03182 0
M  V30 6810 C 651.588 0.265379 3.5892 0
M  V30 6811 C 651.196 1.66507 4.15908 0
M  V30 6812 C 652.94 -0.162103 4.2419 0
M  V30 6813 C 650.847 1.707 5.66229 0
M  V30 6814 H 649.777 0.0623627 0.751417 0
M  V30 6815 H 652.428 0.825813 1.63868 0
M  V30 6816 H 650.81 -0.451235 3.93421 0
M  V30 6817 H 651.984 2.40777 3.92891 0
M  V30 6818 H 650.299 2.03932 3.63044 0
M  V30 6819 H 652.896 -0.150745 5.34487 0
M  V30 6820 H 653.239 -1.19519 3.98774 0
M  V30 6821 H 653.772 0.503075 3.94606 0
M  V30 6822 H 650.511 2.7195 5.96426 0
M  V30 6823 H 650.031 1.00768 5.91275 0
M  V30 6824 H 651.71 1.45487 6.3043 0
M  V30 6825 N 651.842 -1.52309 0.404946 0
M  V30 6826 C 653.07 -2.06185 -0.171818 0
M  V30 6827 C 653.485 -1.27536 -1.39212 0
M  V30 6828 O 652.842 -0.326112 -1.79563 0
M  V30 6829 C 652.893 -3.57647 -0.526417 0
M  V30 6830 O 652.614 -4.3332 0.645417 0
M  V30 6831 C 654.115 -4.27925 -1.15736 0
M  V30 6832 H 651.335 -0.670632 -0.0222328 0
M  V30 6833 H 653.879 -1.96259 0.574692 0
M  V30 6834 H 652.034 -3.67595 -1.22282 0
M  V30 6835 H 652.448 -5.23328 0.35042 0
M  V30 6836 H 653.922 -5.35093 -1.35572 0
M  V30 6837 H 654.399 -3.84134 -2.12926 0
M  V30 6838 H 655.005 -4.22335 -0.501281 0
M  V30 6839 N 653.32 -0.135238 -1.57019 0
M  V30 6840 C 654.569 0.518694 -1.94917 0
M  V30 6841 C 654.882 1.66783 -1.0219 0
M  V30 6842 O 656.088 2.38561 -1.29619 0
M  V30 6843 C 654.544 0.974123 -3.46466 0
M  V30 6844 C 654.152 -0.147439 -4.47757 0
M  V30 6845 C 655.896 1.59851 -3.93253 0
M  V30 6846 C 653.803 0.325599 -5.90503 0
M  V30 6847 H 652.733 0.19754 -0.727663 0
M  V30 6848 H 655.384 -0.217698 -1.82204 0
M  V30 6849 H 653.766 1.76542 -3.5447 0
M  V30 6850 H 654.94 -0.924122 -4.51438 0
M  V30 6851 H 653.255 -0.679496 -4.10818 0
M  V30 6852 H 655.852 1.96385 -4.9733 0
M  V30 6853 H 656.195 2.48306 -3.3414 0
M  V30 6854 H 656.728 0.872323 -3.88118 0
M  V30 6855 H 653.467 -0.523295 -6.53408 0
M  V30 6856 H 652.987 1.06841 -5.90208 0
M  V30 6857 H 654.666 0.781498 -6.42263 0
M  V30 6858 N 654.798 1.5699 0.138552 0
M  V30 6859 C 656.023 1.88344 0.86841 0
M  V30 6860 C 656.448 0.725159 1.7356 0
M  V30 6861 O 655.806 -0.324992 1.78363 0
M  V30 6862 C 655.854 3.18334 1.69398 0
M  V30 6863 O 654.958 3.02863 2.79907 0
M  V30 6864 H 654.299 0.618577 0.241367 0
M  V30 6865 H 656.829 2.04207 0.126826 0
M  V30 6866 H 656.839 3.50567 2.08726 0
M  V30 6867 H 655.514 4.02238 1.05725 0
M  V30 6868 H 654.091 2.82056 2.43924 0
M  V30 6869 N 656.276 -0.40816 1.52223 0
M  V30 6870 C 657.501 -1.18127 1.70472 0
M  V30 6871 C 657.926 -1.83491 0.41384 0
M  V30 6872 O 657.284 -1.70047 -0.628778 0
M  V30 6873 C 657.332 -2.21935 2.84213 0
M  V30 6874 O 656.436 -3.28099 2.4985 0
M  V30 6875 H 655.777 -0.344781 0.56747 0
M  V30 6876 H 658.307 -0.478328 1.9893 0
M  V30 6877 H 658.317 -2.66248 3.09153 0
M  V30 6878 H 656.992 -1.73744 3.7787 0
M  V30 6879 H 655.569 -2.89058 2.35584 0
M  V30 6880 N 657.755 -1.42862 -0.66545 0
M  V30 6881 C 658.718 -1.46756 -1.76055 0
M  V30 6882 C 659.718 -0.353866 -1.56858 0
M  V30 6883 O 660.908 -0.615099 -1.62979 0
M  V30 6884 C 658.04 -1.30829 -3.14796 0
M  V30 6885 H 659.233 -2.44271 -1.73987 0
M  V30 6886 H 656.786 -1.29447 -0.875965 0
M  V30 6887 H 657.521 -0.342733 -3.22484 0
M  V30 6888 H 657.306 -2.11551 -3.30134 0
M  V30 6889 H 658.796 -1.36458 -3.94676 0
M  V30 6890 N 659.233 0.902656 -1.29189 0
M  V30 6891 C 660.163 2.02294 -1.16616 0
M  V30 6892 C 661.144 1.6999 -0.0611175 0
M  V30 6893 O 662.329 1.9271 -0.240072 0
M  V30 6894 C 659.459 3.37018 -0.83882 0
M  V30 6895 C 658.413 3.83522 -1.89986 0
M  V30 6896 C 657.739 5.15337 -1.42589 0
M  V30 6897 C 659.039 4.04169 -3.30824 0
M  V30 6898 H 660.733 2.13071 -2.10336 0
M  V30 6899 H 658.279 1.02378 -1.01266 0
M  V30 6900 H 660.232 4.14895 -0.737584 0
M  V30 6901 H 658.956 3.26325 0.134071 0
M  V30 6902 H 657.615 3.07859 -1.99043 0
M  V30 6903 H 657.263 5.01056 -0.441759 0
M  V30 6904 H 656.963 5.47423 -2.13547 0
M  V30 6905 H 658.487 5.95758 -1.3381 0
M  V30 6906 H 659.901 4.72537 -3.24626 0
M  V30 6907 H 658.298 4.47604 -3.99713 0
M  V30 6908 H 659.368 3.08604 -3.74021 0
M  V30 6909 N 660.711 1.11618 1.11262 0
M  V30 6910 C 661.643 0.734015 2.17129 0
M  V30 6911 C 662.656 -0.235243 1.61091 0
M  V30 6912 O 663.845 -0.0178597 1.78491 0
M  V30 6913 C 660.945 0.0643682 3.38839 0
M  V30 6914 C 660.118 1.06092 4.24339 0
M  V30 6915 C 659.177 0.420482 5.24517 0
M  V30 6916 O 658.203 1.07495 5.58957 0
M  V30 6917 N 659.405 -0.815828 5.74739 0
M  V30 6918 H 662.17 1.64492 2.50524 0
M  V30 6919 H 659.731 1.00664 1.26801 0
M  V30 6920 H 661.723 -0.375851 4.02951 0
M  V30 6921 H 660.293 -0.749147 3.03491 0
M  V30 6922 H 659.513 1.67903 3.56654 0
M  V30 6923 H 660.801 1.73507 4.78302 0
M  V30 6924 H 660.199 -1.36668 5.48943 0
M  V30 6925 H 658.756 -1.199 6.40677 0
M  V30 6926 N 662.189 -1.289 0.906776 0
M  V30 6927 C 663.152 -2.25777 0.394656 0
M  V30 6928 C 664.152 -1.53621 -0.475119 0
M  V30 6929 O 665.342 -1.71949 -0.279165 0
M  V30 6930 C 662.474 -3.38113 -0.43499 0
M  V30 6931 H 663.667 -2.72592 1.25033 0
M  V30 6932 H 661.22 -1.40463 0.685547 0
M  V30 6933 H 661.955 -2.96648 -1.31036 0
M  V30 6934 H 661.74 -3.91647 0.188334 0
M  V30 6935 H 663.23 -4.10168 -0.784365 0
M  V30 6936 N 663.667 -0.670007 -1.42649 0
M  V30 6937 C 664.915 -0.18991 -2.01206 0
M  V30 6938 C 665.236 1.20617 -1.53221 0
M  V30 6939 O 664.506 1.80898 -0.751856 0
M  V30 6940 H 663.086 -0.0672189 -0.743969 0
M  V30 6941 H 665.748 -0.865442 -1.74631 0
M  V30 6942 H 664.844 -0.187481 -3.11536 0
M  V30 6943 N 665.145 1.52092 -0.413018 0
M  V30 6944 C 666.373 2.06274 0.160881 0
M  V30 6945 C 666.788 1.28273 1.38533 0
M  V30 6946 O 666.145 0.33563 1.79387 0
M  V30 6947 C 666.196 3.57921 0.507443 0
M  V30 6948 O 665.917 4.32971 -0.668388 0
M  V30 6949 C 667.418 4.28533 1.13465 0
M  V30 6950 H 664.638 0.67074 0.0186759 0
M  V30 6951 H 667.182 1.95951 -0.585092 0
M  V30 6952 H 665.337 3.68238 1.20331 0
M  V30 6953 H 665.751 5.23135 -0.378169 0
M  V30 6954 H 667.225 5.35804 1.32732 0
M  V30 6955 H 667.702 3.85258 2.10886 0
M  V30 6956 H 668.308 4.22595 0.478876 0
M  V30 6957 N 666.623 0.143563 1.56945 0
M  V30 6958 C 667.869 -0.50916 1.96304 0
M  V30 6959 C 668.202 -1.64741 1.0283 0
M  V30 6960 O 667.477 -1.94374 0.0700361 0
M  V30 6961 C 667.76 -1.0186 3.45393 0
M  V30 6962 C 667.613 0.117923 4.49645 0
M  V30 6963 C 668.932 -1.90151 3.96901 0
M  V30 6964 H 666.051 -0.183608 0.713763 0
M  V30 6965 H 668.693 0.224095 1.88674 0
M  V30 6966 H 666.843 -1.64345 3.52027 0
M  V30 6967 H 668.515 0.754145 4.55094 0
M  V30 6968 H 666.758 0.777568 4.26774 0
M  V30 6969 H 667.429 -0.280187 5.51288 0
M  V30 6970 H 669.905 -1.375 3.92725 0
M  V30 6971 H 668.781 -2.22707 5.0169 0
M  V30 6972 H 669.042 -2.83718 3.39052 0
M  V30 6973 N 668.101 -1.57061 -0.130224 0
M  V30 6974 C 669.347 -1.85412 -0.836295 0
M  V30 6975 C 669.702 -0.729831 -1.7802 0
M  V30 6976 O 668.995 0.271021 -1.89673 0
M  V30 6977 C 669.189 -3.17878 -1.63365 0
M  V30 6978 C 669.018 -4.43086 -0.768453 0
M  V30 6979 C 667.788 -5.03488 -0.427598 0
M  V30 6980 C 669.986 -5.14219 -0.0911495 0
M  V30 6981 N 667.968 -6.12253 0.449439 0
M  V30 6982 C 669.339 -6.16632 0.645341 0
M  V30 6983 C 671.394 -4.97898 -0.0135625 0
M  V30 6984 C 670.097 -7.0449 1.45212 0
M  V30 6985 C 672.123 -5.86234 0.780001 0
M  V30 6986 C 671.485 -6.88141 1.50472 0
M  V30 6987 H 667.584 -0.728875 -0.283311 0
M  V30 6988 H 670.168 -1.9444 -0.100662 0
M  V30 6989 H 668.339 -3.09967 -2.3404 0
M  V30 6990 H 670.071 -3.34076 -2.28419 0
M  V30 6991 H 666.826 -4.67344 -0.767264 0
M  V30 6992 H 667.25 -6.71263 0.879476 0
M  V30 6993 H 671.892 -4.19082 -0.559511 0
M  V30 6994 H 669.61 -7.82722 2.00926 0
M  V30 6995 H 673.196 -5.75671 0.842246 0
M  V30 6996 H 672.076 -7.55311 2.1089 0
M  V30 6997 N 669.579 0.400081 -1.52437 0
M  V30 6998 C 670.825 1.14788 -1.67187 0
M  V30 6999 C 671.158 1.89928 -0.405074 0
M  V30 7000 O 670.433 1.85118 0.596804 0
M  V30 7001 C 670.716 2.13507 -2.89977 0
M  V30 7002 C 670.569 1.42204 -4.2673 0
M  V30 7003 C 671.888 3.14069 -3.083 0
M  V30 7004 H 669.007 0.415939 -0.608411 0
M  V30 7005 H 671.649 0.432542 -1.85011 0
M  V30 7006 H 669.799 2.7451 -2.74912 0
M  V30 7007 H 671.471 0.842503 -4.53541 0
M  V30 7008 H 669.714 0.723939 -4.27717 0
M  V30 7009 H 670.385 2.14281 -5.08712 0
M  V30 7010 H 672.861 2.63148 -3.22323 0
M  V30 7011 H 671.737 3.80398 -3.95713 0
M  V30 7012 H 671.998 3.82309 -2.22018 0
M  V30 7013 N 671.057 1.43213 0.657864 0
M  V30 7014 C 672.005 1.48271 1.79216 0
M  V30 7015 C 672.999 0.35675 1.65601 0
M  V30 7016 O 674.205 0.530535 1.72004 0
M  V30 7017 H 670.58 0.464729 0.591211 0
M  V30 7018 H 672.551 2.43792 1.7207 0
M  V30 7019 C 671.3 1.41837 3.17455 0
M  V30 7020 H 670.623 2.27781 3.28567 0
M  V30 7021 H 672.063 1.49438 3.96793 0
M  V30 7022 C 670.522 0.135347 3.36628 0
M  V30 7023 O 671.052 -0.805199 3.93547 0
M  V30 7024 N 669.258 0.0470316 2.90562 0
M  V30 7025 H 668.805 0.813221 2.44427 0
M  V30 7026 H 668.763 -0.810737 3.03767 0
M  V30 7027 N 672.536 -0.895792 1.29666 0
M  V30 7028 C 673.776 -1.6609 1.19136 0
M  V30 7029 C 674.14 -1.90336 -0.252245 0
M  V30 7030 O 675.341 -2.64469 -0.480593 0
M  V30 7031 C 673.612 -2.97129 1.98618 0
M  V30 7032 S 675.171 -3.88146 2.04666 0
M  V30 7033 H 671.989 -0.570188 0.424744 0
M  V30 7034 H 674.591 -1.06411 1.64003 0
M  V30 7035 H 673.295 -2.77199 3.02637 0
M  V30 7036 H 672.826 -3.61847 1.54371 0
M  V30 7037 H 674.841 -4.82301 1.16618 0
M  V30 7038 N 674.014 -1.12206 -1.10668 0
M  V30 7039 C 675.244 -0.897332 -1.86095 0
M  V30 7040 C 675.652 0.556778 -1.80822 0
M  V30 7041 O 674.995 1.39658 -1.19337 0
M  V30 7042 C 675.057 -1.29095 -3.35522 0
M  V30 7043 C 674.721 -2.75586 -3.64556 0
M  V30 7044 C 675.718 -3.73785 -3.6136 0
M  V30 7045 C 673.403 -3.12432 -3.93309 0
M  V30 7046 C 675.397 -5.06845 -3.86506 0
M  V30 7047 C 673.084 -4.45675 -4.18111 0
M  V30 7048 C 674.082 -5.42691 -4.147 0
M  V30 7049 O 673.77 -6.73532 -4.38873 0
M  V30 7050 H 673.502 -0.320704 -0.595084 0
M  V30 7051 H 676.056 -1.49517 -1.40833 0
M  V30 7052 H 674.286 -0.636299 -3.81429 0
M  V30 7053 H 675.975 -1.04073 -3.92331 0
M  V30 7054 H 676.741 -3.46664 -3.39189 0
M  V30 7055 H 672.62 -2.3753 -3.95096 0
M  V30 7056 H 676.164 -5.82559 -3.83758 0
M  V30 7057 H 672.061 -4.72526 -4.39761 0
M  V30 7058 H 672.829 -6.79442 -4.564 0
M  V30 7059 N 675.492 1.28418 -0.913599 0
M  V30 7060 C 676.74 1.94596 -0.545594 0
M  V30 7061 C 677.061 1.7227 0.913668 0
M  V30 7062 O 676.331 1.06233 1.64595 0
M  V30 7063 H 674.911 0.720065 -0.198783 0
M  V30 7064 H 677.573 1.56404 -1.16292 0
M  V30 7065 H 676.669 3.03202 -0.739911 0
M  V30 7066 N 676.97 0.677563 1.42291 0
M  V30 7067 C 678.216 0.201272 2.01799 0
M  V30 7068 C 678.549 -1.19004 1.53465 0
M  V30 7069 O 677.824 -1.79953 0.738039 0
M  V30 7070 C 678.107 0.238968 3.59306 0
M  V30 7071 C 677.96 1.66594 4.17812 0
M  V30 7072 C 679.279 -0.411287 4.38174 0
M  V30 7073 H 676.398 0.0746114 0.733214 0
M  V30 7074 H 679.04 0.862872 1.69276 0
M  V30 7075 H 677.19 -0.324368 3.87144 0
M  V30 7076 H 678.862 2.28173 4.00917 0
M  V30 7077 H 677.105 2.20576 3.73536 0
M  V30 7078 H 677.776 1.64398 5.26951 0
M  V30 7079 H 680.252 0.0682804 4.16044 0
M  V30 7080 H 679.128 -0.354286 5.47755 0
M  V30 7081 H 679.389 -1.4893 4.1626 0
M  V30 7082 N 678.448 -1.51871 0.421078 0
M  V30 7083 C 679.694 -2.02237 -0.151014 0
M  V30 7084 C 680.027 -1.30554 -1.43768 0
M  V30 7085 O 679.302 -0.41546 -1.90011 0
M  V30 7086 C 679.585 -3.5802 -0.386482 0
M  V30 7087 C 679.438 -4.40339 0.9177 0
M  V30 7088 C 680.757 -4.24444 -1.16342 0
M  V30 7089 H 677.876 -0.735062 -0.0534102 0
M  V30 7090 H 680.518 -1.81656 0.556888 0
M  V30 7091 H 678.668 -3.75688 -0.989494 0
M  V30 7092 H 680.34 -4.34357 1.55344 0
M  V30 7093 H 678.583 -4.06073 1.526 0
M  V30 7094 H 679.254 -5.47451 0.707187 0
M  V30 7095 H 681.73 -4.10948 -0.652788 0
M  V30 7096 H 680.606 -5.33358 -1.29693 0
M  V30 7097 H 680.867 -3.84204 -2.18724 0
M  V30 7098 N 679.926 -0.151884 -1.56866 0
M  V30 7099 C 681.151 0.508044 -2.01081 0
M  V30 7100 C 681.576 1.57306 -1.03134 0
M  V30 7101 O 680.934 1.81298 -0.0078309 0
M  V30 7102 C 680.982 1.08106 -3.44014 0
M  V30 7103 O 680.086 2.19577 -3.49084 0
M  V30 7104 H 679.427 0.123757 -0.652365 0
M  V30 7105 H 681.957 -0.250055 -2.03066 0
M  V30 7106 H 681.967 1.40851 -3.82916 0
M  V30 7107 H 680.642 0.301168 -4.14808 0
M  V30 7108 H 679.219 1.88023 -3.22027 0
M  V30 7109 N 681.404 1.57128 0.121893 0
M  V30 7110 C 682.367 1.99197 1.13372 0
M  V30 7111 C 683.367 0.881728 1.3447 0
M  V30 7112 O 684.557 1.14783 1.31036 0
M  V30 7113 C 681.689 2.32963 2.4888 0
M  V30 7114 H 682.882 2.89788 0.772204 0
M  V30 7115 H 680.435 1.51952 0.366093 0
M  V30 7116 H 681.17 1.45243 2.89957 0
M  V30 7117 H 680.955 3.13934 2.34921 0
M  V30 7118 H 682.445 2.66261 3.21706 0
M  V30 7119 N 682.882 -0.391992 1.52647 0
M  V30 7120 C 683.814 -1.49811 1.73463 0
M  V30 7121 C 684.827 -1.50734 0.615078 0
M  V30 7122 O 686.016 -1.5469 0.890696 0
M  V30 7123 C 683.116 -2.88667 1.77552 0
M  V30 7124 C 682.289 -3.11743 3.06815 0
M  V30 7125 C 681.348 -4.30564 3.02491 0
M  V30 7126 O 680.374 -4.27014 3.76361 0
M  V30 7127 N 681.576 -5.36593 2.21468 0
M  V30 7128 H 684.341 -1.32343 2.68897 0
M  V30 7129 H 681.902 -0.581475 1.51098 0
M  V30 7130 H 683.894 -3.66251 1.7217 0
M  V30 7131 H 682.464 -2.99508 0.895181 0
M  V30 7132 H 681.684 -2.2205 3.25711 0
M  V30 7133 H 682.972 -3.24013 3.92292 0
M  V30 7134 H 682.37 -5.42332 1.60913 0
M  V30 7135 H 680.927 -6.12855 2.21928 0
M  V30 7136 N 684.36 -1.4356 -0.65026 0
M  V30 7137 C 685.6 -1.46839 -1.42188 0
M  V30 7138 C 685.964 -0.0911433 -1.91784 0
M  V30 7139 O 687.165 0.00137545 -2.688 0
M  V30 7140 C 685.436 -2.48411 -2.56957 0
M  V30 7141 S 686.995 -2.70589 -3.45438 0
M  V30 7142 H 683.813 -0.519596 -0.485325 0
M  V30 7143 H 686.415 -1.80347 -0.75466 0
M  V30 7144 H 685.119 -3.47209 -2.18801 0
M  V30 7145 H 684.65 -2.16411 -3.28527 0
M  V30 7146 H 686.665 -2.00738 -4.53782 0
M  V30 7147 N 685.838 0.888903 -1.30139 0
M  V30 7148 C 687.249 1.45578 -1.16893 0
M  V30 7149 C 687.6 1.94825 0.231866 0
M  V30 7150 O 686.725 1.84661 1.12824 0
M  V30 7151 C 687.32 2.646 -2.11595 0
M  V30 7152 C 685.879 3.17389 -2.02339 0
M  V30 7153 C 685.026 1.90081 -2.01902 0
M  V30 7154 H 687.977 0.69921 -1.42467 0
M  V30 7155 H 687.998 3.40687 -1.69449 0
M  V30 7156 H 687.51 2.28726 -3.13538 0
M  V30 7157 H 685.611 3.5793 -1.03523 0
M  V30 7158 H 685.724 3.80955 -2.90534 0
M  V30 7159 H 684.088 2.08246 -1.46648 0
M  V30 7160 H 684.871 1.5647 -3.05568 0
M  V30 7161 N 687.317 1.12792 1.10072 0
M  V30 7162 C 688.564 0.885545 1.82111 0
M  V30 7163 C 688.892 -0.588519 1.85383 0
M  V30 7164 O 688.147 -1.45124 1.31292 0
M  V30 7165 C 688.446 1.4102 3.28403 0
M  V30 7166 C 688.112 2.89995 3.45273 0
M  V30 7167 C 686.774 3.30671 3.49585 0
M  V30 7168 C 689.126 3.85874 3.50358 0
M  V30 7169 C 686.454 4.65925 3.56553 0
M  V30 7170 C 688.806 5.20963 3.58859 0
M  V30 7171 C 687.47 5.61177 3.61437 0
M  V30 7172 H 686.74 0.324044 0.666391 0
M  V30 7173 H 689.387 1.40874 1.29718 0
M  V30 7174 H 687.692 0.807551 3.83387 0
M  V30 7175 H 689.389 1.19882 3.82661 0
M  V30 7176 H 685.979 2.57537 3.42597 0
M  V30 7177 H 690.163 3.5554 3.46273 0
M  V30 7178 H 685.419 4.96468 3.56833 0
M  V30 7179 H 689.593 5.95079 3.61738 0
M  V30 7180 H 687.22 6.6597 3.66589 0
M  V30 7181 N 688.795 -1.27931 0.920396 0
M  V30 7182 C 690.043 -1.94304 0.555906 0
M  V30 7183 C 690.364 -1.72753 -0.904519 0
M  V30 7184 O 689.634 -1.07104 -1.64029 0
M  V30 7185 H 688.214 -0.719001 0.202599 0
M  V30 7186 H 690.876 -1.55785 1.1712 0
M  V30 7187 H 689.972 -3.02806 0.755981 0
M  V30 7188 N 690.273 -0.685099 -1.4193 0
M  V30 7189 C 691.521 -0.21124 -2.00993 0
M  V30 7190 C 691.842 1.18985 -1.54491 0
M  V30 7191 O 691.112 1.8009 -0.771 0
M  V30 7192 H 689.692 -0.0751059 -0.743215 0
M  V30 7193 H 692.354 -0.883915 -1.73704 0
M  V30 7194 H 691.45 -0.220513 -3.1132 0
M  V30 7195 N 691.751 1.51645 -0.429126 0
M  V30 7196 C 692.998 2.02015 0.140079 0
M  V30 7197 C 693.326 1.31374 1.43427 0
M  V30 7198 O 692.581 0.414779 1.91254 0
M  V30 7199 C 692.88 3.54989 0.414472 0
M  V30 7200 C 692.546 4.43874 -0.792911 0
M  V30 7201 C 691.208 4.67887 -1.12404 0
M  V30 7202 C 693.56 4.96074 -1.59875 0
M  V30 7203 C 690.888 5.41348 -2.26184 0
M  V30 7204 C 693.24 5.70782 -2.72747 0
M  V30 7205 C 691.904 5.93062 -3.06324 0
M  V30 7206 H 691.174 0.739225 0.0512585 0
M  V30 7207 H 693.821 1.82675 -0.574641 0
M  V30 7208 H 692.126 3.72615 1.21099 0
M  V30 7209 H 693.823 3.91489 0.868173 0
M  V30 7210 H 690.413 4.25374 -0.524871 0
M  V30 7211 H 694.597 4.77412 -1.35614 0
M  V30 7212 H 689.853 5.56815 -2.52522 0
M  V30 7213 H 694.027 6.10221 -3.35564 0
M  V30 7214 H 691.654 6.49764 -3.94602 0
M  V30 7215 N 693.229 0.160201 1.56784 0
M  V30 7216 C 694.176 -0.774416 2.1742 0
M  V30 7217 C 695.146 -1.23483 1.11091 0
M  V30 7218 O 696.331 -1.30499 1.39193 0
M  V30 7219 C 693.471 -2.00283 2.81035 0
M  V30 7220 C 692.584 -1.58701 4.01793 0
M  V30 7221 C 691.719 -2.76824 4.53367 0
M  V30 7222 C 690.758 -2.31679 5.66561 0
M  V30 7223 N 689.895 -3.42856 6.12694 0
M  V30 7224 H 694.735 -0.250542 2.96945 0
M  V30 7225 H 692.272 -0.111943 1.46673 0
M  V30 7226 H 694.23 -2.72316 3.16069 0
M  V30 7227 H 692.86 -2.5006 2.04132 0
M  V30 7228 H 691.912 -0.76384 3.72652 0
M  V30 7229 H 693.224 -1.21555 4.83762 0
M  V30 7230 H 692.378 -3.57029 4.90525 0
M  V30 7231 H 691.117 -3.17223 3.70433 0
M  V30 7232 H 690.122 -1.49917 5.28966 0
M  V30 7233 H 691.347 -1.9235 6.5129 0
M  V30 7234 H 689.293 -3.82852 5.32692 0
M  V30 7235 H 689.21 -3.09767 6.89624 0
M  V30 7236 H 690.478 -4.23379 6.545 0
M  V30 7237 N 694.707 -1.5719 -0.113559 0
M  V30 7238 C 695.64 -1.9595 -1.16957 0
M  V30 7239 C 696.618 -0.829951 -1.39823 0
M  V30 7240 O 697.802 -1.08861 -1.53888 0
M  V30 7241 C 694.929 -2.2604 -2.52237 0
M  V30 7242 C 693.975 -3.48571 -2.45765 0
M  V30 7243 S 694.808 -5.00962 -1.89203 0
M  V30 7244 C 695.964 -5.3421 -3.26145 0
M  V30 7245 H 696.197 -2.85214 -0.839069 0
M  V30 7246 H 693.73 -1.51036 -0.320529 0
M  V30 7247 H 695.688 -2.44054 -3.30073 0
M  V30 7248 H 694.349 -1.3738 -2.82463 0
M  V30 7249 H 693.542 -3.67008 -3.45429 0
M  V30 7250 H 693.144 -3.29972 -1.76053 0
M  V30 7251 H 695.436 -5.29725 -4.22371 0
M  V30 7252 H 696.379 -6.35398 -3.12529 0
M  V30 7253 H 696.787 -4.61681 -3.24825 0
M  V30 7254 N 696.185 0.383891 -1.52853 0
M  V30 7255 C 697.41 1.154 -1.7233 0
M  V30 7256 C 697.835 1.82809 -0.44298 0
M  V30 7257 O 697.193 1.71026 0.601645 0
M  V30 7258 C 697.241 2.17386 -2.87708 0
M  V30 7259 O 696.345 3.24082 -2.55038 0
M  V30 7260 H 695.686 0.335709 -0.572883 0
M  V30 7261 H 698.216 0.44662 -1.99666 0
M  V30 7262 H 698.226 2.61296 -3.1335 0
M  V30 7263 H 696.901 1.6771 -3.80587 0
M  V30 7264 H 695.478 2.85273 -2.40153 0
M  V30 7265 N 697.663 1.43903 0.642637 0
M  V30 7266 C 698.911 1.45791 1.39962 0
M  V30 7267 C 699.232 0.0873144 1.94804 0
M  V30 7268 O 698.502 -0.878825 1.75081 0
M  V30 7269 H 697.082 0.536797 0.519479 0
M  V30 7270 H 699.744 1.7959 0.757189 0
M  V30 7271 H 698.84 2.17665 2.2367 0
M  V30 7272 N 699.141 -0.881989 1.30609 0
M  V30 7273 C 700.089 -2.00942 1.17155 0
M  V30 7274 C 701.083 -1.69198 0.0827154 0
M  V30 7275 O 702.289 -1.78342 0.243775 0
M  V30 7276 H 698.664 -0.658913 0.362406 0
M  V30 7277 H 700.635 -2.09423 2.12567 0
M  V30 7278 C 699.384 -3.36294 0.883273 0
M  V30 7279 H 698.707 -3.61233 1.7132 0
M  V30 7280 H 700.147 -4.15812 0.829255 0
M  V30 7281 C 698.606 -3.34348 -0.413851 0
M  V30 7282 O 699.136 -3.75216 -1.43444 0
M  V30 7283 N 697.342 -2.87459 -0.426082 0
M  V30 7284 H 696.889 -2.54397 0.40493 0
M  V30 7285 H 696.847 -2.8654 -1.29391 0
M  V30 7286 N 700.619 -1.13374 -1.09472 0
M  V30 7287 C 701.867 -0.893422 -1.8128 0
M  V30 7288 C 702.188 0.582029 -1.86111 0
M  V30 7289 O 701.458 1.42305 -1.34633 0
M  V30 7290 H 700.038 -0.327543 -0.67136 0
M  V30 7291 H 702.7 -1.43018 -1.32408 0
M  V30 7292 H 701.796 -1.28374 -2.84476 0
M  V30 7293 N 702.098 1.27442 -0.927168 0
M  V30 7294 C 703.514 1.46754 -0.627329 0
M  V30 7295 C 703.714 1.83902 0.823549 0
M  V30 7296 O 702.77 1.95215 1.60148 0
M  V30 7297 C 704.083 2.56045 -1.57674 0
M  V30 7298 C 705.631 2.69906 -1.58491 0
M  V30 7299 C 706.106 3.82355 -2.52128 0
M  V30 7300 N 707.597 3.89728 -2.50332 0
M  V30 7301 C 708.332 4.76155 -3.19475 0
M  V30 7302 N 707.828 5.67073 -3.97995 0
M  V30 7303 N 709.621 4.6988 -3.08496 0
M  V30 7304 H 701.772 1.01613 -1.86517 0
M  V30 7305 H 704.035 0.507443 -0.800753 0
M  V30 7306 H 703.741 2.35542 -2.61176 0
M  V30 7307 H 703.615 3.53423 -1.31804 0
M  V30 7308 H 706.002 2.89792 -0.557208 0
M  V30 7309 H 706.083 1.73018 -1.8841 0
M  V30 7310 H 705.727 3.63224 -3.55008 0
M  V30 7311 H 705.657 4.7867 -2.19505 0
M  V30 7312 H 708.148 3.24717 -1.93306 0
M  V30 7313 H 708.461 6.2988 -4.4774 0
M  V30 7314 H 706.806 5.6687 -4.02098 0
M  V30 7315 H 709.997 3.97848 -2.46646 0
M  V30 7316 H 710.17 5.37017 -3.62652 0
M  V30 7317 N 703.576 0.692616 1.41565 0
M  V30 7318 C 704.486 0.0258451 2.34586 0
M  V30 7319 C 705.502 -0.769324 1.56069 0
M  V30 7320 O 706.678 -0.707563 1.88562 0
M  V30 7321 C 703.743 -0.901289 3.3478 0
M  V30 7322 C 702.804 -0.0986579 4.29187 0
M  V30 7323 C 702.037 -0.981634 5.24595 0
M  V30 7324 O 702.26 -2.22115 5.25377 0
M  V30 7325 O 701.194 -0.432892 6.00341 0
M  V30 7326 H 705.02 0.792537 2.93177 0
M  V30 7327 H 702.605 0.452935 1.42369 0
M  V30 7328 H 704.487 -1.43302 3.96286 0
M  V30 7329 H 703.162 -1.64752 2.78637 0
M  V30 7330 H 702.069 0.477604 3.71039 0
M  V30 7331 H 703.402 0.608848 4.8842 0
M  V30 7332 N 705.054 -1.51416 0.437162 0
M  V30 7333 C 705.984 -2.30631 -0.364922 0
M  V30 7334 C 706.965 -1.36037 -1.02118 0
M  V30 7335 O 708.15 -1.64956 -1.02485 0
M  V30 7336 C 705.28 -3.1482 -1.46648 0
M  V30 7337 C 704.234 -4.17691 -0.933717 0
M  V30 7338 C 703.56 -4.904 -2.13101 0
M  V30 7339 C 704.86 -5.2229 0.0317201 0
M  V30 7340 H 706.554 -2.97932 0.29614 0
M  V30 7341 H 704.1 -1.4328 0.143865 0
M  V30 7342 H 706.053 -3.69017 -2.03481 0
M  V30 7343 H 704.777 -2.4534 -2.15583 0
M  V30 7344 H 703.436 -3.64545 -0.387602 0
M  V30 7345 H 703.084 -4.17423 -2.80654 0
M  V30 7346 H 702.784 -5.59962 -1.78092 0
M  V30 7347 H 704.308 -5.4742 -2.70487 0
M  V30 7348 H 705.722 -5.7156 -0.446302 0
M  V30 7349 H 704.119 -5.99378 0.29437 0
M  V30 7350 H 705.189 -4.75131 0.968447 0
M  V30 7351 N 706.532 -0.168513 -1.56696 0
M  V30 7352 C 707.78 0.476216 -1.96409 0
M  V30 7353 C 708.101 1.63968 -1.05544 0
M  V30 7354 O 707.371 1.95525 -0.121235 0
M  V30 7355 H 705.951 0.178921 -0.725256 0
M  V30 7356 H 708.613 -0.249042 -1.93302 0
M  V30 7357 H 707.709 0.838094 -3.00637 0
M  V30 7358 N 708.01 1.57248 0.105221 0
M  V30 7359 C 708.92 2.04653 1.14693 0
M  V30 7360 C 709.936 0.969488 1.44489 0
M  V30 7361 O 711.112 1.28196 1.55331 0
M  V30 7362 C 708.177 2.45297 2.45011 0
M  V30 7363 C 707.238 3.67148 2.22489 0
M  V30 7364 C 706.471 4.05844 3.46592 0
M  V30 7365 O 706.694 3.44736 4.54437 0
M  V30 7366 O 705.628 4.98862 3.36779 0
M  V30 7367 H 709.454 2.93663 0.774336 0
M  V30 7368 H 707.039 1.45998 0.31701 0
M  V30 7369 H 708.921 2.72112 3.21766 0
M  V30 7370 H 707.596 1.59429 2.81717 0
M  V30 7371 H 706.503 3.45463 1.43547 0
M  V30 7372 H 707.836 4.53764 1.9068 0
M  V30 7373 N 709.488 -0.375779 1.53054 0
M  V30 7374 C 710.718 -1.1387 1.72386 0
M  V30 7375 C 711.126 -1.8382 0.447966 0
M  V30 7376 O 710.469 -1.74027 -0.588244 0
M  V30 7377 C 710.531 -2.22047 2.82728 0
M  V30 7378 C 710.195 -1.71951 4.23417 0
M  V30 7379 C 711.192 -1.18909 5.06119 0
M  V30 7380 C 708.877 -1.77773 4.69789 0
M  V30 7381 C 710.871 -0.723529 6.3328 0
M  V30 7382 C 708.558 -1.30829 5.96931 0
M  V30 7383 C 709.556 -0.782077 6.78508 0
M  V30 7384 O 709.244 -0.319529 8.03265 0
M  V30 7385 H 708.976 -0.346835 0.580242 0
M  V30 7386 H 711.53 -0.443748 2.00549 0
M  V30 7387 H 709.76 -2.95006 2.50017 0
M  V30 7388 H 711.449 -2.83654 2.90336 0
M  V30 7389 H 712.215 -1.13758 4.7147 0
M  V30 7390 H 708.094 -2.17673 4.06373 0
M  V30 7391 H 711.638 -0.312126 6.96901 0
M  V30 7392 H 707.535 -1.3567 6.31081 0
M  V30 7393 H 708.303 -0.439796 8.17318 0
M  V30 7394 N 710.966 -1.44241 -0.634997 0
M  V30 7395 C 712.214 -1.46531 -1.39187 0
M  V30 7396 C 712.535 -0.0976441 -1.94755 0
M  V30 7397 O 711.805 0.869528 -1.75545 0
M  V30 7398 H 710.385 -0.539544 -0.516625 0
M  V30 7399 H 713.047 -1.79989 -0.747655 0
M  V30 7400 H 712.143 -2.18848 -2.22513 0
M  V30 7401 N 712.444 0.87505 -1.31075 0
M  V30 7402 C 713.691 1.62768 -1.20469 0
M  V30 7403 C 714.019 1.93034 0.23834 0
M  V30 7404 O 713.274 1.55693 1.18567 0
M  V30 7405 C 713.573 2.96948 -1.98888 0
M  V30 7406 C 713.239 2.86195 -3.4843 0
M  V30 7407 C 711.901 2.82969 -3.89207 0
M  V30 7408 C 714.253 2.73599 -4.43614 0
M  V30 7409 C 711.581 2.64999 -5.23443 0
M  V30 7410 C 713.933 2.57166 -5.77969 0
M  V30 7411 C 712.597 2.52321 -6.17973 0
M  V30 7412 H 711.867 0.595611 -0.440827 0
M  V30 7413 H 714.514 1.01665 -1.62285 0
M  V30 7414 H 712.819 3.62058 -1.49737 0
M  V30 7415 H 714.516 3.54164 -1.88067 0
M  V30 7416 H 711.106 2.8952 -3.16032 0
M  V30 7417 H 715.29 2.7515 -4.13045 0
M  V30 7418 H 710.546 2.5967 -5.53517 0
M  V30 7419 H 714.72 2.46396 -6.51354 0
M  V30 7420 H 712.347 2.38156 -7.21932 0
M  V30 7421 N 713.922 1.13953 1.08869 0
M  V30 7422 C 714.872 0.790812 2.13846 0
M  V30 7423 C 715.856 -0.217819 1.59419 0
M  V30 7424 O 717.048 -0.0208723 1.76988 0
M  V30 7425 C 714.177 0.26479 3.42277 0
M  V30 7426 C 713.263 1.30267 4.03598 0
M  V30 7427 N 713.654 2.50535 4.39393 0
M  V30 7428 C 711.952 1.15178 4.30871 0
M  V30 7429 C 712.653 3.16938 4.87776 0
M  V30 7430 N 711.629 2.44349 4.85587 0
M  V30 7431 H 715.431 1.70577 2.39334 0
M  V30 7432 H 712.945 1.02268 1.26154 0
M  V30 7433 H 714.942 -0.00330398 4.169 0
M  V30 7434 H 713.602 -0.644419 3.18241 0
M  V30 7435 H 714.613 2.87798 4.30572 0
M  V30 7436 H 711.29 0.301204 4.16412 0
M  V30 7437 H 712.68 4.19453 5.2489 0
M  V30 7438 N 715.4 -1.26948 0.933913 0
M  V30 7439 C 716.31 -2.30366 0.443671 0
M  V30 7440 C 717.326 -1.67284 -0.478745 0
M  V30 7441 O 718.502 -1.98156 -0.360043 0
M  V30 7442 C 715.567 -3.45485 -0.289974 0
M  V30 7443 C 714.628 -4.24069 0.668114 0
M  V30 7444 C 713.861 -5.33691 -0.0306138 0
M  V30 7445 O 714.084 -5.5656 -1.24888 0
M  V30 7446 O 713.018 -5.98441 0.644384 0
M  V30 7447 H 716.844 -2.74349 1.30254 0
M  V30 7448 H 714.429 -1.32012 0.699506 0
M  V30 7449 H 716.311 -4.15486 -0.70353 0
M  V30 7450 H 714.986 -3.03546 -1.12435 0
M  V30 7451 H 713.893 -3.56579 1.13147 0
M  V30 7452 H 715.226 -4.69739 1.46989 0
M  V30 7453 N 716.879 -0.700114 -1.41195 0
M  V30 7454 C 718.109 -0.241828 -2.0518 0
M  V30 7455 C 718.517 1.1157 -1.52803 0
M  V30 7456 O 717.86 1.70926 -0.673042 0
M  V30 7457 C 717.922 -0.12695 -3.59276 0
M  V30 7458 C 717.586 -1.41725 -4.34469 0
M  V30 7459 C 718.583 -2.35604 -4.63451 0
M  V30 7460 C 716.268 -1.67189 -4.73659 0
M  V30 7461 C 718.262 -3.53204 -5.3059 0
M  V30 7462 C 715.949 -2.85073 -5.40534 0
M  V30 7463 C 716.947 -3.77904 -5.68927 0
M  V30 7464 O 716.635 -4.93723 -6.34424 0
M  V30 7465 H 716.367 -0.109247 -0.667114 0
M  V30 7466 H 718.921 -0.954538 -1.81873 0
M  V30 7467 H 717.151 0.641571 -3.81341 0
M  V30 7468 H 718.84 0.294748 -4.04828 0
M  V30 7469 H 719.606 -2.1719 -4.33651 0
M  V30 7470 H 715.485 -0.957935 -4.50937 0
M  V30 7471 H 719.029 -4.25679 -5.52669 0
M  V30 7472 H 714.926 -3.03402 -5.69752 0
M  V30 7473 H 715.694 -4.93597 -6.5292 0
M  V30 7474 N 718.357 1.51182 -0.445186 0
M  V30 7475 C 719.585 2.06568 0.117091 0
M  V30 7476 C 720 1.31182 1.35781 0
M  V30 7477 O 719.357 0.373605 1.78635 0
M  V30 7478 C 719.408 3.58917 0.431408 0
M  V30 7479 O 719.129 4.31456 -0.760078 0
M  V30 7480 C 720.63 4.30843 1.0435 0
M  V30 7481 H 717.85 0.670985 0.00444436 0
M  V30 7482 H 720.394 1.94666 -0.626525 0
M  V30 7483 H 718.549 3.70708 1.12493 0
M  V30 7484 H 718.963 5.22215 -0.489048 0
M  V30 7485 H 720.437 5.38499 1.21337 0
M  V30 7486 H 720.914 3.89644 2.02667 0
M  V30 7487 H 721.52 4.23516 0.38913 0
M  V30 7488 N 719.835 0.176821 1.56605 0
M  V30 7489 C 720.745 -0.763682 2.21822 0
M  V30 7490 C 721.761 -1.24889 1.21156 0
M  V30 7491 O 722.937 -1.29987 1.53836 0
M  V30 7492 C 720.002 -1.97352 2.8505 0
M  V30 7493 C 719.063 -1.53466 4.00932 0
M  V30 7494 C 718.296 -2.68682 4.61135 0
M  V30 7495 O 718.519 -3.85694 4.20234 0
M  V30 7496 O 717.453 -2.42442 5.50913 0
M  V30 7497 H 721.279 -0.238363 3.02763 0
M  V30 7498 H 718.864 -0.0516331 1.49311 0
M  V30 7499 H 720.746 -2.68096 3.25119 0
M  V30 7500 H 719.421 -2.48779 2.07101 0
M  V30 7501 H 718.328 -0.796551 3.65521 0
M  V30 7502 H 719.661 -1.06724 4.8049 0
M  V30 7503 N 721.313 -1.57302 -0.09688 0
M  V30 7504 C 722.559 -1.86273 -0.801885 0
M  V30 7505 C 722.892 -0.765694 -1.78468 0
M  V30 7506 O 722.167 0.226495 -1.93177 0
M  V30 7507 C 722.45 -3.25876 -1.53221 0
M  V30 7508 C 722.303 -4.46205 -0.567529 0
M  V30 7509 C 723.622 -3.63352 -2.48321 0
M  V30 7510 H 720.741 -0.67752 -0.29006 0
M  V30 7511 H 723.383 -1.89887 -0.0655577 0
M  V30 7512 H 721.533 -3.22926 -2.15988 0
M  V30 7513 H 723.205 -4.6127 0.0529982 0
M  V30 7514 H 721.448 -4.33636 0.119233 0
M  V30 7515 H 722.119 -5.40608 -1.11564 0
M  V30 7516 H 724.595 -3.67234 -1.95648 0
M  V30 7517 H 723.471 -4.61968 -2.9644 0
M  V30 7518 H 723.732 -2.91941 -3.31998 0
M  V30 7519 N 722.791 0.367657 -1.53252 0
M  V30 7520 C 723.738 1.45028 -1.79543 0
M  V30 7521 C 724.708 1.53288 -0.63969 0
M  V30 7522 O 725.893 1.69209 -0.881653 0
M  V30 7523 C 723.033 2.82 -1.98923 0
M  V30 7524 C 722.146 2.82722 -3.26638 0
M  V30 7525 C 721.281 4.11257 -3.36216 0
M  V30 7526 C 720.32 4.06113 -4.57972 0
M  V30 7527 N 719.457 5.26293 -4.64715 0
M  V30 7528 H 724.297 1.21908 -2.71923 0
M  V30 7529 H 721.834 0.591011 -1.34705 0
M  V30 7530 H 723.792 3.61568 -2.08146 0
M  V30 7531 H 722.422 3.03523 -1.09881 0
M  V30 7532 H 721.474 1.95399 -3.26379 0
M  V30 7533 H 722.786 2.74794 -4.16281 0
M  V30 7534 H 721.94 4.99239 -3.44739 0
M  V30 7535 H 720.679 4.21935 -2.44586 0
M  V30 7536 H 719.684 3.16517 -4.49552 0
M  V30 7537 H 720.909 3.97039 -5.50942 0
M  V30 7538 H 718.855 5.37561 -3.75985 0
M  V30 7539 H 718.772 5.20526 -5.4826 0
M  V30 7540 H 720.04 6.16113 -4.77519 0
M  V30 7541 N 724.269 1.44576 0.627338 0
M  V30 7542 C 725.497 1.51048 1.41394 0
M  V30 7543 C 725.912 0.136568 1.88305 0
M  V30 7544 O 725.269 -0.858251 1.6106 0
M  V30 7545 C 725.32 2.47837 2.63172 0
M  V30 7546 O 725.041 3.79887 2.18215 0
M  V30 7547 C 726.542 2.63811 3.56257 0
M  V30 7548 H 723.762 0.512171 0.4335 0
M  V30 7549 H 726.306 1.89576 0.766878 0
M  V30 7550 H 724.461 2.12433 3.23961 0
M  V30 7551 H 724.875 4.32177 2.97192 0
M  V30 7552 H 726.349 3.35554 4.38301 0
M  V30 7553 H 726.826 1.69169 4.05313 0
M  V30 7554 H 727.432 3.0013 3.01333 0
M  V30 7555 N 725.747 -0.868086 1.31537 0
M  V30 7556 C 726.993 -1.62367 1.2151 0
M  V30 7557 C 727.326 -1.92883 -0.225819 0
M  V30 7558 O 726.601 -1.56176 -1.15927 0
M  V30 7559 C 726.884 -2.95268 2.06129 0
M  V30 7560 C 726.737 -2.71619 3.58529 0
M  V30 7561 C 728.056 -3.96391 1.91212 0
M  V30 7562 H 725.175 -0.589178 0.442762 0
M  V30 7563 H 727.817 -1.00336 1.61347 0
M  V30 7564 H 725.967 -3.4821 1.72284 0
M  V30 7565 H 727.639 -2.25334 4.0252 0
M  V30 7566 H 725.882 -2.05817 3.81866 0
M  V30 7567 H 726.553 -3.66192 4.13047 0
M  V30 7568 H 729.029 -3.52663 2.20834 0
M  V30 7569 H 727.905 -4.87263 2.52718 0
M  V30 7570 H 728.166 -4.33335 0.875953 0
M  V30 7571 N 727.225 -1.14528 -1.08264 0
M  V30 7572 C 728.453 -0.937964 -1.84418 0
M  V30 7573 C 728.868 0.51357 -1.81681 0
M  V30 7574 O 728.225 1.35591 -1.22153 0
M  V30 7575 C 728.276 -1.43272 -3.31897 0
M  V30 7576 O 727.997 -2.82738 -3.34651 0
M  V30 7577 C 729.498 -1.26555 -4.24851 0
M  V30 7578 H 726.718 -0.333704 -0.582136 0
M  V30 7579 H 729.262 -1.52076 -1.36723 0
M  V30 7580 H 727.417 -0.892653 -3.76975 0
M  V30 7581 H 727.831 -3.04971 -4.26724 0
M  V30 7582 H 729.305 -1.66031 -5.26439 0
M  V30 7583 H 729.782 -0.208589 -4.38704 0
M  V30 7584 H 730.388 -1.79423 -3.856 0
M  V30 7585 N 728.703 1.26451 -0.940633 0
M  V30 7586 C 729.949 1.94065 -0.58878 0
M  V30 7587 C 730.282 1.7363 0.869853 0
M  V30 7588 O 729.557 1.073 1.62225 0
M  V30 7589 C 729.84 3.47852 -0.931199 0
M  V30 7590 C 729.693 3.77575 -2.44453 0
M  V30 7591 C 731.012 4.37832 -0.446229 0
M  V30 7592 H 728.131 0.704827 -0.21538 0
M  V30 7593 H 730.773 1.4933 -1.17475 0
M  V30 7594 H 728.923 3.86085 -0.432539 0
M  V30 7595 H 730.595 3.49059 -3.01588 0
M  V30 7596 H 728.838 3.23671 -2.88825 0
M  V30 7597 H 729.509 4.85068 -2.63464 0
M  V30 7598 H 731.985 4.06822 -0.873778 0
M  V30 7599 H 730.861 5.44228 -0.714648 0
M  V30 7600 H 731.122 4.37239 0.653815 0
M  V30 7601 N 730.181 0.707592 1.40822 0
M  V30 7602 C 731.128 0.0499029 2.30746 0
M  V30 7603 C 732.098 -0.758718 1.47759 0
M  V30 7604 O 733.283 -0.724299 1.76518 0
M  V30 7605 C 730.423 -0.871756 3.33908 0
M  V30 7606 C 729.536 -0.0534655 4.31967 0
M  V30 7607 C 728.671 -0.973869 5.22197 0
M  V30 7608 C 727.71 -0.149194 6.11918 0
M  V30 7609 N 726.847 -1.02404 6.94592 0
M  V30 7610 H 731.687 0.822461 2.86426 0
M  V30 7611 H 729.224 0.417285 1.41057 0
M  V30 7612 H 731.182 -1.42028 3.9228 0
M  V30 7613 H 729.812 -1.61058 2.7975 0
M  V30 7614 H 728.864 0.612142 3.75442 0
M  V30 7615 H 730.176 0.585354 4.95353 0
M  V30 7616 H 729.33 -1.59121 5.85462 0
M  V30 7617 H 728.069 -1.64652 4.59065 0
M  V30 7618 H 727.074 0.481137 5.47691 0
M  V30 7619 H 728.299 0.519841 6.77107 0
M  V30 7620 H 726.245 -1.6825 6.34057 0
M  V30 7621 H 726.162 -0.441076 7.54712 0
M  V30 7622 H 727.43 -1.62782 7.62314 0
M  V30 7623 N 731.66 -1.50943 0.453197 0
M  V30 7624 C 732.909 -2.01402 -0.10951 0
M  V30 7625 C 733.222 -1.3411 -1.42386 0
M  V30 7626 O 734.428 -1.75626 -2.07045 0
M  V30 7627 C 732.884 -3.5906 -0.245693 0
M  V30 7628 C 732.492 -4.353 1.05916 0
M  V30 7629 C 734.236 -4.17617 -0.761318 0
M  V30 7630 C 732.143 -5.84699 0.887752 0
M  V30 7631 H 731.073 -0.752674 -0.0447013 0
M  V30 7632 H 733.724 -1.73913 0.585375 0
M  V30 7633 H 732.106 -3.83062 -1.00395 0
M  V30 7634 H 733.28 -4.23034 1.82698 0
M  V30 7635 H 731.595 -3.88269 1.50452 0
M  V30 7636 H 734.192 -5.26963 -0.906306 0
M  V30 7637 H 734.535 -3.77824 -1.74799 0
M  V30 7638 H 735.068 -3.97753 -0.0609416 0
M  V30 7639 H 731.807 -6.28933 1.84726 0
M  V30 7640 H 731.327 -5.99587 0.160006 0
M  V30 7641 H 733.006 -6.44682 0.547223 0
M  V30 7642 N 733.138 -0.185124 -1.56509 0
M  V30 7643 C 734.363 0.465278 -2.02114 0
M  V30 7644 C 734.788 1.55083 -1.06447 0
M  V30 7645 O 734.146 1.81241 -0.0462852 0
M  V30 7646 C 734.194 1.00784 -3.46229 0
M  V30 7647 O 733.298 2.12123 -3.53663 0
M  V30 7648 H 732.639 0.109891 -0.654843 0
M  V30 7649 H 735.169 -0.293072 -2.0249 0
M  V30 7650 H 735.179 1.32697 -3.85818 0
M  V30 7651 H 733.854 0.213113 -4.15354 0
M  V30 7652 H 732.431 1.8115 -3.25943 0
M  V30 7653 N 734.616 1.57351 0.0885366 0
M  V30 7654 C 735.548 1.99221 1.13329 0
M  V30 7655 C 736.561 0.895705 1.35945 0
M  V30 7656 O 737.75 1.17376 1.34481 0
M  V30 7657 C 734.85 2.3016 2.48756 0
M  V30 7658 C 734.023 3.61444 2.46327 0
M  V30 7659 C 733.082 3.80244 3.63732 0
M  V30 7660 O 732.108 4.52024 3.45924 0
M  V30 7661 N 733.31 3.2132 4.8346 0
M  V30 7662 H 736.075 2.89456 0.776862 0
M  V30 7663 H 733.636 1.59505 0.277428 0
M  V30 7664 H 735.628 2.39925 3.25911 0
M  V30 7665 H 734.198 1.459 2.76464 0
M  V30 7666 H 733.418 3.62588 1.54673 0
M  V30 7667 H 734.706 4.47678 2.41789 0
M  V30 7668 H 734.104 2.63028 5.00832 0
M  V30 7669 H 732.661 3.3656 5.58185 0
M  V30 7670 N 736.094 -0.359525 1.53444 0
M  V30 7671 C 737.041 -1.44073 1.8031 0
M  V30 7672 C 738.011 -1.52946 0.647811 0
M  V30 7673 O 739.196 -1.68739 0.890614 0
M  V30 7674 C 736.336 -2.80941 2.00416 0
M  V30 7675 C 735.449 -2.80986 3.28132 0
M  V30 7676 C 734.584 -4.09468 3.38393 0
M  V30 7677 C 733.623 -4.03679 4.60119 0
M  V30 7678 N 732.76 -5.23821 4.675 0
M  V30 7679 H 737.6 -1.20464 2.72566 0
M  V30 7680 H 735.137 -0.583859 1.35017 0
M  V30 7681 H 737.095 -3.60459 2.1006 0
M  V30 7682 H 735.725 -3.02936 1.11489 0
M  V30 7683 H 734.777 -1.93666 3.27411 0
M  V30 7684 H 736.089 -2.72583 4.17732 0
M  V30 7685 H 735.243 -4.97404 3.47382 0
M  V30 7686 H 733.982 -4.20632 2.4682 0
M  V30 7687 H 732.987 -3.14129 4.51224 0
M  V30 7688 H 734.212 -3.94112 5.5304 0
M  V30 7689 H 732.158 -5.35559 3.7883 0
M  V30 7690 H 732.075 -5.17611 5.51013 0
M  V30 7691 H 733.343 -6.13572 4.8078 0
M  V30 7692 N 737.572 -1.44907 -0.619662 0
M  V30 7693 C 738.52 -1.52971 -1.75222 0
M  V30 7694 C 739.514 -0.400531 -1.64597 0
M  V30 7695 O 740.72 -0.575952 -1.70537 0
M  V30 7696 H 737.095 -0.480241 -0.578682 0
M  V30 7697 H 739.066 -2.48269 -1.65545 0
M  V30 7698 C 737.815 -1.50204 -3.13583 0
M  V30 7699 H 737.138 -2.36412 -3.22412 0
M  V30 7700 H 738.578 -1.59905 -3.92691 0
M  V30 7701 C 737.037 -0.22455 -3.36151 0
M  V30 7702 O 737.567 0.700574 -3.95544 0
M  V30 7703 N 735.773 -0.124052 -2.90335 0
M  V30 7704 H 735.32 -0.87774 -2.42185 0
M  V30 7705 H 735.278 0.729914 -3.0581 0
M  V30 7706 N 739.05 0.861098 -1.31996 0
M  V30 7707 C 740.275 1.65264 -1.2531 0
M  V30 7708 C 740.7 1.87265 0.177007 0
M  V30 7709 O 740.058 1.4208 1.12619 0
M  V30 7710 C 740.106 2.99284 -2.0115 0
M  V30 7711 O 739.21 3.89508 -1.3549 0
M  V30 7712 H 738.551 0.50409 -0.432192 0
M  V30 7713 H 741.081 1.07297 -1.74208 0
M  V30 7714 H 741.091 3.49154 -2.11081 0
M  V30 7715 H 739.766 2.82591 -3.05148 0
M  V30 7716 H 738.343 3.47966 -1.34066 0
M  V30 7717 O 740.567 1.26963 0.998129 0
M  V30 7718 H 741.258 1.06242 1.61964 0
M  V30 END ATOM
M  V30 BEGIN BOND
M  V30 END BOND
M  V30 END CTAB
M  END
$$$$
