drugbank_drug|DB00069  Interferon alfacon-1
 OpenBabel12092119123D

  0  0  0     0  0            999 V3000
M  V30 BEGIN CTAB
M  V30 COUNTS 2737 2763 0 0 0
M  V30 BEGIN ATOM
M  V30 1 H -0.908 1.98254 -0.117106 0
M  V30 2 N 0 1.576 0 0
M  V30 3 C 0.933 2.03868 1.02534 0
M  V30 4 C 1.911 0.928543 1.3348 0
M  V30 5 O 3.095 1.19667 1.45644 0
M  V30 6 C 0.222 2.43627 2.35294 0
M  V30 7 C -0.732 3.65373 2.2001 0
M  V30 8 S 0.101 5.13292 1.52614 0
M  V30 9 C 1.257 5.56322 2.86805 0
M  V30 10 H 1.49 2.90518 0.631377 0
M  V30 11 H -0.977 1.52953 0.210867 0
M  V30 12 H 0.981 2.67203 3.11629 0
M  V30 13 H -0.358 1.57376 2.7183 0
M  V30 14 H -1.165 3.90944 3.18086 0
M  V30 15 H -1.563 3.418 1.51819 0
M  V30 16 H 0.729 5.58782 3.83104 0
M  V30 17 H 1.672 6.56266 2.65933 0
M  V30 18 H 2.08 4.83886 2.90714 0
M  V30 19 N 1.4781 -0.272755 1.55222 0
M  V30 20 C 2.7181 -1.01197 1.77591 0
M  V30 21 C 3.0821 -1.8349 0.565294 0
M  V30 22 O 4.2831 -2.60387 0.667242 0
M  V30 23 C 2.5541 -1.87096 3.04516 0
M  V30 24 S 4.1131 -2.67279 3.48004 0
M  V30 25 H 0.9311 -0.340836 0.62398 0
M  V30 26 H 3.5331 -0.282374 1.9345 0
M  V30 27 H 2.2371 -1.25565 3.90719 0
M  V30 28 H 1.7681 -2.64376 2.91323 0
M  V30 29 H 3.7831 -3.89593 3.07297 0
M  V30 30 N 2.9562 -1.48159 -0.537278 0
M  V30 31 C 4.2332 -1.46291 -1.29839 0
M  V30 32 C 4.6132 -0.170613 -2.10409 0
M  V30 33 O 3.9612 0.847746 -2.12192 0
M  V30 34 C 4.1712 -2.72055 -2.18603 0
M  V30 35 C 5.5192 -3.20087 -2.7898 0
M  V30 36 O 6.5432 -2.72921 -2.28894 0
M  V30 37 O 5.4022 -4.02138 -3.70064 0
M  V30 38 H 2.4962 -0.583906 -0.585647 0
M  V30 39 H 5.0422 -1.60384 -0.554534 0
M  V30 40 H 3.8142 -3.57628 -1.58801 0
M  V30 41 H 3.4372 -2.60646 -3.00249 0
M  V30 42 N 4.4343 0.785586 -1.36625 0
M  V30 43 C 5.3643 1.91259 -1.33949 0
M  V30 44 C 6.3453 1.68795 -0.210325 0
M  V30 45 O 7.5303 1.89854 -0.408561 0
M  V30 46 C 4.6603 3.28339 -1.13186 0
M  V30 47 C 3.6143 3.65335 -2.22967 0
M  V30 48 C 2.9403 5.00806 -1.87342 0
M  V30 49 C 4.2403 3.7352 -3.65075 0
M  V30 50 H 5.9343 1.93755 -2.28253 0
M  V30 51 H 3.4803 0.930788 -1.09874 0
M  V30 52 H 5.4333 4.06804 -1.09948 0
M  V30 53 H 4.1573 3.2624 -0.153332 0
M  V30 54 H 2.8163 2.89169 -2.25337 0
M  V30 55 H 2.4643 4.95233 -0.880545 0
M  V30 56 H 2.1643 5.26529 -2.60846 0
M  V30 57 H 3.6883 5.81687 -1.85667 0
M  V30 58 H 5.1023 4.42168 -3.64911 0
M  V30 59 H 3.4993 4.10731 -4.37516 0
M  V30 60 H 4.5693 2.74527 -3.99703 0
M  V30 61 N 5.9124 1.20967 1.01018 0
M  V30 62 C 7.3234 1.02319 1.56165 0
M  V30 63 C 7.6744 -0.418546 1.91684 0
M  V30 64 O 6.7994 -1.30096 1.72928 0
M  V30 65 C 7.3944 1.85109 2.8376 0
M  V30 66 C 5.9534 1.70809 3.35412 0
M  V30 67 C 5.1004 1.82643 2.08655 0
M  V30 68 H 8.0514 1.35065 0.833255 0
M  V30 69 H 8.0724 1.35827 3.55431 0
M  V30 70 H 7.5844 2.90035 2.57878 0
M  V30 71 H 5.6854 0.685464 3.66241 0
M  V30 72 H 5.7984 2.52467 4.07182 0
M  V30 73 H 4.1624 1.25896 2.21409 0
M  V30 74 H 4.9454 2.89066 1.85191 0
M  V30 75 N 7.3905 -1.2043 1.01659 0
M  V30 76 C 8.3225 -2.22626 0.544988 0
M  V30 77 C 9.3355 -1.58479 -0.372609 0
M  V30 78 O 10.5245 -1.77679 -0.170958 0
M  V30 79 C 7.6245 -3.38141 -0.22663 0
M  V30 80 C 6.7975 -4.31877 0.692876 0
M  V30 81 C 5.8565 -5.26191 -0.0311616 0
M  V30 82 O 4.8825 -5.6612 0.591343 0
M  V30 83 N 6.0845 -5.65618 -1.30601 0
M  V30 84 H 8.8495 -2.63716 1.42388 0
M  V30 85 H 6.4105 -1.34971 0.894116 0
M  V30 86 H 8.4025 -3.98239 -0.72024 0
M  V30 87 H 6.9725 -2.95943 -1.00681 0
M  V30 88 H 6.1925 -3.69746 1.36679 0
M  V30 89 H 7.4805 -4.91426 1.31824 0
M  V30 90 H 6.8785 -5.3519 -1.83269 0
M  V30 91 H 5.4355 -6.28025 -1.74435 0
M  V30 92 N 8.8686 -0.792821 -1.36206 0
M  V30 93 C 10.0966 -0.378825 -2.03402 0
M  V30 94 C 10.5116 1.00586 -1.59774 0
M  V30 95 O 9.8686 1.64574 -0.788764 0
M  V30 96 C 9.9196 -0.43683 -3.58851 0
M  V30 97 O 9.6406 -1.76691 -4.00889 0
M  V30 98 C 11.1416 -0.0138943 -4.43298 0
M  V30 99 H 8.3616 -0.155673 -0.652692 0
M  V30 100 H 10.9056 -1.07261 -1.74113 0
M  V30 101 H 9.0606 0.208575 -3.86838 0
M  V30 102 H 9.4746 -1.72011 -4.95492 0
M  V30 103 H 10.9486 -0.105615 -5.51899 0
M  V30 104 H 11.4256 1.03915 -4.2673 0
M  V30 105 H 12.0316 -0.63192 -4.20579 0
M  V30 106 N 10.3467 1.47872 -0.545128 0
M  V30 107 C 11.2967 2.26842 0.229456 0
M  V30 108 C 12.2807 1.33626 0.896267 0
M  V30 109 O 13.4727 1.58063 0.79657 0
M  V30 110 C 10.6017 3.19089 1.26638 0
M  V30 111 C 9.6877 4.19783 0.603598 0
M  V30 112 N 10.0787 5.0479 -0.319405 0
M  V30 113 C 8.3767 4.3765 0.858989 0
M  V30 114 C 9.0777 5.77433 -0.703241 0
M  V30 115 N 8.0537 5.43566 -0.0608309 0
M  V30 116 H 11.8557 2.89947 -0.480391 0
M  V30 117 H 9.3697 1.58263 -0.364209 0
M  V30 118 H 11.3667 3.74337 1.83515 0
M  V30 119 H 10.0267 2.5754 1.97745 0
M  V30 120 H 11.0377 5.13244 -0.692889 0
M  V30 121 H 7.7147 3.87281 1.55948 0
M  V30 122 H 9.1047 6.55824 -1.46098 0
M  V30 123 N 11.8248 0.280983 1.55075 0
M  V30 124 C 13.0498 -0.340154 2.04592 0
M  V30 125 C 13.4748 -1.48246 1.15779 0
M  V30 126 O 12.8328 -1.80614 0.15761 0
M  V30 127 C 12.8808 -0.793104 3.5177 0
M  V30 128 O 11.9848 -1.89981 3.66034 0
M  V30 129 H 11.3258 -0.0694289 0.66036 0
M  V30 130 H 13.8558 0.416993 2.00306 0
M  V30 131 H 13.8658 -1.08729 3.93245 0
M  V30 132 H 12.5408 0.0426163 4.15878 0
M  V30 133 H 11.1178 -1.60771 3.36463 0
M  V30 134 N 13.3029 -1.57598 0.00835791 0
M  V30 135 C 14.2329 -2.1198 -0.979113 0
M  V30 136 C 15.2139 -1.03091 -1.35301 0
M  V30 137 O 16.3989 -1.30818 -1.43528 0
M  V30 138 C 13.5289 -2.62995 -2.26828 0
M  V30 139 C 12.4829 -3.76485 -2.03576 0
M  V30 140 C 11.8089 -4.13846 -3.38579 0
M  V30 141 C 13.1089 -5.0342 -1.39161 0
M  V30 142 H 14.8029 -2.94738 -0.526281 0
M  V30 143 H 12.3489 -1.41783 -0.251704 0
M  V30 144 H 14.3019 -2.99669 -2.96271 0
M  V30 145 H 13.0259 -1.7737 -2.7424 0
M  V30 146 H 11.6849 -3.40217 -1.36557 0
M  V30 147 H 11.3329 -3.25232 -3.83709 0
M  V30 148 H 11.0329 -4.90312 -3.23834 0
M  V30 149 H 12.5569 -4.53086 -4.09323 0
M  V30 150 H 13.9709 -5.37812 -1.98573 0
M  V30 151 H 12.3679 -5.84746 -1.34878 0
M  V30 152 H 13.4379 -4.83548 -0.361868 0
M  V30 153 N 14.781 0.264519 -1.55364 0
M  V30 154 C 16.029 0.993021 -1.76021 0
M  V30 155 C 16.35 1.86511 -0.569099 0
M  V30 156 O 15.62 1.91438 0.415735 0
M  V30 157 H 14.2 0.369639 -0.649135 0
M  V30 158 H 16.862 0.286707 -1.9278 0
M  V30 159 H 15.958 1.62502 -2.66457 0
M  V30 160 N 16.2591 1.48442 0.529413 0
M  V30 161 C 17.2071 1.63452 1.65487 0
M  V30 162 C 18.2011 0.500955 1.61823 0
M  V30 163 O 19.4071 0.679695 1.66674 0
M  V30 164 H 15.7821 0.514905 0.548066 0
M  V30 165 H 17.7531 2.57975 1.49971 0
M  V30 166 C 16.5021 1.69196 3.03756 0
M  V30 167 H 15.8251 2.55784 3.07269 0
M  V30 168 H 17.2651 1.83743 3.82119 0
M  V30 169 C 15.7241 0.430765 3.34135 0
M  V30 170 O 16.2541 -0.4561 3.99102 0
M  V30 171 N 14.4601 0.302293 2.89023 0
M  V30 172 H 14.0071 1.02496 2.36331 0
M  V30 173 H 13.9651 -0.540546 3.09718 0
M  V30 174 N 17.7372 -0.778329 1.37039 0
M  V30 175 C 19.1532 -1.07796 1.17695 0
M  V30 176 C 19.3532 -2.01498 0.00860115 0
M  V30 177 O 18.4092 -2.43901 -0.653352 0
M  V30 178 C 19.7222 -1.68178 2.49272 0
M  V30 179 C 21.2702 -1.80467 2.55735 0
M  V30 180 C 21.7452 -2.44263 3.87427 0
M  V30 181 N 23.2362 -2.51721 3.88833 0
M  V30 182 C 23.9712 -3.01919 4.87476 0
M  V30 183 N 23.4672 -3.5234 5.96513 0
M  V30 184 N 25.2602 -3.00733 4.74885 0
M  V30 185 H 17.4112 -0.156032 2.11826 0
M  V30 186 H 19.6742 -0.131844 0.938787 0
M  V30 187 H 19.3802 -1.06796 3.35093 0
M  V30 188 H 19.2542 -2.67554 2.65885 0
M  V30 189 H 21.6412 -2.40984 1.70325 0
M  V30 190 H 21.7222 -0.798656 2.43013 0
M  V30 191 H 21.3662 -1.84388 4.73248 0
M  V30 192 H 21.2962 -3.45458 3.9745 0
M  V30 193 H 23.7872 -2.1603 3.10063 0
M  V30 194 H 24.1002 -3.89027 6.67741 0
M  V30 195 H 22.4452 -3.50462 6.00168 0
M  V30 196 H 25.6362 -2.60638 3.88826 0
M  V30 197 H 25.8092 -3.39545 5.51918 0
M  V30 198 N 19.2153 -1.21501 -1.00376 0
M  V30 199 C 20.6313 -0.972629 -1.26539 0
M  V30 200 C 20.8313 0.340257 -1.98606 0
M  V30 201 O 19.8873 1.06561 -2.28913 0
M  V30 202 C 21.2003 -2.16404 -2.08781 0
M  V30 203 C 22.7483 -2.20643 -2.22004 0
M  V30 204 C 23.2233 -3.39306 -3.07629 0
M  V30 205 N 24.7143 -3.39401 -3.15217 0
M  V30 206 C 25.4493 -4.27867 -3.81729 0
M  V30 207 N 24.9453 -5.26533 -4.5026 0
M  V30 208 N 26.7383 -4.15672 -3.78382 0
M  V30 209 H 18.8893 -2.05929 -0.520281 0
M  V30 210 H 21.1523 -0.901803 -0.292328 0
M  V30 211 H 20.8583 -3.11554 -1.63178 0
M  V30 212 H 20.7323 -2.15567 -3.09533 0
M  V30 213 H 23.1193 -1.26048 -2.66825 0
M  V30 214 H 23.2003 -2.25523 -1.20718 0
M  V30 215 H 22.8443 -4.34195 -2.63509 0
M  V30 216 H 22.7743 -3.31665 -4.09031 0
M  V30 217 H 25.2653 -2.67997 -2.66432 0
M  V30 218 H 25.5783 -5.90337 -4.98721 0
M  V30 219 H 23.9233 -5.30457 -4.49044 0
M  V30 220 H 27.1143 -3.3785 -3.23998 0
M  V30 221 H 27.2873 -4.84825 -4.2994 0
M  V30 222 N 20.6934 1.19889 -1.02296 0
M  V30 223 C 21.6564 2.21116 -0.603351 0
M  V30 224 C 22.6564 1.5738 0.329884 0
M  V30 225 O 23.8464 1.73802 0.117702 0
M  V30 226 C 20.9784 3.40696 0.117992 0
M  V30 227 H 22.1714 2.59754 -1.49893 0
M  V30 228 H 19.7244 1.33463 -0.813468 0
M  V30 229 H 20.4594 3.07569 1.0282 0
M  V30 230 H 20.2444 3.88188 -0.552511 0
M  V30 231 H 21.7344 4.15692 0.398696 0
M  V30 232 N 22.1715 0.800033 1.35784 0
M  V30 233 C 23.1015 0.220184 2.3246 0
M  V30 234 C 24.0825 -0.65073 1.57161 0
M  V30 235 O 25.2675 -0.582359 1.85263 0
M  V30 236 C 22.3975 -0.637353 3.41402 0
M  V30 237 C 21.3515 0.134531 4.27789 0
M  V30 238 C 20.6775 -0.844285 5.27992 0
M  V30 239 C 21.9775 1.32979 5.05088 0
M  V30 240 H 23.6715 1.02787 2.81203 0
M  V30 241 H 21.2175 0.495717 1.35199 0
M  V30 242 H 23.1705 -1.05302 4.08031 0
M  V30 243 H 21.8945 -1.47785 2.91251 0
M  V30 244 H 20.5535 0.531296 3.6273 0
M  V30 245 H 20.2015 -1.68011 4.74111 0
M  V30 246 H 19.9015 -0.332184 5.8666 0
M  V30 247 H 21.4255 -1.2583 5.97494 0
M  V30 248 H 22.8395 0.98934 5.64699 0
M  V30 249 H 21.2365 1.77593 5.7322 0
M  V30 250 H 22.3065 2.11978 4.36111 0
M  V30 251 N 23.6496 -1.47581 0.552962 0
M  V30 252 C 24.8986 -2.01684 0.0251995 0
M  V30 253 C 25.2116 -1.43317 -1.33115 0
M  V30 254 O 26.4176 -1.89057 -1.94858 0
M  V30 255 C 24.8736 -3.599 -0.00542052 0
M  V30 256 C 24.4816 -4.27257 1.34742 0
M  V30 257 C 26.2256 -4.21768 -0.4808 0
M  V30 258 C 24.1326 -5.77467 1.27614 0
M  V30 259 H 23.0626 -0.753979 0.00565033 0
M  V30 260 H 25.7136 -1.69616 0.70018 0
M  V30 261 H 24.0956 -3.88911 -0.745961 0
M  V30 262 H 25.2696 -4.09893 2.10534 0
M  V30 263 H 23.5846 -3.77358 1.76039 0
M  V30 264 H 26.1816 -5.31838 -0.55246 0
M  V30 265 H 26.5246 -3.88651 -1.49184 0
M  V30 266 H 27.0576 -3.97273 0.204752 0
M  V30 267 H 23.7966 -6.15196 2.26304 0
M  V30 268 H 23.3166 -5.9718 0.55996 0
M  V30 269 H 24.9956 -6.3959 0.976421 0
M  V30 270 N 25.1277 -0.289203 -1.54924 0
M  V30 271 C 26.0577 0.58549 -2.2604 0
M  V30 272 C 27.0387 1.14753 -1.25562 0
M  V30 273 O 28.2237 1.17906 -1.54311 0
M  V30 274 C 25.3537 1.76305 -2.99222 0
M  V30 275 C 24.3077 1.33191 -4.06748 0
M  V30 276 C 23.6337 2.5937 -4.6758 0
M  V30 277 C 24.9337 0.471775 -5.20165 0
M  V30 278 H 26.6277 -0.00763532 -2.99399 0
M  V30 279 H 24.1737 -0.00511229 -1.43999 0
M  V30 280 H 26.1267 2.38097 -3.47689 0
M  V30 281 H 24.8507 2.38223 -2.23422 0
M  V30 282 H 23.5097 0.737121 -3.59113 0
M  V30 283 H 23.1577 3.19576 -3.88433 0
M  V30 284 H 22.8577 2.31228 -5.40192 0
M  V30 285 H 24.3817 3.21985 -5.18804 0
M  V30 286 H 25.7957 0.995056 -5.64599 0
M  V30 287 H 24.1927 0.284639 -5.99425 0
M  V30 288 H 25.2627 -0.506041 -4.82252 0
M  V30 289 N 26.6058 1.57591 -0.0167156 0
M  V30 290 C 27.5358 2.12496 0.967858 0
M  V30 291 C 28.5168 1.03807 1.34752 0
M  V30 292 O 29.7018 1.31577 1.42833 0
M  V30 293 C 26.8318 2.64194 2.25431 0
M  V30 294 C 25.7858 3.77559 2.01576 0
M  V30 295 C 25.1118 4.15636 3.36379 0
M  V30 296 C 26.4118 5.04151 1.36489 0
M  V30 297 H 28.1058 2.95013 0.510643 0
M  V30 298 H 25.6518 1.41915 0.244181 0
M  V30 299 H 27.6048 3.01236 2.94678 0
M  V30 300 H 26.3288 1.78821 2.73296 0
M  V30 301 H 24.9878 3.40937 1.34751 0
M  V30 302 H 24.6358 3.27263 3.81979 0
M  V30 303 H 24.3358 4.92022 3.21229 0
M  V30 304 H 25.8598 4.5525 4.06915 0
M  V30 305 H 27.2738 5.38857 1.95718 0
M  V30 306 H 25.6708 5.85453 1.31776 0
M  V30 307 H 26.7408 4.83733 0.336219 0
M  V30 308 N 28.0839 -0.256276 1.55502 0
M  V30 309 C 29.0469 -1.30047 1.88734 0
M  V30 310 C 30.0469 -1.4154 0.763086 0
M  V30 311 O 31.2369 -1.40403 1.03115 0
M  V30 312 C 28.3689 -2.67953 2.10747 0
M  V30 313 H 29.5619 -1.01802 2.82093 0
M  V30 314 H 27.1149 -0.495134 1.4825 0
M  V30 315 H 27.8499 -3.01351 1.19825 0
M  V30 316 H 27.6349 -2.60993 2.92617 0
M  V30 317 H 29.1249 -3.43368 2.37673 0
M  V30 318 N 29.562 -1.4872 -0.521534 0
M  V30 319 C 30.494 -1.59968 -1.64143 0
M  V30 320 C 31.507 -0.483463 -1.55456 0
M  V30 321 O 32.696 -0.75467 -1.61762 0
M  V30 322 C 29.796 -1.52127 -3.02838 0
M  V30 323 C 28.969 -2.78932 -3.36921 0
M  V30 324 C 28.028 -2.64428 -4.54933 0
M  V30 325 O 27.054 -3.38331 -4.57735 0
M  V30 326 N 28.256 -1.74606 -5.53618 0
M  V30 327 H 31.021 -2.56548 -1.54929 0
M  V30 328 H 28.582 -1.45551 -0.708988 0
M  V30 329 H 30.574 -1.40106 -3.79674 0
M  V30 330 H 29.144 -0.634868 -3.06085 0
M  V30 331 H 28.364 -3.05455 -2.4918 0
M  V30 332 H 29.652 -3.63041 -3.56481 0
M  V30 333 H 29.05 -1.13782 -5.54139 0
M  V30 334 H 27.607 -1.6852 -6.29638 0
M  V30 335 N 31.0401 0.771051 -1.3745 0
M  V30 336 C 31.9731 1.89166 -1.27638 0
M  V30 337 C 32.9511 1.61842 -0.156782 0
M  V30 338 O 34.1351 1.85569 -0.331111 0
M  V30 339 C 31.2621 3.24405 -0.973621 0
M  V30 340 C 30.3081 3.70638 -2.1102 0
M  V30 341 S 31.1411 3.84228 -3.73 0
M  V30 342 C 32.2971 5.22313 -3.44876 0
M  V30 343 H 32.5301 1.972 -2.22485 0
M  V30 344 H 30.0631 0.932224 -1.23081 0
M  V30 345 H 32.0211 4.02514 -0.805766 0
M  V30 346 H 30.6821 3.14071 -0.0426279 0
M  V30 347 H 29.8751 4.68685 -1.85338 0
M  V30 348 H 29.4771 2.99632 -2.23822 0
M  V30 349 H 31.7691 6.07505 -2.99908 0
M  V30 350 H 32.7121 5.53008 -4.42253 0
M  V30 351 H 33.1201 4.90284 -2.79789 0
M  V30 352 N 32.5182 1.22032 0.997298 0
M  V30 353 C 33.9342 0.979326 1.26021 0
M  V30 354 C 34.1342 -0.32972 1.98784 0
M  V30 355 O 33.1902 -1.05345 2.29475 0
M  V30 356 C 34.5032 2.17509 2.07631 0
M  V30 357 C 36.0512 2.21817 2.2083 0
M  V30 358 C 36.5262 3.40933 3.05825 0
M  V30 359 N 38.0172 3.41067 3.13412 0
M  V30 360 C 38.7522 4.29885 3.79455 0
M  V30 361 N 38.2482 5.28914 4.47462 0
M  V30 362 N 40.0412 4.17673 3.76173 0
M  V30 363 H 32.1922 2.06202 0.509352 0
M  V30 364 H 34.4552 0.90334 0.287541 0
M  V30 365 H 34.1612 3.12415 1.61524 0
M  V30 366 H 34.0352 2.17206 3.08385 0
M  V30 367 H 36.4222 1.27462 2.66153 0
M  V30 368 H 36.5032 2.2616 1.1952 0
M  V30 369 H 36.1472 4.35586 2.61203 0
M  V30 370 H 36.0772 3.33829 4.07266 0
M  V30 371 H 38.5682 2.69406 2.65007 0
M  V30 372 H 38.8812 5.92973 4.95583 0
M  V30 373 H 37.2262 5.32831 4.46224 0
M  V30 374 H 40.4172 3.39564 3.22202 0
M  V30 375 H 40.5902 4.87098 4.27363 0
M  V30 376 N 33.9963 -1.19345 1.0293 0
M  V30 377 C 35.4123 -1.41069 0.746446 0
M  V30 378 C 35.6123 -1.90078 -0.668776 0
M  V30 379 O 34.6683 -2.0778 -1.4347 0
M  V30 380 C 35.9813 -2.42141 1.78292 0
M  V30 381 C 37.5293 -2.55887 1.80252 0
M  V30 382 C 38.0043 -3.60214 2.8286 0
M  V30 383 N 39.4953 -3.67711 2.81679 0
M  V30 384 C 40.2303 -4.48128 3.57727 0
M  V30 385 N 39.7263 -5.32248 4.43491 0
M  V30 386 N 41.5193 -4.42782 3.46267 0
M  V30 387 H 33.6703 -0.858536 1.94275 0
M  V30 388 H 35.9333 -0.439541 0.839945 0
M  V30 389 H 35.6393 -2.13155 2.79746 0
M  V30 390 H 35.5133 -3.41323 1.60557 0
M  V30 391 H 37.9003 -2.84196 0.794757 0
M  V30 392 H 37.9813 -1.56858 2.02062 0
M  V30 393 H 37.6253 -3.32647 3.83807 0
M  V30 394 H 37.5553 -4.58895 2.58307 0
M  V30 395 H 40.0463 -3.07634 2.19476 0
M  V30 396 H 40.3593 -5.90729 4.98256 0
M  V30 397 H 38.7043 -5.31707 4.47564 0
M  V30 398 H 41.8953 -3.76107 2.78677 0
M  V30 399 H 42.0683 -5.05215 4.05785 0
M  V30 400 N 35.4744 -0.807222 -1.35358 0
M  V30 401 C 36.7234 -0.384376 -1.98004 0
M  V30 402 C 37.0364 1.0543 -1.64754 0
M  V30 403 O 38.2424 1.58029 -2.20769 0
M  V30 404 C 36.6984 -0.636326 -3.5423 0
M  V30 405 C 36.3064 -2.08759 -3.96388 0
M  V30 406 C 38.0504 -0.278869 -4.23583 0
M  V30 407 C 35.9574 -2.28525 -5.45463 0
M  V30 408 H 34.8874 -0.139986 -0.740891 0
M  V30 409 H 37.5384 -0.991369 -1.54415 0
M  V30 410 H 35.9204 0.0406256 -3.95979 0
M  V30 411 H 37.0944 -2.8024 -3.6579 0
M  V30 412 H 35.4094 -2.40497 -3.39926 0
M  V30 413 H 38.0064 -0.404599 -5.33167 0
M  V30 414 H 38.3494 0.775012 -4.09022 0
M  V30 415 H 38.8824 -0.909764 -3.87257 0
M  V30 416 H 35.6214 -3.32361 -5.64992 0
M  V30 417 H 35.1414 -1.61569 -5.77629 0
M  V30 418 H 36.8204 -2.10109 -6.11934 0
M  V30 419 N 36.9525 1.47285 -0.560781 0
M  V30 420 C 38.1775 2.07359 -0.0410566 0
M  V30 421 C 38.6025 1.41017 1.24483 0
M  V30 422 O 37.9605 0.486368 1.74654 0
M  V30 423 C 38.0085 3.6035 0.134123 0
M  V30 424 O 37.1125 3.94681 1.19587 0
M  V30 425 H 36.4535 0.661887 -0.0529291 0
M  V30 426 H 38.9835 1.89252 -0.777482 0
M  V30 427 H 38.9935 4.0652 0.347207 0
M  V30 428 H 37.6685 4.08034 -0.805047 0
M  V30 429 H 36.2455 3.60251 0.962987 0
M  V30 430 N 38.4306 0.297415 1.54768 0
M  V30 431 C 39.8416 -0.195947 1.85669 0
M  V30 432 C 40.1926 -1.53707 1.21937 0
M  V30 433 O 39.3176 -2.10164 0.515754 0
M  V30 434 C 39.9126 -0.362318 3.36857 0
M  V30 435 C 38.4716 -0.799901 3.67802 0
M  V30 436 C 37.6186 0.0938578 2.77141 0
M  V30 437 H 40.5696 0.518538 1.4999 0
M  V30 438 H 40.5906 -1.19745 3.61167 0
M  V30 439 H 40.1026 0.613921 3.83214 0
M  V30 440 H 38.2036 -1.78682 3.26961 0
M  V30 441 H 38.3166 -0.621773 4.75048 0
M  V30 442 H 36.6806 -0.426254 2.51108 0
M  V30 443 H 37.4636 1.06639 3.26318 0
M  V30 444 N 39.9087 -1.5758 0.0250728 0
M  V30 445 C 41.1557 -1.91633 -0.654444 0
M  V30 446 C 41.4837 -0.901103 -1.72367 0
M  V30 447 O 40.7387 0.0905647 -1.9549 0
M  V30 448 C 41.0377 -3.32421 -1.31268 0
M  V30 449 C 40.7037 -4.49344 -0.374223 0
M  V30 450 C 39.3657 -4.8106 -0.115911 0
M  V30 451 C 41.7177 -5.20498 0.270432 0
M  V30 452 C 39.0457 -5.8129 0.79493 0
M  V30 453 C 41.3977 -6.21699 1.1693 0
M  V30 454 C 40.0617 -6.51859 1.43655 0
M  V30 455 H 39.3317 -0.701236 -0.239478 0
M  V30 456 H 41.9787 -1.91307 0.0859734 0
M  V30 457 H 40.2837 -3.28989 -2.12775 0
M  V30 458 H 41.9807 -3.56038 -1.84494 0
M  V30 459 H 38.5707 -4.24579 -0.58573 0
M  V30 460 H 42.7547 -4.96229 0.0839194 0
M  V30 461 H 38.0107 -6.03005 1.00973 0
M  V30 462 H 42.1847 -6.75955 1.67504 0
M  V30 463 H 39.8117 -7.2934 2.144 0
M  V30 464 N 41.3868 0.248026 -1.55636 0
M  V30 465 C 42.6118 0.998028 -1.81808 0
M  V30 466 C 43.0368 1.78207 -0.601979 0
M  V30 467 O 42.3948 1.75653 0.448961 0
M  V30 468 C 42.4428 1.9125 -3.05705 0
M  V30 469 O 41.5468 3.00406 -2.82542 0
M  V30 470 H 40.8878 0.284045 -0.600179 0
M  V30 471 H 43.4178 0.269357 -2.02819 0
M  V30 472 H 43.4278 2.32737 -3.35108 0
M  V30 473 H 42.1028 1.33602 -3.93857 0
M  V30 474 H 40.6798 2.63056 -2.64303 0
M  V30 475 N 42.8649 1.48995 0.513639 0
M  V30 476 C 44.1049 1.59452 1.27885 0
M  V30 477 C 44.4689 0.269479 1.90099 0
M  V30 478 O 45.6699 0.249139 2.67643 0
M  V30 479 C 43.9409 2.71277 2.32688 0
M  V30 480 S 45.4999 3.01604 3.18717 0
M  V30 481 H 42.3179 0.562565 0.434789 0
M  V30 482 H 44.9199 1.86595 0.583301 0
M  V30 483 H 43.6239 3.66089 1.8549 0
M  V30 484 H 43.1549 2.46086 3.06929 0
M  V30 485 H 45.1699 2.42155 4.331 0
M  V30 486 N 44.343 -0.763751 1.37857 0
M  V30 487 C 45.273 -1.89103 1.36975 0
M  V30 488 C 46.254 -1.68439 0.237152 0
M  V30 489 O 47.439 -1.8918 0.438713 0
M  V30 490 C 44.569 -3.26496 1.18395 0
M  V30 491 C 43.523 -3.61741 2.28751 0
M  V30 492 C 42.849 -4.97762 1.95286 0
M  V30 493 C 44.149 -3.67665 3.70972 0
M  V30 494 H 45.843 -1.90099 2.31307 0
M  V30 495 H 43.389 -0.91319 1.11341 0
M  V30 496 H 45.342 -4.05003 1.16406 0
M  V30 497 H 44.066 -3.25955 0.205215 0
M  V30 498 H 42.725 -2.85547 2.29909 0
M  V30 499 H 42.373 -4.93769 0.959221 0
M  V30 500 H 42.073 -5.22313 2.69189 0
M  V30 501 H 43.597 -5.7866 1.94898 0
M  V30 502 H 45.011 -4.36307 3.719 0
M  V30 503 H 43.408 -4.03718 4.43995 0
M  V30 504 H 44.478 -2.68134 4.0402 0
M  V30 505 N 45.8211 -1.22559 -0.990812 0
M  V30 506 C 46.7681 -0.997519 -2.0813 0
M  V30 507 C 47.7381 0.0814702 -1.659 0
M  V30 508 O 48.9231 -0.0685424 -1.90677 0
M  V30 509 C 46.0631 -0.583615 -3.40129 0
M  V30 510 C 45.1761 -1.7336 -3.9569 0
M  V30 511 C 44.3111 -1.26748 -5.15857 0
M  V30 512 C 43.3501 -2.38888 -5.63559 0
M  V30 513 N 42.4871 -1.93308 -6.74964 0
M  V30 514 H 47.3271 -1.93099 -2.26973 0
M  V30 515 H 44.8641 -0.962114 -1.11273 0
M  V30 516 H 46.8221 -0.324801 -4.15934 0
M  V30 517 H 45.4521 0.312845 -3.2128 0
M  V30 518 H 44.5041 -2.10669 -3.16738 0
M  V30 519 H 45.8161 -2.57704 -4.27071 0
M  V30 520 H 44.9701 -0.966173 -5.98957 0
M  V30 521 H 43.7091 -0.394272 -4.86104 0
M  V30 522 H 42.7141 -2.69805 -4.79046 0
M  V30 523 H 43.9391 -3.26728 -5.95336 0
M  V30 524 H 41.8851 -1.08352 -6.4699 0
M  V30 525 H 41.8021 -2.71217 -7.05675 0
M  V30 526 H 43.0701 -1.66252 -7.61564 0
M  V30 527 N 47.2992 1.18797 -1.03562 0
M  V30 528 C 48.5762 1.84469 -0.650434 0
M  V30 529 C 48.9562 1.92319 0.870433 0
M  V30 530 O 48.3042 1.44528 1.76986 0
M  V30 531 C 48.5142 3.2306 -1.32036 0
M  V30 532 C 49.8622 3.9915 -1.44792 0
M  V30 533 O 50.8862 3.32481 -1.27806 0
M  V30 534 O 49.7452 5.18587 -1.72423 0
M  V30 535 H 46.8392 0.795251 -0.226946 0
M  V30 536 H 49.3852 1.26231 -1.13419 0
M  V30 537 H 48.1572 3.1222 -2.3587 0
M  V30 538 H 47.7802 3.88949 -0.8249 0
M  V30 539 N 48.7773 0.814389 1.34928 0
M  V30 540 C 50.1933 0.499084 1.51596 0
M  V30 541 C 50.3933 -0.978319 1.76157 0
M  V30 542 O 49.4493 -1.76309 1.80752 0
M  V30 543 C 50.7623 1.35121 2.68631 0
M  V30 544 C 52.3103 1.34746 2.82511 0
M  V30 545 C 52.7853 2.18388 4.0258 0
M  V30 546 N 54.2763 2.15966 4.09772 0
M  V30 547 C 55.0113 2.77437 5.01813 0
M  V30 548 N 54.5073 3.47866 5.99134 0
M  V30 549 N 56.3003 2.67037 4.94619 0
M  V30 550 H 48.4513 1.7711 1.17243 0
M  V30 551 H 50.7143 0.754256 0.574284 0
M  V30 552 H 50.4203 2.40001 2.57085 0
M  V30 553 H 50.2943 1.00991 3.63429 0
M  V30 554 H 52.6813 0.30648 2.93504 0
M  V30 555 H 52.7623 1.72869 1.88547 0
M  V30 556 H 52.4063 3.2253 3.92347 0
M  V30 557 H 52.3363 1.77621 4.9574 0
M  V30 558 H 54.8273 1.64729 3.40107 0
M  V30 559 H 55.1403 3.92038 6.65977 0
M  V30 560 H 53.4853 3.51972 5.99284 0
M  V30 561 H 56.6763 2.11597 4.17546 0
M  V30 562 H 56.8493 3.15232 5.66156 0
M  V30 563 N 50.2554 -1.46986 0.568584 0
M  V30 564 C 51.2054 -2.27179 -0.193339 0
M  V30 565 C 52.1894 -1.35035 -0.874895 0
M  V30 566 O 53.3814 -1.5931 -0.771322 0
M  V30 567 C 50.5104 -3.21063 -1.21546 0
M  V30 568 C 49.5964 -4.2069 -0.536738 0
M  V30 569 N 49.9874 -5.04218 0.399673 0
M  V30 570 C 48.2854 -4.38961 -0.789254 0
M  V30 571 C 48.9864 -5.76242 0.795017 0
M  V30 572 N 47.9624 -5.434 0.1473 0
M  V30 573 H 51.7644 -2.89146 0.526458 0
M  V30 574 H 49.2784 -1.57664 0.389342 0
M  V30 575 H 51.2754 -3.77209 -1.77536 0
M  V30 576 H 49.9354 -2.60654 -1.93623 0
M  V30 577 H 50.9464 -5.12077 0.774454 0
M  V30 578 H 47.6234 -3.89713 -1.49767 0
M  V30 579 H 49.0134 -6.53417 1.56513 0
M  V30 580 N 51.7335 -0.305618 -1.54608 0
M  V30 581 C 53.0105 0.355652 -1.92339 0
M  V30 582 C 53.3905 1.71324 -1.23335 0
M  V30 583 O 52.7385 2.25473 -0.370702 0
M  V30 584 C 52.9485 0.46572 -3.45879 0
M  V30 585 C 54.2965 0.734426 -4.182 0
M  V30 586 O 55.3205 0.54935 -3.51938 0
M  V30 587 O 54.1795 1.09024 -5.35515 0
M  V30 588 H 51.2735 0.199666 -0.802535 0
M  V30 589 H 53.8195 -0.354017 -1.65966 0
M  V30 590 H 52.5915 -0.488461 -3.88239 0
M  V30 591 H 52.2145 1.22367 -3.78301 0
M  V30 592 N 53.2116 1.57565 -0.0334293 0
M  V30 593 C 54.4586 1.91978 0.644272 0
M  V30 594 C 54.7866 0.910231 1.71887 0
M  V30 595 O 54.0416 -0.0801961 1.95536 0
M  V30 596 C 54.3406 3.33112 1.29504 0
M  V30 597 C 54.0066 4.49537 0.350388 0
M  V30 598 C 52.6686 4.81115 0.0903974 0
M  V30 599 C 55.0206 5.20347 -0.298032 0
M  V30 600 C 52.3486 5.8086 -0.825746 0
M  V30 601 C 54.7006 6.2107 -1.20226 0
M  V30 602 C 53.3646 6.51088 -1.4711 0
M  V30 603 H 52.6346 0.702496 0.235756 0
M  V30 604 H 55.2816 1.91259 -0.0961176 0
M  V30 605 H 53.5866 3.30113 2.11028 0
M  V30 606 H 55.2836 3.57011 1.82603 0
M  V30 607 H 51.8736 4.24883 0.563205 0
M  V30 608 H 56.0576 4.96178 -0.110234 0
M  V30 609 H 51.3136 6.02461 -1.04169 0
M  V30 610 H 55.4876 6.75057 -1.71086 0
M  V30 611 H 53.1146 7.28193 -2.18264 0
M  V30 612 N 54.6897 -0.239769 1.55765 0
M  V30 613 C 55.9377 -0.964892 1.77579 0
M  V30 614 C 56.2587 -1.85582 0.598699 0
M  V30 615 O 55.5287 -1.92075 -0.385226 0
M  V30 616 H 54.1087 -0.359265 0.654933 0
M  V30 617 H 56.7707 -0.256001 1.93211 0
M  V30 618 H 55.8667 -1.58243 2.69009 0
M  V30 619 N 56.1678 -1.49265 -0.50573 0
M  V30 620 C 57.4148 -1.58513 -1.26015 0
M  V30 621 C 57.7428 -0.26972 -1.92621 0
M  V30 622 O 56.9978 0.741997 -1.81088 0
M  V30 623 C 57.2968 -2.69008 -2.35308 0
M  V30 624 C 56.9628 -4.10662 -1.86192 0
M  V30 625 C 55.6248 -4.49212 -1.72516 0
M  V30 626 C 57.9768 -4.99336 -1.49375 0
M  V30 627 C 55.3048 -5.74214 -1.20394 0
M  V30 628 C 57.6568 -6.24852 -0.987072 0
M  V30 629 C 56.3208 -6.62236 -0.836669 0
M  V30 630 H 55.5908 -0.580041 -0.461122 0
M  V30 631 H 58.2378 -1.83078 -0.561665 0
M  V30 632 H 56.5428 -2.38396 -3.10926 0
M  V30 633 H 58.2398 -2.73373 -2.93374 0
M  V30 634 H 54.8298 -3.8023 -1.97795 0
M  V30 635 H 59.0138 -4.70212 -1.5879 0
M  V30 636 H 54.2698 -6.01883 -1.07458 0
M  V30 637 H 58.4438 -6.92944 -0.692983 0
M  V30 638 H 56.0708 -7.58979 -0.430607 0
M  V30 639 N 57.6459 0.756429 -1.3826 0
M  V30 640 C 59.0569 1.33359 -1.30661 0
M  V30 641 C 59.4079 1.96161 0.0388875 0
M  V30 642 O 58.5329 1.94874 0.940918 0
M  V30 643 C 59.1279 2.42477 -2.36622 0
M  V30 644 C 57.6869 2.95922 -2.3261 0
M  V30 645 C 56.8339 1.69275 -2.19639 0
M  V30 646 H 59.7849 0.55552 -1.4866 0
M  V30 647 H 59.8059 3.22345 -2.02174 0
M  V30 648 H 59.3179 1.96739 -3.34538 0
M  V30 649 H 57.4189 3.45996 -1.38267 0
M  V30 650 H 57.5319 3.50494 -3.26636 0
M  V30 651 H 55.8959 1.92793 -1.66442 0
M  V30 652 H 56.6789 1.25619 -3.19491 0
M  V30 653 N 59.124 1.23083 0.984299 0
M  V30 654 C 60.056 0.96636 2.07832 0
M  V30 655 C 61.069 -0.0582135 1.62696 0
M  V30 656 O 62.258 0.176843 1.77622 0
M  V30 657 C 59.358 0.433397 3.36117 0
M  V30 658 C 58.531 1.51722 4.10243 0
M  V30 659 C 57.59 0.989821 5.16807 0
M  V30 660 O 56.616 1.67794 5.43906 0
M  V30 661 N 57.818 -0.184367 5.80207 0
M  V30 662 H 60.583 1.90824 2.31098 0
M  V30 663 H 58.144 1.13888 1.1507 0
M  V30 664 H 60.136 0.065699 4.04647 0
M  V30 665 H 58.706 -0.413806 3.09849 0
M  V30 666 H 57.926 2.05786 3.36223 0
M  V30 667 H 59.214 2.24619 4.56534 0
M  V30 668 H 58.612 -0.760062 5.60571 0
M  V30 669 H 57.169 -0.493366 6.4993 0
M  V30 670 N 60.6021 -1.18246 1.0419 0
M  V30 671 C 61.5121 -2.25574 0.644476 0
M  V30 672 C 62.5281 -1.70845 -0.329826 0
M  V30 673 O 63.7041 -2.00554 -0.184443 0
M  V30 674 C 60.7691 -3.46697 0.014877 0
M  V30 675 C 59.8301 -4.16554 1.03834 0
M  V30 676 C 59.0631 -5.31894 0.438692 0
M  V30 677 O 59.2861 -5.65385 -0.754752 0
M  V30 678 O 58.2201 -5.90459 1.168 0
M  V30 679 H 62.0461 -2.61836 1.53869 0
M  V30 680 H 59.6311 -1.25352 0.812854 0
M  V30 681 H 61.5131 -4.20062 -0.335538 0
M  V30 682 H 60.1881 -3.12255 -0.853138 0
M  V30 683 H 59.0951 -3.45251 1.44057 0
M  V30 684 H 60.4281 -4.54998 1.87716 0
M  V30 685 N 62.0802 -0.821533 -1.34494 0
M  V30 686 C 62.9902 -0.244355 -2.33324 0
M  V30 687 C 64.0062 0.620527 -1.62559 0
M  V30 688 O 65.1822 0.528754 -1.94335 0
M  V30 689 C 62.2472 0.585368 -3.41723 0
M  V30 690 C 61.3082 -0.301752 -4.28238 0
M  V30 691 C 60.5412 0.488466 -5.3146 0
M  V30 692 O 60.7642 1.72186 -5.4379 0
M  V30 693 O 59.6982 -0.12848 -6.01763 0
M  V30 694 H 63.5242 -1.06231 -2.84515 0
M  V30 695 H 61.1092 -0.583645 -1.37528 0
M  V30 696 H 62.9912 1.05747 -4.07916 0
M  V30 697 H 61.6662 1.38068 -2.92778 0
M  V30 698 H 60.5732 -0.821315 -3.64973 0
M  V30 699 H 61.9062 -1.06138 -4.8062 0
M  V30 700 N 63.5583 1.46682 -0.576371 0
M  V30 701 C 64.8053 2.02412 -0.0595339 0
M  V30 702 C 65.1333 1.44859 1.29793 0
M  V30 703 O 64.3883 0.601099 1.8624 0
M  V30 704 C 64.6873 3.57345 0.062886 0
M  V30 705 C 64.3533 4.33908 -1.22616 0
M  V30 706 C 63.0153 4.54544 -1.57933 0
M  V30 707 C 65.3673 4.77919 -2.07948 0
M  V30 708 C 62.6953 5.16444 -2.78393 0
M  V30 709 C 65.0473 5.41149 -3.27629 0
M  V30 710 C 63.7113 5.60014 -3.63236 0
M  V30 711 H 62.9813 0.74068 -0.021785 0
M  V30 712 H 65.6283 1.76128 -0.751735 0
M  V30 713 H 63.9333 3.82729 0.838178 0
M  V30 714 H 65.6303 3.98136 0.478439 0
M  V30 715 H 62.2203 4.18138 -0.941202 0
M  V30 716 H 66.4043 4.61738 -1.81967 0
M  V30 717 H 61.6603 5.29242 -3.06126 0
M  V30 718 H 65.8343 5.74211 -3.94023 0
M  V30 719 H 63.4613 6.07748 -4.56669 0
M  V30 720 N 65.0364 0.313813 1.54444 0
M  V30 721 C 66.3134 -0.345447 1.92525 0
M  V30 722 C 66.6934 -1.70667 1.24242 0
M  V30 723 O 66.0414 -2.25273 0.382654 0
M  V30 724 C 66.2514 -0.44737 3.46121 0
M  V30 725 C 67.5994 -0.712238 4.18584 0
M  V30 726 O 68.6234 -0.530678 3.52225 0
M  V30 727 O 67.4824 -1.06183 5.36085 0
M  V30 728 H 64.5764 -0.195407 0.803583 0
M  V30 729 H 67.1224 0.362813 1.65776 0
M  V30 730 H 65.8944 0.509043 3.87975 0
M  V30 731 H 65.5174 -1.20359 3.78945 0
M  V30 732 N 66.5145 -1.57545 0.0417849 0
M  V30 733 C 67.7625 -1.91937 -0.632829 0
M  V30 734 C 68.0835 -0.919978 -1.71934 0
M  V30 735 O 67.3535 0.0366064 -1.95866 0
M  V30 736 H 65.9335 -0.708493 -0.236742 0
M  V30 737 H 68.5955 -1.9468 0.0925745 0
M  V30 738 H 67.6915 -2.92912 -1.07746 0
M  V30 739 N 67.9926 0.231505 -1.5589 0
M  V30 740 C 68.9406 1.30649 -1.92441 0
M  V30 741 C 69.9346 1.49037 -0.805254 0
M  V30 742 O 71.1406 1.50329 -0.990007 0
M  V30 743 H 67.5156 0.437812 -0.611412 0
M  V30 744 H 69.4866 0.970973 -2.82161 0
M  V30 745 C 68.2356 2.65179 -2.24889 0
M  V30 746 H 67.5586 2.51835 -3.10514 0
M  V30 747 H 68.9986 3.39234 -2.54355 0
M  V30 748 C 67.4576 3.19439 -1.07054 0
M  V30 749 O 67.9876 4.00371 -0.326499 0
M  V30 750 N 66.1936 2.77675 -0.85703 0
M  V30 751 H 65.7406 2.11969 -1.46379 0
M  V30 752 H 65.6986 3.14321 -0.0703223 0
M  V30 753 N 69.4707 1.49531 0.497807 0
M  V30 754 C 70.4027 1.62559 1.61578 0
M  V30 755 C 71.4157 0.508134 1.54667 0
M  V30 756 O 72.6047 0.780309 1.60541 0
M  V30 757 C 69.7047 1.56925 3.00379 0
M  V30 758 C 68.8777 2.84257 3.3244 0
M  V30 759 C 67.9367 2.71632 4.50669 0
M  V30 760 O 66.9627 3.4557 4.52294 0
M  V30 761 N 68.1647 1.83391 5.5077 0
M  V30 762 H 70.9297 2.58981 1.50828 0
M  V30 763 H 68.4907 1.4666 0.685743 0
M  V30 764 H 70.4827 1.46129 3.77397 0
M  V30 765 H 69.0527 0.683483 3.05037 0
M  V30 766 H 68.2727 3.09381 2.44289 0
M  V30 767 H 69.5607 3.68666 3.5066 0
M  V30 768 H 68.9587 1.22583 5.52259 0
M  V30 769 H 67.5157 1.78515 6.26878 0
M  V30 770 N 70.9488 -0.749086 1.3866 0
M  V30 771 C 72.1958 -1.50833 1.35114 0
M  V30 772 C 72.5238 -1.94415 -0.0574049 0
M  V30 773 O 71.7788 -1.66065 -1.03541 0
M  V30 774 C 72.0778 -2.7712 2.25697 0
M  V30 775 C 71.7438 -2.52477 3.73585 0
M  V30 776 C 70.4058 -2.45466 4.13884 0
M  V30 777 C 72.7578 -2.31066 4.67181 0
M  V30 778 C 70.0858 -2.15064 5.45861 0
M  V30 779 C 72.4378 -2.02183 5.9942 0
M  V30 780 C 71.1018 -1.93631 6.38798 0
M  V30 781 H 70.3718 -0.551936 0.494416 0
M  V30 782 H 73.0188 -0.860979 1.71054 0
M  V30 783 H 71.3238 -3.46528 1.82827 0
M  V30 784 H 73.0208 -3.35096 2.20254 0
M  V30 785 H 69.6108 -2.58807 3.41638 0
M  V30 786 H 73.7948 -2.35459 4.3689 0
M  V30 787 H 69.0508 -2.06954 5.75308 0
M  V30 788 H 73.2248 -1.8462 6.71482 0
M  V30 789 H 70.8518 -1.69839 7.40985 0
M  V30 790 N 72.4269 -1.23603 -0.977757 0
M  V30 791 C 73.3589 -0.977369 -2.07317 0
M  V30 792 C 74.3719 0.0495845 -1.62724 0
M  V30 793 O 75.5609 -0.186261 -1.77526 0
M  V30 794 C 72.6609 -0.451216 -3.35883 0
M  V30 795 C 71.8339 -1.53896 -4.09432 0
M  V30 796 C 70.8929 -1.01721 -5.16274 0
M  V30 797 O 69.9189 -1.70676 -5.43009 0
M  V30 798 N 71.1209 0.153594 -5.80297 0
M  V30 799 H 73.8859 -1.92047 -2.30082 0
M  V30 800 H 71.4469 -1.14497 -1.14465 0
M  V30 801 H 73.4389 -0.0871574 -4.04606 0
M  V30 802 H 72.0089 0.397368 -3.10064 0
M  V30 803 H 71.2289 -2.07566 -3.35127 0
M  V30 804 H 72.5169 -2.27037 -4.55337 0
M  V30 805 H 71.9149 0.730323 -5.60966 0
M  V30 806 H 70.4719 0.458892 -6.50183 0
M  V30 807 N 73.905 1.17692 -1.04816 0
M  V30 808 C 74.852 2.21581 -0.645797 0
M  V30 809 C 75.822 1.62367 0.350159 0
M  V30 810 O 77.007 1.89254 0.242433 0
M  V30 811 C 74.147 3.45092 -0.0227568 0
M  V30 812 C 73.26 4.18613 -1.06709 0
M  V30 813 C 72.395 5.29602 -0.411767 0
M  V30 814 C 71.434 5.94904 -1.44067 0
M  V30 815 N 70.571 6.97414 -0.809781 0
M  V30 816 H 75.411 2.55353 -1.5362 0
M  V30 817 H 72.948 1.25438 -0.768364 0
M  V30 818 H 74.906 4.15679 0.35588 0
M  V30 819 H 73.536 3.11917 0.831122 0
M  V30 820 H 72.588 3.46779 -1.5636 0
M  V30 821 H 73.9 4.63293 -1.84827 0
M  V30 822 H 73.054 6.06696 0.0206623 0
M  V30 823 H 71.793 4.86045 0.401438 0
M  V30 824 H 70.798 5.16544 -1.88316 0
M  V30 825 H 72.023 6.40542 -2.25571 0
M  V30 826 H 69.969 6.55998 -0.0170186 0
M  V30 827 H 69.886 7.40386 -1.52856 0
M  V30 828 H 71.154 7.78463 -0.401999 0
M  V30 829 N 75.3831 0.828654 1.34056 0
M  V30 830 C 76.3461 0.259927 2.27721 0
M  V30 831 C 77.3461 -0.565478 1.50529 0
M  V30 832 O 78.5361 -0.38075 1.69988 0
M  V30 833 C 75.6681 -0.634944 3.34935 0
M  V30 834 H 76.8611 1.0863 2.79534 0
M  V30 835 H 74.4141 0.600951 1.44285 0
M  V30 836 H 75.1491 -1.48416 2.88346 0
M  V30 837 H 74.9341 -0.0444999 3.92075 0
M  V30 838 H 76.4241 -1.02648 4.04788 0
M  V30 839 N 76.8612 -1.46375 0.584142 0
M  V30 840 C 77.7932 -2.28443 -0.186119 0
M  V30 841 C 78.8062 -1.38596 -0.854115 0
M  V30 842 O 79.9952 -1.63183 -0.723438 0
M  V30 843 C 77.0952 -3.13671 -1.28311 0
M  V30 844 C 76.2682 -4.31652 -0.706758 0
M  V30 845 C 75.3272 -4.98267 -1.69163 0
M  V30 846 O 74.3532 -5.55815 -1.22712 0
M  V30 847 N 75.5552 -4.95408 -3.02575 0
M  V30 848 H 78.3202 -2.9519 0.517986 0
M  V30 849 H 75.8812 -1.56303 0.42201 0
M  V30 850 H 77.8732 -3.55101 -1.94128 0
M  V30 851 H 76.4432 -2.48989 -1.89005 0
M  V30 852 H 75.6632 -3.93989 0.128908 0
M  V30 853 H 76.9512 -5.07906 -0.301506 0
M  V30 854 H 76.3492 -4.49902 -3.42936 0
M  V30 855 H 74.9062 -5.40774 -3.63877 0
M  V30 856 N 78.3393 -0.321999 -1.54275 0
M  V30 857 C 79.3023 0.531975 -2.22941 0
M  V30 858 C 80.3023 1.04478 -1.22234 0
M  V30 859 O 81.4923 0.937452 -1.46825 0
M  V30 860 C 78.6243 1.73874 -2.93224 0
M  V30 861 H 79.8173 -0.0682612 -2.99822 0
M  V30 862 H 77.3703 -0.0730644 -1.56129 0
M  V30 863 H 78.1053 2.37825 -2.20476 0
M  V30 864 H 77.8903 1.37847 -3.6707 0
M  V30 865 H 79.3803 2.34496 -3.45545 0
M  V30 866 N 79.8174 1.5752 -0.0501392 0
M  V30 867 C 81.0664 1.91827 0.623328 0
M  V30 868 C 81.3794 0.930222 1.72065 0
M  V30 869 O 82.5854 1.1653 2.4522 0
M  V30 870 C 81.0414 3.40692 1.16003 0
M  V30 871 C 80.6494 4.479 0.0948811 0
M  V30 872 C 82.3934 3.84034 1.80881 0
M  V30 873 C 80.3004 5.87879 0.644411 0
M  V30 874 H 79.2304 0.715918 0.236596 0
M  V30 875 H 81.8814 1.83115 -0.118861 0
M  V30 876 H 80.2634 3.44405 1.9545 0
M  V30 877 H 81.4374 4.55775 -0.678675 0
M  V30 878 H 79.7524 4.13892 -0.45637 0
M  V30 879 H 82.3494 4.85984 2.22988 0
M  V30 880 H 82.6924 3.20225 2.6601 0
M  V30 881 H 83.2254 3.82833 1.0809 0
M  V30 882 H 79.9644 6.55282 -0.169229 0
M  V30 883 H 79.4844 5.83567 1.38598 0
M  V30 884 H 81.1634 6.37098 1.12763 0
M  V30 885 N 81.2955 -0.223234 1.56011 0
M  V30 886 C 82.5205 -0.968978 1.83373 0
M  V30 887 C 82.9455 -1.77227 0.630254 0
M  V30 888 O 82.3035 -1.76345 -0.420959 0
M  V30 889 C 82.3515 -1.86363 3.08709 0
M  V30 890 O 81.4555 -2.95873 2.87285 0
M  V30 891 H 80.7965 -0.274461 0.604622 0
M  V30 892 H 83.3265 -0.237056 2.03222 0
M  V30 893 H 83.3365 -2.27376 3.38768 0
M  V30 894 H 82.0115 -1.27319 3.95933 0
M  V30 895 H 80.5885 -2.58818 2.68454 0
M  V30 896 N 82.7736 -1.49793 -0.48987 0
M  V30 897 C 84.0196 -1.60078 -1.24511 0
M  V30 898 C 84.3526 -0.291608 -1.91998 0
M  V30 899 O 83.6276 0.705647 -1.81248 0
M  V30 900 C 83.9106 -2.76791 -2.30345 0
M  V30 901 C 83.7636 -4.17535 -1.67286 0
M  V30 902 C 85.0826 -2.89111 -3.31817 0
M  V30 903 H 82.2016 -0.582645 -0.451324 0
M  V30 904 H 84.8436 -1.82117 -0.541612 0
M  V30 905 H 82.9936 -2.5813 -2.90346 0
M  V30 906 H 84.6656 -4.4774 -1.11026 0
M  V30 907 H 82.9086 -4.22665 -0.976577 0
M  V30 908 H 83.5796 -4.95094 -2.44103 0
M  V30 909 H 86.0556 -3.06133 -2.81819 0
M  V30 910 H 84.9316 -3.72433 -4.03219 0
M  V30 911 H 85.1926 -1.9893 -3.94815 0
M  V30 912 N 84.2517 0.741722 -1.39055 0
M  V30 913 C 85.1817 1.869 -1.39966 0
M  V30 914 C 86.1627 1.6804 -0.26392 0
M  V30 915 O 87.3477 1.88458 -0.468755 0
M  V30 916 C 84.4777 3.24572 -1.23574 0
M  V30 917 C 83.4317 3.58056 -2.34477 0
M  V30 918 C 82.7577 4.94593 -2.0318 0
M  V30 919 C 84.0577 3.61716 -3.76774 0
M  V30 920 H 85.7517 1.86395 -2.34302 0
M  V30 921 H 83.2977 0.895361 -1.1278 0
M  V30 922 H 85.2507 4.031 -1.22834 0
M  V30 923 H 83.9747 3.25587 -0.257045 0
M  V30 924 H 82.6337 2.81854 -2.34423 0
M  V30 925 H 82.2817 4.92181 -1.03765 0
M  V30 926 H 81.9817 5.17964 -2.77465 0
M  V30 927 H 83.5057 5.75486 -2.04079 0
M  V30 928 H 84.9197 4.30335 -3.78794 0
M  V30 929 H 83.3167 3.96603 -4.50362 0
M  V30 930 H 84.3867 2.61672 -4.08235 0
M  V30 931 N 85.7298 1.2412 0.971189 0
M  V30 932 C 86.6798 0.997551 2.05019 0
M  V30 933 C 87.6638 -0.0597747 1.60789 0
M  V30 934 O 88.8558 0.153516 1.76333 0
M  V30 935 C 85.9848 0.600557 3.38006 0
M  V30 936 C 85.0708 1.69377 3.88809 0
M  V30 937 N 85.4618 2.92586 4.12586 0
M  V30 938 C 83.7598 1.57048 4.17435 0
M  V30 939 C 84.4608 3.63431 4.54195 0
M  V30 940 N 83.4368 2.90979 4.59165 0
M  V30 941 H 87.2388 1.93316 2.21374 0
M  V30 942 H 84.7528 1.14194 1.1547 0
M  V30 943 H 86.7498 0.40725 4.14906 0
M  V30 944 H 85.4098 -0.327903 3.2304 0
M  V30 945 H 86.4208 3.288 4.00139 0
M  V30 946 H 83.0978 0.709798 4.11422 0
M  V30 947 H 84.4878 4.69102 4.81033 0
M  V30 948 N 87.2079 -1.17134 1.05439 0
M  V30 949 C 88.1179 -2.24878 0.668365 0
M  V30 950 C 89.1339 -1.71186 -0.311687 0
M  V30 951 O 90.3099 -2.00738 -0.163161 0
M  V30 952 C 87.3749 -3.46662 0.051648 0
M  V30 953 C 86.4359 -4.15429 1.08246 0
M  V30 954 C 85.6689 -5.31399 0.495082 0
M  V30 955 O 85.8919 -5.66153 -0.694743 0
M  V30 956 O 84.8259 -5.89187 1.23056 0
M  V30 957 H 88.6519 -2.60189 1.56637 0
M  V30 958 H 86.2369 -1.24482 0.826104 0
M  V30 959 H 88.1189 -4.20394 -0.290966 0
M  V30 960 H 86.7939 -3.13142 -0.819971 0
M  V30 961 H 85.7009 -3.43704 1.47711 0
M  V30 962 H 87.0339 -4.52982 1.92532 0
M  V30 963 N 88.686 -0.835752 -1.33615 0
M  V30 964 C 89.619 -0.211815 -2.27215 0
M  V30 965 C 90.597 0.639249 -1.49507 0
M  V30 966 O 91.781 0.600193 -1.78689 0
M  V30 967 C 88.908 0.702893 -3.31326 0
M  V30 968 C 87.954 -0.0723049 -4.26439 0
M  V30 969 S 88.787 -1.42811 -5.16106 0
M  V30 970 C 89.943 -0.518613 -6.23748 0
M  V30 971 H 90.176 -1.00533 -2.79786 0
M  V30 972 H 87.709 -0.632336 -1.40858 0
M  V30 973 H 89.667 1.22505 -3.91794 0
M  V30 974 H 88.328 1.47004 -2.77576 0
M  V30 975 H 87.521 0.62359 -5.00127 0
M  V30 976 H 87.123 -0.525424 -3.70291 0
M  V30 977 H 89.415 0.284778 -6.76901 0
M  V30 978 H 90.358 -1.22556 -6.97413 0
M  V30 979 H 90.766 -0.101344 -5.64409 0
M  V30 980 N 90.1641 1.46063 -0.591896 0
M  V30 981 C 91.4131 2.01547 -0.0786637 0
M  V30 982 C 91.7261 1.46796 1.29268 0
M  V30 983 O 92.9321 1.94157 1.89777 0
M  V30 984 C 91.3881 3.59787 -0.0900024 0
M  V30 985 C 90.9961 4.23534 -1.46023 0
M  V30 986 C 92.7401 4.22895 0.368806 0
M  V30 987 C 90.6471 5.73881 -1.4288 0
M  V30 988 H 89.5771 0.753564 -0.0256388 0
M  V30 989 H 92.2281 1.677 -0.744905 0
M  V30 990 H 90.6101 3.90752 0.642586 0
M  V30 991 H 91.7841 4.04167 -2.21328 0
M  V30 992 H 90.0991 3.72558 -1.85982 0
M  V30 993 H 92.6961 5.33116 0.411258 0
M  V30 994 H 93.0391 3.9247 1.38827 0
M  V30 995 H 93.5721 3.9659 -0.31001 0
M  V30 996 H 90.3111 6.0898 -2.42536 0
M  V30 997 H 89.8311 5.95486 -0.718095 0
M  V30 998 H 91.5101 6.36776 -1.14565 0
M  V30 999 N 91.6422 0.330177 1.54103 0
M  V30 1000 C 92.5742 -0.566902 2.22079 0
M  V30 1001 C 93.5872 -1.07462 1.22294 0
M  V30 1002 O 94.7762 -0.987065 1.48726 0
M  V30 1003 C 91.8762 -1.79138 2.87685 0
M  V30 1004 C 91.0492 -1.42123 4.13666 0
M  V30 1005 C 90.1082 -2.50394 4.62806 0
M  V30 1006 O 89.1342 -2.14261 5.27334 0
M  V30 1007 N 90.3362 -3.81433 4.37595 0
M  V30 1008 H 93.1012 0.0151844 2.99696 0
M  V30 1009 H 90.6622 0.153681 1.61169 0
M  V30 1010 H 92.6542 -2.50975 3.1748 0
M  V30 1011 H 91.2242 -2.28115 2.13734 0
M  V30 1012 H 90.4442 -0.534201 3.90564 0
M  V30 1013 H 91.7322 -1.14971 4.9564 0
M  V30 1014 H 91.1302 -4.13584 3.8596 0
M  V30 1015 H 89.6872 -4.4948 4.72029 0
M  V30 1016 N 93.1203 -1.57491 0.0584922 0
M  V30 1017 C 94.0523 -2.08916 -0.942694 0
M  V30 1018 C 95.0653 -1.0185 -1.27006 0
M  V30 1019 O 96.2543 -1.29398 -1.22957 0
M  V30 1020 C 93.3543 -2.52341 -2.26224 0
M  V30 1021 C 92.5273 -3.82827 -2.1157 0
M  V30 1022 C 91.5863 -4.12487 -3.26712 0
M  V30 1023 O 90.6123 -4.82295 -3.02292 0
M  V30 1024 N 91.8143 -3.64978 -4.5141 0
M  V30 1025 H 94.5793 -2.95437 -0.503722 0
M  V30 1026 H 92.1403 -1.61397 -0.12757 0
M  V30 1027 H 94.1323 -2.69254 -3.02133 0
M  V30 1028 H 92.7023 -1.7103 -2.61663 0
M  V30 1029 H 91.9223 -3.75425 -1.20208 0
M  V30 1030 H 93.2103 -4.68263 -1.99015 0
M  V30 1031 H 92.6083 -3.08558 -4.7414 0
M  V30 1032 H 91.1653 -3.87115 -5.2439 0
M  V30 1033 N 94.5984 0.214957 -1.56127 0
M  V30 1034 C 95.8264 0.955092 -1.83536 0
M  V30 1035 C 96.2414 1.77677 -0.638472 0
M  V30 1036 O 95.5984 1.78219 0.392968 0
M  V30 1037 C 95.6494 1.86734 -3.09536 0
M  V30 1038 O 95.3704 1.07887 -4.24608 0
M  V30 1039 C 96.8714 2.72082 -3.4998 0
M  V30 1040 H 94.0914 0.279611 -0.609966 0
M  V30 1041 H 96.6354 0.228197 -2.03223 0
M  V30 1042 H 94.7904 2.5481 -2.91806 0
M  V30 1043 H 95.2044 1.69872 -4.9623 0
M  V30 1044 H 96.6784 3.31782 -4.41163 0
M  V30 1045 H 97.1554 3.44806 -2.7204 0
M  V30 1046 H 97.7614 2.09409 -3.70173 0
M  V30 1047 N 96.0765 1.50051 0.48192 0
M  V30 1048 C 97.3235 1.60498 1.23477 0
M  V30 1049 C 97.6515 0.300331 1.92167 0
M  V30 1050 O 96.9065 -0.713094 1.82246 0
M  V30 1051 C 97.2055 2.72717 2.30998 0
M  V30 1052 C 96.8715 4.13572 1.79636 0
M  V30 1053 C 95.5335 4.519 1.65348 0
M  V30 1054 C 97.8855 5.01649 1.41412 0
M  V30 1055 C 95.2135 5.76057 1.11244 0
M  V30 1056 C 97.5655 6.26343 0.887538 0
M  V30 1057 C 96.2295 6.63483 0.731207 0
M  V30 1058 H 95.4995 0.587303 0.451836 0
M  V30 1059 H 98.1465 1.83948 0.532468 0
M  V30 1060 H 96.4515 2.43312 3.07094 0
M  V30 1061 H 98.1485 2.78006 2.88988 0
M  V30 1062 H 94.7385 3.83329 1.91721 0
M  V30 1063 H 98.9225 4.72679 1.51289 0
M  V30 1064 H 94.1785 6.03516 0.978686 0
M  V30 1065 H 98.3525 6.93958 0.582654 0
M  V30 1066 H 95.9795 7.59568 0.309806 0
M  V30 1067 N 97.5546 -0.734337 1.39446 0
M  V30 1068 C 98.5026 -1.86971 1.38364 0
M  V30 1069 C 99.4966 -1.67288 0.266687 0
M  V30 1070 O 100.703 -1.74621 0.436755 0
M  V30 1071 H 97.0776 -0.615474 0.432082 0
M  V30 1072 H 99.0486 -1.85 2.34132 0
M  V30 1073 C 97.7976 -3.2466 1.24465 0
M  V30 1074 H 97.1206 -3.40402 2.09682 0
M  V30 1075 H 98.5606 -4.04292 1.27764 0
M  V30 1076 C 97.0196 -3.36867 -0.0468674 0
M  V30 1077 O 97.5496 -3.88618 -1.01681 0
M  V30 1078 N 95.7556 -2.90391 -0.110145 0
M  V30 1079 H 95.3026 -2.48466 0.679868 0
M  V30 1080 H 95.2606 -2.98939 -0.973799 0
M  V30 1081 N 99.0327 -1.24633 -0.964593 0
M  V30 1082 C 99.9627 -1.06611 -2.07741 0
M  V30 1083 C 100.944 0.0218666 -1.70086 0
M  V30 1084 O 102.129 -0.145793 -1.93652 0
M  V30 1085 C 99.2587 -0.673444 -3.40708 0
M  V30 1086 C 98.2127 -1.71054 -3.92332 0
M  V30 1087 C 97.5387 -1.17285 -5.21678 0
M  V30 1088 C 98.8387 -3.10718 -4.19824 0
M  V30 1089 H 100.533 -1.99693 -2.23076 0
M  V30 1090 H 98.0787 -0.96152 -1.07195 0
M  V30 1091 H 100.032 -0.534345 -4.17998 0
M  V30 1092 H 98.7557 0.293073 -3.25282 0
M  V30 1093 H 97.4147 -1.83791 -3.17201 0
M  V30 1094 H 97.0627 -0.196847 -5.02615 0
M  V30 1095 H 96.7627 -1.86592 -5.57187 0
M  V30 1096 H 98.2867 -1.04593 -6.01575 0
M  V30 1097 H 99.7007 -3.01192 -4.87808 0
M  V30 1098 H 98.0977 -3.77406 -4.66567 0
M  V30 1099 H 99.1677 -3.58524 -3.26479 0
M  V30 1100 N 100.511 1.16574 -1.06058 0
M  V30 1101 C 101.758 1.87047 -0.775873 0
M  V30 1102 C 102.086 1.81562 0.697534 0
M  V30 1103 O 101.341 1.22445 1.52662 0
M  V30 1104 C 101.64 3.36195 -1.21275 0
M  V30 1105 C 101.306 3.6188 -2.68986 0
M  V30 1106 C 99.9678 3.68599 -3.09335 0
M  V30 1107 C 102.32 3.72648 -3.64394 0
M  V30 1108 C 99.6478 3.83584 -4.43937 0
M  V30 1109 C 102 3.89154 -4.98741 0
M  V30 1110 C 100.664 3.94114 -5.3873 0
M  V30 1111 H 99.9338 0.684452 -0.283912 0
M  V30 1112 H 102.581 1.37853 -1.32925 0
M  V30 1113 H 100.886 3.87505 -0.578528 0
M  V30 1114 H 102.583 3.89103 -0.969542 0
M  V30 1115 H 99.1728 3.57281 -2.36744 0
M  V30 1116 H 103.357 3.66769 -3.34356 0
M  V30 1117 H 98.6128 3.85677 -4.74409 0
M  V30 1118 H 102.787 3.96427 -5.72554 0
M  V30 1119 H 100.414 4.05478 -6.43033 0
M  V30 1120 N 101.989 0.842826 1.3317 0
M  V30 1121 C 103.214 0.453129 2.02389 0
M  V30 1122 C 103.639 -0.939105 1.6298 0
M  V30 1123 O 102.997 -1.61472 0.8244 0
M  V30 1124 C 103.045 0.586094 3.55805 0
M  V30 1125 O 102.149 -0.386029 4.10589 0
M  V30 1126 H 101.49 0.183664 0.638094 0
M  V30 1127 H 104.02 1.13875 1.69981 0
M  V30 1128 H 104.03 0.469209 4.05293 0
M  V30 1129 H 102.705 1.6014 3.83833 0
M  V30 1130 H 101.282 -0.226371 3.72212 0
M  V30 1131 N 103.467 -1.45747 0.599634 0
M  V30 1132 C 104.695 -2.06668 0.0978551 0
M  V30 1133 C 105.11 -1.44562 -1.21439 0
M  V30 1134 O 104.467 -0.556923 -1.73795 0
M  V30 1135 C 104.518 -3.61456 -0.0567044 0
M  V30 1136 O 104.239 -4.21242 1.20361 0
M  V30 1137 C 105.74 -4.39345 -0.590869 0
M  V30 1138 H 102.96 -0.667825 0.0651943 0
M  V30 1139 H 105.504 -1.87115 0.82511 0
M  V30 1140 H 103.659 -3.80378 -0.734251 0
M  V30 1141 H 104.073 -5.14323 1.02821 0
M  V30 1142 H 105.547 -5.48182 -0.648131 0
M  V30 1143 H 106.024 -4.08568 -1.61147 0
M  V30 1144 H 106.63 -4.25268 0.0523679 0
M  V30 1145 N 104.945 -0.338344 -1.53925 0
M  V30 1146 C 105.892 0.520845 -2.24846 0
M  V30 1147 C 106.862 1.09976 -1.24477 0
M  V30 1148 O 108.047 1.13735 -1.53196 0
M  V30 1149 C 105.187 1.6685 -3.02084 0
M  V30 1150 C 104.3 1.11739 -4.17299 0
M  V30 1151 C 103.435 2.23193 -4.82036 0
M  V30 1152 C 102.474 1.65407 -5.89328 0
M  V30 1153 N 101.611 2.70582 -6.47866 0
M  V30 1154 H 106.451 -0.0904881 -2.97863 0
M  V30 1155 H 103.988 -0.0564282 -1.46992 0
M  V30 1156 H 105.946 2.34407 -3.45122 0
M  V30 1157 H 104.576 2.2509 -2.31375 0
M  V30 1158 H 103.628 0.332919 -3.7894 0
M  V30 1159 H 104.94 0.654677 -4.94485 0
M  V30 1160 H 104.094 2.98626 -5.28117 0
M  V30 1161 H 102.833 2.72807 -4.04262 0
M  V30 1162 H 101.838 0.884779 -5.42634 0
M  V30 1163 H 103.063 1.16652 -6.69006 0
M  V30 1164 H 101.009 3.1946 -5.72959 0
M  V30 1165 H 100.926 2.28917 -7.20509 0
M  V30 1166 H 102.194 3.45799 -6.98601 0
M  V30 1167 N 106.423 1.57458 -0.0668435 0
M  V30 1168 C 107.7 1.8469 0.644132 0
M  V30 1169 C 108.08 0.958343 1.88093 0
M  V30 1170 O 107.428 0.0233579 2.28488 0
M  V30 1171 C 107.638 3.34767 0.986509 0
M  V30 1172 C 108.986 4.02159 1.36212 0
M  V30 1173 O 110.01 3.39484 1.07839 0
M  V30 1174 O 108.869 5.12694 1.89227 0
M  V30 1175 H 105.963 0.762816 0.319437 0
M  V30 1176 H 108.509 1.6942 -0.0973986 0
M  V30 1177 H 107.281 3.91151 0.107883 0
M  V30 1178 H 106.904 3.55281 1.78497 0
M  V30 1179 N 107.901 -0.206675 1.56239 0
M  V30 1180 C 109.126 -0.949474 1.8439 0
M  V30 1181 C 109.551 -1.76549 0.649016 0
M  V30 1182 O 108.909 -1.76782 -0.402231 0
M  V30 1183 C 108.957 -1.83078 3.10668 0
M  V30 1184 O 108.061 -2.9281 2.90407 0
M  V30 1185 H 107.402 -0.268033 0.607499 0
M  V30 1186 H 109.932 -0.215488 2.03462 0
M  V30 1187 H 109.942 -2.2377 3.41161 0
M  V30 1188 H 108.617 -1.23112 3.97261 0
M  V30 1189 H 107.194 -2.55956 2.71184 0
M  V30 1190 N 109.379 -1.50304 -0.473955 0
M  V30 1191 C 110.604 -1.65175 -1.25427 0
M  V30 1192 C 111.029 -0.333673 -1.85117 0
M  V30 1193 O 110.387 0.702114 -1.67153 0
M  V30 1194 C 110.435 -2.74295 -2.34082 0
M  V30 1195 O 109.539 -2.35349 -3.38651 0
M  V30 1196 H 108.88 -0.551944 -0.369126 0
M  V30 1197 H 111.41 -1.96662 -0.564364 0
M  V30 1198 H 111.42 -2.97285 -2.79438 0
M  V30 1199 H 110.095 -3.69959 -1.90008 0
M  V30 1200 H 108.672 -2.22794 -2.99027 0
M  V30 1201 N 110.857 0.726932 -1.39834 0
M  V30 1202 C 111.82 1.82269 -1.38962 0
M  V30 1203 C 112.82 1.58248 -0.285334 0
M  V30 1204 O 114.01 1.65499 -0.54366 0
M  V30 1205 C 111.142 3.20186 -1.17019 0
M  V30 1206 H 112.335 1.84443 -2.36476 0
M  V30 1207 H 109.888 0.931416 -1.25516 0
M  V30 1208 H 110.623 3.23669 -0.202204 0
M  V30 1209 H 110.408 3.3902 -1.96998 0
M  V30 1210 H 111.898 4.00235 -1.1917 0
M  V30 1211 N 112.336 1.25143 0.95797 0
M  V30 1212 C 113.299 1.05321 2.03569 0
M  V30 1213 C 114.299 0.007152 1.60798 0
M  V30 1214 O 115.489 0.24903 1.72411 0
M  V30 1215 C 112.621 0.598394 3.35607 0
M  V30 1216 H 113.814 2.00986 2.22586 0
M  V30 1217 H 111.367 1.07502 1.13459 0
M  V30 1218 H 112.102 -0.361014 3.22284 0
M  V30 1219 H 111.887 1.35351 3.67998 0
M  V30 1220 H 113.377 0.48104 4.1482 0
M  V30 1221 N 113.814 -1.1601 1.06675 0
M  V30 1222 C 115.06 -1.87145 0.796766 0
M  V30 1223 C 115.415 -1.8037 -0.669658 0
M  V30 1224 O 114.708 -1.21116 -1.48463 0
M  V30 1225 C 114.902 -3.35547 1.23057 0
M  V30 1226 C 114.731 -3.56769 2.73762 0
M  V30 1227 C 113.501 -3.72635 3.41279 0
M  V30 1228 C 115.699 -3.55166 3.7197 0
M  V30 1229 N 113.681 -3.81845 4.80695 0
M  V30 1230 C 115.052 -3.70406 4.97191 0
M  V30 1231 C 117.107 -3.384 3.65226 0
M  V30 1232 C 115.81 -3.70615 6.16471 0
M  V30 1233 C 117.836 -3.39904 4.83962 0
M  V30 1234 C 117.198 -3.55667 6.08013 0
M  V30 1235 H 113.297 -0.702267 0.344014 0
M  V30 1236 H 115.881 -1.39165 1.36166 0
M  V30 1237 H 114.052 -3.82159 0.693456 0
M  V30 1238 H 115.784 -3.94363 0.908844 0
M  V30 1239 H 112.539 -3.73121 2.91681 0
M  V30 1240 H 112.963 -3.90209 5.53232 0
M  V30 1241 H 117.605 -3.25138 2.70269 0
M  V30 1242 H 115.323 -3.82658 7.11757 0
M  V30 1243 H 118.909 -3.28169 4.80413 0
M  V30 1244 H 117.789 -3.56755 6.98352 0
M  V30 1245 N 115.292 -0.849877 -1.32721 0
M  V30 1246 C 116.569 -0.372405 -1.92022 0
M  V30 1247 C 116.949 1.1435 -1.77447 0
M  V30 1248 O 116.297 1.96296 -1.16962 0
M  V30 1249 C 116.507 -0.831482 -3.3895 0
M  V30 1250 C 117.855 -0.845882 -4.16089 0
M  V30 1251 O 118.879 -0.775806 -3.47649 0
M  V30 1252 O 117.738 -0.943753 -5.38289 0
M  V30 1253 H 114.832 -0.107667 -0.819961 0
M  V30 1254 H 117.378 -0.93646 -1.41522 0
M  V30 1255 H 116.15 -1.87448 -3.4348 0
M  V30 1256 H 115.773 -0.24461 -3.96847 0
M  V30 1257 N 116.77 1.45427 -0.607355 0
M  V30 1258 C 117.68 2.34325 0.113463 0
M  V30 1259 C 118.696 1.51226 0.860617 0
M  V30 1260 O 119.872 1.84029 0.818255 0
M  V30 1261 C 116.937 3.28839 1.09844 0
M  V30 1262 C 115.998 4.27844 0.353271 0
M  V30 1263 C 115.231 5.17842 1.29133 0
M  V30 1264 O 115.454 5.11264 2.52913 0
M  V30 1265 O 114.388 5.96713 0.788523 0
M  V30 1266 H 118.214 2.97364 -0.617094 0
M  V30 1267 H 115.799 1.44807 -0.367619 0
M  V30 1268 H 117.681 3.8708 1.66575 0
M  V30 1269 H 116.356 2.68365 1.81003 0
M  V30 1270 H 115.263 3.7322 -0.256494 0
M  V30 1271 H 116.596 4.91173 -0.317822 0
M  V30 1272 N 118.248 0.346503 1.53744 0
M  V30 1273 C 119.473 -0.253074 2.0585 0
M  V30 1274 C 119.898 -1.43202 1.21962 0
M  V30 1275 O 119.256 -1.79783 0.234073 0
M  V30 1276 C 119.304 -0.643193 3.54817 0
M  V30 1277 O 118.408 -1.74286 3.73762 0
M  V30 1278 H 117.749 -0.0413583 0.662711 0
M  V30 1279 H 120.279 0.501574 1.98357 0
M  V30 1280 H 120.289 -0.919526 3.97503 0
M  V30 1281 H 118.964 0.218966 4.15323 0
M  V30 1282 H 117.541 -1.46356 3.42979 0
M  V30 1283 N 119.726 -1.57421 0.075193 0
M  V30 1284 C 120.656 -2.15942 -0.888324 0
M  V30 1285 C 121.637 -1.08737 -1.30806 0
M  V30 1286 O 122.822 -1.36787 -1.37851 0
M  V30 1287 C 119.952 -2.72379 -2.1547 0
M  V30 1288 C 118.906 -3.8478 -1.87425 0
M  V30 1289 C 118.232 -4.27834 -3.20721 0
M  V30 1290 C 119.532 -5.08869 -1.17684 0
M  V30 1291 H 121.226 -2.96705 -0.400799 0
M  V30 1292 H 118.772 -1.42723 -0.191342 0
M  V30 1293 H 120.725 -3.11965 -2.83295 0
M  V30 1294 H 119.449 -1.88841 -2.6647 0
M  V30 1295 H 118.108 -3.45703 -1.22004 0
M  V30 1296 H 117.756 -3.41214 -3.6957 0
M  V30 1297 H 117.456 -5.03605 -3.02746 0
M  V30 1298 H 118.98 -4.70039 -3.89738 0
M  V30 1299 H 120.394 -5.4575 -1.75584 0
M  V30 1300 H 118.791 -5.8994 -1.09956 0
M  V30 1301 H 119.861 -4.84648 -0.156453 0
M  V30 1302 N 121.204 0.198386 -1.56346 0
M  V30 1303 C 122.134 1.24865 -1.9731 0
M  V30 1304 C 123.115 1.47651 -0.844576 0
M  V30 1305 O 124.3 1.59444 -1.10866 0
M  V30 1306 C 121.43 2.59358 -2.30977 0
M  V30 1307 C 120.384 2.5119 -3.46537 0
M  V30 1308 C 119.71 3.89926 -3.65871 0
M  V30 1309 C 121.01 2.03977 -4.80823 0
M  V30 1310 H 122.704 0.908252 -2.85291 0
M  V30 1311 H 120.25 0.435462 -1.37258 0
M  V30 1312 H 122.203 3.33011 -2.58228 0
M  V30 1313 H 120.927 2.95132 -1.39874 0
M  V30 1314 H 119.586 1.79993 -3.19371 0
M  V30 1315 H 119.234 4.23046 -2.72105 0
M  V30 1316 H 118.934 3.85336 -4.4361 0
M  V30 1317 H 120.458 4.65205 -3.95495 0
M  V30 1318 H 121.872 2.67386 -5.07127 0
M  V30 1319 H 120.269 2.10397 -5.62008 0
M  V30 1320 H 121.339 0.992861 -4.74626 0
M  V30 1321 N 122.682 1.50554 0.465978 0
M  V30 1322 C 123.592 1.72585 1.58907 0
M  V30 1323 C 124.608 0.60911 1.6299 0
M  V30 1324 O 125.784 0.88804 1.80765 0
M  V30 1325 C 122.849 1.81995 2.95091 0
M  V30 1326 C 121.91 3.05751 3.01355 0
M  V30 1327 C 121.143 3.14702 4.31043 0
M  V30 1328 O 121.366 2.30313 5.21835 0
M  V30 1329 O 120.3 4.07468 4.43005 0
M  V30 1330 H 124.126 2.67799 1.43239 0
M  V30 1331 H 121.711 1.34711 0.646013 0
M  V30 1332 H 123.593 1.90335 3.75966 0
M  V30 1333 H 122.268 0.899659 3.10947 0
M  V30 1334 H 121.175 3.02908 2.19539 0
M  V30 1335 H 122.508 3.97375 2.90437 0
M  V30 1336 N 124.16 -0.719506 1.40217 0
M  V30 1337 C 125.107 -1.83359 1.40172 0
M  V30 1338 C 126.077 -1.64065 0.259206 0
M  V30 1339 O 127.262 -1.85254 0.456677 0
M  V30 1340 C 124.402 -3.2103 1.26624 0
M  V30 1341 C 123.515 -3.51923 2.50548 0
M  V30 1342 C 122.65 -4.79079 2.29471 0
M  V30 1343 C 121.689 -5.02863 3.48992 0
M  V30 1344 N 120.826 -6.2123 3.27135 0
M  V30 1345 H 125.666 -1.82733 2.35399 0
M  V30 1346 H 123.203 -0.892688 1.16917 0
M  V30 1347 H 125.161 -4.00524 1.16776 0
M  V30 1348 H 123.791 -3.20895 0.350176 0
M  V30 1349 H 122.843 -2.67014 2.70939 0
M  V30 1350 H 124.155 -3.6541 3.39525 0
M  V30 1351 H 123.309 -5.66582 2.16955 0
M  V30 1352 H 122.048 -4.67794 1.37913 0
M  V30 1353 H 121.053 -4.13816 3.6199 0
M  V30 1354 H 122.278 -5.16023 4.41472 0
M  V30 1355 H 120.224 -6.11204 2.38256 0
M  V30 1356 H 120.141 -6.35375 4.09675 0
M  V30 1357 H 121.409 -7.11532 3.18344 0
M  V30 1358 N 125.638 -1.25649 -0.95132 0
M  V30 1359 C 126.885 -1.10594 -1.69633 0
M  V30 1360 C 127.213 0.352515 -1.91279 0
M  V30 1361 O 126.468 1.27601 -1.4838 0
M  V30 1362 C 126.767 -1.80909 -3.08231 0
M  V30 1363 C 126.433 -3.30825 -3.06375 0
M  V30 1364 C 125.095 -3.71722 -3.05576 0
M  V30 1365 C 127.447 -4.26589 -2.99452 0
M  V30 1366 C 124.775 -5.06788 -2.95606 0
M  V30 1367 C 127.127 -5.61683 -2.91024 0
M  V30 1368 C 125.791 -6.01904 -2.88562 0
M  V30 1369 H 125.061 -0.404691 -0.620731 0
M  V30 1370 H 127.708 -1.55964 -1.11119 0
M  V30 1371 H 126.013 -1.27979 -3.70309 0
M  V30 1372 H 127.71 -1.6671 -3.64704 0
M  V30 1373 H 124.3 -2.98287 -3.07771 0
M  V30 1374 H 128.484 -3.95982 -2.99185 0
M  V30 1375 H 123.74 -5.37126 -2.92071 0
M  V30 1376 H 127.914 -6.35578 -2.84629 0
M  V30 1377 H 125.541 -7.06521 -2.80593 0
M  V30 1378 N 127.117 1.15442 -1.07289 0
M  V30 1379 C 128.347 1.89821 -0.815576 0
M  V30 1380 C 128.755 1.7823 0.634867 0
M  V30 1381 O 128.098 1.13152 1.44715 0
M  V30 1382 C 128.16 3.40817 -1.14385 0
M  V30 1383 C 127.824 3.76193 -2.59476 0
M  V30 1384 C 128.821 3.77269 -3.57721 0
M  V30 1385 C 126.506 4.0652 -2.95037 0
M  V30 1386 C 128.5 4.08176 -4.89562 0
M  V30 1387 C 126.187 4.37092 -4.27076 0
M  V30 1388 C 127.185 4.37902 -5.24148 0
M  V30 1389 O 126.873 4.67741 -6.53815 0
M  V30 1390 H 126.605 0.608465 -0.294528 0
M  V30 1391 H 129.159 1.472 -1.43252 0
M  V30 1392 H 127.389 3.83835 -0.469865 0
M  V30 1393 H 129.078 3.96485 -0.869179 0
M  V30 1394 H 129.844 3.5394 -3.3159 0
M  V30 1395 H 125.723 4.05049 -2.20128 0
M  V30 1396 H 129.267 4.08723 -5.65324 0
M  V30 1397 H 125.164 4.59889 -4.5296 0
M  V30 1398 H 125.932 4.85509 -6.58957 0
M  V30 1399 N 128.595 0.856903 1.32268 0
M  V30 1400 C 129.823 0.475439 2.01363 0
M  V30 1401 C 130.238 -0.928486 1.64392 0
M  V30 1402 O 129.595 -1.60624 0.866387 0
M  V30 1403 C 129.646 0.607545 3.56358 0
M  V30 1404 O 129.367 1.95617 3.92002 0
M  V30 1405 C 130.868 0.225382 4.42727 0
M  V30 1406 H 128.088 0.186636 0.644521 0
M  V30 1407 H 130.632 1.15446 1.68797 0
M  V30 1408 H 128.787 -0.0237719 3.87393 0
M  V30 1409 H 129.201 1.95455 4.86721 0
M  V30 1410 H 130.675 0.368813 5.50767 0
M  V30 1411 H 131.152 -0.834369 4.31202 0
M  V30 1412 H 131.758 0.831864 4.17085 0
M  V30 1413 N 130.073 -1.45103 0.615059 0
M  V30 1414 C 130.983 -2.34382 -0.101034 0
M  V30 1415 C 131.999 -1.51681 -0.852585 0
M  V30 1416 O 133.175 -1.8446 -0.808484 0
M  V30 1417 C 130.24 -3.29417 -1.08099 0
M  V30 1418 C 129.301 -4.28025 -0.330577 0
M  V30 1419 C 128.534 -5.1852 -1.26385 0
M  V30 1420 O 128.757 -5.12598 -2.50198 0
M  V30 1421 O 127.691 -5.97122 -0.756866 0
M  V30 1422 H 131.517 -2.97033 0.632855 0
M  V30 1423 H 129.102 -1.4461 0.375293 0
M  V30 1424 H 130.984 -3.87958 -1.6452 0
M  V30 1425 H 129.659 -2.69321 -1.79577 0
M  V30 1426 H 128.566 -3.73078 0.276283 0
M  V30 1427 H 129.899 -4.90997 0.343866 0
M  V30 1428 N 131.551 -0.354651 -1.53558 0
M  V30 1429 C 132.481 0.489091 -2.2832 0
M  V30 1430 C 133.462 1.09324 -1.30316 0
M  V30 1431 O 134.647 1.11255 -1.59173 0
M  V30 1432 C 131.777 1.63456 -3.0643 0
M  V30 1433 C 130.731 1.1582 -4.12031 0
M  V30 1434 C 130.057 2.39305 -4.7816 0
M  V30 1435 C 131.357 0.250731 -5.21698 0
M  V30 1436 H 133.051 -0.134614 -2.99097 0
M  V30 1437 H 130.597 -0.0661826 -1.43848 0
M  V30 1438 H 132.55 2.23136 -3.57475 0
M  V30 1439 H 131.274 2.28533 -2.33325 0
M  V30 1440 H 129.933 0.584146 -3.61916 0
M  V30 1441 H 129.581 3.02814 -4.01637 0
M  V30 1442 H 129.281 2.08109 -5.49513 0
M  V30 1443 H 130.805 2.99691 -5.31994 0
M  V30 1444 H 132.219 0.754695 -5.68311 0
M  V30 1445 H 130.616 0.0301468 -6.00092 0
M  V30 1446 H 131.686 -0.710125 -4.79672 0
M  V30 1447 N 133.029 1.57378 -0.0835403 0
M  V30 1448 C 134.259 1.97975 0.590713 0
M  V30 1449 C 134.667 0.961083 1.62972 0
M  V30 1450 O 134.01 -0.0590879 1.83605 0
M  V30 1451 C 134.072 3.34915 1.3066 0
M  V30 1452 C 133.736 4.55069 0.419698 0
M  V30 1453 C 134.733 5.18868 -0.32749 0
M  V30 1454 C 132.418 5.0114 0.341137 0
M  V30 1455 C 134.412 6.27098 -1.14134 0
M  V30 1456 C 132.099 6.0924 -0.476374 0
M  V30 1457 C 133.097 6.72083 -1.21627 0
M  V30 1458 O 132.785 7.781 -2.02028 0
M  V30 1459 H 132.517 0.655818 0.163947 0
M  V30 1460 H 135.071 2.04807 -0.156021 0
M  V30 1461 H 133.301 3.24733 2.09966 0
M  V30 1462 H 134.99 3.60037 1.87424 0
M  V30 1463 H 135.756 4.84211 -0.276459 0
M  V30 1464 H 131.635 4.51996 0.90668 0
M  V30 1465 H 135.179 6.7608 -1.71935 0
M  V30 1466 H 131.076 6.43329 -0.528927 0
M  V30 1467 H 131.844 7.95034 -1.94586 0
M  V30 1468 N 134.507 -0.190092 1.56449 0
M  V30 1469 C 135.439 -1.25973 1.91477 0
M  V30 1470 C 136.452 -1.41452 0.805931 0
M  V30 1471 O 137.641 -1.41789 1.08435 0
M  V30 1472 C 134.741 -2.63117 2.13594 0
M  V30 1473 C 133.914 -2.69182 3.4476 0
M  V30 1474 C 132.973 -3.87557 3.5593 0
M  V30 1475 O 131.999 -3.74427 4.28711 0
M  V30 1476 N 133.201 -5.03224 2.89388 0
M  V30 1477 H 135.966 -0.962394 2.83828 0
M  V30 1478 H 133.527 -0.379981 1.57378 0
M  V30 1479 H 135.519 -3.40742 2.1835 0
M  V30 1480 H 134.089 -2.85319 1.27719 0
M  V30 1481 H 133.309 -1.77793 3.51828 0
M  V30 1482 H 134.597 -2.70229 4.31107 0
M  V30 1483 H 133.995 -5.16791 2.30094 0
M  V30 1484 H 132.552 -5.78778 2.99764 0
M  V30 1485 N 135.985 -1.50799 -0.457987 0
M  V30 1486 C 136.917 -1.66786 -1.57211 0
M  V30 1487 C 137.93 -0.548962 -1.53265 0
M  V30 1488 O 139.119 -0.8226 -1.58416 0
M  V30 1489 C 136.219 -1.64834 -2.96113 0
M  V30 1490 C 135.392 -2.92971 -3.24787 0
M  V30 1491 C 134.451 -2.83485 -4.43309 0
M  V30 1492 O 133.477 -3.5744 -4.42973 0
M  V30 1493 N 134.679 -1.97929 -5.45714 0
M  V30 1494 H 137.444 -2.62889 -1.43909 0
M  V30 1495 H 135.005 -1.48427 -0.646617 0
M  V30 1496 H 136.997 -1.56084 -3.7339 0
M  V30 1497 H 135.567 -0.764118 -3.03117 0
M  V30 1498 H 134.787 -3.15749 -2.36 0
M  V30 1499 H 136.075 -3.77834 -3.40762 0
M  V30 1500 H 135.473 -1.37182 -5.48815 0
M  V30 1501 H 134.03 -1.95073 -6.21924 0
M  V30 1502 N 137.463 0.71206 -1.40597 0
M  V30 1503 C 138.393 1.83889 -1.43899 0
M  V30 1504 C 139.374 1.67442 -0.299504 0
M  V30 1505 O 140.559 1.87421 -0.508624 0
M  V30 1506 C 137.689 3.21877 -1.30431 0
M  V30 1507 C 136.643 3.53002 -2.42019 0
M  V30 1508 C 135.969 4.90172 -2.13626 0
M  V30 1509 C 137.269 3.53643 -3.84362 0
M  V30 1510 H 138.963 1.81383 -2.38203 0
M  V30 1511 H 136.509 0.871237 -1.14654 0
M  V30 1512 H 138.462 4.00404 -1.31357 0
M  V30 1513 H 137.186 3.24968 -0.326049 0
M  V30 1514 H 135.845 2.76818 -2.40349 0
M  V30 1515 H 135.493 4.89869 -1.14182 0
M  V30 1516 H 135.193 5.11962 -2.88389 0
M  V30 1517 H 136.717 5.71028 -2.1624 0
M  V30 1518 H 138.131 4.22203 -3.87837 0
M  V30 1519 H 136.528 3.86961 -4.58673 0
M  V30 1520 H 137.598 2.52954 -4.13693 0
M  V30 1521 N 138.941 1.26152 0.944643 0
M  V30 1522 C 139.889 1.07215 2.06417 0
M  V30 1523 C 140.883 9.2007e-05 1.694 0
M  V30 1524 O 142.089 0.1565 1.79318 0
M  V30 1525 H 138.464 0.329837 0.675805 0
M  V30 1526 H 140.435 2.02099 2.19541 0
M  V30 1527 C 139.184 0.718197 3.40202 0
M  V30 1528 H 138.507 1.53497 3.69159 0
M  V30 1529 H 139.947 0.625459 4.19361 0
M  V30 1530 C 138.406 -0.576435 3.31932 0
M  V30 1531 O 138.936 -1.61574 3.67773 0
M  V30 1532 N 137.142 -0.565781 2.85039 0
M  V30 1533 H 136.689 0.280367 2.5607 0
M  V30 1534 H 136.647 -1.43213 2.79888 0
M  V30 1535 N 140.419 -1.14872 1.07899 0
M  V30 1536 C 141.696 -1.81928 0.71845 0
M  V30 1537 C 142.076 -1.95417 -0.798455 0
M  V30 1538 O 141.424 -1.50997 -1.715 0
M  V30 1539 C 141.634 -3.17937 1.43935 0
M  V30 1540 C 142.982 -3.93501 1.59506 0
M  V30 1541 O 144.006 -3.27509 1.40058 0
M  V30 1542 O 142.865 -5.1183 1.91551 0
M  V30 1543 H 139.959 -0.78628 0.256305 0
M  V30 1544 H 142.505 -1.21934 1.18026 0
M  V30 1545 H 141.277 -3.0325 2.47295 0
M  V30 1546 H 140.9 -3.85619 0.968687 0
M  V30 1547 N 141.898 -0.863906 -1.31812 0
M  V30 1548 C 142.828 -0.330843 -2.31144 0
M  V30 1549 C 143.809 0.575005 -1.60087 0
M  V30 1550 O 144.994 0.493304 -1.8783 0
M  V30 1551 C 142.124 0.47374 -3.44054 0
M  V30 1552 C 141.078 -0.338481 -4.26659 0
M  V30 1553 C 140.404 0.591412 -5.31419 0
M  V30 1554 C 141.704 -1.56926 -4.98168 0
M  V30 1555 H 143.398 -1.16086 -2.75979 0
M  V30 1556 H 140.944 -0.559657 -1.32679 0
M  V30 1557 H 142.897 0.857143 -4.12591 0
M  V30 1558 H 141.621 1.33721 -2.9797 0
M  V30 1559 H 140.28 -0.703754 -3.59782 0
M  V30 1560 H 139.928 1.45199 -4.81587 0
M  V30 1561 H 139.628 0.0519022 -5.87577 0
M  V30 1562 H 141.152 0.97179 -6.02817 0
M  V30 1563 H 142.566 -1.25764 -5.59336 0
M  V30 1564 H 140.963 -2.04739 -5.64094 0
M  V30 1565 H 142.033 -2.32544 -4.25501 0
M  V30 1566 N 143.376 1.44774 -0.622745 0
M  V30 1567 C 144.286 2.34433 0.0886031 0
M  V30 1568 C 145.302 1.52131 0.844529 0
M  V30 1569 O 146.478 1.84886 0.798691 0
M  V30 1570 C 143.543 3.29986 1.0635 0
M  V30 1571 C 142.604 4.28195 0.307873 0
M  V30 1572 C 141.837 5.19183 1.23633 0
M  V30 1573 O 142.06 5.13918 2.47476 0
M  V30 1574 O 140.994 5.97515 0.725189 0
M  V30 1575 H 144.82 2.96693 -0.648599 0
M  V30 1576 H 142.405 1.44408 -0.382957 0
M  V30 1577 H 144.287 3.88825 1.6246 0
M  V30 1578 H 142.962 2.70269 1.78146 0
M  V30 1579 H 141.869 3.72927 -0.296064 0
M  V30 1580 H 143.202 4.90808 -0.3699 0
M  V30 1581 N 144.854 0.36279 1.53368 0
M  V30 1582 C 145.817 -0.472679 2.24273 0
M  V30 1583 C 146.817 -1.012 1.24961 0
M  V30 1584 O 148.007 -0.898194 1.49259 0
M  V30 1585 C 145.139 -1.66039 2.97731 0
M  V30 1586 H 146.332 0.14773 2.99536 0
M  V30 1587 H 143.885 0.114434 1.55881 0
M  V30 1588 H 144.62 -2.31896 2.26704 0
M  V30 1589 H 144.405 -1.28066 3.70596 0
M  V30 1590 H 145.895 -2.25252 3.51641 0
M  V30 1591 N 146.332 -1.57332 0.0918853 0
M  V30 1592 C 147.572 -1.96117 -0.575988 0
M  V30 1593 C 147.936 -0.972499 -1.65549 0
M  V30 1594 O 149.137 -1.24872 -2.38034 0
M  V30 1595 C 147.408 -3.39407 -1.11973 0
M  V30 1596 S 148.967 -4.00185 -1.79992 0
M  V30 1597 H 145.785 -0.685682 -0.188045 0
M  V30 1598 H 148.387 -1.94755 0.170525 0
M  V30 1599 H 147.091 -4.09131 -0.322504 0
M  V30 1600 H 146.622 -3.44358 -1.90214 0
M  V30 1601 H 148.637 -3.88728 -3.08391 0
M  V30 1602 N 147.81 0.181792 -1.56548 0
M  V30 1603 C 149.056 0.901431 -1.81665 0
M  V30 1604 C 149.389 1.82347 -0.668075 0
M  V30 1605 O 148.664 1.91669 0.330615 0
M  V30 1606 C 148.947 1.70618 -3.17115 0
M  V30 1607 C 148.8 0.807964 -4.42484 0
M  V30 1608 C 150.119 2.67605 -3.49393 0
M  V30 1609 H 147.238 0.32627 -0.660846 0
M  V30 1610 H 149.88 0.168134 -1.89255 0
M  V30 1611 H 148.03 2.33133 -3.10775 0
M  V30 1612 H 149.702 0.19649 -4.60881 0
M  V30 1613 H 147.945 0.115411 -4.33646 0
M  V30 1614 H 148.616 1.40632 -5.33785 0
M  V30 1615 H 151.092 2.15218 -3.56118 0
M  V30 1616 H 149.968 3.20985 -4.45264 0
M  V30 1617 H 150.229 3.47298 -2.73563 0
M  V30 1618 N 149.288 1.51039 0.449983 0
M  V30 1619 C 150.537 1.62317 1.19733 0
M  V30 1620 C 150.85 0.339101 1.92638 0
M  V30 1621 O 152.056 0.331069 2.69474 0
M  V30 1622 C 150.512 2.86608 2.17678 0
M  V30 1623 C 150.12 4.21972 1.50479 0
M  V30 1624 C 151.864 3.07239 2.92924 0
M  V30 1625 C 149.771 5.37426 2.46834 0
M  V30 1626 H 148.701 0.604532 0.450619 0
M  V30 1627 H 151.352 1.77494 0.465625 0
M  V30 1628 H 149.734 2.65037 2.94231 0
M  V30 1629 H 150.908 4.53878 0.795716 0
M  V30 1630 H 149.223 4.07117 0.874344 0
M  V30 1631 H 151.82 3.90668 3.65079 0
M  V30 1632 H 152.163 2.19807 3.5354 0
M  V30 1633 H 152.696 3.29091 2.23481 0
M  V30 1634 H 149.435 6.27079 1.90926 0
M  V30 1635 H 148.955 5.09912 3.15832 0
M  V30 1636 H 150.634 5.68862 3.08228 0
M  V30 1637 N 150.766 -0.704594 1.40972 0
M  V30 1638 C 151.698 -1.82974 1.38033 0
M  V30 1639 C 152.711 -1.60305 0.283931 0
M  V30 1640 O 153.9 -1.69975 0.545042 0
M  V30 1641 C 151 -3.19578 1.12795 0
M  V30 1642 C 150.173 -3.69352 2.34302 0
M  V30 1643 C 149.232 -4.84601 2.05058 0
M  V30 1644 O 148.258 -4.96682 2.7802 0
M  V30 1645 N 149.46 -5.71194 1.03528 0
M  V30 1646 H 152.225 -1.85991 2.35005 0
M  V30 1647 H 149.786 -0.886567 1.35468 0
M  V30 1648 H 151.778 -3.9429 0.911987 0
M  V30 1649 H 150.348 -3.11642 0.24452 0
M  V30 1650 H 149.568 -2.85649 2.71659 0
M  V30 1651 H 150.856 -3.99345 3.1528 0
M  V30 1652 H 150.254 -5.64054 0.431217 0
M  V30 1653 H 148.811 -6.45843 0.879205 0
M  V30 1654 N 152.244 -1.26651 -0.937939 0
M  V30 1655 C 153.154 -1.10276 -2.07066 0
M  V30 1656 C 154.17 -0.0354197 -1.73964 0
M  V30 1657 O 155.346 -0.239816 -1.99967 0
M  V30 1658 C 152.411 -0.740887 -3.38691 0
M  V30 1659 C 151.472 -1.88799 -3.85556 0
M  V30 1660 C 150.705 -1.54329 -5.10899 0
M  V30 1661 O 150.928 -0.446494 -5.6865 0
M  V30 1662 O 149.862 -2.37911 -5.52885 0
M  V30 1663 H 153.688 -2.05309 -2.23789 0
M  V30 1664 H 151.273 -1.05743 -1.0554 0
M  V30 1665 H 153.155 -0.55195 -4.1777 0
M  V30 1666 H 151.83 0.180022 -3.23199 0
M  V30 1667 H 150.737 -2.13191 -3.07409 0
M  V30 1668 H 152.07 -2.78874 -4.05574 0
M  V30 1669 N 153.722 1.14298 -1.08507 0
M  V30 1670 C 154.968 1.85633 -0.816581 0
M  V30 1671 C 155.301 1.82784 0.656021 0
M  V30 1672 O 154.576 1.25926 1.48233 0
M  V30 1673 C 154.859 3.34223 -1.34041 0
M  V30 1674 C 154.712 3.45639 -2.87843 0
M  V30 1675 C 156.031 4.29356 -0.9665 0
M  V30 1676 H 153.15 0.67402 -0.298104 0
M  V30 1677 H 155.792 1.34214 -1.34487 0
M  V30 1678 H 153.942 3.78144 -0.89104 0
M  V30 1679 H 155.614 3.10498 -3.41158 0
M  V30 1680 H 153.857 2.86817 -3.25451 0
M  V30 1681 H 154.528 4.50089 -3.19569 0
M  V30 1682 H 157.004 3.93457 -1.35391 0
M  V30 1683 H 155.88 5.3178 -1.3602 0
M  V30 1684 H 156.141 4.41919 0.126362 0
M  V30 1685 N 155.201 0.870884 1.31352 0
M  V30 1686 C 156.449 0.48132 1.96285 0
M  V30 1687 C 156.77 -0.969813 1.69173 0
M  V30 1688 O 156.04 -1.67998 1.00764 0
M  V30 1689 H 154.62 0.175002 0.726212 0
M  V30 1690 H 157.282 1.11087 1.60143 0
M  V30 1691 H 156.378 0.639825 3.05471 0
M  V30 1692 N 156.679 -1.44442 0.630414 0
M  V30 1693 C 157.925 -2.02351 0.134816 0
M  V30 1694 C 158.258 -1.4947 -1.23986 0
M  V30 1695 O 157.533 -0.678475 -1.82283 0
M  V30 1696 C 157.816 -3.59898 0.120707 0
M  V30 1697 C 157.669 -4.23063 1.52767 0
M  V30 1698 C 158.988 -4.36585 -0.555127 0
M  V30 1699 H 156.107 -0.73527 0.0504646 0
M  V30 1700 H 158.749 -1.72022 0.806751 0
M  V30 1701 H 156.899 -3.85868 -0.451477 0
M  V30 1702 H 158.571 -4.08202 2.14869 0
M  V30 1703 H 156.814 -3.80586 2.08175 0
M  V30 1704 H 157.485 -5.32071 1.46984 0
M  V30 1705 H 159.961 -4.16044 -0.0685429 0
M  V30 1706 H 158.837 -5.46294 -0.534185 0
M  V30 1707 H 159.098 -4.11138 -1.62535 0
M  V30 1708 N 158.157 -0.370918 -1.53173 0
M  V30 1709 C 159.067 0.480823 -2.2962 0
M  V30 1710 C 160.083 1.08789 -1.35798 0
M  V30 1711 O 161.259 1.09768 -1.68858 0
M  V30 1712 C 158.324 1.60227 -3.07454 0
M  V30 1713 C 157.385 1.0222 -4.16953 0
M  V30 1714 C 156.618 2.0902 -4.91066 0
M  V30 1715 O 156.841 3.30222 -4.65091 0
M  V30 1716 O 155.775 1.71778 -5.76867 0
M  V30 1717 H 159.601 -0.141421 -3.03371 0
M  V30 1718 H 157.186 -0.135146 -1.48787 0
M  V30 1719 H 159.068 2.25417 -3.56041 0
M  V30 1720 H 157.743 2.20982 -2.36535 0
M  V30 1721 H 156.65 0.334064 -3.72605 0
M  V30 1722 H 157.983 0.459131 -4.90054 0
M  V30 1723 N 159.635 1.57281 -0.100228 0
M  V30 1724 C 160.545 2.17833 0.870965 0
M  V30 1725 C 161.561 1.14921 1.30649 0
M  V30 1726 O 162.737 1.47313 1.37335 0
M  V30 1727 C 159.802 2.75085 2.1102 0
M  V30 1728 C 158.863 3.9297 1.72838 0
M  V30 1729 C 158.096 4.47482 2.90854 0
M  V30 1730 O 158.319 4.00922 4.05731 0
M  V30 1731 O 157.253 5.38433 2.69023 0
M  V30 1732 H 161.079 3.0124 0.38575 0
M  V30 1733 H 158.664 1.48881 0.124397 0
M  V30 1734 H 160.546 3.11656 2.83634 0
M  V30 1735 H 159.221 1.94721 2.58584 0
M  V30 1736 H 158.128 3.61201 0.973883 0
M  V30 1737 H 159.461 4.74713 1.30033 0
M  V30 1738 N 161.113 -0.173488 1.56642 0
M  V30 1739 C 162.341 -0.906095 1.86004 0
M  V30 1740 C 162.756 -1.75921 0.685355 0
M  V30 1741 O 162.113 -1.79198 -0.345578 0
M  V30 1742 C 162.164 -1.78462 3.14378 0
M  V30 1743 O 161.885 -0.965914 4.27319 0
M  V30 1744 C 163.386 -2.62707 3.57071 0
M  V30 1745 H 160.606 -0.263341 0.617165 0
M  V30 1746 H 163.15 -0.174236 2.03756 0
M  V30 1747 H 161.305 -2.46984 2.98459 0
M  V30 1748 H 161.719 -1.56655 5.00559 0
M  V30 1749 H 163.193 -3.19969 4.49804 0
M  V30 1750 H 163.67 -3.37472 2.81086 0
M  V30 1751 H 164.276 -1.99521 3.75595 0
M  V30 1752 N 162.591 -1.51276 -0.441967 0
M  V30 1753 C 164.002 -1.56244 -1.02199 0
M  V30 1754 C 164.353 -0.383149 -1.92422 0
M  V30 1755 O 163.478 0.500613 -2.1053 0
M  V30 1756 C 164.073 -2.83162 -1.86024 0
M  V30 1757 C 162.632 -2.90716 -2.39084 0
M  V30 1758 C 161.779 -2.50858 -1.18175 0
M  V30 1759 H 164.73 -1.5712 -0.223416 0
M  V30 1760 H 164.751 -2.66663 -2.71425 0
M  V30 1761 H 164.263 -3.68974 -1.20331 0
M  V30 1762 H 162.364 -2.09323 -3.08244 0
M  V30 1763 H 162.477 -3.94266 -2.72198 0
M  V30 1764 H 160.841 -2.03951 -1.52565 0
M  V30 1765 H 161.624 -3.3901 -0.541001 0
M  V30 1766 N 164.069 0.697108 -1.41344 0
M  V30 1767 C 164.999 1.82353 -1.45841 0
M  V30 1768 C 165.98 1.67115 -0.317247 0
M  V30 1769 O 167.165 1.86871 -0.528474 0
M  V30 1770 C 164.295 3.20476 -1.33838 0
M  V30 1771 C 163.249 3.50415 -2.4575 0
M  V30 1772 C 162.575 4.87878 -2.18813 0
M  V30 1773 C 163.875 3.49546 -3.88091 0
M  V30 1774 H 165.569 1.78846 -2.40113 0
M  V30 1775 H 163.115 0.859028 -1.15571 0
M  V30 1776 H 165.068 3.98988 -1.35596 0
M  V30 1777 H 163.792 3.24604 -0.360498 0
M  V30 1778 H 162.451 2.74253 -2.43271 0
M  V30 1779 H 162.099 4.8863 -1.19371 0
M  V30 1780 H 161.799 5.08875 -2.93803 0
M  V30 1781 H 163.323 5.68702 -2.22284 0
M  V30 1782 H 164.737 4.18066 -3.92293 0
M  V30 1783 H 163.134 3.82075 -4.62751 0
M  V30 1784 H 164.204 2.48552 -4.16353 0
M  V30 1785 N 165.547 1.27147 0.931209 0
M  V30 1786 C 166.48 1.0389 2.0318 0
M  V30 1787 C 167.458 -0.0395716 1.62552 0
M  V30 1788 O 168.642 0.104867 1.88208 0
M  V30 1789 C 165.769 0.575227 3.3378 0
M  V30 1790 C 164.815 1.64774 3.93385 0
M  V30 1791 S 165.648 3.23933 4.26413 0
M  V30 1792 C 166.804 2.79358 5.60098 0
M  V30 1793 H 167.037 1.97075 2.22596 0
M  V30 1794 H 164.57 1.10938 1.07387 0
M  V30 1795 H 166.528 0.314385 4.09294 0
M  V30 1796 H 165.189 -0.336505 3.12292 0
M  V30 1797 H 164.382 1.27454 4.87618 0
M  V30 1798 H 163.984 1.86048 3.24441 0
M  V30 1799 H 166.276 2.24443 6.39243 0
M  V30 1800 H 167.219 3.72322 6.02314 0
M  V30 1801 H 167.627 2.1861 5.20452 0
M  V30 1802 N 167.025 -1.13721 1.09112 0
M  V30 1803 C 167.973 -2.21103 0.722219 0
M  V30 1804 C 168.967 -1.67147 -0.275374 0
M  V30 1805 O 170.173 -1.79477 -0.137176 0
M  V30 1806 H 166.548 -0.720445 0.215553 0
M  V30 1807 H 168.519 -2.49483 1.63709 0
M  V30 1808 C 167.268 -3.47352 0.15543 0
M  V30 1809 H 166.591 -3.89206 0.914246 0
M  V30 1810 H 168.031 -4.2395 -0.0647967 0
M  V30 1811 C 166.49 -3.1814 -1.10852 0
M  V30 1812 O 167.02 -3.36604 -2.19227 0
M  V30 1813 N 165.226 -2.72045 -1.02176 0
M  V30 1814 H 164.773 -2.57221 -0.139764 0
M  V30 1815 H 164.731 -2.52875 -1.8682 0
M  V30 1816 N 168.503 -0.877838 -1.30888 0
M  V30 1817 C 169.749 -0.493426 -1.96706 0
M  V30 1818 C 170.082 0.953504 -1.6918 0
M  V30 1819 O 169.357 1.67266 -0.992594 0
M  V30 1820 C 169.64 -0.760429 -3.51979 0
M  V30 1821 C 169.493 -2.25747 -3.89048 0
M  V30 1822 C 170.812 -0.232148 -4.39487 0
M  V30 1823 H 167.931 -0.180746 -0.714493 0
M  V30 1824 H 170.573 -1.10052 -1.54882 0
M  V30 1825 H 168.723 -0.243715 -3.87735 0
M  V30 1826 H 170.395 -2.84204 -3.63354 0
M  V30 1827 H 168.638 -2.72694 -3.37373 0
M  V30 1828 H 169.309 -2.39491 -4.97341 0
M  V30 1829 H 171.785 -0.674314 -4.106 0
M  V30 1830 H 170.661 -0.448355 -5.47066 0
M  V30 1831 H 170.922 0.866297 -4.33529 0
M  V30 1832 N 169.982 1.44106 -0.638065 0
M  V30 1833 C 171.259 1.95453 -0.0759321 0
M  V30 1834 C 171.639 1.57984 1.40015 0
M  V30 1835 O 170.987 0.857361 2.11806 0
M  V30 1836 C 171.197 3.47655 -0.306132 0
M  V30 1837 C 172.545 4.24114 -0.203008 0
M  V30 1838 O 173.569 3.55405 -0.237871 0
M  V30 1839 O 172.428 5.46381 -0.113827 0
M  V30 1840 H 169.522 0.826797 0.0183332 0
M  V30 1841 H 172.068 1.54122 -0.710251 0
M  V30 1842 H 170.84 3.68 -1.3301 0
M  V30 1843 H 170.463 3.95949 0.361991 0
M  V30 1844 N 171.46 0.379036 1.52974 0
M  V30 1845 C 172.685 -0.209353 2.06341 0
M  V30 1846 C 173.11 -1.40583 1.24972 0
M  V30 1847 O 172.468 -1.79246 0.272155 0
M  V30 1848 C 172.516 -0.567786 3.56102 0
M  V30 1849 O 171.62 -1.66318 3.77375 0
M  V30 1850 H 170.961 -0.0272919 0.663439 0
M  V30 1851 H 173.491 0.543536 1.97248 0
M  V30 1852 H 173.501 -0.835003 3.99364 0
M  V30 1853 H 172.176 0.307013 4.14765 0
M  V30 1854 H 170.753 -1.39048 3.46006 0
M  V30 1855 N 172.938 -1.57226 0.108567 0
M  V30 1856 C 174.187 -1.94008 -0.551703 0
M  V30 1857 C 174.5 -0.993442 -1.68494 0
M  V30 1858 O 175.706 -1.25551 -2.40726 0
M  V30 1859 C 174.162 -3.44763 -1.03279 0
M  V30 1860 C 173.77 -4.47943 0.0714193 0
M  V30 1861 C 175.514 -3.90483 -1.66503 0
M  V30 1862 C 173.421 -5.89865 -0.425779 0
M  V30 1863 H 172.351 -0.724206 -0.209863 0
M  V30 1864 H 175.002 -1.82547 0.186741 0
M  V30 1865 H 173.384 -3.51422 -1.82533 0
M  V30 1866 H 174.558 -4.52942 0.847365 0
M  V30 1867 H 172.873 -4.11913 0.609669 0
M  V30 1868 H 175.47 -4.93925 -2.04798 0
M  V30 1869 H 175.813 -3.29877 -2.53942 0
M  V30 1870 H 176.346 -3.86581 -0.938074 0
M  V30 1871 H 173.085 -6.54202 0.412316 0
M  V30 1872 H 172.605 -5.88309 -1.16843 0
M  V30 1873 H 174.284 -6.40844 -0.890397 0
M  V30 1874 N 174.416 0.165178 -1.56732 0
M  V30 1875 C 175.346 1.20651 -1.99914 0
M  V30 1876 C 176.327 1.45827 -0.875705 0
M  V30 1877 O 177.512 1.57057 -1.14223 0
M  V30 1878 C 174.642 2.54401 -2.36427 0
M  V30 1879 C 173.596 2.43782 -3.51787 0
M  V30 1880 C 172.922 3.82078 -3.7406 0
M  V30 1881 C 174.222 1.93732 -4.85041 0
M  V30 1882 H 175.916 0.847534 -2.87154 0
M  V30 1883 H 173.462 0.40625 -1.38151 0
M  V30 1884 H 175.415 3.27458 -2.65234 0
M  V30 1885 H 174.139 2.92098 -1.46103 0
M  V30 1886 H 172.798 1.73178 -3.23117 0
M  V30 1887 H 172.446 4.17179 -2.81017 0
M  V30 1888 H 172.146 3.7584 -4.51684 0
M  V30 1889 H 173.67 4.56712 -4.05274 0
M  V30 1890 H 175.084 2.56569 -5.12684 0
M  V30 1891 H 173.481 1.98428 -5.66345 0
M  V30 1892 H 174.551 0.891962 -4.76626 0
M  V30 1893 N 175.894 1.51508 0.433938 0
M  V30 1894 C 176.857 1.72473 1.50949 0
M  V30 1895 C 177.857 0.594725 1.49398 0
M  V30 1896 O 179.047 0.862315 1.5136 0
M  V30 1897 C 176.179 1.78431 2.90474 0
M  V30 1898 H 177.372 2.68467 1.33662 0
M  V30 1899 H 174.925 1.41549 0.662836 0
M  V30 1900 H 175.66 0.842645 3.13161 0
M  V30 1901 H 175.445 2.60558 2.93005 0
M  V30 1902 H 176.935 1.96479 3.68491 0
M  V30 1903 N 177.372 -0.689602 1.41712 0
M  V30 1904 C 178.618 -1.45181 1.41599 0
M  V30 1905 C 178.951 -1.94181 0.0270081 0
M  V30 1906 O 178.226 -1.6993 -0.946265 0
M  V30 1907 C 178.509 -2.65945 2.42787 0
M  V30 1908 C 178.362 -2.22672 3.90816 0
M  V30 1909 C 179.681 -3.68149 2.41151 0
M  V30 1910 H 176.8 -0.526576 0.515642 0
M  V30 1911 H 179.442 -0.784947 1.73028 0
M  V30 1912 H 177.592 -3.2284 2.16116 0
M  V30 1913 H 179.264 -1.71058 4.28412 0
M  V30 1914 H 177.507 -1.54394 4.05395 0
M  V30 1915 H 178.178 -3.0935 4.57172 0
M  V30 1916 H 180.654 -3.2094 2.64834 0
M  V30 1917 H 179.53 -4.50248 3.13955 0
M  V30 1918 H 179.791 -4.18259 1.43221 0
M  V30 1919 N 178.85 -1.27639 -0.924453 0
M  V30 1920 C 179.797 -1.10644 -2.0255 0
M  V30 1921 C 180.767 -0.00658438 -1.66099 0
M  V30 1922 O 181.952 -0.16952 -1.90045 0
M  V30 1923 C 179.092 -0.76309 -3.36557 0
M  V30 1924 C 178.205 -1.94091 -3.85944 0
M  V30 1925 C 177.34 -1.53914 -5.08413 0
M  V30 1926 C 176.379 -2.68425 -5.50104 0
M  V30 1927 N 175.516 -2.28815 -6.63768 0
M  V30 1928 H 180.356 -2.04858 -2.16419 0
M  V30 1929 H 177.893 -1.01974 -1.06017 0
M  V30 1930 H 179.851 -0.544822 -4.13627 0
M  V30 1931 H 178.481 0.142102 -3.22487 0
M  V30 1932 H 177.533 -2.27162 -3.05125 0
M  V30 1933 H 178.845 -2.7998 -4.12811 0
M  V30 1934 H 177.999 -1.28231 -5.92994 0
M  V30 1935 H 176.738 -0.651391 -4.8333 0
M  V30 1936 H 175.743 -2.94819 -4.64071 0
M  V30 1937 H 176.968 -3.57826 -5.7718 0
M  V30 1938 H 174.914 -1.42495 -6.40337 0
M  V30 1939 H 174.831 -3.08242 -6.90306 0
M  V30 1940 H 176.099 -2.06387 -7.51681 0
M  V30 1941 N 180.328 1.1314 -1.09713 0
M  V30 1942 C 181.275 2.18642 -0.739196 0
M  V30 1943 C 182.245 1.63706 0.280978 0
M  V30 1944 O 183.43 1.90111 0.161946 0
M  V30 1945 C 180.57 3.44685 -0.169102 0
M  V30 1946 C 179.683 4.13711 -1.24367 0
M  V30 1947 C 178.818 5.27379 -0.636019 0
M  V30 1948 C 177.857 5.88259 -1.69169 0
M  V30 1949 N 176.994 6.93352 -1.10485 0
M  V30 1950 H 181.834 2.48607 -1.64312 0
M  V30 1951 H 179.371 1.22066 -0.820875 0
M  V30 1952 H 181.329 4.16815 0.179256 0
M  V30 1953 H 179.959 3.15161 0.698079 0
M  V30 1954 H 179.011 3.39835 -1.70927 0
M  V30 1955 H 180.323 4.55037 -2.04311 0
M  V30 1956 H 179.477 6.06238 -0.236677 0
M  V30 1957 H 178.216 4.8731 0.194928 0
M  V30 1958 H 177.221 5.08092 -2.10055 0
M  V30 1959 H 178.446 6.30399 -2.52536 0
M  V30 1960 H 176.392 6.55335 -0.295234 0
M  V30 1961 H 176.309 7.33236 -1.84121 0
M  V30 1962 H 177.577 7.76057 -0.73181 0
M  V30 1963 N 181.806 0.884767 1.30421 0
M  V30 1964 C 183.036 0.517293 2.00019 0
M  V30 1965 C 183.444 -0.898632 1.66497 0
M  V30 1966 O 182.787 -1.60245 0.898181 0
M  V30 1967 C 182.849 0.612025 3.54252 0
M  V30 1968 C 182.513 1.99222 4.1129 0
M  V30 1969 C 183.51 2.9616 4.273 0
M  V30 1970 C 181.195 2.29755 4.46674 0
M  V30 1971 C 183.189 4.21764 4.77906 0
M  V30 1972 C 180.876 3.55606 4.96979 0
M  V30 1973 C 181.874 4.51425 5.12547 0
M  V30 1974 O 181.562 5.75043 5.61766 0
M  V30 1975 H 181.294 0.198529 0.64619 0
M  V30 1976 H 183.848 1.1919 1.67281 0
M  V30 1977 H 182.078 -0.119561 3.86515 0
M  V30 1978 H 183.767 0.255859 4.05093 0
M  V30 1979 H 184.533 2.73882 4.00267 0
M  V30 1980 H 180.412 1.55942 4.33824 0
M  V30 1981 H 183.956 4.96561 4.89972 0
M  V30 1982 H 179.853 3.7772 5.23448 0
M  V30 1983 H 180.621 5.77422 5.80109 0
M  V30 1984 N 183.284 -1.43765 0.645699 0
M  V30 1985 C 184.531 -2.01898 0.15604 0
M  V30 1986 C 184.859 -1.50887 -1.22733 0
M  V30 1987 O 184.114 -0.689271 -1.8316 0
M  V30 1988 C 184.413 -3.57238 0.107679 0
M  V30 1989 C 184.079 -4.27564 1.43178 0
M  V30 1990 C 182.741 -4.46492 1.7944 0
M  V30 1991 C 185.093 -4.67454 2.30513 0
M  V30 1992 C 182.421 -5.02573 3.02716 0
M  V30 1993 C 184.773 -5.24901 3.53074 0
M  V30 1994 C 183.437 -5.42046 3.89541 0
M  V30 1995 H 182.707 -0.738797 0.057099 0
M  V30 1996 H 185.354 -1.72341 0.834912 0
M  V30 1997 H 183.659 -3.86293 -0.654618 0
M  V30 1998 H 185.356 -3.99965 -0.287938 0
M  V30 1999 H 181.946 -4.13171 1.13963 0
M  V30 2000 H 186.13 -4.5253 2.0379 0
M  V30 2001 H 181.386 -5.14033 3.31028 0
M  V30 2002 H 185.56 -5.54758 4.20971 0
M  V30 2003 H 183.187 -5.85268 4.85145 0
M  V30 2004 N 184.763 -0.387143 -1.52771 0
M  V30 2005 C 185.695 0.484089 -2.2403 0
M  V30 2006 C 186.708 1.02849 -1.26198 0
M  V30 2007 O 187.897 0.931186 -1.52286 0
M  V30 2008 C 184.997 1.68337 -2.94136 0
M  V30 2009 C 184.17 1.26672 -4.18656 0
M  V30 2010 C 183.229 2.33045 -4.7178 0
M  V30 2011 O 182.255 1.94541 -5.34923 0
M  V30 2012 N 183.457 3.64929 -4.5145 0
M  V30 2013 H 186.222 -0.126404 -2.99433 0
M  V30 2014 H 183.783 -0.213392 -1.60488 0
M  V30 2015 H 185.775 2.39019 -3.26577 0
M  V30 2016 H 184.345 2.20025 -2.22053 0
M  V30 2017 H 183.565 0.388878 -3.92277 0
M  V30 2018 H 184.853 0.964964 -4.99566 0
M  V30 2019 H 184.251 3.98974 -4.01044 0
M  V30 2020 H 182.808 4.31651 -4.88386 0
M  V30 2021 N 186.241 1.57166 -0.116904 0
M  V30 2022 C 187.657 1.5779 0.239693 0
M  V30 2023 C 187.857 1.1295 1.66867 0
M  V30 2024 O 186.913 0.81592 2.38954 0
M  V30 2025 C 188.226 3.00699 0.00828202 0
M  V30 2026 C 189.774 3.12912 0.0743438 0
M  V30 2027 C 190.249 4.57817 -0.129348 0
M  V30 2028 N 191.74 4.63139 -0.075247 0
M  V30 2029 C 192.475 5.73023 -0.207788 0
M  V30 2030 N 191.971 6.91665 -0.396382 0
M  V30 2031 N 193.764 5.61906 -0.14751 0
M  V30 2032 H 185.915 1.84615 -1.05029 0
M  V30 2033 H 188.178 0.85311 -0.41341 0
M  V30 2034 H 187.884 3.37784 -0.979531 0
M  V30 2035 H 187.758 3.69848 0.741077 0
M  V30 2036 H 190.145 2.75686 1.05268 0
M  V30 2037 H 190.226 2.4631 -0.690297 0
M  V30 2038 H 189.87 4.95742 -1.10465 0
M  V30 2039 H 189.8 5.22507 0.655253 0
M  V30 2040 H 192.291 3.7784 0.0670898 0
M  V30 2041 H 192.604 7.71255 -0.488437 0
M  V30 2042 H 190.949 6.93654 -0.432329 0
M  V30 2043 H 194.14 4.681 -0.00115036 0
M  V30 2044 H 194.313 6.47501 -0.254247 0
M  V30 2045 N 187.719 -0.156864 1.56817 0
M  V30 2046 C 188.968 -0.869504 1.81996 0
M  V30 2047 C 189.281 -1.82777 0.696545 0
M  V30 2048 O 190.487 -2.58384 0.833658 0
M  V30 2049 C 188.943 -1.59679 3.22538 0
M  V30 2050 C 188.551 -0.681431 4.42787 0
M  V30 2051 C 190.295 -2.2968 3.56997 0
M  V30 2052 C 188.202 -1.40978 5.74351 0
M  V30 2053 H 187.132 -0.328438 0.678708 0
M  V30 2054 H 189.783 -0.1223 1.83092 0
M  V30 2055 H 188.165 -2.38927 3.158 0
M  V30 2056 H 189.339 0.0751166 4.60739 0
M  V30 2057 H 187.654 -0.0903431 4.16302 0
M  V30 2058 H 190.251 -2.84794 4.52544 0
M  V30 2059 H 190.594 -3.05707 2.82576 0
M  V30 2060 H 191.127 -1.57361 3.65352 0
M  V30 2061 H 187.866 -0.691561 6.51842 0
M  V30 2062 H 187.386 -2.13929 5.60352 0
M  V30 2063 H 189.065 -1.95337 6.16808 0
M  V30 2064 N 189.197 -1.51736 -0.425897 0
M  V30 2065 C 190.425 -1.68794 -1.1965 0
M  V30 2066 C 190.84 -0.390164 -1.84725 0
M  V30 2067 O 190.197 0.632376 -1.71194 0
M  V30 2068 C 190.248 -2.81174 -2.27208 0
M  V30 2069 O 189.969 -4.05925 -1.64793 0
M  V30 2070 C 191.47 -3.09599 -3.17275 0
M  V30 2071 H 188.69 -0.566128 -0.360194 0
M  V30 2072 H 191.234 -1.98211 -0.503249 0
M  V30 2073 H 189.389 -2.54324 -2.9223 0
M  V30 2074 H 189.803 -4.68423 -2.35967 0
M  V30 2075 H 191.277 -3.91786 -3.88854 0
M  V30 2076 H 191.754 -2.22468 -3.78688 0
M  V30 2077 H 192.36 -3.38151 -2.57941 0
M  V30 2078 N 190.675 0.682077 -1.42076 0
M  V30 2079 C 191.605 1.80796 -1.47767 0
M  V30 2080 C 192.586 1.6677 -0.334954 0
M  V30 2081 O 193.771 1.863 -0.548264 0
M  V30 2082 C 190.901 3.19038 -1.37229 0
M  V30 2083 C 189.855 3.47789 -2.49453 0
M  V30 2084 C 189.181 4.8553 -2.23975 0
M  V30 2085 C 190.481 3.45411 -3.91776 0
M  V30 2086 H 192.175 1.7629 -2.41997 0
M  V30 2087 H 189.721 0.846721 -1.16476 0
M  V30 2088 H 191.674 3.97528 -1.39821 0
M  V30 2089 H 190.398 3.24204 -0.394907 0
M  V30 2090 H 189.057 2.71657 -2.46166 0
M  V30 2091 H 188.705 4.87337 -1.24547 0
M  V30 2092 H 188.405 5.0573 -2.99184 0
M  V30 2093 H 189.929 5.66312 -2.28304 0
M  V30 2094 H 191.343 4.13882 -3.96705 0
M  V30 2095 H 189.74 3.77145 -4.66778 0
M  V30 2096 H 190.81 2.44122 -4.18966 0
M  V30 2097 N 192.153 1.28127 0.917671 0
M  V30 2098 C 193.383 1.17722 1.6978 0
M  V30 2099 C 193.791 -0.267261 1.87303 0
M  V30 2100 O 193.134 -1.19286 1.39702 0
M  V30 2101 C 193.196 1.79958 3.11216 0
M  V30 2102 C 192.86 3.29187 3.16993 0
M  V30 2103 C 193.857 4.25679 2.98485 0
M  V30 2104 C 191.542 3.70075 3.39632 0
M  V30 2105 C 193.536 5.61035 3.02521 0
M  V30 2106 C 191.223 5.05557 3.433 0
M  V30 2107 C 192.221 6.00847 3.24764 0
M  V30 2108 O 191.909 7.33859 3.28187 0
M  V30 2109 H 191.641 0.409788 0.537634 0
M  V30 2110 H 194.195 1.69694 1.15728 0
M  V30 2111 H 192.425 1.22475 3.66793 0
M  V30 2112 H 194.114 1.64125 3.71238 0
M  V30 2113 H 194.88 3.95426 2.80826 0
M  V30 2114 H 190.759 2.96373 3.53106 0
M  V30 2115 H 194.303 6.35388 2.87971 0
M  V30 2116 H 190.2 5.35462 3.60486 0
M  V30 2117 H 190.968 7.42436 3.44575 0
M  V30 2118 N 193.631 -1.12557 1.10312 0
M  V30 2119 C 194.561 -2.20341 0.772798 0
M  V30 2120 C 195.542 -1.68198 -0.25365 0
M  V30 2121 O 196.727 -1.93831 -0.119699 0
M  V30 2122 C 193.857 -3.46709 0.202443 0
M  V30 2123 C 192.811 -4.11996 1.15943 0
M  V30 2124 C 192.137 -5.328 0.450345 0
M  V30 2125 C 193.437 -4.5828 2.50552 0
M  V30 2126 H 195.131 -2.48229 1.674 0
M  V30 2127 H 192.677 -1.19308 0.806326 0
M  V30 2128 H 194.63 -4.2138 -0.0407752 0
M  V30 2129 H 193.354 -3.18245 -0.734001 0
M  V30 2130 H 192.013 -3.39305 1.38808 0
M  V30 2131 H 191.661 -5.00602 -0.490531 0
M  V30 2132 H 191.361 -5.7743 1.08851 0
M  V30 2133 H 192.885 -6.10219 0.215642 0
M  V30 2134 H 194.299 -5.2433 2.31843 0
M  V30 2135 H 192.696 -5.13683 3.10242 0
M  V30 2136 H 193.766 -3.72329 3.10643 0
M  V30 2137 N 195.109 -0.891671 -1.2995 0
M  V30 2138 C 196.337 -0.52866 -2.00032 0
M  V30 2139 C 196.752 0.884574 -1.66795 0
M  V30 2140 O 196.109 1.5827 -0.908669 0
M  V30 2141 C 196.16 -0.701814 -3.54622 0
M  V30 2142 O 195.881 -2.05942 -3.86678 0
M  V30 2143 C 197.382 -0.342683 -4.41973 0
M  V30 2144 H 194.602 -0.203659 -0.639347 0
M  V30 2145 H 197.146 -1.19881 -1.65677 0
M  V30 2146 H 195.301 -0.0789468 -3.8732 0
M  V30 2147 H 195.715 -2.08291 -4.81368 0
M  V30 2148 H 197.189 -0.514709 -5.49595 0
M  V30 2149 H 197.666 0.71975 -4.33262 0
M  V30 2150 H 198.272 -0.942154 -4.14733 0
M  V30 2151 N 196.587 1.43421 -0.653314 0
M  V30 2152 C 197.497 2.34568 0.0388565 0
M  V30 2153 C 198.513 1.53888 0.81207 0
M  V30 2154 O 199.689 1.86539 0.759294 0
M  V30 2155 C 196.754 3.32167 0.993269 0
M  V30 2156 C 195.815 4.28751 0.216977 0
M  V30 2157 C 195.048 5.21688 1.12593 0
M  V30 2158 O 195.271 5.19052 2.36519 0
M  V30 2159 O 194.205 5.98919 0.598284 0
M  V30 2160 H 198.031 2.95251 -0.711386 0
M  V30 2161 H 195.616 1.43564 -0.413502 0
M  V30 2162 H 197.498 3.92183 1.54176 0
M  V30 2163 H 196.173 2.73987 1.72374 0
M  V30 2164 H 195.08 3.72215 -0.375101 0
M  V30 2165 H 196.413 4.89913 -0.473924 0
M  V30 2166 N 198.065 0.39524 1.52563 0
M  V30 2167 C 199.012 -0.437036 2.26624 0
M  V30 2168 C 199.982 -1.05281 1.28472 0
M  V30 2169 O 201.167 -1.07971 1.57311 0
M  V30 2170 C 198.307 -1.55524 3.08069 0
M  V30 2171 C 197.42 -0.961745 4.21158 0
M  V30 2172 C 196.555 -2.05149 4.89987 0
M  V30 2173 C 195.594 -1.4342 5.95061 0
M  V30 2174 N 194.731 -2.46351 6.57462 0
M  V30 2175 H 199.571 0.200976 2.97322 0
M  V30 2176 H 197.108 0.110944 1.46681 0
M  V30 2177 H 199.066 -2.21437 3.53584 0
M  V30 2178 H 197.696 -2.16348 2.3957 0
M  V30 2179 H 196.748 -0.192048 3.79915 0
M  V30 2180 H 198.06 -0.470701 4.96574 0
M  V30 2181 H 197.214 -2.78819 5.38837 0
M  V30 2182 H 195.953 -2.57615 4.14109 0
M  V30 2183 H 194.958 -0.682774 5.45544 0
M  V30 2184 H 196.183 -0.917416 6.72875 0
M  V30 2185 H 194.129 -2.97975 5.8442 0
M  V30 2186 H 194.046 -2.02019 7.28508 0
M  V30 2187 H 195.314 -3.19633 7.10954 0
M  V30 2188 N 199.544 -1.57102 0.125237 0
M  V30 2189 C 200.491 -2.15641 -0.822655 0
M  V30 2190 C 201.461 -1.08313 -1.25927 0
M  V30 2191 O 202.646 -1.36251 -1.33567 0
M  V30 2192 C 199.786 -2.76504 -2.06494 0
M  V30 2193 C 198.899 -3.98158 -1.67612 0
M  V30 2194 C 198.034 -4.47088 -2.86854 0
M  V30 2195 C 197.073 -5.6126 -2.44242 0
M  V30 2196 N 196.21 -6.04905 -3.56419 0
M  V30 2197 H 201.05 -2.96313 -0.316625 0
M  V30 2198 H 198.587 -1.46388 -0.144588 0
M  V30 2199 H 200.545 -3.09925 -2.79289 0
M  V30 2200 H 199.175 -1.98512 -2.54545 0
M  V30 2201 H 198.227 -3.70858 -0.846661 0
M  V30 2202 H 199.539 -4.80934 -1.32301 0
M  V30 2203 H 198.693 -4.82451 -3.67867 0
M  V30 2204 H 197.432 -3.63275 -3.25396 0
M  V30 2205 H 196.437 -5.25495 -1.61663 0
M  V30 2206 H 197.662 -6.46843 -2.0681 0
M  V30 2207 H 195.608 -5.24032 -3.94623 0
M  V30 2208 H 195.525 -6.82552 -3.25051 0
M  V30 2209 H 196.793 -6.44907 -4.37853 0
M  V30 2210 N 201.022 0.148545 -1.56898 0
M  V30 2211 C 202.252 0.875118 -1.8715 0
M  V30 2212 C 202.66 1.75322 -0.711262 0
M  V30 2213 O 202.003 1.80745 0.328151 0
M  V30 2214 C 202.065 1.7844 -3.12089 0
M  V30 2215 C 201.729 1.08361 -4.43967 0
M  V30 2216 C 202.726 0.438247 -5.1805 0
M  V30 2217 C 200.411 1.07358 -4.90693 0
M  V30 2218 C 202.405 -0.20779 -6.37061 0
M  V30 2219 C 200.092 0.42373 -6.09629 0
M  V30 2220 C 201.09 -0.215829 -6.82659 0
M  V30 2221 O 200.778 -0.855378 -7.99336 0
M  V30 2222 H 200.51 0.258504 -0.624621 0
M  V30 2223 H 203.064 0.14652 -2.04877 0
M  V30 2224 H 201.294 2.55389 -2.90367 0
M  V30 2225 H 202.983 2.38279 -3.286 0
M  V30 2226 H 203.749 0.437817 -4.8302 0
M  V30 2227 H 199.628 1.5608 -4.33774 0
M  V30 2228 H 203.172 -0.70758 -6.94002 0
M  V30 2229 H 199.069 0.421822 -6.4412 0
M  V30 2230 H 199.837 -0.756892 -8.14993 0
M  V30 2231 N 202.5 1.5196 0.417844 0
M  V30 2232 C 203.725 1.69717 1.1921 0
M  V30 2233 C 204.15 0.402148 1.83751 0
M  V30 2234 O 203.508 -0.639593 1.69643 0
M  V30 2235 C 203.556 2.82794 2.2374 0
M  V30 2236 O 202.66 2.47756 3.29683 0
M  V30 2237 H 202.001 0.565263 0.348387 0
M  V30 2238 H 204.531 1.98621 0.490985 0
M  V30 2239 H 204.541 3.07452 2.68212 0
M  V30 2240 H 203.216 3.76756 1.76146 0
M  V30 2241 H 201.793 2.33739 2.90552 0
M  V30 2242 N 203.978 -0.674533 1.42435 0
M  V30 2243 C 205.389 -1.25514 1.38214 0
M  V30 2244 C 205.74 -1.96055 0.0755464 0
M  V30 2245 O 204.865 -2.00028 -0.8257 0
M  V30 2246 C 205.46 -2.28269 2.50357 0
M  V30 2247 C 204.019 -2.81856 2.49467 0
M  V30 2248 C 203.166 -1.56182 2.29134 0
M  V30 2249 H 206.117 -0.467902 1.51646 0
M  V30 2250 H 206.138 -3.10009 2.20624 0
M  V30 2251 H 205.65 -1.769 3.45439 0
M  V30 2252 H 203.751 -3.37346 1.58204 0
M  V30 2253 H 203.864 -3.30854 3.46515 0
M  V30 2254 H 202.228 -1.82761 1.774 0
M  V30 2255 H 203.011 -1.06778 3.26272 0
M  V30 2256 N 205.456 -1.28612 -0.910864 0
M  V30 2257 C 206.696 -1.1719 -1.67469 0
M  V30 2258 C 207.06 0.274441 -1.90028 0
M  V30 2259 O 208.261 0.511425 -2.6389 0
M  V30 2260 C 206.532 -1.95137 -2.99427 0
M  V30 2261 S 208.091 -2.00122 -3.90508 0
M  V30 2262 H 204.909 -0.41806 -0.575106 0
M  V30 2263 H 207.511 -1.6275 -1.08317 0
M  V30 2264 H 206.215 -2.99381 -2.80712 0
M  V30 2265 H 205.746 -1.50137 -3.63624 0
M  V30 2266 H 207.761 -1.10981 -4.8363 0
M  V30 2267 N 206.934 1.1197 -1.10907 0
M  V30 2268 C 207.897 2.16031 -0.765707 0
M  V30 2269 C 208.897 1.59393 0.212235 0
M  V30 2270 O 210.087 1.74196 -0.0115441 0
M  V30 2271 C 207.219 3.40632 -0.135053 0
M  V30 2272 H 208.412 2.47919 -1.68748 0
M  V30 2273 H 205.965 1.27061 -0.910226 0
M  V30 2274 H 206.7 3.14348 0.797218 0
M  V30 2275 H 206.485 3.8302 -0.838937 0
M  V30 2276 H 207.975 4.17505 0.0892469 0
M  V30 2277 N 208.412 0.89855 1.29475 0
M  V30 2278 C 209.658 0.534065 1.96263 0
M  V30 2279 C 210.013 -0.909415 1.69551 0
M  V30 2280 O 209.306 -1.63596 0.997349 0
M  V30 2281 C 209.5 0.761398 3.49195 0
M  V30 2282 C 209.329 2.22542 3.90775 0
M  V30 2283 C 208.099 2.87264 4.15701 0
M  V30 2284 C 210.297 3.20051 4.02581 0
M  V30 2285 N 208.279 4.24121 4.4384 0
M  V30 2286 C 209.65 4.42023 4.34759 0
M  V30 2287 C 211.705 3.15657 3.85052 0
M  V30 2288 C 210.408 5.60161 4.51235 0
M  V30 2289 C 212.434 4.33078 4.02737 0
M  V30 2290 C 211.796 5.5382 4.35273 0
M  V30 2291 H 207.895 0.245013 0.742625 0
M  V30 2292 H 210.479 1.15912 1.56437 0
M  V30 2293 H 208.65 0.165732 3.88046 0
M  V30 2294 H 210.382 0.362462 4.03074 0
M  V30 2295 H 207.137 2.38064 4.09417 0
M  V30 2296 H 207.561 4.94839 4.6202 0
M  V30 2297 H 212.203 2.23396 3.58962 0
M  V30 2298 H 209.921 6.52913 4.76162 0
M  V30 2299 H 213.507 4.31163 3.90628 0
M  V30 2300 H 212.387 6.43166 4.48672 0
M  V30 2301 N 209.89 -1.43072 0.660911 0
M  V30 2302 C 210.8 -2.34585 -0.0264163 0
M  V30 2303 C 211.816 -1.54316 -0.803898 0
M  V30 2304 O 212.992 -1.86939 -0.749391 0
M  V30 2305 C 210.057 -3.32689 -0.975639 0
M  V30 2306 C 209.118 -4.2886 -0.194236 0
M  V30 2307 C 208.351 -5.22278 -1.09825 0
M  V30 2308 O 208.574 -5.20299 -2.33763 0
M  V30 2309 O 207.508 -5.99228 -0.566513 0
M  V30 2310 H 211.334 -2.94869 0.727034 0
M  V30 2311 H 208.919 -1.43342 0.42111 0
M  V30 2312 H 210.801 -3.92995 -1.52094 0
M  V30 2313 H 209.476 -2.74898 -1.70918 0
M  V30 2314 H 208.383 -3.72011 0.394835 0
M  V30 2315 H 209.716 -4.89655 0.499899 0
M  V30 2316 N 211.368 -0.403325 -1.52352 0
M  V30 2317 C 212.614 0.174605 -2.02047 0
M  V30 2318 C 212.947 1.45282 -1.28867 0
M  V30 2319 O 212.222 1.90483 -0.393257 0
M  V30 2320 C 212.505 0.428238 -3.57545 0
M  V30 2321 C 212.358 -0.866248 -4.4138 0
M  V30 2322 C 213.677 1.21287 -4.23057 0
M  V30 2323 H 210.796 0.0619851 -0.734389 0
M  V30 2324 H 213.438 -0.53565 -1.82293 0
M  V30 2325 H 211.588 1.03327 -3.74507 0
M  V30 2326 H 213.26 -1.50265 -4.3614 0
M  V30 2327 H 211.503 -1.47851 -4.07827 0
M  V30 2328 H 212.174 -0.643249 -5.48239 0
M  V30 2329 H 214.65 0.700703 -4.10158 0
M  V30 2330 H 213.526 1.35909 -5.31808 0
M  V30 2331 H 213.787 2.23193 -3.81625 0
M  V30 2332 N 212.846 1.57033 -0.133567 0
M  V30 2333 C 214.092 1.95976 0.521649 0
M  V30 2334 C 214.425 1.01779 1.65393 0
M  V30 2335 O 213.7 0.0576581 1.94415 0
M  V30 2336 C 213.983 3.44738 1.04057 0
M  V30 2337 C 213.836 4.49711 -0.0892897 0
M  V30 2338 C 215.155 3.95682 1.92675 0
M  V30 2339 H 212.274 0.712579 0.188149 0
M  V30 2340 H 214.916 1.88813 -0.212076 0
M  V30 2341 H 213.066 3.50973 1.66583 0
M  V30 2342 H 214.738 4.55565 -0.725152 0
M  V30 2343 H 212.981 4.27261 -0.750378 0
M  V30 2344 H 213.652 5.51099 0.315284 0
M  V30 2345 H 216.128 3.91841 1.39998 0
M  V30 2346 H 215.004 5.00262 2.25897 0
M  V30 2347 H 215.265 3.37239 2.85872 0
M  V30 2348 N 214.325 -0.140222 1.56975 0
M  V30 2349 C 215.741 -0.493088 1.51792 0
M  V30 2350 C 215.941 -1.83013 0.843116 0
M  V30 2351 O 214.997 -2.49041 0.416493 0
M  V30 2352 C 216.31 -0.497144 2.96562 0
M  V30 2353 C 217.858 -0.582186 3.07538 0
M  V30 2354 C 218.333 -0.616838 4.53827 0
M  V30 2355 N 219.824 -0.678873 4.58198 0
M  V30 2356 C 220.559 -0.726782 5.68775 0
M  V30 2357 N 220.055 -0.733623 6.88905 0
M  V30 2358 N 221.848 -0.768179 5.56826 0
M  V30 2359 H 213.999 0.736108 1.99237 0
M  V30 2360 H 216.262 0.269182 0.90898 0
M  V30 2361 H 215.968 0.417217 3.49217 0
M  V30 2362 H 215.842 -1.33263 3.52875 0
M  V30 2363 H 218.229 -1.48697 2.54899 0
M  V30 2364 H 218.31 0.280581 2.54257 0
M  V30 2365 H 217.954 0.283812 5.07106 0
M  V30 2366 H 217.884 -1.49619 5.04898 0
M  V30 2367 H 220.375 -0.68061 3.7172 0
M  V30 2368 H 220.688 -0.772215 7.68932 0
M  V30 2369 H 219.033 -0.701389 6.91452 0
M  V30 2370 H 222.224 -0.760051 4.61888 0
M  V30 2371 H 222.397 -0.80205 6.43017 0
M  V30 2372 N 215.803 -1.52179 -0.40978 0
M  V30 2373 C 216.766 -1.74853 -1.48186 0
M  V30 2374 C 217.766 -0.618417 -1.48433 0
M  V30 2375 O 218.956 -0.886286 -1.49969 0
M  V30 2376 C 216.088 -1.8303 -2.87598 0
M  V30 2377 H 217.281 -2.70559 -1.29374 0
M  V30 2378 H 214.834 -1.42586 -0.640233 0
M  V30 2379 H 215.569 -0.89236 -3.11781 0
M  V30 2380 H 215.354 -2.65187 -2.88822 0
M  V30 2381 H 216.844 -2.02316 -3.65319 0
M  V30 2382 N 217.281 0.66697 -1.42791 0
M  V30 2383 C 218.191 1.80962 -1.49299 0
M  V30 2384 C 219.207 1.69775 -0.381108 0
M  V30 2385 O 220.383 1.91188 -0.633188 0
M  V30 2386 C 217.448 3.17156 -1.40045 0
M  V30 2387 C 216.509 3.40242 -2.6179 0
M  V30 2388 C 215.742 4.69939 -2.52969 0
M  V30 2389 O 215.965 5.48372 -1.56985 0
M  V30 2390 O 214.899 4.94441 -3.43237 0
M  V30 2391 H 218.725 1.78427 -2.45759 0
M  V30 2392 H 216.31 0.823713 -1.24641 0
M  V30 2393 H 218.192 3.98413 -1.37276 0
M  V30 2394 H 216.867 3.20312 -0.467138 0
M  V30 2395 H 215.774 2.58802 -2.70134 0
M  V30 2396 H 217.107 3.41923 -3.54047 0
M  V30 2397 N 218.759 1.29093 0.90403 0
M  V30 2398 C 220.008 1.16187 1.64874 0
M  V30 2399 C 220.321 -0.286742 1.93487 0
M  V30 2400 O 221.527 -0.537062 2.66135 0
M  V30 2401 C 219.983 2.03177 2.97064 0
M  V30 2402 C 219.591 3.52836 2.76062 0
M  V30 2403 C 221.335 1.98984 3.74974 0
M  V30 2404 C 219.242 4.31945 4.03952 0
M  V30 2405 H 218.172 0.431246 0.618501 0
M  V30 2406 H 220.823 1.53699 1.00243 0
M  V30 2407 H 219.205 1.5853 3.62883 0
M  V30 2408 H 220.379 4.05507 2.18863 0
M  V30 2409 H 218.694 3.58656 2.11553 0
M  V30 2410 H 221.291 2.55351 4.69787 0
M  V30 2411 H 221.634 0.968815 4.0487 0
M  V30 2412 H 222.167 2.41652 3.15989 0
M  V30 2413 H 218.906 5.34667 3.79225 0
M  V30 2414 H 218.426 3.84045 4.60727 0
M  V30 2415 H 220.105 4.42379 4.72133 0
M  V30 2416 N 220.237 -1.11381 1.11499 0
M  V30 2417 C 221.17 -2.16621 0.71769 0
M  V30 2418 C 222.148 -1.60058 -0.286413 0
M  V30 2419 O 223.332 -1.87613 -0.182689 0
M  V30 2420 C 220.459 -3.38646 0.0607265 0
M  V30 2421 C 219.505 -4.13874 1.03008 0
M  V30 2422 S 220.338 -4.70731 2.55289 0
M  V30 2423 C 221.494 -5.96079 1.90895 0
M  V30 2424 H 221.727 -2.49987 1.60915 0
M  V30 2425 H 219.26 -1.23015 0.933092 0
M  V30 2426 H 221.218 -4.09313 -0.311965 0
M  V30 2427 H 219.879 -3.03537 -0.807702 0
M  V30 2428 H 219.072 -5.01333 0.517853 0
M  V30 2429 H 218.674 -3.4897 1.34522 0
M  V30 2430 H 220.966 -6.65948 1.24577 0
M  V30 2431 H 221.909 -6.51946 2.76354 0
M  V30 2432 H 222.317 -5.47652 1.36885 0
M  V30 2433 N 221.715 -0.905404 -1.28997 0
M  V30 2434 C 223.131 -0.60233 -1.47798 0
M  V30 2435 C 223.331 0.854645 -1.82478 0
M  V30 2436 O 222.387 1.63439 -1.92468 0
M  V30 2437 C 223.7 -1.53306 -2.58685 0
M  V30 2438 C 225.248 -1.53887 -2.72558 0
M  V30 2439 C 225.723 -2.45602 -3.86579 0
M  V30 2440 N 227.214 -2.43681 -3.93921 0
M  V30 2441 C 227.949 -3.11347 -4.81509 0
M  V30 2442 N 227.445 -3.88313 -5.73746 0
M  V30 2443 N 229.238 -3.00476 -4.75048 0
M  V30 2444 H 221.389 -1.84765 -1.04764 0
M  V30 2445 H 223.652 -0.792025 -0.520961 0
M  V30 2446 H 223.358 -2.57141 -2.39941 0
M  V30 2447 H 223.232 -1.25787 -3.55609 0
M  V30 2448 H 225.619 -0.507941 -2.90696 0
M  V30 2449 H 225.7 -1.85447 -1.76191 0
M  V30 2450 H 225.344 -3.48792 -3.69197 0
M  V30 2451 H 225.274 -2.11349 -4.82327 0
M  V30 2452 H 227.765 -1.87767 -3.27951 0
M  V30 2453 H 228.078 -4.36985 -6.37389 0
M  V30 2454 H 226.423 -3.92419 -5.73614 0
M  V30 2455 H 229.614 -2.39858 -4.01977 0
M  V30 2456 H 229.787 -3.53485 -5.43095 0
M  V30 2457 N 223.193 1.4272 -0.668489 0
M  V30 2458 C 224.418 2.06484 -0.194758 0
M  V30 2459 C 224.843 1.49862 1.13679 0
M  V30 2460 O 224.201 0.614582 1.70565 0
M  V30 2461 C 224.249 3.60353 -0.133546 0
M  V30 2462 O 223.353 4.02464 0.899806 0
M  V30 2463 H 222.694 0.656137 -0.10188 0
M  V30 2464 H 225.224 1.82964 -0.915722 0
M  V30 2465 H 225.234 4.07976 0.0447041 0
M  V30 2466 H 223.909 4.00938 -1.1055 0
M  V30 2467 H 222.486 3.66402 0.693109 0
M  V30 2468 N 224.671 0.411399 1.52136 0
M  V30 2469 C 225.918 -0.163645 2.01838 0
M  V30 2470 C 226.246 -1.4495 1.29691 0
M  V30 2471 O 225.501 -1.91725 0.392431 0
M  V30 2472 C 225.8 -0.455872 3.54481 0
M  V30 2473 C 225.466 0.741055 4.44769 0
M  V30 2474 C 224.128 1.06936 4.69167 0
M  V30 2475 C 226.48 1.54075 4.97906 0
M  V30 2476 C 223.808 2.19851 5.43951 0
M  V30 2477 C 226.16 2.66067 5.73926 0
M  V30 2478 C 224.824 2.99381 5.96596 0
M  V30 2479 H 224.094 -0.0598821 0.738576 0
M  V30 2480 H 226.741 0.553283 1.83333 0
M  V30 2481 H 225.046 -1.2544 3.71177 0
M  V30 2482 H 226.743 -0.913802 3.90449 0
M  V30 2483 H 223.333 0.475192 4.25958 0
M  V30 2484 H 227.517 1.30033 4.78963 0
M  V30 2485 H 222.773 2.46006 5.59724 0
M  V30 2486 H 226.947 3.28419 6.14096 0
M  V30 2487 H 224.574 3.86992 6.54325 0
M  V30 2488 N 226.149 -1.5696 0.141893 0
M  V30 2489 C 227.374 -2.00754 -0.520838 0
M  V30 2490 C 227.799 -1.0213 -1.57959 0
M  V30 2491 O 227.157 0.00371324 -1.813 0
M  V30 2492 C 227.205 -3.43318 -1.10294 0
M  V30 2493 O 226.309 -3.47679 -2.21795 0
M  V30 2494 H 225.65 -0.651564 -0.127908 0
M  V30 2495 H 228.18 -2.03221 0.23712 0
M  V30 2496 H 228.19 -3.82012 -1.43287 0
M  V30 2497 H 226.865 -4.14608 -0.327574 0
M  V30 2498 H 225.442 -3.20824 -1.9007 0
M  V30 2499 N 227.627 0.131896 -1.57047 0
M  V30 2500 C 228.557 1.16384 -2.02428 0
M  V30 2501 C 229.538 1.43936 -0.90644 0
M  V30 2502 O 230.723 1.54599 -1.17528 0
M  V30 2503 C 227.853 2.49328 -2.4177 0
M  V30 2504 C 226.807 2.36266 -3.56879 0
M  V30 2505 C 226.133 3.74057 -3.8208 0
M  V30 2506 C 227.433 1.834 -4.89042 0
M  V30 2507 H 229.127 0.786433 -2.88887 0
M  V30 2508 H 226.673 0.376855 -1.38981 0
M  V30 2509 H 228.626 3.21759 -2.7212 0
M  V30 2510 H 227.35 2.88934 -1.52266 0
M  V30 2511 H 226.009 1.66286 -3.26718 0
M  V30 2512 H 225.657 4.11125 -2.89803 0
M  V30 2513 H 225.357 3.66174 -4.59554 0
M  V30 2514 H 226.881 4.48012 -4.1487 0
M  V30 2515 H 228.295 2.45636 -5.18011 0
M  V30 2516 H 226.692 1.8637 -5.70426 0
M  V30 2517 H 227.762 0.790662 -4.7841 0
M  V30 2518 N 229.106 1.52395 0.401703 0
M  V30 2519 C 230.331 1.70972 1.17403 0
M  V30 2520 C 230.756 0.421615 1.83314 0
M  V30 2521 O 230.114 -0.621564 1.70312 0
M  V30 2522 C 230.162 2.85151 2.20728 0
M  V30 2523 O 229.266 2.51238 3.27037 0
M  V30 2524 H 228.607 0.568927 0.342372 0
M  V30 2525 H 231.137 1.99131 0.469891 0
M  V30 2526 H 231.147 3.10279 2.64936 0
M  V30 2527 H 229.822 3.78603 1.7214 0
M  V30 2528 H 228.399 2.36808 2.88057 0
M  V30 2529 N 230.584 -0.659388 1.43143 0
M  V30 2530 C 231.812 -1.44723 1.47861 0
M  V30 2531 C 232.227 -1.88563 0.0945886 0
M  V30 2532 O 231.584 -1.59108 -0.893915 0
M  V30 2533 C 231.635 -2.68627 2.41913 0
M  V30 2534 O 231.356 -2.26623 3.74932 0
M  V30 2535 C 232.857 -3.62045 2.55809 0
M  V30 2536 H 230.077 -0.444801 0.502387 0
M  V30 2537 H 232.621 -0.808916 1.87821 0
M  V30 2538 H 230.776 -3.28613 2.05164 0
M  V30 2539 H 231.19 -3.06745 4.2545 0
M  V30 2540 H 232.664 -4.45666 3.25708 0
M  V30 2541 H 233.141 -4.08981 1.60099 0
M  V30 2542 H 233.747 -3.07944 2.93344 0
M  V30 2543 N 232.062 -1.29571 -0.897171 0
M  V30 2544 C 233.01 -1.14802 -2.02295 0
M  V30 2545 C 234.004 -0.0629637 -1.69283 0
M  V30 2546 O 235.21 -0.222945 -1.78614 0
M  V30 2547 H 231.585 -0.354692 -0.663097 0
M  V30 2548 H 233.556 -2.10108 -2.11889 0
M  V30 2549 C 232.305 -0.843966 -3.37302 0
M  V30 2550 H 231.628 -1.67093 -3.63208 0
M  V30 2551 H 233.068 -0.780672 -4.16751 0
M  V30 2552 C 231.527 0.452843 -3.33843 0
M  V30 2553 O 232.057 1.47813 -3.73516 0
M  V30 2554 N 230.263 0.459601 -2.86943 0
M  V30 2555 H 229.81 -0.375213 -2.54853 0
M  V30 2556 H 229.768 1.32726 -2.85011 0
M  V30 2557 N 233.54 1.10788 -1.12088 0
M  V30 2558 C 234.47 2.19083 -0.807755 0
M  V30 2559 C 235.451 1.6858 0.226859 0
M  V30 2560 O 236.636 1.93997 0.0888475 0
M  V30 2561 C 233.766 3.46344 -0.257576 0
M  V30 2562 C 232.72 4.101 -1.22483 0
M  V30 2563 C 232.046 5.32016 -0.535052 0
M  V30 2564 C 233.346 4.54236 -2.57811 0
M  V30 2565 H 235.04 2.45534 -1.71328 0
M  V30 2566 H 232.586 1.1801 -0.825205 0
M  V30 2567 H 234.539 4.21392 -0.0262679 0
M  V30 2568 H 233.263 3.19373 0.683278 0
M  V30 2569 H 231.922 3.37054 -1.44189 0
M  V30 2570 H 231.57 5.01319 0.410827 0
M  V30 2571 H 231.27 5.75625 -1.18024 0
M  V30 2572 H 232.794 6.09799 -0.312695 0
M  V30 2573 H 234.208 5.20575 -2.40155 0
M  V30 2574 H 232.605 5.08682 -3.18375 0
M  V30 2575 H 233.675 3.6734 -3.16528 0
M  V30 2576 N 235.018 0.912232 1.28515 0
M  V30 2577 C 235.95 0.35676 2.26406 0
M  V30 2578 C 236.963 -0.503933 1.54804 0
M  V30 2579 O 238.152 -0.319059 1.75625 0
M  V30 2580 C 235.252 -0.508825 3.35058 0
M  V30 2581 C 234.425 0.329007 4.36161 0
M  V30 2582 C 233.484 -0.471422 5.24084 0
M  V30 2583 O 232.51 0.115482 5.69083 0
M  V30 2584 N 233.712 -1.77479 5.52704 0
M  V30 2585 H 236.477 1.19818 2.74707 0
M  V30 2586 H 234.038 0.778022 1.4198 0
M  V30 2587 H 236.03 -1.051 3.90815 0
M  V30 2588 H 234.6 -1.25095 2.86478 0
M  V30 2589 H 233.82 1.05256 3.79888 0
M  V30 2590 H 235.108 0.90234 5.00735 0
M  V30 2591 H 234.506 -2.27417 5.17975 0
M  V30 2592 H 233.063 -2.26382 6.11224 0
M  V30 2593 N 236.496 -1.42363 0.676048 0
M  V30 2594 C 237.406 -2.346 -0.00153389 0
M  V30 2595 C 238.422 -1.5516 -0.787485 0
M  V30 2596 O 239.598 -1.87723 -0.729521 0
M  V30 2597 C 236.663 -3.33705 -0.940298 0
M  V30 2598 C 235.724 -4.29042 -0.148739 0
M  V30 2599 C 234.957 -5.23413 -1.04279 0
M  V30 2600 O 235.18 -5.22749 -2.28232 0
M  V30 2601 O 234.114 -5.99795 -0.502925 0
M  V30 2602 H 237.94 -2.94082 0.758268 0
M  V30 2603 H 235.525 -1.42888 0.436289 0
M  V30 2604 H 237.407 -3.94586 -1.47917 0
M  V30 2605 H 236.082 -2.76695 -1.67993 0
M  V30 2606 H 234.989 -3.71571 0.43427 0
M  V30 2607 H 236.322 -4.89097 0.551805 0
M  V30 2608 N 237.974 -0.419461 -1.51915 0
M  V30 2609 C 239.39 -0.0708431 -1.59443 0
M  V30 2610 C 239.59 1.41796 -1.43164 0
M  V30 2611 O 238.646 2.18596 -1.26381 0
M  V30 2612 C 239.959 -0.574991 -2.95151 0
M  V30 2613 C 241.507 -0.533867 -3.08413 0
M  V30 2614 C 241.982 -1.01469 -4.46618 0
M  V30 2615 N 243.473 -0.971939 -4.52888 0
M  V30 2616 C 244.208 -1.31505 -5.58116 0
M  V30 2617 N 243.704 -1.73014 -6.70849 0
M  V30 2618 N 245.497 -1.23436 -5.48379 0
M  V30 2619 H 237.648 -1.38836 -1.60743 0
M  V30 2620 H 239.911 -0.570998 -0.756747 0
M  V30 2621 H 239.617 -1.61597 -3.12377 0
M  V30 2622 H 239.491 0.00979777 -3.77199 0
M  V30 2623 H 241.878 0.498086 -2.90866 0
M  V30 2624 H 241.959 -1.15484 -2.28248 0
M  V30 2625 H 241.603 -2.04502 -4.6491 0
M  V30 2626 H 241.533 -0.370433 -5.25295 0
M  V30 2627 H 244.024 -0.666893 -3.71969 0
M  V30 2628 H 244.337 -1.97479 -7.47143 0
M  V30 2629 H 242.682 -1.76926 -6.72103 0
M  V30 2630 H 245.873 -0.908869 -4.59192 0
M  V30 2631 H 246.046 -1.50506 -6.30279 0
M  V30 2632 N 239.452 1.56882 -0.150215 0
M  V30 2633 C 240.382 2.19935 0.784284 0
M  V30 2634 C 241.363 1.14854 1.25469 0
M  V30 2635 O 242.548 1.43209 1.31168 0
M  V30 2636 C 239.678 2.82349 2.02229 0
M  V30 2637 C 238.632 3.93285 1.68853 0
M  V30 2638 C 237.958 4.42649 2.99944 0
M  V30 2639 C 239.258 5.13904 0.932714 0
M  V30 2640 H 240.952 2.9828 0.258781 0
M  V30 2641 H 238.498 1.43473 0.123029 0
M  V30 2642 H 240.451 3.25126 2.68088 0
M  V30 2643 H 239.175 2.0134 2.57157 0
M  V30 2644 H 237.834 3.5113 1.05371 0
M  V30 2645 H 237.482 3.58458 3.52869 0
M  V30 2646 H 237.182 5.17476 2.78374 0
M  V30 2647 H 238.706 4.88099 3.66868 0
M  V30 2648 H 240.12 5.53506 1.49345 0
M  V30 2649 H 238.517 5.94515 0.81684 0
M  V30 2650 H 239.587 4.84842 -0.0749568 0
M  V30 2651 N 240.93 -0.123565 1.57115 0
M  V30 2652 C 242.346 -0.476961 1.52306 0
M  V30 2653 C 242.546 -1.82109 0.86248 0
M  V30 2654 O 241.602 -2.48586 0.442884 0
M  V30 2655 C 242.915 -0.465661 2.97073 0
M  V30 2656 C 244.463 -0.549534 3.08138 0
M  V30 2657 C 244.938 -0.568669 4.54456 0
M  V30 2658 N 246.429 -0.630237 4.58892 0
M  V30 2659 C 247.164 -0.666415 5.69514 0
M  V30 2660 N 246.66 -0.660514 6.89644 0
M  V30 2661 N 248.453 -0.709077 5.5761 0
M  V30 2662 H 240.604 0.757198 1.98445 0
M  V30 2663 H 242.867 0.278808 0.906074 0
M  V30 2664 H 242.573 0.454232 3.48754 0
M  V30 2665 H 242.447 -1.29513 3.54269 0
M  V30 2666 H 244.834 -1.45985 2.56461 0
M  V30 2667 H 244.915 0.307532 2.53945 0
M  V30 2668 H 244.559 0.337581 5.06777 0
M  V30 2669 H 244.489 -1.44256 5.06456 0
M  V30 2670 H 246.98 -0.641146 3.72421 0
M  V30 2671 H 247.293 -0.690616 7.69708 0
M  V30 2672 H 245.638 -0.628012 6.92157 0
M  V30 2673 H 248.829 -0.711019 4.62668 0
M  V30 2674 H 249.002 -0.733804 6.43832 0
M  V30 2675 N 242.408 -1.52605 -0.393616 0
M  V30 2676 C 243.824 -1.41753 -0.733357 0
M  V30 2677 C 244.024 -0.534293 -1.94287 0
M  V30 2678 O 243.08 -0.0059787 -2.52499 0
M  V30 2679 C 244.393 -2.84531 -0.972772 0
M  V30 2680 C 245.941 -2.93978 -1.07453 0
M  V30 2681 C 246.416 -4.37756 -1.3466 0
M  V30 2682 N 247.907 -4.4106 -1.41492 0
M  V30 2683 C 248.642 -5.49387 -1.642 0
M  V30 2684 N 248.138 -6.67806 -1.8441 0
M  V30 2685 N 249.931 -5.36923 -1.66342 0
M  V30 2686 H 242.082 -2.08555 0.402328 0
M  V30 2687 H 244.345 -0.940654 0.117789 0
M  V30 2688 H 244.051 -3.51353 -0.156204 0
M  V30 2689 H 243.925 -3.26508 -1.88871 0
M  V30 2690 H 246.312 -2.27326 -1.88167 0
M  V30 2691 H 246.393 -2.55435 -0.136605 0
M  V30 2692 H 246.037 -5.04972 -0.544581 0
M  V30 2693 H 245.967 -4.73848 -2.2973 0
M  V30 2694 H 248.458 -3.55705 -1.27601 0
M  V30 2695 H 248.771 -7.46141 -2.01231 0
M  V30 2696 H 247.116 -6.70843 -1.81644 0
M  V30 2697 H 250.307 -4.43381 -1.50102 0
M  V30 2698 H 250.48 -6.21416 -1.837 0
M  V30 2699 N 243.887 0.651787 -1.4349 0
M  V30 2700 C 244.834 1.76462 -1.4876 0
M  V30 2701 C 245.804 1.62641 -0.337189 0
M  V30 2702 O 246.989 1.82864 -0.544544 0
M  V30 2703 C 244.129 3.14623 -1.41796 0
M  V30 2704 C 243.242 3.39568 -2.67053 0
M  V30 2705 C 242.377 4.67585 -2.52068 0
M  V30 2706 C 241.416 4.85639 -3.72587 0
M  V30 2707 N 240.553 6.04915 -3.56402 0
M  V30 2708 H 245.393 1.71293 -2.43849 0
M  V30 2709 H 242.93 0.835889 -1.21043 0
M  V30 2710 H 244.888 3.94496 -1.35753 0
M  V30 2711 H 243.518 3.18859 -0.50288 0
M  V30 2712 H 242.57 2.53783 -2.8337 0
M  V30 2713 H 243.882 3.48795 -3.56572 0
M  V30 2714 H 243.036 5.55586 -2.4374 0
M  V30 2715 H 241.775 4.60681 -1.60075 0
M  V30 2716 H 240.78 3.96073 -3.81321 0
M  V30 2717 H 242.005 4.94372 -4.65589 0
M  V30 2718 H 239.951 5.9914 -2.67146 0
M  V30 2719 H 239.868 6.15106 -4.39524 0
M  V30 2720 H 241.136 6.95533 -3.51929 0
M  V30 2721 N 245.365 1.30045 0.890287 0
M  V30 2722 C 246.275 1.17885 2.02831 0
M  V30 2723 C 247.291 0.0999609 1.73713 0
M  V30 2724 O 248.467 0.313867 1.98939 0
M  V30 2725 C 245.532 0.866079 3.35708 0
M  V30 2726 C 244.593 2.02979 3.78283 0
M  V30 2727 C 243.826 1.73184 5.0482 0
M  V30 2728 O 244.049 0.657237 5.66601 0
M  V30 2729 O 242.983 2.58267 5.43674 0
M  V30 2730 H 246.809 2.13474 2.16015 0
M  V30 2731 H 244.394 1.09587 1.01543 0
M  V30 2732 H 246.276 0.706623 4.15433 0
M  V30 2733 H 244.951 -0.0599443 3.23644 0
M  V30 2734 H 243.858 2.24454 2.99285 0
M  V30 2735 H 245.191 2.93734 3.94944 0
M  V30 2736 O 246.882 -1.02616 1.24708 0
M  V30 2737 H 247.573 -1.6429 1.02608 0
M  V30 END ATOM
M  V30 BEGIN BOND
M  V30 END BOND
M  V30 END CTAB
M  END
$$$$
