drugbank_target|Q9ZF99 Malate dehydrogenase (DB02637)
 OpenBabel12092120013D

  0  0  0     0  0            999 V3000
M  V30 BEGIN CTAB
M  V30 COUNTS 4959 5005 0 0 0
M  V30 BEGIN ATOM
M  V30 1 H -0.908 1.98254 -0.117106 0
M  V30 2 N 0 1.576 0 0
M  V30 3 C 0.933 2.03868 1.02534 0
M  V30 4 C 1.911 0.928543 1.3348 0
M  V30 5 O 3.095 1.19667 1.45644 0
M  V30 6 C 0.222 2.43627 2.35294 0
M  V30 7 C -0.732 3.65373 2.2001 0
M  V30 8 S 0.101 5.13292 1.52614 0
M  V30 9 C 1.257 5.56322 2.86805 0
M  V30 10 H 1.49 2.90518 0.631377 0
M  V30 11 H -0.977 1.52953 0.210867 0
M  V30 12 H 0.981 2.67203 3.11629 0
M  V30 13 H -0.358 1.57376 2.7183 0
M  V30 14 H -1.165 3.90944 3.18086 0
M  V30 15 H -1.563 3.418 1.51819 0
M  V30 16 H 0.729 5.58782 3.83104 0
M  V30 17 H 1.672 6.56266 2.65933 0
M  V30 18 H 2.08 4.83886 2.90714 0
M  V30 19 N 1.4781 -0.272755 1.55222 0
M  V30 20 C 2.4411 -1.32041 1.87344 0
M  V30 21 C 3.4411 -1.42342 0.74803 0
M  V30 22 O 4.6311 -1.41488 1.0162 0
M  V30 23 C 1.7631 -2.70173 2.07893 0
M  V30 24 H 2.9561 -1.04789 2.80997 0
M  V30 25 H 0.5091 -0.51083 1.47717 0
M  V30 26 H 1.2441 -3.02605 1.16622 0
M  V30 27 H 1.0291 -2.64082 2.89833 0
M  V30 28 H 2.5191 -3.45869 2.34017 0
M  V30 29 N 2.9562 -1.48159 -0.537278 0
M  V30 30 C 3.9032 -1.62138 -1.64256 0
M  V30 31 C 4.8732 -0.463668 -1.59497 0
M  V30 32 O 6.0582 -0.686241 -1.78032 0
M  V30 33 C 3.1982 -1.66028 -3.02537 0
M  V30 34 C 2.3112 -2.92855 -3.17585 0
M  V30 35 C 1.4462 -2.87952 -4.46382 0
M  V30 36 C 0.4852 -4.09516 -4.54932 0
M  V30 37 N -0.3778 -4.02733 -5.75109 0
M  V30 38 H 4.4622 -2.56529 -1.51647 0
M  V30 39 H 1.9992 -1.27224 -0.738414 0
M  V30 40 H 3.9572 -1.66265 -3.82638 0
M  V30 41 H 2.5872 -0.751331 -3.13934 0
M  V30 42 H 1.6392 -3.02395 -2.30784 0
M  V30 43 H 2.9512 -3.82822 -3.19764 0
M  V30 44 H 2.1052 -2.8655 -5.34765 0
M  V30 45 H 0.8442 -1.95702 -4.46712 0
M  V30 46 H -0.1508 -4.11201 -3.64957 0
M  V30 47 H 1.0742 -5.02917 -4.56346 0
M  V30 48 H -0.9798 -3.13299 -5.76351 0
M  V30 49 H -1.0628 -4.86397 -5.78752 0
M  V30 50 H 0.2052 -4.05379 -6.65799 0
M  V30 51 N 4.4343 0.785586 -1.36625 0
M  V30 52 C 5.6623 1.57448 -1.3423 0
M  V30 53 C 6.0773 1.88649 0.0755653 0
M  V30 54 O 5.4343 1.50414 1.03354 0
M  V30 55 C 5.4853 2.89316 -2.16745 0
M  V30 56 O 5.2063 2.59459 -3.53005 0
M  V30 57 C 6.7073 3.83606 -2.22174 0
M  V30 58 H 3.9273 0.488226 -0.4603 0
M  V30 59 H 6.4713 0.974733 -1.79775 0
M  V30 60 H 4.6263 3.4575 -1.74745 0
M  V30 61 H 5.0403 3.43804 -3.96105 0
M  V30 62 H 6.5143 4.73181 -2.8426 0
M  V30 63 H 6.9913 4.21734 -1.22627 0
M  V30 64 H 7.5973 3.33104 -2.64427 0
M  V30 65 N 5.9124 1.20967 1.01018 0
M  V30 66 C 7.3234 1.02319 1.56165 0
M  V30 67 C 7.6744 -0.418546 1.91684 0
M  V30 68 O 6.7994 -1.30096 1.72928 0
M  V30 69 C 7.3944 1.85109 2.8376 0
M  V30 70 C 5.9534 1.70809 3.35412 0
M  V30 71 C 5.1004 1.82643 2.08655 0
M  V30 72 H 8.0514 1.35065 0.833255 0
M  V30 73 H 8.0724 1.35827 3.55431 0
M  V30 74 H 7.5844 2.90035 2.57878 0
M  V30 75 H 5.6854 0.685464 3.66241 0
M  V30 76 H 5.7984 2.52467 4.07182 0
M  V30 77 H 4.1624 1.25896 2.21409 0
M  V30 78 H 4.9454 2.89066 1.85191 0
M  V30 79 N 7.3905 -1.2043 1.01659 0
M  V30 80 C 8.3235 -2.21924 0.531521 0
M  V30 81 C 9.3015 -1.57054 -0.421032 0
M  V30 82 O 10.4855 -1.85389 -0.341035 0
M  V30 83 C 7.6125 -3.37942 -0.226496 0
M  V30 84 C 6.6585 -4.21115 0.67561 0
M  V30 85 S 7.4915 -4.90674 2.14475 0
M  V30 86 C 8.6475 -6.10113 1.3969 0
M  V30 87 H 8.8805 -2.62725 1.3915 0
M  V30 88 H 6.4135 -1.30481 0.825479 0
M  V30 89 H 8.3715 -4.05196 -0.657738 0
M  V30 90 H 7.0325 -2.956 -1.06205 0
M  V30 91 H 6.2255 -5.03918 0.091108 0
M  V30 92 H 5.8275 -3.59115 1.04463 0
M  V30 93 H 8.1195 -6.7411 0.676897 0
M  V30 94 H 9.0625 -6.73022 2.20107 0
M  V30 95 H 9.4705 -5.57283 0.899786 0
M  V30 96 N 8.8686 -0.792821 -1.36206 0
M  V30 97 C 10.2846 -0.474903 -1.52371 0
M  V30 98 C 10.4846 1.00622 -1.74578 0
M  V30 99 O 9.5406 1.79162 -1.77924 0
M  V30 100 C 10.8536 -1.3083 -2.70747 0
M  V30 101 C 12.4016 -1.30234 -2.84619 0
M  V30 102 C 12.8766 -2.11956 -4.06004 0
M  V30 103 N 14.3676 -2.09419 -4.13156 0
M  V30 104 C 15.1026 -2.69419 -5.06163 0
M  V30 105 N 14.5986 -3.3829 -6.04592 0
M  V30 106 N 16.3916 -2.59134 -4.98804 0
M  V30 107 H 8.5426 -1.75222 -1.20046 0
M  V30 108 H 10.8056 -0.745024 -0.586211 0
M  V30 109 H 10.5116 -2.35881 -2.6087 0
M  V30 110 H 10.3856 -0.95196 -3.6499 0
M  V30 111 H 12.7726 -0.259748 -2.93955 0
M  V30 112 H 12.8536 -1.69847 -1.91274 0
M  V30 113 H 12.4976 -3.16248 -3.97429 0
M  V30 114 H 12.4276 -1.69711 -4.98503 0
M  V30 115 H 14.9186 -1.59297 -3.42685 0
M  V30 116 H 15.2316 -3.81394 -6.7213 0
M  V30 117 H 13.5766 -3.42393 -6.04807 0
M  V30 118 H 16.7676 -2.04927 -4.20859 0
M  V30 119 H 16.9406 -3.06185 -5.711 0
M  V30 120 N 10.3467 1.47872 -0.545128 0
M  V30 121 C 11.5927 2.02793 -0.0166104 0
M  V30 122 C 11.9257 1.41987 1.32489 0
M  V30 123 O 11.2007 0.571045 1.85928 0
M  V30 124 C 11.4837 3.59989 0.0893294 0
M  V30 125 C 11.3367 4.3125 -1.27841 0
M  V30 126 C 12.6557 4.32606 0.808724 0
M  V30 127 H 9.7747 0.736962 -0.00751035 0
M  V30 128 H 12.4167 1.76433 -0.705085 0
M  V30 129 H 10.5667 3.82579 0.675681 0
M  V30 130 H 12.2387 4.20035 -1.90704 0
M  V30 131 H 10.4817 3.92076 -1.85632 0
M  V30 132 H 11.1527 5.39736 -1.15713 0
M  V30 133 H 13.6287 4.14936 0.310992 0
M  V30 134 H 12.5047 5.42251 0.851782 0
M  V30 135 H 12.7657 4.00963 1.86229 0
M  V30 136 N 11.8248 0.280983 1.55075 0
M  V30 137 C 12.7878 -0.590896 2.21452 0
M  V30 138 C 13.7878 -1.07682 1.19421 0
M  V30 139 O 14.9778 -0.97605 1.44288 0
M  V30 140 C 12.1098 -1.81587 2.88511 0
M  V30 141 H 13.3028 -0.0112554 2.99898 0
M  V30 142 H 10.8558 0.0316438 1.56268 0
M  V30 143 H 11.5908 -2.43587 2.14093 0
M  V30 144 H 11.3758 -1.4753 3.63287 0
M  V30 145 H 12.8658 -2.43575 3.39206 0
M  V30 146 N 13.3029 -1.57598 0.00835791 0
M  V30 147 C 14.5489 -1.91211 -0.675732 0
M  V30 148 C 14.8819 -0.883139 -1.72958 0
M  V30 149 O 14.1569 0.097016 -1.94258 0
M  V30 150 C 14.4399 -3.35379 -1.31123 0
M  V30 151 C 14.2929 -4.48999 -0.268356 0
M  V30 152 C 15.6119 -3.7912 -2.23508 0
M  V30 153 H 12.7309 -0.695374 -0.244179 0
M  V30 154 H 15.3729 -1.89901 0.0613655 0
M  V30 155 H 13.5229 -3.36626 -1.93946 0
M  V30 156 H 15.1949 -4.59887 0.360844 0
M  V30 157 H 13.4379 -4.31873 0.408482 0
M  V30 158 H 14.1089 -5.46851 -0.752218 0
M  V30 159 H 16.5849 -3.79477 -1.70693 0
M  V30 160 H 15.4609 -4.80729 -2.64936 0
M  V30 161 H 15.7219 -3.13455 -3.11766 0
M  V30 162 N 14.781 0.264519 -1.55364 0
M  V30 163 C 16.009 1.013 -1.80405 0
M  V30 164 C 16.424 1.79618 -0.581622 0
M  V30 165 O 15.781 1.76879 0.449468 0
M  V30 166 C 15.832 1.96487 -3.03439 0
M  V30 167 O 15.553 1.21341 -4.20961 0
M  V30 168 C 17.054 2.83079 -3.41147 0
M  V30 169 H 14.274 0.298875 -0.600762 0
M  V30 170 H 16.818 0.292736 -2.02394 0
M  V30 171 H 14.973 2.63965 -2.83551 0
M  V30 172 H 15.387 1.85573 -4.90574 0
M  V30 173 H 16.861 3.4565 -4.30384 0
M  V30 174 H 17.338 3.53286 -2.60932 0
M  V30 175 H 17.944 2.2108 -3.63323 0
M  V30 176 N 16.2591 1.48442 0.529413 0
M  V30 177 C 17.5071 1.56179 1.28267 0
M  V30 178 C 17.8281 0.237721 1.93546 0
M  V30 179 O 17.0981 -0.740779 1.81354 0
M  V30 180 H 15.6781 0.575367 0.476405 0
M  V30 181 H 18.3401 1.84909 0.61602 0
M  V30 182 H 17.4361 2.34312 2.06165 0
M  V30 183 N 17.7372 -0.778329 1.37039 0
M  V30 184 C 18.7002 -1.87301 1.32102 0
M  V30 185 C 19.7002 -1.59198 0.226405 0
M  V30 186 O 20.8902 -1.67403 0.481861 0
M  V30 187 C 18.0222 -3.24309 1.05055 0
M  V30 188 H 19.2152 -1.93093 2.29467 0
M  V30 189 H 16.7682 -0.977358 1.21973 0
M  V30 190 H 17.5032 -3.24196 0.0819373 0
M  V30 191 H 17.2882 -3.46098 1.84279 0
M  V30 192 H 18.7782 -4.04382 1.04234 0
M  V30 193 N 19.2153 -1.21501 -1.00376 0
M  V30 194 C 20.1783 -0.976927 -2.07337 0
M  V30 195 C 21.1783 0.0525322 -1.60714 0
M  V30 196 O 22.3683 -0.184869 -1.73216 0
M  V30 197 C 19.5003 -0.473423 -3.37597 0
M  V30 198 H 20.6933 -1.92587 -2.29892 0
M  V30 199 H 18.2463 -1.03217 -1.17371 0
M  V30 200 H 18.9813 0.480379 -3.20722 0
M  V30 201 H 18.7663 -1.216 -3.72768 0
M  V30 202 H 20.2563 -0.32675 -4.1632 0
M  V30 203 N 20.6934 1.19889 -1.02296 0
M  V30 204 C 21.9414 1.89046 -0.714558 0
M  V30 205 C 22.2624 1.79636 0.758681 0
M  V30 206 O 21.5324 1.20292 1.54618 0
M  V30 207 H 20.1124 0.699802 -0.261317 0
M  V30 208 H 22.7744 1.45574 -1.29592 0
M  V30 209 H 21.8704 2.95524 -1.0036 0
M  V30 210 N 22.1715 0.800033 1.35784 0
M  V30 211 C 23.1035 0.163596 2.28615 0
M  V30 212 C 24.1165 -0.633317 1.49976 0
M  V30 213 O 25.3055 -0.466754 1.72289 0
M  V30 214 C 22.4055 -0.790958 3.29541 0
M  V30 215 C 21.5785 -0.0418255 4.3738 0
M  V30 216 C 20.6375 -0.91389 5.18203 0
M  V30 217 O 19.6635 -0.367234 5.68014 0
M  V30 218 N 20.8655 -2.23682 5.35674 0
M  V30 219 H 23.6305 0.96105 2.83873 0
M  V30 220 H 21.1915 0.654894 1.48063 0
M  V30 221 H 23.1835 -1.37844 3.80501 0
M  V30 222 H 21.7535 -1.48925 2.74846 0
M  V30 223 H 20.9735 0.726813 3.87442 0
M  V30 224 H 22.2615 0.474719 5.06581 0
M  V30 225 H 21.6595 -2.70497 4.96838 0
M  V30 226 H 20.2165 -2.77369 5.89839 0
M  V30 227 N 23.6496 -1.47581 0.552962 0
M  V30 228 C 24.8986 -2.01684 0.0251995 0
M  V30 229 C 25.2116 -1.43317 -1.33115 0
M  V30 230 O 26.4176 -1.89057 -1.94858 0
M  V30 231 C 24.8736 -3.599 -0.00542052 0
M  V30 232 C 24.4816 -4.27257 1.34742 0
M  V30 233 C 26.2256 -4.21768 -0.4808 0
M  V30 234 C 24.1326 -5.77467 1.27614 0
M  V30 235 H 23.0626 -0.753979 0.00565033 0
M  V30 236 H 25.7136 -1.69616 0.70018 0
M  V30 237 H 24.0956 -3.88911 -0.745961 0
M  V30 238 H 25.2696 -4.09893 2.10534 0
M  V30 239 H 23.5846 -3.77358 1.76039 0
M  V30 240 H 26.1816 -5.31838 -0.55246 0
M  V30 241 H 26.5246 -3.88651 -1.49184 0
M  V30 242 H 27.0576 -3.97273 0.204752 0
M  V30 243 H 23.7966 -6.15196 2.26304 0
M  V30 244 H 23.3166 -5.9718 0.55996 0
M  V30 245 H 24.9956 -6.3959 0.976421 0
M  V30 246 N 25.1277 -0.289203 -1.54924 0
M  V30 247 C 26.3677 0.324536 -2.01807 0
M  V30 248 C 26.7317 1.5199 -1.17316 0
M  V30 249 O 27.9327 2.20422 -1.53843 0
M  V30 250 C 26.2037 0.683578 -3.50802 0
M  V30 251 S 27.7627 1.28185 -4.19659 0
M  V30 252 H 24.5807 0.100236 -0.703899 0
M  V30 253 H 27.1827 -0.414325 -1.91059 0
M  V30 254 H 25.8867 -0.195073 -4.09936 0
M  V30 255 H 25.4177 1.45354 -3.65562 0
M  V30 256 H 27.4327 2.57006 -4.24456 0
M  V30 257 N 26.6058 1.57591 -0.0167156 0
M  V30 258 C 27.8358 1.95292 0.674149 0
M  V30 259 C 28.2438 0.891097 1.66901 0
M  V30 260 O 27.5868 -0.136908 1.83189 0
M  V30 261 C 27.6488 3.29072 1.44747 0
M  V30 262 C 27.3128 4.52879 0.612331 0
M  V30 263 C 28.3098 5.1979 -0.107126 0
M  V30 264 C 25.9948 4.99242 0.553381 0
M  V30 265 C 27.9888 6.31375 -0.874339 0
M  V30 266 C 25.6758 6.10713 -0.217546 0
M  V30 267 C 26.6738 6.76637 -0.930123 0
M  V30 268 O 26.3618 7.85969 -1.68844 0
M  V30 269 H 26.0938 0.648275 0.191615 0
M  V30 270 H 28.6478 2.05284 -0.0690148 0
M  V30 271 H 26.8778 3.15535 2.2355 0
M  V30 272 H 28.5668 3.51764 2.02526 0
M  V30 273 H 29.3328 4.84948 -0.0708392 0
M  V30 274 H 25.2118 4.47744 1.09757 0
M  V30 275 H 28.7558 6.82764 -1.43106 0
M  V30 276 H 24.6528 6.44994 -0.255593 0
M  V30 277 H 25.4208 8.02571 -1.6069 0
M  V30 278 N 28.0839 -0.256276 1.55502 0
M  V30 279 C 29.3089 -1.00766 1.81276 0
M  V30 280 C 29.7339 -1.78524 0.59252 0
M  V30 281 O 29.0919 -1.75413 -0.45827 0
M  V30 282 C 29.1399 -1.92869 3.04687 0
M  V30 283 O 28.2439 -3.019 2.80945 0
M  V30 284 H 27.5849 -0.287224 0.598664 0
M  V30 285 H 30.1149 -0.280109 2.02674 0
M  V30 286 H 30.1249 -2.34511 3.33869 0
M  V30 287 H 28.7999 -1.35689 3.93143 0
M  V30 288 H 27.3769 -2.64454 2.62904 0
M  V30 289 N 29.562 -1.4872 -0.521534 0
M  V30 290 C 30.492 -1.66771 -1.63431 0
M  V30 291 C 31.473 -0.516499 -1.62069 0
M  V30 292 O 32.658 -0.750013 -1.79132 0
M  V30 293 C 29.788 -1.71515 -3.01993 0
M  V30 294 C 28.742 -2.86222 -3.18216 0
M  V30 295 C 28.068 -2.76061 -4.57924 0
M  V30 296 C 29.368 -4.27419 -3.00184 0
M  V30 297 H 31.062 -2.59932 -1.48579 0
M  V30 298 H 28.608 -1.25089 -0.713358 0
M  V30 299 H 30.561 -1.82731 -3.7972 0
M  V30 300 H 29.285 -0.749393 -3.17886 0
M  V30 301 H 27.944 -2.74575 -2.42908 0
M  V30 302 H 27.592 -1.77437 -4.70665 0
M  V30 303 H 27.292 -3.53037 -4.69722 0
M  V30 304 H 28.816 -2.89256 -5.37739 0
M  V30 305 H 30.23 -4.39855 -3.67697 0
M  V30 306 H 28.627 -5.05458 -3.2347 0
M  V30 307 H 29.697 -4.43293 -1.96518 0
M  V30 308 N 31.0401 0.771051 -1.3745 0
M  V30 309 C 31.9701 1.89827 -1.3597 0
M  V30 310 C 32.9511 1.68562 -0.228216 0
M  V30 311 O 34.1361 1.8941 -0.428675 0
M  V30 312 C 31.2661 3.2712 -1.16662 0
M  V30 313 C 30.2201 3.6295 -2.2683 0
M  V30 314 C 29.5461 4.98791 -1.92644 0
M  V30 315 C 30.8461 3.69627 -3.69017 0
M  V30 316 H 32.5401 1.91323 -2.30295 0
M  V30 317 H 30.0861 0.919082 -1.10855 0
M  V30 318 H 32.0391 4.05615 -1.14256 0
M  V30 319 H 30.7631 3.26059 -0.187926 0
M  V30 320 H 29.4221 2.86763 -2.28392 0
M  V30 321 H 29.0701 4.94271 -0.933021 0
M  V30 322 H 28.7701 5.23733 -2.66416 0
M  V30 323 H 30.2941 5.79685 -1.91826 0
M  V30 324 H 31.7081 4.38273 -3.69581 0
M  V30 325 H 30.1051 4.06067 -4.41848 0
M  V30 326 H 31.1751 2.70273 -4.02592 0
M  V30 327 N 32.5182 1.22032 0.997298 0
M  V30 328 C 33.7652 1.04222 1.73621 0
M  V30 329 C 34.0932 -0.423264 1.89839 0
M  V30 330 O 33.3482 -1.3302 1.43542 0
M  V30 331 C 33.6472 1.69345 3.14733 0
M  V30 332 C 33.3132 3.19226 3.18442 0
M  V30 333 C 31.9752 3.60124 3.19161 0
M  V30 334 C 34.3272 4.15181 3.15078 0
M  V30 335 C 31.6552 4.95467 3.14212 0
M  V30 336 C 34.0072 5.50495 3.1167 0
M  V30 337 C 32.6712 5.90779 3.10703 0
M  V30 338 H 31.9412 0.381374 0.635323 0
M  V30 339 H 34.5882 1.51732 1.16831 0
M  V30 340 H 32.8932 1.14147 3.74803 0
M  V30 341 H 34.5902 1.53059 3.7064 0
M  V30 342 H 31.1802 2.86659 3.18629 0
M  V30 343 H 35.3642 3.84605 3.13676 0
M  V30 344 H 30.6202 5.25916 3.11805 0
M  V30 345 H 34.7942 6.24576 3.08022 0
M  V30 346 H 32.4212 6.9562 3.06622 0
M  V30 347 N 33.9963 -1.19345 1.0293 0
M  V30 348 C 35.4123 -1.41069 0.746446 0
M  V30 349 C 35.6123 -1.90078 -0.668776 0
M  V30 350 O 34.6683 -2.0778 -1.4347 0
M  V30 351 C 35.9813 -2.42141 1.78292 0
M  V30 352 C 37.5293 -2.55887 1.80252 0
M  V30 353 C 38.0043 -3.60214 2.8286 0
M  V30 354 N 39.4953 -3.67711 2.81679 0
M  V30 355 C 40.2303 -4.48128 3.57727 0
M  V30 356 N 39.7263 -5.32248 4.43491 0
M  V30 357 N 41.5193 -4.42782 3.46267 0
M  V30 358 H 33.6703 -0.858536 1.94275 0
M  V30 359 H 35.9333 -0.439541 0.839945 0
M  V30 360 H 35.6393 -2.13155 2.79746 0
M  V30 361 H 35.5133 -3.41323 1.60557 0
M  V30 362 H 37.9003 -2.84196 0.794757 0
M  V30 363 H 37.9813 -1.56858 2.02062 0
M  V30 364 H 37.6253 -3.32647 3.83807 0
M  V30 365 H 37.5553 -4.58895 2.58307 0
M  V30 366 H 40.0463 -3.07634 2.19476 0
M  V30 367 H 40.3593 -5.90729 4.98256 0
M  V30 368 H 38.7043 -5.31707 4.47564 0
M  V30 369 H 41.8953 -3.76107 2.78677 0
M  V30 370 H 42.0683 -5.05215 4.05785 0
M  V30 371 N 35.4744 -0.807222 -1.35358 0
M  V30 372 C 36.7234 -0.384376 -1.98004 0
M  V30 373 C 37.0364 1.0543 -1.64754 0
M  V30 374 O 38.2424 1.58029 -2.20769 0
M  V30 375 C 36.6984 -0.636326 -3.5423 0
M  V30 376 C 36.3064 -2.08759 -3.96388 0
M  V30 377 C 38.0504 -0.278869 -4.23583 0
M  V30 378 C 35.9574 -2.28525 -5.45463 0
M  V30 379 H 34.8874 -0.139986 -0.740891 0
M  V30 380 H 37.5384 -0.991369 -1.54415 0
M  V30 381 H 35.9204 0.0406256 -3.95979 0
M  V30 382 H 37.0944 -2.8024 -3.6579 0
M  V30 383 H 35.4094 -2.40497 -3.39926 0
M  V30 384 H 38.0064 -0.404599 -5.33167 0
M  V30 385 H 38.3494 0.775012 -4.09022 0
M  V30 386 H 38.8824 -0.909764 -3.87257 0
M  V30 387 H 35.6214 -3.32361 -5.64992 0
M  V30 388 H 35.1414 -1.61569 -5.77629 0
M  V30 389 H 36.8204 -2.10109 -6.11934 0
M  V30 390 N 36.9525 1.47285 -0.560781 0
M  V30 391 C 37.9155 2.28535 0.174488 0
M  V30 392 C 38.9155 1.37153 0.839388 0
M  V30 393 O 40.1055 1.59748 0.694702 0
M  V30 394 C 37.2375 3.16934 1.25561 0
M  V30 395 H 38.4305 2.95012 -0.539262 0
M  V30 396 H 35.9835 1.53034 -0.317865 0
M  V30 397 H 36.7185 2.55157 2.00164 0
M  V30 398 H 36.5035 3.8419 0.783604 0
M  V30 399 H 37.9935 3.78143 1.77193 0
M  V30 400 N 38.4306 0.297415 1.54768 0
M  V30 401 C 39.3786 -0.596051 2.24833 0
M  V30 402 C 40.3726 -1.13992 1.25308 0
M  V30 403 O 41.5786 -1.09098 1.4317 0
M  V30 404 H 37.9536 -0.210814 0.721846 0
M  V30 405 H 39.9246 0.0174667 2.98395 0
M  V30 406 C 38.6736 -1.75818 2.99972 0
M  V30 407 H 37.9966 -1.3489 3.76357 0
M  V30 408 H 39.4366 -2.35949 3.52284 0
M  V30 409 C 37.8956 -2.66014 2.06732 0
M  V30 410 O 38.4256 -3.67009 1.63302 0
M  V30 411 N 36.6316 -2.33669 1.72763 0
M  V30 412 H 36.1786 -1.51586 2.08277 0
M  V30 413 H 36.1366 -2.94285 1.10652 0
M  V30 414 N 39.9087 -1.5758 0.0250728 0
M  V30 415 C 41.1567 -1.91255 -0.653151 0
M  V30 416 C 41.4777 -0.901691 -1.729 0
M  V30 417 O 40.7477 0.0573785 -1.95816 0
M  V30 418 H 39.3277 -0.705942 -0.244243 0
M  V30 419 H 41.9897 -1.94767 0.0719209 0
M  V30 420 H 41.0857 -2.91752 -1.10847 0
M  V30 421 N 41.3868 0.248026 -1.55636 0
M  V30 422 C 42.6638 0.998988 -1.68165 0
M  V30 423 C 43.0438 2.03409 -0.564621 0
M  V30 424 O 42.3918 2.24378 0.432076 0
M  V30 425 C 42.6018 1.63334 -3.0842 0
M  V30 426 C 43.9498 2.13562 -3.66983 0
M  V30 427 O 44.9738 1.73277 -3.11213 0
M  V30 428 O 43.8328 2.87526 -4.64749 0
M  V30 429 H 40.9268 0.464933 -0.683935 0
M  V30 430 H 43.4728 0.241902 -1.67967 0
M  V30 431 H 42.2448 0.884583 -3.8117 0
M  V30 432 H 41.8678 2.45666 -3.12624 0
M  V30 433 N 42.8649 1.48995 0.513639 0
M  V30 434 C 43.7979 1.59319 1.63379 0
M  V30 435 C 44.7759 0.442816 1.56454 0
M  V30 436 O 45.9599 0.656655 1.76693 0
M  V30 437 C 43.0869 1.5364 3.01848 0
M  V30 438 C 42.1329 2.7372 3.27078 0
M  V30 439 S 42.9659 4.35528 3.1157 0
M  V30 440 C 44.1219 4.32473 4.52458 0
M  V30 441 H 44.3549 2.54079 1.54374 0
M  V30 442 H 41.8879 1.3773 0.697849 0
M  V30 443 H 43.8459 1.51049 3.81699 0
M  V30 444 H 42.5069 0.601898 3.08279 0
M  V30 445 H 41.6999 2.6593 4.28132 0
M  V30 446 H 41.3019 2.73657 2.54927 0
M  V30 447 H 43.5939 4.03414 5.44301 0
M  V30 448 H 44.5369 5.33762 4.65299 0
M  V30 449 H 44.9449 3.62718 4.32546 0
M  V30 450 N 44.343 -0.763751 1.37857 0
M  V30 451 C 45.273 -1.89103 1.36975 0
M  V30 452 C 46.254 -1.68439 0.237152 0
M  V30 453 O 47.439 -1.8918 0.438713 0
M  V30 454 C 44.569 -3.26496 1.18395 0
M  V30 455 C 43.523 -3.61741 2.28751 0
M  V30 456 C 42.849 -4.97762 1.95286 0
M  V30 457 C 44.149 -3.67665 3.70972 0
M  V30 458 H 45.843 -1.90099 2.31307 0
M  V30 459 H 43.389 -0.91319 1.11341 0
M  V30 460 H 45.342 -4.05003 1.16406 0
M  V30 461 H 44.066 -3.25955 0.205215 0
M  V30 462 H 42.725 -2.85547 2.29909 0
M  V30 463 H 42.373 -4.93769 0.959221 0
M  V30 464 H 42.073 -5.22313 2.69189 0
M  V30 465 H 43.597 -5.7866 1.94898 0
M  V30 466 H 45.011 -4.36307 3.719 0
M  V30 467 H 43.408 -4.03718 4.43995 0
M  V30 468 H 44.478 -2.68134 4.0402 0
M  V30 469 N 45.8211 -1.22559 -0.990812 0
M  V30 470 C 47.0691 -1.04933 -1.72724 0
M  V30 471 C 47.3901 0.416158 -1.90508 0
M  V30 472 O 46.6601 1.29918 -1.46622 0
M  V30 473 H 45.2401 -0.385296 -0.639965 0
M  V30 474 H 47.9021 -1.54105 -1.19322 0
M  V30 475 H 46.9981 -1.52886 -2.72089 0
M  V30 476 N 47.2992 1.18797 -1.03562 0
M  V30 477 C 48.2462 2.22253 -0.622259 0
M  V30 478 C 49.2162 1.61987 0.36736 0
M  V30 479 O 50.4012 1.88986 0.262492 0
M  V30 480 C 47.5412 3.45097 0.0138462 0
M  V30 481 C 46.6542 4.19722 -1.02263 0
M  V30 482 C 45.7892 5.30009 -0.355573 0
M  V30 483 C 44.8282 5.96399 -1.37749 0
M  V30 484 N 43.9652 6.98234 -0.735766 0
M  V30 485 H 48.8052 2.56968 -1.50903 0
M  V30 486 H 46.3422 1.26245 -0.755017 0
M  V30 487 H 48.3002 4.15279 0.399948 0
M  V30 488 H 46.9302 3.11018 0.864158 0
M  V30 489 H 45.9822 3.48418 -1.52673 0
M  V30 490 H 47.2942 4.65227 -1.79903 0
M  V30 491 H 46.4482 6.0664 0.0850095 0
M  V30 492 H 45.1872 4.85592 0.452967 0
M  V30 493 H 44.1922 5.18512 -1.82826 0
M  V30 494 H 45.4172 6.42899 -2.18764 0
M  V30 495 H 43.3632 6.55979 0.0525597 0
M  V30 496 H 43.2802 7.41965 -1.44995 0
M  V30 497 H 44.5482 7.78845 -0.31941 0
M  V30 498 N 48.7773 0.814389 1.34928 0
M  V30 499 C 50.0543 0.321363 1.92942 0
M  V30 500 C 50.4343 -1.19014 1.74353 0
M  V30 501 O 49.7823 -1.99328 1.11716 0
M  V30 502 C 49.9923 0.741323 3.41036 0
M  V30 503 C 51.3403 0.735266 4.18185 0
M  V30 504 O 52.3643 0.68336 3.49584 0
M  V30 505 O 51.2233 0.800703 5.40602 0
M  V30 506 H 48.3173 0.0858893 0.822528 0
M  V30 507 H 50.8633 0.898609 1.43955 0
M  V30 508 H 49.6353 1.78276 3.4833 0
M  V30 509 H 49.2583 0.139307 3.97356 0
M  V30 510 N 50.2554 -1.46986 0.568584 0
M  V30 511 C 51.1874 -2.28233 -0.210337 0
M  V30 512 C 52.2004 -1.37682 -0.868767 0
M  V30 513 O 53.3894 -1.62406 -0.740705 0
M  V30 514 C 50.4894 -3.12293 -1.3163 0
M  V30 515 C 49.6624 -4.30878 -0.7525 0
M  V30 516 C 48.7214 -4.96445 -1.74439 0
M  V30 517 O 47.7474 -5.54482 -1.286 0
M  V30 518 N 48.9494 -4.92171 -3.07812 0
M  V30 519 H 51.7144 -2.95723 0.486648 0
M  V30 520 H 49.2754 -1.56742 0.405409 0
M  V30 521 H 51.2674 -3.53022 -1.97883 0
M  V30 522 H 49.8374 -2.46971 -1.91636 0
M  V30 523 H 49.0574 -3.94104 0.0871128 0
M  V30 524 H 50.3454 -5.07558 -0.35536 0
M  V30 525 H 49.7434 -4.46239 -3.47688 0
M  V30 526 H 48.3004 -5.36884 -3.69592 0
M  V30 527 N 51.7335 -0.305618 -1.54608 0
M  V30 528 C 53.1445 0.186098 -1.8577 0
M  V30 529 C 53.4955 1.53058 -1.22751 0
M  V30 530 O 52.6205 2.09888 -0.526893 0
M  V30 531 C 53.2155 0.344449 -3.37044 0
M  V30 532 C 51.7745 0.780384 -3.68221 0
M  V30 533 C 50.9215 -0.108554 -2.77087 0
M  V30 534 H 53.8725 -0.526485 -1.49712 0
M  V30 535 H 53.8935 1.17828 -3.61796 0
M  V30 536 H 53.4055 -0.634235 -3.82883 0
M  V30 537 H 51.5065 1.76945 -3.27904 0
M  V30 538 H 51.6195 0.596572 -4.75371 0
M  V30 539 H 49.9835 0.412931 -2.5133 0
M  V30 540 H 50.7665 -1.08368 -3.25747 0
M  V30 541 N 53.2116 1.57565 -0.0334293 0
M  V30 542 C 54.4576 1.92262 0.645226 0
M  V30 543 C 54.7906 0.910543 1.71531 0
M  V30 544 O 54.0656 -0.066099 1.94388 0
M  V30 545 C 54.3486 3.37422 1.2577 0
M  V30 546 C 54.2016 4.49369 0.196891 0
M  V30 547 C 55.5206 3.82628 2.17449 0
M  V30 548 H 52.6396 0.699171 0.233085 0
M  V30 549 H 55.2816 1.89779 -0.0915694 0
M  V30 550 H 53.4316 3.39669 1.88566 0
M  V30 551 H 55.1036 4.59254 -0.433962 0
M  V30 552 H 53.3466 4.31168 -0.477137 0
M  V30 553 H 54.0176 5.47978 0.665124 0
M  V30 554 H 56.4936 3.82145 1.64634 0
M  V30 555 H 55.3696 4.84883 2.57254 0
M  V30 556 H 55.6306 3.18376 3.0674 0
M  V30 557 N 54.6897 -0.239769 1.55765 0
M  V30 558 C 55.9387 -0.964754 1.77131 0
M  V30 559 C 56.2517 -1.86213 0.59868 0
M  V30 560 O 57.4577 -2.6244 0.695522 0
M  V30 561 C 55.9137 -1.76552 3.1362 0
M  V30 562 C 55.5217 -0.915185 4.38553 0
M  V30 563 C 57.2657 -2.48281 3.44321 0
M  V30 564 C 55.1727 -1.71225 5.66071 0
M  V30 565 H 54.1027 -0.363953 0.660344 0
M  V30 566 H 56.7537 -0.219181 1.82186 0
M  V30 567 H 55.1357 -2.55331 3.02691 0
M  V30 568 H 56.3097 -0.169217 4.60489 0
M  V30 569 H 54.6247 -0.310889 4.15238 0
M  V30 570 H 57.2217 -3.08382 4.36812 0
M  V30 571 H 57.5647 -3.20256 2.65973 0
M  V30 572 H 58.0977 -1.76507 3.56497 0
M  V30 573 H 54.8367 -1.03612 6.4726 0
M  V30 574 H 54.3567 -2.43331 5.48224 0
M  V30 575 H 56.0357 -2.27758 6.05587 0
M  V30 576 N 56.1678 -1.49265 -0.50573 0
M  V30 577 C 57.0978 -1.68495 -1.61653 0
M  V30 578 C 58.0788 -0.53366 -1.61512 0
M  V30 579 O 59.2638 -0.76897 -1.78327 0
M  V30 580 C 56.3938 -1.74709 -3.00157 0
M  V30 581 C 55.3478 -2.89581 -3.15162 0
M  V30 582 C 54.6738 -2.80903 -4.5497 0
M  V30 583 C 55.9738 -4.30578 -2.95634 0
M  V30 584 H 57.6678 -2.61493 -1.45814 0
M  V30 585 H 55.2138 -1.25838 -0.70005 0
M  V30 586 H 57.1668 -1.86748 -3.77761 0
M  V30 587 H 55.8908 -0.783067 -3.17074 0
M  V30 588 H 54.5498 -2.77136 -2.39982 0
M  V30 589 H 54.1978 -1.82419 -4.68756 0
M  V30 590 H 53.8978 -3.57999 -4.65951 0
M  V30 591 H 55.4218 -2.94944 -5.34641 0
M  V30 592 H 56.8358 -4.4373 -3.63011 0
M  V30 593 H 55.2328 -5.0886 -3.18091 0
M  V30 594 H 56.3028 -4.45352 -1.91806 0
M  V30 595 N 57.6459 0.756429 -1.3826 0
M  V30 596 C 58.5779 1.87971 -1.31147 0
M  V30 597 C 59.5909 1.61248 -0.224239 0
M  V30 598 O 60.7799 1.71881 -0.481581 0
M  V30 599 C 57.8799 3.23545 -1.00857 0
M  V30 600 C 57.0529 3.77794 -2.20432 0
M  V30 601 C 56.1119 4.91877 -1.86931 0
M  V30 602 O 55.1379 5.06659 -2.59395 0
M  V30 603 N 56.3399 5.74643 -0.822568 0
M  V30 604 H 59.1049 1.94585 -2.2794 0
M  V30 605 H 56.6659 0.936234 -1.32084 0
M  V30 606 H 58.6579 3.97403 -0.765021 0
M  V30 607 H 57.2279 3.12335 -0.128687 0
M  V30 608 H 56.4479 2.95534 -2.6087 0
M  V30 609 H 57.7359 4.10771 -3.00241 0
M  V30 610 H 57.1339 5.65266 -0.221575 0
M  V30 611 H 55.6909 6.48661 -0.638899 0
M  V30 612 N 59.124 1.23083 0.984299 0
M  V30 613 C 60.054 1.03292 2.09411 0
M  V30 614 C 61.035 -0.048923 1.7003 0
M  V30 615 O 62.22 0.114967 1.93859 0
M  V30 616 C 59.35 0.619155 3.41736 0
M  V30 617 C 58.304 1.64791 3.95004 0
M  V30 618 C 57.63 1.0897 5.23478 0
M  V30 619 C 58.93 3.03999 4.24714 0
M  V30 620 H 60.624 1.96119 2.26225 0
M  V30 621 H 58.17 0.944344 1.08711 0
M  V30 622 H 60.123 0.467777 4.18796 0
M  V30 623 H 58.847 -0.344786 3.24775 0
M  V30 624 H 57.506 1.78721 3.20085 0
M  V30 625 H 57.154 0.11686 5.02864 0
M  V30 626 H 56.854 1.77704 5.60085 0
M  V30 627 H 58.378 0.950093 6.03163 0
M  V30 628 H 59.792 2.93393 4.92538 0
M  V30 629 H 58.189 3.69936 4.72512 0
M  V30 630 H 59.259 3.53285 3.32142 0
M  V30 631 N 60.6021 -1.18246 1.0419 0
M  V30 632 C 61.5321 -2.24127 0.654914 0
M  V30 633 C 62.5131 -1.66617 -0.342451 0
M  V30 634 O 63.6981 -1.92924 -0.222277 0
M  V30 635 C 60.8281 -3.47295 0.0183757 0
M  V30 636 C 59.7821 -4.17563 0.939414 0
M  V30 637 C 59.1081 -5.34438 0.167286 0
M  V30 638 C 60.4081 -4.70917 2.25908 0
M  V30 639 H 62.1021 -2.56753 1.54007 0
M  V30 640 H 59.6481 -1.23414 0.74195 0
M  V30 641 H 61.6011 -4.20572 -0.264082 0
M  V30 642 H 60.3251 -3.13907 -0.901664 0
M  V30 643 H 58.9841 -3.46186 1.20628 0
M  V30 644 H 58.6321 -4.97298 -0.7552 0
M  V30 645 H 58.3321 -5.82388 0.780901 0
M  V30 646 H 59.8561 -6.10504 -0.108125 0
M  V30 647 H 61.2701 -5.35882 2.03724 0
M  V30 648 H 59.6671 -5.29406 2.82577 0
M  V30 649 H 60.7371 -3.88272 2.9047 0
M  V30 650 N 62.0802 -0.821533 -1.34494 0
M  V30 651 C 62.9902 -0.244355 -2.33324 0
M  V30 652 C 64.0062 0.620527 -1.62559 0
M  V30 653 O 65.1822 0.528754 -1.94335 0
M  V30 654 C 62.2472 0.585368 -3.41723 0
M  V30 655 C 61.3082 -0.301752 -4.28238 0
M  V30 656 C 60.5412 0.488466 -5.3146 0
M  V30 657 O 60.7642 1.72186 -5.4379 0
M  V30 658 O 59.6982 -0.12848 -6.01763 0
M  V30 659 H 63.5242 -1.06231 -2.84515 0
M  V30 660 H 61.1092 -0.583645 -1.37528 0
M  V30 661 H 62.9912 1.05747 -4.07916 0
M  V30 662 H 61.6662 1.38068 -2.92778 0
M  V30 663 H 60.5732 -0.821315 -3.64973 0
M  V30 664 H 61.9062 -1.06138 -4.8062 0
M  V30 665 N 63.5583 1.46682 -0.576371 0
M  V30 666 C 64.8073 2.01619 -0.0572825 0
M  V30 667 C 65.1203 1.45417 1.30818 0
M  V30 668 O 66.3263 1.92133 1.91825 0
M  V30 669 C 64.7823 3.59863 -0.0518371 0
M  V30 670 C 64.3903 4.25059 -1.41523 0
M  V30 671 C 66.1343 4.2248 0.413639 0
M  V30 672 C 64.0413 5.75364 -1.36785 0
M  V30 673 H 62.9713 0.753794 -0.0176448 0
M  V30 674 H 65.6223 1.68481 -0.727076 0
M  V30 675 H 64.0043 3.90048 0.683994 0
M  V30 676 H 65.1783 4.06491 -2.17029 0
M  V30 677 H 63.4933 3.7451 -1.8202 0
M  V30 678 H 66.0903 5.3265 0.467779 0
M  V30 679 H 66.4333 3.90976 1.42982 0
M  V30 680 H 66.9663 3.96897 -0.267929 0
M  V30 681 H 63.7053 6.11518 -2.36063 0
M  V30 682 H 63.2253 5.96214 -0.654895 0
M  V30 683 H 64.9043 6.37955 -1.07805 0
M  V30 684 N 65.0364 0.313813 1.54444 0
M  V30 685 C 66.4474 -0.176243 1.85866 0
M  V30 686 C 66.7984 -1.52405 1.23561 0
M  V30 687 O 65.9234 -2.09605 0.538016 0
M  V30 688 C 66.5184 -0.32657 3.37222 0
M  V30 689 C 65.0774 -0.760846 3.6863 0
M  V30 690 C 64.2244 0.123247 2.77026 0
M  V30 691 H 67.1754 0.534418 1.49431 0
M  V30 692 H 67.1964 -1.15908 3.62416 0
M  V30 693 H 66.7084 0.654531 3.82541 0
M  V30 694 H 64.8094 -1.75204 3.28838 0
M  V30 695 H 64.9224 -0.571353 4.75681 0
M  V30 696 H 63.2864 -0.399597 2.51546 0
M  V30 697 H 64.0694 1.10094 3.25168 0
M  V30 698 N 66.5145 -1.57545 0.0417849 0
M  V30 699 C 67.4625 -2.12148 -0.953723 0
M  V30 700 C 68.4565 -1.05104 -1.32852 0
M  V30 701 O 69.6625 -1.23524 -1.30927 0
M  V30 702 H 66.0375 -0.677957 -0.325389 0
M  V30 703 H 68.0085 -2.94707 -0.467991 0
M  V30 704 C 66.7575 -2.6739 -2.22257 0
M  V30 705 H 66.0805 -3.49413 -1.94295 0
M  V30 706 H 67.5205 -3.09227 -2.90094 0
M  V30 707 C 65.9795 -1.60723 -2.96091 0
M  V30 708 O 66.5095 -1.01449 -3.88679 0
M  V30 709 N 64.7155 -1.32466 -2.58652 0
M  V30 710 H 64.2625 -1.80856 -1.83437 0
M  V30 711 H 64.2205 -0.61325 -3.08361 0
M  V30 712 N 67.9926 0.231505 -1.5589 0
M  V30 713 C 68.9026 1.308 -1.94752 0
M  V30 714 C 69.9186 1.51826 -0.849989 0
M  V30 715 O 71.0946 1.6515 -1.15271 0
M  V30 716 C 68.1596 2.63968 -2.24771 0
M  V30 717 C 67.2206 2.51331 -3.48039 0
M  V30 718 C 66.4536 3.78148 -3.76616 0
M  V30 719 O 66.6766 4.80722 -3.07022 0
M  V30 720 O 65.6106 3.75857 -4.70123 0
M  V30 721 H 69.4366 1.0083 -2.86474 0
M  V30 722 H 67.0216 0.433547 -1.42971 0
M  V30 723 H 68.9036 3.42633 -2.45318 0
M  V30 724 H 67.5786 2.9364 -1.36225 0
M  V30 725 H 66.4856 1.709 -3.32782 0
M  V30 726 H 67.8186 2.26601 -4.36936 0
M  V30 727 N 69.4707 1.49531 0.497807 0
M  V30 728 C 70.4177 1.66436 1.59899 0
M  V30 729 C 71.3877 0.505793 1.58212 0
M  V30 730 O 72.5727 0.733202 1.7615 0
M  V30 731 C 69.7127 1.7399 2.98029 0
M  V30 732 C 68.8257 3.01172 3.09708 0
M  V30 733 C 67.9607 2.99686 4.38591 0
M  V30 734 C 66.9997 4.21434 4.43914 0
M  V30 735 N 66.1367 4.1784 5.64229 0
M  V30 736 H 70.9767 2.60459 1.44793 0
M  V30 737 H 68.5137 1.29137 0.704423 0
M  V30 738 H 70.4717 1.76352 3.78095 0
M  V30 739 H 69.1017 0.834301 3.11832 0
M  V30 740 H 68.1537 3.08408 2.22685 0
M  V30 741 H 69.4657 3.91165 3.09502 0
M  V30 742 H 68.6197 3.00628 5.2698 0
M  V30 743 H 67.3587 2.07477 4.41367 0
M  V30 744 H 66.3637 4.20733 3.53926 0
M  V30 745 H 67.5887 5.14839 4.42851 0
M  V30 746 H 65.5347 3.28469 5.67841 0
M  V30 747 H 65.4517 5.01571 5.65652 0
M  V30 748 H 66.7197 4.22889 6.54817 0
M  V30 749 N 70.9488 -0.749086 1.3866 0
M  V30 750 C 71.9118 -1.84457 1.36045 0
M  V30 751 C 72.9118 -1.58682 0.260122 0
M  V30 752 O 74.1018 -1.66343 0.517261 0
M  V30 753 C 71.2338 -3.22008 1.11911 0
M  V30 754 H 72.4268 -1.88182 2.33512 0
M  V30 755 H 69.9798 -0.951266 1.24019 0
M  V30 756 H 70.7148 -3.2395 0.150686 0
M  V30 757 H 70.4998 -3.42111 1.91579 0
M  V30 758 H 71.9898 -4.0208 1.12788 0
M  V30 759 N 72.4269 -1.23603 -0.977757 0
M  V30 760 C 73.3589 -0.977369 -2.07317 0
M  V30 761 C 74.3719 0.0495845 -1.62724 0
M  V30 762 O 75.5609 -0.186261 -1.77526 0
M  V30 763 C 72.6609 -0.451216 -3.35883 0
M  V30 764 C 71.8339 -1.53896 -4.09432 0
M  V30 765 C 70.8929 -1.01721 -5.16274 0
M  V30 766 O 69.9189 -1.70676 -5.43009 0
M  V30 767 N 71.1209 0.153594 -5.80297 0
M  V30 768 H 73.8859 -1.92047 -2.30082 0
M  V30 769 H 71.4469 -1.14497 -1.14465 0
M  V30 770 H 73.4389 -0.0871574 -4.04606 0
M  V30 771 H 72.0089 0.397368 -3.10064 0
M  V30 772 H 71.2289 -2.07566 -3.35127 0
M  V30 773 H 72.5169 -2.27037 -4.55337 0
M  V30 774 H 71.9149 0.730323 -5.60966 0
M  V30 775 H 70.4719 0.458892 -6.50183 0
M  V30 776 N 73.905 1.17692 -1.04816 0
M  V30 777 C 74.852 2.21581 -0.645797 0
M  V30 778 C 75.822 1.62367 0.350159 0
M  V30 779 O 77.007 1.89254 0.242433 0
M  V30 780 C 74.147 3.45092 -0.0227568 0
M  V30 781 C 73.26 4.18613 -1.06709 0
M  V30 782 C 72.395 5.29602 -0.411767 0
M  V30 783 C 71.434 5.94904 -1.44067 0
M  V30 784 N 70.571 6.97414 -0.809781 0
M  V30 785 H 75.411 2.55353 -1.5362 0
M  V30 786 H 72.948 1.25438 -0.768364 0
M  V30 787 H 74.906 4.15679 0.35588 0
M  V30 788 H 73.536 3.11917 0.831122 0
M  V30 789 H 72.588 3.46779 -1.5636 0
M  V30 790 H 73.9 4.63293 -1.84827 0
M  V30 791 H 73.054 6.06696 0.0206623 0
M  V30 792 H 71.793 4.86045 0.401438 0
M  V30 793 H 70.798 5.16544 -1.88316 0
M  V30 794 H 72.023 6.40542 -2.25571 0
M  V30 795 H 69.969 6.55998 -0.0170186 0
M  V30 796 H 69.886 7.40386 -1.52856 0
M  V30 797 H 71.154 7.78463 -0.401999 0
M  V30 798 N 75.3831 0.828654 1.34056 0
M  V30 799 C 76.3461 0.259927 2.27721 0
M  V30 800 C 77.3461 -0.565478 1.50529 0
M  V30 801 O 78.5361 -0.38075 1.69988 0
M  V30 802 C 75.6681 -0.634944 3.34935 0
M  V30 803 H 76.8611 1.0863 2.79534 0
M  V30 804 H 74.4141 0.600951 1.44285 0
M  V30 805 H 75.1491 -1.48416 2.88346 0
M  V30 806 H 74.9341 -0.0444999 3.92075 0
M  V30 807 H 76.4241 -1.02648 4.04788 0
M  V30 808 N 76.8612 -1.46375 0.584142 0
M  V30 809 C 77.7912 -2.33103 -0.136037 0
M  V30 810 C 78.7722 -1.45431 -0.882255 0
M  V30 811 O 79.9572 -1.74246 -0.857434 0
M  V30 812 C 77.0872 -3.27731 -1.14933 0
M  V30 813 C 76.0412 -4.24855 -0.517862 0
M  V30 814 C 75.3672 -5.09001 -1.63773 0
M  V30 815 C 76.6672 -5.19439 0.545886 0
M  V30 816 H 78.3612 -2.93568 0.588086 0
M  V30 817 H 75.9072 -1.41166 0.284259 0
M  V30 818 H 77.8602 -3.87261 -1.66153 0
M  V30 819 H 76.5842 -2.65377 -1.90375 0
M  V30 820 H 75.2432 -3.6659 -0.0267361 0
M  V30 821 H 74.8912 -4.43031 -2.38185 0
M  V30 822 H 74.5912 -5.74777 -1.22085 0
M  V30 823 H 76.1152 -5.71396 -2.15266 0
M  V30 824 H 77.5292 -5.73177 0.118704 0
M  V30 825 H 75.9262 -5.93566 0.88317 0
M  V30 826 H 76.9962 -4.63285 1.43162 0
M  V30 827 N 78.3393 -0.321999 -1.54275 0
M  V30 828 C 79.2713 0.578671 -2.21775 0
M  V30 829 C 80.2843 1.08109 -1.21722 0
M  V30 830 O 81.4733 0.994938 -1.482 0
M  V30 831 C 78.5733 1.80661 -2.86731 0
M  V30 832 C 77.7463 1.44314 -4.12907 0
M  V30 833 C 76.8053 2.52845 -4.61472 0
M  V30 834 O 75.8313 2.17054 -5.2619 0
M  V30 835 N 77.0333 3.83748 -4.35566 0
M  V30 836 H 79.7983 0.000709447 -2.997 0
M  V30 837 H 77.3593 -0.145132 -1.61248 0
M  V30 838 H 79.3513 2.52655 -3.16145 0
M  V30 839 H 77.9213 2.29245 -2.12521 0
M  V30 840 H 77.1413 0.554906 -3.90275 0
M  V30 841 H 78.4293 1.17598 -4.95023 0
M  V30 842 H 77.8273 4.15625 -3.83761 0
M  V30 843 H 76.3843 4.51977 -4.69638 0
M  V30 844 N 79.8174 1.5752 -0.0501392 0
M  V30 845 C 81.0654 1.9227 0.622642 0
M  V30 846 C 81.3864 0.929083 1.71444 0
M  V30 847 O 80.6564 -0.0262186 1.95882 0
M  V30 848 H 79.2364 0.709739 0.232981 0
M  V30 849 H 81.8984 1.94628 -0.102898 0
M  V30 850 H 80.9944 2.93479 1.06191 0
M  V30 851 N 81.2955 -0.223234 1.56011 0
M  V30 852 C 82.5415 -0.949279 1.79211 0
M  V30 853 C 82.8745 -1.84054 0.619494 0
M  V30 854 O 82.1495 -1.90726 -0.381317 0
M  V30 855 C 82.4325 -1.78965 3.12479 0
M  V30 856 C 82.2855 -0.924997 4.40186 0
M  V30 857 C 83.6045 -2.76774 3.42175 0
M  V30 858 H 80.7235 -0.343676 0.651963 0
M  V30 859 H 83.3655 -0.218253 1.88742 0
M  V30 860 H 81.5155 -2.41291 3.04485 0
M  V30 861 H 83.1875 -0.318615 4.60198 0
M  V30 862 H 81.4305 -0.230344 4.33188 0
M  V30 863 H 82.1015 -1.54735 5.29869 0
M  V30 864 H 84.5775 -2.24584 3.50287 0
M  V30 865 H 83.4535 -3.32678 4.36597 0
M  V30 866 H 83.7145 -3.54429 2.64258 0
M  V30 867 N 82.7736 -1.49793 -0.48987 0
M  V30 868 C 83.7066 -1.61898 -1.60823 0
M  V30 869 C 84.6846 -0.467651 -1.5573 0
M  V30 870 O 85.8686 -0.684682 -1.75626 0
M  V30 871 C 82.9956 -1.58422 -2.99366 0
M  V30 872 C 82.0416 -2.78889 -3.22682 0
M  V30 873 S 82.8746 -4.40429 -3.04602 0
M  V30 874 C 84.0306 -4.39617 -4.4552 0
M  V30 875 H 84.2636 -2.56502 -1.50312 0
M  V30 876 H 81.7966 -1.38822 -0.675849 0
M  V30 877 H 83.7546 -1.57103 -3.79248 0
M  V30 878 H 82.4156 -0.650866 -3.07283 0
M  V30 879 H 81.6086 -2.72708 -4.23847 0
M  V30 880 H 81.2106 -2.77678 -2.50541 0
M  V30 881 H 83.5026 -4.12022 -5.37814 0
M  V30 882 H 84.4456 -5.41097 -4.56749 0
M  V30 883 H 84.8536 -3.69554 -4.2672 0
M  V30 884 N 84.2517 0.741722 -1.39055 0
M  V30 885 C 85.1847 1.86416 -1.31622 0
M  V30 886 C 86.1627 1.61473 -0.191076 0
M  V30 887 O 87.3467 1.84825 -0.370399 0
M  V30 888 C 84.4737 3.22266 -1.04221 0
M  V30 889 C 83.5197 3.66079 -2.18834 0
M  V30 890 S 84.3527 3.7623 -3.81066 0
M  V30 891 C 85.5087 5.14881 -3.55877 0
M  V30 892 H 85.7417 1.92437 -2.26617 0
M  V30 893 H 83.2747 0.905907 -1.25031 0
M  V30 894 H 85.2327 4.00714 -0.890964 0
M  V30 895 H 83.8937 3.1391 -0.109237 0
M  V30 896 H 83.0867 4.64648 -1.95238 0
M  V30 897 H 82.6887 2.94817 -2.30128 0
M  V30 898 H 84.9807 6.01006 -3.12726 0
M  V30 899 H 85.9237 5.43503 -4.53884 0
M  V30 900 H 86.3317 4.84239 -2.90126 0
M  V30 901 N 85.7298 1.2412 0.971189 0
M  V30 902 C 86.6398 1.04747 2.09917 0
M  V30 903 C 87.6558 -0.0107162 1.73997 0
M  V30 904 O 88.8318 0.186714 2.00533 0
M  V30 905 C 85.8968 0.650828 3.40537 0
M  V30 906 C 84.9578 1.7851 3.90426 0
M  V30 907 C 84.1908 1.40729 5.14812 0
M  V30 908 O 84.4138 0.29557 5.69634 0
M  V30 909 O 83.3478 2.23168 5.58999 0
M  V30 910 H 87.1738 1.99304 2.29154 0
M  V30 911 H 84.7588 1.02908 1.08307 0
M  V30 912 H 86.6408 0.440992 4.19086 0
M  V30 913 H 85.3158 -0.265649 3.22608 0
M  V30 914 H 84.2228 2.04966 3.12953 0
M  V30 915 H 85.5558 2.68023 4.12825 0
M  V30 916 N 87.2079 -1.17134 1.05439 0
M  V30 917 C 88.4569 -1.86791 0.761049 0
M  V30 918 C 88.7699 -1.82072 -0.714795 0
M  V30 919 O 89.9759 -2.47223 -1.12218 0
M  V30 920 C 88.4319 -3.35166 1.31117 0
M  V30 921 C 88.0399 -3.48381 2.81664 0
M  V30 922 C 89.7839 -4.10134 1.09499 0
M  V30 923 C 87.6909 -4.90793 3.29964 0
M  V30 924 H 86.6209 -0.699681 0.281002 0
M  V30 925 H 89.2719 -1.3226 1.27199 0
M  V30 926 H 87.6539 -3.8925 0.72803 0
M  V30 927 H 88.8279 -3.04502 3.45855 0
M  V30 928 H 87.1429 -2.86836 3.01851 0
M  V30 929 H 89.7399 -5.152 1.43084 0
M  V30 930 H 90.0829 -4.16287 0.0328772 0
M  V30 931 H 90.6159 -3.62264 1.64346 0
M  V30 932 H 87.3549 -4.89816 4.35616 0
M  V30 933 H 86.8749 -5.35333 2.70516 0
M  V30 934 H 88.5539 -5.59573 3.24787 0
M  V30 935 N 88.686 -0.835752 -1.33615 0
M  V30 936 C 89.963 -0.352017 -1.92406 0
M  V30 937 C 90.343 1.16225 -1.76224 0
M  V30 938 O 89.691 1.97526 -1.14873 0
M  V30 939 C 89.901 -0.795485 -3.39813 0
M  V30 940 C 91.249 -0.801703 -4.16963 0
M  V30 941 O 92.273 -0.738889 -3.48452 0
M  V30 942 O 91.132 -0.886607 -5.3926 0
M  V30 943 H 88.226 -0.0989641 -0.821057 0
M  V30 944 H 90.772 -0.921397 -1.42507 0
M  V30 945 H 89.544 -1.83795 -3.45449 0
M  V30 946 H 89.167 -0.202505 -3.97084 0
M  V30 947 N 90.1641 1.46063 -0.591896 0
M  V30 948 C 91.4411 1.95595 -0.0137119 0
M  V30 949 C 91.8211 1.5345 1.4497 0
M  V30 950 O 91.1691 0.789543 2.14426 0
M  V30 951 C 91.3791 3.48453 -0.195373 0
M  V30 952 C 92.7271 4.24546 -0.0679765 0
M  V30 953 O 93.7511 3.55982 -0.124681 0
M  V30 954 O 92.6101 5.46467 0.0600579 0
M  V30 955 H 89.7041 0.825795 0.0446279 0
M  V30 956 H 92.2501 1.56303 -0.660859 0
M  V30 957 H 91.0221 3.72045 -1.21235 0
M  V30 958 H 90.6451 3.94597 0.487775 0
M  V30 959 N 91.6422 0.330177 1.54103 0
M  V30 960 C 92.8822 -0.270916 2.02597 0
M  V30 961 C 93.2462 -1.48826 1.21304 0
M  V30 962 O 94.4472 -2.16266 1.59633 0
M  V30 963 C 92.7182 -0.590328 3.52491 0
M  V30 964 S 94.2772 -1.17014 4.2291 0
M  V30 965 H 91.0952 -0.0815379 0.706309 0
M  V30 966 H 93.6972 0.464835 1.89893 0
M  V30 967 H 92.4012 0.303691 4.09275 0
M  V30 968 H 91.9322 -1.3561 3.69288 0
M  V30 969 H 93.9472 -2.45662 4.3112 0
M  V30 970 N 93.1203 -1.57491 0.0584922 0
M  V30 971 C 94.0833 -2.1085 -0.898617 0
M  V30 972 C 95.0833 -1.02964 -1.23511 0
M  V30 973 O 96.2733 -1.29007 -1.17059 0
M  V30 974 C 93.4053 -2.59881 -2.20623 0
M  V30 975 H 94.5983 -2.96715 -0.435936 0
M  V30 976 H 92.1513 -1.55141 -0.190023 0
M  V30 977 H 92.8863 -1.77431 -2.71457 0
M  V30 978 H 92.6713 -3.38727 -1.97501 0
M  V30 979 H 94.1613 -3.01285 -2.89166 0
M  V30 980 N 94.5984 0.214957 -1.56127 0
M  V30 981 C 95.8454 0.938372 -1.79446 0
M  V30 982 C 96.1734 1.8407 -0.628378 0
M  V30 983 O 95.4284 1.91837 0.386925 0
M  V30 984 C 95.7274 1.80314 -3.0858 0
M  V30 985 C 95.3934 1.05349 -4.3842 0
M  V30 986 C 94.0554 0.846435 -4.73697 0
M  V30 987 C 96.4074 0.524588 -5.18553 0
M  V30 988 C 93.7354 0.098683 -5.86617 0
M  V30 989 C 96.0874 -0.209853 -6.32252 0
M  V30 990 C 94.7514 -0.428102 -6.66126 0
M  V30 991 H 94.0214 0.343375 -0.656639 0
M  V30 992 H 96.6684 0.206077 -1.90388 0
M  V30 993 H 94.9734 2.6035 -2.92789 0
M  V30 994 H 96.6704 2.36513 -3.23825 0
M  V30 995 H 93.2604 1.22486 -4.10725 0
M  V30 996 H 97.4444 0.672008 -4.91729 0
M  V30 997 H 92.7004 -0.0805753 -6.11347 0
M  V30 998 H 96.8744 -0.627157 -6.9357 0
M  V30 999 H 94.5014 -1.00944 -7.53468 0
M  V30 1000 N 96.0765 1.50051 0.48192 0
M  V30 1001 C 97.4875 1.5348 1.06305 0
M  V30 1002 C 97.8385 0.331997 1.93371 0
M  V30 1003 O 96.9635 -0.556256 2.09129 0
M  V30 1004 C 97.5585 2.7813 1.93466 0
M  V30 1005 C 96.1175 2.84275 2.46707 0
M  V30 1006 C 95.2645 2.47637 1.24785 0
M  V30 1007 H 98.2155 1.56472 0.264995 0
M  V30 1008 H 98.2365 2.59372 2.78399 0
M  V30 1009 H 97.7485 3.65654 1.30072 0
M  V30 1010 H 95.8495 2.01077 3.13686 0
M  V30 1011 H 95.9625 3.8691 2.82555 0
M  V30 1012 H 94.3265 1.99835 1.57918 0
M  V30 1013 H 95.1095 3.37457 0.630694 0
M  V30 1014 N 97.5546 -0.734337 1.39446 0
M  V30 1015 C 98.4846 -1.86155 1.40955 0
M  V30 1016 C 99.4656 -1.67898 0.272827 0
M  V30 1017 O 100.651 -1.88207 0.478743 0
M  V30 1018 C 97.7806 -3.23912 1.25294 0
M  V30 1019 C 96.7346 -3.56808 2.36373 0
M  V30 1020 C 96.0606 -4.93508 2.058 0
M  V30 1021 C 97.3606 -3.59713 3.78687 0
M  V30 1022 H 99.0546 -1.8515 2.35287 0
M  V30 1023 H 96.6006 -0.889367 1.13253 0
M  V30 1024 H 98.5536 -4.02443 1.2497 0
M  V30 1025 H 97.2776 -3.25446 0.274308 0
M  V30 1026 H 95.9366 -2.80606 2.35914 0
M  V30 1027 H 95.5846 -4.91623 1.06374 0
M  V30 1028 H 95.2846 -5.16486 2.80208 0
M  V30 1029 H 96.8086 -5.74396 2.07128 0
M  V30 1030 H 98.2226 -4.2832 3.81071 0
M  V30 1031 H 96.6196 -3.94209 4.52459 0
M  V30 1032 H 97.6896 -2.59504 4.09617 0
M  V30 1033 N 99.0327 -1.24633 -0.964593 0
M  V30 1034 C 99.9627 -1.06611 -2.07741 0
M  V30 1035 C 100.944 0.0218666 -1.70086 0
M  V30 1036 O 102.129 -0.145793 -1.93652 0
M  V30 1037 C 99.2587 -0.673444 -3.40708 0
M  V30 1038 C 98.2127 -1.71054 -3.92332 0
M  V30 1039 C 97.5387 -1.17285 -5.21678 0
M  V30 1040 C 98.8387 -3.10718 -4.19824 0
M  V30 1041 H 100.533 -1.99693 -2.23076 0
M  V30 1042 H 98.0787 -0.96152 -1.07195 0
M  V30 1043 H 100.032 -0.534345 -4.17998 0
M  V30 1044 H 98.7557 0.293073 -3.25282 0
M  V30 1045 H 97.4147 -1.83791 -3.17201 0
M  V30 1046 H 97.0627 -0.196847 -5.02615 0
M  V30 1047 H 96.7627 -1.86592 -5.57187 0
M  V30 1048 H 98.2867 -1.04593 -6.01575 0
M  V30 1049 H 99.7007 -3.01192 -4.87808 0
M  V30 1050 H 98.0977 -3.77406 -4.66567 0
M  V30 1051 H 99.1677 -3.58524 -3.26479 0
M  V30 1052 N 100.511 1.16574 -1.06058 0
M  V30 1053 C 101.474 2.19085 -0.673392 0
M  V30 1054 C 102.474 1.5835 0.279648 0
M  V30 1055 O 103.664 1.74088 0.0623488 0
M  V30 1056 C 100.796 3.40899 0.00954234 0
M  V30 1057 H 101.989 2.54853 -1.58081 0
M  V30 1058 H 99.5418 1.30808 -0.855516 0
M  V30 1059 H 100.277 3.10684 0.929826 0
M  V30 1060 H 100.062 3.86233 -0.67573 0
M  V30 1061 H 101.552 4.1675 0.266245 0
M  V30 1062 N 101.989 0.842826 1.3317 0
M  V30 1063 C 103.237 0.439577 1.97262 0
M  V30 1064 C 103.558 -1.00548 1.67078 0
M  V30 1065 O 102.828 -1.70098 0.971779 0
M  V30 1066 H 101.408 0.159558 0.72976 0
M  V30 1067 H 104.07 1.07665 1.62463 0
M  V30 1068 H 103.166 0.574886 3.0676 0
M  V30 1069 N 103.467 -1.45747 0.599634 0
M  V30 1070 C 104.4 -2.27547 -0.172552 0
M  V30 1071 C 105.378 -1.36657 -0.881116 0
M  V30 1072 O 106.562 -1.66081 -0.891595 0
M  V30 1073 C 103.689 -3.14829 -1.24903 0
M  V30 1074 C 102.735 -4.21603 -0.644465 0
M  V30 1075 S 103.568 -5.32754 0.541606 0
M  V30 1076 C 104.724 -6.23604 -0.535656 0
M  V30 1077 H 104.957 -2.92691 0.521468 0
M  V30 1078 H 102.49 -1.49473 0.386947 0
M  V30 1079 H 104.448 -3.65675 -1.86527 0
M  V30 1080 H 103.109 -2.48965 -1.91508 0
M  V30 1081 H 102.302 -4.82566 -1.45417 0
M  V30 1082 H 101.904 -3.73857 -0.103534 0
M  V30 1083 H 104.196 -6.62519 -1.41686 0
M  V30 1084 H 105.139 -7.0809 0.0376246 0
M  V30 1085 H 105.547 -5.58103 -0.84741 0
M  V30 1086 N 104.945 -0.338344 -1.53925 0
M  V30 1087 C 106.173 0.261298 -2.05243 0
M  V30 1088 C 106.588 1.44625 -1.21363 0
M  V30 1089 O 105.945 1.80811 -0.247736 0
M  V30 1090 C 105.996 0.681412 -3.5502 0
M  V30 1091 O 105.717 -0.456414 -4.35716 0
M  V30 1092 C 107.218 1.34232 -4.22489 0
M  V30 1093 H 104.438 0.0513685 -0.669031 0
M  V30 1094 H 106.982 -0.488822 -1.98572 0
M  V30 1095 H 105.137 1.38148 -3.61931 0
M  V30 1096 H 105.551 -0.122564 -5.24357 0
M  V30 1097 H 107.025 1.58708 -5.28693 0
M  V30 1098 H 107.502 2.29426 -3.74514 0
M  V30 1099 H 108.108 0.684424 -4.19757 0
M  V30 1100 N 106.423 1.57458 -0.0668435 0
M  V30 1101 C 107.386 2.11323 0.887422 0
M  V30 1102 C 108.386 1.03618 1.22964 0
M  V30 1103 O 109.576 1.29626 1.16373 0
M  V30 1104 C 106.708 2.61048 2.19242 0
M  V30 1105 H 107.901 2.96942 0.420194 0
M  V30 1106 H 105.454 1.55239 0.181793 0
M  V30 1107 H 106.189 1.78868 2.70512 0
M  V30 1108 H 105.974 3.39769 1.95702 0
M  V30 1109 H 107.464 3.02814 2.87565 0
M  V30 1110 N 107.901 -0.206675 1.56239 0
M  V30 1111 C 108.851 -1.26 1.90021 0
M  V30 1112 C 109.835 -1.41566 0.764721 0
M  V30 1113 O 111.027 -1.44131 1.02739 0
M  V30 1114 C 108.156 -2.6073 2.23326 0
M  V30 1115 C 107.242 -2.49005 3.43304 0
M  V30 1116 N 107.633 -2.06946 4.61527 0
M  V30 1117 C 105.931 -2.79927 3.47213 0
M  V30 1118 C 106.632 -2.06832 5.43687 0
M  V30 1119 N 105.608 -2.47892 4.83788 0
M  V30 1120 H 109.41 -0.925955 2.78932 0
M  V30 1121 H 106.924 -0.415172 1.57003 0
M  V30 1122 H 108.921 -3.36798 2.45708 0
M  V30 1123 H 107.581 -2.94968 1.35735 0
M  V30 1124 H 108.592 -1.77839 4.86409 0
M  V30 1125 H 105.269 -3.18438 2.70006 0
M  V30 1126 H 106.659 -1.76312 6.48354 0
M  V30 1127 N 109.379 -1.50304 -0.473955 0
M  V30 1128 C 110.342 -1.6841 -1.55469 0
M  V30 1129 C 111.342 -0.554905 -1.50922 0
M  V30 1130 O 112.532 -0.821882 -1.53593 0
M  V30 1131 C 109.664 -1.70667 -2.95102 0
M  V30 1132 H 110.857 -2.64828 -1.40733 0
M  V30 1133 H 108.41 -1.39742 -0.700132 0
M  V30 1134 H 109.145 -0.75932 -3.15285 0
M  V30 1135 H 108.93 -2.52698 -2.9981 0
M  V30 1136 H 110.42 -1.8664 -3.73571 0
M  V30 1137 N 110.857 0.726932 -1.39834 0
M  V30 1138 C 112.134 1.47902 -1.28001 0
M  V30 1139 C 112.514 2.1083 0.106789 0
M  V30 1140 O 111.862 1.99242 1.11869 0
M  V30 1141 C 112.072 2.52392 -2.41038 0
M  V30 1142 C 113.42 3.18546 -2.80737 0
M  V30 1143 O 114.444 2.62708 -2.40547 0
M  V30 1144 O 113.303 4.19604 -3.50135 0
M  V30 1145 H 110.397 0.657163 -0.502062 0
M  V30 1146 H 112.943 0.760071 -1.51727 0
M  V30 1147 H 111.715 2.04329 -3.33715 0
M  V30 1148 H 111.338 3.31837 -2.19021 0
M  V30 1149 N 112.336 1.25143 0.95797 0
M  V30 1150 C 113.747 1.08851 1.51685 0
M  V30 1151 C 114.098 -0.33687 1.93286 0
M  V30 1152 O 113.223 -1.22644 1.7829 0
M  V30 1153 C 113.818 1.96978 2.75654 0
M  V30 1154 C 112.377 1.84881 3.27866 0
M  V30 1155 C 111.524 1.91329 2.0072 0
M  V30 1156 H 114.475 1.38478 0.77522 0
M  V30 1157 H 114.496 1.5078 3.4935 0
M  V30 1158 H 114.008 3.00712 2.45345 0
M  V30 1159 H 112.109 0.840182 3.63004 0
M  V30 1160 H 112.222 2.6951 3.96107 0
M  V30 1161 H 110.586 1.35174 2.15871 0
M  V30 1162 H 111.369 2.96661 1.72764 0
M  V30 1163 N 113.814 -1.1601 1.06675 0
M  V30 1164 C 114.747 -2.1947 0.625168 0
M  V30 1165 C 115.725 -1.58699 -0.354041 0
M  V30 1166 O 116.909 -1.86669 -0.262098 0
M  V30 1167 C 114.036 -3.38598 -0.0829593 0
M  V30 1168 C 113.082 -4.1787 0.853611 0
M  V30 1169 S 113.915 -4.81135 2.35094 0
M  V30 1170 C 115.071 -6.03639 1.65441 0
M  V30 1171 H 115.304 -2.56587 1.50168 0
M  V30 1172 H 112.837 -1.26862 0.880078 0
M  V30 1173 H 114.795 -4.07621 -0.485288 0
M  V30 1174 H 113.456 -2.99839 -0.935716 0
M  V30 1175 H 112.649 -5.03078 0.304755 0
M  V30 1176 H 112.251 -3.54361 1.196 0
M  V30 1177 H 114.543 -6.70632 0.962201 0
M  V30 1178 H 115.486 -6.63081 2.48454 0
M  V30 1179 H 115.894 -5.52965 1.13534 0
M  V30 1180 N 115.292 -0.849877 -1.32721 0
M  V30 1181 C 116.52 -0.464754 -2.01613 0
M  V30 1182 C 116.935 0.937191 -1.63897 0
M  V30 1183 O 116.292 1.61081 -0.857856 0
M  V30 1184 C 116.343 -0.588638 -3.56675 0
M  V30 1185 O 116.064 -1.93535 -3.93034 0
M  V30 1186 C 117.565 -0.2019 -4.4284 0
M  V30 1187 H 114.785 -0.183215 -0.645502 0
M  V30 1188 H 117.329 -1.1455 -1.69407 0
M  V30 1189 H 115.484 0.0443159 -3.87375 0
M  V30 1190 H 115.898 -1.92871 -4.87751 0
M  V30 1191 H 117.372 -0.339599 -5.50954 0
M  V30 1192 H 117.849 0.857224 -4.30753 0
M  V30 1193 H 118.455 -0.809733 -4.17521 0
M  V30 1194 N 116.77 1.45427 -0.607355 0
M  V30 1195 C 117.733 2.28974 0.101693 0
M  V30 1196 C 118.733 1.39754 0.795329 0
M  V30 1197 O 119.923 1.61878 0.643527 0
M  V30 1198 C 117.055 3.20768 1.15414 0
M  V30 1199 H 118.248 2.93147 -0.632844 0
M  V30 1200 H 115.801 1.51945 -0.366391 0
M  V30 1201 H 116.536 2.61395 1.91945 0
M  V30 1202 H 116.321 3.86489 0.66098 0
M  V30 1203 H 117.811 3.83589 1.65073 0
M  V30 1204 N 118.248 0.346503 1.53744 0
M  V30 1205 C 119.495 -0.249104 2.00962 0
M  V30 1206 C 119.823 -1.5032 1.23426 0
M  V30 1207 O 119.078 -1.93217 0.310761 0
M  V30 1208 C 119.377 -0.605809 3.52228 0
M  V30 1209 C 119.043 0.551747 4.47512 0
M  V30 1210 C 117.705 0.86941 4.73281 0
M  V30 1211 C 120.057 1.32818 5.03993 0
M  V30 1212 C 117.385 1.96582 5.52786 0
M  V30 1213 C 119.737 2.41486 5.84694 0
M  V30 1214 C 118.401 2.73808 6.08757 0
M  V30 1215 H 117.671 -0.0911538 0.735372 0
M  V30 1216 H 120.318 0.475027 1.85515 0
M  V30 1217 H 118.623 -1.4107 3.65522 0
M  V30 1218 H 120.32 -1.07858 3.86222 0
M  V30 1219 H 116.91 0.294102 4.2759 0
M  V30 1220 H 121.094 1.09602 4.84047 0
M  V30 1221 H 116.35 2.22045 5.69654 0
M  V30 1222 H 120.524 3.02078 6.27473 0
M  V30 1223 H 118.151 3.58892 6.7015 0
M  V30 1224 N 119.726 -1.57421 0.075193 0
M  V30 1225 C 120.673 -2.12915 -0.890843 0
M  V30 1226 C 121.643 -1.04252 -1.29309 0
M  V30 1227 O 122.828 -1.31933 -1.37834 0
M  V30 1228 C 119.968 -2.69795 -2.15186 0
M  V30 1229 C 119.081 -3.92624 -1.80194 0
M  V30 1230 C 118.216 -4.37736 -3.00933 0
M  V30 1231 C 117.255 -5.53205 -2.61974 0
M  V30 1232 N 116.392 -5.9326 -3.75483 0
M  V30 1233 H 121.232 -2.95156 -0.410735 0
M  V30 1234 H 118.769 -1.45854 -0.191086 0
M  V30 1235 H 120.727 -3.00883 -2.89008 0
M  V30 1236 H 119.357 -1.90313 -2.60731 0
M  V30 1237 H 118.409 -3.67977 -0.964218 0
M  V30 1238 H 119.721 -4.76482 -1.47534 0
M  V30 1239 H 118.875 -4.70503 -3.8303 0
M  V30 1240 H 117.614 -3.52739 -3.36789 0
M  V30 1241 H 116.619 -5.20086 -1.783 0
M  V30 1242 H 117.844 -6.39936 -2.27284 0
M  V30 1243 H 115.79 -5.11212 -4.11094 0
M  V30 1244 H 115.707 -6.71865 -3.46602 0
M  V30 1245 H 116.975 -6.30651 -4.58148 0
M  V30 1246 N 121.204 0.198386 -1.56346 0
M  V30 1247 C 122.481 0.944982 -1.71258 0
M  V30 1248 C 122.861 2.0151 -0.629048 0
M  V30 1249 O 122.209 2.25639 0.360473 0
M  V30 1250 C 122.419 1.5344 -3.1346 0
M  V30 1251 C 123.767 2.01778 -3.73591 0
M  V30 1252 O 124.791 1.63288 -3.16568 0
M  V30 1253 O 123.65 2.72594 -4.73661 0
M  V30 1254 H 120.744 0.442939 -0.69838 0
M  V30 1255 H 123.29 0.188342 -1.68652 0
M  V30 1256 H 122.062 0.762869 -3.83792 0
M  V30 1257 H 121.685 2.35596 -3.20282 0
M  V30 1258 N 122.682 1.50554 0.465978 0
M  V30 1259 C 123.645 1.69233 1.54574 0
M  V30 1260 C 124.645 0.562901 1.50626 0
M  V30 1261 O 125.835 0.830016 1.53155 0
M  V30 1262 C 122.967 1.7223 2.94193 0
M  V30 1263 H 124.16 2.65571 1.39327 0
M  V30 1264 H 121.713 1.40111 0.692711 0
M  V30 1265 H 122.448 0.77603 3.14878 0
M  V30 1266 H 122.233 2.54285 2.98466 0
M  V30 1267 H 123.723 1.88618 3.72576 0
M  V30 1268 N 124.16 -0.719506 1.40217 0
M  V30 1269 C 125.437 -1.47221 1.28784 0
M  V30 1270 C 125.817 -2.10883 -0.0956067 0
M  V30 1271 O 125.165 -1.99833 -1.10811 0
M  V30 1272 C 125.375 -2.5111 2.42373 0
M  V30 1273 C 126.723 -3.17053 2.82423 0
M  V30 1274 O 127.747 -2.61429 2.41937 0
M  V30 1275 O 126.606 -4.17742 3.52355 0
M  V30 1276 H 123.7 -0.654491 0.50554 0
M  V30 1277 H 126.246 -0.752014 1.52128 0
M  V30 1278 H 125.018 -2.02556 3.34793 0
M  V30 1279 H 124.641 -3.3067 2.20778 0
M  V30 1280 N 125.638 -1.25649 -0.95132 0
M  V30 1281 C 126.884 -1.10757 -1.69884 0
M  V30 1282 C 127.217 0.350061 -1.91019 0
M  V30 1283 O 126.492 1.25783 -1.48354 0
M  V30 1284 C 126.775 -1.86606 -3.07978 0
M  V30 1285 C 126.628 -3.40217 -2.94232 0
M  V30 1286 C 127.947 -1.65182 -4.07925 0
M  V30 1287 H 125.066 -0.40374 -0.616574 0
M  V30 1288 H 127.708 -1.54521 -1.10558 0
M  V30 1289 H 125.858 -1.49409 -3.58621 0
M  V30 1290 H 127.53 -3.87108 -2.50889 0
M  V30 1291 H 125.773 -3.67759 -2.30078 0
M  V30 1292 H 126.444 -3.88505 -3.92133 0
M  V30 1293 H 128.92 -1.9757 -3.66204 0
M  V30 1294 H 127.796 -2.20683 -5.02583 0
M  V30 1295 H 128.057 -0.593933 -4.38092 0
M  V30 1296 N 127.117 1.15442 -1.07289 0
M  V30 1297 C 128.08 2.18358 -0.696591 0
M  V30 1298 C 129.08 1.58637 0.262837 0
M  V30 1299 O 130.27 1.74145 0.0438809 0
M  V30 1300 C 127.402 3.4089 -0.0266151 0
M  V30 1301 H 128.595 2.53162 -1.60776 0
M  V30 1302 H 126.148 1.29893 -0.869342 0
M  V30 1303 H 126.883 3.11653 0.896822 0
M  V30 1304 H 126.668 3.85495 -0.716657 0
M  V30 1305 H 128.158 4.17009 0.222028 0
M  V30 1306 N 128.595 0.856903 1.32268 0
M  V30 1307 C 129.525 0.31858 2.31316 0
M  V30 1308 C 130.506 -0.583487 1.59779 0
M  V30 1309 O 131.691 -0.503259 1.87566 0
M  V30 1310 C 128.821 -0.491979 3.43798 0
M  V30 1311 C 127.775 0.315849 4.26833 0
M  V30 1312 C 127.101 -0.619586 5.31098 0
M  V30 1313 C 128.401 1.54282 4.98993 0
M  V30 1314 H 130.095 1.14621 2.76591 0
M  V30 1315 H 127.641 0.552613 1.32974 0
M  V30 1316 H 129.594 -0.879012 4.1213 0
M  V30 1317 H 128.318 -1.35299 2.97257 0
M  V30 1318 H 126.977 0.684664 3.6015 0
M  V30 1319 H 126.625 -1.47751 4.8081 0
M  V30 1320 H 126.325 -0.0830621 5.87541 0
M  V30 1321 H 127.849 -1.00375 6.02293 0
M  V30 1322 H 129.263 1.22796 5.59995 0
M  V30 1323 H 127.66 2.01745 5.65172 0
M  V30 1324 H 128.73 2.30285 4.26728 0
M  V30 1325 N 130.073 -1.45103 0.615059 0
M  V30 1326 C 131.003 -2.33339 -0.0865619 0
M  V30 1327 C 131.984 -1.4727 -0.851209 0
M  V30 1328 O 133.169 -1.76026 -0.820281 0
M  V30 1329 C 130.299 -3.30095 -1.07956 0
M  V30 1330 C 129.253 -4.25858 -0.427628 0
M  V30 1331 C 128.579 -5.12361 -1.5294 0
M  V30 1332 C 129.879 -5.18165 0.655944 0
M  V30 1333 H 131.573 -2.92254 0.650224 0
M  V30 1334 H 129.119 -1.40532 0.314138 0
M  V30 1335 H 131.072 -3.90698 -1.57901 0
M  V30 1336 H 129.796 -2.69355 -1.84703 0
M  V30 1337 H 128.455 -3.66564 0.0510292 0
M  V30 1338 H 128.103 -4.47984 -2.28734 0
M  V30 1339 H 127.803 -5.77238 -1.09865 0
M  V30 1340 H 129.327 -5.75833 -2.03098 0
M  V30 1341 H 130.741 -5.72796 0.240257 0
M  V30 1342 H 129.138 -5.91559 1.00888 0
M  V30 1343 H 130.208 -4.60144 1.52957 0
M  V30 1344 N 131.551 -0.354651 -1.53558 0
M  V30 1345 C 132.797 0.238797 -2.01389 0
M  V30 1346 C 133.13 1.49309 -1.2418 0
M  V30 1347 O 132.405 1.91638 -0.332457 0
M  V30 1348 C 132.688 0.541771 -3.56001 0
M  V30 1349 C 132.541 -0.725388 -4.43912 0
M  V30 1350 C 133.86 1.34685 -4.18984 0
M  V30 1351 H 130.979 0.0853177 -0.732045 0
M  V30 1352 H 133.621 -0.477384 -1.83905 0
M  V30 1353 H 131.771 1.15189 -3.71031 0
M  V30 1354 H 133.443 -1.36313 -4.407 0
M  V30 1355 H 131.686 -1.34801 -4.12324 0
M  V30 1356 H 132.357 -0.468505 -5.50008 0
M  V30 1357 H 134.833 0.830837 -4.07721 0
M  V30 1358 H 133.709 1.52759 -5.27215 0
M  V30 1359 H 133.97 2.35221 -3.74331 0
M  V30 1360 N 133.029 1.57378 -0.0835403 0
M  V30 1361 C 134.277 1.93547 0.581718 0
M  V30 1362 C 134.598 0.96524 1.69435 0
M  V30 1363 O 133.868 0.0153369 1.95894 0
M  V30 1364 H 132.448 0.714521 0.217874 0
M  V30 1365 H 135.11 1.94366 -0.144158 0
M  V30 1366 H 134.206 2.95665 0.999423 0
M  V30 1367 N 134.507 -0.190092 1.56449 0
M  V30 1368 C 135.47 -1.21925 1.9408 0
M  V30 1369 C 136.47 -1.38176 0.822431 0
M  V30 1370 O 137.66 -1.35903 1.08977 0
M  V30 1371 C 134.792 -2.58773 2.21922 0
M  V30 1372 H 135.985 -0.897464 2.86157 0
M  V30 1373 H 133.538 -0.43181 1.50217 0
M  V30 1374 H 134.273 -2.95998 1.32499 0
M  V30 1375 H 134.058 -2.48348 3.03424 0
M  V30 1376 H 135.548 -3.32978 2.52022 0
M  V30 1377 N 135.985 -1.50799 -0.457987 0
M  V30 1378 C 137.401 -1.38515 -0.792819 0
M  V30 1379 C 137.601 -0.451409 -1.96379 0
M  V30 1380 O 136.657 0.10112 -2.52297 0
M  V30 1381 C 137.97 -2.80149 -1.09258 0
M  V30 1382 C 139.518 -2.89156 -1.19825 0
M  V30 1383 C 139.993 -4.31651 -1.53106 0
M  V30 1384 N 141.484 -4.34662 -1.60072 0
M  V30 1385 C 142.219 -5.41928 -1.87354 0
M  V30 1386 N 141.715 -6.59384 -2.12568 0
M  V30 1387 N 143.508 -5.29385 -1.88965 0
M  V30 1388 H 135.659 -2.10073 0.313511 0
M  V30 1389 H 137.922 -0.944803 0.0777862 0
M  V30 1390 H 137.628 -3.50374 -0.305084 0
M  V30 1391 H 137.502 -3.18204 -2.02549 0
M  V30 1392 H 139.889 -2.19141 -1.97639 0
M  V30 1393 H 139.97 -2.54626 -0.244821 0
M  V30 1394 H 139.614 -5.02208 -0.758266 0
M  V30 1395 H 139.544 -4.63678 -2.49621 0
M  V30 1396 H 142.035 -3.49973 -1.42573 0
M  V30 1397 H 142.348 -7.36934 -2.32696 0
M  V30 1398 H 140.693 -6.62535 -2.09933 0
M  V30 1399 H 143.884 -4.36616 -1.68772 0
M  V30 1400 H 144.057 -6.13066 -2.09891 0
M  V30 1401 N 137.463 0.71206 -1.40597 0
M  V30 1402 C 138.874 1.29135 -1.34837 0
M  V30 1403 C 139.225 1.96186 -0.0235395 0
M  V30 1404 O 138.35 1.97768 0.878444 0
M  V30 1405 C 138.945 2.34827 -2.44217 0
M  V30 1406 C 137.504 2.88371 -2.41907 0
M  V30 1407 C 136.651 1.62202 -2.24913 0
M  V30 1408 H 139.602 0.507944 -1.50352 0
M  V30 1409 H 139.623 3.15749 -2.12327 0
M  V30 1410 H 139.135 1.85996 -3.40627 0
M  V30 1411 H 137.236 3.41422 -1.49204 0
M  V30 1412 H 137.349 3.39925 -3.37621 0
M  V30 1413 H 135.713 1.874 -1.72492 0
M  V30 1414 H 136.496 1.15391 -3.23326 0
M  V30 1415 N 138.941 1.26152 0.944643 0
M  V30 1416 C 140.357 1.03189 1.21754 0
M  V30 1417 C 140.557 -0.245112 2.00004 0
M  V30 1418 O 139.613 -0.955176 2.33736 0
M  V30 1419 C 140.926 2.26119 1.98219 0
M  V30 1420 C 142.474 2.30984 2.11224 0
M  V30 1421 C 142.949 3.53597 2.91089 0
M  V30 1422 N 144.44 3.54053 2.98664 0
M  V30 1423 C 145.175 4.45593 3.60881 0
M  V30 1424 N 144.671 5.47416 4.24626 0
M  V30 1425 N 146.464 4.33252 3.58119 0
M  V30 1426 H 138.615 2.08177 0.421437 0
M  V30 1427 H 140.878 0.914723 0.248969 0
M  V30 1428 H 140.584 3.18984 1.48128 0
M  V30 1429 H 140.458 2.3009 2.98895 0
M  V30 1430 H 142.845 1.38635 2.60508 0
M  V30 1431 H 142.926 2.31026 1.09821 0
M  V30 1432 H 142.57 4.46273 2.42493 0
M  V30 1433 H 142.5 3.50802 3.92741 0
M  V30 1434 H 144.991 2.80403 2.53343 0
M  V30 1435 H 145.304 6.13459 4.69987 0
M  V30 1436 H 143.649 5.51278 4.23223 0
M  V30 1437 H 146.84 3.52924 3.0751 0
M  V30 1438 H 147.013 5.04786 4.06319 0
M  V30 1439 N 140.419 -1.14872 1.07899 0
M  V30 1440 C 141.667 -1.85422 0.803941 0
M  V30 1441 C 141.988 -1.83051 -0.67211 0
M  V30 1442 O 141.258 -1.27532 -1.48703 0
M  V30 1443 H 139.838 -0.686537 0.294408 0
M  V30 1444 H 142.5 -1.39226 1.3639 0
M  V30 1445 H 141.596 -2.90399 1.14346 0
M  V30 1446 N 141.898 -0.863906 -1.31812 0
M  V30 1447 C 143.309 -0.52522 -1.7916 0
M  V30 1448 C 143.66 0.957518 -1.71248 0
M  V30 1449 O 142.785 1.74734 -1.27659 0
M  V30 1450 C 143.38 -0.9466 -3.25307 0
M  V30 1451 C 141.939 -0.659668 -3.70574 0
M  V30 1452 C 141.086 -1.14126 -2.52726 0
M  V30 1453 H 144.037 -1.05022 -1.1898 0
M  V30 1454 H 144.058 -0.266766 -3.79564 0
M  V30 1455 H 143.57 -2.02579 -3.31034 0
M  V30 1456 H 141.671 0.408416 -3.70355 0
M  V30 1457 H 141.784 -1.23245 -4.62977 0
M  V30 1458 H 140.148 -0.561216 -2.4844 0
M  V30 1459 H 140.931 -2.22775 -2.61201 0
M  V30 1460 N 143.376 1.44774 -0.622745 0
M  V30 1461 C 144.624 2.01721 -0.123655 0
M  V30 1462 C 144.945 1.49172 1.25589 0
M  V30 1463 O 144.215 0.691974 1.83272 0
M  V30 1464 H 142.795 0.745777 -0.0427225 0
M  V30 1465 H 145.457 1.77382 -0.807559 0
M  V30 1466 H 144.553 3.11984 -0.0849534 0
M  V30 1467 N 144.854 0.36279 1.53368 0
M  V30 1468 C 145.787 -0.528507 2.21996 0
M  V30 1469 C 146.765 -1.0852 1.21087 0
M  V30 1470 O 147.949 -1.14186 1.4998 0
M  V30 1471 C 145.076 -1.72893 2.91249 0
M  V30 1472 C 144.122 -1.29994 4.06207 0
M  V30 1473 S 144.955 -0.303575 5.34639 0
M  V30 1474 C 146.111 -1.51039 6.07403 0
M  V30 1475 H 146.344 0.0543423 2.9725 0
M  V30 1476 H 143.877 0.146889 1.537 0
M  V30 1477 H 145.835 -2.41751 3.31763 0
M  V30 1478 H 144.496 -2.28303 2.15724 0
M  V30 1479 H 143.689 -2.19549 4.53667 0
M  V30 1480 H 143.291 -0.690608 3.67569 0
M  V30 1481 H 145.583 -2.44186 6.31965 0
M  V30 1482 H 146.526 -1.07721 6.99858 0
M  V30 1483 H 146.934 -1.71518 5.37812 0
M  V30 1484 N 146.332 -1.57332 0.0918853 0
M  V30 1485 C 147.242 -2.17368 -0.882505 0
M  V30 1486 C 148.258 -1.14226 -1.31257 0
M  V30 1487 O 149.434 -1.46582 -1.38115 0
M  V30 1488 C 146.499 -2.73962 -2.12476 0
M  V30 1489 C 145.56 -3.92048 -1.7492 0
M  V30 1490 C 144.793 -4.45933 -2.93223 0
M  V30 1491 O 145.016 -3.98764 -4.07852 0
M  V30 1492 O 143.95 -5.36999 -2.71875 0
M  V30 1493 H 147.776 -3.01031 -0.40172 0
M  V30 1494 H 145.361 -1.48813 -0.132291 0
M  V30 1495 H 147.243 -3.10147 -2.85283 0
M  V30 1496 H 145.918 -1.93347 -2.59613 0
M  V30 1497 H 144.825 -3.6068 -0.993025 0
M  V30 1498 H 146.158 -4.74017 -1.32548 0
M  V30 1499 N 147.81 0.181792 -1.56548 0
M  V30 1500 C 149.226 0.53316 -1.50431 0
M  V30 1501 C 149.426 1.85184 -0.794297 0
M  V30 1502 O 148.482 2.50058 -0.350318 0
M  V30 1503 C 149.795 0.575597 -2.9514 0
M  V30 1504 C 151.343 0.663519 -3.05886 0
M  V30 1505 C 151.818 0.736946 -4.52032 0
M  V30 1506 N 153.309 0.800118 -4.56237 0
M  V30 1507 C 154.044 0.877327 -5.66649 0
M  V30 1508 N 153.54 0.916016 -6.86718 0
M  V30 1509 N 155.333 0.915542 -5.54594 0
M  V30 1510 H 147.484 -0.683025 -2.01118 0
M  V30 1511 H 149.747 -0.244988 -0.915797 0
M  V30 1512 H 149.453 -0.324482 -3.502 0
M  V30 1513 H 149.327 1.42572 -3.49218 0
M  V30 1514 H 151.714 1.55403 -2.50867 0
M  V30 1515 H 151.795 -0.21307 -2.54911 0
M  V30 1516 H 151.439 -0.149262 -5.07681 0
M  V30 1517 H 151.369 1.62953 -5.00753 0
M  V30 1518 H 153.86 0.778926 -3.69785 0
M  V30 1519 H 154.173 0.975813 -7.66614 0
M  V30 1520 H 152.518 0.884469 -6.89349 0
M  V30 1521 H 155.709 0.882245 -4.59711 0
M  V30 1522 H 155.882 0.972253 -6.40665 0
M  V30 1523 N 149.288 1.51039 0.449983 0
M  V30 1524 C 150.235 1.71439 1.54523 0
M  V30 1525 C 151.205 0.555871 1.56522 0
M  V30 1526 O 152.39 0.788871 1.73728 0
M  V30 1527 C 149.53 1.83384 2.92343 0
M  V30 1528 C 148.643 3.10873 2.9997 0
M  V30 1529 C 147.778 3.13488 4.28834 0
M  V30 1530 C 146.817 4.35343 4.30282 0
M  V30 1531 N 145.954 4.35579 5.5065 0
M  V30 1532 H 150.794 2.64934 1.36433 0
M  V30 1533 H 148.331 1.31312 0.662982 0
M  V30 1534 H 150.289 1.88291 3.72293 0
M  V30 1535 H 148.919 0.933086 3.0902 0
M  V30 1536 H 147.971 3.15336 2.12761 0
M  V30 1537 H 149.283 4.00814 2.96901 0
M  V30 1538 H 148.437 3.17241 5.17149 0
M  V30 1539 H 147.176 2.21414 4.34543 0
M  V30 1540 H 146.181 4.3178 3.40362 0
M  V30 1541 H 147.406 5.28668 4.26248 0
M  V30 1542 H 145.352 3.46369 5.57104 0
M  V30 1543 H 145.269 5.19313 5.49409 0
M  V30 1544 H 146.537 4.43507 6.41032 0
M  V30 1545 N 150.766 -0.704594 1.40972 0
M  V30 1546 C 152.043 -1.45847 1.30338 0
M  V30 1547 C 152.423 -2.10973 -0.0732344 0
M  V30 1548 O 151.771 -2.00997 -1.08685 0
M  V30 1549 C 151.981 -2.48525 2.45023 0
M  V30 1550 C 153.329 -3.1404 2.8577 0
M  V30 1551 O 154.353 -2.58848 2.44696 0
M  V30 1552 O 153.212 -4.13981 3.56766 0
M  V30 1553 H 150.306 -0.649092 0.512454 0
M  V30 1554 H 152.852 -0.735836 1.52917 0
M  V30 1555 H 151.624 -1.98994 3.36923 0
M  V30 1556 H 151.247 -3.2831 2.24272 0
M  V30 1557 N 152.244 -1.26651 -0.937939 0
M  V30 1558 C 153.174 -1.10993 -2.05433 0
M  V30 1559 C 154.155 -0.0142161 -1.70094 0
M  V30 1560 O 155.34 -0.186837 -1.93299 0
M  V30 1561 C 152.47 -0.745561 -3.39203 0
M  V30 1562 C 151.424 -1.79337 -3.88616 0
M  V30 1563 C 150.75 -1.28324 -5.19073 0
M  V30 1564 C 152.05 -3.19553 -4.13138 0
M  V30 1565 H 153.744 -2.0438 -2.1879 0
M  V30 1566 H 151.29 -0.984041 -1.05131 0
M  V30 1567 H 153.243 -0.622888 -4.16771 0
M  V30 1568 H 151.967 0.22401 -3.25831 0
M  V30 1569 H 150.626 -1.90477 -3.13231 0
M  V30 1570 H 150.274 -0.303414 -5.02084 0
M  V30 1571 H 149.974 -1.98369 -5.53103 0
M  V30 1572 H 151.498 -1.1733 -5.99221 0
M  V30 1573 H 152.912 -3.11471 -4.81309 0
M  V30 1574 H 151.309 -3.87218 -4.58457 0
M  V30 1575 H 152.379 -3.65368 -3.18801 0
M  V30 1576 N 153.722 1.14298 -1.08507 0
M  V30 1577 C 154.652 2.21542 -0.737646 0
M  V30 1578 C 155.633 1.67773 0.280377 0
M  V30 1579 O 156.818 1.93616 0.150521 0
M  V30 1580 C 153.948 3.46988 -0.147259 0
M  V30 1581 C 152.902 4.13789 -1.09374 0
M  V30 1582 C 152.228 5.33449 -0.365524 0
M  V30 1583 C 153.528 4.62208 -2.4323 0
M  V30 1584 H 155.222 2.5086 -1.6343 0
M  V30 1585 H 152.768 1.20576 -0.787243 0
M  V30 1586 H 154.721 4.21262 0.107808 0
M  V30 1587 H 153.445 3.17037 0.784538 0
M  V30 1588 H 152.104 3.4147 -1.33393 0
M  V30 1589 H 151.752 4.99759 0.57011 0
M  V30 1590 H 151.452 5.79088 -0.996512 0
M  V30 1591 H 152.976 6.10485 -0.118534 0
M  V30 1592 H 154.39 5.27952 -2.23472 0
M  V30 1593 H 152.787 5.18553 -3.02031 0
M  V30 1594 H 153.857 3.77224 -3.04681 0
M  V30 1595 N 155.201 0.870884 1.31352 0
M  V30 1596 C 156.111 0.330783 2.32256 0
M  V30 1597 C 157.127 -0.559767 1.6475 0
M  V30 1598 O 158.303 -0.456263 1.96164 0
M  V30 1599 C 155.368 -0.458137 3.4366 0
M  V30 1600 C 154.429 0.460482 4.26823 0
M  V30 1601 C 153.662 -0.290881 5.32907 0
M  V30 1602 O 153.885 -1.51885 5.49806 0
M  V30 1603 O 152.819 0.351732 6.00871 0
M  V30 1604 H 156.645 1.16718 2.80376 0
M  V30 1605 H 154.23 0.634285 1.35267 0
M  V30 1606 H 156.112 -0.905343 4.1156 0
M  V30 1607 H 154.787 -1.27106 2.97701 0
M  V30 1608 H 153.694 0.956207 3.61673 0
M  V30 1609 H 155.027 1.23903 4.7635 0
M  V30 1610 N 156.679 -1.44442 0.630414 0
M  V30 1611 C 157.642 -2.29107 -0.0652523 0
M  V30 1612 C 158.642 -1.41002 -0.772995 0
M  V30 1613 O 159.832 -1.62881 -0.617692 0
M  V30 1614 C 156.964 -3.22564 -1.10296 0
M  V30 1615 H 158.157 -2.92103 0.679401 0
M  V30 1616 H 155.71 -1.51343 0.390517 0
M  V30 1617 H 156.445 -2.64416 -1.87762 0
M  V30 1618 H 156.23 -3.87491 -0.59941 0
M  V30 1619 H 157.72 -3.86167 -1.5895 0
M  V30 1620 N 158.157 -0.370918 -1.53173 0
M  V30 1621 C 159.105 0.488101 -2.27421 0
M  V30 1622 C 160.099 1.07884 -1.30604 0
M  V30 1623 O 161.305 1.02143 -1.48212 0
M  V30 1624 H 157.68 0.176134 -0.731082 0
M  V30 1625 H 159.651 -0.159815 -2.97972 0
M  V30 1626 C 158.4 1.61306 -3.08019 0
M  V30 1627 H 157.723 1.1678 -3.82364 0
M  V30 1628 H 159.163 2.18872 -3.63141 0
M  V30 1629 C 157.622 2.55848 -2.19188 0
M  V30 1630 O 158.152 3.58799 -1.80626 0
M  V30 1631 N 156.358 2.2516 -1.83715 0
M  V30 1632 H 155.905 1.41476 -2.15273 0
M  V30 1633 H 155.863 2.8867 -1.24567 0
M  V30 1634 N 159.635 1.57281 -0.100228 0
M  V30 1635 C 160.598 2.13158 0.842398 0
M  V30 1636 C 161.598 1.06202 1.20738 0
M  V30 1637 O 162.788 1.32066 1.13597 0
M  V30 1638 C 159.92 2.65639 2.13655 0
M  V30 1639 H 161.113 2.97766 0.357114 0
M  V30 1640 H 158.666 1.5559 0.148823 0
M  V30 1641 H 159.401 1.84566 2.66657 0
M  V30 1642 H 159.186 3.43844 1.88451 0
M  V30 1643 H 160.676 3.08846 2.81077 0
M  V30 1644 N 161.113 -0.173488 1.56642 0
M  V30 1645 C 162.045 -1.23935 1.92802 0
M  V30 1646 C 163.058 -1.40589 0.820889 0
M  V30 1647 O 164.247 -1.40631 1.09933 0
M  V30 1648 C 161.347 -2.60837 2.16373 0
M  V30 1649 C 160.52 -2.6551 3.47596 0
M  V30 1650 C 159.579 -3.8376 3.60021 0
M  V30 1651 O 158.605 -3.69859 4.32658 0
M  V30 1652 N 159.807 -5.00127 2.94709 0
M  V30 1653 H 162.572 -0.932236 2.84832 0
M  V30 1654 H 160.133 -0.363268 1.57772 0
M  V30 1655 H 162.125 -3.38407 2.21952 0
M  V30 1656 H 160.695 -2.83948 1.30738 0
M  V30 1657 H 159.915 -1.74052 3.53694 0
M  V30 1658 H 161.203 -2.65641 4.33949 0
M  V30 1659 H 160.601 -5.14322 2.35563 0
M  V30 1660 H 159.158 -5.75567 3.05886 0
M  V30 1661 N 162.591 -1.51276 -0.441967 0
M  V30 1662 C 163.84 -1.6295 -1.18871 0
M  V30 1663 C 164.153 -0.349312 -1.92456 0
M  V30 1664 O 165.359 -0.345355 -2.69295 0
M  V30 1665 C 163.815 -2.87759 -2.16155 0
M  V30 1666 C 163.423 -4.22764 -1.48239 0
M  V30 1667 C 165.167 -3.08788 -2.91291 0
M  V30 1668 C 163.074 -5.38728 -2.4398 0
M  V30 1669 H 162.004 -0.606913 -0.447406 0
M  V30 1670 H 164.655 -1.77739 -0.456205 0
M  V30 1671 H 163.037 -2.66593 -2.92821 0
M  V30 1672 H 164.211 -4.54293 -0.771635 0
M  V30 1673 H 162.526 -4.07575 -0.852741 0
M  V30 1674 H 165.123 -3.92599 -3.63002 0
M  V30 1675 H 165.466 -2.21679 -3.5237 0
M  V30 1676 H 165.999 -3.30272 -2.21733 0
M  V30 1677 H 162.738 -6.28082 -1.87598 0
M  V30 1678 H 162.258 -5.1158 -3.13123 0
M  V30 1679 H 163.937 -5.70489 -3.05207 0
M  V30 1680 N 164.069 0.697108 -1.41344 0
M  V30 1681 C 165.316 1.45714 -1.40619 0
M  V30 1682 C 165.644 1.94494 -0.0147907 0
M  V30 1683 O 164.899 1.69794 0.973066 0
M  V30 1684 C 165.198 2.68553 -2.35826 0
M  V30 1685 C 164.864 2.38438 -3.82698 0
M  V30 1686 C 163.526 2.29936 -4.22709 0
M  V30 1687 C 165.878 2.13567 -4.75435 0
M  V30 1688 C 163.206 1.94656 -5.53467 0
M  V30 1689 C 165.558 1.79797 -6.06511 0
M  V30 1690 C 164.222 1.69789 -6.45545 0
M  V30 1691 H 163.492 0.533206 -0.51456 0
M  V30 1692 H 166.139 0.796901 -1.74131 0
M  V30 1693 H 164.444 3.39503 -1.95563 0
M  V30 1694 H 166.141 3.2669 -2.32539 0
M  V30 1695 H 162.731 2.4595 -3.51008 0
M  V30 1696 H 166.915 2.19082 -4.45328 0
M  V30 1697 H 162.171 1.8546 -5.82593 0
M  V30 1698 H 166.345 1.59572 -6.77872 0
M  V30 1699 H 163.972 1.4222 -7.46778 0
M  V30 1700 N 165.547 1.27147 0.931209 0
M  V30 1701 C 166.775 1.16082 1.71267 0
M  V30 1702 C 167.19 -0.282772 1.8667 0
M  V30 1703 O 166.547 -1.19283 1.38122 0
M  V30 1704 C 166.598 1.8358 3.11417 0
M  V30 1705 O 166.319 3.22299 2.96741 0
M  V30 1706 C 167.82 1.78597 4.05732 0
M  V30 1707 H 165.04 0.403758 0.535929 0
M  V30 1708 H 167.584 1.67953 1.16671 0
M  V30 1709 H 165.739 1.35623 3.62885 0
M  V30 1710 H 166.153 3.55851 3.85319 0
M  V30 1711 H 167.627 2.30444 5.01597 0
M  V30 1712 H 168.104 0.754564 4.3267 0
M  V30 1713 H 168.71 2.26152 3.60188 0
M  V30 1714 N 167.025 -1.13721 1.09112 0
M  V30 1715 C 168.271 -1.85198 0.826414 0
M  V30 1716 C 168.604 -1.83129 -0.646319 0
M  V30 1717 O 167.879 -1.2671 -1.47563 0
M  V30 1718 C 168.162 -3.33507 1.35812 0
M  V30 1719 C 168.015 -3.44108 2.89672 0
M  V30 1720 C 169.334 -4.28838 0.989256 0
M  V30 1721 H 166.453 -0.67243 0.301675 0
M  V30 1722 H 169.095 -1.33499 1.35197 0
M  V30 1723 H 167.245 -3.77666 0.911082 0
M  V30 1724 H 168.917 -3.08684 3.428 0
M  V30 1725 H 167.16 -2.85087 3.26967 0
M  V30 1726 H 167.831 -4.48388 3.21951 0
M  V30 1727 H 170.307 -3.92734 1.37475 0
M  V30 1728 H 169.183 -5.31051 1.38838 0
M  V30 1729 H 169.444 -4.4198 -0.102924 0
M  V30 1730 N 168.503 -0.877838 -1.30888 0
M  V30 1731 C 169.435 -0.296607 -2.27273 0
M  V30 1732 C 170.448 0.544799 -1.53414 0
M  V30 1733 O 171.637 0.365511 -1.74718 0
M  V30 1734 C 168.737 0.597481 -3.33592 0
M  V30 1735 C 167.91 -0.213251 -4.3688 0
M  V30 1736 C 166.969 0.610208 -5.2265 0
M  V30 1737 O 165.995 0.035441 -5.69189 0
M  V30 1738 N 167.197 1.92071 -5.47804 0
M  V30 1739 H 169.962 -1.12492 -2.77787 0
M  V30 1740 H 167.523 -0.740105 -1.43993 0
M  V30 1741 H 169.515 1.15425 -3.87891 0
M  V30 1742 H 168.085 1.32647 -2.83061 0
M  V30 1743 H 167.305 -0.951466 -3.82545 0
M  V30 1744 H 168.593 -0.769262 -5.02951 0
M  V30 1745 H 167.991 2.4107 -5.11763 0
M  V30 1746 H 166.548 2.42508 -6.05007 0
M  V30 1747 N 169.982 1.44106 -0.638065 0
M  V30 1748 C 171.23 2.01579 -0.145043 0
M  V30 1749 C 171.551 1.50496 1.24 0
M  V30 1750 O 170.821 0.711374 1.82527 0
M  V30 1751 H 169.401 0.745282 -0.05063 0
M  V30 1752 H 172.063 1.76516 -0.826327 0
M  V30 1753 H 171.159 3.11877 -0.118039 0
M  V30 1754 N 171.46 0.379036 1.52974 0
M  V30 1755 C 172.407 -0.461048 2.26148 0
M  V30 1756 C 173.377 -1.06637 1.27349 0
M  V30 1757 O 174.562 -1.09633 1.56157 0
M  V30 1758 C 171.702 -1.58782 3.06402 0
M  V30 1759 C 170.815 -1.00636 4.20115 0
M  V30 1760 C 169.95 -2.10334 4.87784 0
M  V30 1761 C 168.989 -1.49724 5.93506 0
M  V30 1762 N 168.126 -2.5331 6.54812 0
M  V30 1763 H 172.966 0.169429 2.97518 0
M  V30 1764 H 170.503 0.0953806 1.4679 0
M  V30 1765 H 172.461 -2.25174 3.51215 0
M  V30 1766 H 171.091 -2.18876 2.37261 0
M  V30 1767 H 170.143 -0.232332 3.7969 0
M  V30 1768 H 171.455 -0.523343 4.96047 0
M  V30 1769 H 170.609 -2.84519 5.35849 0
M  V30 1770 H 169.348 -2.61992 4.11353 0
M  V30 1771 H 168.353 -0.740598 5.44789 0
M  V30 1772 H 169.578 -0.988732 6.71864 0
M  V30 1773 H 167.524 -3.04156 5.81227 0
M  V30 1774 H 167.441 -2.09734 7.26325 0
M  V30 1775 H 168.709 -3.27155 7.07524 0
M  V30 1776 N 172.938 -1.57226 0.108567 0
M  V30 1777 C 173.901 -2.13602 -0.831082 0
M  V30 1778 C 174.901 -1.06841 -1.20173 0
M  V30 1779 O 176.091 -1.32666 -1.12895 0
M  V30 1780 C 173.223 -2.66769 -2.12243 0
M  V30 1781 H 174.416 -2.97951 -0.341317 0
M  V30 1782 H 171.969 -1.55667 -0.14057 0
M  V30 1783 H 172.704 -1.85977 -2.65675 0
M  V30 1784 H 172.489 -3.44839 -1.86625 0
M  V30 1785 H 173.979 -3.10332 -2.79435 0
M  V30 1786 N 174.416 0.165178 -1.56732 0
M  V30 1787 C 175.665 0.879143 -1.81532 0
M  V30 1788 C 175.978 1.83144 -0.686842 0
M  V30 1789 O 177.184 2.58823 -0.819944 0
M  V30 1790 C 175.64 1.61388 -3.21686 0
M  V30 1791 C 175.248 0.704904 -4.4242 0
M  V30 1792 C 176.992 2.3157 -3.55774 0
M  V30 1793 C 174.899 1.44022 -5.73595 0
M  V30 1794 H 173.829 0.332033 -0.676957 0
M  V30 1795 H 176.48 0.132008 -1.83025 0
M  V30 1796 H 174.862 2.40599 -3.14529 0
M  V30 1797 H 176.036 -0.0506815 -4.60772 0
M  V30 1798 H 174.351 0.112419 -4.16248 0
M  V30 1799 H 176.948 2.8719 -4.51028 0
M  V30 1800 H 177.291 3.07201 -2.8095 0
M  V30 1801 H 177.824 1.59297 -3.64513 0
M  V30 1802 H 174.563 0.72612 -6.51466 0
M  V30 1803 H 174.083 2.16898 -5.5921 0
M  V30 1804 H 175.762 1.98606 -6.15764 0
M  V30 1805 N 175.894 1.51508 0.433938 0
M  V30 1806 C 177.171 1.54888 1.19453 0
M  V30 1807 C 177.551 0.315154 2.08734 0
M  V30 1808 O 176.899 -0.699558 2.17528 0
M  V30 1809 C 177.109 2.86467 1.99342 0
M  V30 1810 C 178.457 3.38545 2.56267 0
M  V30 1811 O 179.481 2.88041 2.0955 0
M  V30 1812 O 178.34 4.26675 3.41483 0
M  V30 1813 H 175.434 0.622863 0.544032 0
M  V30 1814 H 177.98 1.63823 0.442732 0
M  V30 1815 H 176.752 3.67718 1.33788 0
M  V30 1816 H 176.375 2.8071 2.8158 0
M  V30 1817 N 177.372 -0.689602 1.41712 0
M  V30 1818 C 178.335 -1.78521 1.43746 0
M  V30 1819 C 179.335 -1.57436 0.327191 0
M  V30 1820 O 180.525 -1.64 0.587348 0
M  V30 1821 C 177.657 -3.16971 1.25467 0
M  V30 1822 H 178.85 -1.78108 2.41283 0
M  V30 1823 H 176.403 -0.89781 1.27942 0
M  V30 1824 H 177.138 -3.23019 0.287948 0
M  V30 1825 H 176.923 -3.33678 2.05917 0
M  V30 1826 H 178.413 -3.96935 1.2974 0
M  V30 1827 N 178.85 -1.27639 -0.924453 0
M  V30 1828 C 180.096 -1.14336 -1.67497 0
M  V30 1829 C 180.429 0.309465 -1.91718 0
M  V30 1830 O 179.704 1.22608 -1.50989 0
M  V30 1831 C 179.987 -1.93096 -3.0395 0
M  V30 1832 C 179.84 -3.46381 -2.8695 0
M  V30 1833 C 181.159 -1.73798 -4.0433 0
M  V30 1834 H 178.278 -0.416728 -0.607871 0
M  V30 1835 H 180.92 -1.56832 -1.07256 0
M  V30 1836 H 179.07 -1.56982 -3.55372 0
M  V30 1837 H 180.742 -3.92343 -2.42621 0
M  V30 1838 H 178.985 -3.72557 -2.22225 0
M  V30 1839 H 179.656 -3.96735 -3.83804 0
M  V30 1840 H 182.132 -2.05293 -3.61931 0
M  V30 1841 H 181.008 -2.31294 -4.97789 0
M  V30 1842 H 181.269 -0.686725 -4.36734 0
M  V30 1843 N 180.328 1.1314 -1.09713 0
M  V30 1844 C 181.291 2.16831 -0.742751 0
M  V30 1845 C 182.291 1.59159 0.229129 0
M  V30 1846 O 183.481 1.74199 0.00693237 0
M  V30 1847 C 180.613 3.40756 -0.0989168 0
M  V30 1848 H 181.806 2.49695 -1.66109 0
M  V30 1849 H 179.359 1.2802 -0.896699 0
M  V30 1850 H 180.094 3.13485 0.830514 0
M  V30 1851 H 179.879 3.83888 -0.798265 0
M  V30 1852 H 181.369 4.17386 0.133524 0
M  V30 1853 N 181.806 0.884767 1.30421 0
M  V30 1854 C 183.031 0.517288 2.00845 0
M  V30 1855 C 183.456 -0.886779 1.65885 0
M  V30 1856 O 182.814 -1.58768 0.875354 0
M  V30 1857 C 182.862 0.698994 3.5376 0
M  V30 1858 O 181.966 -0.255208 4.1161 0
M  V30 1859 H 181.307 0.203872 0.631927 0
M  V30 1860 H 183.837 1.19225 1.66272 0
M  V30 1861 H 183.847 0.597912 4.03595 0
M  V30 1862 H 182.522 1.72271 3.78544 0
M  V30 1863 H 181.099 -0.10784 3.72744 0
M  V30 1864 N 183.284 -1.43765 0.645699 0
M  V30 1865 C 184.7 -1.56509 0.312591 0
M  V30 1866 C 184.9 -1.6307 -1.18365 0
M  V30 1867 O 183.956 -1.58167 -1.96824 0
M  V30 1868 C 185.269 -2.82968 1.01733 0
M  V30 1869 C 186.817 -2.96701 0.996865 0
M  V30 1870 C 187.292 -4.25982 1.68236 0
M  V30 1871 N 188.783 -4.32829 1.64964 0
M  V30 1872 C 189.518 -5.31613 2.14885 0
M  V30 1873 N 189.014 -6.36718 2.73061 0
M  V30 1874 N 190.807 -5.23217 2.05428 0
M  V30 1875 H 182.958 -1.3775 1.61675 0
M  V30 1876 H 185.221 -0.661067 0.679481 0
M  V30 1877 H 184.927 -2.84156 2.0724 0
M  V30 1878 H 184.801 -3.72957 0.564177 0
M  V30 1879 H 187.188 -2.95058 -0.0497719 0
M  V30 1880 H 187.269 -2.08022 1.48865 0
M  V30 1881 H 186.913 -4.28386 2.72852 0
M  V30 1882 H 186.843 -5.13545 1.16529 0
M  V30 1883 H 189.334 -3.57493 1.22503 0
M  V30 1884 H 189.647 -7.08401 3.08848 0
M  V30 1885 H 187.992 -6.37362 2.77118 0
M  V30 1886 H 191.183 -4.40019 1.59689 0
M  V30 1887 H 191.356 -6.00045 2.44643 0
M  V30 1888 N 184.763 -0.387143 -1.52771 0
M  V30 1889 C 185.711 0.463953 -2.27926 0
M  V30 1890 C 186.705 1.06493 -1.31741 0
M  V30 1891 O 187.911 1.00565 -1.49287 0
M  V30 1892 H 184.286 0.16837 -0.732909 0
M  V30 1893 H 186.257 -0.19141 -2.97785 0
M  V30 1894 C 185.006 1.5803 -3.09713 0
M  V30 1895 H 184.329 1.12718 -3.83581 0
M  V30 1896 H 185.769 2.15008 -3.65442 0
M  V30 1897 C 184.228 2.53509 -2.2189 0
M  V30 1898 O 184.758 3.56863 -1.84422 0
M  V30 1899 N 182.964 2.23199 -1.86093 0
M  V30 1900 H 182.511 1.39185 -2.16761 0
M  V30 1901 H 182.469 2.87333 -1.27621 0
M  V30 1902 N 186.241 1.57166 -0.116904 0
M  V30 1903 C 187.49 1.94298 0.541407 0
M  V30 1904 C 187.803 1.00236 1.67964 0
M  V30 1905 O 189.009 1.26826 2.40057 0
M  V30 1906 C 187.465 3.45306 1.01449 0
M  V30 1907 C 187.073 4.47899 -0.0951738 0
M  V30 1908 C 188.817 3.91361 1.6443 0
M  V30 1909 C 186.724 5.90083 0.394491 0
M  V30 1910 H 185.654 0.725308 0.206019 0
M  V30 1911 H 188.305 1.82446 -0.196419 0
M  V30 1912 H 186.687 3.52385 1.80667 0
M  V30 1913 H 187.861 4.52486 -0.871374 0
M  V30 1914 H 186.176 4.11583 -0.631505 0
M  V30 1915 H 188.773 4.95004 2.02176 0
M  V30 1916 H 189.116 3.3122 2.52189 0
M  V30 1917 H 189.649 3.87073 0.917559 0
M  V30 1918 H 186.388 6.53974 -0.447004 0
M  V30 1919 H 185.908 5.88921 1.13722 0
M  V30 1920 H 187.587 6.41307 0.856399 0
M  V30 1921 N 187.719 -0.156864 1.56817 0
M  V30 1922 C 188.666 -1.19394 1.97519 0
M  V30 1923 C 189.636 -1.4322 0.841265 0
M  V30 1924 O 190.821 -1.55719 1.10255 0
M  V30 1925 C 187.961 -2.52483 2.35258 0
M  V30 1926 C 187.074 -2.35914 3.61896 0
M  V30 1927 C 186.209 -3.61969 3.88782 0
M  V30 1928 C 185.248 -3.40395 5.08722 0
M  V30 1929 N 184.385 -4.58556 5.31668 0
M  V30 1930 H 189.225 -0.839845 2.85921 0
M  V30 1931 H 186.762 -0.403264 1.41464 0
M  V30 1932 H 188.72 -3.30071 2.55165 0
M  V30 1933 H 187.35 -2.85859 1.49949 0
M  V30 1934 H 186.402 -1.49429 3.49821 0
M  V30 1935 H 187.714 -2.15926 4.49641 0
M  V30 1936 H 186.868 -4.47989 4.09135 0
M  V30 1937 H 185.607 -3.84951 2.9944 0
M  V30 1938 H 184.612 -2.52763 4.88253 0
M  V30 1939 H 185.837 -3.18822 5.99608 0
M  V30 1940 H 183.783 -4.81729 4.45279 0
M  V30 1941 H 183.7 -4.41535 6.13664 0
M  V30 1942 H 184.968 -5.45817 5.5651 0
M  V30 1943 N 189.197 -1.51736 -0.425897 0
M  V30 1944 C 190.443 -1.65214 -1.1761 0
M  V30 1945 C 190.776 -0.372778 -1.90589 0
M  V30 1946 O 190.051 0.628139 -1.84078 0
M  V30 1947 C 190.334 -2.86312 -2.18398 0
M  V30 1948 C 190.187 -4.24254 -1.49426 0
M  V30 1949 C 191.506 -3.02925 -3.19256 0
M  V30 1950 H 188.625 -0.601263 -0.426206 0
M  V30 1951 H 191.267 -1.8425 -0.463882 0
M  V30 1952 H 189.417 -2.70213 -2.79137 0
M  V30 1953 H 191.089 -4.52046 -0.919362 0
M  V30 1954 H 189.332 -4.26426 -0.796432 0
M  V30 1955 H 190.003 -5.05001 -2.22885 0
M  V30 1956 H 192.479 -3.1781 -2.68581 0
M  V30 1957 H 191.355 -3.89199 -3.8706 0
M  V30 1958 H 191.616 -2.15497 -3.86023 0
M  V30 1959 N 190.675 0.682077 -1.42076 0
M  V30 1960 C 191.605 1.80796 -1.47767 0
M  V30 1961 C 192.586 1.6677 -0.334954 0
M  V30 1962 O 193.771 1.863 -0.548264 0
M  V30 1963 C 190.901 3.19038 -1.37229 0
M  V30 1964 C 189.855 3.47789 -2.49453 0
M  V30 1965 C 189.181 4.8553 -2.23975 0
M  V30 1966 C 190.481 3.45411 -3.91776 0
M  V30 1967 H 192.175 1.7629 -2.41997 0
M  V30 1968 H 189.721 0.846721 -1.16476 0
M  V30 1969 H 191.674 3.97528 -1.39821 0
M  V30 1970 H 190.398 3.24204 -0.394907 0
M  V30 1971 H 189.057 2.71657 -2.46166 0
M  V30 1972 H 188.705 4.87337 -1.24547 0
M  V30 1973 H 188.405 5.0573 -2.99184 0
M  V30 1974 H 189.929 5.66312 -2.28304 0
M  V30 1975 H 191.343 4.13882 -3.96705 0
M  V30 1976 H 189.74 3.77145 -4.66778 0
M  V30 1977 H 190.81 2.44122 -4.18966 0
M  V30 1978 N 192.153 1.28127 0.917671 0
M  V30 1979 C 193.399 1.15223 1.66888 0
M  V30 1980 C 193.732 -0.299293 1.9188 0
M  V30 1981 O 193.007 -1.21805 1.51637 0
M  V30 1982 C 193.29 1.94706 3.02922 0
M  V30 1983 C 193.143 3.47898 2.85109 0
M  V30 1984 C 194.462 1.75939 4.03402 0
M  V30 1985 H 191.581 0.419946 0.605652 0
M  V30 1986 H 194.223 1.57398 1.06423 0
M  V30 1987 H 192.373 1.58864 3.54534 0
M  V30 1988 H 194.045 3.93624 2.40537 0
M  V30 1989 H 192.288 3.7373 2.20246 0
M  V30 1990 H 192.959 3.98765 3.81694 0
M  V30 1991 H 195.435 2.07209 3.60837 0
M  V30 1992 H 194.311 2.33931 4.96556 0
M  V30 1993 H 194.572 0.709877 4.36364 0
M  V30 1994 N 193.631 -1.12557 1.10312 0
M  V30 1995 C 194.877 -1.84311 0.846011 0
M  V30 1996 C 195.21 -1.83805 -0.626859 0
M  V30 1997 O 194.485 -1.28268 -1.46211 0
M  V30 1998 C 194.768 -3.32048 1.39341 0
M  V30 1999 C 194.621 -3.41016 2.93305 0
M  V30 2000 C 195.94 -4.27764 1.03468 0
M  V30 2001 H 193.059 -0.669192 0.30879 0
M  V30 2002 H 195.701 -1.32057 1.36605 0
M  V30 2003 H 193.851 -3.76678 0.951087 0
M  V30 2004 H 195.523 -3.05031 3.46055 0
M  V30 2005 H 193.766 -2.81603 3.29973 0
M  V30 2006 H 194.437 -4.44948 3.26689 0
M  V30 2007 H 196.913 -3.91253 1.41633 0
M  V30 2008 H 195.789 -5.29549 1.44463 0
M  V30 2009 H 196.05 -4.42064 -0.0560404 0
M  V30 2010 N 195.109 -0.891671 -1.2995 0
M  V30 2011 C 196.357 -0.512486 -1.95494 0
M  V30 2012 C 196.678 0.942776 -1.70695 0
M  V30 2013 O 195.948 1.66374 -1.03424 0
M  V30 2014 H 194.528 -0.186533 -0.723336 0
M  V30 2015 H 197.19 -1.13621 -1.58355 0
M  V30 2016 H 196.286 -0.688342 -3.04415 0
M  V30 2017 N 196.587 1.43421 -0.653314 0
M  V30 2018 C 197.535 2.32546 0.0501531 0
M  V30 2019 C 198.529 1.48617 0.812985 0
M  V30 2020 O 199.735 1.64825 0.723375 0
M  V30 2021 H 196.11 0.751185 0.0350032 0
M  V30 2022 H 198.081 2.89602 -0.719261 0
M  V30 2023 C 196.83 3.32925 1.00279 0
M  V30 2024 H 196.153 3.97532 0.425236 0
M  V30 2025 H 197.593 3.9792 1.46409 0
M  V30 2026 C 196.052 2.63532 2.09886 0
M  V30 2027 O 196.582 2.45092 3.18265 0
M  V30 2028 N 194.788 2.22905 1.86445 0
M  V30 2029 H 194.335 2.38103 0.98309 0
M  V30 2030 H 194.293 1.76805 2.59976 0
M  V30 2031 N 198.065 0.39524 1.52563 0
M  V30 2032 C 199.476 -0.0774719 1.86539 0
M  V30 2033 C 199.827 -1.45641 1.31466 0
M  V30 2034 O 198.952 -2.06459 0.648367 0
M  V30 2035 C 199.547 -0.147356 3.38479 0
M  V30 2036 C 198.106 -0.564373 3.72145 0
M  V30 2037 C 197.253 0.269919 2.75983 0
M  V30 2038 H 200.204 0.612876 1.46388 0
M  V30 2039 H 200.225 -0.965343 3.68051 0
M  V30 2040 H 199.737 0.856387 3.78534 0
M  V30 2041 H 197.838 -1.57527 3.37663 0
M  V30 2042 H 197.951 -0.318402 4.78041 0
M  V30 2043 H 196.315 -0.265696 2.5331 0
M  V30 2044 H 197.098 1.27175 3.18875 0
M  V30 2045 N 199.544 -1.57102 0.125237 0
M  V30 2046 C 200.507 -2.14471 -0.80838 0
M  V30 2047 C 201.507 -1.0811 -1.19033 0
M  V30 2048 O 202.697 -1.33856 -1.11482 0
M  V30 2049 C 199.829 -2.69005 -2.09402 0
M  V30 2050 H 201.022 -2.98297 -0.309696 0
M  V30 2051 H 198.575 -1.55807 -0.124051 0
M  V30 2052 H 199.31 -1.88785 -2.63687 0
M  V30 2053 H 199.095 -3.46799 -1.82957 0
M  V30 2054 H 200.585 -3.13278 -2.76128 0
M  V30 2055 N 201.022 0.148545 -1.56898 0
M  V30 2056 C 201.97 1.20265 -1.99096 0
M  V30 2057 C 202.964 1.44559 -0.883123 0
M  V30 2058 O 204.17 1.4487 -1.0683 0
M  V30 2059 H 200.545 0.404786 -0.63376 0
M  V30 2060 H 202.516 0.82004 -2.86911 0
M  V30 2061 C 201.265 2.52886 -2.3863 0
M  V30 2062 H 200.588 2.35021 -3.23427 0
M  V30 2063 H 202.028 3.25274 -2.7198 0
M  V30 2064 C 200.487 3.13315 -1.23837 0
M  V30 2065 O 201.017 3.98077 -0.538268 0
M  V30 2066 N 199.223 2.72742 -1.00301 0
M  V30 2067 H 198.77 2.03912 -1.5741 0
M  V30 2068 H 198.728 3.13507 -0.236838 0
M  V30 2069 N 202.5 1.5196 0.417844 0
M  V30 2070 C 203.728 1.69426 1.18753 0
M  V30 2071 C 204.143 0.399955 1.84515 0
M  V30 2072 O 203.5 -0.623288 1.71527 0
M  V30 2073 C 203.551 2.82375 2.25714 0
M  V30 2074 O 203.272 4.06793 1.62638 0
M  V30 2075 C 204.773 3.11277 3.15628 0
M  V30 2076 H 201.993 0.568031 0.357186 0
M  V30 2077 H 204.537 1.98475 0.49273 0
M  V30 2078 H 202.692 2.5587 2.90877 0
M  V30 2079 H 203.106 4.69667 2.3348 0
M  V30 2080 H 204.58 3.93843 3.86771 0
M  V30 2081 H 205.057 2.24473 3.77503 0
M  V30 2082 H 205.663 3.39515 2.56144 0
M  V30 2083 N 203.978 -0.674533 1.42435 0
M  V30 2084 C 204.926 -1.80934 1.46169 0
M  V30 2085 C 205.92 -1.66006 0.3374 0
M  V30 2086 O 207.126 -1.72611 0.510425 0
M  V30 2087 H 203.501 -0.596594 0.457798 0
M  V30 2088 H 205.472 -1.74903 2.41767 0
M  V30 2089 C 204.221 -3.19088 1.38123 0
M  V30 2090 H 203.544 -3.31203 2.23931 0
M  V30 2091 H 204.984 -3.9851 1.44797 0
M  V30 2092 C 203.443 -3.36763 0.0960517 0
M  V30 2093 O 203.973 -3.92581 -0.851073 0
M  V30 2094 N 202.179 -2.90597 0.0131186 0
M  V30 2095 H 201.726 -2.45359 0.784639 0
M  V30 2096 H 201.684 -3.028 -0.846133 0
M  V30 2097 N 205.456 -1.28612 -0.910864 0
M  V30 2098 C 206.419 -1.12803 -1.9952 0
M  V30 2099 C 207.419 -0.0668264 -1.60661 0
M  V30 2100 O 208.609 -0.312847 -1.71368 0
M  V30 2101 C 205.741 -0.72254 -3.33155 0
M  V30 2102 H 206.934 -2.09109 -2.14973 0
M  V30 2103 H 204.487 -1.11639 -1.09391 0
M  V30 2104 H 205.222 0.241152 -3.23402 0
M  V30 2105 H 205.007 -1.48916 -3.62721 0
M  V30 2106 H 206.497 -0.634666 -4.12749 0
M  V30 2107 N 206.934 1.1197 -1.10907 0
M  V30 2108 C 208.164 1.8713 -0.875553 0
M  V30 2109 C 208.572 1.8016 0.577843 0
M  V30 2110 O 207.915 1.17699 1.41042 0
M  V30 2111 C 207.977 3.37005 -1.2517 0
M  V30 2112 C 207.641 3.67748 -2.71313 0
M  V30 2113 C 208.638 3.65698 -3.69542 0
M  V30 2114 C 206.323 3.96928 -3.07821 0
M  V30 2115 C 208.317 3.92395 -5.023 0
M  V30 2116 C 206.004 4.23284 -4.40765 0
M  V30 2117 C 207.002 4.21005 -5.37814 0
M  V30 2118 O 206.69 4.46704 -6.68364 0
M  V30 2119 H 206.422 0.598786 -0.313737 0
M  V30 2120 H 208.976 1.42568 -1.47863 0
M  V30 2121 H 207.206 3.82146 -0.591741 0
M  V30 2122 H 208.895 3.93519 -0.994877 0
M  V30 2123 H 209.661 3.43211 -3.42682 0
M  V30 2124 H 205.54 3.97841 -2.32902 0
M  V30 2125 H 209.084 3.90531 -5.78041 0
M  V30 2126 H 204.981 4.45246 -4.67361 0
M  V30 2127 H 205.749 4.64299 -6.74069 0
M  V30 2128 N 208.412 0.89855 1.29475 0
M  V30 2129 C 209.661 0.519863 1.94885 0
M  V30 2130 C 209.974 -0.9383 1.71625 0
M  V30 2131 O 211.18 -1.42445 2.31131 0
M  V30 2132 C 209.636 0.878836 3.49005 0
M  V30 2133 C 209.244 2.35569 3.81066 0
M  V30 2134 C 210.988 0.570004 4.20656 0
M  V30 2135 C 208.895 2.65558 5.28425 0
M  V30 2136 H 207.825 0.190692 0.729488 0
M  V30 2137 H 210.476 1.09539 1.47219 0
M  V30 2138 H 208.858 0.232253 3.95318 0
M  V30 2139 H 210.032 3.04773 3.45616 0
M  V30 2140 H 208.347 2.63343 3.22552 0
M  V30 2141 H 210.944 0.770925 5.29113 0
M  V30 2142 H 211.287 -0.491404 4.1339 0
M  V30 2143 H 211.82 1.17438 3.8007 0
M  V30 2144 H 208.559 3.70493 5.40754 0
M  V30 2145 H 208.079 2.00977 5.65127 0
M  V30 2146 H 209.758 2.51765 5.96006 0
M  V30 2147 N 209.89 -1.43072 0.660911 0
M  V30 2148 C 210.853 -2.29194 -0.0166406 0
M  V30 2149 C 211.853 -1.42609 -0.742912 0
M  V30 2150 O 213.043 -1.64155 -0.583004 0
M  V30 2151 C 210.175 -3.24831 -1.0343 0
M  V30 2152 H 211.368 -2.90596 0.741208 0
M  V30 2153 H 208.921 -1.5048 0.422532 0
M  V30 2154 H 209.656 -2.68339 -1.82111 0
M  V30 2155 H 209.441 -3.88676 -0.517082 0
M  V30 2156 H 210.931 -3.89451 -1.50723 0
M  V30 2157 N 211.368 -0.403325 -1.52352 0
M  V30 2158 C 212.301 0.469463 -2.23319 0
M  V30 2159 C 213.279 1.05272 -1.23922 0
M  V30 2160 O 214.463 1.10169 -1.52954 0
M  V30 2161 C 211.59 1.6511 -2.9573 0
M  V30 2162 C 210.636 1.19178 -4.0951 0
M  V30 2163 S 211.469 0.161718 -5.35256 0
M  V30 2164 C 212.625 1.34882 -6.11194 0
M  V30 2165 H 212.858 -0.133134 -2.97002 0
M  V30 2166 H 210.391 -0.187588 -1.53256 0
M  V30 2167 H 212.349 2.3287 -3.38056 0
M  V30 2168 H 211.01 2.22503 -2.21701 0
M  V30 2169 H 210.203 2.07444 -4.59329 0
M  V30 2170 H 209.805 0.592911 -3.6927 0
M  V30 2171 H 212.097 2.27345 -6.38217 0
M  V30 2172 H 213.04 0.89128 -7.02468 0
M  V30 2173 H 213.448 1.57198 -5.42171 0
M  V30 2174 N 212.846 1.57033 -0.133567 0
M  V30 2175 C 213.793 2.16074 0.811208 0
M  V30 2176 C 214.763 1.08979 1.2535 0
M  V30 2177 O 215.948 1.36958 1.32843 0
M  V30 2178 C 213.088 2.77595 2.05024 0
M  V30 2179 C 212.201 3.99042 1.65498 0
M  V30 2180 C 211.336 4.48603 2.84479 0
M  V30 2181 C 210.375 5.62547 2.41262 0
M  V30 2182 N 209.512 6.06787 3.53206 0
M  V30 2183 H 214.352 2.96477 0.300906 0
M  V30 2184 H 211.889 1.46462 0.136822 0
M  V30 2185 H 213.847 3.11402 2.77642 0
M  V30 2186 H 212.477 1.99859 2.53488 0
M  V30 2187 H 211.529 3.71302 0.826981 0
M  V30 2188 H 212.841 4.81629 1.29748 0
M  V30 2189 H 211.995 4.84395 3.65303 0
M  V30 2190 H 210.734 3.64995 3.23465 0
M  V30 2191 H 209.739 5.26345 1.58874 0
M  V30 2192 H 210.964 6.47931 2.03377 0
M  V30 2193 H 208.91 5.26117 3.91838 0
M  V30 2194 H 208.827 6.84266 3.21427 0
M  V30 2195 H 210.095 6.4722 4.34427 0
M  V30 2196 N 214.325 -0.140222 1.56975 0
M  V30 2197 C 215.55 -0.870414 1.88251 0
M  V30 2198 C 215.975 -1.73637 0.723312 0
M  V30 2199 O 215.333 -1.78329 -0.32689 0
M  V30 2200 C 215.381 -1.69737 3.18154 0
M  V30 2201 O 214.485 -2.80229 3.02565 0
M  V30 2202 H 213.826 -0.242025 0.61832 0
M  V30 2203 H 216.356 -0.128999 2.04193 0
M  V30 2204 H 216.366 -2.09099 3.50345 0
M  V30 2205 H 215.041 -1.06152 4.02125 0
M  V30 2206 H 213.618 -2.44224 2.81796 0
M  V30 2207 N 215.803 -1.52179 -0.40978 0
M  V30 2208 C 216.766 -1.74853 -1.48186 0
M  V30 2209 C 217.766 -0.618417 -1.48433 0
M  V30 2210 O 218.956 -0.886286 -1.49969 0
M  V30 2211 C 216.088 -1.8303 -2.87598 0
M  V30 2212 H 217.281 -2.70559 -1.29374 0
M  V30 2213 H 214.834 -1.42586 -0.640233 0
M  V30 2214 H 215.569 -0.89236 -3.11781 0
M  V30 2215 H 215.354 -2.65187 -2.88822 0
M  V30 2216 H 216.844 -2.02316 -3.65319 0
M  V30 2217 N 217.281 0.66697 -1.42791 0
M  V30 2218 C 218.692 1.2478 -1.38877 0
M  V30 2219 C 219.043 1.96012 -0.0859426 0
M  V30 2220 O 218.168 2.00463 0.815081 0
M  V30 2221 C 218.763 2.26938 -2.51564 0
M  V30 2222 C 217.322 2.80529 -2.50959 0
M  V30 2223 C 216.469 1.54965 -2.29959 0
M  V30 2224 H 219.42 0.459853 -1.51892 0
M  V30 2225 H 219.441 3.08834 -2.22265 0
M  V30 2226 H 218.953 1.75065 -3.46372 0
M  V30 2227 H 217.054 3.36502 -1.59991 0
M  V30 2228 H 217.167 3.29012 -3.48265 0
M  V30 2229 H 215.531 1.81817 -1.78366 0
M  V30 2230 H 216.314 1.05047 -3.26833 0
M  V30 2231 N 218.759 1.29093 0.90403 0
M  V30 2232 C 219.984 1.19809 1.69294 0
M  V30 2233 C 220.409 -0.238481 1.86582 0
M  V30 2234 O 219.767 -1.1723 1.383 0
M  V30 2235 C 219.815 1.91202 3.05736 0
M  V30 2236 O 218.919 1.22611 3.93752 0
M  V30 2237 H 218.26 0.415385 0.518027 0
M  V30 2238 H 220.79 1.70586 1.12967 0
M  V30 2239 H 220.8 1.99487 3.55906 0
M  V30 2240 H 219.475 2.95692 2.92471 0
M  V30 2241 H 218.052 1.22554 3.52186 0
M  V30 2242 N 220.237 -1.11381 1.11499 0
M  V30 2243 C 221.167 -2.19509 0.796125 0
M  V30 2244 C 222.148 -1.68458 -0.235796 0
M  V30 2245 O 223.333 -1.93947 -0.0991344 0
M  V30 2246 C 220.463 -3.46475 0.239205 0
M  V30 2247 C 219.417 -4.10744 1.20307 0
M  V30 2248 C 218.743 -5.32293 0.50683 0
M  V30 2249 C 220.043 -4.55597 2.55399 0
M  V30 2250 H 221.737 -2.46439 1.70024 0
M  V30 2251 H 219.283 -1.18446 0.818935 0
M  V30 2252 H 221.236 -4.214 0.00392006 0
M  V30 2253 H 219.96 -3.19006 -0.700206 0
M  V30 2254 H 218.619 -3.37813 1.42399 0
M  V30 2255 H 218.267 -5.01095 -0.437408 0
M  V30 2256 H 217.967 -5.76243 1.1497 0
M  V30 2257 H 219.491 -6.09956 0.280351 0
M  V30 2258 H 220.905 -5.21841 2.37391 0
M  V30 2259 H 219.302 -5.10363 3.15673 0
M  V30 2260 H 220.372 -3.69013 3.14575 0
M  V30 2261 N 221.715 -0.905404 -1.28997 0
M  V30 2262 C 223.126 -0.581953 -1.77398 0
M  V30 2263 C 223.477 0.902552 -1.74208 0
M  V30 2264 O 222.602 1.70584 -1.33154 0
M  V30 2265 C 223.197 -1.04961 -3.22131 0
M  V30 2266 C 221.756 -0.777229 -3.68288 0
M  V30 2267 C 220.903 -1.22109 -2.48967 0
M  V30 2268 H 223.854 -1.08754 -1.15578 0
M  V30 2269 H 223.875 -0.387387 -3.78523 0
M  V30 2270 H 223.387 -2.13008 -3.24421 0
M  V30 2271 H 221.488 0.290383 -3.71467 0
M  V30 2272 H 221.601 -1.37911 -4.58822 0
M  V30 2273 H 219.965 -0.639971 -2.46529 0
M  V30 2274 H 220.748 -2.30972 -2.53982 0
M  V30 2275 N 223.193 1.4272 -0.668489 0
M  V30 2276 C 224.156 2.292 0.00448567 0
M  V30 2277 C 225.156 1.43001 0.735339 0
M  V30 2278 O 226.346 1.64461 0.57429 0
M  V30 2279 C 223.478 3.25375 1.01705 0
M  V30 2280 H 224.671 2.90199 -0.756608 0
M  V30 2281 H 222.224 1.50254 -0.430506 0
M  V30 2282 H 222.959 2.69301 1.80686 0
M  V30 2283 H 222.744 3.88944 0.496463 0
M  V30 2284 H 224.234 3.90245 1.48655 0
M  V30 2285 N 224.671 0.411399 1.52136 0
M  V30 2286 C 225.618 -0.412975 2.27075 0
M  V30 2287 C 226.588 -1.03912 1.29582 0
M  V30 2288 O 227.773 -1.06296 1.58448 0
M  V30 2289 C 224.913 -1.52247 3.09701 0
M  V30 2290 C 224.026 -0.917021 4.22155 0
M  V30 2291 C 223.161 -1.9994 4.92135 0
M  V30 2292 C 222.2 -1.37101 5.96548 0
M  V30 2293 N 221.337 -2.39364 6.60038 0
M  V30 2294 H 226.177 0.232499 2.97092 0
M  V30 2295 H 223.714 0.126496 1.46555 0
M  V30 2296 H 225.672 -2.17674 3.55913 0
M  V30 2297 H 224.302 -2.13794 2.41851 0
M  V30 2298 H 223.354 -0.151742 3.80097 0
M  V30 2299 H 224.666 -0.418006 4.97045 0
M  V30 2300 H 223.82 -2.73088 5.41763 0
M  V30 2301 H 222.559 -2.53208 4.16818 0
M  V30 2302 H 221.564 -0.624873 5.46237 0
M  V30 2303 H 222.789 -0.845998 6.7381 0
M  V30 2304 H 220.735 -2.91759 5.87548 0
M  V30 2305 H 220.652 -1.9428 7.3061 0
M  V30 2306 H 221.92 -3.12074 7.14304 0
M  V30 2307 N 226.149 -1.5696 0.141893 0
M  V30 2308 C 227.097 -2.17784 -0.816874 0
M  V30 2309 C 228.091 -1.1334 -1.25899 0
M  V30 2310 O 229.297 -1.316 -1.22806 0
M  V30 2311 H 225.672 -0.697278 -0.281615 0
M  V30 2312 H 227.643 -2.97087 -0.279621 0
M  V30 2313 C 226.392 -2.80983 -2.04802 0
M  V30 2314 H 225.715 -3.61062 -1.7168 0
M  V30 2315 H 227.155 -3.2705 -2.69841 0
M  V30 2316 C 225.614 -1.79228 -2.8527 0
M  V30 2317 O 226.144 -1.25962 -3.8144 0
M  V30 2318 N 224.35 -1.48647 -2.49704 0
M  V30 2319 H 223.897 -1.92155 -1.71564 0
M  V30 2320 H 223.855 -0.808115 -3.03837 0
M  V30 2321 N 227.627 0.131896 -1.57047 0
M  V30 2322 C 228.874 0.841932 -1.84168 0
M  V30 2323 C 229.202 1.8048 -0.725066 0
M  V30 2324 O 228.457 1.93618 0.284692 0
M  V30 2325 C 228.756 1.63703 -3.17704 0
M  V30 2326 C 228.422 0.81961 -4.43388 0
M  V30 2327 C 227.084 0.594148 -4.77518 0
M  V30 2328 C 229.436 0.248977 -5.20605 0
M  V30 2329 C 226.764 -0.212409 -5.86315 0
M  V30 2330 C 229.116 -0.544701 -6.30251 0
M  V30 2331 C 227.78 -0.780599 -6.6292 0
M  V30 2332 H 227.05 0.308085 -0.673917 0
M  V30 2333 H 229.697 0.104867 -1.91213 0
M  V30 2334 H 228.002 2.44464 -3.06177 0
M  V30 2335 H 229.699 2.19015 -3.35907 0
M  V30 2336 H 226.289 1.00542 -4.16641 0
M  V30 2337 H 230.473 0.410408 -4.946 0
M  V30 2338 H 225.729 -0.404524 -6.1006 0
M  V30 2339 H 229.903 -0.993922 -6.89271 0
M  V30 2340 H 227.53 -1.40742 -7.47058 0
M  V30 2341 N 229.106 1.52395 0.401703 0
M  V30 2342 C 230.334 1.70676 1.16949 0
M  V30 2343 C 230.749 0.419503 1.8408 0
M  V30 2344 O 230.106 -0.605061 1.72178 0
M  V30 2345 C 230.157 2.84753 2.22706 0
M  V30 2346 O 229.878 4.08495 1.58314 0
M  V30 2347 C 231.379 3.14608 3.12309 0
M  V30 2348 H 228.599 0.571787 0.351142 0
M  V30 2349 H 231.143 1.98987 0.471652 0
M  V30 2350 H 229.298 2.58941 2.88147 0
M  V30 2351 H 229.712 4.72117 2.28485 0
M  V30 2352 H 231.186 3.97923 3.82572 0
M  V30 2353 H 231.663 2.28464 3.75101 0
M  V30 2354 H 232.269 3.42212 2.52529 0
M  V30 2355 N 230.584 -0.659388 1.43143 0
M  V30 2356 C 231.547 -1.75432 1.47501 0
M  V30 2357 C 232.547 -1.56707 0.360512 0
M  V30 2358 O 233.737 -1.62717 0.622002 0
M  V30 2359 C 230.869 -3.14239 1.32162 0
M  V30 2360 H 232.062 -1.7295 2.45006 0
M  V30 2361 H 229.615 -0.870469 1.29817 0
M  V30 2362 H 230.35 -3.22336 0.356401 0
M  V30 2363 H 230.135 -3.29235 2.12948 0
M  V30 2364 H 231.625 -3.94094 1.3813 0
M  V30 2365 N 232.062 -1.29571 -0.897171 0
M  V30 2366 C 232.995 -1.0924 -2.00354 0
M  V30 2367 C 233.973 -0.00354011 -1.626 0
M  V30 2368 O 235.157 -0.15473 -1.87864 0
M  V30 2369 C 232.284 -0.66352 -3.32137 0
M  V30 2370 C 231.33 -1.75146 -3.88878 0
M  V30 2371 S 232.163 -3.35124 -4.17674 0
M  V30 2372 C 233.319 -2.9411 -5.52494 0
M  V30 2373 H 233.552 -2.02907 -2.17292 0
M  V30 2374 H 231.085 -1.13746 -1.04408 0
M  V30 2375 H 233.043 -0.422791 -4.08317 0
M  V30 2376 H 231.704 0.253588 -3.13075 0
M  V30 2377 H 230.897 -1.40337 -4.84068 0
M  V30 2378 H 230.499 -1.94584 -3.19395 0
M  V30 2379 H 232.791 -2.41312 -6.33068 0
M  V30 2380 H 233.734 -3.88161 -5.9223 0
M  V30 2381 H 234.142 -2.32332 -5.14473 0
M  V30 2382 N 233.54 1.10788 -1.12088 0
M  V30 2383 C 234.47 2.19083 -0.807755 0
M  V30 2384 C 235.451 1.6858 0.226859 0
M  V30 2385 O 236.636 1.93997 0.0888475 0
M  V30 2386 C 233.766 3.46344 -0.257576 0
M  V30 2387 C 232.72 4.101 -1.22483 0
M  V30 2388 C 232.046 5.32016 -0.535052 0
M  V30 2389 C 233.346 4.54236 -2.57811 0
M  V30 2390 H 235.04 2.45534 -1.71328 0
M  V30 2391 H 232.586 1.1801 -0.825205 0
M  V30 2392 H 234.539 4.21392 -0.0262679 0
M  V30 2393 H 233.263 3.19373 0.683278 0
M  V30 2394 H 231.922 3.37054 -1.44189 0
M  V30 2395 H 231.57 5.01319 0.410827 0
M  V30 2396 H 231.27 5.75625 -1.18024 0
M  V30 2397 H 232.794 6.09799 -0.312695 0
M  V30 2398 H 234.208 5.20575 -2.40155 0
M  V30 2399 H 232.605 5.08682 -3.18375 0
M  V30 2400 H 233.675 3.6734 -3.16528 0
M  V30 2401 N 235.018 0.912232 1.28515 0
M  V30 2402 C 236.434 0.610159 1.47476 0
M  V30 2403 C 236.634 -0.844955 1.82928 0
M  V30 2404 O 235.69 -1.62416 1.93332 0
M  V30 2405 C 237.003 1.54675 2.57868 0
M  V30 2406 C 238.551 1.55331 2.71738 0
M  V30 2407 C 239.026 2.47649 3.85272 0
M  V30 2408 N 240.517 2.45767 3.92623 0
M  V30 2409 C 241.252 3.13896 4.79851 0
M  V30 2410 N 240.748 3.9135 5.71679 0
M  V30 2411 N 242.541 3.02991 4.73448 0
M  V30 2412 H 234.692 1.85318 1.03783 0
M  V30 2413 H 236.955 0.794777 0.516753 0
M  V30 2414 H 236.661 2.5841 2.38574 0
M  V30 2415 H 236.535 1.27671 3.54937 0
M  V30 2416 H 238.922 0.52335 2.90422 0
M  V30 2417 H 239.003 1.86378 1.75205 0
M  V30 2418 H 238.647 3.50745 3.67342 0
M  V30 2419 H 238.577 2.13904 4.81199 0
M  V30 2420 H 241.068 1.89503 3.26951 0
M  V30 2421 H 241.381 4.40359 6.35062 0
M  V30 2422 H 239.726 3.95455 5.71524 0
M  V30 2423 H 242.917 2.41987 4.007 0
M  V30 2424 H 243.09 3.5636 5.41213 0
M  V30 2425 N 236.496 -1.42363 0.676048 0
M  V30 2426 C 237.426 -2.33497 0.0124832 0
M  V30 2427 C 238.407 -1.50748 -0.787981 0
M  V30 2428 O 239.592 -1.79346 -0.744884 0
M  V30 2429 C 236.722 -3.34377 -0.938582 0
M  V30 2430 C 235.676 -4.27289 -0.246622 0
M  V30 2431 C 235.002 -5.18386 -1.31071 0
M  V30 2432 C 236.302 -5.14916 0.875125 0
M  V30 2433 H 237.996 -2.89233 0.773593 0
M  V30 2434 H 235.542 -1.39073 0.37346 0
M  V30 2435 H 237.495 -3.97044 -1.41188 0
M  V30 2436 H 236.219 -2.76947 -1.73113 0
M  V30 2437 H 234.878 -3.66018 0.206456 0
M  V30 2438 H 234.526 -4.57282 -2.09528 0
M  V30 2439 H 234.226 -5.81378 -0.852839 0
M  V30 2440 H 235.75 -5.83929 -1.78492 0
M  V30 2441 H 237.164 -5.71262 0.482983 0
M  V30 2442 H 235.561 -5.86747 1.25887 0
M  V30 2443 H 236.631 -4.53242 1.72335 0
M  V30 2444 N 237.974 -0.419461 -1.51915 0
M  V30 2445 C 239.251 0.211999 -1.94448 0
M  V30 2446 C 239.631 1.61703 -1.35703 0
M  V30 2447 O 238.979 2.22102 -0.536931 0
M  V30 2448 C 239.189 0.207872 -3.4838 0
M  V30 2449 C 240.537 0.422192 -4.22496 0
M  V30 2450 O 241.561 0.286778 -3.55044 0
M  V30 2451 O 240.42 0.690009 -5.42126 0
M  V30 2452 H 237.514 0.139586 -0.815135 0
M  V30 2453 H 240.06 -0.476151 -1.62883 0
M  V30 2454 H 238.832 -0.775102 -3.83546 0
M  V30 2455 H 238.455 0.939688 -3.86336 0
M  V30 2456 N 239.452 1.56882 -0.150215 0
M  V30 2457 C 240.402 2.13501 0.800071 0
M  V30 2458 C 241.386 1.06368 1.20726 0
M  V30 2459 O 242.578 1.32538 1.17314 0
M  V30 2460 C 239.707 2.76271 2.03787 0
M  V30 2461 C 238.793 3.90533 1.65364 0
M  V30 2462 N 239.184 4.96259 0.977794 0
M  V30 2463 C 237.482 4.013 1.94613 0
M  V30 2464 C 238.183 5.76286 0.791794 0
M  V30 2465 N 237.159 5.27163 1.32666 0
M  V30 2466 H 240.961 2.92615 0.274517 0
M  V30 2467 H 238.475 1.62319 0.0512144 0
M  V30 2468 H 240.472 3.15197 2.72867 0
M  V30 2469 H 239.132 1.98631 2.56857 0
M  V30 2470 H 240.143 5.13953 0.638193 0
M  V30 2471 H 236.82 3.3474 2.4951 0
M  V30 2472 H 238.21 6.71401 0.258894 0
M  V30 2473 N 240.93 -0.123565 1.57115 0
M  V30 2474 C 241.878 -1.17082 2.00984 0
M  V30 2475 C 242.872 -1.43136 0.906009 0
M  V30 2476 O 244.078 -1.43152 1.09121 0
M  V30 2477 H 240.453 -0.394653 0.64012 0
M  V30 2478 H 242.424 -0.774292 2.88179 0
M  V30 2479 C 241.173 -2.49057 2.42623 0
M  V30 2480 H 240.496 -2.29846 3.27125 0
M  V30 2481 H 241.936 -3.20906 2.7712 0
M  V30 2482 C 240.395 -3.11305 1.28805 0
M  V30 2483 O 240.925 -3.97171 0.60153 0
M  V30 2484 N 239.131 -2.71111 1.04628 0
M  V30 2485 H 238.678 -2.01382 1.60634 0
M  V30 2486 H 238.636 -3.1309 0.286685 0
M  V30 2487 N 242.408 -1.52605 -0.393616 0
M  V30 2488 C 243.824 -1.41753 -0.733357 0
M  V30 2489 C 244.024 -0.534293 -1.94287 0
M  V30 2490 O 243.08 -0.0059787 -2.52499 0
M  V30 2491 C 244.393 -2.84531 -0.972772 0
M  V30 2492 C 245.941 -2.93978 -1.07453 0
M  V30 2493 C 246.416 -4.37756 -1.3466 0
M  V30 2494 N 247.907 -4.4106 -1.41492 0
M  V30 2495 C 248.642 -5.49387 -1.642 0
M  V30 2496 N 248.138 -6.67806 -1.8441 0
M  V30 2497 N 249.931 -5.36923 -1.66342 0
M  V30 2498 H 242.082 -2.08555 0.402328 0
M  V30 2499 H 244.345 -0.940654 0.117789 0
M  V30 2500 H 244.051 -3.51353 -0.156204 0
M  V30 2501 H 243.925 -3.26508 -1.88871 0
M  V30 2502 H 246.312 -2.27326 -1.88167 0
M  V30 2503 H 246.393 -2.55435 -0.136605 0
M  V30 2504 H 246.037 -5.04972 -0.544581 0
M  V30 2505 H 245.967 -4.73848 -2.2973 0
M  V30 2506 H 248.458 -3.55705 -1.27601 0
M  V30 2507 H 248.771 -7.46141 -2.01231 0
M  V30 2508 H 247.116 -6.70843 -1.81644 0
M  V30 2509 H 250.307 -4.43381 -1.50102 0
M  V30 2510 H 250.48 -6.21416 -1.837 0
M  V30 2511 N 243.887 0.651787 -1.4349 0
M  V30 2512 C 244.85 1.74647 -1.48429 0
M  V30 2513 C 245.85 1.56513 -0.368817 0
M  V30 2514 O 247.04 1.62385 -0.630623 0
M  V30 2515 C 244.172 3.13533 -1.33827 0
M  V30 2516 H 245.365 1.71649 -2.4592 0
M  V30 2517 H 242.918 0.863573 -1.30277 0
M  V30 2518 H 243.653 3.22142 -0.37349 0
M  V30 2519 H 243.438 3.28101 -2.14691 0
M  V30 2520 H 244.928 3.93356 -1.40218 0
M  V30 2521 N 245.365 1.30045 0.890287 0
M  V30 2522 C 246.295 1.18541 2.01172 0
M  V30 2523 C 247.276 0.0773356 1.69924 0
M  V30 2524 O 248.461 0.25845 1.92473 0
M  V30 2525 C 245.591 0.870941 3.36202 0
M  V30 2526 C 244.545 1.93637 3.81692 0
M  V30 2527 C 243.871 1.475 5.13953 0
M  V30 2528 C 245.171 3.34666 4.00994 0
M  V30 2529 H 246.865 2.12359 2.11054 0
M  V30 2530 H 244.411 1.02238 1.01407 0
M  V30 2531 H 246.364 0.777141 4.14172 0
M  V30 2532 H 245.088 -0.102926 3.26438 0
M  V30 2533 H 243.747 2.01972 3.05946 0
M  V30 2534 H 243.395 0.489551 5.00612 0
M  V30 2535 H 243.095 2.1876 5.4536 0
M  V30 2536 H 244.619 1.39489 5.94454 0
M  V30 2537 H 246.033 3.2912 4.69417 0
M  V30 2538 H 244.43 4.03966 4.43769 0
M  V30 2539 H 245.5 3.76949 3.05021 0
M  V30 2540 N 246.843 -1.10192 1.12674 0
M  V30 2541 C 248.068 -1.86523 0.906853 0
M  V30 2542 C 248.493 -1.80221 -0.538711 0
M  V30 2543 O 247.851 -1.17396 -1.38158 0
M  V30 2544 C 247.899 -3.32758 1.3894 0
M  V30 2545 O 247.003 -4.08449 0.5695 0
M  V30 2546 H 246.344 -0.578678 0.325619 0
M  V30 2547 H 248.874 -1.39203 1.49946 0
M  V30 2548 H 248.884 -3.83608 1.38958 0
M  V30 2549 H 247.559 -3.36661 2.44197 0
M  V30 2550 H 246.136 -3.67427 0.636528 0
M  V30 2551 N 248.321 -0.919034 -1.28029 0
M  V30 2552 C 249.253 -0.368762 -2.26214 0
M  V30 2553 C 250.266 0.495716 -1.55069 0
M  V30 2554 O 251.455 0.30974 -1.75792 0
M  V30 2555 C 248.555 0.491049 -3.35324 0
M  V30 2556 C 247.728 -0.352133 -4.3598 0
M  V30 2557 C 246.787 0.443622 -5.24327 0
M  V30 2558 O 245.813 -0.14566 -5.69014 0
M  V30 2559 N 247.015 1.74545 -5.53637 0
M  V30 2560 H 249.78 -1.21273 -2.74068 0
M  V30 2561 H 247.341 -0.785541 -1.41566 0
M  V30 2562 H 249.333 1.03026 -3.91366 0
M  V30 2563 H 247.903 1.23574 -2.87138 0
M  V30 2564 H 247.123 -1.07269 -3.79324 0
M  V30 2565 H 248.411 -0.928883 -5.00249 0
M  V30 2566 H 247.809 2.24666 -5.19174 0
M  V30 2567 H 246.366 2.23138 -6.12416 0
M  V30 2568 N 249.799 1.42003 -0.683588 0
M  V30 2569 C 251.048 2.00638 -0.206681 0
M  V30 2570 C 251.361 1.5472 1.19671 0
M  V30 2571 O 252.567 2.05833 1.77045 0
M  V30 2572 C 251.023 3.58487 -0.318632 0
M  V30 2573 C 250.631 4.1339 -1.72663 0
M  V30 2574 C 252.375 4.24384 0.0991141 0
M  V30 2575 C 250.282 5.63633 -1.79087 0
M  V30 2576 H 249.212 0.750408 -0.0735107 0
M  V30 2577 H 251.863 1.62624 -0.850048 0
M  V30 2578 H 250.245 3.94047 0.392781 0
M  V30 2579 H 251.419 3.89273 -2.46583 0
M  V30 2580 H 249.734 3.59976 -2.09299 0
M  V30 2581 H 252.331 5.34652 0.0713833 0
M  V30 2582 H 252.674 4.00505 1.13586 0
M  V30 2583 H 253.207 3.93816 -0.561599 0
M  V30 2584 H 249.946 5.92323 -2.80774 0
M  V30 2585 H 249.466 5.89714 -1.09535 0
M  V30 2586 H 251.145 6.28201 -1.5483 0
M  V30 2587 N 251.277 0.427512 1.51691 0
M  V30 2588 C 252.24 -0.377132 2.26076 0
M  V30 2589 C 253.24 -0.958089 1.29141 0
M  V30 2590 O 254.43 -0.83408 1.52934 0
M  V30 2591 C 251.562 -1.53262 3.04506 0
M  V30 2592 H 252.755 0.27464 2.9864 0
M  V30 2593 H 250.308 0.180445 1.55255 0
M  V30 2594 H 251.043 -2.22072 2.36335 0
M  V30 2595 H 250.828 -1.12232 3.75694 0
M  V30 2596 H 252.318 -2.10135 3.60878 0
M  V30 2597 N 252.755 -1.56801 0.158532 0
M  V30 2598 C 253.718 -2.16138 -0.762705 0
M  V30 2599 C 254.718 -1.1061 -1.16713 0
M  V30 2600 O 255.908 -1.36191 -1.08617 0
M  V30 2601 C 253.04 -2.73386 -2.03649 0
M  V30 2602 H 254.233 -2.98886 -0.246354 0
M  V30 2603 H 251.786 -1.56035 -0.0909744 0
M  V30 2604 H 252.521 -1.94335 -2.59623 0
M  V30 2605 H 252.306 -3.50601 -1.75559 0
M  V30 2606 H 253.796 -3.19065 -2.6942 0
M  V30 2607 N 254.233 0.115231 -1.57178 0
M  V30 2608 C 255.18 1.14115 -2.00615 0
M  V30 2609 C 256.15 1.40939 -0.878941 0
M  V30 2610 O 257.335 1.52741 -1.14345 0
M  V30 2611 C 254.475 2.46156 -2.4187 0
M  V30 2612 C 253.588 2.26236 -3.68024 0
M  V30 2613 C 252.723 3.51534 -3.98243 0
M  V30 2614 C 251.762 3.26787 -5.17568 0
M  V30 2615 N 250.899 4.44298 -5.43639 0
M  V30 2616 H 255.739 0.763743 -2.88047 0
M  V30 2617 H 253.276 0.365615 -1.42484 0
M  V30 2618 H 255.234 3.23189 -2.63827 0
M  V30 2619 H 253.864 2.81783 -1.57475 0
M  V30 2620 H 252.916 1.40102 -3.5366 0
M  V30 2621 H 254.228 2.03929 -4.55208 0
M  V30 2622 H 253.382 4.36984 -4.20868 0
M  V30 2623 H 252.121 3.76876 -3.09541 0
M  V30 2624 H 251.126 2.39729 -4.94783 0
M  V30 2625 H 252.351 3.02812 -6.0785 0
M  V30 2626 H 250.297 4.69754 -4.57895 0
M  V30 2627 H 250.214 4.25109 -6.25154 0
M  V30 2628 H 251.482 5.3087 -5.70786 0
M  V30 2629 N 255.711 1.52812 0.385517 0
M  V30 2630 C 256.939 1.71907 1.15133 0
M  V30 2631 C 257.354 0.439004 1.83625 0
M  V30 2632 O 256.711 -0.586765 1.7281 0
M  V30 2633 C 256.762 2.87099 2.19673 0
M  V30 2634 O 256.483 4.10151 1.53973 0
M  V30 2635 C 257.984 3.17902 3.08955 0
M  V30 2636 H 255.204 0.575479 0.345057 0
M  V30 2637 H 257.748 1.99476 0.45052 0
M  V30 2638 H 255.903 2.61982 2.85384 0
M  V30 2639 H 256.317 4.74514 2.23465 0
M  V30 2640 H 257.791 4.01959 3.7833 0
M  V30 2641 H 258.268 2.3243 3.72657 0
M  V30 2642 H 258.874 3.44871 2.48885 0
M  V30 2643 N 257.189 -0.644168 1.43834 0
M  V30 2644 C 258.437 -1.40117 1.45642 0
M  V30 2645 C 258.758 -1.94814 0.0852413 0
M  V30 2646 O 258.028 -1.74988 -0.880688 0
M  V30 2647 H 256.608 -0.52005 0.536243 0
M  V30 2648 H 259.27 -0.7591 1.7951 0
M  V30 2649 H 258.366 -2.23902 2.17427 0
M  V30 2650 N 258.668 -1.30515 -0.883378 0
M  V30 2651 C 259.615 -1.17032 -1.98927 0
M  V30 2652 C 260.585 -0.0594241 -1.65994 0
M  V30 2653 O 261.77 -0.229895 -1.8941 0
M  V30 2654 C 258.91 -0.869777 -3.33959 0
M  V30 2655 C 258.023 -2.06271 -3.79574 0
M  V30 2656 C 257.158 -1.70011 -5.03259 0
M  V30 2657 C 256.197 -2.8579 -5.41286 0
M  V30 2658 N 255.334 -2.49816 -6.56153 0
M  V30 2659 H 260.174 -2.1164 -2.09792 0
M  V30 2660 H 257.711 -1.05296 -1.02719 0
M  V30 2661 H 259.669 -0.676138 -4.11685 0
M  V30 2662 H 258.299 0.0394332 -3.22776 0
M  V30 2663 H 257.351 -2.36755 -2.97744 0
M  V30 2664 H 258.663 -2.92971 -4.03694 0
M  V30 2665 H 257.817 -1.47032 -5.88614 0
M  V30 2666 H 256.556 -0.804829 -4.81013 0
M  V30 2667 H 255.561 -3.09434 -4.54456 0
M  V30 2668 H 256.786 -3.76008 -5.65504 0
M  V30 2669 H 254.732 -1.62795 -6.35479 0
M  V30 2670 H 254.649 -3.30048 -6.8015 0
M  V30 2671 H 255.917 -2.30197 -7.44735 0
M  V30 2672 N 260.146 1.09593 -1.13257 0
M  V30 2673 C 261.557 1.63229 -0.906274 0
M  V30 2674 C 261.908 1.8811 0.557578 0
M  V30 2675 O 261.033 1.62953 1.42391 0
M  V30 2676 C 261.628 2.96535 -1.63867 0
M  V30 2677 C 260.187 3.47003 -1.45828 0
M  V30 2678 C 259.334 2.2145 -1.66898 0
M  V30 2679 H 262.285 0.92978 -1.28611 0
M  V30 2680 H 262.306 3.64411 -1.09476 0
M  V30 2681 H 261.818 2.78394 -2.70404 0
M  V30 2682 H 259.919 3.70272 -0.415848 0
M  V30 2683 H 260.032 4.24551 -2.2202 0
M  V30 2684 H 258.396 2.30022 -1.09371 0
M  V30 2685 H 259.179 2.0583 -2.74752 0
M  V30 2686 N 261.624 0.925811 1.2754 0
M  V30 2687 C 262.87 0.566092 1.94739 0
M  V30 2688 C 263.203 -0.890057 1.72603 0
M  V30 2689 O 262.478 -1.63467 1.05399 0
M  V30 2690 C 262.761 0.89054 3.48915 0
M  V30 2691 C 262.614 2.4003 3.80402 0
M  V30 2692 C 263.933 0.395101 4.38323 0
M  V30 2693 H 261.052 0.20714 0.707292 0
M  V30 2694 H 263.694 1.15725 1.50691 0
M  V30 2695 H 261.844 0.387452 3.86563 0
M  V30 2696 H 263.516 2.97494 3.52555 0
M  V30 2697 H 261.759 2.85028 3.2702 0
M  V30 2698 H 262.43 2.57785 4.8811 0
M  V30 2699 H 264.906 0.826241 4.07814 0
M  V30 2700 H 263.782 0.651086 5.45025 0
M  V30 2701 H 264.043 -0.704798 4.36446 0
M  V30 2702 N 263.102 -1.41638 0.69111 0
M  V30 2703 C 264.327 -2.06148 0.227583 0
M  V30 2704 C 264.752 -1.51652 -1.11281 0
M  V30 2705 O 264.11 -0.64164 -1.69566 0
M  V30 2706 C 264.158 -3.60095 0.190858 0
M  V30 2707 O 263.262 -4.03845 -0.835664 0
M  V30 2708 H 262.603 -0.654434 0.112306 0
M  V30 2709 H 265.133 -1.81484 0.944714 0
M  V30 2710 H 265.143 -4.07995 0.020207 0
M  V30 2711 H 263.818 -3.99129 1.16915 0
M  V30 2712 H 262.395 -3.67458 -0.63473 0
M  V30 2713 N 264.58 -0.43555 -1.51462 0
M  V30 2714 C 265.805 0.132627 -2.06976 0
M  V30 2715 C 266.23 1.35848 -1.30104 0
M  V30 2716 O 265.588 1.78112 -0.338493 0
M  V30 2717 C 265.636 0.43523 -3.57964 0
M  V30 2718 O 264.74 1.52198 -3.83288 0
M  V30 2719 H 264.081 0.00265 -0.663995 0
M  V30 2720 H 266.611 -0.616369 -1.95095 0
M  V30 2721 H 266.621 0.686206 -4.02188 0
M  V30 2722 H 265.296 -0.460739 -4.1334 0
M  V30 2723 H 263.873 1.2611 -3.50928 0
M  V30 2724 N 266.058 1.56714 -0.166846 0
M  V30 2725 C 267.307 1.95922 0.479318 0
M  V30 2726 C 267.62 1.05529 1.6469 0
M  V30 2727 O 268.826 1.34399 2.35901 0
M  V30 2728 C 267.282 3.48359 0.90412 0
M  V30 2729 C 266.89 4.47369 -0.237621 0
M  V30 2730 C 268.634 3.96394 1.51896 0
M  V30 2731 C 266.541 5.91039 0.206561 0
M  V30 2732 H 265.471 0.731495 0.18284 0
M  V30 2733 H 268.122 1.81728 -0.254363 0
M  V30 2734 H 266.504 3.57955 1.69365 0
M  V30 2735 H 267.678 4.49485 -1.01489 0
M  V30 2736 H 265.993 4.09366 -0.762128 0
M  V30 2737 H 268.59 5.01186 1.86325 0
M  V30 2738 H 268.933 3.39075 2.41524 0
M  V30 2739 H 269.466 3.89796 0.79395 0
M  V30 2740 H 266.205 6.52221 -0.654834 0
M  V30 2741 H 265.725 5.9224 0.949282 0
M  V30 2742 H 267.404 6.43707 0.651939 0
M  V30 2743 N 267.536 -0.106894 1.57237 0
M  V30 2744 C 268.446 -1.14911 2.0453 0
M  V30 2745 C 269.462 -1.44592 0.96795 0
M  V30 2746 O 270.638 -1.55468 1.2803 0
M  V30 2747 C 267.703 -2.45272 2.45036 0
M  V30 2748 C 266.764 -2.22879 3.66911 0
M  V30 2749 C 265.997 -3.47024 4.05475 0
M  V30 2750 O 266.22 -4.54804 3.44252 0
M  V30 2751 O 265.154 -3.3731 4.98504 0
M  V30 2752 H 268.98 -0.777461 2.9358 0
M  V30 2753 H 266.565 -0.318563 1.45964 0
M  V30 2754 H 268.447 -3.22055 2.71769 0
M  V30 2755 H 267.122 -2.81886 1.59129 0
M  V30 2756 H 266.029 -1.43915 3.45311 0
M  V30 2757 H 267.362 -1.91163 4.53561 0
M  V30 2758 N 269.014 -1.53014 -0.377408 0
M  V30 2759 C 269.961 -1.78616 -1.46168 0
M  V30 2760 C 270.931 -0.629917 -1.53692 0
M  V30 2761 O 272.116 -0.870861 -1.69766 0
M  V30 2762 C 269.256 -1.97123 -2.8326 0
M  V30 2763 C 268.369 -3.24831 -2.84796 0
M  V30 2764 C 267.504 -3.33591 -4.13389 0
M  V30 2765 C 266.543 -4.55377 -4.09021 0
M  V30 2766 N 265.68 -4.61355 -5.29241 0
M  V30 2767 H 270.52 -2.71142 -1.23637 0
M  V30 2768 H 268.057 -1.34326 -0.599577 0
M  V30 2769 H 270.015 -2.05839 -3.62886 0
M  V30 2770 H 268.645 -1.07946 -3.04216 0
M  V30 2771 H 267.697 -3.25128 -1.97474 0
M  V30 2772 H 269.009 -4.14523 -2.77439 0
M  V30 2773 H 268.163 -3.41554 -5.01424 0
M  V30 2774 H 266.902 -2.41894 -4.23484 0
M  V30 2775 H 265.907 -4.47527 -3.19373 0
M  V30 2776 H 267.132 -5.48402 -4.00539 0
M  V30 2777 H 265.078 -3.72554 -5.39944 0
M  V30 2778 H 264.995 -5.44935 -5.24006 0
M  V30 2779 H 266.263 -4.73586 -6.19141 0
M  V30 2780 N 270.492 0.636531 -1.44174 0
M  V30 2781 C 271.422 1.76003 -1.53444 0
M  V30 2782 C 272.403 1.65619 -0.387841 0
M  V30 2783 O 273.588 1.84461 -0.607257 0
M  V30 2784 C 270.718 3.14511 -1.4731 0
M  V30 2785 C 269.672 3.39677 -2.60391 0
M  V30 2786 C 268.998 4.78159 -2.39308 0
M  V30 2787 C 270.298 3.32772 -4.02567 0
M  V30 2788 H 271.992 1.68501 -2.47483 0
M  V30 2789 H 269.538 0.809237 -1.19111 0
M  V30 2790 H 271.491 3.92878 -1.52397 0
M  V30 2791 H 270.215 3.22783 -0.49785 0
M  V30 2792 H 268.874 2.63688 -2.54684 0
M  V30 2793 H 268.522 4.83128 -1.39988 0
M  V30 2794 H 268.222 4.95956 -3.15122 0
M  V30 2795 H 269.746 5.58762 -2.46205 0
M  V30 2796 H 271.16 4.01051 -4.09672 0
M  V30 2797 H 269.557 3.62104 -4.7854 0
M  V30 2798 H 270.627 2.30669 -4.2652 0
M  V30 2799 N 271.97 1.30982 0.876444 0
M  V30 2800 C 273.217 1.20296 1.62896 0
M  V30 2801 C 273.545 -0.240395 1.93009 0
M  V30 2802 O 272.8 -1.18733 1.55567 0
M  V30 2803 C 273.099 1.98572 2.9716 0
M  V30 2804 C 272.765 3.48125 2.86566 0
M  V30 2805 C 271.427 3.88905 2.83383 0
M  V30 2806 C 273.779 4.43322 2.74071 0
M  V30 2807 C 271.107 5.2316 2.65556 0
M  V30 2808 C 273.459 5.77695 2.57781 0
M  V30 2809 C 272.123 6.17704 2.52979 0
M  V30 2810 H 271.393 0.440193 0.59608 0
M  V30 2811 H 274.04 1.62177 1.01837 0
M  V30 2812 H 272.345 1.49352 3.62217 0
M  V30 2813 H 274.042 1.8769 3.54364 0
M  V30 2814 H 270.632 3.15723 2.89856 0
M  V30 2815 H 274.816 4.12752 2.75589 0
M  V30 2816 H 270.072 5.53241 2.60259 0
M  V30 2817 H 274.246 6.51091 2.47089 0
M  V30 2818 H 271.873 7.21678 2.38924 0
M  V30 2819 N 273.449 -1.08991 1.13837 0
M  V30 2820 C 274.695 -1.81526 0.90422 0
M  V30 2821 C 275.028 -1.85706 -0.568066 0
M  V30 2822 O 274.303 -1.32855 -1.42056 0
M  V30 2823 C 274.586 -3.27447 1.49835 0
M  V30 2824 C 274.439 -3.31512 3.04006 0
M  V30 2825 C 275.758 -4.24256 1.17025 0
M  V30 2826 H 272.877 -0.659029 0.329923 0
M  V30 2827 H 275.519 -1.27644 1.40737 0
M  V30 2828 H 273.669 -3.73462 1.07044 0
M  V30 2829 H 275.341 -2.93867 3.55584 0
M  V30 2830 H 273.584 -2.70963 3.38765 0
M  V30 2831 H 274.255 -4.34329 3.40679 0
M  V30 2832 H 276.731 -3.86549 1.54009 0
M  V30 2833 H 275.607 -5.24684 1.61237 0
M  V30 2834 H 275.868 -4.42019 0.0846274 0
M  V30 2835 N 274.927 -0.932562 -1.27047 0
M  V30 2836 C 276.173 -0.585913 -1.94778 0
M  V30 2837 C 276.528 0.864142 -1.71902 0
M  V30 2838 O 275.821 1.60894 -1.04037 0
M  V30 2839 C 276.015 -0.853713 -3.47054 0
M  V30 2840 C 275.844 -2.32825 -3.84737 0
M  V30 2841 C 274.614 -2.98184 -4.07939 0
M  V30 2842 C 276.812 -3.30612 -3.93954 0
M  V30 2843 N 274.794 -4.3574 -4.3244 0
M  V30 2844 C 276.165 -4.53395 -4.22887 0
M  V30 2845 C 278.22 -3.25755 -3.76548 0
M  V30 2846 C 276.923 -5.71927 -4.36224 0
M  V30 2847 C 278.949 -4.43604 -3.91113 0
M  V30 2848 C 278.311 -5.65166 -4.20437 0
M  V30 2849 H 274.41 -0.264617 -0.735868 0
M  V30 2850 H 276.994 -1.20019 -1.53309 0
M  V30 2851 H 275.165 -0.268557 -3.8747 0
M  V30 2852 H 276.897 -0.469202 -4.01971 0
M  V30 2853 H 273.652 -2.48835 -4.02961 0
M  V30 2854 H 274.076 -5.06915 -4.48738 0
M  V30 2855 H 278.718 -2.32835 -3.52913 0
M  V30 2856 H 276.436 -6.65308 -4.58683 0
M  V30 2857 H 280.022 -4.41368 -3.79059 0
M  V30 2858 H 278.902 -6.54836 -4.31462 0
M  V30 2859 N 276.405 1.4127 -0.698611 0
M  V30 2860 C 277.653 2.00782 -0.230409 0
M  V30 2861 C 277.974 1.5562 1.17505 0
M  V30 2862 O 277.244 0.78815 1.79346 0
M  V30 2863 H 275.824 0.742464 -0.0821944 0
M  V30 2864 H 278.486 1.72852 -0.90045 0
M  V30 2865 H 277.582 3.11095 -0.25021 0
M  V30 2866 N 277.883 0.443576 1.51229 0
M  V30 2867 C 278.831 -0.37904 2.29491 0
M  V30 2868 C 279.825 -1.0153 1.35603 0
M  V30 2869 O 281.031 -0.94955 1.52917 0
M  V30 2870 H 277.406 -0.141053 0.738653 0
M  V30 2871 H 279.377 0.301799 2.9687 0
M  V30 2872 C 278.126 -1.46426 3.15364 0
M  V30 2873 H 277.449 -0.984037 3.87501 0
M  V30 2874 H 278.889 -2.01297 3.7317 0
M  V30 2875 C 277.348 -2.45099 2.31146 0
M  V30 2876 O 277.878 -3.49773 1.9754 0
M  V30 2877 N 276.084 -2.16139 1.94249 0
M  V30 2878 H 275.631 -1.31044 2.21777 0
M  V30 2879 H 275.589 -2.82398 1.38198 0
M  V30 2880 N 279.361 -1.56624 0.175154 0
M  V30 2881 C 280.311 -2.14747 -0.766004 0
M  V30 2882 C 281.295 -1.08275 -1.19018 0
M  V30 2883 O 282.487 -1.34388 -1.15191 0
M  V30 2884 C 279.616 -2.79478 -1.99366 0
M  V30 2885 C 278.702 -3.93114 -1.5913 0
M  V30 2886 N 279.093 -4.97752 -0.89872 0
M  V30 2887 C 277.391 -4.04345 -1.88204 0
M  V30 2888 C 278.092 -5.77473 -0.700012 0
M  V30 2889 N 277.068 -5.29207 -1.24263 0
M  V30 2890 H 280.87 -2.93015 -0.22793 0
M  V30 2891 H 278.384 -1.6238 -0.0253843 0
M  V30 2892 H 280.381 -3.19498 -2.67818 0
M  V30 2893 H 279.041 -2.02692 -2.53665 0
M  V30 2894 H 280.052 -5.14903 -0.556347 0
M  V30 2895 H 276.729 -3.38667 -2.44153 0
M  V30 2896 H 278.119 -6.71728 -0.152047 0
M  V30 2897 N 280.839 0.0985539 -1.57292 0
M  V30 2898 C 282.064 0.820196 -1.90493 0
M  V30 2899 C 282.489 1.71658 -0.769094 0
M  V30 2900 O 281.847 1.79133 0.279495 0
M  V30 2901 C 281.895 1.61242 -3.22542 0
M  V30 2902 O 280.999 2.72108 -3.09888 0
M  V30 2903 H 280.34 0.225547 -0.62452 0
M  V30 2904 H 282.87 0.0748159 -2.04463 0
M  V30 2905 H 282.88 1.99737 -3.55766 0
M  V30 2906 H 281.555 0.954535 -4.04798 0
M  V30 2907 H 280.132 2.36667 -2.88172 0
M  V30 2908 N 282.317 1.53212 0.369288 0
M  V30 2909 C 283.728 1.60943 0.946276 0
M  V30 2910 C 284.079 0.47452 1.90375 0
M  V30 2911 O 283.204 -0.399597 2.12679 0
M  V30 2912 C 283.799 2.91715 1.72302 0
M  V30 2913 C 282.358 3.01792 2.24941 0
M  V30 2914 C 281.505 2.56211 1.06072 0
M  V30 2915 H 284.456 1.58007 0.148198 0
M  V30 2916 H 284.477 2.79309 2.58393 0
M  V30 2917 H 283.989 3.74295 1.0259 0
M  V30 2918 H 282.09 2.23791 2.97906 0
M  V30 2919 H 282.203 4.06803 2.53077 0
M  V30 2920 H 280.567 2.10998 1.4266 0
M  V30 2921 H 281.35 3.41206 0.378639 0
M  V30 2922 N 283.795 -0.628877 1.44509 0
M  V30 2923 C 285.023 -1.41554 1.50897 0
M  V30 2924 C 285.438 -1.8832 0.134564 0
M  V30 2925 O 284.795 -1.60969 -0.859965 0
M  V30 2926 C 284.846 -2.63435 2.47556 0
M  V30 2927 O 284.567 -2.18619 3.79654 0
M  V30 2928 C 286.068 -3.56537 2.63431 0
M  V30 2929 H 283.288 -0.434044 0.511709 0
M  V30 2930 H 285.832 -0.768895 1.89495 0
M  V30 2931 H 283.987 -3.24187 2.12089 0
M  V30 2932 H 284.401 -2.97652 4.31861 0
M  V30 2933 H 285.875 -4.38657 3.35088 0
M  V30 2934 H 286.352 -4.05493 1.68738 0
M  V30 2935 H 286.958 -3.01653 2.9981 0
M  V30 2936 N 285.273 -1.31445 -0.869486 0
M  V30 2937 C 286.206 -1.13465 -1.97992 0
M  V30 2938 C 287.184 -0.0380291 -1.62556 0
M  V30 2939 O 288.368 -0.194544 -1.87493 0
M  V30 2940 C 285.495 -0.733822 -3.30655 0
M  V30 2941 C 284.541 -1.83356 -3.85075 0
M  V30 2942 S 285.374 -3.43909 -4.10472 0
M  V30 2943 C 286.53 -3.05763 -5.46132 0
M  V30 2944 H 286.763 -2.07471 -2.1294 0
M  V30 2945 H 284.296 -1.15936 -1.01972 0
M  V30 2946 H 286.254 -0.509306 -4.07328 0
M  V30 2947 H 284.915 0.187123 -3.13542 0
M  V30 2948 H 284.108 -1.50574 -4.80982 0
M  V30 2949 H 283.71 -2.01315 -3.15195 0
M  V30 2950 H 286.002 -2.54686 -6.27807 0
M  V30 2951 H 286.945 -4.00635 -5.83864 0
M  V30 2952 H 287.353 -2.43192 -5.09429 0
M  V30 2953 N 286.751 1.08385 -1.14413 0
M  V30 2954 C 287.981 1.8425 -0.934644 0
M  V30 2955 C 288.389 1.81907 0.520234 0
M  V30 2956 O 287.732 1.22126 1.37226 0
M  V30 2957 C 287.794 3.32853 -1.35828 0
M  V30 2958 C 287.458 3.5893 -2.82875 0
M  V30 2959 C 288.455 3.53756 -3.80989 0
M  V30 2960 C 286.14 3.86934 -3.20293 0
M  V30 2961 C 288.134 3.76216 -5.14529 0
M  V30 2962 C 285.821 4.09047 -4.54008 0
M  V30 2963 C 286.819 4.03682 -5.50936 0
M  V30 2964 O 286.507 4.25214 -6.82238 0
M  V30 2965 H 286.239 0.588502 -0.332628 0
M  V30 2966 H 288.793 1.37792 -1.52324 0
M  V30 2967 H 287.023 3.8007 -0.713019 0
M  V30 2968 H 288.712 3.90154 -1.11957 0
M  V30 2969 H 289.478 3.32135 -3.53428 0
M  V30 2970 H 285.357 3.9023 -2.45442 0
M  V30 2971 H 288.901 3.71943 -5.90173 0
M  V30 2972 H 284.798 4.30151 -4.8129 0
M  V30 2973 H 285.566 4.42619 -6.88499 0
M  V30 2974 N 288.23 0.939286 1.26551 0
M  V30 2975 C 289.193 0.451987 2.24699 0
M  V30 2976 C 290.193 -0.435869 1.5478 0
M  V30 2977 O 291.383 -0.235314 1.72603 0
M  V30 2978 C 288.515 -0.348801 3.39111 0
M  V30 2979 H 289.708 1.3193 2.69322 0
M  V30 2980 H 287.261 0.721072 1.38673 0
M  V30 2981 H 287.996 -1.23444 2.99887 0
M  V30 2982 H 287.781 0.287945 3.91041 0
M  V30 2983 H 289.271 -0.679726 4.12031 0
M  V30 2984 N 289.708 -1.40897 0.706093 0
M  V30 2985 C 290.985 -1.94868 0.169099 0
M  V30 2986 C 291.365 -1.64485 -1.32318 0
M  V30 2987 O 290.713 -0.95744 -2.07474 0
M  V30 2988 C 290.923 -3.45798 0.471654 0
M  V30 2989 C 292.271 -4.22663 0.405127 0
M  V30 2990 O 293.295 -3.53865 0.407168 0
M  V30 2991 O 292.154 -5.45216 0.374383 0
M  V30 2992 H 289.248 -0.82673 0.0211352 0
M  V30 2993 H 291.794 -1.50558 0.782976 0
M  V30 2994 H 290.566 -3.61235 1.50416 0
M  V30 2995 H 290.189 -3.97225 -0.172666 0
M  V30 2996 N 291.186 -0.45159 -1.50991 0
M  V30 2997 C 292.416 0.108177 -2.06317 0
M  V30 2998 C 292.824 1.35774 -1.31765 0
M  V30 2999 O 292.167 1.79838 -0.374694 0
M  V30 3000 C 292.229 0.481659 -3.56259 0
M  V30 3001 C 291.893 -0.663114 -4.52163 0
M  V30 3002 C 292.89 -1.53947 -4.96585 0
M  V30 3003 C 290.575 -0.8479 -4.95092 0
M  V30 3004 C 292.569 -2.58518 -5.82621 0
M  V30 3005 C 290.256 -1.89686 -5.80915 0
M  V30 3006 C 291.254 -2.76388 -6.24579 0
M  V30 3007 O 290.942 -3.79482 -7.08695 0
M  V30 3008 H 290.674 0.00499183 -0.675982 0
M  V30 3009 H 293.228 -0.633659 -1.95381 0
M  V30 3010 H 291.458 1.27641 -3.65027 0
M  V30 3011 H 293.147 0.974233 -3.94035 0
M  V30 3012 H 293.913 -1.4083 -4.64103 0
M  V30 3013 H 289.792 -0.18258 -4.60638 0
M  V30 3014 H 293.336 -3.26224 -6.16623 0
M  V30 3015 H 289.233 -2.02817 -6.12809 0
M  V30 3016 H 290.001 -3.76234 -7.26905 0
M  V30 3017 N 292.664 1.56529 -0.183458 0
M  V30 3018 C 294.08 1.58664 0.172554 0
M  V30 3019 C 294.28 1.19925 1.61926 0
M  V30 3020 O 293.336 0.916534 2.35278 0
M  V30 3021 C 294.649 3.00463 -0.119262 0
M  V30 3022 C 296.197 3.12945 -0.0584396 0
M  V30 3023 C 296.672 4.56857 -0.323408 0
M  V30 3024 N 298.163 4.62403 -0.271612 0
M  V30 3025 C 298.898 5.71626 -0.450639 0
M  V30 3026 N 298.394 6.89362 -0.689384 0
M  V30 3027 N 300.187 5.60775 -0.385701 0
M  V30 3028 H 292.338 1.79994 -1.12765 0
M  V30 3029 H 294.601 0.834808 -0.449222 0
M  V30 3030 H 294.307 3.33326 -1.12192 0
M  V30 3031 H 294.181 3.72659 0.583544 0
M  V30 3032 H 296.568 2.79902 0.934805 0
M  V30 3033 H 296.649 2.4316 -0.794144 0
M  V30 3034 H 296.293 4.9061 -1.31392 0
M  V30 3035 H 296.223 5.24816 0.43305 0
M  V30 3036 H 298.714 3.77785 -0.0932256 0
M  V30 3037 H 299.027 7.68489 -0.815113 0
M  V30 3038 H 297.372 6.91196 -0.726142 0
M  V30 3039 H 300.563 4.67674 -0.199687 0
M  V30 3040 H 300.736 6.4584 -0.528646 0
M  V30 3041 N 294.142 -0.090211 1.57342 0
M  V30 3042 C 295.372 -0.805055 1.90269 0
M  V30 3043 C 295.78 -1.72561 0.775842 0
M  V30 3044 O 295.123 -1.81839 -0.260843 0
M  V30 3045 C 295.185 -1.66734 3.18497 0
M  V30 3046 C 294.849 -0.918092 4.47683 0
M  V30 3047 C 295.846 -0.245674 5.19319 0
M  V30 3048 C 293.531 -0.890724 4.94339 0
M  V30 3049 C 295.525 0.444088 6.35851 0
M  V30 3050 C 293.212 -0.197179 6.10782 0
M  V30 3051 C 294.21 0.469044 6.81388 0
M  V30 3052 O 293.898 1.15146 7.95611 0
M  V30 3053 H 293.63 -0.235143 0.633785 0
M  V30 3054 H 296.184 -0.0703805 2.05279 0
M  V30 3055 H 294.414 -2.44437 2.99646 0
M  V30 3056 H 296.103 -2.25919 3.37217 0
M  V30 3057 H 296.869 -0.258246 4.84312 0
M  V30 3058 H 292.748 -1.39873 4.39268 0
M  V30 3059 H 296.292 0.964667 6.90898 0
M  V30 3060 H 292.189 -0.18247 6.45242 0
M  V30 3061 H 292.957 1.05885 8.11622 0
M  V30 3062 N 295.62 -1.53406 -0.361157 0
M  V30 3063 C 296.583 -1.79479 -1.42548 0
M  V30 3064 C 297.583 -0.665327 -1.4639 0
M  V30 3065 O 298.773 -0.933549 -1.47073 0
M  V30 3066 C 295.905 -1.92087 -2.8163 0
M  V30 3067 H 297.098 -2.74538 -1.20701 0
M  V30 3068 H 294.651 -1.4455 -0.594546 0
M  V30 3069 H 295.386 -0.991099 -3.08784 0
M  V30 3070 H 295.171 -2.74241 -2.80239 0
M  V30 3071 H 296.661 -2.13836 -3.58697 0
M  V30 3072 N 297.098 0.621204 -1.44841 0
M  V30 3073 C 298.03 1.74615 -1.48466 0
M  V30 3074 C 299.043 1.58377 -0.37691 0
M  V30 3075 O 300.232 1.66508 -0.643215 0
M  V30 3076 C 297.332 3.12459 -1.31236 0
M  V30 3077 C 296.505 3.55064 -2.55438 0
M  V30 3078 C 295.564 4.71821 -2.32963 0
M  V30 3079 O 294.59 4.79628 -3.06505 0
M  V30 3080 N 295.792 5.64186 -1.36654 0
M  V30 3081 H 298.557 1.71973 -2.45449 0
M  V30 3082 H 296.118 0.806077 -1.40407 0
M  V30 3083 H 298.11 3.88302 -1.14032 0
M  V30 3084 H 296.68 3.09686 -0.4258 0
M  V30 3085 H 295.9 2.69324 -2.87851 0
M  V30 3086 H 297.188 3.80284 -3.38026 0
M  V30 3087 H 296.586 5.6058 -0.759344 0
M  V30 3088 H 295.143 6.39618 -1.25425 0
M  V30 3089 N 298.576 1.31904 0.862503 0
M  V30 3090 C 299.825 1.21373 1.61094 0
M  V30 3091 C 300.138 -0.22504 1.94301 0
M  V30 3092 O 301.344 -0.452121 2.67709 0
M  V30 3093 C 299.8 2.12525 2.9045 0
M  V30 3094 C 299.408 3.61441 2.64697 0
M  V30 3095 C 301.152 2.10813 3.68454 0
M  V30 3096 C 299.059 4.44578 3.90006 0
M  V30 3097 H 297.989 0.450705 0.604468 0
M  V30 3098 H 300.64 1.56811 0.953027 0
M  V30 3099 H 299.022 1.69994 3.57656 0
M  V30 3100 H 300.196 4.12264 2.05851 0
M  V30 3101 H 298.511 3.65205 2.00036 0
M  V30 3102 H 301.108 2.70167 4.61426 0
M  V30 3103 H 301.451 1.09713 4.01583 0
M  V30 3104 H 301.984 2.51583 3.08141 0
M  V30 3105 H 298.723 5.46461 3.62023 0
M  V30 3106 H 298.243 3.98508 4.48276 0
M  V30 3107 H 299.922 4.57176 4.5782 0
M  V30 3108 N 300.054 -1.07777 1.14986 0
M  V30 3109 C 301.331 -1.7699 0.832695 0
M  V30 3110 C 301.711 -2.001 -0.672561 0
M  V30 3111 O 301.059 -1.61598 -1.6155 0
M  V30 3112 C 301.269 -3.08139 1.63863 0
M  V30 3113 C 302.617 -3.8256 1.84208 0
M  V30 3114 O 303.641 -3.17939 1.60603 0
M  V30 3115 O 302.5 -4.98612 2.23714 0
M  V30 3116 H 299.594 -0.768389 0.305791 0
M  V30 3117 H 302.14 -1.14182 1.25541 0
M  V30 3118 H 300.912 -2.86909 2.6608 0
M  V30 3119 H 300.535 -3.78678 1.21197 0
M  V30 3120 N 301.532 -0.945985 -1.26051 0
M  V30 3121 C 302.78 -0.594941 -1.93145 0
M  V30 3122 C 303.101 0.86953 -1.7454 0
M  V30 3123 O 302.371 1.61838 -1.10387 0
M  V30 3124 H 300.951 -0.217044 -0.714773 0
M  V30 3125 H 303.613 -1.20235 -1.53393 0
M  V30 3126 H 302.709 -0.816835 -3.01221 0
M  V30 3127 N 303.011 1.40521 -0.713556 0
M  V30 3128 C 303.974 2.29098 -0.0684347 0
M  V30 3129 C 304.974 1.45268 0.689472 0
M  V30 3130 O 306.164 1.66205 0.521677 0
M  V30 3131 C 303.296 3.28446 0.913024 0
M  V30 3132 H 304.489 2.87645 -0.84855 0
M  V30 3133 H 302.042 1.48809 -0.47809 0
M  V30 3134 H 302.777 2.74913 1.72027 0
M  V30 3135 H 302.562 3.90327 0.372472 0
M  V30 3136 H 304.052 3.94777 1.36165 0
M  V30 3137 N 304.489 0.459591 1.5075 0
M  V30 3138 C 305.714 -0.0996819 2.0716 0
M  V30 3139 C 306.139 -1.33761 1.32249 0
M  V30 3140 O 305.497 -1.77551 0.366786 0
M  V30 3141 C 305.545 -0.378226 3.58611 0
M  V30 3142 O 304.649 -1.46081 3.85661 0
M  V30 3143 H 303.99 0.00791392 0.663953 0
M  V30 3144 H 306.52 0.647329 1.9409 0
M  V30 3145 H 306.53 -0.622135 4.03229 0
M  V30 3146 H 305.205 0.526439 4.12555 0
M  V30 3147 H 303.782 -1.20511 3.5289 0
M  V30 3148 N 305.967 -1.56429 0.191757 0
M  V30 3149 C 307.213 -1.97777 -0.448554 0
M  V30 3150 C 307.546 -1.07847 -1.61501 0
M  V30 3151 O 306.821 -0.129774 -1.94067 0
M  V30 3152 C 307.104 -3.48362 -0.911906 0
M  V30 3153 C 306.957 -4.4907 0.256136 0
M  V30 3154 C 308.276 -4.02561 -1.77857 0
M  V30 3155 H 305.395 -0.719071 -0.161572 0
M  V30 3156 H 308.037 -1.87896 0.282007 0
M  V30 3157 H 306.187 -3.56914 -1.53442 0
M  V30 3158 H 307.859 -4.5256 0.893733 0
M  V30 3159 H 306.102 -4.24181 0.908436 0
M  V30 3160 H 306.773 -5.51889 -0.11053 0
M  V30 3161 H 309.249 -3.96767 -1.25359 0
M  V30 3162 H 308.125 -5.08301 -2.07174 0
M  V30 3163 H 308.386 -3.47616 -2.73158 0
M  V30 3164 N 307.445 0.0818655 -1.57387 0
M  V30 3165 C 308.392 1.09834 -2.0299 0
M  V30 3166 C 309.362 1.39043 -0.908639 0
M  V30 3167 O 310.547 1.50282 -1.17559 0
M  V30 3168 C 307.687 2.40971 -2.47037 0
M  V30 3169 C 306.8 2.18379 -3.7274 0
M  V30 3170 C 305.935 3.43008 -4.0561 0
M  V30 3171 C 304.974 3.15736 -5.24383 0
M  V30 3172 N 304.111 4.32667 -5.52941 0
M  V30 3173 H 308.951 0.702472 -2.89602 0
M  V30 3174 H 306.488 0.33531 -1.43227 0
M  V30 3175 H 308.446 3.1752 -2.70623 0
M  V30 3176 H 307.076 2.78379 -1.63417 0
M  V30 3177 H 306.128 1.32569 -3.56552 0
M  V30 3178 H 307.44 1.94227 -4.59431 0
M  V30 3179 H 306.594 4.27958 -4.30043 0
M  V30 3180 H 305.333 3.70225 -3.17466 0
M  V30 3181 H 304.338 2.2918 -4.99757 0
M  V30 3182 H 305.563 2.8985 -6.14136 0
M  V30 3183 H 303.509 4.59935 -4.67756 0
M  V30 3184 H 303.426 4.11753 -6.34031 0
M  V30 3185 H 304.694 5.18644 -5.81918 0
M  V30 3186 N 308.923 1.53595 0.353017 0
M  V30 3187 C 310.2 1.61002 1.11075 0
M  V30 3188 C 310.58 0.425356 2.0677 0
M  V30 3189 O 309.928 -0.583267 2.2093 0
M  V30 3190 C 310.138 2.96631 1.83877 0
M  V30 3191 C 311.486 3.51653 2.37961 0
M  V30 3192 O 312.51 2.98743 1.93987 0
M  V30 3193 O 311.369 4.44177 3.18386 0
M  V30 3194 H 308.463 0.650825 0.510251 0
M  V30 3195 H 311.009 1.6594 0.35527 0
M  V30 3196 H 309.781 3.74293 1.14108 0
M  V30 3197 H 309.404 2.95242 2.66304 0
M  V30 3198 N 310.401 -0.613514 1.45168 0
M  V30 3199 C 311.334 -1.73809 1.47871 0
M  V30 3200 C 312.312 -1.59097 0.33568 0
M  V30 3201 O 313.496 -1.8074 0.535299 0
M  V30 3202 C 310.623 -3.11574 1.32813 0
M  V30 3203 C 309.669 -3.4489 2.50905 0
M  V30 3204 S 310.502 -3.40393 4.13392 0
M  V30 3205 C 311.658 -4.80749 4.00789 0
M  V30 3206 H 311.891 -1.71252 2.43023 0
M  V30 3207 H 309.424 -0.789658 1.32679 0
M  V30 3208 H 311.382 -3.91065 1.24812 0
M  V30 3209 H 310.043 -3.11652 0.391418 0
M  V30 3210 H 309.236 -4.45183 2.36279 0
M  V30 3211 H 308.838 -2.72901 2.55736 0
M  V30 3212 H 311.13 -5.7041 3.65567 0
M  V30 3213 H 312.073 -5.00431 5.00974 0
M  V30 3214 H 312.481 -4.56151 3.32545 0
M  V30 3215 N 311.879 -1.3236 -0.855495 0
M  V30 3216 C 313.128 -1.22226 -1.60448 0
M  V30 3217 C 313.441 0.214733 -1.94418 0
M  V30 3218 O 314.647 0.437917 -2.67945 0
M  V30 3219 C 313.103 -2.14063 -2.89318 0
M  V30 3220 C 312.711 -3.62839 -2.62777 0
M  V30 3221 C 314.455 -2.12764 -3.67331 0
M  V30 3222 C 312.362 -4.4664 -3.87643 0
M  V30 3223 H 311.292 -0.453904 -0.602069 0
M  V30 3224 H 313.943 -1.57314 -0.944698 0
M  V30 3225 H 312.325 -1.71889 -3.5675 0
M  V30 3226 H 313.499 -4.1335 -2.03662 0
M  V30 3227 H 311.814 -3.66261 -1.98096 0
M  V30 3228 H 314.411 -2.72611 -4.59987 0
M  V30 3229 H 314.754 -1.11841 -4.00995 0
M  V30 3230 H 315.287 -2.53214 -3.06802 0
M  V30 3231 H 312.026 -5.48373 -3.5912 0
M  V30 3232 H 311.546 -4.0088 -4.46156 0
M  V30 3233 H 313.225 -4.59597 -4.55389 0
M  V30 3234 N 313.357 1.07166 -1.15556 0
M  V30 3235 C 314.305 2.16517 -0.8499 0
M  V30 3236 C 315.299 1.68468 0.177454 0
M  V30 3237 O 316.505 1.79971 0.0323026 0
M  V30 3238 H 312.88 0.706652 -0.25719 0
M  V30 3239 H 314.851 2.39514 -1.77976 0
M  V30 3240 C 313.6 3.45855 -0.357682 0
M  V30 3241 H 312.923 3.83214 -1.13961 0
M  V30 3242 H 314.363 4.23607 -0.182489 0
M  V30 3243 C 312.822 3.24062 0.921152 0
M  V30 3244 O 313.352 3.48813 1.9923 0
M  V30 3245 N 311.558 2.77539 0.86141 0
M  V30 3246 H 311.105 2.57598 -0.0104408 0
M  V30 3247 H 311.063 2.63337 1.71758 0
M  V30 3248 N 314.835 0.952656 1.25548 0
M  V30 3249 C 316.112 0.523818 1.88456 0
M  V30 3250 C 316.492 -0.998871 1.85973 0
M  V30 3251 O 315.84 -1.86381 1.3219 0
M  V30 3252 C 316.05 1.0982 3.31271 0
M  V30 3253 C 317.398 1.17385 4.08051 0
M  V30 3254 O 318.422 1.04961 3.40384 0
M  V30 3255 O 317.281 1.36852 5.29088 0
M  V30 3256 H 314.375 0.172485 0.808813 0
M  V30 3257 H 316.921 1.04596 1.33633 0
M  V30 3258 H 315.693 2.1415 3.27499 0
M  V30 3259 H 315.316 0.559191 3.93648 0
M  V30 3260 N 316.313 -1.40141 0.720998 0
M  V30 3261 C 317.59 -1.94677 0.189757 0
M  V30 3262 C 317.97 -1.65879 -1.30566 0
M  V30 3263 O 317.318 -0.979391 -2.06447 0
M  V30 3264 C 317.528 -3.45279 0.508304 0
M  V30 3265 C 318.876 -4.22209 0.449934 0
M  V30 3266 O 319.9 -3.53413 0.444677 0
M  V30 3267 O 318.759 -5.44788 0.432189 0
M  V30 3268 H 315.853 -0.826459 0.0299026 0
M  V30 3269 H 318.399 -1.49719 0.7989 0
M  V30 3270 H 317.171 -3.59619 1.54239 0
M  V30 3271 H 316.794 -3.97386 -0.130525 0
M  V30 3272 N 317.792 -0.46758 -1.50504 0
M  V30 3273 C 318.755 0.317059 -2.26996 0
M  V30 3274 C 319.755 0.923513 -1.31635 0
M  V30 3275 O 320.945 0.793239 -1.55091 0
M  V30 3276 C 318.077 1.45134 -3.08462 0
M  V30 3277 H 319.27 -0.353723 -2.97807 0
M  V30 3278 H 316.823 -0.221545 -1.54722 0
M  V30 3279 H 317.558 2.15728 -2.4214 0
M  V30 3280 H 317.343 1.02232 -3.78538 0
M  V30 3281 H 318.833 2.00493 -3.66323 0
M  V30 3282 N 319.27 1.56325 -0.20005 0
M  V30 3283 C 320.516 1.98772 0.431408 0
M  V30 3284 C 320.871 1.0849 1.58895 0
M  V30 3285 O 320.164 0.130331 1.91156 0
M  V30 3286 C 320.358 3.4495 0.935103 0
M  V30 3287 C 320.187 4.49371 -0.172096 0
M  V30 3288 C 318.957 5.0134 -0.631377 0
M  V30 3289 C 321.155 5.04822 -0.982806 0
M  V30 3290 N 319.137 5.89433 -1.71588 0
M  V30 3291 C 320.508 5.89632 -1.91661 0
M  V30 3292 C 322.563 4.87242 -1.02467 0
M  V30 3293 C 321.266 6.58741 -2.88881 0
M  V30 3294 C 323.292 5.57094 -1.98494 0
M  V30 3295 C 322.654 6.41655 -2.90617 0
M  V30 3296 H 318.753 0.771922 0.125144 0
M  V30 3297 H 321.337 1.92266 -0.306883 0
M  V30 3298 H 319.508 3.51946 1.64282 0
M  V30 3299 H 321.24 3.74354 1.53758 0
M  V30 3300 H 317.995 4.73071 -0.223827 0
M  V30 3301 H 318.419 6.38182 -2.25948 0
M  V30 3302 H 323.061 4.21538 -0.326408 0
M  V30 3303 H 320.779 7.23641 -3.5968 0
M  V30 3304 H 324.365 5.45466 -2.0238 0
M  V30 3305 H 323.245 6.94755 -3.63711 0
M  V30 3306 N 320.748 -0.0735177 1.57428 0
M  V30 3307 C 321.696 -1.10628 2.04607 0
M  V30 3308 C 322.69 -1.40181 0.951088 0
M  V30 3309 O 323.896 -1.39608 1.1362 0
M  V30 3310 H 320.271 -0.374088 0.652351 0
M  V30 3311 H 322.242 -0.682218 2.90497 0
M  V30 3312 C 320.991 -2.41212 2.50423 0
M  V30 3313 H 320.314 -2.19322 3.34272 0
M  V30 3314 H 321.754 -3.11927 2.87189 0
M  V30 3315 C 320.213 -3.0705 1.38644 0
M  V30 3316 O 320.743 -3.95056 0.727582 0
M  V30 3317 N 318.949 -2.67645 1.132 0
M  V30 3318 H 318.496 -1.96169 1.66959 0
M  V30 3319 H 318.454 -3.1202 0.386147 0
M  V30 3320 N 322.226 -1.5378 -0.344866 0
M  V30 3321 C 323.642 -1.44015 -0.687888 0
M  V30 3322 C 323.842 -0.595834 -1.92489 0
M  V30 3323 O 322.898 -0.0863064 -2.52352 0
M  V30 3324 C 324.211 -2.87481 -0.881758 0
M  V30 3325 C 325.759 -2.97247 -0.980459 0
M  V30 3326 C 326.234 -4.41819 -1.20665 0
M  V30 3327 N 327.725 -4.45339 -1.27389 0
M  V30 3328 C 328.46 -5.54333 -1.46639 0
M  V30 3329 N 327.956 -6.73335 -1.63071 0
M  V30 3330 N 329.749 -5.41944 -1.49176 0
M  V30 3331 H 321.9 -2.07169 0.468475 0
M  V30 3332 H 324.163 -0.93643 0.147655 0
M  V30 3333 H 323.869 -3.51672 -0.0443444 0
M  V30 3334 H 323.743 -3.32352 -1.78388 0
M  V30 3335 H 326.13 -2.33197 -1.8084 0
M  V30 3336 H 326.211 -2.5574 -0.0552713 0
M  V30 3337 H 325.855 -5.06449 -0.383652 0
M  V30 3338 H 325.785 -4.80917 -2.14539 0
M  V30 3339 H 328.276 -3.59585 -1.1622 0
M  V30 3340 H 328.589 -7.52165 -1.77391 0
M  V30 3341 H 326.934 -6.76282 -1.60209 0
M  V30 3342 H 330.125 -4.47932 -1.3592 0
M  V30 3343 H 330.298 -6.26946 -1.63837 0
M  V30 3344 N 323.704 0.605807 -1.45491 0
M  V30 3345 C 324.981 1.36522 -1.40075 0
M  V30 3346 C 325.361 2.10976 -0.0722744 0
M  V30 3347 O 324.709 2.08007 0.945808 0
M  V30 3348 C 324.919 2.31056 -2.61561 0
M  V30 3349 C 326.267 2.93608 -3.06724 0
M  V30 3350 O 327.291 2.41376 -2.61946 0
M  V30 3351 O 326.15 3.88421 -3.84437 0
M  V30 3352 H 323.244 0.612248 -0.555951 0
M  V30 3353 H 325.79 0.628747 -1.57623 0
M  V30 3354 H 324.562 1.75311 -3.49831 0
M  V30 3355 H 324.185 3.12081 -2.46356 0
M  V30 3356 N 325.182 1.32811 0.848464 0
M  V30 3357 C 326.41 1.26739 1.63538 0
M  V30 3358 C 326.825 -0.163484 1.88091 0
M  V30 3359 O 326.182 -1.10258 1.45429 0
M  V30 3360 C 326.233 2.03013 2.99112 0
M  V30 3361 O 325.954 3.40518 2.75643 0
M  V30 3362 C 327.455 2.04038 3.93552 0
M  V30 3363 H 324.675 0.437024 0.509167 0
M  V30 3364 H 327.219 1.75033 1.05753 0
M  V30 3365 H 325.374 1.58426 3.53525 0
M  V30 3366 H 325.788 3.79635 3.61908 0
M  V30 3367 H 327.262 2.61877 4.85926 0
M  V30 3368 H 327.739 1.0282 4.26995 0
M  V30 3369 H 328.345 2.486 3.45077 0
M  V30 3370 N 326.66 -1.06551 1.16123 0
M  V30 3371 C 327.907 -1.79302 0.941126 0
M  V30 3372 C 328.235 -1.87105 -0.531235 0
M  V30 3373 O 327.49 -1.35692 -1.41018 0
M  V30 3374 C 327.789 -3.23911 1.51052 0
M  V30 3375 C 327.455 -3.36193 3.00475 0
M  V30 3376 C 326.117 -3.39252 3.41265 0
M  V30 3377 C 328.469 -3.38326 3.96465 0
M  V30 3378 C 325.797 -3.42057 4.76669 0
M  V30 3379 C 328.149 -3.4267 5.31752 0
M  V30 3380 C 326.813 -3.4401 5.72026 0
M  V30 3381 H 326.083 -0.656111 0.344382 0
M  V30 3382 H 328.73 -1.25325 1.44796 0
M  V30 3383 H 327.035 -3.80723 0.925063 0
M  V30 3384 H 328.732 -3.78793 1.31593 0
M  V30 3385 H 325.322 -3.34516 2.6795 0
M  V30 3386 H 329.506 -3.35176 3.6602 0
M  V30 3387 H 324.762 -3.41398 5.07206 0
M  V30 3388 H 328.936 -3.43268 6.05921 0
M  V30 3389 H 326.563 -3.45937 6.76928 0
M  V30 3390 N 328.138 -0.959301 -1.25041 0
M  V30 3391 C 329.068 -0.501388 -2.28053 0
M  V30 3392 C 330.049 0.454673 -1.63911 0
M  V30 3393 O 331.234 0.352618 -1.90972 0
M  V30 3394 C 328.364 0.217224 -3.4662 0
M  V30 3395 C 327.318 -0.654034 -4.22973 0
M  V30 3396 C 326.644 0.195589 -5.34342 0
M  V30 3397 C 327.944 -1.93447 -4.85155 0
M  V30 3398 H 329.638 -1.36238 -2.66608 0
M  V30 3399 H 327.184 -0.656534 -1.28163 0
M  V30 3400 H 329.137 0.548732 -4.17812 0
M  V30 3401 H 327.861 1.1125 -3.07068 0
M  V30 3402 H 326.52 -0.968693 -3.5357 0
M  V30 3403 H 326.168 1.09076 -4.91031 0
M  V30 3404 H 325.868 -0.384091 -5.86343 0
M  V30 3405 H 327.392 0.521958 -6.08365 0
M  V30 3406 H 328.806 -1.66908 -5.48466 0
M  V30 3407 H 327.203 -2.46018 -5.47353 0
M  V30 3408 H 328.273 -2.63466 -4.07079 0
M  V30 3409 N 329.616 1.39756 -0.72842 0
M  V30 3410 C 331.027 1.83498 -0.344289 0
M  V30 3411 C 331.378 1.60868 1.12321 0
M  V30 3412 O 330.503 1.09634 1.86573 0
M  V30 3413 C 331.098 3.33114 -0.618112 0
M  V30 3414 C 329.657 3.753 -0.287549 0
M  V30 3415 C 328.804 2.62831 -0.884048 0
M  V30 3416 H 331.755 1.28842 -0.926578 0
M  V30 3417 H 331.776 3.80334 0.112349 0
M  V30 3418 H 331.288 3.49553 -1.68625 0
M  V30 3419 H 329.389 3.64451 0.775012 0
M  V30 3420 H 329.502 4.72945 -0.765512 0
M  V30 3421 H 327.866 2.52792 -0.311149 0
M  V30 3422 H 328.649 2.82078 -1.95671 0
M  V30 3423 N 331.094 0.475555 1.50254 0
M  V30 3424 C 332.322 -0.0754493 2.06762 0
M  V30 3425 C 332.737 -1.33111 1.33891 0
M  V30 3426 O 332.094 -1.77846 0.40952 0
M  V30 3427 C 332.145 -0.359008 3.59713 0
M  V30 3428 O 331.866 0.846851 4.29837 0
M  V30 3429 C 333.367 -0.956484 4.32858 0
M  V30 3430 H 330.587 0.00907525 0.670939 0
M  V30 3431 H 333.131 0.665618 1.93364 0
M  V30 3432 H 331.286 -1.05001 3.72899 0
M  V30 3433 H 331.7 0.594162 5.21124 0
M  V30 3434 H 333.174 -1.10463 5.40834 0
M  V30 3435 H 333.651 -1.94775 3.93649 0
M  V30 3436 H 334.257 -0.303723 4.24214 0
M  V30 3437 N 332.573 -1.56217 0.208337 0
M  V30 3438 C 333.819 -1.98242 -0.427552 0
M  V30 3439 C 334.152 -1.09554 -1.60348 0
M  V30 3440 O 333.427 -0.15035 -1.93918 0
M  V30 3441 C 333.71 -3.4931 -0.874907 0
M  V30 3442 C 333.563 -4.48773 0.303751 0
M  V30 3443 C 334.882 -4.04424 -1.73577 0
M  V30 3444 H 332.001 -0.720744 -0.153936 0
M  V30 3445 H 334.643 -1.87586 0.30192 0
M  V30 3446 H 332.793 -3.58522 -1.49648 0
M  V30 3447 H 334.465 -4.51586 0.941682 0
M  V30 3448 H 332.708 -4.23194 0.953375 0
M  V30 3449 H 333.379 -5.51976 -0.0519883 0
M  V30 3450 H 335.855 -3.98075 -1.21143 0
M  V30 3451 H 334.731 -5.1047 -2.01771 0
M  V30 3452 H 334.992 -3.50494 -2.69456 0
M  V30 3453 N 334.051 0.0651679 -1.57465 0
M  V30 3454 C 335.299 0.761555 -1.87202 0
M  V30 3455 C 335.62 1.77778 -0.801243 0
M  V30 3456 O 334.89 1.95166 0.16937 0
M  V30 3457 H 333.47 0.284251 -0.690804 0
M  V30 3458 H 336.132 0.0396827 -1.9486 0
M  V30 3459 H 335.228 1.27365 -2.84929 0
M  V30 3460 N 335.529 1.53961 0.336706 0
M  V30 3461 C 336.476 1.82428 1.41381 0
M  V30 3462 C 337.446 0.670444 1.51968 0
M  V30 3463 O 338.631 0.915565 1.67398 0
M  V30 3464 C 335.771 2.04564 2.77934 0
M  V30 3465 C 334.884 3.32267 2.76084 0
M  V30 3466 C 334.019 3.44434 4.04399 0
M  V30 3467 C 333.058 4.66061 3.96804 0
M  V30 3468 N 332.195 4.75224 5.16823 0
M  V30 3469 H 337.035 2.74324 1.16405 0
M  V30 3470 H 334.572 1.35869 0.563752 0
M  V30 3471 H 336.53 2.15388 3.57301 0
M  V30 3472 H 335.16 1.15974 3.01247 0
M  V30 3473 H 334.212 3.3025 1.88784 0
M  V30 3474 H 335.524 4.21733 2.66351 0
M  V30 3475 H 334.678 3.54728 4.92192 0
M  V30 3476 H 333.417 2.53037 4.16921 0
M  V30 3477 H 332.422 4.55838 3.07396 0
M  V30 3478 H 333.647 5.58829 3.85858 0
M  V30 3479 H 331.593 3.86739 5.29876 0
M  V30 3480 H 331.51 5.58636 5.09374 0
M  V30 3481 H 332.778 4.89835 6.06367 0
M  V30 3482 N 337.007 -0.598083 1.45811 0
M  V30 3483 C 338.423 -0.919847 1.30426 0
M  V30 3484 C 338.623 -1.99759 0.264303 0
M  V30 3485 O 337.679 -2.50221 -0.338472 0
M  V30 3486 C 338.992 -1.35176 2.68603 0
M  V30 3487 C 340.54 -1.46546 2.76574 0
M  V30 3488 C 341.015 -1.9311 4.15298 0
M  V30 3489 N 342.506 -2.00328 4.1764 0
M  V30 3490 C 343.241 -2.37599 5.21856 0
M  V30 3491 N 342.737 -2.73771 6.36413 0
M  V30 3492 N 344.53 -2.38021 5.09218 0
M  V30 3493 H 336.681 0.114111 2.12093 0
M  V30 3494 H 338.944 -0.0116121 0.947929 0
M  V30 3495 H 338.65 -0.633969 3.45939 0
M  V30 3496 H 338.524 -2.3164 2.97696 0
M  V30 3497 H 340.911 -2.17415 1.99537 0
M  V30 3498 H 340.992 -0.483727 2.51185 0
M  V30 3499 H 340.636 -1.22824 4.92825 0
M  V30 3500 H 340.566 -2.92213 4.38086 0
M  V30 3501 H 343.057 -1.74925 3.34977 0
M  V30 3502 H 343.37 -3.0112 7.11721 0
M  V30 3503 H 341.715 -2.71445 6.39799 0
M  V30 3504 H 344.906 -2.09174 4.18765 0
M  V30 3505 H 345.079 -2.66741 5.90554 0
M  V30 3506 N 338.485 -1.33259 -0.841409 0
M  V30 3507 C 339.733 -1.24326 -1.59334 0
M  V30 3508 C 340.054 0.191564 -1.94057 0
M  V30 3509 O 339.324 1.11967 -1.60749 0
M  V30 3510 H 337.904 -0.457174 -0.590763 0
M  V30 3511 H 340.566 -1.66947 -1.00571 0
M  V30 3512 H 339.662 -1.8352 -2.52442 0
M  V30 3513 N 339.963 1.05934 -1.16686 0
M  V30 3514 C 340.926 2.11669 -0.879144 0
M  V30 3515 C 341.926 1.60294 0.127445 0
M  V30 3516 O 343.116 1.7389 -0.103865 0
M  V30 3517 C 340.248 3.39438 -0.315425 0
M  V30 3518 H 341.441 2.38626 -1.81653 0
M  V30 3519 H 338.994 1.22058 -0.976299 0
M  V30 3520 H 339.729 3.18132 0.629468 0
M  V30 3521 H 339.514 3.78034 -1.04079 0
M  V30 3522 H 341.004 4.17391 -0.132189 0
M  V30 3523 N 341.441 0.965919 1.2453 0
M  V30 3524 C 342.404 0.499547 2.2369 0
M  V30 3525 C 343.404 -0.40294 1.5567 0
M  V30 3526 O 344.594 -0.19865 1.73064 0
M  V30 3527 C 341.726 -0.276792 3.39774 0
M  V30 3528 H 342.919 1.37613 2.66463 0
M  V30 3529 H 340.472 0.750324 1.37112 0
M  V30 3530 H 341.207 -1.17055 3.02438 0
M  V30 3531 H 340.992 0.370826 3.90343 0
M  V30 3532 H 342.482 -0.592175 4.1338 0
M  V30 3533 N 342.919 -1.39368 0.735821 0
M  V30 3534 C 344.168 -1.99733 0.281004 0
M  V30 3535 C 344.481 -1.59055 -1.13846 0
M  V30 3536 O 345.687 -2.12262 -1.69284 0
M  V30 3537 C 344.143 -3.57057 0.451462 0
M  V30 3538 C 343.751 -4.06697 1.87886 0
M  V30 3539 C 345.495 -4.2446 0.0584616 0
M  V30 3540 C 343.402 -5.56598 1.99883 0
M  V30 3541 H 342.332 -0.747163 0.101311 0
M  V30 3542 H 344.983 -1.59357 0.909819 0
M  V30 3543 H 343.365 -3.95234 -0.246263 0
M  V30 3544 H 344.539 -3.79853 2.60861 0
M  V30 3545 H 342.854 -3.5196 2.22515 0
M  V30 3546 H 345.451 -5.34549 0.127099 0
M  V30 3547 H 345.794 -4.04444 -0.986433 0
M  V30 3548 H 346.327 -3.9146 0.707374 0
M  V30 3549 H 343.066 -5.81494 3.02564 0
M  V30 3550 H 342.586 -5.85242 1.31346 0
M  V30 3551 H 344.265 -6.22022 1.78039 0
M  V30 3552 N 344.397 -0.483516 -1.5 0
M  V30 3553 C 345.646 0.0689102 -2.01582 0
M  V30 3554 C 345.959 1.39655 -1.36952 0
M  V30 3555 O 347.165 2.03465 -1.79762 0
M  V30 3556 C 345.621 0.173302 -3.59483 0
M  V30 3557 C 345.229 -1.14665 -4.33077 0
M  V30 3558 C 346.973 0.677024 -4.19066 0
M  V30 3559 C 344.88 -1.00537 -5.82792 0
M  V30 3560 H 343.81 0.0295277 -0.753422 0
M  V30 3561 H 346.461 -0.620295 -1.72698 0
M  V30 3562 H 344.843 0.926569 -3.85007 0
M  V30 3563 H 346.017 -1.91184 -4.19268 0
M  V30 3564 H 344.332 -1.58244 -3.85159 0
M  V30 3565 H 346.929 0.799952 -5.28682 0
M  V30 3566 H 347.272 1.67151 -3.81269 0
M  V30 3567 H 347.805 -0.0192083 -3.97795 0
M  V30 3568 H 344.544 -1.9736 -6.25083 0
M  V30 3569 H 344.064 -0.280776 -5.99142 0
M  V30 3570 H 345.743 -0.677 -6.43448 0
M  V30 3571 N 345.875 1.56104 -0.216619 0
M  V30 3572 C 347.152 1.89988 0.465165 0
M  V30 3573 C 347.532 1.13326 1.78102 0
M  V30 3574 O 346.88 0.241033 2.27225 0
M  V30 3575 C 347.09 3.42646 0.662939 0
M  V30 3576 C 348.438 4.13311 0.972602 0
M  V30 3577 O 349.462 3.48217 0.749901 0
M  V30 3578 O 348.321 5.28396 1.39499 0
M  V30 3579 H 345.415 0.78979 0.245276 0
M  V30 3580 H 347.961 1.67721 -0.258436 0
M  V30 3581 H 346.733 3.90399 -0.26543 0
M  V30 3582 H 346.356 3.70677 1.43821 0
M  V30 3583 N 347.353 -0.0568162 1.57498 0
M  V30 3584 C 348.316 -1.05038 2.03715 0
M  V30 3585 C 349.316 -1.30709 0.936577 0
M  V30 3586 O 350.506 -1.26178 1.20103 0
M  V30 3587 C 347.638 -2.39034 2.43055 0
M  V30 3588 H 348.831 -0.651715 2.92733 0
M  V30 3589 H 346.384 -0.302947 1.53336 0
M  V30 3590 H 347.119 -2.83703 1.57108 0
M  V30 3591 H 346.904 -2.21739 3.2338 0
M  V30 3592 H 348.394 -3.10421 2.79336 0
M  V30 3593 N 348.832 -1.54138 -0.328536 0
M  V30 3594 C 350.248 -1.44736 -0.672574 0
M  V30 3595 C 350.448 -0.616217 -1.91846 0
M  V30 3596 O 349.504 -0.113067 -2.52247 0
M  V30 3597 C 350.817 -2.884 -0.851217 0
M  V30 3598 C 352.365 -2.98271 -0.948877 0
M  V30 3599 C 352.84 -4.43074 -1.15973 0
M  V30 3600 N 354.331 -4.46665 -1.22658 0
M  V30 3601 C 355.066 -5.55857 -1.40751 0
M  V30 3602 N 354.562 -6.75026 -1.5592 0
M  V30 3603 N 356.355 -5.43495 -1.4342 0
M  V30 3604 H 348.506 -2.06661 0.490421 0
M  V30 3605 H 350.769 -0.934812 0.157579 0
M  V30 3606 H 350.475 -3.51699 -0.00704236 0
M  V30 3607 H 350.349 -3.34225 -1.74853 0
M  V30 3608 H 352.736 -2.35102 -1.78356 0
M  V30 3609 H 352.817 -2.55785 -0.0281435 0
M  V30 3610 H 352.461 -5.06827 -0.329915 0
M  V30 3611 H 352.391 -4.83165 -2.09426 0
M  V30 3612 H 354.882 -3.60797 -1.124 0
M  V30 3613 H 355.195 -7.54004 -1.69404 0
M  V30 3614 H 353.54 -6.77944 -1.53027 0
M  V30 3615 H 356.731 -4.49349 -1.31162 0
M  V30 3616 H 356.904 -6.28649 -1.57178 0
M  V30 3617 N 350.31 0.590341 -1.46126 0
M  V30 3618 C 351.558 1.34616 -1.50742 0
M  V30 3619 C 351.879 1.94363 -0.157486 0
M  V30 3620 O 351.149 1.78136 0.815136 0
M  V30 3621 H 349.729 0.499789 -0.555175 0
M  V30 3622 H 352.391 0.691953 -1.82203 0
M  V30 3623 H 351.487 2.15678 -2.25587 0
M  V30 3624 N 351.788 1.33704 0.83433 0
M  V30 3625 C 353.034 1.25603 1.59222 0
M  V30 3626 C 353.367 -0.176659 1.93395 0
M  V30 3627 O 352.642 -1.11915 1.59076 0
M  V30 3628 C 352.925 2.13576 2.89926 0
M  V30 3629 C 352.778 3.65326 2.62406 0
M  V30 3630 C 354.097 2.01238 3.91397 0
M  V30 3631 H 351.216 0.457613 0.577719 0
M  V30 3632 H 353.858 1.63848 0.961972 0
M  V30 3633 H 352.008 1.8109 3.43713 0
M  V30 3634 H 353.68 4.08124 2.15017 0
M  V30 3635 H 351.923 3.8698 1.96033 0
M  V30 3636 H 352.594 4.22232 3.55562 0
M  V30 3637 H 355.07 2.29738 3.46929 0
M  V30 3638 H 353.946 2.65036 4.80673 0
M  V30 3639 H 354.207 0.985951 4.30966 0
M  V30 3640 N 353.266 -1.05314 1.17247 0
M  V30 3641 C 354.491 -1.82509 0.985148 0
M  V30 3642 C 354.916 -1.82343 -0.461788 0
M  V30 3643 O 354.274 -1.23151 -1.33055 0
M  V30 3644 C 354.322 -3.26566 1.52929 0
M  V30 3645 O 353.426 -4.05666 0.742225 0
M  V30 3646 H 352.767 -0.564347 0.349869 0
M  V30 3647 H 355.297 -1.32718 1.55715 0
M  V30 3648 H 355.307 -3.77369 1.55103 0
M  V30 3649 H 353.982 -3.26001 2.58256 0
M  V30 3650 H 352.559 -3.64397 0.791794 0
M  V30 3651 N 354.744 -0.972509 -1.24016 0
M  V30 3652 C 355.969 -0.654417 -1.96805 0
M  V30 3653 C 356.394 0.770398 -1.716 0
M  V30 3654 O 355.752 1.52361 -0.982647 0
M  V30 3655 C 355.8 -0.941031 -3.48105 0
M  V30 3656 O 354.904 -0.0289472 -4.1239 0
M  V30 3657 H 354.245 -0.24692 -0.616382 0
M  V30 3658 H 356.775 -1.30396 -1.57664 0
M  V30 3659 H 356.785 -0.87452 -3.98517 0
M  V30 3660 H 355.46 -1.97939 -3.65777 0
M  V30 3661 H 354.037 -0.149192 -3.72601 0
M  V30 3662 N 356.222 1.38976 -0.743202 0
M  V30 3663 C 357.185 2.28901 -0.117014 0
M  V30 3664 C 358.185 1.46698 0.658503 0
M  V30 3665 O 359.375 1.67274 0.486305 0
M  V30 3666 C 356.507 3.30309 0.84315 0
M  V30 3667 H 357.7 2.8578 -0.909373 0
M  V30 3668 H 355.253 1.47761 -0.509547 0
M  V30 3669 H 355.988 2.785 1.66157 0
M  V30 3670 H 355.773 3.91029 0.289594 0
M  V30 3671 H 357.263 3.97577 1.2776 0
M  V30 3672 N 357.7 0.491464 1.49741 0
M  V30 3673 C 358.663 -0.280906 2.27472 0
M  V30 3674 C 359.663 -0.902454 1.33088 0
M  V30 3675 O 360.853 -0.768465 1.56334 0
M  V30 3676 C 357.985 -1.40209 3.10732 0
M  V30 3677 H 359.178 0.401056 2.97206 0
M  V30 3678 H 356.731 0.246131 1.5435 0
M  V30 3679 H 357.466 -2.11849 2.45541 0
M  V30 3680 H 357.251 -0.961969 3.80117 0
M  V30 3681 H 358.741 -1.9464 3.69466 0
M  V30 3682 N 359.178 -1.55987 0.224894 0
M  V30 3683 C 360.403 -2.03232 -0.41369 0
M  V30 3684 C 360.828 -1.10359 -1.52323 0
M  V30 3685 O 360.186 -0.092395 -1.81064 0
M  V30 3686 C 360.234 -3.48682 -0.919405 0
M  V30 3687 O 359.338 -3.58947 -2.03054 0
M  V30 3688 H 358.679 -0.657428 -0.0931903 0
M  V30 3689 H 361.209 -2.01679 0.34451 0
M  V30 3690 H 361.219 -3.8907 -1.22835 0
M  V30 3691 H 359.894 -4.15761 -0.107339 0
M  V30 3692 H 358.471 -3.30448 -1.72796 0
M  V30 3693 N 360.656 0.0484629 -1.57525 0
M  V30 3694 C 361.619 1.03956 -2.04269 0
M  V30 3695 C 362.619 1.30211 -0.943496 0
M  V30 3696 O 363.809 1.25539 -1.20771 0
M  V30 3697 C 360.941 2.37742 -2.44319 0
M  V30 3698 H 362.134 0.636182 -2.93075 0
M  V30 3699 H 359.687 0.294811 -1.53494 0
M  V30 3700 H 360.422 2.82866 -1.5861 0
M  V30 3701 H 360.207 2.20021 -3.24551 0
M  V30 3702 H 361.697 3.08936 -2.80978 0
M  V30 3703 N 362.134 1.5431 0.320358 0
M  V30 3704 C 363.097 1.83195 1.3774 0
M  V30 3705 C 364.097 0.703906 1.44575 0
M  V30 3706 O 365.287 0.972214 1.44546 0
M  V30 3707 C 362.419 1.99487 2.76438 0
M  V30 3708 H 363.612 2.77642 1.1338 0
M  V30 3709 H 361.165 1.46076 0.556012 0
M  V30 3710 H 361.9 1.07262 3.06048 0
M  V30 3711 H 361.685 2.81575 2.7287 0
M  V30 3712 H 363.175 2.23271 3.52902 0
M  V30 3713 N 363.613 -0.582584 1.46437 0
M  V30 3714 C 364.561 -1.71272 1.5738 0
M  V30 3715 C 365.555 -1.63524 0.44229 0
M  V30 3716 O 366.761 -1.69016 0.619166 0
M  V30 3717 H 363.136 -0.566273 0.494813 0
M  V30 3718 H 365.107 -1.59174 2.52401 0
M  V30 3719 C 363.856 -3.09658 1.58136 0
M  V30 3720 H 363.179 -3.16291 2.44541 0
M  V30 3721 H 364.619 -3.88494 1.69847 0
M  V30 3722 C 363.078 -3.3547 0.310026 0
M  V30 3723 O 363.608 -3.97199 -0.599683 0
M  V30 3724 N 361.814 -2.89925 0.197901 0
M  V30 3725 H 361.361 -2.39873 0.93909 0
M  V30 3726 H 361.319 -3.07568 -0.65185 0
M  V30 3727 N 365.091 -1.34144 -0.827227 0
M  V30 3728 C 366.054 -1.25264 -1.91942 0
M  V30 3729 C 367.054 -0.168866 -1.59911 0
M  V30 3730 O 368.244 -0.421198 -1.69031 0
M  V30 3731 C 365.376 -0.932952 -3.27885 0
M  V30 3732 H 366.569 -2.22357 -2.0124 0
M  V30 3733 H 364.122 -1.1837 -1.0207 0
M  V30 3734 H 364.857 0.0349917 -3.24281 0
M  V30 3735 H 364.642 -1.71682 -3.52516 0
M  V30 3736 H 366.132 -0.895874 -4.07877 0
M  V30 3737 N 366.569 1.04691 -1.17803 0
M  V30 3738 C 367.532 2.10724 -0.901545 0
M  V30 3739 C 368.532 1.6042 0.110437 0
M  V30 3740 O 369.722 1.7377 -0.122303 0
M  V30 3741 C 366.854 3.39084 -0.351409 0
M  V30 3742 H 368.047 2.36686 -1.84174 0
M  V30 3743 H 365.6 1.21015 -0.98919 0
M  V30 3744 H 366.335 3.18782 0.59569 0
M  V30 3745 H 366.12 3.76909 -1.08083 0
M  V30 3746 H 367.61 4.17227 -0.176451 0
M  V30 3747 N 368.047 0.979072 1.23499 0
M  V30 3748 C 369.296 0.642751 1.91185 0
M  V30 3749 C 369.609 -0.827253 1.77245 0
M  V30 3750 O 370.815 -1.27458 2.39722 0
M  V30 3751 C 369.271 1.09901 3.42709 0
M  V30 3752 C 368.879 2.59327 3.65313 0
M  V30 3753 C 370.623 0.836371 4.16179 0
M  V30 3754 C 368.53 2.98627 5.10467 0
M  V30 3755 H 367.46 0.236698 0.715884 0
M  V30 3756 H 370.111 1.1868 1.39955 0
M  V30 3757 H 368.493 0.48319 3.93041 0
M  V30 3758 H 369.667 3.26136 3.25533 0
M  V30 3759 H 367.982 2.83323 3.05151 0
M  V30 3760 H 370.579 1.10586 5.23139 0
M  V30 3761 H 370.922 -0.227509 4.15678 0
M  V30 3762 H 371.455 1.41371 3.71832 0
M  V30 3763 H 368.194 4.04133 5.16098 0
M  V30 3764 H 367.714 2.3651 5.51201 0
M  V30 3765 H 369.393 2.89159 5.78788 0
M  V30 3766 N 369.525 -1.3858 0.750561 0
M  V30 3767 C 370.802 -1.94231 0.231009 0
M  V30 3768 C 371.182 -1.68611 -1.27018 0
M  V30 3769 O 370.53 -1.02296 -2.04323 0
M  V30 3770 C 370.74 -3.44123 0.581428 0
M  V30 3771 C 372.088 -4.2116 0.539389 0
M  V30 3772 O 373.112 -3.52391 0.519541 0
M  V30 3773 O 371.971 -5.43749 0.54765 0
M  V30 3774 H 369.065 -0.825639 0.0474263 0
M  V30 3775 H 371.611 -1.4799 0.830478 0
M  V30 3776 H 370.383 -3.56267 1.61833 0
M  V30 3777 H 370.006 -3.97573 -0.0462047 0
M  V30 3778 N 371.003 -0.499398 -1.49478 0
M  V30 3779 C 371.953 0.299103 -2.2603 0
M  V30 3780 C 372.937 0.936934 -1.30807 0
M  V30 3781 O 374.129 0.844798 -1.55538 0
M  V30 3782 C 371.258 1.36391 -3.15044 0
M  V30 3783 C 370.344 0.732398 -4.17728 0
M  V30 3784 N 370.735 -0.164028 -5.05534 0
M  V30 3785 C 369.033 0.993162 -4.34801 0
M  V30 3786 C 369.734 -0.525345 -5.79323 0
M  V30 3787 N 368.71 0.106348 -5.43496 0
M  V30 3788 H 372.512 -0.391003 -2.91287 0
M  V30 3789 H 370.026 -0.31537 -1.59308 0
M  V30 3790 H 372.023 1.94939 -3.68516 0
M  V30 3791 H 370.683 2.05571 -2.51338 0
M  V30 3792 H 371.694 -0.534736 -5.15132 0
M  V30 3793 H 368.371 1.67783 -3.82302 0
M  V30 3794 H 369.761 -1.25862 -6.60006 0
M  V30 3795 N 372.481 1.55866 -0.233164 0
M  V30 3796 C 373.73 1.97779 0.39579 0
M  V30 3797 C 374.043 1.12419 1.60066 0
M  V30 3798 O 375.249 1.44283 2.29988 0
M  V30 3799 C 373.705 3.5188 0.755556 0
M  V30 3800 C 373.313 4.45959 -0.427152 0
M  V30 3801 C 375.057 4.02479 1.34946 0
M  V30 3802 C 372.964 5.91383 -0.0443043 0
M  V30 3803 H 371.894 0.738592 0.15165 0
M  V30 3804 H 374.545 1.80486 -0.331212 0
M  V30 3805 H 372.927 3.64816 1.5403 0
M  V30 3806 H 374.101 4.44776 -1.20462 0
M  V30 3807 H 372.416 4.05765 -0.935068 0
M  V30 3808 H 375.013 5.08637 1.649 0
M  V30 3809 H 375.356 3.49014 2.26925 0
M  V30 3810 H 375.889 3.92813 0.62791 0
M  V30 3811 H 372.628 6.48857 -0.930874 0
M  V30 3812 H 372.148 5.95734 0.697238 0
M  V30 3813 H 373.827 6.45893 0.378334 0
M  V30 3814 N 373.959 -0.0401083 1.57549 0
M  V30 3815 C 374.909 -1.05175 2.02292 0
M  V30 3816 C 375.893 -1.32674 0.910294 0
M  V30 3817 O 377.085 -1.32444 1.17421 0
M  V30 3818 C 374.214 -2.35622 2.49674 0
M  V30 3819 C 373.3 -2.11261 3.67736 0
M  V30 3820 N 373.691 -1.56923 4.80842 0
M  V30 3821 C 371.989 -2.41596 3.74897 0
M  V30 3822 C 372.69 -1.48111 5.62528 0
M  V30 3823 N 371.666 -1.95282 5.07312 0
M  V30 3824 H 375.468 -0.625455 2.87168 0
M  V30 3825 H 372.982 -0.246624 1.60516 0
M  V30 3826 H 374.979 -3.08893 2.79983 0
M  V30 3827 H 373.639 -2.7894 1.662 0
M  V30 3828 H 374.65 -1.25345 5.02503 0
M  V30 3829 H 371.327 -2.88064 3.02201 0
M  V30 3830 H 372.717 -1.06683 6.63377 0
M  V30 3831 N 375.437 -1.54477 -0.31217 0
M  V30 3832 C 376.714 -1.63891 -1.06767 0
M  V30 3833 C 377.094 -0.480028 -2.0557 0
M  V30 3834 O 376.442 0.524487 -2.22399 0
M  V30 3835 C 376.652 -3.01402 -1.75948 0
M  V30 3836 C 378 -3.57838 -2.28554 0
M  V30 3837 O 379.024 -3.03782 -1.85998 0
M  V30 3838 O 377.883 -4.52462 -3.06497 0
M  V30 3839 H 374.977 -0.664125 -0.492816 0
M  V30 3840 H 377.523 -1.66823 -0.311149 0
M  V30 3841 H 376.295 -3.77187 -1.04144 0
M  V30 3842 H 375.918 -3.02199 -2.58383 0
M  V30 3843 N 376.915 0.57481 -1.46744 0
M  V30 3844 C 378.161 1.33251 -1.53674 0
M  V30 3845 C 378.516 1.91468 -0.189125 0
M  V30 3846 O 377.809 1.73954 0.803151 0
M  V30 3847 C 378.003 2.476 -2.57738 0
M  V30 3848 C 377.832 2.00586 -4.02487 0
M  V30 3849 C 376.602 1.85237 -4.70123 0
M  V30 3850 C 378.8 1.56078 -4.90045 0
M  V30 3851 N 376.782 1.32377 -5.99458 0
M  V30 3852 C 378.153 1.14863 -6.09267 0
M  V30 3853 C 380.208 1.43968 -4.76632 0
M  V30 3854 C 378.911 0.627435 -7.16558 0
M  V30 3855 C 380.937 0.932512 -5.84002 0
M  V30 3856 C 380.299 0.53019 -7.02402 0
M  V30 3857 H 376.398 0.480284 -0.617131 0
M  V30 3858 H 378.982 0.653592 -1.83402 0
M  V30 3859 H 377.153 3.13045 -2.29907 0
M  V30 3860 H 378.885 3.14567 -2.54616 0
M  V30 3861 H 375.64 2.07423 -4.25761 0
M  V30 3862 H 376.064 1.08085 -6.68316 0
M  V30 3863 H 380.706 1.73689 -3.85476 0
M  V30 3864 H 378.424 0.317821 -8.07475 0
M  V30 3865 H 382.01 0.842611 -5.75666 0
M  V30 3866 H 380.89 0.14381 -7.84068 0
M  V30 3867 N 378.394 1.34581 0.820102 0
M  V30 3868 C 379.64 1.27285 1.57881 0
M  V30 3869 C 379.973 -0.156137 1.93571 0
M  V30 3870 O 379.248 -1.10222 1.60254 0
M  V30 3871 C 379.531 2.16639 2.87645 0
M  V30 3872 C 379.384 3.68088 2.58517 0
M  V30 3873 C 380.703 2.05378 3.8924 0
M  V30 3874 H 377.822 0.463714 0.572833 0
M  V30 3875 H 380.464 1.64859 0.944539 0
M  V30 3876 H 378.614 1.84725 3.41773 0
M  V30 3877 H 380.286 4.10382 2.10676 0
M  V30 3878 H 378.529 3.89038 1.91917 0
M  V30 3879 H 379.2 4.2598 3.51063 0
M  V30 3880 H 381.676 2.33404 3.44473 0
M  V30 3881 H 380.552 2.7012 4.77835 0
M  V30 3882 H 380.813 1.0316 4.29896 0
M  V30 3883 N 379.872 -1.04064 1.18357 0
M  V30 3884 C 380.802 -2.14001 0.934113 0
M  V30 3885 C 381.783 -1.69616 -0.128186 0
M  V30 3886 O 382.968 -1.94185 0.0244093 0
M  V30 3887 C 380.098 -3.44253 0.459066 0
M  V30 3888 C 379.052 -4.02261 1.46185 0
M  V30 3889 C 378.378 -5.27992 0.844322 0
M  V30 3890 C 379.678 -4.38432 2.83856 0
M  V30 3891 H 381.372 -2.35127 1.85352 0
M  V30 3892 H 378.918 -1.12998 0.892604 0
M  V30 3893 H 380.871 -4.20522 0.271907 0
M  V30 3894 H 379.595 -3.22813 -0.495912 0
M  V30 3895 H 378.254 -3.28074 1.63595 0
M  V30 3896 H 377.902 -5.02862 -0.117845 0
M  V30 3897 H 377.602 -5.67765 1.51384 0
M  V30 3898 H 379.126 -6.06938 0.667693 0
M  V30 3899 H 380.54 -5.05688 2.70098 0
M  V30 3900 H 378.937 -4.89254 3.47491 0
M  V30 3901 H 380.007 -3.4826 3.37406 0
M  V30 3902 N 381.35 -0.985608 -1.22978 0
M  V30 3903 C 382.598 -0.656087 -1.91154 0
M  V30 3904 C 382.919 0.813561 -1.77218 0
M  V30 3905 O 382.189 1.58244 -1.1548 0
M  V30 3906 H 380.769 -0.239674 -0.707506 0
M  V30 3907 H 383.431 -1.25054 -1.49491 0
M  V30 3908 H 382.527 -0.912253 -2.9847 0
M  V30 3909 N 382.828 1.3818 -0.7579 0
M  V30 3910 C 384.056 2.04301 -0.326937 0
M  V30 3911 C 384.471 1.57163 1.0462 0
M  V30 3912 O 383.828 0.746626 1.66529 0
M  V30 3913 C 383.879 3.59846 -0.345363 0
M  V30 3914 O 383.6 4.05256 -1.66432 0
M  V30 3915 C 385.101 4.4319 0.098927 0
M  V30 3916 H 382.321 0.656443 -0.139012 0
M  V30 3917 H 384.865 1.76786 -1.02796 0
M  V30 3918 H 383.02 3.86182 0.306955 0
M  V30 3919 H 383.434 4.99709 -1.59345 0
M  V30 3920 H 384.908 5.51989 0.0348745 0
M  V30 3921 H 385.385 4.23947 1.14741 0
M  V30 3922 H 385.991 4.22051 -0.52468 0
M  V30 3923 N 384.306 0.507319 1.49211 0
M  V30 3924 C 385.269 -0.256763 2.27757 0
M  V30 3925 C 386.269 -0.888287 1.34038 0
M  V30 3926 O 387.459 -0.751841 1.5714 0
M  V30 3927 C 384.591 -1.36905 3.12202 0
M  V30 3928 H 385.784 0.432557 2.96764 0
M  V30 3929 H 383.337 0.262488 1.5408 0
M  V30 3930 H 384.072 -2.09233 2.47775 0
M  V30 3931 H 383.857 -0.921599 3.81115 0
M  V30 3932 H 385.347 -1.9071 3.7151 0
M  V30 3933 N 385.784 -1.5574 0.241426 0
M  V30 3934 C 387.032 -1.98417 -0.384075 0
M  V30 3935 C 387.353 -1.13078 -1.58866 0
M  V30 3936 O 386.623 -0.212312 -1.94746 0
M  V30 3937 H 385.203 -0.732813 -0.144894 0
M  V30 3938 H 387.865 -1.9193 0.338943 0
M  V30 3939 H 386.961 -3.04219 -0.696939 0
M  V30 3940 N 387.262 0.0317525 -1.57568 0
M  V30 3941 C 388.209 1.0332 -2.06382 0
M  V30 3942 C 389.179 1.36082 -0.952414 0
M  V30 3943 O 390.364 1.46466 -1.2228 0
M  V30 3944 C 387.504 2.32989 -2.54578 0
M  V30 3945 C 386.617 2.0641 -3.79498 0
M  V30 3946 C 385.752 3.2993 -4.16317 0
M  V30 3947 C 384.791 2.98893 -5.34162 0
M  V30 3948 N 383.928 4.14857 -5.66426 0
M  V30 3949 H 388.768 0.609982 -2.9169 0
M  V30 3950 H 386.305 0.289573 -1.44222 0
M  V30 3951 H 388.263 3.0875 -2.80587 0
M  V30 3952 H 386.893 2.73039 -1.7219 0
M  V30 3953 H 385.945 1.21158 -3.6059 0
M  V30 3954 H 387.257 1.79513 -4.65378 0
M  V30 3955 H 386.411 4.1406 -4.4344 0
M  V30 3956 H 385.15 3.59938 -3.29083 0
M  V30 3957 H 384.155 2.13164 -5.06795 0
M  V30 3958 H 385.38 2.70165 -6.23047 0
M  V30 3959 H 383.326 4.44821 -4.82151 0
M  V30 3960 H 383.243 3.91374 -6.4681 0
M  V30 3961 H 384.511 4.99868 -5.98124 0
M  V30 3962 N 388.74 1.54641 0.303973 0
M  V30 3963 C 389.986 1.74969 1.03718 0
M  V30 3964 C 390.341 0.527461 1.85029 0
M  V30 3965 O 389.634 -0.480143 1.85486 0
M  V30 3966 C 389.828 2.97753 1.97681 0
M  V30 3967 C 389.657 4.318 1.25613 0
M  V30 3968 C 388.427 4.95616 0.984518 0
M  V30 3969 C 390.625 5.10021 0.662081 0
M  V30 3970 N 388.607 6.13455 0.233794 0
M  V30 3971 C 389.978 6.19984 0.0439736 0
M  V30 3972 C 392.033 4.94663 0.566835 0
M  V30 3973 C 390.736 7.16264 -0.66016 0
M  V30 3974 C 392.762 5.91271 -0.123637 0
M  V30 3975 C 392.124 7.00601 -0.730608 0
M  V30 3976 H 388.223 0.692873 0.362562 0
M  V30 3977 H 390.807 1.92116 0.316135 0
M  V30 3978 H 388.978 2.82036 2.6704 0
M  V30 3979 H 390.71 3.06621 2.64132 0
M  V30 3980 H 387.465 4.55921 1.28191 0
M  V30 3981 H 387.889 6.76879 -0.127996 0
M  V30 3982 H 392.531 4.10267 1.02181 0
M  V30 3983 H 390.249 8.00204 -1.12691 0
M  V30 3984 H 393.835 5.81466 -0.197236 0
M  V30 3985 H 392.715 7.7407 -1.2564 0
M  V30 3986 N 390.218 -0.567019 1.47046 0
M  V30 3987 C 391.446 -1.35027 1.56765 0
M  V30 3988 C 391.861 -1.8758 0.214316 0
M  V30 3989 O 391.218 -1.64471 -0.790919 0
M  V30 3990 C 391.269 -2.52698 2.58507 0
M  V30 3991 O 390.99 -2.0232 3.88585 0
M  V30 3992 C 392.491 -3.45043 2.78316 0
M  V30 3993 H 389.711 -0.41195 0.529658 0
M  V30 3994 H 392.255 -0.687832 1.92585 0
M  V30 3995 H 390.41 -3.149 2.25648 0
M  V30 3996 H 390.824 -2.79068 4.44096 0
M  V30 3997 H 392.298 -4.2405 3.53391 0
M  V30 3998 H 392.775 -3.97971 1.85784 0
M  V30 3999 H 393.381 -2.88665 3.12334 0
M  V30 4000 N 391.696 -1.35014 -0.812953 0
M  V30 4001 C 392.924 -1.31031 -1.6012 0
M  V30 4002 C 393.339 0.113558 -1.88458 0
M  V30 4003 O 392.696 1.06363 -1.48301 0
M  V30 4004 C 392.747 -2.10872 -2.93624 0
M  V30 4005 O 392.468 -3.47706 -2.66518 0
M  V30 4006 C 393.969 -2.14401 -3.88004 0
M  V30 4007 H 391.189 -0.45037 -0.497401 0
M  V30 4008 H 393.733 -1.77775 -1.01076 0
M  V30 4009 H 391.888 -1.67744 -3.492 0
M  V30 4010 H 392.302 -3.89097 -3.51715 0
M  V30 4011 H 393.776 -2.74669 -4.78812 0
M  V30 4012 H 394.253 -1.14105 -4.24119 0
M  V30 4013 H 394.859 -2.57662 -3.38364 0
M  V30 4014 N 393.175 1.03435 -1.18907 0
M  V30 4015 C 394.108 2.11162 -0.86521 0
M  V30 4016 C 395.086 1.6165 0.175473 0
M  V30 4017 O 396.27 1.88425 0.0530129 0
M  V30 4018 C 393.397 3.37423 -0.293868 0
M  V30 4019 C 392.443 4.05795 -1.31274 0
M  V30 4020 S 393.276 4.52027 -2.8711 0
M  V30 4021 C 394.432 5.81513 -2.31504 0
M  V30 4022 H 394.665 2.38308 -1.77754 0
M  V30 4023 H 392.198 1.16295 -1.01562 0
M  V30 4024 H 394.156 4.1049 0.0292572 0
M  V30 4025 H 392.817 3.0838 0.596682 0
M  V30 4026 H 392.01 4.96574 -0.86198 0
M  V30 4027 H 391.612 3.38874 -1.58242 0
M  V30 4028 H 393.904 6.55784 -1.70157 0
M  V30 4029 H 394.847 6.3136 -3.20608 0
M  V30 4030 H 395.255 5.36921 -1.74286 0
M  V30 4031 N 394.653 0.992116 1.22453 0
M  V30 4032 C 395.901 0.666215 1.90804 0
M  V30 4033 C 396.222 -0.804152 1.77647 0
M  V30 4034 O 395.492 -1.57629 1.16318 0
M  V30 4035 H 394.072 0.243423 0.706225 0
M  V30 4036 H 396.734 1.25845 1.48825 0
M  V30 4037 H 395.83 0.928069 2.97982 0
M  V30 4038 N 396.131 -1.37776 0.765217 0
M  V30 4039 C 397.38 -1.99092 0.323307 0
M  V30 4040 C 397.693 -1.61434 -1.10446 0
M  V30 4041 O 398.899 -2.15805 -1.64743 0
M  V30 4042 C 397.355 -3.56019 0.527098 0
M  V30 4043 C 396.963 -4.0262 1.96471 0
M  V30 4044 C 398.707 -4.2424 0.148483 0
M  V30 4045 C 396.614 -5.52233 2.11644 0
M  V30 4046 H 395.544 -0.744846 0.117137 0
M  V30 4047 H 398.195 -1.57391 0.943417 0
M  V30 4048 H 396.577 -3.95667 -0.162372 0
M  V30 4049 H 397.751 -3.74234 2.68859 0
M  V30 4050 H 396.066 -3.47161 2.29931 0
M  V30 4051 H 398.663 -5.34159 0.240456 0
M  V30 4052 H 399.006 -4.06446 -0.900422 0
M  V30 4053 H 399.539 -3.89872 0.79025 0
M  V30 4054 H 396.278 -5.74945 3.1483 0
M  V30 4055 H 395.798 -5.82324 1.4373 0
M  V30 4056 H 397.477 -6.18106 1.91193 0
M  V30 4057 N 397.609 -0.515225 -1.4894 0
M  V30 4058 C 399.02 -0.0710067 -1.86565 0
M  V30 4059 C 399.371 1.34733 -1.42623 0
M  V30 4060 O 398.496 2.00653 -0.810379 0
M  V30 4061 C 399.091 -0.122083 -3.3858 0
M  V30 4062 C 397.65 0.266863 -3.75453 0
M  V30 4063 C 396.797 -0.488376 -2.72966 0
M  V30 4064 H 399.748 -0.727266 -1.41055 0
M  V30 4065 H 399.769 0.669818 -3.74558 0
M  V30 4066 H 399.281 -1.15448 -3.70531 0
M  V30 4067 H 397.382 1.30196 -3.49113 0
M  V30 4068 H 397.495 -0.0624811 -4.79059 0
M  V30 4069 H 395.859 0.0635622 -2.54621 0
M  V30 4070 H 396.642 -1.52113 -3.07761 0
M  V30 4071 N 399.087 1.5561 -0.249682 0
M  V30 4072 C 400.312 2.03865 0.381305 0
M  V30 4073 C 400.737 1.12769 1.50548 0
M  V30 4074 O 400.095 0.121189 1.80895 0
M  V30 4075 C 400.143 3.50101 0.863816 0
M  V30 4076 O 399.247 3.62132 1.97318 0
M  V30 4077 H 398.588 0.658827 0.0827194 0
M  V30 4078 H 401.118 2.01105 -0.376552 0
M  V30 4079 H 401.128 3.90975 1.1663 0
M  V30 4080 H 399.803 4.1588 0.0411816 0
M  V30 4081 H 398.38 3.33155 1.67517 0
M  V30 4082 N 400.565 -0.0233959 1.57583 0
M  V30 4083 C 401.842 -0.748794 1.807 0
M  V30 4084 C 402.222 -1.9327 0.849106 0
M  V30 4085 O 401.57 -2.28247 -0.107468 0
M  V30 4086 C 401.78 -1.17651 3.28571 0
M  V30 4087 C 403.128 -1.59008 3.93702 0
M  V30 4088 O 404.152 -1.27094 3.32755 0
M  V30 4089 O 403.011 -2.18264 5.01022 0
M  V30 4090 H 400.105 -0.362578 0.743281 0
M  V30 4091 H 402.651 0.000261958 1.697 0
M  V30 4092 H 401.423 -0.331603 3.89892 0
M  V30 4093 H 401.046 -1.98541 3.44481 0
M  V30 4094 N 402.043 -1.548 -0.295768 0
M  V30 4095 C 403.291 -1.73985 -1.02828 0
M  V30 4096 C 403.612 -0.531406 -1.87619 0
M  V30 4097 O 402.882 0.454221 -1.90561 0
M  V30 4098 H 401.462 -0.641556 -0.382642 0
M  V30 4099 H 404.124 -1.92163 -0.325489 0
M  V30 4100 H 403.22 -2.63129 -1.67838 0
M  V30 4101 N 403.521 0.559213 -1.47345 0
M  V30 4102 C 404.746 1.34676 -1.57725 0
M  V30 4103 C 405.171 1.86723 -0.227164 0
M  V30 4104 O 404.529 1.6286 0.796642 0
M  V30 4105 C 404.577 2.49399 -2.60447 0
M  V30 4106 O 403.681 3.51567 -2.15578 0
M  V30 4107 H 403.022 0.400115 -0.52991 0
M  V30 4108 H 405.552 0.676009 -1.93109 0
M  V30 4109 H 405.562 2.95996 -2.80803 0
M  V30 4110 H 404.237 2.10873 -3.58477 0
M  V30 4111 H 402.814 3.11289 -2.05313 0
M  V30 4112 N 404.999 1.35443 0.805782 0
M  V30 4113 C 406.229 1.31687 1.59192 0
M  V30 4114 C 406.637 -0.10756 1.88894 0
M  V30 4115 O 405.98 -1.07017 1.49309 0
M  V30 4116 C 406.042 2.05686 2.94845 0
M  V30 4117 C 405.706 3.54868 2.87954 0
M  V30 4118 C 406.703 4.49444 2.61335 0
M  V30 4119 C 404.388 3.97528 3.07046 0
M  V30 4120 C 406.382 5.84655 2.53885 0
M  V30 4121 C 404.069 5.32833 2.99219 0
M  V30 4122 C 405.067 6.26209 2.72674 0
M  V30 4123 O 404.755 7.59032 2.64811 0
M  V30 4124 H 404.487 0.453878 0.50097 0
M  V30 4125 H 407.041 1.78892 1.0093 0
M  V30 4126 H 405.271 1.5312 3.55093 0
M  V30 4127 H 406.96 1.94998 3.55993 0
M  V30 4128 H 407.726 4.17804 2.46303 0
M  V30 4129 H 403.605 3.25233 3.26718 0
M  V30 4130 H 407.149 6.57508 2.33086 0
M  V30 4131 H 403.046 5.64087 3.13809 0
M  V30 4132 H 403.814 7.68967 2.80413 0
M  V30 4133 N 406.477 -1.02803 1.19454 0
M  V30 4134 C 407.725 -1.75869 0.995722 0
M  V30 4135 C 408.046 -1.89138 -0.474543 0
M  V30 4136 O 407.316 -1.42558 -1.34366 0
M  V30 4137 H 405.896 -0.651511 0.365435 0
M  V30 4138 H 408.558 -1.24004 1.50363 0
M  V30 4139 H 407.654 -2.76661 1.44447 0
M  V30 4140 N 407.956 -0.998596 -1.21925 0
M  V30 4141 C 409.205 -0.673085 -1.90138 0
M  V30 4142 C 409.518 0.79895 -1.78539 0
M  V30 4143 O 410.724 1.23628 -2.4172 0
M  V30 4144 C 409.18 -1.15339 -3.40918 0
M  V30 4145 C 408.788 -2.65106 -3.61141 0
M  V30 4146 C 410.532 -0.902476 -4.14796 0
M  V30 4147 C 408.439 -3.0671 -5.05651 0
M  V30 4148 H 407.369 -0.248057 -0.712028 0
M  V30 4149 H 410.02 -1.20891 -1.38049 0
M  V30 4150 H 408.402 -0.545658 -3.92223 0
M  V30 4151 H 409.576 -3.31274 -3.20304 0
M  V30 4152 H 407.891 -2.88142 -3.00605 0
M  V30 4153 H 410.488 -1.18895 -5.21314 0
M  V30 4154 H 410.831 0.161349 -4.15987 0
M  V30 4155 H 411.364 -1.47269 -3.69536 0
M  V30 4156 H 408.103 -4.12292 -5.09603 0
M  V30 4157 H 407.623 -2.45249 -5.47369 0
M  V30 4158 H 409.302 -2.9833 -5.74115 0
M  V30 4159 N 409.434 1.37368 -0.772513 0
M  V30 4160 C 410.845 1.8231 -0.402493 0
M  V30 4161 C 411.196 1.6436 1.07146 0
M  V30 4162 O 410.321 1.15514 1.82991 0
M  V30 4163 C 410.916 3.30979 -0.723776 0
M  V30 4164 C 409.475 3.74195 -0.406802 0
M  V30 4165 C 408.622 2.59885 -0.967218 0
M  V30 4166 H 411.573 1.25829 -0.967099 0
M  V30 4167 H 411.594 3.80499 -0.00870832 0
M  V30 4168 H 411.106 3.44011 -1.7966 0
M  V30 4169 H 409.207 3.66732 0.658673 0
M  V30 4170 H 409.32 4.7027 -0.915588 0
M  V30 4171 H 407.684 2.51674 -0.391416 0
M  V30 4172 H 408.467 2.7571 -2.04546 0
M  V30 4173 N 410.912 0.523116 1.48665 0
M  V30 4174 C 411.822 -0.247406 2.33292 0
M  V30 4175 C 412.838 -0.945769 1.46052 0
M  V30 4176 O 414.014 -0.922253 1.79043 0
M  V30 4177 C 411.079 -1.28487 3.22012 0
M  V30 4178 C 410.14 -0.597592 4.2512 0
M  V30 4179 C 409.373 -1.58563 5.09601 0
M  V30 4180 O 409.596 -2.81763 4.95949 0
M  V30 4181 O 408.53 -1.12879 5.91221 0
M  V30 4182 H 412.356 0.445869 3.00409 0
M  V30 4183 H 409.941 0.284128 1.46673 0
M  V30 4184 H 411.823 -1.88459 3.7691 0
M  V30 4185 H 410.498 -1.96068 2.57564 0
M  V30 4186 H 409.405 0.0424407 3.74076 0
M  V30 4187 H 410.738 0.0361517 4.92187 0
M  V30 4188 N 412.39 -1.55475 0.257931 0
M  V30 4189 C 413.638 -1.98813 -0.363009 0
M  V30 4190 C 413.959 -1.14757 -1.57657 0
M  V30 4191 O 413.229 -0.232956 -1.9451 0
M  V30 4192 H 411.809 -0.734308 -0.137113 0
M  V30 4193 H 414.471 -1.9156 0.359281 0
M  V30 4194 H 413.567 -3.04941 -0.664634 0
M  V30 4195 N 413.868 0.0150385 -1.57593 0
M  V30 4196 C 415.114 0.704043 -1.90187 0
M  V30 4197 C 415.447 1.74249 -0.857366 0
M  V30 4198 O 414.722 1.94092 0.125843 0
M  V30 4199 C 415.005 1.36087 -3.33395 0
M  V30 4200 C 414.858 0.334981 -4.48551 0
M  V30 4201 C 416.177 2.29112 -3.7576 0
M  V30 4202 H 413.296 0.254475 -0.691673 0
M  V30 4203 H 415.938 -0.0331678 -1.89971 0
M  V30 4204 H 414.088 1.98922 -3.3371 0
M  V30 4205 H 415.76 -0.292534 -4.60372 0
M  V30 4206 H 414.003 -0.344325 -4.32431 0
M  V30 4207 H 414.674 0.833316 -5.45674 0
M  V30 4208 H 417.15 1.76308 -3.76902 0
M  V30 4209 H 416.026 2.72043 -4.76743 0
M  V30 4210 H 416.287 3.16385 -3.08793 0
M  V30 4211 N 415.346 1.54954 0.287554 0
M  V30 4212 C 416.595 1.74081 1.01877 0
M  V30 4213 C 416.908 0.541135 1.87966 0
M  V30 4214 O 418.114 0.614491 2.64455 0
M  V30 4215 C 416.57 3.08042 1.86113 0
M  V30 4216 C 416.178 4.35531 1.04961 0
M  V30 4217 C 417.922 3.36523 2.58752 0
M  V30 4218 C 415.829 5.60538 1.88551 0
M  V30 4219 H 414.759 0.64884 0.384087 0
M  V30 4220 H 417.41 1.81426 0.275101 0
M  V30 4221 H 415.792 2.94696 2.64519 0
M  V30 4222 H 416.966 4.59751 0.31074 0
M  V30 4223 H 415.281 4.14085 0.43843 0
M  V30 4224 H 417.878 4.27122 3.21668 0
M  V30 4225 H 418.221 2.56 3.28283 0
M  V30 4226 H 418.754 3.50901 1.87386 0
M  V30 4227 H 415.493 6.43767 1.23466 0
M  V30 4228 H 415.013 5.40483 2.60074 0
M  V30 4229 H 416.692 5.98297 2.46273 0
M  V30 4230 N 416.824 -0.551391 1.4764 0
M  V30 4231 C 418.071 -1.3083 1.54563 0
M  V30 4232 C 418.399 -1.93359 0.210361 0
M  V30 4233 O 417.654 -1.78721 -0.797332 0
M  V30 4234 C 417.953 -2.43469 2.61644 0
M  V30 4235 C 417.619 -1.98732 4.04742 0
M  V30 4236 C 416.281 -1.86248 4.43695 0
M  V30 4237 C 418.633 -1.64659 4.94507 0
M  V30 4238 C 415.961 -1.37995 5.70241 0
M  V30 4239 C 418.313 -1.17875 6.21521 0
M  V30 4240 C 416.977 -1.03992 6.5935 0
M  V30 4241 H 416.247 -0.478741 0.565587 0
M  V30 4242 H 418.894 -0.617697 1.81264 0
M  V30 4243 H 417.199 -3.18109 2.28722 0
M  V30 4244 H 418.896 -3.01642 2.64222 0
M  V30 4245 H 415.486 -2.09393 3.73968 0
M  V30 4246 H 419.67 -1.73174 4.65107 0
M  V30 4247 H 414.926 -1.25915 5.98294 0
M  V30 4248 H 419.1 -0.905739 6.90485 0
M  V30 4249 H 416.727 -0.663794 7.57296 0
M  V30 4250 N 418.302 -1.35869 -0.798587 0
M  V30 4251 C 419.55 -1.29332 -1.55298 0
M  V30 4252 C 419.871 0.129729 -1.94568 0
M  V30 4253 O 419.141 1.06796 -1.6423 0
M  V30 4254 H 417.721 -0.475737 -0.57592 0
M  V30 4255 H 420.383 -1.70062 -0.952093 0
M  V30 4256 H 419.479 -1.91458 -2.46476 0
M  V30 4257 N 419.78 1.02168 -1.19998 0
M  V30 4258 C 421.027 1.75685 -1.00702 0
M  V30 4259 C 421.355 1.88947 0.461426 0
M  V30 4260 O 420.61 1.40832 1.35885 0
M  V30 4261 C 420.909 3.18081 -1.62969 0
M  V30 4262 C 420.575 3.24809 -3.12746 0
M  V30 4263 C 419.237 3.26352 -3.53621 0
M  V30 4264 C 421.589 3.23379 -4.08749 0
M  V30 4265 C 418.917 3.2413 -4.89036 0
M  V30 4266 C 421.269 3.22698 -5.44104 0
M  V30 4267 C 419.933 3.22542 -5.84399 0
M  V30 4268 H 419.203 0.642877 -0.368496 0
M  V30 4269 H 421.85 1.19865 -1.49348 0
M  V30 4270 H 420.155 3.77027 -1.06573 0
M  V30 4271 H 421.852 3.73648 -1.45561 0
M  V30 4272 H 418.442 3.2434 -2.80181 0
M  V30 4273 H 422.626 3.21361 -3.78207 0
M  V30 4274 H 417.882 3.22338 -5.19527 0
M  V30 4275 H 422.056 3.20543 -6.18244 0
M  V30 4276 H 419.683 3.20575 -6.89301 0
M  V30 4277 N 421.258 1.00505 1.21394 0
M  V30 4278 C 422.669 0.721082 1.72213 0
M  V30 4279 C 423.02 -0.761263 1.80829 0
M  V30 4280 O 422.145 -1.59464 1.46288 0
M  V30 4281 C 422.74 1.30228 3.12772 0
M  V30 4282 C 421.299 1.06743 3.60947 0
M  V30 4283 C 420.446 1.41507 2.38477 0
M  V30 4284 H 423.397 1.17594 1.06571 0
M  V30 4285 H 423.418 0.686955 3.74247 0
M  V30 4286 H 422.93 2.38115 3.06468 0
M  V30 4287 H 421.031 0.00572162 3.726 0
M  V30 4288 H 421.144 1.73936 4.46411 0
M  V30 4289 H 419.508 0.833852 2.40664 0
M  V30 4290 H 420.291 2.50424 2.34824 0
M  V30 4291 N 422.737 -1.36956 0.779787 0
M  V30 4292 C 423.983 -1.99787 0.348281 0
M  V30 4293 C 424.316 -1.61756 -1.07465 0
M  V30 4294 O 423.591 -0.867639 -1.74075 0
M  V30 4295 C 423.874 -3.56597 0.50104 0
M  V30 4296 C 423.727 -4.04513 1.96697 0
M  V30 4297 C 425.046 -4.40008 -0.0898097 0
M  V30 4298 H 422.165 -0.725796 0.128022 0
M  V30 4299 H 424.807 -1.62514 0.984331 0
M  V30 4300 H 422.957 -3.88479 -0.0404347 0
M  V30 4301 H 424.629 -3.83161 2.56876 0
M  V30 4302 H 422.872 -3.56408 2.47297 0
M  V30 4303 H 423.543 -5.1352 2.02486 0
M  V30 4304 H 426.019 -4.14431 0.372293 0
M  V30 4305 H 424.895 -5.4888 0.0471605 0
M  V30 4306 H 425.156 -4.26035 -1.18096 0
M  V30 4307 N 424.215 -0.530993 -1.48385 0
M  V30 4308 C 425.443 -0.00134122 -2.069 0
M  V30 4309 C 425.858 1.2805 -1.3874 0
M  V30 4310 O 425.215 1.76204 -0.475244 0
M  V30 4311 C 425.266 0.225256 -3.60798 0
M  V30 4312 O 424.987 -1.0058 -4.26398 0
M  V30 4313 C 426.488 0.795172 -4.3611 0
M  V30 4314 H 423.708 -0.0339704 -0.67014 0
M  V30 4315 H 426.252 -0.736926 -1.90761 0
M  V30 4316 H 424.407 0.910891 -3.76539 0
M  V30 4317 H 424.821 -0.787165 -5.1856 0
M  V30 4318 H 426.295 0.903143 -5.44562 0
M  V30 4319 H 426.772 1.80031 -4.00606 0
M  V30 4320 H 427.378 0.146069 -4.25049 0
M  V30 4321 N 425.693 1.55336 -0.266172 0
M  V30 4322 C 426.921 2.03801 0.356756 0
M  V30 4323 C 427.336 1.14485 1.50129 0
M  V30 4324 O 426.693 0.163121 1.8177 0
M  V30 4325 C 426.744 3.51455 0.846281 0
M  V30 4326 O 426.465 4.37371 -0.252663 0
M  V30 4327 C 427.966 4.15767 1.53794 0
M  V30 4328 H 425.186 0.665906 0.0825218 0
M  V30 4329 H 427.73 2.00636 -0.39566 0
M  V30 4330 H 425.885 3.55092 1.54881 0
M  V30 4331 H 426.299 5.24358 0.122173 0
M  V30 4332 H 427.773 5.20714 1.83198 0
M  V30 4333 H 428.25 3.63404 2.46646 0
M  V30 4334 H 428.856 4.16107 0.879488 0
M  V30 4335 N 427.171 -0.0066808 1.57599 0
M  V30 4336 C 428.081 -1.01671 2.11424 0
M  V30 4337 C 429.097 -1.38143 1.05795 0
M  V30 4338 O 430.273 -1.47011 1.37658 0
M  V30 4339 C 427.338 -2.29192 2.60139 0
M  V30 4340 C 426.399 -1.99094 3.80342 0
M  V30 4341 C 425.632 -3.20535 4.26724 0
M  V30 4342 O 425.855 -4.3199 3.72479 0
M  V30 4343 O 424.789 -3.04924 5.18946 0
M  V30 4344 H 428.615 -0.589181 2.9793 0
M  V30 4345 H 426.2 -0.225091 1.47695 0
M  V30 4346 H 428.082 -3.0412 2.917 0
M  V30 4347 H 426.757 -2.71195 1.76733 0
M  V30 4348 H 425.664 -1.21663 3.53764 0
M  V30 4349 H 426.997 -1.61931 4.648 0
M  V30 4350 N 428.649 -1.55105 -0.279332 0
M  V30 4351 C 429.597 -1.88333 -1.36505 0
M  V30 4352 C 430.591 -0.759043 -1.51443 0
M  V30 4353 O 431.797 -0.943312 -1.53302 0
M  V30 4354 H 428.172 -0.59766 -0.456406 0
M  V30 4355 H 430.143 -2.79041 -1.05728 0
M  V30 4356 C 428.892 -2.16628 -2.7197 0
M  V30 4357 H 428.215 -3.02624 -2.61264 0
M  V30 4358 H 429.655 -2.43803 -3.46895 0
M  V30 4359 C 428.114 -0.971807 -3.22579 0
M  V30 4360 O 428.644 -0.203228 -4.01186 0
M  V30 4361 N 426.85 -0.771238 -2.80179 0
M  V30 4362 H 426.397 -1.39792 -2.1637 0
M  V30 4363 H 426.355 0.0263667 -3.14389 0
M  V30 4364 N 430.127 0.543554 -1.4793 0
M  V30 4365 C 431.375 1.29752 -1.54948 0
M  V30 4366 C 431.696 1.93764 -0.219242 0
M  V30 4367 O 430.966 1.80639 0.75805 0
M  V30 4368 H 429.546 0.481874 -0.570795 0
M  V30 4369 H 432.208 0.633636 -1.84312 0
M  V30 4370 H 431.304 2.08392 -2.32334 0
M  V30 4371 N 431.605 1.3629 0.791371 0
M  V30 4372 C 432.515 1.32606 1.93527 0
M  V30 4373 C 433.531 0.228541 1.72493 0
M  V30 4374 O 434.707 0.460571 1.96063 0
M  V30 4375 C 431.772 1.11271 3.28359 0
M  V30 4376 C 430.833 2.3048 3.62185 0
M  V30 4377 C 430.066 2.10154 4.90583 0
M  V30 4378 O 430.289 1.07572 5.60165 0
M  V30 4379 O 429.223 2.97884 5.23019 0
M  V30 4380 H 433.049 2.28909 1.99585 0
M  V30 4381 H 430.634 1.16818 0.931344 0
M  V30 4382 H 432.516 1.01283 4.09047 0
M  V30 4383 H 431.191 0.180292 3.23198 0
M  V30 4384 H 430.098 2.46036 2.81811 0
M  V30 4385 H 431.431 3.22221 3.72068 0
M  V30 4386 N 433.083 -1.0153 1.20538 0
M  V30 4387 C 434.313 -1.78487 1.04048 0
M  V30 4388 C 434.721 -1.84631 -0.413292 0
M  V30 4389 O 434.064 -1.29919 -1.29872 0
M  V30 4390 C 434.126 -3.24367 1.55003 0
M  V30 4391 C 433.79 -3.41827 3.0332 0
M  V30 4392 C 434.787 -3.30941 4.00966 0
M  V30 4393 C 432.472 -3.67602 3.42307 0
M  V30 4394 C 434.466 -3.45577 5.35589 0
M  V30 4395 C 432.153 -3.81881 4.77085 0
M  V30 4396 C 433.151 -3.70874 5.73534 0
M  V30 4397 O 432.839 -3.84714 7.05868 0
M  V30 4398 H 432.571 -0.568108 0.366373 0
M  V30 4399 H 435.125 -1.28677 1.60098 0
M  V30 4400 H 433.355 -3.75266 0.933397 0
M  V30 4401 H 435.044 -3.82963 1.34514 0
M  V30 4402 H 435.81 -3.10964 3.72191 0
M  V30 4403 H 431.689 -3.75256 2.67776 0
M  V30 4404 H 435.233 -3.36902 6.10854 0
M  V30 4405 H 431.13 -4.01359 5.0555 0
M  V30 4406 H 431.898 -4.01724 7.13134 0
M  V30 4407 N 434.561 -1.01147 -1.20859 0
M  V30 4408 C 435.508 -0.577354 -2.23462 0
M  V30 4409 C 436.478 0.399922 -1.61214 0
M  V30 4410 O 437.663 0.300515 -1.88419 0
M  V30 4411 C 434.803 0.083372 -3.44999 0
M  V30 4412 C 433.916 -0.937856 -4.21697 0
M  V30 4413 C 433.051 -0.248717 -5.30617 0
M  V30 4414 C 432.09 -1.25705 -5.99053 0
M  V30 4415 N 431.227 -0.594939 -6.99575 0
M  V30 4416 H 436.067 -1.45695 -2.59956 0
M  V30 4417 H 433.604 -0.729428 -1.27741 0
M  V30 4418 H 435.562 0.483535 -4.14388 0
M  V30 4419 H 434.192 0.926645 -3.09214 0
M  V30 4420 H 433.244 -1.45622 -3.51423 0
M  V30 4421 H 434.556 -1.70493 -4.68757 0
M  V30 4422 H 433.71 0.207215 -6.06346 0
M  V30 4423 H 432.449 0.55071 -4.84581 0
M  V30 4424 H 431.454 -1.72343 -5.2209 0
M  V30 4425 H 432.679 -2.05767 -6.47176 0
M  V30 4426 H 430.625 0.184713 -6.5574 0
M  V30 4427 H 430.542 -1.30017 -7.44736 0
M  V30 4428 H 431.81 -0.162427 -7.79331 0
M  V30 4429 N 436.039 1.36541 -0.78704 0
M  V30 4430 C 437.288 1.98552 -0.35494 0
M  V30 4431 C 437.601 1.63171 1.07864 0
M  V30 4432 O 438.807 2.18399 1.61289 0
M  V30 4433 C 437.263 3.55136 -0.583671 0
M  V30 4434 C 436.871 3.99444 -2.02851 0
M  V30 4435 C 438.615 4.2395 -0.215957 0
M  V30 4436 C 436.522 5.48796 -2.20403 0
M  V30 4437 H 435.452 0.742888 -0.128972 0
M  V30 4438 H 438.103 1.5587 -0.968337 0
M  V30 4439 H 436.485 3.95875 0.0994046 0
M  V30 4440 H 437.659 3.6991 -2.74779 0
M  V30 4441 H 435.974 3.43459 -2.35425 0
M  V30 4442 H 438.571 5.33709 -0.325405 0
M  V30 4443 H 438.914 4.07827 0.835646 0
M  V30 4444 H 439.447 3.88565 -0.852175 0
M  V30 4445 H 436.186 5.69864 -3.23937 0
M  V30 4446 H 435.706 5.79964 -1.52977 0
M  V30 4447 H 437.385 6.14986 -2.01002 0
M  V30 4448 N 437.518 0.538854 1.48102 0
M  V30 4449 C 438.764 0.00801365 2.02798 0
M  V30 4450 C 439.097 -1.3309 1.41424 0
M  V30 4451 O 438.372 -1.86169 0.563158 0
M  V30 4452 C 438.655 -0.104589 3.59948 0
M  V30 4453 C 438.508 1.26012 4.31788 0
M  V30 4454 C 439.827 -0.827055 4.32259 0
M  V30 4455 H 436.946 0.00438624 0.736987 0
M  V30 4456 H 439.588 0.6976 1.7673 0
M  V30 4457 H 437.738 -0.691893 3.82289 0
M  V30 4458 H 439.41 1.88922 4.2084 0
M  V30 4459 H 437.653 1.83968 3.92859 0
M  V30 4460 H 438.324 1.13424 5.40221 0
M  V30 4461 H 440.8 -0.328578 4.14801 0
M  V30 4462 H 439.676 -0.87476 5.41885 0
M  V30 4463 H 439.937 -1.87927 4.0017 0
M  V30 4464 N 438.996 -1.55193 0.274407 0
M  V30 4465 C 439.928 -2.1989 -0.646595 0
M  V30 4466 C 440.941 -1.1834 -1.11801 0
M  V30 4467 O 442.13 -1.4507 -1.04004 0
M  V30 4468 C 439.23 -2.8104 -1.89393 0
M  V30 4469 C 438.403 -4.08274 -1.56943 0
M  V30 4470 C 437.462 -4.53478 -2.66916 0
M  V30 4471 O 436.488 -5.19267 -2.33132 0
M  V30 4472 N 437.69 -4.2356 -3.9696 0
M  V30 4473 H 440.455 -2.99556 -0.0928686 0
M  V30 4474 H 438.016 -1.61618 0.0954783 0
M  V30 4475 H 440.008 -3.08226 -2.62257 0
M  V30 4476 H 438.578 -2.05372 -2.35672 0
M  V30 4477 H 437.798 -3.88384 -0.674655 0
M  V30 4478 H 439.086 -4.91173 -1.32764 0
M  V30 4479 H 438.484 -3.70799 -4.27229 0
M  V30 4480 H 437.041 -4.55518 -4.66205 0
M  V30 4481 N 440.474 -0.00167713 -1.576 0
M  V30 4482 C 441.722 0.681471 -1.90264 0
M  V30 4483 C 442.043 1.7422 -0.875924 0
M  V30 4484 O 441.313 1.95709 0.0864412 0
M  V30 4485 H 439.893 0.254696 -0.702239 0
M  V30 4486 H 442.555 -0.0429996 -1.94853 0
M  V30 4487 H 441.651 1.15166 -2.90075 0
M  V30 4488 N 441.952 1.55251 0.271103 0
M  V30 4489 C 442.882 1.9127 1.33933 0
M  V30 4490 C 443.863 0.77478 1.5143 0
M  V30 4491 O 445.048 1.03307 1.64442 0
M  V30 4492 C 442.178 2.18627 2.69851 0
M  V30 4493 C 441.132 3.34442 2.67081 0
M  V30 4494 C 440.458 3.47284 4.06569 0
M  V30 4495 C 441.758 4.70784 2.26185 0
M  V30 4496 H 443.452 2.80744 1.04035 0
M  V30 4497 H 440.998 1.35077 0.499017 0
M  V30 4498 H 442.951 2.42413 3.44694 0
M  V30 4499 H 441.675 1.25955 3.01335 0
M  V30 4500 H 440.334 3.10627 1.94695 0
M  V30 4501 H 439.982 2.52074 4.35279 0
M  V30 4502 H 439.682 4.25152 4.0561 0
M  V30 4503 H 441.206 3.73363 4.83148 0
M  V30 4504 H 442.62 4.94102 2.90751 0
M  V30 4505 H 441.017 5.51582 2.36384 0
M  V30 4506 H 442.087 4.69478 1.21319 0
M  V30 4507 N 443.43 -0.535701 1.48216 0
M  V30 4508 C 444.655 -1.32149 1.59848 0
M  V30 4509 C 445.08 -1.86338 0.256842 0
M  V30 4510 O 444.438 -1.64107 -0.770632 0
M  V30 4511 C 444.486 -2.45224 2.64381 0
M  V30 4512 O 443.59 -3.48093 2.21144 0
M  V30 4513 H 442.931 -0.391634 0.536208 0
M  V30 4514 H 445.461 -0.645202 1.94161 0
M  V30 4515 H 445.471 -2.91491 2.85476 0
M  V30 4516 H 444.146 -2.05143 3.61786 0
M  V30 4517 H 442.723 -3.07984 2.10239 0
M  V30 4518 N 444.908 -1.36708 -0.784132 0
M  V30 4519 C 446.157 -1.30559 -1.53744 0
M  V30 4520 C 446.47 0.111374 -1.95283 0
M  V30 4521 O 447.676 0.29527 -2.6989 0
M  V30 4522 C 446.132 -2.29098 -2.77565 0
M  V30 4523 C 445.74 -3.76258 -2.43174 0
M  V30 4524 C 447.484 -2.31936 -3.55536 0
M  V30 4525 C 445.391 -4.6656 -3.63422 0
M  V30 4526 H 444.321 -0.48518 -0.577162 0
M  V30 4527 H 446.972 -1.62101 -0.859981 0
M  V30 4528 H 445.354 -1.90557 -3.47137 0
M  V30 4529 H 446.528 -4.23565 -1.81465 0
M  V30 4530 H 444.843 -3.76246 -1.78403 0
M  V30 4531 H 447.44 -2.9661 -4.44889 0
M  V30 4532 H 447.783 -1.3294 -3.94503 0
M  V30 4533 H 448.316 -2.6912 -2.92949 0
M  V30 4534 H 445.055 -5.66638 -3.29547 0
M  V30 4535 H 444.575 -4.23966 -4.24279 0
M  V30 4536 H 446.254 -4.8309 -4.30387 0
M  V30 4537 N 446.386 1.0089 -1.21074 0
M  V30 4538 C 447.663 1.71834 -0.934469 0
M  V30 4539 C 448.043 2.0368 0.554753 0
M  V30 4540 O 447.391 1.70742 1.51854 0
M  V30 4541 C 447.601 2.98061 -1.8155 0
M  V30 4542 C 448.949 3.7117 -2.06199 0
M  V30 4543 O 449.973 3.08034 -1.78867 0
M  V30 4544 O 448.832 4.84721 -2.52404 0
M  V30 4545 H 445.926 0.749253 -0.35007 0
M  V30 4546 H 448.472 1.06668 -1.31985 0
M  V30 4547 H 447.244 2.70908 -2.82355 0
M  V30 4548 H 446.867 3.70968 -1.43068 0
M  V30 4549 N 447.864 1.01787 1.20321 0
M  V30 4550 C 448.827 0.593972 2.2137 0
M  V30 4551 C 449.827 -0.336553 1.57239 0
M  V30 4552 O 451.017 -0.125069 1.7375 0
M  V30 4553 C 448.149 -0.132433 3.40643 0
M  V30 4554 H 449.342 1.48791 2.60387 0
M  V30 4555 H 446.895 0.807803 1.33807 0
M  V30 4556 H 447.63 -1.04123 3.0713 0
M  V30 4557 H 447.415 0.53605 3.88418 0
M  V30 4558 H 448.905 -0.416314 4.1552 0
M  V30 4559 N 449.342 -1.36122 0.79427 0
M  V30 4560 C 450.589 -1.99111 0.368905 0
M  V30 4561 C 450.917 -1.63032 -1.0607 0
M  V30 4562 O 450.172 -0.879303 -1.74833 0
M  V30 4563 C 450.471 -3.5409 0.48527 0
M  V30 4564 C 450.137 -4.10003 1.87638 0
M  V30 4565 C 448.799 -4.24986 2.257 0
M  V30 4566 C 451.151 -4.40423 2.78706 0
M  V30 4567 C 448.479 -4.67701 3.54221 0
M  V30 4568 C 450.831 -4.84573 4.0666 0
M  V30 4569 C 449.495 -4.97761 4.44737 0
M  V30 4570 H 448.765 -0.7286 0.134992 0
M  V30 4571 H 451.412 -1.62534 1.01267 0
M  V30 4572 H 449.717 -3.91052 -0.241984 0
M  V30 4573 H 451.414 -4.00766 0.137109 0
M  V30 4574 H 448.004 -3.98784 1.57064 0
M  V30 4575 H 452.188 -4.28412 2.50553 0
M  V30 4576 H 447.444 -4.761 3.83587 0
M  V30 4577 H 451.618 -5.07074 4.77336 0
M  V30 4578 H 449.245 -5.30618 5.44379 0
M  V30 4579 N 450.82 -0.546701 -1.47814 0
M  V30 4580 C 452.045 -0.021268 -2.07389 0
M  V30 4581 C 452.47 1.25822 -1.39822 0
M  V30 4582 O 451.828 1.75111 -0.46968 0
M  V30 4583 C 451.876 0.168502 -3.60206 0
M  V30 4584 O 450.98 1.23347 -3.93522 0
M  V30 4585 H 450.321 -0.0466108 -0.662362 0
M  V30 4586 H 452.851 -0.759387 -1.89985 0
M  V30 4587 H 452.861 0.385982 -4.0617 0
M  V30 4588 H 451.536 -0.766075 -4.08784 0
M  V30 4589 H 450.113 0.997319 -3.59316 0
M  V30 4590 N 452.299 1.55045 -0.282633 0
M  V30 4591 C 453.231 2.2023 0.634924 0
M  V30 4592 C 454.244 1.18931 1.11172 0
M  V30 4593 O 455.433 1.4562 1.03233 0
M  V30 4594 C 452.533 2.82041 1.87899 0
M  V30 4595 C 451.706 4.091 1.54776 0
M  V30 4596 C 450.765 4.54887 2.64507 0
M  V30 4597 O 449.791 5.20496 2.30375 0
M  V30 4598 N 450.993 4.25659 3.94709 0
M  V30 4599 H 453.758 2.99601 0.0769811 0
M  V30 4600 H 451.319 1.61565 -0.104048 0
M  V30 4601 H 453.311 3.09613 2.60619 0
M  V30 4602 H 451.881 2.06618 2.3458 0
M  V30 4603 H 451.101 3.88736 0.654049 0
M  V30 4604 H 452.389 4.9187 1.30158 0
M  V30 4605 H 451.787 3.7306 4.25256 0
M  V30 4606 H 450.344 4.57984 4.63782 0
M  V30 4607 N 453.777 0.010035 1.57597 0
M  V30 4608 C 454.687 -0.994226 2.12491 0
M  V30 4609 C 455.703 -1.37013 1.07254 0
M  V30 4610 O 456.879 -1.45542 1.3921 0
M  V30 4611 C 453.944 -2.2642 2.62555 0
M  V30 4612 C 453.005 -1.95049 3.82432 0
M  V30 4613 C 452.238 -3.15991 4.30099 0
M  V30 4614 O 452.461 -4.28015 3.7704 0
M  V30 4615 O 451.395 -2.99403 5.22151 0
M  V30 4616 H 455.221 -0.557549 2.98538 0
M  V30 4617 H 452.806 -0.209413 1.47925 0
M  V30 4618 H 454.688 -3.01009 2.9491 0
M  V30 4619 H 453.363 -2.69306 1.796 0
M  V30 4620 H 452.27 -1.17904 3.55034 0
M  V30 4621 H 453.603 -1.56992 4.66491 0
M  V30 4622 N 455.255 -1.55392 -0.262866 0
M  V30 4623 C 456.671 -1.47459 -0.610582 0
M  V30 4624 C 456.871 -0.697031 -1.8906 0
M  V30 4625 O 455.927 -0.219952 -2.5154 0
M  V30 4626 C 457.24 -2.91751 -0.728131 0
M  V30 4627 C 458.788 -3.02027 -0.821517 0
M  V30 4628 C 459.263 -4.47594 -0.97076 0
M  V30 4629 N 460.754 -4.51465 -1.03603 0
M  V30 4630 C 461.489 -5.61326 -1.17049 0
M  V30 4631 N 460.985 -6.81032 -1.2715 0
M  V30 4632 N 462.778 -5.49089 -1.20239 0
M  V30 4633 H 454.929 -2.04395 0.577632 0
M  V30 4634 H 457.192 -0.927287 0.197086 0
M  V30 4635 H 456.898 -3.51413 0.142132 0
M  V30 4636 H 456.772 -3.4134 -1.6052 0
M  V30 4637 H 459.159 -2.42456 -1.68224 0
M  V30 4638 H 459.24 -2.55674 0.0803688 0
M  V30 4639 H 458.884 -5.07771 -0.114655 0
M  V30 4640 H 458.814 -4.91613 -1.88745 0
M  V30 4641 H 461.305 -3.6524 -0.96996 0
M  V30 4642 H 461.618 -7.60511 -1.37271 0
M  V30 4643 H 459.963 -6.83824 -1.24136 0
M  V30 4644 H 463.154 -4.54507 -1.11985 0
M  V30 4645 H 463.327 -6.34749 -1.30373 0
M  V30 4646 N 456.733 0.527833 -1.48498 0
M  V30 4647 C 457.982 1.28003 -1.55878 0
M  V30 4648 C 458.295 1.9414 -0.238577 0
M  V30 4649 O 459.501 2.7083 -0.190643 0
M  V30 4650 C 457.957 2.32272 -2.74914 0
M  V30 4651 C 457.565 1.72196 -4.13585 0
M  V30 4652 C 459.309 3.08488 -2.91608 0
M  V30 4653 C 457.216 2.74417 -5.23879 0
M  V30 4654 H 456.146 0.481413 -0.580308 0
M  V30 4655 H 458.797 0.557195 -1.74836 0
M  V30 4656 H 457.179 3.07601 -2.49395 0
M  V30 4657 H 458.353 1.03041 -4.49132 0
M  V30 4658 H 456.668 1.08464 -4.02025 0
M  V30 4659 H 459.265 3.84879 -3.71177 0
M  V30 4660 H 459.608 3.64481 -2.01145 0
M  V30 4661 H 460.141 2.40274 -3.17038 0
M  V30 4662 H 456.88 2.23242 -6.16314 0
M  V30 4663 H 456.4 3.41893 -4.92818 0
M  V30 4664 H 458.079 3.37362 -5.52083 0
M  V30 4665 N 458.211 1.37122 0.776871 0
M  V30 4666 C 459.159 1.32549 1.91138 0
M  V30 4667 C 460.153 0.215119 1.68029 0
M  V30 4668 O 461.359 0.382852 1.75881 0
M  V30 4669 H 457.734 0.412952 0.62847 0
M  V30 4670 H 459.705 2.28332 1.92112 0
M  V30 4671 C 458.454 1.14422 3.28333 0
M  V30 4672 H 457.777 1.99115 3.46689 0
M  V30 4673 H 459.217 1.15272 4.0803 0
M  V30 4674 C 457.676 -0.150434 3.36564 0
M  V30 4675 O 458.206 -1.13584 3.85307 0
M  V30 4676 N 456.412 -0.19939 2.89915 0
M  V30 4677 H 455.959 0.603142 2.5044 0
M  V30 4678 H 455.917 -1.06526 2.95803 0
M  V30 4679 N 459.689 -1.00246 1.21608 0
M  V30 4680 C 460.935 -1.74319 1.03638 0
M  V30 4681 C 461.268 -1.89408 -0.428749 0
M  V30 4682 O 460.543 -1.43026 -1.3181 0
M  V30 4683 C 460.826 -3.15431 1.73711 0
M  V30 4684 C 460.679 -3.08049 3.27759 0
M  V30 4685 C 461.998 -4.14407 1.48173 0
M  V30 4686 H 459.117 -0.632741 0.377899 0
M  V30 4687 H 461.759 -1.16853 1.49818 0
M  V30 4688 H 459.909 -3.64493 1.34452 0
M  V30 4689 H 461.581 -2.66681 3.76403 0
M  V30 4690 H 459.824 -2.45088 3.57931 0
M  V30 4691 H 460.495 -4.07862 3.71958 0
M  V30 4692 H 462.971 -3.74061 1.82258 0
M  V30 4693 H 461.847 -5.11279 1.99713 0
M  V30 4694 H 462.108 -4.40174 0.412273 0
M  V30 4695 N 461.167 -1.02423 -1.1978 0
M  V30 4696 C 462.395 -0.737456 -1.93311 0
M  V30 4697 C 462.81 0.703023 -1.75223 0
M  V30 4698 O 462.167 1.47761 -1.07112 0
M  V30 4699 C 462.218 -1.0733 -3.45199 0
M  V30 4700 O 461.939 -2.4572 -3.62702 0
M  V30 4701 C 463.44 -0.80866 -4.35862 0
M  V30 4702 H 460.66 -0.2702 -0.614193 0
M  V30 4703 H 463.204 -1.36747 -1.52054 0
M  V30 4704 H 461.359 -0.488545 -3.84307 0
M  V30 4705 H 461.773 -2.58081 -4.56612 0
M  V30 4706 H 463.247 -1.09365 -5.41057 0
M  V30 4707 H 463.724 0.257025 -4.38447 0
M  V30 4708 H 464.33 -1.37592 -4.02428 0
M  V30 4709 N 462.645 1.35699 -0.801477 0
M  V30 4710 C 463.575 2.32436 -0.222658 0
M  V30 4711 C 464.556 1.5723 0.649057 0
M  V30 4712 O 465.741 1.85324 0.580387 0
M  V30 4713 C 462.871 3.41469 0.633719 0
M  V30 4714 C 461.825 4.27774 -0.139083 0
M  V30 4715 C 461.151 5.28082 0.838666 0
M  V30 4716 C 462.451 5.04946 -1.33517 0
M  V30 4717 H 464.145 2.81094 -1.03086 0
M  V30 4718 H 461.691 1.35146 -0.497155 0
M  V30 4719 H 463.644 4.08143 1.04868 0
M  V30 4720 H 462.368 2.91408 1.47475 0
M  V30 4721 H 461.027 3.62673 -0.535156 0
M  V30 4722 H 460.675 4.7429 1.67506 0
M  V30 4723 H 460.375 5.86695 0.32594 0
M  V30 4724 H 461.899 5.97628 1.25194 0
M  V30 4725 H 463.313 5.64593 -0.995349 0
M  V30 4726 H 461.71 5.7303 -1.78202 0
M  V30 4727 H 462.78 4.35886 -2.12442 0
M  V30 4728 N 464.123 0.554532 1.47522 0
M  V30 4729 C 465.071 -0.207765 2.3167 0
M  V30 4730 C 466.065 -0.911914 1.4276 0
M  V30 4731 O 467.271 -0.833504 1.59539 0
M  V30 4732 H 463.646 -0.0858726 0.747081 0
M  V30 4733 H 465.617 0.521178 2.93813 0
M  V30 4734 C 464.366 -1.2263 3.25357 0
M  V30 4735 H 463.689 -0.693887 3.93732 0
M  V30 4736 H 465.129 -1.73062 3.87073 0
M  V30 4737 C 463.588 -2.27278 2.4869 0
M  V30 4738 O 464.118 -3.34156 2.22941 0
M  V30 4739 N 462.324 -2.01134 2.09746 0
M  V30 4740 H 461.871 -1.14232 2.30887 0
M  V30 4741 H 461.829 -2.71369 1.58765 0
M  V30 4742 N 465.601 -1.54893 0.290851 0
M  V30 4743 C 466.511 -2.26812 -0.59945 0
M  V30 4744 C 467.527 -1.29963 -1.15696 0
M  V30 4745 O 468.703 -1.62928 -1.18391 0
M  V30 4746 C 465.768 -2.98716 -1.75982 0
M  V30 4747 C 464.829 -4.1108 -1.2374 0
M  V30 4748 C 464.062 -4.79546 -2.34246 0
M  V30 4749 O 464.285 -4.47309 -3.53936 0
M  V30 4750 O 463.219 -5.67165 -2.01512 0
M  V30 4751 H 467.045 -3.03696 -0.0163561 0
M  V30 4752 H 464.63 -1.49289 0.0576755 0
M  V30 4753 H 466.512 -3.43851 -2.43607 0
M  V30 4754 H 465.187 -2.24737 -2.3297 0
M  V30 4755 H 464.094 -3.70367 -0.527163 0
M  V30 4756 H 465.427 -4.87007 -0.71307 0
M  V30 4757 N 467.08 -0.0183926 -1.57589 0
M  V30 4758 C 468.01 0.965596 -2.12599 0
M  V30 4759 C 468.991 1.34641 -1.0395 0
M  V30 4760 O 470.176 1.42693 -1.31729 0
M  V30 4761 C 467.306 2.25149 -2.64434 0
M  V30 4762 C 466.26 2.01175 -3.77773 0
M  V30 4763 C 465.586 3.35937 -4.15994 0
M  V30 4764 C 466.886 1.35953 -5.04296 0
M  V30 4765 H 468.58 0.507504 -2.95067 0
M  V30 4766 H 466.126 0.242671 -1.41941 0
M  V30 4767 H 468.079 2.94357 -3.01549 0
M  V30 4768 H 466.803 2.73105 -1.79112 0
M  V30 4769 H 465.462 1.34388 -3.4108 0
M  V30 4770 H 465.11 3.81631 -3.27669 0
M  V30 4771 H 464.81 3.20705 -4.92364 0
M  V30 4772 H 466.334 4.0643 -4.55683 0
M  V30 4773 H 467.748 1.95144 -5.39065 0
M  V30 4774 H 466.145 1.31152 -5.85593 0
M  V30 4775 H 467.215 0.331071 -4.83768 0
M  V30 4776 N 468.558 1.5553 0.254621 0
M  V30 4777 C 469.488 1.9268 1.31897 0
M  V30 4778 C 470.469 0.790797 1.506 0
M  V30 4779 O 471.654 1.05045 1.63337 0
M  V30 4780 C 468.784 2.21477 2.67517 0
M  V30 4781 C 467.738 3.37256 2.63519 0
M  V30 4782 C 467.064 3.51576 4.02862 0
M  V30 4783 C 468.364 4.73157 2.21179 0
M  V30 4784 H 470.058 2.81832 1.01051 0
M  V30 4785 H 467.604 1.35599 0.484662 0
M  V30 4786 H 469.557 2.46055 3.42104 0
M  V30 4787 H 468.281 1.29144 2.99982 0
M  V30 4788 H 466.94 3.12675 1.9139 0
M  V30 4789 H 466.588 2.56676 4.32581 0
M  V30 4790 H 466.288 4.2943 4.01078 0
M  V30 4791 H 467.812 3.78467 4.79161 0
M  V30 4792 H 469.226 4.97158 2.85494 0
M  V30 4793 H 467.623 5.54058 2.30521 0
M  V30 4794 H 468.693 4.70739 1.16332 0
M  V30 4795 N 470.036 -0.519951 1.48776 0
M  V30 4796 C 470.946 -1.65025 1.66745 0
M  V30 4797 C 471.962 -1.6508 0.549954 0
M  V30 4798 O 473.138 -1.83848 0.822295 0
M  V30 4799 C 470.203 -3.0146 1.71238 0
M  V30 4800 C 469.264 -3.12182 2.94688 0
M  V30 4801 C 468.497 -4.42109 2.98958 0
M  V30 4802 O 468.72 -5.29799 2.1135 0
M  V30 4803 O 467.654 -4.57406 3.91233 0
M  V30 4804 H 471.48 -1.52801 2.62461 0
M  V30 4805 H 469.065 -0.694157 1.32294 0
M  V30 4806 H 470.947 -3.82584 1.76657 0
M  V30 4807 H 469.622 -3.13988 0.786975 0
M  V30 4808 H 468.529 -2.30316 2.94797 0
M  V30 4809 H 469.862 -3.04574 3.86646 0
M  V30 4810 N 471.514 -1.37532 -0.769588 0
M  V30 4811 C 472.424 -1.35668 -1.91393 0
M  V30 4812 C 473.44 -0.255954 -1.72107 0
M  V30 4813 O 474.616 -0.491704 -1.95305 0
M  V30 4814 C 471.681 -1.16481 -3.26547 0
M  V30 4815 C 470.742 -2.36212 -3.58472 0
M  V30 4816 C 469.975 -2.17932 -4.87177 0
M  V30 4817 O 470.198 -1.1647 -5.58382 0
M  V30 4818 O 469.132 -3.06167 -5.18214 0
M  V30 4819 H 472.958 -2.32055 -1.95918 0
M  V30 4820 H 470.543 -1.18284 -0.912641 0
M  V30 4821 H 472.425 -1.07778 -4.07384 0
M  V30 4822 H 471.1 -0.231687 -3.2287 0
M  V30 4823 H 470.007 -2.50488 -2.77861 0
M  V30 4824 H 471.34 -3.281 -3.66894 0
M  V30 4825 N 472.992 0.995999 -1.22138 0
M  V30 4826 C 473.924 2.08745 -0.946485 0
M  V30 4827 C 474.937 1.62633 0.0737356 0
M  V30 4828 O 476.126 1.77782 -0.159886 0
M  V30 4829 C 473.226 3.36516 -0.401305 0
M  V30 4830 C 472.399 4.11672 -1.47801 0
M  V30 4831 C 471.458 5.17728 -0.940461 0
M  V30 4832 O 470.484 5.45482 -1.62596 0
M  V30 4833 N 471.686 5.80005 0.239723 0
M  V30 4834 H 474.451 2.32908 -1.88611 0
M  V30 4835 H 472.012 1.16152 -1.12785 0
M  V30 4836 H 474.004 4.04691 -0.0270837 0
M  V30 4837 H 472.574 3.0944 0.443354 0
M  V30 4838 H 471.794 3.38171 -2.02568 0
M  V30 4839 H 473.082 4.58657 -2.20253 0
M  V30 4840 H 472.48 5.5982 0.813518 0
M  V30 4841 H 471.037 6.4943 0.555361 0
M  V30 4842 N 474.47 1.03057 1.19235 0
M  V30 4843 C 475.418 0.606391 2.24557 0
M  V30 4844 C 476.412 -0.361826 1.65491 0
M  V30 4845 O 477.618 -0.23022 1.78522 0
M  V30 4846 H 473.993 0.177838 0.730669 0
M  V30 4847 H 475.964 1.50529 2.5765 0
M  V30 4848 C 474.713 -0.0252127 3.47691 0
M  V30 4849 H 474.036 0.710838 3.9343 0
M  V30 4850 H 475.476 -0.284931 4.23042 0
M  V30 4851 C 473.935 -1.27229 3.11953 0
M  V30 4852 O 474.465 -2.36416 3.24762 0
M  V30 4853 N 472.671 -1.16169 2.6637 0
M  V30 4854 H 472.218 -0.273189 2.56147 0
M  V30 4855 H 472.176 -1.99703 2.42829 0
M  V30 4856 N 475.948 -1.35272 0.808662 0
M  V30 4857 C 477.196 -1.98316 0.389233 0
M  V30 4858 C 477.517 -1.64465 -1.04767 0
M  V30 4859 O 476.787 -0.928175 -1.72516 0
M  V30 4860 H 475.367 -0.733585 0.140935 0
M  V30 4861 H 478.029 -1.6515 1.03496 0
M  V30 4862 H 477.125 -3.08123 0.496631 0
M  V30 4863 N 477.426 -0.562348 -1.47226 0
M  V30 4864 C 478.672 -0.0402761 -2.0276 0
M  V30 4865 C 479.005 1.30823 -1.43523 0
M  V30 4866 O 478.28 1.85249 -0.592705 0
M  V30 4867 C 478.563 0.047311 -3.60069 0
M  V30 4868 C 478.416 -1.32865 -4.29729 0
M  V30 4869 C 479.735 0.758182 -4.3352 0
M  V30 4870 H 476.854 -0.0161105 -0.736824 0
M  V30 4871 H 479.496 -0.725628 -1.75598 0
M  V30 4872 H 477.646 0.630986 -3.83342 0
M  V30 4873 H 479.318 -1.95593 -4.17781 0
M  V30 4874 H 477.561 -1.90195 -3.89882 0
M  V30 4875 H 478.232 -1.22004 -5.38349 0
M  V30 4876 H 480.708 0.262546 -4.15271 0
M  V30 4877 H 479.584 0.78844 -5.43208 0
M  V30 4878 H 479.845 1.81537 -4.03109 0
M  V30 4879 N 478.904 1.54736 -0.299062 0
M  V30 4880 C 479.836 2.20891 0.61153 0
M  V30 4881 C 480.849 1.20104 1.09904 0
M  V30 4882 O 482.038 1.46707 1.01683 0
M  V30 4883 C 479.138 2.84018 1.84897 0
M  V30 4884 C 478.311 4.10719 1.50428 0
M  V30 4885 C 477.37 4.57667 2.59667 0
M  V30 4886 O 476.396 5.2291 2.24842 0
M  V30 4887 N 477.598 4.29821 3.90172 0
M  V30 4888 H 480.363 2.99666 0.0452001 0
M  V30 4889 H 477.924 1.61446 -0.121178 0
M  V30 4890 H 479.916 3.1236 2.5732 0
M  V30 4891 H 478.486 2.09095 2.32375 0
M  V30 4892 H 477.706 3.89408 0.612781 0
M  V30 4893 H 478.994 4.93223 1.24934 0
M  V30 4894 H 478.392 3.77549 4.21276 0
M  V30 4895 H 476.949 4.62877 4.58899 0
M  V30 4896 N 480.382 0.0267497 1.57577 0
M  V30 4897 C 481.332 -0.965003 2.06571 0
M  V30 4898 C 482.316 -1.28694 0.965746 0
M  V30 4899 O 483.508 -1.27345 1.22932 0
M  V30 4900 C 480.637 -2.24821 2.59443 0
M  V30 4901 C 479.723 -1.95474 3.76365 0
M  V30 4902 N 480.114 -1.36387 4.87065 0
M  V30 4903 C 478.412 -2.25478 3.84806 0
M  V30 4904 C 479.113 -1.24119 5.68304 0
M  V30 4905 N 478.089 -1.7359 5.15138 0
M  V30 4906 H 481.891 -0.503095 2.89562 0
M  V30 4907 H 479.405 -0.178322 1.61418 0
M  V30 4908 H 481.402 -2.9674 2.92833 0
M  V30 4909 H 480.062 -2.7164 1.77881 0
M  V30 4910 H 481.073 -1.03919 5.07367 0
M  V30 4911 H 477.75 -2.74987 3.14147 0
M  V30 4912 H 479.14 -0.784504 6.67304 0
M  V30 4913 N 481.861 -1.55662 -0.24637 0
M  V30 4914 C 482.791 -1.93377 -1.30873 0
M  V30 4915 C 483.772 -0.798773 -1.50179 0
M  V30 4916 O 484.957 -1.0591 -1.62778 0
M  V30 4917 C 482.087 -2.22893 -2.66338 0
M  V30 4918 C 481.041 -3.38649 -2.61727 0
M  V30 4919 C 480.367 -3.53708 -4.00992 0
M  V30 4920 C 481.667 -4.74323 -2.18666 0
M  V30 4921 H 483.361 -2.82363 -0.995552 0
M  V30 4922 H 480.907 -1.35854 -0.477464 0
M  V30 4923 H 482.86 -2.47866 -3.40794 0
M  V30 4924 H 481.584 -1.30733 -2.99293 0
M  V30 4925 H 480.243 -3.13685 -1.89729 0
M  V30 4926 H 479.891 -2.58967 -4.31214 0
M  V30 4927 H 479.591 -4.31551 -3.98795 0
M  V30 4928 H 481.115 -3.81003 -4.77147 0
M  V30 4929 H 482.529 -4.98665 -2.82854 0
M  V30 4930 H 480.926 -5.55273 -2.27579 0
M  V30 4931 H 481.996 -4.71349 -1.13834 0
M  V30 4932 N 483.339 0.512053 -1.4905 0
M  V30 4933 C 484.269 1.62365 -1.67809 0
M  V30 4934 C 485.25 1.61737 -0.526809 0
M  V30 4935 O 486.435 1.78651 -0.761404 0
M  V30 4936 C 483.565 3.00895 -1.73435 0
M  V30 4937 C 482.519 3.16387 -2.88242 0
M  V30 4938 C 481.845 4.56157 -2.78971 0
M  V30 4939 C 483.145 2.97457 -4.29321 0
M  V30 4940 H 484.839 1.46921 -2.60873 0
M  V30 4941 H 482.385 0.705379 -1.2554 0
M  V30 4942 H 484.338 3.78549 -1.85145 0
M  V30 4943 H 483.062 3.17403 -0.769619 0
M  V30 4944 H 481.721 2.41155 -2.76116 0
M  V30 4945 H 481.369 4.69525 -1.8043 0
M  V30 4946 H 481.069 4.67465 -3.5602 0
M  V30 4947 H 482.593 5.35886 -2.92675 0
M  V30 4948 H 484.007 3.64888 -4.42187 0
M  V30 4949 H 482.404 3.20245 -5.07507 0
M  V30 4950 H 483.474 1.93692 -4.44535 0
M  V30 4951 N 484.817 1.37938 0.762283 0
M  V30 4952 C 486.065 1.33404 1.51815 0
M  V30 4953 C 486.386 -0.0780975 1.94844 0
M  V30 4954 O 485.656 -1.02405 1.67003 0
M  V30 4955 H 484.236 0.490839 0.563104 0
M  V30 4956 H 486.898 1.72527 0.906669 0
M  V30 4957 H 485.994 1.97926 2.41313 0
M  V30 4958 O 486.334 -0.902626 1.33921 0
M  V30 4959 H 487.025 -1.53762 1.178 0
M  V30 END ATOM
M  V30 BEGIN BOND
M  V30 END BOND
M  V30 END CTAB
M  END
$$$$
