drugbank_target|Q96C86 m7GpppX diphosphatase (DB01649; DB01960; DB03593; DB03958; DB07642; DB07643; DB07644)
 OpenBabel12092119503D

  0  0  0     0  0            999 V3000
M  V30 BEGIN CTAB
M  V30 COUNTS 5434 5494 0 0 0
M  V30 BEGIN ATOM
M  V30 1 H -0.908 1.98254 -0.117106 0
M  V30 2 N 0 1.576 0 0
M  V30 3 C 0.933 2.03868 1.02534 0
M  V30 4 C 1.911 0.928543 1.3348 0
M  V30 5 O 3.095 1.19667 1.45644 0
M  V30 6 C 0.222 2.43627 2.35294 0
M  V30 7 C -0.732 3.65373 2.2001 0
M  V30 8 S 0.101 5.13292 1.52614 0
M  V30 9 C 1.257 5.56322 2.86805 0
M  V30 10 H 1.49 2.90518 0.631377 0
M  V30 11 H -0.977 1.52953 0.210867 0
M  V30 12 H 0.981 2.67203 3.11629 0
M  V30 13 H -0.358 1.57376 2.7183 0
M  V30 14 H -1.165 3.90944 3.18086 0
M  V30 15 H -1.563 3.418 1.51819 0
M  V30 16 H 0.729 5.58782 3.83104 0
M  V30 17 H 1.672 6.56266 2.65933 0
M  V30 18 H 2.08 4.83886 2.90714 0
M  V30 19 N 1.4781 -0.272755 1.55222 0
M  V30 20 C 2.4411 -1.32041 1.87344 0
M  V30 21 C 3.4411 -1.42342 0.74803 0
M  V30 22 O 4.6311 -1.41488 1.0162 0
M  V30 23 C 1.7631 -2.70173 2.07893 0
M  V30 24 H 2.9561 -1.04789 2.80997 0
M  V30 25 H 0.5091 -0.51083 1.47717 0
M  V30 26 H 1.2441 -3.02605 1.16622 0
M  V30 27 H 1.0291 -2.64082 2.89833 0
M  V30 28 H 2.5191 -3.45869 2.34017 0
M  V30 29 N 2.9562 -1.48159 -0.537278 0
M  V30 30 C 4.2332 -1.46291 -1.29839 0
M  V30 31 C 4.6132 -0.170613 -2.10409 0
M  V30 32 O 3.9612 0.847746 -2.12192 0
M  V30 33 C 4.1712 -2.72055 -2.18603 0
M  V30 34 C 5.5192 -3.20087 -2.7898 0
M  V30 35 O 6.5432 -2.72921 -2.28894 0
M  V30 36 O 5.4022 -4.02138 -3.70064 0
M  V30 37 H 2.4962 -0.583906 -0.585647 0
M  V30 38 H 5.0422 -1.60384 -0.554534 0
M  V30 39 H 3.8142 -3.57628 -1.58801 0
M  V30 40 H 3.4372 -2.60646 -3.00249 0
M  V30 41 N 4.4343 0.785586 -1.36625 0
M  V30 42 C 5.3973 1.87999 -1.31107 0
M  V30 43 C 6.3973 1.59316 -0.217959 0
M  V30 44 O 7.5873 1.67656 -0.472977 0
M  V30 45 C 4.7193 3.24861 -1.03334 0
M  V30 46 H 5.9123 1.94307 -2.2844 0
M  V30 47 H 3.4653 0.983813 -1.21453 0
M  V30 48 H 4.2003 3.24235 -0.0647432 0
M  V30 49 H 3.9853 3.4707 -1.82441 0
M  V30 50 H 5.4753 4.04929 -1.02088 0
M  V30 51 N 5.9124 1.20967 1.01018 0
M  V30 52 C 6.8754 0.965918 2.07853 0
M  V30 53 C 7.8754 -0.0610545 1.60684 0
M  V30 54 O 9.0654 0.175681 1.73312 0
M  V30 55 C 6.1974 0.455513 3.37843 0
M  V30 56 H 7.3904 1.91365 2.3091 0
M  V30 57 H 4.9434 1.02594 1.17916 0
M  V30 58 H 5.6784 -0.497381 3.20463 0
M  V30 59 H 5.4634 1.19622 3.73407 0
M  V30 60 H 6.9534 0.304667 4.16487 0
M  V30 61 N 7.3905 -1.2043 1.01659 0
M  V30 62 C 8.8015 -1.71517 0.737482 0
M  V30 63 C 9.1525 -1.81547 -0.743973 0
M  V30 64 O 8.2775 -1.47803 -1.58061 0
M  V30 65 C 8.8725 -3.11515 1.33206 0
M  V30 66 C 7.4315 -3.59912 1.10183 0
M  V30 67 C 6.5785 -2.37116 1.43776 0
M  V30 68 H 9.5295 -1.05444 1.18606 0
M  V30 69 H 9.5505 -3.73575 0.722636 0
M  V30 70 H 9.0625 -3.04182 2.41028 0
M  V30 71 H 7.1635 -3.72577 0.0412756 0
M  V30 72 H 7.2765 -4.44731 1.78188 0
M  V30 73 H 5.6405 -2.39857 0.856778 0
M  V30 74 H 6.4235 -2.32424 2.52654 0
M  V30 75 N 8.8686 -0.792821 -1.36206 0
M  V30 76 C 9.8006 -0.151469 -2.28699 0
M  V30 77 C 10.8136 0.641262 -1.49638 0
M  V30 78 O 12.0026 0.475885 -1.72039 0
M  V30 79 C 9.1026 0.808424 -3.29117 0
M  V30 80 C 8.2756 0.0650202 -4.37352 0
M  V30 81 C 7.3346 0.941358 -5.17711 0
M  V30 82 O 6.3606 0.397352 -5.67811 0
M  V30 83 N 7.5626 2.2652 -5.3448 0
M  V30 84 H 10.3276 -0.945982 -2.84379 0
M  V30 85 H 7.8886 -0.647032 -1.48409 0
M  V30 86 H 9.8806 1.3986 -3.79765 0
M  V30 87 H 8.4506 1.5038 -2.74052 0
M  V30 88 H 7.6706 -0.706255 -3.87822 0
M  V30 89 H 8.9586 -0.447847 -5.06825 0
M  V30 90 H 8.3566 2.73128 -4.95396 0
M  V30 91 H 6.9136 2.80493 -5.88359 0
M  V30 92 N 10.3467 1.47872 -0.545128 0
M  V30 93 C 11.2767 2.32661 0.197793 0
M  V30 94 C 12.2577 1.43041 0.920504 0
M  V30 95 O 13.4427 1.71912 0.90333 0
M  V30 96 C 10.5727 3.24569 1.23582 0
M  V30 97 C 9.5267 4.23333 0.630323 0
M  V30 98 C 8.8527 5.0448 1.77211 0
M  V30 99 C 10.1527 5.20704 -0.407974 0
M  V30 100 H 11.8467 2.95024 -0.510045 0
M  V30 101 H 9.3927 1.4187 -0.246731 0
M  V30 102 H 11.3457 3.8272 1.76362 0
M  V30 103 H 10.0697 2.60236 1.97344 0
M  V30 104 H 8.7287 3.6639 0.123922 0
M  V30 105 H 8.3767 4.36561 2.49847 0
M  V30 106 H 8.0767 5.71339 1.37281 0
M  V30 107 H 9.6007 5.65487 2.3034 0
M  V30 108 H 11.0147 5.7329 0.033305 0
M  V30 109 H 9.4117 5.95699 -0.725486 0
M  V30 110 H 10.4817 4.66917 -1.30828 0
M  V30 111 N 11.8248 0.280983 1.55075 0
M  V30 112 C 13.0728 -0.333455 1.9933 0
M  V30 113 C 13.3938 -1.55937 1.17085 0
M  V30 114 O 12.6638 -1.94143 0.261805 0
M  V30 115 H 11.2438 -0.126197 0.736263 0
M  V30 116 H 13.9058 0.387678 1.91005 0
M  V30 117 H 13.0018 -0.619292 3.05894 0
M  V30 118 N 13.3029 -1.57598 0.00835791 0
M  V30 119 C 14.2499 -2.08945 -0.980346 0
M  V30 120 C 15.2199 -0.986738 -1.33614 0
M  V30 121 O 16.4049 -1.25968 -1.43306 0
M  V30 122 C 13.5449 -2.60425 -2.26435 0
M  V30 123 C 12.6579 -3.84628 -1.96685 0
M  V30 124 C 11.7929 -4.24579 -3.19228 0
M  V30 125 C 10.8319 -5.41596 -2.85202 0
M  V30 126 N 9.9689 -5.768 -4.00307 0
M  V30 127 H 14.8089 -2.93148 -0.535551 0
M  V30 128 H 12.3459 -1.44912 -0.252776 0
M  V30 129 H 14.3039 -2.88354 -3.01509 0
M  V30 130 H 12.9339 -1.79083 -2.68568 0
M  V30 131 H 11.9859 -3.63556 -1.11942 0
M  V30 132 H 13.2979 -4.69796 -1.67611 0
M  V30 133 H 12.4519 -4.53834 -4.02641 0
M  V30 134 H 11.1909 -3.38137 -3.51447 0
M  V30 135 H 10.1959 -5.12056 -2.00198 0
M  V30 136 H 11.4209 -6.29721 -2.54222 0
M  V30 137 H 9.3669 -4.93316 -4.32407 0
M  V30 138 H 9.2839 -6.5656 -3.74786 0
M  V30 139 H 10.5519 -6.10652 -4.84484 0
M  V30 140 N 14.781 0.264519 -1.55364 0
M  V30 141 C 16.197 0.61215 -1.47394 0
M  V30 142 C 16.397 1.89134 -0.695018 0
M  V30 143 O 15.453 2.51563 -0.217275 0
M  V30 144 C 16.766 0.731235 -2.91674 0
M  V30 145 C 18.314 0.82473 -3.01939 0
M  V30 146 C 18.789 0.975522 -4.4749 0
M  V30 147 N 20.28 1.04083 -4.51354 0
M  V30 148 C 21.015 1.17646 -5.61201 0
M  V30 149 N 20.511 1.27874 -6.80896 0
M  V30 150 N 22.304 1.20823 -5.48961 0
M  V30 151 H 14.455 -0.575456 -2.04456 0
M  V30 152 H 16.718 -0.196099 -0.927496 0
M  V30 153 H 16.424 -0.138392 -3.51428 0
M  V30 154 H 16.298 1.60883 -3.41169 0
M  V30 155 H 18.685 1.68482 -2.42276 0
M  V30 156 H 18.766 -0.0776479 -2.55682 0
M  V30 157 H 18.41 0.120058 -5.07758 0
M  V30 158 H 18.34 1.89268 -4.91412 0
M  V30 159 H 20.831 0.973846 -3.65136 0
M  V30 160 H 21.144 1.38081 -7.60364 0
M  V30 161 H 19.489 1.24863 -6.83692 0
M  V30 162 H 22.68 1.12469 -4.54388 0
M  V30 163 H 22.853 1.31049 -6.3461 0
M  V30 164 N 16.2591 1.48442 0.529413 0
M  V30 165 C 17.2061 1.63007 1.63394 0
M  V30 166 C 18.1761 0.47212 1.59249 0
M  V30 167 O 19.3611 0.695673 1.77666 0
M  V30 168 C 16.5011 1.6763 3.01653 0
M  V30 169 C 15.6141 2.94535 3.16027 0
M  V30 170 C 14.7491 2.90316 4.44849 0
M  V30 171 C 13.7881 4.11923 4.52754 0
M  V30 172 N 12.9251 4.05777 5.72965 0
M  V30 173 H 17.7651 2.5733 1.50285 0
M  V30 174 H 15.3021 1.27613 0.731656 0
M  V30 175 H 17.2601 1.68292 3.81751 0
M  V30 176 H 15.8901 0.76797 3.13532 0
M  V30 177 H 14.9421 3.03615 2.29177 0
M  V30 178 H 16.2541 3.84512 3.17729 0
M  V30 179 H 15.4081 2.89382 5.33238 0
M  V30 180 H 14.1471 1.98068 4.45668 0
M  V30 181 H 13.1521 4.13131 3.62771 0
M  V30 182 H 14.3771 5.0533 4.53672 0
M  V30 183 H 12.3231 3.16351 5.74681 0
M  V30 184 H 12.2401 4.8946 5.76164 0
M  V30 185 H 13.5081 4.08904 6.6364 0
M  V30 186 N 17.7372 -0.778329 1.37039 0
M  V30 187 C 19.1532 -1.07796 1.17695 0
M  V30 188 C 19.3532 -2.01498 0.00860115 0
M  V30 189 O 18.4092 -2.43901 -0.653352 0
M  V30 190 C 19.7222 -1.68178 2.49272 0
M  V30 191 C 21.2702 -1.80467 2.55735 0
M  V30 192 C 21.7452 -2.44263 3.87427 0
M  V30 193 N 23.2362 -2.51721 3.88833 0
M  V30 194 C 23.9712 -3.01919 4.87476 0
M  V30 195 N 23.4672 -3.5234 5.96513 0
M  V30 196 N 25.2602 -3.00733 4.74885 0
M  V30 197 H 17.4112 -0.156032 2.11826 0
M  V30 198 H 19.6742 -0.131844 0.938787 0
M  V30 199 H 19.3802 -1.06796 3.35093 0
M  V30 200 H 19.2542 -2.67554 2.65885 0
M  V30 201 H 21.6412 -2.40984 1.70325 0
M  V30 202 H 21.7222 -0.798656 2.43013 0
M  V30 203 H 21.3662 -1.84388 4.73248 0
M  V30 204 H 21.2962 -3.45458 3.9745 0
M  V30 205 H 23.7872 -2.1603 3.10063 0
M  V30 206 H 24.1002 -3.89027 6.67741 0
M  V30 207 H 22.4452 -3.50462 6.00168 0
M  V30 208 H 25.6362 -2.60638 3.88826 0
M  V30 209 H 25.8092 -3.39545 5.51918 0
M  V30 210 N 19.2153 -1.21501 -1.00376 0
M  V30 211 C 20.1253 -0.991447 -2.12621 0
M  V30 212 C 21.1413 0.0568446 -1.73907 0
M  V30 213 O 22.3173 -0.13348 -2.00957 0
M  V30 214 C 19.3823 -0.560312 -3.42142 0
M  V30 215 C 18.4433 -1.68096 -3.95022 0
M  V30 216 C 17.6763 -1.2703 -5.18362 0
M  V30 217 O 17.8993 -0.144438 -5.70217 0
M  V30 218 O 16.8333 -2.08269 -5.64719 0
M  V30 219 H 20.6593 -1.93158 -2.34358 0
M  V30 220 H 18.2443 -0.999999 -1.10997 0
M  V30 221 H 20.1263 -0.329724 -4.20108 0
M  V30 222 H 18.8013 0.351089 -3.2179 0
M  V30 223 H 17.7083 -1.96597 -3.18278 0
M  V30 224 H 19.0413 -2.56983 -4.19786 0
M  V30 225 N 20.6934 1.19889 -1.02296 0
M  V30 226 C 21.6234 2.25141 -0.619174 0
M  V30 227 C 22.6044 1.66051 0.368915 0
M  V30 228 O 23.7894 1.92546 0.252941 0
M  V30 229 C 20.9194 3.4728 0.0368783 0
M  V30 230 C 19.8734 4.19005 -0.872865 0
M  V30 231 C 19.1994 5.34637 -0.0822402 0
M  V30 232 C 20.4994 4.74452 -2.18387 0
M  V30 233 H 22.1934 2.59171 -1.49903 0
M  V30 234 H 19.7394 1.24579 -0.722222 0
M  V30 235 H 21.6924 4.20098 0.330958 0
M  V30 236 H 20.4164 3.12433 0.95149 0
M  V30 237 H 19.0754 3.48061 -1.15105 0
M  V30 238 H 18.7234 4.96034 0.83422 0
M  V30 239 H 18.4234 5.83557 -0.688149 0
M  V30 240 H 19.9474 6.10255 0.205238 0
M  V30 241 H 21.3614 5.39055 -1.95172 0
M  V30 242 H 19.7584 5.33834 -2.74119 0
M  V30 243 H 20.8284 3.92844 -2.84257 0
M  V30 244 N 22.1715 0.800033 1.35784 0
M  V30 245 C 23.4485 0.30088 1.93272 0
M  V30 246 C 23.8285 -1.20857 1.73081 0
M  V30 247 O 23.1765 -2.00502 1.09596 0
M  V30 248 C 23.3865 0.70511 3.41803 0
M  V30 249 C 24.7345 0.690871 4.18942 0
M  V30 250 O 25.7585 0.646244 3.50289 0
M  V30 251 O 24.6175 0.74332 5.41421 0
M  V30 252 H 21.7115 0.0771605 0.823393 0
M  V30 253 H 24.2575 0.88329 1.449 0
M  V30 254 H 23.0295 1.74571 3.50201 0
M  V30 255 H 22.6525 0.0971541 3.97481 0
M  V30 256 N 23.6496 -1.47581 0.552962 0
M  V30 257 C 24.8956 -2.02782 0.0273648 0
M  V30 258 C 25.2286 -1.42687 -1.31734 0
M  V30 259 O 24.5036 -0.580897 -1.85623 0
M  V30 260 C 24.7866 -3.60031 -0.0702371 0
M  V30 261 C 24.6396 -4.30566 1.30126 0
M  V30 262 C 25.9586 -4.33028 -0.785771 0
M  V30 263 H 23.0776 -0.736912 0.0114185 0
M  V30 264 H 25.7196 -1.76056 0.714432 0
M  V30 265 H 23.8696 -3.82932 -0.655382 0
M  V30 266 H 25.5416 -4.19018 1.92929 0
M  V30 267 H 23.7846 -3.91086 1.87709 0
M  V30 268 H 24.4556 -5.39114 1.18573 0
M  V30 269 H 26.9316 -4.15095 -0.288982 0
M  V30 270 H 25.8076 -5.42695 -0.823013 0
M  V30 271 H 26.0686 -4.01945 -1.841 0
M  V30 272 N 25.1277 -0.289203 -1.54924 0
M  V30 273 C 26.0377 0.601863 -2.26748 0
M  V30 274 C 27.0537 1.15834 -1.2984 0
M  V30 275 O 28.2297 1.18564 -1.62802 0
M  V30 276 C 25.2947 1.76299 -2.98529 0
M  V30 277 C 24.3557 1.24178 -4.10948 0
M  V30 278 C 23.5887 2.34757 -4.79296 0
M  V30 279 O 23.8117 3.54411 -4.46933 0
M  V30 280 O 22.7457 2.02115 -5.66951 0
M  V30 281 H 26.5717 0.0195879 -3.03694 0
M  V30 282 H 24.1567 -0.0560868 -1.49295 0
M  V30 283 H 26.0387 2.43973 -3.43592 0
M  V30 284 H 24.7137 2.33209 -2.24488 0
M  V30 285 H 23.6207 0.531104 -3.70311 0
M  V30 286 H 24.9537 0.718252 -4.86931 0
M  V30 287 N 26.6058 1.57591 -0.0167156 0
M  V30 288 C 27.5158 2.1291 0.98521 0
M  V30 289 C 28.5318 1.07834 1.36557 0
M  V30 290 O 29.7078 1.39826 1.44951 0
M  V30 291 C 26.7728 2.63512 2.25305 0
M  V30 292 C 25.8338 3.83256 1.93426 0
M  V30 293 C 25.0668 4.31435 3.14165 0
M  V30 294 O 25.2898 3.78851 4.26413 0
M  V30 295 O 24.2238 5.23416 2.97186 0
M  V30 296 H 28.0498 2.98772 0.544888 0
M  V30 297 H 25.6348 1.48012 0.203141 0
M  V30 298 H 27.5168 2.96183 2.99756 0
M  V30 299 H 26.1918 1.8074 2.68542 0
M  V30 300 H 25.0988 3.55531 1.16398 0
M  V30 301 H 26.4318 4.67153 1.55013 0
M  V30 302 N 28.0839 -0.256276 1.55502 0
M  V30 303 C 29.0469 -1.30047 1.88734 0
M  V30 304 C 30.0469 -1.4154 0.763086 0
M  V30 305 O 31.2369 -1.40403 1.03115 0
M  V30 306 C 28.3689 -2.67953 2.10747 0
M  V30 307 H 29.5619 -1.01802 2.82093 0
M  V30 308 H 27.1149 -0.495134 1.4825 0
M  V30 309 H 27.8499 -3.01351 1.19825 0
M  V30 310 H 27.6349 -2.60993 2.92617 0
M  V30 311 H 29.1249 -3.43368 2.37673 0
M  V30 312 N 29.562 -1.4872 -0.521534 0
M  V30 313 C 30.512 -1.60269 -1.62166 0
M  V30 314 C 31.496 -0.45935 -1.54204 0
M  V30 315 O 32.688 -0.711241 -1.62081 0
M  V30 316 C 29.817 -1.65344 -3.00859 0
M  V30 317 C 28.903 -2.85187 -3.13894 0
M  V30 318 N 29.294 -4.09509 -2.96877 0
M  V30 319 C 27.592 -2.82695 -3.44963 0
M  V30 320 C 28.293 -4.89959 -3.13552 0
M  V30 321 N 27.269 -4.22934 -3.41508 0
M  V30 322 H 31.071 -2.5413 -1.47632 0
M  V30 323 H 28.585 -1.45209 -0.727194 0
M  V30 324 H 30.582 -1.71713 -3.79895 0
M  V30 325 H 29.242 -0.726058 -3.16478 0
M  V30 326 H 30.253 -4.39814 -2.73467 0
M  V30 327 H 26.93 -1.99249 -3.66887 0
M  V30 328 H 28.32 -5.98654 -3.05061 0
M  V30 329 N 31.0401 0.771051 -1.3745 0
M  V30 330 C 32.0031 1.86598 -1.33093 0
M  V30 331 C 33.0031 1.59076 -0.234845 0
M  V30 332 O 34.1931 1.67145 -0.490732 0
M  V30 333 C 31.3251 3.23747 -1.06773 0
M  V30 334 H 32.5181 1.91873 -2.30488 0
M  V30 335 H 30.0711 0.970876 -1.2249 0
M  V30 336 H 30.8061 3.24148 -0.099129 0
M  V30 337 H 30.5911 3.45115 -1.86112 0
M  V30 338 H 32.0811 4.03824 -1.06377 0
M  V30 339 N 32.5182 1.22032 0.997298 0
M  V30 340 C 33.4812 0.987909 2.06816 0
M  V30 341 C 34.4812 -0.0440084 1.6074 0
M  V30 342 O 35.6712 0.194053 1.73116 0
M  V30 343 C 32.8032 0.49132 3.37341 0
M  V30 344 H 33.9962 1.93803 2.28868 0
M  V30 345 H 31.5492 1.03838 1.16822 0
M  V30 346 H 32.2842 -0.463364 3.20973 0
M  V30 347 H 32.0692 1.23575 3.72118 0
M  V30 348 H 33.5592 0.348824 4.16141 0
M  V30 349 N 33.9963 -1.19345 1.0293 0
M  V30 350 C 35.2213 -1.93538 0.745511 0
M  V30 351 C 35.6463 -1.75007 -0.689511 0
M  V30 352 O 35.0043 -1.05265 -1.47611 0
M  V30 353 C 35.0523 -3.43336 1.10239 0
M  V30 354 O 34.1563 -4.11806 0.221289 0
M  V30 355 H 33.4973 -0.604193 0.275404 0
M  V30 356 H 36.0273 -1.5141 1.37609 0
M  V30 357 H 36.0373 -3.94004 1.05947 0
M  V30 358 H 34.7123 -3.56146 2.14786 0
M  V30 359 H 33.2893 -3.715 0.322842 0
M  V30 360 N 35.4744 -0.807222 -1.35358 0
M  V30 361 C 36.7024 -0.400377 -2.02989 0
M  V30 362 C 37.1174 0.988859 -1.60832 0
M  V30 363 O 36.4744 1.63729 -0.806175 0
M  V30 364 C 36.5254 -0.474867 -3.58368 0
M  V30 365 O 36.2464 -1.80933 -3.98992 0
M  V30 366 C 37.7474 -0.0609112 -4.43258 0
M  V30 367 H 34.9674 -0.162587 -0.651004 0
M  V30 368 H 37.5114 -1.09102 -1.72965 0
M  V30 369 H 35.6664 0.167534 -3.87038 0
M  V30 370 H 36.0804 -1.77256 -4.9364 0
M  V30 371 H 37.5544 -0.164145 -5.51756 0
M  V30 372 H 38.0314 0.993831 -4.27808 0
M  V30 373 H 38.6374 -0.676492 -4.19885 0
M  V30 374 N 36.9525 1.47285 -0.560781 0
M  V30 375 C 37.8625 2.33846 0.187954 0
M  V30 376 C 38.8785 1.48412 0.908293 0
M  V30 377 O 40.0545 1.81332 0.876388 0
M  V30 378 C 37.1195 3.25178 1.2025 0
M  V30 379 C 36.1805 4.26504 0.489208 0
M  V30 380 C 35.4135 5.13472 1.45542 0
M  V30 381 O 35.6365 5.02959 2.6905 0
M  V30 382 O 34.5705 5.93902 0.977963 0
M  V30 383 H 38.3965 2.99177 -0.522177 0
M  V30 384 H 35.9815 1.45903 -0.321364 0
M  V30 385 H 37.8635 3.81584 1.78805 0
M  V30 386 H 36.5385 2.6247 1.89449 0
M  V30 387 H 35.4455 3.73847 -0.137627 0
M  V30 388 H 36.7785 4.91935 -0.161399 0
M  V30 389 N 38.4306 0.297415 1.54768 0
M  V30 390 C 39.3406 -0.58983 2.27064 0
M  V30 391 C 40.3566 -1.15144 1.30453 0
M  V30 392 O 41.5326 -1.17699 1.63428 0
M  V30 393 C 38.5976 -1.74714 2.9946 0
M  V30 394 C 37.6586 -1.21997 4.11601 0
M  V30 395 C 36.8916 -2.32212 4.80535 0
M  V30 396 O 37.1146 -3.52036 4.48806 0
M  V30 397 O 36.0486 -1.99106 5.68014 0
M  V30 398 H 39.8746 -0.00348199 3.037 0
M  V30 399 H 37.4596 0.0640035 1.49263 0
M  V30 400 H 39.3416 -2.42147 3.44881 0
M  V30 401 H 38.0166 -2.32016 2.25722 0
M  V30 402 H 36.9236 -0.511458 3.70587 0
M  V30 403 H 38.2566 -0.692419 4.87305 0
M  V30 404 N 39.9087 -1.5758 0.0250728 0
M  V30 405 C 40.8557 -2.09973 -0.958129 0
M  V30 406 C 41.8257 -1.00085 -1.3256 0
M  V30 407 O 43.0107 -1.27481 -1.41962 0
M  V30 408 C 40.1507 -2.62812 -2.2366 0
M  V30 409 C 39.2637 -3.86693 -1.92594 0
M  V30 410 C 38.3987 -4.27941 -3.14707 0
M  V30 411 C 37.4377 -5.44591 -2.79442 0
M  V30 412 N 36.5747 -5.81014 -3.94167 0
M  V30 413 H 41.4147 -2.937 -0.504428 0
M  V30 414 H 38.9517 -1.45172 -0.237392 0
M  V30 415 H 40.9097 -2.91536 -2.98434 0
M  V30 416 H 39.5397 -1.81922 -2.66654 0
M  V30 417 H 38.5917 -3.64723 -1.0808 0
M  V30 418 H 39.9037 -4.71547 -1.62619 0
M  V30 419 H 39.0577 -4.58079 -3.97804 0
M  V30 420 H 37.7967 -3.41845 -3.4784 0
M  V30 421 H 36.8017 -5.1415 -1.94755 0
M  V30 422 H 38.0267 -6.32382 -2.47528 0
M  V30 423 H 35.9727 -4.97874 -4.2715 0
M  V30 424 H 35.8897 -6.60498 -3.67801 0
M  V30 425 H 37.1577 -6.15756 -4.7798 0
M  V30 426 N 41.3868 0.248026 -1.55636 0
M  V30 427 C 42.2968 1.32859 -1.93354 0
M  V30 428 C 43.3128 1.52719 -0.833838 0
M  V30 429 O 44.4888 1.66363 -1.13513 0
M  V30 430 C 41.5538 2.66337 -2.21958 0
M  V30 431 C 40.6148 2.55008 -3.45354 0
M  V30 432 C 39.8478 3.82121 -3.72584 0
M  V30 433 O 40.0708 4.83951 -3.01907 0
M  V30 434 O 39.0048 3.80822 -4.6611 0
M  V30 435 H 42.8308 1.03862 -2.85388 0
M  V30 436 H 40.4158 0.448686 -1.42503 0
M  V30 437 H 42.2978 3.45216 -2.4167 0
M  V30 438 H 40.9728 2.95068 -1.33103 0
M  V30 439 H 39.8798 1.7442 -3.30951 0
M  V30 440 H 41.2128 2.31222 -4.34508 0
M  V30 441 N 42.8649 1.48995 0.513639 0
M  V30 442 C 43.8279 1.64229 1.59879 0
M  V30 443 C 44.8279 0.514696 1.5234 0
M  V30 444 O 46.0179 0.78087 1.55718 0
M  V30 445 C 43.1499 1.62783 2.99524 0
M  V30 446 H 44.3429 2.61004 1.47705 0
M  V30 447 H 41.8959 1.37837 0.736936 0
M  V30 448 H 42.6309 0.675461 3.17188 0
M  V30 449 H 42.4159 2.4466 3.06404 0
M  V30 450 H 43.9059 1.76669 3.78388 0
M  V30 451 N 44.343 -0.763751 1.37857 0
M  V30 452 C 45.591 -1.51957 1.33243 0
M  V30 453 C 45.912 -1.94835 -0.0801709 0
M  V30 454 O 45.182 -1.66894 -1.02582 0
M  V30 455 H 43.762 -0.563626 0.49024 0
M  V30 456 H 46.424 -0.908504 1.7243 0
M  V30 457 H 45.52 -2.41523 1.97669 0
M  V30 458 N 45.8211 -1.22559 -0.990812 0
M  V30 459 C 47.0671 -1.05297 -1.73322 0
M  V30 460 C 47.4001 0.410655 -1.89808 0
M  V30 461 O 46.6751 1.30439 -1.44277 0
M  V30 462 C 46.9581 -1.76713 -3.13759 0
M  V30 463 C 46.8111 -3.30684 -3.04907 0
M  V30 464 C 48.1301 -1.52121 -4.12974 0
M  V30 465 H 45.2491 -0.38392 -0.629106 0
M  V30 466 H 47.8911 -1.50926 -1.15418 0
M  V30 467 H 46.0411 -1.37924 -3.63193 0
M  V30 468 H 47.7131 -3.7893 -2.63077 0
M  V30 469 H 45.9561 -3.60253 -2.41661 0
M  V30 470 H 46.6271 -3.75833 -4.04294 0
M  V30 471 H 49.1031 -1.85819 -3.72304 0
M  V30 472 H 47.9791 -2.04582 -5.0935 0
M  V30 473 H 48.2401 -0.454257 -4.3976 0
M  V30 474 N 47.2992 1.18797 -1.03562 0
M  V30 475 C 48.5472 1.88278 -0.734569 0
M  V30 476 C 48.8682 1.8043 0.739586 0
M  V30 477 O 48.1382 1.21925 1.53333 0
M  V30 478 H 46.7182 0.696991 -0.268725 0
M  V30 479 H 49.3802 1.44192 -1.31129 0
M  V30 480 H 48.4762 2.94443 -1.03489 0
M  V30 481 N 48.7773 0.814389 1.34928 0
M  V30 482 C 49.7253 0.218424 2.31572 0
M  V30 483 C 50.7193 -0.636128 1.57002 0
M  V30 484 O 51.9253 -0.52842 1.72069 0
M  V30 485 H 48.3003 0.0518799 0.750208 0
M  V30 486 H 50.2713 1.04852 2.79372 0
M  V30 487 C 49.0203 -0.61207 3.4227 0
M  V30 488 H 48.3433 0.0361578 3.99784 0
M  V30 489 H 49.7833 -0.995317 4.12152 0
M  V30 490 C 48.2423 -1.78087 2.85984 0
M  V30 491 O 48.7723 -2.8787 2.80168 0
M  V30 492 N 46.9783 -1.59488 2.42924 0
M  V30 493 H 46.5253 -0.701874 2.47854 0
M  V30 494 H 46.4833 -2.37846 2.05613 0
M  V30 495 N 50.2554 -1.46986 0.568584 0
M  V30 496 C 51.5034 -2.02041 0.0487022 0
M  V30 497 C 51.8244 -1.44408 -1.31039 0
M  V30 498 O 51.0944 -0.623477 -1.85714 0
M  V30 499 H 49.6744 -0.746849 0.015014 0
M  V30 500 H 52.3364 -1.80257 0.741168 0
M  V30 501 H 51.4324 -3.12085 -0.0308961 0
M  V30 502 N 51.7335 -0.305618 -1.54608 0
M  V30 503 C 52.9615 0.304775 -2.04643 0
M  V30 504 C 53.3765 1.47167 -1.18268 0
M  V30 505 O 52.7335 1.81296 -0.209328 0
M  V30 506 C 52.7845 0.756564 -3.53495 0
M  V30 507 O 52.5055 -0.36389 -4.36586 0
M  V30 508 C 54.0065 1.43163 -4.19546 0
M  V30 509 H 51.2265 0.0655481 -0.667791 0
M  V30 510 H 53.7705 -0.446592 -1.99564 0
M  V30 511 H 51.9255 1.45794 -3.58919 0
M  V30 512 H 52.3395 -0.0113121 -5.24499 0
M  V30 513 H 53.8135 1.69886 -5.25207 0
M  V30 514 H 54.2905 2.37318 -3.69563 0
M  V30 515 H 54.8965 0.773307 -4.18211 0
M  V30 516 N 53.2116 1.57565 -0.0334293 0
M  V30 517 C 54.4516 1.93844 0.648379 0
M  V30 518 C 54.8156 0.910387 1.69044 0
M  V30 519 O 56.0166 1.15952 2.42505 0
M  V30 520 C 54.2876 3.35017 1.24492 0
M  V30 521 S 55.8466 3.93229 1.94721 0
M  V30 522 H 52.6646 0.678231 0.213364 0
M  V30 523 H 55.2666 1.95254 -0.0981253 0
M  V30 524 H 53.9706 4.07652 0.474128 0
M  V30 525 H 53.5016 3.37061 2.02864 0
M  V30 526 H 55.5166 3.77014 3.22606 0
M  V30 527 N 54.6897 -0.239769 1.55765 0
M  V30 528 C 55.6527 -1.28038 1.90103 0
M  V30 529 C 56.6527 -1.40723 0.778055 0
M  V30 530 O 57.8427 -1.39301 1.04599 0
M  V30 531 C 54.9747 -2.65702 2.13577 0
M  V30 532 H 56.1677 -0.988048 2.83157 0
M  V30 533 H 53.7207 -0.479382 1.48767 0
M  V30 534 H 54.4557 -3.00063 1.23015 0
M  V30 535 H 54.2407 -2.57875 2.95369 0
M  V30 536 H 55.7307 -3.40828 2.41301 0
M  V30 537 N 56.1678 -1.49265 -0.50573 0
M  V30 538 C 57.5788 -1.51769 -1.08734 0
M  V30 539 C 57.9298 -0.301192 -1.93874 0
M  V30 540 O 57.0548 0.589456 -2.08217 0
M  V30 541 C 57.6498 -2.75017 -1.97867 0
M  V30 542 C 56.2088 -2.80314 -2.51199 0
M  V30 543 C 55.3558 -2.4562 -1.28709 0
M  V30 544 H 58.3068 -1.56031 -0.289855 0
M  V30 545 H 58.3278 -2.5491 -2.82491 0
M  V30 546 H 57.8398 -3.63539 -1.35873 0
M  V30 547 H 55.9408 -1.96061 -3.16845 0
M  V30 548 H 56.0538 -3.82366 -2.88675 0
M  V30 549 H 54.4178 -1.97297 -1.61078 0
M  V30 550 H 55.2008 -3.36411 -0.6843 0
M  V30 551 N 57.6459 0.756429 -1.3826 0
M  V30 552 C 58.8919 1.51772 -1.34511 0
M  V30 553 C 59.2249 1.94089 0.0656691 0
M  V30 554 O 58.4999 1.65221 1.02626 0
M  V30 555 C 58.7829 2.77226 -2.29821 0
M  V30 556 C 58.6359 2.41065 -3.79747 0
M  V30 557 C 59.9549 3.79236 -2.23312 0
M  V30 558 H 57.0739 0.550578 -0.489931 0
M  V30 559 H 59.7159 0.866607 -1.69086 0
M  V30 560 H 57.8659 3.32784 -2.00467 0
M  V30 561 H 59.5379 1.91303 -4.19763 0
M  V30 562 H 57.7809 1.7356 -3.97567 0
M  V30 563 H 58.4519 3.3081 -4.41892 0
M  V30 564 H 60.9279 3.3321 -2.49219 0
M  V30 565 H 59.8039 4.64714 -2.92116 0
M  V30 566 H 60.0649 4.24615 -1.23102 0
M  V30 567 N 59.124 1.23083 0.984299 0
M  V30 568 C 60.54 0.992637 1.24975 0
M  V30 569 C 60.74 -0.308618 1.99123 0
M  V30 570 O 59.796 -1.02905 2.30579 0
M  V30 571 C 61.109 2.19698 2.05312 0
M  V30 572 C 62.657 2.24147 2.18465 0
M  V30 573 C 63.132 3.44157 3.02192 0
M  V30 574 N 64.623 3.44372 3.09777 0
M  V30 575 C 65.358 4.33886 3.74874 0
M  V30 576 N 64.854 5.3363 4.41827 0
M  V30 577 N 66.647 4.21639 3.71721 0
M  V30 578 H 58.798 2.06731 0.487453 0
M  V30 579 H 61.061 0.906339 0.277944 0
M  V30 580 H 60.767 3.1411 1.58201 0
M  V30 581 H 60.641 2.20465 3.06064 0
M  V30 582 H 63.028 1.30277 2.64786 0
M  V30 583 H 63.109 2.27415 1.17115 0
M  V30 584 H 62.753 4.38332 2.56568 0
M  V30 585 H 62.683 3.3813 4.03702 0
M  V30 586 H 65.174 2.72201 2.62135 0
M  V30 587 H 65.487 5.98196 4.89266 0
M  V30 588 H 63.832 5.37534 4.40548 0
M  V30 589 H 67.023 3.42962 3.18582 0
M  V30 590 H 67.196 4.91604 4.22173 0
M  V30 591 N 60.6021 -1.18246 1.0419 0
M  V30 592 C 61.5321 -2.24127 0.654914 0
M  V30 593 C 62.5131 -1.66617 -0.342451 0
M  V30 594 O 63.6981 -1.92924 -0.222277 0
M  V30 595 C 60.8281 -3.47295 0.0183757 0
M  V30 596 C 59.7821 -4.17563 0.939414 0
M  V30 597 C 59.1081 -5.34438 0.167286 0
M  V30 598 C 60.4081 -4.70917 2.25908 0
M  V30 599 H 62.1021 -2.56753 1.54007 0
M  V30 600 H 59.6481 -1.23414 0.74195 0
M  V30 601 H 61.6011 -4.20572 -0.264082 0
M  V30 602 H 60.3251 -3.13907 -0.901664 0
M  V30 603 H 58.9841 -3.46186 1.20628 0
M  V30 604 H 58.6321 -4.97298 -0.7552 0
M  V30 605 H 58.3321 -5.82388 0.780901 0
M  V30 606 H 59.8561 -6.10504 -0.108125 0
M  V30 607 H 61.2701 -5.35882 2.03724 0
M  V30 608 H 59.6671 -5.29406 2.82577 0
M  V30 609 H 60.7371 -3.88272 2.9047 0
M  V30 610 N 62.0802 -0.821533 -1.34494 0
M  V30 611 C 63.4912 -0.467956 -1.8074 0
M  V30 612 C 63.8422 1.01151 -1.68116 0
M  V30 613 O 62.9672 1.78707 -1.22036 0
M  V30 614 C 63.5622 -0.842627 -3.28154 0
M  V30 615 C 62.1212 -0.541439 -3.72485 0
M  V30 616 C 61.2682 -1.06028 -2.56229 0
M  V30 617 H 64.2192 -1.01183 -1.22261 0
M  V30 618 H 64.2402 -0.145876 -3.8022 0
M  V30 619 H 63.7522 -1.91945 -3.37311 0
M  V30 620 H 61.8532 0.526034 -3.68868 0
M  V30 621 H 61.9662 -1.08453 -4.66663 0
M  V30 622 H 60.3302 -0.481892 -2.501 0
M  V30 623 H 61.1132 -2.14352 -2.68157 0
M  V30 624 N 63.5583 1.46682 -0.576371 0
M  V30 625 C 64.8053 2.02412 -0.0595339 0
M  V30 626 C 65.1333 1.44859 1.29793 0
M  V30 627 O 64.3883 0.601099 1.8624 0
M  V30 628 C 64.6873 3.57345 0.062886 0
M  V30 629 C 64.3533 4.33908 -1.22616 0
M  V30 630 C 63.0153 4.54544 -1.57933 0
M  V30 631 C 65.3673 4.77919 -2.07948 0
M  V30 632 C 62.6953 5.16444 -2.78393 0
M  V30 633 C 65.0473 5.41149 -3.27629 0
M  V30 634 C 63.7113 5.60014 -3.63236 0
M  V30 635 H 62.9813 0.74068 -0.021785 0
M  V30 636 H 65.6283 1.76128 -0.751735 0
M  V30 637 H 63.9333 3.82729 0.838178 0
M  V30 638 H 65.6303 3.98136 0.478439 0
M  V30 639 H 62.2203 4.18138 -0.941202 0
M  V30 640 H 66.4043 4.61738 -1.81967 0
M  V30 641 H 61.6603 5.29242 -3.06126 0
M  V30 642 H 65.8343 5.74211 -3.94023 0
M  V30 643 H 63.4613 6.07748 -4.56669 0
M  V30 644 N 65.0364 0.313813 1.54444 0
M  V30 645 C 66.2614 -0.296681 2.05267 0
M  V30 646 C 66.6864 -1.45757 1.18897 0
M  V30 647 O 66.0444 -1.80239 0.195886 0
M  V30 648 C 66.0924 -0.71831 3.53373 0
M  V30 649 O 65.1964 -1.82175 3.69981 0
M  V30 650 H 64.5374 -0.0554061 0.661684 0
M  V30 651 H 67.0674 0.459387 1.99376 0
M  V30 652 H 67.0774 -1.00364 3.95463 0
M  V30 653 H 65.7524 0.130821 4.15694 0
M  V30 654 H 64.3294 -1.53598 3.39797 0
M  V30 655 N 66.5145 -1.57545 0.0417849 0
M  V30 656 C 67.7625 -1.91937 -0.632829 0
M  V30 657 C 68.0835 -0.919978 -1.71934 0
M  V30 658 O 67.3535 0.0366064 -1.95866 0
M  V30 659 H 65.9335 -0.708493 -0.236742 0
M  V30 660 H 68.5955 -1.9468 0.0925745 0
M  V30 661 H 67.6915 -2.92912 -1.07746 0
M  V30 662 N 67.9926 0.231505 -1.5589 0
M  V30 663 C 69.2396 0.957352 -1.78441 0
M  V30 664 C 69.5676 1.84726 -0.60882 0
M  V30 665 O 68.8226 1.91416 0.40725 0
M  V30 666 C 69.1216 1.83577 -3.0665 0
M  V30 667 C 68.7876 1.09993 -4.37278 0
M  V30 668 C 67.4496 0.896629 -4.72773 0
M  V30 669 C 69.8016 0.579558 -5.17968 0
M  V30 670 C 67.1296 0.160896 -5.86479 0
M  V30 671 C 69.4816 -0.142783 -6.32439 0
M  V30 672 C 68.1456 -0.357427 -6.66542 0
M  V30 673 H 67.4156 0.35032 -0.65296 0
M  V30 674 H 70.0626 0.226259 -1.90159 0
M  V30 675 H 68.3676 2.63441 -2.90011 0
M  V30 676 H 70.0646 2.39934 -3.21298 0
M  V30 677 H 66.6546 1.26835 -4.09403 0
M  V30 678 H 70.8386 0.724125 -4.90989 0
M  V30 679 H 66.0946 -0.0157293 -6.11398 0
M  V30 680 H 70.2686 -0.553559 -6.94196 0
M  V30 681 H 67.8956 -0.929466 -7.54497 0
M  V30 682 N 69.4707 1.49531 0.497807 0
M  V30 683 C 70.8867 1.36365 0.829266 0
M  V30 684 C 71.0867 0.399184 1.97506 0
M  V30 685 O 70.1427 -0.167977 2.51941 0
M  V30 686 C 71.4557 2.77153 1.16647 0
M  V30 687 C 73.0037 2.85877 1.27449 0
M  V30 688 C 73.4787 4.2744 1.64497 0
M  V30 689 N 74.9697 4.30265 1.7154 0
M  V30 690 C 75.7047 5.3677 2.01656 0
M  V30 691 N 75.2007 6.53516 2.29976 0
M  V30 692 N 76.9937 5.24189 2.02934 0
M  V30 693 H 69.1447 2.10831 -0.257703 0
M  V30 694 H 71.4077 0.946534 -0.0527091 0
M  V30 695 H 71.1137 3.49442 0.397872 0
M  V30 696 H 70.9877 3.12722 2.10915 0
M  V30 697 H 73.3747 2.13824 2.0338 0
M  V30 698 H 73.4557 2.53887 0.312244 0
M  V30 699 H 73.0997 5.00021 0.891151 0
M  V30 700 H 73.0297 4.56896 2.61827 0
M  V30 701 H 75.5207 3.4607 1.51802 0
M  V30 702 H 75.8337 7.30506 2.52153 0
M  V30 703 H 74.1787 6.56737 2.27425 0
M  V30 704 H 77.3697 4.31988 1.80289 0
M  V30 705 H 77.5427 6.07286 2.26071 0
M  V30 706 N 70.9488 -0.749086 1.3866 0
M  V30 707 C 71.8788 -1.8764 1.38973 0
M  V30 708 C 72.8598 -1.68178 0.255004 0
M  V30 709 O 74.0448 -1.88704 0.458754 0
M  V30 710 C 71.1748 -3.25222 1.21851 0
M  V30 711 C 70.1288 -3.59295 2.32575 0
M  V30 712 C 69.4548 -4.95663 2.00555 0
M  V30 713 C 70.7548 -3.63709 3.7485 0
M  V30 714 H 72.4488 -1.87635 2.3331 0
M  V30 715 H 69.9948 -0.901329 1.12303 0
M  V30 716 H 71.9478 -4.03746 1.20695 0
M  V30 717 H 70.6718 -3.25719 0.239775 0
M  V30 718 H 69.3308 -2.83093 2.32925 0
M  V30 719 H 68.9788 -4.92724 1.01154 0
M  V30 720 H 68.6788 -5.19429 2.74714 0
M  V30 721 H 70.2028 -5.7656 2.01024 0
M  V30 722 H 71.6168 -4.32338 3.76506 0
M  V30 723 H 70.0138 -3.98986 4.48252 0
M  V30 724 H 71.0838 -2.63834 4.06841 0
M  V30 725 N 72.4269 -1.23603 -0.977757 0
M  V30 726 C 73.3589 -0.977369 -2.07317 0
M  V30 727 C 74.3719 0.0495845 -1.62724 0
M  V30 728 O 75.5609 -0.186261 -1.77526 0
M  V30 729 C 72.6609 -0.451216 -3.35883 0
M  V30 730 C 71.8339 -1.53896 -4.09432 0
M  V30 731 C 70.8929 -1.01721 -5.16274 0
M  V30 732 O 69.9189 -1.70676 -5.43009 0
M  V30 733 N 71.1209 0.153594 -5.80297 0
M  V30 734 H 73.8859 -1.92047 -2.30082 0
M  V30 735 H 71.4469 -1.14497 -1.14465 0
M  V30 736 H 73.4389 -0.0871574 -4.04606 0
M  V30 737 H 72.0089 0.397368 -3.10064 0
M  V30 738 H 71.2289 -2.07566 -3.35127 0
M  V30 739 H 72.5169 -2.27037 -4.55337 0
M  V30 740 H 71.9149 0.730323 -5.60966 0
M  V30 741 H 70.4719 0.458892 -6.50183 0
M  V30 742 N 73.905 1.17692 -1.04816 0
M  V30 743 C 74.852 2.21581 -0.645797 0
M  V30 744 C 75.822 1.62367 0.350159 0
M  V30 745 O 77.007 1.89254 0.242433 0
M  V30 746 C 74.147 3.45092 -0.0227568 0
M  V30 747 C 73.26 4.18613 -1.06709 0
M  V30 748 C 72.395 5.29602 -0.411767 0
M  V30 749 C 71.434 5.94904 -1.44067 0
M  V30 750 N 70.571 6.97414 -0.809781 0
M  V30 751 H 75.411 2.55353 -1.5362 0
M  V30 752 H 72.948 1.25438 -0.768364 0
M  V30 753 H 74.906 4.15679 0.35588 0
M  V30 754 H 73.536 3.11917 0.831122 0
M  V30 755 H 72.588 3.46779 -1.5636 0
M  V30 756 H 73.9 4.63293 -1.84827 0
M  V30 757 H 73.054 6.06696 0.0206623 0
M  V30 758 H 71.793 4.86045 0.401438 0
M  V30 759 H 70.798 5.16544 -1.88316 0
M  V30 760 H 72.023 6.40542 -2.25571 0
M  V30 761 H 69.969 6.55998 -0.0170186 0
M  V30 762 H 69.886 7.40386 -1.52856 0
M  V30 763 H 71.154 7.78463 -0.401999 0
M  V30 764 N 75.3831 0.828654 1.34056 0
M  V30 765 C 76.6291 0.42008 1.98402 0
M  V30 766 C 76.9621 -1.01564 1.65525 0
M  V30 767 O 76.2371 -1.70834 0.929831 0
M  V30 768 C 76.5201 0.62927 3.54559 0
M  V30 769 C 76.3731 2.11152 3.97159 0
M  V30 770 C 77.6921 0.0688756 4.40046 0
M  V30 771 H 74.8111 0.154104 0.720709 0
M  V30 772 H 77.4531 1.04228 1.5886 0
M  V30 773 H 75.6031 0.0996418 3.88372 0
M  V30 774 H 77.2751 2.70522 3.73651 0
M  V30 775 H 75.5181 2.59985 3.47261 0
M  V30 776 H 76.1891 2.20868 5.05887 0
M  V30 777 H 78.6651 0.521458 4.1282 0
M  V30 778 H 77.5411 0.245006 5.48353 0
M  V30 779 H 77.8021 -1.0266 4.30015 0
M  V30 780 N 76.8612 -1.46375 0.584142 0
M  V30 781 C 77.7912 -2.33103 -0.136037 0
M  V30 782 C 78.7722 -1.45431 -0.882255 0
M  V30 783 O 79.9572 -1.74246 -0.857434 0
M  V30 784 C 77.0872 -3.27731 -1.14933 0
M  V30 785 C 76.0412 -4.24855 -0.517862 0
M  V30 786 C 75.3672 -5.09001 -1.63773 0
M  V30 787 C 76.6672 -5.19439 0.545886 0
M  V30 788 H 78.3612 -2.93568 0.588086 0
M  V30 789 H 75.9072 -1.41166 0.284259 0
M  V30 790 H 77.8602 -3.87261 -1.66153 0
M  V30 791 H 76.5842 -2.65377 -1.90375 0
M  V30 792 H 75.2432 -3.6659 -0.0267361 0
M  V30 793 H 74.8912 -4.43031 -2.38185 0
M  V30 794 H 74.5912 -5.74777 -1.22085 0
M  V30 795 H 76.1152 -5.71396 -2.15266 0
M  V30 796 H 77.5292 -5.73177 0.118704 0
M  V30 797 H 75.9262 -5.93566 0.88317 0
M  V30 798 H 76.9962 -4.63285 1.43162 0
M  V30 799 N 78.3393 -0.321999 -1.54275 0
M  V30 800 C 79.7553 0.0306999 -1.5957 0
M  V30 801 C 79.9553 1.50614 -1.33857 0
M  V30 802 O 79.0113 2.2619 -1.12223 0
M  V30 803 C 80.3243 -0.386122 -2.98211 0
M  V30 804 C 81.8723 -0.336647 -3.11184 0
M  V30 805 C 82.3473 -0.728607 -4.52167 0
M  V30 806 N 83.8383 -0.681952 -4.58152 0
M  V30 807 C 84.5733 -0.957449 -5.6535 0
M  V30 808 N 84.0693 -1.3 -6.80494 0
M  V30 809 N 85.8623 -0.883113 -5.55119 0
M  V30 810 H 78.0133 -1.28332 -1.69247 0
M  V30 811 H 80.2763 -0.521716 -0.791528 0
M  V30 812 H 79.9823 -1.41404 -3.22022 0
M  V30 813 H 79.8563 0.249662 -3.76373 0
M  V30 814 H 82.2433 0.682058 -2.8711 0
M  V30 815 H 82.3243 -1.00734 -2.3513 0
M  V30 816 H 81.9683 -1.74522 -4.76974 0
M  V30 817 H 81.8983 -0.0356152 -5.26588 0
M  V30 818 H 84.3893 -0.428985 -3.75457 0
M  V30 819 H 84.7023 -1.49563 -7.58189 0
M  V30 820 H 83.0473 -1.33824 -6.81994 0
M  V30 821 H 86.2383 -0.615001 -4.64042 0
M  V30 822 H 86.4113 -1.10118 -6.38575 0
M  V30 823 N 79.8174 1.5752 -0.0501392 0
M  V30 824 C 80.7274 2.14952 0.939827 0
M  V30 825 C 81.7434 1.10706 1.34239 0
M  V30 826 O 82.9194 1.42869 1.41952 0
M  V30 827 C 79.9844 2.68232 2.19665 0
M  V30 828 C 79.0454 3.87272 1.85253 0
M  V30 829 C 78.2784 4.38002 3.04943 0
M  V30 830 O 78.5014 3.87811 4.18281 0
M  V30 831 O 77.4354 5.29602 2.86017 0
M  V30 832 H 81.2614 2.9986 0.481392 0
M  V30 833 H 78.8464 1.4841 0.171699 0
M  V30 834 H 80.7284 3.02475 2.93406 0
M  V30 835 H 79.4034 1.86395 2.64648 0
M  V30 836 H 78.3104 3.5792 1.0883 0
M  V30 837 H 79.6434 4.70336 1.4507 0
M  V30 838 N 81.2955 -0.223234 1.56011 0
M  V30 839 C 82.5205 -0.968978 1.83373 0
M  V30 840 C 82.9455 -1.77227 0.630254 0
M  V30 841 O 82.3035 -1.76345 -0.420959 0
M  V30 842 C 82.3515 -1.86363 3.08709 0
M  V30 843 O 81.4555 -2.95873 2.87285 0
M  V30 844 H 80.7965 -0.274461 0.604622 0
M  V30 845 H 83.3265 -0.237056 2.03222 0
M  V30 846 H 83.3365 -2.27376 3.38768 0
M  V30 847 H 82.0115 -1.27319 3.95933 0
M  V30 848 H 80.5885 -2.58818 2.68454 0
M  V30 849 N 82.7736 -1.49793 -0.48987 0
M  V30 850 C 83.7366 -1.66752 -1.57246 0
M  V30 851 C 84.7366 -0.538867 -1.51502 0
M  V30 852 O 85.9266 -0.805545 -1.54456 0
M  V30 853 C 83.0586 -1.67528 -2.96896 0
M  V30 854 H 84.2516 -2.63321 -1.43534 0
M  V30 855 H 81.8046 -1.38992 -0.714914 0
M  V30 856 H 82.5396 -0.725837 -3.16073 0
M  V30 857 H 82.3246 -2.49504 -3.02473 0
M  V30 858 H 83.8146 -1.82667 -3.7553 0
M  V30 859 N 84.2517 0.741722 -1.39055 0
M  V30 860 C 85.6677 1.04638 -1.20512 0
M  V30 861 C 85.8677 2.01405 -0.0620218 0
M  V30 862 O 84.9237 2.45547 0.588457 0
M  V30 863 C 86.2367 1.6151 -2.53643 0
M  V30 864 C 87.7847 1.73623 -2.6043 0
M  V30 865 C 88.2597 2.33906 -3.93767 0
M  V30 866 N 89.7507 2.41323 -3.9537 0
M  V30 867 C 90.4857 2.88888 -4.95309 0
M  V30 868 N 89.9817 3.36401 -6.05645 0
M  V30 869 N 91.7747 2.88037 -4.82692 0
M  V30 870 H 83.9257 0.0998155 -2.12165 0
M  V30 871 H 86.1887 0.106907 -0.941953 0
M  V30 872 H 85.8947 0.978739 -3.37807 0
M  V30 873 H 85.7687 2.60411 -2.72885 0
M  V30 874 H 88.1557 2.36384 -1.76655 0
M  V30 875 H 88.2367 0.733945 -2.45045 0
M  V30 876 H 87.8807 1.71776 -4.7797 0
M  V30 877 H 87.8107 3.34799 -4.06469 0
M  V30 878 H 90.3017 2.07734 -3.15682 0
M  V30 879 H 90.6147 3.71186 -6.77821 0
M  V30 880 H 88.9597 3.34427 -6.09248 0
M  V30 881 H 92.1507 2.50237 -3.95599 0
M  V30 882 H 92.3237 3.24792 -5.60726 0
M  V30 883 N 85.7298 1.2412 0.971189 0
M  V30 884 C 87.0068 0.986867 1.6888 0
M  V30 885 C 87.3868 -0.491857 2.0529 0
M  V30 886 O 86.7348 -1.46531 1.75331 0
M  V30 887 C 86.9448 1.9063 2.92338 0
M  V30 888 C 88.2928 2.17515 3.64654 0
M  V30 889 O 89.3168 1.88254 3.02388 0
M  V30 890 O 88.1758 2.6719 4.7673 0
M  V30 891 H 85.2698 0.372944 0.738134 0
M  V30 892 H 87.8158 1.35203 1.02559 0
M  V30 893 H 86.5878 2.90552 2.62097 0
M  V30 894 H 86.2108 1.54408 3.66393 0
M  V30 895 N 87.2079 -1.17134 1.05439 0
M  V30 896 C 88.1549 -2.21235 0.657539 0
M  V30 897 C 89.1249 -1.62551 -0.341543 0
M  V30 898 O 90.3099 -1.89379 -0.232393 0
M  V30 899 C 87.4499 -3.45076 0.0410575 0
M  V30 900 C 86.5629 -4.18042 1.08927 0
M  V30 901 C 85.6979 -5.29376 0.439848 0
M  V30 902 C 84.7369 -5.94132 1.4722 0
M  V30 903 N 83.8739 -6.96975 0.846756 0
M  V30 904 H 88.7139 -2.54534 1.54972 0
M  V30 905 H 86.2509 -1.25028 0.775006 0
M  V30 906 H 88.2089 -4.15862 -0.33383 0
M  V30 907 H 86.8389 -3.12353 -0.814568 0
M  V30 908 H 85.8909 -3.45945 1.58196 0
M  V30 909 H 87.2029 -4.62306 1.87282 0
M  V30 910 H 86.3569 -6.06699 0.0115125 0
M  V30 911 H 85.0959 -4.86251 -0.375656 0
M  V30 912 H 84.1009 -5.15538 1.91052 0
M  V30 913 H 85.3259 -6.39337 2.28965 0
M  V30 914 H 83.2719 -6.5598 0.0518075 0
M  V30 915 H 83.1889 -7.39565 1.5678 0
M  V30 916 H 84.4569 -7.78239 0.443277 0
M  V30 917 N 88.686 -0.835752 -1.33615 0
M  V30 918 C 89.935 -0.426289 -1.97144 0
M  V30 919 C 90.248 1.01912 -1.66953 0
M  V30 920 O 91.454 1.53311 -2.24072 0
M  V30 921 C 89.91 -0.711321 -3.52801 0
M  V30 922 C 89.518 -2.1712 -3.91871 0
M  V30 923 C 91.262 -0.368654 -4.22896 0
M  V30 924 C 89.169 -2.40044 -5.40493 0
M  V30 925 H 88.099 -0.15567 -0.737755 0
M  V30 926 H 90.75 -1.0239 -1.52278 0
M  V30 927 H 89.132 -0.0433766 -3.95976 0
M  V30 928 H 90.306 -2.87936 -3.59763 0
M  V30 929 H 88.621 -2.47654 -3.34749 0
M  V30 930 H 91.218 -0.517601 -5.32189 0
M  V30 931 H 91.561 0.688078 -4.10574 0
M  V30 932 H 92.094 -0.991702 -3.8524 0
M  V30 933 H 88.833 -3.44271 -5.57815 0
M  V30 934 H 88.353 -1.73785 -5.74072 0
M  V30 935 H 90.032 -2.23042 -6.0734 0
M  V30 936 N 90.1641 1.46063 -0.591896 0
M  V30 937 C 91.4131 2.01547 -0.0786637 0
M  V30 938 C 91.7261 1.46796 1.29268 0
M  V30 939 O 92.9321 1.94157 1.89777 0
M  V30 940 C 91.3881 3.59787 -0.0900024 0
M  V30 941 C 90.9961 4.23534 -1.46023 0
M  V30 942 C 92.7401 4.22895 0.368806 0
M  V30 943 C 90.6471 5.73881 -1.4288 0
M  V30 944 H 89.5771 0.753564 -0.0256388 0
M  V30 945 H 92.2281 1.677 -0.744905 0
M  V30 946 H 90.6101 3.90752 0.642586 0
M  V30 947 H 91.7841 4.04167 -2.21328 0
M  V30 948 H 90.0991 3.72558 -1.85982 0
M  V30 949 H 92.6961 5.33116 0.411258 0
M  V30 950 H 93.0391 3.9247 1.38827 0
M  V30 951 H 93.5721 3.9659 -0.31001 0
M  V30 952 H 90.3111 6.0898 -2.42536 0
M  V30 953 H 89.8311 5.95486 -0.718095 0
M  V30 954 H 91.5101 6.36776 -1.14565 0
M  V30 955 N 91.6422 0.330177 1.54103 0
M  V30 956 C 92.8892 -0.270405 2.00686 0
M  V30 957 C 93.2172 -1.51621 1.21825 0
M  V30 958 O 92.4722 -1.93536 0.29025 0
M  V30 959 C 92.7712 -0.643134 3.51566 0
M  V30 960 C 92.4372 0.504251 4.48072 0
M  V30 961 C 91.0992 0.819163 4.74176 0
M  V30 962 C 93.4512 1.27465 5.05373 0
M  V30 963 C 90.7792 1.90708 5.5484 0
M  V30 964 C 93.1312 2.35271 5.87223 0
M  V30 965 C 91.7952 2.67336 6.11627 0
M  V30 966 H 91.0652 -0.0989482 0.734364 0
M  V30 967 H 93.7122 0.455324 1.86008 0
M  V30 968 H 92.0172 -1.44938 3.64006 0
M  V30 969 H 93.7142 -1.11949 3.85056 0
M  V30 970 H 90.3042 0.248733 4.27878 0
M  V30 971 H 94.4882 1.04462 4.85182 0
M  V30 972 H 89.7442 2.15991 5.71977 0
M  V30 973 H 93.9182 2.95405 6.30641 0
M  V30 974 H 91.5452 3.51763 6.73919 0
M  V30 975 N 93.1203 -1.57491 0.0584922 0
M  V30 976 C 94.0503 -2.14988 -0.911178 0
M  V30 977 C 95.0313 -1.07343 -1.31952 0
M  V30 978 O 96.2163 -1.35318 -1.39294 0
M  V30 979 C 93.3463 -2.70078 -2.18347 0
M  V30 980 C 92.3003 -3.82771 -1.91495 0
M  V30 981 C 91.6263 -4.24408 -3.25241 0
M  V30 982 C 92.9263 -5.07592 -1.23075 0
M  V30 983 H 94.6203 -2.96263 -0.432246 0
M  V30 984 H 92.1663 -1.42512 -0.206469 0
M  V30 985 H 94.1193 -3.08943 -2.86587 0
M  V30 986 H 92.8433 -1.86005 -2.68458 0
M  V30 987 H 91.5023 -3.44389 -1.25664 0
M  V30 988 H 91.1503 -3.37275 -3.73168 0
M  V30 989 H 90.8503 -5.00366 -3.08071 0
M  V30 990 H 92.3743 -4.65879 -3.94701 0
M  V30 991 H 93.7883 -5.43857 -1.81362 0
M  V30 992 H 92.1853 -5.88741 -1.16207 0
M  V30 993 H 93.2553 -4.84454 -0.207847 0
M  V30 994 N 94.5984 0.214957 -1.56127 0
M  V30 995 C 95.5484 1.27006 -1.8935 0
M  V30 996 C 96.5324 1.41969 -0.757202 0
M  V30 997 O 97.7244 1.44673 -1.01973 0
M  V30 998 C 94.8534 2.61911 -2.2194 0
M  V30 999 C 93.9394 2.50822 -3.41978 0
M  V30 1000 N 94.3304 2.09391 -4.60423 0
M  V30 1001 C 92.6284 2.81765 -3.45723 0
M  V30 1002 C 93.3294 2.09712 -5.42582 0
M  V30 1003 N 92.3054 2.50454 -4.82466 0
M  V30 1004 H 96.1074 0.940734 -2.78437 0
M  V30 1005 H 93.6214 0.423492 -1.56781 0
M  V30 1006 H 95.6184 3.38096 -2.43919 0
M  V30 1007 H 94.2784 2.95684 -1.34169 0
M  V30 1008 H 95.2894 1.80416 -4.85459 0
M  V30 1009 H 91.9664 3.19865 -2.68314 0
M  V30 1010 H 93.3564 1.79748 -6.4741 0
M  V30 1011 N 96.0765 1.50051 0.48192 0
M  V30 1012 C 97.3245 1.60181 1.23234 0
M  V30 1013 C 97.6455 0.299176 1.92691 0
M  V30 1014 O 96.9155 -0.682708 1.83619 0
M  V30 1015 H 95.4955 0.590232 0.457859 0
M  V30 1016 H 98.1575 1.86775 0.556881 0
M  V30 1017 H 97.2535 2.40753 1.98607 0
M  V30 1018 N 97.5546 -0.734337 1.39446 0
M  V30 1019 C 98.5016 -1.84835 1.38219 0
M  V30 1020 C 99.4716 -1.64331 0.24179 0
M  V30 1021 O 100.657 -1.85728 0.437002 0
M  V30 1022 C 97.7966 -3.22355 1.23212 0
M  V30 1023 C 96.9096 -3.5456 2.46801 0
M  V30 1024 C 96.0446 -4.81485 2.24377 0
M  V30 1025 C 95.0836 -5.06536 3.43639 0
M  V30 1026 N 94.2206 -6.24665 3.20528 0
M  V30 1027 H 99.0606 -1.85219 2.33448 0
M  V30 1028 H 96.5976 -0.905039 1.15963 0
M  V30 1029 H 98.5556 -4.0174 1.12522 0
M  V30 1030 H 97.1856 -3.21248 0.316121 0
M  V30 1031 H 96.2376 -2.69872 2.68092 0
M  V30 1032 H 97.5496 -3.6899 3.3563 0
M  V30 1033 H 96.7036 -5.68852 2.10933 0
M  V30 1034 H 95.4426 -4.6923 1.32944 0
M  V30 1035 H 94.4476 -4.17632 3.5758 0
M  V30 1036 H 95.6726 -5.20676 4.35974 0
M  V30 1037 H 93.6186 -6.13696 2.3176 0
M  V30 1038 H 93.5356 -6.39685 4.02913 0
M  V30 1039 H 94.8036 -7.14868 3.10779 0
M  V30 1040 N 99.0327 -1.24633 -0.964593 0
M  V30 1041 C 100.279 -1.08949 -1.71049 0
M  V30 1042 C 100.612 0.370302 -1.90637 0
M  V30 1043 O 99.8867 1.27349 -1.47011 0
M  V30 1044 C 100.17 -1.83329 -3.0994 0
M  V30 1045 C 100.023 -3.37077 -2.97824 0
M  V30 1046 C 101.342 -1.60846 -4.09654 0
M  V30 1047 H 98.4607 -0.397178 -0.620821 0
M  V30 1048 H 101.103 -1.5334 -1.12191 0
M  V30 1049 H 99.2527 -1.45597 -3.60186 0
M  V30 1050 H 100.925 -3.84425 -2.5498 0
M  V30 1051 H 99.1677 -3.65298 -2.33965 0
M  V30 1052 H 99.8387 -3.84324 -3.96231 0
M  V30 1053 H 102.315 -1.93674 -3.68279 0
M  V30 1054 H 101.191 -2.1534 -5.04896 0
M  V30 1055 H 101.452 -0.547434 -4.38698 0
M  V30 1056 N 100.511 1.16574 -1.06058 0
M  V30 1057 C 101.459 2.22941 -0.663343 0
M  V30 1058 C 102.453 1.66358 0.319593 0
M  V30 1059 O 103.659 1.7905 0.184713 0
M  V30 1060 H 100.034 0.725907 -0.196376 0
M  V30 1061 H 102.005 2.53736 -1.57037 0
M  V30 1062 C 100.754 3.47642 -0.0632808 0
M  V30 1063 H 100.077 3.91493 -0.810733 0
M  V30 1064 H 101.517 4.2363 0.177177 0
M  V30 1065 C 99.9758 3.1509 1.19248 0
M  V30 1066 O 100.506 3.30673 2.28075 0
M  V30 1067 N 98.7118 2.6924 1.09353 0
M  V30 1068 H 98.2588 2.5676 0.207912 0
M  V30 1069 H 98.2168 2.47833 1.93458 0
M  V30 1070 N 101.989 0.842826 1.3317 0
M  V30 1071 C 102.899 0.281444 2.32906 0
M  V30 1072 C 103.915 -0.594587 1.63526 0
M  V30 1073 O 105.091 -0.49777 1.95152 0
M  V30 1074 C 102.156 -0.530929 3.42611 0
M  V30 1075 C 101.217 0.369843 4.27704 0
M  V30 1076 C 100.45 -0.403853 5.3217 0
M  V30 1077 O 100.673 -1.63513 5.46461 0
M  V30 1078 O 99.6069 0.224199 6.01482 0
M  V30 1079 H 103.433 1.10744 2.82789 0
M  V30 1080 H 101.018 0.60545 1.36582 0
M  V30 1081 H 102.9 -0.992437 4.09547 0
M  V30 1082 H 101.575 -1.33392 2.94938 0
M  V30 1083 H 100.482 0.879275 3.6362 0
M  V30 1084 H 101.815 1.13771 4.78871 0
M  V30 1085 N 103.467 -1.45747 0.599634 0
M  V30 1086 C 104.43 -2.28917 -0.113835 0
M  V30 1087 C 105.43 -1.3933 -0.802729 0
M  V30 1088 O 106.62 -1.61534 -0.652103 0
M  V30 1089 C 103.752 -3.20152 -1.17114 0
M  V30 1090 H 104.945 -2.93478 0.617289 0
M  V30 1091 H 102.498 -1.52137 0.358327 0
M  V30 1092 H 103.233 -2.60374 -1.93329 0
M  V30 1093 H 103.018 -3.86133 -0.681468 0
M  V30 1094 H 104.508 -3.82708 -1.67105 0
M  V30 1095 N 104.945 -0.338344 -1.53925 0
M  V30 1096 C 106.17 0.263987 -2.05713 0
M  V30 1097 C 106.595 1.43847 -1.21201 0
M  V30 1098 O 105.953 1.79904 -0.224535 0
M  V30 1099 C 106.001 0.662 -3.54471 0
M  V30 1100 O 105.105 1.76265 -3.72833 0
M  V30 1101 H 104.446 0.0448722 -0.662482 0
M  V30 1102 H 106.976 -0.491048 -1.9862 0
M  V30 1103 H 106.986 0.940594 -3.9701 0
M  V30 1104 H 105.661 -0.196937 -4.15433 0
M  V30 1105 H 104.238 1.48173 -3.42198 0
M  V30 1106 N 106.423 1.57458 -0.0668435 0
M  V30 1107 C 107.671 1.92919 0.602214 0
M  V30 1108 C 107.992 0.947215 1.70449 0
M  V30 1109 O 107.262 -0.00544117 1.95899 0
M  V30 1110 H 105.842 0.71217 0.22544 0
M  V30 1111 H 108.504 1.94508 -0.123535 0
M  V30 1112 H 107.6 2.94589 1.03073 0
M  V30 1113 N 107.901 -0.206675 1.56239 0
M  V30 1114 C 109.178 -0.954051 1.70755 0
M  V30 1115 C 109.558 -2.01841 0.618353 0
M  V30 1116 O 108.906 -2.25444 -0.372434 0
M  V30 1117 C 109.116 -1.551 3.12642 0
M  V30 1118 C 110.464 -2.03757 3.72516 0
M  V30 1119 O 111.488 -1.64965 3.15698 0
M  V30 1120 O 110.347 -2.75103 4.72208 0
M  V30 1121 H 107.441 -0.446636 0.696021 0
M  V30 1122 H 109.987 -0.197283 1.68549 0
M  V30 1123 H 108.759 -0.783212 3.83382 0
M  V30 1124 H 108.382 -2.37291 3.19028 0
M  V30 1125 N 109.379 -1.50304 -0.473955 0
M  V30 1126 C 110.627 -1.60832 -1.22382 0
M  V30 1127 C 110.948 -0.30939 -1.9253 0
M  V30 1128 O 110.218 0.67296 -1.83978 0
M  V30 1129 H 108.798 -0.592652 -0.454723 0
M  V30 1130 H 111.46 -1.87068 -0.546968 0
M  V30 1131 H 110.556 -2.41803 -1.97327 0
M  V30 1132 N 110.857 0.726932 -1.39834 0
M  V30 1133 C 112.134 1.47902 -1.28001 0
M  V30 1134 C 112.514 2.1083 0.106789 0
M  V30 1135 O 111.862 1.99242 1.11869 0
M  V30 1136 C 112.072 2.52392 -2.41038 0
M  V30 1137 C 113.42 3.18546 -2.80737 0
M  V30 1138 O 114.444 2.62708 -2.40547 0
M  V30 1139 O 113.303 4.19604 -3.50135 0
M  V30 1140 H 110.397 0.657163 -0.502062 0
M  V30 1141 H 112.943 0.760071 -1.51727 0
M  V30 1142 H 111.715 2.04329 -3.33715 0
M  V30 1143 H 111.338 3.31837 -2.19021 0
M  V30 1144 N 112.336 1.25143 0.95797 0
M  V30 1145 C 113.584 1.09476 1.69881 0
M  V30 1146 C 113.905 -0.365502 1.91544 0
M  V30 1147 O 113.175 -1.25985 1.50015 0
M  V30 1148 H 111.755 0.402128 0.629525 0
M  V30 1149 H 114.417 1.57214 1.15194 0
M  V30 1150 H 113.513 1.60046 2.6794 0
M  V30 1151 N 113.814 -1.1601 1.06675 0
M  V30 1152 C 114.724 -2.24156 0.692179 0
M  V30 1153 C 115.74 -1.71507 -0.293513 0
M  V30 1154 O 116.916 -2.009 -0.141861 0
M  V30 1155 C 113.981 -3.46587 0.0884131 0
M  V30 1156 C 113.042 -4.14257 1.12646 0
M  V30 1157 C 112.275 -5.30844 0.551416 0
M  V30 1158 O 112.498 -5.66858 -0.634656 0
M  V30 1159 O 111.432 -5.87848 1.29298 0
M  V30 1160 H 115.258 -2.58513 1.59388 0
M  V30 1161 H 112.843 -1.23599 0.83926 0
M  V30 1162 H 114.725 -4.20679 -0.246361 0
M  V30 1163 H 113.4 -3.13994 -0.786712 0
M  V30 1164 H 112.307 -3.42118 1.51348 0
M  V30 1165 H 113.64 -4.50914 1.97325 0
M  V30 1166 N 115.292 -0.849877 -1.32721 0
M  V30 1167 C 116.569 -0.372405 -1.92022 0
M  V30 1168 C 116.949 1.1435 -1.77447 0
M  V30 1169 O 116.297 1.96296 -1.16962 0
M  V30 1170 C 116.507 -0.831482 -3.3895 0
M  V30 1171 C 117.855 -0.845882 -4.16089 0
M  V30 1172 O 118.879 -0.775806 -3.47649 0
M  V30 1173 O 117.738 -0.943753 -5.38289 0
M  V30 1174 H 114.832 -0.107667 -0.819961 0
M  V30 1175 H 117.378 -0.93646 -1.41522 0
M  V30 1176 H 116.15 -1.87448 -3.4348 0
M  V30 1177 H 115.773 -0.24461 -3.96847 0
M  V30 1178 N 116.77 1.45427 -0.607355 0
M  V30 1179 C 117.733 2.28974 0.101693 0
M  V30 1180 C 118.733 1.39754 0.795329 0
M  V30 1181 O 119.923 1.61878 0.643527 0
M  V30 1182 C 117.055 3.20768 1.15414 0
M  V30 1183 H 118.248 2.93147 -0.632844 0
M  V30 1184 H 115.801 1.51945 -0.366391 0
M  V30 1185 H 116.536 2.61395 1.91945 0
M  V30 1186 H 116.321 3.86489 0.66098 0
M  V30 1187 H 117.811 3.83589 1.65073 0
M  V30 1188 N 118.248 0.346503 1.53744 0
M  V30 1189 C 119.494 -0.249473 2.0126 0
M  V30 1190 C 119.827 -1.49965 1.23386 0
M  V30 1191 O 119.102 -1.91811 0.32229 0
M  V30 1192 C 119.385 -0.560643 3.55709 0
M  V30 1193 C 119.238 0.701836 4.44291 0
M  V30 1194 C 120.557 -1.36905 4.18264 0
M  V30 1195 H 117.676 -0.0891987 0.731582 0
M  V30 1196 H 120.318 0.467624 1.84156 0
M  V30 1197 H 118.468 -1.17156 3.70414 0
M  V30 1198 H 120.14 1.33974 4.41417 0
M  V30 1199 H 118.383 1.32612 4.13033 0
M  V30 1200 H 119.054 0.43933 5.50249 0
M  V30 1201 H 121.53 -0.852448 4.07275 0
M  V30 1202 H 120.406 -1.55553 5.26398 0
M  V30 1203 H 120.667 -2.37203 3.73078 0
M  V30 1204 N 119.726 -1.57421 0.075193 0
M  V30 1205 C 120.972 -1.93905 -0.594025 0
M  V30 1206 C 121.305 -0.955701 -1.69056 0
M  V30 1207 O 120.58 0.0145373 -1.94495 0
M  V30 1208 C 120.863 -3.40638 -1.1678 0
M  V30 1209 C 120.716 -4.49733 -0.0776792 0
M  V30 1210 C 122.035 -3.88259 -2.07228 0
M  V30 1211 H 119.154 -0.705105 -0.214466 0
M  V30 1212 H 121.796 -1.8947 0.141854 0
M  V30 1213 H 119.946 -3.44549 -1.79494 0
M  V30 1214 H 121.618 -4.57942 0.555573 0
M  V30 1215 H 119.861 -4.29751 0.591286 0
M  V30 1216 H 120.532 -5.49549 -0.519603 0
M  V30 1217 H 123.008 -3.86376 -1.54445 0
M  V30 1218 H 121.884 -4.91533 -2.44308 0
M  V30 1219 H 122.145 -3.26396 -2.98191 0
M  V30 1220 N 121.204 0.198386 -1.56346 0
M  V30 1221 C 122.453 0.917451 -1.79627 0
M  V30 1222 C 122.766 1.8456 -0.64784 0
M  V30 1223 O 123.972 2.60504 -0.764859 0
M  V30 1224 C 122.428 1.68175 -3.18191 0
M  V30 1225 C 122.036 0.798589 -4.40825 0
M  V30 1226 C 123.78 2.39065 -3.50782 0
M  V30 1227 C 121.687 1.56157 -5.70411 0
M  V30 1228 H 120.617 0.346317 -0.669762 0
M  V30 1229 H 123.268 0.170801 -1.82703 0
M  V30 1230 H 121.65 2.47216 -3.09354 0
M  V30 1231 H 122.824 0.0470665 -4.60776 0
M  V30 1232 H 121.139 0.200686 -4.15916 0
M  V30 1233 H 123.736 2.96692 -4.44835 0
M  V30 1234 H 124.079 3.13091 -2.74371 0
M  V30 1235 H 124.612 1.66993 -3.61052 0
M  V30 1236 H 121.351 0.864142 -6.49779 0
M  V30 1237 H 120.871 2.2871 -5.54483 0
M  V30 1238 H 122.55 2.11622 -6.11412 0
M  V30 1239 N 122.682 1.50554 0.465978 0
M  V30 1240 C 123.612 1.72722 1.57128 0
M  V30 1241 C 124.593 0.576294 1.6004 0
M  V30 1242 O 125.778 0.81598 1.76225 0
M  V30 1243 C 122.908 1.82605 2.95419 0
M  V30 1244 C 121.862 2.97835 3.07373 0
M  V30 1245 C 121.188 2.92867 4.47363 0
M  V30 1246 C 122.488 4.38265 2.84114 0
M  V30 1247 H 124.182 2.65267 1.38829 0
M  V30 1248 H 121.728 1.2765 0.666441 0
M  V30 1249 H 123.681 1.96698 3.72677 0
M  V30 1250 H 122.405 0.866858 3.14886 0
M  V30 1251 H 121.064 2.83401 2.3255 0
M  V30 1252 H 120.712 1.94783 4.63755 0
M  V30 1253 H 120.412 3.70227 4.56296 0
M  V30 1254 H 121.936 3.09015 5.26633 0
M  V30 1255 H 123.35 4.53198 3.51118 0
M  V30 1256 H 121.747 5.17115 3.04487 0
M  V30 1257 H 122.817 4.50281 1.7993 0
M  V30 1258 N 124.16 -0.719506 1.40217 0
M  V30 1259 C 125.07 -1.86378 1.42479 0
M  V30 1260 C 126.086 -1.71073 0.317834 0
M  V30 1261 O 127.262 -1.93406 0.561794 0
M  V30 1262 C 124.327 -3.22136 1.28178 0
M  V30 1263 C 123.388 -3.49723 2.48982 0
M  V30 1264 C 122.621 -4.79004 2.35353 0
M  V30 1265 O 122.844 -5.53821 1.36524 0
M  V30 1266 O 121.778 -5.06839 3.2465 0
M  V30 1267 H 125.604 -1.87425 2.38968 0
M  V30 1268 H 123.189 -0.869405 1.21498 0
M  V30 1269 H 125.071 -4.03234 1.22395 0
M  V30 1270 H 123.746 -3.21825 0.347934 0
M  V30 1271 H 122.653 -2.6865 2.60342 0
M  V30 1272 H 123.986 -3.54828 3.41113 0
M  V30 1273 N 125.638 -1.25649 -0.95132 0
M  V30 1274 C 126.585 -1.06323 -2.04851 0
M  V30 1275 C 127.555 0.0286491 -1.66075 0
M  V30 1276 O 128.74 -0.12917 -1.90362 0
M  V30 1277 C 125.88 -0.691529 -3.381 0
M  V30 1278 C 124.993 -1.85861 -3.89974 0
M  V30 1279 C 124.128 -1.43096 -5.11563 0
M  V30 1280 C 123.167 -2.56696 -5.55674 0
M  V30 1281 N 122.304 -2.14684 -6.68472 0
M  V30 1282 H 127.144 -2.00222 -2.20715 0
M  V30 1283 H 124.681 -0.997027 -1.08156 0
M  V30 1284 H 126.639 -0.456963 -4.1469 0
M  V30 1285 H 125.269 0.210474 -3.22113 0
M  V30 1286 H 124.321 -2.20639 -3.09875 0
M  V30 1287 H 125.633 -2.71161 -4.18657 0
M  V30 1288 H 124.787 -1.15624 -5.9558 0
M  V30 1289 H 123.526 -0.548722 -4.84603 0
M  V30 1290 H 122.531 -2.84909 -4.7022 0
M  V30 1291 H 123.756 -3.45503 -5.8464 0
M  V30 1292 H 121.702 -1.28881 -6.43215 0
M  V30 1293 H 121.619 -2.9353 -6.96689 0
M  V30 1294 H 122.887 -1.90397 -7.5589 0
M  V30 1295 N 127.117 1.15442 -1.07289 0
M  V30 1296 C 128.345 1.90096 -0.81676 0
M  V30 1297 C 128.76 1.7798 0.629966 0
M  V30 1298 O 128.117 1.1313 1.43206 0
M  V30 1299 C 128.168 3.40466 -1.21512 0
M  V30 1300 O 127.889 3.52232 -2.60508 0
M  V30 1301 C 129.39 4.32145 -0.988198 0
M  V30 1302 H 126.61 0.602495 -0.295366 0
M  V30 1303 H 129.154 1.4627 -1.42918 0
M  V30 1304 H 127.309 3.81958 -0.647039 0
M  V30 1305 H 127.723 4.45549 -2.76742 0
M  V30 1306 H 129.197 5.36072 -1.31645 0
M  V30 1307 H 129.674 4.39135 0.0755063 0
M  V30 1308 H 130.28 3.96395 -1.54115 0
M  V30 1309 N 128.595 0.856903 1.32268 0
M  V30 1310 C 130.006 0.515711 1.79436 0
M  V30 1311 C 130.357 -0.966586 1.70738 0
M  V30 1312 O 129.482 -1.75409 1.26731 0
M  V30 1313 C 130.077 0.929335 3.25805 0
M  V30 1314 C 128.636 0.640006 3.70919 0
M  V30 1315 C 127.783 1.12784 2.53328 0
M  V30 1316 H 130.734 1.04389 1.19535 0
M  V30 1317 H 130.755 0.246633 3.797 0
M  V30 1318 H 130.267 2.00821 3.32103 0
M  V30 1319 H 128.368 -0.428051 3.70133 0
M  V30 1320 H 128.481 1.20788 4.63624 0
M  V30 1321 H 126.845 0.548033 2.48734 0
M  V30 1322 H 127.628 2.21387 2.62379 0
M  V30 1323 N 130.073 -1.45103 0.615059 0
M  V30 1324 C 131.32 -2.02183 0.113179 0
M  V30 1325 C 131.648 -1.48249 -1.25906 0
M  V30 1326 O 130.903 -0.650265 -1.84581 0
M  V30 1327 C 131.202 -3.57386 0.0318797 0
M  V30 1328 C 130.868 -4.30505 1.34077 0
M  V30 1329 C 129.53 -4.50197 1.69929 0
M  V30 1330 C 131.882 -4.72238 2.20546 0
M  V30 1331 C 129.21 -5.08881 2.91988 0
M  V30 1332 C 131.562 -5.32272 3.41861 0
M  V30 1333 C 130.226 -5.50187 3.77956 0
M  V30 1334 H 129.496 -0.739842 0.0414151 0
M  V30 1335 H 132.143 -1.74073 0.798168 0
M  V30 1336 H 130.448 -3.84817 -0.736409 0
M  V30 1337 H 132.145 -3.99264 -0.372712 0
M  V30 1338 H 128.735 -4.15496 1.05173 0
M  V30 1339 H 132.919 -4.56751 1.94146 0
M  V30 1340 H 128.175 -5.20939 3.2005 0
M  V30 1341 H 132.349 -5.63563 4.09109 0
M  V30 1342 H 129.976 -5.95427 4.72622 0
M  V30 1343 N 131.551 -0.354651 -1.53558 0
M  V30 1344 C 132.483 0.5315 -2.22952 0
M  V30 1345 C 133.496 1.05503 -1.23988 0
M  V30 1346 O 134.685 0.963279 -1.50277 0
M  V30 1347 C 131.785 1.74538 -2.90499 0
M  V30 1348 C 130.958 1.35524 -4.15875 0
M  V30 1349 C 130.017 2.42999 -4.66731 0
M  V30 1350 O 129.043 2.05844 -5.30676 0
M  V30 1351 N 130.245 3.74423 -4.43608 0
M  V30 1352 H 133.01 -0.0628615 -2.99634 0
M  V30 1353 H 130.571 -0.179302 -1.60904 0
M  V30 1354 H 132.563 2.45892 -3.21433 0
M  V30 1355 H 131.133 2.24686 -2.17336 0
M  V30 1356 H 130.353 0.471998 -3.91364 0
M  V30 1357 H 131.641 1.07071 -4.97406 0
M  V30 1358 H 131.039 4.07391 -3.92491 0
M  V30 1359 H 129.596 4.41913 -4.7912 0
M  V30 1360 N 133.029 1.57378 -0.0835403 0
M  V30 1361 C 134.275 1.94217 0.583733 0
M  V30 1362 C 134.608 0.964653 1.68547 0
M  V30 1363 O 133.883 -0.00422258 1.945 0
M  V30 1364 C 134.166 3.41253 1.14972 0
M  V30 1365 C 134.019 4.49768 0.0538277 0
M  V30 1366 C 135.338 3.89352 2.05166 0
M  V30 1367 H 132.457 0.706233 0.210724 0
M  V30 1368 H 135.099 1.89392 -0.1519 0
M  V30 1369 H 133.249 3.45496 1.77665 0
M  V30 1370 H 134.921 4.57641 -0.579851 0
M  V30 1371 H 133.164 4.29432 -0.614068 0
M  V30 1372 H 133.835 5.49817 0.490452 0
M  V30 1373 H 136.311 3.87189 1.52393 0
M  V30 1374 H 135.187 4.92822 2.41698 0
M  V30 1375 H 135.448 3.27973 2.96456 0
M  V30 1376 N 134.507 -0.190092 1.56449 0
M  V30 1377 C 135.417 -1.25591 1.98152 0
M  V30 1378 C 136.433 -1.49519 0.889944 0
M  V30 1379 O 137.609 -1.62036 1.19609 0
M  V30 1380 C 134.674 -2.57916 2.3169 0
M  V30 1381 C 133.735 -2.42015 3.5458 0
M  V30 1382 C 132.968 -3.6803 3.8651 0
M  V30 1383 O 133.191 -4.72413 3.1966 0
M  V30 1384 O 132.125 -3.6326 4.79923 0
M  V30 1385 H 135.951 -0.931988 2.89046 0
M  V30 1386 H 133.536 -0.395488 1.4407 0
M  V30 1387 H 135.418 -3.36008 2.54316 0
M  V30 1388 H 134.093 -2.89925 1.43963 0
M  V30 1389 H 133 -1.62017 3.37196 0
M  V30 1390 H 134.333 -2.14937 4.4279 0
M  V30 1391 N 135.985 -1.50799 -0.457987 0
M  V30 1392 C 136.917 -1.66786 -1.57211 0
M  V30 1393 C 137.93 -0.548962 -1.53265 0
M  V30 1394 O 139.119 -0.8226 -1.58416 0
M  V30 1395 C 136.219 -1.64834 -2.96113 0
M  V30 1396 C 135.392 -2.92971 -3.24787 0
M  V30 1397 C 134.451 -2.83485 -4.43309 0
M  V30 1398 O 133.477 -3.5744 -4.42973 0
M  V30 1399 N 134.679 -1.97929 -5.45714 0
M  V30 1400 H 137.444 -2.62889 -1.43909 0
M  V30 1401 H 135.005 -1.48427 -0.646617 0
M  V30 1402 H 136.997 -1.56084 -3.7339 0
M  V30 1403 H 135.567 -0.764118 -3.03117 0
M  V30 1404 H 134.787 -3.15749 -2.36 0
M  V30 1405 H 136.075 -3.77834 -3.40762 0
M  V30 1406 H 135.473 -1.37182 -5.48815 0
M  V30 1407 H 134.03 -1.95073 -6.21924 0
M  V30 1408 N 137.463 0.71206 -1.40597 0
M  V30 1409 C 138.709 1.47416 -1.39271 0
M  V30 1410 C 139.042 1.942 0.00388791 0
M  V30 1411 O 138.317 1.68403 0.973179 0
M  V30 1412 C 138.6 2.69774 -2.38525 0
M  V30 1413 C 138.453 2.28861 -3.87224 0
M  V30 1414 C 139.772 3.71939 -2.35264 0
M  V30 1415 H 136.891 0.534713 -0.5072 0
M  V30 1416 H 139.533 0.812375 -1.71757 0
M  V30 1417 H 137.683 3.26238 -2.10953 0
M  V30 1418 H 139.355 1.77852 -4.25636 0
M  V30 1419 H 137.598 1.60824 -4.02887 0
M  V30 1420 H 138.269 3.16584 -4.52193 0
M  V30 1421 H 140.745 3.25113 -2.59694 0
M  V30 1422 H 139.621 4.55186 -3.06753 0
M  V30 1423 H 139.882 4.20484 -1.36549 0
M  V30 1424 N 138.941 1.26152 0.944643 0
M  V30 1425 C 139.904 1.07474 2.0244 0
M  V30 1426 C 140.904 0.0242064 1.60782 0
M  V30 1427 O 142.094 0.267302 1.72137 0
M  V30 1428 C 139.226 0.633956 3.34953 0
M  V30 1429 H 140.419 2.03336 2.20442 0
M  V30 1430 H 137.972 1.087 1.12312 0
M  V30 1431 H 138.707 -0.326811 3.22649 0
M  V30 1432 H 138.492 1.39247 3.66542 0
M  V30 1433 H 139.982 0.52501 4.14287 0
M  V30 1434 N 140.419 -1.14872 1.07899 0
M  V30 1435 C 141.351 -2.19425 0.662231 0
M  V30 1436 C 142.364 -1.60231 -0.288079 0
M  V30 1437 O 143.553 -1.78336 -0.076534 0
M  V30 1438 C 140.653 -3.38867 -0.0470695 0
M  V30 1439 C 139.826 -4.27597 0.920831 0
M  V30 1440 C 138.885 -5.25616 0.247805 0
M  V30 1441 O 137.911 -5.62189 0.890599 0
M  V30 1442 N 139.113 -5.71746 -1.00435 0
M  V30 1443 H 141.878 -2.55797 1.56166 0
M  V30 1444 H 139.439 -1.30042 0.964404 0
M  V30 1445 H 141.431 -4.01497 -0.50813 0
M  V30 1446 H 140.001 -3.00864 -0.848523 0
M  V30 1447 H 139.221 -3.61982 1.56087 0
M  V30 1448 H 140.509 -4.83748 1.57688 0
M  V30 1449 H 139.907 -5.44153 -1.54642 0
M  V30 1450 H 138.464 -6.36389 -1.40899 0
M  V30 1451 N 141.898 -0.863906 -1.31812 0
M  V30 1452 C 142.828 -0.330843 -2.31144 0
M  V30 1453 C 143.809 0.575005 -1.60087 0
M  V30 1454 O 144.994 0.493304 -1.8783 0
M  V30 1455 C 142.124 0.47374 -3.44054 0
M  V30 1456 C 141.078 -0.338481 -4.26659 0
M  V30 1457 C 140.404 0.591412 -5.31419 0
M  V30 1458 C 141.704 -1.56926 -4.98168 0
M  V30 1459 H 143.398 -1.16086 -2.75979 0
M  V30 1460 H 140.944 -0.559657 -1.32679 0
M  V30 1461 H 142.897 0.857143 -4.12591 0
M  V30 1462 H 141.621 1.33721 -2.9797 0
M  V30 1463 H 140.28 -0.703754 -3.59782 0
M  V30 1464 H 139.928 1.45199 -4.81587 0
M  V30 1465 H 139.628 0.0519022 -5.87577 0
M  V30 1466 H 141.152 0.97179 -6.02817 0
M  V30 1467 H 142.566 -1.25764 -5.59336 0
M  V30 1468 H 140.963 -2.04739 -5.64094 0
M  V30 1469 H 142.033 -2.32544 -4.25501 0
M  V30 1470 N 143.376 1.44774 -0.622745 0
M  V30 1471 C 144.306 2.33382 0.0741861 0
M  V30 1472 C 145.287 1.47719 0.843387 0
M  V30 1473 O 146.472 1.76458 0.810934 0
M  V30 1474 C 143.602 3.30663 1.06204 0
M  V30 1475 C 142.556 4.26079 0.405037 0
M  V30 1476 C 141.882 5.13165 1.5022 0
M  V30 1477 C 143.182 5.1781 -0.683414 0
M  V30 1478 H 144.876 2.91905 -0.665713 0
M  V30 1479 H 142.422 1.40363 -0.321587 0
M  V30 1480 H 144.375 3.9153 1.55827 0
M  V30 1481 H 143.099 2.70331 1.83272 0
M  V30 1482 H 141.758 3.66532 -0.0704683 0
M  V30 1483 H 141.406 4.49191 2.26355 0
M  V30 1484 H 141.106 5.77812 1.06803 0
M  V30 1485 H 142.63 5.76902 2.00041 0
M  V30 1486 H 144.044 5.72661 -0.270631 0
M  V30 1487 H 142.441 5.91015 -1.04023 0
M  V30 1488 H 143.511 4.59326 -1.55395 0
M  V30 1489 N 144.854 0.36279 1.53368 0
M  V30 1490 C 146.082 -0.228613 2.05633 0
M  V30 1491 C 146.497 -1.42676 1.23649 0
M  V30 1492 O 145.854 -1.80394 0.27647 0
M  V30 1493 C 145.905 -0.624845 3.56059 0
M  V30 1494 O 145.626 0.525675 4.34935 0
M  V30 1495 C 147.127 -1.27493 4.24571 0
M  V30 1496 H 144.347 -0.0407183 0.669763 0
M  V30 1497 H 146.891 0.520352 1.97769 0
M  V30 1498 H 145.046 -1.32373 3.64083 0
M  V30 1499 H 145.46 0.205969 5.24095 0
M  V30 1500 H 146.934 -1.50277 5.31151 0
M  V30 1501 H 147.411 -2.23439 3.78116 0
M  V30 1502 H 148.017 -0.617558 4.20792 0
M  V30 1503 N 146.332 -1.57332 0.0918853 0
M  V30 1504 C 147.58 -1.93853 -0.571446 0
M  V30 1505 C 147.901 -0.974212 -1.6892 0
M  V30 1506 O 147.171 -0.0257254 -1.95883 0
M  V30 1507 H 145.751 -0.715666 -0.214082 0
M  V30 1508 H 148.413 -1.94287 0.154464 0
M  V30 1509 H 147.509 -2.96191 -0.983729 0
M  V30 1510 N 147.81 0.181792 -1.56548 0
M  V30 1511 C 149.035 0.920019 -1.85877 0
M  V30 1512 C 149.46 1.75494 -0.677021 0
M  V30 1513 O 148.818 1.77399 0.374056 0
M  V30 1514 C 148.866 1.78112 -3.13542 0
M  V30 1515 O 147.97 2.88152 -2.95029 0
M  V30 1516 H 147.311 0.258334 -0.611686 0
M  V30 1517 H 149.841 0.183092 -2.03779 0
M  V30 1518 H 149.851 2.18314 -3.44678 0
M  V30 1519 H 148.526 1.16777 -3.99169 0
M  V30 1520 H 147.103 2.51609 -2.75222 0
M  V30 1521 N 149.288 1.51039 0.449983 0
M  V30 1522 C 150.699 1.557 1.03026 0
M  V30 1523 C 151.05 0.372939 1.92623 0
M  V30 1524 O 150.175 -0.511771 2.10261 0
M  V30 1525 C 150.77 2.82171 1.87523 0
M  V30 1526 C 149.329 2.89444 2.40622 0
M  V30 1527 C 148.476 2.50228 1.19504 0
M  V30 1528 H 151.427 1.56999 0.231745 0
M  V30 1529 H 151.448 2.65219 2.72835 0
M  V30 1530 H 150.96 3.68331 1.22286 0
M  V30 1531 H 149.061 2.07685 3.0935 0
M  V30 1532 H 149.174 3.92816 2.74285 0
M  V30 1533 H 147.538 2.03139 1.53644 0
M  V30 1534 H 148.321 3.38719 0.558972 0
M  V30 1535 N 150.766 -0.704594 1.40972 0
M  V30 1536 C 151.676 -1.84856 1.44448 0
M  V30 1537 C 152.692 -1.70726 0.335961 0
M  V30 1538 O 153.868 -1.92799 0.582276 0
M  V30 1539 C 150.933 -3.20758 1.31587 0
M  V30 1540 C 149.994 -3.47063 2.52677 0
M  V30 1541 C 149.227 -4.76481 2.4042 0
M  V30 1542 O 149.45 -5.52341 1.42391 0
M  V30 1543 O 148.384 -5.03367 3.30007 0
M  V30 1544 H 152.21 -1.8488 2.40942 0
M  V30 1545 H 149.795 -0.85647 1.22413 0
M  V30 1546 H 151.677 -4.01913 1.26665 0
M  V30 1547 H 150.352 -3.21438 0.382049 0
M  V30 1548 H 149.259 -2.65873 2.63177 0
M  V30 1549 H 150.592 -3.5119 3.44858 0
M  V30 1550 N 152.244 -1.26651 -0.937939 0
M  V30 1551 C 153.174 -1.10993 -2.05433 0
M  V30 1552 C 154.155 -0.0142161 -1.70094 0
M  V30 1553 O 155.34 -0.186837 -1.93299 0
M  V30 1554 C 152.47 -0.745561 -3.39203 0
M  V30 1555 C 151.424 -1.79337 -3.88616 0
M  V30 1556 C 150.75 -1.28324 -5.19073 0
M  V30 1557 C 152.05 -3.19553 -4.13138 0
M  V30 1558 H 153.744 -2.0438 -2.1879 0
M  V30 1559 H 151.29 -0.984041 -1.05131 0
M  V30 1560 H 153.243 -0.622888 -4.16771 0
M  V30 1561 H 151.967 0.22401 -3.25831 0
M  V30 1562 H 150.626 -1.90477 -3.13231 0
M  V30 1563 H 150.274 -0.303414 -5.02084 0
M  V30 1564 H 149.974 -1.98369 -5.53103 0
M  V30 1565 H 151.498 -1.1733 -5.99221 0
M  V30 1566 H 152.912 -3.11471 -4.81309 0
M  V30 1567 H 151.309 -3.87218 -4.58457 0
M  V30 1568 H 152.379 -3.65368 -3.18801 0
M  V30 1569 N 153.722 1.14298 -1.08507 0
M  V30 1570 C 154.654 2.1907 -0.673859 0
M  V30 1571 C 155.667 1.60381 0.279577 0
M  V30 1572 O 156.856 1.78374 0.0670754 0
M  V30 1573 C 153.956 3.38888 0.0290979 0
M  V30 1574 C 153.129 4.27103 -0.943494 0
M  V30 1575 C 152.188 5.25477 -0.275676 0
M  V30 1576 O 151.214 5.61709 -0.920401 0
M  V30 1577 N 152.416 5.7227 0.974013 0
M  V30 1578 H 155.181 2.54965 -1.57521 0
M  V30 1579 H 152.742 1.29528 -0.971287 0
M  V30 1580 H 154.734 4.01761 0.48683 0
M  V30 1581 H 153.304 3.01309 0.832555 0
M  V30 1582 H 152.524 3.61149 -1.58004 0
M  V30 1583 H 153.812 4.82905 -1.60251 0
M  V30 1584 H 153.21 5.44965 1.51755 0
M  V30 1585 H 151.767 6.37127 1.37522 0
M  V30 1586 N 155.201 0.870884 1.31352 0
M  V30 1587 C 156.131 0.343096 2.30966 0
M  V30 1588 C 157.112 -0.566507 1.60389 0
M  V30 1589 O 158.297 -0.483336 1.88089 0
M  V30 1590 C 155.427 -0.455487 3.443 0
M  V30 1591 C 154.381 0.361103 4.26474 0
M  V30 1592 C 153.707 -0.563221 5.31725 0
M  V30 1593 C 155.007 1.59566 4.97329 0
M  V30 1594 H 156.701 1.17548 2.75359 0
M  V30 1595 H 154.247 0.566686 1.32381 0
M  V30 1596 H 156.2 -0.83525 4.13039 0
M  V30 1597 H 154.924 -1.32139 2.98675 0
M  V30 1598 H 153.583 0.722825 3.59403 0
M  V30 1599 H 153.231 -1.42643 4.82351 0
M  V30 1600 H 152.931 -0.0207409 5.87596 0
M  V30 1601 H 154.455 -0.939808 6.03324 0
M  V30 1602 H 155.869 1.28728 5.58661 0
M  V30 1603 H 154.266 2.07728 5.63 0
M  V30 1604 H 155.336 2.34798 4.24262 0
M  V30 1605 N 156.679 -1.44442 0.630414 0
M  V30 1606 C 157.611 -2.2892 -0.113347 0
M  V30 1607 C 158.624 -1.41243 -0.80959 0
M  V30 1608 O 159.813 -1.65402 -0.671156 0
M  V30 1609 C 156.913 -3.17594 -1.18266 0
M  V30 1610 C 156.086 -4.33682 -0.569073 0
M  V30 1611 C 155.145 -5.03397 -1.53226 0
M  V30 1612 O 154.171 -5.59438 -1.04967 0
M  V30 1613 N 155.373 -5.04783 -2.86661 0
M  V30 1614 H 158.138 -2.93392 0.611636 0
M  V30 1615 H 155.699 -1.54881 0.471523 0
M  V30 1616 H 157.691 -3.61097 -1.82732 0
M  V30 1617 H 156.261 -2.54876 -1.80988 0
M  V30 1618 H 155.481 -3.9338 0.254187 0
M  V30 1619 H 156.769 -5.08608 -0.139767 0
M  V30 1620 H 156.167 -4.60584 -3.28449 0
M  V30 1621 H 154.724 -5.52077 -3.46489 0
M  V30 1622 N 158.157 -0.370918 -1.53173 0
M  V30 1623 C 159.404 0.217102 -2.01333 0
M  V30 1624 C 159.732 1.48338 -1.25802 0
M  V30 1625 O 158.987 1.92698 -0.34146 0
M  V30 1626 C 159.286 0.549696 -3.53147 0
M  V30 1627 C 158.952 -0.622872 -4.46577 0
M  V30 1628 C 157.614 -0.944595 -4.71838 0
M  V30 1629 C 159.966 -1.40819 -5.01816 0
M  V30 1630 C 157.294 -2.05351 -5.49589 0
M  V30 1631 C 159.646 -2.50757 -5.80778 0
M  V30 1632 C 158.31 -2.83458 -6.04324 0
M  V30 1633 H 157.58 0.0794431 -0.736729 0
M  V30 1634 H 160.227 -0.504481 -1.84736 0
M  V30 1635 H 158.532 1.35237 -3.6772 0
M  V30 1636 H 160.229 1.017 -3.87889 0
M  V30 1637 H 156.819 -0.36209 -4.27068 0
M  V30 1638 H 161.003 -1.17289 -4.82242 0
M  V30 1639 H 156.259 -2.3108 -5.6605 0
M  V30 1640 H 160.433 -3.12022 -6.22588 0
M  V30 1641 H 158.06 -3.69508 -6.64355 0
M  V30 1642 N 159.635 1.57281 -0.100228 0
M  V30 1643 C 160.86 1.99302 0.573881 0
M  V30 1644 C 161.285 0.979059 1.60611 0
M  V30 1645 O 160.643 -0.0517803 1.81226 0
M  V30 1646 C 160.691 3.40274 1.19358 0
M  V30 1647 O 159.795 3.41676 2.30935 0
M  V30 1648 H 159.136 0.647944 0.145138 0
M  V30 1649 H 161.666 2.03779 -0.183156 0
M  V30 1650 H 161.676 3.78078 1.53365 0
M  V30 1651 H 160.351 4.13594 0.437385 0
M  V30 1652 H 158.928 3.15672 1.98509 0
M  V30 1653 N 161.113 -0.173488 1.56642 0
M  V30 1654 C 162.061 -1.23417 1.97157 0
M  V30 1655 C 163.055 -1.45946 0.860013 0
M  V30 1656 O 164.261 -1.46551 1.04512 0
M  V30 1657 H 160.636 -0.414818 0.62724 0
M  V30 1658 H 162.607 -0.865582 2.8557 0
M  V30 1659 C 161.356 -2.5665 2.34576 0
M  V30 1660 H 160.679 -2.40137 3.19647 0
M  V30 1661 H 162.119 -3.2956 2.6677 0
M  V30 1662 C 160.578 -3.15245 1.18836 0
M  V30 1663 O 161.108 -3.98883 0.474869 0
M  V30 1664 N 159.314 -2.74303 0.959497 0
M  V30 1665 H 158.861 -2.0639 1.54146 0
M  V30 1666 H 158.819 -3.13844 0.186932 0
M  V30 1667 N 162.591 -1.51276 -0.441967 0
M  V30 1668 C 163.868 -1.54252 -1.20273 0
M  V30 1669 C 164.248 -0.30408 -2.08898 0
M  V30 1670 O 163.596 0.711084 -2.17154 0
M  V30 1671 C 163.806 -2.85406 -2.00859 0
M  V30 1672 C 165.154 -3.37181 -2.58059 0
M  V30 1673 O 166.178 -2.86925 -2.11074 0
M  V30 1674 O 165.037 -4.24858 -3.43741 0
M  V30 1675 H 162.131 -0.619969 -0.547328 0
M  V30 1676 H 164.677 -1.63586 -0.451413 0
M  V30 1677 H 163.449 -3.67003 -1.35736 0
M  V30 1678 H 163.072 -2.79213 -2.83065 0
M  V30 1679 N 164.069 0.697108 -1.41344 0
M  V30 1680 C 165.318 1.45279 -1.39918 0
M  V30 1681 C 165.631 1.95597 -0.0109624 0
M  V30 1682 O 166.837 2.71208 0.125919 0
M  V30 1683 C 165.293 2.62695 -2.46007 0
M  V30 1684 C 164.901 2.19169 -3.90729 0
M  V30 1685 C 166.645 3.40336 -2.53715 0
M  V30 1686 C 164.552 3.33535 -4.88373 0
M  V30 1687 H 163.482 0.545692 -0.520323 0
M  V30 1688 H 166.133 0.756929 -1.67161 0
M  V30 1689 H 164.515 3.34541 -2.11892 0
M  V30 1690 H 165.689 1.54623 -4.34083 0
M  V30 1691 H 164.004 1.54525 -3.86666 0
M  V30 1692 H 166.601 4.2547 -3.2385 0
M  V30 1693 H 166.944 3.85418 -1.5735 0
M  V30 1694 H 167.477 2.75546 -2.86913 0
M  V30 1695 H 164.216 2.93468 -5.86137 0
M  V30 1696 H 163.736 3.96936 -4.49668 0
M  V30 1697 H 165.415 3.99335 -5.09059 0
M  V30 1698 N 165.547 1.27147 0.931209 0
M  V30 1699 C 166.777 1.15914 1.71019 0
M  V30 1700 C 167.185 -0.287112 1.87009 0
M  V30 1701 O 166.528 -1.20761 1.38429 0
M  V30 1702 C 166.59 1.76647 3.13107 0
M  V30 1703 C 166.254 3.25807 3.20467 0
M  V30 1704 C 167.251 4.22489 3.02983 0
M  V30 1705 C 164.936 3.66452 3.43538 0
M  V30 1706 C 166.93 5.57794 3.08454 0
M  V30 1707 C 164.617 5.01888 3.48643 0
M  V30 1708 C 165.615 5.97369 3.31119 0
M  V30 1709 O 165.303 7.30337 3.35952 0
M  V30 1710 H 165.035 0.404062 0.54195 0
M  V30 1711 H 167.589 1.68457 1.17521 0
M  V30 1712 H 165.819 1.18578 3.68071 0
M  V30 1713 H 167.508 1.60179 3.72958 0
M  V30 1714 H 168.274 3.92425 2.85004 0
M  V30 1715 H 164.153 2.92611 3.5623 0
M  V30 1716 H 167.697 6.32298 2.94694 0
M  V30 1717 H 163.594 5.31609 3.66145 0
M  V30 1718 H 164.362 7.38739 3.5243 0
M  V30 1719 N 167.025 -1.13721 1.09112 0
M  V30 1720 C 168.25 -1.89314 0.847053 0
M  V30 1721 C 168.675 -1.78416 -0.595774 0
M  V30 1722 O 168.033 -1.12942 -1.41823 0
M  V30 1723 C 168.081 -3.3701 1.28284 0
M  V30 1724 O 167.185 -4.10054 0.439267 0
M  V30 1725 H 166.526 -0.588745 0.307044 0
M  V30 1726 H 169.056 -1.43902 1.45442 0
M  V30 1727 H 169.066 -3.87834 1.26683 0
M  V30 1728 H 167.741 -3.4426 2.33363 0
M  V30 1729 H 166.318 -3.69266 0.519312 0
M  V30 1730 N 168.503 -0.877838 -1.30888 0
M  V30 1731 C 169.731 -0.507414 -2.00581 0
M  V30 1732 C 170.146 0.902216 -1.65848 0
M  V30 1733 O 169.503 1.59225 -0.891831 0
M  V30 1734 C 169.554 -0.664162 -3.55347 0
M  V30 1735 O 169.275 -2.01829 -3.8884 0
M  V30 1736 C 170.776 -0.295787 -4.42312 0
M  V30 1737 H 167.996 -0.196866 -0.641471 0
M  V30 1738 H 170.54 -1.18117 -1.66939 0
M  V30 1739 H 168.695 -0.0378619 -3.87381 0
M  V30 1740 H 169.109 -2.03174 -4.8355 0
M  V30 1741 H 170.583 -0.456388 -5.5011 0
M  V30 1742 H 171.06 0.765663 -4.32475 0
M  V30 1743 H 171.666 -0.898113 -4.15709 0
M  V30 1744 N 169.982 1.44106 -0.638065 0
M  V30 1745 C 171.212 2.06037 -0.152394 0
M  V30 1746 C 171.62 1.47808 1.18108 0
M  V30 1747 O 170.963 0.598092 1.73691 0
M  V30 1748 C 171.025 3.59488 0.0293714 0
M  V30 1749 C 170.689 4.4022 -1.22702 0
M  V30 1750 C 171.686 4.73256 -2.15232 0
M  V30 1751 C 169.371 4.8048 -1.46437 0
M  V30 1752 C 171.365 5.45444 -3.29802 0
M  V30 1753 C 169.052 5.52417 -2.61303 0
M  V30 1754 C 170.05 5.84819 -3.52811 0
M  V30 1755 O 169.738 6.55289 -4.65673 0
M  V30 1756 H 169.47 0.671233 -0.0801401 0
M  V30 1757 H 172.024 1.85851 -0.874563 0
M  V30 1758 H 170.254 3.78191 0.806758 0
M  V30 1759 H 171.943 4.03164 0.470475 0
M  V30 1760 H 172.709 4.42684 -1.98131 0
M  V30 1761 H 168.588 4.54676 -0.760977 0
M  V30 1762 H 172.132 5.70653 -4.01249 0
M  V30 1763 H 168.029 5.82404 -2.78344 0
M  V30 1764 H 168.797 6.73762 -4.64744 0
M  V30 1765 N 171.46 0.379036 1.52974 0
M  V30 1766 C 172.41 -0.477772 2.22938 0
M  V30 1767 C 173.394 -1.03792 1.22948 0
M  V30 1768 O 174.586 -0.965725 1.48333 0
M  V30 1769 C 171.715 -1.60994 3.03209 0
M  V30 1770 C 170.801 -1.06203 4.10587 0
M  V30 1771 N 171.192 -0.238214 5.05239 0
M  V30 1772 C 169.49 -1.33554 4.25534 0
M  V30 1773 C 170.191 0.0633235 5.81666 0
M  V30 1774 N 169.167 -0.537901 5.40932 0
M  V30 1775 H 172.969 0.158295 2.93473 0
M  V30 1776 H 170.483 0.187778 1.61311 0
M  V30 1777 H 172.48 -2.23607 3.5186 0
M  V30 1778 H 171.14 -2.24893 2.34207 0
M  V30 1779 H 172.151 0.123695 5.17752 0
M  V30 1780 H 168.828 -1.97632 3.6776 0
M  V30 1781 H 170.218 0.730161 6.67921 0
M  V30 1782 N 172.938 -1.57226 0.108567 0
M  V30 1783 C 173.868 -2.17778 -0.84232 0
M  V30 1784 C 174.849 -1.11487 -1.2847 0
M  V30 1785 O 176.034 -1.39681 -1.34918 0
M  V30 1786 C 173.164 -2.76888 -2.09644 0
M  V30 1787 C 172.118 -3.88669 -1.79221 0
M  V30 1788 C 171.444 -4.34541 -3.11574 0
M  V30 1789 C 172.744 -5.11251 -1.06864 0
M  V30 1790 H 174.438 -2.97489 -0.337774 0
M  V30 1791 H 171.984 -1.43097 -0.161025 0
M  V30 1792 H 173.937 -3.17904 -2.76614 0
M  V30 1793 H 172.661 -1.94451 -2.62405 0
M  V30 1794 H 171.32 -3.48213 -1.14644 0
M  V30 1795 H 170.968 -3.48977 -3.62249 0
M  V30 1796 H 170.668 -5.09914 -2.91996 0
M  V30 1797 H 172.192 -4.782 -3.7968 0
M  V30 1798 H 173.606 -5.49352 -1.63968 0
M  V30 1799 H 172.003 -5.9214 -0.974178 0
M  V30 1800 H 173.073 -4.8487 -0.0536168 0
M  V30 1801 N 174.416 0.165178 -1.56732 0
M  V30 1802 C 175.663 0.880807 -1.8234 0
M  V30 1803 C 175.991 1.81977 -0.686621 0
M  V30 1804 O 175.246 1.92971 0.325697 0
M  V30 1805 C 175.545 1.70405 -3.1416 0
M  V30 1806 C 175.211 0.913475 -4.4155 0
M  V30 1807 C 173.873 0.695303 -4.7615 0
M  V30 1808 C 176.225 0.359349 -5.1996 0
M  V30 1809 C 173.553 -0.0879947 -5.86634 0
M  V30 1810 C 175.905 -0.410893 -6.31264 0
M  V30 1811 C 174.569 -0.639808 -6.64427 0
M  V30 1812 H 173.839 0.32231 -0.667231 0
M  V30 1813 H 176.486 0.145402 -1.90947 0
M  V30 1814 H 174.791 2.50903 -3.00923 0
M  V30 1815 H 176.488 2.26091 -3.31186 0
M  V30 1816 H 173.078 1.09357 -4.14414 0
M  V30 1817 H 177.262 0.515228 -4.93618 0
M  V30 1818 H 172.518 -0.27503 -6.10781 0
M  V30 1819 H 176.692 -0.847494 -6.91224 0
M  V30 1820 H 174.319 -1.24864 -7.49875 0
M  V30 1821 N 175.894 1.51508 0.433938 0
M  V30 1822 C 177.305 1.56784 1.01369 0
M  V30 1823 C 177.656 0.393349 1.92217 0
M  V30 1824 O 176.781 -0.489441 2.10792 0
M  V30 1825 C 177.376 2.84144 1.8452 0
M  V30 1826 C 175.935 2.9198 2.37539 0
M  V30 1827 C 175.082 2.51482 1.16843 0
M  V30 1828 H 178.033 1.57236 0.215081 0
M  V30 1829 H 178.054 2.68098 2.70007 0
M  V30 1830 H 177.566 3.69607 1.18373 0
M  V30 1831 H 175.667 2.10955 3.0713 0
M  V30 1832 H 175.78 3.95704 2.70103 0
M  V30 1833 H 174.144 2.04758 1.51481 0
M  V30 1834 H 174.927 3.39293 0.523015 0
M  V30 1835 N 177.372 -0.689602 1.41712 0
M  V30 1836 C 178.783 -1.26973 1.36875 0
M  V30 1837 C 179.134 -1.96124 0.054748 0
M  V30 1838 O 178.259 -1.99141 -0.84687 0
M  V30 1839 C 178.854 -2.30912 2.47922 0
M  V30 1840 C 177.413 -2.84486 2.46464 0
M  V30 1841 C 176.56 -1.58603 2.27465 0
M  V30 1842 H 179.511 -0.48396 1.51141 0
M  V30 1843 H 179.532 -3.12331 2.17323 0
M  V30 1844 H 179.044 -1.80554 3.43543 0
M  V30 1845 H 177.145 -3.39005 1.54617 0
M  V30 1846 H 177.258 -3.34511 3.42986 0
M  V30 1847 H 175.622 -1.84632 1.75451 0
M  V30 1848 H 176.405 -1.10233 3.25121 0
M  V30 1849 N 178.85 -1.27639 -0.924453 0
M  V30 1850 C 180.266 -1.05113 -1.20097 0
M  V30 1851 C 180.466 0.213262 -2.00368 0
M  V30 1852 O 179.522 0.91787 -2.35226 0
M  V30 1853 C 180.835 -2.29244 -1.94596 0
M  V30 1854 C 182.383 -2.34315 -2.07522 0
M  V30 1855 C 182.858 -3.58183 -2.85427 0
M  V30 1856 N 184.349 -3.5876 -2.92994 0
M  V30 1857 C 185.084 -4.51277 -3.53746 0
M  V30 1858 N 184.58 -5.54102 -4.15863 0
M  V30 1859 N 186.373 -4.38894 -3.51181 0
M  V30 1860 H 178.524 -2.08821 -0.388264 0
M  V30 1861 H 180.787 -0.918568 -0.234385 0
M  V30 1862 H 180.493 -3.21301 -1.43034 0
M  V30 1863 H 180.367 -2.34816 -2.95197 0
M  V30 1864 H 182.754 -1.42762 -2.58269 0
M  V30 1865 H 182.835 -2.32744 -1.06131 0
M  V30 1866 H 182.479 -4.50074 -2.35363 0
M  V30 1867 H 182.409 -3.57006 -3.8711 0
M  V30 1868 H 184.9 -2.84398 -2.4885 0
M  V30 1869 H 185.213 -6.20859 -4.60168 0
M  V30 1870 H 183.558 -5.57941 -4.144 0
M  V30 1871 H 186.749 -3.57772 -3.01856 0
M  V30 1872 H 186.922 -5.11186 -3.98237 0
M  V30 1873 N 180.328 1.1314 -1.09713 0
M  V30 1874 C 181.26 2.18343 -0.697056 0
M  V30 1875 C 182.273 1.60669 0.262551 0
M  V30 1876 O 183.462 1.78435 0.0481527 0
M  V30 1877 C 180.562 3.38899 -0.00684728 0
M  V30 1878 C 179.735 4.26078 -0.988741 0
M  V30 1879 C 178.794 5.25155 -0.331394 0
M  V30 1880 O 177.82 5.60701 -0.979926 0
M  V30 1881 N 179.022 5.73271 0.913261 0
M  V30 1882 H 181.787 2.5328 -1.60216 0
M  V30 1883 H 179.348 1.28491 -0.984971 0
M  V30 1884 H 181.34 4.02255 0.444191 0
M  V30 1885 H 179.91 3.02175 0.800551 0
M  V30 1886 H 179.13 3.59453 -1.61826 0
M  V30 1887 H 180.418 4.81178 -1.65364 0
M  V30 1888 H 179.816 5.46544 1.45966 0
M  V30 1889 H 178.373 6.3855 1.30757 0
M  V30 1890 N 181.806 0.884767 1.30421 0
M  V30 1891 C 182.736 0.367574 2.30589 0
M  V30 1892 C 183.717 -0.549464 1.60981 0
M  V30 1893 O 184.902 -0.46336 1.88591 0
M  V30 1894 C 182.032 -0.418944 3.44764 0
M  V30 1895 C 180.986 0.406316 4.26067 0
M  V30 1896 C 180.312 -0.506793 5.32293 0
M  V30 1897 C 181.612 1.64832 4.95608 0
M  V30 1898 H 183.306 1.20462 2.74097 0
M  V30 1899 H 180.852 0.580695 1.31772 0
M  V30 1900 H 182.805 -0.791395 4.13902 0
M  V30 1901 H 181.529 -1.28964 3.0006 0
M  V30 1902 H 180.188 0.760903 3.58617 0
M  V30 1903 H 179.836 -1.37519 4.83836 0
M  V30 1904 H 179.536 0.0415828 5.87585 0
M  V30 1905 H 181.06 -0.875764 6.04287 0
M  V30 1906 H 182.474 1.34646 5.57264 0
M  V30 1907 H 180.871 2.13688 5.60765 0
M  V30 1908 H 181.941 2.39284 4.21748 0
M  V30 1909 N 183.284 -1.43765 0.645699 0
M  V30 1910 C 184.232 -2.32516 -0.0624849 0
M  V30 1911 C 185.226 -1.48183 -0.820855 0
M  V30 1912 O 186.432 -1.64439 -0.732106 0
M  V30 1913 H 182.807 -0.750989 -0.0389864 0
M  V30 1914 H 184.778 -2.89979 0.703892 0
M  V30 1915 C 183.527 -3.32389 -1.02044 0
M  V30 1916 H 182.85 -3.97301 -0.446312 0
M  V30 1917 H 184.29 -3.97138 -1.48517 0
M  V30 1918 C 182.749 -2.62416 -2.11281 0
M  V30 1919 O 183.279 -2.434 -3.19561 0
M  V30 1920 N 181.485 -2.21913 -1.87624 0
M  V30 1921 H 181.032 -2.37578 -0.995703 0
M  V30 1922 H 180.99 -1.75424 -2.6091 0
M  V30 1923 N 184.763 -0.387143 -1.52771 0
M  V30 1924 C 186.04 0.253197 -1.93954 0
M  V30 1925 C 186.42 1.64545 -1.32243 0
M  V30 1926 O 185.768 2.23191 -0.489699 0
M  V30 1927 C 185.978 0.281722 -3.47861 0
M  V30 1928 C 187.326 0.511715 -4.21505 0
M  V30 1929 O 188.35 0.362023 -3.54356 0
M  V30 1930 O 187.209 0.804847 -5.40541 0
M  V30 1931 H 184.303 0.156845 -0.811991 0
M  V30 1932 H 186.849 -0.441494 -1.63856 0
M  V30 1933 H 185.621 -0.693571 -3.85104 0
M  V30 1934 H 185.244 1.02142 -3.84256 0
M  V30 1935 N 186.241 1.57166 -0.116904 0
M  V30 1936 C 187.487 1.95412 0.542405 0
M  V30 1937 C 187.82 1.00019 1.66463 0
M  V30 1938 O 187.095 0.0370346 1.94465 0
M  V30 1939 C 187.378 3.43615 1.07708 0
M  V30 1940 C 187.231 4.49781 -0.0415868 0
M  V30 1941 C 188.55 3.93616 1.96861 0
M  V30 1942 H 185.669 0.710543 0.195696 0
M  V30 1943 H 188.311 1.89027 -0.192038 0
M  V30 1944 H 186.461 3.49187 1.70296 0
M  V30 1945 H 188.133 4.56308 -0.676793 0
M  V30 1946 H 186.376 4.28033 -0.705019 0
M  V30 1947 H 187.047 5.50733 0.373717 0
M  V30 1948 H 189.523 3.90335 1.44146 0
M  V30 1949 H 188.399 4.97838 2.3119 0
M  V30 1950 H 188.66 3.34188 2.89432 0
M  V30 1951 N 187.719 -0.156864 1.56817 0
M  V30 1952 C 188.666 -1.19394 1.97519 0
M  V30 1953 C 189.636 -1.4322 0.841265 0
M  V30 1954 O 190.821 -1.55719 1.10255 0
M  V30 1955 C 187.961 -2.52483 2.35258 0
M  V30 1956 C 187.074 -2.35914 3.61896 0
M  V30 1957 C 186.209 -3.61969 3.88782 0
M  V30 1958 C 185.248 -3.40395 5.08722 0
M  V30 1959 N 184.385 -4.58556 5.31668 0
M  V30 1960 H 189.225 -0.839845 2.85921 0
M  V30 1961 H 186.762 -0.403264 1.41464 0
M  V30 1962 H 188.72 -3.30071 2.55165 0
M  V30 1963 H 187.35 -2.85859 1.49949 0
M  V30 1964 H 186.402 -1.49429 3.49821 0
M  V30 1965 H 187.714 -2.15926 4.49641 0
M  V30 1966 H 186.868 -4.47989 4.09135 0
M  V30 1967 H 185.607 -3.84951 2.9944 0
M  V30 1968 H 184.612 -2.52763 4.88253 0
M  V30 1969 H 185.837 -3.18822 5.99608 0
M  V30 1970 H 183.783 -4.81729 4.45279 0
M  V30 1971 H 183.7 -4.41535 6.13664 0
M  V30 1972 H 184.968 -5.45817 5.5651 0
M  V30 1973 N 189.197 -1.51736 -0.425897 0
M  V30 1974 C 190.425 -1.68794 -1.1965 0
M  V30 1975 C 190.84 -0.390164 -1.84725 0
M  V30 1976 O 190.197 0.632376 -1.71194 0
M  V30 1977 C 190.248 -2.81174 -2.27208 0
M  V30 1978 O 189.969 -4.05925 -1.64793 0
M  V30 1979 C 191.47 -3.09599 -3.17275 0
M  V30 1980 H 188.69 -0.566128 -0.360194 0
M  V30 1981 H 191.234 -1.98211 -0.503249 0
M  V30 1982 H 189.389 -2.54324 -2.9223 0
M  V30 1983 H 189.803 -4.68423 -2.35967 0
M  V30 1984 H 191.277 -3.91786 -3.88854 0
M  V30 1985 H 191.754 -2.22468 -3.78688 0
M  V30 1986 H 192.36 -3.38151 -2.57941 0
M  V30 1987 N 190.675 0.682077 -1.42076 0
M  V30 1988 C 191.903 1.47057 -1.4554 0
M  V30 1989 C 192.318 1.8869 -0.0645779 0
M  V30 1990 O 191.675 1.57666 0.919115 0
M  V30 1991 C 191.726 2.72442 -2.37609 0
M  V30 1992 O 191.447 2.32559 -3.71279 0
M  V30 1993 C 192.948 3.66069 -2.50017 0
M  V30 1994 H 190.168 0.452737 -0.495248 0
M  V30 1995 H 192.712 0.838695 -1.8651 0
M  V30 1996 H 190.867 3.31835 -1.9991 0
M  V30 1997 H 191.281 3.13475 -4.20516 0
M  V30 1998 H 192.755 4.50792 -3.18576 0
M  V30 1999 H 193.232 4.11476 -1.53572 0
M  V30 2000 H 193.838 3.12572 -2.88407 0
M  V30 2001 N 192.153 1.28127 0.917671 0
M  V30 2002 C 193.399 1.15223 1.66888 0
M  V30 2003 C 193.732 -0.299293 1.9188 0
M  V30 2004 O 193.007 -1.21805 1.51637 0
M  V30 2005 C 193.29 1.94706 3.02922 0
M  V30 2006 C 193.143 3.47898 2.85109 0
M  V30 2007 C 194.462 1.75939 4.03402 0
M  V30 2008 H 191.581 0.419946 0.605652 0
M  V30 2009 H 194.223 1.57398 1.06423 0
M  V30 2010 H 192.373 1.58864 3.54534 0
M  V30 2011 H 194.045 3.93624 2.40537 0
M  V30 2012 H 192.288 3.7373 2.20246 0
M  V30 2013 H 192.959 3.98765 3.81694 0
M  V30 2014 H 195.435 2.07209 3.60837 0
M  V30 2015 H 194.311 2.33931 4.96556 0
M  V30 2016 H 194.572 0.709877 4.36364 0
M  V30 2017 N 193.631 -1.12557 1.10312 0
M  V30 2018 C 194.877 -1.84311 0.846011 0
M  V30 2019 C 195.21 -1.83805 -0.626859 0
M  V30 2020 O 194.485 -1.28268 -1.46211 0
M  V30 2021 C 194.768 -3.32048 1.39341 0
M  V30 2022 C 194.621 -3.41016 2.93305 0
M  V30 2023 C 195.94 -4.27764 1.03468 0
M  V30 2024 H 193.059 -0.669192 0.30879 0
M  V30 2025 H 195.701 -1.32057 1.36605 0
M  V30 2026 H 193.851 -3.76678 0.951087 0
M  V30 2027 H 195.523 -3.05031 3.46055 0
M  V30 2028 H 193.766 -2.81603 3.29973 0
M  V30 2029 H 194.437 -4.44948 3.26689 0
M  V30 2030 H 196.913 -3.91253 1.41633 0
M  V30 2031 H 195.789 -5.29549 1.44463 0
M  V30 2032 H 196.05 -4.42064 -0.0560404 0
M  V30 2033 N 195.109 -0.891671 -1.2995 0
M  V30 2034 C 196.339 -0.527893 -1.99742 0
M  V30 2035 C 196.747 0.88979 -1.66971 0
M  V30 2036 O 196.09 1.59766 -0.906667 0
M  V30 2037 C 196.152 -0.630804 -3.53922 0
M  V30 2038 C 195.816 -2.01401 -4.10228 0
M  V30 2039 C 196.813 -2.98422 -4.25724 0
M  V30 2040 C 194.498 -2.32121 -4.45449 0
M  V30 2041 C 196.492 -4.24293 -4.75662 0
M  V30 2042 C 194.179 -3.58237 -4.95086 0
M  V30 2043 C 195.177 -4.54137 -5.10146 0
M  V30 2044 O 194.865 -5.78014 -5.58708 0
M  V30 2045 H 194.597 -0.201953 -0.645129 0
M  V30 2046 H 197.151 -1.20076 -1.66646 0
M  V30 2047 H 195.381 0.0990616 -3.86573 0
M  V30 2048 H 197.07 -0.277338 -4.04951 0
M  V30 2049 H 197.836 -2.76001 -3.98809 0
M  V30 2050 H 193.715 -1.5824 -4.32991 0
M  V30 2051 H 197.259 -4.99153 -4.87332 0
M  V30 2052 H 193.156 -3.80491 -5.21437 0
M  V30 2053 H 193.924 -5.8049 -5.77039 0
M  V30 2054 N 196.587 1.43421 -0.653314 0
M  V30 2055 C 197.998 1.85065 -0.246537 0
M  V30 2056 C 198.349 1.54688 1.2069 0
M  V30 2057 O 197.474 0.995896 1.92122 0
M  V30 2058 C 198.069 3.35922 -0.440666 0
M  V30 2059 C 196.628 3.76297 -0.0882064 0
M  V30 2060 C 195.775 2.67147 -0.743484 0
M  V30 2061 H 198.726 1.33572 -0.856979 0
M  V30 2062 H 198.747 3.79204 0.313798 0
M  V30 2063 H 198.259 3.58 -1.49858 0
M  V30 2064 H 196.36 3.5983 0.96711 0
M  V30 2065 H 196.473 4.76338 -0.513738 0
M  V30 2066 H 194.837 2.54086 -0.176712 0
M  V30 2067 H 195.62 2.92053 -1.80443 0
M  V30 2068 N 198.065 0.39524 1.52563 0
M  V30 2069 C 199.028 -0.425001 2.25225 0
M  V30 2070 C 200.028 -0.985266 1.27079 0
M  V30 2071 O 201.218 -0.866332 1.5113 0
M  V30 2072 C 198.35 -1.59686 3.01186 0
M  V30 2073 H 199.543 0.211233 2.99155 0
M  V30 2074 H 197.096 0.147472 1.55603 0
M  V30 2075 H 197.831 -2.27035 2.31572 0
M  V30 2076 H 197.616 -1.20176 3.73229 0
M  V30 2077 H 199.106 -2.17743 3.5634 0
M  V30 2078 N 199.544 -1.57102 0.125237 0
M  V30 2079 C 200.772 -1.99761 -0.538797 0
M  V30 2080 C 201.187 -1.00503 -1.59827 0
M  V30 2081 O 200.544 0.00119474 -1.825 0
M  V30 2082 C 200.595 -3.42408 -1.15927 0
M  V30 2083 O 200.316 -4.37869 -0.142143 0
M  V30 2084 C 201.817 -4.00232 -1.90602 0
M  V30 2085 H 199.037 -0.655772 -0.14214 0
M  V30 2086 H 201.581 -2.03383 0.213413 0
M  V30 2087 H 199.736 -3.39706 -1.86223 0
M  V30 2088 H 200.15 -5.21128 -0.593775 0
M  V30 2089 H 201.624 -5.02105 -2.29335 0
M  V30 2090 H 202.101 -3.39721 -2.78363 0
M  V30 2091 H 202.707 -4.06499 -1.25055 0
M  V30 2092 N 201.022 0.148545 -1.56898 0
M  V30 2093 C 201.932 1.20293 -2.01412 0
M  V30 2094 C 202.948 1.47107 -0.929273 0
M  V30 2095 O 204.124 1.58807 -1.23863 0
M  V30 2096 C 201.189 2.51682 -2.38447 0
M  V30 2097 C 200.25 2.32529 -3.60872 0
M  V30 2098 C 199.483 3.57653 -3.96132 0
M  V30 2099 O 199.706 4.63771 -3.32073 0
M  V30 2100 O 198.64 3.50408 -4.89385 0
M  V30 2101 H 202.466 0.855025 -2.91416 0
M  V30 2102 H 200.051 0.357151 -1.45068 0
M  V30 2103 H 201.933 3.29147 -2.63135 0
M  V30 2104 H 200.608 2.86006 -1.51599 0
M  V30 2105 H 199.515 1.53019 -3.41373 0
M  V30 2106 H 200.848 2.03121 -4.48333 0
M  V30 2107 N 202.5 1.5196 0.417844 0
M  V30 2108 C 203.447 1.74678 1.50852 0
M  V30 2109 C 204.417 0.588947 1.55308 0
M  V30 2110 O 205.602 0.825544 1.72016 0
M  V30 2111 C 202.742 1.89544 2.88387 0
M  V30 2112 C 201.855 3.17166 2.93309 0
M  V30 2113 C 200.99 3.22513 4.22088 0
M  V30 2114 C 200.029 4.44372 4.20951 0
M  V30 2115 N 199.166 4.47161 5.41287 0
M  V30 2116 H 204.006 2.67768 1.30783 0
M  V30 2117 H 201.543 1.32689 0.63498 0
M  V30 2118 H 203.501 1.96146 3.68216 0
M  V30 2119 H 202.131 0.998424 3.06971 0
M  V30 2120 H 201.183 3.19778 2.06024 0
M  V30 2121 H 202.495 4.07021 2.88332 0
M  V30 2122 H 201.649 3.28139 5.10303 0
M  V30 2123 H 200.388 2.30581 4.29748 0
M  V30 2124 H 199.393 4.38902 3.31127 0
M  V30 2125 H 200.618 5.3759 4.14938 0
M  V30 2126 H 198.564 3.58108 5.49632 0
M  V30 2127 H 198.481 5.3085 5.3827 0
M  V30 2128 H 199.749 4.57005 6.3148 0
M  V30 2129 N 203.978 -0.674533 1.42435 0
M  V30 2130 C 204.928 -1.7807 1.4239 0
M  V30 2131 C 205.912 -1.58169 0.295202 0
M  V30 2132 O 207.104 -1.68643 0.537449 0
M  V30 2133 C 204.233 -3.16532 1.32901 0
M  V30 2134 C 203.319 -3.42055 2.50717 0
M  V30 2135 N 203.71 -3.38162 3.76139 0
M  V30 2136 C 202.008 -3.72692 2.44983 0
M  V30 2137 C 202.709 -3.63177 4.54398 0
M  V30 2138 N 201.685 -3.83954 3.84812 0
M  V30 2139 H 205.487 -1.73454 2.37257 0
M  V30 2140 H 203.001 -0.875381 1.36788 0
M  V30 2141 H 204.998 -3.958 1.30951 0
M  V30 2142 H 203.658 -3.22345 0.390363 0
M  V30 2143 H 204.669 -3.18057 4.0873 0
M  V30 2144 H 201.346 -3.85749 1.59699 0
M  V30 2145 H 202.736 -3.66125 5.63384 0
M  V30 2146 N 205.456 -1.28612 -0.910864 0
M  V30 2147 C 206.386 -1.15326 -2.03032 0
M  V30 2148 C 207.367 -0.0502924 -1.70026 0
M  V30 2149 O 208.552 -0.227797 -1.92859 0
M  V30 2150 C 205.682 -0.817343 -3.37545 0
M  V30 2151 C 204.636 -1.8754 -3.84724 0
M  V30 2152 C 203.962 -1.39305 -5.16235 0
M  V30 2153 C 205.262 -3.28244 -4.06267 0
M  V30 2154 H 206.956 -2.08975 -2.14406 0
M  V30 2155 H 204.502 -1.00612 -1.03021 0
M  V30 2156 H 206.455 -0.711151 -4.15356 0
M  V30 2157 H 205.179 0.154846 -3.26233 0
M  V30 2158 H 203.838 -1.97079 -3.09121 0
M  V30 2159 H 203.486 -0.409846 -5.01328 0
M  V30 2160 H 203.186 -2.10057 -5.48771 0
M  V30 2161 H 204.71 -1.30014 -5.96598 0
M  V30 2162 H 206.124 -3.21611 -4.74594 0
M  V30 2163 H 204.521 -3.96855 -4.5014 0
M  V30 2164 H 205.591 -3.72048 -3.10979 0
M  V30 2165 N 206.934 1.1197 -1.10907 0
M  V30 2166 C 207.866 2.17592 -0.720175 0
M  V30 2167 C 208.879 1.60938 0.245495 0
M  V30 2168 O 210.068 1.78476 0.0292245 0
M  V30 2169 C 207.168 3.38873 -0.0427917 0
M  V30 2170 C 206.341 4.25006 -1.03388 0
M  V30 2171 C 205.4 5.24774 -0.387075 0
M  V30 2172 O 204.426 5.59631 -1.03934 0
M  V30 2173 N 205.628 5.74208 0.852407 0
M  V30 2174 H 208.393 2.51567 -1.62893 0
M  V30 2175 H 205.954 1.27439 -0.998543 0
M  V30 2176 H 207.946 4.02703 0.401501 0
M  V30 2177 H 206.516 3.03007 0.768456 0
M  V30 2178 H 205.736 3.57716 -1.65629 0
M  V30 2179 H 207.024 4.79397 -1.70458 0
M  V30 2180 H 206.422 5.48062 1.40161 0
M  V30 2181 H 204.979 6.39901 1.23977 0
M  V30 2182 N 208.412 0.89855 1.29475 0
M  V30 2183 C 209.359 0.373819 2.27753 0
M  V30 2184 C 210.329 -0.543444 1.56958 0
M  V30 2185 O 211.514 -0.468934 1.84948 0
M  V30 2186 C 208.654 -0.393648 3.42848 0
M  V30 2187 C 207.767 0.554379 4.28428 0
M  V30 2188 C 206.902 -0.230026 5.30702 0
M  V30 2189 C 205.941 0.712599 6.07938 0
M  V30 2190 N 205.078 -0.0373283 7.0209 0
M  V30 2191 H 209.918 1.21699 2.72017 0
M  V30 2192 H 207.455 0.611456 1.33789 0
M  V30 2193 H 209.413 -0.85466 4.08352 0
M  V30 2194 H 208.043 -1.20128 2.99615 0
M  V30 2195 H 207.095 1.13391 3.63107 0
M  V30 2196 H 208.407 1.27597 4.82204 0
M  V30 2197 H 207.561 -0.752288 6.02018 0
M  V30 2198 H 206.3 -0.984758 4.77654 0
M  V30 2199 H 205.305 1.24637 5.35486 0
M  V30 2200 H 206.53 1.46664 6.63074 0
M  V30 2201 H 204.476 -0.774348 6.51414 0
M  V30 2202 H 204.393 0.624374 7.53417 0
M  V30 2203 H 205.661 -0.539891 7.77628 0
M  V30 2204 N 209.89 -1.43072 0.660911 0
M  V30 2205 C 211.12 -2.05769 0.185153 0
M  V30 2206 C 211.528 -1.49668 -1.15742 0
M  V30 2207 O 210.871 -0.625649 -1.72717 0
M  V30 2208 C 210.933 -3.59489 0.0278237 0
M  V30 2209 C 210.597 -4.38212 1.2969 0
M  V30 2210 C 211.594 -4.69772 2.22734 0
M  V30 2211 C 209.279 -4.7809 1.54063 0
M  V30 2212 C 211.273 -5.40129 3.38437 0
M  V30 2213 C 208.96 -5.4819 2.70058 0
M  V30 2214 C 209.958 -5.79132 3.62071 0
M  V30 2215 O 209.646 -6.47798 4.76039 0
M  V30 2216 H 209.378 -0.669873 0.0908086 0
M  V30 2217 H 211.932 -1.84436 0.90402 0
M  V30 2218 H 210.162 -3.79426 -0.746489 0
M  V30 2219 H 211.851 -4.03862 -0.406275 0
M  V30 2220 H 212.617 -4.39476 2.05149 0
M  V30 2221 H 208.496 -4.53408 0.833215 0
M  V30 2222 H 212.04 -5.64198 4.10277 0
M  V30 2223 H 207.937 -5.77902 2.87574 0
M  V30 2224 H 208.705 -6.66283 4.75404 0
M  V30 2225 N 211.368 -0.403325 -1.52352 0
M  V30 2226 C 212.298 0.416205 -2.29761 0
M  V30 2227 C 213.279 1.05123 -1.33728 0
M  V30 2228 O 214.464 1.06134 -1.62632 0
M  V30 2229 C 211.594 1.53624 -3.11475 0
M  V30 2230 C 210.548 1.02653 -4.15507 0
M  V30 2231 C 209.874 2.23971 -4.85532 0
M  V30 2232 C 211.174 0.08463 -5.22231 0
M  V30 2233 H 212.868 -0.229701 -2.98518 0
M  V30 2234 H 210.414 -0.111913 -1.43564 0
M  V30 2235 H 212.367 2.1165 -3.64393 0
M  V30 2236 H 211.091 2.20994 -2.40477 0
M  V30 2237 H 209.75 0.46871 -3.63591 0
M  V30 2238 H 209.398 2.89883 -4.11068 0
M  V30 2239 H 209.098 1.90521 -5.55856 0
M  V30 2240 H 210.622 2.82614 -5.41259 0
M  V30 2241 H 212.036 0.573509 -5.70424 0
M  V30 2242 H 210.433 -0.160783 -5.99885 0
M  V30 2243 H 211.503 -0.86237 -4.7717 0
M  V30 2244 N 212.846 1.57033 -0.133567 0
M  V30 2245 C 214.262 1.58035 0.222944 0
M  V30 2246 C 214.462 1.14713 1.6566 0
M  V30 2247 O 213.518 0.841218 2.38075 0
M  V30 2248 C 214.831 3.00691 -0.0236116 0
M  V30 2249 C 216.379 3.12973 0.0411512 0
M  V30 2250 C 216.854 4.57654 -0.177899 0
M  V30 2251 N 218.345 4.63033 -0.124365 0
M  V30 2252 C 219.08 5.72771 -0.268553 0
M  V30 2253 N 218.576 6.91206 -0.46972 0
M  V30 2254 N 220.369 5.61718 -0.2071 0
M  V30 2255 H 212.52 1.8349 -1.06981 0
M  V30 2256 H 214.783 0.848677 -0.422436 0
M  V30 2257 H 214.489 3.36726 -1.0153 0
M  V30 2258 H 214.363 3.70614 0.701808 0
M  V30 2259 H 216.75 2.76787 1.02338 0
M  V30 2260 H 216.831 2.45564 -0.716383 0
M  V30 2261 H 216.475 4.94542 -1.15717 0
M  V30 2262 H 216.405 5.23173 0.599797 0
M  V30 2263 H 218.896 3.7789 0.027011 0
M  V30 2264 H 219.209 7.70693 -0.570212 0
M  V30 2265 H 217.554 6.93156 -0.505876 0
M  V30 2266 H 220.745 4.68072 -0.0507986 0
M  V30 2267 H 220.918 6.47195 -0.322909 0
M  V30 2268 N 214.325 -0.140222 1.56975 0
M  V30 2269 C 215.257 -1.19818 1.95388 0
M  V30 2270 C 216.27 -1.38816 0.850525 0
M  V30 2271 O 217.459 -1.38267 1.12891 0
M  V30 2272 C 214.559 -2.56189 2.21857 0
M  V30 2273 C 213.732 -2.58077 3.5315 0
M  V30 2274 C 212.791 -3.76037 3.6808 0
M  V30 2275 O 211.817 -3.60598 4.40406 0
M  V30 2276 N 213.019 -4.93763 3.05251 0
M  V30 2277 H 215.784 -0.871609 2.86746 0
M  V30 2278 H 213.345 -0.32972 1.58507 0
M  V30 2279 H 215.337 -3.33623 2.2908 0
M  V30 2280 H 213.907 -2.81111 1.36731 0
M  V30 2281 H 213.127 -1.6651 3.57307 0
M  V30 2282 H 214.415 -2.56377 4.39486 0
M  V30 2283 H 213.813 -5.09209 2.46419 0
M  V30 2284 H 212.37 -5.68949 3.18026 0
M  V30 2285 N 215.803 -1.52179 -0.40978 0
M  V30 2286 C 217.08 -1.56769 -1.16974 0
M  V30 2287 C 217.46 -0.348322 -2.08206 0
M  V30 2288 O 216.808 0.664862 -2.18613 0
M  V30 2289 C 217.018 -2.89603 -1.9476 0
M  V30 2290 C 218.366 -3.42579 -2.50849 0
M  V30 2291 O 219.39 -2.91338 -2.04941 0
M  V30 2292 O 218.249 -4.32054 -3.34652 0
M  V30 2293 H 215.343 -0.631439 -0.534054 0
M  V30 2294 H 217.889 -1.64507 -0.416613 0
M  V30 2295 H 216.661 -3.698 -1.27921 0
M  V30 2296 H 216.284 -2.85155 -2.77079 0
M  V30 2297 N 217.281 0.66697 -1.42791 0
M  V30 2298 C 218.211 1.79218 -1.49677 0
M  V30 2299 C 219.192 1.66405 -0.352623 0
M  V30 2300 O 220.377 1.85708 -0.567993 0
M  V30 2301 C 217.507 3.17565 -1.40605 0
M  V30 2302 C 216.461 3.45124 -2.53127 0
M  V30 2303 C 215.787 4.83127 -2.29112 0
M  V30 2304 C 217.087 3.41236 -3.95418 0
M  V30 2305 H 218.781 1.73713 -2.43853 0
M  V30 2306 H 216.327 0.83432 -1.17367 0
M  V30 2307 H 218.28 3.96022 -1.44029 0
M  V30 2308 H 217.004 3.23767 -0.429271 0
M  V30 2309 H 215.663 2.69031 -2.49034 0
M  V30 2310 H 215.311 4.85988 -1.29709 0
M  V30 2311 H 215.011 5.02528 -3.04531 0
M  V30 2312 H 216.535 5.63859 -2.34297 0
M  V30 2313 H 217.949 4.09651 -4.01073 0
M  V30 2314 H 216.346 3.72173 -4.70752 0
M  V30 2315 H 217.416 2.39665 -4.21532 0
M  V30 2316 N 218.759 1.29093 0.90403 0
M  V30 2317 C 220.175 1.07011 1.1841 0
M  V30 2318 C 220.375 -0.181358 2.00682 0
M  V30 2319 O 219.431 -0.880331 2.36657 0
M  V30 2320 C 220.744 2.32311 1.90924 0
M  V30 2321 C 222.292 2.37587 2.03768 0
M  V30 2322 C 222.767 3.62679 2.79693 0
M  V30 2323 N 224.258 3.63376 2.87249 0
M  V30 2324 C 224.993 4.56848 3.46522 0
M  V30 2325 N 224.489 5.60648 4.06996 0
M  V30 2326 N 226.282 4.44426 3.44154 0
M  V30 2327 H 218.433 2.09412 0.354993 0
M  V30 2328 H 220.696 0.922181 0.219742 0
M  V30 2329 H 220.402 3.23536 1.37905 0
M  V30 2330 H 220.276 2.39483 2.91424 0
M  V30 2331 H 222.663 1.46853 2.55965 0
M  V30 2332 H 222.744 2.34403 1.02415 0
M  V30 2333 H 222.388 4.53762 2.28173 0
M  V30 2334 H 222.318 3.63119 3.81381 0
M  V30 2335 H 224.809 2.88321 2.44293 0
M  V30 2336 H 225.122 6.28101 4.50232 0
M  V30 2337 H 223.467 5.64463 4.05471 0
M  V30 2338 H 226.658 3.62529 2.96126 0
M  V30 2339 H 226.831 5.17457 3.90054 0
M  V30 2340 N 220.237 -1.11381 1.11499 0
M  V30 2341 C 221.167 -2.19509 0.796125 0
M  V30 2342 C 222.148 -1.68458 -0.235796 0
M  V30 2343 O 223.333 -1.93947 -0.0991344 0
M  V30 2344 C 220.463 -3.46475 0.239205 0
M  V30 2345 C 219.417 -4.10744 1.20307 0
M  V30 2346 C 218.743 -5.32293 0.50683 0
M  V30 2347 C 220.043 -4.55597 2.55399 0
M  V30 2348 H 221.737 -2.46439 1.70024 0
M  V30 2349 H 219.283 -1.18446 0.818935 0
M  V30 2350 H 221.236 -4.214 0.00392006 0
M  V30 2351 H 219.96 -3.19006 -0.700206 0
M  V30 2352 H 218.619 -3.37813 1.42399 0
M  V30 2353 H 218.267 -5.01095 -0.437408 0
M  V30 2354 H 217.967 -5.76243 1.1497 0
M  V30 2355 H 219.491 -6.09956 0.280351 0
M  V30 2356 H 220.905 -5.21841 2.37391 0
M  V30 2357 H 219.302 -5.10363 3.15673 0
M  V30 2358 H 220.372 -3.69013 3.14575 0
M  V30 2359 N 221.715 -0.905404 -1.28997 0
M  V30 2360 C 222.964 -0.530191 -1.94607 0
M  V30 2361 C 223.277 0.929185 -1.72121 0
M  V30 2362 O 224.483 1.41218 -2.31883 0
M  V30 2363 C 222.939 -0.897333 -3.48534 0
M  V30 2364 C 222.547 -2.37587 -3.79811 0
M  V30 2365 C 224.291 -0.592304 -4.20347 0
M  V30 2366 C 222.198 -2.68357 -5.27009 0
M  V30 2367 H 221.128 -0.194558 -0.728466 0
M  V30 2368 H 223.779 -1.10318 -1.46636 0
M  V30 2369 H 222.161 -0.253214 -3.9519 0
M  V30 2370 H 223.335 -3.06602 -3.43994 0
M  V30 2371 H 221.65 -2.6505 -3.2115 0
M  V30 2372 H 224.247 -0.798975 -5.28697 0
M  V30 2373 H 224.59 0.469474 -4.13644 0
M  V30 2374 H 225.123 -1.19452 -3.79442 0
M  V30 2375 H 221.862 -3.73355 -5.38782 0
M  V30 2376 H 221.382 -2.03971 -5.64053 0
M  V30 2377 H 223.061 -2.54922 -5.94663 0
M  V30 2378 N 223.193 1.4272 -0.668489 0
M  V30 2379 C 224.609 1.55992 -0.33745 0
M  V30 2380 C 224.809 1.64933 1.15756 0
M  V30 2381 O 223.865 1.61278 1.94282 0
M  V30 2382 C 225.178 2.81314 -1.06222 0
M  V30 2383 C 226.726 2.95078 -1.04394 0
M  V30 2384 C 227.201 4.23252 -1.74991 0
M  V30 2385 N 228.692 4.3015 -1.71829 0
M  V30 2386 C 229.427 5.28127 -2.23315 0
M  V30 2387 N 228.923 6.32293 -2.83156 0
M  V30 2388 N 230.716 5.19882 -2.13726 0
M  V30 2389 H 222.867 1.3516 -1.63846 0
M  V30 2390 H 225.13 0.650174 -0.689912 0
M  V30 2391 H 224.836 2.80823 -2.11734 0
M  V30 2392 H 224.71 3.72012 -0.62344 0
M  V30 2393 H 227.097 2.951 0.0028244 0
M  V30 2394 H 227.178 2.05627 -1.52155 0
M  V30 2395 H 226.822 4.2399 -2.79633 0
M  V30 2396 H 226.752 5.11626 -1.24685 0
M  V30 2397 H 229.243 3.55499 -1.28175 0
M  V30 2398 H 229.556 7.03398 -3.20079 0
M  V30 2399 H 227.901 6.32873 -2.87223 0
M  V30 2400 H 231.092 4.37423 -1.66669 0
M  V30 2401 H 231.265 5.96077 -2.54158 0
M  V30 2402 N 224.671 0.411399 1.52136 0
M  V30 2403 C 225.581 -0.419774 2.30814 0
M  V30 2404 C 226.597 -1.0515 1.38634 0
M  V30 2405 O 227.773 -1.05252 1.71709 0
M  V30 2406 C 224.838 -1.52019 3.11594 0
M  V30 2407 C 223.899 -0.91129 4.19516 0
M  V30 2408 C 223.132 -1.95927 4.96436 0
M  V30 2409 O 223.355 -3.17775 4.73683 0
M  V30 2410 O 222.289 -1.56423 5.81219 0
M  V30 2411 H 226.115 0.221805 3.02889 0
M  V30 2412 H 223.7 0.174547 1.48377 0
M  V30 2413 H 225.582 -2.15898 3.61892 0
M  V30 2414 H 224.257 -2.14633 2.42311 0
M  V30 2415 H 223.164 -0.235157 3.7336 0
M  V30 2416 H 224.497 -0.32904 4.91099 0
M  V30 2417 N 226.149 -1.5696 0.141893 0
M  V30 2418 C 227.377 -2.00322 -0.517579 0
M  V30 2419 C 227.792 -1.02193 -1.58752 0
M  V30 2420 O 227.149 -0.0181619 -1.82491 0
M  V30 2421 C 227.2 -3.43618 -1.12289 0
M  V30 2422 O 226.921 -4.37995 -0.0956929 0
M  V30 2423 C 228.422 -4.02231 -1.86347 0
M  V30 2424 H 225.642 -0.657243 -0.135177 0
M  V30 2425 H 228.186 -2.03146 0.234973 0
M  V30 2426 H 226.341 -3.41662 -1.82609 0
M  V30 2427 H 226.755 -5.21729 -0.538469 0
M  V30 2428 H 228.229 -5.04509 -2.23997 0
M  V30 2429 H 228.706 -3.42655 -2.74744 0
M  V30 2430 H 229.312 -4.07802 -1.20737 0
M  V30 2431 N 227.627 0.131896 -1.57047 0
M  V30 2432 C 228.875 0.840269 -1.83804 0
M  V30 2433 C 229.196 1.81017 -0.72512 0
M  V30 2434 O 228.466 1.94272 0.251995 0
M  V30 2435 H 227.046 0.313294 -0.678127 0
M  V30 2436 H 229.708 0.122294 -1.94516 0
M  V30 2437 H 228.804 1.39335 -2.79271 0
M  V30 2438 N 229.106 1.52395 0.401703 0
M  V30 2439 C 230.383 1.57387 1.16141 0
M  V30 2440 C 230.763 0.359359 2.08019 0
M  V30 2441 O 230.111 -0.65326 2.18963 0
M  V30 2442 C 230.321 2.90631 1.93221 0
M  V30 2443 C 231.669 3.43904 2.49028 0
M  V30 2444 O 232.693 2.92421 2.03393 0
M  V30 2445 O 231.552 4.33823 3.32356 0
M  V30 2446 H 228.646 0.634262 0.530698 0
M  V30 2447 H 231.192 1.64725 0.407883 0
M  V30 2448 H 229.964 3.70473 1.25958 0
M  V30 2449 H 229.587 2.8662 2.75563 0
M  V30 2450 N 230.584 -0.659388 1.43143 0
M  V30 2451 C 231.861 -1.41627 1.34912 0
M  V30 2452 C 232.241 -2.11099 -0.00607785 0
M  V30 2453 O 231.589 -2.04353 -1.02236 0
M  V30 2454 C 231.799 -2.40604 2.52805 0
M  V30 2455 C 233.147 -3.04789 2.95616 0
M  V30 2456 O 234.171 -2.50932 2.52807 0
M  V30 2457 O 233.03 -4.02421 3.69756 0
M  V30 2458 H 230.124 -0.63246 0.532844 0
M  V30 2459 H 232.67 -0.686814 1.5518 0
M  V30 2460 H 231.442 -1.88174 3.43083 0
M  V30 2461 H 231.065 -3.21009 2.34604 0
M  V30 2462 N 232.062 -1.29571 -0.897171 0
M  V30 2463 C 233.292 -1.20408 -1.67886 0
M  V30 2464 C 233.7 0.237429 -1.87704 0
M  V30 2465 O 233.043 1.17048 -1.41582 0
M  V30 2466 C 233.105 -1.84887 -3.08314 0
M  V30 2467 C 232.769 -3.34189 -3.11716 0
M  V30 2468 C 233.766 -4.30374 -2.91675 0
M  V30 2469 C 231.451 -3.75431 -3.33701 0
M  V30 2470 C 233.445 -5.65776 -2.93557 0
M  V30 2471 C 231.132 -5.10955 -3.35214 0
M  V30 2472 C 232.13 -6.05938 -3.15164 0
M  V30 2473 O 231.818 -7.38987 -3.1647 0
M  V30 2474 H 231.55 -0.418289 -0.531046 0
M  V30 2475 H 234.104 -1.71514 -1.13014 0
M  V30 2476 H 232.334 -1.28295 -3.64798 0
M  V30 2477 H 234.023 -1.70011 -3.6858 0
M  V30 2478 H 234.789 -3.99844 -2.74499 0
M  V30 2479 H 230.668 -3.01953 -3.48347 0
M  V30 2480 H 234.212 -6.39889 -2.77826 0
M  V30 2481 H 230.109 -5.4113 -3.51922 0
M  V30 2482 H 230.877 -7.47823 -3.3272 0
M  V30 2483 N 233.54 1.10788 -1.12088 0
M  V30 2484 C 234.956 1.34691 -0.856186 0
M  V30 2485 C 235.156 1.94791 0.515615 0
M  V30 2486 O 234.212 2.18524 1.26505 0
M  V30 2487 C 235.525 2.27208 -1.9697 0
M  V30 2488 C 237.073 2.40755 -2.00016 0
M  V30 2489 C 237.548 3.36598 -3.1059 0
M  V30 2490 N 239.039 3.44164 -3.10008 0
M  V30 2491 C 239.774 4.18284 -3.92206 0
M  V30 2492 N 239.27 4.95322 -4.84384 0
M  V30 2493 N 241.063 4.13865 -3.80357 0
M  V30 2494 H 233.214 0.70144 -2.00483 0
M  V30 2495 H 235.477 0.371405 -0.872217 0
M  V30 2496 H 235.183 1.90251 -2.958 0
M  V30 2497 H 235.057 3.27485 -1.87172 0
M  V30 2498 H 237.444 2.76982 -1.01808 0
M  V30 2499 H 237.525 1.40305 -2.13888 0
M  V30 2500 H 237.169 3.01096 -4.09028 0
M  V30 2501 H 237.099 4.36918 -2.93956 0
M  V30 2502 H 239.59 2.8922 -2.43228 0
M  V30 2503 H 239.903 5.49267 -5.43623 0
M  V30 2504 H 238.248 4.94459 -4.884 0
M  V30 2505 H 241.439 3.52773 -3.07683 0
M  V30 2506 H 241.612 4.71372 -4.44649 0
M  V30 2507 N 235.018 0.912232 1.28515 0
M  V30 2508 C 235.966 0.389597 2.29314 0
M  V30 2509 C 236.96 -0.517915 1.61289 0
M  V30 2510 O 238.166 -0.399328 1.75515 0
M  V30 2511 H 234.541 0.107386 0.744293 0
M  V30 2512 H 236.512 1.25286 2.70825 0
M  V30 2513 C 235.261 -0.356496 3.45868 0
M  V30 2514 H 234.584 0.332608 3.98414 0
M  V30 2515 H 236.024 -0.686851 4.184 0
M  V30 2516 C 234.483 -1.56383 2.98406 0
M  V30 2517 O 235.013 -2.66294 3.00749 0
M  V30 2518 N 233.219 -1.41029 2.54085 0
M  V30 2519 H 232.766 -0.516089 2.52377 0
M  V30 2520 H 232.724 -2.21939 2.22689 0
M  V30 2521 N 236.496 -1.42363 0.676048 0
M  V30 2522 C 237.745 -2.00745 0.196037 0
M  V30 2523 C 238.058 -1.54083 -1.20489 0
M  V30 2524 O 239.264 -2.04891 -1.78134 0
M  V30 2525 C 237.72 -3.58651 0.299616 0
M  V30 2526 C 237.328 -4.143 1.70468 0
M  V30 2527 C 239.072 -4.24326 -0.121619 0
M  V30 2528 C 236.979 -5.64574 1.76096 0
M  V30 2529 H 235.909 -0.750787 0.0695301 0
M  V30 2530 H 238.56 -1.63072 0.841412 0
M  V30 2531 H 236.942 -3.93833 -0.413673 0
M  V30 2532 H 238.116 -3.90575 2.44515 0
M  V30 2533 H 236.431 -3.61081 2.07387 0
M  V30 2534 H 239.028 -5.34607 -0.0997362 0
M  V30 2535 H 239.371 -3.99897 -1.15708 0
M  V30 2536 H 239.904 -3.94108 0.540706 0
M  V30 2537 H 236.643 -5.93804 2.77628 0
M  V30 2538 H 236.163 -5.90286 1.06406 0
M  V30 2539 H 237.842 -6.29013 1.51496 0
M  V30 2540 N 237.974 -0.419461 -1.51915 0
M  V30 2541 C 239.202 0.152136 -2.0634 0
M  V30 2542 C 239.617 1.37988 -1.28859 0
M  V30 2543 O 238.974 1.79243 -0.343232 0
M  V30 2544 C 239.025 0.492266 -3.58133 0
M  V30 2545 O 238.746 -0.686736 -4.32684 0
M  V30 2546 C 240.247 1.11648 -4.2901 0
M  V30 2547 H 237.467 0.0158325 -0.670813 0
M  V30 2548 H 240.011 -0.593394 -1.95702 0
M  V30 2549 H 238.166 1.18769 -3.68745 0
M  V30 2550 H 238.58 -0.400341 -5.2297 0
M  V30 2551 H 240.054 1.3046 -5.36362 0
M  V30 2552 H 240.531 2.09251 -3.86148 0
M  V30 2553 H 241.137 0.460958 -4.22795 0
M  V30 2554 N 239.452 1.56882 -0.150215 0
M  V30 2555 C 240.382 2.19935 0.784284 0
M  V30 2556 C 241.363 1.14854 1.25469 0
M  V30 2557 O 242.548 1.43209 1.31168 0
M  V30 2558 C 239.678 2.82349 2.02229 0
M  V30 2559 C 238.632 3.93285 1.68853 0
M  V30 2560 C 237.958 4.42649 2.99944 0
M  V30 2561 C 239.258 5.13904 0.932714 0
M  V30 2562 H 240.952 2.9828 0.258781 0
M  V30 2563 H 238.498 1.43473 0.123029 0
M  V30 2564 H 240.451 3.25126 2.68088 0
M  V30 2565 H 239.175 2.0134 2.57157 0
M  V30 2566 H 237.834 3.5113 1.05371 0
M  V30 2567 H 237.482 3.58458 3.52869 0
M  V30 2568 H 237.182 5.17476 2.78374 0
M  V30 2569 H 238.706 4.88099 3.66868 0
M  V30 2570 H 240.12 5.53506 1.49345 0
M  V30 2571 H 238.517 5.94515 0.81684 0
M  V30 2572 H 239.587 4.84842 -0.0749568 0
M  V30 2573 N 240.93 -0.123565 1.57115 0
M  V30 2574 C 242.341 -0.681198 1.73829 0
M  V30 2575 C 242.692 -1.80535 0.768214 0
M  V30 2576 O 241.817 -2.16317 -0.0599103 0
M  V30 2577 C 242.412 -1.24246 3.15196 0
M  V30 2578 C 240.971 -1.74643 3.33432 0
M  V30 2579 C 240.118 -0.644284 2.69711 0
M  V30 2580 H 243.069 0.102315 1.5837 0
M  V30 2581 H 243.09 -2.11216 3.16493 0
M  V30 2582 H 242.602 -0.424062 3.85776 0
M  V30 2583 H 240.703 -2.58974 2.67886 0
M  V30 2584 H 240.816 -1.85902 4.41562 0
M  V30 2585 H 239.18 -1.07676 2.3082 0
M  V30 2586 H 239.963 0.163058 3.42913 0
M  V30 2587 N 242.408 -1.52605 -0.393616 0
M  V30 2588 C 243.358 -1.73436 -1.48 0
M  V30 2589 C 244.342 -0.588386 -1.49756 0
M  V30 2590 O 245.534 -0.846047 -1.5547 0
M  V30 2591 C 242.663 -1.90247 -2.85764 0
M  V30 2592 C 241.749 -3.10763 -2.88595 0
M  V30 2593 N 242.14 -4.33196 -2.61103 0
M  V30 2594 C 240.438 -3.10914 -3.19763 0
M  V30 2595 C 241.139 -5.1477 -2.70899 0
M  V30 2596 N 240.115 -4.50356 -3.04435 0
M  V30 2597 H 243.917 -2.65727 -1.25563 0
M  V30 2598 H 241.431 -1.5085 -0.601513 0
M  V30 2599 H 243.428 -2.03291 -3.63976 0
M  V30 2600 H 242.088 -0.991663 -3.09186 0
M  V30 2601 H 243.099 -4.61408 -2.35209 0
M  V30 2602 H 239.776 -2.29626 -3.4868 0
M  V30 2603 H 241.166 -6.22355 -2.53227 0
M  V30 2604 N 243.887 0.651787 -1.4349 0
M  V30 2605 C 244.817 1.77621 -1.51569 0
M  V30 2606 C 245.798 1.66022 -0.370253 0
M  V30 2607 O 246.983 1.85095 -0.587658 0
M  V30 2608 C 244.113 3.16056 -1.43966 0
M  V30 2609 C 243.067 3.4242 -2.56774 0
M  V30 2610 C 242.393 4.8067 -2.34223 0
M  V30 2611 C 243.693 3.37023 -3.99015 0
M  V30 2612 H 245.387 1.71117 -2.45681 0
M  V30 2613 H 242.933 0.821825 -1.18246 0
M  V30 2614 H 244.886 3.94472 -1.48221 0
M  V30 2615 H 243.61 3.23293 -0.463586 0
M  V30 2616 H 242.269 2.66375 -2.51873 0
M  V30 2617 H 241.917 4.84585 -1.34856 0
M  V30 2618 H 241.617 4.9927 -3.09844 0
M  V30 2619 H 243.141 5.61342 -2.40265 0
M  V30 2620 H 244.555 4.05374 -4.05395 0
M  V30 2621 H 242.952 3.67159 -4.74673 0
M  V30 2622 H 244.022 2.3518 -4.2405 0
M  V30 2623 N 245.365 1.30045 0.890287 0
M  V30 2624 C 246.275 1.17885 2.02831 0
M  V30 2625 C 247.291 0.0999609 1.73713 0
M  V30 2626 O 248.467 0.313867 1.98939 0
M  V30 2627 C 245.532 0.866079 3.35708 0
M  V30 2628 C 244.593 2.02979 3.78283 0
M  V30 2629 C 243.826 1.73184 5.0482 0
M  V30 2630 O 244.049 0.657237 5.66601 0
M  V30 2631 O 242.983 2.58267 5.43674 0
M  V30 2632 H 246.809 2.13474 2.16015 0
M  V30 2633 H 244.394 1.09587 1.01543 0
M  V30 2634 H 246.276 0.706623 4.15433 0
M  V30 2635 H 244.951 -0.0599443 3.23644 0
M  V30 2636 H 243.858 2.24454 2.99285 0
M  V30 2637 H 245.191 2.93734 3.94944 0
M  V30 2638 N 246.843 -1.10192 1.12674 0
M  V30 2639 C 248.068 -1.86523 0.906853 0
M  V30 2640 C 248.493 -1.80221 -0.538711 0
M  V30 2641 O 247.851 -1.17396 -1.38158 0
M  V30 2642 C 247.899 -3.32758 1.3894 0
M  V30 2643 O 247.003 -4.08449 0.5695 0
M  V30 2644 H 246.344 -0.578678 0.325619 0
M  V30 2645 H 248.874 -1.39203 1.49946 0
M  V30 2646 H 248.884 -3.83608 1.38958 0
M  V30 2647 H 247.559 -3.36661 2.44197 0
M  V30 2648 H 246.136 -3.67427 0.636528 0
M  V30 2649 N 248.321 -0.919034 -1.28029 0
M  V30 2650 C 249.253 -0.368762 -2.26214 0
M  V30 2651 C 250.266 0.495716 -1.55069 0
M  V30 2652 O 251.455 0.30974 -1.75792 0
M  V30 2653 C 248.555 0.491049 -3.35324 0
M  V30 2654 C 247.728 -0.352133 -4.3598 0
M  V30 2655 C 246.787 0.443622 -5.24327 0
M  V30 2656 O 245.813 -0.14566 -5.69014 0
M  V30 2657 N 247.015 1.74545 -5.53637 0
M  V30 2658 H 249.78 -1.21273 -2.74068 0
M  V30 2659 H 247.341 -0.785541 -1.41566 0
M  V30 2660 H 249.333 1.03026 -3.91366 0
M  V30 2661 H 247.903 1.23574 -2.87138 0
M  V30 2662 H 247.123 -1.07269 -3.79324 0
M  V30 2663 H 248.411 -0.928883 -5.00249 0
M  V30 2664 H 247.809 2.24666 -5.19174 0
M  V30 2665 H 246.366 2.23138 -6.12416 0
M  V30 2666 N 249.799 1.42003 -0.683588 0
M  V30 2667 C 251.024 2.06265 -0.216647 0
M  V30 2668 C 251.449 1.51059 1.12083 0
M  V30 2669 O 250.807 0.632638 1.69904 0
M  V30 2670 C 250.855 3.60191 -0.171759 0
M  V30 2671 O 249.959 4.03396 0.857069 0
M  V30 2672 H 249.3 0.65502 -0.108834 0
M  V30 2673 H 251.83 1.81982 -0.935077 0
M  V30 2674 H 251.84 4.08 0.0014303 0
M  V30 2675 H 250.515 3.99743 -1.14796 0
M  V30 2676 H 249.092 3.67117 0.654208 0
M  V30 2677 N 251.277 0.427512 1.51691 0
M  V30 2678 C 252.207 -0.3796 2.30394 0
M  V30 2679 C 253.188 -1.02982 1.35384 0
M  V30 2680 O 254.373 -1.03534 1.643 0
M  V30 2681 C 251.503 -1.48649 3.1388 0
M  V30 2682 C 250.457 -0.960294 4.17088 0
M  V30 2683 C 249.783 -2.16219 4.89033 0
M  V30 2684 C 251.083 -0.00153679 5.223 0
M  V30 2685 H 252.777 0.277164 2.98114 0
M  V30 2686 H 250.323 0.134739 1.43368 0
M  V30 2687 H 252.276 -2.05826 3.67714 0
M  V30 2688 H 251 -2.1714 2.43962 0
M  V30 2689 H 249.659 -0.410806 3.64291 0
M  V30 2690 H 249.307 -2.83307 4.15628 0
M  V30 2691 H 249.007 -1.81654 5.58816 0
M  V30 2692 H 250.531 -2.73968 5.45687 0
M  V30 2693 H 251.945 -0.482687 5.71264 0
M  V30 2694 H 250.342 0.256199 5.99553 0
M  V30 2695 H 251.412 0.938174 4.75738 0
M  V30 2696 N 252.755 -1.56801 0.158532 0
M  V30 2697 C 253.98 -2.01295 -0.499516 0
M  V30 2698 C 254.405 -1.03799 -1.56867 0
M  V30 2699 O 253.763 -0.0155162 -1.81293 0
M  V30 2700 C 253.811 -3.44469 -1.06647 0
M  V30 2701 O 252.915 -3.50012 -2.18095 0
M  V30 2702 H 252.256 -0.652884 -0.12099 0
M  V30 2703 H 254.786 -2.02958 0.258661 0
M  V30 2704 H 254.796 -3.8351 -1.39227 0
M  V30 2705 H 253.471 -4.14932 -0.283581 0
M  V30 2706 H 252.048 -3.22822 -1.86656 0
M  V30 2707 N 254.233 0.115231 -1.57178 0
M  V30 2708 C 255.482 0.820945 -1.84237 0
M  V30 2709 C 255.795 1.80866 -0.744761 0
M  V30 2710 O 257.001 2.56083 -0.901871 0
M  V30 2711 C 255.457 1.51072 -3.26658 0
M  V30 2712 C 255.065 0.563795 -4.44438 0
M  V30 2713 C 256.809 2.20134 -3.62962 0
M  V30 2714 C 254.716 1.25701 -5.77887 0
M  V30 2715 H 253.646 0.310328 -0.687177 0
M  V30 2716 H 256.297 0.0737134 -1.83352 0
M  V30 2717 H 254.679 2.30471 -3.22024 0
M  V30 2718 H 255.853 -0.197247 -4.60378 0
M  V30 2719 H 254.168 -0.0200638 -4.16395 0
M  V30 2720 H 256.765 2.72696 -4.59936 0
M  V30 2721 H 257.108 2.98107 -2.90582 0
M  V30 2722 H 257.641 1.47619 -3.69396 0
M  V30 2723 H 254.38 0.518493 -6.53446 0
M  V30 2724 H 253.9 1.98997 -5.65827 0
M  V30 2725 H 255.579 1.78915 -6.2177 0
M  V30 2726 N 255.711 1.52812 0.385517 0
M  V30 2727 C 256.643 1.74096 1.49074 0
M  V30 2728 C 257.656 0.621462 1.50472 0
M  V30 2729 O 258.845 0.897245 1.54311 0
M  V30 2730 C 255.945 1.78774 2.87911 0
M  V30 2731 C 255.118 3.08134 3.10439 0
M  V30 2732 C 254.177 3.04313 4.29278 0
M  V30 2733 O 253.203 3.78168 4.25415 0
M  V30 2734 N 254.405 2.23741 5.35649 0
M  V30 2735 H 257.17 2.69455 1.31202 0
M  V30 2736 H 254.731 1.51343 0.575065 0
M  V30 2737 H 256.723 1.73721 3.65518 0
M  V30 2738 H 255.293 0.907869 2.99126 0
M  V30 2739 H 254.513 3.26649 2.20667 0
M  V30 2740 H 255.801 3.93662 3.22347 0
M  V30 2741 H 255.199 1.63211 5.41645 0
M  V30 2742 H 253.756 2.24524 6.11909 0
M  V30 2743 N 257.189 -0.644168 1.43834 0
M  V30 2744 C 258.435 -1.40431 1.47141 0
M  V30 2745 C 258.79 -1.92153 0.0975577 0
M  V30 2746 O 258.083 -1.69924 -0.885232 0
M  V30 2747 C 258.277 -2.59615 2.45631 0
M  V30 2748 C 258.106 -2.1956 3.92458 0
M  V30 2749 C 256.876 -2.07456 4.60749 0
M  V30 2750 C 259.074 -1.79281 4.8204 0
M  V30 2751 N 257.056 -1.60827 5.92459 0
M  V30 2752 C 258.427 -1.43801 6.03093 0
M  V30 2753 C 260.482 -1.66545 4.6922 0
M  V30 2754 C 259.185 -0.968599 7.12749 0
M  V30 2755 C 261.211 -1.21008 5.78888 0
M  V30 2756 C 260.573 -0.864711 6.99072 0
M  V30 2757 H 256.672 -0.509182 0.593513 0
M  V30 2758 H 259.256 -0.740351 1.80075 0
M  V30 2759 H 257.427 -3.23658 2.1471 0
M  V30 2760 H 259.159 -3.26357 2.39318 0
M  V30 2761 H 255.914 -2.275 4.1538 0
M  V30 2762 H 256.338 -1.39848 6.62398 0
M  V30 2763 H 260.98 -1.91883 3.7675 0
M  V30 2764 H 258.698 -0.702715 8.05039 0
M  V30 2765 H 262.284 -1.11631 5.7099 0
M  V30 2766 H 261.164 -0.517736 7.82489 0
M  V30 2767 N 258.668 -1.30515 -0.883378 0
M  V30 2768 C 259.914 -1.19607 -1.63774 0
M  V30 2769 C 260.247 0.248314 -1.92606 0
M  V30 2770 O 259.522 1.17742 -1.54813 0
M  V30 2771 C 259.805 -2.02669 -2.97653 0
M  V30 2772 C 259.658 -3.55335 -2.75784 0
M  V30 2773 C 260.977 -1.86573 -3.98596 0
M  V30 2774 H 258.096 -0.435856 -0.594305 0
M  V30 2775 H 260.738 -1.60165 -1.02212 0
M  V30 2776 H 258.888 -1.68208 -3.50197 0
M  V30 2777 H 260.56 -3.99863 -2.30016 0
M  V30 2778 H 258.803 -3.79438 -2.1026 0
M  V30 2779 H 259.474 -4.08745 -3.70988 0
M  V30 2780 H 261.95 -2.16703 -3.55217 0
M  V30 2781 H 260.826 -2.47014 -4.90179 0
M  V30 2782 H 261.087 -0.825321 -4.34328 0
M  V30 2783 N 260.146 1.09593 -1.13257 0
M  V30 2784 C 261.376 1.85231 -0.915049 0
M  V30 2785 C 261.784 1.81345 0.539498 0
M  V30 2786 O 261.127 1.20664 1.38513 0
M  V30 2787 C 261.189 3.34275 -1.3229 0
M  V30 2788 C 260.853 3.6191 -2.79052 0
M  V30 2789 C 261.85 3.57777 -3.77216 0
M  V30 2790 C 259.535 3.90309 -3.16171 0
M  V30 2791 C 261.529 3.81652 -5.1051 0
M  V30 2792 C 259.216 4.13839 -4.49644 0
M  V30 2793 C 260.214 4.09502 -5.46623 0
M  V30 2794 O 259.902 4.32426 -6.77689 0
M  V30 2795 H 259.634 0.591997 -0.326367 0
M  V30 2796 H 262.188 1.394 -1.50854 0
M  V30 2797 H 260.418 3.80805 -0.672667 0
M  V30 2798 H 262.107 3.9132 -1.07812 0
M  V30 2799 H 262.873 3.35865 -3.49885 0
M  V30 2800 H 258.752 3.92811 -2.41289 0
M  V30 2801 H 262.296 3.78182 -5.86195 0
M  V30 2802 H 258.193 4.35232 -4.767 0
M  V30 2803 H 258.961 4.49896 -6.83766 0
M  V30 2804 N 261.624 0.925811 1.2754 0
M  V30 2805 C 262.572 0.413897 2.28888 0
M  V30 2806 C 263.566 -0.500779 1.61829 0
M  V30 2807 O 264.772 -0.38069 1.75928 0
M  V30 2808 H 261.147 0.115274 0.743112 0
M  V30 2809 H 263.118 1.28151 2.69481 0
M  V30 2810 C 261.867 -0.319792 3.46226 0
M  V30 2811 H 261.19 0.374846 3.98039 0
M  V30 2812 H 262.63 -0.642435 4.19105 0
M  V30 2813 C 261.089 -1.53209 3.00048 0
M  V30 2814 O 261.619 -2.6309 3.03557 0
M  V30 2815 N 259.825 -1.38326 2.55566 0
M  V30 2816 H 259.372 -0.489292 2.5291 0
M  V30 2817 H 259.33 -2.19564 2.25031 0
M  V30 2818 N 263.102 -1.41638 0.69111 0
M  V30 2819 C 264.351 -2.00526 0.217318 0
M  V30 2820 C 264.664 -1.55353 -1.18848 0
M  V30 2821 O 265.87 -2.06769 -1.75951 0
M  V30 2822 C 264.326 -3.58313 0.337639 0
M  V30 2823 C 263.934 -4.12469 1.74852 0
M  V30 2824 C 265.678 -4.24431 -0.0766066 0
M  V30 2825 C 263.585 -5.62675 1.82074 0
M  V30 2826 H 262.515 -0.750008 0.0774893 0
M  V30 2827 H 265.166 -1.6217 0.858661 0
M  V30 2828 H 263.548 -3.9425 -0.371879 0
M  V30 2829 H 264.722 -3.8796 2.48644 0
M  V30 2830 H 263.037 -3.58861 2.11205 0
M  V30 2831 H 265.634 -5.34683 -0.0430284 0
M  V30 2832 H 265.977 -4.01101 -1.1146 0
M  V30 2833 H 266.51 -3.93512 0.582476 0
M  V30 2834 H 263.249 -5.90826 2.83911 0
M  V30 2835 H 262.769 -5.89124 1.12661 0
M  V30 2836 H 264.448 -6.27371 1.58159 0
M  V30 2837 N 264.58 -0.43555 -1.51462 0
M  V30 2838 C 265.51 0.367376 -2.30592 0
M  V30 2839 C 266.491 1.02263 -1.35928 0
M  V30 2840 O 267.676 1.02661 -1.64847 0
M  V30 2841 C 264.806 1.46983 -3.14664 0
M  V30 2842 C 263.76 0.938161 -4.17591 0
M  V30 2843 C 263.086 2.13622 -4.90173 0
M  V30 2844 C 264.386 -0.0261621 -5.22293 0
M  V30 2845 H 266.08 -0.292969 -2.97963 0
M  V30 2846 H 263.626 -0.14234 -1.43295 0
M  V30 2847 H 265.579 2.03873 -3.688 0
M  V30 2848 H 264.303 2.15843 -2.4511 0
M  V30 2849 H 262.962 0.391481 -3.64504 0
M  V30 2850 H 262.61 2.81098 -4.17124 0
M  V30 2851 H 262.31 1.78688 -5.59772 0
M  V30 2852 H 263.834 2.7107 -5.47132 0
M  V30 2853 H 265.248 0.452384 -5.71512 0
M  V30 2854 H 263.645 -0.287992 -5.99409 0
M  V30 2855 H 264.715 -0.963391 -4.75233 0
M  V30 2856 N 266.058 1.56714 -0.166846 0
M  V30 2857 C 267.335 1.88412 0.525373 0
M  V30 2858 C 267.715 1.07602 1.81618 0
M  V30 2859 O 267.063 0.168621 2.27877 0
M  V30 2860 C 267.273 3.40363 0.771613 0
M  V30 2861 C 268.621 4.10007 1.1036 0
M  V30 2862 O 269.645 3.45655 0.860304 0
M  V30 2863 O 268.504 5.2369 1.56239 0
M  V30 2864 H 265.598 0.781587 0.270278 0
M  V30 2865 H 268.144 1.68458 -0.204946 0
M  V30 2866 H 266.916 3.91046 -0.141093 0
M  V30 2867 H 266.539 3.65914 1.55541 0
M  V30 2868 N 267.536 -0.106894 1.57237 0
M  V30 2869 C 268.483 -1.13049 2.01217 0
M  V30 2870 C 269.453 -1.40471 0.886403 0
M  V30 2871 O 270.638 -1.52133 1.15153 0
M  V30 2872 C 267.778 -2.4487 2.43172 0
M  V30 2873 C 266.891 -2.24281 3.69218 0
M  V30 2874 C 266.026 -3.49417 4.00101 0
M  V30 2875 C 265.065 -3.24038 5.19294 0
M  V30 2876 N 264.202 -4.41409 5.45988 0
M  V30 2877 H 269.042 -0.748456 2.88448 0
M  V30 2878 H 266.579 -0.358054 1.42676 0
M  V30 2879 H 268.537 -3.21786 2.65537 0
M  V30 2880 H 267.167 -2.80944 1.58967 0
M  V30 2881 H 266.219 -1.38224 3.54398 0
M  V30 2882 H 267.531 -2.01512 4.56283 0
M  V30 2883 H 266.685 -4.34746 4.2318 0
M  V30 2884 H 265.424 -3.75229 3.11535 0
M  V30 2885 H 264.429 -2.37102 4.96047 0
M  V30 2886 H 265.654 -2.99584 6.09447 0
M  V30 2887 H 263.6 -4.67319 4.60379 0
M  V30 2888 H 263.517 -4.21788 6.274 0
M  V30 2889 H 264.785 -5.27836 5.73593 0
M  V30 2890 N 269.014 -1.53014 -0.377408 0
M  V30 2891 C 269.961 -1.78616 -1.46168 0
M  V30 2892 C 270.931 -0.629917 -1.53692 0
M  V30 2893 O 272.116 -0.870861 -1.69766 0
M  V30 2894 C 269.256 -1.97123 -2.8326 0
M  V30 2895 C 268.369 -3.24831 -2.84796 0
M  V30 2896 C 267.504 -3.33591 -4.13389 0
M  V30 2897 C 266.543 -4.55377 -4.09021 0
M  V30 2898 N 265.68 -4.61355 -5.29241 0
M  V30 2899 H 270.52 -2.71142 -1.23637 0
M  V30 2900 H 268.057 -1.34326 -0.599577 0
M  V30 2901 H 270.015 -2.05839 -3.62886 0
M  V30 2902 H 268.645 -1.07946 -3.04216 0
M  V30 2903 H 267.697 -3.25128 -1.97474 0
M  V30 2904 H 269.009 -4.14523 -2.77439 0
M  V30 2905 H 268.163 -3.41554 -5.01424 0
M  V30 2906 H 266.902 -2.41894 -4.23484 0
M  V30 2907 H 265.907 -4.47527 -3.19373 0
M  V30 2908 H 267.132 -5.48402 -4.00539 0
M  V30 2909 H 265.078 -3.72554 -5.39944 0
M  V30 2910 H 264.995 -5.44935 -5.24006 0
M  V30 2911 H 266.263 -4.73586 -6.19141 0
M  V30 2912 N 270.492 0.636531 -1.44174 0
M  V30 2913 C 271.455 1.73063 -1.50273 0
M  V30 2914 C 272.455 1.56113 -0.385397 0
M  V30 2915 O 273.645 1.61707 -0.64781 0
M  V30 2916 C 270.777 3.12096 -1.37145 0
M  V30 2917 H 271.97 1.69031 -2.47727 0
M  V30 2918 H 269.523 0.849706 -1.31186 0
M  V30 2919 H 270.258 3.21728 -0.407636 0
M  V30 2920 H 270.043 3.25805 -2.18159 0
M  V30 2921 H 271.533 3.91846 -1.44382 0
M  V30 2922 N 271.97 1.30982 0.876444 0
M  V30 2923 C 272.88 1.2003 2.01569 0
M  V30 2924 C 273.896 0.11838 1.73597 0
M  V30 2925 O 275.072 0.33495 1.98595 0
M  V30 2926 C 272.137 0.901637 3.34771 0
M  V30 2927 C 271.198 2.06979 3.76109 0
M  V30 2928 C 270.431 1.78529 5.02954 0
M  V30 2929 O 270.654 0.717296 5.65872 0
M  V30 2930 O 269.588 2.64019 5.40905 0
M  V30 2931 H 273.414 2.15753 2.13739 0
M  V30 2932 H 270.999 1.10658 1.00375 0
M  V30 2933 H 272.881 0.750645 4.1466 0
M  V30 2934 H 271.556 -0.0256141 3.2369 0
M  V30 2935 H 270.463 2.27616 2.96887 0
M  V30 2936 H 271.796 2.97907 3.91807 0
M  V30 2937 N 273.449 -1.08991 1.13837 0
M  V30 2938 C 274.412 -2.13925 0.822715 0
M  V30 2939 C 275.412 -1.599 -0.1699 0
M  V30 2940 O 276.602 -1.74104 0.0577251 0
M  V30 2941 C 273.734 -3.40155 0.225318 0
M  V30 2942 H 274.927 -2.43358 1.75262 0
M  V30 2943 H 272.48 -1.24603 0.943594 0
M  V30 2944 H 273.215 -3.16352 -0.713594 0
M  V30 2945 H 273 -3.80661 0.940193 0
M  V30 2946 H 274.49 -4.17594 0.0214784 0
M  V30 2947 N 274.927 -0.932562 -1.27047 0
M  V30 2948 C 276.204 -0.49377 -1.89265 0
M  V30 2949 C 276.584 1.02833 -1.8436 0
M  V30 2950 O 275.932 1.88461 -1.29209 0
M  V30 2951 C 276.142 -1.04536 -3.32976 0
M  V30 2952 C 277.49 -1.10879 -4.09867 0
M  V30 2953 O 278.514 -0.995327 -3.42011 0
M  V30 2954 O 277.373 -1.28417 -5.31198 0
M  V30 2955 H 274.467 -0.159596 -0.811454 0
M  V30 2956 H 277.013 -1.02457 -1.3528 0
M  V30 2957 H 275.785 -2.08913 -3.30864 0
M  V30 2958 H 275.408 -0.496494 -3.94488 0
M  V30 2959 N 276.405 1.4127 -0.698611 0
M  V30 2960 C 277.821 1.55241 -0.370462 0
M  V30 2961 C 278.021 1.67351 1.12231 0
M  V30 2962 O 277.077 1.65363 1.90818 0
M  V30 2963 C 278.39 2.78997 -1.12165 0
M  V30 2964 C 279.938 2.92797 -1.1063 0
M  V30 2965 C 280.413 4.19445 -1.8393 0
M  V30 2966 N 281.904 4.26409 -1.80914 0
M  V30 2967 C 282.639 5.23271 -2.34467 0
M  V30 2968 N 282.135 6.26145 -2.96504 0
M  V30 2969 N 283.928 5.15232 -2.24706 0
M  V30 2970 H 276.079 1.31654 -1.66676 0
M  V30 2971 H 278.342 0.635393 -0.703548 0
M  V30 2972 H 278.048 2.76268 -2.17644 0
M  V30 2973 H 277.922 3.70606 -0.702209 0
M  V30 2974 H 280.309 2.95039 -0.0597713 0
M  V30 2975 H 280.39 2.02353 -1.56483 0
M  V30 2976 H 280.034 4.17964 -2.88563 0
M  V30 2977 H 279.964 5.08866 -1.35509 0
M  V30 2978 H 282.455 3.527 -1.35687 0
M  V30 2979 H 282.768 6.96451 -3.34927 0
M  V30 2980 H 281.113 6.26638 -3.00583 0
M  V30 2981 H 284.304 4.33789 -1.7591 0
M  V30 2982 H 284.477 5.90552 -2.66745 0
M  V30 2983 N 277.883 0.443576 1.51229 0
M  V30 2984 C 279.132 -0.122332 2.01329 0
M  V30 2985 C 279.445 -1.43237 1.33201 0
M  V30 2986 O 280.651 -2.0816 1.74304 0
M  V30 2987 C 279.107 -0.268551 3.58897 0
M  V30 2988 C 278.715 1.03142 4.35965 0
M  V30 2989 C 280.459 -0.787894 4.17124 0
M  V30 2990 C 278.366 0.850504 5.85252 0
M  V30 2991 H 277.296 -0.0494929 0.752374 0
M  V30 2992 H 279.947 0.574289 1.74282 0
M  V30 2993 H 278.329 -1.02832 3.82415 0
M  V30 2994 H 279.503 1.80001 4.24189 0
M  V30 2995 H 277.818 1.47977 3.89219 0
M  V30 2996 H 280.415 -0.939841 5.26375 0
M  V30 2997 H 280.758 -1.77201 3.76703 0
M  V30 2998 H 281.291 -0.0862669 3.97706 0
M  V30 2999 H 278.03 1.80718 6.30096 0
M  V30 3000 H 277.55 0.121825 5.99676 0
M  V30 3001 H 279.229 0.506163 6.45017 0
M  V30 3002 N 279.361 -1.56624 0.175154 0
M  V30 3003 C 280.607 -1.9729 -0.469506 0
M  V30 3004 C 280.94 -1.06128 -1.62636 0
M  V30 3005 O 280.215 -0.109183 -1.94193 0
M  V30 3006 C 280.498 -3.47375 -0.948804 0
M  V30 3007 C 280.351 -4.49317 0.208491 0
M  V30 3008 C 281.67 -4.00652 -1.82116 0
M  V30 3009 H 278.789 -0.717317 -0.16919 0
M  V30 3010 H 281.431 -1.88184 0.262062 0
M  V30 3011 H 279.581 -3.55267 -1.57219 0
M  V30 3012 H 281.253 -4.53482 0.845682 0
M  V30 3013 H 279.496 -4.25121 0.863395 0
M  V30 3014 H 280.167 -5.51741 -0.169059 0
M  V30 3015 H 282.643 -3.95416 -1.2956 0
M  V30 3016 H 281.519 -5.06075 -2.12554 0
M  V30 3017 H 281.78 -3.44699 -2.7683 0
M  V30 3018 N 280.839 0.0985539 -1.57292 0
M  V30 3019 C 282.086 0.802678 -1.85912 0
M  V30 3020 C 282.414 1.78901 -0.763186 0
M  V30 3021 O 281.669 1.94178 0.243559 0
M  V30 3022 C 281.968 1.56927 -3.21105 0
M  V30 3023 C 281.634 0.725376 -4.45027 0
M  V30 3024 C 280.296 0.492726 -4.78671 0
M  V30 3025 C 282.648 0.138493 -5.21016 0
M  V30 3026 C 279.976 -0.336727 -5.85733 0
M  V30 3027 C 282.328 -0.678264 -6.28953 0
M  V30 3028 C 280.992 -0.921039 -6.61115 0
M  V30 3029 H 280.262 0.293721 -0.680301 0
M  V30 3030 H 282.909 0.0642841 -1.91392 0
M  V30 3031 H 281.214 2.37914 -3.11294 0
M  V30 3032 H 282.911 2.11841 -3.40477 0
M  V30 3033 H 279.501 0.916815 -4.18679 0
M  V30 3034 H 283.685 0.305404 -4.95359 0
M  V30 3035 H 278.941 -0.533836 -6.09065 0
M  V30 3036 H 283.115 -1.1399 -6.87007 0
M  V30 3037 H 280.742 -1.56556 -7.43905 0
M  V30 3038 N 282.317 1.53212 0.369288 0
M  V30 3039 C 283.227 1.82342 1.47609 0
M  V30 3040 C 284.243 0.711532 1.58787 0
M  V30 3041 O 285.419 1.0012 1.74751 0
M  V30 3042 C 282.484 2.00393 2.8292 0
M  V30 3043 C 281.545 3.24297 2.81301 0
M  V30 3044 C 280.778 3.41478 4.10157 0
M  V30 3045 O 281.001 2.63033 5.06132 0
M  V30 3046 O 279.935 4.34817 4.16194 0
M  V30 3047 H 283.761 2.76366 1.25918 0
M  V30 3048 H 281.346 1.38547 0.559034 0
M  V30 3049 H 283.228 2.13859 3.63101 0
M  V30 3050 H 281.903 1.09559 3.04596 0
M  V30 3051 H 280.81 3.16257 1.99831 0
M  V30 3052 H 282.143 4.15041 2.64578 0
M  V30 3053 N 283.795 -0.628877 1.44509 0
M  V30 3054 C 284.743 -1.76193 1.51852 0
M  V30 3055 C 285.737 -1.64849 0.390042 0
M  V30 3056 O 286.943 -1.709 0.565082 0
M  V30 3057 H 283.318 -0.581728 0.476547 0
M  V30 3058 H 285.289 -1.67123 2.47209 0
M  V30 3059 C 284.038 -3.14533 1.48204 0
M  V30 3060 H 283.361 -3.23911 2.34354 0
M  V30 3061 H 284.801 -3.93701 1.57402 0
M  V30 3062 C 283.26 -3.36287 0.203142 0
M  V30 3063 O 283.79 -3.9509 -0.725745 0
M  V30 3064 N 281.996 -2.90408 0.105563 0
M  V30 3065 H 281.543 -2.42739 0.862301 0
M  V30 3066 H 281.501 -3.05339 -0.749371 0
M  V30 3067 N 285.273 -1.31445 -0.869486 0
M  V30 3068 C 286.684 -1.19042 -1.43826 0
M  V30 3069 C 287.035 0.202919 -1.95148 0
M  V30 3070 O 286.16 1.10071 -1.86315 0
M  V30 3071 C 286.755 -2.15499 -2.6143 0
M  V30 3072 C 285.314 -2.07028 -3.14351 0
M  V30 3073 C 284.461 -2.04701 -1.87063 0
M  V30 3074 H 287.412 -1.43489 -0.677984 0
M  V30 3075 H 287.433 -1.74488 -3.38134 0
M  V30 3076 H 286.945 -3.16899 -2.24046 0
M  V30 3077 H 285.046 -1.08825 -3.56354 0
M  V30 3078 H 285.159 -2.96157 -3.766 0
M  V30 3079 H 283.523 -1.49724 -2.06046 0
M  V30 3080 H 284.306 -3.07857 -1.51917 0
M  V30 3081 N 286.751 1.08385 -1.14413 0
M  V30 3082 C 288.028 1.77429 -0.823297 0
M  V30 3083 C 288.408 1.9974 0.683163 0
M  V30 3084 O 287.756 1.60739 1.62405 0
M  V30 3085 C 287.966 3.09004 -1.62227 0
M  V30 3086 C 289.314 3.83532 -1.82177 0
M  V30 3087 O 290.338 3.18786 -1.58915 0
M  V30 3088 O 289.197 4.99792 -2.21067 0
M  V30 3089 H 286.291 0.769999 -0.301712 0
M  V30 3090 H 288.837 1.14846 -1.24934 0
M  V30 3091 H 287.609 2.88316 -2.64555 0
M  V30 3092 H 287.232 3.79316 -1.19187 0
M  V30 3093 N 288.23 0.939286 1.26551 0
M  V30 3094 C 289.641 0.628782 1.75793 0
M  V30 3095 C 289.992 -0.856046 1.7654 0
M  V30 3096 O 289.117 -1.66994 1.3763 0
M  V30 3097 C 289.712 1.13465 3.19235 0
M  V30 3098 C 288.271 0.874601 3.66098 0
M  V30 3099 C 287.418 1.28667 2.45642 0
M  V30 3100 H 290.369 1.1178 1.12654 0
M  V30 3101 H 290.39 0.487609 3.77363 0
M  V30 3102 H 289.902 2.21535 3.1866 0
M  V30 3103 H 288.003 -0.191793 3.72106 0
M  V30 3104 H 288.116 1.50028 4.55004 0
M  V30 3105 H 286.48 0.705109 2.44745 0
M  V30 3106 H 287.263 2.37625 2.47769 0
M  V30 3107 N 289.708 -1.40897 0.706093 0
M  V30 3108 C 290.933 -2.05895 0.249435 0
M  V30 3109 C 291.358 -1.52823 -1.09666 0
M  V30 3110 O 290.716 -0.659589 -1.68876 0
M  V30 3111 C 290.764 -3.59872 0.22904 0
M  V30 3112 O 289.868 -4.04708 -0.792784 0
M  V30 3113 H 289.209 -0.653206 0.119241 0
M  V30 3114 H 291.739 -1.80471 0.96391 0
M  V30 3115 H 291.749 -4.07951 0.0634791 0
M  V30 3116 H 290.424 -3.97866 1.21141 0
M  V30 3117 H 289.001 -3.68111 -0.59572 0
M  V30 3118 N 291.186 -0.45159 -1.50991 0
M  V30 3119 C 292.463 0.170707 -1.94854 0
M  V30 3120 C 292.843 1.58788 -1.39103 0
M  V30 3121 O 292.191 2.20913 -0.583921 0
M  V30 3122 C 292.401 0.133929 -3.48743 0
M  V30 3123 C 293.749 0.33248 -4.23296 0
M  V30 3124 O 294.773 0.211403 -3.55572 0
M  V30 3125 O 293.632 0.57486 -5.43468 0
M  V30 3126 H 290.726 0.122264 -0.817912 0
M  V30 3127 H 293.272 -0.510594 -1.61836 0
M  V30 3128 H 292.044 -0.856283 -3.81816 0
M  V30 3129 H 291.667 0.857529 -3.88242 0
M  V30 3130 N 292.664 1.56529 -0.183458 0
M  V30 3131 C 293.912 1.96855 0.457452 0
M  V30 3132 C 294.233 1.07104 1.62953 0
M  V30 3133 O 293.503 0.139887 1.954 0
M  V30 3134 H 292.083 0.72693 0.171992 0
M  V30 3135 H 294.745 1.93056 -0.267476 0
M  V30 3136 H 293.841 3.01423 0.809368 0
M  V30 3137 N 294.142 -0.090211 1.57342 0
M  V30 3138 C 295.389 -0.792807 1.86335 0
M  V30 3139 C 295.717 -1.78494 0.772662 0
M  V30 3140 O 294.972 -1.94305 -0.233258 0
M  V30 3141 C 295.271 -1.55222 3.21933 0
M  V30 3142 C 294.937 -0.701765 4.45406 0
M  V30 3143 C 293.599 -0.467334 4.78925 0
M  V30 3144 C 295.951 -0.11086 5.21082 0
M  V30 3145 C 293.279 0.367785 5.85546 0
M  V30 3146 C 295.631 0.711609 6.28585 0
M  V30 3147 C 294.295 0.956086 6.60617 0
M  V30 3148 H 293.565 -0.290109 0.681849 0
M  V30 3149 H 296.212 -0.0541332 1.91423 0
M  V30 3150 H 294.517 -2.3626 3.12551 0
M  V30 3151 H 296.214 -2.10032 3.41595 0
M  V30 3152 H 292.804 -0.894598 4.1916 0
M  V30 3153 H 296.988 -0.279129 4.95514 0
M  V30 3154 H 292.244 0.566128 6.08773 0
M  V30 3155 H 296.418 1.17632 6.86393 0
M  V30 3156 H 294.045 1.60499 7.43064 0
M  V30 3157 N 295.62 -1.53406 -0.361157 0
M  V30 3158 C 296.866 -1.70054 -1.10496 0
M  V30 3159 C 297.199 -0.453278 -1.88836 0
M  V30 3160 O 296.474 0.5495 -1.86576 0
M  V30 3161 C 296.757 -2.95317 -2.06058 0
M  V30 3162 C 296.61 -4.3021 -1.31298 0
M  V30 3163 C 297.929 -3.16193 -3.06121 0
M  V30 3164 H 295.048 -0.618799 -0.400321 0
M  V30 3165 H 297.69 -1.86052 -0.385318 0
M  V30 3166 H 295.84 -2.81809 -2.67425 0
M  V30 3167 H 297.512 -4.55538 -0.726807 0
M  V30 3168 H 295.755 -4.29421 -0.614853 0
M  V30 3169 H 296.426 -5.14 -2.01265 0
M  V30 3170 H 298.902 -3.28916 -2.5486 0
M  V30 3171 H 297.778 -4.05266 -3.70204 0
M  V30 3172 H 298.039 -2.31676 -3.76535 0
M  V30 3173 N 297.098 0.621204 -1.44841 0
M  V30 3174 C 298.028 1.74366 -1.55303 0
M  V30 3175 C 299.009 1.65199 -0.405385 0
M  V30 3176 O 300.194 1.83807 -0.626787 0
M  V30 3177 C 297.324 3.12931 -1.50637 0
M  V30 3178 C 296.278 3.36896 -2.63979 0
M  V30 3179 C 295.604 4.75594 -2.44366 0
M  V30 3180 C 296.904 3.28483 -4.06074 0
M  V30 3181 H 298.598 1.65867 -2.49256 0
M  V30 3182 H 296.144 0.796558 -1.19962 0
M  V30 3183 H 298.097 3.9124 -1.56555 0
M  V30 3184 H 296.821 3.22237 -0.532057 0
M  V30 3185 H 295.48 2.60972 -2.57467 0
M  V30 3186 H 295.128 4.81616 -1.45105 0
M  V30 3187 H 294.828 4.92586 -3.20364 0
M  V30 3188 H 296.352 5.5612 -2.52117 0
M  V30 3189 H 297.766 3.96684 -4.13902 0
M  V30 3190 H 296.163 3.57008 -4.82354 0
M  V30 3191 H 297.233 2.26133 -4.28943 0
M  V30 3192 N 298.576 1.31904 0.862503 0
M  V30 3193 C 299.825 1.21373 1.61094 0
M  V30 3194 C 300.138 -0.22504 1.94301 0
M  V30 3195 O 301.344 -0.452121 2.67709 0
M  V30 3196 C 299.8 2.12525 2.9045 0
M  V30 3197 C 299.408 3.61441 2.64697 0
M  V30 3198 C 301.152 2.10813 3.68454 0
M  V30 3199 C 299.059 4.44578 3.90006 0
M  V30 3200 H 297.989 0.450705 0.604468 0
M  V30 3201 H 300.64 1.56811 0.953027 0
M  V30 3202 H 299.022 1.69994 3.57656 0
M  V30 3203 H 300.196 4.12264 2.05851 0
M  V30 3204 H 298.511 3.65205 2.00036 0
M  V30 3205 H 301.108 2.70167 4.61426 0
M  V30 3206 H 301.451 1.09713 4.01583 0
M  V30 3207 H 301.984 2.51583 3.08141 0
M  V30 3208 H 298.723 5.46461 3.62023 0
M  V30 3209 H 298.243 3.98508 4.48276 0
M  V30 3210 H 299.922 4.57176 4.5782 0
M  V30 3211 N 300.054 -1.07777 1.14986 0
M  V30 3212 C 301.465 -1.61766 0.932127 0
M  V30 3213 C 301.816 -1.88974 -0.527581 0
M  V30 3214 O 300.941 -1.65198 -1.39781 0
M  V30 3215 C 301.536 -2.93891 1.68563 0
M  V30 3216 C 300.095 -3.44639 1.5133 0
M  V30 3217 C 299.242 -2.18767 1.704 0
M  V30 3218 H 302.193 -0.909201 1.30074 0
M  V30 3219 H 302.214 -3.62623 1.15259 0
M  V30 3220 H 301.726 -2.74057 2.74799 0
M  V30 3221 H 299.827 -3.69564 0.474702 0
M  V30 3222 H 299.94 -4.20966 2.28746 0
M  V30 3223 H 298.304 -2.28253 1.13016 0
M  V30 3224 H 299.087 -2.01433 2.77992 0
M  V30 3225 N 301.532 -0.945985 -1.26051 0
M  V30 3226 C 302.809 -0.513816 -1.88731 0
M  V30 3227 C 303.189 1.00872 -1.8544 0
M  V30 3228 O 302.537 1.8708 -1.312 0
M  V30 3229 C 302.747 -1.08062 -3.31849 0
M  V30 3230 C 304.095 -1.1522 -4.08668 0
M  V30 3231 O 305.119 -1.03155 -3.40936 0
M  V30 3232 O 303.978 -1.34044 -5.29806 0
M  V30 3233 H 301.072 -0.168193 -0.809716 0
M  V30 3234 H 303.618 -1.03886 -1.34186 0
M  V30 3235 H 302.39 -2.1241 -3.2863 0
M  V30 3236 H 302.013 -0.538307 -3.93939 0
M  V30 3237 N 303.011 1.40521 -0.713556 0
M  V30 3238 C 303.941 2.33381 -0.0743864 0
M  V30 3239 C 304.922 1.52784 0.747735 0
M  V30 3240 O 306.107 1.81258 0.697071 0
M  V30 3241 C 303.237 3.36748 0.849598 0
M  V30 3242 C 302.191 4.27793 0.133247 0
M  V30 3243 C 301.517 5.21679 1.17281 0
M  V30 3244 C 302.817 5.12415 -1.01134 0
M  V30 3245 H 304.511 2.87081 -0.850007 0
M  V30 3246 H 302.057 1.38034 -0.410201 0
M  V30 3247 H 304.01 4.00648 1.30612 0
M  V30 3248 H 302.734 2.81439 1.65709 0
M  V30 3249 H 301.393 3.65342 -0.303426 0
M  V30 3250 H 301.041 4.62677 1.9733 0
M  V30 3251 H 300.741 5.83435 0.698397 0
M  V30 3252 H 302.265 5.88456 1.62947 0
M  V30 3253 H 303.679 5.69781 -0.634274 0
M  V30 3254 H 302.076 5.83203 -1.41399 0
M  V30 3255 H 303.146 4.48514 -1.84292 0
M  V30 3256 N 304.489 0.459591 1.5075 0
M  V30 3257 C 305.436 -0.340524 2.28274 0
M  V30 3258 C 306.406 -0.997371 1.32822 0
M  V30 3259 O 307.591 -1.01202 1.61749 0
M  V30 3260 C 304.731 -1.42317 3.14388 0
M  V30 3261 C 303.844 -0.782251 4.24859 0
M  V30 3262 C 302.979 -1.84182 4.98247 0
M  V30 3263 C 302.018 -1.18053 6.00608 0
M  V30 3264 N 301.155 -2.18244 6.67319 0
M  V30 3265 H 305.995 0.326899 2.96202 0
M  V30 3266 H 303.532 0.173057 1.46078 0
M  V30 3267 H 305.49 -2.06241 3.62658 0
M  V30 3268 H 304.12 -2.05992 2.4853 0
M  V30 3269 H 303.172 -0.0307404 3.80388 0
M  V30 3270 H 304.484 -0.259663 4.98124 0
M  V30 3271 H 303.638 -2.55714 5.50177 0
M  V30 3272 H 302.377 -2.39819 4.24662 0
M  V30 3273 H 301.382 -0.450776 5.47949 0
M  V30 3274 H 302.607 -0.631202 6.7616 0
M  V30 3275 H 300.553 -2.72919 5.96533 0
M  V30 3276 H 300.47 -1.70938 7.36421 0
M  V30 3277 H 301.738 -2.89191 7.23871 0
M  V30 3278 N 305.967 -1.56429 0.191757 0
M  V30 3279 C 307.213 -1.98541 -0.441943 0
M  V30 3280 C 307.568 -1.07646 -1.59468 0
M  V30 3281 O 306.861 -0.120191 -1.91223 0
M  V30 3282 C 307.055 -3.44449 -0.953384 0
M  V30 3283 C 306.884 -4.49456 0.148262 0
M  V30 3284 C 305.654 -5.01668 0.604781 0
M  V30 3285 C 307.852 -5.05336 0.95602 0
M  V30 3286 N 305.834 -5.90334 1.6846 0
M  V30 3287 C 307.205 -5.9064 1.88531 0
M  V30 3288 C 309.26 -4.87779 0.998811 0
M  V30 3289 C 307.963 -6.60264 2.85383 0
M  V30 3290 C 309.989 -5.58139 1.95537 0
M  V30 3291 C 309.351 -6.43187 2.8721 0
M  V30 3292 H 305.45 -0.771247 -0.129236 0
M  V30 3293 H 308.034 -1.92426 0.296682 0
M  V30 3294 H 306.205 -3.5107 -1.66146 0
M  V30 3295 H 307.937 -3.73533 -1.55741 0
M  V30 3296 H 304.692 -4.73183 0.198736 0
M  V30 3297 H 305.116 -6.39371 2.22561 0
M  V30 3298 H 309.758 -4.21705 0.304048 0
M  V30 3299 H 307.476 -7.25538 3.55837 0
M  V30 3300 H 311.062 -5.46532 1.99484 0
M  V30 3301 H 309.942 -6.96674 3.60022 0
M  V30 3302 N 307.445 0.0818655 -1.57387 0
M  V30 3303 C 308.393 1.11712 -2.04018 0
M  V30 3304 C 309.387 1.40683 -0.94364 0
M  V30 3305 O 310.593 1.40209 -1.12878 0
M  V30 3306 H 306.968 0.377542 -0.650358 0
M  V30 3307 H 308.939 0.697614 -2.90131 0
M  V30 3308 C 307.688 2.42537 -2.49141 0
M  V30 3309 H 307.011 2.21092 -3.33104 0
M  V30 3310 H 308.451 3.13446 -2.85531 0
M  V30 3311 C 306.91 3.0778 -1.37014 0
M  V30 3312 O 307.44 3.95436 -0.706621 0
M  V30 3313 N 305.646 2.68242 -1.11779 0
M  V30 3314 H 305.193 1.97052 -1.65917 0
M  V30 3315 H 305.151 3.1222 -0.369594 0
M  V30 3316 N 308.923 1.53595 0.353017 0
M  V30 3317 C 309.855 1.77219 1.45348 0
M  V30 3318 C 310.868 0.65324 1.49119 0
M  V30 3319 O 312.057 0.929775 1.52373 0
M  V30 3320 C 309.157 1.84841 2.84055 0
M  V30 3321 C 308.33 3.14649 3.03833 0
M  V30 3322 C 307.389 3.13351 4.22727 0
M  V30 3323 O 306.415 3.87107 4.17297 0
M  V30 3324 N 307.617 2.35052 5.30783 0
M  V30 3325 H 310.382 2.72178 1.25457 0
M  V30 3326 H 307.943 1.52528 0.542833 0
M  V30 3327 H 309.935 1.81435 3.61751 0
M  V30 3328 H 308.505 0.971114 2.97133 0
M  V30 3329 H 307.725 3.31256 2.13689 0
M  V30 3330 H 309.013 4.00411 3.13925 0
M  V30 3331 H 308.411 1.74663 5.38061 0
M  V30 3332 H 306.968 2.37453 6.07009 0
M  V30 3333 N 310.401 -0.613514 1.45168 0
M  V30 3334 C 311.333 -1.73825 1.4939 0
M  V30 3335 C 312.346 -1.58175 0.385304 0
M  V30 3336 O 313.535 -1.66165 0.652036 0
M  V30 3337 C 310.635 -3.11758 1.32891 0
M  V30 3338 C 309.808 -3.53704 2.57317 0
M  V30 3339 C 308.867 -4.70579 2.35462 0
M  V30 3340 O 307.893 -4.77996 3.09044 0
M  V30 3341 N 309.095 -5.63454 1.39644 0
M  V30 3342 H 311.86 -1.70669 2.46358 0
M  V30 3343 H 309.421 -0.79862 1.40832 0
M  V30 3344 H 311.413 -3.87692 1.1609 0
M  V30 3345 H 309.983 -3.09456 0.442218 0
M  V30 3346 H 309.203 -2.67794 2.89275 0
M  V30 3347 H 310.491 -3.78486 3.40038 0
M  V30 3348 H 309.889 -5.6017 0.789062 0
M  V30 3349 H 308.446 -6.38944 1.28816 0
M  V30 3350 N 311.879 -1.3236 -0.855495 0
M  V30 3351 C 312.811 -1.17052 -1.97057 0
M  V30 3352 C 313.824 -0.10574 -1.62456 0
M  V30 3353 O 315.013 -0.354619 -1.74942 0
M  V30 3354 C 312.113 -0.769305 -3.30053 0
M  V30 3355 C 311.286 -1.9222 -3.929 0
M  V30 3356 C 310.345 -1.50466 -5.04228 0
M  V30 3357 O 309.371 -2.21655 -5.24269 0
M  V30 3358 N 310.573 -0.400209 -5.79119 0
M  V30 3359 H 313.338 -2.13103 -2.1073 0
M  V30 3360 H 310.899 -1.24885 -1.0303 0
M  V30 3361 H 312.891 -0.472407 -4.01933 0
M  V30 3362 H 311.461 0.100025 -3.1244 0
M  V30 3363 H 310.681 -2.38563 -3.13817 0
M  V30 3364 H 311.969 -2.69403 -4.31624 0
M  V30 3365 H 311.367 0.192319 -5.65373 0
M  V30 3366 H 309.924 -0.162912 -6.51596 0
M  V30 3367 N 313.357 1.07166 -1.15556 0
M  V30 3368 C 314.287 2.16403 -0.877046 0
M  V30 3369 C 315.268 1.69217 0.173111 0
M  V30 3370 O 316.453 1.94181 0.027084 0
M  V30 3371 C 313.583 3.45349 -0.367632 0
M  V30 3372 C 312.537 4.05995 -1.35468 0
M  V30 3373 C 311.863 5.30045 -0.704038 0
M  V30 3374 C 313.163 4.45804 -2.72132 0
M  V30 3375 H 314.857 2.39959 -1.79053 0
M  V30 3376 H 312.403 1.15325 -0.862331 0
M  V30 3377 H 314.356 4.21095 -0.160317 0
M  V30 3378 H 313.08 3.21385 0.581326 0
M  V30 3379 H 311.739 3.32296 -1.54839 0
M  V30 3380 H 311.387 5.02373 0.251128 0
M  V30 3381 H 311.087 5.71579 -1.36277 0
M  V30 3382 H 312.611 6.08495 -0.50654 0
M  V30 3383 H 314.025 5.12671 -2.56595 0
M  V30 3384 H 312.422 4.98296 -3.34397 0
M  V30 3385 H 313.492 3.57083 -3.28054 0
M  V30 3386 N 314.835 0.952656 1.25548 0
M  V30 3387 C 316.112 0.523818 1.88456 0
M  V30 3388 C 316.492 -0.998871 1.85973 0
M  V30 3389 O 315.84 -1.86381 1.3219 0
M  V30 3390 C 316.05 1.0982 3.31271 0
M  V30 3391 C 317.398 1.17385 4.08051 0
M  V30 3392 O 318.422 1.04961 3.40384 0
M  V30 3393 O 317.281 1.36852 5.29088 0
M  V30 3394 H 314.375 0.172485 0.808813 0
M  V30 3395 H 316.921 1.04596 1.33633 0
M  V30 3396 H 315.693 2.1415 3.27499 0
M  V30 3397 H 315.316 0.559191 3.93648 0
M  V30 3398 N 316.313 -1.40141 0.720998 0
M  V30 3399 C 317.59 -1.94677 0.189757 0
M  V30 3400 C 317.97 -1.65879 -1.30566 0
M  V30 3401 O 317.318 -0.979391 -2.06447 0
M  V30 3402 C 317.528 -3.45279 0.508304 0
M  V30 3403 C 318.876 -4.22209 0.449934 0
M  V30 3404 O 319.9 -3.53413 0.444677 0
M  V30 3405 O 318.759 -5.44788 0.432189 0
M  V30 3406 H 315.853 -0.826459 0.0299026 0
M  V30 3407 H 318.399 -1.49719 0.7989 0
M  V30 3408 H 317.171 -3.59619 1.54239 0
M  V30 3409 H 316.794 -3.97386 -0.130525 0
M  V30 3410 N 317.792 -0.46758 -1.50504 0
M  V30 3411 C 318.722 0.318381 -2.31319 0
M  V30 3412 C 319.703 0.993564 -1.38066 0
M  V30 3413 O 320.888 0.991411 -1.66987 0
M  V30 3414 C 318.018 1.40275 -3.17711 0
M  V30 3415 C 316.972 0.849373 -4.19487 0
M  V30 3416 C 316.298 2.03177 -4.94594 0
M  V30 3417 C 317.598 -0.136942 -5.2212 0
M  V30 3418 H 319.292 -0.356106 -2.97275 0
M  V30 3419 H 316.838 -0.172703 -1.42961 0
M  V30 3420 H 318.791 1.96004 -3.73042 0
M  V30 3421 H 317.515 2.10596 -2.49634 0
M  V30 3422 H 316.174 0.314076 -3.65252 0
M  V30 3423 H 315.822 2.72187 -4.22993 0
M  V30 3424 H 315.522 1.66774 -5.63436 0
M  V30 3425 H 317.046 2.59403 -5.52759 0
M  V30 3426 H 318.46 0.331056 -5.72343 0
M  V30 3427 H 316.857 -0.41507 -5.98663 0
M  V30 3428 H 317.927 -1.06398 -4.73083 0
M  V30 3429 N 319.27 1.56325 -0.20005 0
M  V30 3430 C 320.5 2.01811 0.442232 0
M  V30 3431 C 320.908 1.07932 1.55394 0
M  V30 3432 O 320.251 0.0772685 1.83537 0
M  V30 3433 C 320.313 3.43685 1.05457 0
M  V30 3434 C 319.977 4.56928 0.0809833 0
M  V30 3435 C 320.974 5.15009 -0.711471 0
M  V30 3436 C 318.659 5.0229 -0.0315364 0
M  V30 3437 C 320.653 6.16904 -1.60336 0
M  V30 3438 C 318.34 6.04028 -0.926981 0
M  V30 3439 C 319.338 6.6121 -1.71146 0
M  V30 3440 O 319.026 7.60971 -2.59189 0
M  V30 3441 H 318.758 0.666173 0.114848 0
M  V30 3442 H 321.312 2.03085 -0.307511 0
M  V30 3443 H 319.542 3.39413 1.85299 0
M  V30 3444 H 321.231 3.72948 1.60201 0
M  V30 3445 H 321.997 4.80827 -0.634873 0
M  V30 3446 H 317.876 4.57476 0.568902 0
M  V30 3447 H 321.42 6.61464 -2.21611 0
M  V30 3448 H 317.317 6.37634 -1.00468 0
M  V30 3449 H 318.085 7.7841 -2.53023 0
M  V30 3450 N 320.748 -0.0735177 1.57428 0
M  V30 3451 C 321.678 -1.0879 2.06608 0
M  V30 3452 C 322.659 -1.40473 0.959237 0
M  V30 3453 O 323.844 -1.5013 1.23185 0
M  V30 3454 C 320.974 -2.40183 2.50857 0
M  V30 3455 C 319.928 -2.22858 3.65402 0
M  V30 3456 C 319.254 -3.59619 3.957 0
M  V30 3457 C 320.554 -1.65123 4.95511 0
M  V30 3458 H 322.248 -0.678673 2.91607 0
M  V30 3459 H 319.794 -0.325013 1.40284 0
M  V30 3460 H 321.747 -3.11437 2.83874 0
M  V30 3461 H 320.471 -2.83083 1.62885 0
M  V30 3462 H 319.13 -1.54045 3.32664 0
M  V30 3463 H 318.778 -4.00086 3.04861 0
M  V30 3464 H 318.478 -3.48866 4.72828 0
M  V30 3465 H 320.002 -4.32306 4.31212 0
M  V30 3466 H 321.416 -2.26241 5.26771 0
M  V30 3467 H 319.813 -1.65071 5.7695 0
M  V30 3468 H 320.883 -0.612559 4.81015 0
M  V30 3469 N 322.226 -1.5378 -0.344866 0
M  V30 3470 C 323.475 -1.7018 -1.08267 0
M  V30 3471 C 323.788 -0.471 -1.89845 0
M  V30 3472 O 324.994 -0.515917 -2.66553 0
M  V30 3473 C 323.45 -3.00923 -1.97417 0
M  V30 3474 C 323.058 -4.31335 -1.21053 0
M  V30 3475 C 324.802 -3.26688 -2.71063 0
M  V30 3476 C 322.709 -5.53153 -2.09225 0
M  V30 3477 H 321.639 -0.634138 -0.407903 0
M  V30 3478 H 324.29 -1.8028 -0.342246 0
M  V30 3479 H 322.672 -2.84676 -2.75274 0
M  V30 3480 H 323.846 -4.58281 -0.481159 0
M  V30 3481 H 322.161 -4.12173 -0.591813 0
M  V30 3482 H 324.758 -4.1489 -3.37299 0
M  V30 3483 H 325.101 -2.43639 -3.37558 0
M  V30 3484 H 325.634 -3.43705 -2.0028 0
M  V30 3485 H 322.373 -6.38741 -1.47274 0
M  V30 3486 H 321.893 -5.30458 -2.79955 0
M  V30 3487 H 323.572 -5.88744 -2.68308 0
M  V30 3488 N 323.704 0.605807 -1.45491 0
M  V30 3489 C 324.667 1.69836 -1.5391 0
M  V30 3490 C 325.667 1.55261 -0.418424 0
M  V30 3491 O 326.857 1.60296 -0.681965 0
M  V30 3492 C 323.989 3.09117 -1.43734 0
M  V30 3493 H 325.182 1.63738 -2.51257 0
M  V30 3494 H 322.735 0.821689 -1.32959 0
M  V30 3495 H 323.47 3.20791 -0.475788 0
M  V30 3496 H 323.255 3.21104 -2.25021 0
M  V30 3497 H 324.745 3.88696 -1.52661 0
M  V30 3498 N 325.182 1.32811 0.848464 0
M  V30 3499 C 326.431 1.23075 1.59798 0
M  V30 3500 C 326.744 -0.204419 1.94529 0
M  V30 3501 O 327.95 -0.423701 2.68173 0
M  V30 3502 C 326.406 2.15594 2.88179 0
M  V30 3503 C 326.014 3.64228 2.60849 0
M  V30 3504 C 327.758 2.14709 3.66197 0
M  V30 3505 C 325.665 4.48689 3.85269 0
M  V30 3506 H 324.595 0.457091 0.599653 0
M  V30 3507 H 327.246 1.57813 0.936342 0
M  V30 3508 H 325.628 1.73778 3.55833 0
M  V30 3509 H 326.802 4.14424 2.01467 0
M  V30 3510 H 325.117 3.67306 1.96151 0
M  V30 3511 H 327.714 2.75046 4.58534 0
M  V30 3512 H 328.057 1.13966 4.00397 0
M  V30 3513 H 328.59 2.54837 3.05455 0
M  V30 3514 H 325.329 5.5027 3.56207 0
M  V30 3515 H 324.849 4.03241 4.44024 0
M  V30 3516 H 326.528 4.62006 4.52946 0
M  V30 3517 N 326.66 -1.06551 1.16123 0
M  V30 3518 C 327.9 -1.80889 0.951766 0
M  V30 3519 C 328.264 -1.85062 -0.511465 0
M  V30 3520 O 329.465 -2.55353 -0.83954 0
M  V30 3521 C 327.736 -3.21609 1.55893 0
M  V30 3522 S 329.295 -4.12593 1.49373 0
M  V30 3523 H 326.113 -0.623156 0.342341 0
M  V30 3524 H 328.715 -1.27943 1.47821 0
M  V30 3525 H 327.419 -3.16165 2.61664 0
M  V30 3526 H 326.95 -3.79631 1.0317 0
M  V30 3527 H 328.965 -4.93753 0.492196 0
M  V30 3528 N 328.138 -0.959301 -1.25041 0
M  V30 3529 C 329.088 -0.453888 -2.23436 0
M  V30 3530 C 330.072 0.459461 -1.542 0
M  V30 3531 O 331.264 0.291752 -1.74579 0
M  V30 3532 C 328.393 0.262667 -3.42294 0
M  V30 3533 C 327.479 -0.669022 -4.1879 0
M  V30 3534 N 327.87 -1.80267 -4.72586 0
M  V30 3535 C 326.168 -0.47814 -4.4343 0
M  V30 3536 C 326.869 -2.38475 -5.3057 0
M  V30 3537 N 325.845 -1.67078 -5.17287 0
M  V30 3538 H 329.647 -1.319 -2.6264 0
M  V30 3539 H 327.161 -0.817358 -1.40332 0
M  V30 3540 H 329.158 0.641911 -4.11929 0
M  V30 3541 H 327.818 1.12432 -3.04613 0
M  V30 3542 H 328.829 -2.18442 -4.69578 0
M  V30 3543 H 325.506 0.340249 -4.16111 0
M  V30 3544 H 326.896 -3.34094 -5.8295 0
M  V30 3545 N 329.616 1.39756 -0.72842 0
M  V30 3546 C 331.032 1.5442 -0.403308 0
M  V30 3547 C 331.232 1.69694 1.08656 0
M  V30 3548 O 330.288 1.69373 1.87267 0
M  V30 3549 C 331.601 2.76555 -1.18058 0
M  V30 3550 C 333.149 2.90384 -1.16815 0
M  V30 3551 C 333.624 4.15449 -1.92785 0
M  V30 3552 N 335.115 4.22475 -1.89918 0
M  V30 3553 C 335.85 5.1818 -2.45514 0
M  V30 3554 N 335.346 6.19714 -3.09719 0
M  V30 3555 N 337.139 5.1035 -2.35584 0
M  V30 3556 H 329.29 1.28089 -1.69431 0
M  V30 3557 H 331.553 0.620327 -0.716867 0
M  V30 3558 H 331.259 2.7159 -2.23455 0
M  V30 3559 H 331.133 3.69033 -0.780662 0
M  V30 3560 H 333.52 2.94846 -0.12234 0
M  V30 3561 H 333.601 1.98988 -1.6074 0
M  V30 3562 H 333.245 4.11749 -2.97364 0
M  V30 3563 H 333.175 5.05877 -1.46272 0
M  V30 3564 H 335.666 3.49743 -1.43138 0
M  V30 3565 H 335.979 6.8919 -3.49625 0
M  V30 3566 H 334.324 6.20121 -3.13807 0
M  V30 3567 H 337.515 4.2996 -1.85072 0
M  V30 3568 H 337.688 5.84761 -2.79211 0
M  V30 3569 N 331.094 0.475555 1.50254 0
M  V30 3570 C 332.51 0.12997 1.5907 0
M  V30 3571 C 332.71 -1.36385 1.48328 0
M  V30 3572 O 331.766 -2.13754 1.34407 0
M  V30 3573 C 333.079 0.684139 2.92814 0
M  V30 3574 C 334.627 0.647965 3.0622 0
M  V30 3575 C 335.102 1.17975 4.42545 0
M  V30 3576 N 336.593 1.13936 4.48969 0
M  V30 3577 C 337.328 1.52129 5.52851 0
M  V30 3578 N 336.824 1.97793 6.63965 0
M  V30 3579 N 338.617 1.43704 5.4342 0
M  V30 3580 H 330.768 1.44706 1.55479 0
M  V30 3581 H 333.031 0.598691 0.735033 0
M  V30 3582 H 332.737 1.73079 3.06164 0
M  V30 3583 H 332.611 0.130204 3.76975 0
M  V30 3584 H 334.998 -0.38979 2.92514 0
M  V30 3585 H 335.079 1.23876 2.23805 0
M  V30 3586 H 334.723 2.21616 4.57 0
M  V30 3587 H 334.653 0.565138 5.23559 0
M  V30 3588 H 337.144 0.804488 3.69238 0
M  V30 3589 H 337.457 2.25072 7.39299 0
M  V30 3590 H 335.802 2.01749 6.65073 0
M  V30 3591 H 338.993 1.07867 4.55502 0
M  V30 3592 H 339.166 1.73794 6.24259 0
M  V30 3593 N 332.573 -1.56217 0.208337 0
M  V30 3594 C 333.821 -1.97558 -0.426076 0
M  V30 3595 C 334.142 -1.09683 -1.61229 0
M  V30 3596 O 333.412 -0.170956 -1.95153 0
M  V30 3597 H 331.992 -0.729575 -0.160405 0
M  V30 3598 H 334.654 -1.92606 0.298155 0
M  V30 3599 H 333.75 -3.02672 -0.761312 0
M  V30 3600 N 334.051 0.0651679 -1.57465 0
M  V30 3601 C 335.3 0.761916 -1.86756 0
M  V30 3602 C 335.613 1.78406 -0.801925 0
M  V30 3603 O 336.819 2.53084 -0.982885 0
M  V30 3604 C 335.275 1.40603 -3.31299 0
M  V30 3605 C 334.883 0.422115 -4.46007 0
M  V30 3606 C 336.627 2.08476 -3.69781 0
M  V30 3607 C 334.534 1.07252 -5.81593 0
M  V30 3608 H 333.464 0.288308 -0.696702 0
M  V30 3609 H 336.115 0.015344 -1.83494 0
M  V30 3610 H 334.497 2.20109 -3.29193 0
M  V30 3611 H 335.671 -0.343613 -4.59517 0
M  V30 3612 H 333.986 -0.152527 -4.16121 0
M  V30 3613 H 336.583 2.57925 -4.68379 0
M  V30 3614 H 336.926 2.88712 -2.99919 0
M  V30 3615 H 337.459 1.35792 -3.73905 0
M  V30 3616 H 334.198 0.310342 -6.54765 0
M  V30 3617 H 333.718 1.80895 -5.71872 0
M  V30 3618 H 335.397 1.59043 -6.27148 0
M  V30 3619 N 335.529 1.53961 0.336706 0
M  V30 3620 C 336.945 1.44378 0.680241 0
M  V30 3621 C 337.145 0.606034 1.9217 0
M  V30 3622 O 336.201 0.099688 2.52303 0
M  V30 3623 C 337.514 2.87945 0.8665 0
M  V30 3624 C 339.062 2.97763 0.964682 0
M  V30 3625 C 339.537 4.42453 1.18321 0
M  V30 3626 N 341.028 4.46008 1.25025 0
M  V30 3627 C 341.763 5.55102 1.43697 0
M  V30 3628 N 341.259 6.7419 1.59498 0
M  V30 3629 N 343.052 5.42727 1.463 0
M  V30 3630 H 335.203 2.06918 -0.479455 0
M  V30 3631 H 337.466 0.935634 -0.152619 0
M  V30 3632 H 337.172 3.51691 0.0256937 0
M  V30 3633 H 337.046 3.33293 1.76623 0
M  V30 3634 H 339.433 2.34153 1.796 0
M  V30 3635 H 339.514 2.55766 0.041708 0
M  V30 3636 H 339.158 5.06645 0.356788 0
M  V30 3637 H 339.088 4.82048 2.11985 0
M  V30 3638 H 341.579 3.60196 1.14312 0
M  V30 3639 H 341.892 7.53095 1.734 0
M  V30 3640 H 340.237 6.77123 1.56621 0
M  V30 3641 H 343.428 4.48647 1.33543 0
M  V30 3642 H 343.601 6.27806 1.6051 0
M  V30 3643 N 337.007 -0.598083 1.45811 0
M  V30 3644 C 338.232 -1.3881 1.54099 0
M  V30 3645 C 338.657 -1.8726 0.177578 0
M  V30 3646 O 338.015 -1.6069 -0.839541 0
M  V30 3647 C 338.063 -2.56217 2.53743 0
M  V30 3648 O 337.167 -3.5716 2.06182 0
M  V30 3649 H 336.508 -0.414024 0.519115 0
M  V30 3650 H 339.038 -0.726971 1.91249 0
M  V30 3651 H 339.048 -3.03337 2.72856 0
M  V30 3652 H 337.723 -2.20303 3.5276 0
M  V30 3653 H 336.3 -3.16624 1.96987 0
M  V30 3654 N 338.485 -1.33259 -0.841409 0
M  V30 3655 C 339.415 -1.25926 -1.96634 0
M  V30 3656 C 340.396 -0.140349 -1.6952 0
M  V30 3657 O 341.581 -0.329707 -1.91381 0
M  V30 3658 C 338.711 -0.99512 -3.32738 0
M  V30 3659 C 337.665 -2.0767 -3.74242 0
M  V30 3660 C 336.991 -1.66474 -5.08125 0
M  V30 3661 C 338.291 -3.49318 -3.88297 0
M  V30 3662 H 339.985 -2.20046 -2.03027 0
M  V30 3663 H 337.531 -1.05931 -0.975425 0
M  V30 3664 H 339.484 -0.930323 -4.11002 0
M  V30 3665 H 338.208 -0.0183004 -3.26595 0
M  V30 3666 H 336.867 -2.13187 -2.98239 0
M  V30 3667 H 336.515 -0.675012 -4.9845 0
M  V30 3668 H 336.215 -2.3885 -5.36865 0
M  V30 3669 H 337.739 -1.61455 -5.88867 0
M  V30 3670 H 339.153 -3.46316 -4.56879 0
M  V30 3671 H 337.55 -4.20158 -4.28471 0
M  V30 3672 H 338.62 -3.8801 -2.9082 0
M  V30 3673 N 339.963 1.05934 -1.16686 0
M  V30 3674 C 341.379 1.30938 -0.912542 0
M  V30 3675 C 341.579 1.96803 0.432533 0
M  V30 3676 O 340.635 2.23693 1.17123 0
M  V30 3677 C 341.948 2.18649 -2.06429 0
M  V30 3678 C 343.496 2.32055 -2.10047 0
M  V30 3679 C 343.971 3.23122 -3.24586 0
M  V30 3680 N 345.462 3.30706 -3.24327 0
M  V30 3681 C 346.197 4.01273 -4.09594 0
M  V30 3682 N 345.693 4.74332 -5.04956 0
M  V30 3683 N 347.486 3.97361 -3.97569 0
M  V30 3684 H 339.637 0.615777 -2.03278 0
M  V30 3685 H 341.9 0.334077 -0.887185 0
M  V30 3686 H 341.606 1.77534 -3.03603 0
M  V30 3687 H 341.48 3.19252 -2.00894 0
M  V30 3688 H 343.867 2.72415 -1.13464 0
M  V30 3689 H 343.948 1.31107 -2.19647 0
M  V30 3690 H 343.592 2.83477 -4.2143 0
M  V30 3691 H 343.522 4.24057 -3.12223 0
M  V30 3692 H 346.013 2.78644 -2.55276 0
M  V30 3693 H 346.326 5.25716 -5.6643 0
M  V30 3694 H 344.671 4.733 -5.08933 0
M  V30 3695 H 347.862 3.39405 -3.22369 0
M  V30 3696 H 348.035 4.52089 -4.64241 0
M  V30 3697 N 341.441 0.965919 1.2453 0
M  V30 3698 C 342.718 0.543777 1.87889 0
M  V30 3699 C 343.098 -0.97909 1.87021 0
M  V30 3700 O 342.446 -1.84969 1.3416 0
M  V30 3701 C 342.656 1.13327 3.30088 0
M  V30 3702 C 344.004 1.21707 4.06783 0
M  V30 3703 O 345.028 1.08566 3.39252 0
M  V30 3704 O 343.887 1.42456 5.27606 0
M  V30 3705 H 340.981 0.181054 0.806938 0
M  V30 3706 H 343.527 1.06007 1.32516 0
M  V30 3707 H 342.299 2.17612 3.25209 0
M  V30 3708 H 341.922 0.600911 3.93033 0
M  V30 3709 N 342.919 -1.39368 0.735821 0
M  V30 3710 C 343.849 -2.33234 0.111506 0
M  V30 3711 C 344.83 -1.53954 -0.723334 0
M  V30 3712 O 346.015 -1.82344 -0.668147 0
M  V30 3713 C 343.145 -3.38057 -0.795917 0
M  V30 3714 C 342.099 -4.2795 -0.065172 0
M  V30 3715 C 341.425 -5.23479 -1.08967 0
M  V30 3716 C 342.725 -5.10741 1.09273 0
M  V30 3717 H 344.419 -2.85692 0.895571 0
M  V30 3718 H 341.965 -1.37364 0.432109 0
M  V30 3719 H 343.918 -4.02675 -1.24221 0
M  V30 3720 H 342.642 -2.8404 -1.61211 0
M  V30 3721 H 341.301 -3.64813 0.361511 0
M  V30 3722 H 340.949 -4.65758 -1.89944 0
M  V30 3723 H 340.649 -5.84472 -0.605489 0
M  V30 3724 H 342.173 -5.90974 -1.53565 0
M  V30 3725 H 343.587 -5.68699 0.724841 0
M  V30 3726 H 341.984 -5.8088 1.50659 0
M  V30 3727 H 343.054 -4.45525 1.91404 0
M  V30 3728 N 344.397 -0.483516 -1.5 0
M  V30 3729 C 345.625 0.0644831 -2.06799 0
M  V30 3730 C 346.04 1.32399 -1.34596 0
M  V30 3731 O 345.397 1.77626 -0.418946 0
M  V30 3732 C 345.448 0.339927 -3.59898 0
M  V30 3733 O 345.169 -0.869635 -4.29382 0
M  V30 3734 C 346.67 0.933515 -4.33359 0
M  V30 3735 H 343.89 -0.0126333 -0.670881 0
M  V30 3736 H 346.434 -0.675864 -1.93009 0
M  V30 3737 H 344.589 1.03022 -3.7345 0
M  V30 3738 H 345.003 -0.62179 -5.20801 0
M  V30 3739 H 346.477 1.07593 -5.41413 0
M  V30 3740 H 346.954 1.92685 -3.94676 0
M  V30 3741 H 347.56 0.281221 -4.24369 0
M  V30 3742 N 345.875 1.56104 -0.216619 0
M  V30 3743 C 347.286 1.844 0.292128 0
M  V30 3744 C 347.637 1.13788 1.59833 0
M  V30 3745 O 346.762 0.405888 2.12559 0
M  V30 3746 C 347.357 3.3452 0.53681 0
M  V30 3747 C 345.916 3.63151 0.989876 0
M  V30 3748 C 345.063 2.77255 0.0502302 0
M  V30 3749 H 348.014 1.52481 -0.439926 0
M  V30 3750 H 348.035 3.54459 1.38345 0
M  V30 3751 H 347.547 3.85885 -0.414031 0
M  V30 3752 H 345.648 3.17238 1.95425 0
M  V30 3753 H 345.761 4.71177 0.867698 0
M  V30 3754 H 344.125 2.48555 0.556117 0
M  V30 3755 H 344.908 3.31416 -0.89544 0
M  V30 3756 N 347.353 -0.0568162 1.57498 0
M  V30 3757 C 348.263 -1.08346 2.08083 0
M  V30 3758 C 349.279 -1.41439 1.01346 0
M  V30 3759 O 350.455 -1.51316 1.32912 0
M  V30 3760 C 347.52 -2.37352 2.52715 0
M  V30 3761 C 346.581 -2.11093 3.73816 0
M  V30 3762 C 345.814 -3.33949 4.1631 0
M  V30 3763 O 346.037 -4.43622 3.58547 0
M  V30 3764 O 344.971 -3.21279 5.08983 0
M  V30 3765 H 348.797 -0.683667 2.95905 0
M  V30 3766 H 346.382 -0.271965 1.46904 0
M  V30 3767 H 348.264 -3.13246 2.81877 0
M  V30 3768 H 346.939 -2.76681 1.68016 0
M  V30 3769 H 345.846 -1.32856 3.49714 0
M  V30 3770 H 347.179 -1.76637 4.59413 0
M  V30 3771 N 348.832 -1.54138 -0.328536 0
M  V30 3772 C 349.782 -1.79557 -1.4051 0
M  V30 3773 C 350.766 -0.651373 -1.47126 0
M  V30 3774 O 351.958 -0.911226 -1.51742 0
M  V30 3775 C 349.087 -2.02196 -2.77438 0
M  V30 3776 C 348.173 -3.22724 -2.75155 0
M  V30 3777 N 348.564 -4.43881 -2.42494 0
M  V30 3778 C 346.862 -3.24196 -3.06289 0
M  V30 3779 C 347.563 -5.25797 -2.48822 0
M  V30 3780 N 346.539 -4.62862 -2.8506 0
M  V30 3781 H 350.341 -2.70814 -1.1418 0
M  V30 3782 H 347.855 -1.53265 -0.536991 0
M  V30 3783 H 349.852 -2.18546 -3.55026 0
M  V30 3784 H 348.512 -1.12191 -3.04702 0
M  V30 3785 H 349.523 -4.70969 -2.15428 0
M  V30 3786 H 346.2 -2.44208 -3.38627 0
M  V30 3787 H 347.59 -6.32535 -2.26603 0
M  V30 3788 N 350.31 0.590341 -1.46126 0
M  V30 3789 C 351.24 1.71032 -1.58966 0
M  V30 3790 C 352.221 1.64302 -0.440335 0
M  V30 3791 O 353.406 1.82436 -0.665634 0
M  V30 3792 C 350.536 3.09665 -1.57241 0
M  V30 3793 C 349.49 3.31221 -2.71066 0
M  V30 3794 C 348.816 4.70303 -2.54399 0
M  V30 3795 C 350.116 3.19796 -4.1295 0
M  V30 3796 H 351.81 1.60543 -2.52718 0
M  V30 3797 H 349.356 0.770933 -1.21625 0
M  V30 3798 H 351.309 3.87831 -1.64819 0
M  V30 3799 H 350.033 3.21036 -0.600289 0
M  V30 3800 H 348.692 2.55452 -2.62944 0
M  V30 3801 H 348.34 4.78429 -1.55288 0
M  V30 3802 H 348.04 4.85679 -3.30741 0
M  V30 3803 H 349.564 5.50647 -2.63857 0
M  V30 3804 H 350.978 3.87815 -4.22223 0
M  V30 3805 H 349.375 3.46696 -4.89818 0
M  V30 3806 H 350.445 2.16983 -4.33643 0
M  V30 3807 N 351.788 1.33704 0.83433 0
M  V30 3808 C 353.199 1.22813 1.4062 0
M  V30 3809 C 353.55 -0.151107 1.95617 0
M  V30 3810 O 352.675 -1.05092 1.89168 0
M  V30 3811 C 353.27 2.22355 2.55624 0
M  V30 3812 C 351.829 2.1529 3.08751 0
M  V30 3813 C 350.976 2.09589 1.8157 0
M  V30 3814 H 353.927 1.45236 0.639702 0
M  V30 3815 H 353.948 1.83391 3.33389 0
M  V30 3816 H 353.46 3.22728 2.15566 0
M  V30 3817 H 351.561 1.18235 3.53343 0
M  V30 3818 H 351.674 3.06038 3.68616 0
M  V30 3819 H 350.038 1.55134 2.02004 0
M  V30 3820 H 350.821 3.11777 1.43701 0
M  V30 3821 N 353.266 -1.05314 1.17247 0
M  V30 3822 C 354.196 -2.1498 0.911362 0
M  V30 3823 C 355.177 -1.69471 -0.146169 0
M  V30 3824 O 356.362 -1.942 0.003812 0
M  V30 3825 C 353.492 -3.4472 0.422528 0
M  V30 3826 C 352.446 -4.03789 1.4191 0
M  V30 3827 C 351.772 -5.28858 0.788274 0
M  V30 3828 C 353.072 -4.41418 2.7919 0
M  V30 3829 H 354.766 -2.3708 1.82848 0
M  V30 3830 H 352.312 -1.13938 0.880569 0
M  V30 3831 H 354.265 -4.20787 0.227289 0
M  V30 3832 H 352.989 -3.22269 -0.530123 0
M  V30 3833 H 351.648 -3.2979 1.60106 0
M  V30 3834 H 351.296 -5.02709 -0.171173 0
M  V30 3835 H 350.996 -5.69338 1.45353 0
M  V30 3836 H 352.52 -6.07612 0.603282 0
M  V30 3837 H 353.934 -5.08524 2.64719 0
M  V30 3838 H 352.331 -4.92913 3.42282 0
M  V30 3839 H 353.401 -3.51819 3.33693 0
M  V30 3840 N 354.744 -0.972509 -1.24016 0
M  V30 3841 C 355.674 -0.525548 -2.27509 0
M  V30 3842 C 356.655 0.437262 -1.64384 0
M  V30 3843 O 357.84 0.332343 -1.91335 0
M  V30 3844 C 354.97 0.180448 -3.46831 0
M  V30 3845 C 353.924 -0.698859 -4.22256 0
M  V30 3846 C 353.25 0.138903 -5.3452 0
M  V30 3847 C 354.55 -1.98582 -4.83076 0
M  V30 3848 H 356.244 -1.39058 -2.65148 0
M  V30 3849 H 353.79 -0.67009 -1.27459 0
M  V30 3850 H 355.743 0.504387 -4.18371 0
M  V30 3851 H 354.467 1.07987 -3.08231 0
M  V30 3852 H 353.126 -1.00614 -3.52523 0
M  V30 3853 H 352.774 1.03862 -4.9216 0
M  V30 3854 H 352.474 -0.446259 -5.85903 0
M  V30 3855 H 353.998 0.457404 -6.08884 0
M  V30 3856 H 355.412 -1.72715 -5.46665 0
M  V30 3857 H 353.809 -2.5181 -5.44713 0
M  V30 3858 H 354.879 -2.67769 -4.04262 0
M  V30 3859 N 356.222 1.38976 -0.743202 0
M  V30 3860 C 357.638 1.53984 -0.419664 0
M  V30 3861 C 357.838 1.70837 1.0685 0
M  V30 3862 O 356.894 1.7135 1.8546 0
M  V30 3863 C 358.207 2.75287 -1.20985 0
M  V30 3864 C 359.755 2.89129 -1.19889 0
M  V30 3865 C 360.23 4.13381 -1.97181 0
M  V30 3866 N 361.721 4.20437 -1.94389 0
M  V30 3867 C 362.456 5.15547 -2.50996 0
M  V30 3868 N 361.952 6.16395 -3.16274 0
M  V30 3869 N 363.745 5.07822 -2.40984 0
M  V30 3870 H 355.896 1.26285 -1.7078 0
M  V30 3871 H 358.159 0.612689 -0.723406 0
M  V30 3872 H 357.865 2.69204 -2.26323 0
M  V30 3873 H 357.739 3.68184 -0.819759 0
M  V30 3874 H 360.126 2.947 -0.153606 0
M  V30 3875 H 360.207 1.97272 -1.62841 0
M  V30 3876 H 359.851 4.08572 -3.01714 0
M  V30 3877 H 359.781 5.04298 -1.51629 0
M  V30 3878 H 362.272 3.48205 -1.46839 0
M  V30 3879 H 362.585 6.85443 -3.56915 0
M  V30 3880 H 360.93 6.16758 -3.20367 0
M  V30 3881 H 364.121 4.27973 -1.89622 0
M  V30 3882 H 364.294 5.81767 -2.85397 0
M  V30 3883 N 357.7 0.491464 1.49741 0
M  V30 3884 C 358.648 -0.305837 2.30581 0
M  V30 3885 C 359.642 -0.971642 1.38764 0
M  V30 3886 O 360.848 -0.90042 1.5586 0
M  V30 3887 H 357.223 -0.117482 0.742767 0
M  V30 3888 H 359.194 0.396093 2.95759 0
M  V30 3889 C 357.943 -1.36319 3.19863 0
M  V30 3890 H 357.266 -0.860258 3.90435 0
M  V30 3891 H 358.706 -1.89323 3.79385 0
M  V30 3892 C 357.165 -2.37621 2.38826 0
M  V30 3893 O 357.695 -3.43311 2.08567 0
M  V30 3894 N 355.901 -2.09849 2.01026 0
M  V30 3895 H 355.448 -1.23922 2.25834 0
M  V30 3896 H 355.406 -2.77859 1.47112 0
M  V30 3897 N 359.178 -1.55987 0.224894 0
M  V30 3898 C 360.427 -1.97566 -0.406273 0
M  V30 3899 C 360.74 -1.11569 -1.6066 0
M  V30 3900 O 361.946 -1.43062 -2.3075 0
M  V30 3901 C 360.402 -3.51474 -0.774207 0
M  V30 3902 C 360.01 -4.46179 0.403496 0
M  V30 3903 C 361.754 -4.01758 -1.37079 0
M  V30 3904 C 359.661 -5.91399 0.0129412 0
M  V30 3905 H 358.591 -0.737777 -0.155565 0
M  V30 3906 H 361.242 -1.80659 0.321635 0
M  V30 3907 H 359.624 -3.63994 -1.55963 0
M  V30 3908 H 360.798 -4.45409 1.18101 0
M  V30 3909 H 359.113 -4.06255 0.913536 0
M  V30 3910 H 361.71 -5.07756 -1.67596 0
M  V30 3911 H 362.053 -3.47805 -2.28773 0
M  V30 3912 H 362.586 -3.92475 -0.648733 0
M  V30 3913 H 359.325 -6.49341 0.896451 0
M  V30 3914 H 358.845 -5.95356 -0.728821 0
M  V30 3915 H 360.524 -6.45683 -0.412582 0
M  V30 3916 N 360.656 0.0484629 -1.57525 0
M  V30 3917 C 361.586 1.0549 -2.08313 0
M  V30 3918 C 362.567 1.38929 -0.981463 0
M  V30 3919 O 363.752 1.48151 -1.25558 0
M  V30 3920 C 360.882 2.36162 -2.54646 0
M  V30 3921 C 359.836 2.17016 -3.68901 0
M  V30 3922 C 359.162 3.53278 -4.01371 0
M  V30 3923 C 360.462 1.57219 -4.98076 0
M  V30 3924 H 362.156 0.632195 -2.92649 0
M  V30 3925 H 359.702 0.302654 -1.40784 0
M  V30 3926 H 361.655 3.06882 -2.88793 0
M  V30 3927 H 360.379 2.80456 -1.67368 0
M  V30 3928 H 359.038 1.48733 -3.35073 0
M  V30 3929 H 358.686 3.95185 -3.11188 0
M  V30 3930 H 358.386 3.41299 -4.78318 0
M  V30 3931 H 359.91 4.25391 -4.38035 0
M  V30 3932 H 361.324 2.17832 -5.30304 0
M  V30 3933 H 359.721 1.55871 -5.79503 0
M  V30 3934 H 360.791 0.535956 -4.81929 0
M  V30 3935 N 362.134 1.5431 0.320358 0
M  V30 3936 C 363.084 1.803 1.39556 0
M  V30 3937 C 364.068 0.659166 1.46778 0
M  V30 3938 O 365.26 0.91926 1.51257 0
M  V30 3939 C 362.389 2.03665 2.76361 0
M  V30 3940 C 361.475 3.24178 2.73439 0
M  V30 3941 N 361.866 4.4516 2.40137 0
M  V30 3942 C 360.164 3.25816 3.04565 0
M  V30 3943 C 360.865 5.27109 2.4603 0
M  V30 3944 N 359.841 4.64368 2.82601 0
M  V30 3945 H 363.643 2.71416 1.12742 0
M  V30 3946 H 361.157 1.53548 0.528856 0
M  V30 3947 H 363.154 2.20425 3.53862 0
M  V30 3948 H 361.814 1.13805 3.04103 0
M  V30 3949 H 362.825 4.72104 2.12927 0
M  V30 3950 H 359.502 2.46001 3.37328 0
M  V30 3951 H 360.892 6.33728 2.23246 0
M  V30 3952 N 363.613 -0.582584 1.46437 0
M  V30 3953 C 364.545 -1.70618 1.53043 0
M  V30 3954 C 365.558 -1.57322 0.418769 0
M  V30 3955 O 366.747 -1.64744 0.687136 0
M  V30 3956 C 363.847 -3.08869 1.39474 0
M  V30 3957 C 363.02 -3.48166 2.64762 0
M  V30 3958 C 362.079 -4.65478 2.4539 0
M  V30 3959 O 361.105 -4.71333 3.19114 0
M  V30 3960 N 362.307 -5.60365 1.51564 0
M  V30 3961 H 365.072 -1.65405 2.49923 0
M  V30 3962 H 362.633 -0.768567 1.42494 0
M  V30 3963 H 364.625 -3.85143 1.24287 0
M  V30 3964 H 363.195 -3.08449 0.507758 0
M  V30 3965 H 362.415 -2.61598 2.9489 0
M  V30 3966 H 363.703 -3.71188 3.4799 0
M  V30 3967 H 363.101 -5.5837 0.907705 0
M  V30 3968 H 361.658 -6.36068 1.4234 0
M  V30 3969 N 365.091 -1.34144 -0.827227 0
M  V30 3970 C 366.339 -1.26009 -1.58007 0
M  V30 3971 C 366.66 0.170971 -1.94249 0
M  V30 3972 O 365.93 1.10256 -1.61927 0
M  V30 3973 H 364.51 -0.463414 -0.585881 0
M  V30 3974 H 367.172 -1.68005 -0.987951 0
M  V30 3975 H 366.268 -1.86187 -2.50481 0
M  V30 3976 N 366.569 1.04691 -1.17803 0
M  V30 3977 C 367.501 2.12571 -0.857097 0
M  V30 3978 C 368.514 1.62174 0.142647 0
M  V30 3979 O 369.703 1.78301 -0.0843387 0
M  V30 3980 C 366.803 3.37915 -0.258216 0
M  V30 3981 C 365.976 4.1757 -1.30207 0
M  V30 3982 C 365.035 5.2125 -0.720029 0
M  V30 3983 O 364.061 5.51888 -1.39314 0
M  V30 3984 N 365.263 5.78466 0.485507 0
M  V30 3985 H 368.028 2.40698 -1.78562 0
M  V30 3986 H 365.589 1.20831 -1.07757 0
M  V30 3987 H 367.581 4.04442 0.144584 0
M  V30 3988 H 366.151 3.07281 0.574199 0
M  V30 3989 H 365.371 3.46458 -1.88043 0
M  V30 3990 H 366.659 4.67586 -2.00601 0
M  V30 3991 H 366.057 5.55866 1.05022 0
M  V30 3992 H 364.614 6.4649 0.830307 0
M  V30 3993 N 368.047 0.979072 1.23499 0
M  V30 3994 C 368.957 0.526431 2.28617 0
M  V30 3995 C 369.973 -0.418126 1.68901 0
M  V30 3996 O 371.149 -0.288372 1.99325 0
M  V30 3997 C 368.214 -0.165235 3.46306 0
M  V30 3998 C 367.275 0.82056 4.21385 0
M  V30 3999 C 366.508 0.161807 5.33455 0
M  V30 4000 O 366.731 -1.04742 5.60701 0
M  V30 4001 O 365.665 0.859708 5.95729 0
M  V30 4002 H 369.491 1.4006 2.69475 0
M  V30 4003 H 367.076 0.746643 1.29405 0
M  V30 4004 H 368.958 -0.553287 4.17752 0
M  V30 4005 H 367.633 -1.01419 3.07402 0
M  V30 4006 H 366.54 1.25929 3.52268 0
M  V30 4007 H 367.873 1.63828 4.64135 0
M  V30 4008 N 369.525 -1.3858 0.750561 0
M  V30 4009 C 370.488 -2.28836 0.129152 0
M  V30 4010 C 371.488 -1.47045 -0.650714 0
M  V30 4011 O 372.678 -1.6753 -0.477428 0
M  V30 4012 C 369.81 -3.30751 -0.825622 0
M  V30 4013 H 371.003 -2.85294 0.924516 0
M  V30 4014 H 368.556 -1.47489 0.517376 0
M  V30 4015 H 369.291 -2.79378 -1.64677 0
M  V30 4016 H 369.076 -3.91177 -0.268852 0
M  V30 4017 H 370.566 -3.98249 -1.2565 0
M  V30 4018 N 371.003 -0.499398 -1.49478 0
M  V30 4019 C 372.252 0.0475259 -2.01644 0
M  V30 4020 C 372.565 1.38195 -1.38425 0
M  V30 4021 O 373.771 2.01547 -1.8191 0
M  V30 4022 C 372.227 0.135164 -3.59646 0
M  V30 4023 C 371.835 -1.19252 -4.31837 0
M  V30 4024 C 373.579 0.632538 -4.19761 0
M  V30 4025 C 371.486 -1.06713 -5.81693 0
M  V30 4026 H 370.416 0.0215349 -0.753692 0
M  V30 4027 H 373.067 -0.638577 -1.7203 0
M  V30 4028 H 371.449 0.885681 -3.85969 0
M  V30 4029 H 372.623 -1.9562 -4.17216 0
M  V30 4030 H 370.938 -1.62321 -3.83459 0
M  V30 4031 H 373.535 0.743833 -5.29501 0
M  V30 4032 H 373.878 1.63098 -3.83021 0
M  V30 4033 H 374.411 -0.0613987 -3.97753 0
M  V30 4034 H 371.15 -2.03979 -6.22955 0
M  V30 4035 H 370.67 -0.344307 -5.98811 0
M  V30 4036 H 372.349 -0.745208 -6.42694 0
M  V30 4037 N 372.481 1.55866 -0.233164 0
M  V30 4038 C 373.411 2.23783 0.666599 0
M  V30 4039 C 374.392 1.21343 1.19205 0
M  V30 4040 O 375.577 1.4996 1.23392 0
M  V30 4041 C 372.707 2.92671 1.86978 0
M  V30 4042 C 371.661 4.01682 1.47768 0
M  V30 4043 C 370.987 4.57926 2.76058 0
M  V30 4044 C 372.287 5.18126 0.658993 0
M  V30 4045 H 373.981 2.99232 0.100306 0
M  V30 4046 H 371.527 1.43924 0.046804 0
M  V30 4047 H 373.48 3.3888 2.50476 0
M  V30 4048 H 372.204 2.14688 2.46123 0
M  V30 4049 H 370.863 3.56222 0.866106 0
M  V30 4050 H 370.511 3.76659 3.33372 0
M  V30 4051 H 370.211 5.31505 2.50552 0
M  V30 4052 H 371.735 5.06859 3.40479 0
M  V30 4053 H 373.149 5.60644 1.19795 0
M  V30 4054 H 371.546 5.98009 0.500552 0
M  V30 4055 H 372.616 4.83763 -0.331856 0
M  V30 4056 N 373.959 -0.0401083 1.57549 0
M  V30 4057 C 374.891 -1.07149 2.02612 0
M  V30 4058 C 375.904 -1.33126 0.937085 0
M  V30 4059 O 377.093 -1.30808 1.21456 0
M  V30 4060 C 374.193 -2.41561 2.37701 0
M  V30 4061 C 373.366 -2.35096 3.68848 0
M  V30 4062 C 372.425 -3.51867 3.91249 0
M  V30 4063 O 371.451 -3.3186 4.62447 0
M  V30 4064 N 372.653 -4.73351 3.36035 0
M  V30 4065 H 375.418 -0.687485 2.91708 0
M  V30 4066 H 372.979 -0.228248 1.60283 0
M  V30 4067 H 374.971 -3.18379 2.49833 0
M  V30 4068 H 373.541 -2.71846 1.54332 0
M  V30 4069 H 372.761 -1.4345 3.67173 0
M  V30 4070 H 374.049 -2.27908 4.54901 0
M  V30 4071 H 373.447 -4.92507 2.78304 0
M  V30 4072 H 372.004 -5.47572 3.53565 0
M  V30 4073 N 375.437 -1.54477 -0.31217 0
M  V30 4074 C 376.853 -1.45442 -0.657185 0
M  V30 4075 C 377.053 -0.63653 -1.91182 0
M  V30 4076 O 376.109 -0.139815 -2.52113 0
M  V30 4077 C 377.422 -2.89287 -0.82058 0
M  V30 4078 C 378.97 -2.9926 -0.917188 0
M  V30 4079 C 379.445 -4.44279 -1.11267 0
M  V30 4080 N 380.936 -4.4794 -1.17914 0
M  V30 4081 C 381.671 -5.57318 -1.34848 0
M  V30 4082 N 381.167 -6.76642 -1.48752 0
M  V30 4083 N 382.96 -5.44986 -1.37647 0
M  V30 4084 H 375.111 -2.06129 0.512313 0
M  V30 4085 H 377.374 -0.933088 0.167485 0
M  V30 4086 H 377.08 -3.51687 0.0302604 0
M  V30 4087 H 376.954 -3.36061 -1.71298 0
M  V30 4088 H 379.341 -2.36981 -1.75852 0
M  V30 4089 H 379.422 -2.558 -0.00101257 0
M  V30 4090 H 379.066 -5.07149 -0.27614 0
M  V30 4091 H 378.996 -4.85359 -2.04289 0
M  V30 4092 H 381.487 -3.61969 -1.08567 0
M  V30 4093 H 381.8 -7.55758 -1.61397 0
M  V30 4094 H 380.145 -6.79529 -1.45828 0
M  V30 4095 H 383.336 -4.50715 -1.26388 0
M  V30 4096 H 383.509 -6.3028 -1.50501 0
M  V30 4097 N 376.915 0.57481 -1.46744 0
M  V30 4098 C 378.145 1.35659 -1.55821 0
M  V30 4099 C 378.553 1.88129 -0.201036 0
M  V30 4100 O 377.896 1.64723 0.813134 0
M  V30 4101 C 377.958 2.57473 -2.50894 0
M  V30 4102 C 377.622 2.26415 -3.9697 0
M  V30 4103 C 378.619 1.84771 -4.85958 0
M  V30 4104 C 376.304 2.38316 -4.42166 0
M  V30 4105 C 378.298 1.55434 -6.18158 0
M  V30 4106 C 375.985 2.08591 -5.74398 0
M  V30 4107 C 376.983 1.67216 -6.62214 0
M  V30 4108 O 376.671 1.37859 -7.91991 0
M  V30 4109 H 376.403 0.420496 -0.529301 0
M  V30 4110 H 378.957 0.704967 -1.92923 0
M  V30 4111 H 377.187 3.25468 -2.08824 0
M  V30 4112 H 378.876 3.19546 -2.50291 0
M  V30 4113 H 379.642 1.75085 -4.52295 0
M  V30 4114 H 375.521 2.69483 -3.74032 0
M  V30 4115 H 379.065 1.23065 -6.86659 0
M  V30 4116 H 374.962 2.17905 -6.07608 0
M  V30 4117 H 375.73 1.51638 -8.04331 0
M  V30 4118 N 378.394 1.34581 0.820102 0
M  V30 4119 C 379.81 1.14325 1.11364 0
M  V30 4120 C 380.01 -0.0533648 2.01429 0
M  V30 4121 O 379.066 -0.728044 2.41776 0
M  V30 4122 C 380.379 2.43983 1.75764 0
M  V30 4123 C 381.927 2.50065 1.88246 0
M  V30 4124 C 382.402 3.79732 2.56061 0
M  V30 4125 N 383.893 3.80908 2.63558 0
M  V30 4126 C 384.628 4.77961 3.16766 0
M  V30 4127 N 384.124 5.85397 3.70517 0
M  V30 4128 N 385.917 4.65413 3.15194 0
M  V30 4129 H 378.068 2.11246 0.221096 0
M  V30 4130 H 380.331 0.934289 0.160649 0
M  V30 4131 H 380.037 3.31651 1.1705 0
M  V30 4132 H 379.911 2.57531 2.75604 0
M  V30 4133 H 382.298 1.62834 2.46108 0
M  V30 4134 H 382.379 2.40442 0.873006 0
M  V30 4135 H 382.023 4.67354 1.98853 0
M  V30 4136 H 381.953 3.86639 3.57516 0
M  V30 4137 H 384.444 3.03274 2.25463 0
M  V30 4138 H 384.757 6.55463 4.09376 0
M  V30 4139 H 383.102 5.89107 3.68752 0
M  V30 4140 H 386.293 3.80627 2.72471 0
M  V30 4141 H 386.466 5.41216 3.56356 0
M  V30 4142 N 379.872 -1.04064 1.18357 0
M  V30 4143 C 380.805 -2.11618 0.854 0
M  V30 4144 C 381.783 -1.61555 -0.184043 0
M  V30 4145 O 382.967 -1.88395 -0.0630048 0
M  V30 4146 C 380.094 -3.37574 0.27597 0
M  V30 4147 C 379.14 -4.06485 1.2912 0
M  V30 4148 S 379.973 -4.53543 2.84709 0
M  V30 4149 C 381.129 -5.82732 2.28417 0
M  V30 4150 H 381.362 -2.39247 1.76488 0
M  V30 4151 H 378.895 -1.16832 1.00944 0
M  V30 4152 H 380.853 -4.10468 -0.051026 0
M  V30 4153 H 379.514 -3.0806 -0.613028 0
M  V30 4154 H 378.707 -4.97024 0.835633 0
M  V30 4155 H 378.309 -3.39708 1.56443 0
M  V30 4156 H 380.601 -6.56677 1.66677 0
M  V30 4157 H 381.544 -6.33052 3.17256 0
M  V30 4158 H 381.952 -5.37838 1.71436 0
M  V30 4159 N 381.35 -0.985608 -1.22978 0
M  V30 4160 C 382.297 -0.529825 -2.24636 0
M  V30 4161 C 383.267 0.434028 -1.60329 0
M  V30 4162 O 384.452 0.340414 -1.87739 0
M  V30 4163 C 381.592 0.156533 -3.44745 0
M  V30 4164 C 380.705 -0.848197 -4.23591 0
M  V30 4165 C 379.84 -0.136109 -5.31026 0
M  V30 4166 C 378.879 -1.1297 -6.01585 0
M  V30 4167 N 378.016 -0.446415 -7.00679 0
M  V30 4168 H 382.856 -1.40148 -2.62988 0
M  V30 4169 H 380.393 -0.702168 -1.29259 0
M  V30 4170 H 382.351 0.571324 -4.1327 0
M  V30 4171 H 380.981 0.992025 -3.07179 0
M  V30 4172 H 380.033 -1.38135 -3.54433 0
M  V30 4173 H 381.345 -1.60512 -4.72268 0
M  V30 4174 H 380.499 0.335784 -6.0577 0
M  V30 4175 H 379.238 0.653373 -4.83304 0
M  V30 4176 H 378.243 -1.6123 -5.25628 0
M  V30 4177 H 379.468 -1.91993 -6.51395 0
M  V30 4178 H 377.414 0.323763 -6.55201 0
M  V30 4179 H 377.331 -1.1419 -7.47326 0
M  V30 4180 H 378.599 0.00291697 -7.795 0
M  V30 4181 N 382.828 1.3818 -0.7579 0
M  V30 4182 C 384.076 1.99624 -0.315361 0
M  V30 4183 C 384.397 1.60464 1.10799 0
M  V30 4184 O 383.667 0.863507 1.75842 0
M  V30 4185 H 382.247 0.73831 -0.113611 0
M  V30 4186 H 384.909 1.68878 -0.972952 0
M  V30 4187 H 384.005 3.09754 -0.381931 0
M  V30 4188 N 384.306 0.507319 1.49211 0
M  V30 4189 C 385.583 -0.0982702 1.95353 0
M  V30 4190 C 385.963 -1.53516 1.449 0
M  V30 4191 O 385.311 -2.18594 0.66551 0
M  V30 4192 C 385.521 -0.00440283 3.49 0
M  V30 4193 C 386.869 -0.175147 4.24239 0
M  V30 4194 O 387.893 -0.0792891 3.56112 0
M  V30 4195 O 386.752 -0.37276 5.45227 0
M  V30 4196 H 383.846 -0.0918236 0.821887 0
M  V30 4197 H 386.392 0.570307 1.5983 0
M  V30 4198 H 385.164 0.997402 3.78375 0
M  V30 4199 H 384.787 -0.712845 3.91158 0
M  V30 4200 N 385.784 -1.5574 0.241426 0
M  V30 4201 C 386.734 -2.17803 -0.674233 0
M  V30 4202 C 387.718 -1.13225 -1.14319 0
M  V30 4203 O 388.91 -1.39153 -1.09387 0
M  V30 4204 C 386.039 -2.87682 -1.87333 0
M  V30 4205 C 385.125 -3.99509 -1.42313 0
M  V30 4206 N 385.516 -5.01115 -0.686798 0
M  V30 4207 C 383.814 -4.11964 -1.70885 0
M  V30 4208 C 384.515 -5.79922 -0.454456 0
M  V30 4209 N 383.491 -5.34001 -1.01705 0
M  V30 4210 H 387.293 -2.93718 -0.103447 0
M  V30 4211 H 384.807 -1.62342 0.0435095 0
M  V30 4212 H 386.804 -3.3057 -2.54026 0
M  V30 4213 H 385.464 -2.13269 -2.4484 0
M  V30 4214 H 386.475 -5.16799 -0.337459 0
M  V30 4215 H 383.152 -3.48718 -2.2957 0
M  V30 4216 H 384.542 -6.71768 0.132992 0
M  V30 4217 N 387.262 0.0317525 -1.57568 0
M  V30 4218 C 388.192 1.03274 -2.0942 0
M  V30 4219 C 389.173 1.3788 -0.996143 0
M  V30 4220 O 390.358 1.46811 -1.27122 0
M  V30 4221 C 387.488 2.33448 -2.57137 0
M  V30 4222 C 386.442 2.13091 -3.71182 0
M  V30 4223 C 385.768 3.49001 -4.05095 0
M  V30 4224 C 387.068 1.51928 -4.99715 0
M  V30 4225 H 388.762 0.60112 -2.93303 0
M  V30 4226 H 386.308 0.287705 -1.41097 0
M  V30 4227 H 388.261 3.03802 -2.92032 0
M  V30 4228 H 386.985 2.78665 -1.70333 0
M  V30 4229 H 385.644 1.45171 -3.36632 0
M  V30 4230 H 385.292 3.91862 -3.15362 0
M  V30 4231 H 384.992 3.36207 -4.81911 0
M  V30 4232 H 386.516 4.20721 -4.42522 0
M  V30 4233 H 387.93 2.12196 -5.32584 0
M  V30 4234 H 386.327 1.49716 -5.81124 0
M  V30 4235 H 387.397 0.484811 -4.8247 0
M  V30 4236 N 388.74 1.54641 0.303973 0
M  V30 4237 C 390.156 1.45788 0.649463 0
M  V30 4238 C 390.356 0.64666 1.90842 0
M  V30 4239 O 389.412 0.153183 2.52035 0
M  V30 4240 C 390.725 2.89718 0.805227 0
M  V30 4241 C 392.273 2.99742 0.901305 0
M  V30 4242 C 392.748 4.44863 1.08909 0
M  V30 4243 N 394.239 4.48559 1.15536 0
M  V30 4244 C 394.974 5.58026 1.3189 0
M  V30 4245 N 394.47 6.77422 1.45161 0
M  V30 4246 N 396.263 5.45708 1.34755 0
M  V30 4247 H 388.414 2.05854 -0.523237 0
M  V30 4248 H 390.677 0.932186 -0.172431 0
M  V30 4249 H 390.383 3.51666 -0.0489108 0
M  V30 4250 H 390.257 3.36964 1.69513 0
M  V30 4251 H 392.644 2.3791 1.74593 0
M  V30 4252 H 392.725 2.55797 -0.0125531 0
M  V30 4253 H 392.369 5.07288 0.249241 0
M  V30 4254 H 392.299 4.86436 2.01713 0
M  V30 4255 H 394.79 3.6254 1.06646 0
M  V30 4256 H 395.103 7.56604 1.57387 0
M  V30 4257 H 393.448 6.80292 1.42223 0
M  V30 4258 H 396.639 4.51378 1.23996 0
M  V30 4259 H 396.812 6.3107 1.47157 0
M  V30 4260 N 390.218 -0.567019 1.47046 0
M  V30 4261 C 391.464 -1.32658 1.53394 0
M  V30 4262 C 391.797 -1.93254 0.19148 0
M  V30 4263 O 391.072 -1.77338 -0.798844 0
M  V30 4264 C 391.355 -2.44412 2.64452 0
M  V30 4265 C 391.208 -1.88749 4.08282 0
M  V30 4266 C 392.527 -3.46387 2.71485 0
M  V30 4267 H 389.646 -0.48098 0.558415 0
M  V30 4268 H 392.288 -0.635481 1.79058 0
M  V30 4269 H 390.438 -3.03363 2.427 0
M  V30 4270 H 392.11 -1.34134 4.41368 0
M  V30 4271 H 390.353 -1.19481 4.17021 0
M  V30 4272 H 391.024 -2.69491 4.81745 0
M  V30 4273 H 393.5 -2.9734 2.91081 0
M  V30 4274 H 392.376 -4.2202 3.50985 0
M  V30 4275 H 392.637 -4.04616 1.78153 0
M  V30 4276 N 391.696 -1.35014 -0.812953 0
M  V30 4277 C 392.926 -1.30841 -1.59888 0
M  V30 4278 C 393.334 0.117576 -1.88834 0
M  V30 4279 O 392.677 1.07807 -1.48739 0
M  V30 4280 C 392.739 -2.0412 -2.95931 0
M  V30 4281 C 392.403 -3.53336 -2.89832 0
M  V30 4282 C 393.4 -4.48052 -2.63714 0
M  V30 4283 C 391.085 -3.95894 -3.0915 0
M  V30 4284 C 393.079 -5.833 -2.56982 0
M  V30 4285 C 390.766 -5.31239 -3.0204 0
M  V30 4286 C 391.764 -6.24754 -2.75991 0
M  V30 4287 O 391.452 -7.57617 -2.68833 0
M  V30 4288 H 391.184 -0.451215 -0.50337 0
M  V30 4289 H 393.738 -1.78354 -1.01877 0
M  V30 4290 H 391.968 -1.51235 -3.559 0
M  V30 4291 H 393.657 -1.93107 -3.57022 0
M  V30 4292 H 394.423 -4.16492 -2.48515 0
M  V30 4293 H 390.302 -3.23495 -3.28438 0
M  V30 4294 H 393.846 -6.56263 -2.36569 0
M  V30 4295 H 389.743 -5.62415 -3.16796 0
M  V30 4296 H 390.511 -7.67469 -2.84487 0
M  V30 4297 N 393.175 1.03435 -1.18907 0
M  V30 4298 C 394.105 2.13503 -0.945448 0
M  V30 4299 C 395.086 1.69682 0.119189 0
M  V30 4300 O 396.271 1.94169 -0.034707 0
M  V30 4301 C 393.401 3.44004 -0.477316 0
M  V30 4302 C 392.355 4.0148 -1.48316 0
M  V30 4303 C 391.681 5.27537 -0.872311 0
M  V30 4304 C 392.981 4.36921 -2.86177 0
M  V30 4305 H 394.675 2.34141 -1.86597 0
M  V30 4306 H 392.221 1.12523 -0.898584 0
M  V30 4307 H 394.174 4.20372 -0.294204 0
M  V30 4308 H 392.898 3.23072 0.478786 0
M  V30 4309 H 391.557 3.27201 -1.65332 0
M  V30 4310 H 391.205 5.02917 0.0911752 0
M  V30 4311 H 390.905 5.66954 -1.54393 0
M  V30 4312 H 392.429 6.06576 -0.699871 0
M  V30 4313 H 393.843 5.04248 -2.72776 0
M  V30 4314 H 392.24 4.87405 -3.50081 0
M  V30 4315 H 393.31 3.46466 -3.39248 0
M  V30 4316 N 394.653 0.992116 1.22453 0
M  V30 4317 C 395.603 0.512969 2.22155 0
M  V30 4318 C 396.587 -0.418416 1.55364 0
M  V30 4319 O 397.779 -0.245363 1.75291 0
M  V30 4320 C 394.908 -0.171822 3.4287 0
M  V30 4321 C 393.994 0.779822 4.16869 0
M  V30 4322 N 394.385 1.92734 4.6764 0
M  V30 4323 C 392.683 0.59554 4.42006 0
M  V30 4324 C 393.384 2.52458 5.24061 0
M  V30 4325 N 392.36 1.80735 5.12675 0
M  V30 4326 H 396.162 1.38817 2.5905 0
M  V30 4327 H 393.676 0.854277 1.38115 0
M  V30 4328 H 395.673 -0.532469 4.13486 0
M  V30 4329 H 394.333 -1.04317 3.07487 0
M  V30 4330 H 395.344 2.30816 4.63621 0
M  V30 4331 H 392.021 -0.229805 4.16867 0
M  V30 4332 H 393.411 3.49433 5.73887 0
M  V30 4333 N 396.131 -1.37776 0.765217 0
M  V30 4334 C 397.361 -2.03828 0.337277 0
M  V30 4335 C 397.769 -1.57841 -1.04321 0
M  V30 4336 O 397.112 -0.752043 -1.67601 0
M  V30 4337 C 397.174 -3.58292 0.294407 0
M  V30 4338 C 396.838 -4.27384 1.61838 0
M  V30 4339 C 397.835 -4.51956 2.56967 0
M  V30 4340 C 395.52 -4.65345 1.89102 0
M  V30 4341 C 397.514 -5.13536 3.77571 0
M  V30 4342 C 395.201 -5.26647 3.09978 0
M  V30 4343 C 396.199 -5.50679 4.04032 0
M  V30 4344 O 395.887 -6.10702 5.2278 0
M  V30 4345 H 395.619 -0.661292 0.140248 0
M  V30 4346 H 398.173 -1.77222 1.03834 0
M  V30 4347 H 396.403 -3.83918 -0.462983 0
M  V30 4348 H 398.092 -4.05763 -0.105581 0
M  V30 4349 H 398.858 -4.23048 2.37183 0
M  V30 4350 H 394.737 -4.45978 1.16725 0
M  V30 4351 H 398.281 -5.3221 4.50997 0
M  V30 4352 H 394.178 -5.54979 3.29649 0
M  V30 4353 H 394.946 -6.29183 5.23517 0
M  V30 4354 N 397.609 -0.515225 -1.4894 0
M  V30 4355 C 398.539 0.244628 -2.32215 0
M  V30 4356 C 399.52 0.949136 -1.41157 0
M  V30 4357 O 400.705 0.937783 -1.70057 0
M  V30 4358 C 397.835 1.30096 -3.22013 0
M  V30 4359 C 396.789 0.715486 -4.21977 0
M  V30 4360 C 396.115 1.87339 -5.00808 0
M  V30 4361 C 397.415 -0.302982 -5.2142 0
M  V30 4362 H 399.109 -0.450501 -2.95991 0
M  V30 4363 H 396.655 -0.218098 -1.42339 0
M  V30 4364 H 398.608 1.84037 -3.79089 0
M  V30 4365 H 397.332 2.02547 -2.56207 0
M  V30 4366 H 395.991 0.197715 -3.66066 0
M  V30 4367 H 395.639 2.58592 -4.31438 0
M  V30 4368 H 395.339 1.48764 -5.68457 0
M  V30 4369 H 396.863 2.41686 -5.60732 0
M  V30 4370 H 398.277 0.148802 -5.73107 0
M  V30 4371 H 396.674 -0.60532 -5.97039 0
M  V30 4372 H 397.744 -1.21395 -4.69459 0
M  V30 4373 N 399.087 1.5561 -0.249682 0
M  V30 4374 C 400.498 1.84979 0.252949 0
M  V30 4375 C 400.849 1.17153 1.57384 0
M  V30 4376 O 399.974 0.450884 2.11651 0
M  V30 4377 C 400.569 3.35584 0.465732 0
M  V30 4378 C 399.128 3.65169 0.912624 0
M  V30 4379 C 398.275 2.77299 -0.00859085 0
M  V30 4380 H 401.226 1.51513 -0.47217 0
M  V30 4381 H 401.247 3.57313 1.30795 0
M  V30 4382 H 400.759 3.8492 -0.49579 0
M  V30 4383 H 398.86 3.21312 1.88652 0
M  V30 4384 H 398.973 4.72912 0.767559 0
M  V30 4385 H 397.337 2.49678 0.50327 0
M  V30 4386 H 398.12 3.29442 -0.965537 0
M  V30 4387 N 400.565 -0.0233959 1.57583 0
M  V30 4388 C 401.79 -0.728376 1.94189 0
M  V30 4389 C 402.215 -1.67793 0.850119 0
M  V30 4390 O 401.573 -1.80262 -0.19371 0
M  V30 4391 C 401.621 -1.45669 3.29868 0
M  V30 4392 O 400.725 -2.57013 3.22518 0
M  V30 4393 H 400.066 -0.195493 0.63457 0
M  V30 4394 H 402.596 0.0228214 2.04587 0
M  V30 4395 H 402.606 -1.82535 3.6489 0
M  V30 4396 H 401.281 -0.760314 4.08891 0
M  V30 4397 H 399.858 -2.22648 2.99136 0
M  V30 4398 N 402.043 -1.548 -0.295768 0
M  V30 4399 C 403.273 -1.78069 -1.04762 0
M  V30 4400 C 403.681 -0.542847 -1.81245 0
M  V30 4401 O 403.024 0.497051 -1.76848 0
M  V30 4402 C 403.086 -2.93881 -2.07061 0
M  V30 4403 C 402.75 -4.31777 -1.49725 0
M  V30 4404 C 403.747 -5.11613 -0.924581 0
M  V30 4405 C 401.432 -4.78389 -1.5313 0
M  V30 4406 C 403.426 -6.36184 -0.393594 0
M  V30 4407 C 401.113 -6.02921 -0.996447 0
M  V30 4408 C 402.111 -6.81654 -0.428569 0
M  V30 4409 O 401.799 -8.0384 0.0981593 0
M  V30 4410 H 401.531 -0.597475 -0.316226 0
M  V30 4411 H 404.085 -2.02584 -0.338973 0
M  V30 4412 H 402.315 -2.65003 -2.81621 0
M  V30 4413 H 404.004 -3.04679 -2.6819 0
M  V30 4414 H 404.77 -4.76743 -0.891136 0
M  V30 4415 H 400.649 -4.17132 -1.9627 0
M  V30 4416 H 404.193 -6.97582 0.0503014 0
M  V30 4417 H 400.09 -6.37277 -1.02706 0
M  V30 4418 H 400.858 -8.18499 -0.0146455 0
M  V30 4419 N 403.521 0.559213 -1.47345 0
M  V30 4420 C 404.751 1.33999 -1.57251 0
M  V30 4421 C 405.159 1.87905 -0.220978 0
M  V30 4422 O 404.502 1.65577 0.795617 0
M  V30 4423 C 404.564 2.54798 -2.53611 0
M  V30 4424 C 404.228 2.22192 -3.99349 0
M  V30 4425 C 405.225 1.79607 -4.87891 0
M  V30 4426 C 402.91 2.33613 -4.44669 0
M  V30 4427 C 404.904 1.48868 -6.19772 0
M  V30 4428 C 402.591 2.02487 -5.76578 0
M  V30 4429 C 403.589 1.60183 -6.63951 0
M  V30 4430 O 403.277 1.29451 -7.93409 0
M  V30 4431 H 403.009 0.414858 -0.533731 0
M  V30 4432 H 405.563 0.684465 -1.9366 0
M  V30 4433 H 403.793 3.23235 -2.12265 0
M  V30 4434 H 405.482 3.16873 -2.53666 0
M  V30 4435 H 406.248 1.70278 -4.54126 0
M  V30 4436 H 402.127 2.65501 -3.76869 0
M  V30 4437 H 405.671 1.15775 -6.87926 0
M  V30 4438 H 401.568 2.11448 -6.09885 0
M  V30 4439 H 402.336 1.43098 -8.05894 0
M  V30 4440 N 404.999 1.35443 0.805782 0
M  V30 4441 C 405.949 1.24972 1.90699 0
M  V30 4442 C 406.933 0.144806 1.60247 0
M  V30 4443 O 408.125 0.376102 1.72958 0
M  V30 4444 C 405.254 1.02475 3.27649 0
M  V30 4445 C 404.34 2.17361 3.64164 0
M  V30 4446 N 404.731 3.42591 3.72109 0
M  V30 4447 C 403.029 2.08765 3.94123 0
M  V30 4448 C 403.73 4.18144 4.04389 0
M  V30 4449 N 402.706 3.4691 4.18515 0
M  V30 4450 H 406.508 2.19852 1.95044 0
M  V30 4451 H 404.022 1.27928 1.00041 0
M  V30 4452 H 406.019 0.930617 4.06381 0
M  V30 4453 H 404.679 0.0848009 3.24589 0
M  V30 4454 H 405.69 3.76932 3.55166 0
M  V30 4455 H 402.367 1.22629 3.99084 0
M  V30 4456 H 403.757 5.26367 4.17597 0
M  V30 4457 N 406.477 -1.02803 1.19454 0
M  V30 4458 C 407.407 -2.12999 0.956758 0
M  V30 4459 C 408.388 -1.69743 -0.110188 0
M  V30 4460 O 409.573 -1.94148 0.0450038 0
M  V30 4461 C 406.703 -3.43746 0.495553 0
M  V30 4462 C 405.657 -4.00688 1.50443 0
M  V30 4463 C 404.983 -5.27067 0.900275 0
M  V30 4464 C 406.283 -4.35397 2.8849 0
M  V30 4465 H 407.977 -2.33148 1.87836 0
M  V30 4466 H 405.523 -1.12045 0.904539 0
M  V30 4467 H 407.476 -4.2021 0.316493 0
M  V30 4468 H 406.2 -3.23321 -0.461646 0
M  V30 4469 H 404.859 -3.2632 1.67065 0
M  V30 4470 H 404.507 -5.02959 -0.064503 0
M  V30 4471 H 404.207 -5.66127 1.57397 0
M  V30 4472 H 405.731 -6.06196 0.73203 0
M  V30 4473 H 407.145 -5.02795 2.75446 0
M  V30 4474 H 405.542 -4.85541 3.52661 0
M  V30 4475 H 406.612 -3.44662 3.41081 0
M  V30 4476 N 407.956 -0.998596 -1.21925 0
M  V30 4477 C 408.906 -0.524743 -2.21879 0
M  V30 4478 C 409.89 0.41017 -1.55584 0
M  V30 4479 O 411.082 0.236063 -1.75419 0
M  V30 4480 C 408.211 0.153636 -3.42956 0
M  V30 4481 C 407.297 -0.801918 -4.16449 0
M  V30 4482 N 407.688 -1.95211 -4.66611 0
M  V30 4483 C 405.986 -0.618972 -4.41684 0
M  V30 4484 C 406.687 -2.55234 -5.22715 0
M  V30 4485 N 405.663 -1.83451 -5.1171 0
M  V30 4486 H 409.465 -1.40189 -2.58311 0
M  V30 4487 H 406.979 -0.86159 -1.3766 0
M  V30 4488 H 408.976 0.510534 -4.13762 0
M  V30 4489 H 407.636 1.02684 -3.08036 0
M  V30 4490 H 408.647 -2.33271 -4.62391 0
M  V30 4491 H 405.324 0.207694 -4.16983 0
M  V30 4492 H 406.714 -3.52471 -5.72026 0
M  V30 4493 N 409.434 1.37368 -0.772513 0
M  V30 4494 C 410.68 1.99969 -0.337681 0
M  V30 4495 C 411.013 1.61184 1.08321 0
M  V30 4496 O 410.288 0.858395 1.74533 0
M  V30 4497 C 410.571 3.56858 -0.482121 0
M  V30 4498 C 410.424 4.0555 -1.94549 0
M  V30 4499 C 411.743 4.39955 0.113143 0
M  V30 4500 H 408.862 0.726464 -0.124171 0
M  V30 4501 H 411.504 1.63034 -0.975699 0
M  V30 4502 H 409.654 3.88452 0.0610361 0
M  V30 4503 H 411.326 3.84518 -2.54841 0
M  V30 4504 H 409.569 3.57715 -2.45403 0
M  V30 4505 H 410.24 5.14587 -1.9976 0
M  V30 4506 H 412.716 4.14623 -0.35031 0
M  V30 4507 H 411.592 5.48897 -0.0180514 0
M  V30 4508 H 411.853 4.25403 1.20354 0
M  V30 4509 N 410.912 0.523116 1.48665 0
M  V30 4510 C 411.862 -0.263106 2.26477 0
M  V30 4511 C 412.846 -0.916005 1.32281 0
M  V30 4512 O 414.038 -0.819946 1.56863 0
M  V30 4513 C 411.167 -1.31361 3.17174 0
M  V30 4514 C 410.253 -0.665849 4.1884 0
M  V30 4515 N 410.644 0.244434 5.05209 0
M  V30 4516 C 408.942 -0.923863 4.36326 0
M  V30 4517 C 409.643 0.617443 5.78414 0
M  V30 4518 N 408.619 -0.0198686 5.43596 0
M  V30 4519 H 412.421 0.437295 2.90629 0
M  V30 4520 H 409.935 0.340675 1.58787 0
M  V30 4521 H 411.932 -1.89052 3.71571 0
M  V30 4522 H 410.592 -2.01546 2.54576 0
M  V30 4523 H 411.603 0.616621 5.14216 0
M  V30 4524 H 408.28 -1.6168 3.84923 0
M  V30 4525 H 409.67 1.36346 6.57921 0
M  V30 4526 N 412.39 -1.55475 0.257931 0
M  V30 4527 C 413.637 -1.99207 -0.363728 0
M  V30 4528 C 413.965 -1.1462 -1.57139 0
M  V30 4529 O 413.22 -0.199653 -1.94679 0
M  V30 4530 C 413.519 -3.48183 -0.806433 0
M  V30 4531 C 413.185 -4.49936 0.294684 0
M  V30 4532 C 411.847 -4.77481 0.597076 0
M  V30 4533 C 414.199 -5.10769 1.03751 0
M  V30 4534 C 411.527 -5.63132 1.64618 0
M  V30 4535 C 413.879 -5.97558 2.07622 0
M  V30 4536 C 412.543 -6.23432 2.38514 0
M  V30 4537 H 411.813 -0.728949 -0.133097 0
M  V30 4538 H 414.46 -1.8793 0.368059 0
M  V30 4539 H 412.765 -3.56848 -1.61761 0
M  V30 4540 H 414.462 -3.79415 -1.29789 0
M  V30 4541 H 411.052 -4.28572 0.0488649 0
M  V30 4542 H 415.236 -4.89527 0.817149 0
M  V30 4543 H 410.492 -5.8143 1.89074 0
M  V30 4544 H 414.666 -6.43735 2.65666 0
M  V30 4545 H 412.293 -6.89594 3.19943 0
M  V30 4546 N 413.868 0.0150385 -1.57593 0
M  V30 4547 C 415.096 0.714395 -1.94175 0
M  V30 4548 C 415.511 1.68135 -0.858841 0
M  V30 4549 O 414.868 1.81766 0.163567 0
M  V30 4550 C 414.919 1.45933 -3.30735 0
M  V30 4551 O 414.64 0.531167 -4.34868 0
M  V30 4552 C 416.141 2.25456 -3.81686 0
M  V30 4553 H 413.361 0.199923 -0.640525 0
M  V30 4554 H 415.905 -0.0316096 -2.04476 0
M  V30 4555 H 414.06 2.15709 -3.21789 0
M  V30 4556 H 414.474 1.05509 -5.13778 0
M  V30 4557 H 415.948 2.731 -4.79709 0
M  V30 4558 H 416.425 3.07485 -3.13607 0
M  V30 4559 H 417.031 1.60727 -3.9376 0
M  V30 4560 N 415.346 1.54954 0.287554 0
M  V30 4561 C 416.309 1.86076 1.33823 0
M  V30 4562 C 417.309 0.734414 1.43049 0
M  V30 4563 O 418.499 1.00266 1.42452 0
M  V30 4564 C 415.631 2.05305 2.72144 0
M  V30 4565 H 416.824 2.79984 1.07465 0
M  V30 4566 H 414.377 1.47223 0.524902 0
M  V30 4567 H 415.112 1.1373 3.03704 0
M  V30 4568 H 414.897 2.873 2.66836 0
M  V30 4569 H 416.387 2.30706 3.48087 0
M  V30 4570 N 416.824 -0.551391 1.4764 0
M  V30 4571 C 417.754 -1.66757 1.63445 0
M  V30 4572 C 418.735 -1.63077 0.483742 0
M  V30 4573 O 419.92 -1.80607 0.71377 0
M  V30 4574 C 417.05 -3.05387 1.65396 0
M  V30 4575 C 416.004 -3.23918 2.79752 0
M  V30 4576 C 415.33 -4.63393 2.66779 0
M  V30 4577 C 416.63 -3.08735 4.21284 0
M  V30 4578 H 418.324 -1.53786 2.56886 0
M  V30 4579 H 415.87 -0.738415 1.23626 0
M  V30 4580 H 417.823 -3.83325 1.75043 0
M  V30 4581 H 416.547 -3.19332 0.685195 0
M  V30 4582 H 415.206 -2.48391 2.69625 0
M  V30 4583 H 414.854 -4.74144 1.67918 0
M  V30 4584 H 414.554 -4.7674 3.43501 0
M  V30 4585 H 416.078 -5.43458 2.78364 0
M  V30 4586 H 417.492 -3.76484 4.32357 0
M  V30 4587 H 415.889 -3.33588 4.98838 0
M  V30 4588 H 416.959 -2.0541 4.39243 0
M  V30 4589 N 418.302 -1.35869 -0.798587 0
M  V30 4590 C 419.55 -1.29332 -1.55298 0
M  V30 4591 C 419.871 0.129729 -1.94568 0
M  V30 4592 O 419.141 1.06796 -1.6423 0
M  V30 4593 H 417.721 -0.475737 -0.57592 0
M  V30 4594 H 420.383 -1.70062 -0.952093 0
M  V30 4595 H 419.479 -1.91458 -2.46476 0
M  V30 4596 N 419.78 1.02168 -1.19998 0
M  V30 4597 C 421.027 1.75685 -1.00702 0
M  V30 4598 C 421.355 1.88947 0.461426 0
M  V30 4599 O 420.61 1.40832 1.35885 0
M  V30 4600 C 420.909 3.18081 -1.62969 0
M  V30 4601 C 420.575 3.24809 -3.12746 0
M  V30 4602 C 419.237 3.26352 -3.53621 0
M  V30 4603 C 421.589 3.23379 -4.08749 0
M  V30 4604 C 418.917 3.2413 -4.89036 0
M  V30 4605 C 421.269 3.22698 -5.44104 0
M  V30 4606 C 419.933 3.22542 -5.84399 0
M  V30 4607 H 419.203 0.642877 -0.368496 0
M  V30 4608 H 421.85 1.19865 -1.49348 0
M  V30 4609 H 420.155 3.77027 -1.06573 0
M  V30 4610 H 421.852 3.73648 -1.45561 0
M  V30 4611 H 418.442 3.2434 -2.80181 0
M  V30 4612 H 422.626 3.21361 -3.78207 0
M  V30 4613 H 417.882 3.22338 -5.19527 0
M  V30 4614 H 422.056 3.20543 -6.18244 0
M  V30 4615 H 419.683 3.20575 -6.89301 0
M  V30 4616 N 421.258 1.00505 1.21394 0
M  V30 4617 C 422.168 0.574806 2.27449 0
M  V30 4618 C 423.184 -0.382206 1.6975 0
M  V30 4619 O 424.36 -0.246027 1.99892 0
M  V30 4620 C 421.425 -0.0917414 3.46579 0
M  V30 4621 C 420.486 0.909758 4.1955 0
M  V30 4622 C 419.719 0.274924 5.32991 0
M  V30 4623 O 419.942 -0.928254 5.62796 0
M  V30 4624 O 418.876 0.985877 5.93771 0
M  V30 4625 H 422.702 1.45744 2.66444 0
M  V30 4626 H 420.287 0.773923 1.27792 0
M  V30 4627 H 422.169 -0.464551 4.18832 0
M  V30 4628 H 420.844 -0.948755 3.09484 0
M  V30 4629 H 419.751 1.33372 3.49518 0
M  V30 4630 H 421.084 1.73636 4.60555 0
M  V30 4631 N 422.737 -1.36956 0.779787 0
M  V30 4632 C 423.7 -2.2851 0.177662 0
M  V30 4633 C 424.7 -1.48393 -0.619377 0
M  V30 4634 O 425.89 -1.68505 -0.441785 0
M  V30 4635 C 423.022 -3.32428 -0.755279 0
M  V30 4636 H 424.215 -2.83269 0.984823 0
M  V30 4637 H 421.768 -1.46358 0.548544 0
M  V30 4638 H 422.503 -2.82808 -1.58714 0
M  V30 4639 H 422.288 -3.91659 -0.185817 0
M  V30 4640 H 423.778 -4.00824 -1.17174 0
M  V30 4641 N 424.215 -0.530993 -1.48385 0
M  V30 4642 C 425.626 -0.0907905 -1.86479 0
M  V30 4643 C 425.977 1.33213 -1.44044 0
M  V30 4644 O 425.102 1.99783 -0.831615 0
M  V30 4645 C 425.697 -0.157987 -3.38431 0
M  V30 4646 C 424.256 0.227026 -3.75715 0
M  V30 4647 C 423.403 -0.5173 -2.72432 0
M  V30 4648 H 426.354 -0.742186 -1.40276 0
M  V30 4649 H 426.375 0.630053 -3.75247 0
M  V30 4650 H 425.887 -1.19372 -3.69286 0
M  V30 4651 H 423.988 1.26486 -3.50474 0
M  V30 4652 H 424.101 -0.113288 -4.78966 0
M  V30 4653 H 422.465 0.0365527 -2.54674 0
M  V30 4654 H 423.248 -1.55368 -3.0613 0
M  V30 4655 N 425.693 1.55336 -0.266172 0
M  V30 4656 C 426.941 1.99003 0.35246 0
M  V30 4657 C 427.262 1.15591 1.57047 0
M  V30 4658 O 426.532 0.243268 1.94384 0
M  V30 4659 H 425.112 0.735025 0.133217 0
M  V30 4660 H 427.774 1.91367 -0.369434 0
M  V30 4661 H 426.87 3.05289 0.648453 0
M  V30 4662 N 427.171 -0.0066808 1.57599 0
M  V30 4663 C 428.396 -0.707738 1.94951 0
M  V30 4664 C 428.821 -1.66882 0.867868 0
M  V30 4665 O 428.179 -1.80457 -0.17458 0
M  V30 4666 C 428.227 -1.42162 3.31394 0
M  V30 4667 O 427.331 -2.53578 3.25226 0
M  V30 4668 H 426.672 -0.188752 0.636607 0
M  V30 4669 H 429.202 0.0445193 2.04552 0
M  V30 4670 H 429.212 -1.78655 3.66806 0
M  V30 4671 H 427.887 -0.716903 4.09675 0
M  V30 4672 H 426.464 -2.19463 3.01481 0
M  V30 4673 N 428.649 -1.55105 -0.279332 0
M  V30 4674 C 429.897 -1.75066 -1.00977 0
M  V30 4675 C 430.218 -0.551276 -1.87045 0
M  V30 4676 O 429.488 0.433984 -1.91032 0
M  V30 4677 H 428.068 -0.645578 -0.375816 0
M  V30 4678 H 430.73 -1.92497 -0.305089 0
M  V30 4679 H 429.826 -2.64894 -1.65038 0
M  V30 4680 N 430.127 0.543554 -1.4793 0
M  V30 4681 C 431.373 1.30201 -1.55485 0
M  V30 4682 C 431.706 1.92925 -0.222201 0
M  V30 4683 O 430.981 1.78586 0.77053 0
M  V30 4684 C 431.264 2.40174 -2.68307 0
M  V30 4685 C 431.117 1.8223 -4.11233 0
M  V30 4686 C 432.436 3.42024 -2.76961 0
M  V30 4687 H 429.555 0.472036 -0.565996 0
M  V30 4688 H 432.197 0.606914 -1.80046 0
M  V30 4689 H 430.347 2.99463 -2.47495 0
M  V30 4690 H 432.019 1.27096 -4.43446 0
M  V30 4691 H 430.262 1.12832 -4.18869 0
M  V30 4692 H 430.933 2.61793 -4.85972 0
M  V30 4693 H 433.409 2.92672 -2.95774 0
M  V30 4694 H 432.285 4.16383 -3.57654 0
M  V30 4695 H 432.546 4.0173 -1.84568 0
M  V30 4696 N 431.605 1.3629 0.791371 0
M  V30 4697 C 432.515 1.32606 1.93527 0
M  V30 4698 C 433.531 0.228541 1.72493 0
M  V30 4699 O 434.707 0.460571 1.96063 0
M  V30 4700 C 431.772 1.11271 3.28359 0
M  V30 4701 C 430.833 2.3048 3.62185 0
M  V30 4702 C 430.066 2.10154 4.90583 0
M  V30 4703 O 430.289 1.07572 5.60165 0
M  V30 4704 O 429.223 2.97884 5.23019 0
M  V30 4705 H 433.049 2.28909 1.99585 0
M  V30 4706 H 430.634 1.16818 0.931344 0
M  V30 4707 H 432.516 1.01283 4.09047 0
M  V30 4708 H 431.191 0.180292 3.23198 0
M  V30 4709 H 430.098 2.46036 2.81811 0
M  V30 4710 H 431.431 3.22221 3.72068 0
M  V30 4711 N 433.083 -1.0153 1.20538 0
M  V30 4712 C 434.499 -1.27461 0.96051 0
M  V30 4713 C 434.699 -1.98273 -0.359193 0
M  V30 4714 O 433.755 -2.27886 -1.0874 0
M  V30 4715 C 435.068 -2.10837 2.14402 0
M  V30 4716 C 436.616 -2.24099 2.18515 0
M  V30 4717 C 437.091 -3.10852 3.36355 0
M  V30 4718 N 438.582 -3.18441 3.36377 0
M  V30 4719 C 439.317 -3.85795 4.24205 0
M  V30 4720 N 438.813 -4.55264 5.22213 0
M  V30 4721 N 440.606 -3.82331 4.12043 0
M  V30 4722 H 432.757 -0.539907 2.05423 0
M  V30 4723 H 435.02 -0.30092 0.898972 0
M  V30 4724 H 434.726 -1.66144 3.09983 0
M  V30 4725 H 434.6 -3.11576 2.12604 0
M  V30 4726 H 436.987 -2.68016 1.23497 0
M  V30 4727 H 437.068 -1.22865 2.24361 0
M  V30 4728 H 436.712 -2.6764 4.31661 0
M  V30 4729 H 436.642 -4.12177 3.27746 0
M  V30 4730 H 439.133 -2.68978 2.65442 0
M  V30 4731 H 439.446 -5.04331 5.85551 0
M  V30 4732 H 437.791 -4.54085 5.26148 0
M  V30 4733 H 440.982 -3.27207 3.34743 0
M  V30 4734 H 441.155 -4.34547 4.807 0
M  V30 4735 N 434.561 -1.01147 -1.20859 0
M  V30 4736 C 435.524 -0.582224 -2.21682 0
M  V30 4737 C 436.524 0.344887 -1.57058 0
M  V30 4738 O 437.714 0.134281 -1.73682 0
M  V30 4739 C 434.846 0.150496 -3.40568 0
M  V30 4740 H 436.039 -1.47408 -2.61172 0
M  V30 4741 H 433.592 -0.800695 -1.34233 0
M  V30 4742 H 434.327 1.0575 -3.06574 0
M  V30 4743 H 434.112 -0.515444 -3.88697 0
M  V30 4744 H 435.602 0.438344 -4.15293 0
M  V30 4745 N 436.039 1.36541 -0.78704 0
M  V30 4746 C 436.989 2.27459 -0.156957 0
M  V30 4747 C 437.973 1.46843 0.657709 0
M  V30 4748 O 439.165 1.69245 0.518173 0
M  V30 4749 C 436.294 3.35893 0.709278 0
M  V30 4750 C 435.38 4.23947 -0.114049 0
M  V30 4751 N 435.771 4.92145 -1.16736 0
M  V30 4752 C 434.069 4.4587 0.107497 0
M  V30 4753 C 434.77 5.57261 -1.66837 0
M  V30 4754 N 433.746 5.3473 -0.977992 0
M  V30 4755 H 437.548 2.77669 -0.963185 0
M  V30 4756 H 435.062 1.49839 -0.62627 0
M  V30 4757 H 437.059 3.99953 1.17656 0
M  V30 4758 H 435.719 2.87238 1.51408 0
M  V30 4759 H 436.73 4.94169 -1.54976 0
M  V30 4760 H 433.407 4.08056 0.882994 0
M  V30 4761 H 434.797 6.21728 -2.54762 0
M  V30 4762 N 437.518 0.538854 1.48102 0
M  V30 4763 C 438.448 -0.207654 2.32575 0
M  V30 4764 C 439.429 -0.926559 1.4265 0
M  V30 4765 O 440.614 -0.91061 1.71527 0
M  V30 4766 C 437.744 -1.24957 3.24042 0
M  V30 4767 C 436.698 -0.648263 4.23062 0
M  V30 4768 C 436.024 -1.79348 5.03725 0
M  V30 4769 C 437.324 0.385897 5.20872 0
M  V30 4770 H 439.018 0.497534 2.95237 0
M  V30 4771 H 436.564 0.240715 1.41974 0
M  V30 4772 H 438.517 -1.77983 3.81969 0
M  V30 4773 H 437.241 -1.98446 2.59397 0
M  V30 4774 H 435.9 -0.139452 3.66335 0
M  V30 4775 H 435.548 -2.51696 4.35498 0
M  V30 4776 H 435.248 -1.39702 5.70751 0
M  V30 4777 H 436.772 -2.32735 5.64506 0
M  V30 4778 H 438.186 -0.057607 5.73271 0
M  V30 4779 H 436.583 0.700227 5.96001 0
M  V30 4780 H 437.653 1.28848 4.67468 0
M  V30 4781 N 438.996 -1.55193 0.274407 0
M  V30 4782 C 439.926 -2.25471 -0.607032 0
M  V30 4783 C 440.907 -1.24461 -1.15946 0
M  V30 4784 O 442.092 -1.53179 -1.19373 0
M  V30 4785 C 439.222 -2.97526 -1.79153 0
M  V30 4786 C 438.176 -4.05459 -1.37067 0
M  V30 4787 C 437.502 -4.65084 -2.6382 0
M  V30 4788 C 438.802 -5.19691 -0.521389 0
M  V30 4789 H 440.496 -2.99393 -0.0209343 0
M  V30 4790 H 438.042 -1.43997 -0.00862866 0
M  V30 4791 H 439.995 -3.45402 -2.41404 0
M  V30 4792 H 438.719 -2.21138 -2.40344 0
M  V30 4793 H 437.378 -3.58393 -0.771355 0
M  V30 4794 H 437.026 -3.85365 -3.23268 0
M  V30 4795 H 436.726 -5.37961 -2.36372 0
M  V30 4796 H 438.25 -5.15708 -3.26921 0
M  V30 4797 H 439.664 -5.63623 -1.04889 0
M  V30 4798 H 438.061 -5.99126 -0.341825 0
M  V30 4799 H 439.131 -4.82713 0.46 0
M  V30 4800 N 440.474 -0.00167713 -1.576 0
M  V30 4801 C 441.437 0.974046 -2.07473 0
M  V30 4802 C 442.437 1.27143 -0.984444 0
M  V30 4803 O 443.627 1.21633 -1.24703 0
M  V30 4804 C 440.759 2.29849 -2.51759 0
M  V30 4805 H 441.952 0.54262 -2.9495 0
M  V30 4806 H 439.505 0.245829 -1.54355 0
M  V30 4807 H 440.24 2.77677 -1.67529 0
M  V30 4808 H 440.025 2.09584 -3.31386 0
M  V30 4809 H 441.515 2.9984 -2.90664 0
M  V30 4810 N 441.952 1.55251 0.271103 0
M  V30 4811 C 442.862 1.9136 1.35714 0
M  V30 4812 C 443.878 0.811075 1.5394 0
M  V30 4813 O 445.054 1.11031 1.6803 0
M  V30 4814 C 442.119 2.1798 2.69603 0
M  V30 4815 C 441.18 3.4153 2.60107 0
M  V30 4816 C 440.413 3.66871 3.8761 0
M  V30 4817 O 440.636 2.94689 4.8838 0
M  V30 4818 O 439.57 4.60405 3.87699 0
M  V30 4819 H 443.396 2.83815 1.08088 0
M  V30 4820 H 440.981 1.41821 0.469792 0
M  V30 4821 H 442.863 2.36518 3.48765 0
M  V30 4822 H 441.538 1.28708 2.97012 0
M  V30 4823 H 440.445 3.28325 1.79314 0
M  V30 4824 H 441.778 4.31027 2.37647 0
M  V30 4825 N 443.43 -0.535701 1.48216 0
M  V30 4826 C 444.676 -1.29375 1.56173 0
M  V30 4827 C 445.009 -1.92804 0.232429 0
M  V30 4828 O 444.284 -1.78992 -0.761048 0
M  V30 4829 C 444.567 -2.38747 2.69577 0
M  V30 4830 C 444.42 -1.80046 4.12193 0
M  V30 4831 C 445.739 -3.40551 2.78771 0
M  V30 4832 H 442.858 -0.469027 0.568491 0
M  V30 4833 H 445.5 -0.597358 1.80365 0
M  V30 4834 H 443.65 -2.98147 2.4908 0
M  V30 4835 H 445.322 -1.24742 4.44114 0
M  V30 4836 H 443.565 -1.10609 4.19462 0
M  V30 4837 H 444.236 -2.59212 4.87353 0
M  V30 4838 H 446.712 -2.91099 2.97322 0
M  V30 4839 H 445.588 -4.1448 3.59857 0
M  V30 4840 H 445.849 -4.00746 1.86696 0
M  V30 4841 N 444.908 -1.36708 -0.784132 0
M  V30 4842 C 446.157 -1.30559 -1.53744 0
M  V30 4843 C 446.47 0.111374 -1.95283 0
M  V30 4844 O 447.676 0.29527 -2.6989 0
M  V30 4845 C 446.132 -2.29098 -2.77565 0
M  V30 4846 C 445.74 -3.76258 -2.43174 0
M  V30 4847 C 447.484 -2.31936 -3.55536 0
M  V30 4848 C 445.391 -4.6656 -3.63422 0
M  V30 4849 H 444.321 -0.48518 -0.577162 0
M  V30 4850 H 446.972 -1.62101 -0.859981 0
M  V30 4851 H 445.354 -1.90557 -3.47137 0
M  V30 4852 H 446.528 -4.23565 -1.81465 0
M  V30 4853 H 444.843 -3.76246 -1.78403 0
M  V30 4854 H 447.44 -2.9661 -4.44889 0
M  V30 4855 H 447.783 -1.3294 -3.94503 0
M  V30 4856 H 448.316 -2.6912 -2.92949 0
M  V30 4857 H 445.055 -5.66638 -3.29547 0
M  V30 4858 H 444.575 -4.23966 -4.24279 0
M  V30 4859 H 446.254 -4.8309 -4.30387 0
M  V30 4860 N 446.386 1.0089 -1.21074 0
M  V30 4861 C 447.296 2.13039 -0.982425 0
M  V30 4862 C 448.312 1.73881 0.0642161 0
M  V30 4863 O 449.488 2.01012 -0.12496 0
M  V30 4864 C 446.553 3.42377 -0.545803 0
M  V30 4865 C 445.614 3.95731 -1.6642 0
M  V30 4866 C 444.847 5.18896 -1.24832 0
M  V30 4867 O 445.07 5.70273 -0.120265 0
M  V30 4868 O 444.004 5.65597 -2.05873 0
M  V30 4869 H 447.83 2.35175 -1.92163 0
M  V30 4870 H 445.415 1.1142 -0.995285 0
M  V30 4871 H 447.297 4.20244 -0.311912 0
M  V30 4872 H 445.972 3.21639 0.364727 0
M  V30 4873 H 444.879 3.19108 -1.95246 0
M  V30 4874 H 446.212 4.20872 -2.55201 0
M  V30 4875 N 447.864 1.01787 1.20321 0
M  V30 4876 C 448.812 0.58254 2.25187 0
M  V30 4877 C 449.806 -0.379359 1.65098 0
M  V30 4878 O 451.012 -0.249142 1.78267 0
M  V30 4879 H 447.387 0.170078 0.732514 0
M  V30 4880 H 449.358 1.47788 2.59232 0
M  V30 4881 C 448.107 -0.0620885 3.47645 0
M  V30 4882 H 447.43 0.669069 3.94162 0
M  V30 4883 H 448.87 -0.329784 4.22716 0
M  V30 4884 C 447.329 -1.3053 3.10586 0
M  V30 4885 O 447.859 -2.39848 3.22236 0
M  V30 4886 N 446.065 -1.18988 2.65123 0
M  V30 4887 H 445.612 -0.300341 2.55843 0
M  V30 4888 H 445.57 -2.02267 2.40698 0
M  V30 4889 N 449.342 -1.36122 0.79427 0
M  V30 4890 C 450.272 -2.32551 0.210328 0
M  V30 4891 C 451.253 -1.56884 -0.657386 0
M  V30 4892 O 452.438 -1.85014 -0.590207 0
M  V30 4893 C 449.568 -3.41128 -0.651819 0
M  V30 4894 C 448.522 -4.27842 0.116395 0
M  V30 4895 C 447.848 -5.2763 -0.86666 0
M  V30 4896 C 449.148 -5.05647 1.30837 0
M  V30 4897 H 450.842 -2.81636 1.01594 0
M  V30 4898 H 448.388 -1.35407 0.489981 0
M  V30 4899 H 450.341 -4.07581 -1.07031 0
M  V30 4900 H 449.065 -2.90622 -1.49019 0
M  V30 4901 H 447.724 -3.62952 0.515915 0
M  V30 4902 H 447.372 -4.73395 -1.70019 0
M  V30 4903 H 447.072 -5.86514 -0.35705 0
M  V30 4904 H 448.596 -5.96955 -1.28361 0
M  V30 4905 H 450.01 -5.65113 0.965393 0
M  V30 4906 H 448.407 -5.73967 1.75161 0
M  V30 4907 H 449.477 -4.37006 2.10128 0
M  V30 4908 N 450.82 -0.546701 -1.47814 0
M  V30 4909 C 451.73 0.21026 -2.33656 0
M  V30 4910 C 452.746 0.922413 -1.47538 0
M  V30 4911 O 453.922 0.893652 -1.80488 0
M  V30 4912 C 450.987 1.23348 -3.24016 0
M  V30 4913 C 450.048 0.529883 -4.26017 0
M  V30 4914 C 449.281 1.50435 -5.12059 0
M  V30 4915 O 449.504 2.73837 -5.00369 0
M  V30 4916 O 448.438 1.03459 -5.92942 0
M  V30 4917 H 452.264 -0.493605 -2.99662 0
M  V30 4918 H 449.849 -0.307427 -1.46203 0
M  V30 4919 H 451.731 1.82438 -3.79861 0
M  V30 4920 H 450.406 1.91945 -2.60651 0
M  V30 4921 H 449.313 -0.101948 -3.73961 0
M  V30 4922 H 450.646 -0.11445 -4.92067 0
M  V30 4923 N 452.299 1.55045 -0.282633 0
M  V30 4924 C 453.539 2.01668 0.333088 0
M  V30 4925 C 453.903 1.1667 1.52486 0
M  V30 4926 O 455.104 1.52907 2.21072 0
M  V30 4927 C 453.375 3.50509 0.698442 0
M  V30 4928 S 454.934 4.19112 1.29963 0
M  V30 4929 H 451.752 0.703468 0.103219 0
M  V30 4930 H 454.354 1.91233 -0.406222 0
M  V30 4931 H 453.058 4.10015 -0.177693 0
M  V30 4932 H 452.589 3.64943 1.46902 0
M  V30 4933 H 454.604 4.23362 2.58803 0
M  V30 4934 N 453.777 0.010035 1.57597 0
M  V30 4935 C 455.054 -0.710296 1.82248 0
M  V30 4936 C 455.434 -1.91426 0.889911 0
M  V30 4937 O 454.782 -2.28424 -0.0590292 0
M  V30 4938 C 454.992 -1.10655 3.30993 0
M  V30 4939 C 456.34 -1.50621 3.96987 0
M  V30 4940 O 457.364 -1.20007 3.35375 0
M  V30 4941 O 456.223 -2.07587 5.05539 0
M  V30 4942 H 453.317 -0.34673 0.750804 0
M  V30 4943 H 455.863 0.0362578 1.69661 0
M  V30 4944 H 454.635 -0.248826 3.90508 0
M  V30 4945 H 454.258 -1.91189 3.48615 0
M  V30 4946 N 455.255 -1.55392 -0.262866 0
M  V30 4947 C 456.666 -1.67079 -0.833158 0
M  V30 4948 C 457.017 -0.604539 -1.86654 0
M  V30 4949 O 456.142 0.252138 -2.14926 0
M  V30 4950 C 456.737 -3.02891 -1.51797 0
M  V30 4951 C 455.296 -3.16571 -2.03617 0
M  V30 4952 C 454.443 -2.62909 -0.881701 0
M  V30 4953 H 457.394 -1.58652 -0.0389986 0
M  V30 4954 H 457.415 -2.96445 -2.38538 0
M  V30 4955 H 456.927 -3.80473 -0.765619 0
M  V30 4956 H 455.028 -2.43782 -2.81782 0
M  V30 4957 H 455.141 -4.23271 -2.24452 0
M  V30 4958 H 453.505 -2.20324 -1.27786 0
M  V30 4959 H 454.288 -3.43003 -0.14269 0
M  V30 4960 N 456.733 0.527833 -1.48498 0
M  V30 4961 C 458.149 0.856571 -1.34666 0
M  V30 4962 C 458.349 1.98271 -0.35931 0
M  V30 4963 O 457.405 2.51551 0.218703 0
M  V30 4964 C 458.718 1.22207 -2.74747 0
M  V30 4965 C 460.266 1.33183 -2.83251 0
M  V30 4966 C 460.741 1.73075 -4.24039 0
M  V30 4967 N 462.232 1.80174 -4.26722 0
M  V30 4968 C 462.967 2.1243 -5.32598 0
M  V30 4969 N 462.463 2.43096 -6.4875 0
M  V30 4970 N 464.256 2.13454 -5.19994 0
M  V30 4971 H 456.407 -0.215174 -2.11307 0
M  V30 4972 H 458.67 -0.0336281 -0.947403 0
M  V30 4973 H 458.376 0.468195 -3.4857 0
M  V30 4974 H 458.25 2.17173 -3.08409 0
M  V30 4975 H 460.637 2.07647 -2.09683 0
M  V30 4976 H 460.718 0.363333 -2.53206 0
M  V30 4977 H 460.362 0.991712 -4.98124 0
M  V30 4978 H 460.292 2.70979 -4.51529 0
M  V30 4979 H 462.783 1.58744 -3.42942 0
M  V30 4980 H 463.096 2.6682 -7.25277 0
M  V30 4981 H 461.441 2.40611 -6.52021 0
M  V30 4982 H 464.632 1.88956 -4.28268 0
M  V30 4983 H 464.805 2.38261 -6.02608 0
M  V30 4984 N 458.211 1.37122 0.776871 0
M  V30 4985 C 459.161 1.28989 1.88005 0
M  V30 4986 C 460.145 0.178765 1.59904 0
M  V30 4987 O 461.337 0.412705 1.72121 0
M  V30 4988 C 458.466 1.09402 3.25402 0
M  V30 4989 C 457.552 2.25036 3.59471 0
M  V30 4990 N 457.943 3.50407 3.64759 0
M  V30 4991 C 456.241 2.17078 3.89607 0
M  V30 4992 C 456.942 4.26628 3.95428 0
M  V30 4993 N 455.918 3.55709 4.11062 0
M  V30 4994 H 459.72 2.2394 1.90337 0
M  V30 4995 H 457.234 1.30021 0.973052 0
M  V30 4996 H 459.231 1.01661 4.04315 0
M  V30 4997 H 457.891 0.153632 3.24336 0
M  V30 4998 H 458.902 3.8438 3.47091 0
M  V30 4999 H 455.579 1.31067 3.96393 0
M  V30 5000 H 456.969 5.35107 4.06338 0
M  V30 5001 N 459.689 -1.00246 1.21608 0
M  V30 5002 C 460.919 -1.77373 1.05935 0
M  V30 5003 C 461.327 -1.85059 -0.393686 0
M  V30 5004 O 460.67 -1.31289 -1.28487 0
M  V30 5005 C 460.732 -3.22705 1.58435 0
M  V30 5006 C 460.396 -3.38591 3.06929 0
M  V30 5007 C 461.393 -3.2667 4.04454 0
M  V30 5008 C 459.078 -3.6395 3.46187 0
M  V30 5009 C 461.072 -3.39877 5.39224 0
M  V30 5010 C 458.759 -3.768 4.81108 0
M  V30 5011 C 459.757 -3.6477 5.77436 0
M  V30 5012 O 459.445 -3.77206 7.09909 0
M  V30 5013 H 459.177 -0.56419 0.372378 0
M  V30 5014 H 461.731 -1.26971 1.61454 0
M  V30 5015 H 459.961 -3.74255 0.973147 0
M  V30 5016 H 461.65 -3.81515 1.38568 0
M  V30 5017 H 462.416 -3.06999 3.75468 0
M  V30 5018 H 458.295 -3.72395 2.71741 0
M  V30 5019 H 461.839 -3.30404 6.14393 0
M  V30 5020 H 457.736 -3.95975 5.09779 0
M  V30 5021 H 458.504 -3.94138 7.17355 0
M  V30 5022 N 461.167 -1.02423 -1.1978 0
M  V30 5023 C 462.099 -0.559152 -2.22275 0
M  V30 5024 C 463.112 0.36251 -1.58713 0
M  V30 5025 O 464.301 0.159641 -1.77785 0
M  V30 5026 C 461.401 0.205094 -3.38279 0
M  V30 5027 C 460.574 -0.720361 -4.31427 0
M  V30 5028 C 459.633 -0.00234368 -5.262 0
M  V30 5029 O 458.659 -0.627378 -5.65732 0
M  V30 5030 N 459.861 1.26996 -5.66438 0
M  V30 5031 H 462.626 -1.44064 -2.62804 0
M  V30 5032 H 460.187 -0.902692 -1.34399 0
M  V30 5033 H 462.179 0.694868 -3.9869 0
M  V30 5034 H 460.749 0.987947 -2.96578 0
M  V30 5035 H 459.969 -1.39031 -3.68869 0
M  V30 5036 H 461.257 -1.3495 -4.90577 0
M  V30 5037 H 460.655 1.79858 -5.36347 0
M  V30 5038 H 459.212 1.70432 -6.29123 0
M  V30 5039 N 462.645 1.35699 -0.801477 0
M  V30 5040 C 463.577 2.28598 -0.166028 0
M  V30 5041 C 464.59 1.50044 0.631721 0
M  V30 5042 O 465.779 1.72339 0.464921 0
M  V30 5043 C 462.879 3.29625 0.787451 0
M  V30 5044 C 462.052 4.37384 0.037171 0
M  V30 5045 C 461.111 5.183 0.908375 0
M  V30 5046 O 460.137 5.68053 0.361189 0
M  V30 5047 N 461.339 5.35912 2.23112 0
M  V30 5048 H 464.104 2.83771 -0.964071 0
M  V30 5049 H 461.665 1.47994 -0.656469 0
M  V30 5050 H 463.657 3.80648 1.37439 0
M  V30 5051 H 462.227 2.75004 1.48632 0
M  V30 5052 H 461.447 3.87364 -0.730935 0
M  V30 5053 H 462.735 5.0653 -0.480109 0
M  V30 5054 H 462.133 4.97125 2.69968 0
M  V30 5055 H 460.69 5.90133 2.76741 0
M  V30 5056 N 464.123 0.554532 1.47522 0
M  V30 5057 C 465.539 0.214107 1.58157 0
M  V30 5058 C 465.739 -1.28331 1.55349 0
M  V30 5059 O 464.795 -2.06329 1.45549 0
M  V30 5060 C 466.108 0.838391 2.88776 0
M  V30 5061 C 467.656 0.809374 3.02354 0
M  V30 5062 C 468.131 1.41268 4.35669 0
M  V30 5063 N 469.622 1.37574 4.42298 0
M  V30 5064 C 470.357 1.8122 5.4401 0
M  V30 5065 N 469.853 2.3271 6.52547 0
M  V30 5066 N 471.646 1.72307 5.35039 0
M  V30 5067 H 463.797 1.52744 1.4759 0
M  V30 5068 H 466.06 0.636812 0.702264 0
M  V30 5069 H 465.766 1.89065 2.96559 0
M  V30 5070 H 465.64 0.329847 3.75755 0
M  V30 5071 H 468.027 -0.234187 2.94169 0
M  V30 5072 H 468.108 1.35565 2.16924 0
M  V30 5073 H 467.752 2.45529 4.4461 0
M  V30 5074 H 467.682 0.841871 5.19827 0
M  V30 5075 H 470.173 0.999081 3.64454 0
M  V30 5076 H 470.486 2.63944 7.26329 0
M  V30 5077 H 468.831 2.36719 6.53444 0
M  V30 5078 H 472.022 1.3186 4.49144 0
M  V30 5079 H 472.195 2.06641 6.14169 0
M  V30 5080 N 465.601 -1.54893 0.290851 0
M  V30 5081 C 466.829 -2.04343 -0.324288 0
M  V30 5082 C 467.244 -1.16859 -1.48289 0
M  V30 5083 O 466.601 -0.192018 -1.81487 0
M  V30 5084 C 466.652 -3.52756 -0.79026 0
M  V30 5085 O 466.373 -4.36913 0.322213 0
M  V30 5086 C 467.874 -4.18161 -1.4716 0
M  V30 5087 H 465.094 -0.667135 -0.0719173 0
M  V30 5088 H 467.638 -1.99981 0.427529 0
M  V30 5089 H 465.793 -3.57511 -1.49213 0
M  V30 5090 H 466.207 -5.24486 -0.0387372 0
M  V30 5091 H 467.681 -5.23562 -1.7489 0
M  V30 5092 H 468.158 -3.67282 -2.40834 0
M  V30 5093 H 468.764 -4.17454 -0.813178 0
M  V30 5094 N 467.08 -0.0183926 -1.57589 0
M  V30 5095 C 468.01 0.965596 -2.12599 0
M  V30 5096 C 468.991 1.34641 -1.0395 0
M  V30 5097 O 470.176 1.42693 -1.31729 0
M  V30 5098 C 467.306 2.25149 -2.64434 0
M  V30 5099 C 466.26 2.01175 -3.77773 0
M  V30 5100 C 465.586 3.35937 -4.15994 0
M  V30 5101 C 466.886 1.35953 -5.04296 0
M  V30 5102 H 468.58 0.507504 -2.95067 0
M  V30 5103 H 466.126 0.242671 -1.41941 0
M  V30 5104 H 468.079 2.94357 -3.01549 0
M  V30 5105 H 466.803 2.73105 -1.79112 0
M  V30 5106 H 465.462 1.34388 -3.4108 0
M  V30 5107 H 465.11 3.81631 -3.27669 0
M  V30 5108 H 464.81 3.20705 -4.92364 0
M  V30 5109 H 466.334 4.0643 -4.55683 0
M  V30 5110 H 467.748 1.95144 -5.39065 0
M  V30 5111 H 466.145 1.31152 -5.85593 0
M  V30 5112 H 467.215 0.331071 -4.83768 0
M  V30 5113 N 468.558 1.5553 0.254621 0
M  V30 5114 C 469.786 1.81046 1.00149 0
M  V30 5115 C 470.201 0.593047 1.79244 0
M  V30 5116 O 469.558 -0.438196 1.77161 0
M  V30 5117 C 469.609 3.04684 1.94551 0
M  V30 5118 O 469.33 4.21725 1.18658 0
M  V30 5119 C 470.831 3.42943 2.80901 0
M  V30 5120 H 468.051 0.602653 0.295044 0
M  V30 5121 H 470.595 2.02576 0.279842 0
M  V30 5122 H 468.75 2.85226 2.62154 0
M  V30 5123 H 469.164 4.91746 1.82445 0
M  V30 5124 H 470.638 4.32576 3.42902 0
M  V30 5125 H 471.115 2.63176 3.51617 0
M  V30 5126 H 471.721 3.64724 2.18762 0
M  V30 5127 N 470.036 -0.519951 1.48776 0
M  V30 5128 C 471.283 -1.27522 1.57303 0
M  V30 5129 C 471.611 -1.92869 0.251328 0
M  V30 5130 O 470.866 -1.80372 -0.759243 0
M  V30 5131 C 471.165 -2.37864 2.6675 0
M  V30 5132 C 470.831 -1.90103 4.08867 0
M  V30 5133 C 469.493 -1.76795 4.47546 0
M  V30 5134 C 471.845 -1.54133 4.97888 0
M  V30 5135 C 469.173 -1.25868 5.73039 0
M  V30 5136 C 471.525 -1.04665 6.23881 0
M  V30 5137 C 470.189 -0.899823 6.61407 0
M  V30 5138 H 469.459 -0.466636 0.575614 0
M  V30 5139 H 472.106 -0.579109 1.82534 0
M  V30 5140 H 470.411 -3.13186 2.35418 0
M  V30 5141 H 472.108 -2.95969 2.70561 0
M  V30 5142 H 468.698 -2.01414 3.78326 0
M  V30 5143 H 472.882 -1.6327 4.68675 0
M  V30 5144 H 468.138 -1.13196 6.0083 0
M  V30 5145 H 472.312 -0.759074 6.92251 0
M  V30 5146 H 469.939 -0.503011 7.58534 0
M  V30 5147 N 471.514 -1.37532 -0.769588 0
M  V30 5148 C 472.477 -1.33292 -1.86456 0
M  V30 5149 C 473.477 -0.236537 -1.59051 0
M  V30 5150 O 474.667 -0.492511 -1.67093 0
M  V30 5151 C 471.799 -1.07118 -3.23633 0
M  V30 5152 H 472.992 -2.30692 -1.91628 0
M  V30 5153 H 470.545 -1.22593 -0.969572 0
M  V30 5154 H 471.28 -0.102578 -3.24138 0
M  V30 5155 H 471.065 -1.86479 -3.44917 0
M  V30 5156 H 472.555 -1.06806 -4.03711 0
M  V30 5157 N 472.992 0.995999 -1.22138 0
M  V30 5158 C 473.922 2.10387 -1.01289 0
M  V30 5159 C 474.903 1.69975 0.0651454 0
M  V30 5160 O 476.088 1.9396 -0.0964628 0
M  V30 5161 C 473.218 3.42312 -0.586517 0
M  V30 5162 C 472.172 3.96558 -1.61014 0
M  V30 5163 C 471.498 5.24494 -1.0397 0
M  V30 5164 C 472.798 4.27595 -2.99933 0
M  V30 5165 H 474.492 2.28086 -1.93951 0
M  V30 5166 H 472.038 1.09607 -0.933928 0
M  V30 5167 H 473.991 4.19223 -0.427793 0
M  V30 5168 H 472.715 3.24431 0.375761 0
M  V30 5169 H 471.374 3.21776 -1.75658 0
M  V30 5170 H 471.022 5.02953 -0.0688703 0
M  V30 5171 H 470.722 5.61755 -1.72352 0
M  V30 5172 H 472.246 6.04042 -0.892494 0
M  V30 5173 H 473.66 4.95315 -2.8868 0
M  V30 5174 H 472.057 4.76021 -3.6541 0
M  V30 5175 H 473.127 3.35498 -3.50099 0
M  V30 5176 N 474.47 1.03057 1.19235 0
M  V30 5177 C 475.886 0.747947 1.40989 0
M  V30 5178 C 476.086 -0.666752 1.90149 0
M  V30 5179 O 475.142 -1.43249 2.07933 0
M  V30 5180 C 476.455 1.7855 2.41951 0
M  V30 5181 C 478.003 1.80524 2.55695 0
M  V30 5182 C 478.478 2.83243 3.59913 0
M  V30 5183 N 479.969 2.8207 3.67411 0
M  V30 5184 C 480.704 3.58204 4.47747 0
M  V30 5185 N 480.2 4.44057 5.31775 0
M  V30 5186 N 481.993 3.46738 4.42413 0
M  V30 5187 H 474.144 1.94367 0.856468 0
M  V30 5188 H 476.407 0.840412 0.438647 0
M  V30 5189 H 476.113 2.79973 2.12857 0
M  V30 5190 H 475.987 1.6092 3.41152 0
M  V30 5191 H 478.374 0.79778 2.84112 0
M  V30 5192 H 478.455 2.02229 1.56643 0
M  V30 5193 H 478.099 3.84161 3.32239 0
M  V30 5194 H 478.029 2.58795 4.5862 0
M  V30 5195 H 480.52 2.19803 3.074 0
M  V30 5196 H 480.833 4.98884 5.90199 0
M  V30 5197 H 479.178 4.48129 5.3123 0
M  V30 5198 H 482.369 2.79077 3.75811 0
M  V30 5199 H 482.542 4.06322 5.04783 0
M  V30 5200 N 475.948 -1.35272 0.808662 0
M  V30 5201 C 476.911 -2.28082 0.226093 0
M  V30 5202 C 477.911 -1.49673 -0.587762 0
M  V30 5203 O 479.101 -1.69404 -0.405943 0
M  V30 5204 C 476.233 -3.33955 -0.684596 0
M  V30 5205 H 477.426 -2.81116 1.04469 0
M  V30 5206 H 474.979 -1.45162 0.579466 0
M  V30 5207 H 475.714 -2.86111 -1.5268 0
M  V30 5208 H 475.499 -3.91965 -0.102699 0
M  V30 5209 H 476.989 -4.03219 -1.08646 0
M  V30 5210 N 477.426 -0.562348 -1.47226 0
M  V30 5211 C 478.703 0.0256985 -1.95583 0
M  V30 5212 C 479.083 1.48032 -1.50498 0
M  V30 5213 O 478.431 2.15973 -0.746181 0
M  V30 5214 C 478.641 -0.125129 -3.48776 0
M  V30 5215 C 479.989 0.0175728 -4.24596 0
M  V30 5216 O 481.013 -0.0529341 -3.56161 0
M  V30 5217 O 479.872 0.170145 -5.46235 0
M  V30 5218 H 476.966 0.0612565 -0.824728 0
M  V30 5219 H 479.512 -0.629233 -1.57603 0
M  V30 5220 H 478.284 -1.13715 -3.74412 0
M  V30 5221 H 477.907 0.567178 -3.93534 0
M  V30 5222 N 478.904 1.54736 -0.299062 0
M  V30 5223 C 480.181 1.92187 0.363802 0
M  V30 5224 C 480.561 1.22607 1.71845 0
M  V30 5225 O 479.909 0.361141 2.25628 0
M  V30 5226 C 480.119 3.45678 0.480377 0
M  V30 5227 C 481.467 4.17885 0.752147 0
M  V30 5228 O 482.491 3.51702 0.564264 0
M  V30 5229 O 481.35 5.35048 1.11294 0
M  V30 5230 H 478.444 0.801681 0.203066 0
M  V30 5231 H 480.99 1.66115 -0.346978 0
M  V30 5232 H 479.762 3.88443 -0.471999 0
M  V30 5233 H 479.385 3.77779 1.2397 0
M  V30 5234 N 480.382 0.0267497 1.57577 0
M  V30 5235 C 481.793 -0.512413 1.79531 0
M  V30 5236 C 482.144 -1.72391 0.936791 0
M  V30 5237 O 481.269 -2.15903 0.146543 0
M  V30 5238 C 481.864 -0.936378 3.25603 0
M  V30 5239 C 480.423 -1.42067 3.4856 0
M  V30 5240 C 479.57 -0.384278 2.74624 0
M  V30 5241 H 482.521 0.252797 1.56674 0
M  V30 5242 H 482.542 -1.80088 3.35184 0
M  V30 5243 H 482.054 -0.0544332 3.88062 0
M  V30 5244 H 480.155 -2.32262 2.9135 0
M  V30 5245 H 480.268 -1.42968 4.57271 0
M  V30 5246 H 478.632 -0.851855 2.40032 0
M  V30 5247 H 479.415 0.489159 3.39797 0
M  V30 5248 N 481.861 -1.55662 -0.24637 0
M  V30 5249 C 482.791 -1.93377 -1.30873 0
M  V30 5250 C 483.772 -0.798773 -1.50179 0
M  V30 5251 O 484.957 -1.0591 -1.62778 0
M  V30 5252 C 482.087 -2.22893 -2.66338 0
M  V30 5253 C 481.041 -3.38649 -2.61727 0
M  V30 5254 C 480.367 -3.53708 -4.00992 0
M  V30 5255 C 481.667 -4.74323 -2.18666 0
M  V30 5256 H 483.361 -2.82363 -0.995552 0
M  V30 5257 H 480.907 -1.35854 -0.477464 0
M  V30 5258 H 482.86 -2.47866 -3.40794 0
M  V30 5259 H 481.584 -1.30733 -2.99293 0
M  V30 5260 H 480.243 -3.13685 -1.89729 0
M  V30 5261 H 479.891 -2.58967 -4.31214 0
M  V30 5262 H 479.591 -4.31551 -3.98795 0
M  V30 5263 H 481.115 -3.81003 -4.77147 0
M  V30 5264 H 482.529 -4.98665 -2.82854 0
M  V30 5265 H 480.926 -5.55273 -2.27579 0
M  V30 5266 H 481.996 -4.71349 -1.13834 0
M  V30 5267 N 483.339 0.512053 -1.4905 0
M  V30 5268 C 484.269 1.62365 -1.67809 0
M  V30 5269 C 485.25 1.61737 -0.526809 0
M  V30 5270 O 486.435 1.78651 -0.761404 0
M  V30 5271 C 483.565 3.00895 -1.73435 0
M  V30 5272 C 482.519 3.16387 -2.88242 0
M  V30 5273 C 481.845 4.56157 -2.78971 0
M  V30 5274 C 483.145 2.97457 -4.29321 0
M  V30 5275 H 484.839 1.46921 -2.60873 0
M  V30 5276 H 482.385 0.705379 -1.2554 0
M  V30 5277 H 484.338 3.78549 -1.85145 0
M  V30 5278 H 483.062 3.17403 -0.769619 0
M  V30 5279 H 481.721 2.41155 -2.76116 0
M  V30 5280 H 481.369 4.69525 -1.8043 0
M  V30 5281 H 481.069 4.67465 -3.5602 0
M  V30 5282 H 482.593 5.35886 -2.92675 0
M  V30 5283 H 484.007 3.64888 -4.42187 0
M  V30 5284 H 482.404 3.20245 -5.07507 0
M  V30 5285 H 483.474 1.93692 -4.44535 0
M  V30 5286 N 484.817 1.37938 0.762283 0
M  V30 5287 C 485.764 1.34467 1.87583 0
M  V30 5288 C 486.734 0.208633 1.64785 0
M  V30 5289 O 487.919 0.399494 1.86571 0
M  V30 5290 C 485.059 1.16692 3.24772 0
M  V30 5291 C 484.172 2.39608 3.59461 0
M  V30 5292 C 483.307 2.14631 4.85908 0
M  V30 5293 C 482.346 3.33364 5.13357 0
M  V30 5294 N 481.483 3.07877 6.30996 0
M  V30 5295 H 486.323 2.29669 1.89885 0
M  V30 5296 H 483.86 1.14116 0.928219 0
M  V30 5297 H 485.818 1.04405 4.03925 0
M  V30 5298 H 484.448 0.251333 3.2182 0
M  V30 5299 H 483.5 2.626 2.75219 0
M  V30 5300 H 484.812 3.28128 3.75678 0
M  V30 5301 H 483.966 1.99429 5.72986 0
M  V30 5302 H 482.705 1.23463 4.71814 0
M  V30 5303 H 481.71 3.49094 4.24751 0
M  V30 5304 H 482.935 4.25395 5.29354 0
M  V30 5305 H 480.881 2.19348 6.18241 0
M  V30 5306 H 480.798 3.89944 6.47673 0
M  V30 5307 H 482.066 2.96313 7.20985 0
M  V30 5308 N 486.295 -0.989507 1.22664 0
M  V30 5309 C 487.225 -2.09847 1.02404 0
M  V30 5310 C 488.206 -1.70007 -0.0561303 0
M  V30 5311 O 489.391 -1.93906 0.106748 0
M  V30 5312 C 486.521 -3.41996 0.604663 0
M  V30 5313 C 485.475 -3.95699 1.63115 0
M  V30 5314 C 484.801 -5.23936 1.0675 0
M  V30 5315 C 486.101 -4.25999 3.02196 0
M  V30 5316 H 487.795 -2.27054 1.95158 0
M  V30 5317 H 485.341 -1.09111 0.939727 0
M  V30 5318 H 487.294 -4.1899 0.45002 0
M  V30 5319 H 486.018 -3.24626 -0.35855 0
M  V30 5320 H 484.677 -3.2084 1.77362 0
M  V30 5321 H 484.325 -5.02909 0.0955422 0
M  V30 5322 H 484.025 -5.60833 1.75328 0
M  V30 5323 H 485.549 -6.0356 0.924516 0
M  V30 5324 H 486.963 -4.93777 2.91303 0
M  V30 5325 H 485.36 -4.74076 3.67929 0
M  V30 5326 H 486.43 -3.33636 3.51873 0
M  V30 5327 N 487.773 -1.03688 -1.18687 0
M  V30 5328 C 488.703 -0.645407 -2.24403 0
M  V30 5329 C 489.684 0.349511 -1.66471 0
M  V30 5330 O 490.869 0.230453 -1.92828 0
M  V30 5331 C 487.999 -0.00365337 -3.473 0
M  V30 5332 C 486.953 -0.921705 -4.17958 0
M  V30 5333 C 486.279 -0.144629 -5.34504 0
M  V30 5334 C 487.579 -2.23909 -4.71871 0
M  V30 5335 H 489.273 -1.52917 -2.57404 0
M  V30 5336 H 486.819 -0.736711 -1.23728 0
M  V30 5337 H 488.772 0.281908 -4.20456 0
M  V30 5338 H 487.496 0.914963 -3.13522 0
M  V30 5339 H 486.155 -1.19159 -3.46694 0
M  V30 5340 H 485.803 0.776274 -4.96974 0
M  V30 5341 H 485.503 -0.756206 -5.82714 0
M  V30 5342 H 487.027 0.134004 -6.10453 0
M  V30 5343 H 488.441 -2.0145 -5.36741 0
M  V30 5344 H 486.838 -2.8033 -5.30599 0
M  V30 5345 H 487.908 -2.88822 -3.895 0
M  V30 5346 N 489.251 1.34841 -0.815825 0
M  V30 5347 C 490.183 2.28409 -0.190265 0
M  V30 5348 C 491.196 1.50705 0.615771 0
M  V30 5349 O 492.385 1.72822 0.446616 0
M  V30 5350 C 489.485 3.30441 0.752446 0
M  V30 5351 C 488.658 4.37399 -0.00922152 0
M  V30 5352 C 487.717 5.19234 0.853351 0
M  V30 5353 O 486.743 5.68404 0.300919 0
M  V30 5354 N 487.945 5.38248 2.17416 0
M  V30 5355 H 490.71 2.82732 -0.994114 0
M  V30 5356 H 488.271 1.47289 -0.672129 0
M  V30 5357 H 490.263 3.82084 1.33394 0
M  V30 5358 H 488.833 2.76565 1.45707 0
M  V30 5359 H 488.053 3.86567 -0.771979 0
M  V30 5360 H 489.341 5.05992 -0.533807 0
M  V30 5361 H 488.739 4.99961 2.6468 0
M  V30 5362 H 487.296 5.93035 2.70467 0
M  V30 5363 N 490.729 0.570148 1.46925 0
M  V30 5364 C 491.639 -0.173061 2.33961 0
M  V30 5365 C 492.655 -0.898825 1.48987 0
M  V30 5366 O 493.831 -0.864825 1.81887 0
M  V30 5367 C 490.896 -1.18177 3.25937 0
M  V30 5368 C 489.957 -0.462041 4.26806 0
M  V30 5369 C 489.19 -1.4227 5.14388 0
M  V30 5370 O 489.413 -2.65842 5.04662 0
M  V30 5371 O 488.347 -0.940127 5.94513 0
M  V30 5372 H 492.173 0.541216 2.98839 0
M  V30 5373 H 489.758 0.330647 1.45695 0
M  V30 5374 H 491.64 -1.76372 3.82715 0
M  V30 5375 H 490.315 -1.87774 2.63671 0
M  V30 5376 H 489.222 0.161429 3.73752 0
M  V30 5377 H 490.555 0.192719 4.91823 0
M  V30 5378 N 492.207 -1.54576 0.307264 0
M  V30 5379 C 493.17 -2.22423 -0.553224 0
M  V30 5380 C 494.17 -1.21231 -1.05639 0
M  V30 5381 O 495.36 -1.45923 -0.951419 0
M  V30 5382 C 492.492 -2.91552 -1.76664 0
M  V30 5383 H 493.685 -2.99874 0.0396484 0
M  V30 5384 H 491.238 -1.56192 0.0581629 0
M  V30 5385 H 491.973 -2.18196 -2.39918 0
M  V30 5386 H 491.758 -3.65738 -1.41343 0
M  V30 5387 H 493.248 -3.43292 -2.37783 0
M  V30 5388 N 493.685 -0.035106 -1.57561 0
M  V30 5389 C 494.617 0.973604 -2.07494 0
M  V30 5390 C 495.63 1.28504 -0.999534 0
M  V30 5391 O 496.819 1.24864 -1.27559 0
M  V30 5392 C 493.919 2.29945 -2.48955 0
M  V30 5393 C 493.092 2.1723 -3.79644 0
M  V30 5394 C 492.151 3.328 -4.07592 0
M  V30 5395 O 491.177 3.09418 -4.77754 0
M  V30 5396 N 492.379 4.56779 -3.58236 0
M  V30 5397 H 495.144 0.547525 -2.94656 0
M  V30 5398 H 492.705 0.151515 -1.61189 0
M  V30 5399 H 494.697 3.06097 -2.64739 0
M  V30 5400 H 493.267 2.64173 -1.67126 0
M  V30 5401 H 492.487 1.25768 -3.73599 0
M  V30 5402 H 493.775 2.05945 -4.65257 0
M  V30 5403 H 493.173 4.78668 -3.01485 0
M  V30 5404 H 491.73 5.30079 -3.79288 0
M  V30 5405 N 495.163 1.55791 0.238111 0
M  V30 5406 C 496.095 1.87513 1.31802 0
M  V30 5407 C 497.108 0.762053 1.43863 0
M  V30 5408 O 498.297 1.04024 1.45056 0
M  V30 5409 C 495.397 2.05402 2.69561 0
M  V30 5410 C 494.57 3.3632 2.79656 0
M  V30 5411 C 493.629 3.43844 3.98319 0
M  V30 5412 O 492.655 4.16994 3.87433 0
M  V30 5413 N 493.857 2.73777 5.11885 0
M  V30 5414 H 496.622 2.80734 1.04922 0
M  V30 5415 H 494.183 1.56135 0.428196 0
M  V30 5416 H 496.175 2.07769 3.47296 0
M  V30 5417 H 494.745 1.18884 2.89111 0
M  V30 5418 H 493.965 3.46195 1.88528 0
M  V30 5419 H 495.253 4.22594 2.83358 0
M  V30 5420 H 494.651 2.14094 5.23622 0
M  V30 5421 H 493.208 2.81825 5.87723 0
M  V30 5422 N 496.642 -0.504142 1.49319 0
M  V30 5423 C 497.867 -1.28729 1.62615 0
M  V30 5424 C 498.292 -1.85752 0.296309 0
M  V30 5425 O 497.65 -1.65704 -0.735649 0
M  V30 5426 C 497.698 -2.39561 2.69524 0
M  V30 5427 O 496.802 -3.43324 2.28478 0
M  V30 5428 H 496.143 -0.380172 0.544395 0
M  V30 5429 H 498.673 -0.603872 1.95485 0
M  V30 5430 H 498.683 -2.8537 2.91595 0
M  V30 5431 H 497.358 -1.97423 3.66056 0
M  V30 5432 H 495.935 -3.03455 2.16725 0
M  V30 5433 O 498.159 -1.47868 -0.649398 0
M  V30 5434 H 498.85 -1.43327 -1.30297 0
M  V30 END ATOM
M  V30 BEGIN BOND
M  V30 END BOND
M  V30 END CTAB
M  END
$$$$
