drugbank_target|P02929 Protein TonB (DB02767; DB03017; DB04147; DB08231)
 OpenBabel12092120453D

  0  0  0     0  0            999 V3000
M  V30 BEGIN CTAB
M  V30 COUNTS 3747 3800 0 0 0
M  V30 BEGIN ATOM
M  V30 1 H -0.908 1.98254 -0.117106 0
M  V30 2 N 0 1.576 0 0
M  V30 3 C 0.933 2.03868 1.02534 0
M  V30 4 C 1.911 0.928543 1.3348 0
M  V30 5 O 3.095 1.19667 1.45644 0
M  V30 6 C 0.222 2.43627 2.35294 0
M  V30 7 C -0.732 3.65373 2.2001 0
M  V30 8 S 0.101 5.13292 1.52614 0
M  V30 9 C 1.257 5.56322 2.86805 0
M  V30 10 H 1.49 2.90518 0.631377 0
M  V30 11 H -0.977 1.52953 0.210867 0
M  V30 12 H 0.981 2.67203 3.11629 0
M  V30 13 H -0.358 1.57376 2.7183 0
M  V30 14 H -1.165 3.90944 3.18086 0
M  V30 15 H -1.563 3.418 1.51819 0
M  V30 16 H 0.729 5.58782 3.83104 0
M  V30 17 H 1.672 6.56266 2.65933 0
M  V30 18 H 2.08 4.83886 2.90714 0
M  V30 19 N 1.4781 -0.272755 1.55222 0
M  V30 20 C 2.7061 -1.02255 1.79865 0
M  V30 21 C 3.1211 -1.79924 0.572088 0
M  V30 22 O 2.4781 -1.76638 -0.458842 0
M  V30 23 C 2.5291 -1.98094 3.02392 0
M  V30 24 O 2.2501 -1.23572 4.20311 0
M  V30 25 C 3.7511 -2.84884 3.39641 0
M  V30 26 H 0.9711 -0.302057 0.599168 0
M  V30 27 H 3.5151 -0.303465 2.02236 0
M  V30 28 H 1.6701 -2.65465 2.82147 0
M  V30 29 H 2.0841 -1.88172 4.89583 0
M  V30 30 H 3.5581 -3.47927 4.28545 0
M  V30 31 H 4.0351 -3.54665 2.59055 0
M  V30 32 H 4.6411 -2.23003 3.62146 0
M  V30 33 N 2.9562 -1.48159 -0.537278 0
M  V30 34 C 3.8862 -1.65029 -1.6519 0
M  V30 35 C 4.8672 -0.499281 -1.62607 0
M  V30 36 O 6.0522 -0.730972 -1.79918 0
M  V30 37 C 3.1822 -1.68303 -3.03795 0
M  V30 38 C 2.1362 -2.8283 -3.21234 0
M  V30 39 C 1.4622 -2.71189 -4.60826 0
M  V30 40 C 2.7622 -4.24211 -3.04701 0
M  V30 41 H 4.4562 -2.58341 -1.51328 0
M  V30 42 H 2.0022 -1.24325 -0.726585 0
M  V30 43 H 3.9552 -1.78693 -3.81637 0
M  V30 44 H 2.6792 -0.715635 -3.18663 0
M  V30 45 H 1.3382 -2.71983 -2.45807 0
M  V30 46 H 0.9862 -1.72435 -4.7252 0
M  V30 47 H 0.6862 -3.48035 -4.7344 0
M  V30 48 H 2.2102 -2.83537 -5.40777 0
M  V30 49 H 3.6242 -4.3593 -3.72341 0
M  V30 50 H 2.0212 -5.01998 -3.28813 0
M  V30 51 H 3.0912 -4.41184 -2.01209 0
M  V30 52 N 4.4343 0.785586 -1.36625 0
M  V30 53 C 5.7113 1.53198 -1.21613 0
M  V30 54 C 6.0913 2.10187 0.196113 0
M  V30 55 O 5.4393 1.94318 1.20219 0
M  V30 56 C 5.6493 2.62388 -2.30116 0
M  V30 57 C 6.9973 3.30167 -2.66974 0
M  V30 58 O 8.0213 2.72674 -2.29188 0
M  V30 59 O 6.8803 4.34077 -3.32023 0
M  V30 60 H 3.9743 0.677865 -0.473738 0
M  V30 61 H 6.5203 0.823739 -1.48367 0
M  V30 62 H 5.2923 2.18299 -3.24748 0
M  V30 63 H 4.9153 3.40827 -2.0475 0
M  V30 64 N 5.9124 1.20967 1.01018 0
M  V30 65 C 6.8424 0.988272 2.11555 0
M  V30 66 C 7.8234 -0.0849778 1.69888 0
M  V30 67 O 9.0084 0.0738202 1.9406 0
M  V30 68 C 6.1384 0.546528 3.42973 0
M  V30 69 C 5.0924 1.56375 3.9841 0
M  V30 70 C 4.4184 0.97842 5.25672 0
M  V30 71 C 5.7184 2.94922 4.31066 0
M  V30 72 H 7.4124 1.91276 2.30334 0
M  V30 73 H 4.9584 0.921073 1.1069 0
M  V30 74 H 6.9114 0.378839 4.19694 0
M  V30 75 H 5.6354 -0.413598 3.23971 0
M  V30 76 H 4.2944 1.71891 3.23804 0
M  V30 77 H 3.9424 0.0101688 5.02999 0
M  V30 78 H 3.6424 1.65784 5.63728 0
M  V30 79 H 5.1664 0.821939 6.05043 0
M  V30 80 H 6.5804 2.8288 4.9865 0
M  V30 81 H 4.9774 3.5983 4.80253 0
M  V30 82 H 6.0474 3.4616 3.39561 0
M  V30 83 N 7.3905 -1.2043 1.01659 0
M  V30 84 C 8.8015 -1.71517 0.737482 0
M  V30 85 C 9.1525 -1.81547 -0.743973 0
M  V30 86 O 8.2775 -1.47803 -1.58061 0
M  V30 87 C 8.8725 -3.11515 1.33206 0
M  V30 88 C 7.4315 -3.59912 1.10183 0
M  V30 89 C 6.5785 -2.37116 1.43776 0
M  V30 90 H 9.5295 -1.05444 1.18606 0
M  V30 91 H 9.5505 -3.73575 0.722636 0
M  V30 92 H 9.0625 -3.04182 2.41028 0
M  V30 93 H 7.1635 -3.72577 0.0412756 0
M  V30 94 H 7.2765 -4.44731 1.78188 0
M  V30 95 H 5.6405 -2.39857 0.856778 0
M  V30 96 H 6.4235 -2.32424 2.52654 0
M  V30 97 N 8.8686 -0.792821 -1.36206 0
M  V30 98 C 10.2846 -0.474903 -1.52371 0
M  V30 99 C 10.4846 1.00622 -1.74578 0
M  V30 100 O 9.5406 1.79162 -1.77924 0
M  V30 101 C 10.8536 -1.3083 -2.70747 0
M  V30 102 C 12.4016 -1.30234 -2.84619 0
M  V30 103 C 12.8766 -2.11956 -4.06004 0
M  V30 104 N 14.3676 -2.09419 -4.13156 0
M  V30 105 C 15.1026 -2.69419 -5.06163 0
M  V30 106 N 14.5986 -3.3829 -6.04592 0
M  V30 107 N 16.3916 -2.59134 -4.98804 0
M  V30 108 H 8.5426 -1.75222 -1.20046 0
M  V30 109 H 10.8056 -0.745024 -0.586211 0
M  V30 110 H 10.5116 -2.35881 -2.6087 0
M  V30 111 H 10.3856 -0.95196 -3.6499 0
M  V30 112 H 12.7726 -0.259748 -2.93955 0
M  V30 113 H 12.8536 -1.69847 -1.91274 0
M  V30 114 H 12.4976 -3.16248 -3.97429 0
M  V30 115 H 12.4276 -1.69711 -4.98503 0
M  V30 116 H 14.9186 -1.59297 -3.42685 0
M  V30 117 H 15.2316 -3.81394 -6.7213 0
M  V30 118 H 13.5766 -3.42393 -6.04807 0
M  V30 119 H 16.7676 -2.04927 -4.20859 0
M  V30 120 H 16.9406 -3.06185 -5.711 0
M  V30 121 N 10.3467 1.47872 -0.545128 0
M  V30 122 C 11.7627 1.5829 -0.204032 0
M  V30 123 C 11.9627 1.54529 1.29317 0
M  V30 124 O 11.0187 1.44232 2.07252 0
M  V30 125 C 12.3317 2.89304 -0.819987 0
M  V30 126 C 13.8797 3.02864 -0.790105 0
M  V30 127 C 14.3547 4.3656 -1.38491 0
M  V30 128 N 15.8457 4.43165 -1.34755 0
M  V30 129 C 16.5807 5.45153 -1.77753 0
M  V30 130 N 16.0767 6.54016 -2.2855 0
M  V30 131 N 17.8697 5.36125 -1.68897 0
M  V30 132 H 10.0207 1.4856 -1.51802 0
M  V30 133 H 12.2837 0.706305 -0.632327 0
M  V30 134 H 11.9897 2.97757 -1.87173 0
M  V30 135 H 11.8637 3.75957 -0.305915 0
M  V30 136 H 14.2507 2.94014 0.252913 0
M  V30 137 H 14.3317 2.17782 -1.34181 0
M  V30 138 H 13.9757 4.46164 -2.42693 0
M  V30 139 H 13.9057 5.20353 -0.808754 0
M  V30 140 H 16.3967 3.65083 -0.975855 0
M  V30 141 H 16.7097 7.27994 -2.59314 0
M  V30 142 H 15.0547 6.54938 -2.32553 0
M  V30 143 H 18.2457 4.49975 -1.28998 0
M  V30 144 H 18.4187 6.15472 -2.02726 0
M  V30 145 N 11.8248 0.280983 1.55075 0
M  V30 146 C 13.0718 -0.334115 1.99725 0
M  V30 147 C 13.3998 -1.5542 1.1694 0
M  V30 148 O 12.6548 -1.94361 0.228531 0
M  V30 149 C 12.9538 -0.754656 3.49342 0
M  V30 150 C 12.6198 0.361445 4.49449 0
M  V30 151 C 11.2818 0.667893 4.76542 0
M  V30 152 C 13.6338 1.11322 5.09173 0
M  V30 153 C 10.9618 1.7296 5.60626 0
M  V30 154 C 13.3138 2.1647 5.9441 0
M  V30 155 C 11.9778 2.47742 6.19822 0
M  V30 156 H 11.2478 -0.122261 0.730844 0
M  V30 157 H 13.8948 0.395917 1.87363 0
M  V30 158 H 12.1998 -1.56446 3.5921 0
M  V30 159 H 13.8968 -1.24142 3.813 0
M  V30 160 H 10.4868 0.112481 4.28452 0
M  V30 161 H 14.6708 0.88973 4.8826 0
M  V30 162 H 9.9268 1.97684 5.78559 0
M  V30 163 H 14.1008 2.75193 6.3972 0
M  V30 164 H 11.7278 3.30145 6.84769 0
M  V30 165 N 13.3029 -1.57598 0.00835791 0
M  V30 166 C 14.7139 -1.7892 -0.53333 0
M  V30 167 C 15.0649 -0.916609 -1.73473 0
M  V30 168 O 14.1899 -0.121336 -2.1606 0
M  V30 169 C 14.7849 -3.24488 -0.974313 0
M  V30 170 C 13.3439 -3.46878 -1.46125 0
M  V30 171 C 12.4909 -2.74157 -0.416302 0
M  V30 172 H 15.4419 -1.56958 0.234495 0
M  V30 173 H 15.4629 -3.3306 -1.83988 0
M  V30 174 H 14.9749 -3.87972 -0.099718 0
M  V30 175 H 13.0759 -2.8862 -2.35646 0
M  V30 176 H 13.1889 -4.55572 -1.48295 0
M  V30 177 H 11.5529 -2.39022 -0.87981 0
M  V30 178 H 12.3359 -3.40345 0.44947 0
M  V30 179 N 14.781 0.264519 -1.55364 0
M  V30 180 C 16.027 0.992314 -1.77552 0
M  V30 181 C 16.382 1.83626 -0.574379 0
M  V30 182 O 15.675 1.86648 0.432782 0
M  V30 183 C 15.869 1.9004 -3.02687 0
M  V30 184 C 15.698 1.14583 -4.34857 0
M  V30 185 C 14.468 0.858068 -4.97961 0
M  V30 186 C 16.666 0.532069 -5.1154 0
M  V30 187 N 14.648 0.0775974 -6.13851 0
M  V30 188 C 16.019 -0.113823 -6.19896 0
M  V30 189 C 18.074 0.440763 -4.95945 0
M  V30 190 C 16.777 -0.842231 -7.14352 0
M  V30 191 C 18.803 -0.274072 -5.90765 0
M  V30 192 C 18.165 -0.90867 -6.98515 0
M  V30 193 H 14.264 0.344811 -0.701875 0
M  V30 194 H 16.848 0.267141 -1.92859 0
M  V30 195 H 15.019 2.59775 -2.88741 0
M  V30 196 H 16.751 2.56243 -3.13243 0
M  V30 197 H 13.506 1.16547 -4.59036 0
M  V30 198 H 13.93 -0.300216 -6.76334 0
M  V30 199 H 18.572 0.917064 -4.12735 0
M  V30 200 H 16.29 -1.33019 -7.97077 0
M  V30 201 H 19.876 -0.345151 -5.80775 0
M  V30 202 H 18.756 -1.45299 -7.70622 0
M  V30 203 N 16.2591 1.48442 0.529413 0
M  V30 204 C 17.6701 1.5002 1.11134 0
M  V30 205 C 18.0211 0.27031 1.94329 0
M  V30 206 O 17.1461 -0.622507 2.07253 0
M  V30 207 C 17.7411 2.71834 2.02217 0
M  V30 208 C 16.3001 2.76283 2.55627 0
M  V30 209 C 15.4471 2.43542 1.326 0
M  V30 210 H 18.3981 1.5555 0.314641 0
M  V30 211 H 18.4191 2.50384 2.8651 0
M  V30 212 H 17.9311 3.61331 1.41639 0
M  V30 213 H 16.0321 1.90995 3.19924 0
M  V30 214 H 16.1451 3.77725 2.94721 0
M  V30 215 H 14.5091 1.94709 1.64196 0
M  V30 216 H 15.2921 3.3528 0.737734 0
M  V30 217 N 17.7372 -0.778329 1.37039 0
M  V30 218 C 18.9652 -1.56734 1.35063 0
M  V30 219 C 19.3802 -1.88686 -0.0655597 0
M  V30 220 O 18.7372 -1.5096 -1.02554 0
M  V30 221 C 18.7882 -2.88163 2.18276 0
M  V30 222 O 18.5092 -2.57583 3.54376 0
M  V30 223 C 20.0102 -3.82422 2.24206 0
M  V30 224 H 17.2302 -0.485778 0.462883 0
M  V30 225 H 19.7742 -0.965185 1.8029 0
M  V30 226 H 17.9292 -3.44818 1.76576 0
M  V30 227 H 18.3432 -3.41699 3.97922 0
M  V30 228 H 19.8172 -4.71667 2.86765 0
M  V30 229 H 20.2942 -4.21078 1.24861 0
M  V30 230 H 20.9002 -3.31697 2.6619 0
M  V30 231 N 19.2153 -1.21501 -1.00376 0
M  V30 232 C 20.1453 -0.999478 -2.11028 0
M  V30 233 C 21.1263 0.0759671 -1.6993 0
M  V30 234 O 22.3113 -0.0841106 -1.94018 0
M  V30 235 C 19.4413 -0.564709 -3.42678 0
M  V30 236 C 18.3953 -1.58486 -3.97576 0
M  V30 237 C 17.7213 -1.00628 -5.25146 0
M  V30 238 C 19.0213 -2.97204 -4.29496 0
M  V30 239 H 20.7153 -1.92495 -2.29317 0
M  V30 240 H 18.2613 -0.92693 -1.102 0
M  V30 241 H 20.2143 -0.401091 -4.19487 0
M  V30 242 H 18.9383 0.396411 -3.24185 0
M  V30 243 H 17.5973 -1.73606 -3.22888 0
M  V30 244 H 17.2453 -0.0368439 -5.02987 0
M  V30 245 H 16.9453 -1.68771 -5.62841 0
M  V30 246 H 18.4693 -0.854015 -6.04598 0
M  V30 247 H 19.8833 -2.8552 -4.97143 0
M  V30 248 H 18.2803 -3.62372 -4.78338 0
M  V30 249 H 19.3503 -3.47956 -3.3772 0
M  V30 250 N 20.6934 1.19889 -1.02296 0
M  V30 251 C 21.6234 2.25141 -0.619174 0
M  V30 252 C 22.6044 1.66051 0.368915 0
M  V30 253 O 23.7894 1.92546 0.252941 0
M  V30 254 C 20.9194 3.4728 0.0368783 0
M  V30 255 C 19.8734 4.19005 -0.872865 0
M  V30 256 C 19.1994 5.34637 -0.0822402 0
M  V30 257 C 20.4994 4.74452 -2.18387 0
M  V30 258 H 22.1934 2.59171 -1.49903 0
M  V30 259 H 19.7394 1.24579 -0.722222 0
M  V30 260 H 21.6924 4.20098 0.330958 0
M  V30 261 H 20.4164 3.12433 0.95149 0
M  V30 262 H 19.0754 3.48061 -1.15105 0
M  V30 263 H 18.7234 4.96034 0.83422 0
M  V30 264 H 18.4234 5.83557 -0.688149 0
M  V30 265 H 19.9474 6.10255 0.205238 0
M  V30 266 H 21.3614 5.39055 -1.95172 0
M  V30 267 H 19.7584 5.33834 -2.74119 0
M  V30 268 H 20.8284 3.92844 -2.84257 0
M  V30 269 N 22.1715 0.800033 1.35784 0
M  V30 270 C 23.3965 0.388511 2.03729 0
M  V30 271 C 23.8215 -0.990481 1.5991 0
M  V30 272 O 23.1795 -1.64013 0.772612 0
M  V30 273 C 23.2275 0.4726 3.5749 0
M  V30 274 O 22.3315 -0.51646 4.09153 0
M  V30 275 H 21.6725 0.163271 0.643614 0
M  V30 276 H 24.2025 1.0841 1.73518 0
M  V30 277 H 24.2125 0.34003 4.06581 0
M  V30 278 H 22.8875 1.47848 3.88734 0
M  V30 279 H 21.4645 -0.344673 3.71304 0
M  V30 280 N 23.6496 -1.47581 0.552962 0
M  V30 281 C 24.8956 -2.02782 0.0273648 0
M  V30 282 C 25.2286 -1.42687 -1.31734 0
M  V30 283 O 24.5036 -0.580897 -1.85623 0
M  V30 284 C 24.7866 -3.60031 -0.0702371 0
M  V30 285 C 24.6396 -4.30566 1.30126 0
M  V30 286 C 25.9586 -4.33028 -0.785771 0
M  V30 287 H 23.0776 -0.736912 0.0114185 0
M  V30 288 H 25.7196 -1.76056 0.714432 0
M  V30 289 H 23.8696 -3.82932 -0.655382 0
M  V30 290 H 25.5416 -4.19018 1.92929 0
M  V30 291 H 23.7846 -3.91086 1.87709 0
M  V30 292 H 24.4556 -5.39114 1.18573 0
M  V30 293 H 26.9316 -4.15095 -0.288982 0
M  V30 294 H 25.8076 -5.42695 -0.823013 0
M  V30 295 H 26.0686 -4.01945 -1.841 0
M  V30 296 N 25.1277 -0.289203 -1.54924 0
M  V30 297 C 26.3677 0.324536 -2.01807 0
M  V30 298 C 26.7317 1.5199 -1.17316 0
M  V30 299 O 27.9327 2.20422 -1.53843 0
M  V30 300 C 26.2037 0.683578 -3.50802 0
M  V30 301 S 27.7627 1.28185 -4.19659 0
M  V30 302 H 24.5807 0.100236 -0.703899 0
M  V30 303 H 27.1827 -0.414325 -1.91059 0
M  V30 304 H 25.8867 -0.195073 -4.09936 0
M  V30 305 H 25.4177 1.45354 -3.65562 0
M  V30 306 H 27.4327 2.57006 -4.24456 0
M  V30 307 N 26.6058 1.57591 -0.0167156 0
M  V30 308 C 27.8548 1.90461 0.663877 0
M  V30 309 C 28.1678 0.893515 1.73999 0
M  V30 310 O 29.3738 1.11302 2.47637 0
M  V30 311 C 27.8298 3.38155 1.23204 0
M  V30 312 C 27.4378 4.47597 0.189866 0
M  V30 313 C 29.1818 3.80111 1.88986 0
M  V30 314 C 27.0888 5.86379 0.768964 0
M  V30 315 H 26.0188 0.710738 0.251729 0
M  V30 316 H 28.6698 1.83326 -0.0799926 0
M  V30 317 H 27.0518 3.40182 2.02712 0
M  V30 318 H 28.2258 4.57112 -0.581846 0
M  V30 319 H 26.5408 4.14766 -0.368475 0
M  V30 320 H 29.1378 4.81145 2.33247 0
M  V30 321 H 29.4808 3.14511 2.72743 0
M  V30 322 H 30.0138 3.80454 1.16187 0
M  V30 323 H 26.7528 6.55493 -0.0301957 0
M  V30 324 H 26.2728 5.80496 1.50945 0
M  V30 325 H 27.9518 6.34563 1.26251 0
M  V30 326 N 28.0839 -0.256276 1.55502 0
M  V30 327 C 29.0339 -1.31981 1.85916 0
M  V30 328 C 30.0179 -1.43927 0.719296 0
M  V30 329 O 31.2099 -1.47326 0.981019 0
M  V30 330 C 28.3389 -2.67703 2.14918 0
M  V30 331 C 27.4249 -2.59801 3.35208 0
M  V30 332 N 27.8159 -2.21524 4.54709 0
M  V30 333 C 26.1139 -2.90832 3.38131 0
M  V30 334 C 26.8149 -2.24024 5.36832 0
M  V30 335 N 25.7909 -2.63158 4.75656 0
M  V30 336 H 29.5929 -1.01423 2.75845 0
M  V30 337 H 27.1069 -0.464911 1.55603 0
M  V30 338 H 29.1039 -3.44445 2.34869 0
M  V30 339 H 27.7639 -2.99137 1.26282 0
M  V30 340 H 28.7749 -1.93223 4.80505 0
M  V30 341 H 25.4519 -3.26867 2.59739 0
M  V30 342 H 26.8419 -1.9685 6.42417 0
M  V30 343 N 29.562 -1.4872 -0.521534 0
M  V30 344 C 30.81 -1.56857 -1.27437 0
M  V30 345 C 31.131 -0.247982 -1.93417 0
M  V30 346 O 30.401 0.731151 -1.81744 0
M  V30 347 H 28.981 -0.577885 -0.473347 0
M  V30 348 H 31.643 -1.85233 -0.606205 0
M  V30 349 H 30.739 -2.35402 -2.0492 0
M  V30 350 N 31.0401 0.771051 -1.3745 0
M  V30 351 C 32.0031 1.86598 -1.33093 0
M  V30 352 C 33.0031 1.59076 -0.234845 0
M  V30 353 O 34.1931 1.67145 -0.490732 0
M  V30 354 C 31.3251 3.23747 -1.06773 0
M  V30 355 H 32.5181 1.91873 -2.30488 0
M  V30 356 H 30.0711 0.970876 -1.2249 0
M  V30 357 H 30.8061 3.24148 -0.099129 0
M  V30 358 H 30.5911 3.45115 -1.86112 0
M  V30 359 H 32.0811 4.03824 -1.06377 0
M  V30 360 N 32.5182 1.22032 0.997298 0
M  V30 361 C 33.7642 1.04376 1.73878 0
M  V30 362 C 34.0972 -0.420716 1.89588 0
M  V30 363 O 33.3722 -1.31202 1.43583 0
M  V30 364 C 33.6552 1.75047 3.14691 0
M  V30 365 C 33.5082 3.29062 3.06656 0
M  V30 366 C 34.8272 1.49928 4.13775 0
M  V30 367 H 31.9462 0.380578 0.631133 0
M  V30 368 H 34.5882 1.50312 1.16217 0
M  V30 369 H 32.7382 1.35996 3.63919 0
M  V30 370 H 34.4102 3.7753 2.65083 0
M  V30 371 H 32.6532 3.58967 2.43568 0
M  V30 372 H 33.3242 3.73683 4.06282 0
M  V30 373 H 35.8002 1.83842 3.73285 0
M  V30 374 H 34.6762 2.01878 5.10428 0
M  V30 375 H 34.9372 0.430929 4.39995 0
M  V30 376 N 33.9963 -1.19345 1.0293 0
M  V30 377 C 35.2423 -1.89318 0.727083 0
M  V30 378 C 35.5753 -1.79446 -0.742483 0
M  V30 379 O 34.8503 -1.1871 -1.54072 0
M  V30 380 C 35.1333 -3.40238 1.17942 0
M  V30 381 C 34.9863 -3.58979 2.71024 0
M  V30 382 C 36.3053 -4.33479 0.760548 0
M  V30 383 H 33.4243 -0.687475 0.265606 0
M  V30 384 H 36.0663 -1.40477 1.2793 0
M  V30 385 H 34.2163 -3.81964 0.709608 0
M  V30 386 H 35.8883 -3.26421 3.25955 0
M  V30 387 H 34.1313 -3.02018 3.11396 0
M  V30 388 H 34.8023 -4.64823 2.9773 0
M  V30 389 H 37.2783 -3.99469 1.16464 0
M  V30 390 H 36.1543 -5.37664 1.10493 0
M  V30 391 H 36.4153 -4.40813 -0.337063 0
M  V30 392 N 35.4744 -0.807222 -1.35358 0
M  V30 393 C 36.4374 -0.223665 -2.28106 0
M  V30 394 C 37.4374 0.589354 -1.4961 0
M  V30 395 O 38.6274 0.407745 -1.69361 0
M  V30 396 C 35.7594 0.688149 -3.33882 0
M  V30 397 H 36.9524 -1.04169 -2.81227 0
M  V30 398 H 34.5054 -0.577921 -1.45223 0
M  V30 399 H 35.2404 1.52984 -2.85948 0
M  V30 400 H 35.0254 0.10687 -3.91954 0
M  V30 401 H 36.5154 1.09075 -4.03104 0
M  V30 402 N 36.9525 1.47285 -0.560781 0
M  V30 403 C 38.2005 2.02064 -0.0379868 0
M  V30 404 C 38.5215 1.43711 1.31803 0
M  V30 405 O 37.7915 0.61362 1.86042 0
M  V30 406 H 36.3715 0.746918 -0.0110531 0
M  V30 407 H 39.0335 1.80648 -0.731598 0
M  V30 408 H 38.1295 3.12064 0.0474463 0
M  V30 409 N 38.4306 0.297415 1.54768 0
M  V30 410 C 39.3606 -0.573494 2.26348 0
M  V30 411 C 40.3416 -1.14085 1.26169 0
M  V30 412 O 41.5266 -1.17086 1.54934 0
M  V30 413 C 38.6566 -1.74716 3.00153 0
M  V30 414 C 37.6106 -1.31032 4.07449 0
M  V30 415 C 36.9366 -2.56887 4.68949 0
M  V30 416 C 38.2366 -0.444183 5.20408 0
M  V30 417 H 39.9306 0.0235131 2.99391 0
M  V30 418 H 37.4766 0.0127488 1.43994 0
M  V30 419 H 39.4296 -2.3625 3.48947 0
M  V30 420 H 38.1536 -2.37035 2.24682 0
M  V30 421 H 36.8126 -0.718066 3.59499 0
M  V30 422 H 36.4606 -3.17512 3.90122 0
M  V30 423 H 36.1606 -2.2836 5.41411 0
M  V30 424 H 37.6846 -3.19229 5.20505 0
M  V30 425 H 39.0986 -0.9651 5.65118 0
M  V30 426 H 37.4956 -0.252846 5.99567 0
M  V30 427 H 38.5656 0.531609 4.81977 0
M  V30 428 N 39.9087 -1.5758 0.0250728 0
M  V30 429 C 40.8387 -2.13007 -0.956575 0
M  V30 430 C 41.8197 -1.0452 -1.342 0
M  V30 431 O 43.0047 -1.32332 -1.42133 0
M  V30 432 C 40.1347 -2.65386 -2.24026 0
M  V30 433 C 39.0887 -3.78623 -1.99571 0
M  V30 434 C 38.4147 -4.17414 -3.3417 0
M  V30 435 C 39.7147 -5.04867 -1.33814 0
M  V30 436 H 41.4087 -2.9528 -0.494991 0
M  V30 437 H 38.9547 -1.42042 -0.236651 0
M  V30 438 H 40.9077 -3.02794 -2.93076 0
M  V30 439 H 39.6317 -1.80268 -2.72343 0
M  V30 440 H 38.2907 -3.41646 -1.32941 0
M  V30 441 H 37.9387 -3.29284 -3.80238 0
M  V30 442 H 37.6387 -4.93719 -3.18615 0
M  V30 443 H 39.1627 -4.57402 -4.04495 0
M  V30 444 H 40.5767 -5.39888 -1.92857 0
M  V30 445 H 38.9737 -5.86144 -1.28669 0
M  V30 446 H 40.0437 -4.83904 -0.310561 0
M  V30 447 N 41.3868 0.248026 -1.55636 0
M  V30 448 C 42.6168 0.992367 -1.81206 0
M  V30 449 C 43.0248 1.7949 -0.598324 0
M  V30 450 O 42.3678 1.78292 0.442434 0
M  V30 451 C 42.4298 1.97926 -3.00109 0
M  V30 452 C 42.0938 1.36377 -4.36177 0
M  V30 453 C 43.0908 0.76682 -5.14214 0
M  V30 454 C 40.7758 1.38347 -4.82872 0
M  V30 455 C 42.7698 0.197778 -6.37093 0
M  V30 456 C 40.4568 0.810574 -6.057 0
M  V30 457 C 41.4548 0.218754 -6.8265 0
M  V30 458 O 41.1428 -0.345298 -8.03158 0
M  V30 459 H 40.8748 0.297704 -0.606917 0
M  V30 460 H 43.4288 0.276517 -2.0353 0
M  V30 461 H 41.6588 2.73339 -2.73538 0
M  V30 462 H 43.3478 2.58694 -3.12781 0
M  V30 463 H 44.1138 0.744114 -4.79258 0
M  V30 464 H 39.9928 1.8335 -4.2297 0
M  V30 465 H 43.5368 -0.264788 -6.97097 0
M  V30 466 H 39.4338 0.830604 -6.40134 0
M  V30 467 H 40.2018 -0.237055 -8.18157 0
M  V30 468 N 42.8649 1.48995 0.513639 0
M  V30 469 C 44.0929 1.61531 1.29288 0
M  V30 470 C 44.5079 0.281801 1.86685 0
M  V30 471 O 43.8649 -0.731111 1.67215 0
M  V30 472 C 43.9159 2.67449 2.43215 0
M  V30 473 O 43.6369 3.95626 1.88179 0
M  V30 474 C 45.1379 2.90575 3.34785 0
M  V30 475 H 42.3579 0.544165 0.392588 0
M  V30 476 H 44.9019 1.9494 0.617956 0
M  V30 477 H 43.0569 2.36853 3.0656 0
M  V30 478 H 43.4709 4.53868 2.62876 0
M  V30 479 H 44.9449 3.68449 4.11035 0
M  V30 480 H 45.4219 2.00011 3.91015 0
M  V30 481 H 46.0279 3.22538 2.77218 0
M  V30 482 N 44.343 -0.763751 1.37857 0
M  V30 483 C 45.568 -1.55805 1.36893 0
M  V30 484 C 45.993 -1.88054 -0.0416135 0
M  V30 485 O 45.351 -1.49825 -1.02089 0
M  V30 486 C 45.399 -2.84012 2.22192 0
M  V30 487 O 44.503 -3.78732 1.63204 0
M  V30 488 H 43.844 -0.471638 0.46739 0
M  V30 489 H 46.374 -0.944657 1.81487 0
M  V30 490 H 46.384 -3.33037 2.35691 0
M  V30 491 H 45.059 -2.59869 3.24716 0
M  V30 492 H 43.636 -3.37402 1.58791 0
M  V30 493 N 45.8211 -1.22559 -0.990812 0
M  V30 494 C 47.0671 -1.05297 -1.73322 0
M  V30 495 C 47.4001 0.410655 -1.89808 0
M  V30 496 O 46.6751 1.30439 -1.44277 0
M  V30 497 C 46.9581 -1.76713 -3.13759 0
M  V30 498 C 46.8111 -3.30684 -3.04907 0
M  V30 499 C 48.1301 -1.52121 -4.12974 0
M  V30 500 H 45.2491 -0.38392 -0.629106 0
M  V30 501 H 47.8911 -1.50926 -1.15418 0
M  V30 502 H 46.0411 -1.37924 -3.63193 0
M  V30 503 H 47.7131 -3.7893 -2.63077 0
M  V30 504 H 45.9561 -3.60253 -2.41661 0
M  V30 505 H 46.6271 -3.75833 -4.04294 0
M  V30 506 H 49.1031 -1.85819 -3.72304 0
M  V30 507 H 47.9791 -2.04582 -5.0935 0
M  V30 508 H 48.2401 -0.454257 -4.3976 0
M  V30 509 N 47.2992 1.18797 -1.03562 0
M  V30 510 C 48.2492 2.20161 -0.592724 0
M  V30 511 C 49.2332 1.56772 0.362133 0
M  V30 512 O 50.4252 1.76062 0.182009 0
M  V30 513 C 47.5542 3.43266 0.0481024 0
M  V30 514 C 46.6402 4.13786 -0.9296 0
M  V30 515 N 47.0312 4.60388 -2.09467 0
M  V30 516 C 45.3292 4.39572 -0.754499 0
M  V30 517 C 46.0302 5.14619 -2.71187 0
M  V30 518 N 45.0062 5.05826 -1.991 0
M  V30 519 H 48.8082 2.53877 -1.48066 0
M  V30 520 H 46.3222 1.34946 -0.903514 0
M  V30 521 H 48.3192 4.15136 0.383058 0
M  V30 522 H 46.9792 3.11048 0.931636 0
M  V30 523 H 47.9902 4.54999 -2.47379 0
M  V30 524 H 44.6672 4.17425 0.0793713 0
M  V30 525 H 46.0572 5.60917 -3.69895 0
M  V30 526 N 48.7773 0.814389 1.34928 0
M  V30 527 C 49.7093 0.187834 2.28429 0
M  V30 528 C 50.7223 -0.617374 1.5064 0
M  V30 529 O 51.9113 -0.448454 1.72775 0
M  V30 530 C 49.0113 -0.755962 3.30361 0
M  V30 531 C 48.1843 0.00456686 4.374 0
M  V30 532 C 47.2433 -0.858876 5.19143 0
M  V30 533 O 46.2693 -0.306968 5.68372 0
M  V30 534 N 47.4713 -2.17988 5.38016 0
M  V30 535 H 50.2363 0.991105 2.82838 0
M  V30 536 H 47.7973 0.670561 1.4736 0
M  V30 537 H 49.7893 -1.338 3.81942 0
M  V30 538 H 48.3593 -1.46001 2.7641 0
M  V30 539 H 47.5793 0.767865 3.86649 0
M  V30 540 H 48.8673 0.528422 5.06049 0
M  V30 541 H 48.2653 -2.65212 4.99679 0
M  V30 542 H 46.8223 -2.71098 5.92747 0
M  V30 543 N 50.2554 -1.46986 0.568584 0
M  V30 544 C 51.5014 -2.02741 0.0488709 0
M  V30 545 C 51.8344 -1.44077 -1.30214 0
M  V30 546 O 51.1094 -0.600552 -1.84996 0
M  V30 547 C 51.3924 -3.60086 -0.032047 0
M  V30 548 C 51.2454 -4.29162 1.34686 0
M  V30 549 C 52.5644 -4.33838 -0.739798 0
M  V30 550 H 49.6834 -0.736749 0.0192338 0
M  V30 551 H 52.3254 -1.75289 0.733065 0
M  V30 552 H 50.4754 -3.83606 -0.61473 0
M  V30 553 H 52.1474 -4.16948 1.97362 0
M  V30 554 H 50.3904 -3.89073 1.91846 0
M  V30 555 H 51.0614 -5.37826 1.24285 0
M  V30 556 H 53.5374 -4.15378 -0.244939 0
M  V30 557 H 52.4134 -5.43537 -0.765406 0
M  V30 558 H 52.6744 -4.03875 -1.79827 0
M  V30 559 N 51.7335 -0.305618 -1.54608 0
M  V30 560 C 52.9825 0.303098 -1.9941 0
M  V30 561 C 53.2955 1.54648 -1.19764 0
M  V30 562 O 54.5015 2.23007 -1.54855 0
M  V30 563 C 52.9575 0.590588 -3.55021 0
M  V30 564 C 52.5655 -0.634719 -4.43481 0
M  V30 565 C 54.3095 1.16025 -4.08336 0
M  V30 566 C 52.2165 -0.320126 -5.90533 0
M  V30 567 H 51.1465 0.117031 -0.744862 0
M  V30 568 H 53.7975 -0.415045 -1.78745 0
M  V30 569 H 52.1795 1.36845 -3.71604 0
M  V30 570 H 53.3535 -1.41079 -4.38672 0
M  V30 571 H 51.6685 -1.12333 -4.00962 0
M  V30 572 H 54.2655 1.40994 -5.15776 0
M  V30 573 H 54.6085 2.10397 -3.5922 0
M  V30 574 H 55.1415 0.443985 -3.95315 0
M  V30 575 H 51.8805 -1.23254 -6.43808 0
M  V30 576 H 51.4005 0.418579 -5.98338 0
M  V30 577 H 53.0795 0.0766241 -6.46955 0
M  V30 578 N 53.2116 1.57565 -0.0334293 0
M  V30 579 C 54.1216 2.13943 0.962572 0
M  V30 580 C 55.1376 1.09276 1.35406 0
M  V30 581 O 56.3136 1.41355 1.4346 0
M  V30 582 C 53.3786 2.65887 2.22497 0
M  V30 583 C 52.4396 3.85286 1.8935 0
M  V30 584 C 51.6726 4.34743 3.09571 0
M  V30 585 O 51.8956 3.83352 4.22371 0
M  V30 586 O 50.8296 5.26538 2.91618 0
M  V30 587 H 54.6556 2.99333 0.513169 0
M  V30 588 H 52.2406 1.4822 0.18743 0
M  V30 589 H 54.1226 2.99346 2.96598 0
M  V30 590 H 52.7976 1.83578 2.6661 0
M  V30 591 H 51.7046 3.56746 1.1262 0
M  V30 592 H 53.0376 4.68771 1.5005 0
M  V30 593 N 54.6897 -0.239769 1.55765 0
M  V30 594 C 55.6197 -1.30052 1.9393 0
M  V30 595 C 56.6007 -1.49839 0.805132 0
M  V30 596 O 57.7857 -1.62328 1.06599 0
M  V30 597 C 54.9157 -2.65391 2.2402 0
M  V30 598 C 53.8697 -2.60289 3.39755 0
M  V30 599 C 53.1957 -3.99489 3.55405 0
M  V30 600 C 54.4957 -2.16654 4.75246 0
M  V30 601 H 56.1897 -0.983573 2.82783 0
M  V30 602 H 53.7357 -0.471701 1.36055 0
M  V30 603 H 55.6887 -3.3974 2.49308 0
M  V30 604 H 54.4127 -2.98736 1.32 0
M  V30 605 H 53.0717 -1.88398 3.14487 0
M  V30 606 H 52.7197 -4.30112 2.60793 0
M  V30 607 H 52.4197 -3.96962 4.33238 0
M  V30 608 H 53.9437 -4.75528 3.83022 0
M  V30 609 H 55.3577 -2.80737 4.99859 0
M  V30 610 H 53.7547 -2.25223 5.56232 0
M  V30 611 H 54.8247 -1.11835 4.71827 0
M  V30 612 N 56.1678 -1.49265 -0.50573 0
M  V30 613 C 57.5788 -1.51769 -1.08734 0
M  V30 614 C 57.9298 -0.301192 -1.93874 0
M  V30 615 O 57.0548 0.589456 -2.08217 0
M  V30 616 C 57.6498 -2.75017 -1.97867 0
M  V30 617 C 56.2088 -2.80314 -2.51199 0
M  V30 618 C 55.3558 -2.4562 -1.28709 0
M  V30 619 H 58.3068 -1.56031 -0.289855 0
M  V30 620 H 58.3278 -2.5491 -2.82491 0
M  V30 621 H 57.8398 -3.63539 -1.35873 0
M  V30 622 H 55.9408 -1.96061 -3.16845 0
M  V30 623 H 56.0538 -3.82366 -2.88675 0
M  V30 624 H 54.4178 -1.97297 -1.61078 0
M  V30 625 H 55.2008 -3.36411 -0.6843 0
M  V30 626 N 57.6459 0.756429 -1.3826 0
M  V30 627 C 58.6089 1.85176 -1.35065 0
M  V30 628 C 59.6089 1.58818 -0.251703 0
M  V30 629 O 60.7989 1.66615 -0.508433 0
M  V30 630 C 57.9309 3.22596 -1.10201 0
M  V30 631 H 59.1239 1.89417 -2.3251 0
M  V30 632 H 56.6769 0.95783 -1.23512 0
M  V30 633 H 57.4119 3.24025 -0.133504 0
M  V30 634 H 57.1969 3.43122 -1.89762 0
M  V30 635 H 58.6869 4.02673 -1.10654 0
M  V30 636 N 59.124 1.23083 0.984299 0
M  V30 637 C 60.535 1.05609 1.5396 0
M  V30 638 C 60.886 -0.377793 1.92528 0
M  V30 639 O 60.011 -1.26398 1.75649 0
M  V30 640 C 60.606 1.91087 2.7977 0
M  V30 641 C 59.165 1.77885 3.31713 0
M  V30 642 C 58.312 1.87028 2.04733 0
M  V30 643 H 61.263 1.36802 0.804419 0
M  V30 644 H 61.284 1.43336 3.5247 0
M  V30 645 H 60.796 2.9544 2.51668 0
M  V30 646 H 58.897 0.762995 3.64704 0
M  V30 647 H 59.01 2.61047 4.01735 0
M  V30 648 H 57.374 1.30565 2.18689 0
M  V30 649 H 58.157 2.92929 1.79017 0
M  V30 650 N 60.6021 -1.18246 1.0419 0
M  V30 651 C 61.5651 -2.20128 0.638452 0
M  V30 652 C 62.5651 -1.57885 -0.304805 0
M  V30 653 O 63.7551 -1.73967 -0.0900369 0
M  V30 654 C 60.8871 -3.4084 -0.0637751 0
M  V30 655 H 62.0801 -2.57336 1.54007 0
M  V30 656 H 59.6331 -1.32152 0.834598 0
M  V30 657 H 60.3681 -3.09166 -0.979136 0
M  V30 658 H 60.1531 -3.8726 0.614198 0
M  V30 659 H 61.6431 -4.16274 -0.332512 0
M  V30 660 N 62.0802 -0.821533 -1.34494 0
M  V30 661 C 63.0122 -0.199946 -2.28326 0
M  V30 662 C 64.0252 0.609377 -1.50965 0
M  V30 663 O 65.2142 0.439285 -1.7301 0
M  V30 664 C 62.3142 0.738431 -3.30757 0
M  V30 665 C 61.4872 -0.0277632 -4.37391 0
M  V30 666 C 60.5462 0.831332 -5.19591 0
M  V30 667 O 59.5722 0.276822 -5.68526 0
M  V30 668 N 60.7742 2.15132 -5.39165 0
M  V30 669 H 63.5392 -1.00609 -2.82308 0
M  V30 670 H 61.1002 -0.678366 -1.47003 0
M  V30 671 H 63.0922 1.31773 -3.82646 0
M  V30 672 H 61.6622 1.44533 -2.7718 0
M  V30 673 H 60.8822 -0.788359 -3.86236 0
M  V30 674 H 62.1702 -0.555251 -5.05761 0
M  V30 675 H 61.5682 2.62559 -5.01078 0
M  V30 676 H 60.1252 2.6795 -5.94177 0
M  V30 677 N 63.5583 1.46682 -0.576371 0
M  V30 678 C 64.9693 1.86112 -0.148091 0
M  V30 679 C 65.3203 1.48073 1.2872 0
M  V30 680 O 64.4453 0.892656 1.97131 0
M  V30 681 C 65.0403 3.37786 -0.261982 0
M  V30 682 C 63.5993 3.76235 0.111384 0
M  V30 683 C 62.7463 2.70713 -0.60083 0
M  V30 684 H 65.6973 1.37927 -0.78497 0
M  V30 685 H 65.7183 3.77007 0.514364 0
M  V30 686 H 65.2303 3.6544 -1.30671 0
M  V30 687 H 63.3313 3.54198 1.15649 0
M  V30 688 H 63.4443 4.78391 -0.26052 0
M  V30 689 H 61.8083 2.54666 -0.0417783 0
M  V30 690 H 62.5913 3.01208 -1.64708 0
M  V30 691 N 65.0364 0.313813 1.54444 0
M  V30 692 C 66.2854 -0.292519 1.99568 0
M  V30 693 C 66.5984 -1.54011 1.20582 0
M  V30 694 O 67.8044 -2.22183 1.56035 0
M  V30 695 C 66.2604 -0.571752 3.55329 0
M  V30 696 C 65.8684 0.658229 4.43138 0
M  V30 697 C 67.6124 -1.13857 4.08946 0
M  V30 698 C 65.5194 0.351439 5.90355 0
M  V30 699 H 64.4494 -0.113079 0.745472 0
M  V30 700 H 67.1004 0.424518 1.78522 0
M  V30 701 H 65.4824 -1.34872 3.72325 0
M  V30 702 H 66.6564 1.43403 4.37918 0
M  V30 703 H 64.9714 1.14458 4.0036 0
M  V30 704 H 67.5684 -1.38257 5.16516 0
M  V30 705 H 67.9114 -2.08489 3.6033 0
M  V30 706 H 68.4444 -0.423015 3.95544 0
M  V30 707 H 65.1834 1.26667 6.43145 0
M  V30 708 H 64.7034 -0.386842 5.98551 0
M  V30 709 H 66.3824 -0.0423134 6.46986 0
M  V30 710 N 66.5145 -1.57545 0.0417849 0
M  V30 711 C 67.7395 -1.97035 -0.647455 0
M  V30 712 C 68.1645 -0.918775 -1.64135 0
M  V30 713 O 67.5225 0.119006 -1.80909 0
M  V30 714 C 67.5705 -3.35609 -1.31905 0
M  V30 715 O 66.6745 -3.3287 -2.43457 0
M  V30 716 H 66.0155 -0.64211 -0.169086 0
M  V30 717 H 68.5455 -2.04318 0.107399 0
M  V30 718 H 68.5555 -3.72126 -1.67291 0
M  V30 719 H 67.2305 -4.11685 -0.590586 0
M  V30 720 H 65.8075 -3.08087 -2.10088 0
M  V30 721 N 67.9926 0.231505 -1.5589 0
M  V30 722 C 69.2386 0.95877 -1.78705 0
M  V30 723 C 69.5716 1.8438 -0.609725 0
M  V30 724 O 68.8466 1.90521 0.391426 0
M  V30 725 C 69.1296 1.8062 -3.11526 0
M  V30 726 C 68.9826 0.948328 -4.39689 0
M  V30 727 C 70.3016 2.78585 -3.40703 0
M  V30 728 H 67.4206 0.347129 -0.650131 0
M  V30 729 H 70.0626 0.228259 -1.88624 0
M  V30 730 H 68.2126 2.42902 -3.03201 0
M  V30 731 H 69.8846 0.343016 -4.60023 0
M  V30 732 H 68.1276 0.253314 -4.3306 0
M  V30 733 H 68.7986 1.57543 -5.29041 0
M  V30 734 H 71.2746 2.26439 -3.49091 0
M  V30 735 H 70.1506 3.34988 -4.34826 0
M  V30 736 H 70.4116 3.55825 -2.62375 0
M  V30 737 N 69.4707 1.49531 0.497807 0
M  V30 738 C 70.6987 1.62893 1.27567 0
M  V30 739 C 71.1137 0.301585 1.86376 0
M  V30 740 O 70.4707 -0.713335 1.67982 0
M  V30 741 C 70.5217 2.70013 2.40364 0
M  V30 742 O 70.2427 3.976 1.83972 0
M  V30 743 C 71.7437 2.94109 3.31685 0
M  V30 744 H 68.9637 0.548298 0.386794 0
M  V30 745 H 71.5077 1.95584 0.597245 0
M  V30 746 H 69.6627 2.40092 3.04031 0
M  V30 747 H 70.0767 4.56631 2.58047 0
M  V30 748 H 71.5507 3.72788 4.07104 0
M  V30 749 H 72.0277 2.04147 3.88871 0
M  V30 750 H 72.6337 3.2546 2.73781 0
M  V30 751 N 70.9488 -0.749086 1.3866 0
M  V30 752 C 71.8818 -1.87111 1.30631 0
M  V30 753 C 72.8598 -1.61572 0.18251 0
M  V30 754 O 74.0438 -1.85019 0.360592 0
M  V30 755 C 71.1708 -3.22815 1.02511 0
M  V30 756 C 70.2168 -3.67234 2.1689 0
M  V30 757 S 71.0498 -3.78245 3.79066 0
M  V30 758 C 72.2058 -5.16761 3.53142 0
M  V30 759 H 72.4388 -1.93636 2.25594 0
M  V30 760 H 69.9718 -0.912525 1.24549 0
M  V30 761 H 71.9298 -4.01181 0.869701 0
M  V30 762 H 70.5908 -3.13964 0.0925884 0
M  V30 763 H 69.7838 -4.65677 1.92771 0
M  V30 764 H 69.3858 -2.96034 2.28561 0
M  V30 765 H 71.6778 -6.02656 3.09534 0
M  V30 766 H 72.6208 -5.45902 4.50995 0
M  V30 767 H 73.0288 -4.85771 2.87554 0
M  V30 768 N 72.4269 -1.23603 -0.977757 0
M  V30 769 C 73.6729 -1.07129 -1.72195 0
M  V30 770 C 74.0059 0.390501 -1.90233 0
M  V30 771 O 73.2809 1.28902 -1.45653 0
M  V30 772 C 73.5639 -1.80031 -3.11867 0
M  V30 773 C 73.4169 -3.33899 -3.01383 0
M  V30 774 C 74.7359 -1.56492 -4.11337 0
M  V30 775 H 71.8549 -0.390571 -0.624999 0
M  V30 776 H 74.4969 -1.52142 -1.13811 0
M  V30 777 H 72.6469 -1.41768 -3.6171 0
M  V30 778 H 74.3189 -3.81699 -2.59043 0
M  V30 779 H 72.5619 -3.62796 -2.37827 0
M  V30 780 H 73.2329 -3.801 -4.00285 0
M  V30 781 H 75.7089 -1.89757 -3.70313 0
M  V30 782 H 74.5849 -2.09973 -5.07151 0
M  V30 783 H 74.8459 -0.500874 -4.39254 0
M  V30 784 N 73.905 1.17692 -1.04816 0
M  V30 785 C 75.133 1.91786 -0.776254 0
M  V30 786 C 75.548 1.76604 0.667577 0
M  V30 787 O 74.905 1.10067 1.45573 0
M  V30 788 C 74.956 3.42967 -1.14263 0
M  V30 789 O 74.677 3.57678 -2.52978 0
M  V30 790 C 76.178 4.34144 -0.896311 0
M  V30 791 H 73.398 0.608624 -0.282519 0
M  V30 792 H 75.942 1.49268 -1.39783 0
M  V30 793 H 74.097 3.83245 -0.565874 0
M  V30 794 H 74.511 4.51319 -2.67229 0
M  V30 795 H 75.985 5.38744 -1.20244 0
M  V30 796 H 76.462 4.38876 0.168636 0
M  V30 797 H 77.068 3.99574 -1.45672 0
M  V30 798 N 75.3831 0.828654 1.34056 0
M  V30 799 C 76.7941 0.477534 1.8049 0
M  V30 800 C 77.1451 -1.00258 1.6865 0
M  V30 801 O 76.2701 -1.78057 1.22982 0
M  V30 802 C 76.8651 0.860018 3.27703 0
M  V30 803 C 75.4241 0.561185 3.72193 0
M  V30 804 C 74.5711 1.07385 2.55663 0
M  V30 805 H 77.5221 1.0183 1.21722 0
M  V30 806 H 77.5431 0.166038 3.80138 0
M  V30 807 H 77.0551 1.93731 3.36288 0
M  V30 808 H 75.1561 -0.506465 3.69142 0
M  V30 809 H 75.2691 1.10926 4.66082 0
M  V30 810 H 73.6331 0.495149 2.49841 0
M  V30 811 H 74.4161 2.15771 2.67016 0
M  V30 812 N 76.8612 -1.46375 0.584142 0
M  V30 813 C 77.8242 -2.28784 -0.138108 0
M  V30 814 C 78.8242 -1.38471 -0.817462 0
M  V30 815 O 80.0142 -1.60833 -0.669199 0
M  V30 816 C 77.1462 -3.18892 -1.20503 0
M  V30 817 H 78.3392 -2.94117 0.586127 0
M  V30 818 H 75.8922 -1.52509 0.342171 0
M  V30 819 H 76.6272 -2.58309 -1.96079 0
M  V30 820 H 76.4122 -3.85388 -0.722384 0
M  V30 821 H 77.9022 -3.80914 -1.71155 0
M  V30 822 N 78.3393 -0.321999 -1.54275 0
M  V30 823 C 79.6163 0.335232 -1.92706 0
M  V30 824 C 79.9963 1.70006 -1.25145 0
M  V30 825 O 79.3443 2.25067 -0.394596 0
M  V30 826 C 79.5543 0.429008 -3.46353 0
M  V30 827 C 80.9023 0.690029 -4.18956 0
M  V30 828 O 81.9263 0.511992 -3.52501 0
M  V30 829 O 80.7853 1.03338 -5.36641 0
M  V30 830 H 77.8793 0.191143 -0.804608 0
M  V30 831 H 80.4253 -0.3716 -1.65581 0
M  V30 832 H 79.1973 -0.529611 -3.87699 0
M  V30 833 H 78.8203 1.18348 -3.79578 0
M  V30 834 N 79.8174 1.5752 -0.0501392 0
M  V30 835 C 80.7474 2.14502 0.922566 0
M  V30 836 C 81.7284 1.06642 1.3252 0
M  V30 837 O 82.9134 1.34577 1.4001 0
M  V30 838 C 80.0434 2.68916 2.19776 0
M  V30 839 C 78.9974 3.8175 1.93523 0
M  V30 840 C 78.3234 4.22677 3.27487 0
M  V30 841 C 79.6234 5.06932 1.25765 0
M  V30 842 H 81.3174 2.9603 0.447952 0
M  V30 843 H 78.8634 1.42401 0.214024 0
M  V30 844 H 80.8164 3.07419 2.88222 0
M  V30 845 H 79.5404 1.84578 2.69441 0
M  V30 846 H 78.1994 3.43718 1.27489 0
M  V30 847 H 77.8474 3.35291 3.74952 0
M  V30 848 H 77.5474 4.98725 3.1072 0
M  V30 849 H 79.0714 4.63779 3.97166 0
M  V30 850 H 80.4854 5.42888 1.84244 0
M  V30 851 H 78.8824 5.88116 1.19328 0
M  V30 852 H 79.9524 4.84337 0.233536 0
M  V30 853 N 81.2955 -0.223234 1.56011 0
M  V30 854 C 82.2055 -1.29766 1.95443 0
M  V30 855 C 83.2215 -1.51373 0.858028 0
M  V30 856 O 84.3975 -1.64536 1.16146 0
M  V30 857 C 81.4625 -2.62772 2.26167 0
M  V30 858 C 80.5235 -2.49482 3.49367 0
M  V30 859 C 79.7565 -3.76145 3.78616 0
M  V30 860 O 79.9795 -4.79087 3.09568 0
M  V30 861 O 78.9135 -3.73358 4.72109 0
M  V30 862 H 82.7395 -0.99309 2.87004 0
M  V30 863 H 80.3245 -0.425958 1.43199 0
M  V30 864 H 82.2065 -3.41327 2.47131 0
M  V30 865 H 80.8815 -2.92913 1.37781 0
M  V30 866 H 79.7885 -1.69133 3.33684 0
M  V30 867 H 81.1215 -2.2428 4.38131 0
M  V30 868 N 82.7736 -1.49793 -0.48987 0
M  V30 869 C 84.1846 -1.52914 -1.07118 0
M  V30 870 C 84.5356 -0.321738 -1.93544 0
M  V30 871 O 83.6606 0.567338 -2.08831 0
M  V30 872 C 84.2556 -2.771 -1.94938 0
M  V30 873 C 82.8146 -2.82963 -2.48212 0
M  V30 874 C 81.9616 -2.46972 -1.26096 0
M  V30 875 H 84.9126 -1.56329 -0.273289 0
M  V30 876 H 84.9336 -2.57892 -2.79771 0
M  V30 877 H 84.4456 -3.64959 -1.32009 0
M  V30 878 H 82.5466 -1.99411 -3.14748 0
M  V30 879 H 82.6596 -3.85406 -2.84603 0
M  V30 880 H 81.0236 -1.98994 -1.58976 0
M  V30 881 H 81.8066 -3.37118 -0.648581 0
M  V30 882 N 84.2517 0.741722 -1.39055 0
M  V30 883 C 85.6627 1.31966 -1.32068 0
M  V30 884 C 86.0137 1.96192 0.0180797 0
M  V30 885 O 85.1387 1.95861 0.920196 0
M  V30 886 C 85.7337 2.39954 -2.39181 0
M  V30 887 C 84.2927 2.93438 -2.35735 0
M  V30 888 C 83.4397 1.66936 -2.21422 0
M  V30 889 H 86.3907 0.539721 -1.4924 0
M  V30 890 H 86.4117 3.20182 -2.05581 0
M  V30 891 H 85.9237 1.9318 -3.36605 0
M  V30 892 H 84.0247 3.4451 -1.41929 0
M  V30 893 H 84.1377 3.4701 -3.30335 0
M  V30 894 H 82.5017 1.91016 -1.68478 0
M  V30 895 H 83.2847 1.22224 -3.20806 0
M  V30 896 N 85.7298 1.2412 0.971189 0
M  V30 897 C 86.6618 0.988349 2.06795 0
M  V30 898 C 87.6748 -0.0409541 1.62748 0
M  V30 899 O 88.8638 0.195673 1.77424 0
M  V30 900 C 85.9638 0.469023 3.35639 0
M  V30 901 C 85.1368 1.56065 4.08611 0
M  V30 902 C 84.1958 1.04458 5.15728 0
M  V30 903 O 83.2218 1.73553 5.42096 0
M  V30 904 N 84.4238 -0.122817 5.8037 0
M  V30 905 H 87.1888 1.93265 2.29061 0
M  V30 906 H 84.7498 1.15102 1.13856 0
M  V30 907 H 86.7418 0.108613 4.04554 0
M  V30 908 H 85.3118 -0.380919 3.1027 0
M  V30 909 H 84.5318 2.09341 3.34021 0
M  V30 910 H 85.8198 2.29449 4.54126 0
M  V30 911 H 85.2178 -0.700563 5.61345 0
M  V30 912 H 83.7748 -0.424404 6.50417 0
M  V30 913 N 87.2079 -1.17134 1.05439 0
M  V30 914 C 88.1709 -2.19439 0.661764 0
M  V30 915 C 89.1709 -1.58199 -0.288042 0
M  V30 916 O 90.3609 -1.74053 -0.0715803 0
M  V30 917 C 87.4929 -3.40889 -0.0276209 0
M  V30 918 H 88.6859 -2.55688 1.56728 0
M  V30 919 H 86.2389 -1.31259 0.848567 0
M  V30 920 H 86.9739 -3.10187 -0.94629 0
M  V30 921 H 86.7589 -3.86586 0.655238 0
M  V30 922 H 88.2489 -4.16603 -0.288342 0
M  V30 923 N 88.686 -0.835752 -1.33615 0
M  V30 924 C 89.932 -0.430596 -1.98176 0
M  V30 925 C 90.265 1.00684 -1.66061 0
M  V30 926 O 89.54 1.70339 -0.938877 0
M  V30 927 C 89.823 -0.648065 -3.5422 0
M  V30 928 C 89.676 -2.13255 -3.96033 0
M  V30 929 C 90.995 -0.0922113 -4.40003 0
M  V30 930 H 88.114 -0.157924 -0.719881 0
M  V30 931 H 90.756 -1.05069 -1.58305 0
M  V30 932 H 88.906 -0.120237 -3.88314 0
M  V30 933 H 90.578 -2.725 -3.72211 0
M  V30 934 H 88.821 -2.61823 -3.45878 0
M  V30 935 H 89.492 -2.23547 -5.04708 0
M  V30 936 H 91.968 -0.543343 -4.12537 0
M  V30 937 H 90.844 -0.274083 -5.48215 0
M  V30 938 H 91.105 1.00378 -4.30554 0
M  V30 939 N 90.1641 1.46063 -0.591896 0
M  V30 940 C 91.0961 2.28539 0.174001 0
M  V30 941 C 92.1091 1.39047 0.846753 0
M  V30 942 O 93.2981 1.63564 0.714774 0
M  V30 943 C 90.3981 3.14347 1.26645 0
M  V30 944 C 89.5711 4.32021 0.683856 0
M  V30 945 C 88.6301 4.99157 1.66518 0
M  V30 946 O 87.6561 5.56458 1.19763 0
M  V30 947 N 88.8581 4.97005 2.99943 0
M  V30 948 H 91.6231 2.94911 -0.533633 0
M  V30 949 H 89.1841 1.56077 -0.430294 0
M  V30 950 H 91.1761 3.56125 1.92242 0
M  V30 951 H 89.7461 2.49988 1.87682 0
M  V30 952 H 88.9661 3.93915 -0.1498 0
M  V30 953 H 90.2541 5.08059 0.274567 0
M  V30 954 H 89.6521 4.51714 3.40545 0
M  V30 955 H 88.2091 5.42696 3.61004 0
M  V30 956 N 91.6422 0.330177 1.54103 0
M  V30 957 C 93.0532 -0.15652 1.86043 0
M  V30 958 C 93.4042 -1.51086 1.2517 0
M  V30 959 O 92.5292 -2.09023 0.560217 0
M  V30 960 C 93.1242 -0.290784 3.3755 0
M  V30 961 C 91.6832 -0.721705 3.69416 0
M  V30 962 C 90.8302 0.152622 2.7688 0
M  V30 963 H 93.7812 0.550237 1.48856 0
M  V30 964 H 93.8022 -1.12058 3.63625 0
M  V30 965 H 93.3142 0.695068 3.81825 0
M  V30 966 H 91.4152 -1.71706 3.30678 0
M  V30 967 H 91.5282 -0.520869 4.7626 0
M  V30 968 H 89.8922 -0.372894 2.51956 0
M  V30 969 H 90.6752 1.13536 3.23982 0
M  V30 970 N 93.1203 -1.57491 0.0584922 0
M  V30 971 C 94.5313 -1.80526 -0.476138 0
M  V30 972 C 94.8823 -0.971334 -1.70469 0
M  V30 973 O 94.0073 -0.190012 -2.15564 0
M  V30 974 C 94.6023 -3.27424 -0.870587 0
M  V30 975 C 93.1613 -3.51351 -1.35015 0
M  V30 976 C 92.3083 -2.75343 -0.32887 0
M  V30 977 H 95.2593 -1.56133 0.284312 0
M  V30 978 H 95.2803 -3.38745 -1.73299 0
M  V30 979 H 94.7923 -3.88093 0.0237627 0
M  V30 980 H 92.8933 -2.95971 -2.26345 0
M  V30 981 H 93.0063 -4.60059 -1.33726 0
M  V30 982 H 91.3703 -2.417 -0.803321 0
M  V30 983 H 92.1533 -3.38743 0.557521 0
M  V30 984 N 94.5984 0.214957 -1.56127 0
M  V30 985 C 96.0094 0.781386 -1.69562 0
M  V30 986 C 96.3604 1.84707 -0.66165 0
M  V30 987 O 95.4854 2.156 0.185927 0
M  V30 988 C 96.0804 1.42411 -3.07416 0
M  V30 989 C 94.6394 1.93786 -3.22683 0
M  V30 990 C 93.7864 0.800438 -2.65496 0
M  V30 991 H 96.7374 -0.00980633 -1.58697 0
M  V30 992 H 96.7584 2.29309 -3.0364 0
M  V30 993 H 96.2704 0.64826 -3.82648 0
M  V30 994 H 94.3714 2.74152 -2.52332 0
M  V30 995 H 94.4844 2.1133 -4.29973 0
M  V30 996 H 92.8484 1.2095 -2.2415 0
M  V30 997 H 93.6314 0.0371471 -3.4328 0
M  V30 998 N 96.0765 1.50051 0.48192 0
M  V30 999 C 96.9865 1.7089 1.60728 0
M  V30 1000 C 98.0025 0.591788 1.63627 0
M  V30 1001 O 99.1785 0.868817 1.81696 0
M  V30 1002 C 96.2435 1.78855 2.97005 0
M  V30 1003 C 95.3045 3.02537 3.04581 0
M  V30 1004 C 94.5375 3.10112 4.34357 0
M  V30 1005 O 94.7605 2.24765 5.24249 0
M  V30 1006 O 93.6945 4.02747 4.47301 0
M  V30 1007 H 97.5205 2.66264 1.46072 0
M  V30 1008 H 95.1055 1.34018 0.660264 0
M  V30 1009 H 96.9875 1.86336 3.77964 0
M  V30 1010 H 95.6625 0.866628 3.11883 0
M  V30 1011 H 94.5695 3.00563 2.22739 0
M  V30 1012 H 95.9025 3.94272 2.94636 0
M  V30 1013 N 97.5546 -0.734337 1.39446 0
M  V30 1014 C 98.9656 -1.31264 1.32766 0
M  V30 1015 C 99.3166 -1.96198 -0.00767497 0
M  V30 1016 O 98.4416 -1.96346 -0.909796 0
M  V30 1017 C 99.0366 -2.38682 2.4045 0
M  V30 1018 C 97.5956 -2.92184 2.37288 0
M  V30 1019 C 96.7426 -1.6576 2.22304 0
M  V30 1020 H 99.6936 -0.531799 1.49525 0
M  V30 1021 H 99.7146 -3.19087 2.07276 0
M  V30 1022 H 99.2266 -1.91392 3.37625 0
M  V30 1023 H 97.3276 -3.43752 1.43754 0
M  V30 1024 H 97.4406 -3.45253 3.3217 0
M  V30 1025 H 95.8046 -1.9012 1.69489 0
M  V30 1026 H 96.5876 -1.20521 3.21449 0
M  V30 1027 N 99.0327 -1.24633 -0.964593 0
M  V30 1028 C 100.279 -1.08949 -1.71049 0
M  V30 1029 C 100.612 0.370302 -1.90637 0
M  V30 1030 O 99.8867 1.27349 -1.47011 0
M  V30 1031 C 100.17 -1.83329 -3.0994 0
M  V30 1032 C 100.023 -3.37077 -2.97824 0
M  V30 1033 C 101.342 -1.60846 -4.09654 0
M  V30 1034 H 98.4607 -0.397178 -0.620821 0
M  V30 1035 H 101.103 -1.5334 -1.12191 0
M  V30 1036 H 99.2527 -1.45597 -3.60186 0
M  V30 1037 H 100.925 -3.84425 -2.5498 0
M  V30 1038 H 99.1677 -3.65298 -2.33965 0
M  V30 1039 H 99.8387 -3.84324 -3.96231 0
M  V30 1040 H 102.315 -1.93674 -3.68279 0
M  V30 1041 H 101.191 -2.1534 -5.04896 0
M  V30 1042 H 101.452 -0.547434 -4.38698 0
M  V30 1043 N 100.511 1.16574 -1.06058 0
M  V30 1044 C 101.757 1.87324 -0.777022 0
M  V30 1045 C 102.09 1.81351 0.694645 0
M  V30 1046 O 101.365 1.22753 1.50871 0
M  V30 1047 C 101.648 3.36991 -1.26922 0
M  V30 1048 C 101.501 3.51667 -2.80447 0
M  V30 1049 C 102.82 4.3131 -0.87521 0
M  V30 1050 H 99.9388 0.680191 -0.28374 0
M  V30 1051 H 102.581 1.37036 -1.3161 0
M  V30 1052 H 100.731 3.79949 -0.81063 0
M  V30 1053 H 102.403 3.17664 -3.34495 0
M  V30 1054 H 100.646 2.93656 -3.19294 0
M  V30 1055 H 101.317 4.56766 -3.0995 0
M  V30 1056 H 103.793 3.9624 -1.27014 0
M  V30 1057 H 102.669 5.34545 -1.2471 0
M  V30 1058 H 102.93 4.41552 0.220071 0
M  V30 1059 N 101.989 0.842826 1.3317 0
M  V30 1060 C 102.899 0.281444 2.32906 0
M  V30 1061 C 103.915 -0.594587 1.63526 0
M  V30 1062 O 105.091 -0.49777 1.95152 0
M  V30 1063 C 102.156 -0.530929 3.42611 0
M  V30 1064 C 101.217 0.369843 4.27704 0
M  V30 1065 C 100.45 -0.403853 5.3217 0
M  V30 1066 O 100.673 -1.63513 5.46461 0
M  V30 1067 O 99.6069 0.224199 6.01482 0
M  V30 1068 H 103.433 1.10744 2.82789 0
M  V30 1069 H 101.018 0.60545 1.36582 0
M  V30 1070 H 102.9 -0.992437 4.09547 0
M  V30 1071 H 101.575 -1.33392 2.94938 0
M  V30 1072 H 100.482 0.879275 3.6362 0
M  V30 1073 H 101.815 1.13771 4.78871 0
M  V30 1074 N 103.467 -1.45747 0.599634 0
M  V30 1075 C 104.878 -1.85853 0.177681 0
M  V30 1076 C 105.229 -1.50102 -1.26348 0
M  V30 1077 O 104.354 -0.923905 -1.95686 0
M  V30 1078 C 104.949 -3.37326 0.315688 0
M  V30 1079 C 103.508 -3.76365 -0.0515144 0
M  V30 1080 C 102.655 -2.69722 0.643822 0
M  V30 1081 H 105.606 -1.36661 0.806814 0
M  V30 1082 H 105.627 -3.77778 -0.454321 0
M  V30 1083 H 105.139 -3.63315 1.36468 0
M  V30 1084 H 103.24 -3.55993 -1.09999 0
M  V30 1085 H 103.353 -4.77916 0.336594 0
M  V30 1086 H 101.717 -2.54567 0.0822881 0
M  V30 1087 H 102.5 -2.98549 1.6948 0
M  V30 1088 N 104.945 -0.338344 -1.53925 0
M  V30 1089 C 105.855 0.529421 -2.28548 0
M  V30 1090 C 106.871 1.11645 -1.3346 0
M  V30 1091 O 108.047 1.13325 -1.66492 0
M  V30 1092 C 105.112 1.66713 -3.03987 0
M  V30 1093 C 104.173 1.11041 -4.14691 0
M  V30 1094 C 103.406 2.19389 -4.86522 0
M  V30 1095 O 103.629 3.40013 -4.57982 0
M  V30 1096 O 102.563 1.83976 -5.73094 0
M  V30 1097 H 106.389 -0.0770399 -3.03602 0
M  V30 1098 H 103.974 -0.103555 -1.49041 0
M  V30 1099 H 105.856 2.32918 -3.5118 0
M  V30 1100 H 104.531 2.25949 -2.31794 0
M  V30 1101 H 103.438 0.413024 -3.71813 0
M  V30 1102 H 104.771 0.562975 -4.8897 0
M  V30 1103 N 106.423 1.57458 -0.0668435 0
M  V30 1104 C 107.834 1.80776 0.466558 0
M  V30 1105 C 108.185 0.980361 1.69951 0
M  V30 1106 O 107.31 0.201441 2.1546 0
M  V30 1107 C 107.905 3.27881 0.85321 0
M  V30 1108 C 106.464 3.52062 1.3315 0
M  V30 1109 C 105.611 2.75513 0.314264 0
M  V30 1110 H 108.562 1.5598 -0.292588 0
M  V30 1111 H 108.583 3.39659 1.715 0
M  V30 1112 H 108.095 3.88075 -0.0443439 0
M  V30 1113 H 106.196 2.97167 2.24772 0
M  V30 1114 H 106.309 4.60762 1.31285 0
M  V30 1115 H 104.673 2.42123 0.790492 0
M  V30 1116 H 105.456 3.38442 -0.575477 0
M  V30 1117 N 107.901 -0.206675 1.56239 0
M  V30 1118 C 108.811 -1.27686 1.96808 0
M  V30 1119 C 109.827 -1.50455 0.874035 0
M  V30 1120 O 111.003 -1.63295 1.17884 0
M  V30 1121 C 108.068 -2.60358 2.28942 0
M  V30 1122 C 107.129 -2.45762 3.51994 0
M  V30 1123 C 106.362 -3.72108 3.82585 0
M  V30 1124 O 106.585 -4.75776 3.14631 0
M  V30 1125 O 105.519 -3.6833 4.76043 0
M  V30 1126 H 109.345 -0.962593 2.88041 0
M  V30 1127 H 106.93 -0.410746 1.43643 0
M  V30 1128 H 108.812 -3.38687 2.50737 0
M  V30 1129 H 107.487 -2.91435 1.4088 0
M  V30 1130 H 106.394 -1.65584 3.35459 0
M  V30 1131 H 107.727 -2.19621 4.40486 0
M  V30 1132 N 109.379 -1.50304 -0.473955 0
M  V30 1133 C 110.79 -1.54042 -1.0549 0
M  V30 1134 C 111.141 -0.342248 -1.93192 0
M  V30 1135 O 110.266 0.545157 -2.09421 0
M  V30 1136 C 110.861 -2.79152 -1.91989 0
M  V30 1137 C 109.42 -2.8558 -2.45196 0
M  V30 1138 C 108.567 -2.48295 -1.2347 0
M  V30 1139 H 111.518 -1.5661 -0.256693 0
M  V30 1140 H 111.539 -2.60845 -2.7702 0
M  V30 1141 H 111.051 -3.66339 -1.28131 0
M  V30 1142 H 109.152 -2.02738 -3.12615 0
M  V30 1143 H 109.265 -3.88403 -2.80499 0
M  V30 1144 H 107.629 -2.00669 -1.56856 0
M  V30 1145 H 108.412 -3.37787 -0.612789 0
M  V30 1146 N 110.857 0.726932 -1.39834 0
M  V30 1147 C 111.767 1.87131 -1.41489 0
M  V30 1148 C 112.783 1.71239 -0.308757 0
M  V30 1149 O 113.959 1.93701 -0.551529 0
M  V30 1150 C 111.024 3.22811 -1.26468 0
M  V30 1151 C 110.085 3.51039 -2.47124 0
M  V30 1152 C 109.318 4.80245 -2.3281 0
M  V30 1153 O 109.541 5.54537 -1.33585 0
M  V30 1154 O 108.475 5.08554 -3.21957 0
M  V30 1155 H 112.301 1.8869 -2.3797 0
M  V30 1156 H 109.886 0.875837 -1.21035 0
M  V30 1157 H 111.768 4.03877 -1.20255 0
M  V30 1158 H 110.443 3.22005 -0.330862 0
M  V30 1159 H 109.35 2.70027 -2.58914 0
M  V30 1160 H 110.683 3.56632 -3.39227 0
M  V30 1161 N 112.336 1.25143 0.95797 0
M  V30 1162 C 113.747 1.08851 1.51685 0
M  V30 1163 C 114.098 -0.33687 1.93286 0
M  V30 1164 O 113.223 -1.22644 1.7829 0
M  V30 1165 C 113.818 1.96978 2.75654 0
M  V30 1166 C 112.377 1.84881 3.27866 0
M  V30 1167 C 111.524 1.91329 2.0072 0
M  V30 1168 H 114.475 1.38478 0.77522 0
M  V30 1169 H 114.496 1.5078 3.4935 0
M  V30 1170 H 114.008 3.00712 2.45345 0
M  V30 1171 H 112.109 0.840182 3.63004 0
M  V30 1172 H 112.222 2.6951 3.96107 0
M  V30 1173 H 110.586 1.35174 2.15871 0
M  V30 1174 H 111.369 2.96661 1.72764 0
M  V30 1175 N 113.814 -1.1601 1.06675 0
M  V30 1176 C 115.063 -1.85973 0.780818 0
M  V30 1177 C 115.376 -1.82819 -0.695444 0
M  V30 1178 O 116.582 -2.484 -1.09589 0
M  V30 1179 C 115.038 -3.33757 1.34665 0
M  V30 1180 C 114.646 -3.45374 2.85343 0
M  V30 1181 C 116.39 -4.0895 1.13843 0
M  V30 1182 C 114.297 -4.87266 3.35151 0
M  V30 1183 H 113.227 -0.696661 0.288407 0
M  V30 1184 H 115.878 -1.30903 1.28595 0
M  V30 1185 H 114.26 -3.88456 0.769274 0
M  V30 1186 H 115.434 -3.00816 3.49065 0
M  V30 1187 H 113.749 -2.83619 3.04876 0
M  V30 1188 H 116.346 -5.13654 1.4854 0
M  V30 1189 H 116.689 -4.16229 0.0770282 0
M  V30 1190 H 117.222 -3.605 1.68179 0
M  V30 1191 H 113.961 -4.85168 4.40786 0
M  V30 1192 H 113.481 -5.32433 2.76179 0
M  V30 1193 H 115.16 -5.56097 3.30704 0
M  V30 1194 N 115.292 -0.849877 -1.32721 0
M  V30 1195 C 116.703 -0.506188 -1.79707 0
M  V30 1196 C 117.054 0.975627 -1.70223 0
M  V30 1197 O 116.179 1.76078 -1.25799 0
M  V30 1198 C 116.774 -0.912044 -3.26293 0
M  V30 1199 C 115.333 -0.620326 -3.71253 0
M  V30 1200 C 114.48 -1.11439 -2.53922 0
M  V30 1201 H 117.431 -1.03754 -1.20087 0
M  V30 1202 H 117.452 -0.226493 -3.79825 0
M  V30 1203 H 116.964 -1.99057 -3.33164 0
M  V30 1204 H 115.065 0.447674 -3.69901 0
M  V30 1205 H 115.178 -1.18327 -4.64258 0
M  V30 1206 H 113.542 -0.534834 -2.49021 0
M  V30 1207 H 114.325 -2.19992 -2.6355 0
M  V30 1208 N 116.77 1.45427 -0.607355 0
M  V30 1209 C 117.68 2.34325 0.113463 0
M  V30 1210 C 118.696 1.51226 0.860617 0
M  V30 1211 O 119.872 1.84029 0.818255 0
M  V30 1212 C 116.937 3.28839 1.09844 0
M  V30 1213 C 115.998 4.27844 0.353271 0
M  V30 1214 C 115.231 5.17842 1.29133 0
M  V30 1215 O 115.454 5.11264 2.52913 0
M  V30 1216 O 114.388 5.96713 0.788523 0
M  V30 1217 H 118.214 2.97364 -0.617094 0
M  V30 1218 H 115.799 1.44807 -0.367619 0
M  V30 1219 H 117.681 3.8708 1.66575 0
M  V30 1220 H 116.356 2.68365 1.81003 0
M  V30 1221 H 115.263 3.7322 -0.256494 0
M  V30 1222 H 116.596 4.91173 -0.317822 0
M  V30 1223 N 118.248 0.346503 1.53744 0
M  V30 1224 C 119.659 -0.136779 1.86198 0
M  V30 1225 C 120.01 -1.49749 1.26766 0
M  V30 1226 O 119.135 -2.08417 0.582355 0
M  V30 1227 C 119.73 -0.254966 3.37839 0
M  V30 1228 C 118.289 -0.682482 3.70161 0
M  V30 1229 C 117.436 0.181981 2.76702 0
M  V30 1230 H 120.387 0.565994 1.48264 0
M  V30 1231 H 120.408 -1.08195 3.64793 0
M  V30 1232 H 119.92 0.735526 3.81066 0
M  V30 1233 H 118.021 -1.68189 3.3248 0
M  V30 1234 H 118.134 -0.470326 4.76786 0
M  V30 1235 H 116.498 -0.34615 2.52337 0
M  V30 1236 H 117.281 1.16966 3.2276 0
M  V30 1237 N 119.726 -1.57421 0.075193 0
M  V30 1238 C 121.137 -1.81021 -0.456964 0
M  V30 1239 C 121.488 -0.98936 -1.69429 0
M  V30 1240 O 120.613 -0.212865 -2.15351 0
M  V30 1241 C 121.208 -3.28329 -0.83581 0
M  V30 1242 C 119.767 -3.52764 -1.31281 0
M  V30 1243 C 118.914 -2.75676 -0.299648 0
M  V30 1244 H 121.865 -1.55822 0.300856 0
M  V30 1245 H 121.886 -3.40564 -1.69696 0
M  V30 1246 H 121.398 -3.88046 0.0649238 0
M  V30 1247 H 119.499 -2.98355 -2.23193 0
M  V30 1248 H 119.612 -4.61451 -1.28839 0
M  V30 1249 H 117.976 -2.42538 -0.777641 0
M  V30 1250 H 118.759 -3.38132 0.593417 0
M  V30 1251 N 121.204 0.198386 -1.56346 0
M  V30 1252 C 122.151 1.24589 -1.94284 0
M  V30 1253 C 123.121 1.454 -0.802997 0
M  V30 1254 O 124.306 1.58588 -1.06087 0
M  V30 1255 C 121.446 2.58631 -2.28482 0
M  V30 1256 C 120.559 2.45426 -3.55514 0
M  V30 1257 C 119.694 3.7215 -3.79049 0
M  V30 1258 C 118.733 3.53763 -4.99518 0
M  V30 1259 N 117.87 4.72491 -5.19323 0
M  V30 1260 H 122.71 0.915356 -2.83593 0
M  V30 1261 H 120.247 0.440629 -1.40346 0
M  V30 1262 H 122.205 3.3672 -2.46324 0
M  V30 1263 H 120.835 2.89734 -1.42317 0
M  V30 1264 H 119.887 1.58652 -3.45737 0
M  V30 1265 H 121.199 2.27772 -4.43758 0
M  V30 1266 H 120.353 4.58679 -3.97113 0
M  V30 1267 H 119.092 3.92754 -2.89129 0
M  V30 1268 H 118.097 2.65619 -4.8138 0
M  V30 1269 H 119.322 3.34607 -5.90944 0
M  V30 1270 H 117.268 4.93365 -4.3235 0
M  V30 1271 H 117.185 4.5765 -6.01741 0
M  V30 1272 H 118.453 5.6038 -5.41843 0
M  V30 1273 N 122.682 1.50554 0.465978 0
M  V30 1274 C 123.592 1.72585 1.58907 0
M  V30 1275 C 124.608 0.60911 1.6299 0
M  V30 1276 O 125.784 0.88804 1.80765 0
M  V30 1277 C 122.849 1.81995 2.95091 0
M  V30 1278 C 121.91 3.05751 3.01355 0
M  V30 1279 C 121.143 3.14702 4.31043 0
M  V30 1280 O 121.366 2.30313 5.21835 0
M  V30 1281 O 120.3 4.07468 4.43005 0
M  V30 1282 H 124.126 2.67799 1.43239 0
M  V30 1283 H 121.711 1.34711 0.646013 0
M  V30 1284 H 123.593 1.90335 3.75966 0
M  V30 1285 H 122.268 0.899659 3.10947 0
M  V30 1286 H 121.175 3.02908 2.19539 0
M  V30 1287 H 122.508 3.97375 2.90437 0
M  V30 1288 N 124.16 -0.719506 1.40217 0
M  V30 1289 C 125.123 -1.8153 1.39927 0
M  V30 1290 C 126.123 -1.58095 0.293723 0
M  V30 1291 O 127.313 -1.65209 0.552429 0
M  V30 1292 C 124.445 -3.19561 1.18716 0
M  V30 1293 H 125.638 -1.83186 2.37451 0
M  V30 1294 H 123.191 -0.924746 1.26008 0
M  V30 1295 H 123.926 -3.23557 0.219366 0
M  V30 1296 H 123.711 -3.3797 1.98793 0
M  V30 1297 H 125.201 -3.99598 1.21291 0
M  V30 1298 N 125.638 -1.25649 -0.95132 0
M  V30 1299 C 127.049 -1.09654 -1.51106 0
M  V30 1300 C 127.4 0.326615 -1.93462 0
M  V30 1301 O 126.525 1.21697 -1.78938 0
M  V30 1302 C 127.12 -1.98437 -2.74605 0
M  V30 1303 C 125.679 -1.86618 -3.2688 0
M  V30 1304 C 124.826 -1.9239 -1.99703 0
M  V30 1305 H 127.777 -1.38887 -0.767865 0
M  V30 1306 H 127.798 -1.5263 -3.48546 0
M  V30 1307 H 127.31 -3.02009 -2.43746 0
M  V30 1308 H 125.411 -0.859421 -3.62553 0
M  V30 1309 H 125.524 -2.71607 -3.94673 0
M  V30 1310 H 123.888 -1.36317 -2.15151 0
M  V30 1311 H 124.671 -2.97573 -1.71188 0
M  V30 1312 N 127.117 1.15442 -1.07289 0
M  V30 1313 C 128.363 1.86489 -0.796846 0
M  V30 1314 C 128.696 1.82078 0.675371 0
M  V30 1315 O 127.971 1.24346 1.4956 0
M  V30 1316 C 128.254 3.35626 -1.30489 0
M  V30 1317 C 128.107 3.48673 -2.84161 0
M  V30 1318 C 129.426 4.30357 -0.920907 0
M  V30 1319 H 126.545 0.677144 -0.290939 0
M  V30 1320 H 129.187 1.35633 -1.33056 0
M  V30 1321 H 127.337 3.79068 -0.850883 0
M  V30 1322 H 129.009 3.14099 -3.37846 0
M  V30 1323 H 127.252 2.90253 -3.22391 0
M  V30 1324 H 127.923 4.53453 -3.14777 0
M  V30 1325 H 130.399 3.94871 -1.3121 0
M  V30 1326 H 129.275 5.33193 -1.30372 0
M  V30 1327 H 129.536 4.4176 0.173226 0
M  V30 1328 N 128.595 0.856903 1.32268 0
M  V30 1329 C 129.841 0.462069 1.97466 0
M  V30 1330 C 130.174 -0.980298 1.67642 0
M  V30 1331 O 129.449 -1.68824 0.965858 0
M  V30 1332 C 129.732 0.704336 3.53145 0
M  V30 1333 C 129.585 2.19529 3.9259 0
M  V30 1334 C 130.904 0.1622 4.39801 0
M  V30 1335 H 128.023 0.169357 0.717278 0
M  V30 1336 H 130.665 1.07574 1.56614 0
M  V30 1337 H 128.815 0.181999 3.88073 0
M  V30 1338 H 130.487 2.78387 3.67829 0
M  V30 1339 H 128.73 2.67292 3.41668 0
M  V30 1340 H 129.401 2.31549 5.01088 0
M  V30 1341 H 131.877 0.608905 4.11621 0
M  V30 1342 H 130.753 0.361265 5.4771 0
M  V30 1343 H 131.014 -0.935158 4.32096 0
M  V30 1344 N 130.073 -1.45103 0.615059 0
M  V30 1345 C 131.322 -2.01396 0.110718 0
M  V30 1346 C 131.635 -1.48834 -1.26916 0
M  V30 1347 O 132.841 -1.97152 -1.86664 0
M  V30 1348 C 131.297 -3.59599 0.14723 0
M  V30 1349 C 130.905 -4.21158 1.52743 0
M  V30 1350 C 132.649 -4.23428 -0.30148 0
M  V30 1351 C 130.556 -5.71535 1.51992 0
M  V30 1352 H 129.486 -0.753061 0.0376241 0
M  V30 1353 H 132.137 -1.66494 0.77149 0
M  V30 1354 H 130.519 -3.91724 -0.580339 0
M  V30 1355 H 131.693 -4.00594 2.2773 0
M  V30 1356 H 130.008 -3.69552 1.91886 0
M  V30 1357 H 132.605 -5.33703 -0.326392 0
M  V30 1358 H 132.948 -3.94629 -1.32565 0
M  V30 1359 H 133.481 -3.96047 0.373065 0
M  V30 1360 H 130.22 -6.05044 2.52193 0
M  V30 1361 H 129.74 -5.94268 0.81274 0
M  V30 1362 H 131.419 -6.34873 1.24681 0
M  V30 1363 N 131.551 -0.354651 -1.53558 0
M  V30 1364 C 132.461 0.50515 -2.29097 0
M  V30 1365 C 133.477 1.10223 -1.34636 0
M  V30 1366 O 134.653 1.11553 -1.67684 0
M  V30 1367 C 131.718 1.63479 -3.05738 0
M  V30 1368 C 130.779 1.06636 -4.15845 0
M  V30 1369 C 130.012 2.14217 -4.88822 0
M  V30 1370 O 130.235 3.35137 -4.61562 0
M  V30 1371 O 129.169 1.77887 -5.75013 0
M  V30 1372 H 132.995 -0.109237 -3.03503 0
M  V30 1373 H 130.58 -0.119357 -1.48922 0
M  V30 1374 H 132.462 2.2918 -3.5363 0
M  V30 1375 H 131.137 2.23478 -2.34178 0
M  V30 1376 H 130.044 0.373565 -3.7223 0
M  V30 1377 H 131.377 0.511081 -4.89539 0
M  V30 1378 N 133.029 1.57378 -0.0835403 0
M  V30 1379 C 133.976 2.13384 0.879539 0
M  V30 1380 C 134.946 1.04936 1.28754 0
M  V30 1381 O 136.131 1.32662 1.37133 0
M  V30 1382 C 133.271 2.70932 2.13752 0
M  V30 1383 C 132.384 3.93575 1.7811 0
M  V30 1384 C 131.519 4.39326 2.98607 0
M  V30 1385 C 130.558 5.54587 2.59037 0
M  V30 1386 N 129.695 5.95243 3.72331 0
M  V30 1387 H 134.535 2.9537 0.395076 0
M  V30 1388 H 132.072 1.45953 0.183349 0
M  V30 1389 H 134.03 3.02411 2.87408 0
M  V30 1390 H 132.66 1.91693 2.59718 0
M  V30 1391 H 131.712 3.68483 0.94469 0
M  V30 1392 H 133.024 4.77258 1.45005 0
M  V30 1393 H 132.178 4.72528 3.80529 0
M  V30 1394 H 130.917 3.5452 3.34913 0
M  V30 1395 H 129.922 5.21024 1.75539 0
M  V30 1396 H 131.147 6.41133 2.23887 0
M  V30 1397 H 129.093 5.13385 4.08378 0
M  V30 1398 H 129.01 6.73694 3.43034 0
M  V30 1399 H 130.278 6.33072 4.54797 0
M  V30 1400 N 134.507 -0.190092 1.56449 0
M  V30 1401 C 135.918 -0.754312 1.70784 0
M  V30 1402 C 136.269 -1.83631 0.690951 0
M  V30 1403 O 135.394 -2.15868 -0.151604 0
M  V30 1404 C 135.989 -1.37503 3.09642 0
M  V30 1405 C 134.548 -1.88628 3.25725 0
M  V30 1406 C 133.695 -0.758098 2.66736 0
M  V30 1407 H 136.646 0.0350524 1.58661 0
M  V30 1408 H 136.667 -2.2445 3.0725 0
M  V30 1409 H 136.179 -0.587302 3.83631 0
M  V30 1410 H 134.28 -2.70103 2.56661 0
M  V30 1411 H 134.393 -2.04462 4.3328 0
M  V30 1412 H 132.757 -1.17369 2.26046 0
M  V30 1413 H 133.54 0.0174705 3.43296 0
M  V30 1414 N 135.985 -1.50799 -0.457987 0
M  V30 1415 C 136.932 -1.70617 -1.5543 0
M  V30 1416 C 137.902 -0.547562 -1.56815 0
M  V30 1417 O 139.087 -0.779647 -1.74144 0
M  V30 1418 C 136.227 -1.81831 -2.93311 0
M  V30 1419 C 135.34 -3.09278 -3.01615 0
M  V30 1420 C 134.475 -3.11209 -4.30491 0
M  V30 1421 C 133.514 -4.33055 -4.32585 0
M  V30 1422 N 132.651 -4.32652 -5.52952 0
M  V30 1423 H 137.491 -2.64207 -1.37836 0
M  V30 1424 H 135.028 -1.30959 -0.669937 0
M  V30 1425 H 136.986 -1.86314 -3.73287 0
M  V30 1426 H 135.616 -0.916685 -3.0951 0
M  V30 1427 H 134.668 -3.14203 -2.1443 0
M  V30 1428 H 135.98 -3.99233 -2.99022 0
M  V30 1429 H 135.134 -3.14494 -5.18824 0
M  V30 1430 H 133.873 -2.19106 -4.35711 0
M  V30 1431 H 132.878 -4.29969 -3.42647 0
M  V30 1432 H 134.103 -5.264 -4.29046 0
M  V30 1433 H 132.049 -3.43409 -5.58933 0
M  V30 1434 H 131.966 -5.16392 -5.52155 0
M  V30 1435 H 133.234 -4.40101 -6.43375 0
M  V30 1436 N 137.463 0.71206 -1.40597 0
M  V30 1437 C 138.874 1.29135 -1.34837 0
M  V30 1438 C 139.225 1.96186 -0.0235395 0
M  V30 1439 O 138.35 1.97768 0.878444 0
M  V30 1440 C 138.945 2.34827 -2.44217 0
M  V30 1441 C 137.504 2.88371 -2.41907 0
M  V30 1442 C 136.651 1.62202 -2.24913 0
M  V30 1443 H 139.602 0.507944 -1.50352 0
M  V30 1444 H 139.623 3.15749 -2.12327 0
M  V30 1445 H 139.135 1.85996 -3.40627 0
M  V30 1446 H 137.236 3.41422 -1.49204 0
M  V30 1447 H 137.349 3.39925 -3.37621 0
M  V30 1448 H 135.713 1.874 -1.72492 0
M  V30 1449 H 136.496 1.15391 -3.23326 0
M  V30 1450 N 138.941 1.26152 0.944643 0
M  V30 1451 C 139.888 1.07408 2.04285 0
M  V30 1452 C 140.858 -0.0198413 1.66088 0
M  V30 1453 O 142.043 0.139264 1.90291 0
M  V30 1454 C 139.183 0.70945 3.37729 0
M  V30 1455 C 138.296 1.87926 3.88983 0
M  V30 1456 C 137.431 1.45807 5.10797 0
M  V30 1457 C 136.47 2.5964 5.54305 0
M  V30 1458 N 135.607 2.18226 6.67324 0
M  V30 1459 H 140.447 2.01389 2.1965 0
M  V30 1460 H 137.984 1.00275 1.07626 0
M  V30 1461 H 139.942 0.478948 4.14442 0
M  V30 1462 H 138.572 -0.193389 3.2222 0
M  V30 1463 H 137.624 2.22279 3.08701 0
M  V30 1464 H 138.936 2.73377 4.17213 0
M  V30 1465 H 138.09 1.18781 5.94959 0
M  V30 1466 H 136.829 0.574414 4.84305 0
M  V30 1467 H 135.834 2.87399 4.68702 0
M  V30 1468 H 137.059 3.48599 5.828 0
M  V30 1469 H 135.005 1.3229 6.42523 0
M  V30 1470 H 134.922 2.97221 6.95123 0
M  V30 1471 H 136.19 1.94403 7.54869 0
M  V30 1472 N 140.419 -1.14872 1.07899 0
M  V30 1473 C 141.83 -1.67367 0.827363 0
M  V30 1474 C 142.181 -1.85236 -0.646693 0
M  V30 1475 O 141.306 -1.55974 -1.50004 0
M  V30 1476 C 141.901 -3.04016 1.49532 0
M  V30 1477 C 140.46 -3.53566 1.29106 0
M  V30 1478 C 139.607 -2.29161 1.56143 0
M  V30 1479 H 142.558 -0.990083 1.24028 0
M  V30 1480 H 142.579 -3.69219 0.919643 0
M  V30 1481 H 142.091 -2.90978 2.56814 0
M  V30 1482 H 140.192 -3.71835 0.238713 0
M  V30 1483 H 140.305 -4.34661 2.01511 0
M  V30 1484 H 138.669 -2.34978 0.982717 0
M  V30 1485 H 139.452 -2.18705 2.64619 0
M  V30 1486 N 141.898 -0.863906 -1.31812 0
M  V30 1487 C 142.845 -0.313303 -2.28664 0
M  V30 1488 C 143.815 0.584868 -1.55462 0
M  V30 1489 O 145 0.517805 -1.83639 0
M  V30 1490 C 142.14 0.48441 -3.41683 0
M  V30 1491 C 141.253 -0.440594 -4.29747 0
M  V30 1492 C 140.388 0.370652 -5.29905 0
M  V30 1493 C 139.427 -0.551164 -6.09613 0
M  V30 1494 N 138.564 0.223462 -7.01744 0
M  V30 1495 H 143.404 -1.14444 -2.75148 0
M  V30 1496 H 140.941 -0.575769 -1.35364 0
M  V30 1497 H 142.899 0.962627 -4.05943 0
M  V30 1498 H 141.529 1.28029 -2.96325 0
M  V30 1499 H 140.581 -1.03724 -3.65986 0
M  V30 1500 H 141.893 -1.14767 -4.85417 0
M  V30 1501 H 141.047 0.911638 -5.99812 0
M  V30 1502 H 139.786 1.11105 -4.74876 0
M  V30 1503 H 138.791 -1.10396 -5.38603 0
M  V30 1504 H 140.016 -1.29032 -6.66729 0
M  V30 1505 H 137.962 0.946787 -6.49132 0
M  V30 1506 H 137.879 -0.424399 -7.54808 0
M  V30 1507 H 139.147 0.745876 -7.75923 0
M  V30 1508 N 143.376 1.44774 -0.622745 0
M  V30 1509 C 144.787 1.85546 -0.207226 0
M  V30 1510 C 145.138 1.52093 1.23944 0
M  V30 1511 O 144.263 0.95492 1.94191 0
M  V30 1512 C 144.858 3.36781 -0.369313 0
M  V30 1513 C 143.417 3.76399 -0.00836847 0
M  V30 1514 C 142.564 2.68664 -0.686651 0
M  V30 1515 H 145.515 1.3536 -0.828454 0
M  V30 1516 H 145.536 3.78453 0.394162 0
M  V30 1517 H 145.048 3.61098 -1.42231 0
M  V30 1518 H 143.149 3.57698 1.04322 0
M  V30 1519 H 143.262 4.7732 -0.412584 0
M  V30 1520 H 141.626 2.54404 -0.122777 0
M  V30 1521 H 142.409 2.95815 -1.74208 0
M  V30 1522 N 144.854 0.36279 1.53368 0
M  V30 1523 C 145.801 -0.485008 2.25646 0
M  V30 1524 C 146.771 -1.07982 1.2621 0
M  V30 1525 O 147.956 -1.11284 1.54986 0
M  V30 1526 C 145.096 -1.62023 3.04701 0
M  V30 1527 C 144.209 -1.05086 4.19024 0
M  V30 1528 C 143.344 -2.15496 4.85525 0
M  V30 1529 C 142.383 -1.5601 5.91884 0
M  V30 1530 N 141.52 -2.60241 6.52088 0
M  V30 1531 H 146.36 0.137864 2.97681 0
M  V30 1532 H 143.897 0.0798061 1.46883 0
M  V30 1533 H 145.855 -2.28887 3.48807 0
M  V30 1534 H 144.485 -2.2138 2.34927 0
M  V30 1535 H 143.537 -0.27259 3.79422 0
M  V30 1536 H 144.849 -0.575926 4.95464 0
M  V30 1537 H 144.003 -2.90186 5.32801 0
M  V30 1538 H 142.742 -2.66341 4.08551 0
M  V30 1539 H 141.747 -0.798338 5.43973 0
M  V30 1540 H 142.972 -1.05994 6.70777 0
M  V30 1541 H 140.918 -3.10304 5.77968 0
M  V30 1542 H 140.835 -2.17426 7.24059 0
M  V30 1543 H 142.103 -3.34641 7.04014 0
M  V30 1544 N 146.332 -1.57332 0.0918853 0
M  V30 1545 C 147.743 -1.81496 -0.437739 0
M  V30 1546 C 148.094 -1.00727 -1.6837 0
M  V30 1547 O 147.219 -0.235694 -2.15113 0
M  V30 1548 C 147.814 -3.29197 -0.800939 0
M  V30 1549 C 146.373 -3.54136 -1.27532 0
M  V30 1550 C 145.52 -2.75979 -0.270392 0
M  V30 1551 H 148.471 -1.55494 0.317366 0
M  V30 1552 H 148.492 -3.42344 -1.66074 0
M  V30 1553 H 148.004 -3.87955 0.106078 0
M  V30 1554 H 146.105 -3.00705 -2.20016 0
M  V30 1555 H 146.218 -4.62792 -1.23938 0
M  V30 1556 H 144.582 -2.43349 -0.751872 0
M  V30 1557 H 145.365 -3.37484 0.629248 0
M  V30 1558 N 147.81 0.181792 -1.56548 0
M  V30 1559 C 148.757 1.22521 -1.95595 0
M  V30 1560 C 149.727 1.4454 -0.818373 0
M  V30 1561 O 150.912 1.57454 -1.07763 0
M  V30 1562 C 148.052 2.56193 -2.31212 0
M  V30 1563 C 147.165 2.41641 -3.58097 0
M  V30 1564 C 146.3 3.68108 -3.82975 0
M  V30 1565 C 145.339 3.48445 -5.03242 0
M  V30 1566 N 144.476 4.66956 -5.24306 0
M  V30 1567 H 149.316 0.885226 -2.84548 0
M  V30 1568 H 146.853 0.425718 -1.40805 0
M  V30 1569 H 148.811 3.34088 -2.49882 0
M  V30 1570 H 147.441 2.88208 -1.45382 0
M  V30 1571 H 146.493 1.54976 -3.474 0
M  V30 1572 H 147.805 2.23052 -4.46149 0
M  V30 1573 H 146.959 4.54441 -4.01956 0
M  V30 1574 H 145.698 3.89666 -2.93278 0
M  V30 1575 H 144.703 2.60499 -4.8417 0
M  V30 1576 H 145.928 3.2832 -5.9446 0
M  V30 1577 H 143.874 4.88752 -4.37559 0
M  V30 1578 H 143.791 4.51242 -6.06561 0
M  V30 1579 H 145.059 5.54602 -5.47756 0
M  V30 1580 N 149.288 1.51039 0.449983 0
M  V30 1581 C 150.699 1.557 1.03026 0
M  V30 1582 C 151.05 0.372939 1.92623 0
M  V30 1583 O 150.175 -0.511771 2.10261 0
M  V30 1584 C 150.77 2.82171 1.87523 0
M  V30 1585 C 149.329 2.89444 2.40622 0
M  V30 1586 C 148.476 2.50228 1.19504 0
M  V30 1587 H 151.427 1.56999 0.231745 0
M  V30 1588 H 151.448 2.65219 2.72835 0
M  V30 1589 H 150.96 3.68331 1.22286 0
M  V30 1590 H 149.061 2.07685 3.0935 0
M  V30 1591 H 149.174 3.92816 2.74285 0
M  V30 1592 H 147.538 2.03139 1.53644 0
M  V30 1593 H 148.321 3.38719 0.558972 0
M  V30 1594 N 150.766 -0.704594 1.40972 0
M  V30 1595 C 152.012 -1.46675 1.40051 0
M  V30 1596 C 152.345 -1.94199 0.00641102 0
M  V30 1597 O 151.62 -1.68916 -0.964235 0
M  V30 1598 C 151.903 -2.68505 2.39952 0
M  V30 1599 C 151.756 -2.26805 3.88432 0
M  V30 1600 C 153.075 -3.70686 2.37233 0
M  V30 1601 H 150.194 -0.532015 0.510028 0
M  V30 1602 H 152.836 -0.803255 1.72185 0
M  V30 1603 H 150.986 -3.25114 2.1268 0
M  V30 1604 H 152.658 -1.75592 4.26574 0
M  V30 1605 H 150.901 -1.58685 4.03734 0
M  V30 1606 H 151.572 -3.14181 4.53866 0
M  V30 1607 H 154.048 -3.23731 2.61415 0
M  V30 1608 H 152.924 -4.53553 3.09162 0
M  V30 1609 H 153.185 -4.19754 1.38777 0
M  V30 1610 N 152.244 -1.26651 -0.937939 0
M  V30 1611 C 153.191 -1.0849 -2.03712 0
M  V30 1612 C 154.161 0.011033 -1.66096 0
M  V30 1613 O 155.346 -0.149353 -1.90215 0
M  V30 1614 C 152.486 -0.72735 -3.37348 0
M  V30 1615 C 151.599 -1.89986 -3.87981 0
M  V30 1616 C 150.734 -1.48513 -5.10017 0
M  V30 1617 C 149.773 -2.62575 -5.5292 0
M  V30 1618 N 148.91 -2.21762 -6.66158 0
M  V30 1619 H 153.75 -2.02551 -2.18579 0
M  V30 1620 H 151.287 -1.00844 -1.07093 0
M  V30 1621 H 153.245 -0.50092 -4.14182 0
M  V30 1622 H 151.875 0.176298 -3.22318 0
M  V30 1623 H 150.927 -2.23913 -3.07518 0
M  V30 1624 H 152.239 -2.75586 -4.15757 0
M  V30 1625 H 151.393 -1.21934 -5.94321 0
M  V30 1626 H 150.132 -0.60009 -4.83994 0
M  V30 1627 H 149.137 -2.8988 -4.67172 0
M  V30 1628 H 150.362 -3.51685 -5.80943 0
M  V30 1629 H 148.308 -1.35696 -6.41812 0
M  V30 1630 H 148.225 -3.00903 -6.93537 0
M  V30 1631 H 149.493 -1.98403 -7.53828 0
M  V30 1632 N 153.722 1.14298 -1.08507 0
M  V30 1633 C 154.669 2.19414 -0.715965 0
M  V30 1634 C 155.639 1.63399 0.298326 0
M  V30 1635 O 156.824 1.89929 0.182101 0
M  V30 1636 C 153.964 3.44845 -0.132534 0
M  V30 1637 C 153.077 4.15007 -1.19973 0
M  V30 1638 C 152.212 5.28024 -0.580048 0
M  V30 1639 C 151.251 5.9002 -1.62921 0
M  V30 1640 N 150.388 6.94485 -1.03125 0
M  V30 1641 H 155.228 2.50336 -1.61666 0
M  V30 1642 H 152.765 1.2293 -0.807882 0
M  V30 1643 H 154.723 4.16601 0.223454 0
M  V30 1644 H 153.353 3.14403 0.731467 0
M  V30 1645 H 152.405 3.41629 -1.67313 0
M  V30 1646 H 153.717 4.57178 -1.99473 0
M  V30 1647 H 152.871 6.06455 -0.172364 0
M  V30 1648 H 151.61 4.87076 0.246603 0
M  V30 1649 H 150.615 5.10291 -2.04654 0
M  V30 1650 H 151.84 6.33042 -2.45835 0
M  V30 1651 H 149.786 6.55612 -0.225711 0
M  V30 1652 H 149.703 7.35148 -1.76334 0
M  V30 1653 H 150.971 7.7679 -0.649458 0
M  V30 1654 N 155.201 0.870884 1.31352 0
M  V30 1655 C 156.447 0.482987 1.96965 0
M  V30 1656 C 156.78 -0.962462 1.68672 0
M  V30 1657 O 156.055 -1.6779 0.98371 0
M  V30 1658 C 156.338 0.741752 3.52378 0
M  V30 1659 C 156.191 2.2368 3.9024 0
M  V30 1660 C 157.51 0.208838 4.39604 0
M  V30 1661 H 154.629 0.176955 0.715441 0
M  V30 1662 H 157.271 1.09229 1.55464 0
M  V30 1663 H 155.421 0.223149 3.87859 0
M  V30 1664 H 157.093 2.82273 3.64856 0
M  V30 1665 H 155.336 2.70901 3.38814 0
M  V30 1666 H 156.007 2.3685 4.98604 0
M  V30 1667 H 158.483 0.652529 4.10952 0
M  V30 1668 H 157.359 0.419336 5.47296 0
M  V30 1669 H 157.62 -0.889275 4.33064 0
M  V30 1670 N 156.679 -1.44442 0.630414 0
M  V30 1671 C 157.611 -2.2892 -0.113347 0
M  V30 1672 C 158.624 -1.41243 -0.80959 0
M  V30 1673 O 159.813 -1.65402 -0.671156 0
M  V30 1674 C 156.913 -3.17594 -1.18266 0
M  V30 1675 C 156.086 -4.33682 -0.569073 0
M  V30 1676 C 155.145 -5.03397 -1.53226 0
M  V30 1677 O 154.171 -5.59438 -1.04967 0
M  V30 1678 N 155.373 -5.04783 -2.86661 0
M  V30 1679 H 158.138 -2.93392 0.611636 0
M  V30 1680 H 155.699 -1.54881 0.471523 0
M  V30 1681 H 157.691 -3.61097 -1.82732 0
M  V30 1682 H 156.261 -2.54876 -1.80988 0
M  V30 1683 H 155.481 -3.9338 0.254187 0
M  V30 1684 H 156.769 -5.08608 -0.139767 0
M  V30 1685 H 156.167 -4.60584 -3.28449 0
M  V30 1686 H 154.724 -5.52077 -3.46489 0
M  V30 1687 N 158.157 -0.370918 -1.53173 0
M  V30 1688 C 159.067 0.480823 -2.2962 0
M  V30 1689 C 160.083 1.08789 -1.35798 0
M  V30 1690 O 161.259 1.09768 -1.68858 0
M  V30 1691 C 158.324 1.60227 -3.07454 0
M  V30 1692 C 157.385 1.0222 -4.16953 0
M  V30 1693 C 156.618 2.0902 -4.91066 0
M  V30 1694 O 156.841 3.30222 -4.65091 0
M  V30 1695 O 155.775 1.71778 -5.76867 0
M  V30 1696 H 159.601 -0.141421 -3.03371 0
M  V30 1697 H 157.186 -0.135146 -1.48787 0
M  V30 1698 H 159.068 2.25417 -3.56041 0
M  V30 1699 H 157.743 2.20982 -2.36535 0
M  V30 1700 H 156.65 0.334064 -3.72605 0
M  V30 1701 H 157.983 0.459131 -4.90054 0
M  V30 1702 N 159.635 1.57281 -0.100228 0
M  V30 1703 C 160.567 2.11342 0.886972 0
M  V30 1704 C 161.58 1.05182 1.24261 0
M  V30 1705 O 162.769 1.32613 1.19483 0
M  V30 1706 C 159.869 2.5825 2.19454 0
M  V30 1707 C 159.042 3.88302 2.01346 0
M  V30 1708 C 158.101 4.21004 3.15661 0
M  V30 1709 O 157.127 4.9014 2.89398 0
M  V30 1710 N 158.329 3.76818 4.41575 0
M  V30 1711 H 161.094 2.96668 0.425216 0
M  V30 1712 H 158.655 1.61678 0.0847334 0
M  V30 1713 H 160.647 2.7717 2.94888 0
M  V30 1714 H 159.217 1.77907 2.57037 0
M  V30 1715 H 158.437 3.7848 1.10212 0
M  V30 1716 H 159.725 4.73375 1.8653 0
M  V30 1717 H 159.123 3.2102 4.65792 0
M  V30 1718 H 157.68 4.00882 5.13942 0
M  V30 1719 N 161.113 -0.173488 1.56642 0
M  V30 1720 C 162.524 -0.736155 1.71574 0
M  V30 1721 C 162.875 -1.82888 0.710389 0
M  V30 1722 O 162 -2.16017 -0.1287 0
M  V30 1723 C 162.595 -1.34211 3.11083 0
M  V30 1724 C 161.154 -1.85162 3.27707 0
M  V30 1725 C 160.301 -0.729765 2.67525 0
M  V30 1726 H 163.252 0.0518786 1.58615 0
M  V30 1727 H 163.273 -2.21178 3.09613 0
M  V30 1728 H 162.785 -0.546579 3.84232 0
M  V30 1729 H 160.886 -2.67366 2.59512 0
M  V30 1730 H 160.999 -1.99855 4.35425 0
M  V30 1731 H 159.363 -1.14965 2.27278 0
M  V30 1732 H 160.146 0.0538806 3.43258 0
M  V30 1733 N 162.591 -1.51276 -0.441967 0
M  V30 1734 C 163.538 -1.72256 -1.53612 0
M  V30 1735 C 164.508 -0.564164 -1.56225 0
M  V30 1736 O 165.693 -0.798074 -1.73307 0
M  V30 1737 C 162.833 -1.84932 -2.91366 0
M  V30 1738 C 161.946 -3.12459 -2.98317 0
M  V30 1739 C 161.081 -3.15758 -4.27166 0
M  V30 1740 C 160.12 -4.37619 -4.27967 0
M  V30 1741 N 159.257 -4.38493 -5.48333 0
M  V30 1742 H 164.097 -2.65654 -1.35026 0
M  V30 1743 H 161.634 -1.31662 -0.656009 0
M  V30 1744 H 163.592 -1.90263 -3.7129 0
M  V30 1745 H 162.222 -0.949461 -3.08521 0
M  V30 1746 H 161.274 -3.1646 -2.11086 0
M  V30 1747 H 162.586 -4.02382 -2.94771 0
M  V30 1748 H 161.74 -3.19979 -5.15459 0
M  V30 1749 H 160.479 -2.23715 -4.33362 0
M  V30 1750 H 159.484 -4.33579 -3.38067 0
M  V30 1751 H 160.709 -5.30921 -4.23438 0
M  V30 1752 H 158.655 -3.49318 -5.55259 0
M  V30 1753 H 158.572 -5.22219 -5.46647 0
M  V30 1754 H 159.84 -4.469 -6.38671 0
M  V30 1755 N 164.069 0.697108 -1.41344 0
M  V30 1756 C 165.485 1.00751 -1.2378 0
M  V30 1757 C 165.685 2.01105 -0.126066 0
M  V30 1758 O 164.741 2.47295 0.51004 0
M  V30 1759 C 166.054 1.53359 -2.58653 0
M  V30 1760 C 167.602 1.6525 -2.65822 0
M  V30 1761 C 168.077 2.2126 -4.01009 0
M  V30 1762 N 169.568 2.28622 -4.02847 0
M  V30 1763 C 170.303 2.72984 -5.04249 0
M  V30 1764 N 169.799 3.16962 -6.16041 0
M  V30 1765 N 171.592 2.72534 -4.91611 0
M  V30 1766 H 163.743 0.0322662 -2.12375 0
M  V30 1767 H 166.006 0.0768853 -0.944877 0
M  V30 1768 H 165.712 0.870773 -3.4075 0
M  V30 1769 H 165.586 2.51597 -2.81032 0
M  V30 1770 H 167.973 2.30644 -1.84086 0
M  V30 1771 H 168.054 0.655614 -2.47256 0
M  V30 1772 H 167.698 1.56482 -4.83193 0
M  V30 1773 H 167.628 3.21698 -4.16915 0
M  V30 1774 H 170.119 1.97585 -3.22131 0
M  V30 1775 H 170.432 3.49434 -6.89287 0
M  V30 1776 H 168.777 3.14875 -6.1958 0
M  V30 1777 H 171.968 2.37525 -4.0336 0
M  V30 1778 H 172.141 3.06789 -5.70775 0
M  V30 1779 N 165.547 1.27147 0.931209 0
M  V30 1780 C 166.824 1.0401 1.65654 0
M  V30 1781 C 167.204 -0.426297 2.06751 0
M  V30 1782 O 166.552 -1.40879 1.79904 0
M  V30 1783 C 166.762 1.99834 2.86125 0
M  V30 1784 C 168.11 2.29007 3.57549 0
M  V30 1785 O 169.134 1.97779 2.96246 0
M  V30 1786 O 167.993 2.82222 4.67989 0
M  V30 1787 H 165.087 0.396239 0.725895 0
M  V30 1788 H 167.633 1.38397 0.982056 0
M  V30 1789 H 166.405 2.98744 2.52721 0
M  V30 1790 H 166.028 1.65987 3.61295 0
M  V30 1791 N 167.025 -1.13721 1.09112 0
M  V30 1792 C 168.271 -1.85198 0.826414 0
M  V30 1793 C 168.604 -1.83129 -0.646319 0
M  V30 1794 O 167.879 -1.2671 -1.47563 0
M  V30 1795 C 168.162 -3.33507 1.35812 0
M  V30 1796 C 168.015 -3.44108 2.89672 0
M  V30 1797 C 169.334 -4.28838 0.989256 0
M  V30 1798 H 166.453 -0.67243 0.301675 0
M  V30 1799 H 169.095 -1.33499 1.35197 0
M  V30 1800 H 167.245 -3.77666 0.911082 0
M  V30 1801 H 168.917 -3.08684 3.428 0
M  V30 1802 H 167.16 -2.85087 3.26967 0
M  V30 1803 H 167.831 -4.48388 3.21951 0
M  V30 1804 H 170.307 -3.92734 1.37475 0
M  V30 1805 H 169.183 -5.31051 1.38838 0
M  V30 1806 H 169.444 -4.4198 -0.102924 0
M  V30 1807 N 168.503 -0.877838 -1.30888 0
M  V30 1808 C 169.45 -0.337538 -2.28318 0
M  V30 1809 C 170.42 0.568346 -1.56074 0
M  V30 1810 O 171.605 0.498298 -1.84178 0
M  V30 1811 C 168.745 0.448142 -3.42178 0
M  V30 1812 C 167.858 -0.48615 -4.29256 0
M  V30 1813 C 166.993 0.314427 -5.30269 0
M  V30 1814 C 166.032 -0.615791 -6.08995 0
M  V30 1815 N 165.169 0.14902 -7.01942 0
M  V30 1816 H 170.009 -1.17356 -2.73919 0
M  V30 1817 H 167.546 -0.590094 -1.34745 0
M  V30 1818 H 169.504 0.919517 -4.06941 0
M  V30 1819 H 168.134 1.24879 -2.97666 0
M  V30 1820 H 167.186 -1.076 -3.64865 0
M  V30 1821 H 168.498 -1.19909 -4.84173 0
M  V30 1822 H 167.652 0.847969 -6.00745 0
M  V30 1823 H 166.391 1.06062 -4.76027 0
M  V30 1824 H 165.396 -1.16102 -5.37401 0
M  V30 1825 H 166.621 -1.36097 -6.65323 0
M  V30 1826 H 164.567 0.877884 -6.50099 0
M  V30 1827 H 164.484 -0.504433 -7.54315 0
M  V30 1828 H 165.752 0.663537 -7.76671 0
M  V30 1829 N 169.982 1.44106 -0.638065 0
M  V30 1830 C 171.393 1.85316 -0.226894 0
M  V30 1831 C 171.744 1.53399 1.22324 0
M  V30 1832 O 170.869 0.975463 1.93167 0
M  V30 1833 C 171.464 3.3637 -0.405013 0
M  V30 1834 C 170.023 3.76369 -0.0482902 0
M  V30 1835 C 169.17 2.67921 -0.715108 0
M  V30 1836 H 172.121 1.34474 -0.842764 0
M  V30 1837 H 172.142 3.7885 0.354 0
M  V30 1838 H 171.654 3.59569 -1.46053 0
M  V30 1839 H 169.755 3.58784 1.00522 0
M  V30 1840 H 169.868 4.76856 -0.463187 0
M  V30 1841 H 168.232 2.54259 -0.149753 0
M  V30 1842 H 169.015 2.93951 -1.77335 0
M  V30 1843 N 171.46 0.379036 1.52974 0
M  V30 1844 C 172.706 -0.206727 2.01744 0
M  V30 1845 C 173.039 -1.47314 1.26539 0
M  V30 1846 O 172.314 -1.91084 0.362903 0
M  V30 1847 C 172.597 -0.485066 3.56818 0
M  V30 1848 C 172.45 0.795919 4.42702 0
M  V30 1849 C 173.769 -1.28003 4.21074 0
M  V30 1850 H 170.888 -0.0736607 0.73331 0
M  V30 1851 H 173.53 0.506581 1.83122 0
M  V30 1852 H 171.68 -1.09272 3.72816 0
M  V30 1853 H 173.352 1.43307 4.38476 0
M  V30 1854 H 171.595 1.41344 4.10127 0
M  V30 1855 H 172.266 0.555947 5.49193 0
M  V30 1856 H 174.742 -0.765867 4.08991 0
M  V30 1857 H 173.618 -1.44352 5.29579 0
M  V30 1858 H 173.879 -2.29236 3.78026 0
M  V30 1859 N 172.938 -1.57226 0.108567 0
M  V30 1860 C 173.848 -2.18292 -0.859401 0
M  V30 1861 C 174.864 -1.15612 -1.30038 0
M  V30 1862 O 176.04 -1.48039 -1.36552 0
M  V30 1863 C 173.105 -2.762 -2.09558 0
M  V30 1864 C 172.166 -3.93881 -1.70752 0
M  V30 1865 C 171.399 -4.49018 -2.88477 0
M  V30 1866 O 171.622 -4.03068 -4.036 0
M  V30 1867 O 170.556 -5.39852 -2.66164 0
M  V30 1868 H 174.382 -3.01441 -0.369769 0
M  V30 1869 H 171.967 -1.48945 -0.1165 0
M  V30 1870 H 173.849 -3.13156 -2.81978 0
M  V30 1871 H 172.524 -1.96089 -2.57548 0
M  V30 1872 H 171.431 -3.61713 -0.954714 0
M  V30 1873 H 172.764 -4.75396 -1.27513 0
M  V30 1874 N 174.416 0.165178 -1.56732 0
M  V30 1875 C 175.641 0.900253 -1.86843 0
M  V30 1876 C 176.066 1.74766 -0.695596 0
M  V30 1877 O 175.424 1.77786 0.35522 0
M  V30 1878 C 175.472 1.74777 -3.15413 0
M  V30 1879 O 174.576 2.85007 -2.98068 0
M  V30 1880 H 173.917 0.251832 -0.614391 0
M  V30 1881 H 176.447 0.161468 -2.03962 0
M  V30 1882 H 176.457 2.14646 -3.46974 0
M  V30 1883 H 175.132 1.12537 -4.00385 0
M  V30 1884 H 173.709 2.48676 -2.77875 0
M  V30 1885 N 175.894 1.51508 0.433938 0
M  V30 1886 C 177.31 1.39759 0.770682 0
M  V30 1887 C 177.51 0.482594 1.95636 0
M  V30 1888 O 176.566 -0.0609691 2.52426 0
M  V30 1889 C 177.879 2.81851 1.04787 0
M  V30 1890 C 179.427 2.91025 1.1521 0
M  V30 1891 C 179.902 4.34032 1.46219 0
M  V30 1892 N 181.393 4.37154 1.53136 0
M  V30 1893 C 182.128 5.4484 1.78709 0
M  V30 1894 N 181.624 6.62682 2.02051 0
M  V30 1895 N 183.417 5.32324 1.80519 0
M  V30 1896 H 175.568 2.09548 -0.346892 0
M  V30 1897 H 177.831 0.943446 -0.0928074 0
M  V30 1898 H 177.537 3.50815 0.249304 0
M  V30 1899 H 177.411 3.21386 1.97461 0
M  V30 1900 H 179.798 2.22257 1.94128 0
M  V30 1901 H 179.879 2.54983 0.204281 0
M  V30 1902 H 179.523 5.03351 0.678274 0
M  V30 1903 H 179.453 4.6759 2.42212 0
M  V30 1904 H 181.944 3.52197 1.36987 0
M  V30 1905 H 182.257 7.40543 2.20943 0
M  V30 1906 H 180.602 6.65791 1.99366 0
M  V30 1907 H 183.793 4.39246 1.61805 0
M  V30 1908 H 183.966 6.16328 2.00111 0
M  V30 1909 N 177.372 -0.689602 1.41712 0
M  V30 1910 C 178.783 -1.26973 1.36875 0
M  V30 1911 C 179.134 -1.96124 0.054748 0
M  V30 1912 O 178.259 -1.99141 -0.84687 0
M  V30 1913 C 178.854 -2.30912 2.47922 0
M  V30 1914 C 177.413 -2.84486 2.46464 0
M  V30 1915 C 176.56 -1.58603 2.27465 0
M  V30 1916 H 179.511 -0.48396 1.51141 0
M  V30 1917 H 179.532 -3.12331 2.17323 0
M  V30 1918 H 179.044 -1.80554 3.43543 0
M  V30 1919 H 177.145 -3.39005 1.54617 0
M  V30 1920 H 177.258 -3.34511 3.42986 0
M  V30 1921 H 175.622 -1.84632 1.75451 0
M  V30 1922 H 176.405 -1.10233 3.25121 0
M  V30 1923 N 178.85 -1.27639 -0.924453 0
M  V30 1924 C 179.813 -1.10681 -2.00705 0
M  V30 1925 C 180.813 -0.0497823 -1.60723 0
M  V30 1926 O 182.003 -0.294654 -1.7169 0
M  V30 1927 C 179.135 -0.687164 -3.33902 0
M  V30 1928 H 180.328 -2.06817 -2.17179 0
M  V30 1929 H 177.881 -1.10473 -1.10569 0
M  V30 1930 H 178.616 0.275439 -3.23128 0
M  V30 1931 H 178.401 -1.45061 -3.6428 0
M  V30 1932 H 179.891 -0.590853 -4.13399 0
M  V30 1933 N 180.328 1.1314 -1.09713 0
M  V30 1934 C 181.553 1.88862 -0.857081 0
M  V30 1935 C 181.978 1.78729 0.586304 0
M  V30 1936 O 181.336 1.13692 1.41222 0
M  V30 1937 C 181.384 3.36325 -1.30069 0
M  V30 1938 O 180.488 4.09815 -0.461007 0
M  V30 1939 H 179.829 0.587108 -0.310162 0
M  V30 1940 H 182.359 1.43129 -1.46203 0
M  V30 1941 H 182.369 3.87157 -1.28738 0
M  V30 1942 H 181.044 3.43017 -2.35185 0
M  V30 1943 H 179.621 3.68986 -0.538888 0
M  V30 1944 N 181.806 0.884767 1.30421 0
M  V30 1945 C 183.217 0.553656 1.78302 0
M  V30 1946 C 183.568 -0.930153 1.7275 0
M  V30 1947 O 182.693 -1.72681 1.30423 0
M  V30 1948 C 183.288 0.998234 3.2376 0
M  V30 1949 C 181.847 0.71854 3.69478 0
M  V30 1950 C 180.994 1.18132 2.50879 0
M  V30 1951 H 183.945 1.06901 1.17294 0
M  V30 1952 H 183.966 0.327118 3.79091 0
M  V30 1953 H 183.478 2.0782 3.27769 0
M  V30 1954 H 181.579 -0.349444 3.70958 0
M  V30 1955 H 181.692 1.30595 4.60958 0
M  V30 1956 H 180.056 0.600669 2.47516 0
M  V30 1957 H 180.839 2.26902 2.57624 0
M  V30 1958 N 183.284 -1.43765 0.645699 0
M  V30 1959 C 184.531 -2.01898 0.15604 0
M  V30 1960 C 184.859 -1.50887 -1.22733 0
M  V30 1961 O 184.114 -0.689271 -1.8316 0
M  V30 1962 C 184.413 -3.57238 0.107679 0
M  V30 1963 C 184.079 -4.27564 1.43178 0
M  V30 1964 C 182.741 -4.46492 1.7944 0
M  V30 1965 C 185.093 -4.67454 2.30513 0
M  V30 1966 C 182.421 -5.02573 3.02716 0
M  V30 1967 C 184.773 -5.24901 3.53074 0
M  V30 1968 C 183.437 -5.42046 3.89541 0
M  V30 1969 H 182.707 -0.738797 0.057099 0
M  V30 1970 H 185.354 -1.72341 0.834912 0
M  V30 1971 H 183.659 -3.86293 -0.654618 0
M  V30 1972 H 185.356 -3.99965 -0.287938 0
M  V30 1973 H 181.946 -4.13171 1.13963 0
M  V30 1974 H 186.13 -4.5253 2.0379 0
M  V30 1975 H 181.386 -5.14033 3.31028 0
M  V30 1976 H 185.56 -5.54758 4.20971 0
M  V30 1977 H 183.187 -5.85268 4.85145 0
M  V30 1978 N 184.763 -0.387143 -1.52771 0
M  V30 1979 C 185.673 0.456442 -2.30117 0
M  V30 1980 C 186.689 1.07342 -1.36944 0
M  V30 1981 O 187.865 1.07971 -1.70013 0
M  V30 1982 C 184.93 1.56957 -3.09136 0
M  V30 1983 C 183.991 0.977916 -4.18014 0
M  V30 1984 C 183.224 2.038 -4.93256 0
M  V30 1985 O 183.447 3.25271 -4.68567 0
M  V30 1986 O 182.381 1.6565 -5.78657 0
M  V30 1987 H 186.207 -0.17359 -3.03203 0
M  V30 1988 H 183.792 -0.150919 -1.48636 0
M  V30 1989 H 185.674 2.21628 -3.58412 0
M  V30 1990 H 184.349 2.18461 -2.38865 0
M  V30 1991 H 183.256 0.294525 -3.72939 0
M  V30 1992 H 184.589 0.407128 -4.90513 0
M  V30 1993 N 186.241 1.57166 -0.116904 0
M  V30 1994 C 187.189 2.16457 0.851418 0
M  V30 1995 C 188.183 1.11323 1.27686 0
M  V30 1996 O 189.389 1.2963 1.24884 0
M  V30 1997 H 185.764 0.69271 0.292672 0
M  V30 1998 H 187.735 2.96605 0.32685 0
M  V30 1999 C 186.484 2.77689 2.09246 0
M  V30 2000 H 185.807 3.58285 1.77402 0
M  V30 2001 H 187.247 3.22716 2.7501 0
M  V30 2002 C 185.706 1.74667 2.88085 0
M  V30 2003 O 186.236 1.19877 3.83396 0
M  V30 2004 N 184.442 1.44656 2.52038 0
M  V30 2005 H 183.989 1.89402 1.74599 0
M  V30 2006 H 183.947 0.759675 3.05084 0
M  V30 2007 N 187.719 -0.156864 1.56817 0
M  V30 2008 C 188.947 -0.886316 1.86955 0
M  V30 2009 C 189.362 -1.75185 0.703975 0
M  V30 2010 O 188.719 -1.79555 -0.326552 0
M  V30 2011 C 188.77 -1.75117 3.16253 0
M  V30 2012 O 188.491 -0.920537 4.2832 0
M  V30 2013 C 189.992 -2.58905 3.59837 0
M  V30 2014 H 187.212 -0.25678 0.619923 0
M  V30 2015 H 189.756 -0.152615 2.0393 0
M  V30 2016 H 187.911 -2.43805 3.01062 0
M  V30 2017 H 188.325 -1.51337 5.02192 0
M  V30 2018 H 189.799 -3.1518 4.53172 0
M  V30 2019 H 190.276 -3.34472 2.84649 0
M  V30 2020 H 190.882 -1.95526 3.7769 0
M  V30 2021 N 189.197 -1.51736 -0.425897 0
M  V30 2022 C 190.16 -1.73271 -1.50032 0
M  V30 2023 C 191.16 -0.602639 -1.4908 0
M  V30 2024 O 192.35 -0.87033 -1.509 0
M  V30 2025 C 189.482 -1.79969 -2.89523 0
M  V30 2026 H 190.675 -2.69172 -1.32237 0
M  V30 2027 H 188.228 -1.41899 -0.65532 0
M  V30 2028 H 188.963 -0.859241 -3.1271 0
M  V30 2029 H 188.748 -2.62109 -2.91619 0
M  V30 2030 H 190.238 -1.9843 -3.67444 0
M  V30 2031 N 190.675 0.682077 -1.42076 0
M  V30 2032 C 192.086 1.26246 -1.37546 0
M  V30 2033 C 192.437 1.96092 -0.0651481 0
M  V30 2034 O 191.562 1.99587 0.836297 0
M  V30 2035 C 192.157 2.29594 -2.49143 0
M  V30 2036 C 190.716 2.83175 -2.47969 0
M  V30 2037 C 189.863 1.57395 -2.28303 0
M  V30 2038 H 192.814 0.475937 -1.51395 0
M  V30 2039 H 192.835 3.11175 -2.18976 0
M  V30 2040 H 192.347 1.78729 -3.44496 0
M  V30 2041 H 190.448 3.3818 -1.56413 0
M  V30 2042 H 190.561 3.32687 -3.44755 0
M  V30 2043 H 188.925 1.83699 -1.76428 0
M  V30 2044 H 189.708 1.08507 -3.25701 0
M  V30 2045 N 192.153 1.28127 0.917671 0
M  V30 2046 C 193.116 1.11744 2.00115 0
M  V30 2047 C 194.116 0.0583052 1.60694 0
M  V30 2048 O 195.306 0.303755 1.71531 0
M  V30 2049 C 192.438 0.704862 3.33533 0
M  V30 2050 H 193.631 2.07966 2.16079 0
M  V30 2051 H 191.184 1.11058 1.09981 0
M  V30 2052 H 191.919 -0.258299 3.2327 0
M  V30 2053 H 191.704 1.4699 3.63505 0
M  V30 2054 H 193.194 0.612768 4.1308 0
M  V30 2055 N 193.631 -1.12557 1.10312 0
M  V30 2056 C 195.047 -1.36036 0.834649 0
M  V30 2057 C 195.247 -1.93946 -0.546539 0
M  V30 2058 O 194.303 -2.16484 -1.29966 0
M  V30 2059 C 195.616 -2.30312 1.9333 0
M  V30 2060 C 197.164 -2.43906 1.9616 0
M  V30 2061 C 197.639 -3.41496 3.05195 0
M  V30 2062 N 199.13 -3.49053 3.04494 0
M  V30 2063 C 199.865 -4.24471 3.85502 0
M  V30 2064 N 199.361 -5.02966 4.76442 0
M  V30 2065 N 201.154 -4.19864 3.73725 0
M  V30 2066 H 193.305 -0.733246 1.99342 0
M  V30 2067 H 195.568 -0.385234 0.866198 0
M  V30 2068 H 195.274 -1.94933 2.92735 0
M  V30 2069 H 195.148 -3.30421 1.81939 0
M  V30 2070 H 197.535 -2.78567 0.973886 0
M  V30 2071 H 197.616 -1.4369 2.11629 0
M  V30 2072 H 197.26 -3.07565 4.04186 0
M  V30 2073 H 197.19 -4.41539 2.86968 0
M  V30 2074 H 199.681 -2.93053 2.38596 0
M  V30 2075 H 199.994 -5.57846 5.34815 0
M  V30 2076 H 198.339 -5.02167 4.80472 0
M  V30 2077 H 201.53 -3.57623 3.02032 0
M  V30 2078 H 201.703 -4.78386 4.37093 0
M  V30 2079 N 195.109 -0.891671 -1.2995 0
M  V30 2080 C 196.039 -0.379797 -2.30391 0
M  V30 2081 C 197.02 0.540919 -1.6127 0
M  V30 2082 O 198.205 0.453352 -1.88834 0
M  V30 2083 C 195.335 0.400654 -3.44981 0
M  V30 2084 C 194.289 -0.428905 -4.25846 0
M  V30 2085 C 193.615 0.478557 -5.32554 0
M  V30 2086 C 194.915 -1.67458 -4.94727 0
M  V30 2087 H 196.609 -1.21914 -2.73454 0
M  V30 2088 H 194.155 -0.587675 -1.31462 0
M  V30 2089 H 196.108 0.769434 -4.14316 0
M  V30 2090 H 194.832 1.27371 -3.0074 0
M  V30 2091 H 193.491 -0.779911 -3.58208 0
M  V30 2092 H 193.139 1.34951 -4.84559 0
M  V30 2093 H 192.839 -0.0727433 -5.87555 0
M  V30 2094 H 194.363 0.843705 -6.04743 0
M  V30 2095 H 195.777 -1.376 -5.56542 0
M  V30 2096 H 194.174 -2.16659 -5.59624 0
M  V30 2097 H 195.244 -2.41518 -4.20473 0
M  V30 2098 N 196.587 1.43421 -0.653314 0
M  V30 2099 C 197.815 2.06163 -0.174491 0
M  V30 2100 C 198.23 1.48969 1.1599 0
M  V30 2101 O 197.587 0.621042 1.71608 0
M  V30 2102 C 197.638 3.61417 -0.0774865 0
M  V30 2103 O 197.359 4.16485 -1.35912 0
M  V30 2104 C 198.86 4.41235 0.427402 0
M  V30 2105 H 196.08 0.664946 -0.0899353 0
M  V30 2106 H 198.624 1.83924 -0.893988 0
M  V30 2107 H 196.779 3.82841 0.59257 0
M  V30 2108 H 197.193 5.10153 -1.21839 0
M  V30 2109 H 198.667 5.5021 0.44423 0
M  V30 2110 H 199.144 4.14268 1.45873 0
M  V30 2111 H 199.75 4.2478 -0.210167 0
M  V30 2112 N 198.065 0.39524 1.52563 0
M  V30 2113 C 199.29 -0.187456 2.06551 0
M  V30 2114 C 199.715 -1.39249 1.26457 0
M  V30 2115 O 199.073 -1.78947 0.291151 0
M  V30 2116 C 199.121 -0.529985 3.56684 0
M  V30 2117 O 198.225 -1.62307 3.79118 0
M  V30 2118 H 197.566 -0.0202537 0.663691 0
M  V30 2119 H 200.096 0.564426 1.96661 0
M  V30 2120 H 200.106 -0.792598 4.00227 0
M  V30 2121 H 198.781 0.350987 4.14416 0
M  V30 2122 H 197.358 -1.3537 3.47461 0
M  V30 2123 N 199.544 -1.57102 0.125237 0
M  V30 2124 C 200.769 -2.0019 -0.542101 0
M  V30 2125 C 201.194 -1.00449 -1.59034 0
M  V30 2126 O 200.552 0.0229423 -1.81285 0
M  V30 2127 C 200.6 -3.42129 -1.13929 0
M  V30 2128 O 199.704 -3.45307 -2.2547 0
M  V30 2129 H 199.045 -0.650171 -0.134812 0
M  V30 2130 H 201.575 -2.03461 0.215553 0
M  V30 2131 H 201.585 -3.80471 -1.4733 0
M  V30 2132 H 200.26 -4.14237 -0.371531 0
M  V30 2133 H 198.837 -3.1879 -1.93462 0
M  V30 2134 N 201.022 0.148545 -1.56898 0
M  V30 2135 C 202.25 0.876389 -1.87422 0
M  V30 2136 C 202.665 1.74809 -0.713256 0
M  V30 2137 O 202.022 1.79725 0.317025 0
M  V30 2138 C 202.073 1.73438 -3.17178 0
M  V30 2139 O 201.794 0.897809 -4.28802 0
M  V30 2140 C 203.295 2.56993 -3.61205 0
M  V30 2141 H 200.515 0.253489 -0.621277 0
M  V30 2142 H 203.059 0.141798 -2.04008 0
M  V30 2143 H 201.214 2.42205 -3.0235 0
M  V30 2144 H 201.628 1.48672 -5.02988 0
M  V30 2145 H 203.102 3.12773 -4.54838 0
M  V30 2146 H 203.579 3.32958 -2.86419 0
M  V30 2147 H 204.185 1.9352 -3.78722 0
M  V30 2148 N 202.5 1.5196 0.417844 0
M  V30 2149 C 203.463 1.74065 1.49111 0
M  V30 2150 C 204.463 0.610537 1.48758 0
M  V30 2151 O 205.653 0.87832 1.50437 0
M  V30 2152 C 202.785 1.81502 2.88565 0
M  V30 2153 H 203.978 2.69869 1.30807 0
M  V30 2154 H 201.531 1.42244 0.647785 0
M  V30 2155 H 202.266 0.875813 3.1225 0
M  V30 2156 H 202.051 2.63651 2.90225 0
M  V30 2157 H 203.541 2.00376 3.66387 0
M  V30 2158 N 203.978 -0.674533 1.42435 0
M  V30 2159 C 205.206 -1.46283 1.46317 0
M  V30 2160 C 205.621 -1.88653 0.0745836 0
M  V30 2161 O 204.978 -1.58151 -0.91074 0
M  V30 2162 C 205.029 -2.71178 2.3905 0
M  V30 2163 O 204.75 -2.30586 3.72507 0
M  V30 2164 C 206.251 -3.64738 2.51955 0
M  V30 2165 H 203.471 -0.450104 0.497642 0
M  V30 2166 H 206.015 -0.828792 1.86953 0
M  V30 2167 H 204.17 -3.3077 2.01667 0
M  V30 2168 H 204.584 -3.11241 4.22172 0
M  V30 2169 H 206.058 -4.49096 3.20962 0
M  V30 2170 H 206.535 -4.10656 1.55752 0
M  V30 2171 H 207.141 -3.11038 2.90061 0
M  V30 2172 N 205.456 -1.28612 -0.910864 0
M  V30 2173 C 206.419 -1.12803 -1.9952 0
M  V30 2174 C 207.419 -0.0668264 -1.60661 0
M  V30 2175 O 208.609 -0.312847 -1.71368 0
M  V30 2176 C 205.741 -0.72254 -3.33155 0
M  V30 2177 H 206.934 -2.09109 -2.14973 0
M  V30 2178 H 204.487 -1.11639 -1.09391 0
M  V30 2179 H 205.222 0.241152 -3.23402 0
M  V30 2180 H 205.007 -1.48916 -3.62721 0
M  V30 2181 H 206.497 -0.634666 -4.12749 0
M  V30 2182 N 206.934 1.1197 -1.10907 0
M  V30 2183 C 207.897 2.16031 -0.765707 0
M  V30 2184 C 208.897 1.59393 0.212235 0
M  V30 2185 O 210.087 1.74196 -0.0115441 0
M  V30 2186 C 207.219 3.40632 -0.135053 0
M  V30 2187 H 208.412 2.47919 -1.68748 0
M  V30 2188 H 205.965 1.27061 -0.910226 0
M  V30 2189 H 206.7 3.14348 0.797218 0
M  V30 2190 H 206.485 3.8302 -0.838937 0
M  V30 2191 H 207.975 4.17505 0.0892469 0
M  V30 2192 N 208.412 0.89855 1.29475 0
M  V30 2193 C 209.64 0.539261 1.99749 0
M  V30 2194 C 210.055 -0.875716 1.67262 0
M  V30 2195 O 209.412 -1.57786 0.917049 0
M  V30 2196 C 209.463 0.72061 3.54245 0
M  V30 2197 O 209.184 2.07989 3.8558 0
M  V30 2198 C 210.685 0.366118 4.41786 0
M  V30 2199 H 207.905 0.207047 0.638258 0
M  V30 2200 H 210.449 1.20758 1.65039 0
M  V30 2201 H 208.604 0.0994862 3.87272 0
M  V30 2202 H 209.018 2.10841 4.80257 0
M  V30 2203 H 210.492 0.543848 5.49314 0
M  V30 2204 H 210.969 -0.696763 4.33638 0
M  V30 2205 H 211.575 0.964135 4.14228 0
M  V30 2206 N 209.89 -1.43072 0.660911 0
M  V30 2207 C 211.115 -2.06584 0.183805 0
M  V30 2208 C 211.54 -1.49257 -1.14472 0
M  V30 2209 O 210.898 -0.605528 -1.70889 0
M  V30 2210 C 210.946 -3.60418 0.114434 0
M  V30 2211 O 210.05 -4.01981 -0.921137 0
M  V30 2212 H 209.391 -0.656669 0.0983994 0
M  V30 2213 H 211.921 -1.83447 0.906006 0
M  V30 2214 H 211.931 -4.07946 -0.0663394 0
M  V30 2215 H 210.606 -4.01519 1.08422 0
M  V30 2216 H 209.183 -3.66029 -0.71253 0
M  V30 2217 N 211.368 -0.403325 -1.52352 0
M  V30 2218 C 212.315 0.425011 -2.26853 0
M  V30 2219 C 213.285 1.04598 -1.29029 0
M  V30 2220 O 214.47 1.07135 -1.57882 0
M  V30 2221 C 211.61 1.53888 -3.08889 0
M  V30 2222 C 210.723 0.939396 -4.21663 0
M  V30 2223 C 209.858 2.02547 -4.91068 0
M  V30 2224 C 208.897 1.40263 -5.95813 0
M  V30 2225 N 208.034 2.4286 -6.58759 0
M  V30 2226 H 212.874 -0.21674 -2.97211 0
M  V30 2227 H 210.411 -0.118722 -1.4662 0
M  V30 2228 H 212.369 2.19558 -3.54753 0
M  V30 2229 H 210.999 2.15074 -2.40714 0
M  V30 2230 H 210.051 0.171898 -3.80011 0
M  V30 2231 H 211.363 0.44436 -4.96817 0
M  V30 2232 H 210.517 2.75958 -5.40308 0
M  V30 2233 H 209.256 2.55415 -4.15469 0
M  V30 2234 H 208.261 0.653833 -5.45898 0
M  V30 2235 H 209.486 0.881719 -6.73352 0
M  V30 2236 H 207.432 2.94871 -5.85992 0
M  V30 2237 H 207.349 1.98152 -7.2957 0
M  V30 2238 H 208.617 3.15858 -7.12639 0
M  V30 2239 N 212.846 1.57033 -0.133567 0
M  V30 2240 C 214.257 1.82593 0.389464 0
M  V30 2241 C 214.608 1.05156 1.6564 0
M  V30 2242 O 213.733 0.292644 2.14412 0
M  V30 2243 C 214.328 3.31204 0.713377 0
M  V30 2244 C 212.887 3.57393 1.18098 0
M  V30 2245 C 212.034 2.76598 0.197126 0
M  V30 2246 H 214.985 1.54598 -0.358481 0
M  V30 2247 H 215.006 3.46627 1.56939 0
M  V30 2248 H 214.518 3.87537 -0.2089 0
M  V30 2249 H 212.619 3.06433 2.11966 0
M  V30 2250 H 212.732 4.65915 1.11624 0
M  V30 2251 H 211.096 2.45257 0.687088 0
M  V30 2252 H 211.879 3.35697 -0.718504 0
M  V30 2253 N 214.325 -0.140222 1.56975 0
M  V30 2254 C 215.571 -0.852949 1.83991 0
M  V30 2255 C 215.904 -1.80512 0.716187 0
M  V30 2256 O 215.179 -1.92479 -0.279681 0
M  V30 2257 C 215.462 -1.6215 3.21527 0
M  V30 2258 C 215.315 -0.690363 4.4447 0
M  V30 2259 C 216.634 -2.58247 3.56366 0
M  V30 2260 H 213.753 -0.308634 0.669264 0
M  V30 2261 H 216.395 -0.117898 1.89634 0
M  V30 2262 H 214.545 -2.24812 3.16847 0
M  V30 2263 H 216.217 -0.0742264 4.6124 0
M  V30 2264 H 214.46 -0.000396433 4.338 0
M  V30 2265 H 215.131 -1.2643 5.37326 0
M  V30 2266 H 217.607 -2.05701 3.61699 0
M  V30 2267 H 216.483 -3.09067 4.53617 0
M  V30 2268 H 216.744 -3.39923 2.82674 0
M  V30 2269 N 215.803 -1.52179 -0.40978 0
M  V30 2270 C 217.031 -1.70054 -1.17853 0
M  V30 2271 C 217.446 -0.409735 -1.843 0
M  V30 2272 O 216.803 0.614183 -1.71855 0
M  V30 2273 C 216.854 -2.83568 -2.24213 0
M  V30 2274 O 216.575 -4.0765 -1.60478 0
M  V30 2275 C 218.076 -3.12947 -3.13973 0
M  V30 2276 H 215.296 -0.569917 -0.354169 0
M  V30 2277 H 217.84 -1.98734 -0.482198 0
M  V30 2278 H 215.995 -2.57409 -2.89516 0
M  V30 2279 H 216.409 -4.70899 -2.30986 0
M  V30 2280 H 217.883 -3.95889 -3.84677 0
M  V30 2281 H 218.36 -2.26472 -3.76307 0
M  V30 2282 H 218.966 -3.40868 -2.5434 0
M  V30 2283 N 217.281 0.66697 -1.42791 0
M  V30 2284 C 218.506 1.46004 -1.47301 0
M  V30 2285 C 218.931 1.87894 -0.0880317 0
M  V30 2286 O 218.289 1.56502 0.915253 0
M  V30 2287 C 218.337 2.68031 -2.41229 0
M  V30 2288 O 217.441 3.6659 -1.88906 0
M  V30 2289 H 216.782 0.43832 -0.49877 0
M  V30 2290 H 219.312 0.817391 -1.87563 0
M  V30 2291 H 219.322 3.1601 -2.58073 0
M  V30 2292 H 217.997 2.36883 -3.41847 0
M  V30 2293 H 216.574 3.25661 -1.81656 0
M  V30 2294 N 218.759 1.29093 0.90403 0
M  V30 2295 C 220.005 1.16986 1.65656 0
M  V30 2296 C 220.338 -0.278925 1.92186 0
M  V30 2297 O 219.613 -1.2019 1.5292 0
M  V30 2298 C 219.896 1.97908 3.0084 0
M  V30 2299 C 219.749 3.50903 2.81403 0
M  V30 2300 C 221.068 1.80208 4.01513 0
M  V30 2301 H 218.187 0.426346 0.601164 0
M  V30 2302 H 220.829 1.58518 1.04747 0
M  V30 2303 H 218.979 1.62616 3.52829 0
M  V30 2304 H 220.651 3.96153 2.36348 0
M  V30 2305 H 218.894 3.76045 2.1627 0
M  V30 2306 H 219.565 4.02791 3.77443 0
M  V30 2307 H 222.041 2.11025 3.58619 0
M  V30 2308 H 220.917 2.39184 4.94047 0
M  V30 2309 H 221.178 0.756119 4.35586 0
M  V30 2310 N 220.237 -1.11381 1.11499 0
M  V30 2311 C 221.2 -2.15622 0.777153 0
M  V30 2312 C 222.2 -1.59504 -0.203779 0
M  V30 2313 O 223.39 -1.74188 0.020782 0
M  V30 2314 C 220.522 -3.40556 0.153116 0
M  V30 2315 H 221.715 -2.47021 1.70061 0
M  V30 2316 H 219.268 -1.26577 0.916952 0
M  V30 2317 H 220.003 -3.14767 -0.780536 0
M  V30 2318 H 219.788 -3.8257 0.859238 0
M  V30 2319 H 221.278 -4.17546 -0.0671044 0
M  V30 2320 N 221.715 -0.905404 -1.28997 0
M  V30 2321 C 222.94 -0.549175 -1.99997 0
M  V30 2322 C 223.365 0.860276 -1.67275 0
M  V30 2323 O 222.723 1.57355 -0.900502 0
M  V30 2324 C 222.771 -0.755185 -3.52604 0
M  V30 2325 O 221.875 0.189692 -4.11964 0
M  V30 2326 H 221.216 -0.213899 -0.628604 0
M  V30 2327 H 223.746 -1.21856 -1.64354 0
M  V30 2328 H 223.756 -0.662045 -4.02593 0
M  V30 2329 H 222.431 -1.78271 -3.75755 0
M  V30 2330 H 221.008 0.0485257 -3.72868 0
M  V30 2331 N 223.193 1.4272 -0.668489 0
M  V30 2332 C 224.441 2.01226 -0.187769 0
M  V30 2333 C 224.762 1.53092 1.2078 0
M  V30 2334 O 224.032 0.74993 1.80977 0
M  V30 2335 H 222.612 0.744041 -0.0664272 0
M  V30 2336 H 225.274 1.74723 -0.863583 0
M  V30 2337 H 224.37 3.11556 -0.184166 0
M  V30 2338 N 224.671 0.411399 1.52136 0
M  V30 2339 C 226.082 -0.0576826 1.86611 0
M  V30 2340 C 226.433 -1.44238 1.33003 0
M  V30 2341 O 225.558 -2.05759 0.670228 0
M  V30 2342 C 226.153 -0.111448 3.38617 0
M  V30 2343 C 224.712 -0.52487 3.72723 0
M  V30 2344 C 223.859 0.299176 2.75681 0
M  V30 2345 H 226.81 0.628368 1.4573 0
M  V30 2346 H 226.831 -0.926252 3.69054 0
M  V30 2347 H 226.343 0.896488 3.77604 0
M  V30 2348 H 224.444 -1.53936 3.39315 0
M  V30 2349 H 224.557 -0.267681 4.78352 0
M  V30 2350 H 222.921 -0.238814 2.53578 0
M  V30 2351 H 223.704 1.3055 3.17508 0
M  V30 2352 N 226.149 -1.5696 0.141893 0
M  V30 2353 C 227.565 -1.58151 -0.21456 0
M  V30 2354 C 227.765 -1.1559 -1.65049 0
M  V30 2355 O 226.821 -0.853832 -2.37626 0
M  V30 2356 C 228.134 -3.00674 0.0395576 0
M  V30 2357 C 229.682 -3.1299 -0.0245529 0
M  V30 2358 C 230.157 -4.57554 0.202167 0
M  V30 2359 N 231.648 -4.62961 0.148919 0
M  V30 2360 C 232.383 -5.7262 0.298924 0
M  V30 2361 N 231.879 -6.90947 0.50637 0
M  V30 2362 N 233.672 -5.61601 0.236886 0
M  V30 2363 H 225.823 -1.8292 1.07953 0
M  V30 2364 H 228.086 -0.846425 0.42693 0
M  V30 2365 H 227.792 -3.36183 1.03315 0
M  V30 2366 H 227.666 -3.70981 -0.682143 0
M  V30 2367 H 230.053 -2.77326 -1.00869 0
M  V30 2368 H 230.134 -2.4518 0.729396 0
M  V30 2369 H 229.778 -4.93922 1.18338 0
M  V30 2370 H 229.708 -5.23484 -0.572044 0
M  V30 2371 H 232.199 -3.77899 -0.00697015 0
M  V30 2372 H 232.512 -7.7038 0.611076 0
M  V30 2373 H 230.857 -6.92878 0.542628 0
M  V30 2374 H 234.048 -4.68039 0.0756209 0
M  V30 2375 H 234.221 -6.47015 0.357227 0
M  V30 2376 N 227.627 0.131896 -1.57047 0
M  V30 2377 C 228.59 1.14638 -1.98471 0
M  V30 2378 C 229.59 1.35029 -0.873148 0
M  V30 2379 O 230.78 1.31764 -1.13946 0
M  V30 2380 C 227.912 2.50358 -2.31373 0
M  V30 2381 H 229.105 0.79064 -2.8929 0
M  V30 2382 H 226.658 0.375761 -1.51716 0
M  V30 2383 H 227.393 2.90876 -1.43393 0
M  V30 2384 H 227.178 2.36915 -3.12432 0
M  V30 2385 H 228.668 3.23395 -2.64207 0
M  V30 2386 N 229.106 1.52395 0.401703 0
M  V30 2387 C 230.036 1.79231 1.49661 0
M  V30 2388 C 231.017 0.643654 1.57452 0
M  V30 2389 O 232.202 0.889989 1.72606 0
M  V30 2390 C 229.332 1.94971 2.87409 0
M  V30 2391 C 228.286 3.10604 2.94465 0
M  V30 2392 C 227.612 3.11577 4.34538 0
M  V30 2393 C 228.912 4.49921 2.6527 0
M  V30 2394 H 230.606 2.70917 1.27454 0
M  V30 2395 H 228.152 1.30362 0.6117 0
M  V30 2396 H 230.105 2.12328 3.63999 0
M  V30 2397 H 228.829 0.999632 3.10926 0
M  V30 2398 H 227.488 2.93009 2.20321 0
M  V30 2399 H 227.136 2.14277 4.55076 0
M  V30 2400 H 226.836 3.89247 4.40183 0
M  V30 2401 H 228.36 3.31073 5.13053 0
M  V30 2402 H 229.774 4.67683 3.31581 0
M  V30 2403 H 228.171 5.29564 2.82281 0
M  V30 2404 H 229.241 4.57507 1.60671 0
M  V30 2405 N 230.584 -0.659388 1.43143 0
M  V30 2406 C 231.809 -1.45221 1.48073 0
M  V30 2407 C 232.234 -1.87845 0.097995 0
M  V30 2408 O 231.592 -1.56985 -0.90694 0
M  V30 2409 C 231.64 -2.66748 2.42647 0
M  V30 2410 O 230.744 -3.65583 1.90848 0
M  V30 2411 H 230.085 -0.435669 0.501088 0
M  V30 2412 H 232.615 -0.807432 1.87994 0
M  V30 2413 H 232.625 -3.14637 2.59745 0
M  V30 2414 H 231.3 -2.35067 3.43098 0
M  V30 2415 H 229.877 -3.24693 1.83381 0
M  V30 2416 N 232.062 -1.29571 -0.897171 0
M  V30 2417 C 233.478 -1.07637 -1.17841 0
M  V30 2418 C 233.678 0.170713 -2.00776 0
M  V30 2419 O 232.734 0.867768 -2.3712 0
M  V30 2420 C 234.047 -2.3332 -1.8969 0
M  V30 2421 C 235.595 -2.38664 -2.02505 0
M  V30 2422 C 236.07 -3.64157 -2.77765 0
M  V30 2423 N 237.561 -3.64894 -2.85318 0
M  V30 2424 C 238.296 -4.58679 -3.44094 0
M  V30 2425 N 237.792 -5.62799 -4.04017 0
M  V30 2426 N 239.585 -4.46245 -3.41793 0
M  V30 2427 H 231.736 -2.09598 -0.343883 0
M  V30 2428 H 233.999 -0.923333 -0.214848 0
M  V30 2429 H 233.705 -3.24262 -1.36187 0
M  V30 2430 H 233.579 -2.41025 -2.9015 0
M  V30 2431 H 235.966 -1.48208 -2.55183 0
M  V30 2432 H 236.047 -2.34943 -1.01171 0
M  V30 2433 H 235.691 -4.54965 -2.25763 0
M  V30 2434 H 235.621 -3.65137 -3.7945 0
M  V30 2435 H 238.112 -2.89613 -2.42761 0
M  V30 2436 H 238.425 -6.3048 -4.46895 0
M  V30 2437 H 236.77 -5.66605 -4.02472 0
M  V30 2438 H 239.961 -3.64094 -2.94199 0
M  V30 2439 H 240.134 -5.19518 -3.87304 0
M  V30 2440 N 233.54 1.10788 -1.12088 0
M  V30 2441 C 234.488 2.19111 -0.780587 0
M  V30 2442 C 235.482 1.67818 0.230961 0
M  V30 2443 O 236.688 1.79777 0.0895427 0
M  V30 2444 H 233.063 0.714477 -0.234578 0
M  V30 2445 H 235.034 2.45055 -1.70266 0
M  V30 2446 C 233.783 3.46818 -0.24747 0
M  V30 2447 H 233.106 3.86646 -1.01712 0
M  V30 2448 H 234.546 4.23973 -0.0476291 0
M  V30 2449 C 233.005 3.20968 1.02378 0
M  V30 2450 O 233.535 3.42298 2.10226 0
M  V30 2451 N 231.741 2.74658 0.949271 0
M  V30 2452 H 231.288 2.57501 0.0715173 0
M  V30 2453 H 231.246 2.57739 1.80049 0
M  V30 2454 N 235.018 0.912232 1.28515 0
M  V30 2455 C 235.95 0.35676 2.26406 0
M  V30 2456 C 236.963 -0.503933 1.54804 0
M  V30 2457 O 238.152 -0.319059 1.75625 0
M  V30 2458 C 235.252 -0.508825 3.35058 0
M  V30 2459 C 234.425 0.329007 4.36161 0
M  V30 2460 C 233.484 -0.471422 5.24084 0
M  V30 2461 O 232.51 0.115482 5.69083 0
M  V30 2462 N 233.712 -1.77479 5.52704 0
M  V30 2463 H 236.477 1.19818 2.74707 0
M  V30 2464 H 234.038 0.778022 1.4198 0
M  V30 2465 H 236.03 -1.051 3.90815 0
M  V30 2466 H 234.6 -1.25095 2.86478 0
M  V30 2467 H 233.82 1.05256 3.79888 0
M  V30 2468 H 235.108 0.90234 5.00735 0
M  V30 2469 H 234.506 -2.27417 5.17975 0
M  V30 2470 H 233.063 -2.26382 6.11224 0
M  V30 2471 N 236.496 -1.42363 0.676048 0
M  V30 2472 C 237.907 -1.84649 0.275948 0
M  V30 2473 C 238.258 -1.56588 -1.18214 0
M  V30 2474 O 237.383 -1.02634 -1.90513 0
M  V30 2475 C 237.978 -3.35178 0.494053 0
M  V30 2476 C 236.537 -3.76109 0.148061 0
M  V30 2477 C 235.684 -2.65931 0.785891 0
M  V30 2478 H 238.635 -1.32192 0.878121 0
M  V30 2479 H 238.656 -3.79655 -0.25343 0
M  V30 2480 H 238.168 -3.55571 1.55535 0
M  V30 2481 H 236.269 -3.61323 -0.909742 0
M  V30 2482 H 236.382 -4.7546 0.589454 0
M  V30 2483 H 234.746 -2.53773 0.217113 0
M  V30 2484 H 235.529 -2.89146 1.85067 0
M  V30 2485 N 237.974 -0.419461 -1.51915 0
M  V30 2486 C 238.906 0.43646 -2.25006 0
M  V30 2487 C 239.919 1.00149 -1.28351 0
M  V30 2488 O 241.108 0.898674 -1.54227 0
M  V30 2489 C 238.208 1.6206 -2.9764 0
M  V30 2490 C 237.381 1.17763 -4.21249 0
M  V30 2491 C 236.44 2.22985 -4.76617 0
M  V30 2492 O 235.466 1.83151 -5.38929 0
M  V30 2493 N 236.668 3.55271 -4.59089 0
M  V30 2494 H 239.433 -0.18989 -2.99098 0
M  V30 2495 H 236.994 -0.247386 -1.59999 0
M  V30 2496 H 238.986 2.32038 -3.31573 0
M  V30 2497 H 237.556 2.15266 -2.2667 0
M  V30 2498 H 236.776 0.305582 -3.93014 0
M  V30 2499 H 238.064 0.858781 -5.015 0
M  V30 2500 H 237.462 3.90377 -4.09417 0
M  V30 2501 H 236.019 4.21195 -4.97432 0
M  V30 2502 N 239.452 1.56882 -0.150215 0
M  V30 2503 C 240.682 2.00302 0.506213 0
M  V30 2504 C 241.09 1.02934 1.58749 0
M  V30 2505 O 240.433 0.0188384 1.8369 0
M  V30 2506 C 240.495 3.40156 1.16337 0
M  V30 2507 C 240.159 4.56439 0.226311 0
M  V30 2508 C 241.156 5.17012 -0.547265 0
M  V30 2509 C 238.841 5.02136 0.128279 0
M  V30 2510 C 240.835 6.21693 -1.40629 0
M  V30 2511 C 238.522 6.06672 -0.734345 0
M  V30 2512 C 239.52 6.6632 -1.50023 0
M  V30 2513 O 239.208 7.68831 -2.34848 0
M  V30 2514 H 238.94 0.662182 0.135984 0
M  V30 2515 H 241.494 2.03961 -0.242746 0
M  V30 2516 H 239.724 3.33346 1.96004 0
M  V30 2517 H 241.413 3.67663 1.71985 0
M  V30 2518 H 242.179 4.82603 -0.48158 0
M  V30 2519 H 238.058 4.55435 0.714157 0
M  V30 2520 H 241.602 6.68179 -2.00455 0
M  V30 2521 H 237.499 6.40507 -0.801309 0
M  V30 2522 H 238.267 7.86065 -2.28131 0
M  V30 2523 N 240.93 -0.123565 1.57115 0
M  V30 2524 C 242.341 -0.681198 1.73829 0
M  V30 2525 C 242.692 -1.80535 0.768214 0
M  V30 2526 O 241.817 -2.16317 -0.0599103 0
M  V30 2527 C 242.412 -1.24246 3.15196 0
M  V30 2528 C 240.971 -1.74643 3.33432 0
M  V30 2529 C 240.118 -0.644284 2.69711 0
M  V30 2530 H 243.069 0.102315 1.5837 0
M  V30 2531 H 243.09 -2.11216 3.16493 0
M  V30 2532 H 242.602 -0.424062 3.85776 0
M  V30 2533 H 240.703 -2.58974 2.67886 0
M  V30 2534 H 240.816 -1.85902 4.41562 0
M  V30 2535 H 239.18 -1.07676 2.3082 0
M  V30 2536 H 239.963 0.163058 3.42913 0
M  V30 2537 N 242.408 -1.52605 -0.393616 0
M  V30 2538 C 243.371 -1.76415 -1.46323 0
M  V30 2539 C 244.371 -0.634126 -1.47768 0
M  V30 2540 O 245.561 -0.902142 -1.4902 0
M  V30 2541 C 242.693 -1.8607 -2.85641 0
M  V30 2542 H 243.886 -2.71916 -1.26498 0
M  V30 2543 H 241.439 -1.43257 -0.625073 0
M  V30 2544 H 242.174 -0.925378 -3.10817 0
M  V30 2545 H 241.959 -2.68235 -2.85993 0
M  V30 2546 H 243.449 -2.06179 -3.63153 0
M  V30 2547 N 243.887 0.651787 -1.4349 0
M  V30 2548 C 245.303 0.96762 -1.26922 0
M  V30 2549 C 245.503 2.00602 -0.189982 0
M  V30 2550 O 244.559 2.48793 0.431107 0
M  V30 2551 C 245.872 1.45052 -2.63401 0
M  V30 2552 C 247.42 1.5671 -2.70945 0
M  V30 2553 C 247.895 2.0839 -4.07845 0
M  V30 2554 N 249.386 2.1569 -4.09917 0
M  V30 2555 C 250.121 2.56804 -5.12679 0
M  V30 2556 N 249.617 2.97203 -6.25813 0
M  V30 2557 N 251.41 2.56756 -5.00033 0
M  V30 2558 H 243.561 -0.0353158 -2.12371 0
M  V30 2559 H 245.824 0.0467858 -0.946845 0
M  V30 2560 H 245.53 0.761926 -3.43348 0
M  V30 2561 H 245.404 2.42529 -2.88894 0
M  V30 2562 H 247.791 2.2467 -1.9133 0
M  V30 2563 H 247.872 0.57662 -2.49216 0
M  V30 2564 H 247.516 1.41031 -4.87927 0
M  V30 2565 H 247.446 3.08271 -4.26938 0
M  V30 2566 H 249.937 1.87237 -3.28254 0
M  V30 2567 H 250.25 3.27328 -7.00055 0
M  V30 2568 H 248.595 2.95004 -6.29283 0
M  V30 2569 H 251.786 2.24572 -4.10713 0
M  V30 2570 H 251.959 2.88475 -5.80247 0
M  V30 2571 N 245.365 1.30045 0.890287 0
M  V30 2572 C 246.328 1.15963 1.977 0
M  V30 2573 C 247.328 0.0923777 1.60534 0
M  V30 2574 O 248.518 0.340071 1.70848 0
M  V30 2575 C 245.65 0.775451 3.31963 0
M  V30 2576 H 246.843 2.12502 2.11619 0
M  V30 2577 H 244.396 1.13366 1.07601 0
M  V30 2578 H 245.131 -0.189671 3.23745 0
M  V30 2579 H 244.916 1.54668 3.60306 0
M  V30 2580 H 246.406 0.700251 4.11687 0
M  V30 2581 N 246.843 -1.10192 1.12674 0
M  V30 2582 C 247.775 -2.16418 0.754701 0
M  V30 2583 C 248.788 -1.61309 -0.21986 0
M  V30 2584 O 249.977 -1.785 -0.000826841 0
M  V30 2585 C 247.077 -3.38762 0.096698 0
M  V30 2586 C 246.25 -4.23307 1.10136 0
M  V30 2587 C 245.309 -5.24092 0.470513 0
M  V30 2588 O 244.335 -5.57906 1.12824 0
M  V30 2589 N 245.537 -5.75491 -0.760948 0
M  V30 2590 H 248.302 -2.48943 1.66875 0
M  V30 2591 H 245.863 -1.25834 1.01869 0
M  V30 2592 H 247.855 -4.03291 -0.337384 0
M  V30 2593 H 246.425 -3.04192 -0.720153 0
M  V30 2594 H 245.645 -3.55036 1.71299 0
M  V30 2595 H 246.933 -4.76624 1.78064 0
M  V30 2596 H 246.331 -5.50222 -1.31424 0
M  V30 2597 H 244.888 -6.41792 -1.13781 0
M  V30 2598 N 248.321 -0.919034 -1.28029 0
M  V30 2599 C 249.284 -0.416182 -2.2539 0
M  V30 2600 C 250.284 0.460438 -1.54067 0
M  V30 2601 O 251.474 0.262744 -1.72207 0
M  V30 2602 C 248.606 0.402707 -3.38513 0
M  V30 2603 H 249.799 -1.27629 -2.71387 0
M  V30 2604 H 247.352 -0.698919 -1.39803 0
M  V30 2605 H 248.087 1.282 -2.97885 0
M  V30 2606 H 247.872 -0.225698 -3.9145 0
M  V30 2607 H 249.362 0.745191 -4.10897 0
M  V30 2608 N 249.799 1.42003 -0.683588 0
M  V30 2609 C 250.729 2.33487 -0.024866 0
M  V30 2610 C 251.71 1.51163 0.779975 0
M  V30 2611 O 252.895 1.79739 0.735362 0
M  V30 2612 C 250.025 3.3487 0.920836 0
M  V30 2613 C 248.979 4.27414 0.223958 0
M  V30 2614 C 248.305 5.19074 1.2832 0
M  V30 2615 C 249.605 5.14445 -0.90242 0
M  V30 2616 H 251.299 2.88819 -0.788921 0
M  V30 2617 H 248.845 1.38873 -0.38083 0
M  V30 2618 H 250.798 3.97787 1.39081 0
M  V30 2619 H 249.522 2.77861 1.71642 0
M  V30 2620 H 248.181 3.65904 -0.225864 0
M  V30 2621 H 247.829 4.58387 2.071 0
M  V30 2622 H 247.529 5.81822 0.821995 0
M  V30 2623 H 249.053 5.84867 1.75392 0
M  V30 2624 H 250.467 5.70998 -0.513272 0
M  V30 2625 H 248.864 5.86072 -1.28997 0
M  V30 2626 H 249.934 4.52322 -1.74737 0
M  V30 2627 N 251.277 0.427512 1.51691 0
M  V30 2628 C 252.693 0.0792977 1.59403 0
M  V30 2629 C 252.893 -1.41035 1.43914 0
M  V30 2630 O 251.949 -2.17922 1.27539 0
M  V30 2631 C 253.262 0.590636 2.94842 0
M  V30 2632 C 254.81 0.550215 3.08126 0
M  V30 2633 C 255.285 1.03836 4.46074 0
M  V30 2634 N 256.776 0.995943 4.52366 0
M  V30 2635 C 257.511 1.34463 5.57411 0
M  V30 2636 N 257.007 1.76569 6.69922 0
M  V30 2637 N 258.8 1.26343 5.47717 0
M  V30 2638 H 250.951 1.39687 1.60004 0
M  V30 2639 H 253.214 0.575003 0.753708 0
M  V30 2640 H 252.92 1.63251 3.11516 0
M  V30 2641 H 252.794 0.0102061 3.77199 0
M  V30 2642 H 255.181 -0.482654 2.91126 0
M  V30 2643 H 255.262 1.16693 2.27632 0
M  V30 2644 H 254.906 2.06965 4.63819 0
M  V30 2645 H 254.836 0.398286 5.25092 0
M  V30 2646 H 257.327 0.68661 3.7161 0
M  V30 2647 H 257.64 2.01438 7.46085 0
M  V30 2648 H 255.985 1.80488 6.71155 0
M  V30 2649 H 259.176 0.933209 4.58703 0
M  V30 2650 H 259.349 1.53846 6.29472 0
M  V30 2651 N 252.755 -1.56801 0.158532 0
M  V30 2652 C 254.004 -1.95665 -0.489702 0
M  V30 2653 C 254.317 -1.04654 -1.65248 0
M  V30 2654 O 255.523 -1.33146 -2.3661 0
M  V30 2655 C 253.979 -3.47874 -0.922582 0
M  V30 2656 C 253.587 -4.47489 0.213893 0
M  V30 2657 C 255.331 -3.95583 -1.53996 0
M  V30 2658 C 253.238 -5.90921 -0.237903 0
M  V30 2659 H 252.168 -0.730516 -0.186716 0
M  V30 2660 H 254.819 -1.81861 0.244722 0
M  V30 2661 H 253.201 -3.57051 -1.71261 0
M  V30 2662 H 254.375 -4.50017 0.991036 0
M  V30 2663 H 252.69 -4.09764 0.740407 0
M  V30 2664 H 255.287 -5.0019 -1.8898 0
M  V30 2665 H 255.63 -3.37789 -2.43319 0
M  V30 2666 H 256.163 -3.8937 -0.814611 0
M  V30 2667 H 252.902 -6.52559 0.620236 0
M  V30 2668 H 252.422 -5.91729 -0.980676 0
M  V30 2669 H 254.101 -6.43352 -0.686067 0
M  V30 2670 N 254.233 0.115231 -1.57178 0
M  V30 2671 C 255.143 1.15994 -2.03918 0
M  V30 2672 C 256.159 1.45103 -0.960268 0
M  V30 2673 O 257.335 1.56144 -1.27204 0
M  V30 2674 C 254.4 2.46568 -2.43732 0
M  V30 2675 C 253.461 2.24822 -3.65723 0
M  V30 2676 C 252.694 3.4917 -4.03629 0
M  V30 2677 O 252.917 4.56623 -3.41835 0
M  V30 2678 O 251.851 3.39949 -4.96708 0
M  V30 2679 H 255.677 0.793019 -2.93164 0
M  V30 2680 H 253.262 0.3263 -1.45793 0
M  V30 2681 H 255.144 3.23492 -2.70057 0
M  V30 2682 H 253.819 2.82726 -1.57631 0
M  V30 2683 H 252.726 1.45744 -3.44542 0
M  V30 2684 H 254.059 1.93566 -4.52541 0
M  V30 2685 N 255.711 1.52812 0.385517 0
M  V30 2686 C 256.959 1.67694 1.12797 0
M  V30 2687 C 257.28 0.421115 1.90399 0
M  V30 2688 O 256.55 -0.564551 1.87589 0
M  V30 2689 H 255.13 0.618155 0.419396 0
M  V30 2690 H 257.792 1.89938 0.436972 0
M  V30 2691 H 256.888 2.52896 1.82894 0
M  V30 2692 N 257.189 -0.644168 1.43834 0
M  V30 2693 C 258.121 -1.76955 1.45669 0
M  V30 2694 C 259.134 -1.58956 0.351666 0
M  V30 2695 O 260.323 -1.6751 0.616644 0
M  V30 2696 C 257.423 -3.14507 1.26248 0
M  V30 2697 C 256.596 -3.59083 2.49757 0
M  V30 2698 C 255.655 -4.75467 2.25427 0
M  V30 2699 O 254.681 -4.84444 2.98836 0
M  V30 2700 N 255.883 -5.66289 1.27661 0
M  V30 2701 H 258.648 -1.75856 2.42682 0
M  V30 2702 H 256.209 -0.828312 1.39106 0
M  V30 2703 H 258.201 -3.90067 1.0784 0
M  V30 2704 H 256.771 -3.10325 0.376478 0
M  V30 2705 H 255.991 -2.7387 2.8353 0
M  V30 2706 H 257.279 -3.85613 3.31934 0
M  V30 2707 H 256.677 -5.61718 0.670064 0
M  V30 2708 H 255.234 -6.41533 1.15234 0
M  V30 2709 N 258.668 -1.30515 -0.883378 0
M  V30 2710 C 259.914 -1.19607 -1.63774 0
M  V30 2711 C 260.247 0.248314 -1.92606 0
M  V30 2712 O 259.522 1.17742 -1.54813 0
M  V30 2713 C 259.805 -2.02669 -2.97653 0
M  V30 2714 C 259.658 -3.55335 -2.75784 0
M  V30 2715 C 260.977 -1.86573 -3.98596 0
M  V30 2716 H 258.096 -0.435856 -0.594305 0
M  V30 2717 H 260.738 -1.60165 -1.02212 0
M  V30 2718 H 258.888 -1.68208 -3.50197 0
M  V30 2719 H 260.56 -3.99863 -2.30016 0
M  V30 2720 H 258.803 -3.79438 -2.1026 0
M  V30 2721 H 259.474 -4.08745 -3.70988 0
M  V30 2722 H 261.95 -2.16703 -3.55217 0
M  V30 2723 H 260.826 -2.47014 -4.90179 0
M  V30 2724 H 261.087 -0.825321 -4.34328 0
M  V30 2725 N 260.146 1.09593 -1.13257 0
M  V30 2726 C 261.093 2.1618 -0.808381 0
M  V30 2727 C 262.063 1.64517 0.228754 0
M  V30 2728 O 263.248 1.9053 0.101381 0
M  V30 2729 C 260.388 3.43973 -0.278675 0
M  V30 2730 C 259.501 4.09545 -1.37466 0
M  V30 2731 C 258.636 5.25088 -0.803479 0
M  V30 2732 C 257.675 5.82579 -1.87799 0
M  V30 2733 N 256.812 6.89486 -1.32488 0
M  V30 2734 H 261.652 2.43254 -1.72138 0
M  V30 2735 H 259.189 1.19392 -0.859294 0
M  V30 2736 H 261.147 4.17174 0.0465583 0
M  V30 2737 H 259.777 3.17223 0.597459 0
M  V30 2738 H 258.829 3.34226 -1.81652 0
M  V30 2739 H 260.141 4.48307 -2.18684 0
M  V30 2740 H 259.295 6.05178 -0.429427 0
M  V30 2741 H 258.034 4.87684 0.0397956 0
M  V30 2742 H 257.039 5.01152 -2.26113 0
M  V30 2743 H 258.264 6.22045 -2.72463 0
M  V30 2744 H 256.21 6.54064 -0.503575 0
M  V30 2745 H 256.127 7.27007 -2.07355 0
M  V30 2746 H 257.395 7.73336 -0.978336 0
M  V30 2747 N 261.624 0.925811 1.2754 0
M  V30 2748 C 262.87 0.566092 1.94739 0
M  V30 2749 C 263.203 -0.890057 1.72603 0
M  V30 2750 O 262.478 -1.63467 1.05399 0
M  V30 2751 C 262.761 0.89054 3.48915 0
M  V30 2752 C 262.614 2.4003 3.80402 0
M  V30 2753 C 263.933 0.395101 4.38323 0
M  V30 2754 H 261.052 0.20714 0.707292 0
M  V30 2755 H 263.694 1.15725 1.50691 0
M  V30 2756 H 261.844 0.387452 3.86563 0
M  V30 2757 H 263.516 2.97494 3.52555 0
M  V30 2758 H 261.759 2.85028 3.2702 0
M  V30 2759 H 262.43 2.57785 4.8811 0
M  V30 2760 H 264.906 0.826241 4.07814 0
M  V30 2761 H 263.782 0.651086 5.45025 0
M  V30 2762 H 264.043 -0.704798 4.36446 0
M  V30 2763 N 263.102 -1.41638 0.69111 0
M  V30 2764 C 264.049 -2.30789 0.0229705 0
M  V30 2765 C 265.019 -1.46863 -0.775911 0
M  V30 2766 O 266.204 -1.75661 -0.74485 0
M  V30 2767 C 263.344 -3.32868 -0.910666 0
M  V30 2768 C 262.457 -4.31875 -0.103874 0
M  V30 2769 C 261.592 -5.21024 -1.03475 0
M  V30 2770 C 260.631 -6.11702 -0.220598 0
M  V30 2771 N 259.768 -6.93349 -1.10504 0
M  V30 2772 H 264.608 -2.87366 0.788978 0
M  V30 2773 H 262.145 -1.41535 0.400794 0
M  V30 2774 H 264.103 -3.90596 -1.46597 0
M  V30 2775 H 262.733 -2.77851 -1.64312 0
M  V30 2776 H 261.785 -3.76131 0.568285 0
M  V30 2777 H 263.097 -4.96003 0.527504 0
M  V30 2778 H 262.251 -5.83565 -1.65943 0
M  V30 2779 H 260.99 -4.57112 -1.69999 0
M  V30 2780 H 259.995 -5.48215 0.417187 0
M  V30 2781 H 261.22 -6.77668 0.440784 0
M  V30 2782 H 259.166 -6.3205 -1.75638 0
M  V30 2783 H 259.083 -7.54146 -0.529125 0
M  V30 2784 H 260.351 -7.60362 -1.71667 0
M  V30 2785 N 264.58 -0.43555 -1.51462 0
M  V30 2786 C 265.827 0.131514 -2.02072 0
M  V30 2787 C 266.155 1.42868 -1.31981 0
M  V30 2788 O 265.41 1.91076 -0.422883 0
M  V30 2789 C 265.709 0.39942 -3.55161 0
M  V30 2790 C 265.375 -0.81172 -4.43533 0
M  V30 2791 C 264.037 -1.14387 -4.67407 0
M  V30 2792 C 266.389 -1.61976 -4.95392 0
M  V30 2793 C 263.717 -2.28477 -5.40384 0
M  V30 2794 C 266.069 -2.75164 -5.6962 0
M  V30 2795 C 264.733 -3.08835 -5.91758 0
M  V30 2796 H 264.003 0.0481244 -0.739436 0
M  V30 2797 H 266.65 -0.58238 -1.8243 0
M  V30 2798 H 264.955 1.19519 -3.73125 0
M  V30 2799 H 266.652 0.85157 -3.91854 0
M  V30 2800 H 263.242 -0.542898 -4.25148 0
M  V30 2801 H 267.426 -1.37637 -4.76833 0
M  V30 2802 H 262.682 -2.5488 -5.55739 0
M  V30 2803 H 266.856 -3.38147 -6.08793 0
M  V30 2804 H 264.483 -3.97353 -6.48086 0
M  V30 2805 N 266.058 1.56714 -0.166846 0
M  V30 2806 C 267.335 1.88412 0.525373 0
M  V30 2807 C 267.715 1.07602 1.81618 0
M  V30 2808 O 267.063 0.168621 2.27877 0
M  V30 2809 C 267.273 3.40363 0.771613 0
M  V30 2810 C 268.621 4.10007 1.1036 0
M  V30 2811 O 269.645 3.45655 0.860304 0
M  V30 2812 O 268.504 5.2369 1.56239 0
M  V30 2813 H 265.598 0.781587 0.270278 0
M  V30 2814 H 268.144 1.68458 -0.204946 0
M  V30 2815 H 266.916 3.91046 -0.141093 0
M  V30 2816 H 266.539 3.65914 1.55541 0
M  V30 2817 N 267.536 -0.106894 1.57237 0
M  V30 2818 C 268.782 -0.81373 1.85759 0
M  V30 2819 C 269.115 -1.78952 0.754315 0
M  V30 2820 O 268.39 -1.93029 -0.23879 0
M  V30 2821 C 268.673 -1.55293 3.24894 0
M  V30 2822 C 268.526 -0.595929 4.45835 0
M  V30 2823 C 269.845 -2.5063 3.61763 0
M  V30 2824 H 266.964 -0.294369 0.67566 0
M  V30 2825 H 269.606 -0.0776472 1.89841 0
M  V30 2826 H 267.756 -2.1804 3.21544 0
M  V30 2827 H 269.428 0.0236262 4.61294 0
M  V30 2828 H 267.671 0.0916191 4.33703 0
M  V30 2829 H 268.342 -1.15004 5.39887 0
M  V30 2830 H 270.818 -1.97982 3.65981 0
M  V30 2831 H 269.694 -2.99376 4.60071 0
M  V30 2832 H 269.955 -3.3385 2.89821 0
M  V30 2833 N 269.014 -1.53014 -0.377408 0
M  V30 2834 C 270.242 -1.72515 -1.14219 0
M  V30 2835 C 270.657 -0.448735 -1.8339 0
M  V30 2836 O 270.014 0.577592 -1.73119 0
M  V30 2837 C 270.065 -2.8826 -2.18148 0
M  V30 2838 O 269.786 -4.10962 -1.51795 0
M  V30 2839 C 271.287 -3.19536 -3.07264 0
M  V30 2840 H 268.507 -0.577301 -0.342001 0
M  V30 2841 H 271.051 -1.99712 -0.439935 0
M  V30 2842 H 269.206 -2.63492 -2.83991 0
M  V30 2843 H 269.62 -4.75693 -2.20945 0
M  V30 2844 H 271.094 -4.03959 -3.76193 0
M  V30 2845 H 271.571 -2.34403 -3.71419 0
M  V30 2846 H 272.177 -3.46186 -2.47053 0
M  V30 2847 N 270.492 0.636531 -1.44174 0
M  V30 2848 C 271.903 1.21806 -1.41493 0
M  V30 2849 C 272.254 1.95785 -0.1275 0
M  V30 2850 O 271.379 2.02147 0.772376 0
M  V30 2851 C 271.974 2.21551 -2.56321 0
M  V30 2852 C 270.533 2.75143 -2.56853 0
M  V30 2853 C 269.68 1.50052 -2.33195 0
M  V30 2854 H 272.631 0.427531 -1.52833 0
M  V30 2855 H 272.652 3.0405 -2.28765 0
M  V30 2856 H 272.164 1.67679 -3.50008 0
M  V30 2857 H 270.265 3.33033 -1.67093 0
M  V30 2858 H 270.378 3.2155 -3.55165 0
M  V30 2859 H 268.742 1.77993 -1.82183 0
M  V30 2860 H 269.525 0.980903 -3.28988 0
M  V30 2861 N 271.97 1.30982 0.876444 0
M  V30 2862 C 273.247 1.10942 1.61094 0
M  V30 2863 C 273.627 -0.338223 2.08373 0
M  V30 2864 O 272.975 -1.33122 1.85717 0
M  V30 2865 C 273.185 2.11789 2.77392 0
M  V30 2866 C 274.533 2.43965 3.47514 0
M  V30 2867 O 275.557 2.10166 2.87591 0
M  V30 2868 O 274.416 3.01817 4.55597 0
M  V30 2869 H 271.51 0.42667 0.708436 0
M  V30 2870 H 274.056 1.42438 0.922474 0
M  V30 2871 H 272.828 3.09194 2.39823 0
M  V30 2872 H 272.451 1.81161 3.5393 0
M  V30 2873 N 273.449 -1.08991 1.13837 0
M  V30 2874 C 274.697 -1.80899 0.901098 0
M  V30 2875 C 275.018 -1.86356 -0.574134 0
M  V30 2876 O 274.288 -1.35235 -1.41733 0
M  V30 2877 H 272.868 -0.669966 0.330386 0
M  V30 2878 H 275.53 -1.318 1.43578 0
M  V30 2879 H 274.626 -2.83929 1.29578 0
M  V30 2880 N 274.927 -0.932562 -1.27047 0
M  V30 2881 C 276.343 -0.633544 -1.46487 0
M  V30 2882 C 276.543 0.815746 -1.84249 0
M  V30 2883 O 275.599 1.59319 -1.95892 0
M  V30 2884 C 276.912 -1.58758 -2.55375 0
M  V30 2885 C 278.46 -1.59634 -2.69232 0
M  V30 2886 C 278.935 -2.53747 -3.81283 0
M  V30 2887 N 280.426 -2.51982 -3.88664 0
M  V30 2888 C 281.161 -3.21491 -4.74796 0
M  V30 2889 N 280.657 -4.00395 -5.65381 0
M  V30 2890 N 282.45 -3.10485 -4.68568 0
M  V30 2891 H 274.601 -1.86946 -1.00821 0
M  V30 2892 H 276.864 -0.802897 -0.504044 0
M  V30 2893 H 276.57 -2.62172 -2.34432 0
M  V30 2894 H 276.444 -1.33301 -3.52861 0
M  V30 2895 H 278.831 -0.569488 -2.89553 0
M  V30 2896 H 278.912 -1.89142 -1.72218 0
M  V30 2897 H 278.556 -3.56545 -3.61715 0
M  V30 2898 H 278.486 -2.21532 -4.77735 0
M  V30 2899 H 280.977 -1.94681 -3.23895 0
M  V30 2900 H 281.29 -4.50406 -6.27976 0
M  V30 2901 H 279.635 -4.04498 -5.65161 0
M  V30 2902 H 282.826 -2.48331 -3.96799 0
M  V30 2903 H 282.999 -3.64925 -5.35475 0
M  V30 2904 N 276.405 1.4127 -0.698611 0
M  V30 2905 C 277.651 2.01478 -0.231207 0
M  V30 2906 C 277.984 1.55215 1.16713 0
M  V30 2907 O 277.259 0.764672 1.78838 0
M  V30 2908 C 277.542 3.58912 -0.292281 0
M  V30 2909 C 277.395 4.15293 -1.72778 0
M  V30 2910 C 278.714 4.38736 0.346194 0
M  V30 2911 H 275.833 0.732025 -0.0854878 0
M  V30 2912 H 278.475 1.67977 -0.887906 0
M  V30 2913 H 276.625 3.87582 0.26686 0
M  V30 2914 H 278.297 3.97486 -2.341 0
M  V30 2915 H 276.54 3.7022 -2.26096 0
M  V30 2916 H 277.211 5.24452 -1.72202 0
M  V30 2917 H 279.687 4.15897 -0.130035 0
M  V30 2918 H 278.563 5.48221 0.272932 0
M  V30 2919 H 278.824 4.18425 1.42734 0
M  V30 2920 N 277.883 0.443576 1.51229 0
M  V30 2921 C 279.16 -0.181038 1.9476 0
M  V30 2922 C 279.54 -1.59523 1.38259 0
M  V30 2923 O 278.888 -2.2122 0.572198 0
M  V30 2924 C 279.098 -0.152422 3.48667 0
M  V30 2925 C 280.446 -0.354923 4.23114 0
M  V30 2926 O 281.47 -0.230257 3.55455 0
M  V30 2927 O 280.329 -0.603674 5.43156 0
M  V30 2928 H 277.423 -0.1266 0.817252 0
M  V30 2929 H 279.969 0.502004 1.62105 0
M  V30 2930 H 278.741 0.836022 3.82265 0
M  V30 2931 H 278.364 -0.878107 3.87782 0
M  V30 2932 N 279.361 -1.56624 0.175154 0
M  V30 2933 C 280.309 -2.19468 -0.770495 0
M  V30 2934 C 281.303 -1.15985 -1.23466 0
M  V30 2935 O 282.509 -1.34176 -1.19987 0
M  V30 2936 H 278.884 -0.703095 -0.266761 0
M  V30 2937 H 280.855 -2.97613 -0.216542 0
M  V30 2938 C 279.604 -2.85264 -1.98796 0
M  V30 2939 H 278.927 -3.64623 -1.63983 0
M  V30 2940 H 280.367 -3.327 -2.62843 0
M  V30 2941 C 278.826 -1.85239 -2.81404 0
M  V30 2942 O 279.356 -1.34024 -3.78682 0
M  V30 2943 N 277.562 -1.53911 -2.46495 0
M  V30 2944 H 277.109 -1.95751 -1.67449 0
M  V30 2945 H 277.067 -0.872382 -3.02054 0
M  V30 2946 N 280.839 0.0985539 -1.57292 0
M  V30 2947 C 282.085 0.803867 -1.86188 0
M  V30 2948 C 282.418 1.78549 -0.763794 0
M  V30 2949 O 281.693 1.93153 0.22855 0
M  V30 2950 C 281.976 1.53568 -3.25713 0
M  V30 2951 C 281.829 0.572277 -4.46145 0
M  V30 2952 C 283.148 2.48708 -3.63087 0
M  V30 2953 H 280.267 0.290781 -0.677211 0
M  V30 2954 H 282.909 0.0675783 -1.8988 0
M  V30 2955 H 281.059 2.16332 -3.22696 0
M  V30 2956 H 282.731 -0.0480894 -4.61275 0
M  V30 2957 H 280.974 -0.114618 -4.33649 0
M  V30 2958 H 281.645 1.12139 -5.40489 0
M  V30 2959 H 284.121 1.96039 -3.67026 0
M  V30 2960 H 282.997 2.96932 -4.61652 0
M  V30 2961 H 283.258 3.32309 -2.91588 0
M  V30 2962 N 282.317 1.53212 0.369288 0
M  V30 2963 C 283.249 1.75668 1.47219 0
M  V30 2964 C 284.262 0.637387 1.49804 0
M  V30 2965 O 285.451 0.913561 1.5335 0
M  V30 2966 C 282.551 1.81818 2.85999 0
M  V30 2967 C 281.724 3.11409 3.07153 0
M  V30 2968 C 280.783 3.08849 4.26026 0
M  V30 2969 O 279.809 3.82659 4.2138 0
M  V30 2970 N 281.011 2.29409 5.33246 0
M  V30 2971 H 283.776 2.70832 1.28337 0
M  V30 2972 H 281.337 1.51944 0.55898 0
M  V30 2973 H 283.329 1.77588 3.63655 0
M  V30 2974 H 281.899 0.939544 2.98146 0
M  V30 2975 H 281.119 3.28971 2.1719 0
M  V30 2976 H 282.407 3.97059 3.18154 0
M  V30 2977 H 281.805 1.68946 5.39883 0
M  V30 2978 H 280.362 2.31001 6.09493 0
M  V30 2979 N 283.795 -0.628877 1.44509 0
M  V30 2980 C 285.044 -1.38437 1.4669 0
M  V30 2981 C 285.357 -1.95322 0.104272 0
M  V30 2982 O 286.563 -2.715 0.00362163 0
M  V30 2983 C 285.019 -2.50659 2.5826 0
M  V30 2984 C 284.627 -2.00277 4.0074 0
M  V30 2985 C 286.371 -3.27844 2.69664 0
M  V30 2986 C 284.278 -3.09854 5.0373 0
M  V30 2987 H 283.208 -0.520245 0.545766 0
M  V30 2988 H 285.859 -0.676313 1.70582 0
M  V30 2989 H 284.241 -3.2405 2.27612 0
M  V30 2990 H 285.415 -1.33736 4.40966 0
M  V30 2991 H 283.73 -1.35901 3.93599 0
M  V30 2992 H 286.327 -4.09534 3.43781 0
M  V30 2993 H 286.67 -3.77471 1.75559 0
M  V30 2994 H 287.203 -2.61543 2.99733 0
M  V30 2995 H 283.942 -2.65168 5.99472 0
M  V30 2996 H 283.462 -3.7503 4.68095 0
M  V30 2997 H 285.141 -3.74592 5.27532 0
M  V30 2998 N 285.273 -1.31445 -0.869486 0
M  V30 2999 C 286.203 -1.21727 -1.99261 0
M  V30 3000 C 287.184 -0.104359 -1.6978 0
M  V30 3001 O 288.369 -0.289038 -1.92037 0
M  V30 3002 C 285.499 -0.924317 -3.34774 0
M  V30 3003 C 284.453 -1.99685 -3.78563 0
M  V30 3004 C 283.779 -1.55658 -5.11541 0
M  V30 3005 C 285.079 -3.41003 -3.95619 0
M  V30 3006 H 286.773 -2.1569 -2.07649 0
M  V30 3007 H 284.319 -1.03839 -0.997675 0
M  V30 3008 H 286.272 -0.842934 -4.12883 0
M  V30 3009 H 284.996 0.0509793 -3.2656 0
M  V30 3010 H 283.655 -2.06813 -3.02694 0
M  V30 3011 H 283.303 -0.569132 -4.9977 0
M  V30 3012 H 283.003 -2.27409 -5.41811 0
M  V30 3013 H 284.527 -1.48928 -5.92159 0
M  V30 3014 H 285.941 -3.36547 -4.64122 0
M  V30 3015 H 284.338 -4.10975 -4.37286 0
M  V30 3016 H 285.408 -3.81754 -2.98985 0
M  V30 3017 N 286.751 1.08385 -1.14413 0
M  V30 3018 C 287.976 1.85057 -0.936413 0
M  V30 3019 C 288.401 1.81055 0.509971 0
M  V30 3020 O 287.759 1.1958 1.36273 0
M  V30 3021 C 287.807 3.30505 -1.44217 0
M  V30 3022 O 286.911 4.07491 -0.634409 0
M  V30 3023 H 286.252 0.573425 -0.334784 0
M  V30 3024 H 288.782 1.36799 -1.52142 0
M  V30 3025 H 288.792 3.81348 -1.45043 0
M  V30 3026 H 287.467 3.32734 -2.49522 0
M  V30 3027 H 286.044 3.66368 -0.694902 0
M  V30 3028 N 288.23 0.939286 1.26551 0
M  V30 3029 C 289.193 0.451987 2.24699 0
M  V30 3030 C 290.193 -0.435869 1.5478 0
M  V30 3031 O 291.383 -0.235314 1.72603 0
M  V30 3032 C 288.515 -0.348801 3.39111 0
M  V30 3033 H 289.708 1.3193 2.69322 0
M  V30 3034 H 287.261 0.721072 1.38673 0
M  V30 3035 H 287.996 -1.23444 2.99887 0
M  V30 3036 H 287.781 0.287945 3.91041 0
M  V30 3037 H 289.271 -0.679726 4.12031 0
M  V30 3038 N 289.708 -1.40897 0.706093 0
M  V30 3039 C 290.655 -2.30751 0.0474474 0
M  V30 3040 C 291.625 -1.47678 -0.76029 0
M  V30 3041 O 292.81 -1.76441 -0.726177 0
M  V30 3042 C 289.95 -3.33815 -0.875309 0
M  V30 3043 C 289.063 -4.31961 -0.0580623 0
M  V30 3044 C 288.198 -5.22093 -0.979425 0
M  V30 3045 C 287.237 -6.11902 -0.155706 0
M  V30 3046 N 286.374 -6.94482 -1.03144 0
M  V30 3047 H 291.214 -2.86513 0.819413 0
M  V30 3048 H 288.751 -1.41102 0.415783 0
M  V30 3049 H 290.709 -3.92129 -1.42446 0
M  V30 3050 H 289.339 -2.79579 -1.61356 0
M  V30 3051 H 288.391 -3.75507 0.608147 0
M  V30 3052 H 289.703 -4.95415 0.580082 0
M  V30 3053 H 288.857 -5.85292 -1.59744 0
M  V30 3054 H 287.596 -4.5889 -1.65141 0
M  V30 3055 H 286.601 -5.47742 0.475309 0
M  V30 3056 H 287.826 -6.77162 0.512635 0
M  V30 3057 H 285.772 -6.33877 -1.68924 0
M  V30 3058 H 285.689 -7.54665 -0.449108 0
M  V30 3059 H 286.957 -7.6214 -1.63593 0
M  V30 3060 N 291.186 -0.45159 -1.50991 0
M  V30 3061 C 292.597 0.00818571 -1.86698 0
M  V30 3062 C 292.948 1.40661 -1.3678 0
M  V30 3063 O 292.073 2.0391 -0.724546 0
M  V30 3064 C 292.668 0.0216303 -3.38793 0
M  V30 3065 C 291.227 0.425865 -3.73983 0
M  V30 3066 C 290.374 -0.372163 -2.74791 0
M  V30 3067 H 293.325 -0.666785 -1.44013 0
M  V30 3068 H 293.346 0.828078 -3.7138 0
M  V30 3069 H 292.858 -0.996288 -3.75094 0
M  V30 3070 H 290.959 1.44886 -3.43277 0
M  V30 3071 H 291.072 0.140761 -4.78893 0
M  V30 3072 H 289.436 0.171498 -2.54122 0
M  V30 3073 H 290.219 -1.38922 -3.13935 0
M  V30 3074 N 292.664 1.56529 -0.183458 0
M  V30 3075 C 293.627 2.17324 0.728223 0
M  V30 3076 C 294.627 1.12453 1.14939 0
M  V30 3077 O 295.817 1.37902 1.06437 0
M  V30 3078 C 292.949 2.76591 1.99274 0
M  V30 3079 H 294.142 2.99241 0.198772 0
M  V30 3080 H 291.695 1.5616 0.0661391 0
M  V30 3081 H 292.43 1.98441 2.56499 0
M  V30 3082 H 292.215 3.5335 1.69959 0
M  V30 3083 H 293.705 3.23311 2.6431 0
M  V30 3084 N 294.142 -0.090211 1.57342 0
M  V30 3085 C 295.09 -1.12792 2.03422 0
M  V30 3086 C 296.084 -1.41182 0.936166 0
M  V30 3087 O 297.29 -1.40805 1.12133 0
M  V30 3088 H 293.665 -0.380986 0.648347 0
M  V30 3089 H 295.636 -0.71299 2.89757 0
M  V30 3090 C 294.385 -2.43855 2.47851 0
M  V30 3091 H 293.708 -2.22855 3.31927 0
M  V30 3092 H 295.148 -3.14955 2.83865 0
M  V30 3093 C 293.607 -3.08503 1.3538 0
M  V30 3094 O 294.137 -3.95805 0.685641 0
M  V30 3095 N 292.343 -2.68831 1.10355 0
M  V30 3096 H 291.89 -1.97929 1.64869 0
M  V30 3097 H 291.848 -3.12412 0.353031 0
M  V30 3098 N 295.62 -1.53406 -0.361157 0
M  V30 3099 C 296.553 -1.74946 -1.46524 0
M  V30 3100 C 297.531 -0.59795 -1.51206 0
M  V30 3101 O 298.715 -0.831062 -1.69191 0
M  V30 3102 C 295.842 -1.83224 -2.84863 0
M  V30 3103 C 294.888 -3.05233 -2.97885 0
M  V30 3104 S 295.721 -4.6466 -2.66179 0
M  V30 3105 C 296.877 -4.75793 -4.06659 0
M  V30 3106 H 297.11 -2.68319 -1.28033 0
M  V30 3107 H 294.643 -1.44051 -0.555764 0
M  V30 3108 H 296.601 -1.88679 -3.64569 0
M  V30 3109 H 295.262 -0.908948 -3.00661 0
M  V30 3110 H 294.455 -3.07648 -3.9921 0
M  V30 3111 H 294.057 -2.97913 -2.26106 0
M  V30 3112 H 296.349 -4.5612 -5.0096 0
M  V30 3113 H 297.292 -5.7786 -4.09247 0
M  V30 3114 H 297.7 -4.04389 -3.93865 0
M  V30 3115 N 297.098 0.621204 -1.44841 0
M  V30 3116 C 298.345 1.38055 -1.48145 0
M  V30 3117 C 298.673 1.94143 -0.117867 0
M  V30 3118 O 297.928 1.74713 0.881694 0
M  V30 3119 C 298.227 2.55675 -2.4973 0
M  V30 3120 C 297.893 2.17817 -3.94799 0
M  V30 3121 C 296.555 2.07205 -4.34303 0
M  V30 3122 C 298.907 1.88065 -4.86087 0
M  V30 3123 C 296.235 1.65045 -5.63007 0
M  V30 3124 C 298.587 1.47394 -6.15189 0
M  V30 3125 C 297.251 1.35331 -6.53637 0
M  V30 3126 H 296.521 0.505181 -0.542101 0
M  V30 3127 H 299.168 0.703477 -1.78111 0
M  V30 3128 H 297.473 3.2866 -2.13284 0
M  V30 3129 H 299.17 3.13904 -2.4953 0
M  V30 3130 H 295.76 2.26998 -3.63552 0
M  V30 3131 H 299.944 1.95168 -4.56315 0
M  V30 3132 H 295.2 1.54317 -5.91605 0
M  V30 3133 H 299.374 1.23415 -6.85377 0
M  V30 3134 H 297.001 1.02435 -7.53267 0
M  V30 3135 N 298.576 1.31904 0.862503 0
M  V30 3136 C 299.486 1.22161 2.00285 0
M  V30 3137 C 300.502 0.136785 1.73462 0
M  V30 3138 O 301.678 0.355994 1.98229 0
M  V30 3139 C 298.743 0.937093 3.33796 0
M  V30 3140 C 297.804 2.10957 3.73893 0
M  V30 3141 C 297.037 1.83853 5.01033 0
M  V30 3142 O 297.26 0.777274 5.65079 0
M  V30 3143 O 296.194 2.69741 5.38074 0
M  V30 3144 H 300.02 2.18008 2.11439 0
M  V30 3145 H 297.605 1.11716 0.991957 0
M  V30 3146 H 299.487 0.794583 4.13841 0
M  V30 3147 H 298.162 0.00871894 3.23699 0
M  V30 3148 H 297.069 2.30752 2.94456 0
M  V30 3149 H 298.402 3.02046 3.88625 0
M  V30 3150 N 300.054 -1.07777 1.14986 0
M  V30 3151 C 301.47 -1.32373 0.891596 0
M  V30 3152 C 301.67 -1.9609 -0.463788 0
M  V30 3153 O 300.726 -2.21801 -1.20667 0
M  V30 3154 C 302.039 -2.21905 2.02925 0
M  V30 3155 C 303.587 -2.35367 2.06329 0
M  V30 3156 C 304.062 -3.28245 3.19405 0
M  V30 3157 N 305.553 -3.35824 3.19024 0
M  V30 3158 C 306.288 -4.07739 4.03158 0
M  V30 3159 N 305.784 -4.82306 4.97346 0
M  V30 3160 N 307.577 -4.03635 3.91197 0
M  V30 3161 H 299.728 -0.648039 2.02273 0
M  V30 3162 H 301.991 -0.348149 0.881757 0
M  V30 3163 H 301.697 -1.82342 3.0074 0
M  V30 3164 H 301.571 -3.22407 1.95789 0
M  V30 3165 H 303.958 -2.74186 1.09116 0
M  V30 3166 H 304.039 -1.34585 2.17533 0
M  V30 3167 H 303.683 -2.90146 4.16867 0
M  V30 3168 H 303.613 -4.28971 3.05437 0
M  V30 3169 H 306.104 -2.8267 2.50811 0
M  V30 3170 H 306.417 -5.34661 5.57994 0
M  V30 3171 H 304.762 -4.81337 5.01338 0
M  V30 3172 H 307.953 -3.44491 3.16928 0
M  V30 3173 H 308.126 -4.59417 4.5699 0
M  V30 3174 N 301.532 -0.945985 -1.26051 0
M  V30 3175 C 302.442 -0.465633 -2.29933 0
M  V30 3176 C 303.458 0.462761 -1.67733 0
M  V30 3177 O 304.634 0.341118 -1.9849 0
M  V30 3178 C 301.699 0.256994 -3.45746 0
M  V30 3179 C 300.76 -0.708549 -4.23412 0
M  V30 3180 C 299.993 -0.0203135 -5.33696 0
M  V30 3181 O 300.216 1.19571 -5.57726 0
M  V30 3182 O 299.15 -0.701459 -5.97799 0
M  V30 3183 H 302.976 -1.32866 -2.73094 0
M  V30 3184 H 300.561 -0.712071 -1.31339 0
M  V30 3185 H 302.443 0.663852 -4.16138 0
M  V30 3186 H 301.118 1.09533 -3.04605 0
M  V30 3187 H 300.025 -1.16545 -3.55483 0
M  V30 3188 H 301.358 -1.51465 -4.68315 0
M  V30 3189 N 303.011 1.40521 -0.713556 0
M  V30 3190 C 304.257 2.01221 -0.252564 0
M  V30 3191 C 304.59 1.56444 1.1506 0
M  V30 3192 O 303.865 0.783597 1.78017 0
M  V30 3193 C 304.148 3.58582 -0.330332 0
M  V30 3194 C 304.001 4.13437 -1.77173 0
M  V30 3195 C 305.32 4.39079 0.299641 0
M  V30 3196 H 302.439 0.731077 -0.0932471 0
M  V30 3197 H 305.081 1.67026 -0.905673 0
M  V30 3198 H 303.231 3.87844 0.225737 0
M  V30 3199 H 304.903 3.9498 -2.38303 0
M  V30 3200 H 303.146 3.67801 -2.3001 0
M  V30 3201 H 303.817 5.22597 -1.77755 0
M  V30 3202 H 306.293 4.15735 -0.174139 0
M  V30 3203 H 305.169 5.4848 0.214771 0
M  V30 3204 H 305.43 4.19915 1.38288 0
M  V30 3205 N 304.489 0.459591 1.5075 0
M  V30 3206 C 305.436 -0.340524 2.28274 0
M  V30 3207 C 306.406 -0.997371 1.32822 0
M  V30 3208 O 307.591 -1.01202 1.61749 0
M  V30 3209 C 304.731 -1.42317 3.14388 0
M  V30 3210 C 303.844 -0.782251 4.24859 0
M  V30 3211 C 302.979 -1.84182 4.98247 0
M  V30 3212 C 302.018 -1.18053 6.00608 0
M  V30 3213 N 301.155 -2.18244 6.67319 0
M  V30 3214 H 305.995 0.326899 2.96202 0
M  V30 3215 H 303.532 0.173057 1.46078 0
M  V30 3216 H 305.49 -2.06241 3.62658 0
M  V30 3217 H 304.12 -2.05992 2.4853 0
M  V30 3218 H 303.172 -0.0307404 3.80388 0
M  V30 3219 H 304.484 -0.259663 4.98124 0
M  V30 3220 H 303.638 -2.55714 5.50177 0
M  V30 3221 H 302.377 -2.39819 4.24662 0
M  V30 3222 H 301.382 -0.450776 5.47949 0
M  V30 3223 H 302.607 -0.631202 6.7616 0
M  V30 3224 H 300.553 -2.72919 5.96533 0
M  V30 3225 H 300.47 -1.70938 7.36421 0
M  V30 3226 H 301.738 -2.89191 7.23871 0
M  V30 3227 N 305.967 -1.56429 0.191757 0
M  V30 3228 C 306.915 -2.20273 -0.747174 0
M  V30 3229 C 307.909 -1.17288 -1.22229 0
M  V30 3230 O 309.115 -1.35441 -1.18557 0
M  V30 3231 H 305.49 -0.705885 -0.259289 0
M  V30 3232 H 307.461 -2.97826 -0.184963 0
M  V30 3233 C 306.21 -2.87356 -1.95759 0
M  V30 3234 H 305.533 -3.66341 -1.60106 0
M  V30 3235 H 306.973 -3.3547 -2.59299 0
M  V30 3236 C 305.432 -1.88213 -2.79423 0
M  V30 3237 O 305.962 -1.38033 -3.7724 0
M  V30 3238 N 304.168 -1.56516 -2.44849 0
M  V30 3239 H 303.715 -1.97516 -1.65364 0
M  V30 3240 H 303.673 -0.904369 -3.01112 0
M  V30 3241 N 307.445 0.0818655 -1.57387 0
M  V30 3242 C 308.408 1.08265 -2.02018 0
M  V30 3243 C 309.408 1.32183 -0.915664 0
M  V30 3244 O 310.598 1.28073 -1.18081 0
M  V30 3245 C 307.73 2.42871 -2.39221 0
M  V30 3246 H 308.923 0.698204 -2.91659 0
M  V30 3247 H 306.476 0.327303 -1.52835 0
M  V30 3248 H 307.211 2.86167 -1.52575 0
M  V30 3249 H 306.996 2.26855 -3.19811 0
M  V30 3250 H 308.486 3.14826 -2.74362 0
M  V30 3251 N 308.923 1.53595 0.353017 0
M  V30 3252 C 309.856 1.7572 1.45594 0
M  V30 3253 C 310.834 0.605961 1.50887 0
M  V30 3254 O 312.018 0.840023 1.68748 0
M  V30 3255 C 309.145 1.84732 2.83887 0
M  V30 3256 C 308.191 3.06808 2.96262 0
M  V30 3257 S 309.024 4.66065 2.63711 0
M  V30 3258 C 310.18 4.77943 4.04131 0
M  V30 3259 H 310.413 2.68994 1.26608 0
M  V30 3260 H 307.946 1.44343 0.548117 0
M  V30 3261 H 309.904 1.9061 3.63563 0
M  V30 3262 H 308.565 0.92488 3.00175 0
M  V30 3263 H 307.758 3.09761 3.97573 0
M  V30 3264 H 307.36 2.99108 2.24523 0
M  V30 3265 H 309.652 4.5877 4.98534 0
M  V30 3266 H 310.595 5.80022 4.06177 0
M  V30 3267 H 311.003 4.06472 3.91715 0
M  V30 3268 N 310.401 -0.613514 1.45168 0
M  V30 3269 C 311.817 -0.933629 1.29443 0
M  V30 3270 C 312.017 -2.00028 0.243101 0
M  V30 3271 O 311.073 -2.49848 -0.364992 0
M  V30 3272 C 312.386 -1.38018 2.67155 0
M  V30 3273 C 313.934 -1.49471 2.75004 0
M  V30 3274 C 314.409 -1.97503 4.13227 0
M  V30 3275 N 315.9 -2.04746 4.15491 0
M  V30 3276 C 316.635 -2.43121 5.19307 0
M  V30 3277 N 316.131 -2.80506 6.33473 0
M  V30 3278 N 317.924 -2.43408 5.06664 0
M  V30 3279 H 310.075 0.0916097 2.12202 0
M  V30 3280 H 312.338 -0.0216655 0.947752 0
M  V30 3281 H 312.044 -0.670625 3.45247 0
M  V30 3282 H 311.918 -2.34784 2.95222 0
M  V30 3283 H 314.305 -2.19519 1.9722 0
M  V30 3284 H 314.386 -0.510342 2.50657 0
M  V30 3285 H 314.03 -1.28045 4.91495 0
M  V30 3286 H 313.96 -2.96843 4.34962 0
M  V30 3287 H 316.451 -1.78468 3.33103 0
M  V30 3288 H 316.764 -3.08652 7.08487 0
M  V30 3289 H 315.109 -2.78216 6.36884 0
M  V30 3290 H 318.3 -2.13604 4.16523 0
M  V30 3291 H 318.473 -2.72989 5.87691 0
M  V30 3292 N 311.879 -1.3236 -0.855495 0
M  V30 3293 C 313.295 -1.11332 -1.14356 0
M  V30 3294 C 313.495 0.106751 -2.01217 0
M  V30 3295 O 312.551 0.791891 -2.39761 0
M  V30 3296 C 313.864 -2.39237 -1.82171 0
M  V30 3297 C 315.412 -2.44986 -1.9481 0
M  V30 3298 C 315.887 -3.7281 -2.66039 0
M  V30 3299 N 317.378 -3.73787 -2.73565 0
M  V30 3300 C 318.113 -4.69394 -3.29327 0
M  V30 3301 N 317.609 -5.75367 -3.85907 0
M  V30 3302 N 319.402 -4.56893 -3.27423 0
M  V30 3303 H 311.553 -2.10586 -0.277027 0
M  V30 3304 H 313.816 -0.929701 -0.185364 0
M  V30 3305 H 313.522 -3.28431 -1.25802 0
M  V30 3306 H 313.396 -2.50134 -2.82335 0
M  V30 3307 H 315.783 -1.56252 -2.50338 0
M  V30 3308 H 315.864 -2.38043 -0.936448 0
M  V30 3309 H 315.508 -4.61918 -2.11174 0
M  V30 3310 H 315.438 -3.77024 -3.67642 0
M  V30 3311 H 317.929 -2.97189 -2.33424 0
M  V30 3312 H 318.242 -6.44378 -4.26611 0
M  V30 3313 H 316.587 -5.79123 -3.84242 0
M  V30 3314 H 319.778 -3.73269 -2.82467 0
M  V30 3315 H 319.951 -5.31577 -3.7058 0
M  V30 3316 N 313.357 1.07166 -1.15556 0
M  V30 3317 C 314.603 1.80222 -0.942961 0
M  V30 3318 C 314.958 1.85121 0.524209 0
M  V30 3319 O 314.251 1.32531 1.38369 0
M  V30 3320 C 314.445 3.24707 -1.49332 0
M  V30 3321 C 314.274 3.33887 -3.01247 0
M  V30 3322 C 313.044 3.44337 -3.69811 0
M  V30 3323 C 315.242 3.24484 -3.99017 0
M  V30 3324 N 313.224 3.42439 -5.09518 0
M  V30 3325 C 314.595 3.29726 -5.25053 0
M  V30 3326 C 316.65 3.08307 -3.90962 0
M  V30 3327 C 315.353 3.20455 -6.43973 0
M  V30 3328 C 317.379 3.00371 -5.09442 0
M  V30 3329 C 316.741 3.06227 -6.34354 0
M  V30 3330 H 312.84 0.672709 -0.398731 0
M  V30 3331 H 315.424 1.27905 -1.46794 0
M  V30 3332 H 313.595 3.7544 -0.994946 0
M  V30 3333 H 315.327 3.85894 -1.21935 0
M  V30 3334 H 312.082 3.48762 -3.20409 0
M  V30 3335 H 312.506 3.45013 -5.8249 0
M  V30 3336 H 317.148 3.02633 -2.95251 0
M  V30 3337 H 314.866 3.24888 -7.39914 0
M  V30 3338 H 318.452 2.88955 -5.04971 0
M  V30 3339 H 317.332 3.00132 -7.24493 0
M  V30 3340 N 314.835 0.952656 1.25548 0
M  V30 3341 C 316.251 0.656769 1.4546 0
M  V30 3342 C 316.451 -0.78633 1.85524 0
M  V30 3343 O 315.507 -1.56183 1.98402 0
M  V30 3344 C 316.82 1.62801 2.52817 0
M  V30 3345 C 318.368 1.63897 2.66659 0
M  V30 3346 C 318.843 2.5978 3.77198 0
M  V30 3347 N 320.334 2.58133 3.84606 0
M  V30 3348 C 321.069 3.29003 4.69621 0
M  V30 3349 N 320.565 4.09339 5.58939 0
M  V30 3350 N 322.358 3.179 4.63569 0
M  V30 3351 H 314.509 1.88526 0.978344 0
M  V30 3352 H 316.772 0.810815 0.491206 0
M  V30 3353 H 316.478 2.65869 2.30232 0
M  V30 3354 H 316.352 1.38898 3.50695 0
M  V30 3355 H 318.739 0.615481 2.8861 0
M  V30 3356 H 318.82 1.91858 1.69187 0
M  V30 3357 H 318.464 3.62254 3.55997 0
M  V30 3358 H 318.394 2.29105 4.7415 0
M  V30 3359 H 320.885 1.99809 3.20757 0
M  V30 3360 H 321.198 4.6034 6.20731 0
M  V30 3361 H 319.543 4.13438 5.58654 0
M  V30 3362 H 322.734 2.54612 3.92798 0
M  V30 3363 H 322.907 3.73398 5.29602 0
M  V30 3364 N 316.313 -1.40141 0.720998 0
M  V30 3365 C 317.543 -2.04798 0.27226 0
M  V30 3366 C 317.951 -1.54442 -1.09289 0
M  V30 3367 O 317.294 -0.698342 -1.69908 0
M  V30 3368 C 317.356 -3.59048 0.18027 0
M  V30 3369 C 317.02 -4.32317 1.48159 0
M  V30 3370 C 318.017 -4.59902 2.42458 0
M  V30 3371 C 315.702 -4.71125 1.74202 0
M  V30 3372 C 317.696 -5.25288 3.61042 0
M  V30 3373 C 315.383 -5.36242 2.93066 0
M  V30 3374 C 316.381 -5.63254 3.86308 0
M  V30 3375 O 316.069 -6.27024 5.03086 0
M  V30 3376 H 315.801 -0.665419 0.119139 0
M  V30 3377 H 318.355 -1.80436 0.981432 0
M  V30 3378 H 316.585 -3.82251 -0.58489 0
M  V30 3379 H 318.274 -4.05221 -0.234618 0
M  V30 3380 H 319.04 -4.30379 2.23604 0
M  V30 3381 H 314.919 -4.49466 1.02477 0
M  V30 3382 H 318.463 -5.46289 4.33837 0
M  V30 3383 H 314.36 -5.65185 3.11826 0
M  V30 3384 H 315.128 -6.4552 5.03235 0
M  V30 3385 N 317.792 -0.46758 -1.50504 0
M  V30 3386 C 318.702 0.33382 -2.32213 0
M  V30 3387 C 319.718 0.999323 -1.42441 0
M  V30 3388 O 320.894 0.988068 -1.75497 0
M  V30 3389 C 317.959 1.4035 -3.17022 0
M  V30 3390 C 317.02 0.754961 -4.2261 0
M  V30 3391 C 316.253 1.77367 -5.03365 0
M  V30 3392 O 316.476 2.99976 -4.8515 0
M  V30 3393 O 315.41 1.34744 -5.86624 0
M  V30 3394 H 319.236 -0.334067 -3.01857 0
M  V30 3395 H 316.821 -0.229496 -1.47627 0
M  V30 3396 H 318.703 2.02318 -3.69656 0
M  V30 3397 H 317.378 2.05492 -2.5011 0
M  V30 3398 H 316.285 0.0964244 -3.73976 0
M  V30 3399 H 317.618 0.146545 -4.91982 0
M  V30 3400 N 319.27 1.56325 -0.20005 0
M  V30 3401 C 320.681 1.8408 0.31167 0
M  V30 3402 C 321.032 1.12087 1.61031 0
M  V30 3403 O 320.157 0.38332 2.12978 0
M  V30 3404 C 320.752 3.33932 0.57226 0
M  V30 3405 C 319.311 3.6208 1.02834 0
M  V30 3406 C 318.458 2.77186 0.079634 0
M  V30 3407 H 321.409 1.52939 -0.423729 0
M  V30 3408 H 321.43 3.52971 1.42096 0
M  V30 3409 H 320.942 3.86303 -0.37308 0
M  V30 3410 H 319.043 3.15147 1.98778 0
M  V30 3411 H 319.156 4.7023 0.917624 0
M  V30 3412 H 317.52 2.47951 0.582448 0
M  V30 3413 H 318.303 3.32347 -0.860238 0
M  V30 3414 N 320.748 -0.0735177 1.57428 0
M  V30 3415 C 321.996 -0.771472 1.86796 0
M  V30 3416 C 322.317 -1.78201 0.791804 0
M  V30 3417 O 321.587 -1.95074 -0.179718 0
M  V30 3418 H 320.167 -0.28791 0.689287 0
M  V30 3419 H 322.829 -0.0500161 1.94836 0
M  V30 3420 H 321.925 -1.28874 2.8425 0
M  V30 3421 N 322.226 -1.5378 -0.344866 0
M  V30 3422 C 323.173 -1.81676 -1.42346 0
M  V30 3423 C 324.143 -0.662376 -1.52321 0
M  V30 3424 O 325.328 -0.906675 -1.67881 0
M  V30 3425 C 322.468 -2.03087 -2.79015 0
M  V30 3426 C 321.581 -3.30799 -2.77842 0
M  V30 3427 C 320.716 -3.42285 -4.0622 0
M  V30 3428 C 319.755 -4.6395 -3.9927 0
M  V30 3429 N 318.892 -4.72477 -5.19336 0
M  V30 3430 H 323.732 -2.73703 -1.17858 0
M  V30 3431 H 321.269 -1.35568 -0.570949 0
M  V30 3432 H 323.227 -2.1349 -3.58438 0
M  V30 3433 H 321.857 -1.14375 -3.01858 0
M  V30 3434 H 320.909 -3.29244 -1.90533 0
M  V30 3435 H 322.221 -4.20314 -2.68584 0
M  V30 3436 H 321.375 -3.52113 -4.94066 0
M  V30 3437 H 320.114 -2.50823 -4.18258 0
M  V30 3438 H 319.119 -4.54201 -3.09809 0
M  V30 3439 H 320.344 -5.56775 -3.88817 0
M  V30 3440 H 318.29 -3.83924 -5.3192 0
M  V30 3441 H 318.207 -5.55927 -5.12329 0
M  V30 3442 H 319.475 -4.86613 -6.08957 0
M  V30 3443 N 323.704 0.605807 -1.45491 0
M  V30 3444 C 325.115 1.18777 -1.44045 0
M  V30 3445 C 325.466 1.95471 -0.169001 0
M  V30 3446 O 324.591 2.0374 0.729324 0
M  V30 3447 C 325.186 2.16064 -2.60963 0
M  V30 3448 C 323.745 2.69633 -2.62631 0
M  V30 3449 C 322.892 1.45072 -2.36325 0
M  V30 3450 H 325.843 0.395017 -1.53705 0
M  V30 3451 H 325.864 2.9913 -2.35163 0
M  V30 3452 H 325.376 1.60217 -3.53486 0
M  V30 3453 H 323.477 3.29414 -1.74119 0
M  V30 3454 H 323.59 3.13944 -3.61906 0
M  V30 3455 H 321.954 1.74089 -1.85917 0
M  V30 3456 H 322.737 0.910899 -3.30995 0
M  V30 3457 N 325.182 1.32811 0.848464 0
M  V30 3458 C 326.43 1.23479 1.59991 0
M  V30 3459 C 326.751 -0.201853 1.93952 0
M  V30 3460 O 326.021 -1.12818 1.60153 0
M  V30 3461 H 324.601 0.454034 0.593179 0
M  V30 3462 H 327.263 1.66412 1.01455 0
M  V30 3463 H 326.359 1.82178 2.53412 0
M  V30 3464 N 326.66 -1.06551 1.16123 0
M  V30 3465 C 327.885 -1.83544 0.965735 0
M  V30 3466 C 328.31 -1.81843 -0.481102 0
M  V30 3467 O 327.668 -1.21732 -1.34354 0
M  V30 3468 C 327.716 -3.28169 1.49457 0
M  V30 3469 O 326.82 -4.0643 0.699157 0
M  V30 3470 H 326.161 -0.568026 0.343864 0
M  V30 3471 H 328.691 -1.34362 1.54299 0
M  V30 3472 H 328.701 -3.78992 1.51092 0
M  V30 3473 H 327.376 -3.28722 2.54784 0
M  V30 3474 H 325.953 -3.65216 0.7531 0
M  V30 3475 N 328.138 -0.959301 -1.25041 0
M  V30 3476 C 329.386 -0.615393 -1.92503 0
M  V30 3477 C 329.707 0.850969 -1.75452 0
M  V30 3478 O 328.977 1.60658 -1.12098 0
M  V30 3479 H 327.557 -0.224613 -0.712431 0
M  V30 3480 H 330.219 -1.21855 -1.5211 0
M  V30 3481 H 329.315 -0.848738 -3.00338 0
M  V30 3482 N 329.616 1.39756 -0.72842 0
M  V30 3483 C 330.865 1.99879 -0.270407 0
M  V30 3484 C 331.178 1.58449 1.14688 0
M  V30 3485 O 332.384 2.11362 1.70407 0
M  V30 3486 C 330.84 3.57292 -0.43252 0
M  V30 3487 C 330.448 4.07688 -1.85727 0
M  V30 3488 C 332.192 4.24485 -0.0359507 0
M  V30 3489 C 330.099 5.5765 -1.96928 0
M  V30 3490 H 329.029 0.747689 -0.0973472 0
M  V30 3491 H 331.68 1.59837 -0.901355 0
M  V30 3492 H 330.062 3.95097 0.267219 0
M  V30 3493 H 331.236 3.81231 -2.58843 0
M  V30 3494 H 329.551 3.53135 -2.20646 0
M  V30 3495 H 332.148 5.34609 -0.0987484 0
M  V30 3496 H 332.491 4.03915 1.00787 0
M  V30 3497 H 333.024 3.9183 -0.686604 0
M  V30 3498 H 329.763 5.8309 -2.99476 0
M  V30 3499 H 329.283 5.8593 -1.28241 0
M  V30 3500 H 330.962 6.22957 -1.74737 0
M  V30 3501 N 331.094 0.475555 1.50254 0
M  V30 3502 C 332.34 -0.0780073 2.0265 0
M  V30 3503 C 332.673 -1.38968 1.35652 0
M  V30 3504 O 331.948 -1.8839 0.483691 0
M  V30 3505 C 332.231 -0.257161 3.59181 0
M  V30 3506 C 332.084 1.07585 4.36744 0
M  V30 3507 C 333.403 -1.00965 4.28362 0
M  V30 3508 H 330.522 -0.0268758 0.73651 0
M  V30 3509 H 333.164 0.622015 1.7953 0
M  V30 3510 H 331.314 -0.853412 3.79011 0
M  V30 3511 H 332.986 1.70902 4.28474 0
M  V30 3512 H 331.229 1.6714 4.00308 0
M  V30 3513 H 331.9 0.904088 5.44546 0
M  V30 3514 H 334.376 -0.504214 4.13034 0
M  V30 3515 H 333.252 -1.10381 5.37687 0
M  V30 3516 H 333.513 -2.04731 3.91839 0
M  V30 3517 N 332.573 -1.56217 0.208337 0
M  V30 3518 C 333.819 -1.98242 -0.427552 0
M  V30 3519 C 334.152 -1.09554 -1.60348 0
M  V30 3520 O 333.427 -0.15035 -1.93918 0
M  V30 3521 C 333.71 -3.4931 -0.874907 0
M  V30 3522 C 333.563 -4.48773 0.303751 0
M  V30 3523 C 334.882 -4.04424 -1.73577 0
M  V30 3524 H 332.001 -0.720744 -0.153936 0
M  V30 3525 H 334.643 -1.87586 0.30192 0
M  V30 3526 H 332.793 -3.58522 -1.49648 0
M  V30 3527 H 334.465 -4.51586 0.941682 0
M  V30 3528 H 332.708 -4.23194 0.953375 0
M  V30 3529 H 333.379 -5.51976 -0.0519883 0
M  V30 3530 H 335.855 -3.98075 -1.21143 0
M  V30 3531 H 334.731 -5.1047 -2.01771 0
M  V30 3532 H 334.992 -3.50494 -2.69456 0
M  V30 3533 N 334.051 0.0651679 -1.57465 0
M  V30 3534 C 334.999 1.09542 -2.05191 0
M  V30 3535 C 335.993 1.39675 -0.958509 0
M  V30 3536 O 337.199 1.39003 -1.14359 0
M  V30 3537 H 333.574 0.370623 -0.654326 0
M  V30 3538 H 335.545 0.666802 -2.90854 0
M  V30 3539 C 334.294 2.39881 -2.51699 0
M  V30 3540 H 333.617 2.17547 -3.3543 0
M  V30 3541 H 335.057 3.104 -2.88839 0
M  V30 3542 C 333.516 3.0631 -1.40271 0
M  V30 3543 O 334.046 3.94664 -0.748523 0
M  V30 3544 N 332.252 2.67041 -1.14618 0
M  V30 3545 H 331.799 1.95281 -1.67997 0
M  V30 3546 H 331.757 3.1181 -0.402688 0
M  V30 3547 N 335.529 1.53961 0.336706 0
M  V30 3548 C 336.778 1.70751 1.07363 0
M  V30 3549 C 337.091 0.481061 1.89592 0
M  V30 3550 O 338.297 0.530046 2.66276 0
M  V30 3551 C 336.753 3.01965 1.95818 0
M  V30 3552 C 336.361 4.31971 1.18764 0
M  V30 3553 C 338.105 3.28121 2.69327 0
M  V30 3554 C 336.012 5.54255 2.06289 0
M  V30 3555 H 334.942 0.636292 0.404535 0
M  V30 3556 H 337.593 1.80459 0.332681 0
M  V30 3557 H 335.975 2.86132 2.7376 0
M  V30 3558 H 337.149 4.5853 0.456849 0
M  V30 3559 H 335.464 4.12481 0.569946 0
M  V30 3560 H 338.061 4.16673 3.35094 0
M  V30 3561 H 338.404 2.45426 3.36261 0
M  V30 3562 H 338.937 3.44762 1.98454 0
M  V30 3563 H 335.676 6.39513 1.43885 0
M  V30 3564 H 335.196 5.31935 2.77138 0
M  V30 3565 H 336.875 5.90159 2.65182 0
M  V30 3566 N 337.007 -0.598083 1.45811 0
M  V30 3567 C 337.937 -1.71873 1.58057 0
M  V30 3568 C 338.918 -1.64533 0.431615 0
M  V30 3569 O 340.103 -1.82787 0.65595 0
M  V30 3570 C 337.233 -3.10495 1.55597 0
M  V30 3571 C 336.187 -3.32654 2.69305 0
M  V30 3572 C 335.513 -4.71646 2.51902 0
M  V30 3573 C 336.813 -3.21981 4.11248 0
M  V30 3574 H 338.507 -1.61881 2.51863 0
M  V30 3575 H 336.053 -0.777372 1.21214 0
M  V30 3576 H 338.006 -3.88699 1.6276 0
M  V30 3577 H 336.73 -3.2135 0.583255 0
M  V30 3578 H 335.389 -2.56843 2.61586 0
M  V30 3579 H 335.037 -4.79246 1.52748 0
M  V30 3580 H 334.737 -4.87426 3.2816 0
M  V30 3581 H 336.261 -5.52038 2.60933 0
M  V30 3582 H 337.675 -3.90049 4.20161 0
M  V30 3583 H 336.072 -3.49289 4.87972 0
M  V30 3584 H 337.142 -2.1928 4.32486 0
M  V30 3585 N 338.485 -1.33259 -0.841409 0
M  V30 3586 C 339.732 -1.24572 -1.5965 0
M  V30 3587 C 340.06 0.189137 -1.93578 0
M  V30 3588 O 339.315 1.14566 -1.5866 0
M  V30 3589 C 339.614 -2.06381 -2.9179 0
M  V30 3590 C 339.28 -3.556 -2.77235 0
M  V30 3591 C 337.942 -3.96282 -2.72973 0
M  V30 3592 C 340.294 -4.50433 -2.62221 0
M  V30 3593 C 337.622 -5.30017 -2.51592 0
M  V30 3594 C 339.974 -5.84327 -2.42374 0
M  V30 3595 C 338.638 -6.24194 -2.36512 0
M  V30 3596 H 337.908 -0.455842 -0.5842 0
M  V30 3597 H 340.555 -1.6482 -0.975016 0
M  V30 3598 H 338.86 -1.58903 -3.5813 0
M  V30 3599 H 340.557 -1.97019 -3.49263 0
M  V30 3600 H 337.147 -3.23298 -2.81384 0
M  V30 3601 H 341.331 -4.19914 -2.64549 0
M  V30 3602 H 336.587 -5.59947 -2.45499 0
M  V30 3603 H 340.761 -6.57414 -2.29739 0
M  V30 3604 H 338.388 -7.27759 -2.19706 0
M  V30 3605 N 339.963 1.05934 -1.16686 0
M  V30 3606 C 340.91 2.13499 -0.876748 0
M  V30 3607 C 341.88 1.65162 0.176299 0
M  V30 3608 O 343.065 1.90757 0.0407143 0
M  V30 3609 C 340.205 3.42912 -0.387967 0
M  V30 3610 C 339.318 4.04964 -1.50426 0
M  V30 3611 C 338.453 5.22266 -0.970125 0
M  V30 3612 C 337.492 5.76309 -2.06238 0
M  V30 3613 N 336.629 6.84922 -1.54356 0
M  V30 3614 H 341.469 2.37654 -1.7979 0
M  V30 3615 H 339.006 1.16598 -0.896843 0
M  V30 3616 H 340.964 4.17111 -0.086186 0
M  V30 3617 H 339.594 3.18963 0.496235 0
M  V30 3618 H 338.646 3.28277 -1.92193 0
M  V30 3619 H 339.958 4.41122 -2.32836 0
M  V30 3620 H 339.112 6.03506 -0.621743 0
M  V30 3621 H 337.851 4.87564 -0.115377 0
M  V30 3622 H 336.856 4.93704 -2.41942 0
M  V30 3623 H 338.081 6.13062 -2.92115 0
M  V30 3624 H 336.027 6.52131 -0.711406 0
M  V30 3625 H 335.944 7.20043 -2.30379 0
M  V30 3626 H 337.212 7.69832 -1.22387 0
M  V30 3627 N 341.441 0.965919 1.2453 0
M  V30 3628 C 342.69 0.622437 1.91856 0
M  V30 3629 C 343.003 -0.846006 1.76358 0
M  V30 3630 O 344.209 -1.29993 2.38357 0
M  V30 3631 C 342.665 1.0626 3.43856 0
M  V30 3632 C 342.273 2.55437 3.68043 0
M  V30 3633 C 344.017 0.792183 4.17043 0
M  V30 3634 C 341.924 2.93196 5.13605 0
M  V30 3635 H 340.854 0.229092 0.718354 0
M  V30 3636 H 343.505 1.17189 1.41206 0
M  V30 3637 H 341.887 0.441476 3.93531 0
M  V30 3638 H 343.061 3.22665 3.28974 0
M  V30 3639 H 341.376 2.8007 3.08139 0
M  V30 3640 H 343.973 1.05031 5.24283 0
M  V30 3641 H 344.316 -0.271584 4.15413 0
M  V30 3642 H 344.849 1.37419 3.73311 0
M  V30 3643 H 341.588 3.98636 5.20355 0
M  V30 3644 H 341.108 2.30651 5.53679 0
M  V30 3645 H 342.787 2.83004 5.81823 0
M  V30 3646 N 342.919 -1.39368 0.735821 0
M  V30 3647 C 343.867 -2.32443 0.0855131 0
M  V30 3648 C 344.861 -1.53104 -0.724954 0
M  V30 3649 O 346.067 -1.68762 -0.626047 0
M  V30 3650 H 342.442 -0.751948 0.00885257 0
M  V30 3651 H 344.413 -2.84916 0.886883 0
M  V30 3652 C 343.162 -3.38206 -0.806983 0
M  V30 3653 H 342.485 -3.99335 -0.19274 0
M  V30 3654 H 343.925 -4.05779 -1.2296 0
M  V30 3655 C 342.384 -2.75321 -1.94165 0
M  V30 3656 O 342.914 -2.63231 -3.03435 0
M  V30 3657 N 341.12 -2.33396 -1.73132 0
M  V30 3658 H 340.667 -2.4343 -0.842596 0
M  V30 3659 H 340.625 -1.91661 -2.49225 0
M  V30 3660 N 344.397 -0.483516 -1.5 0
M  V30 3661 C 345.645 0.067027 -2.01989 0
M  V30 3662 C 345.966 1.3909 -1.36671 0
M  V30 3663 O 345.236 1.88978 -0.516152 0
M  V30 3664 H 343.816 0.0277606 -0.746484 0
M  V30 3665 H 346.478 -0.636773 -1.84204 0
M  V30 3666 H 345.574 0.209484 -3.11396 0
M  V30 3667 N 345.875 1.56104 -0.216619 0
M  V30 3668 C 347.103 2.02563 0.421413 0
M  V30 3669 C 347.518 1.0965 1.53695 0
M  V30 3670 O 346.875 0.10521 1.82196 0
M  V30 3671 C 346.926 3.48584 0.957665 0
M  V30 3672 O 346.647 4.37953 -0.113389 0
M  V30 3673 C 348.148 4.10664 1.66943 0
M  V30 3674 H 345.368 0.662944 0.103665 0
M  V30 3675 H 347.912 2.01793 -0.331629 0
M  V30 3676 H 346.067 3.49985 1.661 0
M  V30 3677 H 346.481 5.23704 0.288932 0
M  V30 3678 H 347.955 5.14622 1.99671 0
M  V30 3679 H 348.432 3.55373 2.58083 0
M  V30 3680 H 349.038 4.13098 1.01142 0
M  V30 3681 N 347.353 -0.0568162 1.57498 0
M  V30 3682 C 348.581 -0.765626 1.92213 0
M  V30 3683 C 348.996 -1.70353 0.813961 0
M  V30 3684 O 348.353 -1.81268 -0.211701 0
M  V30 3685 C 348.404 -1.5465 3.2675 0
M  V30 3686 O 348.125 -0.646278 4.33307 0
M  V30 3687 C 349.626 -2.35497 3.75574 0
M  V30 3688 H 346.846 -0.216835 0.634999 0
M  V30 3689 H 349.39 -0.0226146 2.04487 0
M  V30 3690 H 347.545 -2.24165 3.15957 0
M  V30 3691 H 347.959 -1.19093 5.108 0
M  V30 3692 H 349.433 -2.85722 4.72299 0
M  V30 3693 H 349.91 -3.15692 3.05344 0
M  V30 3694 H 350.516 -1.7111 3.8936 0
M  V30 3695 N 348.832 -1.54138 -0.328536 0
M  V30 3696 C 349.742 -1.86192 -1.42723 0
M  V30 3697 C 350.758 -0.753382 -1.56844 0
M  V30 3698 O 351.934 -1.04718 -1.72035 0
M  V30 3699 C 348.999 -2.07824 -2.77507 0
M  V30 3700 C 348.06 -3.31641 -2.72603 0
M  V30 3701 C 347.293 -3.52232 -4.00959 0
M  V30 3702 O 347.516 -2.7636 -4.9898 0
M  V30 3703 O 346.45 -4.45699 -4.0452 0
M  V30 3704 H 350.276 -2.79608 -1.18547 0
M  V30 3705 H 347.861 -1.3998 -0.522104 0
M  V30 3706 H 349.743 -2.23411 -3.57303 0
M  V30 3707 H 348.418 -1.17596 -3.01584 0
M  V30 3708 H 347.325 -3.21444 -1.91376 0
M  V30 3709 H 348.658 -4.2191 -2.53481 0
M  V30 3710 N 350.31 0.590341 -1.46126 0
M  V30 3711 C 351.559 1.34499 -1.50309 0
M  V30 3712 C 351.872 1.94977 -0.156021 0
M  V30 3713 O 353.078 2.71395 -0.0756037 0
M  V30 3714 C 351.534 2.43723 -2.64815 0
M  V30 3715 C 351.142 1.89582 -4.0591 0
M  V30 3716 C 352.886 3.20579 -2.78262 0
M  V30 3717 C 350.793 2.9639 -5.11769 0
M  V30 3718 H 349.723 0.505593 -0.559368 0
M  V30 3719 H 352.374 0.630848 -1.72315 0
M  V30 3720 H 350.756 3.17902 -2.36124 0
M  V30 3721 H 351.93 1.21997 -4.44357 0
M  V30 3722 H 350.245 1.25418 -3.97063 0
M  V30 3723 H 352.842 4.00276 -3.54519 0
M  V30 3724 H 353.185 3.72684 -1.85505 0
M  V30 3725 H 353.718 2.53505 -3.06562 0
M  V30 3726 H 350.457 2.49181 -6.06291 0
M  V30 3727 H 349.977 3.62487 -4.77873 0
M  V30 3728 H 351.656 3.60474 -5.37278 0
M  V30 3729 N 351.788 1.33704 0.83433 0
M  V30 3730 C 352.72 1.20172 1.9517 0
M  V30 3731 C 353.733 0.131572 1.62267 0
M  V30 3732 O 354.922 0.382406 1.74356 0
M  V30 3733 C 352.022 0.821716 3.28787 0
M  V30 3734 C 351.195 1.98446 3.89792 0
M  V30 3735 C 350.254 1.58469 5.01771 0
M  V30 3736 O 349.28 2.29968 5.20676 0
M  V30 3737 N 350.482 0.492291 5.78409 0
M  V30 3738 H 353.247 2.16429 2.07313 0
M  V30 3739 H 350.808 1.26509 1.0103 0
M  V30 3740 H 352.8 0.536291 4.01131 0
M  V30 3741 H 351.37 -0.0503058 3.1256 0
M  V30 3742 H 350.59 2.43526 3.09982 0
M  V30 3743 H 351.878 2.76236 4.27283 0
M  V30 3744 H 351.276 -0.102349 5.65607 0
M  V30 3745 H 349.833 0.266555 6.51255 0
M  V30 3746 O 353.305 -0.972346 1.28948 0
M  V30 3747 H 353.996 -1.59791 1.09484 0
M  V30 END ATOM
M  V30 BEGIN BOND
M  V30 END BOND
M  V30 END CTAB
M  END
$$$$
