drugbank_drug|DB09029  Secukinumab Heavy Chain (CAS 875356-43-7)
 OpenBabel12092119133D

  0  0  0     0  0            999 V3000
M  V30 BEGIN CTAB
M  V30 COUNTS 7055 7155 0 0 0
M  V30 BEGIN ATOM
M  V30 1 H -0.908 1.98254 -0.117106 0
M  V30 2 N 0 1.576 0 0
M  V30 3 C 0.91 2.11853 1.00774 0
M  V30 4 C 1.926 1.06379 1.37693 0
M  V30 5 O 3.102 1.3828 1.46426 0
M  V30 6 C 0.167 2.61108 2.28087 0
M  V30 7 C -0.772 3.81183 1.9748 0
M  V30 8 C -1.539 4.28079 3.18723 0
M  V30 9 O -1.316 3.74307 4.30407 0
M  V30 10 O -2.382 5.20234 3.02721 0
M  V30 11 H 1.444 2.98177 0.576547 0
M  V30 12 H -0.971 1.47789 0.218828 0
M  V30 13 H 0.911 2.92987 3.0288 0
M  V30 14 H -0.414 1.77881 2.70444 0
M  V30 15 H -1.507 3.54277 1.20162 0
M  V30 16 H -0.174 4.65482 1.5996 0
M  V30 17 N 1.4781 -0.272755 1.55222 0
M  V30 18 C 2.7241 -1.00581 1.761 0
M  V30 19 C 3.0571 -1.85932 0.560625 0
M  V30 20 O 2.3321 -1.89416 -0.441801 0
M  V30 21 C 2.6151 -1.88816 3.06628 0
M  V30 22 C 2.4681 -1.06457 4.37021 0
M  V30 23 C 3.7871 -2.8752 3.33197 0
M  V30 24 H 0.9061 -0.364244 0.640699 0
M  V30 25 H 3.5481 -0.278189 1.87952 0
M  V30 26 H 1.6981 -2.50856 2.96654 0
M  V30 27 H 3.3701 -0.464863 4.58952 0
M  V30 28 H 1.6131 -0.368043 4.32236 0
M  V30 29 H 2.2841 -1.71514 5.24678 0
M  V30 30 H 4.7601 -2.35615 3.42965 0
M  V30 31 H 3.6361 -3.46399 4.25792 0
M  V30 32 H 3.8971 -3.62657 2.52849 0
M  V30 33 N 2.9562 -1.48159 -0.537278 0
M  V30 34 C 3.8882 -1.58218 -1.65831 0
M  V30 35 C 4.9012 -0.466948 -1.5596 0
M  V30 36 O 6.0902 -0.73747 -1.62553 0
M  V30 37 C 3.1902 -1.48906 -3.04434 0
M  V30 38 C 2.3632 -2.75343 -3.3986 0
M  V30 39 C 1.4222 -2.59588 -4.57712 0
M  V30 40 O 0.4482 -3.33457 -4.61297 0
M  V30 41 N 1.6502 -1.68724 -5.55439 0
M  V30 42 H 4.4152 -2.54891 -1.57641 0
M  V30 43 H 1.9762 -1.4479 -0.724386 0
M  V30 44 H 3.9682 -1.36072 -3.81139 0
M  V30 45 H 2.5382 -0.602368 -3.06741 0
M  V30 46 H 1.7582 -3.02795 -2.52406 0
M  V30 47 H 3.0462 -3.5924 -3.60311 0
M  V30 48 H 2.4442 -1.07898 -5.55315 0
M  V30 49 H 1.0012 -1.61832 -6.3139 0
M  V30 50 N 4.4343 0.785586 -1.36625 0
M  V30 51 C 5.3643 1.91259 -1.33949 0
M  V30 52 C 6.3453 1.68795 -0.210325 0
M  V30 53 O 7.5303 1.89854 -0.408561 0
M  V30 54 C 4.6603 3.28339 -1.13186 0
M  V30 55 C 3.6143 3.65335 -2.22967 0
M  V30 56 C 2.9403 5.00806 -1.87342 0
M  V30 57 C 4.2403 3.7352 -3.65075 0
M  V30 58 H 5.9343 1.93755 -2.28253 0
M  V30 59 H 3.4803 0.930788 -1.09874 0
M  V30 60 H 5.4333 4.06804 -1.09948 0
M  V30 61 H 4.1573 3.2624 -0.153332 0
M  V30 62 H 2.8163 2.89169 -2.25337 0
M  V30 63 H 2.4643 4.95233 -0.880545 0
M  V30 64 H 2.1643 5.26529 -2.60846 0
M  V30 65 H 3.6883 5.81687 -1.85667 0
M  V30 66 H 5.1023 4.42168 -3.64911 0
M  V30 67 H 3.4993 4.10731 -4.37516 0
M  V30 68 H 4.5693 2.74527 -3.99703 0
M  V30 69 N 5.9124 1.20967 1.01018 0
M  V30 70 C 7.1584 1.02526 1.74975 0
M  V30 71 C 7.4914 -0.4408 1.89131 0
M  V30 72 O 6.7664 -1.32718 1.42184 0
M  V30 73 C 7.0494 1.71699 3.1653 0
M  V30 74 C 6.9024 3.25791 3.10129 0
M  V30 75 C 8.2214 1.45531 4.15342 0
M  V30 76 H 5.3404 0.373863 0.635134 0
M  V30 77 H 7.9824 1.49071 1.17805 0
M  V30 78 H 6.1324 1.32128 3.65341 0
M  V30 79 H 7.8044 3.74697 2.69072 0
M  V30 80 H 6.0474 3.56363 2.47362 0
M  V30 81 H 6.7184 3.69353 4.10222 0
M  V30 82 H 9.1944 1.79872 3.75213 0
M  V30 83 H 8.0704 1.96453 5.1254 0
M  V30 84 H 8.3314 0.384237 4.40427 0
M  V30 85 N 7.3905 -1.2043 1.01659 0
M  V30 86 C 8.3005 -2.2689 0.596484 0
M  V30 87 C 9.3165 -1.70107 -0.36599 0
M  V30 88 O 10.4925 -2.00117 -0.226942 0
M  V30 89 C 7.5575 -3.4665 -0.0586659 0
M  V30 90 C 6.6185 -4.18662 0.949751 0
M  V30 91 C 5.8515 -5.32705 0.32577 0
M  V30 92 O 6.0745 -5.63656 -0.874509 0
M  V30 93 O 5.0085 -5.92803 1.04249 0
M  V30 94 H 8.8345 -2.65041 1.4828 0
M  V30 95 H 6.4195 -1.27048 0.786082 0
M  V30 96 H 8.3015 -4.19256 -0.424564 0
M  V30 97 H 6.9765 -3.10375 -0.91918 0
M  V30 98 H 5.8835 -3.48229 1.36702 0
M  V30 99 H 7.2165 -4.58878 1.78023 0
M  V30 100 N 8.8686 -0.792821 -1.36206 0
M  V30 101 C 10.0936 -0.377701 -2.03932 0
M  V30 102 C 10.5186 0.998947 -1.59382 0
M  V30 103 O 9.8766 1.64421 -0.763903 0
M  V30 104 C 9.9246 -0.453635 -3.57735 0
M  V30 105 O 9.0286 0.538151 -4.08874 0
M  V30 106 H 8.3696 -0.159855 -0.644471 0
M  V30 107 H 10.8996 -1.07488 -1.7409 0
M  V30 108 H 10.9096 -0.318464 -4.06755 0
M  V30 109 H 9.5846 -1.45784 -3.89512 0
M  V30 110 H 8.1616 0.364359 -3.71116 0
M  V30 111 N 10.3467 1.47872 -0.545128 0
M  V30 112 C 11.5947 2.02093 -0.016553 0
M  V30 113 C 11.9157 1.42305 1.3332 0
M  V30 114 O 11.1857 0.593853 1.86682 0
M  V30 115 H 9.7657 0.746993 -0.00313038 0
M  V30 116 H 12.4277 1.81414 -0.712397 0
M  V30 117 H 11.5237 3.11996 0.0805422 0
M  V30 118 N 11.8248 0.280983 1.55075 0
M  V30 119 C 13.0728 -0.333455 1.9933 0
M  V30 120 C 13.3938 -1.55937 1.17085 0
M  V30 121 O 12.6638 -1.94143 0.261805 0
M  V30 122 H 11.2438 -0.126197 0.736263 0
M  V30 123 H 13.9058 0.387678 1.91005 0
M  V30 124 H 13.0018 -0.619292 3.05894 0
M  V30 125 N 13.3029 -1.57598 0.00835791 0
M  V30 126 C 14.5509 -1.90551 -0.6734 0
M  V30 127 C 14.8719 -0.883301 -1.73847 0
M  V30 128 O 14.1419 0.0781442 -1.95744 0
M  V30 129 H 12.7219 -0.703312 -0.251717 0
M  V30 130 H 15.3839 -1.94833 0.0512592 0
M  V30 131 H 14.4799 -2.9056 -1.13935 0
M  V30 132 N 14.781 0.264519 -1.55364 0
M  V30 133 C 15.711 1.33121 -1.91836 0
M  V30 134 C 16.692 1.51101 -0.781192 0
M  V30 135 O 17.877 1.64003 -1.04003 0
M  V30 136 C 15.007 2.68921 -2.19769 0
M  V30 137 C 13.961 2.65661 -3.35571 0
M  V30 138 C 13.287 4.05093 -3.49004 0
M  V30 139 C 14.587 2.24187 -4.71739 0
M  V30 140 H 16.281 1.02844 -2.81182 0
M  V30 141 H 13.827 0.493286 -1.35287 0
M  V30 142 H 15.78 3.43663 -2.43872 0
M  V30 143 H 14.504 3.00799 -1.27231 0
M  V30 144 H 13.163 1.93377 -3.1145 0
M  V30 145 H 12.811 4.34206 -2.53917 0
M  V30 146 H 12.511 4.03804 -4.26868 0
M  V30 147 H 14.035 4.81561 -3.75408 0
M  V30 148 H 15.449 2.88654 -4.9533 0
M  V30 149 H 13.846 2.34044 -5.52579 0
M  V30 150 H 14.916 1.19327 -4.69988 0
M  V30 151 N 16.2591 1.48442 0.529413 0
M  V30 152 C 17.5051 1.5672 1.28711 0
M  V30 153 C 17.8381 0.2406 1.92704 0
M  V30 154 O 17.1131 -0.753454 1.79313 0
M  V30 155 C 17.3961 2.70587 2.37603 0
M  V30 156 C 17.2491 4.12953 1.78297 0
M  V30 157 C 18.5681 2.80212 3.39366 0
M  V30 158 H 15.6871 0.570474 0.466613 0
M  V30 159 H 18.3291 1.80617 0.589706 0
M  V30 160 H 16.4791 2.50342 2.97088 0
M  V30 161 H 18.1511 4.44639 1.22858 0
M  V30 162 H 16.3941 4.19927 1.0883 0
M  V30 163 H 17.0651 4.88448 2.57144 0
M  V30 164 H 19.5411 2.98553 2.89836 0
M  V30 165 H 18.4171 3.61611 4.12951 0
M  V30 166 H 18.6781 1.88393 3.99951 0
M  V30 167 N 17.7372 -0.778329 1.37039 0
M  V30 168 C 18.6692 -1.90034 1.2814 0
M  V30 169 C 19.6822 -1.61585 0.198558 0
M  V30 170 O 20.8712 -1.72625 0.454175 0
M  V30 171 C 17.9712 -3.25108 0.956968 0
M  V30 172 C 17.1442 -3.81253 2.14394 0
M  V30 173 C 16.2032 -4.94789 1.79082 0
M  V30 174 O 15.2292 -5.10721 2.51301 0
M  V30 175 N 16.4312 -5.75878 0.731043 0
M  V30 176 H 19.1962 -1.98186 2.24816 0
M  V30 177 H 16.7572 -0.957129 1.30578 0
M  V30 178 H 18.7492 -3.9857 0.701701 0
M  V30 179 H 17.3192 -3.125 0.0789812 0
M  V30 180 H 16.5392 -2.99647 2.56135 0
M  V30 181 H 17.8272 -4.15495 2.93668 0
M  V30 182 H 17.2252 -5.65547 0.131618 0
M  V30 183 H 15.7822 -6.49596 0.535622 0
M  V30 184 N 19.2153 -1.21501 -1.00376 0
M  V30 185 C 20.6263 -1.03146 -1.55621 0
M  V30 186 C 20.9773 0.408375 -1.91903 0
M  V30 187 O 20.1023 1.29177 -1.73616 0
M  V30 188 C 20.6973 -1.86612 -2.82775 0
M  V30 189 C 19.2563 -1.72586 -3.34501 0
M  V30 190 C 18.4033 -1.83747 -2.07683 0
M  V30 191 H 21.3543 -1.35505 -0.826081 0
M  V30 192 H 21.3753 -1.3771 -3.54706 0
M  V30 193 H 20.8873 -2.91399 -2.56336 0
M  V30 194 H 18.9883 -0.704877 -3.65872 0
M  V30 195 H 19.1013 -2.54623 -4.05837 0
M  V30 196 H 17.4653 -1.27069 -2.20739 0
M  V30 197 H 18.2483 -2.90044 -1.83655 0
M  V30 198 N 20.6934 1.19889 -1.02296 0
M  V30 199 C 21.9414 1.89046 -0.714558 0
M  V30 200 C 22.2624 1.79636 0.758681 0
M  V30 201 O 21.5324 1.20292 1.54618 0
M  V30 202 H 20.1124 0.699802 -0.261317 0
M  V30 203 H 22.7744 1.45574 -1.29592 0
M  V30 204 H 21.8704 2.95524 -1.0036 0
M  V30 205 N 22.1715 0.800033 1.35784 0
M  V30 206 C 23.4195 0.376597 1.9856 0
M  V30 207 C 23.7405 -1.05812 1.63795 0
M  V30 208 O 23.0105 -1.73103 0.917171 0
M  V30 209 H 21.5905 0.136261 0.734467 0
M  V30 210 H 24.2525 1.02442 1.65806 0
M  V30 211 H 23.3485 0.477002 3.08433 0
M  V30 212 N 23.6496 -1.47581 0.552962 0
M  V30 213 C 24.8746 -2.07378 0.0300593 0
M  V30 214 C 25.2996 -1.40355 -1.25229 0
M  V30 215 O 24.6576 -0.477099 -1.7491 0
M  V30 216 C 24.7056 -3.60274 -0.153231 0
M  V30 217 O 23.8096 -3.94041 -1.21678 0
M  V30 218 H 23.1506 -0.662158 0.0494182 0
M  V30 219 H 25.6806 -1.89662 0.767434 0
M  V30 220 H 25.6906 -4.0633 -0.368761 0
M  V30 221 H 24.3656 -4.08455 0.783397 0
M  V30 222 H 22.9426 -3.59735 -0.982079 0
M  V30 223 N 25.1277 -0.289203 -1.54924 0
M  V30 224 C 26.0577 0.58549 -2.2604 0
M  V30 225 C 27.0387 1.14753 -1.25562 0
M  V30 226 O 28.2237 1.17906 -1.54311 0
M  V30 227 C 25.3537 1.76305 -2.99222 0
M  V30 228 C 24.3077 1.33191 -4.06748 0
M  V30 229 C 23.6337 2.5937 -4.6758 0
M  V30 230 C 24.9337 0.471775 -5.20165 0
M  V30 231 H 26.6277 -0.00763532 -2.99399 0
M  V30 232 H 24.1737 -0.00511229 -1.43999 0
M  V30 233 H 26.1267 2.38097 -3.47689 0
M  V30 234 H 24.8507 2.38223 -2.23422 0
M  V30 235 H 23.5097 0.737121 -3.59113 0
M  V30 236 H 23.1577 3.19576 -3.88433 0
M  V30 237 H 22.8577 2.31228 -5.40192 0
M  V30 238 H 24.3817 3.21985 -5.18804 0
M  V30 239 H 25.7957 0.995056 -5.64599 0
M  V30 240 H 24.1927 0.284639 -5.99425 0
M  V30 241 H 25.2627 -0.506041 -4.82252 0
M  V30 242 N 26.6058 1.57591 -0.0167156 0
M  V30 243 C 28.0218 1.55946 0.339557 0
M  V30 244 C 28.2218 1.02109 1.73713 0
M  V30 245 O 27.2778 0.662303 2.43659 0
M  V30 246 C 28.5908 3.00037 0.199499 0
M  V30 247 C 30.1388 3.11805 0.273193 0
M  V30 248 C 30.6138 4.57713 0.162068 0
M  V30 249 N 32.1048 4.6268 0.219444 0
M  V30 250 C 32.8398 5.73185 0.157054 0
M  V30 251 N 32.3358 6.92786 0.0442936 0
M  V30 252 N 34.1288 5.61707 0.21014 0
M  V30 253 H 26.2798 1.90921 -0.930758 0
M  V30 254 H 28.5428 0.877674 -0.358319 0
M  V30 255 H 28.2488 3.4333 -0.76273 0
M  V30 256 H 28.1228 3.64387 0.974786 0
M  V30 257 H 30.5098 2.68433 1.22587 0
M  V30 258 H 30.5908 2.50201 -0.532256 0
M  V30 259 H 30.2348 5.01763 -0.78714 0
M  V30 260 H 30.1648 5.17283 0.986222 0
M  V30 261 H 32.6558 3.76649 0.307246 0
M  V30 262 H 32.9688 7.728 0.00304069 0
M  V30 263 H 31.3138 6.94999 0.00968457 0
M  V30 264 H 34.5048 4.6716 0.296546 0
M  V30 265 H 34.6778 6.47807 0.158054 0
M  V30 266 N 28.0839 -0.256276 1.55502 0
M  V30 267 C 29.0139 -1.32102 1.92539 0
M  V30 268 C 29.9949 -1.50684 0.789194 0
M  V30 269 O 31.1799 -1.63449 1.04872 0
M  V30 270 C 28.3099 -2.67752 2.21192 0
M  V30 271 C 27.2639 -2.63878 3.36975 0
M  V30 272 C 26.5899 -4.03236 3.51147 0
M  V30 273 C 27.8899 -2.21682 4.72921 0
M  V30 274 H 29.5839 -1.01351 2.81724 0
M  V30 275 H 27.1299 -0.486105 1.35547 0
M  V30 276 H 29.0829 -3.42365 2.45691 0
M  V30 277 H 27.8069 -3.0012 1.28824 0
M  V30 278 H 26.4659 -1.91722 3.12471 0
M  V30 279 H 26.1139 -4.32854 2.56216 0
M  V30 280 H 25.8139 -4.01535 4.29003 0
M  V30 281 H 27.3379 -4.79563 3.77957 0
M  V30 282 H 28.7519 -2.86023 4.96854 0
M  V30 283 H 27.1489 -2.3111 5.53812 0
M  V30 284 H 28.2189 -1.16833 4.70615 0
M  V30 285 N 29.562 -1.4872 -0.521534 0
M  V30 286 C 30.787 -1.61101 -1.30618 0
M  V30 287 C 31.212 -0.274611 -1.86085 0
M  V30 288 O 30.57 0.754937 -1.64834 0
M  V30 289 C 30.618 -2.66709 -2.4269 0
M  V30 290 O 29.722 -2.24456 -3.45967 0
M  V30 291 H 29.063 -0.539921 -0.386499 0
M  V30 292 H 31.593 -1.94767 -0.626645 0
M  V30 293 H 31.603 -2.88245 -2.88754 0
M  V30 294 H 30.278 -3.63727 -2.01682 0
M  V30 295 H 28.855 -2.13168 -3.05964 0
M  V30 296 N 31.0401 0.771051 -1.3745 0
M  V30 297 C 32.2801 1.54264 -1.34096 0
M  V30 298 C 32.6441 1.91858 0.0737639 0
M  V30 299 O 33.8451 2.67797 0.23203 0
M  V30 300 C 32.1161 2.77326 -2.25445 0
M  V30 301 S 33.6751 3.67383 -2.39948 0
M  V30 302 H 30.4931 0.528122 -0.476034 0
M  V30 303 H 33.0951 0.906633 -1.73206 0
M  V30 304 H 31.7991 2.47788 -3.27153 0
M  V30 305 H 31.3301 3.45886 -1.87421 0
M  V30 306 H 33.3451 4.69334 -1.61059 0
M  V30 307 N 32.5182 1.22032 0.997298 0
M  V30 308 C 33.4812 0.987909 2.06816 0
M  V30 309 C 34.4812 -0.0440084 1.6074 0
M  V30 310 O 35.6712 0.194053 1.73116 0
M  V30 311 C 32.8032 0.49132 3.37341 0
M  V30 312 H 33.9962 1.93803 2.28868 0
M  V30 313 H 31.5492 1.03838 1.16822 0
M  V30 314 H 32.2842 -0.463364 3.20973 0
M  V30 315 H 32.0692 1.23575 3.72118 0
M  V30 316 H 33.5592 0.348824 4.16141 0
M  V30 317 N 33.9963 -1.19345 1.0293 0
M  V30 318 C 34.9593 -2.20793 0.615069 0
M  V30 319 C 35.9593 -1.57553 -0.321533 0
M  V30 320 O 37.1493 -1.73862 -0.108483 0
M  V30 321 C 34.2813 -3.40754 -0.0999222 0
M  V30 322 H 35.4743 -2.58955 1.51269 0
M  V30 323 H 33.0273 -1.3303 0.820534 0
M  V30 324 H 33.7623 -3.0811 -1.01187 0
M  V30 325 H 33.5473 -3.87889 0.57309 0
M  V30 326 H 35.0373 -4.15898 -0.376645 0
M  V30 327 N 35.4744 -0.807222 -1.35358 0
M  V30 328 C 36.6994 -0.399309 -2.0352 0
M  V30 329 C 37.1244 0.981986 -1.60433 0
M  V30 330 O 36.4824 1.63601 -0.781299 0
M  V30 331 C 36.5304 -0.491552 -3.57234 0
M  V30 332 O 35.6344 0.494754 -4.09421 0
M  V30 333 H 34.9754 -0.166682 -0.642739 0
M  V30 334 H 37.5054 -1.09328 -1.72941 0
M  V30 335 H 37.5154 -0.361588 -4.06395 0
M  V30 336 H 36.1904 -1.49907 -3.87944 0
M  V30 337 H 34.7674 0.324977 -3.71481 0
M  V30 338 N 36.9525 1.47285 -0.560781 0
M  V30 339 C 38.2005 2.02064 -0.0379868 0
M  V30 340 C 38.5215 1.43711 1.31803 0
M  V30 341 O 37.7915 0.61362 1.86042 0
M  V30 342 H 36.3715 0.746918 -0.0110531 0
M  V30 343 H 39.0335 1.80648 -0.731598 0
M  V30 344 H 38.1295 3.12064 0.0474463 0
M  V30 345 N 38.4306 0.297415 1.54768 0
M  V30 346 C 39.6776 -0.312913 2.00068 0
M  V30 347 C 40.0056 -1.54171 1.18582 0
M  V30 348 O 39.2606 -1.94108 0.249133 0
M  V30 349 C 39.5596 -0.717561 3.50123 0
M  V30 350 C 39.2256 0.409095 4.4904 0
M  V30 351 C 37.8876 0.718399 4.75807 0
M  V30 352 C 40.2396 1.16717 5.07963 0
M  V30 353 C 37.5676 1.78896 5.5876 0
M  V30 354 C 39.9196 2.22762 5.92081 0
M  V30 355 C 38.5836 2.54303 6.1716 0
M  V30 356 H 37.8536 -0.114503 0.7321 0
M  V30 357 H 40.5006 0.415767 1.86932 0
M  V30 358 H 38.8056 -1.52627 3.60849 0
M  V30 359 H 40.5026 -1.20091 3.82595 0
M  V30 360 H 37.0926 0.157918 4.28309 0
M  V30 361 H 41.2766 0.941466 4.87289 0
M  V30 362 H 36.5326 2.0381 5.7643 0
M  V30 363 H 40.7066 2.81962 6.36765 0
M  V30 364 H 38.3336 3.3739 6.81229 0
M  V30 365 N 39.9087 -1.5758 0.0250728 0
M  V30 366 C 41.1367 -1.9593 -0.664747 0
M  V30 367 C 41.5517 -0.901352 -1.65895 0
M  V30 368 O 40.9087 0.117255 -1.82123 0
M  V30 369 C 40.9597 -3.34342 -1.37468 0
M  V30 370 O 40.6807 -4.36079 -0.420324 0
M  V30 371 C 42.1817 -3.873 -2.1567 0
M  V30 372 H 39.4017 -0.645405 -0.183557 0
M  V30 373 H 41.9457 -2.04329 0.0836372 0
M  V30 374 H 40.1007 -3.27175 -2.0745 0
M  V30 375 H 40.5147 -5.16297 -0.923991 0
M  V30 376 H 41.9887 -4.86504 -2.60803 0
M  V30 377 H 42.4657 -3.21331 -2.99405 0
M  V30 378 H 43.0717 -3.97723 -1.50654 0
M  V30 379 N 41.3868 0.248026 -1.55636 0
M  V30 380 C 42.6338 0.976224 -1.77415 0
M  V30 381 C 42.9618 1.85361 -0.589193 0
M  V30 382 O 42.2168 1.90973 0.427529 0
M  V30 383 C 42.5158 1.86819 -3.04686 0
M  V30 384 C 42.1818 1.14625 -4.36087 0
M  V30 385 C 40.8438 0.946723 -4.71795 0
M  V30 386 C 43.1958 0.634463 -5.17324 0
M  V30 387 C 40.5238 0.223091 -5.86276 0
M  V30 388 C 42.8758 -0.0756959 -6.32555 0
M  V30 389 C 41.5398 -0.286711 -6.66884 0
M  V30 390 H 40.8098 0.357226 -0.649208 0
M  V30 391 H 43.4568 0.246415 -1.89908 0
M  V30 392 H 41.7618 2.66502 -2.872 0
M  V30 393 H 43.4588 2.43329 -3.18735 0
M  V30 394 H 40.0488 1.3117 -4.08035 0
M  V30 395 H 44.2328 0.77616 -4.90193 0
M  V30 396 H 39.4888 0.0491185 -6.1138 0
M  V30 397 H 43.6628 -0.479899 -6.94745 0
M  V30 398 H 41.2898 -0.849389 -7.5544 0
M  V30 399 N 42.8649 1.48995 0.513639 0
M  V30 400 C 44.0899 1.61792 1.29762 0
M  V30 401 C 44.5149 0.284475 1.85936 0
M  V30 402 O 43.8729 -0.746185 1.65232 0
M  V30 403 C 43.9209 2.67993 2.41272 0
M  V30 404 O 43.0249 2.26287 3.44772 0
M  V30 405 H 42.3659 0.541963 0.38363 0
M  V30 406 H 44.8959 1.95097 0.616307 0
M  V30 407 H 44.9059 2.89772 2.87221 0
M  V30 408 H 43.5809 3.64791 1.9975 0
M  V30 409 H 42.1579 2.14788 3.04829 0
M  V30 410 N 44.343 -0.763751 1.37857 0
M  V30 411 C 45.291 -1.89864 1.34367 0
M  V30 412 C 46.285 -1.67816 0.231143 0
M  V30 413 O 47.491 -1.75508 0.399617 0
M  V30 414 H 43.866 -0.624501 0.41893 0
M  V30 415 H 45.837 -1.89925 2.30155 0
M  V30 416 C 44.586 -3.27227 1.1755 0
M  V30 417 H 43.909 -3.44773 2.02414 0
M  V30 418 H 45.349 -4.06911 1.1916 0
M  V30 419 C 43.808 -3.36692 -0.118311 0
M  V30 420 O 44.338 -3.86374 -1.09902 0
M  V30 421 N 42.544 -2.90092 -0.171717 0
M  V30 422 H 42.091 -2.49853 0.627012 0
M  V30 423 H 42.049 -2.96806 -1.03699 0
M  V30 424 N 45.8211 -1.22559 -0.990812 0
M  V30 425 C 47.0511 -1.07623 -1.76355 0
M  V30 426 C 47.4591 0.37601 -1.85426 0
M  V30 427 O 46.8021 1.27228 -1.32509 0
M  V30 428 C 46.8641 -1.61507 -3.21179 0
M  V30 429 C 46.5281 -3.10146 -3.35646 0
M  V30 430 C 47.5251 -4.07553 -3.22796 0
M  V30 431 C 45.2101 -3.49644 -3.60631 0
M  V30 432 C 47.2041 -5.42442 -3.34716 0
M  V30 433 C 44.8911 -4.84682 -3.72192 0
M  V30 434 C 45.8891 -5.8089 -3.59243 0
M  V30 435 O 45.5771 -7.13476 -3.70415 0
M  V30 436 H 45.3091 -0.377745 -0.560611 0
M  V30 437 H 47.8631 -1.62658 -1.25425 0
M  V30 438 H 46.0931 -1.00881 -3.73309 0
M  V30 439 H 47.7821 -1.42202 -3.80175 0
M  V30 440 H 48.5481 -3.78381 -3.03403 0
M  V30 441 H 44.4271 -2.75282 -3.69785 0
M  V30 442 H 47.9711 -6.17518 -3.24526 0
M  V30 443 H 43.8681 -5.13534 -3.91092 0
M  V30 444 H 44.6361 -7.21083 -3.87275 0
M  V30 445 N 47.2992 1.18797 -1.03562 0
M  V30 446 C 48.5452 1.89192 -0.746867 0
M  V30 447 C 48.9002 1.78531 0.717245 0
M  V30 448 O 48.1932 1.17137 1.51622 0
M  V30 449 C 48.3872 3.38692 -1.14117 0
M  V30 450 C 48.2162 3.63902 -2.64207 0
M  V30 451 C 46.9862 3.81553 -3.31279 0
M  V30 452 C 49.1842 3.64903 -3.62423 0
M  V30 453 N 47.1662 3.94455 -4.70402 0
M  V30 454 C 48.5372 3.83458 -4.87196 0
M  V30 455 C 50.5922 3.47965 -3.56125 0
M  V30 456 C 49.2952 3.86829 -6.06429 0
M  V30 457 C 51.3212 3.52616 -4.7478 0
M  V30 458 C 50.6832 3.71663 -5.9837 0
M  V30 459 H 46.7822 0.711141 -0.325273 0
M  V30 460 H 49.3662 1.42727 -1.32428 0
M  V30 461 H 47.5372 3.83864 -0.591889 0
M  V30 462 H 49.2692 3.96634 -0.803966 0
M  V30 463 H 46.0242 3.80723 -2.81686 0
M  V30 464 H 46.4482 4.0474 -5.42692 0
M  V30 465 H 51.0902 3.32189 -2.61553 0
M  V30 466 H 48.8082 4.01395 -7.01362 0
M  V30 467 H 52.3942 3.40791 -4.71543 0
M  V30 468 H 51.2742 3.75145 -6.88648 0
M  V30 469 N 48.7773 0.814389 1.34928 0
M  V30 470 C 49.7103 0.175641 2.27523 0
M  V30 471 C 50.6883 -0.662953 1.48471 0
M  V30 472 O 51.8723 -0.628545 1.77712 0
M  V30 473 C 48.9993 -0.755516 3.30166 0
M  V30 474 C 48.0453 0.00445305 4.265 0
M  V30 475 S 48.8783 1.34582 5.18313 0
M  V30 476 C 50.0343 0.419315 6.24494 0
M  V30 477 H 50.2673 0.960691 2.8135 0
M  V30 478 H 47.8003 0.609846 1.41846 0
M  V30 479 H 49.7583 -1.28723 3.89796 0
M  V30 480 H 48.4193 -1.51402 2.75202 0
M  V30 481 H 47.6123 -0.703077 4.99072 0
M  V30 482 H 47.2143 0.466447 3.7108 0
M  V30 483 H 49.5063 -0.392432 6.76362 0
M  V30 484 H 50.4493 1.11446 6.99275 0
M  V30 485 H 50.8573 0.0115389 5.64499 0
M  V30 486 N 50.2554 -1.46986 0.568584 0
M  V30 487 C 51.2034 -2.31858 -0.185649 0
M  V30 488 C 52.1974 -1.43624 -0.898249 0
M  V30 489 O 53.4034 -1.60327 -0.818242 0
M  V30 490 H 49.7784 -0.747866 -0.0787399 0
M  V30 491 H 51.7494 -2.93303 0.549191 0
M  V30 492 C 50.4984 -3.26513 -1.19519 0
M  V30 493 H 49.8214 -3.94377 -0.656285 0
M  V30 494 H 51.2614 -3.88707 -1.6936 0
M  V30 495 C 49.7204 -2.50847 -2.24894 0
M  V30 496 O 50.2504 -2.26119 -3.32014 0
M  V30 497 N 48.4564 -2.11656 -1.99124 0
M  V30 498 H 48.0034 -2.31966 -1.12024 0
M  V30 499 H 47.9614 -1.61347 -2.69842 0
M  V30 500 N 51.7335 -0.305618 -1.54608 0
M  V30 501 C 52.9795 0.295595 -2.01241 0
M  V30 502 C 53.3345 1.51171 -1.19018 0
M  V30 503 O 52.6275 1.89832 -0.259684 0
M  V30 504 C 52.8215 0.698983 -3.50498 0
M  V30 505 C 52.6505 -0.476491 -4.47168 0
M  V30 506 C 51.4205 -0.969963 -4.95903 0
M  V30 507 C 53.6185 -1.32294 -4.96994 0
M  V30 508 N 51.6005 -2.11172 -5.76437 0
M  V30 509 C 52.9715 -2.31212 -5.75275 0
M  V30 510 C 55.0265 -1.35278 -4.7917 0
M  V30 511 C 53.7295 -3.32896 -6.37631 0
M  V30 512 C 55.7555 -2.35823 -5.42348 0
M  V30 513 C 55.1175 -3.33469 -6.20466 0
M  V30 514 H 51.2165 0.0724992 -0.778632 0
M  V30 515 H 53.8005 -0.436583 -1.89742 0
M  V30 516 H 51.9715 1.40032 -3.62278 0
M  V30 517 H 53.7035 1.28013 -3.8392 0
M  V30 518 H 50.4585 -0.544178 -4.70463 0
M  V30 519 H 50.8825 -2.68714 -6.21387 0
M  V30 520 H 55.5245 -0.61157 -4.18354 0
M  V30 521 H 53.2425 -4.07933 -6.97579 0
M  V30 522 H 56.8285 -2.38911 -5.30484 0
M  V30 523 H 55.7085 -4.09996 -6.68485 0
M  V30 524 N 53.2116 1.57565 -0.0334293 0
M  V30 525 C 54.4576 1.92262 0.645226 0
M  V30 526 C 54.7906 0.910543 1.71531 0
M  V30 527 O 54.0656 -0.066099 1.94388 0
M  V30 528 C 54.3486 3.37422 1.2577 0
M  V30 529 C 54.2016 4.49369 0.196891 0
M  V30 530 C 55.5206 3.82628 2.17449 0
M  V30 531 H 52.6396 0.699171 0.233085 0
M  V30 532 H 55.2816 1.89779 -0.0915694 0
M  V30 533 H 53.4316 3.39669 1.88566 0
M  V30 534 H 55.1036 4.59254 -0.433962 0
M  V30 535 H 53.3466 4.31168 -0.477137 0
M  V30 536 H 54.0176 5.47978 0.665124 0
M  V30 537 H 56.4936 3.82145 1.64634 0
M  V30 538 H 55.3696 4.84883 2.57254 0
M  V30 539 H 55.6306 3.18376 3.0674 0
M  V30 540 N 54.6897 -0.239769 1.55765 0
M  V30 541 C 56.1057 -0.588624 1.48349 0
M  V30 542 C 56.3057 -1.88005 0.72502 0
M  V30 543 O 55.3617 -2.51186 0.257269 0
M  V30 544 C 56.6747 -0.68474 2.928 0
M  V30 545 C 58.2227 -0.77659 3.03213 0
M  V30 546 C 58.6977 -0.904207 4.48986 0
M  V30 547 N 60.1887 -0.968896 4.52953 0
M  V30 548 C 60.9237 -1.08703 5.63002 0
M  V30 549 N 60.4197 -1.17026 6.82845 0
M  V30 550 N 62.2127 -1.12074 5.50814 0
M  V30 551 H 54.3637 0.607911 2.03515 0
M  V30 552 H 56.6267 0.21083 0.924259 0
M  V30 553 H 56.3327 0.194284 3.51163 0
M  V30 554 H 56.2067 -1.55435 3.43686 0
M  V30 555 H 58.5937 -1.64606 2.44926 0
M  V30 556 H 58.6747 0.118315 2.55526 0
M  V30 557 H 58.3187 -0.0392633 5.07885 0
M  V30 558 H 58.2487 -1.81426 4.9436 0
M  V30 559 H 60.7397 -0.915633 3.6664 0
M  V30 560 H 61.0527 -1.25966 7.62465 0
M  V30 561 H 59.3977 -1.13971 6.85591 0
M  V30 562 H 62.5887 -1.05226 4.5612 0
M  V30 563 H 62.7617 -1.20936 6.36615 0
M  V30 564 N 56.1678 -1.49265 -0.50573 0
M  V30 565 C 57.0998 -1.617 -1.62437 0
M  V30 566 C 58.1128 -0.499924 -1.54934 0
M  V30 567 O 59.3018 -0.771785 -1.60953 0
M  V30 568 C 56.4018 -1.5533 -3.01207 0
M  V30 569 C 55.5748 -2.8249 -3.33943 0
M  V30 570 C 54.6338 -2.69238 -4.52103 0
M  V30 571 O 53.6598 -3.43167 -4.5412 0
M  V30 572 N 54.8618 -1.80468 -5.51735 0
M  V30 573 H 57.6268 -2.58177 -1.52199 0
M  V30 574 H 55.1878 -1.46294 -0.693511 0
M  V30 575 H 57.1798 -1.44125 -3.78167 0
M  V30 576 H 55.7498 -0.667297 -3.05395 0
M  V30 577 H 54.9698 -3.08081 -2.45926 0
M  V30 578 H 56.2578 -3.66802 -3.5261 0
M  V30 579 H 55.6558 -1.19653 -5.52901 0
M  V30 580 H 54.2128 -1.75188 -6.27816 0
M  V30 581 N 57.6459 0.756429 -1.3826 0
M  V30 582 C 58.6089 1.85176 -1.35065 0
M  V30 583 C 59.6089 1.58818 -0.251703 0
M  V30 584 O 60.7989 1.66615 -0.508433 0
M  V30 585 C 57.9309 3.22596 -1.10201 0
M  V30 586 H 59.1239 1.89417 -2.3251 0
M  V30 587 H 56.6769 0.95783 -1.23512 0
M  V30 588 H 57.4119 3.24025 -0.133504 0
M  V30 589 H 57.1969 3.43122 -1.89762 0
M  V30 590 H 58.6869 4.02673 -1.10654 0
M  V30 591 N 59.124 1.23083 0.984299 0
M  V30 592 C 60.535 1.05609 1.5396 0
M  V30 593 C 60.886 -0.377793 1.92528 0
M  V30 594 O 60.011 -1.26398 1.75649 0
M  V30 595 C 60.606 1.91087 2.7977 0
M  V30 596 C 59.165 1.77885 3.31713 0
M  V30 597 C 58.312 1.87028 2.04733 0
M  V30 598 H 61.263 1.36802 0.804419 0
M  V30 599 H 61.284 1.43336 3.5247 0
M  V30 600 H 60.796 2.9544 2.51668 0
M  V30 601 H 58.897 0.762995 3.64704 0
M  V30 602 H 59.01 2.61047 4.01735 0
M  V30 603 H 57.374 1.30565 2.18689 0
M  V30 604 H 58.157 2.92929 1.79017 0
M  V30 605 N 60.6021 -1.18246 1.0419 0
M  V30 606 C 61.8501 -1.87886 0.744543 0
M  V30 607 C 62.1711 -1.8082 -0.730006 0
M  V30 608 O 61.4411 -1.22736 -1.52685 0
M  V30 609 H 60.0211 -0.695556 0.272417 0
M  V30 610 H 62.6831 -1.43494 1.31892 0
M  V30 611 H 61.7791 -2.9389 1.05049 0
M  V30 612 N 62.0802 -0.821533 -1.34494 0
M  V30 613 C 63.0272 -0.240397 -2.29545 0
M  V30 614 C 63.9972 0.634031 -1.53523 0
M  V30 615 O 65.1822 0.575966 -1.81899 0
M  V30 616 C 62.3222 0.592869 -3.39969 0
M  V30 617 C 61.4352 -0.30365 -4.30932 0
M  V30 618 C 60.5702 0.539049 -5.28458 0
M  V30 619 C 59.6092 -0.356942 -6.11058 0
M  V30 620 N 58.7462 0.446603 -7.00678 0
M  V30 621 H 63.5862 -1.05632 -2.7865 0
M  V30 622 H 61.1232 -0.532413 -1.37127 0
M  V30 623 H 63.0812 1.09129 -4.02675 0
M  V30 624 H 61.7112 1.37392 -2.92102 0
M  V30 625 H 60.7632 -0.920276 -3.691 0
M  V30 626 H 62.0752 -0.992661 -4.88823 0
M  V30 627 H 61.2292 1.102 -5.96608 0
M  V30 628 H 59.9682 1.26157 -4.71101 0
M  V30 629 H 58.9732 -0.932047 -5.41842 0
M  V30 630 H 60.1982 -1.07755 -6.70497 0
M  V30 631 H 58.1442 1.15282 -6.45791 0
M  V30 632 H 58.0612 -0.184048 -7.55776 0
M  V30 633 H 59.3292 0.992352 -7.73158 0
M  V30 634 N 63.5583 1.46682 -0.576371 0
M  V30 635 C 64.8063 2.02013 -0.0594163 0
M  V30 636 C 65.1273 1.45101 1.30271 0
M  V30 637 O 64.3973 0.633317 1.8538 0
M  V30 638 H 62.9773 0.746759 -0.0189745 0
M  V30 639 H 65.6393 1.79862 -0.750717 0
M  V30 640 H 64.7353 3.12097 0.014345 0
M  V30 641 N 65.0364 0.313813 1.54444 0
M  V30 642 C 65.9664 -0.549454 2.26943 0
M  V30 643 C 66.9474 -1.12741 1.27372 0
M  V30 644 O 68.1324 -1.15436 1.56167 0
M  V30 645 C 65.2624 -1.71523 3.01989 0
M  V30 646 C 64.2164 -1.26703 4.08816 0
M  V30 647 C 63.5424 -2.51898 4.71647 0
M  V30 648 C 64.8424 -0.388962 5.2085 0
M  V30 649 H 66.5364 0.0552661 2.99349 0
M  V30 650 H 64.0824 0.0280207 1.43973 0
M  V30 651 H 66.0354 -2.32535 3.51433 0
M  V30 652 H 64.7594 -2.34639 2.27183 0
M  V30 653 H 63.4184 -0.679896 3.6024 0
M  V30 654 H 63.0664 -3.13356 3.93468 0
M  V30 655 H 62.7664 -2.22605 5.43802 0
M  V30 656 H 64.2904 -3.1369 5.23861 0
M  V30 657 H 65.7044 -0.905107 5.6611 0
M  V30 658 H 64.1014 -0.18924 5.99802 0
M  V30 659 H 65.1714 0.582699 4.81386 0
M  V30 660 N 66.5145 -1.57545 0.0417849 0
M  V30 661 C 67.4245 -2.14451 -0.951213 0
M  V30 662 C 68.4405 -1.09992 -1.34825 0
M  V30 663 O 69.6165 -1.42114 -1.42708 0
M  V30 664 C 66.6815 -2.67063 -2.21084 0
M  V30 665 C 65.7425 -3.86284 -1.87304 0
M  V30 666 C 64.9755 -4.36378 -3.07261 0
M  V30 667 O 65.1985 -3.85587 -4.20332 0
M  V30 668 O 64.1325 -5.28077 -2.88822 0
M  V30 669 H 67.9585 -2.99601 -0.497287 0
M  V30 670 H 65.5435 -1.48317 -0.179567 0
M  V30 671 H 67.4255 -3.00914 -2.95006 0
M  V30 672 H 66.1005 -1.84989 -2.65633 0
M  V30 673 H 65.0075 -3.57338 -1.10727 0
M  V30 674 H 66.3405 -4.6956 -1.47562 0
M  V30 675 N 67.9926 0.231505 -1.5589 0
M  V30 676 C 69.2386 0.954429 -1.79617 0
M  V30 677 C 69.5936 1.82367 -0.613199 0
M  V30 678 O 68.8866 1.87524 0.393094 0
M  V30 679 C 69.0806 1.83577 -3.0665 0
M  V30 680 C 68.9096 1.05334 -4.3719 0
M  V30 681 C 67.6796 0.75225 -4.99669 0
M  V30 682 C 69.8776 0.423444 -5.12554 0
M  V30 683 N 67.8596 -0.052627 -6.13877 0
M  V30 684 C 69.2306 -0.245287 -6.19515 0
M  V30 685 C 71.2856 0.335466 -4.96769 0
M  V30 686 C 69.9886 -0.993566 -7.12405 0
M  V30 687 C 72.0146 -0.399321 -5.9005 0
M  V30 688 C 71.3766 -1.05663 -6.9643 0
M  V30 689 H 67.4756 0.329846 -0.709031 0
M  V30 690 H 70.0596 0.226172 -1.93382 0
M  V30 691 H 68.2306 2.53592 -2.94186 0
M  V30 692 H 69.9626 2.49541 -3.18608 0
M  V30 693 H 66.7176 1.06783 -4.61405 0
M  V30 694 H 67.1416 -0.443609 -6.75545 0
M  V30 695 H 71.7836 0.829311 -4.14587 0
M  V30 696 H 69.5016 -1.49896 -7.94076 0
M  V30 697 H 73.0876 -0.468265 -5.79913 0
M  V30 698 H 71.9676 -1.61612 -7.67366 0
M  V30 699 N 69.4707 1.49531 0.497807 0
M  V30 700 C 70.7167 1.59415 1.25358 0
M  V30 701 C 71.0497 0.281422 1.9215 0
M  V30 702 O 70.3247 -0.715249 1.80871 0
M  V30 703 C 70.6077 2.75566 2.3181 0
M  V30 704 C 70.4607 4.16642 1.69498 0
M  V30 705 C 71.7797 2.87347 3.33346 0
M  V30 706 H 68.8987 0.580244 0.454408 0
M  V30 707 H 71.5407 1.81827 0.551262 0
M  V30 708 H 69.6907 2.56587 2.91711 0
M  V30 709 H 71.3627 4.47145 1.13399 0
M  V30 710 H 69.6057 4.22141 0.998978 0
M  V30 711 H 70.2767 4.93792 2.46725 0
M  V30 712 H 72.7527 3.04634 2.83438 0
M  V30 713 H 71.6287 3.70289 4.05188 0
M  V30 714 H 71.8897 1.96834 3.95865 0
M  V30 715 N 70.9488 -0.749086 1.3866 0
M  V30 716 C 71.9118 -1.84457 1.36045 0
M  V30 717 C 72.9118 -1.58682 0.260122 0
M  V30 718 O 74.1018 -1.66343 0.517261 0
M  V30 719 C 71.2338 -3.22008 1.11911 0
M  V30 720 H 72.4268 -1.88182 2.33512 0
M  V30 721 H 69.9798 -0.951266 1.24019 0
M  V30 722 H 70.7148 -3.2395 0.150686 0
M  V30 723 H 70.4998 -3.42111 1.91579 0
M  V30 724 H 71.9898 -4.0208 1.12788 0
M  V30 725 N 72.4269 -1.23603 -0.977757 0
M  V30 726 C 73.3899 -1.02069 -2.05218 0
M  V30 727 C 74.3899 0.0184305 -1.60789 0
M  V30 728 O 75.5799 -0.221569 -1.72785 0
M  V30 729 C 72.7119 -0.544926 -3.36517 0
M  V30 730 H 73.9049 -1.9742 -2.25755 0
M  V30 731 H 71.4579 -1.05684 -1.15155 0
M  V30 732 H 72.1929 0.412241 -3.21669 0
M  V30 733 H 71.9779 -1.2948 -3.70105 0
M  V30 734 H 73.4679 -0.414985 -4.15533 0
M  V30 735 N 73.905 1.17692 -1.04816 0
M  V30 736 C 75.154 1.87192 -0.751132 0
M  V30 737 C 75.467 1.8169 0.724441 0
M  V30 738 O 76.673 2.46625 1.13527 0
M  V30 739 C 75.129 3.35857 -1.29338 0
M  V30 740 C 74.737 3.4987 -2.79812 0
M  V30 741 C 76.481 4.10709 -1.07322 0
M  V30 742 C 74.388 4.92536 -3.27356 0
M  V30 743 H 73.318 0.701162 -0.277288 0
M  V30 744 H 75.969 1.32932 -1.26496 0
M  V30 745 H 74.351 3.89631 -0.707376 0
M  V30 746 H 75.525 3.06332 -3.44235 0
M  V30 747 H 73.84 2.88433 -3.00325 0
M  V30 748 H 76.437 5.15952 -1.4035 0
M  V30 749 H 76.78 4.16299 -0.0108001 0
M  V30 750 H 77.313 3.6313 -1.62423 0
M  V30 751 H 74.052 4.92119 -4.33012 0
M  V30 752 H 73.572 5.3676 -2.67673 0
M  V30 753 H 75.251 5.61288 -3.21815 0
M  V30 754 N 75.3831 0.828654 1.34056 0
M  V30 755 C 76.3311 0.242973 2.31327 0
M  V30 756 C 77.3251 -0.61944 1.57668 0
M  V30 757 O 78.5311 -0.51014 1.7262 0
M  V30 758 H 74.9061 0.059834 0.749616 0
M  V30 759 H 76.8771 1.07809 2.78244 0
M  V30 760 C 75.6261 -0.575733 3.429 0
M  V30 761 H 74.9491 0.0785582 3.99723 0
M  V30 762 H 76.3891 -0.951547 4.13185 0
M  V30 763 C 74.8481 -1.75044 2.87856 0
M  V30 764 O 75.3781 -2.84882 2.83205 0
M  V30 765 N 73.5841 -1.56903 2.44602 0
M  V30 766 H 73.1311 -0.675547 2.48584 0
M  V30 767 H 73.0891 -2.35652 2.08124 0
M  V30 768 N 76.8612 -1.46375 0.584142 0
M  V30 769 C 77.7932 -2.28443 -0.186119 0
M  V30 770 C 78.8062 -1.38596 -0.854115 0
M  V30 771 O 79.9952 -1.63183 -0.723438 0
M  V30 772 C 77.0952 -3.13671 -1.28311 0
M  V30 773 C 76.2682 -4.31652 -0.706758 0
M  V30 774 C 75.3272 -4.98267 -1.69163 0
M  V30 775 O 74.3532 -5.55815 -1.22712 0
M  V30 776 N 75.5552 -4.95408 -3.02575 0
M  V30 777 H 78.3202 -2.9519 0.517986 0
M  V30 778 H 75.8812 -1.56303 0.42201 0
M  V30 779 H 77.8732 -3.55101 -1.94128 0
M  V30 780 H 76.4432 -2.48989 -1.89005 0
M  V30 781 H 75.6632 -3.93989 0.128908 0
M  V30 782 H 76.9512 -5.07906 -0.301506 0
M  V30 783 H 76.3492 -4.49902 -3.42936 0
M  V30 784 H 74.9062 -5.40774 -3.63877 0
M  V30 785 N 78.3393 -0.321999 -1.54275 0
M  V30 786 C 79.6163 0.335232 -1.92706 0
M  V30 787 C 79.9963 1.70006 -1.25145 0
M  V30 788 O 79.3443 2.25067 -0.394596 0
M  V30 789 C 79.5543 0.429008 -3.46353 0
M  V30 790 C 80.9023 0.690029 -4.18956 0
M  V30 791 O 81.9263 0.511992 -3.52501 0
M  V30 792 O 80.7853 1.03338 -5.36641 0
M  V30 793 H 77.8793 0.191143 -0.804608 0
M  V30 794 H 80.4253 -0.3716 -1.65581 0
M  V30 795 H 79.1973 -0.529611 -3.87699 0
M  V30 796 H 78.8203 1.18348 -3.79578 0
M  V30 797 N 79.8174 1.5752 -0.0501392 0
M  V30 798 C 81.0654 1.9227 0.622642 0
M  V30 799 C 81.3864 0.929083 1.71444 0
M  V30 800 O 80.6564 -0.0262186 1.95882 0
M  V30 801 H 79.2364 0.709739 0.232981 0
M  V30 802 H 81.8984 1.94628 -0.102898 0
M  V30 803 H 80.9944 2.93479 1.06191 0
M  V30 804 N 81.2955 -0.223234 1.56011 0
M  V30 805 C 82.5205 -0.968978 1.83373 0
M  V30 806 C 82.9455 -1.77227 0.630254 0
M  V30 807 O 82.3035 -1.76345 -0.420959 0
M  V30 808 C 82.3515 -1.86363 3.08709 0
M  V30 809 O 81.4555 -2.95873 2.87285 0
M  V30 810 H 80.7965 -0.274461 0.604622 0
M  V30 811 H 83.3265 -0.237056 2.03222 0
M  V30 812 H 83.3365 -2.27376 3.38768 0
M  V30 813 H 82.0115 -1.27319 3.95933 0
M  V30 814 H 80.5885 -2.58818 2.68454 0
M  V30 815 N 82.7736 -1.49793 -0.48987 0
M  V30 816 C 83.6836 -1.70036 -1.61632 0
M  V30 817 C 84.6996 -0.583102 -1.63939 0
M  V30 818 O 85.8756 -0.859169 -1.82154 0
M  V30 819 C 82.9406 -1.77277 -2.97949 0
M  V30 820 C 82.0016 -3.00918 -3.06181 0
M  V30 821 C 81.2346 -3.07804 -4.35996 0
M  V30 822 O 81.4576 -2.21982 -5.25433 0
M  V30 823 O 80.3916 -4.00369 -4.49431 0
M  V30 824 H 84.2176 -2.65486 -1.47482 0
M  V30 825 H 81.8026 -1.33666 -0.667362 0
M  V30 826 H 83.6846 -1.84329 -3.78947 0
M  V30 827 H 82.3596 -0.850076 -3.12339 0
M  V30 828 H 81.2666 -2.99377 -2.2433 0
M  V30 829 H 82.5996 -3.92704 -2.96723 0
M  V30 830 N 84.2517 0.741722 -1.39055 0
M  V30 831 C 85.1987 1.85566 -1.37237 0
M  V30 832 C 86.1687 1.64457 -0.233072 0
M  V30 833 O 87.3537 1.85957 -0.427147 0
M  V30 834 C 84.4937 3.23004 -1.215 0
M  V30 835 C 83.6067 3.55864 -2.44918 0
M  V30 836 C 82.7417 4.82669 -2.21821 0
M  V30 837 C 81.7807 5.08351 -3.40948 0
M  V30 838 N 80.9177 6.26356 -3.17211 0
M  V30 839 H 85.7577 1.86455 -2.32462 0
M  V30 840 H 83.2947 0.911176 -1.15482 0
M  V30 841 H 85.2527 4.02331 -1.10389 0
M  V30 842 H 83.8827 3.21411 -0.29908 0
M  V30 843 H 82.9347 2.7129 -2.66657 0
M  V30 844 H 84.2467 3.70765 -3.33668 0
M  V30 845 H 83.4007 5.69962 -2.07914 0
M  V30 846 H 82.1397 4.69929 -1.30454 0
M  V30 847 H 81.1447 4.19522 -3.55361 0
M  V30 848 H 82.3697 5.22981 -4.33207 0
M  V30 849 H 80.3157 6.14917 -2.28502 0
M  V30 850 H 80.2327 6.41813 -3.99515 0
M  V30 851 H 81.5007 7.16506 -3.06984 0
M  V30 852 N 85.7298 1.2412 0.971189 0
M  V30 853 C 86.9598 1.10415 1.7462 0
M  V30 854 C 87.3678 -0.346462 1.86001 0
M  V30 855 O 86.7108 -1.25104 1.34517 0
M  V30 856 C 86.7728 1.66596 3.18568 0
M  V30 857 C 86.4368 3.15446 3.3067 0
M  V30 858 C 87.4338 4.12636 3.16271 0
M  V30 859 C 85.1188 3.55337 3.55022 0
M  V30 860 C 87.1128 5.47699 3.26044 0
M  V30 861 C 84.7998 4.90542 3.64434 0
M  V30 862 C 85.7978 5.86532 3.49956 0
M  V30 863 O 85.4858 7.19279 3.59017 0
M  V30 864 H 85.2178 0.386616 0.55453 0
M  V30 865 H 87.7718 1.64633 1.22821 0
M  V30 866 H 86.0018 1.06808 3.71657 0
M  V30 867 H 87.6908 1.48232 3.77865 0
M  V30 868 H 88.4568 3.8316 2.97344 0
M  V30 869 H 84.3358 2.8113 3.65359 0
M  V30 870 H 87.8798 6.22603 3.14661 0
M  V30 871 H 83.7768 5.19691 3.82873 0
M  V30 872 H 84.5448 7.27153 3.75754 0
M  V30 873 N 87.2079 -1.17134 1.05439 0
M  V30 874 C 88.4379 -1.91094 0.785274 0
M  V30 875 C 88.8459 -1.77198 -0.663142 0
M  V30 876 O 88.1889 -1.10835 -1.46497 0
M  V30 877 C 88.2509 -3.42594 1.08949 0
M  V30 878 C 87.9149 -3.80274 2.53458 0
M  V30 879 C 88.9119 -3.82912 3.51673 0
M  V30 880 C 86.5969 -4.11162 2.88532 0
M  V30 881 C 88.5909 -4.15913 4.83006 0
M  V30 882 C 86.2779 -4.43831 4.20068 0
M  V30 883 C 87.2759 -4.46185 5.17115 0
M  V30 884 O 86.9639 -4.78083 6.46291 0
M  V30 885 H 86.6959 -0.613073 0.284811 0
M  V30 886 H 89.2499 -1.49461 1.40893 0
M  V30 887 H 87.4799 -3.84534 0.408741 0
M  V30 888 H 89.1689 -3.97817 0.805991 0
M  V30 889 H 89.9349 -3.5917 3.25917 0
M  V30 890 H 85.8139 -4.085 2.13656 0
M  V30 891 H 89.3579 -4.17665 5.5875 0
M  V30 892 H 85.2549 -4.67037 4.45586 0
M  V30 893 H 86.0229 -4.9593 6.51149 0
M  V30 894 N 88.686 -0.835752 -1.33615 0
M  V30 895 C 89.932 -0.430596 -1.98176 0
M  V30 896 C 90.265 1.00684 -1.66061 0
M  V30 897 O 89.54 1.70339 -0.938877 0
M  V30 898 C 89.823 -0.648065 -3.5422 0
M  V30 899 C 89.676 -2.13255 -3.96033 0
M  V30 900 C 90.995 -0.0922113 -4.40003 0
M  V30 901 H 88.114 -0.157924 -0.719881 0
M  V30 902 H 90.756 -1.05069 -1.58305 0
M  V30 903 H 88.906 -0.120237 -3.88314 0
M  V30 904 H 90.578 -2.725 -3.72211 0
M  V30 905 H 88.821 -2.61823 -3.45878 0
M  V30 906 H 89.492 -2.23547 -5.04708 0
M  V30 907 H 91.968 -0.543343 -4.12537 0
M  V30 908 H 90.844 -0.274083 -5.48215 0
M  V30 909 H 91.105 1.00378 -4.30554 0
M  V30 910 N 90.1641 1.46063 -0.591896 0
M  V30 911 C 91.4121 2.01938 -0.0808391 0
M  V30 912 C 91.7331 1.46475 1.28725 0
M  V30 913 O 91.0031 0.652944 1.84698 0
M  V30 914 H 89.5831 0.746516 -0.0268938 0
M  V30 915 H 92.2451 1.79055 -0.769752 0
M  V30 916 H 91.3411 3.12094 -0.0187578 0
M  V30 917 N 91.6422 0.330177 1.54103 0
M  V30 918 C 92.8672 -0.274893 2.0557 0
M  V30 919 C 93.2922 -1.44487 1.20437 0
M  V30 920 O 92.6502 -1.80021 0.214991 0
M  V30 921 C 92.6982 -0.68079 3.54115 0
M  V30 922 O 91.8022 -1.7824 3.71893 0
M  V30 923 H 91.1432 -0.0483849 0.662235 0
M  V30 924 H 93.6732 0.480508 1.98878 0
M  V30 925 H 93.6832 -0.961635 3.96505 0
M  V30 926 H 92.3582 0.174903 4.15532 0
M  V30 927 H 90.9352 -1.49985 3.41407 0
M  V30 928 N 93.1203 -1.57491 0.0584922 0
M  V30 929 C 94.3663 -1.93264 -0.614558 0
M  V30 930 C 94.6993 -0.937717 -1.7006 0
M  V30 931 O 93.9743 0.0351652 -1.94468 0
M  V30 932 C 94.2573 -3.3938 -1.20386 0
M  V30 933 C 94.1103 -4.49625 -0.125375 0
M  V30 934 C 95.4293 -3.86039 -2.11334 0
M  V30 935 H 92.5483 -0.702791 -0.221933 0
M  V30 936 H 95.1903 -1.8961 0.12175 0
M  V30 937 H 93.3403 -3.42626 -1.83139 0
M  V30 938 H 95.0123 -4.58506 0.506971 0
M  V30 939 H 93.2553 -4.30354 0.545672 0
M  V30 940 H 93.9263 -5.48967 -0.577861 0
M  V30 941 H 96.4023 -3.84716 -1.58534 0
M  V30 942 H 95.2783 -4.88914 -2.49507 0
M  V30 943 H 95.5393 -3.23215 -3.01636 0
M  V30 944 N 94.5984 0.214957 -1.56127 0
M  V30 945 C 95.5454 1.26642 -1.92952 0
M  V30 946 C 96.5154 1.46244 -0.78753 0
M  V30 947 O 97.7004 1.59704 -1.04399 0
M  V30 948 C 94.8404 2.6104 -2.25726 0
M  V30 949 C 93.9534 2.49183 -3.52891 0
M  V30 950 C 93.0884 3.76149 -3.7508 0
M  V30 951 C 92.1274 3.59041 -4.95738 0
M  V30 952 N 91.2644 4.77972 -5.14283 0
M  V30 953 H 96.1044 0.945384 -2.82607 0
M  V30 954 H 93.6414 0.455489 -1.3987 0
M  V30 955 H 95.5994 3.39313 -2.42739 0
M  V30 956 H 94.2294 2.91227 -1.39236 0
M  V30 957 H 93.2814 1.6231 -3.44034 0
M  V30 958 H 94.5934 2.32466 -4.41318 0
M  V30 959 H 93.7474 4.62865 -3.92226 0
M  V30 960 H 92.4864 3.95799 -2.84947 0
M  V30 961 H 91.4914 2.7071 -4.78535 0
M  V30 962 H 92.7164 3.40856 -5.87362 0
M  V30 963 H 90.6624 4.97923 -4.27093 0
M  V30 964 H 90.5794 4.64006 -5.96853 0
M  V30 965 H 91.8474 5.66096 -5.35869 0
M  V30 966 N 96.0765 1.50051 0.48192 0
M  V30 967 C 97.3245 1.60181 1.23234 0
M  V30 968 C 97.6455 0.299176 1.92691 0
M  V30 969 O 96.9155 -0.682708 1.83619 0
M  V30 970 H 95.4955 0.590232 0.457859 0
M  V30 971 H 98.1575 1.86775 0.556881 0
M  V30 972 H 97.2535 2.40753 1.98607 0
M  V30 973 N 97.5546 -0.734337 1.39446 0
M  V30 974 C 98.9706 -1.03997 1.21065 0
M  V30 975 C 99.1706 -2.01369 0.0727019 0
M  V30 976 O 98.2266 -2.45856 -0.575426 0
M  V30 977 C 99.5396 -1.60163 2.54496 0
M  V30 978 C 101.088 -1.7224 2.61347 0
M  V30 979 C 101.563 -2.31814 3.95002 0
M  V30 980 N 103.054 -2.39223 3.96644 0
M  V30 981 C 103.789 -2.86258 4.96834 0
M  V30 982 N 103.285 -3.33184 6.07421 0
M  V30 983 N 105.078 -2.85473 4.84213 0
M  V30 984 H 97.2286 -0.0885624 2.12215 0
M  V30 985 H 99.4916 -0.10191 0.942506 0
M  V30 986 H 99.1976 -0.960811 3.38321 0
M  V30 987 H 99.0716 -2.5896 2.74262 0
M  V30 988 H 101.459 -2.35443 1.77906 0
M  V30 989 H 101.54 -0.720939 2.4543 0
M  V30 990 H 101.184 -1.69238 4.78875 0
M  V30 991 H 101.114 -3.32638 4.08239 0
M  V30 992 H 103.605 -2.06057 3.16779 0
M  V30 993 H 103.918 -3.67586 6.7978 0
M  V30 994 H 102.263 -3.31191 6.11013 0
M  V30 995 H 105.454 -2.48136 3.96921 0
M  V30 996 H 105.627 -3.21814 5.62441 0
M  V30 997 N 99.0327 -1.24633 -0.964593 0
M  V30 998 C 100.28 -1.08788 -1.70796 0
M  V30 999 C 100.608 0.372783 -1.90894 0
M  V30 1000 O 99.8627 1.29167 -1.47018 0
M  V30 1001 C 100.162 -1.7763 -3.10133 0
M  V30 1002 C 99.8277 -3.27557 -3.09866 0
M  V30 1003 C 98.4897 -3.6846 -3.09501 0
M  V30 1004 C 100.842 -4.23389 -3.03959 0
M  V30 1005 C 98.1697 -5.03624 -3.00965 0
M  V30 1006 C 100.522 -5.58565 -2.96965 0
M  V30 1007 C 99.1857 -5.98809 -2.9493 0
M  V30 1008 H 98.4557 -0.398084 -0.624988 0
M  V30 1009 H 101.103 -1.54777 -1.12767 0
M  V30 1010 H 99.4077 -1.24044 -3.71645 0
M  V30 1011 H 101.105 -1.62832 -3.66451 0
M  V30 1012 H 97.6947 -2.95006 -3.10917 0
M  V30 1013 H 101.879 -3.92787 -3.03368 0
M  V30 1014 H 97.1347 -5.33998 -2.97752 0
M  V30 1015 H 101.309 -6.32523 -2.91354 0
M  V30 1016 H 98.9357 -7.03505 -2.88071 0
M  V30 1017 N 100.511 1.16574 -1.06058 0
M  V30 1018 C 101.739 1.90952 -0.796552 0
M  V30 1019 C 102.154 1.77302 0.648808 0
M  V30 1020 O 101.511 1.11605 1.44397 0
M  V30 1021 C 101.562 3.41736 -1.17894 0
M  V30 1022 O 101.283 3.54975 -2.56758 0
M  V30 1023 C 102.784 4.33169 -0.942308 0
M  V30 1024 H 100.004 0.605594 -0.288959 0
M  V30 1025 H 102.548 1.47777 -1.41358 0
M  V30 1026 H 100.703 3.82623 -0.606491 0
M  V30 1027 H 101.117 4.4846 -2.72 0
M  V30 1028 H 102.591 5.37439 -1.25952 0
M  V30 1029 H 103.068 4.3903 0.122078 0
M  V30 1030 H 103.674 3.98007 -1.49902 0
M  V30 1031 N 101.989 0.842826 1.3317 0
M  V30 1032 C 103.238 0.436738 1.96915 0
M  V30 1033 C 103.551 -1.01025 1.67491 0
M  V30 1034 O 104.757 -1.5212 2.24881 0
M  V30 1035 C 103.213 0.730021 3.52418 0
M  V30 1036 C 102.821 2.19195 3.90714 0
M  V30 1037 C 104.565 0.391076 4.22695 0
M  V30 1038 C 102.472 2.42907 5.39212 0
M  V30 1039 H 101.402 0.15958 0.736919 0
M  V30 1040 H 104.053 1.03196 1.51733 0
M  V30 1041 H 102.435 0.0643755 3.95948 0
M  V30 1042 H 103.609 2.8984 3.58231 0
M  V30 1043 H 101.924 2.49425 3.33431 0
M  V30 1044 H 104.521 0.545817 5.31907 0
M  V30 1045 H 104.864 -0.666294 4.10933 0
M  V30 1046 H 105.397 1.01212 3.84709 0
M  V30 1047 H 102.136 3.47224 5.55982 0
M  V30 1048 H 101.656 1.76827 5.73142 0
M  V30 1049 H 103.335 2.2626 6.06148 0
M  V30 1050 N 103.467 -1.45747 0.599634 0
M  V30 1051 C 104.692 -2.07178 0.0960198 0
M  V30 1052 C 105.117 -1.44268 -1.207 0
M  V30 1053 O 104.475 -0.532503 -1.73303 0
M  V30 1054 C 104.523 -3.60579 -0.0385348 0
M  V30 1055 O 103.627 -3.97713 -1.0908 0
M  V30 1056 H 102.968 -0.660251 0.0704593 0
M  V30 1057 H 105.498 -1.87124 0.827385 0
M  V30 1058 H 105.508 -4.07298 -0.239304 0
M  V30 1059 H 104.183 -4.05756 0.912947 0
M  V30 1060 H 102.76 -3.62678 -0.867135 0
M  V30 1061 N 104.945 -0.338344 -1.53925 0
M  V30 1062 C 106.361 0.0137736 -1.59594 0
M  V30 1063 C 106.561 1.49186 -1.35447 0
M  V30 1064 O 105.617 2.24987 -1.14616 0
M  V30 1065 C 106.93 -0.41773 -2.97784 0
M  V30 1066 C 108.478 -0.369633 -3.1081 0
M  V30 1067 C 108.953 -0.776524 -4.51369 0
M  V30 1068 N 110.444 -0.730506 -4.57403 0
M  V30 1069 C 111.179 -1.01736 -5.64303 0
M  V30 1070 N 110.675 -1.3721 -6.79077 0
M  V30 1071 N 112.468 -0.941942 -5.54151 0
M  V30 1072 H 104.619 -1.3012 -1.67876 0
M  V30 1073 H 106.882 -0.530082 -0.78595 0
M  V30 1074 H 106.588 -1.44811 -3.20504 0
M  V30 1075 H 106.462 0.209729 -3.76616 0
M  V30 1076 H 108.849 0.651568 -2.87817 0
M  V30 1077 H 108.93 -1.03223 -2.34049 0
M  V30 1078 H 108.574 -1.79571 -4.75096 0
M  V30 1079 H 108.504 -0.0914649 -5.26521 0
M  V30 1080 H 110.995 -0.468783 -3.74981 0
M  V30 1081 H 111.308 -1.57597 -7.5656 0
M  V30 1082 H 109.653 -1.4105 -6.80536 0
M  V30 1083 H 112.844 -0.664184 -4.63364 0
M  V30 1084 H 113.017 -1.16884 -6.37371 0
M  V30 1085 N 106.423 1.57458 -0.0668435 0
M  V30 1086 C 107.7 1.8469 0.644132 0
M  V30 1087 C 108.08 0.958343 1.88093 0
M  V30 1088 O 107.428 0.0233579 2.28488 0
M  V30 1089 C 107.638 3.34767 0.986509 0
M  V30 1090 C 108.986 4.02159 1.36212 0
M  V30 1091 O 110.01 3.39484 1.07839 0
M  V30 1092 O 108.869 5.12694 1.89227 0
M  V30 1093 H 105.963 0.762816 0.319437 0
M  V30 1094 H 108.509 1.6942 -0.0973986 0
M  V30 1095 H 107.281 3.91151 0.107883 0
M  V30 1096 H 106.904 3.55281 1.78497 0
M  V30 1097 N 107.901 -0.206675 1.56239 0
M  V30 1098 C 108.849 -1.27571 1.94495 0
M  V30 1099 C 109.843 -1.47737 0.828862 0
M  V30 1100 O 111.049 -1.48735 1.0138 0
M  V30 1101 H 107.424 -0.428029 0.6183 0
M  V30 1102 H 109.395 -0.925961 2.8367 0
M  V30 1103 C 108.144 -2.61568 2.29079 0
M  V30 1104 H 107.467 -2.46863 3.14482 0
M  V30 1105 H 108.907 -3.35144 2.5972 0
M  V30 1106 C 107.366 -3.17695 1.12123 0
M  V30 1107 O 107.896 -3.99801 0.390153 0
M  V30 1108 N 106.102 -2.76276 0.901097 0
M  V30 1109 H 105.649 -2.09613 1.49733 0
M  V30 1110 H 105.607 -3.1417 0.120319 0
M  V30 1111 N 109.379 -1.50304 -0.473955 0
M  V30 1112 C 110.342 -1.6841 -1.55469 0
M  V30 1113 C 111.342 -0.554905 -1.50922 0
M  V30 1114 O 112.532 -0.821882 -1.53593 0
M  V30 1115 C 109.664 -1.70667 -2.95102 0
M  V30 1116 H 110.857 -2.64828 -1.40733 0
M  V30 1117 H 108.41 -1.39742 -0.700132 0
M  V30 1118 H 109.145 -0.75932 -3.15285 0
M  V30 1119 H 108.93 -2.52698 -2.9981 0
M  V30 1120 H 110.42 -1.8664 -3.73571 0
M  V30 1121 N 110.857 0.726932 -1.39834 0
M  V30 1122 C 111.804 1.841 -1.39197 0
M  V30 1123 C 112.774 1.642 -0.250502 0
M  V30 1124 O 113.959 1.85494 -0.446846 0
M  V30 1125 C 111.099 3.21697 -1.24919 0
M  V30 1126 C 110.212 3.53247 -2.48678 0
M  V30 1127 C 109.347 4.80289 -2.26928 0
M  V30 1128 C 108.386 5.04707 -3.4632 0
M  V30 1129 N 107.523 6.22956 -3.23836 0
M  V30 1130 H 112.363 1.83979 -2.34427 0
M  V30 1131 H 109.9 0.898876 -1.16442 0
M  V30 1132 H 111.858 4.01137 -1.1465 0
M  V30 1133 H 110.488 3.21076 -0.333153 0
M  V30 1134 H 109.54 2.68447 -2.69519 0
M  V30 1135 H 110.852 3.67205 -3.37582 0
M  V30 1136 H 110.006 5.67725 -2.13947 0
M  V30 1137 H 108.745 4.68519 -1.35431 0
M  V30 1138 H 107.75 4.1573 -3.5979 0
M  V30 1139 H 108.975 5.18357 -4.38729 0
M  V30 1140 H 106.921 6.12459 -2.35011 0
M  V30 1141 H 106.838 6.37539 -4.063 0
M  V30 1142 H 108.106 7.1321 -3.14566 0
M  V30 1143 N 112.336 1.25143 0.95797 0
M  V30 1144 C 113.284 1.05019 2.07542 0
M  V30 1145 C 114.278 -0.0178751 1.69391 0
M  V30 1146 O 115.484 0.137472 1.79474 0
M  V30 1147 H 111.859 0.32265 0.679265 0
M  V30 1148 H 113.83 1.99759 2.21673 0
M  V30 1149 C 112.579 0.682074 3.40944 0
M  V30 1150 H 111.902 1.49573 3.70767 0
M  V30 1151 H 113.342 0.580945 4.20001 0
M  V30 1152 C 111.801 -0.611608 3.31302 0
M  V30 1153 O 112.331 -1.65465 3.66038 0
M  V30 1154 N 110.537 -0.595982 2.84423 0
M  V30 1155 H 110.084 0.253192 2.56353 0
M  V30 1156 H 110.042 -1.46173 2.78354 0
M  V30 1157 N 113.814 -1.1601 1.06675 0
M  V30 1158 C 115.039 -1.91068 0.806706 0
M  V30 1159 C 115.464 -1.77112 -0.633485 0
M  V30 1160 O 114.822 -1.09908 -1.44187 0
M  V30 1161 C 114.87 -3.39655 1.21106 0
M  V30 1162 O 113.974 -4.10893 0.352189 0
M  V30 1163 H 113.315 -0.595125 0.294486 0
M  V30 1164 H 115.845 -1.46955 1.42356 0
M  V30 1165 H 115.855 -3.90434 1.18428 0
M  V30 1166 H 114.53 -3.49132 2.26008 0
M  V30 1167 H 113.107 -3.70285 0.440868 0
M  V30 1168 N 115.292 -0.849877 -1.32721 0
M  V30 1169 C 116.222 -0.306308 -2.31482 0
M  V30 1170 C 117.203 0.591952 -1.59468 0
M  V30 1171 O 118.388 0.513199 -1.87296 0
M  V30 1172 C 115.518 0.510204 -3.43532 0
M  V30 1173 C 114.472 -0.293209 -4.26994 0
M  V30 1174 C 113.798 0.647743 -5.30762 0
M  V30 1175 C 115.098 -1.51634 -4.99804 0
M  V30 1176 H 116.792 -1.13153 -2.77195 0
M  V30 1177 H 114.338 -0.545553 -1.33266 0
M  V30 1178 H 116.291 0.900856 -4.11658 0
M  V30 1179 H 115.015 1.36874 -2.96535 0
M  V30 1180 H 113.674 -0.665555 -3.60508 0
M  V30 1181 H 113.322 1.50299 -4.8002 0
M  V30 1182 H 113.022 0.11422 -5.87489 0
M  V30 1183 H 114.546 1.03567 -6.01753 0
M  V30 1184 H 115.96 -1.19824 -5.60638 0
M  V30 1185 H 114.357 -1.98745 -5.66234 0
M  V30 1186 H 115.427 -2.28018 -4.27943 0
M  V30 1187 N 116.77 1.45427 -0.607355 0
M  V30 1188 C 118 2.06314 -0.108656 0
M  V30 1189 C 118.408 1.45269 1.21217 0
M  V30 1190 O 117.751 0.561115 1.74921 0
M  V30 1191 C 117.813 3.59345 0.105618 0
M  V30 1192 C 117.477 4.42723 -1.13337 0
M  V30 1193 C 118.474 4.77715 -2.05145 0
M  V30 1194 C 116.159 4.83478 -1.36213 0
M  V30 1195 C 118.153 5.52317 -3.18158 0
M  V30 1196 C 115.84 5.57835 -2.49527 0
M  V30 1197 C 116.838 5.92171 -3.40327 0
M  V30 1198 O 116.526 6.65019 -4.51669 0
M  V30 1199 H 116.258 0.672782 -0.0658842 0
M  V30 1200 H 118.812 1.87664 -0.834945 0
M  V30 1201 H 117.042 3.76394 0.886796 0
M  V30 1202 H 118.731 4.02076 0.555886 0
M  V30 1203 H 119.497 4.46787 -1.88697 0
M  V30 1204 H 115.376 4.56188 -0.664362 0
M  V30 1205 H 118.92 5.79036 -3.89054 0
M  V30 1206 H 114.817 5.88177 -2.65928 0
M  V30 1207 H 115.585 6.83469 -4.50348 0
M  V30 1208 N 118.248 0.346503 1.53744 0
M  V30 1209 C 119.178 -0.501193 2.28058 0
M  V30 1210 C 120.159 -1.10014 1.29734 0
M  V30 1211 O 121.344 -1.12097 1.58581 0
M  V30 1212 C 118.474 -1.65078 3.05559 0
M  V30 1213 C 117.428 -1.18003 4.11411 0
M  V30 1214 C 116.754 -2.41837 4.76884 0
M  V30 1215 C 118.054 -0.278394 5.21558 0
M  V30 1216 H 119.748 0.11875 2.99164 0
M  V30 1217 H 117.294 0.0585531 1.43881 0
M  V30 1218 H 119.247 -2.25028 3.56287 0
M  V30 1219 H 117.971 -2.29767 2.32109 0
M  V30 1220 H 116.63 -0.603331 3.61601 0
M  V30 1221 H 116.278 -3.0494 4.00026 0
M  V30 1222 H 115.978 -2.1102 5.48402 0
M  V30 1223 H 117.502 -3.02508 5.30397 0
M  V30 1224 H 118.916 -0.784823 5.67903 0
M  V30 1225 H 117.313 -0.0619707 6.00068 0
M  V30 1226 H 118.383 0.684677 4.80042 0
M  V30 1227 N 119.726 -1.57421 0.075193 0
M  V30 1228 C 120.658 -2.09904 -0.920483 0
M  V30 1229 C 121.671 -1.03191 -1.25918 0
M  V30 1230 O 122.86 -1.30695 -1.21577 0
M  V30 1231 C 119.96 -2.54726 -2.23534 0
M  V30 1232 C 119.133 -3.8505 -2.07498 0
M  V30 1233 C 118.192 -4.15929 -3.22319 0
M  V30 1234 O 117.218 -4.85474 -2.9716 0
M  V30 1235 N 118.42 -3.69745 -4.47514 0
M  V30 1236 H 121.185 -2.95954 -0.472359 0
M  V30 1237 H 118.746 -1.61523 -0.110444 0
M  V30 1238 H 120.738 -2.72443 -2.9926 0
M  V30 1239 H 119.308 -1.73795 -2.59835 0
M  V30 1240 H 118.528 -3.76679 -1.16219 0
M  V30 1241 H 119.816 -4.70348 -1.94038 0
M  V30 1242 H 119.214 -3.13569 -4.7084 0
M  V30 1243 H 117.771 -3.92655 -5.20255 0
M  V30 1244 N 121.204 0.198386 -1.56346 0
M  V30 1245 C 122.137 1.27381 -1.89339 0
M  V30 1246 C 123.115 1.44106 -0.753134 0
M  V30 1247 O 124.299 1.59549 -1.00381 0
M  V30 1248 C 121.426 2.6409 -2.12071 0
M  V30 1249 C 120.472 2.64253 -3.34772 0
M  V30 1250 S 121.305 2.16013 -4.89999 0
M  V30 1251 C 122.461 3.54553 -5.15794 0
M  V30 1252 H 122.694 0.992058 -2.8026 0
M  V30 1253 H 120.227 0.401726 -1.49082 0
M  V30 1254 H 122.185 3.42786 -2.2585 0
M  V30 1255 H 120.846 2.89478 -1.21906 0
M  V30 1256 H 120.039 3.64768 -3.47794 0
M  V30 1257 H 119.641 1.93637 -3.1997 0
M  V30 1258 H 121.933 4.50396 -5.06112 0
M  V30 1259 H 122.876 3.46428 -6.1757 0
M  V30 1260 H 123.284 3.49313 -4.43442 0
M  V30 1261 N 122.682 1.50554 0.465978 0
M  V30 1262 C 123.63 1.70324 1.58406 0
M  V30 1263 C 124.624 0.569139 1.59553 0
M  V30 1264 O 125.83 0.749776 1.63641 0
M  V30 1265 H 122.205 0.537688 0.525734 0
M  V30 1266 H 124.176 2.64104 1.38894 0
M  V30 1267 C 122.925 1.81928 2.96307 0
M  V30 1268 H 122.248 2.68586 2.96144 0
M  V30 1269 H 123.688 1.99784 3.73982 0
M  V30 1270 C 122.147 0.572095 3.32007 0
M  V30 1271 O 122.677 -0.286416 4.00678 0
M  V30 1272 N 120.883 0.424606 2.87481 0
M  V30 1273 H 120.43 1.12427 2.31771 0
M  V30 1274 H 120.388 -0.408697 3.11732 0
M  V30 1275 N 124.16 -0.719506 1.40217 0
M  V30 1276 C 125.385 -1.51371 1.4178 0
M  V30 1277 C 125.81 -1.88091 0.0182355 0
M  V30 1278 O 125.168 -1.52997 -0.972707 0
M  V30 1279 C 125.216 -2.768 2.31115 0
M  V30 1280 O 124.32 -3.73349 1.7517 0
M  V30 1281 H 123.661 -0.456529 0.482159 0
M  V30 1282 H 126.191 -0.88644 1.844 0
M  V30 1283 H 126.201 -3.25371 2.46167 0
M  V30 1284 H 124.876 -2.49407 3.3282 0
M  V30 1285 H 123.453 -3.32179 1.69444 0
M  V30 1286 N 125.638 -1.25649 -0.95132 0
M  V30 1287 C 126.568 -1.08808 -2.06599 0
M  V30 1288 C 127.549 0.00382547 -1.701 0
M  V30 1289 O 128.734 -0.166325 -1.93486 0
M  V30 1290 C 125.864 -0.709542 -3.39975 0
M  V30 1291 C 124.818 -1.75206 -3.90496 0
M  V30 1292 C 124.144 -1.22811 -5.20405 0
M  V30 1293 C 125.444 -3.15153 -4.16504 0
M  V30 1294 H 127.138 -2.02048 -2.20946 0
M  V30 1295 H 124.684 -0.972835 -1.06169 0
M  V30 1296 H 126.637 -0.578649 -4.17408 0
M  V30 1297 H 125.361 0.258556 -3.25575 0
M  V30 1298 H 124.02 -1.87145 -3.15234 0
M  V30 1299 H 123.668 -0.250145 -5.02378 0
M  V30 1300 H 123.368 -1.92492 -5.55176 0
M  V30 1301 H 124.892 -1.10968 -6.00432 0
M  V30 1302 H 126.306 -3.06349 -4.84586 0
M  V30 1303 H 124.703 -3.82333 -4.62538 0
M  V30 1304 H 125.773 -3.61966 -3.22658 0
M  V30 1305 N 127.117 1.15442 -1.07289 0
M  V30 1306 C 128.533 1.38201 -0.798288 0
M  V30 1307 C 128.733 1.92429 0.597769 0
M  V30 1308 O 127.789 2.12962 1.3566 0
M  V30 1309 C 129.102 2.35357 -1.87156 0
M  V30 1310 C 130.65 2.49021 -1.89624 0
M  V30 1311 C 131.125 3.49468 -2.96034 0
M  V30 1312 N 132.616 3.57003 -2.95132 0
M  V30 1313 C 133.351 4.34543 -3.74112 0
M  V30 1314 N 132.847 5.15421 -4.6294 0
M  V30 1315 N 134.64 4.29625 -3.62462 0
M  V30 1316 H 126.791 0.78584 -1.97328 0
M  V30 1317 H 129.054 0.408065 -0.855679 0
M  V30 1318 H 128.76 2.02626 -2.87464 0
M  V30 1319 H 128.634 3.35129 -1.73114 0
M  V30 1320 H 131.021 2.81051 -0.899687 0
M  V30 1321 H 131.102 1.4925 -2.07745 0
M  V30 1322 H 130.746 3.18173 -3.95889 0
M  V30 1323 H 130.676 4.48992 -2.75161 0
M  V30 1324 H 133.167 2.99276 -2.30743 0
M  V30 1325 H 133.48 5.7183 -5.19837 0
M  V30 1326 H 131.825 5.14729 -4.66989 0
M  V30 1327 H 135.016 3.65505 -2.92444 0
M  V30 1328 H 135.189 4.89807 -4.24256 0
M  V30 1329 N 128.595 0.856903 1.32268 0
M  V30 1330 C 129.841 0.462069 1.97466 0
M  V30 1331 C 130.174 -0.980298 1.67642 0
M  V30 1332 O 129.449 -1.68824 0.965858 0
M  V30 1333 C 129.732 0.704336 3.53145 0
M  V30 1334 C 129.585 2.19529 3.9259 0
M  V30 1335 C 130.904 0.1622 4.39801 0
M  V30 1336 H 128.023 0.169357 0.717278 0
M  V30 1337 H 130.665 1.07574 1.56614 0
M  V30 1338 H 128.815 0.181999 3.88073 0
M  V30 1339 H 130.487 2.78387 3.67829 0
M  V30 1340 H 128.73 2.67292 3.41668 0
M  V30 1341 H 129.401 2.31549 5.01088 0
M  V30 1342 H 131.877 0.608905 4.11621 0
M  V30 1343 H 130.753 0.361265 5.4771 0
M  V30 1344 H 131.014 -0.935158 4.32096 0
M  V30 1345 N 130.073 -1.45103 0.615059 0
M  V30 1346 C 130.983 -2.34382 -0.101034 0
M  V30 1347 C 131.999 -1.51681 -0.852585 0
M  V30 1348 O 133.175 -1.8446 -0.808484 0
M  V30 1349 C 130.24 -3.29417 -1.08099 0
M  V30 1350 C 129.301 -4.28025 -0.330577 0
M  V30 1351 C 128.534 -5.1852 -1.26385 0
M  V30 1352 O 128.757 -5.12598 -2.50198 0
M  V30 1353 O 127.691 -5.97122 -0.756866 0
M  V30 1354 H 131.517 -2.97033 0.632855 0
M  V30 1355 H 129.102 -1.4461 0.375293 0
M  V30 1356 H 130.984 -3.87958 -1.6452 0
M  V30 1357 H 129.659 -2.69321 -1.79577 0
M  V30 1358 H 128.566 -3.73078 0.276283 0
M  V30 1359 H 129.899 -4.90997 0.343866 0
M  V30 1360 N 131.551 -0.354651 -1.53558 0
M  V30 1361 C 132.828 0.294281 -1.93374 0
M  V30 1362 C 133.208 1.67313 -1.28723 0
M  V30 1363 O 132.556 2.24179 -0.442247 0
M  V30 1364 C 132.766 0.355445 -3.47185 0
M  V30 1365 C 134.114 0.601007 -4.20325 0
M  V30 1366 O 135.138 0.437106 -3.53508 0
M  V30 1367 O 133.997 0.919322 -5.38712 0
M  V30 1368 H 131.091 0.174033 -0.808481 0
M  V30 1369 H 133.637 -0.406638 -1.64756 0
M  V30 1370 H 132.409 -0.611729 -3.86489 0
M  V30 1371 H 132.032 1.1027 -3.82003 0
M  V30 1372 N 133.029 1.57378 -0.0835403 0
M  V30 1373 C 134.257 1.98263 0.59157 0
M  V30 1374 C 134.672 0.962302 1.62435 0
M  V30 1375 O 134.029 -0.049581 1.82433 0
M  V30 1376 C 134.08 3.39214 1.24965 0
M  V30 1377 O 133.801 4.37339 0.258186 0
M  V30 1378 C 135.302 3.95038 2.01147 0
M  V30 1379 H 132.522 0.651773 0.159477 0
M  V30 1380 H 135.066 2.03878 -0.159415 0
M  V30 1381 H 133.221 3.34649 1.95164 0
M  V30 1382 H 133.635 5.19371 0.731734 0
M  V30 1383 H 135.109 4.95848 2.42567 0
M  V30 1384 H 135.586 3.32222 2.87272 0
M  V30 1385 H 136.192 4.0304 1.35789 0
M  V30 1386 N 134.507 -0.190092 1.56449 0
M  V30 1387 C 135.47 -1.21925 1.9408 0
M  V30 1388 C 136.47 -1.38176 0.822431 0
M  V30 1389 O 137.66 -1.35903 1.08977 0
M  V30 1390 C 134.792 -2.58773 2.21922 0
M  V30 1391 H 135.985 -0.897464 2.86157 0
M  V30 1392 H 133.538 -0.43181 1.50217 0
M  V30 1393 H 134.273 -2.95998 1.32499 0
M  V30 1394 H 134.058 -2.48348 3.03424 0
M  V30 1395 H 135.548 -3.32978 2.52022 0
M  V30 1396 N 135.985 -1.50799 -0.457987 0
M  V30 1397 C 137.231 -1.62683 -1.21088 0
M  V30 1398 C 137.564 -0.332268 -1.91336 0
M  V30 1399 O 136.839 0.667043 -1.82704 0
M  V30 1400 C 137.122 -2.81615 -2.24422 0
M  V30 1401 C 136.975 -4.20989 -1.58392 0
M  V30 1402 C 138.294 -2.96085 -3.2561 0
M  V30 1403 H 135.413 -0.592087 -0.438864 0
M  V30 1404 H 138.055 -1.83225 -0.50286 0
M  V30 1405 H 136.205 -2.64231 -2.84806 0
M  V30 1406 H 137.877 -4.49994 -1.01504 0
M  V30 1407 H 136.12 -4.24641 -0.886704 0
M  V30 1408 H 136.791 -5.0016 -2.33547 0
M  V30 1409 H 139.267 -3.12042 -2.75262 0
M  V30 1410 H 138.143 -3.80902 -3.95228 0
M  V30 1411 H 138.404 -2.0726 -3.90507 0
M  V30 1412 N 137.463 0.71206 -1.40597 0
M  V30 1413 C 138.693 1.49894 -1.42181 0
M  V30 1414 C 139.101 1.89189 -0.0208078 0
M  V30 1415 O 138.444 1.56223 0.966436 0
M  V30 1416 C 138.506 2.80215 -2.25211 0
M  V30 1417 C 138.17 2.63221 -3.73582 0
M  V30 1418 C 139.167 2.30249 -4.66135 0
M  V30 1419 C 136.852 2.79376 -4.17438 0
M  V30 1420 C 138.846 2.13645 -6.00529 0
M  V30 1421 C 136.533 2.6239 -5.51901 0
M  V30 1422 C 137.531 2.29573 -6.43262 0
M  V30 1423 O 137.219 2.12719 -7.75246 0
M  V30 1424 H 136.951 0.469031 -0.486812 0
M  V30 1425 H 139.505 0.88564 -1.85326 0
M  V30 1426 H 137.735 3.4389 -1.76852 0
M  V30 1427 H 139.424 3.41947 -2.18694 0
M  V30 1428 H 140.19 2.17398 -4.33547 0
M  V30 1429 H 136.069 3.03906 -3.46644 0
M  V30 1430 H 139.613 1.87953 -6.71803 0
M  V30 1431 H 135.51 2.74826 -5.84073 0
M  V30 1432 H 136.278 2.27611 -7.86216 0
M  V30 1433 N 138.941 1.26152 0.944643 0
M  V30 1434 C 140.171 1.14094 1.72239 0
M  V30 1435 C 140.579 -0.306931 1.86694 0
M  V30 1436 O 139.922 -1.22222 1.3714 0
M  V30 1437 C 139.984 1.73316 3.14963 0
M  V30 1438 C 139.648 3.2239 3.23904 0
M  V30 1439 C 140.645 4.19252 3.07447 0
M  V30 1440 C 138.33 3.62788 3.47405 0
M  V30 1441 C 140.324 5.54491 3.14353 0
M  V30 1442 C 138.011 4.98162 3.53947 0
M  V30 1443 C 139.009 5.93823 3.37436 0
M  V30 1444 O 138.697 7.26732 3.43679 0
M  V30 1445 H 138.429 0.398292 0.546205 0
M  V30 1446 H 140.983 1.67201 1.19301 0
M  V30 1447 H 139.213 1.14667 3.69308 0
M  V30 1448 H 140.902 1.56214 3.74636 0
M  V30 1449 H 141.668 3.8938 2.8915 0
M  V30 1450 H 137.547 2.88816 3.59313 0
M  V30 1451 H 141.091 6.29137 3.01384 0
M  V30 1452 H 136.988 5.27695 3.71763 0
M  V30 1453 H 137.756 7.3496 3.60245 0
M  V30 1454 N 140.419 -1.14872 1.07899 0
M  V30 1455 C 141.659 -1.8745 0.814965 0
M  V30 1456 C 142.023 -1.80758 -0.64733 0
M  V30 1457 O 143.224 -2.48422 -1.02664 0
M  V30 1458 C 141.495 -3.32286 1.31607 0
M  V30 1459 S 143.054 -4.22537 1.18357 0
M  V30 1460 H 139.872 -0.646833 0.295174 0
M  V30 1461 H 142.474 -1.38555 1.37923 0
M  V30 1462 H 141.178 -3.34703 2.37491 0
M  V30 1463 H 140.709 -3.86238 0.747261 0
M  V30 1464 H 142.724 -4.96044 0.124586 0
M  V30 1465 N 141.898 -0.863906 -1.31812 0
M  V30 1466 C 143.144 -0.472535 -1.97218 0
M  V30 1467 C 143.477 0.971394 -1.68159 0
M  V30 1468 O 142.752 1.68309 -0.974798 0
M  V30 1469 C 143.035 -0.723054 -3.52766 0
M  V30 1470 C 142.888 -2.21608 -3.91421 0
M  V30 1471 C 144.207 -0.185522 -4.39709 0
M  V30 1472 H 141.326 -0.173158 -0.71637 0
M  V30 1473 H 143.968 -1.08403 -1.56041 0
M  V30 1474 H 142.118 -0.202577 -3.87971 0
M  V30 1475 H 143.79 -2.80334 -3.66347 0
M  V30 1476 H 142.033 -2.691 -3.40246 0
M  V30 1477 H 142.704 -2.34203 -4.99853 0
M  V30 1478 H 145.18 -0.630726 -4.11292 0
M  V30 1479 H 144.056 -0.390306 -5.47511 0
M  V30 1480 H 144.317 0.912229 -4.32586 0
M  V30 1481 N 143.376 1.44774 -0.622745 0
M  V30 1482 C 144.792 1.56986 -0.287652 0
M  V30 1483 C 144.992 1.61167 1.20944 0
M  V30 1484 O 144.048 1.55015 1.99315 0
M  V30 1485 C 145.361 2.84551 -0.972188 0
M  V30 1486 C 146.909 2.9825 -0.949536 0
M  V30 1487 C 147.384 4.28605 -1.61437 0
M  V30 1488 N 148.875 4.35399 -1.58057 0
M  V30 1489 C 149.61 5.34964 -2.064 0
M  V30 1490 N 149.106 6.40981 -2.62897 0
M  V30 1491 N 150.899 5.26419 -1.97078 0
M  V30 1492 H 143.05 1.40304 -1.59463 0
M  V30 1493 H 145.313 0.671794 -0.668878 0
M  V30 1494 H 145.019 2.87417 -2.02693 0
M  V30 1495 H 144.893 3.73807 -0.504771 0
M  V30 1496 H 147.28 2.94941 0.0967067 0
M  V30 1497 H 147.361 2.10364 -1.45536 0
M  V30 1498 H 147.005 4.32672 -2.66002 0
M  V30 1499 H 146.935 5.15334 -1.08344 0
M  V30 1500 H 149.426 3.59397 -1.16801 0
M  V30 1501 H 149.739 7.13225 -2.97539 0
M  V30 1502 H 148.084 6.4169 -2.66943 0
M  V30 1503 H 151.275 4.42504 -1.52669 0
M  V30 1504 H 151.448 6.03861 -2.35066 0
M  V30 1505 N 144.854 0.36279 1.53368 0
M  V30 1506 C 146.131 -0.284021 1.93527 0
M  V30 1507 C 146.511 -1.66628 1.29608 0
M  V30 1508 O 145.859 -2.23942 0.45413 0
M  V30 1509 C 146.069 -0.337028 3.47369 0
M  V30 1510 C 147.417 -0.578708 4.20638 0
M  V30 1511 O 148.441 -0.418352 3.53735 0
M  V30 1512 O 147.3 -0.89074 5.39192 0
M  V30 1513 H 144.394 -0.169743 0.809393 0
M  V30 1514 H 146.94 0.41537 1.64538 0
M  V30 1515 H 145.712 0.632217 3.86159 0
M  V30 1516 H 145.335 -1.08243 3.82582 0
M  V30 1517 N 146.332 -1.57332 0.0918853 0
M  V30 1518 C 147.562 -1.98286 -0.580205 0
M  V30 1519 C 147.97 -0.969713 -1.6246 0
M  V30 1520 O 147.313 0.0493501 -1.83634 0
M  V30 1521 C 147.375 -3.35603 -1.28882 0
M  V30 1522 C 147.039 -4.55285 -0.395559 0
M  V30 1523 C 148.036 -5.18687 0.355002 0
M  V30 1524 C 145.721 -5.01314 -0.314556 0
M  V30 1525 C 147.715 -6.26484 1.17458 0
M  V30 1526 C 145.402 -6.08979 0.508677 0
M  V30 1527 C 146.4 -6.71429 1.2519 0
M  V30 1528 O 146.088 -7.77018 2.06151 0
M  V30 1529 H 145.82 -0.656678 -0.160466 0
M  V30 1530 H 148.374 -2.04721 0.16688 0
M  V30 1531 H 146.604 -3.25842 -2.08241 0
M  V30 1532 H 148.293 -3.61026 -1.85512 0
M  V30 1533 H 149.059 -4.84058 0.302134 0
M  V30 1534 H 144.938 -4.5247 -0.882697 0
M  V30 1535 H 148.482 -6.75159 1.75518 0
M  V30 1536 H 144.379 -6.4304 0.563037 0
M  V30 1537 H 145.147 -7.93991 1.98799 0
M  V30 1538 N 147.81 0.181792 -1.56548 0
M  V30 1539 C 149.04 0.914618 -1.85252 0
M  V30 1540 C 149.448 1.76791 -0.673914 0
M  V30 1541 O 148.791 1.80009 0.366416 0
M  V30 1542 C 148.853 1.85019 -3.08234 0
M  V30 1543 C 148.517 1.17754 -4.41569 0
M  V30 1544 C 149.514 0.548035 -5.17003 0
M  V30 1545 C 147.199 1.17742 -4.88305 0
M  V30 1546 C 149.193 -0.0726128 -6.37359 0
M  V30 1547 C 146.88 0.552946 -6.08593 0
M  V30 1548 C 147.878 -0.070978 -6.82963 0
M  V30 1549 O 147.566 -0.685635 -8.00971 0
M  V30 1550 H 147.298 0.271695 -0.618998 0
M  V30 1551 H 149.852 0.189944 -2.0452 0
M  V30 1552 H 148.082 2.61491 -2.84885 0
M  V30 1553 H 149.771 2.45195 -3.23472 0
M  V30 1554 H 150.537 0.540174 -4.81982 0
M  V30 1555 H 146.416 1.65246 -4.30366 0
M  V30 1556 H 149.96 -0.560213 -6.95347 0
M  V30 1557 H 145.857 0.558354 -6.43081 0
M  V30 1558 H 146.625 -0.58385 -8.16415 0
M  V30 1559 N 149.288 1.51039 0.449983 0
M  V30 1560 C 150.565 1.53612 1.21089 0
M  V30 1561 C 150.945 0.292997 2.09057 0
M  V30 1562 O 150.293 -0.72259 2.16774 0
M  V30 1563 C 150.503 2.84337 2.0237 0
M  V30 1564 C 151.851 3.35807 2.59843 0
M  V30 1565 O 152.875 2.85802 2.12593 0
M  V30 1566 O 151.734 4.23029 3.45989 0
M  V30 1567 H 148.828 0.617057 0.550608 0
M  V30 1568 H 151.374 1.63344 0.460082 0
M  V30 1569 H 150.146 3.66278 1.37681 0
M  V30 1570 H 149.769 2.77708 2.84542 0
M  V30 1571 N 150.766 -0.704594 1.40972 0
M  V30 1572 C 152.015 -1.46018 1.39146 0
M  V30 1573 C 152.328 -1.956 0.000589254 0
M  V30 1574 O 153.534 -2.71137 -0.1403 0
M  V30 1575 C 151.99 -2.63996 2.4461 0
M  V30 1576 C 151.598 -2.21238 3.89561 0
M  V30 1577 C 153.342 -3.41677 2.51907 0
M  V30 1578 C 151.249 -3.3612 4.86598 0
M  V30 1579 H 150.179 -0.548444 0.517422 0
M  V30 1580 H 152.83 -0.765784 1.66757 0
M  V30 1581 H 151.212 -3.3566 2.10115 0
M  V30 1582 H 152.386 -1.56923 4.33257 0
M  V30 1583 H 150.701 -1.56574 3.85841 0
M  V30 1584 H 153.298 -4.27182 3.2159 0
M  V30 1585 H 153.641 -3.86247 1.55303 0
M  V30 1586 H 154.174 -2.77064 2.85448 0
M  V30 1587 H 150.913 -2.96572 5.84573 0
M  V30 1588 H 150.433 -3.99315 4.47557 0
M  V30 1589 H 152.112 -4.02029 5.06934 0
M  V30 1590 N 152.244 -1.26651 -0.937939 0
M  V30 1591 C 153.174 -1.10993 -2.05433 0
M  V30 1592 C 154.155 -0.0142161 -1.70094 0
M  V30 1593 O 155.34 -0.186837 -1.93299 0
M  V30 1594 C 152.47 -0.745561 -3.39203 0
M  V30 1595 C 151.424 -1.79337 -3.88616 0
M  V30 1596 C 150.75 -1.28324 -5.19073 0
M  V30 1597 C 152.05 -3.19553 -4.13138 0
M  V30 1598 H 153.744 -2.0438 -2.1879 0
M  V30 1599 H 151.29 -0.984041 -1.05131 0
M  V30 1600 H 153.243 -0.622888 -4.16771 0
M  V30 1601 H 151.967 0.22401 -3.25831 0
M  V30 1602 H 150.626 -1.90477 -3.13231 0
M  V30 1603 H 150.274 -0.303414 -5.02084 0
M  V30 1604 H 149.974 -1.98369 -5.53103 0
M  V30 1605 H 151.498 -1.1733 -5.99221 0
M  V30 1606 H 152.912 -3.11471 -4.81309 0
M  V30 1607 H 151.309 -3.87218 -4.58457 0
M  V30 1608 H 152.379 -3.65368 -3.18801 0
M  V30 1609 N 153.722 1.14298 -1.08507 0
M  V30 1610 C 154.95 1.89219 -0.836876 0
M  V30 1611 C 155.365 1.78638 0.611054 0
M  V30 1612 O 154.722 1.14643 1.41998 0
M  V30 1613 C 154.773 3.39158 -1.25116 0
M  V30 1614 O 154.494 3.49449 -2.64229 0
M  V30 1615 C 155.995 4.31073 -1.03398 0
M  V30 1616 H 153.215 0.599328 -0.301739 0
M  V30 1617 H 155.759 1.44746 -1.44461 0
M  V30 1618 H 153.914 3.81251 -0.687514 0
M  V30 1619 H 154.328 4.42589 -2.81452 0
M  V30 1620 H 155.802 5.34646 -1.37323 0
M  V30 1621 H 156.279 4.3919 0.0289259 0
M  V30 1622 H 156.885 3.94738 -1.58311 0
M  V30 1623 N 155.201 0.870884 1.31352 0
M  V30 1624 C 156.478 0.402907 1.91405 0
M  V30 1625 C 156.858 -1.11512 1.79244 0
M  V30 1626 O 156.206 -1.94411 1.2007 0
M  V30 1627 C 156.416 0.885301 3.37585 0
M  V30 1628 C 157.764 0.911971 4.14691 0
M  V30 1629 O 158.788 0.831016 3.46371 0
M  V30 1630 O 157.647 1.02927 5.3672 0
M  V30 1631 H 154.741 0.120698 0.818145 0
M  V30 1632 H 157.287 0.958857 1.40014 0
M  V30 1633 H 156.059 1.92889 3.40455 0
M  V30 1634 H 155.682 0.307714 3.96407 0
M  V30 1635 N 156.679 -1.44442 0.630414 0
M  V30 1636 C 157.909 -2.06115 0.141465 0
M  V30 1637 C 158.317 -1.47179 -1.1889 0
M  V30 1638 O 157.66 -0.588873 -1.74006 0
M  V30 1639 C 157.722 -3.59467 -0.0484355 0
M  V30 1640 C 157.386 -4.40864 1.20366 0
M  V30 1641 C 158.383 -4.74391 2.12719 0
M  V30 1642 C 156.068 -4.8125 1.43887 0
M  V30 1643 C 158.062 -5.47186 3.26904 0
M  V30 1644 C 155.749 -5.53795 2.5837 0
M  V30 1645 C 156.747 -5.86682 3.49705 0
M  V30 1646 O 156.435 -6.57749 4.62191 0
M  V30 1647 H 156.167 -0.671648 0.0765792 0
M  V30 1648 H 158.721 -1.86312 0.864695 0
M  V30 1649 H 156.951 -3.77758 -0.826803 0
M  V30 1650 H 158.64 -4.02909 -0.491849 0
M  V30 1651 H 159.406 -4.43728 1.95781 0
M  V30 1652 H 155.285 -4.55073 0.736853 0
M  V30 1653 H 158.829 -5.72773 3.98217 0
M  V30 1654 H 154.726 -5.83872 2.75251 0
M  V30 1655 H 155.494 -6.76217 4.61164 0
M  V30 1656 N 158.157 -0.370918 -1.53173 0
M  V30 1657 C 159.387 0.217389 -2.05453 0
M  V30 1658 C 159.795 1.42568 -1.24382 0
M  V30 1659 O 159.138 1.81571 -0.278839 0
M  V30 1660 C 159.2 0.669827 -3.53205 0
M  V30 1661 C 158.864 -0.4225 -4.55043 0
M  V30 1662 C 159.861 -1.27407 -5.04047 0
M  V30 1663 C 157.546 -0.58427 -4.9889 0
M  V30 1664 C 159.54 -2.27271 -5.95505 0
M  V30 1665 C 157.227 -1.58627 -5.90153 0
M  V30 1666 C 158.225 -2.42892 -6.38351 0
M  V30 1667 O 157.913 -3.41382 -7.27814 0
M  V30 1668 H 157.645 0.0408171 -0.674767 0
M  V30 1669 H 160.199 -0.5292 -1.98466 0
M  V30 1670 H 158.429 1.4681 -3.57748 0
M  V30 1671 H 160.118 1.18173 -3.88317 0
M  V30 1672 H 160.884 -1.16031 -4.70916 0
M  V30 1673 H 156.763 0.061851 -4.60959 0
M  V30 1674 H 160.307 -2.93079 -6.33049 0
M  V30 1675 H 156.204 -1.70048 -6.22699 0
M  V30 1676 H 156.972 -3.37173 -7.45826 0
M  V30 1677 N 159.635 1.57281 -0.100228 0
M  V30 1678 C 160.884 1.93713 0.561984 0
M  V30 1679 C 161.197 0.984492 1.69018 0
M  V30 1680 O 162.403 1.24273 2.41389 0
M  V30 1681 C 160.859 3.4421 1.05106 0
M  V30 1682 C 160.467 4.47975 -0.0476628 0
M  V30 1683 C 162.211 3.89595 1.68571 0
M  V30 1684 C 160.118 5.89631 0.457055 0
M  V30 1685 H 159.048 0.723082 0.2137 0
M  V30 1686 H 161.699 1.82644 -0.177057 0
M  V30 1687 H 160.081 3.50449 1.84395 0
M  V30 1688 H 161.255 4.53385 -0.823333 0
M  V30 1689 H 159.57 4.1223 -0.587816 0
M  V30 1690 H 162.167 4.92832 2.07414 0
M  V30 1691 H 162.51 3.28526 2.55688 0
M  V30 1692 H 163.043 3.86078 0.958562 0
M  V30 1693 H 159.782 6.54411 -0.377616 0
M  V30 1694 H 159.302 5.87681 1.19962 0
M  V30 1695 H 160.981 6.40363 0.92437 0
M  V30 1696 N 161.113 -0.173488 1.56642 0
M  V30 1697 C 162.063 -1.21941 1.92651 0
M  V30 1698 C 163.047 -1.39912 0.794577 0
M  V30 1699 O 164.239 -1.41919 1.05773 0
M  V30 1700 C 161.368 -2.55935 2.28806 0
M  V30 1701 C 160.454 -2.41667 3.48508 0
M  V30 1702 N 160.845 -1.9711 4.65813 0
M  V30 1703 C 159.143 -2.72499 3.53072 0
M  V30 1704 C 159.844 -1.95253 5.47952 0
M  V30 1705 N 158.82 -2.37575 4.88937 0
M  V30 1706 H 162.622 -0.866581 2.80834 0
M  V30 1707 H 160.136 -0.381776 1.57849 0
M  V30 1708 H 162.133 -3.31511 2.52797 0
M  V30 1709 H 160.793 -2.92022 1.41961 0
M  V30 1710 H 161.804 -1.67481 4.90072 0
M  V30 1711 H 158.481 -3.12639 2.767 0
M  V30 1712 H 159.871 -1.6252 6.51948 0
M  V30 1713 N 162.591 -1.51276 -0.441967 0
M  V30 1714 C 163.821 -1.67273 -1.21257 0
M  V30 1715 C 164.229 -0.367624 -1.85594 0
M  V30 1716 O 163.572 0.663349 -1.71305 0
M  V30 1717 C 163.634 -2.72807 -2.34129 0
M  V30 1718 C 163.298 -4.1554 -1.90198 0
M  V30 1719 C 164.295 -5.00471 -1.40801 0
M  V30 1720 C 161.98 -4.61616 -1.9803 0
M  V30 1721 C 163.974 -6.29536 -0.998174 0
M  V30 1722 C 161.661 -5.90679 -1.56658 0
M  V30 1723 C 162.659 -6.74466 -1.07633 0
M  V30 1724 O 162.347 -8.01116 -0.668459 0
M  V30 1725 H 162.079 -0.564614 -0.371734 0
M  V30 1726 H 164.633 -1.9843 -0.530521 0
M  V30 1727 H 162.863 -2.36954 -3.05597 0
M  V30 1728 H 164.552 -2.77729 -2.96009 0
M  V30 1729 H 165.318 -4.66079 -1.34148 0
M  V30 1730 H 161.197 -3.96526 -2.35135 0
M  V30 1731 H 164.741 -6.94885 -0.61482 0
M  V30 1732 H 160.638 -6.24586 -1.62979 0
M  V30 1733 H 161.406 -8.14633 -0.794722 0
M  V30 1734 N 164.069 0.697108 -1.41344 0
M  V30 1735 C 165.315 1.45796 -1.41828 0
M  V30 1736 C 165.67 1.92382 -0.0261743 0
M  V30 1737 O 164.963 1.66522 0.947688 0
M  V30 1738 C 165.157 2.68553 -2.35826 0
M  V30 1739 C 164.986 2.33975 -3.84039 0
M  V30 1740 C 163.756 2.24414 -4.52732 0
M  V30 1741 C 165.954 1.97048 -4.75054 0
M  V30 1742 N 163.936 1.82705 -5.86082 0
M  V30 1743 C 165.307 1.66086 -5.9734 0
M  V30 1744 C 167.362 1.83845 -4.62715 0
M  V30 1745 C 166.065 1.23246 -7.08663 0
M  V30 1746 C 168.091 1.4241 -5.73998 0
M  V30 1747 C 167.453 1.12357 -6.95381 0
M  V30 1748 H 163.552 0.530859 -0.574206 0
M  V30 1749 H 166.136 0.806674 -1.77203 0
M  V30 1750 H 164.307 3.31404 -2.02549 0
M  V30 1751 H 166.039 3.35015 -2.2704 0
M  V30 1752 H 162.794 2.4276 -4.0665 0
M  V30 1753 H 163.218 1.64337 -6.56751 0
M  V30 1754 H 167.86 2.05734 -3.69369 0
M  V30 1755 H 165.578 1.00102 -8.01876 0
M  V30 1756 H 169.164 1.32746 -5.66454 0
M  V30 1757 H 168.044 0.807795 -7.80028 0
M  V30 1758 N 165.547 1.27147 0.931209 0
M  V30 1759 C 166.777 1.15914 1.71019 0
M  V30 1760 C 167.185 -0.287112 1.87009 0
M  V30 1761 O 166.528 -1.20761 1.38429 0
M  V30 1762 C 166.59 1.76647 3.13107 0
M  V30 1763 C 166.254 3.25807 3.20467 0
M  V30 1764 C 167.251 4.22489 3.02983 0
M  V30 1765 C 164.936 3.66452 3.43538 0
M  V30 1766 C 166.93 5.57794 3.08454 0
M  V30 1767 C 164.617 5.01888 3.48643 0
M  V30 1768 C 165.615 5.97369 3.31119 0
M  V30 1769 O 165.303 7.30337 3.35952 0
M  V30 1770 H 165.035 0.404062 0.54195 0
M  V30 1771 H 167.589 1.68457 1.17521 0
M  V30 1772 H 165.819 1.18578 3.68071 0
M  V30 1773 H 167.508 1.60179 3.72958 0
M  V30 1774 H 168.274 3.92425 2.85004 0
M  V30 1775 H 164.153 2.92611 3.5623 0
M  V30 1776 H 167.697 6.32298 2.94694 0
M  V30 1777 H 163.594 5.31609 3.66145 0
M  V30 1778 H 164.362 7.38739 3.5243 0
M  V30 1779 N 167.025 -1.13721 1.09112 0
M  V30 1780 C 168.272 -1.84924 0.825192 0
M  V30 1781 C 168.6 -1.83347 -0.649151 0
M  V30 1782 O 167.855 -1.26449 -1.49362 0
M  V30 1783 C 168.154 -3.32861 1.30146 0
M  V30 1784 C 167.82 -3.54621 2.78486 0
M  V30 1785 C 166.482 -3.60268 3.18999 0
M  V30 1786 C 168.834 -3.62855 3.74146 0
M  V30 1787 C 166.162 -3.71679 4.53951 0
M  V30 1788 C 168.514 -3.75793 5.08883 0
M  V30 1789 C 167.178 -3.79692 5.4899 0
M  V30 1790 H 166.448 -0.676684 0.301959 0
M  V30 1791 H 169.095 -1.3428 1.36533 0
M  V30 1792 H 167.4 -3.85835 0.681064 0
M  V30 1793 H 169.097 -3.86395 1.07236 0
M  V30 1794 H 165.687 -3.50879 2.46134 0
M  V30 1795 H 169.871 -3.57775 3.43963 0
M  V30 1796 H 165.127 -3.72963 4.84467 0
M  V30 1797 H 169.301 -3.81107 5.82864 0
M  V30 1798 H 166.928 -3.88287 6.53558 0
M  V30 1799 N 168.503 -0.877838 -1.30888 0
M  V30 1800 C 169.78 -0.413052 -1.91189 0
M  V30 1801 C 170.16 1.1056 -1.79832 0
M  V30 1802 O 169.508 1.93771 -1.21099 0
M  V30 1803 C 169.718 -0.903191 -3.3711 0
M  V30 1804 C 171.066 -0.93395 -4.14201 0
M  V30 1805 O 172.09 -0.849373 -3.45925 0
M  V30 1806 O 170.949 -1.05772 -5.36167 0
M  V30 1807 H 168.043 -0.125035 -0.817493 0
M  V30 1808 H 170.589 -0.966269 -1.39504 0
M  V30 1809 H 169.361 -1.94692 -3.39427 0
M  V30 1810 H 168.984 -0.328732 -3.96239 0
M  V30 1811 N 169.982 1.44106 -0.638065 0
M  V30 1812 C 170.912 2.33448 0.0494287 0
M  V30 1813 C 171.893 1.48606 0.827672 0
M  V30 1814 O 173.078 1.77308 0.792173 0
M  V30 1815 C 170.208 3.31771 1.02691 0
M  V30 1816 C 169.162 4.26485 0.359823 0
M  V30 1817 C 168.488 5.14729 1.44769 0
M  V30 1818 C 169.788 5.17056 -0.738296 0
M  V30 1819 H 171.482 2.91183 -0.696636 0
M  V30 1820 H 169.028 1.40014 -0.336456 0
M  V30 1821 H 170.981 3.93161 1.51666 0
M  V30 1822 H 169.705 2.7226 1.80395 0
M  V30 1823 H 168.364 3.66437 -0.10934 0
M  V30 1824 H 168.012 4.51566 2.21578 0
M  V30 1825 H 167.712 5.78913 1.00668 0
M  V30 1826 H 169.236 5.78991 1.93911 0
M  V30 1827 H 170.65 5.72342 -0.331354 0
M  V30 1828 H 169.047 5.89879 -1.10286 0
M  V30 1829 H 170.117 4.57652 -1.60258 0
M  V30 1830 N 171.46 0.379036 1.52974 0
M  V30 1831 C 172.706 -0.199244 2.02422 0
M  V30 1832 C 173.061 -1.4532 1.26095 0
M  V30 1833 O 172.354 -1.88377 0.34996 0
M  V30 1834 C 172.548 -0.53096 3.53434 0
M  V30 1835 C 172.377 0.689298 4.44386 0
M  V30 1836 C 171.147 1.20546 4.9071 0
M  V30 1837 C 173.345 1.55856 4.90116 0
M  V30 1838 N 171.327 2.38434 5.65705 0
M  V30 1839 C 172.698 2.58396 5.63588 0
M  V30 1840 C 174.753 1.57986 4.7217 0
M  V30 1841 C 173.456 3.62939 6.21022 0
M  V30 1842 C 175.482 2.6143 5.30479 0
M  V30 1843 C 174.844 3.62693 6.03849 0
M  V30 1844 H 170.943 -0.0352671 0.781204 0
M  V30 1845 H 173.527 0.526614 1.87443 0
M  V30 1846 H 171.698 -1.22588 3.68547 0
M  V30 1847 H 173.43 -1.0955 3.89591 0
M  V30 1848 H 170.185 0.768022 4.67331 0
M  V30 1849 H 170.609 2.98055 6.07859 0
M  V30 1850 H 175.251 0.810475 4.14959 0
M  V30 1851 H 172.969 4.40751 6.77321 0
M  V30 1852 H 176.555 2.63949 5.18481 0
M  V30 1853 H 175.435 4.41424 6.48163 0
M  V30 1854 N 172.938 -1.57226 0.108567 0
M  V30 1855 C 174.186 -1.94448 -0.550853 0
M  V30 1856 C 174.507 -0.992074 -1.67878 0
M  V30 1857 O 173.777 -0.0465 -1.95845 0
M  V30 1858 H 172.357 -0.717897 -0.206479 0
M  V30 1859 H 175.019 -1.94112 0.175062 0
M  V30 1860 H 174.115 -2.97218 -0.952259 0
M  V30 1861 N 174.416 0.165178 -1.56732 0
M  V30 1862 C 175.832 0.517174 -1.50988 0
M  V30 1863 C 176.032 1.84331 -0.813894 0
M  V30 1864 O 175.088 2.49672 -0.37682 0
M  V30 1865 C 176.401 0.544261 -2.95733 0
M  V30 1866 C 177.949 0.631039 -3.06573 0
M  V30 1867 C 178.424 0.68896 -4.52788 0
M  V30 1868 N 179.915 0.751683 -4.5706 0
M  V30 1869 C 180.65 0.817177 -5.67547 0
M  V30 1870 N 180.146 0.843129 -6.8765 0
M  V30 1871 N 181.939 0.856668 -5.55534 0
M  V30 1872 H 174.09 -0.704318 -2.00382 0
M  V30 1873 H 176.353 -0.254687 -0.913148 0
M  V30 1874 H 176.059 -0.361607 -3.49836 0
M  V30 1875 H 175.933 1.3886 -3.5071 0
M  V30 1876 H 178.32 1.52733 -2.52501 0
M  V30 1877 H 178.401 -0.240095 -2.54671 0
M  V30 1878 H 178.045 -0.2031 -5.07494 0
M  V30 1879 H 177.975 1.57633 -5.02454 0
M  V30 1880 H 180.466 0.739661 -3.70591 0
M  V30 1881 H 180.779 0.894448 -7.67606 0
M  V30 1882 H 179.124 0.811304 -6.90248 0
M  V30 1883 H 182.315 0.833437 -4.60621 0
M  V30 1884 H 182.488 0.904247 -6.4166 0
M  V30 1885 N 175.894 1.51508 0.433938 0
M  V30 1886 C 177.142 1.6402 1.18075 0
M  V30 1887 C 177.463 0.360328 1.91642 0
M  V30 1888 O 176.733 -0.623945 1.85698 0
M  V30 1889 H 175.313 0.6045 0.43885 0
M  V30 1890 H 177.975 1.88452 0.497178 0
M  V30 1891 H 177.071 2.46949 1.90847 0
M  V30 1892 N 177.372 -0.689602 1.41712 0
M  V30 1893 C 178.6 -1.47827 1.44758 0
M  V30 1894 C 179.015 -1.88721 0.0545703 0
M  V30 1895 O 178.372 -1.57176 -0.927463 0
M  V30 1896 C 178.423 -2.73698 2.3616 0
M  V30 1897 O 178.144 -2.34524 3.7004 0
M  V30 1898 C 179.645 -3.67389 2.48072 0
M  V30 1899 H 176.865 -0.455357 0.49284 0
M  V30 1900 H 179.409 -0.848574 1.86063 0
M  V30 1901 H 177.564 -3.32891 1.98148 0
M  V30 1902 H 177.978 -3.15701 4.18847 0
M  V30 1903 H 179.452 -4.52475 3.16181 0
M  V30 1904 H 179.929 -4.12284 1.51388 0
M  V30 1905 H 180.535 -3.14097 2.86746 0
M  V30 1906 N 178.85 -1.27639 -0.924453 0
M  V30 1907 C 179.78 -1.13166 -2.04244 0
M  V30 1908 C 180.761 -0.032256 -1.70069 0
M  V30 1909 O 181.946 -0.207328 -1.9309 0
M  V30 1910 C 179.076 -0.781496 -3.38393 0
M  V30 1911 C 178.03 -1.83449 -3.86692 0
M  V30 1912 C 177.356 -1.33822 -5.17683 0
M  V30 1913 C 178.656 -3.23917 -4.09726 0
M  V30 1914 H 180.35 -2.06689 -2.1661 0
M  V30 1915 H 177.896 -0.995136 -1.04082 0
M  V30 1916 H 179.849 -0.667057 -4.16087 0
M  V30 1917 H 178.573 0.189439 -3.2605 0
M  V30 1918 H 177.232 -1.93789 -3.11193 0
M  V30 1919 H 176.88 -0.35665 -5.01734 0
M  V30 1920 H 176.58 -2.04224 -5.50968 0
M  V30 1921 H 178.104 -1.23679 -5.97943 0
M  V30 1922 H 179.518 -3.16559 -4.77978 0
M  V30 1923 H 177.915 -3.92059 -4.54324 0
M  V30 1924 H 178.985 -3.68729 -3.14908 0
M  V30 1925 N 180.328 1.1314 -1.09713 0
M  V30 1926 C 181.574 1.84757 -0.836224 0
M  V30 1927 C 181.907 1.8347 0.636598 0
M  V30 1928 O 181.182 1.27491 1.46889 0
M  V30 1929 C 181.465 3.32782 -1.37578 0
M  V30 1930 C 181.318 3.42567 -2.91493 0
M  V30 1931 C 182.637 4.28307 -1.01198 0
M  V30 1932 H 179.756 0.67082 -0.305236 0
M  V30 1933 H 182.398 1.3278 -1.35903 0
M  V30 1934 H 180.548 3.77177 -0.931097 0
M  V30 1935 H 182.22 3.06862 -3.44432 0
M  V30 1936 H 180.463 2.83349 -3.28475 0
M  V30 1937 H 181.134 4.46674 -3.24324 0
M  V30 1938 H 183.61 3.91999 -1.39556 0
M  V30 1939 H 182.486 5.30307 -1.41653 0
M  V30 1940 H 182.747 4.42029 0.0794833 0
M  V30 1941 N 181.806 0.884767 1.30421 0
M  V30 1942 C 183.034 0.518044 2.0031 0
M  V30 1943 C 183.449 -0.893408 1.66324 0
M  V30 1944 O 182.806 -1.5875 0.900262 0
M  V30 1945 C 182.857 0.682997 3.54989 0
M  V30 1946 O 182.578 2.03888 3.87764 0
M  V30 1947 C 184.079 0.31924 4.42149 0
M  V30 1948 H 181.299 0.200265 0.640418 0
M  V30 1949 H 183.843 1.19001 1.6631 0
M  V30 1950 H 181.998 0.0584052 3.87356 0
M  V30 1951 H 182.412 2.05735 4.82466 0
M  V30 1952 H 183.886 0.485555 5.4986 0
M  V30 1953 H 184.363 -0.742717 4.32875 0
M  V30 1954 H 184.969 0.920147 4.15227 0
M  V30 1955 N 183.284 -1.43765 0.645699 0
M  V30 1956 C 184.53 -2.02197 0.156271 0
M  V30 1957 C 184.863 -1.50776 -1.22393 0
M  V30 1958 O 184.138 -0.697771 -1.81553 0
M  V30 1959 C 184.421 -3.59749 0.158872 0
M  V30 1960 C 184.274 -4.21419 1.57245 0
M  V30 1961 C 185.593 -4.37149 -0.50879 0
M  V30 1962 H 182.712 -0.734694 0.0582602 0
M  V30 1963 H 185.354 -1.71157 0.824951 0
M  V30 1964 H 183.504 -3.86325 -0.410525 0
M  V30 1965 H 185.176 -4.059 2.19186 0
M  V30 1966 H 183.419 -3.78356 2.122 0
M  V30 1967 H 184.09 -5.30482 1.52619 0
M  V30 1968 H 186.566 -4.16093 -0.024412 0
M  V30 1969 H 185.442 -5.4683 -0.476213 0
M  V30 1970 H 185.703 -4.12839 -1.58165 0
M  V30 1971 N 184.763 -0.387143 -1.52771 0
M  V30 1972 C 185.988 0.198407 -2.06449 0
M  V30 1973 C 186.413 1.39918 -1.25716 0
M  V30 1974 O 185.771 1.79099 -0.281657 0
M  V30 1975 C 185.819 0.548893 -3.56398 0
M  V30 1976 O 184.923 1.64315 -3.78252 0
M  V30 1977 H 184.264 0.0237731 -0.663574 0
M  V30 1978 H 186.794 -0.553989 -1.96957 0
M  V30 1979 H 186.804 0.813812 -3.99801 0
M  V30 1980 H 185.479 -0.329005 -4.14597 0
M  V30 1981 H 184.056 1.37211 -3.46738 0
M  V30 1982 N 186.241 1.57166 -0.116904 0
M  V30 1983 C 187.466 1.999 0.55271 0
M  V30 1984 C 187.891 0.996039 1.59564 0
M  V30 1985 O 187.249 -0.032556 1.81271 0
M  V30 1986 C 187.297 3.4152 1.15742 0
M  V30 1987 O 186.401 3.44106 2.27299 0
M  V30 1988 H 185.742 0.649447 0.138258 0
M  V30 1989 H 188.272 2.03573 -0.204759 0
M  V30 1990 H 188.282 3.79684 1.49346 0
M  V30 1991 H 186.957 4.14034 0.393493 0
M  V30 1992 H 185.534 3.17759 1.9515 0
M  V30 1993 N 187.719 -0.156864 1.56817 0
M  V30 1994 C 188.682 -1.17781 1.96622 0
M  V30 1995 C 189.682 -1.36401 0.851555 0
M  V30 1996 O 190.872 -1.33561 1.11836 0
M  V30 1997 C 188.004 -2.54008 2.27361 0
M  V30 1998 H 189.197 -0.836564 2.87996 0
M  V30 1999 H 186.75 -0.39985 1.51099 0
M  V30 2000 H 187.485 -2.9312 1.38748 0
M  V30 2001 H 187.27 -2.41856 3.08623 0
M  V30 2002 H 188.76 -3.27558 2.59029 0
M  V30 2003 N 189.197 -1.51736 -0.425897 0
M  V30 2004 C 190.422 -1.69082 -1.20108 0
M  V30 2005 C 190.847 -0.392398 -1.83962 0
M  V30 2006 O 190.205 0.64858 -1.69302 0
M  V30 2007 C 190.253 -2.81604 -2.25237 0
M  V30 2008 O 189.357 -2.46004 -3.30992 0
M  V30 2009 H 188.698 -0.563408 -0.35138 0
M  V30 2010 H 191.228 -1.98358 -0.501512 0
M  V30 2011 H 191.238 -3.06025 -2.69838 0
M  V30 2012 H 189.913 -3.75817 -1.78142 0
M  V30 2013 H 188.49 -2.32195 -2.91787 0
M  V30 2014 N 190.675 0.682077 -1.42076 0
M  V30 2015 C 191.903 1.47057 -1.4554 0
M  V30 2016 C 192.318 1.8869 -0.0645779 0
M  V30 2017 O 191.675 1.57666 0.919115 0
M  V30 2018 C 191.726 2.72442 -2.37609 0
M  V30 2019 O 191.447 2.32559 -3.71279 0
M  V30 2020 C 192.948 3.66069 -2.50017 0
M  V30 2021 H 190.168 0.452737 -0.495248 0
M  V30 2022 H 192.712 0.838695 -1.8651 0
M  V30 2023 H 190.867 3.31835 -1.9991 0
M  V30 2024 H 191.281 3.13475 -4.20516 0
M  V30 2025 H 192.755 4.50792 -3.18576 0
M  V30 2026 H 193.232 4.11476 -1.53572 0
M  V30 2027 H 193.838 3.12572 -2.88407 0
M  V30 2028 N 192.153 1.28127 0.917671 0
M  V30 2029 C 193.1 1.11717 2.0196 0
M  V30 2030 C 194.07 0.0153929 1.66093 0
M  V30 2031 O 195.255 0.179596 1.89953 0
M  V30 2032 C 192.395 0.780927 3.36148 0
M  V30 2033 C 191.508 1.96135 3.84909 0
M  V30 2034 C 190.643 1.56609 5.0759 0
M  V30 2035 C 189.682 2.71339 5.48673 0
M  V30 2036 N 188.819 2.32332 6.62545 0
M  V30 2037 H 193.659 2.06003 2.15329 0
M  V30 2038 H 191.196 1.02535 1.05475 0
M  V30 2039 H 193.154 0.56675 4.13333 0
M  V30 2040 H 191.784 -0.124998 3.22558 0
M  V30 2041 H 190.836 2.28777 3.03916 0
M  V30 2042 H 192.148 2.82165 4.1132 0
M  V30 2043 H 191.302 1.31374 5.92305 0
M  V30 2044 H 190.041 0.677014 4.82978 0
M  V30 2045 H 189.046 2.97276 4.62501 0
M  V30 2046 H 190.271 3.60882 5.75274 0
M  V30 2047 H 188.217 1.45889 6.39572 0
M  V30 2048 H 188.134 3.11899 6.88662 0
M  V30 2049 H 189.402 2.10371 7.50576 0
M  V30 2050 N 193.631 -1.12557 1.10312 0
M  V30 2051 C 194.879 -1.83675 0.843091 0
M  V30 2052 C 195.2 -1.84435 -0.633131 0
M  V30 2053 O 194.47 -1.30657 -1.45964 0
M  V30 2054 H 193.05 -0.680138 0.308904 0
M  V30 2055 H 195.712 -1.36301 1.39313 0
M  V30 2056 H 194.808 -2.87908 1.2048 0
M  V30 2057 N 195.109 -0.891671 -1.2995 0
M  V30 2058 C 196.52 -0.563104 -1.78006 0
M  V30 2059 C 196.871 0.920978 -1.73241 0
M  V30 2060 O 195.996 1.71987 -1.31337 0
M  V30 2061 C 196.591 -1.01539 -3.23226 0
M  V30 2062 C 195.15 -0.738124 -3.69092 0
M  V30 2063 C 194.297 -1.19461 -2.50249 0
M  V30 2064 H 197.248 -1.07522 -1.16725 0
M  V30 2065 H 197.269 -0.347217 -3.78912 0
M  V30 2066 H 196.781 -2.09555 -3.26662 0
M  V30 2067 H 194.882 0.329766 -3.71138 0
M  V30 2068 H 194.995 -1.33037 -4.60259 0
M  V30 2069 H 193.359 -0.613787 -2.47194 0
M  V30 2070 H 194.142 -2.28265 -2.56417 0
M  V30 2071 N 196.587 1.43421 -0.653314 0
M  V30 2072 C 197.812 2.06678 -0.172846 0
M  V30 2073 C 198.237 1.48648 1.15262 0
M  V30 2074 O 197.595 0.596457 1.71208 0
M  V30 2075 C 197.643 3.60474 -0.0953184 0
M  V30 2076 O 196.747 4.01487 0.942442 0
M  V30 2077 H 196.088 0.657181 -0.0949155 0
M  V30 2078 H 198.618 1.83925 -0.896265 0
M  V30 2079 H 198.628 4.07905 0.0879728 0
M  V30 2080 H 197.303 4.02088 -1.06291 0
M  V30 2081 H 195.88 3.65646 0.731932 0
M  V30 2082 N 198.065 0.39524 1.52563 0
M  V30 2083 C 199.311 -0.185318 2.01952 0
M  V30 2084 C 199.644 -1.45964 1.28095 0
M  V30 2085 O 198.919 -1.90689 0.38315 0
M  V30 2086 C 199.202 -0.447193 3.57312 0
M  V30 2087 C 199.055 0.842828 4.41833 0
M  V30 2088 C 200.374 -1.23529 4.22408 0
M  V30 2089 H 197.493 -0.0658788 0.73405 0
M  V30 2090 H 200.135 0.525975 1.82575 0
M  V30 2091 H 198.285 -1.05312 3.73954 0
M  V30 2092 H 199.957 1.4795 4.36931 0
M  V30 2093 H 198.2 1.45686 4.08605 0
M  V30 2094 H 198.871 0.614165 5.48573 0
M  V30 2095 H 201.347 -0.722445 4.0978 0
M  V30 2096 H 200.223 -1.38727 5.3108 0
M  V30 2097 H 200.484 -2.25213 3.80436 0
M  V30 2098 N 199.544 -1.57102 0.125237 0
M  V30 2099 C 200.791 -1.95407 -0.531248 0
M  V30 2100 C 201.119 -1.0089 -1.66287 0
M  V30 2101 O 200.374 -0.0339431 -1.95671 0
M  V30 2102 C 200.673 -3.40096 -1.09862 0
M  V30 2103 C 200.339 -4.50815 -0.0876989 0
M  V30 2104 C 199.001 -4.80824 0.19026 0
M  V30 2105 C 201.353 -5.17724 0.600902 0
M  V30 2106 C 198.681 -5.75058 1.163 0
M  V30 2107 C 201.033 -6.13005 1.56231 0
M  V30 2108 C 199.697 -6.41403 1.8482 0
M  V30 2109 H 198.967 -0.715046 -0.194397 0
M  V30 2110 H 201.614 -1.90373 0.207463 0
M  V30 2111 H 199.919 -3.41855 -1.91422 0
M  V30 2112 H 201.616 -3.6705 -1.61478 0
M  V30 2113 H 198.206 -4.27444 -0.314528 0
M  V30 2114 H 202.39 -4.94691 0.399333 0
M  V30 2115 H 197.646 -5.95362 1.39117 0
M  V30 2116 H 201.82 -6.63934 2.10153 0
M  V30 2117 H 199.447 -7.14229 2.60349 0
M  V30 2118 N 201.022 0.148545 -1.56898 0
M  V30 2119 C 202.433 0.708766 -1.72723 0
M  V30 2120 C 202.784 1.81734 -0.739395 0
M  V30 2121 O 201.909 2.16194 0.0943169 0
M  V30 2122 C 202.504 1.29245 -3.13179 0
M  V30 2123 C 201.063 1.79925 -3.30611 0
M  V30 2124 C 200.21 0.687111 -2.68652 0
M  V30 2125 H 203.161 -0.0771063 -1.58513 0
M  V30 2126 H 203.182 2.16224 -3.13093 0
M  V30 2127 H 202.694 0.485382 -3.85053 0
M  V30 2128 H 200.795 2.63203 -2.63732 0
M  V30 2129 H 200.908 1.92903 -4.38549 0
M  V30 2130 H 199.272 1.11335 -2.29078 0
M  V30 2131 H 200.055 -0.108483 -3.43129 0
M  V30 2132 N 202.5 1.5196 0.417844 0
M  V30 2133 C 203.43 1.77634 1.51554 0
M  V30 2134 C 204.411 0.626918 1.58126 0
M  V30 2135 O 205.596 0.871632 1.7354 0
M  V30 2136 C 202.726 1.91911 2.8946 0
M  V30 2137 C 201.68 3.07463 2.97743 0
M  V30 2138 C 201.006 3.06951 4.37819 0
M  V30 2139 C 202.306 4.47082 2.70027 0
M  V30 2140 H 204 2.6955 1.3032 0
M  V30 2141 H 201.546 1.29706 0.625492 0
M  V30 2142 H 203.499 2.08455 3.6623 0
M  V30 2143 H 202.223 0.966598 3.11969 0
M  V30 2144 H 200.882 2.90656 2.23416 0
M  V30 2145 H 200.53 2.09438 4.57323 0
M  V30 2146 H 200.23 3.84556 4.44286 0
M  V30 2147 H 201.754 3.25613 5.16535 0
M  V30 2148 H 203.168 4.6414 3.36522 0
M  V30 2149 H 201.565 5.2654 2.87881 0
M  V30 2150 H 202.635 4.55777 1.65514 0
M  V30 2151 N 203.978 -0.674533 1.42435 0
M  V30 2152 C 204.941 -1.76986 1.45632 0
M  V30 2153 C 205.941 -1.5708 0.343871 0
M  V30 2154 O 207.131 -1.63367 0.604709 0
M  V30 2155 C 204.263 -3.15623 1.28822 0
M  V30 2156 H 205.456 -1.75539 2.43158 0
M  V30 2157 H 203.009 -0.884189 1.28887 0
M  V30 2158 H 203.744 -3.22696 0.322193 0
M  V30 2159 H 203.529 -3.31475 2.09444 0
M  V30 2160 H 205.019 -3.95537 1.33942 0
M  V30 2161 N 205.456 -1.28612 -0.910864 0
M  V30 2162 C 206.867 -1.14406 -1.47541 0
M  V30 2163 C 207.218 0.264901 -1.94403 0
M  V30 2164 O 206.343 1.15942 -1.82719 0
M  V30 2165 C 206.938 -2.07073 -2.68153 0
M  V30 2166 C 205.497 -1.96923 -3.20778 0
M  V30 2167 C 204.644 -1.98646 -1.93481 0
M  V30 2168 H 207.595 -1.41259 -0.723291 0
M  V30 2169 H 207.616 -1.63642 -3.43514 0
M  V30 2170 H 207.128 -3.09611 -2.34015 0
M  V30 2171 H 205.229 -0.97433 -3.59635 0
M  V30 2172 H 205.342 -2.84026 -3.85832 0
M  V30 2173 H 203.706 -1.43093 -2.10705 0
M  V30 2174 H 204.489 -3.02868 -1.61634 0
M  V30 2175 N 206.934 1.1197 -1.10907 0
M  V30 2176 C 208.159 1.87942 -0.877064 0
M  V30 2177 C 208.584 1.79341 0.567314 0
M  V30 2178 O 207.942 1.15184 1.40009 0
M  V30 2179 C 207.99 3.34926 -1.33629 0
M  V30 2180 O 207.094 4.09303 -0.504447 0
M  V30 2181 H 206.435 0.583785 -0.316371 0
M  V30 2182 H 208.965 1.4157 -1.47712 0
M  V30 2183 H 208.975 3.8577 -1.32837 0
M  V30 2184 H 207.65 3.40504 -2.3881 0
M  V30 2185 H 206.227 3.68393 -0.577993 0
M  V30 2186 N 208.412 0.89855 1.29475 0
M  V30 2187 C 209.637 0.538561 2.00285 0
M  V30 2188 C 210.062 -0.869135 1.66816 0
M  V30 2189 O 209.42 -1.57831 0.892145 0
M  V30 2190 C 209.468 0.736475 3.52999 0
M  V30 2191 O 208.572 -0.211537 4.11857 0
M  V30 2192 H 207.913 0.210563 0.62973 0
M  V30 2193 H 210.443 1.20982 1.64998 0
M  V30 2194 H 210.453 0.640685 4.02938 0
M  V30 2195 H 209.128 1.76276 3.76696 0
M  V30 2196 H 207.705 -0.0682991 3.72837 0
M  V30 2197 N 209.89 -1.43072 0.660911 0
M  V30 2198 C 210.837 -2.30785 -0.0259884 0
M  V30 2199 C 211.807 -1.45184 -0.806888 0
M  V30 2200 O 212.992 -1.74041 -0.781943 0
M  V30 2201 C 210.132 -3.30861 -0.981067 0
M  V30 2202 C 209.245 -4.31558 -0.195458 0
M  V30 2203 C 208.38 -5.18712 -1.14503 0
M  V30 2204 C 207.419 -6.11097 -0.350299 0
M  V30 2205 N 206.556 -6.90849 -1.25186 0
M  V30 2206 H 211.396 -2.88975 0.727846 0
M  V30 2207 H 208.933 -1.42353 0.370682 0
M  V30 2208 H 210.891 -3.87399 -1.54849 0
M  V30 2209 H 209.521 -2.74304 -1.70169 0
M  V30 2210 H 208.573 -3.77252 0.488374 0
M  V30 2211 H 209.885 -4.9701 0.422176 0
M  V30 2212 H 209.039 -5.79914 -1.78284 0
M  V30 2213 H 207.778 -4.53404 -1.79656 0
M  V30 2214 H 206.783 -5.48976 0.300808 0
M  V30 2215 H 208.008 -6.7845 0.296941 0
M  V30 2216 H 205.954 -6.28182 -1.89005 0
M  V30 2217 H 205.871 -7.52854 -0.688971 0
M  V30 2218 H 207.139 -7.5655 -1.87757 0
M  V30 2219 N 211.368 -0.403325 -1.52352 0
M  V30 2220 C 212.593 0.176499 -2.06648 0
M  V30 2221 C 213.018 1.38577 -1.27193 0
M  V30 2222 O 212.376 1.7879 -0.300637 0
M  V30 2223 C 212.424 0.511061 -3.5696 0
M  V30 2224 O 211.528 1.60294 -3.79973 0
M  V30 2225 H 210.869 0.0167337 -0.663789 0
M  V30 2226 H 213.399 -0.574848 -1.96359 0
M  V30 2227 H 213.409 0.771362 -4.00642 0
M  V30 2228 H 212.084 -0.37296 -4.14224 0
M  V30 2229 H 210.661 1.33526 -3.48174 0
M  V30 2230 N 212.846 1.57033 -0.133567 0
M  V30 2231 C 214.074 2.00044 0.528195 0
M  V30 2232 C 214.489 1.01349 1.59291 0
M  V30 2233 O 213.846 0.00848369 1.82498 0
M  V30 2234 C 213.897 3.43018 1.1411 0
M  V30 2235 O 213.618 4.37939 0.11892 0
M  V30 2236 C 215.119 4.01237 1.88477 0
M  V30 2237 H 212.339 0.656517 0.138661 0
M  V30 2238 H 214.883 2.03267 -0.224196 0
M  V30 2239 H 213.038 3.40688 1.84418 0
M  V30 2240 H 213.452 5.21436 0.56613 0
M  V30 2241 H 214.926 5.03314 2.26669 0
M  V30 2242 H 215.403 3.41193 2.76558 0
M  V30 2243 H 216.009 4.07156 1.22898 0
M  V30 2244 N 214.325 -0.140222 1.56975 0
M  V30 2245 C 215.55 -0.870414 1.88251 0
M  V30 2246 C 215.975 -1.73637 0.723312 0
M  V30 2247 O 215.333 -1.78329 -0.32689 0
M  V30 2248 C 215.381 -1.69737 3.18154 0
M  V30 2249 O 214.485 -2.80229 3.02565 0
M  V30 2250 H 213.826 -0.242025 0.61832 0
M  V30 2251 H 216.356 -0.128999 2.04193 0
M  V30 2252 H 216.366 -2.09099 3.50345 0
M  V30 2253 H 215.041 -1.06152 4.02125 0
M  V30 2254 H 213.618 -2.44224 2.81796 0
M  V30 2255 N 215.803 -1.52179 -0.40978 0
M  V30 2256 C 217.051 -1.65878 -1.15451 0
M  V30 2257 C 217.372 -0.390771 -1.91044 0
M  V30 2258 O 216.642 0.594323 -1.86667 0
M  V30 2259 H 215.222 -0.611405 -0.429177 0
M  V30 2260 H 217.884 -1.89219 -0.467134 0
M  V30 2261 H 216.98 -2.49954 -1.86894 0
M  V30 2262 N 217.281 0.66697 -1.42791 0
M  V30 2263 C 218.529 1.42417 -1.43394 0
M  V30 2264 C 218.85 1.94925 -0.0542373 0
M  V30 2265 O 218.12 1.73564 0.908415 0
M  V30 2266 H 216.7 0.528515 -0.527902 0
M  V30 2267 H 219.362 0.787562 -1.78279 0
M  V30 2268 H 218.458 2.27333 -2.13837 0
M  V30 2269 N 218.759 1.29093 0.90403 0
M  V30 2270 C 219.987 1.19689 1.68766 0
M  V30 2271 C 220.402 -0.243113 1.87228 0
M  V30 2272 O 219.759 -1.16326 1.40621 0
M  V30 2273 C 219.81 1.90144 3.07453 0
M  V30 2274 O 219.531 3.2852 2.89838 0
M  V30 2275 C 221.032 1.87162 4.01852 0
M  V30 2276 H 218.252 0.415035 0.527244 0
M  V30 2277 H 220.796 1.7039 1.13082 0
M  V30 2278 H 218.951 1.43289 3.59926 0
M  V30 2279 H 219.365 3.63944 3.77684 0
M  V30 2280 H 220.839 2.41032 4.96596 0
M  V30 2281 H 221.316 0.84617 4.30972 0
M  V30 2282 H 221.922 2.33741 3.5531 0
M  V30 2283 N 220.237 -1.11381 1.11499 0
M  V30 2284 C 221.2 -2.15622 0.777153 0
M  V30 2285 C 222.2 -1.59504 -0.203779 0
M  V30 2286 O 223.39 -1.74188 0.020782 0
M  V30 2287 C 220.522 -3.40556 0.153116 0
M  V30 2288 H 221.715 -2.47021 1.70061 0
M  V30 2289 H 219.268 -1.26577 0.916952 0
M  V30 2290 H 220.003 -3.14767 -0.780536 0
M  V30 2291 H 219.788 -3.8257 0.859238 0
M  V30 2292 H 221.278 -4.17546 -0.0671044 0
M  V30 2293 N 221.715 -0.905404 -1.28997 0
M  V30 2294 C 222.678 -0.392253 -2.25819 0
M  V30 2295 C 223.678 0.476753 -1.5357 0
M  V30 2296 O 224.868 0.280994 -1.71919 0
M  V30 2297 C 222 0.438588 -3.38067 0
M  V30 2298 H 223.193 -1.24743 -2.72725 0
M  V30 2299 H 220.746 -0.684051 -1.40536 0
M  V30 2300 H 221.481 1.31352 -2.96508 0
M  V30 2301 H 221.266 -0.184167 -3.91667 0
M  V30 2302 H 222.756 0.78873 -4.10084 0
M  V30 2303 N 223.193 1.4272 -0.668489 0
M  V30 2304 C 224.123 2.335 -0.000100175 0
M  V30 2305 C 225.104 1.50328 0.795964 0
M  V30 2306 O 226.289 1.78949 0.754385 0
M  V30 2307 C 223.419 3.33874 0.956302 0
M  V30 2308 C 222.373 4.27152 0.269278 0
M  V30 2309 C 221.699 5.17684 1.33818 0
M  V30 2310 C 222.999 5.15373 -0.847805 0
M  V30 2311 H 224.693 2.89639 -0.758244 0
M  V30 2312 H 222.239 1.39269 -0.366079 0
M  V30 2313 H 224.192 3.9629 1.43292 0
M  V30 2314 H 222.916 2.76025 1.74579 0
M  V30 2315 H 221.575 3.66123 -0.187042 0
M  V30 2316 H 221.223 4.56165 2.1195 0
M  V30 2317 H 220.923 5.80918 0.883659 0
M  V30 2318 H 222.447 5.82974 1.81586 0
M  V30 2319 H 223.861 5.7151 -0.452681 0
M  V30 2320 H 222.258 5.87407 -1.22773 0
M  V30 2321 H 223.328 4.5415 -1.69929 0
M  V30 2322 N 224.671 0.411399 1.52136 0
M  V30 2323 C 225.919 -0.163322 2.01439 0
M  V30 2324 C 226.24 -1.45453 1.29879 0
M  V30 2325 O 225.51 -1.91225 0.4254 0
M  V30 2326 H 224.09 -0.0633447 0.744309 0
M  V30 2327 H 226.752 0.548161 1.87033 0
M  V30 2328 H 225.848 -0.357817 3.10042 0
M  V30 2329 N 226.149 -1.5696 0.141893 0
M  V30 2330 C 227.389 -1.9785 -0.513304 0
M  V30 2331 C 227.753 -1.02467 -1.62371 0
M  V30 2332 O 228.954 -1.32382 -2.33941 0
M  V30 2333 C 227.225 -3.42797 -1.01118 0
M  V30 2334 S 228.784 -4.05709 -1.67169 0
M  V30 2335 H 225.602 -0.691318 -0.166135 0
M  V30 2336 H 228.204 -1.94114 0.232398 0
M  V30 2337 H 226.908 -4.0995 -0.192179 0
M  V30 2338 H 226.439 -3.50235 -1.79162 0
M  V30 2339 H 228.454 -3.98342 -2.95868 0
M  V30 2340 N 227.627 0.131896 -1.57047 0
M  V30 2341 C 228.557 1.16384 -2.02428 0
M  V30 2342 C 229.538 1.43936 -0.90644 0
M  V30 2343 O 230.723 1.54599 -1.17528 0
M  V30 2344 C 227.853 2.49328 -2.4177 0
M  V30 2345 C 226.807 2.36266 -3.56879 0
M  V30 2346 C 226.133 3.74057 -3.8208 0
M  V30 2347 C 227.433 1.834 -4.89042 0
M  V30 2348 H 229.127 0.786433 -2.88887 0
M  V30 2349 H 226.673 0.376855 -1.38981 0
M  V30 2350 H 228.626 3.21759 -2.7212 0
M  V30 2351 H 227.35 2.88934 -1.52266 0
M  V30 2352 H 226.009 1.66286 -3.26718 0
M  V30 2353 H 225.657 4.11125 -2.89803 0
M  V30 2354 H 225.357 3.66174 -4.59554 0
M  V30 2355 H 226.881 4.48012 -4.1487 0
M  V30 2356 H 228.295 2.45636 -5.18011 0
M  V30 2357 H 226.692 1.8637 -5.70426 0
M  V30 2358 H 227.762 0.790662 -4.7841 0
M  V30 2359 N 229.106 1.52395 0.401703 0
M  V30 2360 C 230.352 1.67065 1.14966 0
M  V30 2361 C 230.685 0.403052 1.89971 0
M  V30 2362 O 229.96 -0.598774 1.85054 0
M  V30 2363 C 230.243 2.8975 2.13815 0
M  V30 2364 C 230.096 4.26578 1.42658 0
M  V30 2365 C 231.415 3.07965 3.14397 0
M  V30 2366 H 228.534 0.607968 0.416587 0
M  V30 2367 H 231.176 1.84965 0.434511 0
M  V30 2368 H 229.326 2.74619 2.74803 0
M  V30 2369 H 230.998 4.53451 0.847329 0
M  V30 2370 H 229.241 4.27639 0.72849 0
M  V30 2371 H 229.912 5.08483 2.14823 0
M  V30 2372 H 232.388 3.22043 2.63491 0
M  V30 2373 H 231.264 3.95308 3.80819 0
M  V30 2374 H 231.525 2.21611 3.82545 0
M  V30 2375 N 230.584 -0.659388 1.43143 0
M  V30 2376 C 231.531 -1.77249 1.47822 0
M  V30 2377 C 232.501 -1.62818 0.328558 0
M  V30 2378 O 233.686 -1.83151 0.534838 0
M  V30 2379 C 230.826 -3.15371 1.40126 0
M  V30 2380 C 229.939 -3.4098 2.65249 0
M  V30 2381 C 229.074 -4.68915 2.49584 0
M  V30 2382 C 228.113 -4.87608 3.70006 0
M  V30 2383 N 227.25 -6.06796 3.53189 0
M  V30 2384 H 232.09 -1.72584 2.42938 0
M  V30 2385 H 229.627 -0.842297 1.20598 0
M  V30 2386 H 231.585 -3.9521 1.33659 0
M  V30 2387 H 230.215 -3.19121 0.485964 0
M  V30 2388 H 229.267 -2.55282 2.8202 0
M  V30 2389 H 230.579 -3.50681 3.54717 0
M  V30 2390 H 229.733 -5.56871 2.4079 0
M  V30 2391 H 228.472 -4.61524 1.5763 0
M  V30 2392 H 227.477 -3.9809 3.79215 0
M  V30 2393 H 228.702 -4.96834 4.62961 0
M  V30 2394 H 226.648 -6.00549 2.63965 0
M  V30 2395 H 226.565 -6.17428 4.36255 0
M  V30 2396 H 227.833 -6.9739 3.48236 0
M  V30 2397 N 232.062 -1.29571 -0.897171 0
M  V30 2398 C 233.339 -1.08365 -1.62839 0
M  V30 2399 C 233.719 0.371331 -2.07808 0
M  V30 2400 O 233.067 1.3606 -1.83576 0
M  V30 2401 C 233.277 -2.0735 -2.80726 0
M  V30 2402 C 234.625 -2.38406 -3.51351 0
M  V30 2403 O 235.649 -2.05564 -2.90898 0
M  V30 2404 O 234.508 -2.9453 -4.60341 0
M  V30 2405 H 231.602 -0.415345 -0.715134 0
M  V30 2406 H 234.148 -1.40952 -0.945018 0
M  V30 2407 H 232.92 -3.05339 -2.44711 0
M  V30 2408 H 232.543 -1.75507 -3.56767 0
M  V30 2409 N 233.54 1.10788 -1.12088 0
M  V30 2410 C 234.77 1.86191 -0.895351 0
M  V30 2411 C 235.178 1.80763 0.558702 0
M  V30 2412 O 234.521 1.19188 1.39785 0
M  V30 2413 C 234.583 3.35659 -1.28737 0
M  V30 2414 C 234.247 3.64849 -2.75198 0
M  V30 2415 C 235.244 3.61757 -3.734 0
M  V30 2416 C 232.929 3.93641 -3.12013 0
M  V30 2417 C 234.923 3.87045 -5.06434 0
M  V30 2418 C 232.61 4.18585 -4.4523 0
M  V30 2419 C 233.608 4.15277 -5.42249 0
M  V30 2420 O 233.296 4.3959 -6.73065 0
M  V30 2421 H 233.028 0.595425 -0.32007 0
M  V30 2422 H 235.582 1.40992 -1.49367 0
M  V30 2423 H 233.812 3.81497 -0.63224 0
M  V30 2424 H 235.501 3.92441 -1.03656 0
M  V30 2425 H 236.267 3.39557 -3.46303 0
M  V30 2426 H 232.146 3.95348 -2.37109 0
M  V30 2427 H 235.69 3.84378 -5.82151 0
M  V30 2428 H 231.587 4.40264 -4.72057 0
M  V30 2429 H 232.355 4.57123 -6.78956 0
M  V30 2430 N 235.018 0.912232 1.28515 0
M  V30 2431 C 236.265 0.544599 1.95039 0
M  V30 2432 C 236.593 -0.911435 1.71823 0
M  V30 2433 O 235.848 -1.66317 1.03137 0
M  V30 2434 C 236.147 0.798392 3.48368 0
M  V30 2435 C 235.813 2.23374 3.91682 0
M  V30 2436 C 234.475 2.62617 4.03219 0
M  V30 2437 C 236.827 3.16786 4.13879 0
M  V30 2438 C 234.155 3.94429 4.3433 0
M  V30 2439 C 236.507 4.48161 4.46469 0
M  V30 2440 C 235.171 4.8726 4.56217 0
M  V30 2441 H 234.441 0.199283 0.7137 0
M  V30 2442 H 237.088 1.15327 1.52879 0
M  V30 2443 H 235.393 0.106908 3.91654 0
M  V30 2444 H 237.09 0.493141 3.97956 0
M  V30 2445 H 233.68 1.91922 3.83228 0
M  V30 2446 H 237.864 2.87677 4.0442 0
M  V30 2447 H 233.12 4.24426 4.40082 0
M  V30 2448 H 237.294 5.20559 4.62592 0
M  V30 2449 H 234.921 5.89431 4.80078 0
M  V30 2450 N 236.496 -1.42363 0.676048 0
M  V30 2451 C 237.907 -1.84649 0.275948 0
M  V30 2452 C 238.258 -1.56588 -1.18214 0
M  V30 2453 O 237.383 -1.02634 -1.90513 0
M  V30 2454 C 237.978 -3.35178 0.494053 0
M  V30 2455 C 236.537 -3.76109 0.148061 0
M  V30 2456 C 235.684 -2.65931 0.785891 0
M  V30 2457 H 238.635 -1.32192 0.878121 0
M  V30 2458 H 238.656 -3.79655 -0.25343 0
M  V30 2459 H 238.168 -3.55571 1.55535 0
M  V30 2460 H 236.269 -3.61323 -0.909742 0
M  V30 2461 H 236.382 -4.7546 0.589454 0
M  V30 2462 H 234.746 -2.53773 0.217113 0
M  V30 2463 H 235.529 -2.89146 1.85067 0
M  V30 2464 N 237.974 -0.419461 -1.51915 0
M  V30 2465 C 238.884 0.407528 -2.31033 0
M  V30 2466 C 239.9 1.04413 -1.3919 0
M  V30 2467 O 241.076 1.0434 -1.72265 0
M  V30 2468 C 238.141 1.50365 -3.12396 0
M  V30 2469 C 237.202 0.889029 -4.19994 0
M  V30 2470 C 236.435 1.93291 -4.97468 0
M  V30 2471 O 236.658 3.15259 -4.75361 0
M  V30 2472 O 235.592 1.53339 -5.8204 0
M  V30 2473 H 239.418 -0.237865 -3.02767 0
M  V30 2474 H 237.003 -0.182413 -1.48282 0
M  V30 2475 H 238.885 2.13975 -3.63032 0
M  V30 2476 H 237.56 2.13345 -2.43445 0
M  V30 2477 H 236.467 0.215353 -3.7348 0
M  V30 2478 H 237.8 0.302991 -4.91267 0
M  V30 2479 N 239.452 1.56882 -0.150215 0
M  V30 2480 C 240.863 1.82995 0.370076 0
M  V30 2481 C 241.214 1.06907 1.64515 0
M  V30 2482 O 240.339 0.315369 2.1409 0
M  V30 2483 C 240.934 3.31942 0.678208 0
M  V30 2484 C 239.493 3.58625 1.14301 0
M  V30 2485 C 238.64 2.76792 0.167778 0
M  V30 2486 H 241.591 1.54209 -0.374858 0
M  V30 2487 H 241.612 3.48272 1.53254 0
M  V30 2488 H 241.124 3.87294 -0.249991 0
M  V30 2489 H 239.225 3.08664 2.08704 0
M  V30 2490 H 239.338 4.67073 1.06676 0
M  V30 2491 H 237.702 2.45972 0.661037 0
M  V30 2492 H 238.485 3.34916 -0.754069 0
M  V30 2493 N 240.93 -0.123565 1.57115 0
M  V30 2494 C 242.176 -0.833386 1.84885 0
M  V30 2495 C 242.509 -1.79742 0.735292 0
M  V30 2496 O 241.784 -1.92764 -0.25925 0
M  V30 2497 C 242.067 -1.5873 3.23228 0
M  V30 2498 C 241.92 -0.643183 4.45178 0
M  V30 2499 C 243.239 -2.54453 3.59085 0
M  V30 2500 H 240.358 -0.301518 0.6725 0
M  V30 2501 H 243 -0.097778 1.89748 0
M  V30 2502 H 241.15 -2.21438 3.19214 0
M  V30 2503 H 242.822 -0.0253015 4.61293 0
M  V30 2504 H 241.065 0.0456139 4.33776 0
M  V30 2505 H 241.736 -1.20724 5.38637 0
M  V30 2506 H 244.212 -2.01853 3.63861 0
M  V30 2507 H 243.088 -3.04238 4.5687 0
M  V30 2508 H 243.349 -3.36906 2.86264 0
M  V30 2509 N 242.408 -1.52605 -0.393616 0
M  V30 2510 C 243.636 -1.71294 -1.16043 0
M  V30 2511 C 244.051 -0.429259 -1.83855 0
M  V30 2512 O 243.408 0.595921 -1.72496 0
M  V30 2513 C 243.459 -2.8593 -2.21193 0
M  V30 2514 O 243.18 -4.09329 -1.56146 0
M  V30 2515 C 244.681 -3.16259 -3.10636 0
M  V30 2516 H 241.901 -0.573641 -0.348104 0
M  V30 2517 H 244.445 -1.99234 -0.461092 0
M  V30 2518 H 242.6 -2.60465 -2.86769 0
M  V30 2519 H 243.014 -4.73323 -2.25978 0
M  V30 2520 H 244.488 -3.99946 -3.80456 0
M  V30 2521 H 244.965 -2.3045 -3.73884 0
M  V30 2522 H 245.571 -3.43547 -2.50711 0
M  V30 2523 N 243.887 0.651787 -1.4349 0
M  V30 2524 C 245.133 1.41376 -1.45398 0
M  V30 2525 C 245.466 1.94041 -0.0784823 0
M  V30 2526 O 244.741 1.72379 0.900878 0
M  V30 2527 C 245.024 2.59414 -2.49752 0
M  V30 2528 C 244.877 2.12232 -3.96582 0
M  V30 2529 C 246.196 3.61626 -2.50827 0
M  V30 2530 H 243.315 0.512719 -0.529422 0
M  V30 2531 H 245.957 0.738796 -1.75048 0
M  V30 2532 H 244.107 3.16997 -2.246 0
M  V30 2533 H 245.779 1.59639 -4.32797 0
M  V30 2534 H 244.022 1.43592 -4.09346 0
M  V30 2535 H 244.693 2.9712 -4.65214 0
M  V30 2536 H 247.169 3.13805 -2.7325 0
M  V30 2537 H 246.045 4.41766 -3.25783 0
M  V30 2538 H 246.306 4.14314 -1.5426 0
M  V30 2539 N 245.365 1.30045 0.890287 0
M  V30 2540 C 246.59 1.21598 1.68014 0
M  V30 2541 C 247.015 -0.218678 1.86825 0
M  V30 2542 O 246.373 -1.15756 1.39536 0
M  V30 2543 C 246.421 1.94434 3.03691 0
M  V30 2544 O 245.525 1.2678 3.92429 0
M  V30 2545 H 244.866 0.420856 0.513592 0
M  V30 2546 H 247.396 1.71775 1.11151 0
M  V30 2547 H 247.406 2.03251 3.5377 0
M  V30 2548 H 246.081 2.98777 2.89318 0
M  V30 2549 H 244.658 1.26282 3.50866 0
M  V30 2550 N 246.843 -1.10192 1.12674 0
M  V30 2551 C 248.089 -1.82658 0.894847 0
M  V30 2552 C 248.444 -1.83666 -0.573107 0
M  V30 2553 O 247.737 -1.28816 -1.41835 0
M  V30 2554 C 247.931 -3.28552 1.4067 0
M  V30 2555 C 247.76 -3.41756 2.92289 0
M  V30 2556 C 246.53 -3.54021 3.60551 0
M  V30 2557 C 248.728 -3.34949 3.90274 0
M  V30 2558 N 246.71 -3.55827 5.0026 0
M  V30 2559 C 248.081 -3.43531 5.16127 0
M  V30 2560 C 250.136 -3.18565 3.8265 0
M  V30 2561 C 248.839 -3.37416 6.3525 0
M  V30 2562 C 250.865 -3.13772 5.01299 0
M  V30 2563 C 250.227 -3.22938 6.26012 0
M  V30 2564 H 246.326 -0.683044 0.380756 0
M  V30 2565 H 248.91 -1.31752 1.43351 0
M  V30 2566 H 247.081 -3.77946 0.895055 0
M  V30 2567 H 248.813 -3.88991 1.11661 0
M  V30 2568 H 245.568 -3.57135 3.1105 0
M  V30 2569 H 245.992 -3.60335 5.73138 0
M  V30 2570 H 250.634 -3.10354 2.87124 0
M  V30 2571 H 248.352 -3.44391 7.3104 0
M  V30 2572 H 251.938 -3.02242 4.97133 0
M  V30 2573 H 250.818 -3.19235 7.16281 0
M  V30 2574 N 248.321 -0.919034 -1.28029 0
M  V30 2575 C 249.269 -0.401753 -2.29104 0
M  V30 2576 C 250.263 0.509354 -1.61561 0
M  V30 2577 O 251.469 0.390014 -1.75724 0
M  V30 2578 H 247.844 -0.111331 -0.743713 0
M  V30 2579 H 249.815 -1.2672 -2.70156 0
M  V30 2580 C 248.564 0.338148 -3.46052 0
M  V30 2581 H 247.887 -0.353732 -3.98232 0
M  V30 2582 H 249.327 0.664653 -4.18758 0
M  V30 2583 C 247.786 1.54798 -2.99231 0
M  V30 2584 O 248.316 2.64696 -3.02157 0
M  V30 2585 N 246.522 1.3968 -2.54829 0
M  V30 2586 H 246.069 0.502698 -2.52647 0
M  V30 2587 H 246.027 2.20755 -2.23863 0
M  V30 2588 N 249.799 1.42003 -0.683588 0
M  V30 2589 C 251.024 2.06265 -0.216647 0
M  V30 2590 C 251.449 1.51059 1.12083 0
M  V30 2591 O 250.807 0.632638 1.69904 0
M  V30 2592 C 250.855 3.60191 -0.171759 0
M  V30 2593 O 249.959 4.03396 0.857069 0
M  V30 2594 H 249.3 0.65502 -0.108834 0
M  V30 2595 H 251.83 1.81982 -0.935077 0
M  V30 2596 H 251.84 4.08 0.0014303 0
M  V30 2597 H 250.515 3.99743 -1.14796 0
M  V30 2598 H 249.092 3.67117 0.654208 0
M  V30 2599 N 251.277 0.427512 1.51691 0
M  V30 2600 C 252.525 -0.141948 2.01601 0
M  V30 2601 C 252.846 -1.44067 1.31414 0
M  V30 2602 O 252.116 -1.90763 0.445658 0
M  V30 2603 H 250.696 -0.0554468 0.744939 0
M  V30 2604 H 253.358 0.567968 1.86441 0
M  V30 2605 H 252.454 -0.324913 3.10404 0
M  V30 2606 N 252.755 -1.56801 0.158532 0
M  V30 2607 C 253.718 -2.16138 -0.762705 0
M  V30 2608 C 254.718 -1.1061 -1.16713 0
M  V30 2609 O 255.908 -1.36191 -1.08617 0
M  V30 2610 C 253.04 -2.73386 -2.03649 0
M  V30 2611 H 254.233 -2.98886 -0.246354 0
M  V30 2612 H 251.786 -1.56035 -0.0909744 0
M  V30 2613 H 252.521 -1.94335 -2.59623 0
M  V30 2614 H 252.306 -3.50601 -1.75559 0
M  V30 2615 H 253.796 -3.19065 -2.6942 0
M  V30 2616 N 254.233 0.115231 -1.57178 0
M  V30 2617 C 255.163 1.1423 -2.03651 0
M  V30 2618 C 256.144 1.42967 -0.921655 0
M  V30 2619 O 257.329 1.53343 -1.19162 0
M  V30 2620 C 254.459 2.4675 -2.44401 0
M  V30 2621 C 253.413 2.32467 -3.59365 0
M  V30 2622 C 252.739 3.69984 -3.86026 0
M  V30 2623 C 254.039 1.78203 -4.90959 0
M  V30 2624 H 255.733 0.755749 -2.89705 0
M  V30 2625 H 253.279 0.362093 -1.39373 0
M  V30 2626 H 255.232 3.18854 -2.75517 0
M  V30 2627 H 253.956 2.87302 -1.55322 0
M  V30 2628 H 252.615 1.62811 -3.28463 0
M  V30 2629 H 252.263 4.08028 -2.94147 0
M  V30 2630 H 251.963 3.61279 -4.63412 0
M  V30 2631 H 253.487 4.43587 -4.19599 0
M  V30 2632 H 254.901 2.40128 -5.20587 0
M  V30 2633 H 253.298 1.8031 -5.72371 0
M  V30 2634 H 254.368 0.739876 -4.79222 0
M  V30 2635 N 255.711 1.52812 0.385517 0
M  V30 2636 C 256.939 1.71907 1.15133 0
M  V30 2637 C 257.354 0.439004 1.83625 0
M  V30 2638 O 256.711 -0.586765 1.7281 0
M  V30 2639 C 256.762 2.87099 2.19673 0
M  V30 2640 O 256.483 4.10151 1.53973 0
M  V30 2641 C 257.984 3.17902 3.08955 0
M  V30 2642 H 255.204 0.575479 0.345057 0
M  V30 2643 H 257.748 1.99476 0.45052 0
M  V30 2644 H 255.903 2.61982 2.85384 0
M  V30 2645 H 256.317 4.74514 2.23465 0
M  V30 2646 H 257.791 4.01959 3.7833 0
M  V30 2647 H 258.268 2.3243 3.72657 0
M  V30 2648 H 258.874 3.44871 2.48885 0
M  V30 2649 N 257.189 -0.644168 1.43834 0
M  V30 2650 C 258.414 -1.43642 1.49605 0
M  V30 2651 C 258.839 -1.8773 0.117913 0
M  V30 2652 O 258.197 -1.57938 -0.890239 0
M  V30 2653 C 258.245 -2.6416 2.45463 0
M  V30 2654 O 257.349 -3.63538 1.94714 0
M  V30 2655 H 256.69 -0.430329 0.50568 0
M  V30 2656 H 259.22 -0.787448 1.8884 0
M  V30 2657 H 259.23 -3.11864 2.63068 0
M  V30 2658 H 257.905 -2.31414 3.45572 0
M  V30 2659 H 256.482 -3.2273 1.86814 0
M  V30 2660 N 258.668 -1.30515 -0.883378 0
M  V30 2661 C 259.916 -1.19194 -1.63209 0
M  V30 2662 C 260.237 0.253205 -1.93349 0
M  V30 2663 O 259.507 1.17025 -1.57105 0
M  V30 2664 H 258.087 -0.438148 -0.605009 0
M  V30 2665 H 260.749 -1.63663 -1.05832 0
M  V30 2666 H 259.845 -1.75396 -2.58153 0
M  V30 2667 N 260.146 1.09593 -1.13257 0
M  V30 2668 C 261.392 1.82003 -0.89458 0
M  V30 2669 C 261.725 1.85402 0.577906 0
M  V30 2670 O 261 1.32099 1.42759 0
M  V30 2671 C 261.283 3.28237 -1.48096 0
M  V30 2672 C 261.136 3.3312 -3.02244 0
M  V30 2673 C 262.455 4.24871 -1.14774 0
M  V30 2674 H 259.574 0.66077 -0.326424 0
M  V30 2675 H 262.216 1.28389 -1.40058 0
M  V30 2676 H 260.366 3.74024 -1.05062 0
M  V30 2677 H 262.038 2.95748 -3.54021 0
M  V30 2678 H 260.281 2.72756 -3.37323 0
M  V30 2679 H 260.952 4.3613 -3.38371 0
M  V30 2680 H 263.428 3.87361 -1.51957 0
M  V30 2681 H 262.304 5.25532 -1.58452 0
M  V30 2682 H 262.565 4.42058 -0.0611849 0
M  V30 2683 N 261.624 0.925811 1.2754 0
M  V30 2684 C 262.574 0.394488 2.24561 0
M  V30 2685 C 263.558 -0.500183 1.52928 0
M  V30 2686 O 264.75 -0.337936 1.73744 0
M  V30 2687 C 261.879 -0.353328 3.41477 0
M  V30 2688 C 260.965 0.557752 4.20416 0
M  V30 2689 N 261.356 1.67674 4.77199 0
M  V30 2690 C 259.654 0.360404 4.44541 0
M  V30 2691 C 260.355 2.24324 5.36706 0
M  V30 2692 N 259.331 1.53305 5.21535 0
M  V30 2693 H 263.133 1.2489 2.66045 0
M  V30 2694 H 260.647 0.779864 1.4245 0
M  V30 2695 H 262.644 -0.7509 4.10082 0
M  V30 2696 H 261.304 -1.20469 3.01525 0
M  V30 2697 H 262.315 2.05915 4.75204 0
M  V30 2698 H 258.992 -0.450454 4.15063 0
M  V30 2699 H 260.382 3.18521 5.91603 0
M  V30 2700 N 263.102 -1.41638 0.69111 0
M  V30 2701 C 264.33 -2.05628 0.22909 0
M  V30 2702 C 264.745 -1.51992 -1.11999 0
M  V30 2703 O 264.102 -0.666322 -1.69901 0
M  V30 2704 C 264.153 -3.61084 0.173283 0
M  V30 2705 O 263.874 -4.12735 1.46907 0
M  V30 2706 C 265.375 -4.42213 -0.310266 0
M  V30 2707 H 262.595 -0.662327 0.107534 0
M  V30 2708 H 265.139 -1.81489 0.942438 0
M  V30 2709 H 263.294 -3.84278 -0.490858 0
M  V30 2710 H 263.708 -5.06743 1.35322 0
M  V30 2711 H 265.182 -5.51194 -0.298196 0
M  V30 2712 H 265.659 -4.1799 -1.34838 0
M  V30 2713 H 266.265 -4.24074 0.322716 0
M  V30 2714 N 264.58 -0.43555 -1.51462 0
M  V30 2715 C 265.827 0.131514 -2.02072 0
M  V30 2716 C 266.155 1.42868 -1.31981 0
M  V30 2717 O 265.41 1.91076 -0.422883 0
M  V30 2718 C 265.709 0.39942 -3.55161 0
M  V30 2719 C 265.375 -0.81172 -4.43533 0
M  V30 2720 C 264.037 -1.14387 -4.67407 0
M  V30 2721 C 266.389 -1.61976 -4.95392 0
M  V30 2722 C 263.717 -2.28477 -5.40384 0
M  V30 2723 C 266.069 -2.75164 -5.6962 0
M  V30 2724 C 264.733 -3.08835 -5.91758 0
M  V30 2725 H 264.003 0.0481244 -0.739436 0
M  V30 2726 H 266.65 -0.58238 -1.8243 0
M  V30 2727 H 264.955 1.19519 -3.73125 0
M  V30 2728 H 266.652 0.85157 -3.91854 0
M  V30 2729 H 263.242 -0.542898 -4.25148 0
M  V30 2730 H 267.426 -1.37637 -4.76833 0
M  V30 2731 H 262.682 -2.5488 -5.55739 0
M  V30 2732 H 266.856 -3.38147 -6.08793 0
M  V30 2733 H 264.483 -3.97353 -6.48086 0
M  V30 2734 N 266.058 1.56714 -0.166846 0
M  V30 2735 C 267.469 1.83378 0.350646 0
M  V30 2736 C 267.82 1.08646 1.63372 0
M  V30 2737 O 266.945 0.338058 2.13743 0
M  V30 2738 C 267.54 3.32643 0.642963 0
M  V30 2739 C 266.099 3.59818 1.10491 0
M  V30 2740 C 265.246 2.76954 0.138411 0
M  V30 2741 H 268.197 1.53803 -0.391193 0
M  V30 2742 H 268.218 3.49878 1.49551 0
M  V30 2743 H 267.73 3.87007 -0.291055 0
M  V30 2744 H 265.831 3.1086 2.05418 0
M  V30 2745 H 265.944 4.68178 1.01716 0
M  V30 2746 H 264.308 2.4666 0.634911 0
M  V30 2747 H 265.091 3.34097 -0.789549 0
M  V30 2748 N 267.536 -0.106894 1.57237 0
M  V30 2749 C 268.499 -1.11466 2.0027 0
M  V30 2750 C 269.499 -1.33623 0.894519 0
M  V30 2751 O 270.689 -1.29935 1.16028 0
M  V30 2752 C 267.821 -2.46646 2.35327 0
M  V30 2753 H 269.014 -0.744516 2.90512 0
M  V30 2754 H 266.567 -0.351576 1.52295 0
M  V30 2755 H 267.302 -2.88558 1.48003 0
M  V30 2756 H 267.087 -2.31915 3.16161 0
M  V30 2757 H 268.577 -3.19151 2.69318 0
M  V30 2758 N 269.014 -1.53014 -0.377408 0
M  V30 2759 C 270.26 -1.68872 -1.12294 0
M  V30 2760 C 270.593 -0.433224 -1.89306 0
M  V30 2761 O 269.868 0.569258 -1.85983 0
M  V30 2762 C 270.151 -2.93115 -2.09179 0
M  V30 2763 C 270.004 -4.28794 -1.35853 0
M  V30 2764 C 271.323 -3.12928 -3.09458 0
M  V30 2765 H 268.442 -0.614518 -0.406862 0
M  V30 2766 H 271.084 -1.85633 -0.40503 0
M  V30 2767 H 269.234 -2.78956 -2.70399 0
M  V30 2768 H 270.906 -4.54742 -0.775082 0
M  V30 2769 H 269.149 -4.28744 -0.660364 0
M  V30 2770 H 269.82 -5.11837 -2.06706 0
M  V30 2771 H 272.296 -3.26194 -2.58334 0
M  V30 2772 H 271.172 -4.01316 -3.74482 0
M  V30 2773 H 271.433 -2.27669 -3.78971 0
M  V30 2774 N 270.492 0.636531 -1.44174 0
M  V30 2775 C 271.422 1.76003 -1.53444 0
M  V30 2776 C 272.403 1.65619 -0.387841 0
M  V30 2777 O 273.588 1.84461 -0.607257 0
M  V30 2778 C 270.718 3.14511 -1.4731 0
M  V30 2779 C 269.672 3.39677 -2.60391 0
M  V30 2780 C 268.998 4.78159 -2.39308 0
M  V30 2781 C 270.298 3.32772 -4.02567 0
M  V30 2782 H 271.992 1.68501 -2.47483 0
M  V30 2783 H 269.538 0.809237 -1.19111 0
M  V30 2784 H 271.491 3.92878 -1.52397 0
M  V30 2785 H 270.215 3.22783 -0.49785 0
M  V30 2786 H 268.874 2.63688 -2.54684 0
M  V30 2787 H 268.522 4.83128 -1.39988 0
M  V30 2788 H 268.222 4.95956 -3.15122 0
M  V30 2789 H 269.746 5.58762 -2.46205 0
M  V30 2790 H 271.16 4.01051 -4.09672 0
M  V30 2791 H 269.557 3.62104 -4.7854 0
M  V30 2792 H 270.627 2.30669 -4.2652 0
M  V30 2793 N 271.97 1.30982 0.876444 0
M  V30 2794 C 272.902 1.13902 1.98894 0
M  V30 2795 C 273.915 0.0798815 1.62604 0
M  V30 2796 O 275.104 0.326743 1.75484 0
M  V30 2797 C 272.204 0.716699 3.31235 0
M  V30 2798 C 271.377 1.85945 3.95908 0
M  V30 2799 C 270.436 1.42426 5.06558 0
M  V30 2800 O 269.462 2.13287 5.27729 0
M  V30 2801 N 270.664 0.308025 5.79682 0
M  V30 2802 H 273.429 2.09724 2.14094 0
M  V30 2803 H 270.99 1.2323 1.05004 0
M  V30 2804 H 272.982 0.408403 4.02634 0
M  V30 2805 H 271.552 -0.149719 3.12241 0
M  V30 2806 H 270.772 2.33541 3.17573 0
M  V30 2807 H 272.06 2.62503 4.35855 0
M  V30 2808 H 271.458 -0.282241 5.64995 0
M  V30 2809 H 270.015 0.0592282 6.51773 0
M  V30 2810 N 273.449 -1.08991 1.13837 0
M  V30 2811 C 274.674 -1.85551 0.926585 0
M  V30 2812 C 275.099 -1.80782 -0.519566 0
M  V30 2813 O 274.457 -1.18855 -1.36906 0
M  V30 2814 C 274.505 -3.31266 1.42462 0
M  V30 2815 O 273.609 -4.07822 0.612789 0
M  V30 2816 H 272.95 -0.575192 0.331738 0
M  V30 2817 H 275.48 -1.37604 1.51414 0
M  V30 2818 H 275.49 -3.82112 1.43019 0
M  V30 2819 H 274.165 -3.34052 2.47754 0
M  V30 2820 H 272.742 -3.66731 0.675463 0
M  V30 2821 N 274.927 -0.932562 -1.27047 0
M  V30 2822 C 276.152 -0.591474 -1.98787 0
M  V30 2823 C 276.577 0.824601 -1.69062 0
M  V30 2824 O 275.935 1.5541 -0.933677 0
M  V30 2825 C 275.983 -0.829808 -3.50922 0
M  V30 2826 O 275.087 0.102266 -4.12273 0
M  V30 2827 H 274.428 -0.227185 -0.623926 0
M  V30 2828 H 276.958 -1.25314 -1.61733 0
M  V30 2829 H 276.968 -0.747292 -4.01098 0
M  V30 2830 H 275.643 -1.86201 -3.7189 0
M  V30 2831 H 274.22 -0.0305761 -3.72887 0
M  V30 2832 N 276.405 1.4127 -0.698611 0
M  V30 2833 C 277.653 2.00782 -0.230409 0
M  V30 2834 C 277.974 1.5562 1.17505 0
M  V30 2835 O 277.244 0.78815 1.79346 0
M  V30 2836 H 275.824 0.742464 -0.0821944 0
M  V30 2837 H 278.486 1.72852 -0.90045 0
M  V30 2838 H 277.582 3.11095 -0.25021 0
M  V30 2839 N 277.883 0.443576 1.51229 0
M  V30 2840 C 278.813 -0.355142 2.30783 0
M  V30 2841 C 279.794 -1.0154 1.36468 0
M  V30 2842 O 280.979 -1.01785 1.65389 0
M  V30 2843 C 278.109 -1.45312 3.15439 0
M  V30 2844 C 277.063 -0.916002 4.18083 0
M  V30 2845 C 276.389 -2.1102 4.91299 0
M  V30 2846 C 277.689 0.0538602 5.22272 0
M  V30 2847 H 279.383 0.308767 2.97804 0
M  V30 2848 H 276.929 0.149937 1.43217 0
M  V30 2849 H 278.882 -2.01914 3.69876 0
M  V30 2850 H 277.606 -2.14541 2.46252 0
M  V30 2851 H 276.265 -0.372145 3.64706 0
M  V30 2852 H 275.913 -2.78882 4.18609 0
M  V30 2853 H 275.613 -1.75717 5.60712 0
M  V30 2854 H 277.137 -2.68164 5.48562 0
M  V30 2855 H 278.551 -0.422069 5.71744 0
M  V30 2856 H 276.948 0.319776 5.99247 0
M  V30 2857 H 278.018 0.98858 4.74716 0
M  V30 2858 N 279.361 -1.56624 0.175154 0
M  V30 2859 C 280.591 -2.01082 -0.474283 0
M  V30 2860 C 280.999 -1.05447 -1.57091 0
M  V30 2861 O 280.342 -0.0480595 -1.83637 0
M  V30 2862 C 280.404 -3.41963 -1.10911 0
M  V30 2863 C 280.068 -4.56742 -0.153666 0
M  V30 2864 C 281.065 -5.16076 0.629448 0
M  V30 2865 C 278.75 -5.02277 -0.0483776 0
M  V30 2866 C 280.744 -6.19377 1.50501 0
M  V30 2867 C 278.431 -6.05427 0.830768 0
M  V30 2868 C 279.429 -6.63849 1.60605 0
M  V30 2869 O 279.117 -7.64998 2.47049 0
M  V30 2870 H 278.849 -0.664261 -0.125432 0
M  V30 2871 H 281.403 -2.03549 0.275163 0
M  V30 2872 H 279.633 -3.36422 -1.90676 0
M  V30 2873 H 281.322 -3.70352 -1.66114 0
M  V30 2874 H 282.088 -4.81776 0.558297 0
M  V30 2875 H 277.967 -4.56513 -0.641611 0
M  V30 2876 H 281.511 -6.64906 2.1106 0
M  V30 2877 H 277.408 -6.39151 0.903107 0
M  V30 2878 H 278.176 -7.82336 2.40607 0
M  V30 2879 N 280.839 0.0985539 -1.57292 0
M  V30 2880 C 282.064 0.820196 -1.90493 0
M  V30 2881 C 282.489 1.71658 -0.769094 0
M  V30 2882 O 281.847 1.79133 0.279495 0
M  V30 2883 C 281.895 1.61242 -3.22542 0
M  V30 2884 O 280.999 2.72108 -3.09888 0
M  V30 2885 H 280.34 0.225547 -0.62452 0
M  V30 2886 H 282.87 0.0748159 -2.04463 0
M  V30 2887 H 282.88 1.99737 -3.55766 0
M  V30 2888 H 281.555 0.954535 -4.04798 0
M  V30 2889 H 280.132 2.36667 -2.88172 0
M  V30 2890 N 282.317 1.53212 0.369288 0
M  V30 2891 C 283.247 1.82365 1.45826 0
M  V30 2892 C 284.228 0.676907 1.56051 0
M  V30 2893 O 285.413 0.926401 1.70679 0
M  V30 2894 C 282.543 2.01023 2.83208 0
M  V30 2895 C 281.497 3.1678 2.8781 0
M  V30 2896 C 280.823 3.20724 4.27832 0
M  V30 2897 C 282.123 4.55447 2.55667 0
M  V30 2898 H 283.817 2.73559 1.21678 0
M  V30 2899 H 281.363 1.3163 0.583911 0
M  V30 2900 H 283.316 2.20001 3.59413 0
M  V30 2901 H 282.04 1.06536 3.08736 0
M  V30 2902 H 280.699 2.97616 2.14056 0
M  V30 2903 H 280.347 2.23882 4.50429 0
M  V30 2904 H 280.047 3.98496 4.31827 0
M  V30 2905 H 281.571 3.41881 5.05915 0
M  V30 2906 H 282.985 4.74611 3.21586 0
M  V30 2907 H 281.382 5.35432 2.70984 0
M  V30 2908 H 282.452 4.60812 1.5093 0
M  V30 2909 N 283.795 -0.628877 1.44509 0
M  V30 2910 C 285.02 -1.42048 1.5112 0
M  V30 2911 C 285.445 -1.87594 0.137818 0
M  V30 2912 O 284.803 -1.58873 -0.873437 0
M  V30 2913 C 284.851 -2.61541 2.48251 0
M  V30 2914 O 283.955 -3.61453 1.98559 0
M  V30 2915 H 283.296 -0.424942 0.510216 0
M  V30 2916 H 285.826 -0.767374 1.89664 0
M  V30 2917 H 285.836 -3.09057 2.66361 0
M  V30 2918 H 284.511 -2.27736 3.48007 0
M  V30 2919 H 283.088 -3.20731 1.90227 0
M  V30 2920 N 285.273 -1.31445 -0.869486 0
M  V30 2921 C 286.498 -1.24256 -1.66058 0
M  V30 2922 C 286.923 0.188928 -1.87149 0
M  V30 2923 O 286.281 1.13522 -1.4136 0
M  V30 2924 C 286.329 -1.9924 -3.00559 0
M  V30 2925 O 285.433 -1.33007 -3.90362 0
M  V30 2926 H 284.774 -0.428973 -0.506831 0
M  V30 2927 H 287.304 -1.73521 -1.08404 0
M  V30 2928 H 287.314 -2.08854 -3.50491 0
M  V30 2929 H 285.989 -3.03342 -2.84528 0
M  V30 2930 H 284.566 -1.31848 -3.48813 0
M  V30 2931 N 286.751 1.08385 -1.14413 0
M  V30 2932 C 287.997 1.81044 -0.913834 0
M  V30 2933 C 288.33 1.86004 0.558209 0
M  V30 2934 O 287.605 1.33606 1.4135 0
M  V30 2935 C 287.888 3.26648 -1.51569 0
M  V30 2936 C 287.741 3.29895 -3.0576 0
M  V30 2937 C 289.06 4.23629 -1.19273 0
M  V30 2938 H 286.179 0.65727 -0.333414 0
M  V30 2939 H 288.821 1.26896 -1.41412 0
M  V30 2940 H 286.971 3.72889 -1.09023 0
M  V30 2941 H 288.643 2.91977 -3.57137 0
M  V30 2942 H 286.886 2.69163 -3.40197 0
M  V30 2943 H 287.557 4.32516 -3.42977 0
M  V30 2944 H 290.033 3.85727 -1.56057 0
M  V30 2945 H 288.909 5.23822 -1.64017 0
M  V30 2946 H 289.17 4.41968 -0.108068 0
M  V30 2947 N 288.23 0.939286 1.26551 0
M  V30 2948 C 289.476 0.586715 1.94128 0
M  V30 2949 C 289.809 -0.8717 1.73537 0
M  V30 2950 O 289.084 -1.62339 1.07127 0
M  V30 2951 C 289.367 0.927497 3.4795 0
M  V30 2952 C 289.22 2.44052 3.77834 0
M  V30 2953 C 290.539 0.441569 4.37879 0
M  V30 2954 H 287.658 0.21463 0.705055 0
M  V30 2955 H 290.3 1.17316 1.49455 0
M  V30 2956 H 288.45 0.428431 3.8613 0
M  V30 2957 H 290.122 3.01216 3.4938 0
M  V30 2958 H 288.365 2.8848 3.23978 0
M  V30 2959 H 289.036 2.62947 4.85348 0
M  V30 2960 H 291.512 0.869448 4.06915 0
M  V30 2961 H 290.388 0.708856 5.44304 0
M  V30 2962 H 290.649 -0.658467 4.37169 0
M  V30 2963 N 289.708 -1.40897 0.706093 0
M  V30 2964 C 290.936 -2.05373 0.250887 0
M  V30 2965 C 291.351 -1.53172 -1.10381 0
M  V30 2966 O 290.708 -0.684305 -1.69185 0
M  V30 2967 C 290.759 -3.6088 0.211571 0
M  V30 2968 O 290.48 -4.11153 1.51276 0
M  V30 2969 C 291.981 -4.42517 -0.263346 0
M  V30 2970 H 289.201 -0.66115 0.114552 0
M  V30 2971 H 291.745 -1.80479 0.961635 0
M  V30 2972 H 289.9 -3.84777 -0.450073 0
M  V30 2973 H 290.314 -5.05279 1.40689 0
M  V30 2974 H 291.788 -5.51479 -0.239718 0
M  V30 2975 H 292.265 -4.19396 -1.30397 0
M  V30 2976 H 292.871 -4.23708 0.367677 0
M  V30 2977 N 291.186 -0.45159 -1.50991 0
M  V30 2978 C 292.432 0.110237 -2.025 0
M  V30 2979 C 292.765 1.41109 -1.33424 0
M  V30 2980 O 292.04 1.89135 -0.453659 0
M  V30 2981 C 292.323 0.314271 -3.58726 0
M  V30 2982 C 292.176 -1.00623 -4.38401 0
M  V30 2983 C 293.495 1.07767 -4.26702 0
M  V30 2984 H 290.614 0.0385897 -0.735989 0
M  V30 2985 H 293.256 -0.593374 -1.80497 0
M  V30 2986 H 291.406 0.913601 -3.77605 0
M  V30 2987 H 293.078 -1.64064 -4.31139 0
M  V30 2988 H 291.321 -1.6075 -4.02917 0
M  V30 2989 H 291.992 -0.817341 -5.45915 0
M  V30 2990 H 294.468 0.56986 -4.12179 0
M  V30 2991 H 293.344 1.18921 -5.35863 0
M  V30 2992 H 293.605 2.10939 -3.88532 0
M  V30 2993 N 292.664 1.56529 -0.183458 0
M  V30 2994 C 294.075 1.83739 0.331177 0
M  V30 2995 C 294.426 1.10373 1.62211 0
M  V30 2996 O 293.551 0.36071 2.13373 0
M  V30 2997 C 294.146 3.33306 0.607646 0
M  V30 2998 C 292.705 3.60969 1.06668 0
M  V30 2999 C 291.852 2.77086 0.109029 0
M  V30 3000 H 294.803 1.53379 -0.407484 0
M  V30 3001 H 294.824 3.51444 1.45832 0
M  V30 3002 H 294.336 3.86677 -0.332086 0
M  V30 3003 H 292.437 3.13021 2.0211 0
M  V30 3004 H 292.55 4.69231 0.967447 0
M  V30 3005 H 290.914 2.47319 0.608714 0
M  V30 3006 H 291.697 3.33241 -0.82494 0
M  V30 3007 N 294.142 -0.090211 1.57342 0
M  V30 3008 C 295.367 -0.810082 1.90925 0
M  V30 3009 C 295.792 -1.71248 0.778187 0
M  V30 3010 O 295.15 -1.79278 -0.269991 0
M  V30 3011 C 295.198 -1.59529 3.23393 0
M  V30 3012 O 294.302 -2.70461 3.11327 0
M  V30 3013 H 293.643 -0.222231 0.625707 0
M  V30 3014 H 296.173 -0.0639716 2.045 0
M  V30 3015 H 296.183 -1.97847 3.5682 0
M  V30 3016 H 294.858 -0.933055 4.05299 0
M  V30 3017 H 293.435 -2.35135 2.89423 0
M  V30 3018 N 295.62 -1.53406 -0.361157 0
M  V30 3019 C 296.845 -1.74024 -1.12829 0
M  V30 3020 C 297.27 -0.470069 -1.82132 0
M  V30 3021 O 296.628 0.57619 -1.719 0
M  V30 3022 C 296.676 -2.90903 -2.13091 0
M  V30 3023 O 295.78 -2.59821 -3.20261 0
M  V30 3024 H 295.121 -0.577804 -0.327168 0
M  V30 3025 H 297.651 -2.00307 -0.41693 0
M  V30 3026 H 297.661 -3.17194 -2.56616 0
M  V30 3027 H 296.336 -3.83034 -1.62042 0
M  V30 3028 H 294.913 -2.44362 -2.81677 0
M  V30 3029 N 297.098 0.621204 -1.44841 0
M  V30 3030 C 298.323 1.41244 -1.51871 0
M  V30 3031 C 298.748 1.87519 -0.147764 0
M  V30 3032 O 298.106 1.59334 0.865 0
M  V30 3033 C 298.154 2.60221 -2.49634 0
M  V30 3034 O 297.258 3.60395 -2.00473 0
M  V30 3035 H 296.599 0.42223 -0.512463 0
M  V30 3036 H 299.129 0.757305 -1.90069 0
M  V30 3037 H 299.139 3.0764 -2.67996 0
M  V30 3038 H 297.814 2.25887 -3.4921 0
M  V30 3039 H 296.391 3.19717 -1.91925 0
M  V30 3040 N 298.576 1.31904 0.862503 0
M  V30 3041 C 299.506 1.22782 1.98612 0
M  V30 3042 C 300.487 0.113362 1.69722 0
M  V30 3043 O 301.672 0.299218 1.91881 0
M  V30 3044 C 298.802 0.942058 3.34279 0
M  V30 3045 C 297.756 2.0169 3.77499 0
M  V30 3046 C 297.082 1.58369 5.10709 0
M  V30 3047 C 298.382 3.43096 3.93805 0
M  V30 3048 H 300.076 2.16788 2.06502 0
M  V30 3049 H 297.622 1.04366 0.992154 0
M  V30 3050 H 299.575 0.864818 4.1243 0
M  V30 3051 H 298.299 -0.0336603 3.26583 0
M  V30 3052 H 296.958 2.08416 3.01593 0
M  V30 3053 H 296.606 0.595628 4.99461 0
M  V30 3054 H 296.306 2.30279 5.40597 0
M  V30 3055 H 297.83 1.52067 5.91361 0
M  V30 3056 H 299.244 3.39003 4.62331 0
M  V30 3057 H 297.641 4.13288 4.35101 0
M  V30 3058 H 298.711 3.83334 2.96957 0
M  V30 3059 N 300.054 -1.07777 1.14986 0
M  V30 3060 C 301.302 -1.79934 0.920235 0
M  V30 3061 C 301.623 -1.86955 -0.554336 0
M  V30 3062 O 300.893 -1.36731 -1.40291 0
M  V30 3063 H 299.473 -0.666424 0.337473 0
M  V30 3064 H 302.135 -1.3027 1.44968 0
M  V30 3065 H 301.231 -2.82539 1.32583 0
M  V30 3066 N 301.532 -0.945985 -1.26051 0
M  V30 3067 C 302.76 -0.613025 -1.9761 0
M  V30 3068 C 303.175 0.813035 -1.70397 0
M  V30 3069 O 302.532 1.54274 -0.974979 0
M  V30 3070 C 302.583 -0.85159 -3.51326 0
M  V30 3071 O 302.304 -2.22157 -3.77595 0
M  V30 3072 C 303.805 -0.529831 -4.40122 0
M  V30 3073 H 301.025 -0.230593 -0.630133 0
M  V30 3074 H 303.569 -1.268 -1.60443 0
M  V30 3075 H 301.724 -0.243151 -3.86636 0
M  V30 3076 H 302.138 -2.2852 -4.721 0
M  V30 3077 H 303.612 -0.747348 -5.46917 0
M  V30 3078 H 304.089 0.535341 -4.35925 0
M  V30 3079 H 304.695 -1.11721 -4.10364 0
M  V30 3080 N 303.011 1.40521 -0.713556 0
M  V30 3081 C 303.943 2.29191 -0.0203126 0
M  V30 3082 C 304.956 1.45723 0.725864 0
M  V30 3083 O 306.145 1.69033 0.573581 0
M  V30 3084 C 303.245 3.2395 0.995486 0
M  V30 3085 C 302.418 4.36262 0.315256 0
M  V30 3086 C 301.477 5.11474 1.23616 0
M  V30 3087 O 300.503 5.64606 0.721719 0
M  V30 3088 N 301.705 5.20638 2.56743 0
M  V30 3089 H 304.47 2.89327 -0.781652 0
M  V30 3090 H 302.031 1.51869 -0.561022 0
M  V30 3091 H 304.023 3.71137 1.61368 0
M  V30 3092 H 302.593 2.64995 1.6582 0
M  V30 3093 H 301.813 3.91228 -0.483106 0
M  V30 3094 H 303.101 5.08558 -0.157004 0
M  V30 3095 H 302.499 4.7895 3.01037 0
M  V30 3096 H 301.056 5.71339 3.13712 0
M  V30 3097 N 304.489 0.459591 1.5075 0
M  V30 3098 C 305.717 -0.0973749 2.06671 0
M  V30 3099 C 306.132 -1.34524 1.32472 0
M  V30 3100 O 305.489 -1.7827 0.390634 0
M  V30 3101 C 305.54 -0.39714 3.59312 0
M  V30 3102 O 305.261 0.801214 4.30711 0
M  V30 3103 C 306.762 -1.00234 4.31819 0
M  V30 3104 H 303.982 0.00195854 0.670997 0
M  V30 3105 H 306.526 0.645072 1.94059 0
M  V30 3106 H 304.681 -1.08951 3.71764 0
M  V30 3107 H 305.095 0.538857 5.21725 0
M  V30 3108 H 306.569 -1.16193 5.39632 0
M  V30 3109 H 307.046 -1.98939 3.91561 0
M  V30 3110 H 307.652 -0.348699 4.23868 0
M  V30 3111 N 305.967 -1.56429 0.191757 0
M  V30 3112 C 307.197 -2.01574 -0.452928 0
M  V30 3113 C 307.605 -1.07107 -1.55964 0
M  V30 3114 O 306.948 -0.067534 -1.83576 0
M  V30 3115 C 307.01 -3.43121 -1.07278 0
M  V30 3116 C 306.674 -4.56879 -0.105214 0
M  V30 3117 C 307.671 -5.15379 0.684149 0
M  V30 3118 C 305.356 -5.023 0.00489824 0
M  V30 3119 C 307.35 -6.17746 1.57062 0
M  V30 3120 C 305.037 -6.04511 0.894935 0
M  V30 3121 C 306.035 -6.62108 1.67637 0
M  V30 3122 O 305.723 -7.62335 2.55149 0
M  V30 3123 H 305.455 -0.665554 -0.118379 0
M  V30 3124 H 308.009 -2.03245 0.296737 0
M  V30 3125 H 306.239 -3.38425 -1.87097 0
M  V30 3126 H 307.928 -3.72093 -1.62177 0
M  V30 3127 H 308.694 -4.81157 0.609365 0
M  V30 3128 H 304.573 -4.57168 -0.593156 0
M  V30 3129 H 308.117 -6.6263 2.181 0
M  V30 3130 H 304.014 -6.38157 0.970847 0
M  V30 3131 H 304.782 -7.79741 2.48892 0
M  V30 3132 N 307.445 0.0818655 -1.57387 0
M  V30 3133 C 308.694 0.781681 -1.85937 0
M  V30 3134 C 309.007 1.79246 -0.782957 0
M  V30 3135 O 310.213 2.54112 -0.955987 0
M  V30 3136 C 308.669 1.44109 -3.29789 0
M  V30 3137 C 308.277 0.469396 -4.45534 0
M  V30 3138 C 310.021 2.12386 -3.67549 0
M  V30 3139 C 307.928 1.13415 -5.80423 0
M  V30 3140 H 306.858 0.295682 -0.693605 0
M  V30 3141 H 309.509 0.0348051 -1.83467 0
M  V30 3142 H 307.891 2.23588 -3.2684 0
M  V30 3143 H 309.065 -0.294856 -4.59856 0
M  V30 3144 H 307.38 -0.108383 -4.16259 0
M  V30 3145 H 309.977 2.62878 -4.65617 0
M  V30 3146 H 310.32 2.91877 -2.96839 0
M  V30 3147 H 310.853 1.39751 -3.72444 0
M  V30 3148 H 307.592 0.379771 -6.54399 0
M  V30 3149 H 307.112 1.8695 -5.69921 0
M  V30 3150 H 308.791 1.65686 -6.25426 0
M  V30 3151 N 308.923 1.53595 0.353017 0
M  V30 3152 C 310.163 1.72094 1.10286 0
M  V30 3153 C 310.527 0.469217 1.86178 0
M  V30 3154 O 311.728 0.531083 2.63501 0
M  V30 3155 C 309.999 2.94386 2.02661 0
M  V30 3156 S 311.558 3.33651 2.84996 0
M  V30 3157 H 308.376 0.605433 0.372789 0
M  V30 3158 H 310.978 1.91722 0.38248 0
M  V30 3159 H 309.682 3.83669 1.45691 0
M  V30 3160 H 309.213 2.77197 2.79152 0
M  V30 3161 H 311.228 2.86645 4.0503 0
M  V30 3162 N 310.401 -0.613514 1.45168 0
M  V30 3163 C 311.349 -1.74572 1.53712 0
M  V30 3164 C 312.343 -1.64426 0.407505 0
M  V30 3165 O 313.549 -1.70291 0.583176 0
M  V30 3166 H 309.924 -0.576641 0.48269 0
M  V30 3167 H 311.895 -1.64492 2.48968 0
M  V30 3168 C 310.644 -3.12943 1.51532 0
M  V30 3169 H 309.967 -3.21407 2.37776 0
M  V30 3170 H 311.407 -3.9201 1.61569 0
M  V30 3171 C 309.866 -3.36053 0.238798 0
M  V30 3172 O 310.396 -3.95837 -0.6838 0
M  V30 3173 N 308.602 -2.9028 0.136359 0
M  V30 3174 H 308.149 -2.41811 0.887999 0
M  V30 3175 H 308.107 -3.06116 -0.716944 0
M  V30 3176 N 311.879 -1.3236 -0.855495 0
M  V30 3177 C 313.125 -1.23054 -1.612 0
M  V30 3178 C 313.458 0.207404 -1.93089 0
M  V30 3179 O 312.733 1.14432 -1.57275 0
M  V30 3180 C 313.016 -2.08937 -2.93287 0
M  V30 3181 C 312.869 -3.61105 -2.68185 0
M  V30 3182 C 314.188 -1.94986 -3.94549 0
M  V30 3183 H 311.307 -0.448364 -0.584926 0
M  V30 3184 H 313.949 -1.62297 -0.987917 0
M  V30 3185 H 312.099 -1.75599 -3.46551 0
M  V30 3186 H 313.771 -4.04652 -2.21483 0
M  V30 3187 H 312.014 -3.83813 -2.02164 0
M  V30 3188 H 312.685 -4.16522 -3.62234 0
M  V30 3189 H 315.161 -2.24189 -3.5054 0
M  V30 3190 H 314.037 -2.57356 -4.84829 0
M  V30 3191 H 314.298 -0.917263 -4.3248 0
M  V30 3192 N 313.357 1.07166 -1.15556 0
M  V30 3193 C 314.305 2.16517 -0.8499 0
M  V30 3194 C 315.299 1.68468 0.177454 0
M  V30 3195 O 316.505 1.79971 0.0323026 0
M  V30 3196 H 312.88 0.706652 -0.25719 0
M  V30 3197 H 314.851 2.39514 -1.77976 0
M  V30 3198 C 313.6 3.45855 -0.357682 0
M  V30 3199 H 312.923 3.83214 -1.13961 0
M  V30 3200 H 314.363 4.23607 -0.182489 0
M  V30 3201 C 312.822 3.24062 0.921152 0
M  V30 3202 O 313.352 3.48813 1.9923 0
M  V30 3203 N 311.558 2.77539 0.86141 0
M  V30 3204 H 311.105 2.57598 -0.0104408 0
M  V30 3205 H 311.063 2.63337 1.71758 0
M  V30 3206 N 314.835 0.952656 1.25548 0
M  V30 3207 C 315.785 0.442033 2.23674 0
M  V30 3208 C 316.769 -0.467632 1.53955 0
M  V30 3209 O 317.961 -0.301006 1.74422 0
M  V30 3210 C 315.09 -0.280816 3.4215 0
M  V30 3211 C 314.176 0.646803 4.19139 0
M  V30 3212 N 314.567 1.77759 4.73535 0
M  V30 3213 C 312.865 0.454617 4.43677 0
M  V30 3214 C 313.566 2.35658 5.31827 0
M  V30 3215 N 312.542 1.64333 5.18166 0
M  V30 3216 H 316.344 1.30505 2.63336 0
M  V30 3217 H 313.858 0.809904 1.40763 0
M  V30 3218 H 315.855 -0.663747 4.11582 0
M  V30 3219 H 314.515 -1.14046 3.04012 0
M  V30 3220 H 315.526 2.15949 4.7073 0
M  V30 3221 H 312.203 -0.362312 4.15925 0
M  V30 3222 H 313.593 3.30998 5.84713 0
M  V30 3223 N 316.313 -1.40141 0.720998 0
M  V30 3224 C 317.26 -2.30688 0.071919 0
M  V30 3225 C 318.23 -1.48476 -0.744584 0
M  V30 3226 O 319.415 -1.77201 -0.707423 0
M  V30 3227 C 316.555 -3.34724 -0.839855 0
M  V30 3228 C 315.668 -4.31998 -0.0122438 0
M  V30 3229 C 314.803 -5.23102 -0.923995 0
M  V30 3230 C 313.842 -6.12033 -0.0907969 0
M  V30 3231 N 312.979 -6.95537 -0.957718 0
M  V30 3232 H 317.819 -2.85628 0.849755 0
M  V30 3233 H 315.356 -1.40653 0.430726 0
M  V30 3234 H 317.314 -3.93618 -1.38279 0
M  V30 3235 H 315.944 -2.81274 -1.58381 0
M  V30 3236 H 314.996 -3.74841 0.64794 0
M  V30 3237 H 316.308 -4.94772 0.632595 0
M  V30 3238 H 315.462 -5.86953 -1.53527 0
M  V30 3239 H 314.201 -4.60615 -1.60264 0
M  V30 3240 H 313.206 -5.47207 0.533377 0
M  V30 3241 H 314.431 -6.76581 0.584428 0
M  V30 3242 H 312.377 -6.35633 -1.62192 0
M  V30 3243 H 312.294 -7.55099 -0.36904 0
M  V30 3244 H 313.562 -7.63832 -1.555 0
M  V30 3245 N 317.792 -0.46758 -1.50504 0
M  V30 3246 C 319.203 -0.0116166 -1.86696 0
M  V30 3247 C 319.554 1.39202 -1.38265 0
M  V30 3248 O 318.679 2.0313 -0.746132 0
M  V30 3249 C 319.274 -0.0143044 -3.38797 0
M  V30 3250 C 317.833 0.386175 -3.74414 0
M  V30 3251 C 316.98 -0.401287 -2.74381 0
M  V30 3252 H 319.931 -0.682022 -1.43297 0
M  V30 3253 H 319.952 0.788641 -3.72237 0
M  V30 3254 H 319.464 -1.03602 -3.74016 0
M  V30 3255 H 317.565 1.41237 -3.44794 0
M  V30 3256 H 317.678 0.0899596 -4.79016 0
M  V30 3257 H 316.042 0.144536 -2.5429 0
M  V30 3258 H 316.825 -1.42244 -3.12444 0
M  V30 3259 N 319.27 1.56325 -0.20005 0
M  V30 3260 C 320.495 2.02548 0.44597 0
M  V30 3261 C 320.92 1.07922 1.5406 0
M  V30 3262 O 320.278 0.0635775 1.81188 0
M  V30 3263 C 320.326 3.47175 0.974761 0
M  V30 3264 O 319.43 3.55671 2.08739 0
M  V30 3265 H 318.771 0.655862 0.103638 0
M  V30 3266 H 321.301 2.02201 -0.312381 0
M  V30 3267 H 321.311 3.87067 1.2901 0
M  V30 3268 H 319.986 4.15538 0.17347 0
M  V30 3269 H 318.563 3.27657 1.78032 0
M  V30 3270 N 320.748 -0.0735177 1.57428 0
M  V30 3271 C 321.696 -1.10628 2.04607 0
M  V30 3272 C 322.69 -1.40181 0.951088 0
M  V30 3273 O 323.896 -1.39608 1.1362 0
M  V30 3274 H 320.271 -0.374088 0.652351 0
M  V30 3275 H 322.242 -0.682218 2.90497 0
M  V30 3276 C 320.991 -2.41212 2.50423 0
M  V30 3277 H 320.314 -2.19322 3.34272 0
M  V30 3278 H 321.754 -3.11927 2.87189 0
M  V30 3279 C 320.213 -3.0705 1.38644 0
M  V30 3280 O 320.743 -3.95056 0.727582 0
M  V30 3281 N 318.949 -2.67645 1.132 0
M  V30 3282 H 318.496 -1.96169 1.66959 0
M  V30 3283 H 318.454 -3.1202 0.386147 0
M  V30 3284 N 322.226 -1.5378 -0.344866 0
M  V30 3285 C 323.454 -1.74899 -1.10534 0
M  V30 3286 C 323.869 -0.487534 -1.82397 0
M  V30 3287 O 323.226 0.540741 -1.74305 0
M  V30 3288 C 323.277 -2.92822 -2.11984 0
M  V30 3289 O 322.998 -4.14089 -1.43044 0
M  V30 3290 C 324.499 -3.25982 -3.00417 0
M  V30 3291 H 321.719 -0.584426 -0.329678 0
M  V30 3292 H 324.263 -2.006 -0.397474 0
M  V30 3293 H 322.418 -2.69457 -2.78338 0
M  V30 3294 H 322.832 -4.80272 -2.10805 0
M  V30 3295 H 324.306 -4.11848 -3.67539 0
M  V30 3296 H 324.783 -2.42228 -3.66363 0
M  V30 3297 H 325.389 -3.51349 -2.39654 0
M  V30 3298 N 323.704 0.605807 -1.45491 0
M  V30 3299 C 324.651 1.7164 -1.54299 0
M  V30 3300 C 325.621 1.61486 -0.388761 0
M  V30 3301 O 326.806 1.81039 -0.602445 0
M  V30 3302 C 323.946 3.09953 -1.51734 0
M  V30 3303 C 323.059 3.309 -2.77721 0
M  V30 3304 C 322.194 4.59329 -2.66816 0
M  V30 3305 C 321.233 4.7354 -3.87848 0
M  V30 3306 N 320.37 5.9327 -3.75467 0
M  V30 3307 H 325.21 1.63449 -2.49176 0
M  V30 3308 H 322.747 0.796957 -1.23641 0
M  V30 3309 H 324.705 3.89977 -1.48235 0
M  V30 3310 H 323.335 3.17098 -0.604068 0
M  V30 3311 H 322.387 2.44639 -2.913 0
M  V30 3312 H 323.699 3.37274 -3.67488 0
M  V30 3313 H 322.853 5.4755 -2.61292 0
M  V30 3314 H 321.592 4.55355 -1.74651 0
M  V30 3315 H 320.597 3.83741 -3.93729 0
M  V30 3316 H 321.822 4.79309 -4.81082 0
M  V30 3317 H 319.768 5.90338 -2.86072 0
M  V30 3318 H 319.685 6.00811 -4.5887 0
M  V30 3319 H 320.953 6.83984 -3.73879 0
M  V30 3320 N 325.182 1.32811 0.848464 0
M  V30 3321 C 326.428 1.23907 1.60546 0
M  V30 3322 C 326.761 -0.197161 1.93197 0
M  V30 3323 O 326.036 -1.13596 1.5788 0
M  V30 3324 C 326.319 2.10489 2.92175 0
M  V30 3325 C 326.172 3.62522 2.66266 0
M  V30 3326 C 327.491 1.97075 3.93509 0
M  V30 3327 H 324.61 0.451459 0.58254 0
M  V30 3328 H 327.252 1.62818 0.979296 0
M  V30 3329 H 325.402 1.77434 3.45614 0
M  V30 3330 H 327.074 4.05821 2.19334 0
M  V30 3331 H 325.317 3.84879 2.00126 0
M  V30 3332 H 325.988 4.18437 3.6002 0
M  V30 3333 H 328.464 2.26045 3.49346 0
M  V30 3334 H 327.34 2.59923 4.83457 0
M  V30 3335 H 327.601 0.940186 4.31987 0
M  V30 3336 N 326.66 -1.06551 1.16123 0
M  V30 3337 C 327.937 -1.76097 0.85142 0
M  V30 3338 C 328.317 -2.00802 -0.6513 0
M  V30 3339 O 327.665 -1.63302 -1.59827 0
M  V30 3340 C 327.875 -3.06384 1.67122 0
M  V30 3341 C 329.223 -3.80585 1.88255 0
M  V30 3342 O 330.247 -3.16218 1.63966 0
M  V30 3343 O 329.106 -4.96212 2.2899 0
M  V30 3344 H 326.2 -0.765102 0.313923 0
M  V30 3345 H 328.746 -1.12844 1.26745 0
M  V30 3346 H 327.518 -2.84071 2.69108 0
M  V30 3347 H 327.141 -3.77371 1.25206 0
M  V30 3348 N 328.138 -0.959301 -1.25041 0
M  V30 3349 C 329.085 -0.482057 -2.2571 0
M  V30 3350 C 330.055 0.467939 -1.59372 0
M  V30 3351 O 331.24 0.380159 -1.86974 0
M  V30 3352 C 328.38 0.229623 -3.44335 0
M  V30 3353 C 327.493 -0.758156 -4.25295 0
M  V30 3354 C 326.628 -0.0234403 -5.31195 0
M  V30 3355 C 325.667 -1.00184 -6.03846 0
M  V30 3356 N 324.804 -0.29769 -7.01469 0
M  V30 3357 H 329.644 -1.34538 -2.65901 0
M  V30 3358 H 327.181 -0.674592 -1.3072 0
M  V30 3359 H 329.139 0.658856 -4.11965 0
M  V30 3360 H 327.769 1.05696 -3.05005 0
M  V30 3361 H 326.821 -1.30586 -3.57284 0
M  V30 3362 H 328.133 -1.50458 -4.75567 0
M  V30 3363 H 327.287 0.464201 -6.04922 0
M  V30 3364 H 326.026 0.755741 -4.81809 0
M  V30 3365 H 325.031 -1.50044 -5.2893 0
M  V30 3366 H 326.256 -1.78133 -6.55321 0
M  V30 3367 H 324.202 0.462668 -6.54366 0
M  V30 3368 H 324.119 -0.983128 -7.4958 0
M  V30 3369 H 325.387 0.16826 -7.79318 0
M  V30 3370 N 329.616 1.39756 -0.72842 0
M  V30 3371 C 331.032 1.5442 -0.403308 0
M  V30 3372 C 331.232 1.69694 1.08656 0
M  V30 3373 O 330.288 1.69373 1.87267 0
M  V30 3374 C 331.601 2.76555 -1.18058 0
M  V30 3375 C 333.149 2.90384 -1.16815 0
M  V30 3376 C 333.624 4.15449 -1.92785 0
M  V30 3377 N 335.115 4.22475 -1.89918 0
M  V30 3378 C 335.85 5.1818 -2.45514 0
M  V30 3379 N 335.346 6.19714 -3.09719 0
M  V30 3380 N 337.139 5.1035 -2.35584 0
M  V30 3381 H 329.29 1.28089 -1.69431 0
M  V30 3382 H 331.553 0.620327 -0.716867 0
M  V30 3383 H 331.259 2.7159 -2.23455 0
M  V30 3384 H 331.133 3.69033 -0.780662 0
M  V30 3385 H 333.52 2.94846 -0.12234 0
M  V30 3386 H 333.601 1.98988 -1.6074 0
M  V30 3387 H 333.245 4.11749 -2.97364 0
M  V30 3388 H 333.175 5.05877 -1.46272 0
M  V30 3389 H 335.666 3.49743 -1.43138 0
M  V30 3390 H 335.979 6.8919 -3.49625 0
M  V30 3391 H 334.324 6.20121 -3.13807 0
M  V30 3392 H 337.515 4.2996 -1.85072 0
M  V30 3393 H 337.688 5.84761 -2.79211 0
M  V30 3394 N 331.094 0.475555 1.50254 0
M  V30 3395 C 332.34 -0.0780073 2.0265 0
M  V30 3396 C 332.673 -1.38968 1.35652 0
M  V30 3397 O 331.948 -1.8839 0.483691 0
M  V30 3398 C 332.231 -0.257161 3.59181 0
M  V30 3399 C 332.084 1.07585 4.36744 0
M  V30 3400 C 333.403 -1.00965 4.28362 0
M  V30 3401 H 330.522 -0.0268758 0.73651 0
M  V30 3402 H 333.164 0.622015 1.7953 0
M  V30 3403 H 331.314 -0.853412 3.79011 0
M  V30 3404 H 332.986 1.70902 4.28474 0
M  V30 3405 H 331.229 1.6714 4.00308 0
M  V30 3406 H 331.9 0.904088 5.44546 0
M  V30 3407 H 334.376 -0.504214 4.13034 0
M  V30 3408 H 333.252 -1.10381 5.37687 0
M  V30 3409 H 333.513 -2.04731 3.91839 0
M  V30 3410 N 332.573 -1.56217 0.208337 0
M  V30 3411 C 333.483 -2.23316 -0.718836 0
M  V30 3412 C 334.499 -1.23648 -1.22422 0
M  V30 3413 O 335.675 -1.56423 -1.26861 0
M  V30 3414 C 332.74 -2.88968 -1.91568 0
M  V30 3415 C 331.801 -4.03943 -1.45357 0
M  V30 3416 C 331.034 -4.66455 -2.59337 0
M  V30 3417 O 331.257 -4.27919 -3.77149 0
M  V30 3418 O 330.191 -5.55686 -2.31293 0
M  V30 3419 H 334.017 -3.03182 -0.177315 0
M  V30 3420 H 331.602 -1.49384 -0.0215402 0
M  V30 3421 H 333.484 -3.30455 -2.61491 0
M  V30 3422 H 332.159 -2.12071 -2.44556 0
M  V30 3423 H 331.066 -3.67052 -0.722746 0
M  V30 3424 H 332.399 -4.82543 -0.970219 0
M  V30 3425 N 334.051 0.0651679 -1.57465 0
M  V30 3426 C 335.462 0.616213 -1.76238 0
M  V30 3427 C 335.813 1.7756 -0.834689 0
M  V30 3428 O 334.938 2.1639 -0.0204156 0
M  V30 3429 C 335.533 1.12462 -3.1959 0
M  V30 3430 C 334.092 1.62147 -3.39684 0
M  V30 3431 C 333.239 0.543739 -2.71917 0
M  V30 3432 H 336.19 -0.161022 -1.57881 0
M  V30 3433 H 336.211 1.99324 -3.24114 0
M  V30 3434 H 335.723 0.280592 -3.87084 0
M  V30 3435 H 333.824 2.48854 -2.77313 0
M  V30 3436 H 333.937 1.69385 -4.48158 0
M  V30 3437 H 332.301 0.990352 -2.34657 0
M  V30 3438 H 333.084 -0.290216 -3.42071 0
M  V30 3439 N 335.529 1.53961 0.336706 0
M  V30 3440 C 336.476 1.82428 1.41381 0
M  V30 3441 C 337.446 0.670444 1.51968 0
M  V30 3442 O 338.631 0.915565 1.67398 0
M  V30 3443 C 335.771 2.04564 2.77934 0
M  V30 3444 C 334.884 3.32267 2.76084 0
M  V30 3445 C 334.019 3.44434 4.04399 0
M  V30 3446 C 333.058 4.66061 3.96804 0
M  V30 3447 N 332.195 4.75224 5.16823 0
M  V30 3448 H 337.035 2.74324 1.16405 0
M  V30 3449 H 334.572 1.35869 0.563752 0
M  V30 3450 H 336.53 2.15388 3.57301 0
M  V30 3451 H 335.16 1.15974 3.01247 0
M  V30 3452 H 334.212 3.3025 1.88784 0
M  V30 3453 H 335.524 4.21733 2.66351 0
M  V30 3454 H 334.678 3.54728 4.92192 0
M  V30 3455 H 333.417 2.53037 4.16921 0
M  V30 3456 H 332.422 4.55838 3.07396 0
M  V30 3457 H 333.647 5.58829 3.85858 0
M  V30 3458 H 331.593 3.86739 5.29876 0
M  V30 3459 H 331.51 5.58636 5.09374 0
M  V30 3460 H 332.778 4.89835 6.06367 0
M  V30 3461 N 337.007 -0.598083 1.45811 0
M  V30 3462 C 338.232 -1.3881 1.54099 0
M  V30 3463 C 338.657 -1.8726 0.177578 0
M  V30 3464 O 338.015 -1.6069 -0.839541 0
M  V30 3465 C 338.063 -2.56217 2.53743 0
M  V30 3466 O 337.167 -3.5716 2.06182 0
M  V30 3467 H 336.508 -0.414024 0.519115 0
M  V30 3468 H 339.038 -0.726971 1.91249 0
M  V30 3469 H 339.048 -3.03337 2.72856 0
M  V30 3470 H 337.723 -2.20303 3.5276 0
M  V30 3471 H 336.3 -3.16624 1.96987 0
M  V30 3472 N 338.485 -1.33259 -0.841409 0
M  V30 3473 C 339.725 -1.25902 -1.61022 0
M  V30 3474 C 340.089 0.173325 -1.91216 0
M  V30 3475 O 341.29 0.370824 -2.6623 0
M  V30 3476 C 339.561 -2.10735 -2.88662 0
M  V30 3477 S 341.12 -2.20541 -3.79351 0
M  V30 3478 H 337.938 -0.447958 -0.552137 0
M  V30 3479 H 340.54 -1.68263 -0.995382 0
M  V30 3480 H 339.244 -3.1384 -2.64448 0
M  V30 3481 H 338.775 -1.69201 -3.55154 0
M  V30 3482 H 340.79 -1.36462 -4.77067 0
M  V30 3483 N 339.963 1.05934 -1.16686 0
M  V30 3484 C 341.24 1.75643 -0.860747 0
M  V30 3485 C 341.62 2.01144 0.640641 0
M  V30 3486 O 340.968 1.64147 1.58959 0
M  V30 3487 C 341.178 3.05493 -1.68745 0
M  V30 3488 C 342.526 3.79581 -1.90271 0
M  V30 3489 O 343.55 3.15344 -1.65641 0
M  V30 3490 O 342.409 4.9499 -2.31618 0
M  V30 3491 H 339.503 0.763426 -0.317977 0
M  V30 3492 H 342.049 1.1217 -1.27342 0
M  V30 3493 H 340.821 2.8264 -2.70611 0
M  V30 3494 H 340.444 3.76702 -1.27206 0
M  V30 3495 N 341.441 0.965919 1.2453 0
M  V30 3496 C 342.388 0.49402 2.25451 0
M  V30 3497 C 343.358 -0.45948 1.59618 0
M  V30 3498 O 344.543 -0.370238 1.87173 0
M  V30 3499 C 341.683 -0.211359 3.44452 0
M  V30 3500 C 340.796 0.7807 4.24887 0
M  V30 3501 C 339.931 0.0516105 5.31175 0
M  V30 3502 C 338.97 1.03385 6.03306 0
M  V30 3503 N 338.107 0.334887 7.01301 0
M  V30 3504 H 342.947 1.35946 2.65184 0
M  V30 3505 H 340.484 0.681515 1.3036 0
M  V30 3506 H 342.442 -0.637 4.12308 0
M  V30 3507 H 341.072 -1.04077 3.05562 0
M  V30 3508 H 340.124 1.32479 3.56586 0
M  V30 3509 H 341.436 1.52978 4.74762 0
M  V30 3510 H 340.59 -0.432114 6.05159 0
M  V30 3511 H 339.329 -0.730179 4.82203 0
M  V30 3512 H 338.334 1.52847 5.28127 0
M  V30 3513 H 339.559 1.81606 6.54367 0
M  V30 3514 H 337.505 -0.427959 6.54603 0
M  V30 3515 H 337.422 1.02287 7.49048 0
M  V30 3516 H 338.69 -0.126928 7.79397 0
M  V30 3517 N 342.919 -1.39368 0.735821 0
M  V30 3518 C 344.147 -2.04795 0.294393 0
M  V30 3519 C 344.562 -1.55478 -1.07107 0
M  V30 3520 O 343.919 -0.720038 -1.67695 0
M  V30 3521 C 343.97 -3.6035 0.288071 0
M  V30 3522 O 343.691 -4.07852 1.59963 0
M  V30 3523 C 345.192 -4.42976 -0.169422 0
M  V30 3524 H 342.412 -0.658571 0.128551 0
M  V30 3525 H 344.956 -1.78399 0.999701 0
M  V30 3526 H 343.111 -3.85645 -0.368355 0
M  V30 3527 H 343.525 -5.02181 1.51375 0
M  V30 3528 H 344.999 -5.51864 -0.122687 0
M  V30 3529 H 345.476 -4.22068 -1.21472 0
M  V30 3530 H 346.082 -4.22832 0.457469 0
M  V30 3531 N 344.397 -0.483516 -1.5 0
M  V30 3532 C 345.347 0.32306 -2.257 0
M  V30 3533 C 346.331 0.950755 -1.29805 0
M  V30 3534 O 347.523 0.861247 -1.54634 0
M  V30 3535 C 344.652 1.39724 -3.13579 0
M  V30 3536 C 343.738 0.776663 -4.16928 0
M  V30 3537 N 344.129 -0.1104 -5.0568 0
M  V30 3538 C 342.427 1.03922 -4.33724 0
M  V30 3539 C 343.128 -0.46387 -5.79848 0
M  V30 3540 N 342.104 0.163987 -5.43353 0
M  V30 3541 H 345.906 -0.360086 -2.91686 0
M  V30 3542 H 343.42 -0.298456 -1.59634 0
M  V30 3543 H 345.417 1.98837 -3.66428 0
M  V30 3544 H 344.077 2.08225 -2.49143 0
M  V30 3545 H 345.088 -0.480069 -5.1567 0
M  V30 3546 H 341.765 1.71829 -3.80501 0
M  V30 3547 H 343.155 -1.18854 -6.61304 0
M  V30 3548 N 345.875 1.56104 -0.216619 0
M  V30 3549 C 347.103 2.02563 0.421413 0
M  V30 3550 C 347.518 1.0965 1.53695 0
M  V30 3551 O 346.875 0.10521 1.82196 0
M  V30 3552 C 346.926 3.48584 0.957665 0
M  V30 3553 O 346.647 4.37953 -0.113389 0
M  V30 3554 C 348.148 4.10664 1.66943 0
M  V30 3555 H 345.368 0.662944 0.103665 0
M  V30 3556 H 347.912 2.01793 -0.331629 0
M  V30 3557 H 346.067 3.49985 1.661 0
M  V30 3558 H 346.481 5.23704 0.288932 0
M  V30 3559 H 347.955 5.14622 1.99671 0
M  V30 3560 H 348.432 3.55373 2.58083 0
M  V30 3561 H 349.038 4.13098 1.01142 0
M  V30 3562 N 347.353 -0.0568162 1.57498 0
M  V30 3563 C 348.593 -0.758273 1.89815 0
M  V30 3564 C 348.957 -1.73978 0.812132 0
M  V30 3565 O 350.158 -2.48744 1.01881 0
M  V30 3566 C 348.429 -1.43465 3.27342 0
M  V30 3567 S 349.988 -2.1691 3.81439 0
M  V30 3568 H 346.806 -0.251836 0.664906 0
M  V30 3569 H 349.408 -0.0137997 1.95495 0
M  V30 3570 H 348.112 -0.706693 4.0427 0
M  V30 3571 H 347.643 -2.21825 3.24896 0
M  V30 3572 H 349.658 -3.43658 3.5793 0
M  V30 3573 N 348.832 -1.54138 -0.328536 0
M  V30 3574 C 350.243 -1.63395 -0.903272 0
M  V30 3575 C 350.594 -0.524828 -1.8905 0
M  V30 3576 O 349.719 0.343068 -2.13663 0
M  V30 3577 C 350.314 -2.9618 -1.64507 0
M  V30 3578 C 348.873 -3.0765 -2.1686 0
M  V30 3579 C 348.02 -2.58933 -0.992416 0
M  V30 3580 H 350.971 -1.58344 -0.106253 0
M  V30 3581 H 350.992 -2.86061 -2.50897 0
M  V30 3582 H 350.504 -3.76884 -0.926302 0
M  V30 3583 H 348.605 -2.31611 -2.91868 0
M  V30 3584 H 348.718 -4.1337 -2.42202 0
M  V30 3585 H 347.082 -2.14706 -1.37016 0
M  V30 3586 H 347.865 -3.42089 -0.288041 0
M  V30 3587 N 350.31 0.590341 -1.46126 0
M  V30 3588 C 351.721 1.17243 -1.45296 0
M  V30 3589 C 352.072 1.95281 -0.189723 0
M  V30 3590 O 351.197 2.04502 0.707674 0
M  V30 3591 C 351.792 2.13284 -2.6324 0
M  V30 3592 C 350.351 2.66832 -2.65476 0
M  V30 3593 C 349.498 1.42557 -2.3785 0
M  V30 3594 H 352.449 0.378692 -1.54116 0
M  V30 3595 H 352.47 2.96619 -2.38323 0
M  V30 3596 H 351.982 1.56459 -3.55165 0
M  V30 3597 H 350.083 3.27548 -1.77603 0
M  V30 3598 H 350.196 3.10088 -3.65215 0
M  V30 3599 H 348.56 1.72107 -1.87753 0
M  V30 3600 H 349.343 0.875741 -3.31942 0
M  V30 3601 N 351.788 1.33704 0.83433 0
M  V30 3602 C 353.028 1.26754 1.60352 0
M  V30 3603 C 353.392 -0.163182 1.91305 0
M  V30 3604 O 354.593 -0.3567 2.66423 0
M  V30 3605 C 352.864 2.12262 2.8754 0
M  V30 3606 S 354.423 2.22549 3.78176 0
M  V30 3607 H 351.241 0.450879 0.549753 0
M  V30 3608 H 353.843 1.68788 0.986444 0
M  V30 3609 H 352.547 3.15238 2.62779 0
M  V30 3610 H 352.078 1.71082 3.54252 0
M  V30 3611 H 354.093 1.3899 4.76336 0
M  V30 3612 N 353.266 -1.05314 1.17247 0
M  V30 3613 C 354.677 -1.59753 0.96623 0
M  V30 3614 C 355.028 -1.9005 -0.487378 0
M  V30 3615 O 354.153 -1.68126 -1.36245 0
M  V30 3616 C 354.748 -2.90249 1.74759 0
M  V30 3617 C 353.307 -3.41352 1.58606 0
M  V30 3618 C 352.454 -2.15103 1.75002 0
M  V30 3619 H 355.405 -0.881406 1.31973 0
M  V30 3620 H 355.426 -3.60097 1.22925 0
M  V30 3621 H 354.938 -2.68166 2.8055 0
M  V30 3622 H 353.039 -3.68474 0.552985 0
M  V30 3623 H 353.152 -4.16019 2.37624 0
M  V30 3624 H 351.516 -2.25804 1.17833 0
M  V30 3625 H 352.299 -1.95491 2.82202 0
M  V30 3626 N 354.744 -0.972509 -1.24016 0
M  V30 3627 C 355.707 -0.511403 -2.23422 0
M  V30 3628 C 356.707 0.394679 -1.55881 0
M  V30 3629 O 357.897 0.189469 -1.73167 0
M  V30 3630 C 355.029 0.258769 -3.39916 0
M  V30 3631 H 356.222 -1.39024 -2.6573 0
M  V30 3632 H 353.775 -0.757585 -1.36713 0
M  V30 3633 H 354.51 1.1545 -3.03054 0
M  V30 3634 H 354.295 -0.391522 -3.9014 0
M  V30 3635 H 355.785 0.570244 -4.13688 0
M  V30 3636 N 356.222 1.38976 -0.743202 0
M  V30 3637 C 357.633 1.83123 -0.363732 0
M  V30 3638 C 357.984 1.6205 1.10609 0
M  V30 3639 O 357.109 1.11606 1.854 0
M  V30 3640 C 357.704 3.32439 -0.653408 0
M  V30 3641 C 356.263 3.74974 -0.327338 0
M  V30 3642 C 355.41 2.61878 -0.911875 0
M  V30 3643 H 358.361 1.27852 -0.940191 0
M  V30 3644 H 358.382 3.80432 0.0720031 0
M  V30 3645 H 357.894 3.47745 -1.72323 0
M  V30 3646 H 355.995 3.65252 0.736314 0
M  V30 3647 H 356.108 4.72106 -0.815631 0
M  V30 3648 H 354.472 2.52448 -0.337944 0
M  V30 3649 H 355.255 2.79987 -1.98651 0
M  V30 3650 N 357.7 0.491464 1.49741 0
M  V30 3651 C 358.61 -0.296835 2.32715 0
M  V30 3652 C 359.626 -0.976536 1.44013 0
M  V30 3653 O 360.802 -0.960023 1.77047 0
M  V30 3654 C 357.867 -1.35288 3.19215 0
M  V30 3655 C 356.928 -0.687632 4.23757 0
M  V30 3656 C 356.161 -1.69336 5.06123 0
M  V30 3657 O 356.384 -2.92219 4.89861 0
M  V30 3658 O 355.318 -1.25394 5.88693 0
M  V30 3659 H 359.144 0.382048 3.01287 0
M  V30 3660 H 356.729 0.252953 1.47243 0
M  V30 3661 H 358.611 -1.96411 3.72828 0
M  V30 3662 H 357.286 -2.01487 2.53347 0
M  V30 3663 H 356.193 -0.0369159 3.74082 0
M  V30 3664 H 357.526 -0.0682566 4.92153 0
M  V30 3665 N 359.178 -1.55987 0.224894 0
M  V30 3666 C 360.108 -2.23426 -0.678457 0
M  V30 3667 C 361.089 -1.20709 -1.19847 0
M  V30 3668 O 362.274 -1.49304 -1.24186 0
M  V30 3669 C 359.404 -2.91676 -1.88527 0
M  V30 3670 C 358.358 -4.00893 -1.49896 0
M  V30 3671 C 357.684 -4.56455 -2.78483 0
M  V30 3672 C 358.984 -5.17769 -0.686461 0
M  V30 3673 H 360.678 -2.99175 -0.116173 0
M  V30 3674 H 358.224 -1.43897 -0.054436 0
M  V30 3675 H 360.177 -3.37547 -2.5227 0
M  V30 3676 H 358.901 -2.1338 -2.47258 0
M  V30 3677 H 357.56 -3.55758 -0.884985 0
M  V30 3678 H 357.208 -3.74886 -3.35365 0
M  V30 3679 H 356.908 -5.30169 -2.53368 0
M  V30 3680 H 358.432 -5.05047 -3.43162 0
M  V30 3681 H 359.846 -5.60001 -1.22767 0
M  V30 3682 H 358.243 -5.97735 -0.532259 0
M  V30 3683 H 359.313 -4.83932 0.306196 0
M  V30 3684 N 360.656 0.0484629 -1.57525 0
M  V30 3685 C 361.586 1.0549 -2.08313 0
M  V30 3686 C 362.567 1.38929 -0.981463 0
M  V30 3687 O 363.752 1.48151 -1.25558 0
M  V30 3688 C 360.882 2.36162 -2.54646 0
M  V30 3689 C 359.836 2.17016 -3.68901 0
M  V30 3690 C 359.162 3.53278 -4.01371 0
M  V30 3691 C 360.462 1.57219 -4.98076 0
M  V30 3692 H 362.156 0.632195 -2.92649 0
M  V30 3693 H 359.702 0.302654 -1.40784 0
M  V30 3694 H 361.655 3.06882 -2.88793 0
M  V30 3695 H 360.379 2.80456 -1.67368 0
M  V30 3696 H 359.038 1.48733 -3.35073 0
M  V30 3697 H 358.686 3.95185 -3.11188 0
M  V30 3698 H 358.386 3.41299 -4.78318 0
M  V30 3699 H 359.91 4.25391 -4.38035 0
M  V30 3700 H 361.324 2.17832 -5.30304 0
M  V30 3701 H 359.721 1.55871 -5.79503 0
M  V30 3702 H 360.791 0.535956 -4.81929 0
M  V30 3703 N 362.134 1.5431 0.320358 0
M  V30 3704 C 363.382 1.72327 1.05583 0
M  V30 3705 C 363.703 0.50149 1.88441 0
M  V30 3706 O 362.973 -0.48448 1.89815 0
M  V30 3707 H 361.553 0.635387 0.3928 0
M  V30 3708 H 364.215 1.91621 0.356019 0
M  V30 3709 H 363.311 2.60426 1.72003 0
M  V30 3710 N 363.613 -0.582584 1.46437 0
M  V30 3711 C 364.861 -1.33814 1.51453 0
M  V30 3712 C 365.182 -1.94277 0.167792 0
M  V30 3713 O 364.452 -1.78566 -0.805677 0
M  V30 3714 H 363.032 -0.496838 0.557818 0
M  V30 3715 H 365.694 -0.682281 1.82568 0
M  V30 3716 H 364.79 -2.14479 2.26728 0
M  V30 3717 N 365.091 -1.34144 -0.827227 0
M  V30 3718 C 366.502 -1.23557 -1.39966 0
M  V30 3719 C 366.853 0.140731 -1.95695 0
M  V30 3720 O 365.978 1.04087 -1.89723 0
M  V30 3721 C 366.573 -2.23708 -2.54441 0
M  V30 3722 C 365.132 -2.16924 -3.07605 0
M  V30 3723 C 364.279 -2.10549 -1.80456 0
M  V30 3724 H 367.23 -1.45573 -0.631991 0
M  V30 3725 H 367.251 -1.85157 -3.32411 0
M  V30 3726 H 366.763 -3.23866 -2.13851 0
M  V30 3727 H 364.864 -1.20107 -3.52711 0
M  V30 3728 H 364.977 -3.07988 -3.66988 0
M  V30 3729 H 363.341 -1.56203 -2.01178 0
M  V30 3730 H 364.124 -3.12535 -1.42046 0
M  V30 3731 N 366.569 1.04691 -1.17803 0
M  V30 3732 C 367.794 1.81984 -0.994813 0
M  V30 3733 C 368.219 1.82586 0.452112 0
M  V30 3734 O 367.577 1.23854 1.324 0
M  V30 3735 C 367.625 3.2575 -1.54659 0
M  V30 3736 O 366.729 4.05267 -0.763728 0
M  V30 3737 H 366.07 0.562483 -0.352857 0
M  V30 3738 H 368.6 1.3189 -1.56417 0
M  V30 3739 H 368.61 3.76541 -1.57102 0
M  V30 3740 H 367.285 3.24627 -2.59981 0
M  V30 3741 H 365.862 3.63972 -0.811108 0
M  V30 3742 N 368.047 0.979072 1.23499 0
M  V30 3743 C 369.293 0.648178 1.92163 0
M  V30 3744 C 369.626 -0.816049 1.76222 0
M  V30 3745 O 368.901 -1.58849 1.12237 0
M  V30 3746 C 369.184 1.03773 3.44824 0
M  V30 3747 C 369.037 2.55948 3.69879 0
M  V30 3748 C 370.356 0.580653 4.36253 0
M  V30 3749 H 367.475 0.236952 0.69787 0
M  V30 3750 H 370.117 1.22012 1.45647 0
M  V30 3751 H 368.267 0.551058 3.84572 0
M  V30 3752 H 369.939 3.12179 3.3962 0
M  V30 3753 H 368.182 2.98641 3.14636 0
M  V30 3754 H 368.853 2.78255 4.76737 0
M  V30 3755 H 371.329 0.998465 4.03943 0
M  V30 3756 H 370.205 0.881663 5.41773 0
M  V30 3757 H 370.466 -0.519052 4.39042 0
M  V30 3758 N 369.525 -1.3858 0.750561 0
M  V30 3759 C 370.772 -2.00184 0.305373 0
M  V30 3760 C 371.1 -1.59575 -1.11203 0
M  V30 3761 O 370.355 -0.823236 -1.77542 0
M  V30 3762 C 370.654 -3.55455 0.372373 0
M  V30 3763 C 370.32 -4.15765 1.745 0
M  V30 3764 C 368.982 -4.31951 2.12065 0
M  V30 3765 C 371.334 -4.49067 2.64553 0
M  V30 3766 C 368.662 -4.78734 3.39162 0
M  V30 3767 C 371.014 -4.97265 3.91038 0
M  V30 3768 C 369.678 -5.11658 4.28676 0
M  V30 3769 H 368.948 -0.732526 0.111744 0
M  V30 3770 H 371.595 -1.65673 0.960451 0
M  V30 3771 H 369.9 -3.90084 -0.366272 0
M  V30 3772 H 371.597 -4.00999 0.00953918 0
M  V30 3773 H 368.187 -4.03579 1.44297 0
M  V30 3774 H 372.371 -4.36166 2.36796 0
M  V30 3775 H 367.627 -4.88062 3.68246 0
M  V30 3776 H 371.801 -5.22003 4.60962 0
M  V30 3777 H 369.428 -5.47668 5.27222 0
M  V30 3778 N 371.003 -0.499398 -1.49478 0
M  V30 3779 C 371.933 0.269244 -2.31943 0
M  V30 3780 C 372.914 0.964054 -1.40143 0
M  V30 3781 O 374.099 0.955767 -1.69052 0
M  V30 3782 C 371.229 1.33504 -3.20615 0
M  V30 3783 C 370.183 0.760202 -4.21195 0
M  V30 3784 C 369.509 1.9264 -4.98792 0
M  V30 3785 C 370.809 -0.247661 -5.21712 0
M  V30 3786 H 372.503 -0.419082 -2.96452 0
M  V30 3787 H 370.049 -0.202988 -1.42562 0
M  V30 3788 H 372.002 1.88048 -3.77115 0
M  V30 3789 H 370.726 2.05253 -2.54045 0
M  V30 3790 H 369.385 0.23653 -3.65836 0
M  V30 3791 H 369.033 2.63154 -4.28671 0
M  V30 3792 H 368.733 1.54785 -5.66847 0
M  V30 3793 H 370.257 2.4762 -5.58137 0
M  V30 3794 H 371.671 0.209579 -5.72917 0
M  V30 3795 H 370.068 -0.541962 -5.97648 0
M  V30 3796 H 371.138 -1.16409 -4.7072 0
M  V30 3797 N 372.481 1.55866 -0.233164 0
M  V30 3798 C 373.728 1.98603 0.395374 0
M  V30 3799 C 374.056 1.12105 1.58942 0
M  V30 3800 O 373.311 0.168656 1.94972 0
M  V30 3801 C 373.61 3.46856 0.861724 0
M  V30 3802 C 373.276 4.50348 -0.223066 0
M  V30 3803 C 371.938 4.78371 -0.521038 0
M  V30 3804 C 374.29 5.12355 -0.956124 0
M  V30 3805 C 371.618 5.6568 -1.55638 0
M  V30 3806 C 373.97 6.00786 -1.98089 0
M  V30 3807 C 372.634 6.27148 -2.28565 0
M  V30 3808 H 371.904 0.726739 0.144677 0
M  V30 3809 H 374.551 1.88491 -0.338114 0
M  V30 3810 H 372.856 3.5423 1.67418 0
M  V30 3811 H 374.553 3.77302 1.35809 0
M  V30 3812 H 371.143 4.28596 0.0193234 0
M  V30 3813 H 375.327 4.90765 -0.739166 0
M  V30 3814 H 370.583 5.84365 -1.798 0
M  V30 3815 H 374.757 6.4788 -2.55391 0
M  V30 3816 H 372.384 6.94597 -3.08932 0
M  V30 3817 N 373.959 -0.0401083 1.57549 0
M  V30 3818 C 375.37 -0.588097 1.77196 0
M  V30 3819 C 375.721 -1.76209 0.862832 0
M  V30 3820 O 374.846 -2.16331 0.0548389 0
M  V30 3821 C 375.441 -1.07363 3.21339 0
M  V30 3822 C 374 -1.56723 3.42221 0
M  V30 3823 C 373.147 -0.50041 2.72747 0
M  V30 3824 H 376.098 0.186119 1.57605 0
M  V30 3825 H 376.119 -1.94143 3.27244 0
M  V30 3826 H 375.631 -0.218975 3.87482 0
M  V30 3827 H 373.732 -2.4441 2.81237 0
M  V30 3828 H 373.845 -1.62234 4.50796 0
M  V30 3829 H 372.209 -0.952894 2.36203 0
M  V30 3830 H 372.992 0.344599 3.41566 0
M  V30 3831 N 375.437 -1.54477 -0.31217 0
M  V30 3832 C 376.848 -1.64344 -0.885891 0
M  V30 3833 C 377.199 -0.54485 -1.88483 0
M  V30 3834 O 376.324 0.320387 -2.14015 0
M  V30 3835 C 376.919 -2.97908 -1.61357 0
M  V30 3836 C 375.478 -3.09933 -2.13585 0
M  V30 3837 C 374.625 -2.59971 -0.964897 0
M  V30 3838 H 377.576 -1.58448 -0.0894528 0
M  V30 3839 H 377.597 -2.88706 -2.47848 0
M  V30 3840 H 377.109 -3.77845 -0.886277 0
M  V30 3841 H 375.21 -2.34694 -2.89395 0
M  V30 3842 H 375.323 -4.15916 -2.37804 0
M  V30 3843 H 373.687 -2.16147 -1.34731 0
M  V30 3844 H 374.47 -3.42376 -0.251742 0
M  V30 3845 N 376.915 0.57481 -1.46744 0
M  V30 3846 C 377.862 1.68329 -1.57905 0
M  V30 3847 C 378.832 1.60625 -0.422927 0
M  V30 3848 O 380.017 1.79721 -0.640711 0
M  V30 3849 C 377.157 3.06665 -1.58274 0
M  V30 3850 C 376.27 3.24935 -2.84678 0
M  V30 3851 C 375.405 4.53566 -2.76499 0
M  V30 3852 C 374.444 4.65207 -3.97806 0
M  V30 3853 N 373.581 5.85172 -3.87967 0
M  V30 3854 H 378.421 1.58127 -2.52587 0
M  V30 3855 H 375.958 0.770552 -1.25303 0
M  V30 3856 H 377.916 3.86745 -1.56473 0
M  V30 3857 H 376.546 3.15745 -0.671194 0
M  V30 3858 H 375.598 2.38405 -2.96424 0
M  V30 3859 H 376.91 3.29403 -3.7456 0
M  V30 3860 H 376.064 5.41885 -2.72848 0
M  V30 3861 H 374.803 4.51548 -1.8427 0
M  V30 3862 H 373.808 3.75304 -4.0178 0
M  V30 3863 H 375.033 4.68997 -4.9114 0
M  V30 3864 H 372.979 5.84137 -2.98529 0
M  V30 3865 H 372.896 5.90943 -4.71511 0
M  V30 3866 H 374.164 6.759 -3.88303 0
M  V30 3867 N 378.394 1.34581 0.820102 0
M  V30 3868 C 379.805 1.24298 1.39309 0
M  V30 3869 C 380.156 -0.130351 1.95767 0
M  V30 3870 O 379.281 -1.0308 1.90272 0
M  V30 3871 C 379.876 2.25054 2.53251 0
M  V30 3872 C 378.435 2.18552 3.0645 0
M  V30 3873 C 377.582 2.11503 1.79337 0
M  V30 3874 H 380.533 1.45906 0.624262 0
M  V30 3875 H 380.554 1.86917 3.31425 0
M  V30 3876 H 380.066 3.24996 2.1213 0
M  V30 3877 H 378.167 1.21976 3.52069 0
M  V30 3878 H 378.28 3.0993 3.65349 0
M  V30 3879 H 376.644 1.57268 2.00347 0
M  V30 3880 H 377.427 3.13284 1.40386 0
M  V30 3881 N 379.872 -1.04064 1.18357 0
M  V30 3882 C 380.819 -2.12077 0.910603 0
M  V30 3883 C 381.789 -1.65421 -0.15 0
M  V30 3884 O 382.974 -1.90797 -0.0103614 0
M  V30 3885 C 380.114 -3.42252 0.442472 0
M  V30 3886 C 379.227 -4.0252 1.5685 0
M  V30 3887 C 378.362 -5.20657 1.05309 0
M  V30 3888 C 377.401 -5.72955 2.1538 0
M  V30 3889 N 376.538 -6.8238 1.65233 0
M  V30 3890 H 381.378 -2.34764 1.83548 0
M  V30 3891 H 378.915 -1.15157 0.915279 0
M  V30 3892 H 380.873 -4.16921 0.152534 0
M  V30 3893 H 379.503 -3.19712 -0.445428 0
M  V30 3894 H 378.555 -3.25178 1.97391 0
M  V30 3895 H 379.867 -4.37362 2.39824 0
M  V30 3896 H 379.021 -6.0244 0.717677 0
M  V30 3897 H 377.76 -4.87318 0.19293 0
M  V30 3898 H 376.765 -4.89793 2.49766 0
M  V30 3899 H 377.99 -6.08337 3.01832 0
M  V30 3900 H 375.936 -6.50917 0.815064 0
M  V30 3901 H 375.853 -7.16286 2.41805 0
M  V30 3902 H 377.121 -7.67788 1.34619 0
M  V30 3903 N 381.35 -0.985608 -1.22978 0
M  V30 3904 C 382.627 -0.573599 -1.87001 0
M  V30 3905 C 383.007 0.949213 -1.88555 0
M  V30 3906 O 382.355 1.82811 -1.37086 0
M  V30 3907 C 382.565 -1.18564 -3.28243 0
M  V30 3908 C 383.913 -1.28163 -4.04796 0
M  V30 3909 O 384.937 -1.13949 -3.37482 0
M  V30 3910 O 383.796 -1.50832 -5.25273 0
M  V30 3911 H 380.89 -0.193868 -0.803955 0
M  V30 3912 H 383.436 -1.08102 -1.30813 0
M  V30 3913 H 382.208 -2.22758 -3.21706 0
M  V30 3914 H 381.831 -0.663363 -3.92027 0
M  V30 3915 N 382.828 1.3818 -0.7579 0
M  V30 3916 C 384.056 2.04301 -0.326937 0
M  V30 3917 C 384.471 1.57163 1.0462 0
M  V30 3918 O 383.828 0.746626 1.66529 0
M  V30 3919 C 383.879 3.59846 -0.345363 0
M  V30 3920 O 383.6 4.05256 -1.66432 0
M  V30 3921 C 385.101 4.4319 0.098927 0
M  V30 3922 H 382.321 0.656443 -0.139012 0
M  V30 3923 H 384.865 1.76786 -1.02796 0
M  V30 3924 H 383.02 3.86182 0.306955 0
M  V30 3925 H 383.434 4.99709 -1.59345 0
M  V30 3926 H 384.908 5.51989 0.0348745 0
M  V30 3927 H 385.385 4.23947 1.14741 0
M  V30 3928 H 385.991 4.22051 -0.52468 0
M  V30 3929 N 384.306 0.507319 1.49211 0
M  V30 3930 C 385.236 -0.256939 2.32082 0
M  V30 3931 C 386.217 -0.956609 1.40652 0
M  V30 3932 O 387.402 -0.946788 1.69557 0
M  V30 3933 C 384.532 -1.31802 3.21318 0
M  V30 3934 C 383.486 -0.737855 4.21592 0
M  V30 3935 C 382.812 -1.89992 4.99807 0
M  V30 3936 C 384.112 0.275325 5.21574 0
M  V30 3937 H 385.806 0.434798 2.96226 0
M  V30 3938 H 383.352 0.210546 1.42452 0
M  V30 3939 H 385.305 -1.86045 3.78107 0
M  V30 3940 H 384.029 -2.03903 2.5513 0
M  V30 3941 H 382.688 -0.217126 3.65956 0
M  V30 3942 H 382.336 -2.60877 4.30061 0
M  V30 3943 H 382.036 -1.51777 5.6766 0
M  V30 3944 H 383.56 -2.44657 5.59442 0
M  V30 3945 H 384.974 -0.179193 5.7302 0
M  V30 3946 H 383.371 0.573649 5.97352 0
M  V30 3947 H 384.441 1.18903 4.70096 0
M  V30 3948 N 385.784 -1.5574 0.241426 0
M  V30 3949 C 386.717 -2.17168 -0.700935 0
M  V30 3950 C 387.695 -1.12206 -1.1768 0
M  V30 3951 O 388.879 -1.40565 -1.25593 0
M  V30 3952 C 386.006 -2.76796 -1.95196 0
M  V30 3953 C 385.052 -3.94764 -1.61442 0
M  V30 3954 S 385.885 -5.30613 -0.72182 0
M  V30 3955 C 387.041 -5.93691 -1.98197 0
M  V30 3956 H 387.274 -2.96761 -0.178882 0
M  V30 3957 H 384.807 -1.54378 0.0259299 0
M  V30 3958 H 386.765 -3.11787 -2.67019 0
M  V30 3959 H 385.426 -1.9716 -2.44514 0
M  V30 3960 H 384.619 -4.35057 -2.54443 0
M  V30 3961 H 384.221 -3.61022 -0.976672 0
M  V30 3962 H 386.513 -6.10874 -2.92983 0
M  V30 3963 H 387.456 -6.89258 -1.62262 0
M  V30 3964 H 387.864 -5.22709 -2.13156 0
M  V30 3965 N 387.262 0.0317525 -1.57568 0
M  V30 3966 C 388.511 0.722131 -1.8833 0
M  V30 3967 C 388.824 1.76664 -0.839587 0
M  V30 3968 O 390.03 2.50942 -1.03635 0
M  V30 3969 C 388.486 1.33544 -3.34207 0
M  V30 3970 C 388.094 0.327415 -4.46802 0
M  V30 3971 C 389.838 2.00585 -3.7412 0
M  V30 3972 C 387.745 0.948915 -5.83738 0
M  V30 3973 H 386.675 0.273466 -0.702661 0
M  V30 3974 H 389.326 -0.0235811 -1.83485 0
M  V30 3975 H 387.708 2.13077 -3.33788 0
M  V30 3976 H 388.882 -0.441006 -4.58685 0
M  V30 3977 H 387.197 -0.240758 -4.15703 0
M  V30 3978 H 389.794 2.47932 -4.73744 0
M  V30 3979 H 390.137 2.82285 -3.05975 0
M  V30 3980 H 390.67 1.27831 -3.76702 0
M  V30 3981 H 387.409 0.171387 -6.55276 0
M  V30 3982 H 386.929 1.68724 -5.7558 0
M  V30 3983 H 388.608 1.45705 -6.3038 0
M  V30 3984 N 388.74 1.54641 0.303973 0
M  V30 3985 C 389.965 1.78092 1.06292 0
M  V30 3986 C 390.39 0.537342 1.80262 0
M  V30 3987 O 389.748 -0.511993 1.7392 0
M  V30 3988 C 389.796 2.98612 2.02147 0
M  V30 3989 O 388.9 2.71528 3.10397 0
M  V30 3990 H 388.241 0.589548 0.305497 0
M  V30 3991 H 390.771 2.01716 0.3423 0
M  V30 3992 H 390.781 3.265 2.44667 0
M  V30 3993 H 389.456 3.88785 1.47714 0
M  V30 3994 H 388.033 2.54648 2.72413 0
M  V30 3995 N 390.218 -0.567019 1.47046 0
M  V30 3996 C 391.634 -0.891975 1.32348 0
M  V30 3997 C 391.834 -1.99154 0.306616 0
M  V30 3998 O 390.89 -2.50883 -0.28532 0
M  V30 3999 C 392.203 -1.29449 2.7141 0
M  V30 4000 C 393.751 -1.40646 2.79621 0
M  V30 4001 C 394.226 -1.84257 4.19301 0
M  V30 4002 N 395.717 -1.91424 4.21795 0
M  V30 4003 C 396.452 -2.26476 5.26779 0
M  V30 4004 N 395.948 -2.60211 6.42077 0
M  V30 4005 N 397.741 -2.27166 5.14152 0
M  V30 4006 H 389.892 0.159074 2.11803 0
M  V30 4007 H 392.155 0.00849752 0.947962 0
M  V30 4008 H 391.861 -0.560448 3.47206 0
M  V30 4009 H 391.735 -2.25273 3.02542 0
M  V30 4010 H 394.122 -2.13133 2.04104 0
M  V30 4011 H 394.203 -0.430339 2.52154 0
M  V30 4012 H 393.847 -1.12343 4.95319 0
M  V30 4013 H 393.777 -2.82855 4.44185 0
M  V30 4014 H 396.268 -1.6778 3.38612 0
M  V30 4015 H 396.581 -2.85956 7.17948 0
M  V30 4016 H 394.926 -2.57813 6.45413 0
M  V30 4017 H 398.117 -2.00244 4.23107 0
M  V30 4018 H 398.29 -2.54154 5.96079 0
M  V30 4019 N 391.696 -1.35014 -0.812953 0
M  V30 4020 C 392.924 -1.31031 -1.6012 0
M  V30 4021 C 393.339 0.113558 -1.88458 0
M  V30 4022 O 392.696 1.06363 -1.48301 0
M  V30 4023 C 392.747 -2.10872 -2.93624 0
M  V30 4024 O 392.468 -3.47706 -2.66518 0
M  V30 4025 C 393.969 -2.14401 -3.88004 0
M  V30 4026 H 391.189 -0.45037 -0.497401 0
M  V30 4027 H 393.733 -1.77775 -1.01076 0
M  V30 4028 H 391.888 -1.67744 -3.492 0
M  V30 4029 H 392.302 -3.89097 -3.51715 0
M  V30 4030 H 393.776 -2.74669 -4.78812 0
M  V30 4031 H 394.253 -1.14105 -4.24119 0
M  V30 4032 H 394.859 -2.57662 -3.38364 0
M  V30 4033 N 393.175 1.03435 -1.18907 0
M  V30 4034 C 394.586 1.58195 -0.991523 0
M  V30 4035 C 394.937 1.90801 0.457081 0
M  V30 4036 O 394.062 1.70272 1.33553 0
M  V30 4037 C 394.657 2.87432 -1.79355 0
M  V30 4038 C 393.216 3.38785 -1.64017 0
M  V30 4039 C 392.363 2.12292 -1.78402 0
M  V30 4040 H 395.314 0.860299 -1.33359 0
M  V30 4041 H 395.335 3.58096 -1.28638 0
M  V30 4042 H 394.847 2.63669 -2.84781 0
M  V30 4043 H 392.948 3.67547 -0.611536 0
M  V30 4044 H 393.061 4.12186 -2.44212 0
M  V30 4045 H 391.425 2.23901 -1.2141 0
M  V30 4046 H 392.208 1.90977 -2.85277 0
M  V30 4047 N 394.653 0.992116 1.22453 0
M  V30 4048 C 395.563 0.55065 2.28046 0
M  V30 4049 C 396.579 -0.400189 1.69335 0
M  V30 4050 O 397.755 -0.267215 1.99619 0
M  V30 4051 C 394.82 -0.128496 3.46462 0
M  V30 4052 C 393.881 0.865208 4.20491 0
M  V30 4053 C 393.114 0.218377 5.33253 0
M  V30 4054 O 393.337 -0.987894 5.6178 0
M  V30 4055 O 392.271 0.922845 5.94783 0
M  V30 4056 H 396.097 1.4291 2.67975 0
M  V30 4057 H 393.682 0.760326 1.28606 0
M  V30 4058 H 395.564 -0.508947 4.18315 0
M  V30 4059 H 394.239 -0.981526 3.0846 0
M  V30 4060 H 393.146 1.29658 3.50913 0
M  V30 4061 H 394.479 1.68741 4.62371 0
M  V30 4062 N 396.131 -1.37776 0.765217 0
M  V30 4063 C 397.377 -2.00145 0.327072 0
M  V30 4064 C 397.71 -1.60607 -1.09175 0
M  V30 4065 O 396.985 -0.849127 -1.74986 0
M  V30 4066 C 397.268 -3.57109 0.46319 0
M  V30 4067 C 397.121 -4.06576 1.92395 0
M  V30 4068 C 398.44 -4.39888 -0.136473 0
M  V30 4069 H 395.559 -0.727113 0.120316 0
M  V30 4070 H 398.201 -1.63549 0.967039 0
M  V30 4071 H 396.351 -3.88414 -0.0816358 0
M  V30 4072 H 398.023 -3.85864 2.52798 0
M  V30 4073 H 396.266 -3.59011 2.43503 0
M  V30 4074 H 396.937 -5.15639 1.97028 0
M  V30 4075 H 399.413 -4.14803 0.328317 0
M  V30 4076 H 398.289 -5.48899 -0.0110582 0
M  V30 4077 H 398.55 -4.24758 -1.22608 0
M  V30 4078 N 397.609 -0.515225 -1.4894 0
M  V30 4079 C 398.837 0.0206034 -2.0689 0
M  V30 4080 C 399.252 1.29514 -1.37374 0
M  V30 4081 O 398.609 1.76698 -0.456529 0
M  V30 4082 C 398.66 0.26351 -3.60538 0
M  V30 4083 O 398.381 -0.960517 -4.27441 0
M  V30 4084 C 399.882 0.841383 -4.35242 0
M  V30 4085 H 397.102 -0.0268608 -0.670462 0
M  V30 4086 H 399.646 -0.716651 -1.91532 0
M  V30 4087 H 397.801 0.950777 -3.75552 0
M  V30 4088 H 398.215 -0.73212 -5.19365 0
M  V30 4089 H 399.689 0.96085 -5.43573 0
M  V30 4090 H 400.166 1.8427 -3.98674 0
M  V30 4091 H 400.772 0.191143 -4.2487 0
M  V30 4092 N 399.087 1.5561 -0.249682 0
M  V30 4093 C 400.327 2.00916 0.37579 0
M  V30 4094 C 400.691 1.13409 1.54927 0
M  V30 4095 O 401.892 1.48183 2.24266 0
M  V30 4096 C 400.163 3.48949 0.772633 0
M  V30 4097 S 401.722 4.16261 1.38824 0
M  V30 4098 H 398.54 0.70112 0.118117 0
M  V30 4099 H 401.142 1.92052 -0.365567 0
M  V30 4100 H 399.846 4.103 -0.090683 0
M  V30 4101 H 399.377 3.61745 1.5461 0
M  V30 4102 H 401.392 4.17778 2.67724 0
M  V30 4103 N 400.565 -0.0233959 1.57583 0
M  V30 4104 C 401.811 -0.714119 1.89811 0
M  V30 4105 C 402.144 -1.74702 0.848113 0
M  V30 4106 O 401.419 -1.94023 -0.136135 0
M  V30 4107 C 401.702 -1.37853 3.32669 0
M  V30 4108 C 401.555 -0.358764 4.48367 0
M  V30 4109 C 402.874 -2.31101 3.7454 0
M  V30 4110 H 399.993 -0.25814 0.690314 0
M  V30 4111 H 402.635 0.0230927 1.89986 0
M  V30 4112 H 400.785 -2.00689 3.3265 0
M  V30 4113 H 402.457 0.268115 4.6052 0
M  V30 4114 H 400.7 0.321387 4.32608 0
M  V30 4115 H 401.371 -0.862242 5.45224 0
M  V30 4116 H 403.847 -1.78304 3.75961 0
M  V30 4117 H 402.723 -2.74567 4.75294 0
M  V30 4118 H 402.984 -3.18018 3.0711 0
M  V30 4119 N 402.043 -1.548 -0.295768 0
M  V30 4120 C 403.289 -1.74588 -1.03184 0
M  V30 4121 C 403.622 -0.532962 -1.86744 0
M  V30 4122 O 402.897 0.469872 -1.88739 0
M  V30 4123 C 403.18 -3.03791 -1.93347 0
M  V30 4124 C 403.033 -4.35392 -1.12933 0
M  V30 4125 C 404.352 -3.28892 -2.92435 0
M  V30 4126 H 401.471 -0.635221 -0.373715 0
M  V30 4127 H 404.113 -1.87519 -0.30606 0
M  V30 4128 H 402.263 -2.92898 -2.55232 0
M  V30 4129 H 403.935 -4.58211 -0.532943 0
M  V30 4130 H 402.178 -4.31642 -0.432168 0
M  V30 4131 H 402.849 -5.22074 -1.79284 0
M  V30 4132 H 405.325 -3.39429 -2.4068 0
M  V30 4133 H 404.201 -4.20603 -3.52682 0
M  V30 4134 H 404.462 -2.47437 -3.6637 0
M  V30 4135 N 403.521 0.559213 -1.47345 0
M  V30 4136 C 404.767 1.31843 -1.54095 0
M  V30 4137 C 405.1 1.93149 -0.201726 0
M  V30 4138 O 404.375 1.77759 0.789428 0
M  V30 4139 C 404.658 2.43006 -2.65744 0
M  V30 4140 C 404.511 1.86581 -4.09277 0
M  V30 4141 C 405.83 3.44943 -2.73318 0
M  V30 4142 H 402.949 0.478012 -0.560957 0
M  V30 4143 H 405.591 0.625977 -1.79392 0
M  V30 4144 H 403.741 3.02072 -2.44305 0
M  V30 4145 H 405.413 1.31792 -4.42073 0
M  V30 4146 H 403.656 1.17268 -4.17649 0
M  V30 4147 H 404.327 2.66933 -4.83168 0
M  V30 4148 H 406.803 2.95793 -2.92653 0
M  V30 4149 H 405.679 4.20153 -3.53218 0
M  V30 4150 H 405.94 4.03665 -1.80296 0
M  V30 4151 N 404.999 1.35443 0.805782 0
M  V30 4152 C 406.276 1.19325 1.54987 0
M  V30 4153 C 406.656 -0.227294 2.09873 0
M  V30 4154 O 406.004 -1.2309 1.92512 0
M  V30 4155 C 406.214 2.26196 2.65775 0
M  V30 4156 C 407.562 2.62043 3.34094 0
M  V30 4157 O 408.586 2.25115 2.76046 0
M  V30 4158 O 407.445 3.25542 4.38958 0
M  V30 4159 H 404.539 0.463623 0.684823 0
M  V30 4160 H 407.085 1.47127 0.845674 0
M  V30 4161 H 405.857 3.21471 2.23096 0
M  V30 4162 H 405.48 1.99667 3.43829 0
M  V30 4163 N 406.477 -1.02803 1.19454 0
M  V30 4164 C 407.723 -1.76478 0.999171 0
M  V30 4165 C 408.056 -1.88456 -0.468828 0
M  V30 4166 O 407.331 -1.40198 -1.34814 0
M  V30 4167 C 407.614 -3.19044 1.66981 0
M  V30 4168 C 407.467 -3.14932 3.21151 0
M  V30 4169 C 408.786 -4.17456 1.39349 0
M  V30 4170 H 405.905 -0.640614 0.364393 0
M  V30 4171 H 408.547 -1.20005 1.47305 0
M  V30 4172 H 406.697 -3.67263 1.2669 0
M  V30 4173 H 408.369 -2.74605 3.70661 0
M  V30 4174 H 406.612 -2.52625 3.52652 0
M  V30 4175 H 407.283 -4.1566 3.63223 0
M  V30 4176 H 409.759 -3.77842 1.74283 0
M  V30 4177 H 408.635 -5.154 1.88823 0
M  V30 4178 H 408.896 -4.40949 0.318813 0
M  V30 4179 N 407.956 -0.998596 -1.21925 0
M  V30 4180 C 409.181 -0.696015 -1.95372 0
M  V30 4181 C 409.606 0.733826 -1.73195 0
M  V30 4182 O 408.964 1.50242 -1.01474 0
M  V30 4183 C 409.012 -1.01466 -3.4603 0
M  V30 4184 O 408.116 -0.116415 -4.12236 0
M  V30 4185 H 407.457 -0.259938 -0.611006 0
M  V30 4186 H 409.987 -1.33711 -1.54863 0
M  V30 4187 H 409.997 -0.958855 -3.96573 0
M  V30 4188 H 408.672 -2.05653 -3.61497 0
M  V30 4189 H 407.249 -0.228193 -3.72201 0
M  V30 4190 N 409.434 1.37368 -0.772513 0
M  V30 4191 C 410.384 2.27613 -0.132823 0
M  V30 4192 C 411.368 1.46138 0.673247 0
M  V30 4193 O 412.56 1.68686 0.536095 0
M  V30 4194 C 409.689 3.35122 0.744864 0
M  V30 4195 C 408.775 4.24044 -0.0690771 0
M  V30 4196 N 409.166 4.93355 -1.1151 0
M  V30 4197 C 407.464 4.45731 0.154782 0
M  V30 4198 C 408.165 5.59 -1.60917 0
M  V30 4199 N 407.141 5.35737 -0.921222 0
M  V30 4200 H 410.943 2.78675 -0.933681 0
M  V30 4201 H 408.457 1.50494 -0.610342 0
M  V30 4202 H 410.454 3.98683 1.21892 0
M  V30 4203 H 409.114 2.85616 1.54446 0
M  V30 4204 H 410.125 4.95785 -1.49726 0
M  V30 4205 H 406.802 4.07096 0.926224 0
M  V30 4206 H 408.192 6.24395 -2.48153 0
M  V30 4207 N 410.912 0.523116 1.48665 0
M  V30 4208 C 411.822 -0.247406 2.33292 0
M  V30 4209 C 412.838 -0.945769 1.46052 0
M  V30 4210 O 414.014 -0.922253 1.79043 0
M  V30 4211 C 411.079 -1.28487 3.22012 0
M  V30 4212 C 410.14 -0.597592 4.2512 0
M  V30 4213 C 409.373 -1.58563 5.09601 0
M  V30 4214 O 409.596 -2.81763 4.95949 0
M  V30 4215 O 408.53 -1.12879 5.91221 0
M  V30 4216 H 412.356 0.445869 3.00409 0
M  V30 4217 H 409.941 0.284128 1.46673 0
M  V30 4218 H 411.823 -1.88459 3.7691 0
M  V30 4219 H 410.498 -1.96068 2.57564 0
M  V30 4220 H 409.405 0.0424407 3.74076 0
M  V30 4221 H 410.738 0.0361517 4.92187 0
M  V30 4222 N 412.39 -1.55475 0.257931 0
M  V30 4223 C 413.667 -1.91155 -0.414629 0
M  V30 4224 C 414.047 -1.18008 -1.75035 0
M  V30 4225 O 413.395 -0.301193 -2.26506 0
M  V30 4226 C 413.605 -3.44283 -0.571859 0
M  V30 4227 C 414.953 -4.15744 -0.862678 0
M  V30 4228 O 415.977 -3.50083 -0.657314 0
M  V30 4229 O 414.836 -5.31909 -1.2544 0
M  V30 4230 H 411.93 -0.796016 -0.22425 0
M  V30 4231 H 414.476 -1.66976 0.302814 0
M  V30 4232 H 413.248 -3.89558 0.368844 0
M  V30 4233 H 412.871 -3.7436 -1.33943 0
M  V30 4234 N 413.868 0.0150385 -1.57593 0
M  V30 4235 C 415.279 0.559832 -1.78109 0
M  V30 4236 C 415.63 1.74814 -0.890756 0
M  V30 4237 O 414.755 2.16216 -0.0892482 0
M  V30 4238 C 415.35 1.02238 -3.23006 0
M  V30 4239 C 413.909 1.51258 -3.44671 0
M  V30 4240 C 413.056 0.456955 -2.73509 0
M  V30 4241 H 416.007 -0.211169 -1.57289 0
M  V30 4242 H 416.028 1.88912 -3.30292 0
M  V30 4243 H 415.54 0.157302 -3.87781 0
M  V30 4244 H 413.641 2.39905 -2.8509 0
M  V30 4245 H 413.754 1.55042 -4.5332 0
M  V30 4246 H 412.118 0.915196 -2.37689 0
M  V30 4247 H 412.901 -0.398896 -3.40975 0
M  V30 4248 N 415.346 1.54954 0.287554 0
M  V30 4249 C 416.256 1.8991 1.37736 0
M  V30 4250 C 417.272 0.794701 1.54792 0
M  V30 4251 O 418.448 1.09243 1.69198 0
M  V30 4252 C 415.513 2.15108 2.71899 0
M  V30 4253 C 414.574 3.38752 2.63715 0
M  V30 4254 C 413.807 3.62739 3.91479 0
M  V30 4255 O 414.03 2.89492 4.91478 0
M  V30 4256 O 412.964 4.56267 3.92561 0
M  V30 4257 H 416.79 2.82652 1.11092 0
M  V30 4258 H 414.375 1.41315 0.484807 0
M  V30 4259 H 416.257 2.32806 3.51254 0
M  V30 4260 H 414.932 1.25551 2.9836 0
M  V30 4261 H 413.839 3.26405 1.82786 0
M  V30 4262 H 415.172 4.28483 2.42205 0
M  V30 4263 N 416.824 -0.551391 1.4764 0
M  V30 4264 C 418.07 -1.31024 1.54792 0
M  V30 4265 C 418.403 -1.9304 0.211967 0
M  V30 4266 O 417.678 -1.78175 -0.77999 0
M  V30 4267 C 417.961 -2.41593 2.67029 0
M  V30 4268 C 417.814 -1.84408 4.10261 0
M  V30 4269 C 419.133 -3.43488 2.75143 0
M  V30 4270 H 416.252 -0.475031 0.563485 0
M  V30 4271 H 418.894 -0.616454 1.79722 0
M  V30 4272 H 417.044 -3.00772 2.45904 0
M  V30 4273 H 418.716 -1.29445 4.42766 0
M  V30 4274 H 416.959 -1.15051 4.18265 0
M  V30 4275 H 417.63 -2.64367 4.84576 0
M  V30 4276 H 420.106 -2.94236 2.94218 0
M  V30 4277 H 418.982 -4.18274 3.55441 0
M  V30 4278 H 419.243 -4.02703 1.82435 0
M  V30 4279 N 418.302 -1.35869 -0.798587 0
M  V30 4280 C 419.249 -1.29446 -1.91082 0
M  V30 4281 C 420.219 -0.16487 -1.6528 0
M  V30 4282 O 421.404 -0.349888 -1.87564 0
M  V30 4283 C 418.544 -1.0804 -3.27752 0
M  V30 4284 C 417.657 -2.29993 -3.65687 0
M  V30 4285 C 416.792 -2.01673 -4.91428 0
M  V30 4286 C 415.831 -3.19636 -5.22015 0
M  V30 4287 N 414.968 -2.91039 -6.38937 0
M  V30 4288 H 419.808 -2.24553 -1.95907 0
M  V30 4289 H 417.345 -1.11615 -0.958148 0
M  V30 4290 H 419.303 -0.936586 -4.06551 0
M  V30 4291 H 417.933 -0.16592 -3.22373 0
M  V30 4292 H 416.985 -2.55211 -2.82085 0
M  V30 4293 H 418.297 -3.18052 -3.84245 0
M  V30 4294 H 417.451 -1.84168 -5.78072 0
M  V30 4295 H 416.19 -1.10911 -4.74921 0
M  V30 4296 H 415.195 -3.37709 -4.33858 0
M  V30 4297 H 416.42 -4.11211 -5.40447 0
M  V30 4298 H 414.366 -2.0288 -6.2384 0
M  V30 4299 H 414.283 -3.72635 -6.57784 0
M  V30 4300 H 415.551 -2.77093 -7.28587 0
M  V30 4301 N 419.78 1.02168 -1.19998 0
M  V30 4302 C 421.027 1.75685 -1.00702 0
M  V30 4303 C 421.355 1.88947 0.461426 0
M  V30 4304 O 420.61 1.40832 1.35885 0
M  V30 4305 C 420.909 3.18081 -1.62969 0
M  V30 4306 C 420.575 3.24809 -3.12746 0
M  V30 4307 C 419.237 3.26352 -3.53621 0
M  V30 4308 C 421.589 3.23379 -4.08749 0
M  V30 4309 C 418.917 3.2413 -4.89036 0
M  V30 4310 C 421.269 3.22698 -5.44104 0
M  V30 4311 C 419.933 3.22542 -5.84399 0
M  V30 4312 H 419.203 0.642877 -0.368496 0
M  V30 4313 H 421.85 1.19865 -1.49348 0
M  V30 4314 H 420.155 3.77027 -1.06573 0
M  V30 4315 H 421.852 3.73648 -1.45561 0
M  V30 4316 H 418.442 3.2434 -2.80181 0
M  V30 4317 H 422.626 3.21361 -3.78207 0
M  V30 4318 H 417.882 3.22338 -5.19527 0
M  V30 4319 H 422.056 3.20543 -6.18244 0
M  V30 4320 H 419.683 3.20575 -6.89301 0
M  V30 4321 N 421.258 1.00505 1.21394 0
M  V30 4322 C 422.206 0.558623 2.25792 0
M  V30 4323 C 423.2 -0.396848 1.64686 0
M  V30 4324 O 424.406 -0.268035 1.77993 0
M  V30 4325 H 420.781 0.1623 0.734277 0
M  V30 4326 H 422.752 1.4503 2.60785 0
M  V30 4327 C 421.501 -0.0989574 3.47559 0
M  V30 4328 H 420.824 0.627225 3.94849 0
M  V30 4329 H 422.264 -0.3746 4.22342 0
M  V30 4330 C 420.723 -1.33817 3.09184 0
M  V30 4331 O 421.253 -2.43252 3.19674 0
M  V30 4332 N 419.459 -1.21793 2.63846 0
M  V30 4333 H 419.006 -0.32746 2.5551 0
M  V30 4334 H 418.964 -2.04809 2.38539 0
M  V30 4335 N 422.737 -1.36956 0.779787 0
M  V30 4336 C 423.983 -2.00237 0.357324 0
M  V30 4337 C 424.338 -1.60787 -1.05666 0
M  V30 4338 O 423.631 -0.847836 -1.71821 0
M  V30 4339 C 423.825 -3.54585 0.447686 0
M  V30 4340 C 423.654 -4.09025 1.86891 0
M  V30 4341 C 422.424 -4.39612 2.49138 0
M  V30 4342 C 424.622 -4.29461 2.82963 0
M  V30 4343 N 422.604 -4.79816 3.82949 0
M  V30 4344 C 423.975 -4.72363 4.01588 0
M  V30 4345 C 426.03 -4.1161 2.80145 0
M  V30 4346 C 424.733 -4.99284 5.17791 0
M  V30 4347 C 426.759 -4.39672 3.95528 0
M  V30 4348 C 426.121 -4.82822 5.12896 0
M  V30 4349 H 422.22 -0.76148 0.177968 0
M  V30 4350 H 424.804 -1.6613 1.01533 0
M  V30 4351 H 422.975 -3.87982 -0.180184 0
M  V30 4352 H 424.707 -4.047 0.0023955 0
M  V30 4353 H 421.462 -4.28975 2.00693 0
M  V30 4354 H 421.886 -5.04216 4.51769 0
M  V30 4355 H 426.528 -3.77415 1.90572 0
M  V30 4356 H 424.246 -5.32365 6.07958 0
M  V30 4357 H 427.832 -4.27441 3.94697 0
M  V30 4358 H 426.712 -5.04118 6.00695 0
M  V30 4359 N 424.215 -0.530993 -1.48385 0
M  V30 4360 C 425.445 -0.00133928 -2.066 0
M  V30 4361 C 425.853 1.28599 -1.38777 0
M  V30 4362 O 425.196 1.77599 -0.469495 0
M  V30 4363 C 425.258 0.292137 -3.58311 0
M  V30 4364 C 424.922 -0.901864 -4.48013 0
M  V30 4365 C 425.919 -1.80053 -4.87726 0
M  V30 4366 C 423.604 -1.10915 -4.89901 0
M  V30 4367 C 425.598 -2.89038 -5.68098 0
M  V30 4368 C 423.285 -2.20213 -5.70043 0
M  V30 4369 C 424.283 -3.09107 -6.0905 0
M  V30 4370 O 423.971 -4.16514 -6.87583 0
M  V30 4371 H 423.703 -0.0308475 -0.675296 0
M  V30 4372 H 426.257 -0.736335 -1.91748 0
M  V30 4373 H 424.487 1.08112 -3.7128 0
M  V30 4374 H 426.176 0.763994 -3.98645 0
M  V30 4375 H 426.942 -1.65234 -4.55986 0
M  V30 4376 H 422.821 -0.426498 -4.59023 0
M  V30 4377 H 426.365 -3.58451 -5.98464 0
M  V30 4378 H 422.262 -2.35016 -6.01197 0
M  V30 4379 H 423.03 -4.14237 -7.05939 0
M  V30 4380 N 425.693 1.55336 -0.266172 0
M  V30 4381 C 426.939 1.99692 0.353681 0
M  V30 4382 C 427.272 1.1543 1.56172 0
M  V30 4383 O 426.547 0.222218 1.93226 0
M  V30 4384 C 426.83 3.52316 0.74466 0
M  V30 4385 C 426.683 4.47337 -0.470101 0
M  V30 4386 C 428.002 4.10588 1.58447 0
M  V30 4387 H 425.121 0.725961 0.12708 0
M  V30 4388 H 427.763 1.86336 -0.371333 0
M  V30 4389 H 425.913 3.63829 1.36239 0
M  V30 4390 H 427.585 4.4778 -1.10864 0
M  V30 4391 H 425.828 4.19364 -1.10978 0
M  V30 4392 H 426.499 5.51788 -0.15291 0
M  V30 4393 H 428.975 4.02297 1.06286 0
M  V30 4394 H 427.851 5.17607 1.82686 0
M  V30 4395 H 428.112 3.60253 2.56262 0
M  V30 4396 N 427.171 -0.0066808 1.57599 0
M  V30 4397 C 428.448 -0.729586 1.81484 0
M  V30 4398 C 428.828 -1.92359 0.869558 0
M  V30 4399 O 428.176 -2.28348 -0.0832533 0
M  V30 4400 C 428.386 -1.1416 3.29801 0
M  V30 4401 C 429.734 -1.54823 3.95367 0
M  V30 4402 O 430.758 -1.23558 3.34084 0
M  V30 4403 O 429.617 -2.12937 5.03309 0
M  V30 4404 H 426.711 -0.354674 0.747085 0
M  V30 4405 H 429.257 0.0182609 1.6969 0
M  V30 4406 H 428.029 -0.290231 3.90222 0
M  V30 4407 H 427.652 -1.94876 3.46568 0
M  V30 4408 N 428.649 -1.55105 -0.279332 0
M  V30 4409 C 429.897 -1.75066 -1.00977 0
M  V30 4410 C 430.218 -0.551276 -1.87045 0
M  V30 4411 O 429.488 0.433984 -1.91032 0
M  V30 4412 H 428.068 -0.645578 -0.375816 0
M  V30 4413 H 430.73 -1.92497 -0.305089 0
M  V30 4414 H 429.826 -2.64894 -1.65038 0
M  V30 4415 N 430.127 0.543554 -1.4793 0
M  V30 4416 C 431.373 1.30201 -1.55485 0
M  V30 4417 C 431.706 1.92925 -0.222201 0
M  V30 4418 O 430.981 1.78586 0.77053 0
M  V30 4419 C 431.264 2.40174 -2.68307 0
M  V30 4420 C 431.117 1.8223 -4.11233 0
M  V30 4421 C 432.436 3.42024 -2.76961 0
M  V30 4422 H 429.555 0.472036 -0.565996 0
M  V30 4423 H 432.197 0.606914 -1.80046 0
M  V30 4424 H 430.347 2.99463 -2.47495 0
M  V30 4425 H 432.019 1.27096 -4.43446 0
M  V30 4426 H 430.262 1.12832 -4.18869 0
M  V30 4427 H 430.933 2.61793 -4.85972 0
M  V30 4428 H 433.409 2.92672 -2.95774 0
M  V30 4429 H 432.285 4.16383 -3.57654 0
M  V30 4430 H 432.546 4.0173 -1.84568 0
M  V30 4431 N 431.605 1.3629 0.791371 0
M  V30 4432 C 432.515 1.32606 1.93527 0
M  V30 4433 C 433.531 0.228541 1.72493 0
M  V30 4434 O 434.707 0.460571 1.96063 0
M  V30 4435 C 431.772 1.11271 3.28359 0
M  V30 4436 C 430.833 2.3048 3.62185 0
M  V30 4437 C 430.066 2.10154 4.90583 0
M  V30 4438 O 430.289 1.07572 5.60165 0
M  V30 4439 O 429.223 2.97884 5.23019 0
M  V30 4440 H 433.049 2.28909 1.99585 0
M  V30 4441 H 430.634 1.16818 0.931344 0
M  V30 4442 H 432.516 1.01283 4.09047 0
M  V30 4443 H 431.191 0.180292 3.23198 0
M  V30 4444 H 430.098 2.46036 2.81811 0
M  V30 4445 H 431.431 3.22221 3.72068 0
M  V30 4446 N 433.083 -1.0153 1.20538 0
M  V30 4447 C 434.329 -1.75408 1.01783 0
M  V30 4448 C 434.662 -1.88943 -0.448814 0
M  V30 4449 O 433.937 -1.4162 -1.33319 0
M  V30 4450 C 434.22 -3.17255 1.70356 0
M  V30 4451 C 434.073 -3.11508 3.24473 0
M  V30 4452 C 435.392 -4.15955 1.43769 0
M  V30 4453 H 432.511 -0.636713 0.371167 0
M  V30 4454 H 435.153 -1.18436 1.4857 0
M  V30 4455 H 433.303 -3.65898 1.30578 0
M  V30 4456 H 434.975 -2.70658 3.73553 0
M  V30 4457 H 433.218 -2.4887 3.55311 0
M  V30 4458 H 433.889 -4.11784 3.67611 0
M  V30 4459 H 436.365 -3.75973 1.7828 0
M  V30 4460 H 435.241 -5.13368 1.94279 0
M  V30 4461 H 435.502 -4.40586 0.365564 0
M  V30 4462 N 434.561 -1.01147 -1.20859 0
M  V30 4463 C 435.511 -0.548247 -2.2131 0
M  V30 4464 C 436.495 0.393646 -1.5601 0
M  V30 4465 O 437.687 0.217445 -1.75659 0
M  V30 4466 C 434.816 0.117252 -3.431 0
M  V30 4467 C 433.902 -0.846043 -4.15575 0
M  V30 4468 N 434.293 -2.00149 -4.64515 0
M  V30 4469 C 432.591 -0.665783 -4.41003 0
M  V30 4470 C 433.292 -2.60764 -5.19978 0
M  V30 4471 N 432.268 -1.88868 -5.09735 0
M  V30 4472 H 436.07 -1.42921 -2.56809 0
M  V30 4473 H 433.584 -0.876142 -1.36739 0
M  V30 4474 H 435.581 0.46662 -4.1428 0
M  V30 4475 H 434.241 0.994115 -3.09107 0
M  V30 4476 H 435.252 -2.38162 -4.5989 0
M  V30 4477 H 431.929 0.163456 -4.1718 0
M  V30 4478 H 433.319 -3.58519 -5.68255 0
M  V30 4479 N 436.039 1.36541 -0.78704 0
M  V30 4480 C 436.987 2.31965 -0.171724 0
M  V30 4481 C 437.981 1.55689 0.667631 0
M  V30 4482 O 439.187 1.70969 0.562981 0
M  V30 4483 H 435.562 0.751101 -0.0367545 0
M  V30 4484 H 437.533 2.81428 -0.992017 0
M  V30 4485 C 436.282 3.40968 0.680904 0
M  V30 4486 H 435.605 3.99775 0.0443961 0
M  V30 4487 H 437.045 4.10063 1.07815 0
M  V30 4488 C 435.504 2.82338 1.83813 0
M  V30 4489 O 436.034 2.74311 2.93456 0
M  V30 4490 N 434.24 2.39661 1.6435 0
M  V30 4491 H 433.787 2.46389 0.751668 0
M  V30 4492 H 433.745 2.00779 2.4194 0
M  V30 4493 N 437.518 0.538854 1.48102 0
M  V30 4494 C 438.481 -0.208395 2.28251 0
M  V30 4495 C 439.481 -0.859656 1.35892 0
M  V30 4496 O 440.671 -0.71834 1.58699 0
M  V30 4497 C 437.803 -1.30252 3.15035 0
M  V30 4498 H 438.996 0.495407 2.9578 0
M  V30 4499 H 436.549 0.295112 1.53489 0
M  V30 4500 H 437.284 -2.0393 2.52157 0
M  V30 4501 H 437.069 -0.840551 3.82985 0
M  V30 4502 H 438.559 -1.82787 3.75471 0
M  V30 4503 N 438.996 -1.55193 0.274407 0
M  V30 4504 C 439.943 -2.225 -0.613374 0
M  V30 4505 C 440.913 -1.19823 -1.15029 0
M  V30 4506 O 442.098 -1.48362 -1.19973 0
M  V30 4507 C 439.238 -2.94927 -1.79199 0
M  V30 4508 C 438.351 -4.12322 -1.28899 0
M  V30 4509 C 437.486 -4.72394 -2.42934 0
M  V30 4510 C 436.525 -5.81984 -1.89634 0
M  V30 4511 N 435.662 -6.36123 -2.9714 0
M  V30 4512 H 440.502 -2.97982 -0.032756 0
M  V30 4513 H 438.039 -1.47099 -0.00440146 0
M  V30 4514 H 439.997 -3.35134 -2.48478 0
M  V30 4515 H 438.627 -2.2187 -2.34465 0
M  V30 4516 H 437.679 -3.7724 -0.489327 0
M  V30 4517 H 438.991 -4.91355 -0.858587 0
M  V30 4518 H 438.145 -5.15317 -3.20208 0
M  V30 4519 H 436.884 -3.92636 -2.8929 0
M  V30 4520 H 435.889 -5.38511 -1.1084 0
M  V30 4521 H 437.114 -6.6361 -1.44215 0
M  V30 4522 H 435.06 -5.59259 -3.42878 0
M  V30 4523 H 434.977 -7.10427 -2.58515 0
M  V30 4524 H 436.245 -6.83704 -3.74391 0
M  V30 4525 N 440.474 -0.00167713 -1.576 0
M  V30 4526 C 441.702 0.693759 -1.94922 0
M  V30 4527 C 442.117 1.67215 -0.876626 0
M  V30 4528 O 441.474 1.81929 0.144279 0
M  V30 4529 C 441.525 1.42416 -3.32265 0
M  V30 4530 O 441.246 0.485014 -4.35407 0
M  V30 4531 C 442.747 2.21395 -3.84056 0
M  V30 4532 H 439.967 0.193118 -0.642609 0
M  V30 4533 H 442.511 -0.0532952 -2.04431 0
M  V30 4534 H 440.666 2.12284 -3.24059 0
M  V30 4535 H 441.08 1.00053 -5.14868 0
M  V30 4536 H 442.554 2.67996 -4.82578 0
M  V30 4537 H 443.031 3.04142 -3.16851 0
M  V30 4538 H 443.637 1.56542 -3.95443 0
M  V30 4539 N 441.952 1.55251 0.271103 0
M  V30 4540 C 442.899 1.88261 1.33516 0
M  V30 4541 C 443.869 0.734296 1.48988 0
M  V30 4542 O 445.054 0.985741 1.63364 0
M  V30 4543 C 442.194 2.16168 2.69008 0
M  V30 4544 C 441.307 3.43678 2.61743 0
M  V30 4545 C 440.442 3.61276 3.89427 0
M  V30 4546 C 439.481 4.82472 3.7668 0
M  V30 4547 N 438.618 4.96717 4.96202 0
M  V30 4548 H 443.458 2.79015 1.04665 0
M  V30 4549 H 440.995 1.38137 0.505618 0
M  V30 4550 H 442.953 2.30349 3.47844 0
M  V30 4551 H 441.583 1.28646 2.96057 0
M  V30 4552 H 440.635 3.37959 1.74607 0
M  V30 4553 H 441.947 4.3265 2.48224 0
M  V30 4554 H 441.101 3.75284 4.76704 0
M  V30 4555 H 439.84 2.70492 4.05814 0
M  V30 4556 H 438.845 4.68465 2.87786 0
M  V30 4557 H 440.07 5.74692 3.61809 0
M  V30 4558 H 438.016 4.08865 5.12997 0
M  V30 4559 H 437.933 5.79738 4.85222 0
M  V30 4560 H 439.201 5.15113 5.85046 0
M  V30 4561 N 443.43 -0.535701 1.48216 0
M  V30 4562 C 444.841 -1.11769 1.49548 0
M  V30 4563 C 445.192 -1.94442 0.26207 0
M  V30 4564 O 444.317 -2.06987 -0.631287 0
M  V30 4565 C 444.912 -2.03367 2.70975 0
M  V30 4566 C 443.471 -2.56795 2.75196 0
M  V30 4567 C 442.618 -1.33631 2.42977 0
M  V30 4568 H 445.569 -0.321232 1.55415 0
M  V30 4569 H 445.59 -2.87569 2.49167 0
M  V30 4570 H 445.102 -1.43169 3.60727 0
M  V30 4571 H 443.203 -3.20731 1.89638 0
M  V30 4572 H 443.316 -2.9632 3.76472 0
M  V30 4573 H 441.68 -1.6502 1.94012 0
M  V30 4574 H 442.463 -0.75194 3.34964 0
M  V30 4575 N 444.908 -1.36708 -0.784132 0
M  V30 4576 C 446.324 -1.17237 -1.08294 0
M  V30 4577 C 446.524 -5.93947e-05 -2.015 0
M  V30 4578 O 445.58 0.663686 -2.43622 0
M  V30 4579 C 446.893 -2.48557 -1.69233 0
M  V30 4580 C 448.441 -2.54968 -1.8155 0
M  V30 4581 C 448.916 -3.86388 -2.45904 0
M  V30 4582 N 450.407 -3.87762 -2.53367 0
M  V30 4583 C 451.142 -4.86191 -3.03983 0
M  V30 4584 N 450.638 -5.95015 -3.54866 0
M  V30 4585 N 452.431 -4.73606 -3.02743 0
M  V30 4586 H 444.582 -2.11758 -0.16501 0
M  V30 4587 H 446.845 -0.93822 -0.135822 0
M  V30 4588 H 446.551 -3.34638 -1.08215 0
M  V30 4589 H 446.425 -2.64748 -2.68679 0
M  V30 4590 H 448.812 -1.69302 -2.41704 0
M  V30 4591 H 448.893 -2.42672 -0.80895 0
M  V30 4592 H 448.537 -4.72462 -1.86392 0
M  V30 4593 H 448.467 -3.95982 -3.4714 0
M  V30 4594 H 450.958 -3.09145 -2.17343 0
M  V30 4595 H 451.271 -6.66086 -3.91854 0
M  V30 4596 H 449.616 -5.98676 -3.53003 0
M  V30 4597 H 452.807 -3.87717 -2.62284 0
M  V30 4598 H 452.98 -5.50473 -3.41881 0
M  V30 4599 N 446.386 1.0089 -1.21074 0
M  V30 4600 C 447.296 2.13039 -0.982425 0
M  V30 4601 C 448.312 1.73881 0.0642161 0
M  V30 4602 O 449.488 2.01012 -0.12496 0
M  V30 4603 C 446.553 3.42377 -0.545803 0
M  V30 4604 C 445.614 3.95731 -1.6642 0
M  V30 4605 C 444.847 5.18896 -1.24832 0
M  V30 4606 O 445.07 5.70273 -0.120265 0
M  V30 4607 O 444.004 5.65597 -2.05873 0
M  V30 4608 H 447.83 2.35175 -1.92163 0
M  V30 4609 H 445.415 1.1142 -0.995285 0
M  V30 4610 H 447.297 4.20244 -0.311912 0
M  V30 4611 H 445.972 3.21639 0.364727 0
M  V30 4612 H 444.879 3.19108 -1.95246 0
M  V30 4613 H 446.212 4.20872 -2.55201 0
M  V30 4614 N 447.864 1.01787 1.20321 0
M  V30 4615 C 448.774 0.598898 2.26827 0
M  V30 4616 C 449.79 -0.36418 1.70146 0
M  V30 4617 O 450.966 -0.224812 2.00141 0
M  V30 4618 C 448.031 -0.0549769 3.46656 0
M  V30 4619 C 447.092 0.954205 4.18561 0
M  V30 4620 C 446.325 0.331439 5.3267 0
M  V30 4621 O 446.548 -0.86851 5.63749 0
M  V30 4622 O 445.482 1.0488 5.92692 0
M  V30 4623 H 449.308 1.48562 2.64883 0
M  V30 4624 H 446.893 0.787434 1.26964 0
M  V30 4625 H 448.775 -0.420102 4.19301 0
M  V30 4626 H 447.45 -0.915876 3.10473 0
M  V30 4627 H 446.357 1.37072 3.48083 0
M  V30 4628 H 447.69 1.78511 4.58688 0
M  V30 4629 N 449.342 -1.36122 0.79427 0
M  V30 4630 C 450.274 -2.28683 0.153903 0
M  V30 4631 C 451.287 -1.49707 -0.639669 0
M  V30 4632 O 452.476 -1.7209 -0.474054 0
M  V30 4633 C 449.576 -3.29202 -0.804921 0
M  V30 4634 C 448.749 -4.37358 -0.060366 0
M  V30 4635 C 447.808 -5.17811 -0.935849 0
M  V30 4636 O 446.834 -5.67853 -0.391309 0
M  V30 4637 N 448.036 -5.34721 -2.25951 0
M  V30 4638 H 450.801 -2.84278 0.949008 0
M  V30 4639 H 448.362 -1.4834 0.648611 0
M  V30 4640 H 450.354 -3.79914 -1.39455 0
M  V30 4641 H 448.924 -2.74212 -1.50088 0
M  V30 4642 H 448.144 -3.87746 0.710382 0
M  V30 4643 H 449.432 -5.06777 0.45324 0
M  V30 4644 H 448.83 -4.95687 -2.72601 0
M  V30 4645 H 447.387 -5.88657 -2.79867 0
M  V30 4646 N 450.82 -0.546701 -1.47814 0
M  V30 4647 C 452.05 -0.0232519 -2.06587 0
M  V30 4648 C 452.458 1.2712 -1.40133 0
M  V30 4649 O 451.801 1.77091 -0.488305 0
M  V30 4650 C 451.863 0.254117 -3.58601 0
M  V30 4651 C 451.527 -0.949331 -4.47031 0
M  V30 4652 C 452.524 -1.85216 -4.85789 0
M  V30 4653 C 450.209 -1.16104 -4.88697 0
M  V30 4654 C 452.203 -2.95047 -5.65001 0
M  V30 4655 C 449.89 -2.26247 -5.67676 0
M  V30 4656 C 450.888 -3.1555 -6.05737 0
M  V30 4657 O 450.576 -4.23784 -6.83127 0
M  V30 4658 H 450.308 -0.0380082 -0.674931 0
M  V30 4659 H 452.862 -0.756631 -1.90956 0
M  V30 4660 H 451.092 1.04168 -3.72406 0
M  V30 4661 H 452.781 0.72167 -3.99433 0
M  V30 4662 H 453.547 -1.70061 -4.54207 0
M  V30 4663 H 449.426 -0.475159 -4.58545 0
M  V30 4664 H 452.97 -3.64778 -5.94628 0
M  V30 4665 H 448.867 -2.41379 -5.98671 0
M  V30 4666 H 449.635 -4.21701 -7.01506 0
M  V30 4667 N 452.299 1.55045 -0.282633 0
M  V30 4668 C 453.247 2.24254 0.617478 0
M  V30 4669 C 454.241 1.24215 1.15183 0
M  V30 4670 O 455.447 1.42123 1.10459 0
M  V30 4671 H 451.822 0.719801 0.217693 0
M  V30 4672 H 453.793 2.98398 0.0110076 0
M  V30 4673 C 452.542 2.98281 1.78672 0
M  V30 4674 H 451.865 3.75053 1.38475 0
M  V30 4675 H 453.305 3.50017 2.393 0
M  V30 4676 C 451.764 2.04184 2.67975 0
M  V30 4677 O 452.294 1.59792 3.6855 0
M  V30 4678 N 450.5 1.70526 2.35307 0
M  V30 4679 H 450.047 2.06821 1.53567 0
M  V30 4680 H 450.005 1.07839 2.95327 0
M  V30 4681 N 453.777 0.010035 1.57597 0
M  V30 4682 C 455.002 -0.687021 1.95691 0
M  V30 4683 C 455.427 -1.65952 0.885519 0
M  V30 4684 O 454.785 -1.80633 -0.15543 0
M  V30 4685 C 454.833 -1.3864 3.32884 0
M  V30 4686 O 453.937 -2.50115 3.27897 0
M  V30 4687 H 453.278 -0.181989 0.638573 0
M  V30 4688 H 455.808 0.0662122 2.04493 0
M  V30 4689 H 455.818 -1.74754 3.6868 0
M  V30 4690 H 454.493 -0.673411 4.10412 0
M  V30 4691 H 453.07 -2.16253 3.03791 0
M  V30 4692 N 455.255 -1.55392 -0.262866 0
M  V30 4693 C 456.483 -1.80513 -1.01108 0
M  V30 4694 C 456.898 -0.583533 -1.79556 0
M  V30 4695 O 456.255 0.447585 -1.76926 0
M  V30 4696 C 456.306 -3.03648 -1.96164 0
M  V30 4697 O 456.027 -4.2109 -1.20893 0
M  V30 4698 C 457.528 -3.41448 -2.82715 0
M  V30 4699 H 454.748 -0.601079 -0.298236 0
M  V30 4700 H 457.292 -2.02425 -0.290582 0
M  V30 4701 H 455.447 -2.83832 -2.63663 0
M  V30 4702 H 455.861 -4.90771 -1.85051 0
M  V30 4703 H 457.335 -4.30751 -3.45192 0
M  V30 4704 H 457.812 -2.61308 -3.53008 0
M  V30 4705 H 458.418 -3.63559 -2.20693 0
M  V30 4706 N 456.733 0.527833 -1.48498 0
M  V30 4707 C 457.963 1.30633 -1.60058 0
M  V30 4708 C 458.371 1.87394 -0.260786 0
M  V30 4709 O 457.714 1.67227 0.760317 0
M  V30 4710 C 457.776 2.49361 -2.58958 0
M  V30 4711 C 457.44 2.13671 -4.03972 0
M  V30 4712 C 458.437 1.69217 -4.91591 0
M  V30 4713 C 456.122 2.24129 -4.49524 0
M  V30 4714 C 458.116 1.35689 -6.2279 0
M  V30 4715 C 455.803 1.90212 -5.80743 0
M  V30 4716 C 456.801 1.46063 -6.67199 0
M  V30 4717 O 456.489 1.12593 -7.95976 0
M  V30 4718 H 456.221 0.403444 -0.54241 0
M  V30 4719 H 458.775 0.643233 -1.95068 0
M  V30 4720 H 457.005 3.18659 -2.19073 0
M  V30 4721 H 458.694 3.11421 -2.6033 0
M  V30 4722 H 459.46 1.60607 -4.57636 0
M  V30 4723 H 455.339 2.57447 -3.82416 0
M  V30 4724 H 458.883 1.01157 -6.90227 0
M  V30 4725 H 454.78 1.98464 -6.14233 0
M  V30 4726 H 455.548 1.25972 -8.08748 0
M  V30 4727 N 458.211 1.37122 0.776871 0
M  V30 4728 C 459.627 1.1781 1.07671 0
M  V30 4729 C 459.827 0.0107454 2.01497 0
M  V30 4730 O 458.883 -0.650756 2.4397 0
M  V30 4731 C 460.196 2.49451 1.67913 0
M  V30 4732 C 461.744 2.55927 1.80195 0
M  V30 4733 C 462.219 3.87686 2.43851 0
M  V30 4734 N 463.71 3.891 2.51307 0
M  V30 4735 C 464.445 4.87797 3.014 0
M  V30 4736 N 463.941 5.96888 3.51705 0
M  V30 4737 N 465.734 4.75205 3.00227 0
M  V30 4738 H 457.885 2.11843 0.153778 0
M  V30 4739 H 460.148 0.938927 0.130844 0
M  V30 4740 H 459.854 3.35207 1.06439 0
M  V30 4741 H 459.728 2.66169 2.67271 0
M  V30 4742 H 462.115 1.70582 2.40803 0
M  V30 4743 H 462.196 2.43097 0.796069 0
M  V30 4744 H 461.84 4.73444 1.83884 0
M  V30 4745 H 461.77 3.97817 3.45035 0
M  V30 4746 H 464.261 3.10293 2.157 0
M  V30 4747 H 464.574 6.68155 3.88316 0
M  V30 4748 H 462.919 6.0054 3.49824 0
M  V30 4749 H 466.11 3.89103 2.60224 0
M  V30 4750 H 466.283 5.52279 3.38957 0
M  V30 4751 N 459.689 -1.00246 1.21608 0
M  V30 4752 C 460.935 -1.74319 1.03638 0
M  V30 4753 C 461.268 -1.89408 -0.428749 0
M  V30 4754 O 460.543 -1.43026 -1.3181 0
M  V30 4755 C 460.826 -3.15431 1.73711 0
M  V30 4756 C 460.679 -3.08049 3.27759 0
M  V30 4757 C 461.998 -4.14407 1.48173 0
M  V30 4758 H 459.117 -0.632741 0.377899 0
M  V30 4759 H 461.759 -1.16853 1.49818 0
M  V30 4760 H 459.909 -3.64493 1.34452 0
M  V30 4761 H 461.581 -2.66681 3.76403 0
M  V30 4762 H 459.824 -2.45088 3.57931 0
M  V30 4763 H 460.495 -4.07862 3.71958 0
M  V30 4764 H 462.971 -3.74061 1.82258 0
M  V30 4765 H 461.847 -5.11279 1.99713 0
M  V30 4766 H 462.108 -4.40174 0.412273 0
M  V30 4767 N 461.167 -1.02423 -1.1978 0
M  V30 4768 C 462.413 -0.719051 -1.89625 0
M  V30 4769 C 462.746 0.750083 -1.7913 0
M  V30 4770 O 462.021 1.54574 -1.18056 0
M  V30 4771 C 462.304 -1.16499 -3.40735 0
M  V30 4772 C 462.157 -2.695 -3.60125 0
M  V30 4773 C 463.476 -0.742166 -4.33797 0
M  V30 4774 H 460.595 -0.26269 -0.688595 0
M  V30 4775 H 463.237 -1.27333 -1.41018 0
M  V30 4776 H 461.387 -0.69341 -3.82262 0
M  V30 4777 H 463.059 -3.24569 -3.278 0
M  V30 4778 H 461.302 -3.10113 -3.03336 0
M  V30 4779 H 461.973 -2.95757 -4.66081 0
M  V30 4780 H 464.449 -1.1477 -3.99959 0
M  V30 4781 H 463.325 -1.08213 -5.38127 0
M  V30 4782 H 463.586 0.355747 -4.40666 0
M  V30 4783 N 462.645 1.35699 -0.801477 0
M  V30 4784 C 463.87 2.03687 -0.390678 0
M  V30 4785 C 464.295 1.60015 0.988778 0
M  V30 4786 O 463.653 0.774357 1.63931 0
M  V30 4787 C 463.701 3.57439 -0.476404 0
M  V30 4788 O 462.805 4.09208 0.512106 0
M  V30 4789 H 462.146 0.64344 -0.163956 0
M  V30 4790 H 464.676 1.73403 -1.08594 0
M  V30 4791 H 464.686 4.06544 -0.344357 0
M  V30 4792 H 463.361 3.88576 -1.48262 0
M  V30 4793 H 461.938 3.7134 0.340721 0
M  V30 4794 N 464.123 0.554532 1.47522 0
M  V30 4795 C 465.369 0.0295227 2.02779 0
M  V30 4796 C 465.702 -1.31582 1.42828 0
M  V30 4797 O 464.977 -1.85561 0.582872 0
M  V30 4798 C 465.26 -0.0664057 3.60039 0
M  V30 4799 C 465.113 1.30585 4.30427 0
M  V30 4800 C 466.432 -0.781162 4.33112 0
M  V30 4801 H 463.551 0.0122027 0.736899 0
M  V30 4802 H 466.193 0.716305 1.7598 0
M  V30 4803 H 464.343 -0.651307 3.83002 0
M  V30 4804 H 466.015 1.93374 4.18813 0
M  V30 4805 H 464.258 1.88125 3.90886 0
M  V30 4806 H 464.929 1.19147 5.38988 0
M  V30 4807 H 467.405 -0.284565 4.15126 0
M  V30 4808 H 466.281 -0.817237 5.42782 0
M  V30 4809 H 466.542 -1.83672 4.0214 0
M  V30 4810 N 465.601 -1.54893 0.290851 0
M  V30 4811 C 466.531 -2.26103 -0.583084 0
M  V30 4812 C 467.512 -1.25684 -1.14619 0
M  V30 4813 O 468.697 -1.54436 -1.17741 0
M  V30 4814 C 465.827 -2.99409 -1.75987 0
M  V30 4815 C 464.781 -4.0689 -1.32758 0
M  V30 4816 C 464.107 -4.67856 -2.58872 0
M  V30 4817 C 465.407 -5.20215 -0.46624 0
M  V30 4818 H 467.101 -2.99398 0.0108214 0
M  V30 4819 H 464.647 -1.43998 0.00664468 0
M  V30 4820 H 466.6 -3.47943 -2.37727 0
M  V30 4821 H 465.324 -2.23675 -2.37985 0
M  V30 4822 H 463.983 -3.59191 -0.733299 0
M  V30 4823 H 463.631 -3.88772 -3.19163 0
M  V30 4824 H 463.331 -5.40438 -2.30653 0
M  V30 4825 H 464.855 -5.19147 -3.21433 0
M  V30 4826 H 466.269 -5.64704 -0.989047 0
M  V30 4827 H 464.666 -5.99455 -0.27826 0
M  V30 4828 H 465.736 -4.82198 0.511173 0
M  V30 4829 N 467.08 -0.0183926 -1.57589 0
M  V30 4830 C 468.308 0.673046 -1.95647 0
M  V30 4831 C 468.723 1.66275 -0.894312 0
M  V30 4832 O 468.08 1.82072 0.124975 0
M  V30 4833 C 468.131 1.38884 -3.33756 0
M  V30 4834 O 467.852 0.438806 -4.35897 0
M  V30 4835 C 469.353 2.1731 -3.86383 0
M  V30 4836 H 466.573 0.186292 -0.644621 0
M  V30 4837 H 469.117 -0.0749748 -2.04363 0
M  V30 4838 H 467.272 2.08835 -3.26293 0
M  V30 4839 H 467.686 0.945869 -5.15901 0
M  V30 4840 H 469.16 2.62863 -4.85394 0
M  V30 4841 H 469.637 3.00764 -3.20059 0
M  V30 4842 H 470.243 1.52339 -3.97081 0
M  V30 4843 N 468.558 1.5553 0.254621 0
M  V30 4844 C 469.804 1.77262 0.985193 0
M  V30 4845 C 470.137 0.582286 1.85265 0
M  V30 4846 O 469.412 -0.419666 1.89919 0
M  V30 4847 C 469.695 3.0881 1.85225 0
M  V30 4848 C 469.548 4.38233 1.0135 0
M  V30 4849 C 470.867 3.3653 2.83612 0
M  V30 4850 H 467.986 0.644906 0.356742 0
M  V30 4851 H 470.628 1.88264 0.256236 0
M  V30 4852 H 468.778 2.99562 2.47376 0
M  V30 4853 H 470.45 4.59463 0.411269 0
M  V30 4854 H 468.693 4.32636 0.317574 0
M  V30 4855 H 469.364 5.26644 1.65379 0
M  V30 4856 H 471.84 3.45691 2.31596 0
M  V30 4857 H 470.716 4.29805 3.41407 0
M  V30 4858 H 470.977 2.57064 3.59681 0
M  V30 4859 N 470.036 -0.519951 1.48776 0
M  V30 4860 C 470.966 -1.63253 1.66945 0
M  V30 4861 C 471.947 -1.62014 0.518224 0
M  V30 4862 O 473.132 -1.79053 0.751919 0
M  V30 4863 C 470.262 -3.0181 1.71836 0
M  V30 4864 C 469.216 -3.17911 2.8656 0
M  V30 4865 C 468.542 -4.5763 2.76548 0
M  V30 4866 C 469.842 -2.99729 4.27738 0
M  V30 4867 H 471.536 -1.48302 2.6009 0
M  V30 4868 H 469.082 -0.712026 1.25165 0
M  V30 4869 H 471.035 -3.79525 1.83135 0
M  V30 4870 H 469.759 -3.17806 0.752775 0
M  V30 4871 H 468.418 -2.42616 2.74833 0
M  V30 4872 H 468.066 -4.70476 1.77937 0
M  V30 4873 H 467.766 -4.69346 3.53536 0
M  V30 4874 H 469.29 -5.37431 2.89828 0
M  V30 4875 H 470.704 -3.67228 4.40246 0
M  V30 4876 H 469.101 -3.22932 5.05801 0
M  V30 4877 H 470.171 -1.96047 4.43502 0
M  V30 4878 N 471.514 -1.37532 -0.769588 0
M  V30 4879 C 472.464 -1.29984 -1.87318 0
M  V30 4880 C 473.448 -0.187242 -1.59807 0
M  V30 4881 O 474.64 -0.421827 -1.719 0
M  V30 4882 C 471.769 -1.11126 -3.24817 0
M  V30 4883 C 470.855 -2.26939 -3.58273 0
M  V30 4884 N 471.246 -3.52336 -3.62895 0
M  V30 4885 C 469.544 -2.19141 -3.8845 0
M  V30 4886 C 470.245 -4.28719 -3.9316 0
M  V30 4887 N 469.221 -3.57884 -4.0917 0
M  V30 4888 H 473.023 -2.24946 -1.89147 0
M  V30 4889 H 470.537 -1.30535 -0.966143 0
M  V30 4890 H 472.534 -1.03803 -4.0377 0
M  V30 4891 H 471.194 -0.17083 -3.2425 0
M  V30 4892 H 472.205 -3.86216 -3.45048 0
M  V30 4893 H 468.882 -1.33167 -3.95693 0
M  V30 4894 H 470.272 -5.37254 -4.03494 0
M  V30 4895 N 472.992 0.995999 -1.22138 0
M  V30 4896 C 473.924 2.08745 -0.946485 0
M  V30 4897 C 474.937 1.62633 0.0737356 0
M  V30 4898 O 476.126 1.77782 -0.159886 0
M  V30 4899 C 473.226 3.36516 -0.401305 0
M  V30 4900 C 472.399 4.11672 -1.47801 0
M  V30 4901 C 471.458 5.17728 -0.940461 0
M  V30 4902 O 470.484 5.45482 -1.62596 0
M  V30 4903 N 471.686 5.80005 0.239723 0
M  V30 4904 H 474.451 2.32908 -1.88611 0
M  V30 4905 H 472.012 1.16152 -1.12785 0
M  V30 4906 H 474.004 4.04691 -0.0270837 0
M  V30 4907 H 472.574 3.0944 0.443354 0
M  V30 4908 H 471.794 3.38171 -2.02568 0
M  V30 4909 H 473.082 4.58657 -2.20253 0
M  V30 4910 H 472.48 5.5982 0.813518 0
M  V30 4911 H 471.037 6.4943 0.555361 0
M  V30 4912 N 474.47 1.03057 1.19235 0
M  V30 4913 C 475.747 0.642608 1.84743 0
M  V30 4914 C 476.127 -0.878577 1.91948 0
M  V30 4915 O 475.475 -1.77597 1.43776 0
M  V30 4916 C 475.685 1.30665 3.23616 0
M  V30 4917 C 477.033 1.43098 3.9976 0
M  V30 4918 O 478.057 1.26396 3.3302 0
M  V30 4919 O 476.916 1.70223 5.19313 0
M  V30 4920 H 474.01 0.223573 0.796206 0
M  V30 4921 H 476.556 1.12883 1.26711 0
M  V30 4922 H 475.328 2.34544 3.13217 0
M  V30 4923 H 474.951 0.808405 3.89295 0
M  V30 4924 N 475.948 -1.35272 0.808662 0
M  V30 4925 C 477.194 -1.99434 0.399717 0
M  V30 4926 C 477.549 -1.62992 -1.02232 0
M  V30 4927 O 476.842 -0.884091 -1.69983 0
M  V30 4928 C 477.036 -3.53556 0.522798 0
M  V30 4929 C 476.865 -4.04969 1.95525 0
M  V30 4930 C 475.635 -4.34228 2.58407 0
M  V30 4931 C 477.833 -4.23362 2.92009 0
M  V30 4932 N 475.815 -4.71585 3.93041 0
M  V30 4933 C 477.186 -4.63739 4.11517 0
M  V30 4934 C 479.241 -4.05576 2.88813 0
M  V30 4935 C 477.944 -4.88189 5.28265 0
M  V30 4936 C 479.97 -4.31184 4.04765 0
M  V30 4937 C 479.332 -4.71834 5.23022 0
M  V30 4938 H 475.431 -0.757534 0.19408 0
M  V30 4939 H 478.015 -1.63939 1.05034 0
M  V30 4940 H 476.186 -3.88277 -0.0978471 0
M  V30 4941 H 477.918 -4.04604 0.0882378 0
M  V30 4942 H 474.673 -4.24621 2.09747 0
M  V30 4943 H 475.097 -4.9452 4.62363 0
M  V30 4944 H 479.739 -3.73288 1.98535 0
M  V30 4945 H 477.457 -5.1935 6.19113 0
M  V30 4946 H 481.043 -4.18972 4.03675 0
M  V30 4947 H 479.923 -4.91263 6.11253 0
M  V30 4948 N 477.426 -0.562348 -1.47226 0
M  V30 4949 C 478.356 0.170627 -2.32876 0
M  V30 4950 C 479.337 0.903748 -1.44106 0
M  V30 4951 O 480.522 0.883206 -1.72954 0
M  V30 4952 C 477.652 1.19786 -3.25989 0
M  V30 4953 C 476.606 0.580875 -4.2404 0
M  V30 4954 C 475.932 1.71311 -5.06514 0
M  V30 4955 C 477.232 -0.468714 -5.20193 0
M  V30 4956 H 478.926 -0.544441 -2.94408 0
M  V30 4957 H 476.472 -0.263271 -1.41573 0
M  V30 4958 H 478.425 1.71884 -3.84752 0
M  V30 4959 H 477.149 1.94294 -2.62521 0
M  V30 4960 H 475.808 0.0811538 -3.6651 0
M  V30 4961 H 475.456 2.44736 -4.39447 0
M  V30 4962 H 475.156 1.30604 -5.72902 0
M  V30 4963 H 476.68 2.23725 -5.68137 0
M  V30 4964 H 478.094 -0.0336028 -5.7329 0
M  V30 4965 H 476.491 -0.794957 -5.94811 0
M  V30 4966 H 477.561 -1.36269 -4.65359 0
M  V30 4967 N 478.904 1.54736 -0.299062 0
M  V30 4968 C 479.852 2.24897 0.593658 0
M  V30 4969 C 480.846 1.25429 1.13859 0
M  V30 4970 O 482.052 1.43286 1.08945 0
M  V30 4971 H 478.427 0.72207 0.210046 0
M  V30 4972 H 480.398 2.98393 -0.0206421 0
M  V30 4973 C 479.147 3.00159 1.75499 0
M  V30 4974 H 478.47 3.76501 1.34489 0
M  V30 4975 H 479.91 3.52535 2.35574 0
M  V30 4976 C 478.369 2.07015 2.65794 0
M  V30 4977 O 478.899 1.63692 3.66835 0
M  V30 4978 N 477.105 1.73012 2.33485 0
M  V30 4979 H 476.652 2.08439 1.51364 0
M  V30 4980 H 476.61 1.10965 2.94167 0
M  V30 4981 N 480.382 0.0267497 1.57577 0
M  V30 4982 C 481.63 -0.651116 1.91324 0
M  V30 4983 C 481.951 -1.72804 0.90353 0
M  V30 4984 O 481.221 -1.95822 -0.0552946 0
M  V30 4985 H 479.801 -0.243491 0.706202 0
M  V30 4986 H 482.463 0.0739935 1.94759 0
M  V30 4987 H 481.559 -1.10536 2.9187 0
M  V30 4988 N 481.861 -1.55662 -0.24637 0
M  V30 4989 C 482.808 -1.90361 -1.30504 0
M  V30 4990 C 483.778 -0.757905 -1.47801 0
M  V30 4991 O 484.963 -1.01161 -1.61775 0
M  V30 4992 C 482.103 -2.2042 -2.65535 0
M  V30 4993 C 481.216 -3.47799 -2.56242 0
M  V30 4994 C 480.351 -3.67426 -3.8363 0
M  V30 4995 C 479.39 -4.88403 -3.68956 0
M  V30 4996 N 478.527 -5.04548 -4.88237 0
M  V30 4997 H 483.367 -2.80645 -1.00213 0
M  V30 4998 H 480.904 -1.38924 -0.483577 0
M  V30 4999 H 482.862 -2.35853 -3.44135 0
M  V30 5000 H 481.492 -1.3334 -2.93973 0
M  V30 5001 H 480.544 -3.40694 -1.69208 0
M  V30 5002 H 481.856 -4.36544 -2.4131 0
M  V30 5003 H 481.01 -3.82821 -4.70673 0
M  V30 5004 H 479.749 -2.76914 -4.01459 0
M  V30 5005 H 478.754 -4.72984 -2.80296 0
M  V30 5006 H 479.979 -5.80375 -3.52621 0
M  V30 5007 H 477.925 -4.16974 -5.06427 0
M  V30 5008 H 477.842 -5.87384 -4.75937 0
M  V30 5009 H 479.11 -5.24355 -5.76777 0
M  V30 5010 N 483.339 0.512053 -1.4905 0
M  V30 5011 C 484.249 1.64139 -1.67617 0
M  V30 5012 C 485.265 1.64786 -0.558701 0
M  V30 5013 O 486.441 1.8341 -0.832034 0
M  V30 5014 C 483.506 3.00548 -1.72835 0
M  V30 5015 C 482.567 3.10615 -2.96339 0
M  V30 5016 C 481.8 4.40517 -3.01298 0
M  V30 5017 O 482.023 5.28671 -2.14157 0
M  V30 5018 O 480.957 4.55325 -3.93653 0
M  V30 5019 H 484.783 1.51407 -2.63267 0
M  V30 5020 H 482.368 0.687131 -1.32661 0
M  V30 5021 H 484.25 3.81641 -1.78683 0
M  V30 5022 H 482.925 3.13566 -0.803616 0
M  V30 5023 H 481.832 2.2875 -2.96014 0
M  V30 5024 H 483.165 3.0252 -3.88256 0
M  V30 5025 N 484.817 1.37938 0.762283 0
M  V30 5026 C 486.047 1.36685 1.54922 0
M  V30 5027 C 486.455 -0.0474099 1.89141 0
M  V30 5028 O 485.798 -1.02213 1.52638 0
M  V30 5029 C 485.86 2.14963 2.88152 0
M  V30 5030 C 485.524 3.6385 2.76518 0
M  V30 5031 C 486.521 4.57531 2.46904 0
M  V30 5032 C 484.206 4.07095 2.94243 0
M  V30 5033 C 486.2 5.92436 2.35156 0
M  V30 5034 C 483.887 5.42083 2.82116 0
M  V30 5035 C 484.885 6.34567 2.52614 0
M  V30 5036 O 484.573 7.67073 2.40529 0
M  V30 5037 H 484.305 0.469586 0.486276 0
M  V30 5038 H 486.859 1.82012 0.951876 0
M  V30 5039 H 485.089 1.6434 3.50042 0
M  V30 5040 H 486.778 2.06224 3.49609 0
M  V30 5041 H 487.544 4.25428 2.32886 0
M  V30 5042 H 483.423 3.35462 3.16206 0
M  V30 5043 H 486.967 6.64591 2.12049 0
M  V30 5044 H 482.864 5.73785 2.95704 0
M  V30 5045 H 483.632 7.77499 2.55807 0
M  V30 5046 N 486.295 -0.989507 1.22664 0
M  V30 5047 C 487.242 -2.08024 0.999733 0
M  V30 5048 C 488.212 -1.65909 -0.0797047 0
M  V30 5049 O 489.397 -1.90669 0.0705715 0
M  V30 5050 C 486.537 -3.40067 0.587234 0
M  V30 5051 C 485.65 -3.95505 1.73781 0
M  V30 5052 C 484.785 -5.15722 1.27297 0
M  V30 5053 C 483.824 -5.63305 2.39488 0
M  V30 5054 N 482.961 -6.74758 1.94026 0
M  V30 5055 H 487.801 -2.26768 1.9334 0
M  V30 5056 H 485.338 -1.11171 0.963297 0
M  V30 5057 H 487.296 -4.15899 0.329227 0
M  V30 5058 H 485.926 -3.21314 -0.309426 0
M  V30 5059 H 484.978 -3.16513 2.11006 0
M  V30 5060 H 486.29 -4.26797 2.58158 0
M  V30 5061 H 485.444 -5.98854 0.972546 0
M  V30 5062 H 484.183 -4.86061 0.399445 0
M  V30 5063 H 483.188 -4.78759 2.70315 0
M  V30 5064 H 484.413 -5.94988 3.27362 0
M  V30 5065 H 482.359 -6.46874 1.09041 0
M  V30 5066 H 482.276 -7.05386 2.71968 0
M  V30 5067 H 483.544 -7.61387 1.67062 0
M  V30 5068 N 487.773 -1.03688 -1.18687 0
M  V30 5069 C 489.013 -0.746858 -1.90267 0
M  V30 5070 C 489.377 0.712075 -1.78307 0
M  V30 5071 O 490.578 1.11553 -2.44559 0
M  V30 5072 C 488.849 -1.19543 -3.36815 0
M  V30 5073 S 490.408 -1.03047 -4.26529 0
M  V30 5074 H 487.226 -0.271663 -0.657054 0
M  V30 5075 H 489.828 -1.32838 -1.43437 0
M  V30 5076 H 488.532 -2.2527 -3.43047 0
M  V30 5077 H 488.063 -0.607533 -3.88681 0
M  V30 5078 H 490.078 0.0543232 -4.9617 0
M  V30 5079 N 489.251 1.34841 -0.815825 0
M  V30 5080 C 490.198 2.29644 -0.230664 0
M  V30 5081 C 491.168 1.53253 0.640533 0
M  V30 5082 O 492.353 1.81653 0.583672 0
M  V30 5083 C 489.493 3.39715 0.607275 0
M  V30 5084 C 488.606 4.31056 -0.28538 0
M  V30 5085 C 487.741 5.28225 0.561446 0
M  V30 5086 C 486.78 6.11204 -0.331035 0
M  V30 5087 N 485.917 7.00483 0.476302 0
M  V30 5088 H 490.757 2.79095 -1.0445 0
M  V30 5089 H 488.294 1.37351 -0.526595 0
M  V30 5090 H 490.252 4.02208 1.10835 0
M  V30 5091 H 488.882 2.91517 1.38629 0
M  V30 5092 H 487.934 3.69487 -0.904621 0
M  V30 5093 H 489.246 4.89239 -0.97193 0
M  V30 5094 H 488.4 5.96135 1.12728 0
M  V30 5095 H 487.139 4.70562 1.28153 0
M  V30 5096 H 486.144 5.42232 -0.909069 0
M  V30 5097 H 487.369 6.70947 -1.04912 0
M  V30 5098 H 485.315 6.45296 1.18019 0
M  V30 5099 H 485.232 7.55847 -0.152008 0
M  V30 5100 H 486.5 7.7273 1.02512 0
M  V30 5101 N 490.729 0.570148 1.46925 0
M  V30 5102 C 491.975 0.0510284 2.02736 0
M  V30 5103 C 492.308 -1.3006 1.44215 0
M  V30 5104 O 491.583 -1.84932 0.602521 0
M  V30 5105 C 491.866 -0.028215 3.60089 0
M  V30 5106 C 491.719 1.35142 4.29018 0
M  V30 5107 C 493.038 -0.735181 4.33916 0
M  V30 5108 H 490.157 0.0200178 0.736728 0
M  V30 5109 H 492.799 0.73493 1.75211 0
M  V30 5110 H 490.949 -0.610648 3.83671 0
M  V30 5111 H 492.621 1.97806 4.16738 0
M  V30 5112 H 490.864 1.9226 3.88868 0
M  V30 5113 H 491.535 1.24857 5.37694 0
M  V30 5114 H 494.011 -0.240519 4.15404 0
M  V30 5115 H 492.887 -0.759622 5.43618 0
M  V30 5116 H 493.148 -1.79397 4.04066 0
M  V30 5117 N 492.207 -1.54576 0.307264 0
M  V30 5118 C 493.432 -2.05139 -0.305379 0
M  V30 5119 C 493.857 -1.18278 -1.46259 0
M  V30 5120 O 493.215 -0.188243 -1.8032 0
M  V30 5121 C 493.263 -3.53066 -0.733283 0
M  V30 5122 O 492.367 -3.69206 -1.83741 0
M  V30 5123 H 491.708 -0.661444 -0.0582105 0
M  V30 5124 H 494.238 -1.99569 0.450931 0
M  V30 5125 H 494.248 -3.95034 -1.02039 0
M  V30 5126 H 492.923 -4.15746 0.113198 0
M  V30 5127 H 491.5 -3.39143 -1.55037 0
M  V30 5128 N 493.685 -0.035106 -1.57561 0
M  V30 5129 C 494.633 0.962707 -2.11742 0
M  V30 5130 C 495.627 1.33296 -1.0454 0
M  V30 5131 O 496.833 1.31449 -1.22968 0
M  V30 5132 H 493.208 0.32826 -0.676572 0
M  V30 5133 H 495.179 0.48048 -2.94506 0
M  V30 5134 C 493.928 2.23388 -2.66445 0
M  V30 5135 H 493.251 1.95774 -3.48587 0
M  V30 5136 H 494.691 2.91402 -3.07995 0
M  V30 5137 C 493.15 2.96769 -1.59467 0
M  V30 5138 O 493.68 3.89105 -0.998 0
M  V30 5139 N 491.886 2.59212 -1.31369 0
M  V30 5140 H 491.433 1.84202 -1.80076 0
M  V30 5141 H 491.391 3.08618 -0.600173 0
M  V30 5142 N 495.163 1.55791 0.238111 0
M  V30 5143 C 496.11 1.9105 1.29493 0
M  V30 5144 C 497.08 0.765733 1.47397 0
M  V30 5145 O 498.265 1.02017 1.61236 0
M  V30 5146 C 495.405 2.21826 2.64362 0
M  V30 5147 C 494.518 3.49153 2.54394 0
M  V30 5148 C 493.653 3.69455 3.81676 0
M  V30 5149 C 492.692 4.90353 3.66361 0
M  V30 5150 N 491.829 5.07131 4.85554 0
M  V30 5151 H 496.669 2.81172 0.987233 0
M  V30 5152 H 494.206 1.39179 0.476203 0
M  V30 5153 H 496.164 2.37675 3.4288 0
M  V30 5154 H 494.794 1.34897 2.93262 0
M  V30 5155 H 493.846 3.41587 1.67399 0
M  V30 5156 H 495.158 4.37818 2.38991 0
M  V30 5157 H 494.312 3.85311 4.68636 0
M  V30 5158 H 493.051 2.7904 3.99985 0
M  V30 5159 H 492.056 4.74464 2.77784 0
M  V30 5160 H 493.281 5.82237 3.49538 0
M  V30 5161 H 491.227 4.19654 5.04209 0
M  V30 5162 H 491.144 5.89899 4.72816 0
M  V30 5163 H 492.412 5.27407 5.73988 0
M  V30 5164 N 496.642 -0.504142 1.49319 0
M  V30 5165 C 497.605 -1.5883 1.65244 0
M  V30 5166 C 498.605 -1.52009 0.524386 0
M  V30 5167 O 499.795 -1.55218 0.79077 0
M  V30 5168 C 496.927 -2.98481 1.64687 0
M  V30 5169 H 498.12 -1.4604 2.61939 0
M  V30 5170 H 495.673 -0.728144 1.38303 0
M  V30 5171 H 496.408 -3.16751 0.695644 0
M  V30 5172 H 496.193 -3.0484 2.46607 0
M  V30 5173 H 497.683 -3.77256 1.79075 0
M  V30 5174 N 498.12 -1.38341 -0.754957 0
M  V30 5175 C 499.05 -1.38176 -1.88227 0
M  V30 5176 C 500.031 -0.247873 -1.68284 0
M  V30 5177 O 501.216 -0.45075 -1.88896 0
M  V30 5178 C 498.346 -1.20471 -3.25736 0
M  V30 5179 C 497.3 -2.3105 -3.60278 0
M  V30 5180 C 496.626 -1.98452 -4.96509 0
M  V30 5181 C 497.926 -3.73305 -3.65295 0
M  V30 5182 H 499.62 -2.32512 -1.88622 0
M  V30 5183 H 497.166 -1.1192 -0.906082 0
M  V30 5184 H 499.119 -1.18982 -4.04254 0
M  V30 5185 H 497.843 -0.225965 -3.25817 0
M  V30 5186 H 496.502 -2.31723 -2.84078 0
M  V30 5187 H 496.15 -0.990641 -4.93148 0
M  V30 5188 H 495.85 -2.7251 -5.20588 0
M  V30 5189 H 497.374 -1.98578 -5.77407 0
M  V30 5190 H 498.788 -3.7467 -4.3393 0
M  V30 5191 H 497.185 -4.46557 -4.00883 0
M  V30 5192 H 498.255 -4.05719 -2.65556 0
M  V30 5193 N 499.598 0.982988 -1.23187 0
M  V30 5194 C 501.009 1.53847 -1.05773 0
M  V30 5195 C 501.36 1.92568 0.375744 0
M  V30 5196 O 500.485 1.75783 1.26211 0
M  V30 5197 C 501.08 2.79567 -1.91384 0
M  V30 5198 C 499.639 3.31524 -1.78238 0
M  V30 5199 C 498.786 2.04534 -1.87246 0
M  V30 5200 H 501.737 0.802962 -1.36888 0
M  V30 5201 H 501.758 3.52317 -1.43711 0
M  V30 5202 H 501.27 2.51353 -2.95708 0
M  V30 5203 H 499.371 3.64623 -0.766875 0
M  V30 5204 H 499.484 4.01457 -2.61475 0
M  V30 5205 H 497.848 2.1855 -1.30797 0
M  V30 5206 H 498.631 1.78706 -2.9312 0
M  V30 5207 N 501.076 1.04316 1.18135 0
M  V30 5208 C 502.039 0.640794 2.2006 0
M  V30 5209 C 503.039 -0.303124 1.57917 0
M  V30 5210 O 504.229 -0.0881855 1.73977 0
M  V30 5211 C 501.361 -0.060148 3.40847 0
M  V30 5212 H 502.554 1.54281 2.57172 0
M  V30 5213 H 500.107 0.836004 1.32063 0
M  V30 5214 H 500.842 -0.975845 3.0927 0
M  V30 5215 H 500.627 0.618319 3.87194 0
M  V30 5216 H 502.117 -0.328082 4.16309 0
M  V30 5217 N 502.554 -1.34406 0.822964 0
M  V30 5218 C 503.965 -1.8069 0.469879 0
M  V30 5219 C 504.316 -1.68223 -1.00972 0
M  V30 5220 O 503.441 -1.22226 -1.78577 0
M  V30 5221 C 504.036 -3.28064 0.846118 0
M  V30 5222 C 502.595 -3.72428 0.545402 0
M  V30 5223 C 501.742 -2.56116 1.06301 0
M  V30 5224 H 504.693 -1.22153 1.01313 0
M  V30 5225 H 504.714 -3.80205 0.149922 0
M  V30 5226 H 504.226 -3.37107 1.92304 0
M  V30 5227 H 502.327 -3.68924 -0.522109 0
M  V30 5228 H 502.44 -4.66548 1.0895 0
M  V30 5229 H 500.804 -2.50048 0.484554 0
M  V30 5230 H 501.587 -2.67928 2.14638 0
M  V30 5231 N 504.032 -0.577932 -1.46621 0
M  V30 5232 C 505.281 -0.0594281 -2.01612 0
M  V30 5233 C 505.594 1.30663 -1.45556 0
M  V30 5234 O 506.8 1.91621 -1.92337 0
M  V30 5235 C 505.256 -0.0556666 -3.59857 0
M  V30 5236 C 504.864 -1.41975 -4.24908 0
M  V30 5237 C 506.608 0.409143 -4.22524 0
M  V30 5238 C 504.515 -1.37397 -5.75218 0
M  V30 5239 H 503.445 -0.0184469 -0.753774 0
M  V30 5240 H 506.096 -0.728869 -1.68404 0
M  V30 5241 H 504.478 0.679843 -3.90121 0
M  V30 5242 H 505.652 -2.17461 -4.0626 0
M  V30 5243 H 503.967 -1.82419 -3.74316 0
M  V30 5244 H 506.564 0.46211 -5.32699 0
M  V30 5245 H 506.907 1.42565 -3.91128 0
M  V30 5246 H 507.44 -0.272152 -3.96868 0
M  V30 5247 H 504.179 -2.36714 -6.11267 0
M  V30 5248 H 503.699 -0.661239 -5.96144 0
M  V30 5249 H 505.378 -1.08484 -6.3784 0
M  V30 5250 N 505.51 1.54411 -0.315457 0
M  V30 5251 C 506.42 2.27737 0.56329 0
M  V30 5252 C 507.436 1.31787 1.13614 0
M  V30 5253 O 508.612 1.64791 1.15784 0
M  V30 5254 C 505.677 3.01478 1.71207 0
M  V30 5255 C 504.738 4.12997 1.17185 0
M  V30 5256 C 503.971 4.83212 2.26588 0
M  V30 5257 O 504.194 4.52884 3.46775 0
M  V30 5258 O 503.128 5.70299 1.92463 0
M  V30 5259 H 506.954 3.03683 -0.0319614 0
M  V30 5260 H 504.539 1.49178 -0.0814188 0
M  V30 5261 H 506.421 3.47683 2.38106 0
M  V30 5262 H 505.096 2.28414 2.29366 0
M  V30 5263 H 504.003 3.71159 0.468174 0
M  V30 5264 H 505.336 4.8808 0.635501 0
M  V30 5265 N 506.988 0.0434614 1.5754 0
M  V30 5266 C 507.935 -0.93356 2.11077 0
M  V30 5267 C 508.905 -1.31383 1.01626 0
M  V30 5268 O 510.09 -1.40465 1.29129 0
M  V30 5269 C 507.23 -2.20578 2.65404 0
M  V30 5270 C 506.343 -1.88068 3.88914 0
M  V30 5271 C 505.478 -3.09691 4.31584 0
M  V30 5272 C 504.517 -2.73067 5.47815 0
M  V30 5273 N 503.654 -3.87359 5.85574 0
M  V30 5274 H 508.494 -0.470118 2.94268 0
M  V30 5275 H 506.031 -0.220434 1.45439 0
M  V30 5276 H 507.989 -2.95011 2.94999 0
M  V30 5277 H 506.619 -2.64513 1.85021 0
M  V30 5278 H 505.671 -1.03816 3.6596 0
M  V30 5279 H 506.983 -1.57104 4.73413 0
M  V30 5280 H 506.137 -3.92431 4.62691 0
M  V30 5281 H 504.876 -3.43827 3.45882 0
M  V30 5282 H 503.881 -1.88742 5.16388 0
M  V30 5283 H 505.106 -2.40131 6.35227 0
M  V30 5284 H 503.052 -4.21311 5.02825 0
M  V30 5285 H 502.969 -3.60068 6.64746 0
M  V30 5286 H 504.237 -4.70761 6.21292 0
M  V30 5287 N 508.466 -1.55915 -0.229846 0
M  V30 5288 C 509.694 -1.82617 -0.972562 0
M  V30 5289 C 510.109 -0.621488 -1.78278 0
M  V30 5290 O 509.466 0.409956 -1.77836 0
M  V30 5291 C 509.517 -3.0774 -1.89679 0
M  V30 5292 O 509.238 -4.23559 -1.11934 0
M  V30 5293 C 510.739 -3.47368 -2.75409 0
M  V30 5294 H 507.959 -0.60727 -0.285419 0
M  V30 5295 H 510.503 -2.02996 -0.247579 0
M  V30 5296 H 508.658 -2.89361 -2.57583 0
M  V30 5297 H 509.072 -4.94586 -1.74599 0
M  V30 5298 H 510.546 -4.37977 -3.35977 0
M  V30 5299 H 511.023 -2.68737 -3.47386 0
M  V30 5300 H 511.629 -3.68158 -2.12931 0
M  V30 5301 N 509.944 0.496216 -1.49584 0
M  V30 5302 C 511.193 1.24668 -1.58558 0
M  V30 5303 C 511.506 1.9359 -0.279703 0
M  V30 5304 O 512.712 2.70365 -0.248048 0
M  V30 5305 C 511.168 2.26388 -2.79779 0
M  V30 5306 C 510.776 1.63384 -4.17145 0
M  V30 5307 C 512.52 3.02233 -2.98086 0
M  V30 5308 C 510.427 2.63243 -5.29582 0
M  V30 5309 H 509.357 0.468995 -0.590389 0
M  V30 5310 H 512.008 0.519985 -1.75978 0
M  V30 5311 H 510.39 3.02241 -2.55863 0
M  V30 5312 H 511.564 0.93491 -4.51216 0
M  V30 5313 H 509.879 0.999121 -4.04236 0
M  V30 5314 H 512.476 3.76919 -3.79257 0
M  V30 5315 H 512.819 3.60132 -2.08831 0
M  V30 5316 H 513.352 2.33495 -3.22063 0
M  V30 5317 H 510.091 2.10119 -6.20911 0
M  V30 5318 H 509.611 3.31363 -4.99959 0
M  V30 5319 H 511.29 3.25575 -5.59115 0
M  V30 5320 N 511.423 1.38739 0.74761 0
M  V30 5321 C 512.648 1.38702 1.54197 0
M  V30 5322 C 513.073 -0.019664 1.8809 0
M  V30 5323 O 512.431 -1.00333 1.51006 0
M  V30 5324 C 512.479 2.25492 2.814 0
M  V30 5325 O 511.583 1.67613 3.76802 0
M  V30 5326 H 510.924 0.472863 0.466151 0
M  V30 5327 H 513.454 1.82577 0.923413 0
M  V30 5328 H 513.464 2.39561 3.30264 0
M  V30 5329 H 512.139 3.27727 2.56062 0
M  V30 5330 H 510.716 1.62718 3.35526 0
M  V30 5331 N 512.901 -0.976442 1.23707 0
M  V30 5332 C 513.848 -2.06952 1.02174 0
M  V30 5333 C 514.818 -1.65984 -0.0621034 0
M  V30 5334 O 516.003 -1.90584 0.0907906 0
M  V30 5335 C 513.143 -3.39425 0.62327 0
M  V30 5336 C 512.256 -3.9364 1.77966 0
M  V30 5337 C 511.391 -5.14343 1.3276 0
M  V30 5338 C 510.43 -5.60733 2.45449 0
M  V30 5339 N 509.567 -6.72662 2.01172 0
M  V30 5340 H 514.407 -2.24704 1.95734 0
M  V30 5341 H 511.944 -1.10143 0.975034 0
M  V30 5342 H 513.902 -4.15526 0.37332 0
M  V30 5343 H 512.532 -3.21624 -0.275329 0
M  V30 5344 H 511.584 -3.14258 2.14351 0
M  V30 5345 H 512.896 -4.24035 2.62671 0
M  V30 5346 H 512.05 -5.97789 1.03601 0
M  V30 5347 H 510.789 -4.8561 0.450975 0
M  V30 5348 H 509.794 -4.75865 2.75378 0
M  V30 5349 H 511.019 -5.91483 3.33654 0
M  V30 5350 H 508.965 -6.45681 1.15895 0
M  V30 5351 H 508.882 -7.02462 2.79434 0
M  V30 5352 H 510.15 -7.59572 1.75129 0
M  V30 5353 N 514.379 -1.04941 -1.1758 0
M  V30 5354 C 515.342 -0.652456 -2.19717 0
M  V30 5355 C 516.342 0.294745 -1.58076 0
M  V30 5356 O 517.532 0.0789579 -1.74021 0
M  V30 5357 C 514.664 0.0420712 -3.40874 0
M  V30 5358 H 515.857 -1.55642 -2.5635 0
M  V30 5359 H 513.41 -0.842995 -1.31618 0
M  V30 5360 H 514.145 0.95943 -3.09783 0
M  V30 5361 H 513.93 -0.638844 -3.86861 0
M  V30 5362 H 515.42 0.306 -4.16477 0
M  V30 5363 N 515.857 1.33968 -0.830081 0
M  V30 5364 C 516.804 2.29387 -0.255008 0
M  V30 5365 C 517.774 1.53923 0.624243 0
M  V30 5366 O 518.959 1.82262 0.564372 0
M  V30 5367 C 516.099 3.4034 0.571209 0
M  V30 5368 C 515.212 4.30729 -0.331083 0
M  V30 5369 C 514.347 5.2879 0.505389 0
M  V30 5370 C 513.386 6.10819 -0.395843 0
M  V30 5371 N 512.523 7.00948 0.401979 0
M  V30 5372 H 517.363 2.77972 -1.07404 0
M  V30 5373 H 514.9 1.36785 -0.541133 0
M  V30 5374 H 516.858 4.03361 1.06562 0
M  V30 5375 H 515.488 2.9297 1.35529 0
M  V30 5376 H 514.54 3.68507 -0.943759 0
M  V30 5377 H 515.852 4.88181 -1.02377 0
M  V30 5378 H 515.006 5.97297 1.06399 0
M  V30 5379 H 513.745 4.71894 1.23155 0
M  V30 5380 H 512.75 5.41238 -0.966529 0
M  V30 5381 H 513.975 6.69797 -1.12023 0
M  V30 5382 H 511.921 6.46512 1.11168 0
M  V30 5383 H 511.838 7.55643 -0.232167 0
M  V30 5384 H 513.106 7.73774 0.943102 0
M  V30 5385 N 517.335 0.585699 1.46312 0
M  V30 5386 C 518.583 0.072278 2.01971 0
M  V30 5387 C 518.904 -1.29345 1.45928 0
M  V30 5388 O 518.174 -1.84973 0.645109 0
M  V30 5389 H 516.754 0.023729 0.746623 0
M  V30 5390 H 519.416 0.762155 1.7938 0
M  V30 5391 H 518.512 0.00552767 3.121 0
M  V30 5392 N 518.813 -1.54241 0.323641 0
M  V30 5393 C 519.745 -2.21836 -0.576311 0
M  V30 5394 C 520.758 -1.21837 -1.07979 0
M  V30 5395 O 521.947 -1.48306 -0.99336 0
M  V30 5396 C 519.047 -2.86923 -1.80356 0
M  V30 5397 C 518.22 -4.1306 -1.43875 0
M  V30 5398 C 517.279 -4.6174 -2.52353 0
M  V30 5399 O 516.305 -5.26421 -2.16494 0
M  V30 5400 N 517.507 -4.35974 -3.83284 0
M  V30 5401 H 520.272 -2.997 0.00247987 0
M  V30 5402 H 517.833 -1.61233 0.146848 0
M  V30 5403 H 519.825 -3.16414 -2.52318 0
M  V30 5404 H 518.395 -2.12765 -2.29019 0
M  V30 5405 H 517.615 -3.90334 -0.550752 0
M  V30 5406 H 518.903 -4.95148 -1.17071 0
M  V30 5407 H 518.301 -3.84203 -4.15216 0
M  V30 5408 H 516.858 -4.70119 -4.51477 0
M  V30 5409 N 520.291 -0.0518155 -1.57515 0
M  V30 5410 C 521.702 0.483787 -1.80323 0
M  V30 5411 C 522.053 1.70879 -0.964099 0
M  V30 5412 O 521.178 2.15643 -0.180872 0
M  V30 5413 C 521.773 0.884459 -3.27052 0
M  V30 5414 C 520.332 1.36504 -3.50776 0
M  V30 5415 C 519.479 0.340539 -2.75201 0
M  V30 5416 H 522.43 -0.277691 -1.56252 0
M  V30 5417 H 522.451 1.74733 -3.38007 0
M  V30 5418 H 521.963 -0.00731093 -3.88099 0
M  V30 5419 H 520.064 2.27598 -2.95009 0
M  V30 5420 H 520.177 1.35675 -4.59488 0
M  V30 5421 H 518.541 0.81356 -2.41357 0
M  V30 5422 H 519.324 -0.543156 -3.38976 0
M  V30 5423 N 521.769 1.56035 0.221574 0
M  V30 5424 C 523.185 1.49026 0.571271 0
M  V30 5425 C 523.385 0.746912 1.87146 0
M  V30 5426 O 522.441 0.286566 2.50869 0
M  V30 5427 C 523.754 2.93579 0.650522 0
M  V30 5428 C 525.302 3.04099 0.741151 0
M  V30 5429 C 525.777 4.5001 0.851747 0
M  V30 5430 N 527.268 4.54053 0.915968 0
M  V30 5431 C 528.003 5.64232 1.02125 0
M  V30 5432 N 527.499 6.84164 1.09049 0
M  V30 5433 N 529.292 5.52084 1.05639 0
M  V30 5434 H 521.443 2.02791 -0.63162 0
M  V30 5435 H 523.706 0.921736 -0.221602 0
M  V30 5436 H 523.412 3.50912 -0.235253 0
M  V30 5437 H 523.286 3.45476 1.51413 0
M  V30 5438 H 525.673 2.4683 1.61737 0
M  V30 5439 H 525.754 2.55371 -0.148128 0
M  V30 5440 H 525.398 5.07896 -0.0200117 0
M  V30 5441 H 525.328 4.96444 1.75644 0
M  V30 5442 H 527.819 3.67683 0.872782 0
M  V30 5443 H 528.132 7.63883 1.1706 0
M  V30 5444 H 526.477 6.86875 1.05962 0
M  V30 5445 H 529.668 4.57317 0.998953 0
M  V30 5446 H 529.841 6.37983 1.13498 0
M  V30 5447 N 523.247 -0.488276 1.49845 0
M  V30 5448 C 524.157 -1.61451 1.70207 0
M  V30 5449 C 525.173 -1.63877 0.584846 0
M  V30 5450 O 526.349 -1.82063 0.861107 0
M  V30 5451 C 523.414 -2.9776 1.77594 0
M  V30 5452 C 522.475 -3.05861 3.01243 0
M  V30 5453 C 521.708 -4.35668 3.08268 0
M  V30 5454 O 521.931 -5.25197 2.22541 0
M  V30 5455 O 520.865 -4.49005 4.00847 0
M  V30 5456 H 524.691 -1.47199 2.65643 0
M  V30 5457 H 522.276 -0.665939 1.33737 0
M  V30 5458 H 524.158 -3.7875 1.84732 0
M  V30 5459 H 522.833 -3.12248 0.8534 0
M  V30 5460 H 521.74 -2.24012 2.99616 0
M  V30 5461 H 523.073 -2.96304 3.9302 0
M  V30 5462 N 524.725 -1.39134 -0.740242 0
M  V30 5463 C 526.136 -1.32208 -1.31825 0
M  V30 5464 C 526.487 0.0159919 -1.96193 0
M  V30 5465 O 525.612 0.918111 -1.95958 0
M  V30 5466 C 526.207 -2.39436 -2.39699 0
M  V30 5467 C 524.766 -2.36048 -2.93187 0
M  V30 5468 C 523.913 -2.21599 -1.66701 0
M  V30 5469 H 526.864 -1.49298 -0.538133 0
M  V30 5470 H 526.885 -2.05922 -3.19963 0
M  V30 5471 H 526.397 -3.36811 -1.92821 0
M  V30 5472 H 524.498 -1.42295 -3.44359 0
M  V30 5473 H 524.611 -3.30704 -3.46658 0
M  V30 5474 H 522.975 -1.68681 -1.90837 0
M  V30 5475 H 523.758 -3.20936 -1.21882 0
M  V30 5476 N 526.204 0.969867 -1.24223 0
M  V30 5477 C 527.136 2.0669 -0.99055 0
M  V30 5478 C 528.149 1.62753 0.0392222 0
M  V30 5479 O 529.338 1.77403 -0.197561 0
M  V30 5480 C 526.438 3.35589 -0.472594 0
M  V30 5481 C 525.611 4.08444 -1.56499 0
M  V30 5482 C 524.67 5.15616 -1.05007 0
M  V30 5483 O 523.696 5.41911 -1.7413 0
M  V30 5484 N 524.898 5.80383 0.116641 0
M  V30 5485 H 527.663 2.28855 -1.93508 0
M  V30 5486 H 525.224 1.13733 -1.15223 0
M  V30 5487 H 527.216 4.04542 -0.112919 0
M  V30 5488 H 525.786 3.10311 0.377617 0
M  V30 5489 H 525.006 3.33798 -2.09696 0
M  V30 5490 H 526.294 4.53882 -2.29932 0
M  V30 5491 H 525.692 5.6142 0.694589 0
M  V30 5492 H 524.249 6.50462 0.417483 0
M  V30 5493 N 527.682 1.05563 1.17022 0
M  V30 5494 C 528.928 0.769074 1.87652 0
M  V30 5495 C 529.261 -0.702326 1.81055 0
M  V30 5496 O 528.536 -1.5139 1.22112 0
M  V30 5497 C 528.819 1.25492 3.37526 0
M  V30 5498 C 528.672 2.78953 3.52853 0
M  V30 5499 C 529.991 0.856919 4.31677 0
M  V30 5500 H 527.11 0.280854 0.681388 0
M  V30 5501 H 529.752 1.31027 1.37593 0
M  V30 5502 H 527.902 0.794516 3.80289 0
M  V30 5503 H 529.574 3.33146 3.19079 0
M  V30 5504 H 527.817 3.18046 2.95007 0
M  V30 5505 H 528.488 3.08011 4.58076 0
M  V30 5506 H 530.964 1.25334 3.96775 0
M  V30 5507 H 529.84 1.22443 5.35069 0
M  V30 5508 H 530.101 -0.238787 4.41455 0
M  V30 5509 N 529.16 -1.33526 0.837174 0
M  V30 5510 C 530.39 -2.01754 0.444848 0
M  V30 5511 C 530.798 -1.63149 -0.958072 0
M  V30 5512 O 530.141 -0.839827 -1.63379 0
M  V30 5513 C 530.203 -3.56228 0.483917 0
M  V30 5514 C 529.867 -4.18205 1.84265 0
M  V30 5515 C 530.864 -4.37699 2.80563 0
M  V30 5516 C 528.549 -4.54667 2.13503 0
M  V30 5517 C 530.543 -4.928 4.04261 0
M  V30 5518 C 528.23 -5.09475 3.37458 0
M  V30 5519 C 529.228 -5.28488 4.32654 0
M  V30 5520 O 528.916 -5.82132 5.54417 0
M  V30 5521 H 528.648 -0.652928 0.175104 0
M  V30 5522 H 531.202 -1.71469 1.13082 0
M  V30 5523 H 529.432 -3.85833 -0.258826 0
M  V30 5524 H 531.121 -4.05752 0.109653 0
M  V30 5525 H 531.887 -4.0988 2.59274 0
M  V30 5526 H 527.766 -4.39164 1.40201 0
M  V30 5527 H 531.31 -5.07555 4.78574 0
M  V30 5528 H 527.207 -5.36725 3.58604 0
M  V30 5529 H 527.975 -6.00548 5.56133 0
M  V30 5530 N 530.638 -0.59345 -1.46 0
M  V30 5531 C 531.866 -0.0890934 -2.06708 0
M  V30 5532 C 532.281 1.2205 -1.44046 0
M  V30 5533 O 531.638 1.74029 -0.549551 0
M  V30 5534 C 531.689 0.0720263 -3.61428 0
M  V30 5535 O 531.41 -1.18574 -4.21748 0
M  V30 5536 C 532.911 0.609487 -4.3909 0
M  V30 5537 H 530.131 -0.0623628 -0.668096 0
M  V30 5538 H 532.675 -0.817171 -1.87464 0
M  V30 5539 H 530.83 0.750369 -3.80063 0
M  V30 5540 H 531.244 -1.0064 -5.14754 0
M  V30 5541 H 532.718 0.671363 -5.47902 0
M  V30 5542 H 533.195 1.62878 -4.07882 0
M  V30 5543 H 533.801 -0.03434 -4.25286 0
M  V30 5544 N 532.116 1.54067 -0.331816 0
M  V30 5545 C 533.046 2.27569 0.522932 0
M  V30 5546 C 534.027 1.28679 1.11247 0
M  V30 5547 O 535.212 1.57504 1.13605 0
M  V30 5548 C 532.342 3.0397 1.67987 0
M  V30 5549 C 531.296 4.10267 1.21924 0
M  V30 5550 C 530.622 4.74555 2.46377 0
M  V30 5551 C 531.922 5.21268 0.32815 0
M  V30 5552 H 533.616 2.99264 -0.0901977 0
M  V30 5553 H 531.162 1.4393 -0.044821 0
M  V30 5554 H 533.115 3.54123 2.28418 0
M  V30 5555 H 531.839 2.29906 2.31971 0
M  V30 5556 H 530.498 3.61009 0.637809 0
M  V30 5557 H 530.146 3.97098 3.08743 0
M  V30 5558 H 529.846 5.46363 2.16243 0
M  V30 5559 H 531.37 5.27487 3.07555 0
M  V30 5560 H 532.784 5.67128 0.838978 0
M  V30 5561 H 531.181 5.99982 0.119228 0
M  V30 5562 H 532.251 4.80673 -0.638839 0
M  V30 5563 N 533.594 0.0601682 1.57485 0
M  V30 5564 C 535.005 -0.474217 1.80577 0
M  V30 5565 C 535.356 -1.70365 0.973147 0
M  V30 5566 O 534.481 -2.15544 0.192306 0
M  V30 5567 C 535.076 -0.867102 3.27516 0
M  V30 5568 C 533.635 -1.34642 3.51495 0
M  V30 5569 C 532.782 -0.32594 2.75378 0
M  V30 5570 H 535.733 0.285973 1.56102 0
M  V30 5571 H 535.754 -1.72938 3.38929 0
M  V30 5572 H 535.266 0.0278927 3.8809 0
M  V30 5573 H 533.367 -2.2603 2.96212 0
M  V30 5574 H 533.48 -1.33237 4.60201 0
M  V30 5575 H 531.844 -0.800749 2.41785 0
M  V30 5576 H 532.627 0.561125 3.38683 0
M  V30 5577 N 535.072 -1.5615 -0.213296 0
M  V30 5578 C 536.483 -1.69645 -0.779582 0
M  V30 5579 C 536.834 -0.663615 -1.84636 0
M  V30 5580 O 535.959 0.183633 -2.15619 0
M  V30 5581 C 536.554 -3.07567 -1.42084 0
M  V30 5582 C 535.113 -3.22889 -1.93442 0
M  V30 5583 C 534.26 -2.65581 -0.797612 0
M  V30 5584 H 537.211 -1.58696 0.0114951 0
M  V30 5585 H 537.232 -3.03884 -2.28986 0
M  V30 5586 H 536.744 -3.82716 -0.644187 0
M  V30 5587 H 534.845 -2.52623 -2.73884 0
M  V30 5588 H 534.958 -4.30197 -2.10872 0
M  V30 5589 H 533.322 -2.24278 -1.20712 0
M  V30 5590 H 534.105 -3.43284 -0.033494 0
M  V30 5591 N 536.55 0.480323 -1.50102 0
M  V30 5592 C 537.775 1.26126 -1.64642 0
M  V30 5593 C 538.2 1.85257 -0.325823 0
M  V30 5594 O 537.558 1.66854 0.709194 0
M  V30 5595 C 537.606 2.35243 -2.73301 0
M  V30 5596 O 536.71 3.39646 -2.33911 0
M  V30 5597 H 536.051 0.371463 -0.550374 0
M  V30 5598 H 538.581 0.572696 -1.96421 0
M  V30 5599 H 538.591 2.80695 -2.96098 0
M  V30 5600 H 537.266 1.91574 -3.6915 0
M  V30 5601 H 535.843 2.99969 -2.21525 0
M  V30 5602 N 538.028 1.39524 0.732853 0
M  V30 5603 C 539.444 1.21176 1.03868 0
M  V30 5604 C 539.644 0.0748448 2.01361 0
M  V30 5605 O 538.7 -0.57281 2.45917 0
M  V30 5606 C 540.013 2.54667 1.59892 0
M  V30 5607 C 541.561 2.6153 1.71962 0
M  V30 5608 C 542.036 3.95248 2.31394 0
M  V30 5609 N 543.527 3.96899 2.38801 0
M  V30 5610 C 544.262 4.97138 2.85729 0
M  V30 5611 N 543.758 6.07775 3.32537 0
M  V30 5612 N 545.551 4.84516 2.84957 0
M  V30 5613 H 537.702 2.12225 0.086304 0
M  V30 5614 H 539.965 0.942614 0.100907 0
M  V30 5615 H 539.671 3.38423 0.95721 0
M  V30 5616 H 539.545 2.74538 2.58668 0
M  V30 5617 H 541.932 1.78156 2.35254 0
M  V30 5618 H 542.013 2.45507 0.718327 0
M  V30 5619 H 541.657 4.79054 1.68729 0
M  V30 5620 H 541.587 4.08593 3.32204 0
M  V30 5621 H 544.078 3.16998 2.05719 0
M  V30 5622 H 544.391 6.8017 3.66862 0
M  V30 5623 H 542.736 6.11366 3.30541 0
M  V30 5624 H 545.927 3.97185 2.47713 0
M  V30 5625 H 546.1 5.62783 3.21215 0
M  V30 5626 N 539.506 -0.963266 1.24736 0
M  V30 5627 C 540.416 -2.09246 1.06082 0
M  V30 5628 C 541.432 -1.74 0.000363101 0
M  V30 5629 O 542.608 -2.0041 0.199479 0
M  V30 5630 C 539.673 -3.40115 0.672498 0
M  V30 5631 C 538.734 -3.89282 1.80993 0
M  V30 5632 C 537.967 -5.13905 1.44004 0
M  V30 5633 O 538.19 -5.69434 0.331835 0
M  V30 5634 O 537.124 -5.57566 2.26723 0
M  V30 5635 H 540.95 -2.27881 2.00759 0
M  V30 5636 H 538.535 -1.07649 1.03595 0
M  V30 5637 H 540.417 -4.18797 0.467668 0
M  V30 5638 H 539.092 -3.22771 -0.245102 0
M  V30 5639 H 537.999 -3.11642 2.06955 0
M  V30 5640 H 539.332 -4.1111 2.70646 0
M  V30 5641 N 540.985 -1.06182 -1.16461 0
M  V30 5642 C 541.895 -0.682671 -2.24448 0
M  V30 5643 C 542.911 0.30078 -1.71381 0
M  V30 5644 O 544.087 0.150376 -2.00838 0
M  V30 5645 C 541.152 -0.0737202 -3.46622 0
M  V30 5646 C 540.213 -1.10889 -4.14731 0
M  V30 5647 C 539.446 -0.528908 -5.31073 0
M  V30 5648 O 539.669 0.65868 -5.66584 0
M  V30 5649 O 538.603 -1.26805 -5.88391 0
M  V30 5650 H 542.429 -1.58291 -2.59187 0
M  V30 5651 H 540.014 -0.834013 -1.23954 0
M  V30 5652 H 541.896 0.264192 -4.20571 0
M  V30 5653 H 540.571 0.800015 -3.13658 0
M  V30 5654 H 539.478 -1.49896 -3.42756 0
M  V30 5655 H 540.811 -1.95412 -4.51747 0
M  V30 5656 N 542.463 1.3308 -0.844243 0
M  V30 5657 C 543.396 2.27075 -0.226279 0
M  V30 5658 C 544.374 1.49911 0.629716 0
M  V30 5659 O 545.558 1.79068 0.588803 0
M  V30 5660 C 542.685 3.31767 0.681782 0
M  V30 5661 C 541.731 4.26384 -0.0994565 0
M  V30 5662 S 542.564 5.15186 -1.46094 0
M  V30 5663 C 543.72 6.23405 -0.558319 0
M  V30 5664 H 543.953 2.79141 -1.02312 0
M  V30 5665 H 541.486 1.40452 -0.641292 0
M  V30 5666 H 543.444 3.92566 1.20008 0
M  V30 5667 H 542.105 2.78507 1.45234 0
M  V30 5668 H 541.298 5.00514 0.591733 0
M  V30 5669 H 540.9 3.69949 -0.548991 0
M  V30 5670 H 543.192 6.77069 0.241672 0
M  V30 5671 H 544.135 6.96619 -1.26995 0
M  V30 5672 H 544.543 5.64333 -0.13728 0
M  V30 5673 N 543.941 0.601185 1.45683 0
M  V30 5674 C 545.169 0.100054 2.06658 0
M  V30 5675 C 545.584 -1.21285 1.44691 0
M  V30 5676 O 544.941 -1.73735 0.558772 0
M  V30 5677 C 544.992 -0.0528579 3.61461 0
M  V30 5678 O 544.713 1.20809 4.21114 0
M  V30 5679 C 546.214 -0.586193 4.39407 0
M  V30 5680 H 543.434 0.065905 0.667756 0
M  V30 5681 H 545.978 0.827101 1.87028 0
M  V30 5682 H 544.133 -0.730203 3.80456 0
M  V30 5683 H 544.547 1.03368 5.14213 0
M  V30 5684 H 546.021 -0.642297 5.4825 0
M  V30 5685 H 546.498 -1.60713 4.0874 0
M  V30 5686 H 547.104 0.0568935 4.25262 0
M  V30 5687 N 545.419 -1.53889 0.339982 0
M  V30 5688 C 546.366 -2.24902 -0.518452 0
M  V30 5689 C 547.336 -1.24593 -1.09844 0
M  V30 5690 O 548.521 -1.53317 -1.13572 0
M  V30 5691 C 545.661 -3.02262 -1.66529 0
M  V30 5692 C 544.774 -4.17418 -1.11295 0
M  V30 5693 C 543.909 -4.82273 -2.2268 0
M  V30 5694 C 542.948 -5.89503 -1.6478 0
M  V30 5695 N 542.085 -6.48153 -2.69893 0
M  V30 5696 H 546.925 -2.97853 0.0936579 0
M  V30 5697 H 544.462 -1.46986 0.0579924 0
M  V30 5698 H 546.42 -3.45371 -2.3404 0
M  V30 5699 H 545.05 -2.31614 -2.24844 0
M  V30 5700 H 544.102 -3.78976 -0.328886 0
M  V30 5701 H 545.414 -4.94554 -0.649414 0
M  V30 5702 H 544.568 -5.28435 -2.98063 0
M  V30 5703 H 543.307 -4.04552 -2.72376 0
M  V30 5704 H 542.312 -5.42728 -0.879004 0
M  V30 5705 H 543.537 -6.6913 -1.1594 0
M  V30 5706 H 541.483 -5.73298 -3.1885 0
M  V30 5707 H 541.4 -7.20752 -2.28151 0
M  V30 5708 H 542.668 -6.98968 -3.45056 0
M  V30 5709 N 546.897 -0.0685191 -1.57451 0
M  V30 5710 C 547.845 0.917577 -2.13736 0
M  V30 5711 C 548.839 1.31049 -1.07344 0
M  V30 5712 O 550.045 1.28811 -1.25728 0
M  V30 5713 H 546.42 0.313835 -0.683382 0
M  V30 5714 H 548.391 0.417903 -2.95459 0
M  V30 5715 C 547.14 2.17686 -2.71123 0
M  V30 5716 H 546.463 1.88336 -3.52661 0
M  V30 5717 H 547.903 2.84803 -3.14107 0
M  V30 5718 C 546.362 2.9332 -1.65726 0
M  V30 5719 O 546.892 3.86901 -1.08031 0
M  V30 5720 N 545.098 2.56367 -1.36837 0
M  V30 5721 H 544.645 1.80341 -1.83943 0
M  V30 5722 H 544.603 3.07276 -0.665501 0
M  V30 5723 N 548.375 1.56261 0.205012 0
M  V30 5724 C 549.307 1.90266 1.27795 0
M  V30 5725 C 550.32 0.792397 1.42214 0
M  V30 5726 O 551.509 1.07077 1.42817 0
M  V30 5727 C 548.609 2.11074 2.65143 0
M  V30 5728 C 547.782 3.42176 2.7246 0
M  V30 5729 C 546.841 3.52216 3.90936 0
M  V30 5730 O 545.867 4.25119 3.78501 0
M  V30 5731 N 547.069 2.84573 5.05963 0
M  V30 5732 H 549.834 2.82896 0.989434 0
M  V30 5733 H 547.395 1.57008 0.394981 0
M  V30 5734 H 549.387 2.15089 3.4281 0
M  V30 5735 H 547.957 1.2499 2.86524 0
M  V30 5736 H 547.177 3.50116 1.81142 0
M  V30 5737 H 548.465 4.28509 2.74331 0
M  V30 5738 H 547.863 2.25152 5.18963 0
M  V30 5739 H 546.42 2.94228 5.81613 0
M  V30 5740 N 549.853 -0.472356 1.50355 0
M  V30 5741 C 551.099 -1.22634 1.6152 0
M  V30 5742 C 551.432 -1.91645 0.313995 0
M  V30 5743 O 550.707 -1.82059 -0.684446 0
M  V30 5744 C 550.99 -2.27099 2.7946 0
M  V30 5745 C 550.843 -1.62402 4.19459 0
M  V30 5746 C 552.162 -3.28421 2.92964 0
M  V30 5747 H 549.281 -0.444494 0.587873 0
M  V30 5748 H 551.923 -0.520321 1.82737 0
M  V30 5749 H 550.073 -2.87314 2.61501 0
M  V30 5750 H 551.745 -1.05793 4.49005 0
M  V30 5751 H 549.988 -0.927184 4.23776 0
M  V30 5752 H 550.659 -2.38309 4.97909 0
M  V30 5753 H 553.135 -2.78227 3.09401 0
M  V30 5754 H 552.011 -3.98845 3.77113 0
M  V30 5755 H 552.272 -3.92467 2.03525 0
M  V30 5756 N 551.331 -1.39911 -0.725443 0
M  V30 5757 C 552.556 -1.41137 -1.5197 0
M  V30 5758 C 552.981 -0.010262 -1.88097 0
M  V30 5759 O 552.339 0.979184 -1.52583 0
M  V30 5760 C 552.387 -2.2994 -2.77777 0
M  V30 5761 O 551.491 -1.73586 -3.74088 0
M  V30 5762 H 550.832 -0.480219 -0.458569 0
M  V30 5763 H 553.362 -1.84023 -0.894249 0
M  V30 5764 H 553.372 -2.44785 -3.26411 0
M  V30 5765 H 552.047 -3.31759 -2.50816 0
M  V30 5766 H 550.624 -1.68035 -3.32894 0
M  V30 5767 N 552.809 0.956637 -1.25245 0
M  V30 5768 C 553.739 2.07058 -1.07931 0
M  V30 5769 C 554.72 1.70096 0.0110361 0
M  V30 5770 O 555.905 1.93555 -0.158121 0
M  V30 5771 C 553.035 3.40272 -0.695124 0
M  V30 5772 C 551.989 3.91235 -1.73549 0
M  V30 5773 C 551.315 5.20921 -1.20604 0
M  V30 5774 C 552.615 4.17837 -3.13385 0
M  V30 5775 H 554.309 2.218 -2.01109 0
M  V30 5776 H 551.855 1.06581 -0.968326 0
M  V30 5777 H 553.808 4.1765 -0.560949 0
M  V30 5778 H 552.532 3.25462 0.272355 0
M  V30 5779 H 551.191 3.16025 -1.85807 0
M  V30 5780 H 550.839 5.02479 -0.228846 0
M  V30 5781 H 550.539 5.55987 -1.90136 0
M  V30 5782 H 552.063 6.00897 -1.08421 0
M  V30 5783 H 553.477 4.8588 -3.04292 0
M  V30 5784 H 551.874 4.64154 -3.80369 0
M  V30 5785 H 552.944 3.2419 -3.60595 0
M  V30 5786 N 554.287 1.06798 1.15896 0
M  V30 5787 C 555.515 0.808694 1.90441 0
M  V30 5788 C 555.93 -0.637506 1.77711 0
M  V30 5789 O 555.287 -1.43684 1.12522 0
M  V30 5790 C 555.338 1.20068 3.40978 0
M  V30 5791 O 555.059 2.59013 3.53333 0
M  V30 5792 C 556.56 0.96987 4.3256 0
M  V30 5793 H 553.78 0.292809 0.603742 0
M  V30 5794 H 556.324 1.42296 1.46874 0
M  V30 5795 H 554.479 0.630842 3.82229 0
M  V30 5796 H 554.893 2.7485 4.46719 0
M  V30 5797 H 556.367 1.29371 5.36626 0
M  V30 5798 H 556.844 -0.0941209 4.39099 0
M  V30 5799 H 557.45 1.52433 3.97044 0
M  V30 5800 N 555.766 -1.3263 0.851289 0
M  V30 5801 C 557.006 -1.99174 0.459266 0
M  V30 5802 C 557.37 -1.65913 -0.966273 0
M  V30 5803 O 558.571 -2.2552 -1.46267 0
M  V30 5804 C 556.842 -3.50721 0.687698 0
M  V30 5805 S 558.401 -4.37039 0.392746 0
M  V30 5806 H 555.219 -0.689832 0.172199 0
M  V30 5807 H 557.821 -1.61395 1.10327 0
M  V30 5808 H 556.525 -3.72417 1.72435 0
M  V30 5809 H 556.056 -3.93389 0.0299949 0
M  V30 5810 H 558.071 -4.8999 -0.782578 0
M  V30 5811 N 557.244 -0.608902 -1.45362 0
M  V30 5812 C 558.174 0.0964526 -2.33301 0
M  V30 5813 C 559.155 0.857444 -1.46908 0
M  V30 5814 O 560.34 0.827735 -1.75676 0
M  V30 5815 C 557.47 1.09354 -3.29635 0
M  V30 5816 C 556.424 0.445676 -4.25673 0
M  V30 5817 C 555.75 1.5511 -5.11708 0
M  V30 5818 C 557.05 -0.633972 -5.18438 0
M  V30 5819 H 558.744 -0.637829 -2.92527 0
M  V30 5820 H 556.29 -0.308178 -1.40664 0
M  V30 5821 H 558.243 1.59556 -3.90025 0
M  V30 5822 H 556.967 1.85843 -2.6857 0
M  V30 5823 H 555.626 -0.0354897 -3.66583 0
M  V30 5824 H 555.274 2.30631 -4.4701 0
M  V30 5825 H 554.974 1.12311 -5.76767 0
M  V30 5826 H 556.498 2.05537 -5.74967 0
M  V30 5827 H 557.912 -0.215974 -5.72893 0
M  V30 5828 H 556.309 -0.983789 -5.91981 0
M  V30 5829 H 557.379 -1.51005 -4.60788 0
M  V30 5830 N 558.722 1.53707 -0.348139 0
M  V30 5831 C 559.968 2.01286 0.247332 0
M  V30 5832 C 560.301 1.23546 1.49834 0
M  V30 5833 O 559.576 0.324331 1.91777 0
M  V30 5834 C 559.859 3.55768 0.556858 0
M  V30 5835 C 559.712 4.44216 -0.706564 0
M  V30 5836 C 561.031 4.1841 1.3646 0
M  V30 5837 H 558.15 0.731677 0.0884201 0
M  V30 5838 H 560.792 1.84106 -0.469584 0
M  V30 5839 H 558.942 3.70539 1.16761 0
M  V30 5840 H 560.614 4.41274 -1.34444 0
M  V30 5841 H 558.857 4.12892 -1.33052 0
M  V30 5842 H 559.528 5.50202 -0.445186 0
M  V30 5843 H 562.004 4.07365 0.848113 0
M  V30 5844 H 560.88 5.26563 1.54992 0
M  V30 5845 H 561.141 3.7333 2.36805 0
M  V30 5846 N 560.2 0.0768682 1.57412 0
M  V30 5847 C 561.147 -0.888577 2.13009 0
M  V30 5848 C 562.117 -1.29198 1.0439 0
M  V30 5849 O 563.302 -1.37694 1.3208 0
M  V30 5850 C 560.442 -2.14899 2.70023 0
M  V30 5851 C 559.555 -1.79777 3.92816 0
M  V30 5852 C 558.69 -3.00467 4.38056 0
M  V30 5853 C 557.729 -2.61385 5.53484 0
M  V30 5854 N 556.866 -3.74851 5.93659 0
M  V30 5855 H 561.706 -0.407593 2.95199 0
M  V30 5856 H 559.243 -0.189534 1.45874 0
M  V30 5857 H 561.201 -2.88688 3.0119 0
M  V30 5858 H 559.831 -2.60529 1.9059 0
M  V30 5859 H 558.883 -0.960301 3.68079 0
M  V30 5860 H 560.195 -1.47027 4.76639 0
M  V30 5861 H 559.349 -3.82529 4.7091 0
M  V30 5862 H 558.088 -3.36413 3.53097 0
M  V30 5863 H 557.093 -1.77746 5.20275 0
M  V30 5864 H 558.318 -2.26603 6.40178 0
M  V30 5865 H 556.264 -4.1055 5.11649 0
M  V30 5866 H 556.181 -3.45887 6.72234 0
M  V30 5867 H 557.449 -4.57477 6.31138 0
M  V30 5868 N 561.678 -1.56367 -0.196722 0
M  V30 5869 C 562.926 -1.80172 -0.915554 0
M  V30 5870 C 563.247 -0.649649 -1.8386 0
M  V30 5871 O 562.517 0.332111 -1.93064 0
M  V30 5872 H 561.097 -0.664592 -0.341067 0
M  V30 5873 H 563.759 -1.93844 -0.202622 0
M  V30 5874 H 562.855 -2.7327 -1.50764 0
M  V30 5875 N 563.156 0.464375 -1.50603 0
M  V30 5876 C 564.403 1.21596 -1.61928 0
M  V30 5877 C 564.731 1.91804 -0.322737 0
M  V30 5878 O 563.986 1.83065 0.691776 0
M  V30 5879 C 564.285 2.278 -2.75394 0
M  V30 5880 C 563.951 1.74797 -4.1564 0
M  V30 5881 C 562.613 1.60063 -4.53799 0
M  V30 5882 C 564.965 1.35548 -5.03266 0
M  V30 5883 C 562.293 1.04514 -5.77316 0
M  V30 5884 C 564.645 0.814381 -6.27336 0
M  V30 5885 C 563.309 0.653726 -6.64291 0
M  V30 5886 H 562.579 0.444951 -0.592536 0
M  V30 5887 H 565.226 0.510964 -1.84557 0
M  V30 5888 H 563.531 3.04233 -2.46879 0
M  V30 5889 H 565.228 2.85723 -2.81359 0
M  V30 5890 H 561.818 1.87234 -3.8554 0
M  V30 5891 H 566.002 1.45763 -4.74412 0
M  V30 5892 H 561.258 0.908186 -6.04617 0
M  V30 5893 H 565.432 0.501626 -6.94591 0
M  V30 5894 H 563.059 0.22114 -7.59878 0
M  V30 5895 N 564.634 1.40294 0.718013 0
M  V30 5896 C 565.864 1.41544 1.50495 0
M  V30 5897 C 566.272 0.0127877 1.89196 0
M  V30 5898 O 565.615 -0.97305 1.55812 0
M  V30 5899 C 565.677 2.24021 2.81167 0
M  V30 5900 C 565.341 3.72463 2.64803 0
M  V30 5901 C 566.338 4.65154 2.32223 0
M  V30 5902 C 564.023 4.1625 2.81143 0
M  V30 5903 C 566.017 5.99618 2.16189 0
M  V30 5904 C 563.704 5.50784 2.64727 0
M  V30 5905 C 564.702 6.42283 2.32297 0
M  V30 5906 O 564.39 7.74337 2.16004 0
M  V30 5907 H 564.122 0.484819 0.471091 0
M  V30 5908 H 566.676 1.84948 0.893488 0
M  V30 5909 H 564.906 1.75393 3.44636 0
M  V30 5910 H 566.595 2.17243 3.42871 0
M  V30 5911 H 567.361 4.32622 2.19234 0
M  V30 5912 H 563.24 3.45352 3.05373 0
M  V30 5913 H 566.784 6.71 1.90799 0
M  V30 5914 H 562.681 5.82902 2.773 0
M  V30 5915 H 563.449 7.85244 2.30942 0
M  V30 5916 N 566.112 -0.949982 1.2575 0
M  V30 5917 C 567.523 -1.50989 1.09815 0
M  V30 5918 C 567.874 -1.93497 -0.324556 0
M  V30 5919 O 566.999 -1.79068 -1.21506 0
M  V30 5920 C 567.594 -2.74394 1.98729 0
M  V30 5921 C 566.153 -3.26682 1.86965 0
M  V30 5922 C 565.3 -1.99498 1.92603 0
M  V30 5923 H 568.251 -0.766387 1.38968 0
M  V30 5924 H 568.272 -3.48383 1.53001 0
M  V30 5925 H 567.784 -2.43425 3.02268 0
M  V30 5926 H 565.885 -3.62461 0.863279 0
M  V30 5927 H 565.998 -3.94383 2.72027 0
M  V30 5928 H 564.362 -2.15005 1.36546 0
M  V30 5929 H 565.145 -1.70871 2.97755 0
M  V30 5930 N 567.59 -1.07411 -1.15328 0
M  V30 5931 C 568.815 -0.818856 -1.90551 0
M  V30 5932 C 569.24 0.622194 -1.77512 0
M  V30 5933 O 568.598 1.43484 -1.10824 0
M  V30 5934 C 568.646 -1.23267 -3.38877 0
M  V30 5935 O 567.75 -0.378345 -4.10661 0
M  V30 5936 H 567.091 -0.29827 -0.593238 0
M  V30 5937 H 569.621 -1.43289 -1.46046 0
M  V30 5938 H 569.631 -1.20912 -3.89672 0
M  V30 5939 H 568.306 -2.28226 -3.47686 0
M  V30 5940 H 566.883 -0.464437 -3.69996 0
M  V30 5941 N 569.068 1.32177 -0.85831 0
M  V30 5942 C 570.345 1.91781 -0.384624 0
M  V30 5943 C 570.725 1.78171 1.13217 0
M  V30 5944 O 570.073 1.18209 1.95548 0
M  V30 5945 C 570.283 3.38414 -0.853047 0
M  V30 5946 C 571.631 4.15542 -0.872359 0
M  V30 5947 O 572.655 3.47148 -0.797926 0
M  V30 5948 O 571.514 5.37678 -0.978009 0
M  V30 5949 H 568.608 0.819259 -0.112886 0
M  V30 5950 H 571.154 1.40923 -0.945453 0
M  V30 5951 H 569.926 3.4228 -1.89632 0
M  V30 5952 H 569.549 3.96683 -0.269874 0
M  V30 5953 N 570.547 0.616602 1.45037 0
M  V30 5954 C 571.796 0.112861 2.01384 0
M  V30 5955 C 572.109 -1.26758 1.48969 0
M  V30 5956 O 573.315 -1.86454 1.9735 0
M  V30 5957 C 571.771 0.151057 3.59583 0
M  V30 5958 C 571.379 1.53191 4.20995 0
M  V30 5959 C 573.123 -0.296974 4.2346 0
M  V30 5960 C 571.03 1.526 5.71373 0
M  V30 5961 H 569.96 0.0384254 0.75302 0
M  V30 5962 H 572.611 0.773262 1.66412 0
M  V30 5963 H 570.993 -0.57617 3.91786 0
M  V30 5964 H 572.167 2.28156 4.00352 0
M  V30 5965 H 570.482 1.92279 3.69348 0
M  V30 5966 H 573.079 -0.320712 5.33737 0
M  V30 5967 H 573.422 -1.32145 3.9477 0
M  V30 5968 H 573.955 0.377279 3.96007 0
M  V30 5969 H 570.694 2.52837 6.04776 0
M  V30 5970 H 570.214 0.819064 5.94181 0
M  V30 5971 H 571.893 1.25357 6.3474 0
M  V30 5972 N 572.025 -1.5352 0.356285 0
M  V30 5973 C 572.988 -2.24071 -0.482182 0
M  V30 5974 C 573.988 -1.24531 -1.01729 0
M  V30 5975 O 575.178 -1.48876 -0.904513 0
M  V30 5976 C 572.31 -2.97025 -1.67299 0
M  V30 5977 H 573.503 -2.99596 0.135031 0
M  V30 5978 H 571.056 -1.55928 0.107825 0
M  V30 5979 H 571.791 -2.25719 -2.32855 0
M  V30 5980 H 571.576 -3.7005 -1.29636 0
M  V30 5981 H 573.066 -3.50683 -2.26741 0
M  V30 5982 N 573.503 -0.0852151 -1.57369 0
M  V30 5983 C 574.749 0.581666 -1.94279 0
M  V30 5984 C 575.082 1.68444 -0.966446 0
M  V30 5985 O 574.357 1.945 0.00215277 0
M  V30 5986 C 574.64 1.14609 -3.41375 0
M  V30 5987 C 574.493 0.0490414 -4.49773 0
M  V30 5988 C 575.812 2.04751 -3.8957 0
M  V30 5989 H 572.931 0.209972 -0.706456 0
M  V30 5990 H 575.573 -0.153915 -1.89376 0
M  V30 5991 H 573.723 1.77297 -3.45685 0
M  V30 5992 H 575.395 -0.584721 -4.57579 0
M  V30 5993 H 573.638 -0.618638 -4.29366 0
M  V30 5994 H 574.309 0.484601 -5.49869 0
M  V30 5995 H 576.785 1.51981 -3.87351 0
M  V30 5996 H 575.661 2.41173 -4.93079 0
M  V30 5997 H 575.922 2.96107 -3.28288 0
M  V30 5998 N 574.981 1.5647 0.188427 0
M  V30 5999 C 575.891 1.98285 1.2538 0
M  V30 6000 C 576.907 0.891535 1.49424 0
M  V30 6001 O 578.083 1.19782 1.61908 0
M  V30 6002 C 575.148 2.31965 2.57669 0
M  V30 6003 C 574.209 3.54838 2.41638 0
M  V30 6004 C 573.442 3.86901 3.67618 0
M  V30 6005 O 573.665 3.20163 4.72072 0
M  V30 6006 O 572.599 4.80309 3.62749 0
M  V30 6007 H 576.425 2.89145 0.928912 0
M  V30 6008 H 574.01 1.44112 0.393955 0
M  V30 6009 H 575.892 2.54673 3.35737 0
M  V30 6010 H 574.567 1.44271 2.89771 0
M  V30 6011 H 573.474 3.37369 1.61658 0
M  V30 6012 H 574.807 4.43019 2.14465 0
M  V30 6013 N 576.459 -0.456382 1.50847 0
M  V30 6014 C 577.705 -1.20618 1.63777 0
M  V30 6015 C 578.06 -1.8936 0.340677 0
M  V30 6016 O 577.353 -1.79786 -0.662378 0
M  V30 6017 C 577.547 -2.26336 2.76599 0
M  V30 6018 C 577.376 -1.67968 4.17153 0
M  V30 6019 C 576.146 -1.47293 4.83356 0
M  V30 6020 C 578.344 -1.16643 5.00898 0
M  V30 6021 N 576.326 -0.843222 6.08081 0
M  V30 6022 C 577.697 -0.660843 6.16468 0
M  V30 6023 C 579.752 -1.05637 4.86565 0
M  V30 6024 C 578.455 -0.0560365 7.19278 0
M  V30 6025 C 580.481 -0.465485 5.89565 0
M  V30 6026 C 579.843 0.0296516 7.04394 0
M  V30 6027 H 575.942 -0.429725 0.653345 0
M  V30 6028 H 578.526 -0.505784 1.88016 0
M  V30 6029 H 576.697 -2.93785 2.54056 0
M  V30 6030 H 578.429 -2.9334 2.78808 0
M  V30 6031 H 575.184 -1.72934 4.40898 0
M  V30 6032 H 575.608 -0.546357 6.74792 0
M  V30 6033 H 580.25 -1.42508 3.98059 0
M  V30 6034 H 577.968 0.324845 8.07447 0
M  V30 6035 H 581.554 -0.382493 5.80541 0
M  V30 6036 H 580.434 0.479705 7.82731 0
M  V30 6037 N 577.937 -1.40673 -0.710563 0
M  V30 6038 C 578.847 -1.43663 -1.85467 0
M  V30 6039 C 579.863 -0.328721 -1.70867 0
M  V30 6040 O 581.039 -0.574098 -1.93044 0
M  V30 6041 C 578.104 -1.30226 -3.21313 0
M  V30 6042 C 577.165 -2.51204 -3.48131 0
M  V30 6043 C 576.398 -2.38398 -4.77495 0
M  V30 6044 O 576.621 -1.40048 -5.5294 0
M  V30 6045 O 575.555 -3.2787 -5.04762 0
M  V30 6046 H 579.381 -2.40156 -1.859 0
M  V30 6047 H 576.966 -1.22049 -0.861652 0
M  V30 6048 H 578.848 -1.2496 -4.02446 0
M  V30 6049 H 577.523 -0.368419 -3.21597 0
M  V30 6050 H 576.43 -2.62048 -2.66987 0
M  V30 6051 H 577.763 -3.43366 -3.52648 0
M  V30 6052 N 579.415 0.9433 -1.26252 0
M  V30 6053 C 580.64 1.72898 -1.14547 0
M  V30 6054 C 581.065 1.85761 0.295743 0
M  V30 6055 O 580.423 1.3463 1.21427 0
M  V30 6056 C 580.471 3.11471 -1.8171 0
M  V30 6057 O 579.575 3.97336 -1.10445 0
M  V30 6058 H 578.916 0.530555 -0.399259 0
M  V30 6059 H 581.446 1.18159 -1.67032 0
M  V30 6060 H 581.456 3.61872 -1.88449 0
M  V30 6061 H 580.131 3.01425 -2.86558 0
M  V30 6062 H 578.708 3.55788 -1.11666 0
M  V30 6063 N 580.893 1.08022 1.14757 0
M  V30 6064 C 581.841 0.701088 2.21783 0
M  V30 6065 C 582.835 -0.291311 1.66876 0
M  V30 6066 O 584.041 -0.154296 1.79337 0
M  V30 6067 H 580.416 0.208668 0.722469 0
M  V30 6068 H 582.387 1.61321 2.51034 0
M  V30 6069 C 581.136 0.122278 3.47485 0
M  V30 6070 H 580.459 0.877065 3.90061 0
M  V30 6071 H 581.899 -0.105248 4.23869 0
M  V30 6072 C 580.358 -1.13883 3.17068 0
M  V30 6073 O 580.888 -2.22429 3.34497 0
M  V30 6074 N 579.094 -1.04767 2.71058 0
M  V30 6075 H 578.641 -0.164302 2.57075 0
M  V30 6076 H 578.599 -1.89224 2.51081 0
M  V30 6077 N 582.371 -1.3172 0.865308 0
M  V30 6078 C 583.619 -1.96487 0.472995 0
M  V30 6079 C 583.94 -1.68761 -0.976975 0
M  V30 6080 O 583.21 -1.00051 -1.68424 0
M  V30 6081 H 581.79 -0.726947 0.171922 0
M  V30 6082 H 584.452 -1.60612 1.10407 0
M  V30 6083 H 583.548 -3.0574 0.62687 0
M  V30 6084 N 583.85 -0.624285 -1.44708 0
M  V30 6085 C 584.782 0.12305 -2.28869 0
M  V30 6086 C 585.795 0.81557 -1.40898 0
M  V30 6087 O 586.984 0.678162 -1.65116 0
M  V30 6088 C 584.084 1.19612 -3.1709 0
M  V30 6089 C 583.257 0.587452 -4.33437 0
M  V30 6090 C 582.316 1.55358 -5.02743 0
M  V30 6091 O 581.341 1.07338 -5.58988 0
M  V30 6092 N 582.543 2.88798 -5.03563 0
M  V30 6093 H 585.308 -0.599193 -2.93649 0
M  V30 6094 H 582.87 -0.464954 -1.5508 0
M  V30 6095 H 584.861 1.84261 -3.60319 0
M  V30 6096 H 583.432 1.82067 -2.54107 0
M  V30 6097 H 582.652 -0.237509 -3.93484 0
M  V30 6098 H 583.94 0.161326 -5.08544 0
M  V30 6099 H 583.338 3.30399 -4.59188 0
M  V30 6100 H 581.894 3.48826 -5.50603 0
M  V30 6101 N 585.328 1.53329 -0.364422 0
M  V30 6102 C 586.739 1.86345 0.115039 0
M  V30 6103 C 587.09 1.28505 1.4826 0
M  V30 6104 O 586.215 0.606639 2.07723 0
M  V30 6105 C 586.81 3.38114 0.215522 0
M  V30 6106 C 585.369 3.70932 0.639237 0
M  V30 6107 C 584.516 2.76471 -0.214261 0
M  V30 6108 H 587.467 1.47593 -0.583258 0
M  V30 6109 H 587.488 3.66031 1.0393 0
M  V30 6110 H 587 3.80182 -0.779948 0
M  V30 6111 H 585.101 3.3442 1.64298 0
M  V30 6112 H 585.214 4.77302 0.41465 0
M  V30 6113 H 583.578 2.52724 0.316678 0
M  V30 6114 H 584.361 3.21373 -1.20725 0
M  V30 6115 N 586.806 0.0935595 1.57322 0
M  V30 6116 C 587.716 -0.880192 2.17462 0
M  V30 6117 C 588.732 -1.31135 1.14366 0
M  V30 6118 O 589.908 -1.37958 1.46729 0
M  V30 6119 C 586.973 -2.12184 2.74188 0
M  V30 6120 C 586.034 -1.74503 3.92234 0
M  V30 6121 C 585.267 -2.92748 4.46245 0
M  V30 6122 O 585.49 -4.07427 3.99198 0
M  V30 6123 O 584.424 -2.71303 5.37288 0
M  V30 6124 H 588.25 -0.398516 3.01074 0
M  V30 6125 H 585.835 -0.130707 1.48827 0
M  V30 6126 H 587.717 -2.84953 3.10451 0
M  V30 6127 H 586.392 -2.59407 1.93623 0
M  V30 6128 H 585.299 -0.989186 3.60785 0
M  V30 6129 H 586.632 -1.32044 4.74157 0
M  V30 6130 N 588.284 -1.56567 -0.180126 0
M  V30 6131 C 589.232 -1.96632 -1.24251 0
M  V30 6132 C 590.226 -0.853818 -1.46309 0
M  V30 6133 O 591.432 -1.0389 -1.46993 0
M  V30 6134 H 587.807 -0.625476 -0.417473 0
M  V30 6135 H 589.778 -2.85201 -0.877679 0
M  V30 6136 C 588.527 -2.33486 -2.57642 0
M  V30 6137 H 587.85 -3.18626 -2.4149 0
M  V30 6138 H 589.29 -2.65371 -3.30688 0
M  V30 6139 C 587.749 -1.17499 -3.15746 0
M  V30 6140 O 588.279 -0.457956 -3.99081 0
M  V30 6141 N 586.485 -0.94786 -2.74707 0
M  V30 6142 H 586.032 -1.53269 -2.07042 0
M  V30 6143 H 585.99 -0.173626 -3.1392 0
M  V30 6144 N 589.762 0.448376 -1.51087 0
M  V30 6145 C 590.71 1.56407 -1.72161 0
M  V30 6146 C 591.704 1.58878 -0.587721 0
M  V30 6147 O 592.91 1.62755 -0.768822 0
M  V30 6148 H 589.285 0.519423 -0.543786 0
M  V30 6149 H 591.256 1.35803 -2.65707 0
M  V30 6150 C 590.005 2.94163 -1.85373 0
M  V30 6151 H 589.328 2.9299 -2.72024 0
M  V30 6152 H 590.768 3.71625 -2.04135 0
M  V30 6153 C 589.227 3.31317 -0.610803 0
M  V30 6154 O 589.757 4.00985 0.239636 0
M  V30 6155 N 587.963 2.86966 -0.458127 0
M  V30 6156 H 587.51 2.30443 -1.15124 0
M  V30 6157 H 587.468 3.12188 0.372289 0
M  V30 6158 N 591.24 1.41047 0.703093 0
M  V30 6159 C 592.47 1.43133 1.48985 0
M  V30 6160 C 592.878 0.0328537 1.89171 0
M  V30 6161 O 592.221 -0.956469 1.56835 0
M  V30 6162 C 592.283 2.26991 2.78775 0
M  V30 6163 C 591.947 3.7525 2.60837 0
M  V30 6164 C 592.944 4.67591 2.27276 0
M  V30 6165 C 590.629 4.19208 2.76712 0
M  V30 6166 C 592.623 6.01877 2.09817 0
M  V30 6167 C 590.31 5.53561 2.5887 0
M  V30 6168 C 591.308 6.4471 2.25472 0
M  V30 6169 O 590.996 7.76584 2.07778 0
M  V30 6170 H 590.728 0.489788 0.465922 0
M  V30 6171 H 593.282 1.85886 0.873822 0
M  V30 6172 H 591.512 1.79038 3.42757 0
M  V30 6173 H 593.201 2.20867 3.40547 0
M  V30 6174 H 593.967 4.34923 2.14633 0
M  V30 6175 H 589.846 3.48572 3.01693 0
M  V30 6176 H 593.39 6.72986 1.83671 0
M  V30 6177 H 589.287 5.85811 2.71102 0
M  V30 6178 H 590.055 7.87649 2.22601 0
M  V30 6179 N 592.718 -0.936591 1.26751 0
M  V30 6180 C 593.665 -2.03597 1.08706 0
M  V30 6181 C 594.635 -1.66097 -0.00926542 0
M  V30 6182 O 595.82 -1.90199 0.151377 0
M  V30 6183 C 592.96 -3.3727 0.73094 0
M  V30 6184 C 592.073 -3.87778 1.90399 0
M  V30 6185 C 591.208 -5.09859 1.49056 0
M  V30 6186 C 590.247 -5.5264 2.63164 0
M  V30 6187 N 589.384 -6.65921 2.22471 0
M  V30 6188 H 594.224 -2.18364 2.02784 0
M  V30 6189 H 591.761 -1.06985 1.00958 0
M  V30 6190 H 593.719 -4.14128 0.505328 0
M  V30 6191 H 592.349 -3.22337 -0.172868 0
M  V30 6192 H 591.401 -3.07279 2.2424 0
M  V30 6193 H 592.713 -4.15464 2.76028 0
M  V30 6194 H 591.867 -5.9419 1.22567 0
M  V30 6195 H 590.606 -4.8393 0.60524 0
M  V30 6196 H 589.611 -4.66863 2.90377 0
M  V30 6197 H 590.836 -5.80568 3.52303 0
M  V30 6198 H 588.782 -6.41667 1.36379 0
M  V30 6199 H 588.699 -6.93216 3.01641 0
M  V30 6200 H 589.967 -7.53616 1.99205 0
M  V30 6201 N 594.196 -1.08629 -1.14182 0
M  V30 6202 C 595.424 -0.838889 -1.8913 0
M  V30 6203 C 595.839 0.609153 -1.78703 0
M  V30 6204 O 595.196 1.41876 -1.14794 0
M  V30 6205 C 595.247 -1.25477 -3.39025 0
M  V30 6206 O 594.968 -2.64601 -3.49167 0
M  V30 6207 C 596.469 -1.03856 -4.30963 0
M  V30 6208 H 593.689 -0.302377 -0.599007 0
M  V30 6209 H 596.233 -1.44615 -1.44592 0
M  V30 6210 H 594.388 -0.691571 -3.81177 0
M  V30 6211 H 594.802 -2.81922 -4.42289 0
M  V30 6212 H 596.276 -1.37892 -5.345 0
M  V30 6213 H 596.753 0.0242522 -4.39193 0
M  V30 6214 H 597.359 -1.58731 -3.94569 0
M  V30 6215 N 595.674 1.31259 -0.872281 0
M  V30 6216 C 596.902 2.00795 -0.498907 0
M  V30 6217 C 597.317 1.65464 0.909238 0
M  V30 6218 O 596.674 0.885073 1.59602 0
M  V30 6219 C 596.725 3.55625 -0.649092 0
M  V30 6220 O 596.446 3.89692 -2.00179 0
M  V30 6221 C 597.947 4.42434 -0.277034 0
M  V30 6222 H 595.167 0.642299 -0.194145 0
M  V30 6223 H 597.711 1.67438 -1.17408 0
M  V30 6224 H 595.866 3.87394 -0.0214402 0
M  V30 6225 H 596.28 4.84407 -2.01122 0
M  V30 6226 H 597.754 5.50299 -0.433064 0
M  V30 6227 H 598.231 4.32146 0.783989 0
M  V30 6228 H 598.837 4.16086 -0.880483 0
M  V30 6229 N 597.152 0.631951 1.44375 0
M  V30 6230 C 598.563 0.219036 1.85411 0
M  V30 6231 C 598.914 -1.22974 1.52879 0
M  V30 6232 O 598.039 -1.93579 0.967266 0
M  V30 6233 C 598.634 0.39075 3.36539 0
M  V30 6234 C 597.193 0.0323351 3.76386 0
M  V30 6235 C 596.34 0.703744 2.68221 0
M  V30 6236 H 599.291 0.837056 1.3483 0
M  V30 6237 H 599.312 -0.370056 3.78696 0
M  V30 6238 H 598.824 1.44527 3.60185 0
M  V30 6239 H 596.925 -1.02042 3.58355 0
M  V30 6240 H 597.038 0.442969 4.77048 0
M  V30 6241 H 595.402 0.138974 2.54321 0
M  V30 6242 H 596.185 1.76088 2.947 0
M  V30 6243 N 598.631 -1.53133 0.372548 0
M  V30 6244 C 600.042 -1.86404 -0.105155 0
M  V30 6245 C 600.393 -1.29289 -1.47576 0
M  V30 6246 O 599.518 -0.617646 -2.07398 0
M  V30 6247 C 600.113 -3.38223 -0.197588 0
M  V30 6248 C 598.672 -3.71266 -0.619556 0
M  V30 6249 C 597.819 -2.76353 0.228919 0
M  V30 6250 H 600.77 -1.47282 0.591077 0
M  V30 6251 H 600.791 -3.66577 -1.01987 0
M  V30 6252 H 600.303 -3.79763 0.800099 0
M  V30 6253 H 598.404 -3.35287 -1.62522 0
M  V30 6254 H 598.517 -4.77515 -0.389332 0
M  V30 6255 H 596.881 -2.52888 -0.303271 0
M  V30 6256 H 597.664 -3.20728 1.22428 0
M  V30 6257 N 600.109 -0.101901 -1.5727 0
M  V30 6258 C 601.355 0.561027 -1.94885 0
M  V30 6259 C 601.688 1.6741 -0.984258 0
M  V30 6260 O 600.963 1.94491 -0.0184767 0
M  V30 6261 C 601.246 1.10982 -3.42571 0
M  V30 6262 C 601.099 0.00133418 -4.498 0
M  V30 6263 C 602.418 2.00608 -3.9172 0
M  V30 6264 H 599.537 0.202467 -0.708644 0
M  V30 6265 H 602.179 -0.173992 -1.89202 0
M  V30 6266 H 600.329 1.73621 -3.47546 0
M  V30 6267 H 602.001 -0.63322 -4.56933 0
M  V30 6268 H 600.244 -0.664143 -4.28686 0
M  V30 6269 H 600.915 0.426253 -5.50352 0
M  V30 6270 H 603.391 1.47864 -3.88941 0
M  V30 6271 H 602.267 2.3593 -4.95609 0
M  V30 6272 H 602.528 2.92608 -3.3141 0
M  V30 6273 N 601.587 1.56661 0.17182 0
M  V30 6274 C 602.517 1.99401 1.21498 0
M  V30 6275 C 603.498 0.869516 1.46197 0
M  V30 6276 O 604.683 1.13556 1.57539 0
M  V30 6277 C 601.813 2.35346 2.55401 0
M  V30 6278 C 600.767 3.5075 2.45272 0
M  V30 6279 C 600.093 3.72437 3.8366 0
M  V30 6280 C 601.393 4.84216 1.95787 0
M  V30 6281 H 603.087 2.86792 0.859699 0
M  V30 6282 H 600.633 1.37977 0.412103 0
M  V30 6283 H 602.586 2.63843 3.2858 0
M  V30 6284 H 601.31 1.44864 2.92715 0
M  V30 6285 H 599.969 3.2238 1.74547 0
M  V30 6286 H 599.617 2.79246 4.18367 0
M  V30 6287 H 599.317 4.50087 3.77751 0
M  V30 6288 H 600.841 4.03334 4.58426 0
M  V30 6289 H 602.255 5.11592 2.5874 0
M  V30 6290 H 600.652 5.65498 2.00827 0
M  V30 6291 H 601.722 4.76243 0.912159 0
M  V30 6292 N 603.065 -0.440357 1.51323 0
M  V30 6293 C 604.342 -1.20109 1.5438 0
M  V30 6294 C 604.722 -2.08866 0.306303 0
M  V30 6295 O 604.07 -2.1723 -0.708773 0
M  V30 6296 C 604.28 -2.00555 2.8562 0
M  V30 6297 C 605.628 -2.577 3.37455 0
M  V30 6298 O 606.652 -2.10769 2.8715 0
M  V30 6299 O 605.511 -3.43289 4.25224 0
M  V30 6300 H 602.605 -0.546668 0.620551 0
M  V30 6301 H 605.151 -0.449672 1.63634 0
M  V30 6302 H 603.923 -1.35346 3.67147 0
M  V30 6303 H 603.546 -2.82768 2.79514 0
M  V30 6304 N 604.543 -1.41418 -0.695603 0
M  V30 6305 C 605.768 -1.44329 -1.48942 0
M  V30 6306 C 606.193 -0.0501579 -1.88033 0
M  V30 6307 O 605.551 0.946598 -1.54626 0
M  V30 6308 C 605.599 -2.3578 -2.72837 0
M  V30 6309 O 604.703 -1.81482 -3.70322 0
M  V30 6310 H 604.044 -0.489838 -0.44828 0
M  V30 6311 H 606.574 -1.85878 -0.855014 0
M  V30 6312 H 606.584 -2.51654 -3.21145 0
M  V30 6313 H 605.259 -3.37005 -2.43722 0
M  V30 6314 H 603.836 -1.75058 -3.29255 0
M  V30 6315 N 606.021 0.929856 -1.27246 0
M  V30 6316 C 607.298 1.65544 -1.04186 0
M  V30 6317 C 607.678 2.06796 0.424097 0
M  V30 6318 O 607.026 1.80053 1.40688 0
M  V30 6319 C 607.236 2.85912 -2.00138 0
M  V30 6320 C 608.584 3.57305 -2.29387 0
M  V30 6321 O 609.608 2.96036 -1.98094 0
M  V30 6322 O 608.467 4.67688 -2.82719 0
M  V30 6323 H 605.561 0.725473 -0.397011 0
M  V30 6324 H 608.107 0.980583 -1.38501 0
M  V30 6325 H 606.879 2.52403 -2.99013 0
M  V30 6326 H 606.502 3.61118 -1.66371 0
M  V30 6327 N 607.499 1.09233 1.13605 0
M  V30 6328 C 608.747 0.825525 1.84471 0
M  V30 6329 C 609.068 -0.650702 1.83823 0
M  V30 6330 O 608.338 -1.47204 1.29259 0
M  V30 6331 H 606.918 0.3024 0.683054 0
M  V30 6332 H 609.58 1.38006 1.37624 0
M  V30 6333 H 608.676 1.17727 2.89045 0
M  V30 6334 N 608.977 -1.30795 0.87923 0
M  V30 6335 C 610.202 -2.01063 0.508769 0
M  V30 6336 C 610.627 -1.65508 -0.893803 0
M  V30 6337 O 609.985 -0.868616 -1.59138 0
M  V30 6338 C 610.033 -3.54054 0.683991 0
M  V30 6339 O 609.137 -4.11498 -0.272654 0
M  V30 6340 H 608.478 -0.632786 0.201191 0
M  V30 6341 H 611.008 -1.66776 1.18519 0
M  V30 6342 H 611.018 -4.03845 0.580798 0
M  V30 6343 H 609.693 -3.79271 1.70665 0
M  V30 6344 H 608.27 -3.72695 -0.12364 0
M  V30 6345 N 610.455 -0.639598 -1.44038 0
M  V30 6346 C 611.702 -0.14748 -2.01962 0
M  V30 6347 C 612.03 1.23372 -1.50365 0
M  V30 6348 O 611.285 1.8345 -0.681501 0
M  V30 6349 C 611.584 -0.0925348 -3.5728 0
M  V30 6350 C 611.25 -1.41365 -4.28167 0
M  V30 6351 C 609.912 -1.77545 -4.47248 0
M  V30 6352 C 612.264 -2.2853 -4.68427 0
M  V30 6353 C 609.592 -3.00583 -5.03852 0
M  V30 6354 C 611.944 -3.50846 -5.26393 0
M  V30 6355 C 610.608 -3.8724 -5.43692 0
M  V30 6356 H 609.878 -0.0539666 -0.739032 0
M  V30 6357 H 612.525 -0.827599 -1.72694 0
M  V30 6358 H 610.83 0.670987 -3.86012 0
M  V30 6359 H 612.527 0.304891 -3.99839 0
M  V30 6360 H 609.117 -1.1221 -4.13651 0
M  V30 6361 H 613.301 -2.0187 -4.5339 0
M  V30 6362 H 608.557 -3.28846 -5.15432 0
M  V30 6363 H 612.731 -4.18616 -5.56537 0
M  V30 6364 H 610.358 -4.8266 -5.87319 0
M  V30 6365 N 611.933 1.52934 -0.380664 0
M  V30 6366 C 613.18 2.01467 0.204278 0
M  V30 6367 C 613.508 1.26744 1.47533 0
M  V30 6368 O 612.763 0.353723 1.92477 0
M  V30 6369 C 613.062 3.5349 0.527199 0
M  V30 6370 C 612.728 4.46171 -0.651295 0
M  V30 6371 C 611.39 4.71227 -0.974619 0
M  V30 6372 C 613.742 5.00909 -1.44012 0
M  V30 6373 C 611.07 5.4827 -2.08847 0
M  V30 6374 C 613.422 5.7917 -2.5445 0
M  V30 6375 C 612.086 6.02507 -2.87301 0
M  V30 6376 H 611.356 0.73722 0.0747504 0
M  V30 6377 H 614.003 1.84411 -0.516234 0
M  V30 6378 H 612.308 3.68574 1.32892 0
M  V30 6379 H 614.005 3.88529 0.992283 0
M  V30 6380 H 610.595 4.26829 -0.389276 0
M  V30 6381 H 614.779 4.81485 -1.20357 0
M  V30 6382 H 610.035 5.64567 -2.34679 0
M  V30 6383 H 614.209 6.20588 -3.1598 0
M  V30 6384 H 611.836 6.61989 -3.7373 0
M  V30 6385 N 613.412 0.11024 1.57214 0
M  V30 6386 C 614.342 -0.840002 2.17867 0
M  V30 6387 C 615.323 -1.28352 1.11624 0
M  V30 6388 O 616.508 -1.3477 1.39824 0
M  V30 6389 C 613.638 -2.09349 2.77111 0
M  V30 6390 C 612.592 -1.78807 3.8886 0
M  V30 6391 C 611.918 -3.11112 4.34872 0
M  V30 6392 C 613.218 -1.0632 5.11364 0
M  V30 6393 H 614.912 -0.334608 2.97524 0
M  V30 6394 H 612.458 -0.159502 1.43114 0
M  V30 6395 H 614.411 -2.76275 3.18198 0
M  V30 6396 H 613.135 -2.62198 1.9473 0
M  V30 6397 H 611.794 -1.14273 3.48335 0
M  V30 6398 H 611.442 -3.61877 3.49362 0
M  V30 6399 H 611.142 -2.91453 5.10224 0
M  V30 6400 H 612.666 -3.79171 4.78604 0
M  V30 6401 H 614.08 -1.63383 5.49526 0
M  V30 6402 H 612.477 -0.967876 5.92243 0
M  V30 6403 H 613.547 -0.0484569 4.84876 0
M  V30 6404 N 614.89 -1.56749 -0.16351 0
M  V30 6405 C 616.12 -1.86307 -0.892936 0
M  V30 6406 C 616.528 -0.6945 -1.75992 0
M  V30 6407 O 615.871 0.345384 -1.80424 0
M  V30 6408 C 615.933 -3.10372 -1.81409 0
M  V30 6409 C 615.597 -4.42913 -1.12593 0
M  V30 6410 C 616.594 -5.17608 -0.487661 0
M  V30 6411 C 614.279 -4.89646 -1.12035 0
M  V30 6412 C 616.273 -6.3723 0.14699 0
M  V30 6413 C 613.96 -6.09197 -0.481883 0
M  V30 6414 C 614.958 -6.82834 0.150678 0
M  V30 6415 O 614.646 -8.00116 0.779065 0
M  V30 6416 H 614.378 -0.622126 -0.264452 0
M  V30 6417 H 616.932 -2.04728 -0.166063 0
M  V30 6418 H 615.162 -2.87917 -2.58148 0
M  V30 6419 H 616.851 -3.26312 -2.41403 0
M  V30 6420 H 617.617 -4.8258 -0.483888 0
M  V30 6421 H 613.496 -4.32265 -1.60212 0
M  V30 6422 H 617.04 -6.94646 0.641325 0
M  V30 6423 H 612.937 -6.43688 -0.483266 0
M  V30 6424 H 613.705 -8.15678 0.679089 0
M  V30 6425 N 616.368 0.432326 -1.51554 0
M  V30 6426 C 617.593 1.20824 -1.68571 0
M  V30 6427 C 618.018 1.84126 -0.384596 0
M  V30 6428 O 617.376 1.69025 0.655751 0
M  V30 6429 C 617.424 2.26429 -2.80646 0
M  V30 6430 O 616.528 3.32032 -2.44598 0
M  V30 6431 H 615.869 0.353765 -0.561913 0
M  V30 6432 H 618.399 0.509916 -1.98144 0
M  V30 6433 H 618.409 2.71133 -3.04878 0
M  V30 6434 H 617.084 1.79733 -3.75058 0
M  V30 6435 H 615.661 2.92769 -2.30956 0
M  V30 6436 N 617.846 1.41785 0.688094 0
M  V30 6437 C 618.793 1.44221 1.80191 0
M  V30 6438 C 619.763 0.295688 1.63447 0
M  V30 6439 O 620.948 0.49783 1.84191 0
M  V30 6440 C 618.088 1.33743 3.1813 0
M  V30 6441 C 617.201 2.58325 3.46254 0
M  V30 6442 C 616.336 2.40086 4.73848 0
M  V30 6443 C 615.375 3.60107 4.94964 0
M  V30 6444 N 614.512 3.40892 6.13789 0
M  V30 6445 H 619.352 2.39411 1.77444 0
M  V30 6446 H 616.889 1.18876 0.866423 0
M  V30 6447 H 618.847 1.25669 3.97823 0
M  V30 6448 H 617.477 0.42157 3.20035 0
M  V30 6449 H 616.529 2.7682 2.60912 0
M  V30 6450 H 617.841 3.4758 3.57756 0
M  V30 6451 H 616.995 2.29522 5.61609 0
M  V30 6452 H 615.734 1.483 4.64606 0
M  V30 6453 H 614.739 3.71118 4.05649 0
M  V30 6454 H 615.964 4.52857 5.06061 0
M  V30 6455 H 613.91 2.51812 6.05745 0
M  V30 6456 H 613.827 4.23727 6.26092 0
M  V30 6457 H 615.095 3.34114 7.04264 0
M  V30 6458 N 619.324 -0.923095 1.27737 0
M  V30 6459 C 620.254 -2.04124 1.13383 0
M  V30 6460 C 621.235 -1.70066 0.0340658 0
M  V30 6461 O 622.42 -1.93068 0.209383 0
M  V30 6462 C 619.55 -3.3831 0.785097 0
M  V30 6463 C 618.504 -3.86496 1.8386 0
M  V30 6464 C 617.83 -5.1754 1.34373 0
M  V30 6465 C 619.13 -4.09381 3.24353 0
M  V30 6466 H 620.824 -2.1639 2.06919 0
M  V30 6467 H 618.37 -1.03976 0.996243 0
M  V30 6468 H 620.323 -4.16016 0.671485 0
M  V30 6469 H 619.047 -3.2607 -0.185969 0
M  V30 6470 H 617.706 -3.10987 1.9412 0
M  V30 6471 H 617.354 -5.01696 0.361989 0
M  V30 6472 H 617.054 -5.50751 2.04811 0
M  V30 6473 H 618.578 -5.97811 1.24315 0
M  V30 6474 H 619.992 -4.77641 3.17067 0
M  V30 6475 H 618.389 -4.53906 3.92542 0
M  V30 6476 H 619.459 -3.14515 3.69064 0
M  V30 6477 N 620.802 -1.09834 -1.13024 0
M  V30 6478 C 622.03 -0.858902 -1.8823 0
M  V30 6479 C 622.445 0.590164 -1.79339 0
M  V30 6480 O 621.802 1.4065 -1.16292 0
M  V30 6481 C 621.853 -1.29066 -3.37675 0
M  V30 6482 O 621.574 -2.6829 -3.46341 0
M  V30 6483 C 623.075 -1.08421 -4.29837 0
M  V30 6484 H 620.295 -0.308713 -0.595766 0
M  V30 6485 H 622.839 -1.4614 -1.4305 0
M  V30 6486 H 620.994 -0.731961 -3.80422 0
M  V30 6487 H 621.408 -2.86598 -4.39274 0
M  V30 6488 H 622.882 -1.43553 -5.33007 0
M  V30 6489 H 623.359 -0.0223315 -4.39194 0
M  V30 6490 H 623.965 -1.62907 -3.92863 0
M  V30 6491 N 622.28 1.30327 -0.886154 0
M  V30 6492 C 623.526 1.96388 -0.505941 0
M  V30 6493 C 623.859 1.69784 0.942712 0
M  V30 6494 O 623.134 1.00322 1.6663 0
M  V30 6495 C 623.417 3.51488 -0.782826 0
M  V30 6496 C 623.27 3.87603 -2.28219 0
M  V30 6497 C 624.589 4.39331 -0.260128 0
M  V30 6498 H 621.708 0.713327 -0.185292 0
M  V30 6499 H 624.35 1.54178 -1.11036 0
M  V30 6500 H 622.5 3.87572 -0.268399 0
M  V30 6501 H 624.172 3.61537 -2.86512 0
M  V30 6502 H 622.415 3.3563 -2.74837 0
M  V30 6503 H 623.086 4.95806 -2.42653 0
M  V30 6504 H 625.562 4.10162 -0.700444 0
M  V30 6505 H 624.438 5.46769 -0.483179 0
M  V30 6506 H 624.699 4.34072 0.838674 0
M  V30 6507 N 623.758 0.647228 1.43697 0
M  V30 6508 C 625.035 0.0883758 1.954 0
M  V30 6509 C 625.415 -1.39006 1.58873 0
M  V30 6510 O 624.763 -2.11255 0.87083 0
M  V30 6511 C 624.973 0.328263 3.47453 0
M  V30 6512 C 626.321 0.230009 4.23977 0
M  V30 6513 O 627.345 0.260496 3.55246 0
M  V30 6514 O 626.204 0.148615 5.46298 0
M  V30 6515 H 623.298 -0.0130683 0.826897 0
M  V30 6516 H 625.844 0.72005 1.53666 0
M  V30 6517 H 624.616 1.3535 3.67146 0
M  V30 6518 H 624.239 -0.336772 3.96171 0
M  V30 6519 N 625.236 -1.5273 0.388769 0
M  V30 6520 C 626.183 -2.26437 -0.446639 0
M  V30 6521 C 627.153 -1.28025 -1.05824 0
M  V30 6522 O 628.338 -1.56852 -1.08637 0
M  V30 6523 C 625.478 -3.07407 -1.56828 0
M  V30 6524 C 624.591 -4.20747 -0.979589 0
M  V30 6525 C 623.726 -4.89113 -2.07224 0
M  V30 6526 C 622.765 -5.94447 -1.45942 0
M  V30 6527 N 621.902 -6.56411 -2.49135 0
M  V30 6528 H 626.742 -2.97404 0.18837 0
M  V30 6529 H 624.279 -1.46727 0.104725 0
M  V30 6530 H 626.237 -3.52642 -2.22934 0
M  V30 6531 H 624.867 -2.3865 -2.17361 0
M  V30 6532 H 623.919 -3.7983 -0.208151 0
M  V30 6533 H 625.231 -4.9637 -0.491747 0
M  V30 6534 H 624.385 -5.3765 -2.81101 0
M  V30 6535 H 623.124 -4.13013 -2.59368 0
M  V30 6536 H 622.129 -5.4525 -0.705894 0
M  V30 6537 H 623.354 -6.7248 -0.945932 0
M  V30 6538 H 621.3 -5.83152 -3.00449 0
M  V30 6539 H 621.217 -7.27645 -2.05105 0
M  V30 6540 H 622.485 -7.09592 -3.22644 0
M  V30 6541 N 626.714 -0.118576 -1.57153 0
M  V30 6542 C 627.939 0.550582 -1.99958 0
M  V30 6543 C 628.364 1.59458 -0.997736 0
M  V30 6544 O 627.722 1.81274 0.0306269 0
M  V30 6545 C 627.77 1.15379 -3.41643 0
M  V30 6546 O 626.874 2.26932 -3.44348 0
M  V30 6547 H 626.215 0.137567 -0.649593 0
M  V30 6548 H 628.745 -0.206926 -2.03551 0
M  V30 6549 H 628.755 1.48942 -3.79843 0
M  V30 6550 H 627.43 0.389087 -4.14076 0
M  V30 6551 H 626.007 1.94812 -3.17967 0
M  V30 6552 N 628.193 1.56834 0.155195 0
M  V30 6553 C 629.609 1.51315 0.50755 0
M  V30 6554 C 629.809 0.825614 1.83809 0
M  V30 6555 O 628.865 0.39271 2.49427 0
M  V30 6556 C 630.178 2.96074 0.52542 0
M  V30 6557 C 631.726 3.06968 0.611505 0
M  V30 6558 C 632.201 4.53218 0.660115 0
M  V30 6559 N 633.692 4.5753 0.722564 0
M  V30 6560 C 634.427 5.68056 0.781023 0
M  V30 6561 N 633.923 6.88173 0.799327 0
M  V30 6562 N 635.716 5.56068 0.821278 0
M  V30 6563 H 627.867 1.9993 -0.717063 0
M  V30 6564 H 630.13 0.911507 -0.260496 0
M  V30 6565 H 629.836 3.49599 -0.383875 0
M  V30 6566 H 629.71 3.51587 1.36624 0
M  V30 6567 H 632.097 2.53468 1.51122 0
M  V30 6568 H 632.178 2.54513 -0.256306 0
M  V30 6569 H 631.822 5.07354 -0.23541 0
M  V30 6570 H 631.752 5.03447 1.5443 0
M  V30 6571 H 634.243 3.71054 0.716049 0
M  V30 6572 H 634.556 7.6816 0.845553 0
M  V30 6573 H 632.901 6.90751 0.767337 0
M  V30 6574 H 636.092 4.61142 0.804091 0
M  V30 6575 H 636.265 6.42223 0.863372 0
M  V30 6576 N 629.671 -0.424282 1.51781 0
M  V30 6577 C 630.917 -1.17117 1.66298 0
M  V30 6578 C 631.272 -1.88595 0.380767 0
M  V30 6579 O 630.565 -1.81151 -0.624094 0
M  V30 6580 C 630.759 -2.20418 2.81337 0
M  V30 6581 C 630.588 -1.59081 4.20622 0
M  V30 6582 C 629.358 -1.37007 4.86371 0
M  V30 6583 C 631.556 -1.05992 5.0326 0
M  V30 6584 N 629.538 -0.714049 6.09733 0
M  V30 6585 C 630.909 -0.529933 6.17731 0
M  V30 6586 C 632.964 -0.952927 4.88696 0
M  V30 6587 C 631.667 0.0965457 7.19235 0
M  V30 6588 C 633.693 -0.340325 5.9042 0
M  V30 6589 C 633.055 0.179057 7.04172 0
M  V30 6590 H 629.154 -0.41577 0.662314 0
M  V30 6591 H 631.738 -0.46579 1.89046 0
M  V30 6592 H 629.909 -2.8833 2.60231 0
M  V30 6593 H 631.641 -2.8736 2.84968 0
M  V30 6594 H 628.396 -1.63543 4.44467 0
M  V30 6595 H 628.82 -0.403101 6.75799 0
M  V30 6596 H 633.462 -1.34033 4.00993 0
M  V30 6597 H 631.18 0.496044 8.06576 0
M  V30 6598 H 634.766 -0.259266 5.81222 0
M  V30 6599 H 633.646 0.645626 7.81538 0
M  V30 6600 N 631.149 -1.42148 -0.680565 0
M  V30 6601 C 632.081 -1.41119 -1.80605 0
M  V30 6602 C 633.094 -0.311099 -1.598 0
M  V30 6603 O 634.283 -0.573813 -1.69026 0
M  V30 6604 C 631.383 -1.18204 -3.17618 0
M  V30 6605 C 630.556 -2.40537 -3.65322 0
M  V30 6606 C 629.615 -2.13254 -4.8105 0
M  V30 6607 O 628.641 -2.8641 -4.91892 0
M  V30 6608 N 629.843 -1.13208 -5.69354 0
M  V30 6609 H 632.608 -2.38128 -1.81975 0
M  V30 6610 H 630.169 -1.36953 -0.863446 0
M  V30 6611 H 632.161 -0.97878 -3.92686 0
M  V30 6612 H 630.731 -0.29738 -3.11182 0
M  V30 6613 H 629.951 -2.76468 -2.80996 0
M  V30 6614 H 631.239 -3.22012 -3.93936 0
M  V30 6615 H 630.637 -0.526893 -5.63241 0
M  V30 6616 H 629.194 -0.988699 -6.44258 0
M  V30 6617 N 632.627 0.916307 -1.28225 0
M  V30 6618 C 633.559 2.02303 -1.07732 0
M  V30 6619 C 634.572 1.62773 -0.0298421 0
M  V30 6620 O 635.761 1.76406 -0.272626 0
M  V30 6621 C 632.861 3.33282 -0.614504 0
M  V30 6622 C 632.034 4.01439 -1.73682 0
M  V30 6623 C 631.093 5.10698 -1.26781 0
M  V30 6624 O 630.119 5.34038 -1.96958 0
M  V30 6625 N 631.321 5.80355 -0.129624 0
M  V30 6626 H 634.086 2.20442 -2.03041 0
M  V30 6627 H 631.647 1.08744 -1.19943 0
M  V30 6628 H 633.639 4.03699 -0.284397 0
M  V30 6629 H 632.209 3.11633 0.245664 0
M  V30 6630 H 631.429 3.24604 -2.23665 0
M  V30 6631 H 632.717 4.43721 -2.48976 0
M  V30 6632 H 632.115 5.6386 0.455847 0
M  V30 6633 H 630.672 6.51647 0.141224 0
M  V30 6634 N 634.105 1.10431 1.1244 0
M  V30 6635 C 635.353 0.845045 1.83585 0
M  V30 6636 C 635.674 -0.631168 1.84503 0
M  V30 6637 O 634.944 -1.45825 1.30813 0
M  V30 6638 H 633.524 0.309628 0.679809 0
M  V30 6639 H 636.186 1.39458 1.36153 0
M  V30 6640 H 635.282 1.20786 2.8778 0
M  V30 6641 N 635.583 -1.29855 0.893053 0
M  V30 6642 C 636.531 -2.29867 0.355512 0
M  V30 6643 C 637.525 -1.60502 -0.541801 0
M  V30 6644 O 638.731 -1.74902 -0.425339 0
M  V30 6645 H 635.106 -0.745805 0.0963247 0
M  V30 6646 H 637.077 -2.72655 1.21252 0
M  V30 6647 C 635.826 -3.453 -0.407801 0
M  V30 6648 H 635.149 -3.98864 0.273426 0
M  V30 6649 H 636.589 -4.17334 -0.748887 0
M  V30 6650 C 635.048 -2.96051 -1.60795 0
M  V30 6651 O 635.578 -2.96763 -2.7073 0
M  V30 6652 N 633.784 -2.51963 -1.44786 0
M  V30 6653 H 633.331 -2.51583 -0.553498 0
M  V30 6654 H 633.289 -2.1937 -2.2522 0
M  V30 6655 N 637.061 -0.65484 -1.43351 0
M  V30 6656 C 638.307 -0.169142 -2.02093 0
M  V30 6657 C 638.64 1.21431 -1.51553 0
M  V30 6658 O 637.915 1.81105 -0.709317 0
M  V30 6659 C 638.198 -0.181775 -3.59641 0
M  V30 6660 C 638.051 -1.59926 -4.20409 0
M  V30 6661 C 639.37 0.480945 -4.37464 0
M  V30 6662 H 636.489 -0.0629371 -0.734308 0
M  V30 6663 H 639.131 -0.835833 -1.70628 0
M  V30 6664 H 637.281 0.385918 -3.86578 0
M  V30 6665 H 638.953 -2.21766 -4.04497 0
M  V30 6666 H 637.196 -2.14605 -3.76998 0
M  V30 6667 H 637.867 -1.55994 -5.295 0
M  V30 6668 H 640.343 -0.00208273 -4.161 0
M  V30 6669 H 639.219 0.441384 -5.47122 0
M  V30 6670 H 639.48 1.55533 -4.13838 0
M  V30 6671 N 638.539 1.52521 -0.396863 0
M  V30 6672 C 639.786 2.01672 0.182898 0
M  V30 6673 C 640.114 1.28302 1.46181 0
M  V30 6674 O 639.369 0.374118 1.92091 0
M  V30 6675 C 639.668 3.5403 0.489677 0
M  V30 6676 C 639.334 4.45456 -0.698581 0
M  V30 6677 C 637.996 4.70166 -1.02454 0
M  V30 6678 C 640.348 4.99354 -1.49316 0
M  V30 6679 C 637.676 5.46024 -2.1465 0
M  V30 6680 C 640.028 5.76439 -2.60579 0
M  V30 6681 C 638.692 5.99426 -2.93675 0
M  V30 6682 H 637.962 0.737971 0.066927 0
M  V30 6683 H 640.609 1.83853 -0.535764 0
M  V30 6684 H 638.914 3.69963 1.28976 0
M  V30 6685 H 640.611 3.8956 0.951018 0
M  V30 6686 H 637.201 4.26392 -0.434525 0
M  V30 6687 H 641.385 4.80182 -1.25457 0
M  V30 6688 H 636.641 5.62046 -2.40654 0
M  V30 6689 H 640.815 6.17202 -3.22544 0
M  V30 6690 H 638.442 6.57988 -3.80731 0
M  V30 6691 N 640.017 0.126909 1.57088 0
M  V30 6692 C 641.242 -0.53997 2.00248 0
M  V30 6693 C 641.667 -1.58927 1.00618 0
M  V30 6694 O 641.025 -1.81288 -0.0210131 0
M  V30 6695 C 641.073 -1.13565 3.4225 0
M  V30 6696 O 640.177 -2.25103 3.45547 0
M  V30 6697 H 639.518 -0.13412 0.650314 0
M  V30 6698 H 642.048 0.217718 2.03438 0
M  V30 6699 H 642.058 -1.46925 3.80627 0
M  V30 6700 H 640.733 -0.367122 4.14277 0
M  V30 6701 H 639.31 -1.93123 3.18995 0
M  V30 6702 N 641.495 -1.56914 -0.146875 0
M  V30 6703 C 642.735 -1.85163 -0.86568 0
M  V30 6704 C 643.099 -0.711215 -1.78342 0
M  V30 6705 O 644.3 -0.874754 -2.54168 0
M  V30 6706 C 642.571 -3.18593 -1.61967 0
M  V30 6707 S 644.13 -3.68397 -2.38388 0
M  V30 6708 H 640.948 -0.6494 -0.289483 0
M  V30 6709 H 643.55 -1.95096 -0.125679 0
M  V30 6710 H 642.254 -3.99562 -0.93694 0
M  V30 6711 H 641.785 -3.11666 -2.40058 0
M  V30 6712 H 643.8 -3.37672 -3.63582 0
M  V30 6713 N 642.974 0.416227 -1.52004 0
M  V30 6714 C 644.199 1.19029 -1.69843 0
M  V30 6715 C 644.624 1.83708 -0.404103 0
M  V30 6716 O 643.982 1.69711 0.637787 0
M  V30 6717 C 644.03 2.23439 -2.83032 0
M  V30 6718 O 643.134 3.29419 -2.48106 0
M  V30 6719 H 642.475 0.347785 -0.565634 0
M  V30 6720 H 645.005 0.488871 -1.98674 0
M  V30 6721 H 645.015 2.67884 -3.07737 0
M  V30 6722 H 643.69 1.75745 -3.76944 0
M  V30 6723 H 642.267 2.90303 -2.34048 0
M  V30 6724 N 644.452 1.42507 0.673017 0
M  V30 6725 C 645.698 1.43284 1.43519 0
M  V30 6726 C 646.031 0.049668 1.94136 0
M  V30 6727 O 645.306 -0.926369 1.71022 0
M  V30 6728 C 645.589 2.45874 2.63093 0
M  V30 6729 C 645.442 3.93388 2.18096 0
M  V30 6730 C 646.761 2.45431 3.6531 0
M  V30 6731 H 643.88 0.521752 0.520522 0
M  V30 6732 H 646.522 1.73932 0.764701 0
M  V30 6733 H 644.672 2.19869 3.20296 0
M  V30 6734 H 646.344 4.30379 1.66046 0
M  V30 6735 H 644.587 4.07169 1.49652 0
M  V30 6736 H 645.258 4.60752 3.03993 0
M  V30 6737 H 647.734 2.68561 3.17827 0
M  V30 6738 H 646.61 3.19189 4.46553 0
M  V30 6739 H 646.871 1.48092 4.16559 0
M  V30 6740 N 645.93 -0.909495 1.28709 0
M  V30 6741 C 646.863 -2.01388 1.07323 0
M  V30 6742 C 647.841 -1.62596 -0.0119757 0
M  V30 6743 O 649.025 -1.88003 0.136796 0
M  V30 6744 C 646.152 -3.32755 0.631797 0
M  V30 6745 C 645.198 -3.90532 1.71428 0
M  V30 6746 S 646.031 -4.20853 3.31124 0
M  V30 6747 C 647.187 -5.55276 2.88825 0
M  V30 6748 H 647.42 -2.19219 2.00824 0
M  V30 6749 H 644.953 -1.05489 1.12745 0
M  V30 6750 H 646.911 -4.08702 0.38381 0
M  V30 6751 H 645.572 -3.12818 -0.283451 0
M  V30 6752 H 644.765 -4.85385 1.35712 0
M  V30 6753 H 644.367 -3.21237 1.91528 0
M  V30 6754 H 646.659 -6.35341 2.3526 0
M  V30 6755 H 647.602 -5.95907 3.82492 0
M  V30 6756 H 648.01 -5.16666 2.27412 0
M  V30 6757 N 647.408 -1.11026 -1.11852 0
M  V30 6758 C 648.358 -0.733836 -2.15868 0
M  V30 6759 C 649.342 0.26001 -1.58785 0
M  V30 6760 O 650.534 0.0677901 -1.7687 0
M  V30 6761 C 647.663 -0.173948 -3.42859 0
M  V30 6762 C 646.749 -1.1952 -4.0691 0
M  V30 6763 N 647.14 -2.38797 -4.45881 0
M  V30 6764 C 645.438 -1.03714 -4.33773 0
M  V30 6765 C 646.139 -3.03894 -4.96007 0
M  V30 6766 N 645.115 -2.31389 -4.91894 0
M  V30 6767 H 648.917 -1.64171 -2.43773 0
M  V30 6768 H 646.431 -0.988877 -1.28822 0
M  V30 6769 H 648.428 0.113836 -4.16745 0
M  V30 6770 H 647.088 0.728568 -3.16421 0
M  V30 6771 H 648.099 -2.76281 -4.38051 0
M  V30 6772 H 644.776 -0.190694 -4.17064 0
M  V30 6773 H 646.166 -4.05389 -5.35826 0
M  V30 6774 N 648.886 1.2938 -0.899927 0
M  V30 6775 C 649.796 2.31462 -0.382437 0
M  V30 6776 C 650.812 1.65956 0.522929 0
M  V30 6777 O 651.988 1.97131 0.412454 0
M  V30 6778 C 649.053 3.44595 0.381472 0
M  V30 6779 C 648.114 4.25692 -0.555444 0
M  V30 6780 C 647.347 5.33422 0.172102 0
M  V30 6781 O 647.57 5.53053 1.396 0
M  V30 6782 O 646.504 5.99939 -0.485491 0
M  V30 6783 H 650.33 2.77706 -1.22934 0
M  V30 6784 H 647.915 1.33821 -0.664259 0
M  V30 6785 H 649.797 4.13474 0.813442 0
M  V30 6786 H 648.472 3.00458 1.20443 0
M  V30 6787 H 647.379 3.59453 -1.03653 0
M  V30 6788 H 648.712 4.73471 -1.34483 0
M  V30 6789 N 650.364 0.662433 1.43002 0
M  V30 6790 C 651.327 -0.0142016 2.29196 0
M  V30 6791 C 652.327 -0.741394 1.42688 0
M  V30 6792 O 653.517 -0.581257 1.64216 0
M  V30 6793 C 650.649 -1.03084 3.24941 0
M  V30 6794 H 651.842 0.7443 2.90517 0
M  V30 6795 H 649.395 0.424133 1.50435 0
M  V30 6796 H 650.13 -1.81826 2.68533 0
M  V30 6797 H 649.915 -0.512946 3.8873 0
M  V30 6798 H 651.405 -1.50308 3.89612 0
M  V30 6799 N 651.842 -1.52309 0.404946 0
M  V30 6800 C 652.772 -2.29805 -0.41376 0
M  V30 6801 C 653.753 -1.3384 -1.0498 0
M  V30 6802 O 654.938 -1.62745 -1.05961 0
M  V30 6803 C 652.068 -3.11639 -1.53292 0
M  V30 6804 C 651.022 -4.15616 -1.02211 0
M  V30 6805 C 650.348 -4.8577 -2.23455 0
M  V30 6806 C 651.648 -5.2224 -0.0790725 0
M  V30 6807 H 653.342 -2.98493 0.232878 0
M  V30 6808 H 650.888 -1.43552 0.113441 0
M  V30 6809 H 652.841 -3.64618 -2.11262 0
M  V30 6810 H 651.565 -2.40712 -2.20738 0
M  V30 6811 H 650.224 -3.63641 -0.46484 0
M  V30 6812 H 649.872 -4.11376 -2.89445 0
M  V30 6813 H 649.572 -5.56058 -1.89929 0
M  V30 6814 H 651.096 -5.4156 -2.82038 0
M  V30 6815 H 652.51 -5.70485 -0.567438 0
M  V30 6816 H 650.907 -5.99867 0.167167 0
M  V30 6817 H 651.977 -4.77078 0.867447 0
M  V30 6818 N 653.32 -0.135238 -1.57019 0
M  V30 6819 C 654.27 0.820408 -2.12728 0
M  V30 6820 C 655.254 1.21735 -1.05211 0
M  V30 6821 O 656.446 1.18574 -1.31413 0
M  V30 6822 C 653.575 2.06414 -2.74314 0
M  V30 6823 C 652.661 1.69083 -3.88937 0
M  V30 6824 N 653.052 1.0251 -4.95303 0
M  V30 6825 C 651.35 1.98434 -3.99425 0
M  V30 6826 C 652.051 0.846749 -5.75504 0
M  V30 6827 N 651.027 1.3769 -5.25873 0
M  V30 6828 H 654.829 0.302426 -2.9234 0
M  V30 6829 H 652.343 0.0667009 -1.62263 0
M  V30 6830 H 654.34 2.75863 -3.12579 0
M  V30 6831 H 653 2.58741 -1.96171 0
M  V30 6832 H 654.011 0.687207 -5.1332 0
M  V30 6833 H 650.688 2.52693 -3.32344 0
M  V30 6834 H 652.078 0.322949 -6.71123 0
M  V30 6835 N 654.798 1.5699 0.138552 0
M  V30 6836 C 655.746 1.99858 1.18994 0
M  V30 6837 C 656.74 0.89231 1.43994 0
M  V30 6838 O 657.946 1.0775 1.44187 0
M  V30 6839 H 654.321 0.636325 0.400743 0
M  V30 6840 H 656.292 2.87427 0.801755 0
M  V30 6841 C 655.041 2.40235 2.51361 0
M  V30 6842 H 654.364 3.24917 2.32957 0
M  V30 6843 H 655.804 2.74045 3.23535 0
M  V30 6844 C 654.263 1.25829 3.1252 0
M  V30 6845 O 654.793 0.563604 3.97727 0
M  V30 6846 N 652.999 1.02036 2.72097 0
M  V30 6847 H 652.546 1.58705 2.02905 0
M  V30 6848 H 652.504 0.256796 3.1335 0
M  V30 6849 N 656.276 -0.40816 1.52223 0
M  V30 6850 C 657.226 -1.49648 1.72016 0
M  V30 6851 C 658.21 -1.50311 0.574069 0
M  V30 6852 O 659.402 -1.56271 0.831173 0
M  V30 6853 C 656.531 -2.87566 1.87512 0
M  V30 6854 C 655.617 -2.91547 3.07995 0
M  V30 6855 N 656.008 -2.65225 4.30685 0
M  V30 6856 C 654.306 -3.22715 3.07849 0
M  V30 6857 C 655.007 -2.75799 5.12162 0
M  V30 6858 N 653.983 -3.08719 4.4743 0
M  V30 6859 H 657.785 -1.28093 2.64517 0
M  V30 6860 H 655.299 -0.61588 1.50269 0
M  V30 6861 H 657.296 -3.65899 1.99809 0
M  V30 6862 H 655.956 -3.10118 0.962114 0
M  V30 6863 H 656.967 -2.39601 4.59142 0
M  V30 6864 H 653.644 -3.50856 2.26289 0
M  V30 6865 H 655.034 -2.59155 6.1991 0
M  V30 6866 N 657.755 -1.42862 -0.66545 0
M  V30 6867 C 658.985 -1.47032 -1.45138 0
M  V30 6868 C 659.393 -0.0829977 -1.89018 0
M  V30 6869 O 658.736 0.914551 -1.59316 0
M  V30 6870 C 658.798 -2.34302 -2.72659 0
M  V30 6871 C 658.462 -3.82034 -2.50796 0
M  V30 6872 C 659.459 -4.73453 -2.14799 0
M  V30 6873 C 657.144 -4.26397 -2.655 0
M  V30 6874 C 659.138 -6.07228 -1.93785 0
M  V30 6875 C 656.825 -5.6023 -2.44103 0
M  V30 6876 C 657.823 -6.50462 -2.08299 0
M  V30 6877 O 657.511 -7.8182 -1.87116 0
M  V30 6878 H 657.243 -0.501969 -0.452772 0
M  V30 6879 H 659.797 -1.88137 -0.82423 0
M  V30 6880 H 658.027 -1.88063 -3.37889 0
M  V30 6881 H 659.716 -2.29818 -3.34572 0
M  V30 6882 H 660.482 -4.4046 -2.03026 0
M  V30 6883 H 656.361 -3.56448 -2.92345 0
M  V30 6884 H 659.905 -6.7762 -1.65763 0
M  V30 6885 H 655.802 -5.92793 -2.55475 0
M  V30 6886 H 656.57 -7.93274 -2.01639 0
M  V30 6887 N 659.233 0.902656 -1.29189 0
M  V30 6888 C 660.461 1.68639 -1.19869 0
M  V30 6889 C 660.876 1.87254 0.241121 0
M  V30 6890 O 660.233 1.40745 1.16177 0
M  V30 6891 C 660.284 3.07251 -1.90471 0
M  V30 6892 O 660.005 2.89488 -3.28829 0
M  V30 6893 C 661.506 4.01653 -1.8759 0
M  V30 6894 H 658.726 0.526802 -0.415596 0
M  V30 6895 H 661.27 1.12901 -1.7051 0
M  V30 6896 H 659.425 3.59774 -1.43672 0
M  V30 6897 H 659.839 3.77296 -3.64346 0
M  V30 6898 H 661.313 4.96339 -2.4156 0
M  V30 6899 H 661.79 4.30881 -0.850756 0
M  V30 6900 H 662.396 3.55061 -2.34119 0
M  V30 6901 N 660.711 1.11618 1.11262 0
M  V30 6902 C 661.643 0.734015 2.17129 0
M  V30 6903 C 662.656 -0.235243 1.61091 0
M  V30 6904 O 663.845 -0.0178597 1.78491 0
M  V30 6905 C 660.945 0.0643682 3.38839 0
M  V30 6906 C 660.118 1.06092 4.24339 0
M  V30 6907 C 659.177 0.420482 5.24517 0
M  V30 6908 O 658.203 1.07495 5.58957 0
M  V30 6909 N 659.405 -0.815828 5.74739 0
M  V30 6910 H 662.17 1.64492 2.50524 0
M  V30 6911 H 659.731 1.00664 1.26801 0
M  V30 6912 H 661.723 -0.375851 4.02951 0
M  V30 6913 H 660.293 -0.749147 3.03491 0
M  V30 6914 H 659.513 1.67903 3.56654 0
M  V30 6915 H 660.801 1.73507 4.78302 0
M  V30 6916 H 660.199 -1.36668 5.48943 0
M  V30 6917 H 658.756 -1.199 6.40677 0
M  V30 6918 N 662.189 -1.289 0.906776 0
M  V30 6919 C 663.136 -2.2751 0.388313 0
M  V30 6920 C 664.106 -1.57301 -0.533439 0
M  V30 6921 O 665.291 -1.85243 -0.457148 0
M  V30 6922 C 662.431 -3.43091 -0.37181 0
M  V30 6923 C 661.544 -4.28066 0.581647 0
M  V30 6924 C 660.679 -5.30837 -0.19623 0
M  V30 6925 C 659.718 -6.07472 0.751294 0
M  V30 6926 N 658.855 -7.021 0.00737727 0
M  V30 6927 H 663.695 -2.71237 1.23428 0
M  V30 6928 H 661.232 -1.33397 0.619962 0
M  V30 6929 H 663.19 -4.08888 -0.828641 0
M  V30 6930 H 661.82 -3.00374 -1.18218 0
M  V30 6931 H 660.872 -3.62378 1.157 0
M  V30 6932 H 662.184 -4.81382 1.30665 0
M  V30 6933 H 661.338 -6.02485 -0.71394 0
M  V30 6934 H 660.077 -4.78272 -0.954324 0
M  V30 6935 H 659.082 -5.34682 1.28044 0
M  V30 6936 H 660.307 -6.62126 1.50883 0
M  V30 6937 H 658.253 -6.51894 -0.732854 0
M  V30 6938 H 658.17 -7.53004 0.672334 0
M  V30 6939 H 659.438 -7.77956 -0.490365 0
M  V30 6940 N 663.667 -0.670007 -1.42649 0
M  V30 6941 C 664.892 -0.196955 -2.06463 0
M  V30 6942 C 665.317 1.1352 -1.49983 0
M  V30 6943 O 664.675 1.705 -0.616397 0
M  V30 6944 C 664.723 -0.137381 -3.60338 0
M  V30 6945 O 663.827 0.895523 -4.02559 0
M  V30 6946 H 663.168 -0.102579 -0.656029 0
M  V30 6947 H 665.698 -0.917669 -1.82866 0
M  V30 6948 H 665.708 0.0403625 -4.0798 0
M  V30 6949 H 664.383 -1.10977 -4.0082 0
M  V30 6950 H 662.96 0.689209 -3.66476 0
M  V30 6951 N 665.145 1.52092 -0.413018 0
M  V30 6952 C 666.075 2.30021 0.401567 0
M  V30 6953 C 667.056 1.34395 1.04269 0
M  V30 6954 O 668.241 1.63304 1.05097 0
M  V30 6955 C 665.371 3.12447 1.51638 0
M  V30 6956 C 664.325 4.16153 1.00005 0
M  V30 6957 C 663.651 4.86948 2.20875 0
M  V30 6958 C 664.951 5.22275 0.0513757 0
M  V30 6959 H 666.645 2.98365 -0.248704 0
M  V30 6960 H 664.191 1.4349 -0.121052 0
M  V30 6961 H 666.144 3.65733 2.09326 0
M  V30 6962 H 664.868 2.41879 2.19458 0
M  V30 6963 H 663.527 3.63882 0.445549 0
M  V30 6964 H 663.175 4.12905 2.8726 0
M  V30 6965 H 662.875 5.57057 1.86978 0
M  V30 6966 H 664.399 5.43048 2.79162 0
M  V30 6967 H 665.813 5.70778 0.537176 0
M  V30 6968 H 664.21 5.9977 -0.198977 0
M  V30 6969 H 665.28 4.76611 -0.892736 0
M  V30 6970 N 666.623 0.143563 1.56945 0
M  V30 6971 C 667.848 -0.518701 2.00809 0
M  V30 6972 C 668.273 -1.5785 1.02298 0
M  V30 6973 O 667.631 -1.813 -0.0017839 0
M  V30 6974 C 667.679 -1.09929 3.43436 0
M  V30 6975 O 666.783 -2.21425 3.47915 0
M  V30 6976 H 666.124 -0.127215 0.6517 0
M  V30 6977 H 668.654 0.239283 2.03196 0
M  V30 6978 H 668.664 -1.4288 3.82164 0
M  V30 6979 H 667.339 -0.323162 4.14643 0
M  V30 6980 H 665.916 -1.89728 3.21026 0
M  V30 6981 N 668.101 -1.57061 -0.130224 0
M  V30 6982 C 669.031 -2.02552 -1.16168 0
M  V30 6983 C 670.012 -0.907971 -1.4384 0
M  V30 6984 O 671.197 -1.17693 -1.54473 0
M  V30 6985 C 668.327 -2.42035 -2.49071 0
M  V30 6986 C 667.281 -3.5713 -2.35886 0
M  V30 6987 C 666.607 -3.82478 -3.7365 0
M  V30 6988 C 667.907 -4.89236 -1.8288 0
M  V30 6989 H 669.601 -2.8897 -0.783359 0
M  V30 6990 H 667.147 -1.39021 -0.375376 0
M  V30 6991 H 669.1 -2.72462 -3.21469 0
M  V30 6992 H 667.824 -1.52573 -2.88771 0
M  V30 6993 H 666.483 -3.26895 -1.65938 0
M  V30 6994 H 666.131 -2.9024 -4.10816 0
M  V30 6995 H 665.831 -4.59944 -3.65685 0
M  V30 6996 H 667.355 -4.15347 -4.47571 0
M  V30 6997 H 668.769 -5.18272 -2.45085 0
M  V30 6998 H 667.166 -5.70624 -1.85763 0
M  V30 6999 H 668.236 -4.78494 -0.785571 0
M  V30 7000 N 669.579 0.400081 -1.52437 0
M  V30 7001 C 670.804 1.17221 -1.71096 0
M  V30 7002 C 671.229 1.83269 -0.423565 0
M  V30 7003 O 670.587 1.70378 0.619751 0
M  V30 7004 C 670.635 2.20425 -2.85386 0
M  V30 7005 O 669.739 3.26769 -2.51586 0
M  V30 7006 H 669.08 0.341766 -0.569291 0
M  V30 7007 H 671.61 0.467772 -1.99181 0
M  V30 7008 H 671.62 2.64605 -3.10561 0
M  V30 7009 H 670.295 1.71737 -3.78786 0
M  V30 7010 H 668.872 2.87804 -2.37114 0
M  V30 7011 N 671.057 1.43213 0.657864 0
M  V30 7012 C 672.468 1.39669 1.23893 0
M  V30 7013 C 672.819 0.0984217 1.95953 0
M  V30 7014 O 671.944 -0.8023 2.00978 0
M  V30 7015 C 672.539 2.53004 2.25332 0
M  V30 7016 C 671.098 2.5274 2.78926 0
M  V30 7017 C 670.245 2.30941 1.53497 0
M  V30 7018 H 673.196 1.52181 0.450172 0
M  V30 7019 H 673.217 2.24226 3.07413 0
M  V30 7020 H 672.729 3.4748 1.72856 0
M  V30 7021 H 670.83 1.6213 3.35477 0
M  V30 7022 H 670.943 3.50352 3.26787 0
M  V30 7023 H 669.307 1.7952 1.80678 0
M  V30 7024 H 670.09 3.27496 1.02963 0
M  V30 7025 N 672.536 -0.895792 1.29666 0
M  V30 7026 C 673.784 -1.64339 1.17631 0
M  V30 7027 C 674.105 -1.93099 -0.271643 0
M  V30 7028 O 673.375 -1.55981 -1.18518 0
M  V30 7029 H 671.955 -0.609162 0.432354 0
M  V30 7030 H 674.617 -1.07389 1.62646 0
M  V30 7031 H 673.713 -2.59815 1.72924 0
M  V30 7032 N 674.014 -1.12206 -1.10668 0
M  V30 7033 C 674.961 -0.787716 -2.16942 0
M  V30 7034 C 675.931 0.244442 -1.64291 0
M  V30 7035 O 677.116 0.119558 -1.90425 0
M  V30 7036 C 674.256 -0.24584 -3.44223 0
M  V30 7037 C 673.369 -1.33552 -4.10838 0
M  V30 7038 C 672.504 -0.753337 -5.25831 0
M  V30 7039 C 671.543 -1.82231 -5.84344 0
M  V30 7040 N 670.68 -1.25902 -6.90719 0
M  V30 7041 H 675.52 -1.69809 -2.44885 0
M  V30 7042 H 673.057 -0.847862 -1.20207 0
M  V30 7043 H 675.015 0.0863639 -4.17111 0
M  V30 7044 H 673.645 0.627702 -3.16638 0
M  V30 7045 H 672.697 -1.78454 -3.35944 0
M  V30 7046 H 674.009 -2.14396 -4.50373 0
M  V30 7047 H 673.163 -0.37166 -6.05561 0
M  V30 7048 H 671.902 0.0863297 -4.87624 0
M  V30 7049 H 670.907 -2.2132 -5.03287 0
M  V30 7050 H 672.132 -2.66515 -6.24617 0
M  V30 7051 H 670.078 -0.44114 -6.54515 0
M  V30 7052 H 669.995 -2.00408 -7.28953 0
M  V30 7053 H 671.263 -0.904498 -7.74235 0
M  V30 7054 O 675.531 1.23095 -1.04546 0
M  V30 7055 H 676.222 1.79876 -0.718642 0
M  V30 END ATOM
M  V30 BEGIN BOND
M  V30 END BOND
M  V30 END CTAB
M  END
$$$$
