drugbank_target|Q13153 Serine/threonine-protein kinase PAK 1 (DB12010)
 OpenBabel12092121173D

  0  0  0     0  0            999 V3000
M  V30 BEGIN CTAB
M  V30 COUNTS 8514 8599 0 0 0
M  V30 BEGIN ATOM
M  V30 1 H -0.908 1.98254 -0.117106 0
M  V30 2 N 0 1.576 0 0
M  V30 3 C 0.933 2.03868 1.02534 0
M  V30 4 C 1.911 0.928543 1.3348 0
M  V30 5 O 3.095 1.19667 1.45644 0
M  V30 6 C 0.222 2.43627 2.35294 0
M  V30 7 C -0.732 3.65373 2.2001 0
M  V30 8 S 0.101 5.13292 1.52614 0
M  V30 9 C 1.257 5.56322 2.86805 0
M  V30 10 H 1.49 2.90518 0.631377 0
M  V30 11 H -0.977 1.52953 0.210867 0
M  V30 12 H 0.981 2.67203 3.11629 0
M  V30 13 H -0.358 1.57376 2.7183 0
M  V30 14 H -1.165 3.90944 3.18086 0
M  V30 15 H -1.563 3.418 1.51819 0
M  V30 16 H 0.729 5.58782 3.83104 0
M  V30 17 H 1.672 6.56266 2.65933 0
M  V30 18 H 2.08 4.83886 2.90714 0
M  V30 19 N 1.4781 -0.272755 1.55222 0
M  V30 20 C 2.7031 -1.02683 1.80197 0
M  V30 21 C 3.1281 -1.79142 0.573551 0
M  V30 22 O 2.4861 -1.74917 -0.476849 0
M  V30 23 C 2.5341 -1.9609 3.02624 0
M  V30 24 O 1.6381 -3.04863 2.77727 0
M  V30 25 H 0.9791 -0.293557 0.595584 0
M  V30 26 H 3.5091 -0.30159 2.02365 0
M  V30 27 H 3.5191 -2.38039 3.31363 0
M  V30 28 H 2.1941 -1.39851 3.91682 0
M  V30 29 H 0.7711 -2.67228 2.60084 0
M  V30 30 N 2.9562 -1.48159 -0.537278 0
M  V30 31 C 3.9042 -1.62573 -1.66352 0
M  V30 32 C 4.8982 -0.492366 -1.62087 0
M  V30 33 O 6.1042 -0.670847 -1.67032 0
M  V30 34 H 2.4792 -0.511992 -0.550789 0
M  V30 35 H 4.4502 -2.57176 -1.51337 0
M  V30 36 C 3.1992 -1.67583 -3.04649 0
M  V30 37 H 2.5222 -2.54151 -3.08622 0
M  V30 38 H 3.9622 -1.81713 -3.83088 0
M  V30 39 C 2.4212 -0.413039 -3.34358 0
M  V30 40 O 2.9512 0.477259 -3.98855 0
M  V30 41 N 1.1572 -0.286961 -2.8918 0
M  V30 42 H 0.7042 -1.01241 -2.36871 0
M  V30 43 H 0.6622 0.556963 -3.09427 0
M  V30 44 N 4.4343 0.785586 -1.36625 0
M  V30 45 C 5.3823 1.91978 -1.31329 0
M  V30 46 C 6.3763 1.68162 -0.204416 0
M  V30 47 O 7.5823 1.76122 -0.371645 0
M  V30 48 H 3.9573 0.631087 -0.408942 0
M  V30 49 H 5.9283 1.93562 -2.27104 0
M  V30 50 C 4.6773 3.29055 -1.12329 0
M  V30 51 H 4.0003 3.4795 -1.96903 0
M  V30 52 H 5.4403 4.08756 -1.12671 0
M  V30 53 C 3.8993 3.36461 0.171861 0
M  V30 54 O 4.4293 3.84576 1.16035 0
M  V30 55 N 2.6353 2.89782 0.217846 0
M  V30 56 H 2.1823 2.50819 -0.587183 0
M  V30 57 H 2.1403 2.95119 1.08408 0
M  V30 58 N 5.9124 1.20967 1.01018 0
M  V30 59 C 7.1604 1.02172 1.74371 0
M  V30 60 C 7.4814 -0.446414 1.89821 0
M  V30 61 O 6.7514 -1.32234 1.44537 0
M  V30 62 H 5.3314 0.375066 0.646014 0
M  V30 63 H 7.9934 1.52187 1.21758 0
M  V30 64 H 7.0894 1.48538 2.74487 0
M  V30 65 N 7.3905 -1.2043 1.01659 0
M  V30 66 C 8.3205 -2.25466 0.607226 0
M  V30 67 C 9.3015 -1.65853 -0.377716 0
M  V30 68 O 10.4865 -1.92409 -0.263149 0
M  V30 69 C 7.6165 -3.47256 -0.0552949 0
M  V30 70 C 6.5705 -4.19462 0.850632 0
M  V30 71 C 5.8965 -5.34673 0.0538859 0
M  V30 72 C 7.1965 -4.75603 2.15868 0
M  V30 73 H 8.8905 -2.59962 1.48526 0
M  V30 74 H 6.4365 -1.2496 0.715605 0
M  V30 75 H 8.3895 -4.19917 -0.353233 0
M  V30 76 H 7.1135 -3.11924 -0.968045 0
M  V30 77 H 5.7725 -3.48667 1.13257 0
M  V30 78 H 5.4205 -4.95585 -0.860514 0
M  V30 79 H 5.1205 -5.83913 0.657192 0
M  V30 80 H 6.6445 -6.10138 -0.237598 0
M  V30 81 H 8.0585 -5.40083 1.92311 0
M  V30 82 H 6.4555 -5.3528 2.71284 0
M  V30 83 H 7.5255 -3.94346 2.82169 0
M  V30 84 N 8.8686 -0.792821 -1.36206 0
M  V30 85 C 10.1456 -0.290627 -1.93429 0
M  V30 86 C 10.5256 1.21773 -1.72437 0
M  V30 87 O 9.8736 2.0108 -1.08531 0
M  V30 88 C 10.0836 -0.686973 -3.42172 0
M  V30 89 C 11.4316 -0.668643 -4.19302 0
M  V30 90 O 12.4556 -0.627658 -3.50626 0
M  V30 91 O 11.3146 -0.714597 -5.41808 0
M  V30 92 H 8.4086 -0.0727927 -0.82379 0
M  V30 93 H 10.9546 -0.875593 -1.45367 0
M  V30 94 H 9.7266 -1.72711 -3.51122 0
M  V30 95 H 9.3496 -0.0760733 -3.97527 0
M  V30 96 N 10.3467 1.47872 -0.545128 0
M  V30 97 C 11.5957 2.01695 -0.0145033 0
M  V30 98 C 11.9087 1.42609 1.33873 0
M  V30 99 O 13.1147 1.88021 1.95858 0
M  V30 100 C 11.5707 3.59892 0.0245068 0
M  V30 101 C 11.1787 4.27966 -1.32475 0
M  V30 102 C 12.9227 4.21507 0.50316 0
M  V30 103 C 10.8297 5.78136 -1.2455 0
M  V30 104 H 9.7597 0.753998 -0.00165172 0
M  V30 105 H 12.4107 1.69985 -0.691175 0
M  V30 106 H 10.7927 3.88509 0.766575 0
M  V30 107 H 11.9667 4.11003 -2.08357 0
M  V30 108 H 10.2817 3.78286 -1.74036 0
M  V30 109 H 12.8787 5.31538 0.580656 0
M  V30 110 H 13.2217 3.87855 1.51243 0
M  V30 111 H 13.7547 3.97376 -0.183681 0
M  V30 112 H 10.4937 6.16388 -2.23039 0
M  V30 113 H 10.0137 5.97469 -0.528282 0
M  V30 114 H 11.6927 6.40099 -0.942488 0
M  V30 115 N 11.8248 0.280983 1.55075 0
M  V30 116 C 12.7568 -0.637268 2.20163 0
M  V30 117 C 13.7698 -1.11298 1.18813 0
M  V30 118 O 14.9588 -1.03388 1.4551 0
M  V30 119 C 12.0588 -1.88199 2.81841 0
M  V30 120 C 11.2318 -1.55211 4.08936 0
M  V30 121 C 10.2908 -2.64991 4.54606 0
M  V30 122 O 9.3168 -2.30929 5.2025 0
M  V30 123 N 10.5188 -3.95161 4.25238 0
M  V30 124 H 13.2838 -0.0801694 2.99593 0
M  V30 125 H 10.8448 0.102329 1.61576 0
M  V30 126 H 12.8368 -2.60948 3.09335 0
M  V30 127 H 11.4068 -2.34799 2.06369 0
M  V30 128 H 10.6268 -0.658185 3.88666 0
M  V30 129 H 11.9148 -1.30681 4.91732 0
M  V30 130 H 11.3128 -4.25653 3.72607 0
M  V30 131 H 9.8698 -4.6427 4.5749 0
M  V30 132 N 13.3029 -1.57598 0.00835791 0
M  V30 133 C 14.5799 -1.82172 -0.712235 0
M  V30 134 C 14.9599 -0.887873 -1.9152 0
M  V30 135 O 14.3079 0.06146 -2.28417 0
M  V30 136 C 14.5179 -3.30875 -1.11008 0
M  V30 137 C 15.8659 -3.96826 -1.51044 0
M  V30 138 O 16.8899 -3.35248 -1.20364 0
M  V30 139 O 15.7489 -5.05318 -2.08125 0
M  V30 140 H 12.8429 -0.750435 -0.347529 0
M  V30 141 H 15.3889 -1.69665 0.0344523 0
M  V30 142 H 14.1609 -3.90481 -0.252982 0
M  V30 143 H 13.7839 -3.48412 -1.9156 0
M  V30 144 N 14.781 0.264519 -1.55364 0
M  V30 145 C 15.728 1.32717 -1.88825 0
M  V30 146 C 16.698 1.48675 -0.740605 0
M  V30 147 O 17.883 1.62945 -0.992657 0
M  V30 148 C 15.023 2.68089 -2.17307 0
M  V30 149 C 14.136 2.60284 -3.44785 0
M  V30 150 C 13.271 3.87892 -3.62924 0
M  V30 151 C 12.31 3.74631 -4.84064 0
M  V30 152 N 11.447 4.94092 -4.98816 0
M  V30 153 H 16.287 1.03481 -2.79456 0
M  V30 154 H 13.824 0.499757 -1.3835 0
M  V30 155 H 15.782 3.46864 -2.31821 0
M  V30 156 H 14.412 2.95509 -1.299 0
M  V30 157 H 13.464 1.73173 -3.38697 0
M  V30 158 H 14.776 2.46388 -4.33698 0
M  V30 159 H 13.93 4.75109 -3.77302 0
M  V30 160 H 12.669 4.04664 -2.7221 0
M  V30 161 H 11.674 2.85797 -4.69681 0
M  V30 162 H 12.899 3.5937 -5.76221 0
M  V30 163 H 10.845 5.11259 -4.11036 0
M  V30 164 H 10.762 4.8276 -5.81789 0
M  V30 165 H 12.03 5.82857 -5.17588 0
M  V30 166 N 16.2591 1.48442 0.529413 0
M  V30 167 C 17.6701 1.5002 1.11134 0
M  V30 168 C 18.0211 0.27031 1.94329 0
M  V30 169 O 17.1461 -0.622507 2.07253 0
M  V30 170 C 17.7411 2.71834 2.02217 0
M  V30 171 C 16.3001 2.76283 2.55627 0
M  V30 172 C 15.4471 2.43542 1.326 0
M  V30 173 H 18.3981 1.5555 0.314641 0
M  V30 174 H 18.4191 2.50384 2.8651 0
M  V30 175 H 17.9311 3.61331 1.41639 0
M  V30 176 H 16.0321 1.90995 3.19924 0
M  V30 177 H 16.1451 3.77725 2.94721 0
M  V30 178 H 14.5091 1.94709 1.64196 0
M  V30 179 H 15.2921 3.3528 0.737734 0
M  V30 180 N 17.7372 -0.778329 1.37039 0
M  V30 181 C 19.1482 -1.35421 1.28523 0
M  V30 182 C 19.4992 -1.96075 -0.0700901 0
M  V30 183 O 18.6242 -1.93352 -0.971801 0
M  V30 184 C 19.2192 -2.46211 2.32735 0
M  V30 185 C 17.7782 -2.99585 2.27873 0
M  V30 186 C 16.9252 -1.72748 2.16918 0
M  V30 187 H 19.8762 -0.5791 1.47757 0
M  V30 188 H 19.8972 -3.2552 1.9702 0
M  V30 189 H 19.4092 -2.02036 3.31365 0
M  V30 190 H 17.5102 -3.48152 1.32745 0
M  V30 191 H 17.6232 -3.55646 3.21018 0
M  V30 192 H 15.9872 -1.95416 1.63354 0
M  V30 193 H 16.7702 -1.30686 3.17452 0
M  V30 194 N 19.2153 -1.21501 -1.00376 0
M  V30 195 C 20.1783 -0.976927 -2.07337 0
M  V30 196 C 21.1783 0.0525322 -1.60714 0
M  V30 197 O 22.3683 -0.184869 -1.73216 0
M  V30 198 C 19.5003 -0.473423 -3.37597 0
M  V30 199 H 20.6933 -1.92587 -2.29892 0
M  V30 200 H 18.2463 -1.03217 -1.17371 0
M  V30 201 H 18.9813 0.480379 -3.20722 0
M  V30 202 H 18.7663 -1.216 -3.72768 0
M  V30 203 H 20.2563 -0.32675 -4.1632 0
M  V30 204 N 20.6934 1.19889 -1.02296 0
M  V30 205 C 22.1044 1.71124 -0.746568 0
M  V30 206 C 22.4554 1.81939 0.734335 0
M  V30 207 O 21.5804 1.48639 1.57275 0
M  V30 208 C 22.1754 3.10804 -1.34857 0
M  V30 209 C 20.7344 3.59323 -1.1209 0
M  V30 210 C 19.8814 2.3635 -1.45031 0
M  V30 211 H 22.8324 1.04813 -1.19163 0
M  V30 212 H 22.8534 3.73186 -0.742437 0
M  V30 213 H 22.3654 3.029 -2.42638 0
M  V30 214 H 20.4664 3.7255 -0.0610337 0
M  V30 215 H 20.5794 4.4378 -1.80544 0
M  V30 216 H 18.9434 2.39399 -0.869487 0
M  V30 217 H 19.7264 2.31081 -2.53883 0
M  V30 218 N 22.1715 0.800033 1.35784 0
M  V30 219 C 23.5825 0.439142 1.81462 0
M  V30 220 C 23.9335 -1.03813 1.66485 0
M  V30 221 O 23.0585 -1.80626 1.19177 0
M  V30 222 C 23.6535 0.790314 3.29453 0
M  V30 223 C 22.2125 0.482111 3.733 0
M  V30 224 C 21.3595 1.01938 2.57883 0
M  V30 225 H 24.3105 0.992254 1.23855 0
M  V30 226 H 24.3315 0.0853677 3.80404 0
M  V30 227 H 23.8435 1.86554 3.40322 0
M  V30 228 H 21.9445 -0.584652 3.67984 0
M  V30 229 H 22.0575 1.01015 4.6833 0
M  V30 230 H 20.4215 0.442043 2.50835 0
M  V30 231 H 21.2045 2.10059 2.71533 0
M  V30 232 N 23.6496 -1.47581 0.552962 0
M  V30 233 C 24.5826 -2.26883 -0.244857 0
M  V30 234 C 25.5606 -1.33784 -0.924147 0
M  V30 235 O 26.7446 -1.6316 -0.943981 0
M  V30 236 C 23.8716 -3.10695 -1.34856 0
M  V30 237 C 22.9176 -4.19339 -0.778268 0
M  V30 238 S 23.7506 -5.34207 0.37184 0
M  V30 239 C 24.9066 -6.21584 -0.733779 0
M  V30 240 H 25.1396 -2.94202 0.428087 0
M  V30 241 H 22.6726 -1.50628 0.339197 0
M  V30 242 H 24.6306 -3.59555 -1.98066 0
M  V30 243 H 23.2916 -2.42746 -1.99332 0
M  V30 244 H 22.4846 -4.77695 -1.60696 0
M  V30 245 H 22.0866 -3.73338 -0.222422 0
M  V30 246 H 24.3786 -6.57676 -1.62692 0
M  V30 247 H 25.3216 -7.07851 -0.187668 0
M  V30 248 H 25.7296 -5.55125 -1.02454 0
M  V30 249 N 25.1277 -0.289203 -1.54924 0
M  V30 250 C 26.5437 0.0645403 -1.59469 0
M  V30 251 C 26.7437 1.53419 -1.30632 0
M  V30 252 O 25.7997 2.2852 -1.074 0
M  V30 253 C 27.1127 -0.32278 -2.98963 0
M  V30 254 C 28.6607 -0.270564 -3.11828 0
M  V30 255 C 29.1357 -0.632532 -4.53611 0
M  V30 256 N 30.6267 -0.584617 -4.59496 0
M  V30 257 C 31.3617 -0.837314 -5.67254 0
M  V30 258 N 30.8577 -1.15536 -6.83098 0
M  V30 259 N 32.6507 -0.765166 -5.56868 0
M  V30 260 H 24.8017 -1.24714 -1.71931 0
M  V30 261 H 27.0647 -0.504809 -0.802416 0
M  V30 262 H 26.7707 -1.34541 -3.24948 0
M  V30 263 H 26.6447 0.32944 -3.75759 0
M  V30 264 H 29.0317 0.742805 -2.85598 0
M  V30 265 H 29.1127 -0.957242 -2.37214 0
M  V30 266 H 28.7567 -1.64365 -4.80569 0
M  V30 267 H 28.6867 0.07609 -5.26545 0
M  V30 268 H 31.1777 -0.349248 -3.76283 0
M  V30 269 H 31.4907 -1.33447 -7.61191 0
M  V30 270 H 29.8357 -1.19328 -6.84679 0
M  V30 271 H 33.0267 -0.516432 -4.65243 0
M  V30 272 H 33.1997 -0.965477 -6.40767 0
M  V30 273 N 26.6058 1.57591 -0.0167156 0
M  V30 274 C 27.5538 2.10604 0.987353 0
M  V30 275 C 28.5478 1.02977 1.34507 0
M  V30 276 O 29.7538 1.21425 1.32875 0
M  V30 277 H 26.1288 0.672695 0.336134 0
M  V30 278 H 28.0998 2.93925 0.514817 0
M  V30 279 C 26.8488 2.6382 2.26483 0
M  V30 280 H 26.1718 3.46278 1.99829 0
M  V30 281 H 27.6118 3.04573 2.94977 0
M  V30 282 C 26.0708 1.55992 2.9861 0
M  V30 283 O 26.6008 0.952521 3.90243 0
M  V30 284 N 24.8068 1.28335 2.60727 0
M  V30 285 H 24.3538 1.77914 1.86291 0
M  V30 286 H 24.3118 0.564115 3.09298 0
M  V30 287 N 28.0839 -0.256276 1.55502 0
M  V30 288 C 29.3119 -1.00342 1.8094 0
M  V30 289 C 29.7269 -1.79307 0.59114 0
M  V30 290 O 29.0839 -1.77114 -0.440081 0
M  V30 291 C 29.1349 -1.94875 3.04476 0
M  V30 292 O 28.8559 -1.19107 4.21598 0
M  V30 293 C 30.3569 -2.81266 3.42644 0
M  V30 294 H 27.5769 -0.295685 0.602338 0
M  V30 295 H 30.1209 -0.281998 2.02546 0
M  V30 296 H 28.2759 -2.62457 2.84947 0
M  V30 297 H 28.6899 -1.82969 4.91551 0
M  V30 298 H 30.1639 -3.43362 4.32211 0
M  V30 299 H 30.6409 -3.51897 2.62802 0
M  V30 300 H 31.2469 -2.1915 3.64491 0
M  V30 301 N 29.562 -1.4872 -0.521534 0
M  V30 302 C 30.787 -1.61101 -1.30618 0
M  V30 303 C 31.212 -0.274611 -1.86085 0
M  V30 304 O 30.57 0.754937 -1.64834 0
M  V30 305 C 30.618 -2.66709 -2.4269 0
M  V30 306 O 29.722 -2.24456 -3.45967 0
M  V30 307 H 29.063 -0.539921 -0.386499 0
M  V30 308 H 31.593 -1.94767 -0.626645 0
M  V30 309 H 31.603 -2.88245 -2.88754 0
M  V30 310 H 30.278 -3.63727 -2.01682 0
M  V30 311 H 28.855 -2.13168 -3.05964 0
M  V30 312 N 31.0401 0.771051 -1.3745 0
M  V30 313 C 32.2681 1.56015 -1.35893 0
M  V30 314 C 32.6831 1.88718 0.0555523 0
M  V30 315 O 32.0401 1.51502 1.01752 0
M  V30 316 C 32.0911 2.87001 -2.19801 0
M  V30 317 O 31.8121 2.557 -3.55738 0
M  V30 318 C 33.3131 3.81228 -2.26231 0
M  V30 319 H 30.5331 0.483317 -0.465453 0
M  V30 320 H 33.0771 0.955611 -1.80799 0
M  V30 321 H 31.2321 3.43877 -1.78402 0
M  V30 322 H 31.6461 3.39584 -3.99729 0
M  V30 323 H 33.1201 4.70139 -2.89263 0
M  V30 324 H 33.5971 4.20409 -1.27093 0
M  V30 325 H 34.2031 3.30281 -2.67945 0
M  V30 326 N 32.5182 1.22032 0.997298 0
M  V30 327 C 33.4512 0.929735 2.08401 0
M  V30 328 C 34.4292 -0.125681 1.62114 0
M  V30 329 O 35.6132 0.00495409 1.88499 0
M  V30 330 C 32.7402 0.397488 3.3636 0
M  V30 331 C 31.7862 1.4369 4.01566 0
M  V30 332 S 32.6192 3.00874 4.42984 0
M  V30 333 C 33.7752 2.49276 5.74119 0
M  V30 334 H 34.0082 1.84998 2.32729 0
M  V30 335 H 31.5412 1.0509 1.13117 0
M  V30 336 H 33.4992 0.0969846 4.10385 0
M  V30 337 H 32.1602 -0.501571 3.10069 0
M  V30 338 H 31.3532 1.01427 4.93689 0
M  V30 339 H 30.9552 1.68588 3.33847 0
M  V30 340 H 33.2472 1.90242 6.50242 0
M  V30 341 H 34.1902 3.39872 6.21203 0
M  V30 342 H 34.5982 1.90714 5.31308 0
M  V30 343 N 33.9963 -1.19345 1.0293 0
M  V30 344 C 35.2453 -1.88363 0.721256 0
M  V30 345 C 35.5583 -1.80514 -0.753254 0
M  V30 346 O 36.7643 -2.44788 -1.17436 0
M  V30 347 C 35.2203 -3.37872 1.23978 0
M  V30 348 C 34.8283 -3.54278 2.74211 0
M  V30 349 C 36.5723 -4.12365 1.00775 0
M  V30 350 C 34.4793 -4.97682 3.19479 0
M  V30 351 H 33.4093 -0.705484 0.266098 0
M  V30 352 H 36.0603 -1.34928 1.24365 0
M  V30 353 H 34.4423 -3.90707 0.6453 0
M  V30 354 H 35.6163 -3.11769 3.39318 0
M  V30 355 H 33.9313 -2.93174 2.95699 0
M  V30 356 H 36.5283 -5.18119 1.32123 0
M  V30 357 H 36.8713 -4.16263 -0.0554308 0
M  V30 358 H 37.4043 -3.65668 1.56625 0
M  V30 359 H 34.1433 -4.98945 4.25128 0
M  V30 360 H 33.6633 -5.4095 2.591 0
M  V30 361 H 35.3423 -5.66337 3.12845 0
M  V30 362 N 35.4744 -0.807222 -1.35358 0
M  V30 363 C 36.7224 -0.387122 -1.98358 0
M  V30 364 C 37.0434 1.04942 -1.64354 0
M  V30 365 O 36.3134 1.72615 -0.926339 0
M  V30 366 H 34.8934 -0.140154 -0.733734 0
M  V30 367 H 37.5554 -1.0332 -1.6526 0
M  V30 368 H 36.6514 -0.493352 -3.08176 0
M  V30 369 N 36.9525 1.47285 -0.560781 0
M  V30 370 C 37.9155 2.28535 0.174488 0
M  V30 371 C 38.9155 1.37153 0.839388 0
M  V30 372 O 40.1055 1.59748 0.694702 0
M  V30 373 C 37.2375 3.16934 1.25561 0
M  V30 374 H 38.4305 2.95012 -0.539262 0
M  V30 375 H 35.9835 1.53034 -0.317865 0
M  V30 376 H 36.7185 2.55157 2.00164 0
M  V30 377 H 36.5035 3.8419 0.783604 0
M  V30 378 H 37.9935 3.78143 1.77193 0
M  V30 379 N 38.4306 0.297415 1.54768 0
M  V30 380 C 39.6786 -0.312295 1.99673 0
M  V30 381 C 39.9996 -1.54686 1.18732 0
M  V30 382 O 39.2696 -1.93854 0.282382 0
M  V30 383 H 37.8496 -0.118381 0.73756 0
M  V30 384 H 40.5116 0.407915 1.90583 0
M  V30 385 H 39.6076 -0.586813 3.06534 0
M  V30 386 N 39.9087 -1.5758 0.0250728 0
M  V30 387 C 41.1337 -1.96337 -0.668317 0
M  V30 388 C 41.5587 -0.901314 -1.651 0
M  V30 389 O 40.9167 0.138187 -1.80773 0
M  V30 390 C 40.9647 -3.34191 -1.35457 0
M  V30 391 O 40.0687 -3.30269 -2.46974 0
M  V30 392 H 39.4097 -0.640281 -0.175887 0
M  V30 393 H 41.9397 -2.0442 0.0857224 0
M  V30 394 H 41.9497 -3.70331 -1.71228 0
M  V30 395 H 40.6247 -4.11036 -0.634218 0
M  V30 396 H 39.2017 -3.05841 -2.13344 0
M  V30 397 N 41.3868 0.248026 -1.55636 0
M  V30 398 C 42.3338 1.30707 -1.90222 0
M  V30 399 C 43.3038 1.47881 -0.756332 0
M  V30 400 O 44.4888 1.61883 -1.00988 0
M  V30 401 C 41.6288 2.65769 -2.20138 0
M  V30 402 C 40.7418 2.56612 -3.47526 0
M  V30 403 C 39.8768 3.8402 -3.67017 0
M  V30 404 C 38.9158 3.69476 -4.8801 0
M  V30 405 N 38.0528 4.88774 -5.04029 0
M  V30 406 H 42.8928 1.00512 -2.80538 0
M  V30 407 H 40.4298 0.485055 -1.38873 0
M  V30 408 H 42.3878 3.44386 -2.35487 0
M  V30 409 H 41.0178 2.94115 -1.33027 0
M  V30 410 H 40.0698 1.69571 -3.40514 0
M  V30 411 H 41.3818 2.41774 -4.36287 0
M  V30 412 H 40.5358 4.7108 -3.8232 0
M  V30 413 H 39.2748 4.01754 -2.76487 0
M  V30 414 H 38.2798 2.80799 -4.72686 0
M  V30 415 H 39.5048 3.53238 -5.8 0
M  V30 416 H 37.4508 5.0687 -4.16435 0
M  V30 417 H 37.3678 4.76562 -5.86877 0
M  V30 418 H 38.6358 5.77335 -5.23741 0
M  V30 419 N 42.8649 1.48995 0.513639 0
M  V30 420 C 44.1419 1.48338 1.27495 0
M  V30 421 C 44.5219 0.204065 2.10111 0
M  V30 422 O 43.8699 -0.813881 2.13514 0
M  V30 423 C 44.0799 2.75498 2.14247 0
M  V30 424 C 45.4279 3.24484 2.73852 0
M  V30 425 O 46.4519 2.76528 2.24523 0
M  V30 426 O 45.3109 4.07974 3.6362 0
M  V30 427 H 42.4049 0.593149 0.576284 0
M  V30 428 H 44.9509 1.61246 0.528948 0
M  V30 429 H 43.7229 3.60109 1.53092 0
M  V30 430 H 43.3459 2.6539 2.96064 0
M  V30 431 N 44.343 -0.763751 1.37857 0
M  V30 432 C 45.306 -1.85889 1.34081 0
M  V30 433 C 46.306 -1.58949 0.243277 0
M  V30 434 O 47.496 -1.66882 0.499589 0
M  V30 435 C 44.628 -3.23176 1.08489 0
M  V30 436 H 45.821 -1.90648 2.31502 0
M  V30 437 H 43.374 -0.964367 1.23003 0
M  V30 438 H 44.109 -3.24091 0.116318 0
M  V30 439 H 43.894 -3.44124 1.8794 0
M  V30 440 H 45.384 -4.03254 1.08517 0
M  V30 441 N 45.8211 -1.22559 -0.990812 0
M  V30 442 C 47.0691 -1.04933 -1.72724 0
M  V30 443 C 47.3901 0.416158 -1.90508 0
M  V30 444 O 46.6601 1.29918 -1.46622 0
M  V30 445 H 45.2401 -0.385296 -0.639965 0
M  V30 446 H 47.9021 -1.54105 -1.19322 0
M  V30 447 H 46.9981 -1.52886 -2.72089 0
M  V30 448 N 47.2992 1.18797 -1.03562 0
M  V30 449 C 48.5272 1.92599 -0.755869 0
M  V30 450 C 48.9422 1.75886 0.686271 0
M  V30 451 O 48.2992 1.08517 1.46732 0
M  V30 452 C 48.3502 3.44159 -1.10619 0
M  V30 453 O 48.0712 3.60341 -2.4917 0
M  V30 454 C 49.5722 4.3507 -0.850214 0
M  V30 455 H 46.7922 0.611587 -0.276048 0
M  V30 456 H 49.3362 1.50742 -1.38192 0
M  V30 457 H 47.4912 3.83823 -0.525194 0
M  V30 458 H 47.9052 4.54128 -2.62427 0
M  V30 459 H 49.3792 5.39989 -1.14523 0
M  V30 460 H 49.8562 4.38673 0.215176 0
M  V30 461 H 50.4622 4.01097 -1.41426 0
M  V30 462 N 48.7773 0.814389 1.34928 0
M  V30 463 C 49.7073 0.244827 2.32213 0
M  V30 464 C 50.6883 -0.634024 1.57842 0
M  V30 465 O 51.8733 -0.562676 1.8587 0
M  V30 466 C 49.0033 -0.601106 3.42058 0
M  V30 467 C 47.9573 0.179896 4.27622 0
M  V30 468 C 47.2833 -0.788237 5.28858 0
M  V30 469 C 48.5833 1.38329 5.03649 0
M  V30 470 H 50.2773 1.05763 2.80097 0
M  V30 471 H 47.8233 0.510029 1.34665 0
M  V30 472 H 49.7763 -1.00968 4.09125 0
M  V30 473 H 48.5003 -1.44688 2.92802 0
M  V30 474 H 47.1593 0.569739 3.62146 0
M  V30 475 H 46.8073 -1.62973 4.75866 0
M  V30 476 H 46.5073 -0.269942 5.8698 0
M  V30 477 H 48.0313 -1.19485 5.98795 0
M  V30 478 H 49.4453 1.04918 5.63618 0
M  V30 479 H 47.8423 1.83662 5.71304 0
M  V30 480 H 48.9123 2.16592 4.33839 0
M  V30 481 N 50.2554 -1.46986 0.568584 0
M  V30 482 C 51.2034 -2.31858 -0.185649 0
M  V30 483 C 52.1974 -1.43624 -0.898249 0
M  V30 484 O 53.4034 -1.60327 -0.818242 0
M  V30 485 H 49.7784 -0.747866 -0.0787399 0
M  V30 486 H 51.7494 -2.93303 0.549191 0
M  V30 487 C 50.4984 -3.26513 -1.19519 0
M  V30 488 H 49.8214 -3.94377 -0.656285 0
M  V30 489 H 51.2614 -3.88707 -1.6936 0
M  V30 490 C 49.7204 -2.50847 -2.24894 0
M  V30 491 O 50.2504 -2.26119 -3.32014 0
M  V30 492 N 48.4564 -2.11656 -1.99124 0
M  V30 493 H 48.0034 -2.31966 -1.12024 0
M  V30 494 H 47.9614 -1.61347 -2.69842 0
M  V30 495 N 51.7335 -0.305618 -1.54608 0
M  V30 496 C 52.6835 0.583595 -2.20405 0
M  V30 497 C 53.6675 1.09539 -1.17856 0
M  V30 498 O 54.8595 1.0354 -1.43557 0
M  V30 499 C 51.9885 1.75277 -2.95183 0
M  V30 500 C 51.0745 1.25672 -4.05052 0
M  V30 501 N 51.4655 0.478998 -5.03527 0
M  V30 502 C 49.7635 1.53704 -4.18678 0
M  V30 503 C 50.4645 0.214269 -5.81305 0
M  V30 504 N 49.4405 0.795374 -5.3775 0
M  V30 505 H 53.2425 -0.0180946 -2.93894 0
M  V30 506 H 50.7565 -0.110601 -1.62023 0
M  V30 507 H 52.7535 2.4014 -3.40791 0
M  V30 508 H 51.4135 2.35812 -2.23211 0
M  V30 509 H 52.4245 0.123473 -5.17753 0
M  V30 510 H 49.1015 2.14954 -3.57912 0
M  V30 511 H 50.4915 -0.410656 -6.70644 0
M  V30 512 N 53.2116 1.57565 -0.0334293 0
M  V30 513 C 54.4596 1.91598 0.642999 0
M  V30 514 C 54.7806 0.910847 1.7242 0
M  V30 515 O 54.0506 -0.0469931 1.95844 0
M  V30 516 H 52.6306 0.707228 0.240496 0
M  V30 517 H 55.2926 1.94726 -0.0822488 0
M  V30 518 H 54.3886 2.92336 1.09298 0
M  V30 519 N 54.6897 -0.239769 1.55765 0
M  V30 520 C 55.9147 -0.988373 1.82335 0
M  V30 521 C 56.3397 -1.77886 0.611421 0
M  V30 522 O 55.6977 -1.75889 -0.439639 0
M  V30 523 C 55.7457 -1.89627 3.06715 0
M  V30 524 O 54.8497 -2.98904 2.84131 0
M  V30 525 H 54.1907 -0.280858 0.601677 0
M  V30 526 H 56.7207 -0.258597 2.02959 0
M  V30 527 H 56.7307 -2.30957 3.36338 0
M  V30 528 H 55.4057 -1.31511 3.9456 0
M  V30 529 H 53.9827 -2.61651 2.65694 0
M  V30 530 N 56.1678 -1.49265 -0.50573 0
M  V30 531 C 57.1148 -1.65585 -1.6078 0
M  V30 532 C 58.0848 -0.497396 -1.58478 0
M  V30 533 O 59.2698 -0.72385 -1.76536 0
M  V30 534 C 56.4098 -1.72408 -2.98948 0
M  V30 535 C 55.5228 -2.99525 -3.11301 0
M  V30 536 C 54.6578 -2.97356 -4.40174 0
M  V30 537 C 53.6968 -4.19074 -4.46143 0
M  V30 538 N 52.8338 -4.14841 -5.66437 0
M  V30 539 H 57.6738 -2.59688 -1.46172 0
M  V30 540 H 55.2108 -1.28761 -0.711261 0
M  V30 541 H 57.1688 -1.74344 -3.79025 0
M  V30 542 H 55.7988 -0.817753 -3.1227 0
M  V30 543 H 54.8508 -3.07222 -2.24318 0
M  V30 544 H 56.1628 -3.89518 -3.11572 0
M  V30 545 H 55.3168 -2.97829 -5.28567 0
M  V30 546 H 54.0558 -2.05133 -4.42461 0
M  V30 547 H 53.0608 -4.1885 -3.56153 0
M  V30 548 H 54.2858 -5.12483 -4.45575 0
M  V30 549 H 52.2318 -3.25453 -5.69575 0
M  V30 550 H 52.1488 -4.98564 -5.68304 0
M  V30 551 H 53.4168 -4.1941 -6.57051 0
M  V30 552 N 57.6459 0.756429 -1.3826 0
M  V30 553 C 59.0569 1.33359 -1.30661 0
M  V30 554 C 59.4079 1.96161 0.0388875 0
M  V30 555 O 58.5329 1.94874 0.940918 0
M  V30 556 C 59.1279 2.42477 -2.36622 0
M  V30 557 C 57.6869 2.95922 -2.3261 0
M  V30 558 C 56.8339 1.69275 -2.19639 0
M  V30 559 H 59.7849 0.55552 -1.4866 0
M  V30 560 H 59.8059 3.22345 -2.02174 0
M  V30 561 H 59.3179 1.96739 -3.34538 0
M  V30 562 H 57.4189 3.45996 -1.38267 0
M  V30 563 H 57.5319 3.50494 -3.26636 0
M  V30 564 H 55.8959 1.92793 -1.66442 0
M  V30 565 H 56.6789 1.25619 -3.19491 0
M  V30 566 N 59.124 1.23083 0.984299 0
M  V30 567 C 60.054 1.03292 2.09411 0
M  V30 568 C 61.035 -0.048923 1.7003 0
M  V30 569 O 62.22 0.114967 1.93859 0
M  V30 570 C 59.35 0.619155 3.41736 0
M  V30 571 C 58.304 1.64791 3.95004 0
M  V30 572 C 57.63 1.0897 5.23478 0
M  V30 573 C 58.93 3.03999 4.24714 0
M  V30 574 H 60.624 1.96119 2.26225 0
M  V30 575 H 58.17 0.944344 1.08711 0
M  V30 576 H 60.123 0.467777 4.18796 0
M  V30 577 H 58.847 -0.344786 3.24775 0
M  V30 578 H 57.506 1.78721 3.20085 0
M  V30 579 H 57.154 0.11686 5.02864 0
M  V30 580 H 56.854 1.77704 5.60085 0
M  V30 581 H 58.378 0.950093 6.03163 0
M  V30 582 H 59.792 2.93393 4.92538 0
M  V30 583 H 58.189 3.69936 4.72512 0
M  V30 584 H 59.259 3.53285 3.32142 0
M  V30 585 N 60.6021 -1.18246 1.0419 0
M  V30 586 C 62.0131 -1.69914 0.773698 0
M  V30 587 C 62.3641 -1.83085 -0.705297 0
M  V30 588 O 61.4891 -1.51123 -1.5489 0
M  V30 589 C 62.0841 -3.08619 1.39784 0
M  V30 590 C 60.6431 -3.57494 1.17792 0
M  V30 591 C 59.7901 -2.34013 1.48773 0
M  V30 592 H 62.7411 -1.02904 1.20816 0
M  V30 593 H 62.7621 -3.71958 0.801714 0
M  V30 594 H 62.2741 -2.99001 2.47426 0
M  V30 595 H 60.3751 -3.72406 0.120295 0
M  V30 596 H 60.4881 -4.40852 1.87581 0
M  V30 597 H 58.8521 -2.37986 0.907463 0
M  V30 598 H 59.6351 -2.27013 2.57527 0
M  V30 599 N 62.0802 -0.821533 -1.34494 0
M  V30 600 C 63.4912 -0.467956 -1.8074 0
M  V30 601 C 63.8422 1.01151 -1.68116 0
M  V30 602 O 62.9672 1.78707 -1.22036 0
M  V30 603 C 63.5622 -0.842627 -3.28154 0
M  V30 604 C 62.1212 -0.541439 -3.72485 0
M  V30 605 C 61.2682 -1.06028 -2.56229 0
M  V30 606 H 64.2192 -1.01183 -1.22261 0
M  V30 607 H 64.2402 -0.145876 -3.8022 0
M  V30 608 H 63.7522 -1.91945 -3.37311 0
M  V30 609 H 61.8532 0.526034 -3.68868 0
M  V30 610 H 61.9662 -1.08453 -4.66663 0
M  V30 611 H 60.3302 -0.481892 -2.501 0
M  V30 612 H 61.1132 -2.14352 -2.68157 0
M  V30 613 N 63.5583 1.46682 -0.576371 0
M  V30 614 C 64.5063 2.31953 0.17335 0
M  V30 615 C 65.5003 1.44098 0.89062 0
M  V30 616 O 66.7063 1.60759 0.809728 0
M  V30 617 H 63.0813 0.748273 0.0747727 0
M  V30 618 H 65.0523 2.93007 -0.564738 0
M  V30 619 C 63.8013 3.27142 1.17786 0
M  V30 620 H 63.1243 3.94719 0.635361 0
M  V30 621 H 64.5643 3.896 1.67296 0
M  V30 622 C 63.0233 2.52036 2.23561 0
M  V30 623 O 63.5533 2.27877 3.3081 0
M  V30 624 N 61.7593 2.12709 1.97998 0
M  V30 625 H 61.3063 2.32557 1.10792 0
M  V30 626 H 61.2643 1.62776 2.68982 0
M  V30 627 N 65.0364 0.313813 1.54444 0
M  V30 628 C 66.4474 -0.176243 1.85866 0
M  V30 629 C 66.7984 -1.52405 1.23561 0
M  V30 630 O 65.9234 -2.09605 0.538016 0
M  V30 631 C 66.5184 -0.32657 3.37222 0
M  V30 632 C 65.0774 -0.760846 3.6863 0
M  V30 633 C 64.2244 0.123247 2.77026 0
M  V30 634 H 67.1754 0.534418 1.49431 0
M  V30 635 H 67.1964 -1.15908 3.62416 0
M  V30 636 H 66.7084 0.654531 3.82541 0
M  V30 637 H 64.8094 -1.75204 3.28838 0
M  V30 638 H 64.9224 -0.571353 4.75681 0
M  V30 639 H 63.2864 -0.399597 2.51546 0
M  V30 640 H 64.0694 1.10094 3.25168 0
M  V30 641 N 66.5145 -1.57545 0.0417849 0
M  V30 642 C 67.4245 -2.14451 -0.951213 0
M  V30 643 C 68.4405 -1.09992 -1.34825 0
M  V30 644 O 69.6165 -1.42114 -1.42708 0
M  V30 645 C 66.6815 -2.67063 -2.21084 0
M  V30 646 C 65.7425 -3.86284 -1.87304 0
M  V30 647 C 64.9755 -4.36378 -3.07261 0
M  V30 648 O 65.1985 -3.85587 -4.20332 0
M  V30 649 O 64.1325 -5.28077 -2.88822 0
M  V30 650 H 67.9585 -2.99601 -0.497287 0
M  V30 651 H 65.5435 -1.48317 -0.179567 0
M  V30 652 H 67.4255 -3.00914 -2.95006 0
M  V30 653 H 66.1005 -1.84989 -2.65633 0
M  V30 654 H 65.0075 -3.57338 -1.10727 0
M  V30 655 H 66.3405 -4.6956 -1.47562 0
M  V30 656 N 67.9926 0.231505 -1.5589 0
M  V30 657 C 68.9026 1.308 -1.94752 0
M  V30 658 C 69.9186 1.51826 -0.849989 0
M  V30 659 O 71.0946 1.6515 -1.15271 0
M  V30 660 C 68.1596 2.63968 -2.24771 0
M  V30 661 C 67.2206 2.51331 -3.48039 0
M  V30 662 C 66.4536 3.78148 -3.76616 0
M  V30 663 O 66.6766 4.80722 -3.07022 0
M  V30 664 O 65.6106 3.75857 -4.70123 0
M  V30 665 H 69.4366 1.0083 -2.86474 0
M  V30 666 H 67.0216 0.433547 -1.42971 0
M  V30 667 H 68.9036 3.42633 -2.45318 0
M  V30 668 H 67.5786 2.9364 -1.36225 0
M  V30 669 H 66.4856 1.709 -3.32782 0
M  V30 670 H 67.8186 2.26601 -4.36936 0
M  V30 671 N 69.4707 1.49531 0.497807 0
M  V30 672 C 70.4177 1.66436 1.59899 0
M  V30 673 C 71.3877 0.505793 1.58212 0
M  V30 674 O 72.5727 0.733202 1.7615 0
M  V30 675 C 69.7127 1.7399 2.98029 0
M  V30 676 C 68.8257 3.01172 3.09708 0
M  V30 677 C 67.9607 2.99686 4.38591 0
M  V30 678 C 66.9997 4.21434 4.43914 0
M  V30 679 N 66.1367 4.1784 5.64229 0
M  V30 680 H 70.9767 2.60459 1.44793 0
M  V30 681 H 68.5137 1.29137 0.704423 0
M  V30 682 H 70.4717 1.76352 3.78095 0
M  V30 683 H 69.1017 0.834301 3.11832 0
M  V30 684 H 68.1537 3.08408 2.22685 0
M  V30 685 H 69.4657 3.91165 3.09502 0
M  V30 686 H 68.6197 3.00628 5.2698 0
M  V30 687 H 67.3587 2.07477 4.41367 0
M  V30 688 H 66.3637 4.20733 3.53926 0
M  V30 689 H 67.5887 5.14839 4.42851 0
M  V30 690 H 65.5347 3.28469 5.67841 0
M  V30 691 H 65.4517 5.01571 5.65652 0
M  V30 692 H 66.7197 4.22889 6.54817 0
M  V30 693 N 70.9488 -0.749086 1.3866 0
M  V30 694 C 71.8958 -1.86291 1.36251 0
M  V30 695 C 72.8658 -1.64578 0.224347 0
M  V30 696 O 74.0508 -1.86181 0.417279 0
M  V30 697 C 71.1908 -3.23644 1.19786 0
M  V30 698 C 70.3038 -3.57158 2.43027 0
M  V30 699 C 69.4388 -4.83838 2.19258 0
M  V30 700 C 68.4778 -5.10152 3.38247 0
M  V30 701 N 67.6148 -6.28029 3.13884 0
M  V30 702 H 72.4548 -1.87685 2.3147 0
M  V30 703 H 69.9918 -0.917287 1.14997 0
M  V30 704 H 71.9498 -4.0291 1.08254 0
M  V30 705 H 70.5798 -3.21566 0.282031 0
M  V30 706 H 69.6318 -2.72701 2.65214 0
M  V30 707 H 70.9438 -3.7253 3.31697 0
M  V30 708 H 70.0978 -5.71057 2.04888 0
M  V30 709 H 68.8368 -4.70614 1.2796 0
M  V30 710 H 67.8418 -4.21401 3.53131 0
M  V30 711 H 69.0668 -5.25271 4.30427 0
M  V30 712 H 67.0128 -6.1612 2.25238 0
M  V30 713 H 66.9298 -6.43922 3.96106 0
M  V30 714 H 68.1978 -7.18124 3.03179 0
M  V30 715 N 72.4269 -1.23603 -0.977757 0
M  V30 716 C 73.3739 -1.01954 -2.07061 0
M  V30 717 C 74.3439 0.0638697 -1.65977 0
M  V30 718 O 75.5289 -0.0887624 -1.90593 0
M  V30 719 C 72.6689 -0.619658 -3.39491 0
M  V30 720 C 71.7819 -1.77547 -3.93829 0
M  V30 721 C 70.9169 -1.32212 -5.14484 0
M  V30 722 C 69.9559 -2.44852 -5.60994 0
M  V30 723 N 69.0929 -2.00456 -6.72876 0
M  V30 724 H 73.9329 -1.95495 -2.24913 0
M  V30 725 H 71.4699 -0.973861 -1.10247 0
M  V30 726 H 73.4279 -0.368898 -4.15566 0
M  V30 727 H 72.0579 0.278752 -3.21594 0
M  V30 728 H 71.1099 -2.14016 -3.14486 0
M  V30 729 H 72.4219 -2.62219 -4.24314 0
M  V30 730 H 71.5759 -1.02965 -5.97899 0
M  V30 731 H 70.3149 -0.445808 -4.85658 0
M  V30 732 H 69.3199 -2.74871 -4.76157 0
M  V30 733 H 70.5449 -3.33024 -5.91837 0
M  V30 734 H 68.4909 -1.15208 -6.45804 0
M  V30 735 H 68.4079 -2.78687 -7.02759 0
M  V30 736 H 69.6759 -1.7432 -7.59758 0
M  V30 737 N 73.905 1.17692 -1.04816 0
M  V30 738 C 74.852 2.21581 -0.645797 0
M  V30 739 C 75.822 1.62367 0.350159 0
M  V30 740 O 77.007 1.89254 0.242433 0
M  V30 741 C 74.147 3.45092 -0.0227568 0
M  V30 742 C 73.26 4.18613 -1.06709 0
M  V30 743 C 72.395 5.29602 -0.411767 0
M  V30 744 C 71.434 5.94904 -1.44067 0
M  V30 745 N 70.571 6.97414 -0.809781 0
M  V30 746 H 75.411 2.55353 -1.5362 0
M  V30 747 H 72.948 1.25438 -0.768364 0
M  V30 748 H 74.906 4.15679 0.35588 0
M  V30 749 H 73.536 3.11917 0.831122 0
M  V30 750 H 72.588 3.46779 -1.5636 0
M  V30 751 H 73.9 4.63293 -1.84827 0
M  V30 752 H 73.054 6.06696 0.0206623 0
M  V30 753 H 71.793 4.86045 0.401438 0
M  V30 754 H 70.798 5.16544 -1.88316 0
M  V30 755 H 72.023 6.40542 -2.25571 0
M  V30 756 H 69.969 6.55998 -0.0170186 0
M  V30 757 H 69.886 7.40386 -1.52856 0
M  V30 758 H 71.154 7.78463 -0.401999 0
M  V30 759 N 75.3831 0.828654 1.34056 0
M  V30 760 C 76.6601 0.341809 1.9259 0
M  V30 761 C 77.0401 -1.17158 1.75605 0
M  V30 762 O 76.3881 -1.98132 1.13824 0
M  V30 763 C 76.5981 0.777453 3.4023 0
M  V30 764 C 77.9461 0.779579 4.17382 0
M  V30 765 O 78.9701 0.7204 3.48839 0
M  V30 766 O 77.8291 0.857996 5.39723 0
M  V30 767 H 74.9231 0.0946085 0.821571 0
M  V30 768 H 77.4691 0.913827 1.42994 0
M  V30 769 H 76.2411 1.8196 3.46419 0
M  V30 770 H 75.8641 0.181444 3.97186 0
M  V30 771 N 76.8612 -1.46375 0.584142 0
M  V30 772 C 78.2772 -1.57694 0.245929 0
M  V30 773 C 78.4772 -1.57903 -1.25175 0
M  V30 774 O 77.5332 -1.49676 -2.03355 0
M  V30 775 C 78.8462 -2.87028 0.896402 0
M  V30 776 C 80.3942 -3.00662 0.870127 0
M  V30 777 C 80.8692 -4.32734 1.50017 0
M  V30 778 N 82.3602 -4.39436 1.46458 0
M  V30 779 C 83.0952 -5.40248 1.92144 0
M  V30 780 N 82.5912 -6.47726 2.4581 0
M  V30 781 N 84.3842 -5.31459 1.83052 0
M  V30 782 H 76.5352 -1.44483 1.55687 0
M  V30 783 H 78.7982 -0.689291 0.650831 0
M  V30 784 H 78.5042 -2.9269 1.95002 0
M  V30 785 H 78.3782 -3.75014 0.405486 0
M  V30 786 H 80.7652 -2.94581 -0.174871 0
M  V30 787 H 80.8462 -2.14148 1.39908 0
M  V30 788 H 80.4902 -4.39573 2.54437 0
M  V30 789 H 80.4202 -5.18025 0.946432 0
M  V30 790 H 82.9112 -3.62367 1.07231 0
M  V30 791 H 83.2242 -7.20863 2.78525 0
M  V30 792 H 81.5692 -6.48542 2.49836 0
M  V30 793 H 84.7602 -4.46396 1.40883 0
M  V30 794 H 84.9332 -6.09881 2.18973 0
M  V30 795 N 78.3393 -0.321999 -1.54275 0
M  V30 796 C 79.5863 0.281044 -2.0054 0
M  V30 797 C 79.9143 1.52265 -1.21019 0
M  V30 798 O 79.1693 1.93687 -0.279982 0
M  V30 799 C 79.4683 0.661769 -3.5122 0
M  V30 800 C 79.1343 -0.480482 -4.48333 0
M  V30 801 C 77.7963 -0.794005 -4.74604 0
M  V30 802 C 80.1483 -1.24783 -5.06042 0
M  V30 803 C 77.4763 -1.87763 -5.55844 0
M  V30 804 C 79.8283 -2.32153 -5.88462 0
M  V30 805 C 78.4923 -2.64089 -6.13036 0
M  V30 806 H 77.7623 0.102841 -0.733829 0
M  V30 807 H 80.4093 -0.445453 -1.86247 0
M  V30 808 H 78.7143 1.46867 -3.63232 0
M  V30 809 H 80.4113 1.13989 -3.84457 0
M  V30 810 H 77.0013 -0.226039 -4.28004 0
M  V30 811 H 81.1853 -1.01887 -4.85729 0
M  V30 812 H 76.4413 -2.12954 -5.73115 0
M  V30 813 H 80.6153 -2.92057 -6.32199 0
M  V30 814 H 78.2423 -3.48185 -6.75775 0
M  V30 815 N 79.8174 1.5752 -0.0501392 0
M  V30 816 C 81.0474 1.96678 0.632573 0
M  V30 817 C 81.4554 0.926298 1.64974 0
M  V30 818 O 80.7984 -0.09802 1.83438 0
M  V30 819 C 80.8604 3.32068 1.37735 0
M  V30 820 C 80.5244 4.54076 0.516131 0
M  V30 821 C 81.5214 5.19445 -0.217357 0
M  V30 822 C 79.2064 5.00304 0.44736 0
M  V30 823 C 81.2004 6.29378 -1.00807 0
M  V30 824 C 78.8874 6.10114 -0.347038 0
M  V30 825 C 79.8854 6.74512 -1.07344 0
M  V30 826 O 79.5734 7.82211 -1.85477 0
M  V30 827 H 79.3054 0.652193 0.177821 0
M  V30 828 H 81.8594 2.05091 -0.112543 0
M  V30 829 H 80.0894 3.20206 2.16807 0
M  V30 830 H 81.7784 3.55981 1.95019 0
M  V30 831 H 82.5444 4.84689 -0.173688 0
M  V30 832 H 78.4234 4.49971 1.00235 0
M  V30 833 H 81.9674 6.79575 -1.57556 0
M  V30 834 H 77.8644 6.44307 -0.392349 0
M  V30 835 H 78.6324 7.98982 -1.77678 0
M  V30 836 N 81.2955 -0.223234 1.56011 0
M  V30 837 C 82.7115 -0.572856 1.48965 0
M  V30 838 C 82.9115 -1.87225 0.74492 0
M  V30 839 O 81.9675 -2.50899 0.283896 0
M  V30 840 C 83.2805 -0.653646 2.9351 0
M  V30 841 C 84.8285 -0.744386 3.0402 0
M  V30 842 C 85.3035 -0.856535 4.49919 0
M  V30 843 N 86.7945 -0.9208 4.53955 0
M  V30 844 C 87.5295 -1.02726 5.64123 0
M  V30 845 N 87.0255 -1.09777 6.84047 0
M  V30 846 N 88.8185 -1.06226 5.51971 0
M  V30 847 H 80.9695 0.629462 2.02858 0
M  V30 848 H 83.2325 0.220621 0.921971 0
M  V30 849 H 82.9385 0.231518 3.50937 0
M  V30 850 H 82.8125 -1.51781 3.45315 0
M  V30 851 H 85.1995 -1.61999 2.46658 0
M  V30 852 H 85.2805 0.14541 2.55386 0
M  V30 853 H 84.9245 0.0146069 5.07898 0
M  V30 854 H 84.8545 -1.76172 4.96257 0
M  V30 855 H 87.3455 -0.876694 3.6759 0
M  V30 856 H 87.6585 -1.17872 7.63758 0
M  V30 857 H 86.0035 -1.06693 6.86762 0
M  V30 858 H 89.1945 -1.00382 4.5721 0
M  V30 859 H 89.3675 -1.14177 6.37862 0
M  V30 860 N 82.7736 -1.49793 -0.48987 0
M  V30 861 C 83.9986 -1.63836 -1.27172 0
M  V30 862 C 84.4236 -0.31402 -1.8546 0
M  V30 863 O 83.7816 0.719803 -1.66399 0
M  V30 864 C 83.8296 -2.71797 -2.36978 0
M  V30 865 O 82.9336 -2.31744 -3.41128 0
M  V30 866 H 82.2746 -0.547997 -0.37496 0
M  V30 867 H 84.8046 -1.96053 -0.585191 0
M  V30 868 H 84.8146 -2.94305 -2.82575 0
M  V30 869 H 83.4896 -3.67923 -1.93921 0
M  V30 870 H 82.0666 -2.1961 -3.01373 0
M  V30 871 N 84.2517 0.741722 -1.39055 0
M  V30 872 C 85.5007 1.49656 -1.35225 0
M  V30 873 C 85.8137 1.95533 0.0512708 0
M  V30 874 O 87.0197 2.7067 0.212138 0
M  V30 875 C 85.4757 2.70389 -2.37525 0
M  V30 876 C 85.0837 2.31489 -3.83558 0
M  V30 877 C 86.8277 3.48236 -2.42759 0
M  V30 878 C 84.7347 3.48903 -4.77515 0
M  V30 879 H 83.6647 0.56197 -0.502699 0
M  V30 880 H 86.3157 0.809727 -1.64668 0
M  V30 881 H 84.6977 3.41113 -2.01142 0
M  V30 882 H 85.8717 1.68354 -4.28945 0
M  V30 883 H 84.1867 1.66749 -3.81554 0
M  V30 884 H 86.7837 4.35558 -3.1015 0
M  V30 885 H 87.1267 3.90229 -1.45008 0
M  V30 886 H 87.6597 2.84535 -2.78002 0
M  V30 887 H 84.3987 3.11966 -5.76504 0
M  V30 888 H 83.9187 4.11041 -4.36813 0
M  V30 889 H 85.5977 4.15328 -4.96096 0
M  V30 890 N 85.7298 1.2412 0.971189 0
M  V30 891 C 86.6598 1.05508 2.08304 0
M  V30 892 C 87.6408 -0.0308864 1.70072 0
M  V30 893 O 88.8258 0.135521 1.93727 0
M  V30 894 C 85.9558 0.655365 3.4106 0
M  V30 895 C 84.9098 1.68971 3.93234 0
M  V30 896 C 84.2358 1.14516 5.22293 0
M  V30 897 C 85.5358 3.08487 4.21465 0
M  V30 898 H 87.2298 1.98507 2.24132 0
M  V30 899 H 84.7758 0.955821 1.07704 0
M  V30 900 H 86.7288 0.51217 4.18276 0
M  V30 901 H 85.4528 -0.31032 3.25122 0
M  V30 902 H 84.1118 1.82106 3.18171 0
M  V30 903 H 83.7598 0.170189 5.02712 0
M  V30 904 H 83.4598 1.83635 5.58168 0
M  V30 905 H 84.9838 1.01401 6.02121 0
M  V30 906 H 86.3978 2.98601 4.89398 0
M  V30 907 H 84.7948 3.74926 4.68562 0
M  V30 908 H 85.8648 3.56787 3.28376 0
M  V30 909 N 87.2079 -1.17134 1.05439 0
M  V30 910 C 88.6189 -1.69084 0.791676 0
M  V30 911 C 88.9699 -1.83822 -0.685839 0
M  V30 912 O 88.0949 -1.52757 -1.53278 0
M  V30 913 C 88.6899 -3.07119 1.4305 0
M  V30 914 C 87.2489 -3.56225 1.21577 0
M  V30 915 C 86.3959 -2.32421 1.51247 0
M  V30 916 H 89.3469 -1.01617 1.219 0
M  V30 917 H 89.3679 -3.71087 0.84112 0
M  V30 918 H 88.8799 -2.9636 2.50584 0
M  V30 919 H 86.9809 -3.72257 0.159787 0
M  V30 920 H 87.0939 -4.38837 1.92246 0
M  V30 921 H 85.4579 -2.3701 0.932653 0
M  V30 922 H 86.2409 -2.24268 2.5992 0
M  V30 923 N 88.686 -0.835752 -1.33615 0
M  V30 924 C 89.934 -0.429109 -1.97492 0
M  V30 925 C 90.255 1.01433 -1.66543 0
M  V30 926 O 89.525 1.70611 -0.962744 0
M  V30 927 H 88.105 -0.155686 -0.730596 0
M  V30 928 H 90.767 -1.06802 -1.63031 0
M  V30 929 H 89.863 -0.55861 -3.0706 0
M  V30 930 N 90.1641 1.46063 -0.591896 0
M  V30 931 C 91.4411 1.95595 -0.0137119 0
M  V30 932 C 91.8211 1.5345 1.4497 0
M  V30 933 O 91.1691 0.789543 2.14426 0
M  V30 934 C 91.3791 3.48453 -0.195373 0
M  V30 935 C 92.7271 4.24546 -0.0679765 0
M  V30 936 O 93.7511 3.55982 -0.124681 0
M  V30 937 O 92.6101 5.46467 0.0600579 0
M  V30 938 H 89.7041 0.825795 0.0446279 0
M  V30 939 H 92.2501 1.56303 -0.660859 0
M  V30 940 H 91.0221 3.72045 -1.21235 0
M  V30 941 H 90.6451 3.94597 0.487775 0
M  V30 942 N 91.6422 0.330177 1.54103 0
M  V30 943 C 92.5892 -0.532762 2.24567 0
M  V30 944 C 93.5592 -1.10635 1.23892 0
M  V30 945 O 94.7442 -1.14546 1.5259 0
M  V30 946 C 91.8842 -1.6845 3.01195 0
M  V30 947 C 90.9972 -1.13951 4.167 0
M  V30 948 C 90.1322 -2.25746 4.80845 0
M  V30 949 C 89.1712 -1.6853 5.88442 0
M  V30 950 N 88.3082 -2.74014 6.46421 0
M  V30 951 H 93.1482 0.0746905 2.97906 0
M  V30 952 H 90.6852 0.048632 1.4702 0
M  V30 953 H 92.6432 -2.36234 3.43874 0
M  V30 954 H 91.2732 -2.26314 2.30178 0
M  V30 955 H 90.3252 -0.35301 3.78758 0
M  V30 956 H 91.6372 -0.680892 4.94131 0
M  V30 957 H 90.7912 -3.01422 5.26526 0
M  V30 958 H 89.5302 -2.74947 4.0281 0
M  V30 959 H 88.5352 -0.913543 5.42157 0
M  V30 960 H 89.7602 -1.20198 6.68378 0
M  V30 961 H 87.7062 -3.22494 5.71256 0
M  V30 962 H 87.6232 -2.32735 7.19285 0
M  V30 963 H 88.8912 -3.49499 6.96757 0
M  V30 964 N 93.1203 -1.57491 0.0584922 0
M  V30 965 C 94.3483 -1.97296 -0.623037 0
M  V30 966 C 94.7633 -0.936338 -1.63946 0
M  V30 967 O 94.1203 0.0785981 -1.82331 0
M  V30 968 C 94.1713 -3.37183 -1.30345 0
M  V30 969 O 93.8923 -4.36872 -0.32773 0
M  V30 970 C 95.3933 -3.91788 -2.07406 0
M  V30 971 H 92.6133 -0.649153 -0.169826 0
M  V30 972 H 95.1573 -2.04106 0.12696 0
M  V30 973 H 93.3123 -3.31502 -2.00463 0
M  V30 974 H 93.7263 -5.18141 -0.814269 0
M  V30 975 H 95.2003 -4.91926 -2.50425 0
M  V30 976 H 95.6773 -3.27609 -2.92521 0
M  V30 977 H 96.2833 -4.00829 -1.42184 0
M  V30 978 N 94.5984 0.214957 -1.56127 0
M  V30 979 C 95.5464 1.28601 -1.93816 0
M  V30 980 C 96.5404 1.48175 -0.821016 0
M  V30 981 O 97.7464 1.49271 -1.0059 0
M  V30 982 H 94.1214 0.431302 -0.616022 0
M  V30 983 H 96.0924 0.940991 -2.83175 0
M  V30 984 C 94.8414 2.62779 -2.27689 0
M  V30 985 H 94.1644 2.48527 -3.13168 0
M  V30 986 H 95.6044 3.36517 -2.57939 0
M  V30 987 C 94.0634 3.18285 -1.10436 0
M  V30 988 O 94.5934 4.00002 -0.368945 0
M  V30 989 N 92.7994 2.7675 -0.886433 0
M  V30 990 H 92.3464 2.10404 -1.48619 0
M  V30 991 H 92.3044 3.14229 -0.103656 0
M  V30 992 N 96.0765 1.50051 0.48192 0
M  V30 993 C 97.0235 1.68122 1.58125 0
M  V30 994 C 97.9935 0.522545 1.57666 0
M  V30 995 O 99.1785 0.751844 1.75362 0
M  V30 996 C 96.3185 1.77142 2.96167 0
M  V30 997 C 95.4315 3.0444 3.06497 0
M  V30 998 C 94.5665 3.04321 4.35387 0
M  V30 999 C 93.6055 4.26118 4.3942 0
M  V30 1000 N 92.7425 4.238 5.59766 0
M  V30 1001 H 97.5825 2.6198 1.42022 0
M  V30 1002 H 95.1195 1.29877 0.690687 0
M  V30 1003 H 97.0775 1.80352 3.76203 0
M  V30 1004 H 95.7075 0.867329 3.1093 0
M  V30 1005 H 94.7595 3.10752 2.19402 0
M  V30 1006 H 96.0715 3.94426 3.05336 0
M  V30 1007 H 95.2255 3.062 5.23762 0
M  V30 1008 H 93.9645 2.12147 4.39141 0
M  V30 1009 H 92.9695 4.24463 3.49444 0
M  V30 1010 H 94.1945 5.19507 4.37366 0
M  V30 1011 H 92.1405 3.34474 5.64326 0
M  V30 1012 H 92.0575 5.07542 5.60301 0
M  V30 1013 H 93.3255 4.2981 6.50295 0
M  V30 1014 N 97.5546 -0.734337 1.39446 0
M  V30 1015 C 98.5016 -1.84835 1.38219 0
M  V30 1016 C 99.4716 -1.64331 0.24179 0
M  V30 1017 O 100.657 -1.85728 0.437002 0
M  V30 1018 C 97.7966 -3.22355 1.23212 0
M  V30 1019 C 96.9096 -3.5456 2.46801 0
M  V30 1020 C 96.0446 -4.81485 2.24377 0
M  V30 1021 C 95.0836 -5.06536 3.43639 0
M  V30 1022 N 94.2206 -6.24665 3.20528 0
M  V30 1023 H 99.0606 -1.85219 2.33448 0
M  V30 1024 H 96.5976 -0.905039 1.15963 0
M  V30 1025 H 98.5556 -4.0174 1.12522 0
M  V30 1026 H 97.1856 -3.21248 0.316121 0
M  V30 1027 H 96.2376 -2.69872 2.68092 0
M  V30 1028 H 97.5496 -3.6899 3.3563 0
M  V30 1029 H 96.7036 -5.68852 2.10933 0
M  V30 1030 H 95.4426 -4.6923 1.32944 0
M  V30 1031 H 94.4476 -4.17632 3.5758 0
M  V30 1032 H 95.6726 -5.20676 4.35974 0
M  V30 1033 H 93.6186 -6.13696 2.3176 0
M  V30 1034 H 93.5356 -6.39685 4.02913 0
M  V30 1035 H 94.8036 -7.14868 3.10779 0
M  V30 1036 N 99.0327 -1.24633 -0.964593 0
M  V30 1037 C 99.9797 -1.04144 -2.05968 0
M  V30 1038 C 100.95 0.046262 -1.66036 0
M  V30 1039 O 102.135 -0.108972 -1.90489 0
M  V30 1040 C 99.2747 -0.65563 -3.38815 0
M  V30 1041 C 98.3877 -1.81714 -3.91923 0
M  V30 1042 C 97.5227 -1.37662 -5.13052 0
M  V30 1043 C 96.5617 -2.50788 -5.58365 0
M  V30 1044 N 95.6987 -2.07582 -6.70712 0
M  V30 1045 H 100.539 -1.9787 -2.22827 0
M  V30 1046 H 98.0757 -0.9855 -1.09208 0
M  V30 1047 H 100.034 -0.412954 -4.15151 0
M  V30 1048 H 98.6637 0.244627 -3.21872 0
M  V30 1049 H 97.7157 -2.1734 -3.12198 0
M  V30 1050 H 99.0277 -2.66705 -4.21509 0
M  V30 1051 H 98.1817 -1.093 -5.96773 0
M  V30 1052 H 96.9207 -0.497293 -4.85158 0
M  V30 1053 H 95.9257 -2.79906 -4.73215 0
M  V30 1054 H 97.1507 -3.39283 -5.88272 0
M  V30 1055 H 95.0967 -1.22051 -6.44546 0
M  V30 1056 H 95.0137 -2.86125 -6.99763 0
M  V30 1057 H 96.2817 -1.82369 -7.57867 0
M  V30 1058 N 100.511 1.16574 -1.06058 0
M  V30 1059 C 101.421 2.2452 -0.680282 0
M  V30 1060 C 102.437 1.71348 0.302604 0
M  V30 1061 O 103.613 2.00822 0.152513 0
M  V30 1062 C 100.678 3.46629 -0.0700315 0
M  V30 1063 C 99.7388 4.14849 -1.10448 0
M  V30 1064 C 98.9718 5.31129 -0.523256 0
M  V30 1065 O 99.1948 5.66514 0.664709 0
M  V30 1066 O 98.1288 5.88526 -1.26179 0
M  V30 1067 H 101.955 2.59355 -1.58015 0
M  V30 1068 H 99.5398 1.24043 -0.832694 0
M  V30 1069 H 101.422 4.20543 0.268667 0
M  V30 1070 H 100.097 3.13573 0.803353 0
M  V30 1071 H 99.0038 3.42916 -1.49532 0
M  V30 1072 H 100.337 4.51954 -1.94931 0
M  V30 1073 N 101.989 0.842826 1.3317 0
M  V30 1074 C 102.936 0.276885 2.29133 0
M  V30 1075 C 103.906 -0.609527 1.54512 0
M  V30 1076 O 105.091 -0.546955 1.82792 0
M  V30 1077 C 102.231 -0.538707 3.40869 0
M  V30 1078 C 101.344 0.372169 4.30394 0
M  V30 1079 C 100.479 -0.454908 5.29249 0
M  V30 1080 C 99.5179 0.45411 6.10413 0
M  V30 1081 N 98.6549 -0.335075 7.013 0
M  V30 1082 H 103.495 1.10052 2.76934 0
M  V30 1083 H 101.032 0.554161 1.36262 0
M  V30 1084 H 102.99 -1.02709 4.0436 0
M  V30 1085 H 101.62 -1.32727 2.9425 0
M  V30 1086 H 100.672 0.97888 3.6759 0
M  V30 1087 H 101.984 1.0703 4.87182 0
M  V30 1088 H 101.138 -1.00695 5.98285 0
M  V30 1089 H 99.8769 -1.18646 4.73048 0
M  V30 1090 H 98.8819 1.01813 5.40291 0
M  V30 1091 H 100.107 1.18409 6.68697 0
M  V30 1092 H 98.0529 -1.04994 6.47543 0
M  V30 1093 H 97.9699 0.304262 7.55387 0
M  V30 1094 H 99.2379 -0.869224 7.74638 0
M  V30 1095 N 103.467 -1.45747 0.599634 0
M  V30 1096 C 104.377 -2.34262 -0.125888 0
M  V30 1097 C 105.393 -1.50768 -0.868625 0
M  V30 1098 O 106.569 -1.83592 -0.828003 0
M  V30 1099 C 103.634 -3.28252 -1.11587 0
M  V30 1100 C 102.695 -4.27651 -0.375956 0
M  V30 1101 C 101.928 -5.1715 -1.31877 0
M  V30 1102 O 102.151 -5.09916 -2.55621 0
M  V30 1103 O 101.085 -5.96286 -0.820157 0
M  V30 1104 H 104.911 -2.97688 0.601315 0
M  V30 1105 H 102.496 -1.44999 0.359934 0
M  V30 1106 H 104.378 -3.86191 -1.68626 0
M  V30 1107 H 103.053 -2.67401 -1.82424 0
M  V30 1108 H 101.96 -3.7335 0.236698 0
M  V30 1109 H 103.293 -4.91334 0.29177 0
M  V30 1110 N 104.945 -0.338344 -1.53925 0
M  V30 1111 C 106.361 0.0137736 -1.59594 0
M  V30 1112 C 106.561 1.49186 -1.35447 0
M  V30 1113 O 105.617 2.24987 -1.14616 0
M  V30 1114 C 106.93 -0.41773 -2.97784 0
M  V30 1115 C 108.478 -0.369633 -3.1081 0
M  V30 1116 C 108.953 -0.776524 -4.51369 0
M  V30 1117 N 110.444 -0.730506 -4.57403 0
M  V30 1118 C 111.179 -1.01736 -5.64303 0
M  V30 1119 N 110.675 -1.3721 -6.79077 0
M  V30 1120 N 112.468 -0.941942 -5.54151 0
M  V30 1121 H 104.619 -1.3012 -1.67876 0
M  V30 1122 H 106.882 -0.530082 -0.78595 0
M  V30 1123 H 106.588 -1.44811 -3.20504 0
M  V30 1124 H 106.462 0.209729 -3.76616 0
M  V30 1125 H 108.849 0.651568 -2.87817 0
M  V30 1126 H 108.93 -1.03223 -2.34049 0
M  V30 1127 H 108.574 -1.79571 -4.75096 0
M  V30 1128 H 108.504 -0.0914649 -5.26521 0
M  V30 1129 H 110.995 -0.468783 -3.74981 0
M  V30 1130 H 111.308 -1.57597 -7.5656 0
M  V30 1131 H 109.653 -1.4105 -6.80536 0
M  V30 1132 H 112.844 -0.664184 -4.63364 0
M  V30 1133 H 113.017 -1.16884 -6.37371 0
M  V30 1134 N 106.423 1.57458 -0.0668435 0
M  V30 1135 C 107.834 1.80776 0.466558 0
M  V30 1136 C 108.185 0.980361 1.69951 0
M  V30 1137 O 107.31 0.201441 2.1546 0
M  V30 1138 C 107.905 3.27881 0.85321 0
M  V30 1139 C 106.464 3.52062 1.3315 0
M  V30 1140 C 105.611 2.75513 0.314264 0
M  V30 1141 H 108.562 1.5598 -0.292588 0
M  V30 1142 H 108.583 3.39659 1.715 0
M  V30 1143 H 108.095 3.88075 -0.0443439 0
M  V30 1144 H 106.196 2.97167 2.24772 0
M  V30 1145 H 106.309 4.60762 1.31285 0
M  V30 1146 H 104.673 2.42123 0.790492 0
M  V30 1147 H 105.456 3.38442 -0.575477 0
M  V30 1148 N 107.901 -0.206675 1.56239 0
M  V30 1149 C 108.811 -1.27686 1.96808 0
M  V30 1150 C 109.827 -1.50455 0.874035 0
M  V30 1151 O 111.003 -1.63295 1.17884 0
M  V30 1152 C 108.068 -2.60358 2.28942 0
M  V30 1153 C 107.129 -2.45762 3.51994 0
M  V30 1154 C 106.362 -3.72108 3.82585 0
M  V30 1155 O 106.585 -4.75776 3.14631 0
M  V30 1156 O 105.519 -3.6833 4.76043 0
M  V30 1157 H 109.345 -0.962593 2.88041 0
M  V30 1158 H 106.93 -0.410746 1.43643 0
M  V30 1159 H 108.812 -3.38687 2.50737 0
M  V30 1160 H 107.487 -2.91435 1.4088 0
M  V30 1161 H 106.394 -1.65584 3.35459 0
M  V30 1162 H 107.727 -2.19621 4.40486 0
M  V30 1163 N 109.379 -1.50304 -0.473955 0
M  V30 1164 C 110.628 -1.60392 -1.22301 0
M  V30 1165 C 110.941 -0.308411 -1.93153 0
M  V30 1166 O 112.147 -0.288156 -2.69966 0
M  V30 1167 C 110.603 -2.83109 -2.2221 0
M  V30 1168 C 110.211 -4.19524 -1.57173 0
M  V30 1169 C 111.955 -3.0254 -2.97775 0
M  V30 1170 C 109.862 -5.33431 -2.55353 0
M  V30 1171 H 108.792 -0.597286 -0.460179 0
M  V30 1172 H 111.443 -1.76731 -0.493803 0
M  V30 1173 H 109.825 -2.60322 -2.9841 0
M  V30 1174 H 110.999 -4.52554 -0.867824 0
M  V30 1175 H 109.314 -4.05674 -0.939002 0
M  V30 1176 H 111.911 -3.84811 -3.71248 0
M  V30 1177 H 112.254 -2.14154 -3.56992 0
M  V30 1178 H 112.787 -3.25494 -2.28688 0
M  V30 1179 H 109.526 -6.23962 -2.00878 0
M  V30 1180 H 109.046 -5.04823 -3.23904 0
M  V30 1181 H 110.725 -5.63887 -3.17239 0
M  V30 1182 N 110.857 0.726932 -1.39834 0
M  V30 1183 C 112.082 1.52121 -1.40976 0
M  V30 1184 C 112.507 1.88098 -0.00826029 0
M  V30 1185 O 111.865 1.52479 0.980807 0
M  V30 1186 C 111.913 2.78021 -2.29644 0
M  V30 1187 O 111.017 3.74272 -1.73188 0
M  V30 1188 H 110.358 0.45908 -0.479731 0
M  V30 1189 H 112.888 0.896207 -1.83927 0
M  V30 1190 H 112.898 3.26671 -2.44438 0
M  V30 1191 H 111.573 2.51169 -3.31492 0
M  V30 1192 H 110.15 3.33073 -1.6768 0
M  V30 1193 N 112.336 1.25143 0.95797 0
M  V30 1194 C 113.266 1.07711 2.07173 0
M  V30 1195 C 114.247 -0.0128462 1.70095 0
M  V30 1196 O 115.432 0.156061 1.93572 0
M  V30 1197 C 112.562 0.691503 3.40346 0
M  V30 1198 C 111.516 1.73132 3.9142 0
M  V30 1199 C 110.842 1.20049 5.21049 0
M  V30 1200 C 112.142 3.1294 4.1817 0
M  V30 1201 H 113.836 2.00873 2.22014 0
M  V30 1202 H 111.382 0.967191 1.06684 0
M  V30 1203 H 113.335 0.556505 4.17709 0
M  V30 1204 H 112.059 -0.275819 3.25433 0
M  V30 1205 H 110.718 1.8547 3.16222 0
M  V30 1206 H 110.366 0.223499 5.02503 0
M  V30 1207 H 110.066 1.89545 5.56189 0
M  V30 1208 H 111.59 1.07782 6.01012 0
M  V30 1209 H 113.004 3.03775 4.86203 0
M  V30 1210 H 111.401 3.79875 4.64559 0
M  V30 1211 H 112.471 3.6025 3.24573 0
M  V30 1212 N 113.814 -1.1601 1.06675 0
M  V30 1213 C 115.225 -1.68235 0.809565 0
M  V30 1214 C 115.576 -1.8454 -0.666303 0
M  V30 1215 O 114.701 -1.54374 -1.5165 0
M  V30 1216 C 115.296 -3.05585 1.46299 0
M  V30 1217 C 113.855 -3.54915 1.25349 0
M  V30 1218 C 113.002 -2.30804 1.53703 0
M  V30 1219 H 115.953 -1.00318 1.22971 0
M  V30 1220 H 115.974 -3.70174 0.880431 0
M  V30 1221 H 115.486 -2.93686 2.53713 0
M  V30 1222 H 113.587 -3.72067 0.199261 0
M  V30 1223 H 113.7 -4.36774 1.9689 0
M  V30 1224 H 112.064 -2.36007 0.957739 0
M  V30 1225 H 112.847 -2.21499 2.62284 0
M  V30 1226 N 115.292 -0.849877 -1.32721 0
M  V30 1227 C 116.517 -0.463856 -2.02146 0
M  V30 1228 C 116.942 0.930449 -1.63476 0
M  V30 1229 O 116.3 1.61033 -0.832952 0
M  V30 1230 C 116.348 -0.604955 -3.55489 0
M  V30 1231 O 115.452 0.36425 -4.10788 0
M  V30 1232 H 114.793 -0.187046 -0.637111 0
M  V30 1233 H 117.323 -1.14775 -1.69375 0
M  V30 1234 H 117.333 -0.490696 -4.05038 0
M  V30 1235 H 116.008 -1.62174 -3.82978 0
M  V30 1236 H 114.585 0.206628 -3.72327 0
M  V30 1237 N 116.77 1.45427 -0.607355 0
M  V30 1238 C 118.047 1.9557 -0.0344566 0
M  V30 1239 C 118.427 1.54979 1.43334 0
M  V30 1240 O 117.775 0.812241 2.13576 0
M  V30 1241 C 117.985 3.48226 -0.232321 0
M  V30 1242 C 119.333 4.2445 -0.113001 0
M  V30 1243 O 120.357 3.55829 -0.162431 0
M  V30 1244 O 119.216 5.465 0.00209442 0
M  V30 1245 H 116.31 0.826222 0.0358667 0
M  V30 1246 H 118.856 1.55594 -0.6774 0
M  V30 1247 H 117.628 3.70739 -1.25174 0
M  V30 1248 H 117.251 3.95092 0.445896 0
M  V30 1249 N 118.248 0.346503 1.53744 0
M  V30 1250 C 119.495 -0.249104 2.00962 0
M  V30 1251 C 119.823 -1.5032 1.23426 0
M  V30 1252 O 119.078 -1.93217 0.310761 0
M  V30 1253 C 119.377 -0.605809 3.52228 0
M  V30 1254 C 119.043 0.551747 4.47512 0
M  V30 1255 C 117.705 0.86941 4.73281 0
M  V30 1256 C 120.057 1.32818 5.03993 0
M  V30 1257 C 117.385 1.96582 5.52786 0
M  V30 1258 C 119.737 2.41486 5.84694 0
M  V30 1259 C 118.401 2.73808 6.08757 0
M  V30 1260 H 117.671 -0.0911538 0.735372 0
M  V30 1261 H 120.318 0.475027 1.85515 0
M  V30 1262 H 118.623 -1.4107 3.65522 0
M  V30 1263 H 120.32 -1.07858 3.86222 0
M  V30 1264 H 116.91 0.294102 4.2759 0
M  V30 1265 H 121.094 1.09602 4.84047 0
M  V30 1266 H 116.35 2.22045 5.69654 0
M  V30 1267 H 120.524 3.02078 6.27473 0
M  V30 1268 H 118.151 3.58892 6.7015 0
M  V30 1269 N 119.726 -1.57421 0.075193 0
M  V30 1270 C 120.636 -2.1642 -0.905511 0
M  V30 1271 C 121.652 -1.12828 -1.32461 0
M  V30 1272 O 122.828 -1.45109 -1.39661 0
M  V30 1273 C 119.893 -2.71693 -2.15369 0
M  V30 1274 C 118.954 -3.90171 -1.79068 0
M  V30 1275 C 118.187 -4.42798 -2.97936 0
M  V30 1276 O 118.41 -3.94416 -4.12058 0
M  V30 1277 O 117.344 -5.34085 -2.77555 0
M  V30 1278 H 121.17 -3.00588 -0.433626 0
M  V30 1279 H 118.755 -1.48664 -0.148067 0
M  V30 1280 H 120.637 -3.07104 -2.88557 0
M  V30 1281 H 119.312 -1.90582 -2.61649 0
M  V30 1282 H 118.219 -3.59606 -1.03122 0
M  V30 1283 H 119.552 -4.72584 -1.37569 0
M  V30 1284 N 121.204 0.198386 -1.56346 0
M  V30 1285 C 122.154 1.2499 -1.90687 0
M  V30 1286 C 123.138 1.41158 -0.772217 0
M  V30 1287 O 124.33 1.43584 -1.03502 0
M  V30 1288 C 121.459 2.59542 -2.24706 0
M  V30 1289 C 120.545 2.47181 -3.44619 0
M  V30 1290 N 120.936 2.04495 -4.62618 0
M  V30 1291 C 119.234 2.78082 -3.48692 0
M  V30 1292 C 119.935 2.03945 -5.44776 0
M  V30 1293 N 118.911 2.45323 -4.85095 0
M  V30 1294 H 122.713 0.911149 -2.7942 0
M  V30 1295 H 120.227 0.40684 -1.57221 0
M  V30 1296 H 122.224 3.3549 -2.47491 0
M  V30 1297 H 120.884 2.94244 -1.37298 0
M  V30 1298 H 121.895 1.75256 -4.87345 0
M  V30 1299 H 118.572 3.17002 -2.71691 0
M  V30 1300 H 119.962 1.72872 -6.4928 0
M  V30 1301 N 122.682 1.50554 0.465978 0
M  V30 1302 C 123.91 1.65563 1.24083 0
M  V30 1303 C 124.325 0.341051 1.85694 0
M  V30 1304 O 123.682 -0.677543 1.69457 0
M  V30 1305 C 123.733 2.75051 2.34583 0
M  V30 1306 O 123.454 4.01413 1.75497 0
M  V30 1307 C 124.955 3.01078 3.25372 0
M  V30 1308 H 122.175 0.55638 0.375077 0
M  V30 1309 H 124.719 1.96807 0.555624 0
M  V30 1310 H 122.874 2.46486 2.9887 0
M  V30 1311 H 123.288 4.62002 2.48303 0
M  V30 1312 H 124.762 3.81339 3.99105 0
M  V30 1313 H 125.239 2.12349 3.84453 0
M  V30 1314 H 125.845 3.31194 2.66816 0
M  V30 1315 N 124.16 -0.719506 1.40217 0
M  V30 1316 C 125.409 -1.47486 1.37589 0
M  V30 1317 C 125.722 -1.9559 -0.0201568 0
M  V30 1318 O 126.928 -2.70973 -0.169049 0
M  V30 1319 C 125.384 -2.66575 2.41796 0
M  V30 1320 C 124.992 -2.25358 3.87192 0
M  V30 1321 C 126.736 -3.4433 2.48269 0
M  V30 1322 C 124.643 -3.41262 4.83005 0
M  V30 1323 H 123.573 -0.553901 0.511576 0
M  V30 1324 H 126.224 -0.783427 1.65936 0
M  V30 1325 H 124.606 -3.3787 2.06543 0
M  V30 1326 H 125.78 -1.61509 4.31569 0
M  V30 1327 H 124.095 -1.60657 3.84159 0
M  V30 1328 H 126.692 -4.30569 3.17041 0
M  V30 1329 H 127.035 -3.87872 1.51198 0
M  V30 1330 H 127.568 -2.80076 2.82493 0
M  V30 1331 H 124.307 -3.02755 5.81394 0
M  V30 1332 H 123.827 -4.0404 4.43297 0
M  V30 1333 H 125.506 -4.07383 5.02641 0
M  V30 1334 N 125.638 -1.25649 -0.95132 0
M  V30 1335 C 126.588 -1.03004 -2.03406 0
M  V30 1336 C 127.572 0.034187 -1.60864 0
M  V30 1337 O 128.764 -0.181549 -1.76066 0
M  V30 1338 C 125.893 -0.654255 -3.37008 0
M  V30 1339 C 124.979 -1.75542 -3.86065 0
M  V30 1340 N 125.37 -2.99113 -4.07879 0
M  V30 1341 C 123.668 -1.63669 -4.14884 0
M  V30 1342 C 124.369 -3.70611 -4.48356 0
M  V30 1343 N 123.345 -2.98247 -4.54477 0
M  V30 1344 H 127.147 -1.96813 -2.1827 0
M  V30 1345 H 124.661 -1.16017 -1.13639 0
M  V30 1346 H 126.658 -0.473206 -4.14206 0
M  V30 1347 H 125.318 0.276468 -3.23521 0
M  V30 1348 H 126.329 -3.35124 -3.94857 0
M  V30 1349 H 123.006 -0.775161 -4.10241 0
M  V30 1350 H 124.396 -4.76695 -4.73509 0
M  V30 1351 N 127.117 1.15442 -1.07289 0
M  V30 1352 C 128.363 1.86489 -0.796846 0
M  V30 1353 C 128.696 1.82078 0.675371 0
M  V30 1354 O 127.971 1.24346 1.4956 0
M  V30 1355 C 128.254 3.35626 -1.30489 0
M  V30 1356 C 128.107 3.48673 -2.84161 0
M  V30 1357 C 129.426 4.30357 -0.920907 0
M  V30 1358 H 126.545 0.677144 -0.290939 0
M  V30 1359 H 129.187 1.35633 -1.33056 0
M  V30 1360 H 127.337 3.79068 -0.850883 0
M  V30 1361 H 129.009 3.14099 -3.37846 0
M  V30 1362 H 127.252 2.90253 -3.22391 0
M  V30 1363 H 127.923 4.53453 -3.14777 0
M  V30 1364 H 130.399 3.94871 -1.3121 0
M  V30 1365 H 129.275 5.33193 -1.30372 0
M  V30 1366 H 129.536 4.4176 0.173226 0
M  V30 1367 N 128.595 0.856903 1.32268 0
M  V30 1368 C 129.843 0.460474 1.96784 0
M  V30 1369 C 130.164 -0.987701 1.68135 0
M  V30 1370 O 129.434 -1.69058 0.989765 0
M  V30 1371 H 128.014 0.167289 0.728027 0
M  V30 1372 H 130.676 1.09383 1.61312 0
M  V30 1373 H 129.772 0.60739 3.06133 0
M  V30 1374 N 130.073 -1.45103 0.615059 0
M  V30 1375 C 131.32 -2.02183 0.113179 0
M  V30 1376 C 131.648 -1.48249 -1.25906 0
M  V30 1377 O 130.903 -0.650265 -1.84581 0
M  V30 1378 C 131.202 -3.57386 0.0318797 0
M  V30 1379 C 130.868 -4.30505 1.34077 0
M  V30 1380 C 129.53 -4.50197 1.69929 0
M  V30 1381 C 131.882 -4.72238 2.20546 0
M  V30 1382 C 129.21 -5.08881 2.91988 0
M  V30 1383 C 131.562 -5.32272 3.41861 0
M  V30 1384 C 130.226 -5.50187 3.77956 0
M  V30 1385 H 129.496 -0.739842 0.0414151 0
M  V30 1386 H 132.143 -1.74073 0.798168 0
M  V30 1387 H 130.448 -3.84817 -0.736409 0
M  V30 1388 H 132.145 -3.99264 -0.372712 0
M  V30 1389 H 128.735 -4.15496 1.05173 0
M  V30 1390 H 132.919 -4.56751 1.94146 0
M  V30 1391 H 128.175 -5.20939 3.2005 0
M  V30 1392 H 132.349 -5.63563 4.09109 0
M  V30 1393 H 129.976 -5.95427 4.72622 0
M  V30 1394 N 131.551 -0.354651 -1.53558 0
M  V30 1395 C 132.828 0.294281 -1.93374 0
M  V30 1396 C 133.208 1.67313 -1.28723 0
M  V30 1397 O 132.556 2.24179 -0.442247 0
M  V30 1398 C 132.766 0.355445 -3.47185 0
M  V30 1399 C 134.114 0.601007 -4.20325 0
M  V30 1400 O 135.138 0.437106 -3.53508 0
M  V30 1401 O 133.997 0.919322 -5.38712 0
M  V30 1402 H 131.091 0.174033 -0.808481 0
M  V30 1403 H 133.637 -0.406638 -1.64756 0
M  V30 1404 H 132.409 -0.611729 -3.86489 0
M  V30 1405 H 132.032 1.1027 -3.82003 0
M  V30 1406 N 133.029 1.57378 -0.0835403 0
M  V30 1407 C 133.992 2.12252 0.864959 0
M  V30 1408 C 134.992 1.04916 1.21858 0
M  V30 1409 O 136.182 1.30853 1.14991 0
M  V30 1410 C 133.314 2.63358 2.16461 0
M  V30 1411 H 134.507 2.97371 0.388676 0
M  V30 1412 H 132.06 1.55423 0.165317 0
M  V30 1413 H 132.795 1.81727 2.686 0
M  V30 1414 H 132.58 3.41826 1.92087 0
M  V30 1415 H 134.07 3.05847 2.84337 0
M  V30 1416 N 134.507 -0.190092 1.56449 0
M  V30 1417 C 135.753 -0.911052 1.81184 0
M  V30 1418 C 136.086 -1.82699 0.658396 0
M  V30 1419 O 135.361 -1.91491 -0.340775 0
M  V30 1420 C 135.644 -1.72297 3.16205 0
M  V30 1421 C 135.497 -0.831419 4.42049 0
M  V30 1422 C 136.816 -2.69454 3.47969 0
M  V30 1423 H 133.935 -0.32977 0.659106 0
M  V30 1424 H 136.577 -0.178169 1.89163 0
M  V30 1425 H 134.727 -2.34778 3.09534 0
M  V30 1426 H 136.399 -0.220929 4.60771 0
M  V30 1427 H 134.642 -0.138406 4.33579 0
M  V30 1428 H 135.313 -1.43461 5.33032 0
M  V30 1429 H 137.789 -2.17104 3.54972 0
M  V30 1430 H 136.665 -3.23342 4.43555 0
M  V30 1431 H 136.926 -3.48744 2.71717 0
M  V30 1432 N 135.985 -1.50799 -0.457987 0
M  V30 1433 C 137.213 -1.66218 -1.23203 0
M  V30 1434 C 137.628 -0.350894 -1.85511 0
M  V30 1435 O 136.985 0.668546 -1.69814 0
M  V30 1436 C 137.036 -2.76291 -2.33121 0
M  V30 1437 O 136.757 -4.02338 -1.73366 0
M  V30 1438 C 138.258 -3.028 -3.2377 0
M  V30 1439 H 135.478 -0.558361 -0.372121 0
M  V30 1440 H 138.022 -1.97099 -0.545179 0
M  V30 1441 H 136.177 -2.48068 -2.97558 0
M  V30 1442 H 136.591 -4.63312 -2.4585 0
M  V30 1443 H 138.065 -3.8345 -3.97077 0
M  V30 1444 H 138.542 -2.14385 -3.83322 0
M  V30 1445 H 139.148 -3.32604 -2.65056 0
M  V30 1446 N 137.463 0.71206 -1.40597 0
M  V30 1447 C 138.711 1.46907 -1.38791 0
M  V30 1448 C 139.032 1.94998 0.00780391 0
M  V30 1449 O 138.302 1.70587 0.963174 0
M  V30 1450 H 136.882 0.545043 -0.51082 0
M  V30 1451 H 139.544 0.843882 -1.75683 0
M  V30 1452 H 138.64 2.34021 -2.06496 0
M  V30 1453 N 138.941 1.26152 0.944643 0
M  V30 1454 C 139.851 1.09176 2.07648 0
M  V30 1455 C 140.867 0.0261935 1.7398 0
M  V30 1456 O 142.043 0.229208 2.00091 0
M  V30 1457 C 139.108 0.722915 3.39079 0
M  V30 1458 C 138.169 1.86752 3.86552 0
M  V30 1459 C 137.402 1.51617 5.11711 0
M  V30 1460 O 137.625 0.416331 5.68879 0
M  V30 1461 O 136.559 2.34975 5.54139 0
M  V30 1462 H 140.385 2.0412 2.24875 0
M  V30 1463 H 137.97 1.05182 1.061 0
M  V30 1464 H 139.852 0.529787 4.18056 0
M  V30 1465 H 138.527 -0.197159 3.23099 0
M  V30 1466 H 137.434 2.11558 3.08535 0
M  V30 1467 H 138.767 2.76719 4.07047 0
M  V30 1468 N 140.419 -1.14872 1.07899 0
M  V30 1469 C 141.666 -1.85789 0.805532 0
M  V30 1470 C 141.994 -1.82649 -0.668561 0
M  V30 1471 O 141.249 -1.24858 -1.50695 0
M  V30 1472 C 141.548 -3.34223 1.26609 0
M  V30 1473 C 141.214 -3.57555 2.74709 0
M  V30 1474 C 139.876 -3.63631 3.1516 0
M  V30 1475 C 142.228 -3.66803 3.70277 0
M  V30 1476 C 139.556 -3.76473 4.49983 0
M  V30 1477 C 141.908 -3.8117 5.04869 0
M  V30 1478 C 140.572 -3.85494 5.44932 0
M  V30 1479 H 139.842 -0.679849 0.294765 0
M  V30 1480 H 142.489 -1.3572 1.35101 0
M  V30 1481 H 140.794 -3.86536 0.640103 0
M  V30 1482 H 142.491 -3.87511 1.03132 0
M  V30 1483 H 139.081 -3.5347 2.42398 0
M  V30 1484 H 143.265 -3.61404 3.40149 0
M  V30 1485 H 138.521 -3.7808 4.80484 0
M  V30 1486 H 142.695 -3.87268 5.78789 0
M  V30 1487 H 140.322 -3.95197 6.49403 0
M  V30 1488 N 141.898 -0.863906 -1.31812 0
M  V30 1489 C 143.126 -0.486111 -2.01108 0
M  V30 1490 C 143.541 0.919755 -1.64882 0
M  V30 1491 O 142.898 1.60162 -0.874893 0
M  V30 1492 C 142.949 -0.626435 -3.56031 0
M  V30 1493 O 142.67 -1.97693 -3.90959 0
M  V30 1494 C 144.171 -0.248857 -4.42601 0
M  V30 1495 H 141.391 -0.190052 -0.643523 0
M  V30 1496 H 143.935 -1.1634 -1.68182 0
M  V30 1497 H 142.09 0.00322717 -3.874 0
M  V30 1498 H 142.504 -1.98034 -4.85678 0
M  V30 1499 H 143.978 -0.398016 -5.50563 0
M  V30 1500 H 144.455 0.811489 -4.31638 0
M  V30 1501 H 145.061 -0.853971 -4.16638 0
M  V30 1502 N 143.376 1.44774 -0.622745 0
M  V30 1503 C 144.624 2.01721 -0.123655 0
M  V30 1504 C 144.945 1.49172 1.25589 0
M  V30 1505 O 144.215 0.691974 1.83272 0
M  V30 1506 H 142.795 0.745777 -0.0427225 0
M  V30 1507 H 145.457 1.77382 -0.807559 0
M  V30 1508 H 144.553 3.11984 -0.0849534 0
M  V30 1509 N 144.854 0.36279 1.53368 0
M  V30 1510 C 145.787 -0.528507 2.21996 0
M  V30 1511 C 146.765 -1.0852 1.21087 0
M  V30 1512 O 147.949 -1.14186 1.4998 0
M  V30 1513 C 145.076 -1.72893 2.91249 0
M  V30 1514 C 144.122 -1.29994 4.06207 0
M  V30 1515 S 144.955 -0.303575 5.34639 0
M  V30 1516 C 146.111 -1.51039 6.07403 0
M  V30 1517 H 146.344 0.0543423 2.9725 0
M  V30 1518 H 143.877 0.146889 1.537 0
M  V30 1519 H 145.835 -2.41751 3.31763 0
M  V30 1520 H 144.496 -2.28303 2.15724 0
M  V30 1521 H 143.689 -2.19549 4.53667 0
M  V30 1522 H 143.291 -0.690608 3.67569 0
M  V30 1523 H 145.583 -2.44186 6.31965 0
M  V30 1524 H 146.526 -1.07721 6.99858 0
M  V30 1525 H 146.934 -1.71518 5.37812 0
M  V30 1526 N 146.332 -1.57332 0.0918853 0
M  V30 1527 C 147.743 -1.81496 -0.437739 0
M  V30 1528 C 148.094 -1.00727 -1.6837 0
M  V30 1529 O 147.219 -0.235694 -2.15113 0
M  V30 1530 C 147.814 -3.29197 -0.800939 0
M  V30 1531 C 146.373 -3.54136 -1.27532 0
M  V30 1532 C 145.52 -2.75979 -0.270392 0
M  V30 1533 H 148.471 -1.55494 0.317366 0
M  V30 1534 H 148.492 -3.42344 -1.66074 0
M  V30 1535 H 148.004 -3.87955 0.106078 0
M  V30 1536 H 146.105 -3.00705 -2.20016 0
M  V30 1537 H 146.218 -4.62792 -1.23938 0
M  V30 1538 H 144.582 -2.43349 -0.751872 0
M  V30 1539 H 145.365 -3.37484 0.629248 0
M  V30 1540 N 147.81 0.181792 -1.56548 0
M  V30 1541 C 148.72 1.24538 -1.98815 0
M  V30 1542 C 149.736 1.49045 -0.897861 0
M  V30 1543 O 150.912 1.61399 -1.20467 0
M  V30 1544 C 147.977 2.56683 -2.33055 0
M  V30 1545 C 147.038 2.40131 -3.55859 0
M  V30 1546 C 146.271 3.65975 -3.88456 0
M  V30 1547 O 146.494 4.70711 -3.22161 0
M  V30 1548 O 145.428 3.6071 -4.81842 0
M  V30 1549 H 149.254 0.916647 -2.89536 0
M  V30 1550 H 146.839 0.387842 -1.44278 0
M  V30 1551 H 148.721 3.34655 -2.56094 0
M  V30 1552 H 147.396 2.89157 -1.45498 0
M  V30 1553 H 146.303 1.60226 -3.38051 0
M  V30 1554 H 147.636 2.12585 -4.43924 0
M  V30 1555 N 149.288 1.51039 0.449983 0
M  V30 1556 C 150.22 1.67617 1.56324 0
M  V30 1557 C 151.233 0.557083 1.52972 0
M  V30 1558 O 152.422 0.830989 1.57977 0
M  V30 1559 C 149.522 1.66402 2.95235 0
M  V30 1560 C 148.695 2.9469 3.23229 0
M  V30 1561 C 147.754 2.85832 4.41799 0
M  V30 1562 O 146.78 3.59785 4.41071 0
M  V30 1563 N 147.982 2.00821 5.44657 0
M  V30 1564 H 150.747 2.63648 1.42512 0
M  V30 1565 H 148.308 1.48767 0.638737 0
M  V30 1566 H 150.3 1.58062 3.72557 0
M  V30 1567 H 148.87 0.780182 3.02708 0
M  V30 1568 H 148.09 3.16996 2.34323 0
M  V30 1569 H 149.378 3.79636 3.38754 0
M  V30 1570 H 148.776 1.40091 5.48079 0
M  V30 1571 H 147.333 1.98368 6.20881 0
M  V30 1572 N 150.766 -0.704594 1.40972 0
M  V30 1573 C 152.012 -1.46546 1.41053 0
M  V30 1574 C 152.367 -1.92393 0.0159714 0
M  V30 1575 O 151.66 -1.66017 -0.956506 0
M  V30 1576 C 151.854 -2.698 2.34399 0
M  V30 1577 C 151.683 -2.36008 3.82793 0
M  V30 1578 C 150.453 -2.26812 4.51536 0
M  V30 1579 C 152.651 -1.99565 4.74003 0
M  V30 1580 N 150.633 -1.8581 5.85105 0
M  V30 1581 C 152.004 -1.69251 5.96451 0
M  V30 1582 C 154.059 -1.86296 4.61734 0
M  V30 1583 C 152.762 -1.27003 7.07999 0
M  V30 1584 C 154.788 -1.45452 5.73234 0
M  V30 1585 C 154.15 -1.16043 6.94776 0
M  V30 1586 H 150.249 -0.533896 0.571383 0
M  V30 1587 H 152.833 -0.816061 1.76773 0
M  V30 1588 H 151.004 -3.32473 2.00789 0
M  V30 1589 H 152.736 -3.36214 2.25261 0
M  V30 1590 H 149.491 -2.44913 4.05357 0
M  V30 1591 H 149.915 -1.67817 6.55871 0
M  V30 1592 H 154.557 -2.0769 3.68273 0
M  V30 1593 H 152.275 -1.04353 8.01334 0
M  V30 1594 H 155.861 -1.35748 5.65742 0
M  V30 1595 H 154.741 -0.84915 7.79589 0
M  V30 1596 N 152.244 -1.26651 -0.937939 0
M  V30 1597 C 153.207 -1.08546 -2.01867 0
M  V30 1598 C 154.207 -0.0327327 -1.60767 0
M  V30 1599 O 155.397 -0.276427 -1.71993 0
M  V30 1600 C 152.529 -0.651711 -3.34613 0
M  V30 1601 H 153.722 -2.04502 -2.1936 0
M  V30 1602 H 151.275 -1.09294 -1.11734 0
M  V30 1603 H 152.01 0.309696 -3.22818 0
M  V30 1604 H 151.795 -1.41189 -3.65798 0
M  V30 1605 H 153.285 -0.546973 -4.14002 0
M  V30 1606 N 153.722 1.14298 -1.08507 0
M  V30 1607 C 155.138 1.37347 -0.812901 0
M  V30 1608 C 155.338 1.93052 0.577325 0
M  V30 1609 O 154.394 2.14389 1.33393 0
M  V30 1610 C 155.707 2.33359 -1.89642 0
M  V30 1611 C 157.255 2.46996 -1.92255 0
M  V30 1612 C 157.73 3.46309 -2.99724 0
M  V30 1613 N 159.221 3.53853 -2.98902 0
M  V30 1614 C 159.956 4.3055 -3.787 0
M  V30 1615 N 159.452 5.10482 -4.6838 0
M  V30 1616 N 161.245 4.25757 -3.66998 0
M  V30 1617 H 153.396 0.764867 -1.9815 0
M  V30 1618 H 155.659 0.398966 -0.859959 0
M  V30 1619 H 155.365 1.99565 -2.89597 0
M  V30 1620 H 155.239 3.33274 -1.76659 0
M  V30 1621 H 157.626 2.80081 -0.929445 0
M  V30 1622 H 157.707 1.47039 -2.09316 0
M  V30 1623 H 157.351 3.13957 -3.99241 0
M  V30 1624 H 157.281 4.46049 -2.79907 0
M  V30 1625 H 159.772 2.96812 -2.33904 0
M  V30 1626 H 160.085 5.66284 -5.25873 0
M  V30 1627 H 158.43 5.09747 -4.72422 0
M  V30 1628 H 161.621 3.62383 -2.96304 0
M  V30 1629 H 161.794 4.85279 -4.29427 0
M  V30 1630 N 155.201 0.870884 1.31352 0
M  V30 1631 C 156.131 0.343096 2.30966 0
M  V30 1632 C 157.112 -0.566507 1.60389 0
M  V30 1633 O 158.297 -0.483336 1.88089 0
M  V30 1634 C 155.427 -0.455487 3.443 0
M  V30 1635 C 154.381 0.361103 4.26474 0
M  V30 1636 C 153.707 -0.563221 5.31725 0
M  V30 1637 C 155.007 1.59566 4.97329 0
M  V30 1638 H 156.701 1.17548 2.75359 0
M  V30 1639 H 154.247 0.566686 1.32381 0
M  V30 1640 H 156.2 -0.83525 4.13039 0
M  V30 1641 H 154.924 -1.32139 2.98675 0
M  V30 1642 H 153.583 0.722825 3.59403 0
M  V30 1643 H 153.231 -1.42643 4.82351 0
M  V30 1644 H 152.931 -0.0207409 5.87596 0
M  V30 1645 H 154.455 -0.939808 6.03324 0
M  V30 1646 H 155.869 1.28728 5.58661 0
M  V30 1647 H 154.266 2.07728 5.63 0
M  V30 1648 H 155.336 2.34798 4.24262 0
M  V30 1649 N 156.679 -1.44442 0.630414 0
M  V30 1650 C 157.609 -2.33418 -0.0618083 0
M  V30 1651 C 158.59 -1.48165 -0.835541 0
M  V30 1652 O 159.775 -1.76886 -0.801564 0
M  V30 1653 C 156.905 -3.31222 -1.04449 0
M  V30 1654 C 155.859 -4.26288 -0.382436 0
M  V30 1655 C 155.185 -5.13954 -1.47497 0
M  V30 1656 C 156.485 -5.1744 0.710865 0
M  V30 1657 H 158.179 -2.91548 0.681184 0
M  V30 1658 H 155.725 -1.40191 0.329026 0
M  V30 1659 H 157.678 -3.92351 -1.53748 0
M  V30 1660 H 156.402 -2.71299 -1.81836 0
M  V30 1661 H 155.061 -3.6649 0.0899054 0
M  V30 1662 H 154.709 -4.50385 -2.2397 0
M  V30 1663 H 154.409 -5.7837 -1.03737 0
M  V30 1664 H 155.933 -5.77955 -1.96979 0
M  V30 1665 H 157.347 -5.72509 0.300996 0
M  V30 1666 H 155.744 -5.90455 1.07156 0
M  V30 1667 H 156.814 -4.58496 1.57829 0
M  V30 1668 N 158.157 -0.370918 -1.53173 0
M  V30 1669 C 159.089 0.507823 -2.23503 0
M  V30 1670 C 160.102 1.04182 -1.251 0
M  V30 1671 O 161.291 0.947286 -1.5129 0
M  V30 1672 C 158.391 1.71447 -2.92334 0
M  V30 1673 C 157.564 1.31105 -4.17289 0
M  V30 1674 C 156.623 2.38035 -4.69282 0
M  V30 1675 O 155.649 2.00204 -5.32829 0
M  V30 1676 N 156.851 3.69697 -4.47554 0
M  V30 1677 H 159.616 -0.0946382 -2.99551 0
M  V30 1678 H 157.177 -0.196358 -1.60705 0
M  V30 1679 H 159.169 2.42469 -3.24023 0
M  V30 1680 H 157.739 2.22368 -2.19707 0
M  V30 1681 H 156.959 0.430462 -3.91843 0
M  V30 1682 H 158.247 1.0179 -4.98514 0
M  V30 1683 H 157.645 4.03205 -3.9679 0
M  V30 1684 H 156.202 4.36807 -4.8378 0
M  V30 1685 N 159.635 1.57281 -0.100228 0
M  V30 1686 C 160.863 1.98879 0.570509 0
M  V30 1687 C 161.278 0.979476 1.61405 0
M  V30 1688 O 160.635 -0.0302288 1.82475 0
M  V30 1689 C 160.686 3.4052 1.2136 0
M  V30 1690 O 160.407 4.37588 0.211786 0
M  V30 1691 C 161.908 3.97149 1.96945 0
M  V30 1692 H 159.128 0.653428 0.152555 0
M  V30 1693 H 161.672 2.03697 -0.18103 0
M  V30 1694 H 159.827 3.367 1.91603 0
M  V30 1695 H 160.241 5.20118 0.676607 0
M  V30 1696 H 161.715 4.98393 2.37294 0
M  V30 1697 H 162.192 3.3525 2.83733 0
M  V30 1698 H 162.798 4.04458 1.31506 0
M  V30 1699 N 161.113 -0.173488 1.56642 0
M  V30 1700 C 162.338 -0.910149 1.86363 0
M  V30 1701 C 162.763 -1.75132 0.686318 0
M  V30 1702 O 162.121 -1.77595 -0.364643 0
M  V30 1703 C 162.169 -1.76447 3.14482 0
M  V30 1704 O 161.273 -2.86584 2.96553 0
M  V30 1705 H 160.614 -0.255086 0.613047 0
M  V30 1706 H 163.144 -0.172283 2.03873 0
M  V30 1707 H 163.154 -2.16483 3.45831 0
M  V30 1708 H 161.829 -1.14658 3.99783 0
M  V30 1709 H 160.406 -2.50146 2.76553 0
M  V30 1710 N 162.591 -1.51276 -0.441967 0
M  V30 1711 C 163.539 -1.72823 -1.55676 0
M  V30 1712 C 164.533 -0.59445 -1.58627 0
M  V30 1713 O 165.739 -0.775715 -1.62427 0
M  V30 1714 H 162.114 -0.545983 -0.517113 0
M  V30 1715 H 164.085 -2.6628 -1.34675 0
M  V30 1716 C 162.834 -1.86619 -2.93375 0
M  V30 1717 H 162.157 -2.73264 -2.91834 0
M  V30 1718 H 163.597 -2.05709 -3.70756 0
M  V30 1719 C 162.056 -0.624842 -3.31055 0
M  V30 1720 O 162.586 0.222636 -4.01083 0
M  V30 1721 N 160.792 -0.470288 -2.86769 0
M  V30 1722 H 160.339 -1.161 -2.29953 0
M  V30 1723 H 160.297 0.359051 -3.12343 0
M  V30 1724 N 164.069 0.697108 -1.41344 0
M  V30 1725 C 165.318 1.45279 -1.39918 0
M  V30 1726 C 165.631 1.95597 -0.0109624 0
M  V30 1727 O 166.837 2.71208 0.125919 0
M  V30 1728 C 165.293 2.62695 -2.46007 0
M  V30 1729 C 164.901 2.19169 -3.90729 0
M  V30 1730 C 166.645 3.40336 -2.53715 0
M  V30 1731 C 164.552 3.33535 -4.88373 0
M  V30 1732 H 163.482 0.545692 -0.520323 0
M  V30 1733 H 166.133 0.756929 -1.67161 0
M  V30 1734 H 164.515 3.34541 -2.11892 0
M  V30 1735 H 165.689 1.54623 -4.34083 0
M  V30 1736 H 164.004 1.54525 -3.86666 0
M  V30 1737 H 166.601 4.2547 -3.2385 0
M  V30 1738 H 166.944 3.85418 -1.5735 0
M  V30 1739 H 167.477 2.75546 -2.86913 0
M  V30 1740 H 164.216 2.93468 -5.86137 0
M  V30 1741 H 163.736 3.96936 -4.49668 0
M  V30 1742 H 165.415 3.99335 -5.09059 0
M  V30 1743 N 165.547 1.27147 0.931209 0
M  V30 1744 C 166.775 1.16082 1.71267 0
M  V30 1745 C 167.19 -0.282772 1.8667 0
M  V30 1746 O 166.547 -1.19283 1.38122 0
M  V30 1747 C 166.598 1.8358 3.11417 0
M  V30 1748 O 166.319 3.22299 2.96741 0
M  V30 1749 C 167.82 1.78597 4.05732 0
M  V30 1750 H 165.04 0.403758 0.535929 0
M  V30 1751 H 167.584 1.67953 1.16671 0
M  V30 1752 H 165.739 1.35623 3.62885 0
M  V30 1753 H 166.153 3.55851 3.85319 0
M  V30 1754 H 167.627 2.30444 5.01597 0
M  V30 1755 H 168.104 0.754564 4.3267 0
M  V30 1756 H 168.71 2.26152 3.60188 0
M  V30 1757 N 167.025 -1.13721 1.09112 0
M  V30 1758 C 167.972 -2.19031 0.727591 0
M  V30 1759 C 168.942 -1.63555 -0.289656 0
M  V30 1760 O 170.127 -1.90023 -0.172026 0
M  V30 1761 C 167.267 -3.4477 0.15082 0
M  V30 1762 C 166.38 -4.14365 1.22172 0
M  V30 1763 C 165.515 -5.27709 0.608042 0
M  V30 1764 C 164.554 -5.89147 1.66047 0
M  V30 1765 N 163.691 -6.93929 1.06806 0
M  V30 1766 H 168.531 -2.49475 1.62991 0
M  V30 1767 H 166.068 -1.22499 0.81439 0
M  V30 1768 H 168.026 -4.16714 -0.201358 0
M  V30 1769 H 166.656 -3.14787 -0.714783 0
M  V30 1770 H 165.708 -3.40737 1.69122 0
M  V30 1771 H 167.02 -4.56114 2.01895 0
M  V30 1772 H 166.174 -6.06355 0.204523 0
M  V30 1773 H 164.913 -4.872 -0.220769 0
M  V30 1774 H 163.918 -5.09198 2.07357 0
M  V30 1775 H 165.143 -6.31729 2.49189 0
M  V30 1776 H 163.089 -6.55483 0.260476 0
M  V30 1777 H 163.006 -7.34202 1.8023 0
M  V30 1778 H 164.274 -7.76434 0.690644 0
M  V30 1779 N 168.503 -0.877838 -1.30888 0
M  V30 1780 C 169.728 -0.506629 -2.01117 0
M  V30 1781 C 170.153 0.895564 -1.65412 0
M  V30 1782 O 169.511 1.5923 -0.866922 0
M  V30 1783 C 169.559 -0.680223 -3.54126 0
M  V30 1784 O 168.663 0.277033 -4.11468 0
M  V30 1785 H 168.004 -0.200518 -0.633 0
M  V30 1786 H 170.534 -1.18342 -1.66902 0
M  V30 1787 H 170.544 -0.5765 -4.03907 0
M  V30 1788 H 169.219 -1.70261 -3.79452 0
M  V30 1789 H 167.796 0.127606 -3.72682 0
M  V30 1790 N 169.982 1.44106 -0.638065 0
M  V30 1791 C 170.892 2.34513 0.0637334 0
M  V30 1792 C 171.908 1.53018 0.828346 0
M  V30 1793 O 173.084 1.85723 0.779036 0
M  V30 1794 C 170.149 3.31095 1.02844 0
M  V30 1795 C 169.21 4.28497 0.26244 0
M  V30 1796 C 168.443 5.20465 1.1812 0
M  V30 1797 O 168.666 5.16514 2.42011 0
M  V30 1798 O 167.6 5.98251 0.661774 0
M  V30 1799 H 171.426 2.95989 -0.68003 0
M  V30 1800 H 169.011 1.43994 -0.398252 0
M  V30 1801 H 170.893 3.90526 1.58327 0
M  V30 1802 H 169.568 2.72144 1.7527 0
M  V30 1803 H 168.475 3.72592 -0.335602 0
M  V30 1804 H 169.808 4.90388 -0.421936 0
M  V30 1805 N 171.46 0.379036 1.52974 0
M  V30 1806 C 172.392 -0.495963 2.2377 0
M  V30 1807 C 173.405 -1.03517 1.25651 0
M  V30 1808 O 174.594 -0.939249 1.51791 0
M  V30 1809 C 171.694 -1.69894 2.93239 0
M  V30 1810 C 170.867 -1.2889 4.17979 0
M  V30 1811 C 169.926 -2.35543 4.70538 0
M  V30 1812 O 168.952 -1.97375 5.33883 0
M  V30 1813 N 170.154 -3.67318 4.49508 0
M  V30 1814 H 172.919 0.110523 2.99496 0
M  V30 1815 H 170.48 0.204878 1.60598 0
M  V30 1816 H 172.472 -2.40747 3.25304 0
M  V30 1817 H 171.042 -2.212 2.20883 0
M  V30 1818 H 170.262 -0.409676 3.92065 0
M  V30 1819 H 171.55 -0.991443 4.99047 0
M  V30 1820 H 170.948 -4.01095 3.98923 0
M  V30 1821 H 169.505 -4.34235 4.8609 0
M  V30 1822 N 172.938 -1.57226 0.108567 0
M  V30 1823 C 173.885 -2.14756 -0.845481 0
M  V30 1824 C 174.855 -1.06971 -1.27068 0
M  V30 1825 O 176.04 -1.34827 -1.35005 0
M  V30 1826 C 173.18 -2.74298 -2.09415 0
M  V30 1827 C 172.293 -3.96358 -1.71826 0
M  V30 1828 C 171.428 -4.44021 -2.9158 0
M  V30 1829 C 170.467 -5.58637 -2.50181 0
M  V30 1830 N 169.604 -6.01091 -3.62814 0
M  V30 1831 H 174.444 -2.95961 -0.348035 0
M  V30 1832 H 171.981 -1.46226 -0.160106 0
M  V30 1833 H 173.939 -3.06945 -2.82561 0
M  V30 1834 H 172.569 -1.95801 -2.56636 0
M  V30 1835 H 171.621 -3.69939 -0.885947 0
M  V30 1836 H 172.933 -4.79504 -1.37394 0
M  V30 1837 H 172.087 -4.78522 -3.72963 0
M  V30 1838 H 170.826 -3.59803 -3.29231 0
M  V30 1839 H 169.831 -5.23751 -1.67228 0
M  V30 1840 H 171.056 -6.44613 -2.13659 0
M  V30 1841 H 169.002 -5.19817 -4.00158 0
M  V30 1842 H 168.919 -6.79066 -3.32273 0
M  V30 1843 H 170.187 -6.40227 -4.44668 0
M  V30 1844 N 174.416 0.165178 -1.56732 0
M  V30 1845 C 175.363 1.2044 -1.96883 0
M  V30 1846 C 176.333 1.43664 -0.833657 0
M  V30 1847 O 177.518 1.56302 -1.09427 0
M  V30 1848 C 174.658 2.53727 -2.33916 0
M  V30 1849 C 173.771 2.3783 -3.6064 0
M  V30 1850 C 172.906 3.64026 -3.86857 0
M  V30 1851 C 171.945 3.43088 -5.06909 0
M  V30 1852 N 171.082 4.61369 -5.29229 0
M  V30 1853 H 175.922 0.854996 -2.85471 0
M  V30 1854 H 173.459 0.41076 -1.41249 0
M  V30 1855 H 175.417 3.31419 -2.53411 0
M  V30 1856 H 174.047 2.8665 -1.48431 0
M  V30 1857 H 173.099 1.51282 -3.49024 0
M  V30 1858 H 174.411 2.18308 -4.4849 0
M  V30 1859 H 173.565 4.50152 -4.06753 0
M  V30 1860 H 172.304 3.86533 -2.97394 0
M  V30 1861 H 171.309 2.55349 -4.86906 0
M  V30 1862 H 172.534 3.21997 -5.97909 0
M  V30 1863 H 170.48 4.84084 -4.42718 0
M  V30 1864 H 170.397 4.44783 -6.11313 0
M  V30 1865 H 171.665 5.48761 -5.53608 0
M  V30 1866 N 175.894 1.51508 0.433938 0
M  V30 1867 C 176.842 1.73646 1.54757 0
M  V30 1868 C 177.836 0.602854 1.5831 0
M  V30 1869 O 179.042 0.784318 1.62014 0
M  V30 1870 H 175.417 0.548718 0.51421 0
M  V30 1871 H 177.388 2.66991 1.33261 0
M  V30 1872 C 176.137 1.88172 2.92381 0
M  V30 1873 H 175.46 2.74808 2.90381 0
M  V30 1874 H 176.9 2.07672 3.6966 0
M  V30 1875 C 175.359 0.64239 3.30719 0
M  V30 1876 O 175.889 -0.201362 4.01195 0
M  V30 1877 N 174.095 0.485489 2.86516 0
M  V30 1878 H 173.642 1.17318 2.29334 0
M  V30 1879 H 173.6 -0.342482 3.12529 0
M  V30 1880 N 177.372 -0.689602 1.41712 0
M  V30 1881 C 178.783 -1.26973 1.36875 0
M  V30 1882 C 179.134 -1.96124 0.054748 0
M  V30 1883 O 178.259 -1.99141 -0.84687 0
M  V30 1884 C 178.854 -2.30912 2.47922 0
M  V30 1885 C 177.413 -2.84486 2.46464 0
M  V30 1886 C 176.56 -1.58603 2.27465 0
M  V30 1887 H 179.511 -0.48396 1.51141 0
M  V30 1888 H 179.532 -3.12331 2.17323 0
M  V30 1889 H 179.044 -1.80554 3.43543 0
M  V30 1890 H 177.145 -3.39005 1.54617 0
M  V30 1891 H 177.258 -3.34511 3.42986 0
M  V30 1892 H 175.622 -1.84632 1.75451 0
M  V30 1893 H 176.405 -1.10233 3.25121 0
M  V30 1894 N 178.85 -1.27639 -0.924453 0
M  V30 1895 C 179.782 -1.06442 -2.02985 0
M  V30 1896 C 180.795 -0.0194771 -1.62788 0
M  V30 1897 O 181.984 -0.261388 -1.76576 0
M  V30 1898 C 179.084 -0.59327 -3.33667 0
M  V30 1899 C 178.257 -1.71123 -4.02537 0
M  V30 1900 C 177.316 -1.23527 -5.11495 0
M  V30 1901 O 176.342 -1.93553 -5.35281 0
M  V30 1902 N 177.544 -0.0926678 -5.80426 0
M  V30 1903 H 180.309 -2.01633 -2.2173 0
M  V30 1904 H 177.87 -1.19248 -1.09505 0
M  V30 1905 H 179.862 -0.258686 -4.03872 0
M  V30 1906 H 178.432 0.265502 -3.1147 0
M  V30 1907 H 177.652 -2.21593 -3.26022 0
M  V30 1908 H 178.94 -2.46145 -4.45298 0
M  V30 1909 H 178.338 0.491741 -5.63559 0
M  V30 1910 H 176.895 0.182714 -6.51544 0
M  V30 1911 N 180.328 1.1314 -1.09713 0
M  V30 1912 C 181.291 2.16831 -0.742751 0
M  V30 1913 C 182.291 1.59159 0.229129 0
M  V30 1914 O 183.481 1.74199 0.00693237 0
M  V30 1915 C 180.613 3.40756 -0.0989168 0
M  V30 1916 H 181.806 2.49695 -1.66109 0
M  V30 1917 H 179.359 1.2802 -0.896699 0
M  V30 1918 H 180.094 3.13485 0.830514 0
M  V30 1919 H 179.879 3.83888 -0.798265 0
M  V30 1920 H 181.369 4.17386 0.133524 0
M  V30 1921 N 181.806 0.884767 1.30421 0
M  V30 1922 C 183.052 0.503851 1.96441 0
M  V30 1923 C 183.385 -0.944518 1.69684 0
M  V30 1924 O 182.66 -1.66737 1.00145 0
M  V30 1925 C 182.943 0.779085 3.51571 0
M  V30 1926 C 182.796 2.27807 3.87846 0
M  V30 1927 C 184.115 0.255452 4.39358 0
M  V30 1928 H 181.234 0.184533 0.713524 0
M  V30 1929 H 183.876 1.10872 1.54297 0
M  V30 1930 H 182.026 0.264274 3.876 0
M  V30 1931 H 183.698 2.86127 3.61841 0
M  V30 1932 H 181.941 2.74479 3.35922 0
M  V30 1933 H 182.612 2.42125 4.96064 0
M  V30 1934 H 185.088 0.696079 4.10236 0
M  V30 1935 H 183.964 0.477361 5.4682 0
M  V30 1936 H 184.225 -0.843293 4.33983 0
M  V30 1937 N 183.284 -1.43765 0.645699 0
M  V30 1938 C 184.214 -2.33471 -0.0370477 0
M  V30 1939 C 185.195 -1.49042 -0.819779 0
M  V30 1940 O 186.38 -1.77726 -0.782758 0
M  V30 1941 C 183.51 -3.32311 -1.0093 0
M  V30 1942 C 182.464 -4.2667 -0.337201 0
M  V30 1943 C 181.79 -5.1549 -1.42037 0
M  V30 1944 C 183.09 -5.16657 0.765706 0
M  V30 1945 H 184.784 -2.90809 0.712069 0
M  V30 1946 H 182.33 -1.39834 0.343876 0
M  V30 1947 H 184.283 -3.9396 -1.49578 0
M  V30 1948 H 183.007 -2.73213 -1.78948 0
M  V30 1949 H 181.666 -3.66374 0.128771 0
M  V30 1950 H 181.314 -4.52735 -2.1918 0
M  V30 1951 H 181.014 -5.79438 -0.975966 0
M  V30 1952 H 182.538 -5.80012 -1.90838 0
M  V30 1953 H 183.952 -5.72158 0.361702 0
M  V30 1954 H 182.349 -5.89286 1.13413 0
M  V30 1955 H 183.419 -4.56796 1.62683 0
M  V30 1956 N 184.763 -0.387143 -1.52771 0
M  V30 1957 C 186.04 0.253197 -1.93954 0
M  V30 1958 C 186.42 1.64545 -1.32243 0
M  V30 1959 O 185.768 2.23191 -0.489699 0
M  V30 1960 C 185.978 0.281722 -3.47861 0
M  V30 1961 C 187.326 0.511715 -4.21505 0
M  V30 1962 O 188.35 0.362023 -3.54356 0
M  V30 1963 O 187.209 0.804847 -5.40541 0
M  V30 1964 H 184.303 0.156845 -0.811991 0
M  V30 1965 H 186.849 -0.441494 -1.63856 0
M  V30 1966 H 185.621 -0.693571 -3.85104 0
M  V30 1967 H 185.244 1.02142 -3.84256 0
M  V30 1968 N 186.241 1.57166 -0.116904 0
M  V30 1969 C 187.487 1.95412 0.542405 0
M  V30 1970 C 187.82 1.00019 1.66463 0
M  V30 1971 O 187.095 0.0370346 1.94465 0
M  V30 1972 C 187.378 3.43615 1.07708 0
M  V30 1973 C 187.231 4.49781 -0.0415868 0
M  V30 1974 C 188.55 3.93616 1.96861 0
M  V30 1975 H 185.669 0.710543 0.195696 0
M  V30 1976 H 188.311 1.89027 -0.192038 0
M  V30 1977 H 186.461 3.49187 1.70296 0
M  V30 1978 H 188.133 4.56308 -0.676793 0
M  V30 1979 H 186.376 4.28033 -0.705019 0
M  V30 1980 H 187.047 5.50733 0.373717 0
M  V30 1981 H 189.523 3.90335 1.44146 0
M  V30 1982 H 188.399 4.97838 2.3119 0
M  V30 1983 H 188.66 3.34188 2.89432 0
M  V30 1984 N 187.719 -0.156864 1.56817 0
M  V30 1985 C 188.649 -1.19589 2.00551 0
M  V30 1986 C 189.63 -1.4536 0.883426 0
M  V30 1987 O 190.815 -1.56449 1.15054 0
M  V30 1988 C 187.945 -2.53143 2.37773 0
M  V30 1989 C 186.899 -2.41913 3.53075 0
M  V30 1990 C 186.225 -3.80088 3.76081 0
M  V30 1991 C 187.525 -1.91157 4.86062 0
M  V30 1992 H 189.219 -0.832293 2.87599 0
M  V30 1993 H 186.765 -0.398918 1.38364 0
M  V30 1994 H 188.718 -3.26047 2.66967 0
M  V30 1995 H 187.442 -2.91319 1.4765 0
M  V30 1996 H 186.101 -1.71462 3.24031 0
M  V30 1997 H 185.749 -4.15683 2.83225 0
M  V30 1998 H 185.449 -3.73439 4.53671 0
M  V30 1999 H 186.973 -4.54556 4.0769 0
M  V30 2000 H 188.387 -2.53846 5.14038 0
M  V30 2001 H 186.784 -1.95422 5.67389 0
M  V30 2002 H 187.854 -0.866673 4.77092 0
M  V30 2003 N 189.197 -1.51736 -0.425897 0
M  V30 2004 C 190.107 -1.76738 -1.54275 0
M  V30 2005 C 191.123 -0.65211 -1.61318 0
M  V30 2006 O 192.299 -0.935654 -1.78346 0
M  V30 2007 C 189.364 -1.89755 -2.90162 0
M  V30 2008 C 188.425 -3.13633 -2.93143 0
M  V30 2009 C 187.658 -3.2602 -4.22548 0
M  V30 2010 O 187.881 -2.44067 -5.15546 0
M  V30 2011 O 186.815 -4.19071 -4.32046 0
M  V30 2012 H 190.641 -2.71502 -1.36089 0
M  V30 2013 H 188.226 -1.36376 -0.610069 0
M  V30 2014 H 190.108 -2.00236 -3.70788 0
M  V30 2015 H 188.783 -0.981785 -3.08452 0
M  V30 2016 H 187.69 -3.08622 -2.11431 0
M  V30 2017 H 189.023 -4.04936 -2.798 0
M  V30 2018 N 190.675 0.682077 -1.42076 0
M  V30 2019 C 191.922 1.44215 -1.42156 0
M  V30 2020 C 192.25 1.94468 -0.0354186 0
M  V30 2021 O 191.505 1.70816 0.955002 0
M  V30 2022 C 191.804 2.66036 -2.38662 0
M  V30 2023 C 191.47 2.34366 -3.85206 0
M  V30 2024 C 190.132 2.25439 -4.25124 0
M  V30 2025 C 192.484 2.08513 -4.77673 0
M  V30 2026 C 189.812 1.88775 -5.55501 0
M  V30 2027 C 192.164 1.73354 -6.08384 0
M  V30 2028 C 190.828 1.62933 -6.47309 0
M  V30 2029 H 190.098 0.527718 -0.520187 0
M  V30 2030 H 192.745 0.778387 -1.74967 0
M  V30 2031 H 191.05 3.3741 -1.99152 0
M  V30 2032 H 192.747 3.24205 -2.35991 0
M  V30 2033 H 189.337 2.42213 -3.53597 0
M  V30 2034 H 193.521 2.14346 -4.47626 0
M  V30 2035 H 188.777 1.7927 -5.84527 0
M  V30 2036 H 192.951 1.52373 -6.79526 0
M  V30 2037 H 190.578 1.34292 -7.48244 0
M  V30 2038 N 192.153 1.28127 0.917671 0
M  V30 2039 C 193.383 1.17722 1.6978 0
M  V30 2040 C 193.791 -0.267261 1.87303 0
M  V30 2041 O 193.134 -1.19286 1.39702 0
M  V30 2042 C 193.196 1.79958 3.11216 0
M  V30 2043 C 192.86 3.29187 3.16993 0
M  V30 2044 C 193.857 4.25679 2.98485 0
M  V30 2045 C 191.542 3.70075 3.39632 0
M  V30 2046 C 193.536 5.61035 3.02521 0
M  V30 2047 C 191.223 5.05557 3.433 0
M  V30 2048 C 192.221 6.00847 3.24764 0
M  V30 2049 O 191.909 7.33859 3.28187 0
M  V30 2050 H 191.641 0.409788 0.537634 0
M  V30 2051 H 194.195 1.69694 1.15728 0
M  V30 2052 H 192.425 1.22475 3.66793 0
M  V30 2053 H 194.114 1.64125 3.71238 0
M  V30 2054 H 194.88 3.95426 2.80826 0
M  V30 2055 H 190.759 2.96373 3.53106 0
M  V30 2056 H 194.303 6.35388 2.87971 0
M  V30 2057 H 190.2 5.35462 3.60486 0
M  V30 2058 H 190.968 7.42436 3.44575 0
M  V30 2059 N 193.631 -1.12557 1.10312 0
M  V30 2060 C 194.579 -2.20325 0.745629 0
M  V30 2061 C 195.573 -1.67429 -0.25763 0
M  V30 2062 O 196.779 -1.79612 -0.118132 0
M  V30 2063 H 193.154 -0.718118 0.223182 0
M  V30 2064 H 195.125 -2.47733 1.66346 0
M  V30 2065 C 193.874 -3.47168 0.192262 0
M  V30 2066 H 193.197 -3.88215 0.955475 0
M  V30 2067 H 194.637 -4.23995 -0.0198274 0
M  V30 2068 C 193.096 -3.19298 -1.07472 0
M  V30 2069 O 193.626 -3.3891 -2.15645 0
M  V30 2070 N 191.832 -2.73113 -0.992847 0
M  V30 2071 H 191.379 -2.57354 -0.112474 0
M  V30 2072 H 191.337 -2.54842 -1.84127 0
M  V30 2073 N 195.109 -0.891671 -1.2995 0
M  V30 2074 C 196.334 -0.527932 -2.00568 0
M  V30 2075 C 196.759 0.877969 -1.66353 0
M  V30 2076 O 196.117 1.58301 -0.883762 0
M  V30 2077 C 196.165 -0.717745 -3.53385 0
M  V30 2078 O 195.269 0.233376 -4.11739 0
M  V30 2079 H 194.61 -0.20722 -0.630837 0
M  V30 2080 H 197.14 -1.20105 -1.65638 0
M  V30 2081 H 197.15 -0.619307 -4.03272 0
M  V30 2082 H 195.825 -1.74276 -3.77625 0
M  V30 2083 H 194.402 0.0880706 -3.72796 0
M  V30 2084 N 196.587 1.43421 -0.653314 0
M  V30 2085 C 197.534 2.30768 0.0382271 0
M  V30 2086 C 198.504 1.44755 0.814576 0
M  V30 2087 O 199.689 1.73624 0.791162 0
M  V30 2088 C 196.829 3.30336 0.998599 0
M  V30 2089 C 195.942 4.31448 0.218342 0
M  V30 2090 C 195.077 5.18098 1.17252 0
M  V30 2091 C 194.116 6.10902 0.382702 0
M  V30 2092 N 193.253 6.90176 1.28848 0
M  V30 2093 H 198.093 2.89357 -0.712511 0
M  V30 2094 H 195.63 1.42548 -0.363128 0
M  V30 2095 H 197.588 3.86572 1.56901 0
M  V30 2096 H 196.218 2.73397 1.71621 0
M  V30 2097 H 195.27 3.77506 -0.46836 0
M  V30 2098 H 196.582 4.97227 -0.395812 0
M  V30 2099 H 195.736 5.7896 1.81356 0
M  V30 2100 H 194.475 4.52444 1.82058 0
M  V30 2101 H 193.48 5.49128 -0.27169 0
M  V30 2102 H 194.705 6.78598 -0.260957 0
M  V30 2103 H 192.651 6.27171 1.92334 0
M  V30 2104 H 192.568 7.52478 0.728887 0
M  V30 2105 H 193.836 7.55543 1.91766 0
M  V30 2106 N 198.065 0.39524 1.52563 0
M  V30 2107 C 199.012 -0.437036 2.26624 0
M  V30 2108 C 199.982 -1.05281 1.28472 0
M  V30 2109 O 201.167 -1.07971 1.57311 0
M  V30 2110 C 198.307 -1.55524 3.08069 0
M  V30 2111 C 197.42 -0.961745 4.21158 0
M  V30 2112 C 196.555 -2.05149 4.89987 0
M  V30 2113 C 195.594 -1.4342 5.95061 0
M  V30 2114 N 194.731 -2.46351 6.57462 0
M  V30 2115 H 199.571 0.200976 2.97322 0
M  V30 2116 H 197.108 0.110944 1.46681 0
M  V30 2117 H 199.066 -2.21437 3.53584 0
M  V30 2118 H 197.696 -2.16348 2.3957 0
M  V30 2119 H 196.748 -0.192048 3.79915 0
M  V30 2120 H 198.06 -0.470701 4.96574 0
M  V30 2121 H 197.214 -2.78819 5.38837 0
M  V30 2122 H 195.953 -2.57615 4.14109 0
M  V30 2123 H 194.958 -0.682774 5.45544 0
M  V30 2124 H 196.183 -0.917416 6.72875 0
M  V30 2125 H 194.129 -2.97975 5.8442 0
M  V30 2126 H 194.046 -2.02019 7.28508 0
M  V30 2127 H 195.314 -3.19633 7.10954 0
M  V30 2128 N 199.544 -1.57102 0.125237 0
M  V30 2129 C 200.772 -1.99761 -0.538797 0
M  V30 2130 C 201.187 -1.00503 -1.59827 0
M  V30 2131 O 200.544 0.00119474 -1.825 0
M  V30 2132 C 200.595 -3.42408 -1.15927 0
M  V30 2133 O 200.316 -4.37869 -0.142143 0
M  V30 2134 C 201.817 -4.00232 -1.90602 0
M  V30 2135 H 199.037 -0.655772 -0.14214 0
M  V30 2136 H 201.581 -2.03383 0.213413 0
M  V30 2137 H 199.736 -3.39706 -1.86223 0
M  V30 2138 H 200.15 -5.21128 -0.593775 0
M  V30 2139 H 201.624 -5.02105 -2.29335 0
M  V30 2140 H 202.101 -3.39721 -2.78363 0
M  V30 2141 H 202.707 -4.06499 -1.25055 0
M  V30 2142 N 201.022 0.148545 -1.56898 0
M  V30 2143 C 202.247 0.880385 -1.87787 0
M  V30 2144 C 202.672 1.74018 -0.714093 0
M  V30 2145 O 202.03 1.78153 0.336343 0
M  V30 2146 C 202.078 1.71422 -3.17249 0
M  V30 2147 O 201.182 2.8183 -3.01074 0
M  V30 2148 H 200.523 0.245301 -0.617028 0
M  V30 2149 H 203.053 0.139826 -2.04122 0
M  V30 2150 H 203.063 2.10954 -3.49231 0
M  V30 2151 H 201.738 1.08284 -4.01556 0
M  V30 2152 H 200.315 2.45715 -2.80497 0
M  V30 2153 N 202.5 1.5196 0.417844 0
M  V30 2154 C 203.448 1.75278 1.52907 0
M  V30 2155 C 204.442 0.619611 1.57662 0
M  V30 2156 O 205.648 0.801457 1.61173 0
M  V30 2157 H 202.023 0.554141 0.508362 0
M  V30 2158 H 203.994 2.68389 1.30422 0
M  V30 2159 C 202.743 1.91262 2.90369 0
M  V30 2160 H 202.066 2.77872 2.8745 0
M  V30 2161 H 203.506 2.11581 3.67436 0
M  V30 2162 C 201.965 0.677431 3.30019 0
M  V30 2163 O 202.495 -0.158799 4.01386 0
M  V30 2164 N 200.701 0.515851 2.85985 0
M  V30 2165 H 200.248 1.19744 2.28077 0
M  V30 2166 H 200.206 -0.309315 3.12875 0
M  V30 2167 N 203.978 -0.674533 1.42435 0
M  V30 2168 C 205.203 -1.46784 1.46524 0
M  V30 2169 C 205.628 -1.87938 0.078066 0
M  V30 2170 O 204.986 -1.56014 -0.92354 0
M  V30 2171 C 205.034 -2.69307 2.39805 0
M  V30 2172 O 204.138 -3.67587 1.86959 0
M  V30 2173 H 203.479 -0.440959 0.496439 0
M  V30 2174 H 206.009 -0.827326 1.87127 0
M  V30 2175 H 206.019 -3.17374 2.56393 0
M  V30 2176 H 204.694 -2.38692 3.40586 0
M  V30 2177 H 203.271 -3.2662 1.79927 0
M  V30 2178 N 205.456 -1.28612 -0.910864 0
M  V30 2179 C 206.388 -1.08589 -2.01844 0
M  V30 2180 C 207.401 -0.0367419 -1.62759 0
M  V30 2181 O 208.59 -0.280101 -1.76289 0
M  V30 2182 C 205.69 -0.628626 -3.33019 0
M  V30 2183 C 204.863 -1.75382 -4.00699 0
M  V30 2184 C 203.922 -1.28945 -5.10156 0
M  V30 2185 O 202.948 -1.9922 -5.33198 0
M  V30 2186 N 204.15 -0.154224 -5.80295 0
M  V30 2187 H 206.915 -2.03973 -2.19579 0
M  V30 2188 H 204.476 -1.20403 -1.08234 0
M  V30 2189 H 206.468 -0.301508 -4.03575 0
M  V30 2190 H 205.038 0.232451 -3.11735 0
M  V30 2191 H 204.258 -2.25039 -3.23653 0
M  V30 2192 H 205.546 -2.50854 -4.42662 0
M  V30 2193 H 204.944 0.43194 -5.64049 0
M  V30 2194 H 203.501 0.113599 -6.51701 0
M  V30 2195 N 206.934 1.1197 -1.10907 0
M  V30 2196 C 207.881 2.17846 -0.762345 0
M  V30 2197 C 208.851 1.63995 0.263599 0
M  V30 2198 O 210.036 1.90273 0.141773 0
M  V30 2199 C 207.176 3.44487 -0.205651 0
M  V30 2200 C 206.289 4.12369 -1.28748 0
M  V30 2201 C 205.424 5.26674 -0.691919 0
M  V30 2202 C 204.463 5.86431 -1.75399 0
M  V30 2203 N 203.6 6.92142 -1.17833 0
M  V30 2204 H 208.44 2.46851 -1.6694 0
M  V30 2205 H 205.977 1.21188 -0.833776 0
M  V30 2206 H 207.935 4.16981 0.135037 0
M  V30 2207 H 206.565 3.15884 0.664613 0
M  V30 2208 H 205.617 3.38003 -1.74522 0
M  V30 2209 H 206.929 4.52844 -2.09125 0
M  V30 2210 H 206.083 6.05953 -0.300963 0
M  V30 2211 H 204.822 4.8749 0.143232 0
M  V30 2212 H 203.827 5.05835 -2.15432 0
M  V30 2213 H 205.052 6.27685 -2.59208 0
M  V30 2214 H 202.998 6.54985 -0.364725 0
M  V30 2215 H 202.915 7.31242 -1.91887 0
M  V30 2216 H 204.183 7.75237 -0.81408 0
M  V30 2217 N 208.412 0.89855 1.29475 0
M  V30 2218 C 209.642 0.538479 1.99459 0
M  V30 2219 C 210.05 -0.880922 1.67441 0
M  V30 2220 O 209.393 -1.59283 0.915127 0
M  V30 2221 C 209.455 0.649564 3.53583 0
M  V30 2222 C 209.119 2.03573 4.09154 0
M  V30 2223 C 210.116 3.00675 4.24135 0
M  V30 2224 C 207.801 2.3448 4.44212 0
M  V30 2225 C 209.795 4.26809 4.73405 0
M  V30 2226 C 207.482 3.60857 4.93179 0
M  V30 2227 C 208.48 4.56836 5.0773 0
M  V30 2228 O 208.168 5.80969 5.55635 0
M  V30 2229 H 207.9 0.205372 0.644048 0
M  V30 2230 H 210.454 1.20958 1.66007 0
M  V30 2231 H 208.684 -0.0785592 3.8662 0
M  V30 2232 H 210.373 0.29881 4.04799 0
M  V30 2233 H 211.139 2.78112 3.97339 0
M  V30 2234 H 207.018 1.60534 4.32145 0
M  V30 2235 H 210.562 5.0173 4.84678 0
M  V30 2236 H 206.459 3.83251 5.19412 0
M  V30 2237 H 207.227 5.83542 5.73952 0
M  V30 2238 N 209.89 -1.43072 0.660911 0
M  V30 2239 C 210.823 -2.28074 -0.0758862 0
M  V30 2240 C 211.801 -1.40271 -0.822362 0
M  V30 2241 O 212.985 -1.69713 -0.820352 0
M  V30 2242 C 210.112 -3.19843 -1.11437 0
M  V30 2243 C 209.158 -4.23957 -0.465069 0
M  V30 2244 S 209.991 -5.29978 0.767078 0
M  V30 2245 C 211.147 -6.25314 -0.270682 0
M  V30 2246 H 211.38 -2.90216 0.645139 0
M  V30 2247 H 208.913 -1.47697 0.449995 0
M  V30 2248 H 210.871 -3.73257 -1.70849 0
M  V30 2249 H 209.532 -2.56863 -1.80776 0
M  V30 2250 H 208.725 -4.88299 -1.24819 0
M  V30 2251 H 208.327 -3.73959 0.0551242 0
M  V30 2252 H 210.619 -6.67932 -1.13459 0
M  V30 2253 H 211.562 -7.07293 0.337916 0
M  V30 2254 H 211.97 -5.61195 -0.609937 0
M  V30 2255 N 211.368 -0.403325 -1.52352 0
M  V30 2256 C 212.593 0.176499 -2.06648 0
M  V30 2257 C 213.018 1.38577 -1.27193 0
M  V30 2258 O 212.376 1.7879 -0.300637 0
M  V30 2259 C 212.424 0.511061 -3.5696 0
M  V30 2260 O 211.528 1.60294 -3.79973 0
M  V30 2261 H 210.869 0.0167337 -0.663789 0
M  V30 2262 H 213.399 -0.574848 -1.96359 0
M  V30 2263 H 213.409 0.771362 -4.00642 0
M  V30 2264 H 212.084 -0.37296 -4.14224 0
M  V30 2265 H 210.661 1.33526 -3.48174 0
M  V30 2266 N 212.846 1.57033 -0.133567 0
M  V30 2267 C 214.093 1.95686 0.520877 0
M  V30 2268 C 214.421 1.0177 1.6575 0
M  V30 2269 O 213.676 0.0443195 1.9565 0
M  V30 2270 C 213.975 3.40674 1.08057 0
M  V30 2271 C 213.641 4.50855 0.0637899 0
M  V30 2272 C 212.303 4.80716 -0.215757 0
M  V30 2273 C 214.655 5.17398 -0.62835 0
M  V30 2274 C 211.983 5.74433 -1.19348 0
M  V30 2275 C 214.335 6.12167 -1.5948 0
M  V30 2276 C 212.999 6.40414 -1.88218 0
M  V30 2277 H 212.269 0.716067 0.190602 0
M  V30 2278 H 214.916 1.9026 -0.217556 0
M  V30 2279 H 213.221 3.42865 1.89606 0
M  V30 2280 H 214.918 3.67902 1.59529 0
M  V30 2281 H 211.508 4.27605 0.291855 0
M  V30 2282 H 215.692 4.94472 -0.425562 0
M  V30 2283 H 210.948 5.94616 -1.42272 0
M  V30 2284 H 215.122 6.6281 -2.13671 0
M  V30 2285 H 212.749 7.12838 -2.64133 0
M  V30 2286 N 214.325 -0.140222 1.56975 0
M  V30 2287 C 215.553 -0.866437 1.87884 0
M  V30 2288 C 215.968 -1.74428 0.722517 0
M  V30 2289 O 215.325 -1.79891 -0.30749 0
M  V30 2290 C 215.376 -1.71753 3.18093 0
M  V30 2291 O 215.097 -0.875056 4.29272 0
M  V30 2292 C 216.598 -2.55074 3.62563 0
M  V30 2293 H 213.818 -0.25019 0.622612 0
M  V30 2294 H 216.362 -0.130977 2.0408 0
M  V30 2295 H 214.517 -2.40598 3.03631 0
M  V30 2296 H 214.931 -1.46002 5.03769 0
M  V30 2297 H 216.405 -3.10356 4.5649 0
M  V30 2298 H 216.882 -3.31434 2.88181 0
M  V30 2299 H 217.488 -1.91509 3.79743 0
M  V30 2300 N 215.803 -1.52179 -0.40978 0
M  V30 2301 C 217.08 -1.56769 -1.16974 0
M  V30 2302 C 217.46 -0.348322 -2.08206 0
M  V30 2303 O 216.808 0.664862 -2.18613 0
M  V30 2304 C 217.018 -2.89603 -1.9476 0
M  V30 2305 C 218.366 -3.42579 -2.50849 0
M  V30 2306 O 219.39 -2.91338 -2.04941 0
M  V30 2307 O 218.249 -4.32054 -3.34652 0
M  V30 2308 H 215.343 -0.631439 -0.534054 0
M  V30 2309 H 217.889 -1.64507 -0.416613 0
M  V30 2310 H 216.661 -3.698 -1.27921 0
M  V30 2311 H 216.284 -2.85155 -2.77079 0
M  V30 2312 N 217.281 0.66697 -1.42791 0
M  V30 2313 C 218.228 1.7803 -1.4688 0
M  V30 2314 C 219.198 1.6299 -0.319919 0
M  V30 2315 O 220.383 1.83432 -0.525118 0
M  V30 2316 C 217.523 3.1611 -1.38451 0
M  V30 2317 C 216.636 3.42381 -2.63437 0
M  V30 2318 C 215.771 4.70232 -2.47094 0
M  V30 2319 C 214.81 4.89564 -3.67415 0
M  V30 2320 N 213.947 6.08661 -3.49966 0
M  V30 2321 H 218.787 1.7387 -2.42019 0
M  V30 2322 H 216.324 0.84868 -1.20149 0
M  V30 2323 H 218.282 3.95914 -1.31561 0
M  V30 2324 H 216.912 3.19374 -0.469033 0
M  V30 2325 H 215.964 2.56774 -2.80662 0
M  V30 2326 H 217.276 3.52557 -3.52853 0
M  V30 2327 H 216.43 5.5814 -2.37834 0
M  V30 2328 H 215.169 4.62353 -1.5518 0
M  V30 2329 H 214.174 4.00096 -3.77099 0
M  V30 2330 H 215.399 4.99282 -4.6032 0
M  V30 2331 H 213.345 6.0194 -2.60776 0
M  V30 2332 H 213.262 6.19733 -4.32975 0
M  V30 2333 H 214.53 6.99226 -3.44532 0
M  V30 2334 N 218.759 1.29093 0.90403 0
M  V30 2335 C 219.984 1.19809 1.69294 0
M  V30 2336 C 220.409 -0.238481 1.86582 0
M  V30 2337 O 219.767 -1.1723 1.383 0
M  V30 2338 C 219.815 1.91202 3.05736 0
M  V30 2339 O 218.919 1.22611 3.93752 0
M  V30 2340 H 218.26 0.415385 0.518027 0
M  V30 2341 H 220.79 1.70586 1.12967 0
M  V30 2342 H 220.8 1.99487 3.55906 0
M  V30 2343 H 219.475 2.95692 2.92471 0
M  V30 2344 H 218.052 1.22554 3.52186 0
M  V30 2345 N 220.237 -1.11381 1.11499 0
M  V30 2346 C 221.2 -2.15622 0.777153 0
M  V30 2347 C 222.2 -1.59504 -0.203779 0
M  V30 2348 O 223.39 -1.74188 0.020782 0
M  V30 2349 C 220.522 -3.40556 0.153116 0
M  V30 2350 H 221.715 -2.47021 1.70061 0
M  V30 2351 H 219.268 -1.26577 0.916952 0
M  V30 2352 H 220.003 -3.14767 -0.780536 0
M  V30 2353 H 219.788 -3.8257 0.859238 0
M  V30 2354 H 221.278 -4.17546 -0.0671044 0
M  V30 2355 N 221.715 -0.905404 -1.28997 0
M  V30 2356 C 222.625 -0.392246 -2.31298 0
M  V30 2357 C 223.641 0.515889 -1.66176 0
M  V30 2358 O 224.817 0.404093 -1.97304 0
M  V30 2359 C 221.882 0.36686 -3.44754 0
M  V30 2360 C 220.943 -0.573485 -4.25452 0
M  V30 2361 C 220.176 0.149488 -5.33491 0
M  V30 2362 O 220.399 1.37255 -5.5364 0
M  V30 2363 O 219.333 -0.510919 -5.99728 0
M  V30 2364 H 223.159 -1.2411 -2.77183 0
M  V30 2365 H 220.744 -0.669926 -1.33538 0
M  V30 2366 H 222.626 0.795907 -4.13816 0
M  V30 2367 H 221.301 1.19169 -3.00966 0
M  V30 2368 H 220.208 -1.05176 -3.59011 0
M  V30 2369 H 221.541 -1.36489 -4.72897 0
M  V30 2370 N 223.193 1.4272 -0.668489 0
M  V30 2371 C 224.47 1.95248 -0.117373 0
M  V30 2372 C 224.85 1.60919 1.36632 0
M  V30 2373 O 224.198 0.902095 2.09939 0
M  V30 2374 C 224.408 3.46927 -0.379806 0
M  V30 2375 C 225.756 4.23588 -0.292923 0
M  V30 2376 O 226.78 3.5482 -0.313204 0
M  V30 2377 O 225.639 5.46017 -0.229697 0
M  V30 2378 H 222.733 0.827 0.00079152 0
M  V30 2379 H 225.279 1.52581 -0.742783 0
M  V30 2380 H 224.051 3.65096 -1.40786 0
M  V30 2381 H 223.674 3.96627 0.277923 0
M  V30 2382 N 224.671 0.411399 1.52136 0
M  V30 2383 C 225.901 -0.16284 2.05957 0
M  V30 2384 C 226.309 -1.3922 1.28119 0
M  V30 2385 O 225.652 -1.80768 0.326881 0
M  V30 2386 C 225.714 -0.575946 3.54856 0
M  V30 2387 C 225.378 0.542998 4.53763 0
M  V30 2388 C 226.375 1.40726 5.00492 0
M  V30 2389 C 224.06 0.716337 4.97166 0
M  V30 2390 C 226.054 2.4298 5.8927 0
M  V30 2391 C 223.741 1.74218 5.8574 0
M  V30 2392 C 224.739 2.59731 6.31687 0
M  V30 2393 O 224.427 3.60558 7.18507 0
M  V30 2394 H 224.159 -0.0229125 0.675612 0
M  V30 2395 H 226.713 0.581634 1.96993 0
M  V30 2396 H 224.943 -1.37274 3.61515 0
M  V30 2397 H 226.632 -1.07836 3.91313 0
M  V30 2398 H 227.398 1.28476 4.67674 0
M  V30 2399 H 223.277 0.0603857 4.6096 0
M  V30 2400 H 226.821 3.0976 6.25055 0
M  V30 2401 H 222.718 1.86498 6.17971 0
M  V30 2402 H 223.486 3.56829 7.36624 0
M  V30 2403 N 226.149 -1.5696 0.141893 0
M  V30 2404 C 227.097 -2.17784 -0.816874 0
M  V30 2405 C 228.091 -1.1334 -1.25899 0
M  V30 2406 O 229.297 -1.316 -1.22806 0
M  V30 2407 H 225.672 -0.697278 -0.281615 0
M  V30 2408 H 227.643 -2.97087 -0.279621 0
M  V30 2409 C 226.392 -2.80983 -2.04802 0
M  V30 2410 H 225.715 -3.61062 -1.7168 0
M  V30 2411 H 227.155 -3.2705 -2.69841 0
M  V30 2412 C 225.614 -1.79228 -2.8527 0
M  V30 2413 O 226.144 -1.25962 -3.8144 0
M  V30 2414 N 224.35 -1.48647 -2.49704 0
M  V30 2415 H 223.897 -1.92155 -1.71564 0
M  V30 2416 H 223.855 -0.808115 -3.03837 0
M  V30 2417 N 227.627 0.131896 -1.57047 0
M  V30 2418 C 228.852 0.860418 -1.8871 0
M  V30 2419 C 229.277 1.73251 -0.73251 0
M  V30 2420 O 228.635 1.785 0.317429 0
M  V30 2421 C 228.683 1.68047 -3.19049 0
M  V30 2422 O 227.787 2.7862 -3.04047 0
M  V30 2423 H 227.128 0.238743 -0.619595 0
M  V30 2424 H 229.658 0.118169 -2.04258 0
M  V30 2425 H 229.668 2.07238 -3.51449 0
M  V30 2426 H 228.343 1.04018 -4.02682 0
M  V30 2427 H 226.92 2.42726 -2.83088 0
M  V30 2428 N 229.106 1.52395 0.401703 0
M  V30 2429 C 230.331 1.70972 1.17403 0
M  V30 2430 C 230.756 0.421615 1.83314 0
M  V30 2431 O 230.114 -0.621564 1.70312 0
M  V30 2432 C 230.162 2.85151 2.20728 0
M  V30 2433 O 229.266 2.51238 3.27037 0
M  V30 2434 H 228.607 0.568927 0.342372 0
M  V30 2435 H 231.137 1.99131 0.469891 0
M  V30 2436 H 231.147 3.10279 2.64936 0
M  V30 2437 H 229.822 3.78603 1.7214 0
M  V30 2438 H 228.399 2.36808 2.88057 0
M  V30 2439 N 230.584 -0.659388 1.43143 0
M  V30 2440 C 231.532 -1.79374 1.4808 0
M  V30 2441 C 232.526 -1.65639 0.354988 0
M  V30 2442 O 233.732 -1.7206 0.528704 0
M  V30 2443 H 230.107 -0.591705 0.4641 0
M  V30 2444 H 232.078 -1.72329 2.43609 0
M  V30 2445 C 230.827 -3.17606 1.41499 0
M  V30 2446 H 230.15 -3.28809 2.27431 0
M  V30 2447 H 231.59 -3.96951 1.49015 0
M  V30 2448 C 230.049 -3.36642 0.131765 0
M  V30 2449 O 230.579 -3.93461 -0.809386 0
M  V30 2450 N 228.785 -2.90567 0.0439396 0
M  V30 2451 H 228.332 -2.44513 0.810619 0
M  V30 2452 H 228.29 -3.03681 -0.813969 0
M  V30 2453 N 232.062 -1.29571 -0.897171 0
M  V30 2454 C 233.025 -1.14913 -1.98312 0
M  V30 2455 C 234.025 -0.0838629 -1.60581 0
M  V30 2456 O 235.215 -0.331006 -1.71026 0
M  V30 2457 C 232.347 -0.757835 -3.3237 0
M  V30 2458 H 233.54 -2.11377 -2.12743 0
M  V30 2459 H 231.093 -1.12793 -1.08201 0
M  V30 2460 H 231.828 0.206837 -3.2364 0
M  V30 2461 H 231.613 -1.52755 -3.61121 0
M  V30 2462 H 233.103 -0.678408 -4.12053 0
M  V30 2463 N 233.54 1.10788 -1.12088 0
M  V30 2464 C 234.47 2.19083 -0.807755 0
M  V30 2465 C 235.451 1.6858 0.226859 0
M  V30 2466 O 236.636 1.93997 0.0888475 0
M  V30 2467 C 233.766 3.46344 -0.257576 0
M  V30 2468 C 232.72 4.101 -1.22483 0
M  V30 2469 C 232.046 5.32016 -0.535052 0
M  V30 2470 C 233.346 4.54236 -2.57811 0
M  V30 2471 H 235.04 2.45534 -1.71328 0
M  V30 2472 H 232.586 1.1801 -0.825205 0
M  V30 2473 H 234.539 4.21392 -0.0262679 0
M  V30 2474 H 233.263 3.19373 0.683278 0
M  V30 2475 H 231.922 3.37054 -1.44189 0
M  V30 2476 H 231.57 5.01319 0.410827 0
M  V30 2477 H 231.27 5.75625 -1.18024 0
M  V30 2478 H 232.794 6.09799 -0.312695 0
M  V30 2479 H 234.208 5.20575 -2.40155 0
M  V30 2480 H 232.605 5.08682 -3.18375 0
M  V30 2481 H 233.675 3.6734 -3.16528 0
M  V30 2482 N 235.018 0.912232 1.28515 0
M  V30 2483 C 235.966 0.389597 2.29314 0
M  V30 2484 C 236.96 -0.517915 1.61289 0
M  V30 2485 O 238.166 -0.399328 1.75515 0
M  V30 2486 H 234.541 0.107386 0.744293 0
M  V30 2487 H 236.512 1.25286 2.70825 0
M  V30 2488 C 235.261 -0.356496 3.45868 0
M  V30 2489 H 234.584 0.332608 3.98414 0
M  V30 2490 H 236.024 -0.686851 4.184 0
M  V30 2491 C 234.483 -1.56383 2.98406 0
M  V30 2492 O 235.013 -2.66294 3.00749 0
M  V30 2493 N 233.219 -1.41029 2.54085 0
M  V30 2494 H 232.766 -0.516089 2.52377 0
M  V30 2495 H 232.724 -2.21939 2.22689 0
M  V30 2496 N 236.496 -1.42363 0.676048 0
M  V30 2497 C 237.742 -2.0182 0.199125 0
M  V30 2498 C 238.075 -1.53339 -1.19168 0
M  V30 2499 O 237.35 -0.736124 -1.80032 0
M  V30 2500 C 237.633 -3.59331 0.235144 0
M  V30 2501 C 237.486 -4.17989 1.66149 0
M  V30 2502 C 238.805 -4.3813 -0.41595 0
M  V30 2503 H 235.924 -0.733293 0.0738311 0
M  V30 2504 H 238.566 -1.69368 0.86107 0
M  V30 2505 H 236.716 -3.87109 -0.328487 0
M  V30 2506 H 238.388 -4.0116 2.27747 0
M  V30 2507 H 236.631 -3.7377 2.20178 0
M  V30 2508 H 237.302 -5.27126 1.63837 0
M  V30 2509 H 239.778 -4.16051 0.0638529 0
M  V30 2510 H 238.654 -5.47717 -0.360115 0
M  V30 2511 H 238.915 -4.16101 -1.49373 0
M  V30 2512 N 237.974 -0.419461 -1.51915 0
M  V30 2513 C 238.921 0.400927 -2.27291 0
M  V30 2514 C 239.891 1.03224 -1.30131 0
M  V30 2515 O 241.076 1.05455 -1.59009 0
M  V30 2516 C 238.216 1.50603 -3.10504 0
M  V30 2517 C 237.329 0.89462 -4.22635 0
M  V30 2518 C 236.464 1.97328 -4.93189 0
M  V30 2519 C 235.503 1.33935 -5.97267 0
M  V30 2520 N 234.64 2.3586 -6.61298 0
M  V30 2521 H 239.48 -0.248251 -2.96964 0
M  V30 2522 H 237.017 -0.134266 -1.46486 0
M  V30 2523 H 238.975 2.15783 -3.57062 0
M  V30 2524 H 237.605 2.12509 -2.42981 0
M  V30 2525 H 236.657 0.131583 -3.80172 0
M  V30 2526 H 237.969 0.391641 -4.9726 0
M  V30 2527 H 237.123 2.70211 -5.43204 0
M  V30 2528 H 235.862 2.50994 -4.18155 0
M  V30 2529 H 234.867 0.595896 -5.46561 0
M  V30 2530 H 236.092 0.810252 -6.74249 0
M  V30 2531 H 234.038 2.88639 -5.89087 0
M  V30 2532 H 233.955 1.90403 -7.3163 0
M  V30 2533 H 235.223 3.08282 -7.15949 0
M  V30 2534 N 239.452 1.56882 -0.150215 0
M  V30 2535 C 240.415 2.1573 0.774157 0
M  V30 2536 C 241.415 1.0999 1.17298 0
M  V30 2537 O 242.605 1.35613 1.09338 0
M  V30 2538 C 239.737 2.72302 2.05096 0
M  V30 2539 H 240.93 2.98752 0.262201 0
M  V30 2540 H 238.483 1.55985 0.099248 0
M  V30 2541 H 239.218 1.92956 2.6065 0
M  V30 2542 H 239.003 3.49665 1.77416 0
M  V30 2543 H 240.493 3.17632 2.71109 0
M  V30 2544 N 240.93 -0.123565 1.57115 0
M  V30 2545 C 242.176 -0.833386 1.84885 0
M  V30 2546 C 242.509 -1.79742 0.735292 0
M  V30 2547 O 241.784 -1.92764 -0.25925 0
M  V30 2548 C 242.067 -1.5873 3.23228 0
M  V30 2549 C 241.92 -0.643183 4.45178 0
M  V30 2550 C 243.239 -2.54453 3.59085 0
M  V30 2551 H 240.358 -0.301518 0.6725 0
M  V30 2552 H 243 -0.097778 1.89748 0
M  V30 2553 H 241.15 -2.21438 3.19214 0
M  V30 2554 H 242.822 -0.0253015 4.61293 0
M  V30 2555 H 241.065 0.0456139 4.33776 0
M  V30 2556 H 241.736 -1.20724 5.38637 0
M  V30 2557 H 244.212 -2.01853 3.63861 0
M  V30 2558 H 243.088 -3.04238 4.5687 0
M  V30 2559 H 243.349 -3.36906 2.86264 0
M  V30 2560 N 242.408 -1.52605 -0.393616 0
M  V30 2561 C 243.633 -1.71592 -1.16495 0
M  V30 2562 C 244.058 -0.43133 -1.83088 0
M  V30 2563 O 243.416 0.612523 -1.7064 0
M  V30 2564 C 243.464 -2.86318 -2.19213 0
M  V30 2565 O 242.568 -2.52969 -3.257 0
M  V30 2566 H 241.909 -0.570734 -0.33935 0
M  V30 2567 H 244.439 -1.99377 -0.459324 0
M  V30 2568 H 244.449 -3.1168 -2.63286 0
M  V30 2569 H 243.124 -3.79511 -1.7013 0
M  V30 2570 H 241.701 -2.38332 -2.86797 0
M  V30 2571 N 243.887 0.651787 -1.4349 0
M  V30 2572 C 244.797 1.79368 -1.5121 0
M  V30 2573 C 245.813 1.69361 -0.399093 0
M  V30 2574 O 246.989 1.90505 -0.653431 0
M  V30 2575 C 244.054 3.15653 -1.43401 0
M  V30 2576 C 243.115 3.37446 -2.65384 0
M  V30 2577 C 242.348 4.67229 -2.57939 0
M  V30 2578 O 242.571 5.46676 -1.62792 0
M  V30 2579 O 241.505 4.90773 -3.48462 0
M  V30 2580 H 245.331 1.7581 -2.47638 0
M  V30 2581 H 242.916 0.810447 -1.25507 0
M  V30 2582 H 244.798 3.96935 -1.41494 0
M  V30 2583 H 243.473 3.19798 -0.501085 0
M  V30 2584 H 242.38 2.55923 -2.72863 0
M  V30 2585 H 243.713 3.38148 -3.57654 0
M  V30 2586 N 245.365 1.30045 0.890287 0
M  V30 2587 C 246.593 1.21472 1.67487 0
M  V30 2588 C 247.008 -0.223241 1.87476 0
M  V30 2589 O 246.365 -1.14828 1.41847 0
M  V30 2590 C 246.416 1.93394 3.05419 0
M  V30 2591 O 246.137 3.31576 2.86337 0
M  V30 2592 C 247.638 1.91414 3.99844 0
M  V30 2593 H 244.858 0.420604 0.522813 0
M  V30 2594 H 247.402 1.7158 1.11268 0
M  V30 2595 H 245.557 1.47099 3.58386 0
M  V30 2596 H 245.971 3.67929 3.73802 0
M  V30 2597 H 247.445 2.46285 4.94012 0
M  V30 2598 H 247.922 0.891833 4.3005 0
M  V30 2599 H 248.528 2.37496 3.52811 0
M  V30 2600 N 246.843 -1.10192 1.12674 0
M  V30 2601 C 248.254 -1.63707 0.897604 0
M  V30 2602 C 248.605 -1.87812 -0.567546 0
M  V30 2603 O 247.73 -1.62196 -1.43253 0
M  V30 2604 C 248.325 -2.974 1.62292 0
M  V30 2605 C 246.884 -3.47772 1.43986 0
M  V30 2606 C 246.031 -2.22332 1.65722 0
M  V30 2607 H 248.982 -0.936587 1.28116 0
M  V30 2608 H 249.003 -3.64986 1.07541 0
M  V30 2609 H 248.515 -2.79824 2.68924 0
M  V30 2610 H 246.616 -3.70487 0.396206 0
M  V30 2611 H 246.729 -4.25723 2.19765 0
M  V30 2612 H 245.093 -2.30599 1.08149 0
M  V30 2613 H 245.876 -2.07285 2.73657 0
M  V30 2614 N 248.321 -0.919034 -1.28029 0
M  V30 2615 C 249.284 -0.416182 -2.2539 0
M  V30 2616 C 250.284 0.460438 -1.54067 0
M  V30 2617 O 251.474 0.262744 -1.72207 0
M  V30 2618 C 248.606 0.402707 -3.38513 0
M  V30 2619 H 249.799 -1.27629 -2.71387 0
M  V30 2620 H 247.352 -0.698919 -1.39803 0
M  V30 2621 H 248.087 1.282 -2.97885 0
M  V30 2622 H 247.872 -0.225698 -3.9145 0
M  V30 2623 H 249.362 0.745191 -4.10897 0
M  V30 2624 N 249.799 1.42003 -0.683588 0
M  V30 2625 C 251.045 2.01712 -0.209825 0
M  V30 2626 C 251.378 1.53968 1.18353 0
M  V30 2627 O 250.653 0.745661 1.79639 0
M  V30 2628 C 250.936 3.59202 -0.254197 0
M  V30 2629 C 250.789 4.17102 -1.68363 0
M  V30 2630 C 252.108 4.38344 0.392709 0
M  V30 2631 H 249.227 0.732891 -0.0777189 0
M  V30 2632 H 251.869 1.68909 -0.87004 0
M  V30 2633 H 250.019 3.87278 0.307954 0
M  V30 2634 H 251.691 3.99946 -2.29871 0
M  V30 2635 H 249.934 3.72597 -2.22157 0
M  V30 2636 H 250.605 5.26249 -1.6663 0
M  V30 2637 H 253.081 4.16011 -0.0859162 0
M  V30 2638 H 251.957 5.47901 0.331063 0
M  V30 2639 H 252.218 4.16887 1.47164 0
M  V30 2640 N 251.277 0.427512 1.51691 0
M  V30 2641 C 252.688 -0.0378867 1.86662 0
M  V30 2642 C 253.039 -1.42819 1.34525 0
M  V30 2643 O 252.164 -2.05037 0.692014 0
M  V30 2644 C 252.759 -0.0755266 3.38716 0
M  V30 2645 C 251.318 -0.485309 3.73258 0
M  V30 2646 C 250.465 0.328399 2.75349 0
M  V30 2647 H 253.416 0.64379 1.45055 0
M  V30 2648 H 253.437 -0.887056 3.70016 0
M  V30 2649 H 252.949 0.936487 3.76632 0
M  V30 2650 H 251.05 -1.50329 3.40928 0
M  V30 2651 H 251.163 -0.21693 4.78609 0
M  V30 2652 H 249.527 -0.211905 2.53817 0
M  V30 2653 H 250.31 1.3391 3.16106 0
M  V30 2654 N 252.755 -1.56801 0.158532 0
M  V30 2655 C 254.166 -1.83189 -0.360366 0
M  V30 2656 C 254.517 -1.07778 -1.63946 0
M  V30 2657 O 253.642 -0.326718 -2.13919 0
M  V30 2658 C 254.237 -3.32297 -0.660595 0
M  V30 2659 C 252.796 -3.59227 -1.12398 0
M  V30 2660 C 251.943 -2.76877 -0.153097 0
M  V30 2661 H 254.894 -1.54008 0.383031 0
M  V30 2662 H 254.915 -3.4908 -1.51405 0
M  V30 2663 H 254.427 -3.87156 0.270527 0
M  V30 2664 H 252.528 -3.09766 -2.07064 0
M  V30 2665 H 252.641 -4.67632 -1.04197 0
M  V30 2666 H 251.005 -2.46319 -0.647983 0
M  V30 2667 H 251.788 -3.34511 0.77182 0
M  V30 2668 N 254.233 0.115231 -1.57178 0
M  V30 2669 C 255.479 0.82357 -1.85325 0
M  V30 2670 C 255.812 1.79349 -0.744814 0
M  V30 2671 O 255.087 1.92899 0.249024 0
M  V30 2672 C 255.37 1.57014 -3.24066 0
M  V30 2673 C 255.223 0.619565 -4.45513 0
M  V30 2674 C 256.542 2.52545 -3.60429 0
M  V30 2675 H 253.661 0.297948 -0.674089 0
M  V30 2676 H 256.303 0.0877138 -1.89797 0
M  V30 2677 H 254.453 2.19742 -3.20383 0
M  V30 2678 H 256.125 0.000837639 -4.613 0
M  V30 2679 H 254.368 -0.0686174 -4.33746 0
M  V30 2680 H 255.039 1.17866 -5.3927 0
M  V30 2681 H 257.515 1.9992 -3.64926 0
M  V30 2682 H 256.391 3.01811 -4.58477 0
M  V30 2683 H 256.652 3.35383 -2.88047 0
M  V30 2684 N 255.711 1.52812 0.385517 0
M  V30 2685 C 256.936 1.72207 1.15583 0
M  V30 2686 C 257.361 0.441034 1.82857 0
M  V30 2687 O 256.719 -0.603465 1.70962 0
M  V30 2688 C 256.767 2.87476 2.17692 0
M  V30 2689 O 255.871 2.54693 3.24354 0
M  V30 2690 H 255.212 0.572526 0.336319 0
M  V30 2691 H 257.742 1.99618 0.448744 0
M  V30 2692 H 257.752 3.13072 2.6163 0
M  V30 2693 H 256.427 3.80408 1.68115 0
M  V30 2694 H 255.004 2.3985 2.85529 0
M  V30 2695 N 257.189 -0.644168 1.43834 0
M  V30 2696 C 258.099 -1.78563 1.52159 0
M  V30 2697 C 259.115 -1.69147 0.408069 0
M  V30 2698 O 260.291 -1.90156 0.663524 0
M  V30 2699 C 257.356 -3.14888 1.45073 0
M  V30 2700 C 256.417 -3.36034 2.6717 0
M  V30 2701 C 255.65 -4.65855 2.60413 0
M  V30 2702 O 255.873 -5.45805 1.65689 0
M  V30 2703 O 254.807 -4.88918 3.5106 0
M  V30 2704 H 258.633 -1.74494 2.48567 0
M  V30 2705 H 256.218 -0.80378 1.25935 0
M  V30 2706 H 258.1 -3.96179 1.43597 0
M  V30 2707 H 256.775 -3.19528 0.518037 0
M  V30 2708 H 255.682 -2.54472 2.74217 0
M  V30 2709 H 257.015 -3.36247 3.59442 0
M  V30 2710 N 258.668 -1.30515 -0.883378 0
M  V30 2711 C 259.945 -1.10086 -1.6168 0
M  V30 2712 C 260.325 0.349269 -2.08191 0
M  V30 2713 O 259.673 1.34105 -1.85008 0
M  V30 2714 C 259.883 -2.10315 -2.78511 0
M  V30 2715 C 261.231 -2.42119 -3.48803 0
M  V30 2716 O 262.255 -2.08638 -2.88702 0
M  V30 2717 O 261.114 -2.99396 -4.57192 0
M  V30 2718 H 258.208 -0.422907 -0.710689 0
M  V30 2719 H 260.754 -1.41947 -0.930015 0
M  V30 2720 H 259.526 -3.07917 -2.41459 0
M  V30 2721 H 259.149 -1.79282 -3.54886 0
M  V30 2722 N 260.146 1.09593 -1.13257 0
M  V30 2723 C 261.056 2.19739 -0.821691 0
M  V30 2724 C 262.072 1.72926 0.19302 0
M  V30 2725 O 263.248 2.01385 0.0244895 0
M  V30 2726 C 260.313 3.45482 -0.290333 0
M  V30 2727 C 259.374 4.06985 -1.36607 0
M  V30 2728 C 258.607 5.26726 -0.859975 0
M  V30 2729 O 258.83 5.69594 0.303082 0
M  V30 2730 O 257.764 5.7931 -1.63351 0
M  V30 2731 H 261.59 2.48781 -1.74189 0
M  V30 2732 H 259.175 1.18496 -0.909894 0
M  V30 2733 H 261.057 4.214 0.000674022 0
M  V30 2734 H 259.732 3.18047 0.602306 0
M  V30 2735 H 258.639 3.32712 -1.71037 0
M  V30 2736 H 259.972 4.38643 -2.23279 0
M  V30 2737 N 261.624 0.925811 1.2754 0
M  V30 2738 C 262.901 0.483726 1.89524 0
M  V30 2739 C 263.281 -1.03809 1.83812 0
M  V30 2740 O 262.629 -1.89143 1.28207 0
M  V30 2741 C 262.839 1.02769 3.33526 0
M  V30 2742 C 264.187 1.08703 4.10449 0
M  V30 2743 O 265.211 0.977175 3.42534 0
M  V30 2744 O 264.07 1.25599 5.31871 0
M  V30 2745 H 261.164 0.15529 0.812289 0
M  V30 2746 H 263.71 1.01738 1.35822 0
M  V30 2747 H 262.482 2.07155 3.31967 0
M  V30 2748 H 262.105 0.475567 3.94746 0
M  V30 2749 N 263.102 -1.41638 0.69111 0
M  V30 2750 C 264.379 -1.95036 0.148421 0
M  V30 2751 C 264.759 -1.63072 -1.34055 0
M  V30 2752 O 264.107 -0.93538 -2.08478 0
M  V30 2753 C 264.317 -3.46279 0.434951 0
M  V30 2754 C 265.665 -4.23069 0.360275 0
M  V30 2755 O 266.689 -3.54277 0.369613 0
M  V30 2756 O 265.548 -5.45583 0.316534 0
M  V30 2757 H 262.642 -0.826908 0.0123654 0
M  V30 2758 H 265.188 -1.5138 0.766963 0
M  V30 2759 H 263.96 -3.6281 1.46576 0
M  V30 2760 H 263.583 -3.97019 -0.214787 0
M  V30 2761 N 264.58 -0.43555 -1.51462 0
M  V30 2762 C 265.857 0.191364 -1.94662 0
M  V30 2763 C 266.237 1.60254 -1.37411 0
M  V30 2764 O 265.585 2.2152 -0.560458 0
M  V30 2765 C 265.795 0.17091 -3.48581 0
M  V30 2766 C 267.143 0.377357 -4.2292 0
M  V30 2767 O 268.167 0.249104 -3.55328 0
M  V30 2768 O 267.026 0.63247 -5.42828 0
M  V30 2769 H 264.12 0.130932 -0.816569 0
M  V30 2770 H 266.666 -0.4934 -1.62369 0
M  V30 2771 H 265.438 -0.815738 -3.82703 0
M  V30 2772 H 265.061 0.898659 -3.87311 0
M  V30 2773 N 266.058 1.56714 -0.166846 0
M  V30 2774 C 267.335 1.88412 0.525373 0
M  V30 2775 C 267.715 1.07602 1.81618 0
M  V30 2776 O 267.063 0.168621 2.27877 0
M  V30 2777 C 267.273 3.40363 0.771613 0
M  V30 2778 C 268.621 4.10007 1.1036 0
M  V30 2779 O 269.645 3.45655 0.860304 0
M  V30 2780 O 268.504 5.2369 1.56239 0
M  V30 2781 H 265.598 0.781587 0.270278 0
M  V30 2782 H 268.144 1.68458 -0.204946 0
M  V30 2783 H 266.916 3.91046 -0.141093 0
M  V30 2784 H 266.539 3.65914 1.55541 0
M  V30 2785 N 267.536 -0.106894 1.57237 0
M  V30 2786 C 268.813 -0.843526 1.76477 0
M  V30 2787 C 269.193 -1.97499 0.745464 0
M  V30 2788 O 268.541 -2.27357 -0.228306 0
M  V30 2789 C 268.751 -1.34903 3.21873 0
M  V30 2790 C 270.099 -1.79654 3.8472 0
M  V30 2791 O 271.123 -1.44554 3.2555 0
M  V30 2792 O 269.982 -2.44515 4.88748 0
M  V30 2793 H 267.076 -0.401468 0.723016 0
M  V30 2794 H 269.622 -0.0896927 1.69463 0
M  V30 2795 H 268.394 -0.53781 3.87586 0
M  V30 2796 H 268.017 -2.16522 3.33473 0
M  V30 2797 N 269.014 -1.53014 -0.377408 0
M  V30 2798 C 270.291 -1.59215 -1.13622 0
M  V30 2799 C 270.671 -0.392407 -2.07421 0
M  V30 2800 O 270.019 0.618342 -2.19975 0
M  V30 2801 C 270.229 -2.93669 -1.88573 0
M  V30 2802 C 271.577 -3.47822 -2.43526 0
M  V30 2803 O 272.601 -2.9562 -1.98715 0
M  V30 2804 O 271.46 -4.39055 -3.25412 0
M  V30 2805 H 268.554 -0.642625 -0.52054 0
M  V30 2806 H 271.1 -1.65353 -0.381625 0
M  V30 2807 H 269.872 -3.7243 -1.20048 0
M  V30 2808 H 269.495 -2.90968 -2.70968 0
M  V30 2809 N 270.492 0.636531 -1.44174 0
M  V30 2810 C 271.455 1.73063 -1.50273 0
M  V30 2811 C 272.455 1.56113 -0.385397 0
M  V30 2812 O 273.645 1.61707 -0.64781 0
M  V30 2813 C 270.777 3.12096 -1.37145 0
M  V30 2814 H 271.97 1.69031 -2.47727 0
M  V30 2815 H 269.523 0.849706 -1.31186 0
M  V30 2816 H 270.258 3.21728 -0.407636 0
M  V30 2817 H 270.043 3.25805 -2.18159 0
M  V30 2818 H 271.533 3.91846 -1.44382 0
M  V30 2819 N 271.97 1.30982 0.876444 0
M  V30 2820 C 273.198 1.23242 1.6619 0
M  V30 2821 C 273.613 -0.203345 1.87702 0
M  V30 2822 O 272.97 -1.13317 1.43057 0
M  V30 2823 C 273.021 1.96623 3.03351 0
M  V30 2824 O 272.742 3.34594 2.82804 0
M  V30 2825 C 274.243 1.95644 3.97792 0
M  V30 2826 H 271.463 0.426126 0.518322 0
M  V30 2827 H 274.007 1.7275 1.09442 0
M  V30 2828 H 272.162 1.50892 3.56806 0
M  V30 2829 H 272.576 3.71873 3.69879 0
M  V30 2830 H 274.05 2.51511 4.91372 0
M  V30 2831 H 274.527 0.937395 4.2908 0
M  V30 2832 H 275.133 2.41225 3.50272 0
M  V30 2833 N 273.449 -1.08991 1.13837 0
M  V30 2834 C 274.86 -1.62746 0.914917 0
M  V30 2835 C 275.211 -1.88403 -0.547594 0
M  V30 2836 O 274.336 -1.63706 -1.41525 0
M  V30 2837 C 274.931 -2.95662 1.65437 0
M  V30 2838 C 273.49 -3.46225 1.47666 0
M  V30 2839 C 272.637 -2.20562 1.6807 0
M  V30 2840 H 275.588 -0.922946 1.29102 0
M  V30 2841 H 275.609 -3.63825 1.11407 0
M  V30 2842 H 275.121 -2.76956 2.71877 0
M  V30 2843 H 273.222 -3.70046 0.435478 0
M  V30 2844 H 273.335 -4.23368 2.24268 0
M  V30 2845 H 271.699 -2.29439 1.10589 0
M  V30 2846 H 272.482 -2.0437 2.7584 0
M  V30 2847 N 274.927 -0.932562 -1.27047 0
M  V30 2848 C 276.338 -0.619451 -1.76124 0
M  V30 2849 C 276.689 0.865397 -1.76083 0
M  V30 2850 O 275.814 1.67722 -1.36742 0
M  V30 2851 C 276.409 -1.11771 -3.19832 0
M  V30 2852 C 274.968 -0.855174 -3.66557 0
M  V30 2853 C 274.115 -1.27362 -2.46321 0
M  V30 2854 H 277.066 -1.11181 -1.13245 0
M  V30 2855 H 277.087 -0.46759 -3.77616 0
M  V30 2856 H 276.599 -2.19842 -3.1983 0
M  V30 2857 H 274.7 0.211524 -3.71999 0
M  V30 2858 H 274.813 -1.47613 -4.55793 0
M  V30 2859 H 273.177 -0.692119 -2.45116 0
M  V30 2860 H 273.96 -2.36307 -2.49025 0
M  V30 2861 N 276.405 1.4127 -0.698611 0
M  V30 2862 C 277.816 1.84187 -0.305289 0
M  V30 2863 C 278.167 1.58449 1.15708 0
M  V30 2864 O 277.292 1.05651 1.88856 0
M  V30 2865 C 277.887 3.3435 -0.547314 0
M  V30 2866 C 276.446 3.75826 -0.207878 0
M  V30 2867 C 275.593 2.64647 -0.828099 0
M  V30 2868 H 278.544 1.30778 -0.89904 0
M  V30 2869 H 278.565 3.8001 0.192998 0
M  V30 2870 H 278.077 3.53051 -1.61172 0
M  V30 2871 H 276.178 3.62725 0.852143 0
M  V30 2872 H 276.291 4.74462 -0.665021 0
M  V30 2873 H 274.655 2.53395 -0.257458 0
M  V30 2874 H 275.438 2.86165 -1.89643 0
M  V30 2875 N 277.883 0.443576 1.51229 0
M  V30 2876 C 279.129 -0.120975 2.02439 0
M  V30 2877 C 279.462 -1.41815 1.32674 0
M  V30 2878 O 278.737 -1.89373 0.443622 0
M  V30 2879 C 279.02 -0.333291 3.58554 0
M  V30 2880 C 278.873 0.982968 4.38928 0
M  V30 2881 C 280.192 -1.10028 4.26124 0
M  V30 2882 H 277.311 -0.0424923 0.735774 0
M  V30 2883 H 279.953 0.583794 1.80809 0
M  V30 2884 H 278.103 -0.933614 3.77115 0
M  V30 2885 H 279.775 1.61775 4.32003 0
M  V30 2886 H 278.018 1.58611 4.03763 0
M  V30 2887 H 278.689 0.788379 5.46341 0
M  V30 2888 H 281.165 -0.591711 4.11871 0
M  V30 2889 H 280.041 -1.21761 5.35225 0
M  V30 2890 H 280.302 -2.12996 3.87408 0
M  V30 2891 N 279.361 -1.56624 0.175154 0
M  V30 2892 C 280.61 -1.96173 -0.468921 0
M  V30 2893 C 280.923 -1.06401 -1.64128 0
M  V30 2894 O 282.129 -1.35648 -2.35185 0
M  V30 2895 C 280.585 -3.48833 -0.885633 0
M  V30 2896 C 280.193 -4.47237 0.261343 0
M  V30 2897 C 281.937 -3.97194 -1.49791 0
M  V30 2898 C 279.844 -5.9114 -0.175214 0
M  V30 2899 H 278.774 -0.732455 -0.178958 0
M  V30 2900 H 281.425 -1.81591 0.263997 0
M  V30 2901 H 279.807 -3.58848 -1.67464 0
M  V30 2902 H 280.981 -4.4894 1.03871 0
M  V30 2903 H 279.296 -4.08956 0.783827 0
M  V30 2904 H 281.893 -5.02167 -1.83665 0
M  V30 2905 H 282.236 -3.40351 -2.39722 0
M  V30 2906 H 282.769 -3.90212 -0.773267 0
M  V30 2907 H 279.508 -6.51865 0.689414 0
M  V30 2908 H 279.028 -5.92735 -0.91786 0
M  V30 2909 H 280.707 -6.44044 -0.617792 0
M  V30 2910 N 280.839 0.0985539 -1.57292 0
M  V30 2911 C 281.802 1.10402 -2.00858 0
M  V30 2912 C 282.802 1.33146 -0.901593 0
M  V30 2913 O 283.992 1.29318 -1.16716 0
M  V30 2914 C 281.124 2.45394 -2.36632 0
M  V30 2915 H 282.317 0.729099 -2.90902 0
M  V30 2916 H 279.87 0.343495 -1.52479 0
M  V30 2917 H 280.605 2.87769 -1.49531 0
M  V30 2918 H 280.39 2.30235 -3.17387 0
M  V30 2919 H 281.88 3.17718 -2.71007 0
M  V30 2920 N 282.317 1.53212 0.369288 0
M  V30 2921 C 283.728 1.60943 0.946276 0
M  V30 2922 C 284.079 0.47452 1.90375 0
M  V30 2923 O 283.204 -0.399597 2.12679 0
M  V30 2924 C 283.799 2.91715 1.72302 0
M  V30 2925 C 282.358 3.01792 2.24941 0
M  V30 2926 C 281.505 2.56211 1.06072 0
M  V30 2927 H 284.456 1.58007 0.148198 0
M  V30 2928 H 284.477 2.79309 2.58393 0
M  V30 2929 H 283.989 3.74295 1.0259 0
M  V30 2930 H 282.09 2.23791 2.97906 0
M  V30 2931 H 282.203 4.06803 2.53077 0
M  V30 2932 H 280.567 2.10998 1.4266 0
M  V30 2933 H 281.35 3.41206 0.378639 0
M  V30 2934 N 283.795 -0.628877 1.44509 0
M  V30 2935 C 285.211 -0.947305 1.28446 0
M  V30 2936 C 285.411 -2.00275 0.221872 0
M  V30 2937 O 284.467 -2.49447 -0.391471 0
M  V30 2938 C 285.78 -1.40843 2.65676 0
M  V30 2939 C 287.328 -1.52379 2.73404 0
M  V30 2940 C 287.803 -2.01875 4.11109 0
M  V30 2941 N 289.294 -2.09142 4.13296 0
M  V30 2942 C 290.029 -2.48615 5.16699 0
M  V30 2943 N 289.525 -2.87209 6.30462 0
M  V30 2944 N 291.318 -2.48768 5.04054 0
M  V30 2945 H 283.469 0.0690977 2.12288 0
M  V30 2946 H 285.732 -0.0317164 0.947469 0
M  V30 2947 H 285.438 -0.707206 3.44516 0
M  V30 2948 H 285.312 -2.37902 2.92716 0
M  V30 2949 H 287.699 -2.21598 1.9488 0
M  V30 2950 H 287.78 -0.536898 2.50102 0
M  V30 2951 H 287.424 -1.3325 4.90109 0
M  V30 2952 H 287.354 -3.0144 4.31789 0
M  V30 2953 H 289.845 -1.81991 3.31191 0
M  V30 2954 H 290.158 -3.16149 7.05174 0
M  V30 2955 H 288.503 -2.84955 6.33897 0
M  V30 2956 H 291.694 -2.18009 4.14234 0
M  V30 2957 H 291.867 -2.79207 5.84763 0
M  V30 2958 N 285.273 -1.31445 -0.869486 0
M  V30 2959 C 286.684 -1.19042 -1.43826 0
M  V30 2960 C 287.035 0.202919 -1.95148 0
M  V30 2961 O 286.16 1.10071 -1.86315 0
M  V30 2962 C 286.755 -2.15499 -2.6143 0
M  V30 2963 C 285.314 -2.07028 -3.14351 0
M  V30 2964 C 284.461 -2.04701 -1.87063 0
M  V30 2965 H 287.412 -1.43489 -0.677984 0
M  V30 2966 H 287.433 -1.74488 -3.38134 0
M  V30 2967 H 286.945 -3.16899 -2.24046 0
M  V30 2968 H 285.046 -1.08825 -3.56354 0
M  V30 2969 H 285.159 -2.96157 -3.766 0
M  V30 2970 H 283.523 -1.49724 -2.06046 0
M  V30 2971 H 284.306 -3.07857 -1.51917 0
M  V30 2972 N 286.751 1.08385 -1.14413 0
M  V30 2973 C 287.661 2.18856 -0.844951 0
M  V30 2974 C 288.677 1.73121 0.174668 0
M  V30 2975 O 289.853 2.014 0.00312857 0
M  V30 2976 C 286.918 3.45155 -0.32696 0
M  V30 2977 C 285.979 4.05513 -1.40916 0
M  V30 2978 C 285.212 5.25784 -0.915793 0
M  V30 2979 O 285.435 5.69884 0.242651 0
M  V30 2980 O 284.369 5.77545 -1.69487 0
M  V30 2981 H 288.195 2.46919 -1.76818 0
M  V30 2982 H 285.78 1.17524 -0.922411 0
M  V30 2983 H 287.662 4.21377 -0.0440211 0
M  V30 2984 H 286.337 3.18668 0.568539 0
M  V30 2985 H 285.244 3.30879 -1.74556 0
M  V30 2986 H 286.577 4.3625 -2.27919 0
M  V30 2987 N 288.23 0.939286 1.26551 0
M  V30 2988 C 289.18 0.418284 2.2413 0
M  V30 2989 C 290.164 -0.483935 1.5345 0
M  V30 2990 O 291.356 -0.319489 1.74093 0
M  V30 2991 C 288.485 -0.31709 3.41832 0
M  V30 2992 C 287.571 0.602311 4.19801 0
M  V30 2993 N 287.962 1.72726 4.75394 0
M  V30 2994 C 286.26 0.407534 4.44134 0
M  V30 2995 C 286.961 2.30004 5.34297 0
M  V30 2996 N 285.937 1.58828 5.1988 0
M  V30 2997 H 289.739 1.27705 2.64705 0
M  V30 2998 H 287.253 0.794929 1.41614 0
M  V30 2999 H 289.25 -0.707364 4.10855 0
M  V30 3000 H 287.91 -1.17264 3.02786 0
M  V30 3001 H 288.921 2.10944 4.72994 0
M  V30 3002 H 285.598 -0.406406 4.15517 0
M  V30 3003 H 286.988 3.24778 5.88191 0
M  V30 3004 N 289.708 -1.40897 0.706093 0
M  V30 3005 C 290.936 -2.05373 0.250887 0
M  V30 3006 C 291.351 -1.53172 -1.10381 0
M  V30 3007 O 290.708 -0.684305 -1.69185 0
M  V30 3008 C 290.759 -3.6088 0.211571 0
M  V30 3009 O 290.48 -4.11153 1.51276 0
M  V30 3010 C 291.981 -4.42517 -0.263346 0
M  V30 3011 H 289.201 -0.66115 0.114552 0
M  V30 3012 H 291.745 -1.80479 0.961635 0
M  V30 3013 H 289.9 -3.84777 -0.450073 0
M  V30 3014 H 290.314 -5.05279 1.40689 0
M  V30 3015 H 291.788 -5.51479 -0.239718 0
M  V30 3016 H 292.265 -4.19396 -1.30397 0
M  V30 3017 H 292.871 -4.23708 0.367677 0
M  V30 3018 N 291.186 -0.45159 -1.50991 0
M  V30 3019 C 292.133 0.352625 -2.2809 0
M  V30 3020 C 293.103 1.0044 -1.32291 0
M  V30 3021 O 294.288 1.02058 -1.6121 0
M  V30 3022 C 291.428 1.43983 -3.13629 0
M  V30 3023 C 290.541 0.804772 -4.24438 0
M  V30 3024 C 289.676 1.86822 -4.97263 0
M  V30 3025 C 288.715 1.21236 -5.99973 0
M  V30 3026 N 287.852 2.2178 -6.66152 0
M  V30 3027 H 292.692 -0.311186 -2.96371 0
M  V30 3028 H 290.229 -0.165308 -1.46168 0
M  V30 3029 H 292.187 2.08161 -3.61559 0
M  V30 3030 H 290.817 2.07307 -2.47434 0
M  V30 3031 H 289.869 0.0509129 -3.80366 0
M  V30 3032 H 291.181 0.286076 -4.97979 0
M  V30 3033 H 290.335 2.58628 -5.48813 0
M  V30 3034 H 289.074 2.42068 -4.23385 0
M  V30 3035 H 288.079 0.479828 -5.47702 0
M  V30 3036 H 289.304 0.667051 -6.75816 0
M  V30 3037 H 287.25 2.76079 -5.95077 0
M  V30 3038 H 287.167 1.74841 -7.35504 0
M  V30 3039 H 288.435 2.93026 -7.22327 0
M  V30 3040 N 292.664 1.56529 -0.183458 0
M  V30 3041 C 293.889 2.02064 0.467428 0
M  V30 3042 C 294.314 1.06282 1.55196 0
M  V30 3043 O 293.672 0.0443565 1.81246 0
M  V30 3044 C 293.72 3.46122 1.01153 0
M  V30 3045 O 292.824 3.53437 2.12499 0
M  V30 3046 H 292.165 0.654726 0.110588 0
M  V30 3047 H 294.695 2.02521 -0.290917 0
M  V30 3048 H 294.705 3.85676 1.33108 0
M  V30 3049 H 293.38 4.15331 0.217533 0
M  V30 3050 H 291.957 3.2575 1.81497 0
M  V30 3051 N 294.142 -0.090211 1.57342 0
M  V30 3052 C 295.388 -0.793982 1.86611 0
M  V30 3053 C 295.721 -1.78142 0.773252 0
M  V30 3054 O 294.996 -1.93271 -0.218304 0
M  V30 3055 C 295.279 -1.51839 3.26523 0
M  V30 3056 C 295.132 -0.548609 4.46442 0
M  V30 3057 C 296.451 -2.46779 3.64401 0
M  V30 3058 H 293.57 -0.287186 0.678744 0
M  V30 3059 H 296.212 -0.0575076 1.89913 0
M  V30 3060 H 294.362 -2.14617 3.23839 0
M  V30 3061 H 296.034 0.0725513 4.61243 0
M  V30 3062 H 294.277 0.137614 4.33582 0
M  V30 3063 H 294.948 -1.09271 5.41076 0
M  V30 3064 H 297.424 -1.94089 3.68061 0
M  V30 3065 H 296.3 -2.94479 4.63221 0
M  V30 3066 H 296.561 -3.30758 2.93346 0
M  V30 3067 N 295.62 -1.53406 -0.361157 0
M  V30 3068 C 296.85 -1.73465 -1.1222 0
M  V30 3069 C 297.258 -0.465486 -1.83384 0
M  V30 3070 O 296.601 0.571611 -1.7458 0
M  V30 3071 C 296.663 -2.84834 -2.19339 0
M  V30 3072 C 296.327 -4.25038 -1.67903 0
M  V30 3073 C 297.324 -5.07231 -1.14074 0
M  V30 3074 C 295.009 -4.71464 -1.73282 0
M  V30 3075 C 297.003 -6.33942 -0.663068 0
M  V30 3076 C 294.69 -5.98153 -1.25127 0
M  V30 3077 C 295.688 -6.79223 -0.717296 0
M  V30 3078 O 295.376 -8.03533 -0.242865 0
M  V30 3079 H 295.108 -0.583526 -0.341283 0
M  V30 3080 H 297.662 -2.00964 -0.424591 0
M  V30 3081 H 295.892 -2.5282 -2.92607 0
M  V30 3082 H 297.581 -2.9303 -2.80871 0
M  V30 3083 H 298.347 -4.72534 -1.09254 0
M  V30 3084 H 294.226 -4.08432 -2.13786 0
M  V30 3085 H 297.77 -6.97167 -0.245612 0
M  V30 3086 H 293.667 -6.32347 -1.29642 0
M  V30 3087 H 294.435 -8.177 -0.361786 0
M  V30 3088 N 297.098 0.621204 -1.44841 0
M  V30 3089 C 298.326 1.40752 -1.51646 0
M  V30 3090 C 298.741 1.88246 -0.144549 0
M  V30 3091 O 298.098 1.61422 0.851416 0
M  V30 3092 C 298.149 2.62119 -2.4895 0
M  V30 3093 O 297.87 2.16602 -3.80808 0
M  V30 3094 C 299.371 3.55135 -2.65319 0
M  V30 3095 H 296.591 0.431325 -0.514004 0
M  V30 3096 H 299.135 0.758835 -1.899 0
M  V30 3097 H 297.29 3.23058 -2.13805 0
M  V30 3098 H 297.704 2.95358 -4.33433 0
M  V30 3099 H 299.178 4.36874 -3.37409 0
M  V30 3100 H 299.655 4.04592 -1.70886 0
M  V30 3101 H 300.261 3.00058 -3.01405 0
M  V30 3102 N 298.576 1.31904 0.862503 0
M  V30 3103 C 299.992 1.10724 1.14945 0
M  V30 3104 C 300.192 -0.117421 2.01158 0
M  V30 3105 O 299.248 -0.804595 2.39338 0
M  V30 3106 C 300.561 2.38267 1.83437 0
M  V30 3107 C 302.109 2.43949 1.96106 0
M  V30 3108 C 302.584 3.71394 2.68013 0
M  V30 3109 N 304.075 3.72331 2.75543 0
M  V30 3110 C 304.81 4.67641 3.31812 0
M  V30 3111 N 304.306 5.73313 3.88953 0
M  V30 3112 N 306.099 4.5515 3.29841 0
M  V30 3113 H 298.25 2.10436 0.288191 0
M  V30 3114 H 300.513 0.928705 0.190292 0
M  V30 3115 H 300.219 3.27759 1.27542 0
M  V30 3116 H 300.093 2.48633 2.83657 0
M  V30 3117 H 302.48 1.54922 2.51164 0
M  V30 3118 H 302.561 2.37543 0.949059 0
M  V30 3119 H 302.205 4.60791 2.13621 0
M  V30 3120 H 302.135 3.75069 3.69636 0
M  V30 3121 H 304.626 2.95947 2.34997 0
M  V30 3122 H 304.939 6.42107 4.30022 0
M  V30 3123 H 303.284 5.77077 3.87308 0
M  V30 3124 H 306.475 3.71766 2.84443 0
M  V30 3125 H 306.648 5.29604 3.73394 0
M  V30 3126 N 300.054 -1.07777 1.14986 0
M  V30 3127 C 301.279 -1.84558 0.946213 0
M  V30 3128 C 301.704 -1.81323 -0.500362 0
M  V30 3129 O 301.062 -1.20301 -1.35637 0
M  V30 3130 C 301.11 -3.29736 1.45968 0
M  V30 3131 O 300.214 -4.07149 0.65601 0
M  V30 3132 H 299.555 -0.571641 0.33782 0
M  V30 3133 H 302.085 -1.35991 1.52865 0
M  V30 3134 H 302.095 -3.80574 1.47063 0
M  V30 3135 H 300.77 -3.31406 2.51283 0
M  V30 3136 H 299.347 -3.65994 0.714322 0
M  V30 3137 N 301.532 -0.945985 -1.26051 0
M  V30 3138 C 302.778 -0.597002 -1.93814 0
M  V30 3139 C 303.111 0.862484 -1.73997 0
M  V30 3140 O 302.386 1.61769 -1.07986 0
M  V30 3141 C 302.669 -0.945937 -3.47454 0
M  V30 3142 C 302.522 -2.46052 -3.76535 0
M  V30 3143 C 303.841 -0.464785 -4.37639 0
M  V30 3144 H 300.96 -0.218366 -0.703907 0
M  V30 3145 H 303.602 -1.18107 -1.48831 0
M  V30 3146 H 301.752 -0.448902 -3.85898 0
M  V30 3147 H 303.424 -3.03065 -3.47778 0
M  V30 3148 H 301.667 -2.90194 -3.22444 0
M  V30 3149 H 302.338 -2.65517 -4.83947 0
M  V30 3150 H 304.814 -0.891016 -4.06448 0
M  V30 3151 H 303.69 -0.737712 -5.4392 0
M  V30 3152 H 303.951 0.635274 -4.37512 0
M  V30 3153 N 303.011 1.40521 -0.713556 0
M  V30 3154 C 304.26 2.00155 -0.249192 0
M  V30 3155 C 304.573 1.57224 1.16362 0
M  V30 3156 O 305.779 2.09542 1.72639 0
M  V30 3157 C 304.235 3.5773 -0.3946 0
M  V30 3158 C 303.843 4.09635 -1.81392 0
M  V30 3159 C 305.587 4.24499 0.00907364 0
M  V30 3160 C 303.494 5.59707 -1.91003 0
M  V30 3161 H 302.424 0.74868 -0.0894114 0
M  V30 3162 H 305.075 1.60784 -0.884352 0
M  V30 3163 H 303.457 3.94792 0.30911 0
M  V30 3164 H 304.631 3.83955 -2.54785 0
M  V30 3165 H 302.946 3.55456 -2.16888 0
M  V30 3166 H 305.543 5.34683 -0.0420404 0
M  V30 3167 H 305.886 4.02824 1.05065 0
M  V30 3168 H 306.419 3.92536 -0.645007 0
M  V30 3169 H 303.158 5.86234 -2.93275 0
M  V30 3170 H 302.678 5.87258 -1.22019 0
M  V30 3171 H 304.357 6.24776 -1.6812 0
M  V30 3172 N 304.489 0.459591 1.5075 0
M  V30 3173 C 305.399 -0.34613 2.32033 0
M  V30 3174 C 306.415 -1.00686 1.41909 0
M  V30 3175 O 307.591 -0.997361 1.7497 0
M  V30 3176 C 304.656 -1.42029 3.16273 0
M  V30 3177 C 303.717 -0.777362 4.22203 0
M  V30 3178 C 302.95 -1.80034 5.02418 0
M  V30 3179 O 303.173 -3.02544 4.83553 0
M  V30 3180 O 302.107 -1.37853 5.85901 0
M  V30 3181 H 305.933 0.318054 3.0203 0
M  V30 3182 H 303.518 0.221663 1.47746 0
M  V30 3183 H 305.4 -2.04275 3.68578 0
M  V30 3184 H 304.075 -2.06815 2.49016 0
M  V30 3185 H 302.982 -0.116256 3.73919 0
M  V30 3186 H 304.315 -0.172634 4.91897 0
M  V30 3187 N 305.967 -1.56429 0.191757 0
M  V30 3188 C 307.378 -1.83912 -0.321428 0
M  V30 3189 C 307.729 -1.11231 -1.61623 0
M  V30 3190 O 306.854 -0.37202 -2.13178 0
M  V30 3191 C 307.449 -3.33624 -0.589961 0
M  V30 3192 C 306.008 -3.6153 -1.04753 0
M  V30 3193 C 305.155 -2.7714 -0.0943327 0
M  V30 3194 H 308.106 -1.53161 0.415612 0
M  V30 3195 H 308.127 -3.52213 -1.43966 0
M  V30 3196 H 307.639 -3.86495 0.352588 0
M  V30 3197 H 305.74 -3.14089 -2.00447 0
M  V30 3198 H 305.853 -4.69737 -0.942549 0
M  V30 3199 H 304.217 -2.47638 -0.595589 0
M  V30 3200 H 305 -3.32799 0.842601 0
M  V30 3201 N 307.445 0.0818655 -1.57387 0
M  V30 3202 C 308.375 1.09885 -2.06028 0
M  V30 3203 C 309.356 1.4098 -0.951774 0
M  V30 3204 O 310.541 1.50781 -1.22387 0
M  V30 3205 C 307.671 2.4151 -2.4958 0
M  V30 3206 C 306.625 2.24792 -3.64215 0
M  V30 3207 C 305.951 3.61712 -3.93787 0
M  V30 3208 C 307.251 1.67749 -4.94629 0
M  V30 3209 H 308.945 0.694128 -2.91243 0
M  V30 3210 H 306.491 0.332448 -1.4011 0
M  V30 3211 H 308.444 3.12939 -2.82219 0
M  V30 3212 H 307.168 2.83943 -1.61381 0
M  V30 3213 H 305.827 1.55807 -3.31843 0
M  V30 3214 H 305.475 4.01697 -3.02735 0
M  V30 3215 H 305.175 3.51368 -4.70971 0
M  V30 3216 H 306.699 4.34587 -4.28913 0
M  V30 3217 H 308.113 2.29032 -5.25564 0
M  V30 3218 H 306.51 1.68128 -5.76067 0
M  V30 3219 H 307.58 0.638059 -4.80684 0
M  V30 3220 N 308.923 1.53595 0.353017 0
M  V30 3221 C 310.334 1.61937 0.929153 0
M  V30 3222 C 310.685 0.494686 1.89861 0
M  V30 3223 O 309.81 -0.377017 2.1309 0
M  V30 3224 C 310.405 2.93526 1.69199 0
M  V30 3225 C 308.964 3.04161 2.21727 0
M  V30 3226 C 308.111 2.57322 1.03348 0
M  V30 3227 H 311.062 1.58155 0.131431 0
M  V30 3228 H 311.083 2.82034 2.55416 0
M  V30 3229 H 310.595 3.75362 0.986144 0
M  V30 3230 H 308.696 2.26938 2.95516 0
M  V30 3231 H 308.809 4.09465 2.48748 0
M  V30 3232 H 307.173 2.12499 1.40414 0
M  V30 3233 H 307.956 3.41588 0.342428 0
M  V30 3234 N 310.401 -0.613514 1.45168 0
M  V30 3235 C 311.647 -1.37471 1.49096 0
M  V30 3236 C 311.98 -1.93765 0.129901 0
M  V30 3237 O 311.255 -1.74707 -0.854858 0
M  V30 3238 C 311.538 -2.52701 2.56542 0
M  V30 3239 C 311.391 -2.01643 4.0207 0
M  V30 3240 C 312.71 -3.54849 2.60327 0
M  V30 3241 H 309.829 -0.498502 0.54283 0
M  V30 3242 H 312.471 -0.692125 1.76945 0
M  V30 3243 H 310.621 -3.10931 2.32926 0
M  V30 3244 H 312.293 -1.48108 4.36877 0
M  V30 3245 H 310.536 -1.32688 4.13009 0
M  V30 3246 H 311.207 -2.84681 4.72928 0
M  V30 3247 H 313.683 -3.0645 2.81474 0
M  V30 3248 H 312.559 -4.32973 3.37381 0
M  V30 3249 H 312.82 -4.10079 1.6519 0
M  V30 3250 N 311.879 -1.3236 -0.855495 0
M  V30 3251 C 313.107 -1.2587 -1.64208 0
M  V30 3252 C 313.522 0.173457 -1.88002 0
M  V30 3253 O 312.879 1.11027 -1.44842 0
M  V30 3254 C 312.93 -2.01424 -3.00184 0
M  V30 3255 O 312.651 -3.39051 -2.77445 0
M  V30 3256 C 314.152 -2.01948 -3.94629 0
M  V30 3257 H 311.372 -0.434318 -0.511477 0
M  V30 3258 H 313.916 -1.74469 -1.0668 0
M  V30 3259 H 312.071 -1.56549 -3.5436 0
M  V30 3260 H 312.485 -3.77711 -3.63916 0
M  V30 3261 H 313.959 -2.59297 -4.87308 0
M  V30 3262 H 314.436 -1.00554 -4.27534 0
M  V30 3263 H 315.042 -2.46767 -3.4639 0
M  V30 3264 N 313.357 1.07166 -1.15556 0
M  V30 3265 C 314.768 1.6127 -0.940693 0
M  V30 3266 C 315.119 1.89251 0.517551 0
M  V30 3267 O 314.244 1.65937 1.38903 0
M  V30 3268 C 314.839 2.92993 -1.7012 0
M  V30 3269 C 313.398 3.43832 -1.53156 0
M  V30 3270 C 312.545 2.1786 -1.71558 0
M  V30 3271 H 315.496 0.90229 -1.30554 0
M  V30 3272 H 315.517 3.62007 -1.17181 0
M  V30 3273 H 315.029 2.72596 -2.76248 0
M  V30 3274 H 313.13 3.69307 -0.494294 0
M  V30 3275 H 313.243 4.19747 -2.30975 0
M  V30 3276 H 311.607 2.2765 -1.14225 0
M  V30 3277 H 312.39 1.99956 -2.79056 0
M  V30 3278 N 314.835 0.952656 1.25548 0
M  V30 3279 C 316.063 0.623496 1.97282 0
M  V30 3280 C 316.478 -0.803987 1.70826 0
M  V30 3281 O 315.835 -1.53755 0.983147 0
M  V30 3282 C 315.886 0.870209 3.5087 0
M  V30 3283 O 315.607 2.24156 3.76412 0
M  V30 3284 C 317.108 0.553164 4.39835 0
M  V30 3285 H 314.328 0.233931 0.628902 0
M  V30 3286 H 316.872 1.27649 1.59768 0
M  V30 3287 H 315.027 0.263652 3.86502 0
M  V30 3288 H 315.441 2.31021 4.70882 0
M  V30 3289 H 316.915 0.776342 5.46513 0
M  V30 3290 H 317.392 -0.512215 4.36203 0
M  V30 3291 H 317.998 1.13896 4.09766 0
M  V30 3292 N 316.313 -1.40141 0.720998 0
M  V30 3293 C 317.729 -1.54632 0.395113 0
M  V30 3294 C 317.929 -1.69115 -1.09555 0
M  V30 3295 O 316.985 -1.68377 -1.88163 0
M  V30 3296 C 318.298 -2.77177 1.1659 0
M  V30 3297 C 319.846 -2.91 1.15274 0
M  V30 3298 C 320.321 -4.16465 1.90579 0
M  V30 3299 N 321.812 -4.23476 1.87675 0
M  V30 3300 C 322.547 -5.19475 2.42762 0
M  V30 3301 N 322.043 -6.21348 3.06428 0
M  V30 3302 N 323.836 -5.11592 2.32874 0
M  V30 3303 H 315.987 -1.28986 1.68749 0
M  V30 3304 H 318.25 -0.62412 0.713567 0
M  V30 3305 H 317.956 -2.72771 2.22011 0
M  V30 3306 H 317.83 -3.69442 0.76108 0
M  V30 3307 H 320.217 -2.94907 0.106702 0
M  V30 3308 H 320.298 -1.99838 1.59682 0
M  V30 3309 H 319.942 -4.1332 2.95176 0
M  V30 3310 H 319.872 -5.06646 1.43587 0
M  V30 3311 H 322.363 -3.50497 1.41281 0
M  V30 3312 H 322.676 -6.91034 3.45965 0
M  V30 3313 H 321.021 -6.21777 3.10514 0
M  V30 3314 H 324.212 -4.30936 1.82789 0
M  V30 3315 H 324.385 -5.86233 2.76106 0
M  V30 3316 N 317.792 -0.46758 -1.50504 0
M  V30 3317 C 319.069 0.15003 -1.95024 0
M  V30 3318 C 319.449 1.57304 -1.40779 0
M  V30 3319 O 318.797 2.20281 -0.607319 0
M  V30 3320 C 319.007 0.0969324 -3.48865 0
M  V30 3321 C 320.355 0.287565 -4.23625 0
M  V30 3322 O 321.379 0.173678 -3.55776 0
M  V30 3323 O 320.238 0.517186 -5.44047 0
M  V30 3324 H 317.332 0.113582 -0.819163 0
M  V30 3325 H 319.878 -0.52773 -1.61286 0
M  V30 3326 H 318.65 -0.896732 -3.80886 0
M  V30 3327 H 318.273 0.816303 -3.8913 0
M  V30 3328 N 319.27 1.56325 -0.20005 0
M  V30 3329 C 320.516 1.98012 0.438059 0
M  V30 3330 C 320.849 1.08702 1.60927 0
M  V30 3331 O 320.124 0.140064 1.93995 0
M  V30 3332 C 320.407 3.48841 0.893419 0
M  V30 3333 C 320.26 4.48928 -0.279947 0
M  V30 3334 C 321.579 4.03498 1.75719 0
M  V30 3335 H 318.698 0.719918 0.157757 0
M  V30 3336 H 321.34 1.87743 -0.291968 0
M  V30 3337 H 319.49 3.57723 1.51547 0
M  V30 3338 H 321.162 4.52079 -0.91772 0
M  V30 3339 H 319.405 4.23694 -0.930919 0
M  V30 3340 H 320.076 5.5194 0.0812601 0
M  V30 3341 H 322.552 3.97427 1.23253 0
M  V30 3342 H 321.428 5.09393 2.04476 0
M  V30 3343 H 321.689 3.4906 2.71311 0
M  V30 3344 N 320.748 -0.0735177 1.57428 0
M  V30 3345 C 321.711 -1.07192 2.02589 0
M  V30 3346 C 322.711 -1.31695 0.922661 0
M  V30 3347 O 323.901 -1.27445 1.18758 0
M  V30 3348 C 321.033 -2.41599 2.40506 0
M  V30 3349 H 322.226 -0.682727 2.92025 0
M  V30 3350 H 319.779 -0.319193 1.53006 0
M  V30 3351 H 320.514 -2.85354 1.5409 0
M  V30 3352 H 320.299 -2.25156 3.21009 0
M  V30 3353 H 321.789 -3.13367 2.76027 0
M  V30 3354 N 322.226 -1.5378 -0.344866 0
M  V30 3355 C 323.454 -1.74899 -1.10534 0
M  V30 3356 C 323.869 -0.487534 -1.82397 0
M  V30 3357 O 323.226 0.540741 -1.74305 0
M  V30 3358 C 323.277 -2.92822 -2.11984 0
M  V30 3359 O 322.998 -4.14089 -1.43044 0
M  V30 3360 C 324.499 -3.25982 -3.00417 0
M  V30 3361 H 321.719 -0.584426 -0.329678 0
M  V30 3362 H 324.263 -2.006 -0.397474 0
M  V30 3363 H 322.418 -2.69457 -2.78338 0
M  V30 3364 H 322.832 -4.80272 -2.10805 0
M  V30 3365 H 324.306 -4.11848 -3.67539 0
M  V30 3366 H 324.783 -2.42228 -3.66363 0
M  V30 3367 H 325.389 -3.51349 -2.39654 0
M  V30 3368 N 323.704 0.605807 -1.45491 0
M  V30 3369 C 324.929 1.39625 -1.53361 0
M  V30 3370 C 325.354 1.87351 -0.167645 0
M  V30 3371 O 324.712 1.60243 0.848051 0
M  V30 3372 C 324.76 2.57559 -2.5238 0
M  V30 3373 O 323.864 3.58248 -2.04285 0
M  V30 3374 H 323.205 0.416771 -0.516912 0
M  V30 3375 H 325.735 0.737103 -1.90861 0
M  V30 3376 H 325.745 3.0478 -2.71244 0
M  V30 3377 H 324.42 2.22171 -3.51586 0
M  V30 3378 H 322.997 3.17664 -1.95305 0
M  V30 3379 N 325.182 1.32811 0.848464 0
M  V30 3380 C 326.593 1.21315 1.41914 0
M  V30 3381 C 326.944 -0.171847 1.95446 0
M  V30 3382 O 326.069 -1.07093 1.88043 0
M  V30 3383 C 326.664 2.19631 2.57968 0
M  V30 3384 C 325.223 2.12003 3.11017 0
M  V30 3385 C 324.37 2.07651 1.83783 0
M  V30 3386 H 327.321 1.44549 0.655071 0
M  V30 3387 H 327.342 1.79845 3.35315 0
M  V30 3388 H 326.854 3.20423 2.18976 0
M  V30 3389 H 324.955 1.14481 3.54577 0
M  V30 3390 H 325.068 3.02111 3.71841 0
M  V30 3391 H 323.432 1.52983 2.03638 0
M  V30 3392 H 324.215 3.10235 1.47 0
M  V30 3393 N 326.66 -1.06551 1.16123 0
M  V30 3394 C 327.909 -1.78687 0.935622 0
M  V30 3395 C 328.222 -1.88056 -0.538001 0
M  V30 3396 O 329.428 -2.56794 -0.88143 0
M  V30 3397 C 327.884 -3.21143 1.62466 0
M  V30 3398 C 327.492 -3.19949 3.13587 0
M  V30 3399 C 329.236 -3.9783 1.48092 0
M  V30 3400 C 327.143 -4.57108 3.75241 0
M  V30 3401 H 326.073 -0.669712 0.346412 0
M  V30 3402 H 328.724 -1.19534 1.39226 0
M  V30 3403 H 327.106 -3.80539 1.09572 0
M  V30 3404 H 328.28 -2.70151 3.73303 0
M  V30 3405 H 326.595 -2.5676 3.27816 0
M  V30 3406 H 329.192 -4.99217 1.91538 0
M  V30 3407 H 329.535 -4.14078 0.429507 0
M  V30 3408 H 330.068 -3.4495 1.98127 0
M  V30 3409 H 326.807 -4.46065 4.80319 0
M  V30 3410 H 326.327 -5.07111 3.20309 0
M  V30 3411 H 328.006 -5.26069 3.76644 0
M  V30 3412 N 328.138 -0.959301 -1.25041 0
M  V30 3413 C 329.363 -0.633507 -1.97488 0
M  V30 3414 C 329.788 0.788555 -1.70773 0
M  V30 3415 O 329.146 1.53394 -0.966431 0
M  V30 3416 C 329.194 -0.904057 -3.49083 0
M  V30 3417 O 328.298 0.0147939 -4.12397 0
M  V30 3418 H 327.639 -0.240368 -0.618966 0
M  V30 3419 H 330.169 -1.28717 -1.59038 0
M  V30 3420 H 330.179 -0.832203 -3.99423 0
M  V30 3421 H 328.854 -1.94048 -3.67856 0
M  V30 3422 H 327.431 -0.109664 -3.72739 0
M  V30 3423 N 329.616 1.39756 -0.72842 0
M  V30 3424 C 331.027 1.83498 -0.344289 0
M  V30 3425 C 331.378 1.60868 1.12321 0
M  V30 3426 O 330.503 1.09634 1.86573 0
M  V30 3427 C 331.098 3.33114 -0.618112 0
M  V30 3428 C 329.657 3.753 -0.287549 0
M  V30 3429 C 328.804 2.62831 -0.884048 0
M  V30 3430 H 331.755 1.28842 -0.926578 0
M  V30 3431 H 331.776 3.80334 0.112349 0
M  V30 3432 H 331.288 3.49553 -1.68625 0
M  V30 3433 H 329.389 3.64451 0.775012 0
M  V30 3434 H 329.502 4.72945 -0.765512 0
M  V30 3435 H 327.866 2.52792 -0.311149 0
M  V30 3436 H 328.649 2.82078 -1.95671 0
M  V30 3437 N 331.094 0.475555 1.50254 0
M  V30 3438 C 332.322 -0.0754493 2.06762 0
M  V30 3439 C 332.737 -1.33111 1.33891 0
M  V30 3440 O 332.094 -1.77846 0.40952 0
M  V30 3441 C 332.145 -0.359008 3.59713 0
M  V30 3442 O 331.866 0.846851 4.29837 0
M  V30 3443 C 333.367 -0.956484 4.32858 0
M  V30 3444 H 330.587 0.00907525 0.670939 0
M  V30 3445 H 333.131 0.665618 1.93364 0
M  V30 3446 H 331.286 -1.05001 3.72899 0
M  V30 3447 H 331.7 0.594162 5.21124 0
M  V30 3448 H 333.174 -1.10463 5.40834 0
M  V30 3449 H 333.651 -1.94775 3.93649 0
M  V30 3450 H 334.257 -0.303723 4.24214 0
M  V30 3451 N 332.573 -1.56217 0.208337 0
M  V30 3452 C 333.483 -2.23316 -0.718836 0
M  V30 3453 C 334.499 -1.23648 -1.22422 0
M  V30 3454 O 335.675 -1.56423 -1.26861 0
M  V30 3455 C 332.74 -2.88968 -1.91568 0
M  V30 3456 C 331.801 -4.03943 -1.45357 0
M  V30 3457 C 331.034 -4.66455 -2.59337 0
M  V30 3458 O 331.257 -4.27919 -3.77149 0
M  V30 3459 O 330.191 -5.55686 -2.31293 0
M  V30 3460 H 334.017 -3.03182 -0.177315 0
M  V30 3461 H 331.602 -1.49384 -0.0215402 0
M  V30 3462 H 333.484 -3.30455 -2.61491 0
M  V30 3463 H 332.159 -2.12071 -2.44556 0
M  V30 3464 H 331.066 -3.67052 -0.722746 0
M  V30 3465 H 332.399 -4.82543 -0.970219 0
M  V30 3466 N 334.051 0.0651679 -1.57465 0
M  V30 3467 C 334.999 1.09542 -2.05191 0
M  V30 3468 C 335.993 1.39675 -0.958509 0
M  V30 3469 O 337.199 1.39003 -1.14359 0
M  V30 3470 H 333.574 0.370623 -0.654326 0
M  V30 3471 H 335.545 0.666802 -2.90854 0
M  V30 3472 C 334.294 2.39881 -2.51699 0
M  V30 3473 H 333.617 2.17547 -3.3543 0
M  V30 3474 H 335.057 3.104 -2.88839 0
M  V30 3475 C 333.516 3.0631 -1.40271 0
M  V30 3476 O 334.046 3.94664 -0.748523 0
M  V30 3477 N 332.252 2.67041 -1.14618 0
M  V30 3478 H 331.799 1.95281 -1.67997 0
M  V30 3479 H 331.757 3.1181 -0.402688 0
M  V30 3480 N 335.529 1.53961 0.336706 0
M  V30 3481 C 336.477 1.83136 1.43401 0
M  V30 3482 C 337.471 0.702313 1.54156 0
M  V30 3483 O 338.677 0.885765 1.56698 0
M  V30 3484 H 335.052 0.580309 0.478273 0
M  V30 3485 H 337.023 2.74925 1.16012 0
M  V30 3486 C 335.772 2.06385 2.79822 0
M  V30 3487 H 335.095 2.92718 2.72316 0
M  V30 3488 H 336.535 2.30761 3.55704 0
M  V30 3489 C 334.994 0.851414 3.25964 0
M  V30 3490 O 335.524 0.0541904 4.01663 0
M  V30 3491 N 333.73 0.66672 2.82848 0
M  V30 3492 H 333.277 1.31665 2.21409 0
M  V30 3493 H 333.235 -0.143032 3.14074 0
M  V30 3494 N 337.007 -0.598083 1.45811 0
M  V30 3495 C 338.235 -1.38322 1.53866 0
M  V30 3496 C 338.65 -1.87992 0.174479 0
M  V30 3497 O 338.007 -1.62756 -0.825627 0
M  V30 3498 C 338.058 -2.58125 2.53089 0
M  V30 3499 O 337.779 -2.10516 3.84206 0
M  V30 3500 C 339.28 -3.50869 2.70935 0
M  V30 3501 H 336.5 -0.423093 0.520801 0
M  V30 3502 H 339.044 -0.728527 1.91083 0
M  V30 3503 H 337.199 -3.19615 2.18917 0
M  V30 3504 H 337.613 -2.88425 4.38077 0
M  V30 3505 H 339.087 -4.31451 3.44317 0
M  V30 3506 H 339.564 -4.01822 1.77301 0
M  V30 3507 H 340.17 -2.95225 3.06141 0
M  V30 3508 N 338.485 -1.33259 -0.841409 0
M  V30 3509 C 339.713 -1.27605 -1.62864 0
M  V30 3510 C 340.128 0.153507 -1.88175 0
M  V30 3511 O 339.485 1.09485 -1.46011 0
M  V30 3512 C 339.536 -2.04596 -2.98031 0
M  V30 3513 O 339.257 -3.41975 -2.73834 0
M  V30 3514 C 340.758 -2.06122 -3.92465 0
M  V30 3515 H 337.978 -0.439718 -0.506842 0
M  V30 3516 H 340.522 -1.75591 -1.04824 0
M  V30 3517 H 338.677 -1.60299 -3.5268 0
M  V30 3518 H 339.091 -3.81549 -3.59889 0
M  V30 3519 H 340.565 -2.64451 -4.84531 0
M  V30 3520 H 341.042 -1.05083 -4.26444 0
M  V30 3521 H 341.648 -2.50427 -3.43753 0
M  V30 3522 N 339.963 1.05934 -1.16686 0
M  V30 3523 C 341.374 1.60263 -0.957745 0
M  V30 3524 C 341.725 1.89789 0.49745 0
M  V30 3525 O 340.85 1.67401 1.37135 0
M  V30 3526 C 341.445 2.91172 -1.73218 0
M  V30 3527 C 340.004 3.42188 -1.56794 0
M  V30 3528 C 339.151 2.16028 -1.73859 0
M  V30 3529 H 342.102 0.888392 -1.31504 0
M  V30 3530 H 342.123 3.60744 -1.21014 0
M  V30 3531 H 341.635 2.6965 -2.79124 0
M  V30 3532 H 339.736 3.68762 -0.533437 0
M  V30 3533 H 339.849 4.17273 -2.35414 0
M  V30 3534 H 338.213 2.26426 -1.16633 0
M  V30 3535 H 338.996 1.96985 -2.81161 0
M  V30 3536 N 341.441 0.965919 1.2453 0
M  V30 3537 C 342.852 0.665929 1.7442 0
M  V30 3538 C 343.203 -0.818407 1.78316 0
M  V30 3539 O 342.328 -1.64037 1.41141 0
M  V30 3540 C 342.923 1.20211 3.16757 0
M  V30 3541 C 341.482 0.952059 3.6416 0
M  V30 3542 C 340.629 1.33848 2.42858 0
M  V30 3543 H 343.58 1.14144 1.10258 0
M  V30 3544 H 343.601 0.567544 3.76244 0
M  V30 3545 H 343.113 2.28244 3.13889 0
M  V30 3546 H 341.214 -0.112821 3.72429 0
M  V30 3547 H 341.327 1.59645 4.51719 0
M  V30 3548 H 339.691 0.756864 2.43195 0
M  V30 3549 H 340.474 2.42827 2.42673 0
M  V30 3550 N 342.919 -1.39368 0.735821 0
M  V30 3551 C 344.196 -1.94465 0.210395 0
M  V30 3552 C 344.576 -1.67254 -1.28799 0
M  V30 3553 O 343.924 -1.00123 -2.05396 0
M  V30 3554 C 344.134 -3.4472 0.544897 0
M  V30 3555 C 345.482 -4.21708 0.494689 0
M  V30 3556 O 346.506 -3.52922 0.482136 0
M  V30 3557 O 345.365 -5.44299 0.489947 0
M  V30 3558 H 342.459 -0.826096 0.0386666 0
M  V30 3559 H 345.005 -1.48863 0.814735 0
M  V30 3560 H 343.777 -3.57963 1.58045 0
M  V30 3561 H 343.4 -3.97502 -0.08837 0
M  V30 3562 N 344.397 -0.483516 -1.5 0
M  V30 3563 C 345.36 0.292965 -2.2732 0
M  V30 3564 C 346.36 0.909499 -1.32608 0
M  V30 3565 O 347.55 0.776745 -1.55924 0
M  V30 3566 C 344.682 1.41854 -3.09984 0
M  V30 3567 H 345.875 -0.385289 -2.97415 0
M  V30 3568 H 343.428 -0.237942 -1.54478 0
M  V30 3569 H 344.163 2.13148 -2.44414 0
M  V30 3570 H 343.948 0.982114 -3.79601 0
M  V30 3571 H 345.438 1.96597 -3.68429 0
M  V30 3572 N 345.875 1.56104 -0.216619 0
M  V30 3573 C 346.805 2.23063 0.690296 0
M  V30 3574 C 347.786 1.20072 1.20485 0
M  V30 3575 O 348.971 1.48643 1.24976 0
M  V30 3576 C 346.101 2.90672 1.90072 0
M  V30 3577 C 345.055 4.00092 1.5202 0
M  V30 3578 C 344.381 4.54972 2.80899 0
M  V30 3579 C 345.681 5.17398 0.71391 0
M  V30 3580 H 347.375 2.99109 0.132038 0
M  V30 3581 H 344.921 1.43866 0.0620664 0
M  V30 3582 H 346.874 3.36204 2.54057 0
M  V30 3583 H 345.598 2.12066 2.48386 0
M  V30 3584 H 344.257 3.55283 0.903839 0
M  V30 3585 H 343.905 3.73102 3.37348 0
M  V30 3586 H 343.605 5.28817 2.56176 0
M  V30 3587 H 345.129 5.0322 3.45836 0
M  V30 3588 H 346.543 5.59342 1.25735 0
M  V30 3589 H 344.94 5.97444 0.563951 0
M  V30 3590 H 346.01 4.84088 -0.280527 0
M  V30 3591 N 347.353 -0.0568162 1.57498 0
M  V30 3592 C 348.581 -0.765626 1.92213 0
M  V30 3593 C 348.996 -1.70353 0.813961 0
M  V30 3594 O 348.353 -1.81268 -0.211701 0
M  V30 3595 C 348.404 -1.5465 3.2675 0
M  V30 3596 O 348.125 -0.646278 4.33307 0
M  V30 3597 C 349.626 -2.35497 3.75574 0
M  V30 3598 H 346.846 -0.216835 0.634999 0
M  V30 3599 H 349.39 -0.0226146 2.04487 0
M  V30 3600 H 347.545 -2.24165 3.15957 0
M  V30 3601 H 347.959 -1.19093 5.108 0
M  V30 3602 H 349.433 -2.85722 4.72299 0
M  V30 3603 H 349.91 -3.15692 3.05344 0
M  V30 3604 H 350.516 -1.7111 3.8936 0
M  V30 3605 N 348.832 -1.54138 -0.328536 0
M  V30 3606 C 350.248 -1.44736 -0.672574 0
M  V30 3607 C 350.448 -0.616217 -1.91846 0
M  V30 3608 O 349.504 -0.113067 -2.52247 0
M  V30 3609 C 350.817 -2.884 -0.851217 0
M  V30 3610 C 352.365 -2.98271 -0.948877 0
M  V30 3611 C 352.84 -4.43074 -1.15973 0
M  V30 3612 N 354.331 -4.46665 -1.22658 0
M  V30 3613 C 355.066 -5.55857 -1.40751 0
M  V30 3614 N 354.562 -6.75026 -1.5592 0
M  V30 3615 N 356.355 -5.43495 -1.4342 0
M  V30 3616 H 348.506 -2.06661 0.490421 0
M  V30 3617 H 350.769 -0.934812 0.157579 0
M  V30 3618 H 350.475 -3.51699 -0.00704236 0
M  V30 3619 H 350.349 -3.34225 -1.74853 0
M  V30 3620 H 352.736 -2.35102 -1.78356 0
M  V30 3621 H 352.817 -2.55785 -0.0281435 0
M  V30 3622 H 352.461 -5.06827 -0.329915 0
M  V30 3623 H 352.391 -4.83165 -2.09426 0
M  V30 3624 H 354.882 -3.60797 -1.124 0
M  V30 3625 H 355.195 -7.54004 -1.69404 0
M  V30 3626 H 353.54 -6.77944 -1.53027 0
M  V30 3627 H 356.731 -4.49349 -1.31162 0
M  V30 3628 H 356.904 -6.28649 -1.57178 0
M  V30 3629 N 350.31 0.590341 -1.46126 0
M  V30 3630 C 351.258 1.72105 -1.5647 0
M  V30 3631 C 352.252 1.63756 -0.433612 0
M  V30 3632 O 353.458 1.69342 -0.610194 0
M  V30 3633 H 349.833 0.568889 -0.491802 0
M  V30 3634 H 351.804 1.6051 -2.51553 0
M  V30 3635 C 350.553 3.10493 -1.56491 0
M  V30 3636 H 349.876 3.17583 -2.4286 0
M  V30 3637 H 351.316 3.8939 -1.67785 0
M  V30 3638 C 349.775 3.3563 -0.292231 0
M  V30 3639 O 350.305 3.96875 0.620739 0
M  V30 3640 N 348.511 2.90026 -0.182523 0
M  V30 3641 H 348.058 2.40367 -0.926356 0
M  V30 3642 H 348.016 3.07218 0.668152 0
M  V30 3643 N 351.788 1.33704 0.83433 0
M  V30 3644 C 353.016 1.28467 1.62185 0
M  V30 3645 C 353.431 -0.143526 1.88254 0
M  V30 3646 O 352.788 -1.08709 1.4659 0
M  V30 3647 C 352.839 2.06174 2.96942 0
M  V30 3648 O 352.56 3.43422 2.72016 0
M  V30 3649 C 354.061 2.08201 3.91366 0
M  V30 3650 H 351.281 0.4424 0.504503 0
M  V30 3651 H 353.825 1.76145 1.03891 0
M  V30 3652 H 351.98 1.62167 3.51825 0
M  V30 3653 H 352.394 3.83453 3.57861 0
M  V30 3654 H 353.868 2.67017 4.83121 0
M  V30 3655 H 354.345 1.07343 4.2588 0
M  V30 3656 H 354.951 2.52246 3.42421 0
M  V30 3657 N 353.266 -1.05314 1.17247 0
M  V30 3658 C 354.176 -2.16538 0.90268 0
M  V30 3659 C 355.192 -1.73523 -0.128707 0
M  V30 3660 O 356.368 -2.01337 0.0502701 0
M  V30 3661 C 353.433 -3.44167 0.418356 0
M  V30 3662 C 352.494 -4.01635 1.51618 0
M  V30 3663 C 351.727 -5.23171 1.05487 0
M  V30 3664 O 351.95 -5.70327 -0.0914715 0
M  V30 3665 O 350.884 -5.72848 1.8474 0
M  V30 3666 H 354.71 -2.42145 1.83302 0
M  V30 3667 H 352.295 -1.15037 0.953246 0
M  V30 3668 H 354.177 -4.21112 0.155726 0
M  V30 3669 H 352.852 -3.20063 -0.48385 0
M  V30 3670 H 351.759 -3.26135 1.83268 0
M  V30 3671 H 353.092 -4.30053 2.39405 0
M  V30 3672 N 354.744 -0.972509 -1.24016 0
M  V30 3673 C 355.691 -0.505969 -2.25186 0
M  V30 3674 C 356.661 0.451009 -1.5986 0
M  V30 3675 O 357.846 0.360307 -1.87367 0
M  V30 3676 C 354.986 0.193089 -3.44559 0
M  V30 3677 C 354.099 -0.803222 -4.24467 0
M  V30 3678 C 353.234 -0.0797793 -5.3114 0
M  V30 3679 C 352.273 -1.06583 -6.02749 0
M  V30 3680 N 351.41 -0.372074 -7.01113 0
M  V30 3681 H 356.25 -1.37351 -2.64459 0
M  V30 3682 H 353.787 -0.688419 -1.29997 0
M  V30 3683 H 355.745 0.615125 -4.1264 0
M  V30 3684 H 354.375 1.02455 -3.06109 0
M  V30 3685 H 353.427 -1.34368 -3.55878 0
M  V30 3686 H 354.739 -1.55494 -4.73944 0
M  V30 3687 H 353.893 0.400015 -6.0538 0
M  V30 3688 H 352.632 0.704597 -4.82583 0
M  V30 3689 H 351.637 -1.55645 -5.27309 0
M  V30 3690 H 352.862 -1.85074 -6.53395 0
M  V30 3691 H 350.808 0.393238 -6.5482 0
M  V30 3692 H 350.725 -1.06258 -7.48495 0
M  V30 3693 H 351.993 0.0855932 -7.79453 0
M  V30 3694 N 356.222 1.38976 -0.743202 0
M  V30 3695 C 357.154 2.29096 -0.0689228 0
M  V30 3696 C 358.167 1.47229 0.694791 0
M  V30 3697 O 359.356 1.70212 0.537597 0
M  V30 3698 C 356.456 3.25988 0.926548 0
M  V30 3699 C 355.629 4.36833 0.222647 0
M  V30 3700 C 354.688 5.13981 1.12739 0
M  V30 3701 O 353.714 5.6601 0.601795 0
M  V30 3702 N 354.916 5.25966 2.45641 0
M  V30 3703 H 357.681 2.87604 -0.842846 0
M  V30 3704 H 355.242 1.50645 -0.593109 0
M  V30 3705 H 357.234 3.74476 1.5346 0
M  V30 3706 H 355.804 2.68453 1.60162 0
M  V30 3707 H 355.024 3.90116 -0.565983 0
M  V30 3708 H 356.312 5.0811 -0.264841 0
M  V30 3709 H 355.71 4.85228 2.9081 0
M  V30 3710 H 354.267 5.77865 3.01522 0
M  V30 3711 N 357.7 0.491464 1.49741 0
M  V30 3712 C 358.647 -0.292027 2.28945 0
M  V30 3713 C 359.617 -0.968973 1.34908 0
M  V30 3714 O 360.802 -0.97748 1.6386 0
M  V30 3715 C 357.942 -1.35617 3.17336 0
M  V30 3716 C 357.055 -0.691957 4.26422 0
M  V30 3717 C 356.19 -1.73572 5.02042 0
M  V30 3718 C 355.229 -1.05286 6.02977 0
M  V30 3719 N 354.366 -2.0404 6.71798 0
M  V30 3720 H 359.206 0.389654 2.95442 0
M  V30 3721 H 356.743 0.204003 1.45679 0
M  V30 3722 H 358.701 -1.98502 3.66951 0
M  V30 3723 H 357.331 -2.00674 2.52844 0
M  V30 3724 H 356.383 0.0499523 3.80367 0
M  V30 3725 H 357.695 -0.153946 4.98562 0
M  V30 3726 H 356.849 -2.43987 5.55478 0
M  V30 3727 H 355.588 -2.30757 4.29654 0
M  V30 3728 H 354.593 -0.334446 5.48782 0
M  V30 3729 H 355.818 -0.487636 6.77347 0
M  V30 3730 H 353.764 -2.60205 6.02187 0
M  V30 3731 H 353.681 -1.55279 7.39881 0
M  V30 3732 H 354.949 -2.73772 7.29842 0
M  V30 3733 N 359.178 -1.55987 0.224894 0
M  V30 3734 C 360.125 -2.20436 -0.68385 0
M  V30 3735 C 361.095 -1.16102 -1.18783 0
M  V30 3736 O 362.28 -1.4447 -1.24632 0
M  V30 3737 C 359.42 -2.89076 -1.88491 0
M  V30 3738 C 358.533 -4.08012 -1.41951 0
M  V30 3739 C 357.668 -4.64426 -2.5784 0
M  V30 3740 C 356.707 -5.75656 -2.08053 0
M  V30 3741 N 355.844 -6.26347 -3.17227 0
M  V30 3742 H 360.684 -2.97727 -0.12754 0
M  V30 3743 H 358.221 -1.47011 -0.0511978 0
M  V30 3744 H 360.179 -3.27059 -2.59014 0
M  V30 3745 H 358.809 -2.14298 -2.41405 0
M  V30 3746 H 357.861 -3.75492 -0.609095 0
M  V30 3747 H 359.173 -4.88375 -1.01447 0
M  V30 3748 H 358.327 -5.04869 -3.3644 0
M  V30 3749 H 357.066 -3.83233 -3.01635 0
M  V30 3750 H 356.071 -5.34712 -1.27916 0
M  V30 3751 H 357.296 -6.58686 -1.65255 0
M  V30 3752 H 355.242 -5.48067 -3.60497 0
M  V30 3753 H 355.159 -7.01843 -2.80986 0
M  V30 3754 H 356.427 -6.71447 -3.95953 0
M  V30 3755 N 360.656 0.0484629 -1.57525 0
M  V30 3756 C 361.603 1.05504 -2.05275 0
M  V30 3757 C 362.573 1.37084 -0.937927 0
M  V30 3758 O 363.758 1.47754 -1.2072 0
M  V30 3759 C 360.898 2.35676 -2.52093 0
M  V30 3760 C 360.011 2.10423 -3.77288 0
M  V30 3761 C 359.146 3.34327 -4.12794 0
M  V30 3762 C 358.185 3.04542 -5.30962 0
M  V30 3763 N 357.322 4.20841 -5.61994 0
M  V30 3764 H 362.162 0.640885 -2.91027 0
M  V30 3765 H 359.699 0.304854 -1.43906 0
M  V30 3766 H 361.657 3.11709 -2.77297 0
M  V30 3767 H 360.287 2.7485 -1.69285 0
M  V30 3768 H 359.339 1.24976 -3.59284 0
M  V30 3769 H 360.651 1.84438 -4.63448 0
M  V30 3770 H 359.805 4.1874 -4.39024 0
M  V30 3771 H 358.544 3.63408 -3.25247 0
M  V30 3772 H 357.549 2.18528 -5.04505 0
M  V30 3773 H 358.774 2.76758 -6.20146 0
M  V30 3774 H 356.72 4.4991 -4.77406 0
M  V30 3775 H 356.637 3.98212 -6.42622 0
M  V30 3776 H 357.905 5.06184 -5.92789 0
M  V30 3777 N 362.134 1.5431 0.320358 0
M  V30 3778 C 363.545 1.63872 0.894594 0
M  V30 3779 C 363.896 0.534847 1.88769 0
M  V30 3780 O 363.021 -0.331732 2.13842 0
M  V30 3781 C 363.616 2.97049 1.62934 0
M  V30 3782 C 362.175 3.08796 2.15226 0
M  V30 3783 C 361.322 2.59456 0.978671 0
M  V30 3784 H 364.273 1.58398 0.0978544 0
M  V30 3785 H 364.294 2.87388 2.49376 0
M  V30 3786 H 363.806 3.7737 0.906302 0
M  V30 3787 H 361.907 2.33156 2.90636 0
M  V30 3788 H 362.02 4.14649 2.40006 0
M  V30 3789 H 360.384 2.1543 1.35875 0
M  V30 3790 H 361.167 3.42237 0.269895 0
M  V30 3791 N 363.613 -0.582584 1.46437 0
M  V30 3792 C 364.56 -1.69164 1.5701 0
M  V30 3793 C 365.53 -1.60847 0.414403 0
M  V30 3794 O 366.715 -1.80058 0.631171 0
M  V30 3795 C 363.855 -3.075 1.56646 0
M  V30 3796 C 362.968 -3.2644 2.82951 0
M  V30 3797 C 362.103 -4.55026 2.7409 0
M  V30 3798 C 361.142 -4.6731 3.95333 0
M  V30 3799 N 360.279 -5.87221 3.84858 0
M  V30 3800 H 365.119 -1.59464 2.51744 0
M  V30 3801 H 362.656 -0.777186 1.24893 0
M  V30 3802 H 364.614 -3.8757 1.5442 0
M  V30 3803 H 363.244 -3.16096 0.654439 0
M  V30 3804 H 362.296 -2.39974 2.95155 0
M  V30 3805 H 363.608 -3.31385 3.72808 0
M  V30 3806 H 362.762 -5.43324 2.6997 0
M  V30 3807 H 361.501 -4.52519 1.81873 0
M  V30 3808 H 360.506 -3.77429 3.99784 0
M  V30 3809 H 361.731 -4.71595 4.88646 0
M  V30 3810 H 359.677 -5.85712 2.95427 0
M  V30 3811 H 359.594 -5.93435 4.6837 0
M  V30 3812 H 360.862 -6.7795 3.84713 0
M  V30 3813 N 365.091 -1.34144 -0.827227 0
M  V30 3814 C 366.024 -1.19707 -1.94282 0
M  V30 3815 C 367.002 -0.0897256 -1.62352 0
M  V30 3816 O 368.186 -0.254095 -1.8678 0
M  V30 3817 C 365.313 -0.838646 -3.28153 0
M  V30 3818 C 364.359 -1.95514 -3.79047 0
M  V30 3819 S 365.192 -3.56793 -3.99323 0
M  V30 3820 C 366.348 -3.22983 -5.36127 0
M  V30 3821 H 366.581 -2.1414 -2.06231 0
M  V30 3822 H 364.114 -1.19121 -0.982321 0
M  V30 3823 H 366.072 -0.638637 -4.05502 0
M  V30 3824 H 364.733 0.0872776 -3.13979 0
M  V30 3825 H 363.926 -1.658 -4.75948 0
M  V30 3826 H 363.528 -2.11241 -3.08631 0
M  V30 3827 H 365.82 -2.74531 -6.19386 0
M  V30 3828 H 366.763 -4.19008 -5.70822 0
M  V30 3829 H 367.171 -2.59276 -5.01434 0
M  V30 3830 N 366.569 1.04691 -1.17803 0
M  V30 3831 C 367.794 1.81984 -0.994813 0
M  V30 3832 C 368.219 1.82586 0.452112 0
M  V30 3833 O 367.577 1.23854 1.324 0
M  V30 3834 C 367.625 3.2575 -1.54659 0
M  V30 3835 O 366.729 4.05267 -0.763728 0
M  V30 3836 H 366.07 0.562483 -0.352857 0
M  V30 3837 H 368.6 1.3189 -1.56417 0
M  V30 3838 H 368.61 3.76541 -1.57102 0
M  V30 3839 H 367.285 3.24627 -2.59981 0
M  V30 3840 H 365.862 3.63972 -0.811108 0
M  V30 3841 N 368.047 0.979072 1.23499 0
M  V30 3842 C 369.324 0.563674 1.87302 0
M  V30 3843 C 369.704 -0.959199 1.88049 0
M  V30 3844 O 369.052 -1.83535 1.36114 0
M  V30 3845 C 369.262 1.16822 3.28867 0
M  V30 3846 C 370.61 1.26014 4.0547 0
M  V30 3847 O 371.634 1.12158 3.38082 0
M  V30 3848 O 370.493 1.48044 5.26066 0
M  V30 3849 H 367.587 0.189602 0.804972 0
M  V30 3850 H 370.133 1.07407 1.31384 0
M  V30 3851 H 368.905 2.21049 3.22883 0
M  V30 3852 H 368.528 0.642564 3.92373 0
M  V30 3853 N 369.525 -1.3858 0.750561 0
M  V30 3854 C 370.435 -2.34278 0.122825 0
M  V30 3855 C 371.451 -1.59116 -0.704131 0
M  V30 3856 O 372.627 -1.91326 -0.628987 0
M  V30 3857 C 369.692 -3.38221 -0.762086 0
M  V30 3858 C 368.753 -4.29227 0.078896 0
M  V30 3859 C 367.986 -5.28205 -0.763874 0
M  V30 3860 O 368.209 -5.34112 -2.00201 0
M  V30 3861 O 367.143 -6.01618 -0.18428 0
M  V30 3862 H 370.969 -2.89649 0.913088 0
M  V30 3863 H 368.554 -1.40374 0.511417 0
M  V30 3864 H 370.436 -4.01872 -1.26793 0
M  V30 3865 H 369.111 -2.85211 -1.5309 0
M  V30 3866 H 368.018 -3.68747 0.630621 0
M  V30 3867 H 369.351 -4.85484 0.810289 0
M  V30 3868 N 371.003 -0.499398 -1.49478 0
M  V30 3869 C 371.913 0.284489 -2.32869 0
M  V30 3870 C 372.929 0.968885 -1.44529 0
M  V30 3871 O 374.105 0.95062 -1.77553 0
M  V30 3872 C 371.17 1.33594 -3.19928 0
M  V30 3873 C 370.231 0.665149 -4.24116 0
M  V30 3874 C 369.464 1.6665 -5.07014 0
M  V30 3875 O 369.687 2.89618 -4.91404 0
M  V30 3876 O 368.621 1.22271 -5.8935 0
M  V30 3877 H 372.447 -0.39802 -3.01081 0
M  V30 3878 H 370.032 -0.260758 -1.47107 0
M  V30 3879 H 371.914 1.94431 -3.73864 0
M  V30 3880 H 370.589 2.0014 -2.54412 0
M  V30 3881 H 369.496 0.0170769 -3.74096 0
M  V30 3882 H 370.829 0.0421555 -4.92182 0
M  V30 3883 N 372.481 1.55866 -0.233164 0
M  V30 3884 C 373.73 1.97779 0.39579 0
M  V30 3885 C 374.043 1.12419 1.60066 0
M  V30 3886 O 375.249 1.44283 2.29988 0
M  V30 3887 C 373.705 3.5188 0.755556 0
M  V30 3888 C 373.313 4.45959 -0.427152 0
M  V30 3889 C 375.057 4.02479 1.34946 0
M  V30 3890 C 372.964 5.91383 -0.0443043 0
M  V30 3891 H 371.894 0.738592 0.15165 0
M  V30 3892 H 374.545 1.80486 -0.331212 0
M  V30 3893 H 372.927 3.64816 1.5403 0
M  V30 3894 H 374.101 4.44776 -1.20462 0
M  V30 3895 H 372.416 4.05765 -0.935068 0
M  V30 3896 H 375.013 5.08637 1.649 0
M  V30 3897 H 375.356 3.49014 2.26925 0
M  V30 3898 H 375.889 3.92813 0.62791 0
M  V30 3899 H 372.628 6.48857 -0.930874 0
M  V30 3900 H 372.148 5.95734 0.697238 0
M  V30 3901 H 373.827 6.45893 0.378334 0
M  V30 3902 N 373.959 -0.0401083 1.57549 0
M  V30 3903 C 374.889 -1.04384 2.08869 0
M  V30 3904 C 375.87 -1.38407 0.988817 0
M  V30 3905 O 377.055 -1.47483 1.26342 0
M  V30 3906 C 374.185 -2.34808 2.55895 0
M  V30 3907 C 373.139 -2.15057 3.70047 0
M  V30 3908 C 372.465 -3.51145 4.03239 0
M  V30 3909 C 373.765 -1.54576 4.98902 0
M  V30 3910 H 375.459 -0.616666 2.92981 0
M  V30 3911 H 373.005 -0.295184 1.40942 0
M  V30 3912 H 374.958 -3.05346 2.90417 0
M  V30 3913 H 373.682 -2.79565 1.68853 0
M  V30 3914 H 372.341 -1.46954 3.35857 0
M  V30 3915 H 371.989 -3.93529 3.13279 0
M  V30 3916 H 371.689 -3.38758 4.80122 0
M  V30 3917 H 373.213 -4.23062 4.40285 0
M  V30 3918 H 374.627 -2.15017 5.31451 0
M  V30 3919 H 373.024 -1.52796 5.80322 0
M  V30 3920 H 374.094 -0.51039 4.82206 0
M  V30 3921 N 375.437 -1.54477 -0.31217 0
M  V30 3922 C 376.347 -1.87695 -1.4074 0
M  V30 3923 C 377.363 -0.769975 -1.56036 0
M  V30 3924 O 378.539 -1.06537 -1.70915 0
M  V30 3925 C 375.604 -2.10755 -2.75287 0
M  V30 3926 C 374.665 -3.34514 -2.69071 0
M  V30 3927 C 373.898 -3.56465 -3.97201 0
M  V30 3928 O 374.121 -2.81637 -4.96021 0
M  V30 3929 O 373.055 -4.49964 -3.9977 0
M  V30 3930 H 376.881 -2.80849 -1.15574 0
M  V30 3931 H 374.466 -1.40526 -0.507228 0
M  V30 3932 H 376.348 -2.27188 -3.54913 0
M  V30 3933 H 375.023 -1.20788 -3.0032 0
M  V30 3934 H 373.93 -3.23456 -1.87955 0
M  V30 3935 H 375.263 -4.24575 -2.48992 0
M  V30 3936 N 376.915 0.57481 -1.46744 0
M  V30 3937 C 377.862 1.68329 -1.57905 0
M  V30 3938 C 378.832 1.60625 -0.422927 0
M  V30 3939 O 380.017 1.79721 -0.640711 0
M  V30 3940 C 377.157 3.06665 -1.58274 0
M  V30 3941 C 376.27 3.24935 -2.84678 0
M  V30 3942 C 375.405 4.53566 -2.76499 0
M  V30 3943 C 374.444 4.65207 -3.97806 0
M  V30 3944 N 373.581 5.85172 -3.87967 0
M  V30 3945 H 378.421 1.58127 -2.52587 0
M  V30 3946 H 375.958 0.770552 -1.25303 0
M  V30 3947 H 377.916 3.86745 -1.56473 0
M  V30 3948 H 376.546 3.15745 -0.671194 0
M  V30 3949 H 375.598 2.38405 -2.96424 0
M  V30 3950 H 376.91 3.29403 -3.7456 0
M  V30 3951 H 376.064 5.41885 -2.72848 0
M  V30 3952 H 374.803 4.51548 -1.8427 0
M  V30 3953 H 373.808 3.75304 -4.0178 0
M  V30 3954 H 375.033 4.68997 -4.9114 0
M  V30 3955 H 372.979 5.84137 -2.98529 0
M  V30 3956 H 372.896 5.90943 -4.71511 0
M  V30 3957 H 374.164 6.759 -3.88303 0
M  V30 3958 N 378.394 1.34581 0.820102 0
M  V30 3959 C 379.324 1.29038 1.94606 0
M  V30 3960 C 380.305 0.1673 1.69275 0
M  V30 3961 O 381.49 0.360112 1.90832 0
M  V30 3962 C 378.62 1.04793 3.31113 0
M  V30 3963 C 377.574 2.13597 3.70891 0
M  V30 3964 C 376.9 1.74537 5.05412 0
M  V30 3965 C 378.2 3.55451 3.8269 0
M  V30 3966 H 379.894 2.23248 1.99501 0
M  V30 3967 H 377.44 1.0747 0.958449 0
M  V30 3968 H 379.393 0.995592 4.0947 0
M  V30 3969 H 378.117 0.0702565 3.26524 0
M  V30 3970 H 376.776 2.17905 2.9481 0
M  V30 3971 H 376.424 0.754226 4.97313 0
M  V30 3972 H 376.124 2.47361 5.32997 0
M  V30 3973 H 377.648 1.70803 5.86224 0
M  V30 3974 H 379.062 3.5354 4.51312 0
M  V30 3975 H 377.459 4.26922 4.21732 0
M  V30 3976 H 378.529 3.92587 2.84611 0
M  V30 3977 N 379.872 -1.04064 1.18357 0
M  V30 3978 C 381.288 -1.2947 0.933258 0
M  V30 3979 C 381.488 -1.97466 -0.401169 0
M  V30 3980 O 380.544 -2.25528 -1.13549 0
M  V30 3981 C 381.857 -2.15337 2.09882 0
M  V30 3982 C 383.405 -2.28683 2.13712 0
M  V30 3983 C 383.88 -3.17917 3.29686 0
M  V30 3984 N 385.371 -3.25504 3.29547 0
M  V30 3985 C 386.106 -3.94706 4.15926 0
M  V30 3986 N 385.602 -4.66239 5.12439 0
M  V30 3987 N 387.395 -3.90986 4.0384 0
M  V30 3988 H 379.546 -0.583359 2.04232 0
M  V30 3989 H 381.809 -0.319921 0.892387 0
M  V30 3990 H 381.515 -1.72682 3.06389 0
M  V30 3991 H 381.389 -3.16015 2.05947 0
M  V30 3992 H 383.776 -2.70575 1.17784 0
M  V30 3993 H 383.857 -1.27596 2.21705 0
M  V30 3994 H 383.501 -2.76736 4.25887 0
M  V30 3995 H 383.431 -4.19036 3.1893 0
M  V30 3996 H 385.922 -2.74547 2.59677 0
M  V30 3997 H 386.235 -5.16638 5.74722 0
M  V30 3998 H 384.58 -4.65143 5.16398 0
M  V30 3999 H 387.771 -3.34234 3.27727 0
M  V30 4000 H 387.944 -4.44646 4.71375 0
M  V30 4001 N 381.35 -0.985608 -1.22978 0
M  V30 4002 C 382.575 -0.675254 -1.961 0
M  V30 4003 C 383 0.752154 -1.72407 0
M  V30 4004 O 382.358 1.5131 -0.998751 0
M  V30 4005 C 382.406 -0.977899 -3.47087 0
M  V30 4006 O 381.51 -0.072685 -4.12336 0
M  V30 4007 H 380.851 -0.253443 -0.613728 0
M  V30 4008 H 383.381 -1.32061 -1.56272 0
M  V30 4009 H 383.391 -0.916739 -3.97567 0
M  V30 4010 H 382.066 -2.01807 -3.63657 0
M  V30 4011 H 380.643 -0.188703 -3.72422 0
M  V30 4012 N 382.828 1.3818 -0.7579 0
M  V30 4013 C 384.077 1.99261 -0.312744 0
M  V30 4014 C 384.39 1.60846 1.11301 0
M  V30 4015 O 385.596 2.14929 1.65885 0
M  V30 4016 C 384.052 3.56294 -0.50821 0
M  V30 4017 C 383.66 4.03657 -1.94333 0
M  V30 4018 C 385.404 4.24313 -0.125982 0
M  V30 4019 C 383.311 5.53347 -2.08712 0
M  V30 4020 H 382.241 0.745456 -0.113185 0
M  V30 4021 H 384.892 1.57889 -0.935056 0
M  V30 4022 H 383.274 3.95575 0.183353 0
M  V30 4023 H 384.448 3.75655 -2.66871 0
M  V30 4024 H 382.763 3.48376 -2.28086 0
M  V30 4025 H 385.36 5.34279 -0.212125 0
M  V30 4026 H 385.703 4.05962 0.921964 0
M  V30 4027 H 386.236 3.90285 -0.769563 0
M  V30 4028 H 382.975 5.76607 -3.11777 0
M  V30 4029 H 382.495 5.83078 -1.4064 0
M  V30 4030 H 384.174 6.19111 -1.87912 0
M  V30 4031 N 384.306 0.507319 1.49211 0
M  V30 4032 C 385.552 -0.0350047 2.0277 0
M  V30 4033 C 385.885 -1.3606 1.38569 0
M  V30 4034 O 385.16 -1.87321 0.523542 0
M  V30 4035 C 385.443 -0.180916 3.59645 0
M  V30 4036 C 385.296 1.16825 4.34364 0
M  V30 4037 C 386.615 -0.918558 4.30407 0
M  V30 4038 H 383.734 -0.0112473 0.736914 0
M  V30 4039 H 386.376 0.659956 1.7817 0
M  V30 4040 H 384.526 -0.772826 3.80736 0
M  V30 4041 H 386.198 1.79952 4.24753 0
M  V30 4042 H 384.441 1.75594 3.96673 0
M  V30 4043 H 385.112 1.01939 5.42506 0
M  V30 4044 H 387.588 -0.41649 4.1401 0
M  V30 4045 H 386.464 -0.989505 5.39907 0
M  V30 4046 H 386.725 -1.96373 3.96093 0
M  V30 4047 N 385.784 -1.5574 0.241426 0
M  V30 4048 C 387.009 -2.0366 -0.392111 0
M  V30 4049 C 387.434 -1.11969 -1.51144 0
M  V30 4050 O 386.792 -0.111594 -1.80956 0
M  V30 4051 C 386.84 -3.49638 -0.882371 0
M  V30 4052 O 385.944 -3.6108 -1.99235 0
M  V30 4053 H 385.285 -0.658379 -0.0862122 0
M  V30 4054 H 387.815 -2.01302 0.365881 0
M  V30 4055 H 387.825 -3.90351 -1.18702 0
M  V30 4056 H 386.5 -4.15852 -0.0632361 0
M  V30 4057 H 385.077 -3.32262 -1.69282 0
M  V30 4058 N 387.262 0.0317525 -1.57568 0
M  V30 4059 C 388.508 0.724175 -1.8943 0
M  V30 4060 C 388.841 1.75149 -0.838836 0
M  V30 4061 O 388.116 1.93948 0.146422 0
M  V30 4062 C 388.399 1.39615 -3.31933 0
M  V30 4063 C 388.252 0.382537 -4.4817 0
M  V30 4064 C 389.571 2.33084 -3.73309 0
M  V30 4065 H 386.69 0.261797 -0.688935 0
M  V30 4066 H 389.332 -0.013017 -1.89996 0
M  V30 4067 H 387.482 2.02451 -3.31581 0
M  V30 4068 H 389.154 -0.243689 -4.60656 0
M  V30 4069 H 387.397 -0.29844 -4.32772 0
M  V30 4070 H 388.068 0.891145 -5.44759 0
M  V30 4071 H 390.544 1.80295 -3.7501 0
M  V30 4072 H 389.42 2.77084 -4.73831 0
M  V30 4073 H 389.681 3.19643 -3.05419 0
M  V30 4074 N 388.74 1.54641 0.303973 0
M  V30 4075 C 389.988 1.73437 1.0375 0
M  V30 4076 C 390.309 0.521449 1.87899 0
M  V30 4077 O 389.579 -0.46432 1.90318 0
M  V30 4078 H 388.159 0.639518 0.386039 0
M  V30 4079 H 390.821 1.91988 0.335675 0
M  V30 4080 H 389.917 2.62235 1.69231 0
M  V30 4081 N 390.218 -0.567019 1.47046 0
M  V30 4082 C 391.495 -1.3276 1.43646 0
M  V30 4083 C 391.875 -2.1071 0.128186 0
M  V30 4084 O 391.223 -2.10441 -0.890326 0
M  V30 4085 C 391.433 -2.2404 2.67595 0
M  V30 4086 C 392.781 -2.85372 3.14401 0
M  V30 4087 O 393.805 -2.34346 2.68254 0
M  V30 4088 O 392.664 -3.78091 3.946 0
M  V30 4089 H 389.758 -0.597293 0.571988 0
M  V30 4090 H 392.304 -0.586735 1.59234 0
M  V30 4091 H 391.076 -1.65975 3.54356 0
M  V30 4092 H 390.699 -3.05439 2.54544 0
M  V30 4093 N 391.696 -1.35014 -0.812953 0
M  V30 4094 C 393.107 -1.25035 -1.38648 0
M  V30 4095 C 393.458 0.119967 -1.95833 0
M  V30 4096 O 392.583 1.02069 -1.90816 0
M  V30 4097 C 393.178 -2.26394 -2.52054 0
M  V30 4098 C 391.737 -2.20175 -3.05287 0
M  V30 4099 C 390.884 -2.12451 -1.78213 0
M  V30 4100 H 393.835 -1.46235 -0.616516 0
M  V30 4101 H 393.856 -1.88672 -3.30429 0
M  V30 4102 H 393.368 -3.26116 -2.10404 0
M  V30 4103 H 391.469 -1.23841 -3.51417 0
M  V30 4104 H 391.582 -3.11863 -3.63701 0
M  V30 4105 H 389.946 -1.58328 -1.9951 0
M  V30 4106 H 390.729 -3.14024 -1.38723 0
M  V30 4107 N 393.175 1.03435 -1.18907 0
M  V30 4108 C 394.122 2.11591 -0.921837 0
M  V30 4109 C 395.092 1.65499 0.141226 0
M  V30 4110 O 396.277 1.908 0.000242829 0
M  V30 4111 C 393.417 3.42012 -0.460616 0
M  V30 4112 C 392.53 4.01682 -1.58982 0
M  V30 4113 C 391.665 5.20091 -1.08069 0
M  V30 4114 C 390.704 5.71805 -2.18416 0
M  V30 4115 N 389.841 6.81494 -1.68849 0
M  V30 4116 H 394.681 2.33787 -1.8479 0
M  V30 4117 H 392.218 1.1467 -0.921373 0
M  V30 4118 H 394.176 4.16834 -0.174642 0
M  V30 4119 H 392.806 3.19944 0.428467 0
M  V30 4120 H 391.858 3.24127 -1.99113 0
M  V30 4121 H 393.17 4.36084 -2.4214 0
M  V30 4122 H 392.324 6.02051 -0.749615 0
M  V30 4123 H 391.063 4.87209 -0.218771 0
M  V30 4124 H 390.068 4.88461 -2.5236 0
M  V30 4125 H 391.293 6.06728 -3.05054 0
M  V30 4126 H 389.239 6.50475 -0.849572 0
M  V30 4127 H 389.156 7.14994 -2.45601 0
M  V30 4128 H 390.424 7.67063 -1.38689 0
M  V30 4129 N 394.653 0.992116 1.22453 0
M  V30 4130 C 395.6 0.541731 2.24352 0
M  V30 4131 C 396.57 -0.425519 1.60557 0
M  V30 4132 O 397.755 -0.330453 1.87917 0
M  V30 4133 C 394.895 -0.138248 3.44823 0
M  V30 4134 C 394.008 0.870649 4.23136 0
M  V30 4135 C 393.143 0.164269 5.30946 0
M  V30 4136 C 392.182 1.16159 6.00977 0
M  V30 4137 N 391.319 0.483568 7.00433 0
M  V30 4138 H 396.159 1.41541 2.62241 0
M  V30 4139 H 393.696 0.709013 1.28885 0
M  V30 4140 H 395.654 -0.5494 4.13567 0
M  V30 4141 H 394.284 -0.975721 3.077 0
M  V30 4142 H 393.336 1.40013 3.53696 0
M  V30 4143 H 394.648 1.63014 4.7141 0
M  V30 4144 H 393.802 -0.303653 6.0594 0
M  V30 4145 H 392.541 -0.627733 4.83643 0
M  V30 4146 H 391.546 1.64015 5.24766 0
M  V30 4147 H 392.771 1.95445 6.50368 0
M  V30 4148 H 390.717 -0.289012 6.55363 0
M  V30 4149 H 390.634 1.18152 7.4671 0
M  V30 4150 H 391.902 0.0384219 7.79491 0
M  V30 4151 N 396.131 -1.37776 0.765217 0
M  V30 4152 C 397.078 -2.30342 0.145274 0
M  V30 4153 C 398.048 -1.5077 -0.696971 0
M  V30 4154 O 399.233 -1.79362 -0.650689 0
M  V30 4155 C 396.373 -3.37227 -0.732939 0
M  V30 4156 C 395.486 -4.31819 0.125199 0
M  V30 4157 C 394.621 -5.25777 -0.757107 0
M  V30 4158 C 393.66 -6.12012 0.103963 0
M  V30 4159 N 392.797 -6.98232 -0.735953 0
M  V30 4160 H 397.637 -2.8278 0.940195 0
M  V30 4161 H 395.174 -1.39211 0.475255 0
M  V30 4162 H 397.132 -3.97818 -1.25686 0
M  V30 4163 H 395.762 -2.86171 -1.49353 0
M  V30 4164 H 394.814 -3.7259 0.766865 0
M  V30 4165 H 396.126 -4.92509 0.789683 0
M  V30 4166 H 395.28 -5.91541 -1.34776 0
M  V30 4167 H 394.019 -4.65481 -1.45529 0
M  V30 4168 H 393.024 -5.45233 0.707197 0
M  V30 4169 H 394.249 -6.74379 0.799381 0
M  V30 4170 H 392.195 -6.40472 -1.41887 0
M  V30 4171 H 392.112 -7.55891 -0.128624 0
M  V30 4172 H 393.38 -7.68393 -1.31121 0
M  V30 4173 N 397.609 -0.515225 -1.4894 0
M  V30 4174 C 398.839 0.0205735 -2.0659 0
M  V30 4175 C 399.247 1.30064 -1.37405 0
M  V30 4176 O 398.59 1.78087 -0.450632 0
M  V30 4177 C 398.652 0.330124 -3.57981 0
M  V30 4178 C 398.316 -0.854295 -4.48944 0
M  V30 4179 C 399.313 -1.7487 -4.89609 0
M  V30 4180 C 396.998 -1.05712 -4.9105 0
M  V30 4181 C 398.992 -2.82996 -5.71132 0
M  V30 4182 C 396.679 -2.14154 -5.72347 0
M  V30 4183 C 397.677 -3.0263 -6.12294 0
M  V30 4184 O 397.365 -4.09198 -6.91962 0
M  V30 4185 H 397.097 -0.0236833 -0.675585 0
M  V30 4186 H 399.651 -0.715956 -1.92518 0
M  V30 4187 H 397.881 1.12044 -3.70112 0
M  V30 4188 H 399.57 0.806233 -3.97812 0
M  V30 4189 H 400.336 -1.60388 -4.57712 0
M  V30 4190 H 396.215 -0.377788 -4.59449 0
M  V30 4191 H 399.759 -3.52083 -6.02232 0
M  V30 4192 H 395.656 -2.28626 -6.03656 0
M  V30 4193 H 396.424 -4.06726 -7.10293 0
M  V30 4194 N 399.087 1.5561 -0.249682 0
M  V30 4195 C 400.315 2.03411 0.378352 0
M  V30 4196 C 400.73 1.12886 1.51335 0
M  V30 4197 O 400.087 0.143833 1.81932 0
M  V30 4198 C 400.138 3.50537 0.88351 0
M  V30 4199 O 399.859 4.37614 -0.20626 0
M  V30 4200 C 401.36 4.14113 1.58195 0
M  V30 4201 H 398.58 0.664994 0.08958 0
M  V30 4202 H 401.124 2.01044 -0.374357 0
M  V30 4203 H 399.279 3.5343 1.58639 0
M  V30 4204 H 399.693 5.24199 0.177782 0
M  V30 4205 H 401.167 5.18741 1.8871 0
M  V30 4206 H 401.644 3.60767 2.50487 0
M  V30 4207 H 402.25 4.15151 0.923573 0
M  V30 4208 N 400.565 -0.0233959 1.57583 0
M  V30 4209 C 401.981 -0.379134 1.55031 0
M  V30 4210 C 402.181 -1.76255 0.976548 0
M  V30 4211 O 401.237 -2.45266 0.600078 0
M  V30 4212 C 402.55 -0.275792 2.99433 0
M  V30 4213 C 404.098 -0.352458 3.11009 0
M  V30 4214 C 404.573 -0.278501 4.57152 0
M  V30 4215 N 406.064 -0.337123 4.61972 0
M  V30 4216 C 406.799 -0.302876 5.726 0
M  V30 4217 N 406.295 -0.220589 6.92449 0
M  V30 4218 N 408.088 -0.353023 5.6099 0
M  V30 4219 H 400.239 0.881869 1.93227 0
M  V30 4220 H 402.502 0.335867 0.886509 0
M  V30 4221 H 402.208 0.675108 3.4516 0
M  V30 4222 H 402.082 -1.06721 3.61788 0
M  V30 4223 H 404.469 -1.29379 2.65226 0
M  V30 4224 H 404.55 0.468409 2.51475 0
M  V30 4225 H 404.194 0.659189 5.03604 0
M  V30 4226 H 404.124 -1.11755 5.14605 0
M  V30 4227 H 406.615 -0.403002 3.75745 0
M  V30 4228 H 406.928 -0.199713 7.72542 0
M  V30 4229 H 405.273 -0.186555 6.9475 0
M  V30 4230 H 408.464 -0.415339 4.66254 0
M  V30 4231 H 408.637 -0.322866 6.47195 0
M  V30 4232 N 402.043 -1.548 -0.295768 0
M  V30 4233 C 403.29 -1.74329 -1.03032 0
M  V30 4234 C 403.618 -0.531915 -1.87085 0
M  V30 4235 O 402.873 0.486052 -1.89568 0
M  V30 4236 C 403.172 -2.98797 -1.961 0
M  V30 4237 C 402.838 -4.32356 -1.2798 0
M  V30 4238 C 401.5 -4.68661 -1.09135 0
M  V30 4239 C 403.852 -5.15128 -0.793243 0
M  V30 4240 C 401.18 -5.85312 -0.403269 0
M  V30 4241 C 403.532 -6.32488 -0.118854 0
M  V30 4242 C 402.196 -6.6745 0.0815043 0
M  V30 4243 H 401.466 -0.637916 -0.37702 0
M  V30 4244 H 404.113 -1.8906 -0.304696 0
M  V30 4245 H 402.418 -2.78869 -2.75207 0
M  V30 4246 H 404.115 -3.11102 -2.53015 0
M  V30 4247 H 400.705 -4.03808 -1.43655 0
M  V30 4248 H 404.889 -4.87575 -0.92653 0
M  V30 4249 H 400.145 -6.1094 -0.237098 0
M  V30 4250 H 404.319 -6.95892 0.266035 0
M  V30 4251 H 401.946 -7.57695 0.616685 0
M  V30 4252 N 403.521 0.559213 -1.47345 0
M  V30 4253 C 404.431 1.69388 -1.62311 0
M  V30 4254 C 405.447 1.6648 -0.505993 0
M  V30 4255 O 406.623 1.85964 -0.773262 0
M  V30 4256 C 403.688 3.05894 -1.63185 0
M  V30 4257 C 402.749 3.19885 -2.86307 0
M  V30 4258 C 401.982 4.49879 -2.87131 0
M  V30 4259 O 402.205 5.35217 -1.97229 0
M  V30 4260 O 401.139 4.67618 -3.78968 0
M  V30 4261 H 404.965 1.59706 -2.58317 0
M  V30 4262 H 402.55 0.728989 -1.30407 0
M  V30 4263 H 404.432 3.87133 -1.66451 0
M  V30 4264 H 403.107 3.15964 -0.70345 0
M  V30 4265 H 402.014 2.38052 -2.88587 0
M  V30 4266 H 403.347 3.14718 -3.78435 0
M  V30 4267 N 404.999 1.35443 0.805782 0
M  V30 4268 C 405.946 1.28431 1.91766 0
M  V30 4269 C 406.916 0.156102 1.65365 0
M  V30 4270 O 408.101 0.339936 1.87747 0
M  V30 4271 C 405.241 1.06301 3.2832 0
M  V30 4272 C 404.354 2.2805 3.66902 0
M  V30 4273 C 403.489 1.99064 4.92491 0
M  V30 4274 C 402.528 3.16863 5.23703 0
M  V30 4275 N 401.665 2.87647 6.40471 0
M  V30 4276 H 406.505 2.23511 1.97096 0
M  V30 4277 H 404.042 1.11105 0.964054 0
M  V30 4278 H 406 0.915012 4.07042 0
M  V30 4279 H 404.63 0.148822 3.22457 0
M  V30 4280 H 403.682 2.53711 2.83434 0
M  V30 4281 H 404.994 3.1601 3.85927 0
M  V30 4282 H 404.148 1.81099 5.7904 0
M  V30 4283 H 402.887 1.0839 4.75503 0
M  V30 4284 H 401.892 3.35404 4.35642 0
M  V30 4285 H 403.117 4.08339 5.4262 0
M  V30 4286 H 401.063 1.99568 6.24907 0
M  V30 4287 H 400.98 3.69141 6.59751 0
M  V30 4288 H 402.248 2.73226 7.30047 0
M  V30 4289 N 406.477 -1.02803 1.19454 0
M  V30 4290 C 407.726 -1.7562 0.991996 0
M  V30 4291 C 408.039 -1.89672 -0.477901 0
M  V30 4292 O 409.245 -2.59468 -0.799287 0
M  V30 4293 C 407.701 -3.15812 1.72601 0
M  V30 4294 C 407.309 -3.0981 3.23607 0
M  V30 4295 C 409.053 -3.92918 1.60674 0
M  V30 4296 C 406.96 -4.44939 3.89594 0
M  V30 4297 H 405.89 -0.658352 0.367543 0
M  V30 4298 H 408.541 -1.15044 1.42959 0
M  V30 4299 H 406.923 -3.7686 1.21624 0
M  V30 4300 H 408.097 -2.58138 3.81709 0
M  V30 4301 H 406.412 -2.46201 3.35819 0
M  V30 4302 H 409.009 -4.9287 2.07323 0
M  V30 4303 H 409.352 -4.12502 0.561025 0
M  V30 4304 H 409.885 -3.38472 2.09001 0
M  V30 4305 H 406.624 -4.30559 4.94267 0
M  V30 4306 H 406.144 -4.96664 3.36281 0
M  V30 4307 H 407.823 -5.1382 3.93189 0
M  V30 4308 N 407.956 -0.998596 -1.21925 0
M  V30 4309 C 409.204 -0.676325 -1.90448 0
M  V30 4310 C 409.525 0.794719 -1.78071 0
M  V30 4311 O 408.795 1.5701 -1.17152 0
M  V30 4312 H 407.375 -0.247165 -0.704925 0
M  V30 4313 H 410.037 -1.26633 -1.48156 0
M  V30 4314 H 409.133 -0.943858 -2.97486 0
M  V30 4315 N 409.434 1.37368 -0.772513 0
M  V30 4316 C 410.366 2.28899 -0.117502 0
M  V30 4317 C 411.379 1.4867 0.663405 0
M  V30 4318 O 412.568 1.71314 0.501372 0
M  V30 4319 C 409.668 3.2788 0.857192 0
M  V30 4320 C 408.841 4.37207 0.129938 0
M  V30 4321 C 407.9 5.16257 1.01811 0
M  V30 4322 O 406.926 5.67159 0.481601 0
M  V30 4323 N 408.128 5.31058 2.3443 0
M  V30 4324 H 410.893 2.85752 -0.903662 0
M  V30 4325 H 408.454 1.49353 -0.62493 0
M  V30 4326 H 410.446 3.77647 1.45482 0
M  V30 4327 H 409.016 2.7179 1.54432 0
M  V30 4328 H 408.236 3.88827 -0.648605 0
M  V30 4329 H 409.524 5.07434 -0.372559 0
M  V30 4330 H 408.922 4.91287 2.80452 0
M  V30 4331 H 407.479 5.84131 2.89197 0
M  V30 4332 N 410.912 0.523116 1.48665 0
M  V30 4333 C 412.16 -0.0134497 2.02096 0
M  V30 4334 C 412.481 -1.35418 1.40311 0
M  V30 4335 O 411.751 -1.87543 0.566074 0
M  V30 4336 H 410.331 -0.00795915 0.746958 0
M  V30 4337 H 412.993 0.685388 1.82451 0
M  V30 4338 H 412.089 -0.126849 3.11842 0
M  V30 4339 N 412.39 -1.55475 0.257931 0
M  V30 4340 C 413.353 -2.20551 -0.623706 0
M  V30 4341 C 414.353 -1.17809 -1.09443 0
M  V30 4342 O 415.543 -1.42823 -0.997362 0
M  V30 4343 C 412.675 -2.85784 -1.8585 0
M  V30 4344 H 413.868 -2.99848 -0.0557743 0
M  V30 4345 H 411.421 -1.56298 0.0084422 0
M  V30 4346 H 412.156 -2.10453 -2.46739 0
M  V30 4347 H 411.941 -3.61057 -1.52907 0
M  V30 4348 H 413.431 -3.35553 -2.48584 0
M  V30 4349 N 413.868 0.0150385 -1.57593 0
M  V30 4350 C 415.093 0.718067 -1.94573 0
M  V30 4351 C 415.518 1.6734 -0.859005 0
M  V30 4352 O 414.876 1.80362 0.184147 0
M  V30 4353 C 414.924 1.43918 -3.30636 0
M  V30 4354 O 414.028 2.55299 -3.23876 0
M  V30 4355 H 413.369 0.192125 -0.635597 0
M  V30 4356 H 415.899 -0.0336708 -2.04572 0
M  V30 4357 H 415.909 1.80598 -3.65853 0
M  V30 4358 H 414.584 0.738619 -4.09289 0
M  V30 4359 H 413.161 2.21058 -3.00312 0
M  V30 4360 N 415.346 1.54954 0.287554 0
M  V30 4361 C 416.594 1.74528 1.01904 0
M  V30 4362 C 416.915 0.541349 1.87335 0
M  V30 4363 O 416.185 -0.444108 1.908 0
M  V30 4364 H 414.765 0.643576 0.379235 0
M  V30 4365 H 417.427 1.92333 0.315294 0
M  V30 4366 H 416.523 2.64015 1.6644 0
M  V30 4367 N 416.824 -0.551391 1.4764 0
M  V30 4368 C 418.052 -1.33357 1.58189 0
M  V30 4369 C 418.467 -1.87342 0.234199 0
M  V30 4370 O 417.824 -1.65301 -0.77343 0
M  V30 4371 C 417.875 -2.49942 2.61173 0
M  V30 4372 O 417.596 -1.98187 3.90709 0
M  V30 4373 C 419.097 -3.42072 2.8196 0
M  V30 4374 H 416.317 -0.40631 0.533998 0
M  V30 4375 H 418.861 -0.667367 1.93304 0
M  V30 4376 H 417.016 -3.12489 2.28975 0
M  V30 4377 H 417.43 -2.74342 4.47031 0
M  V30 4378 H 418.904 -4.20278 3.57869 0
M  V30 4379 H 419.381 -3.95978 1.89995 0
M  V30 4380 H 419.987 -2.85336 3.15378 0
M  V30 4381 N 418.302 -1.35869 -0.798587 0
M  V30 4382 C 419.548 -1.2978 -1.55836 0
M  V30 4383 C 419.881 0.125322 -1.93795 0
M  V30 4384 O 419.156 1.07658 -1.61987 0
M  V30 4385 C 419.439 -2.21188 -2.84162 0
M  V30 4386 C 419.292 -3.72155 -2.52628 0
M  V30 4387 C 420.611 -2.11545 -3.85923 0
M  V30 4388 H 417.73 -0.472769 -0.565383 0
M  V30 4389 H 420.372 -1.66341 -0.918192 0
M  V30 4390 H 418.522 -1.90139 -3.38791 0
M  V30 4391 H 420.194 -4.13682 -2.04121 0
M  V30 4392 H 418.437 -3.92042 -1.85704 0
M  V30 4393 H 419.108 -4.31511 -3.44242 0
M  V30 4394 H 421.584 -2.38855 -3.40716 0
M  V30 4395 H 420.46 -2.77688 -4.73477 0
M  V30 4396 H 420.721 -1.09987 -4.282 0
M  V30 4397 N 419.78 1.02168 -1.19998 0
M  V30 4398 C 421.01 1.79036 -1.031 0
M  V30 4399 C 421.418 1.84409 0.423078 0
M  V30 4400 O 420.761 1.29228 1.30559 0
M  V30 4401 C 420.823 3.25185 -1.53281 0
M  V30 4402 C 420.487 3.43431 -3.01503 0
M  V30 4403 C 421.484 3.33063 -3.99206 0
M  V30 4404 C 419.169 3.69412 -3.40353 0
M  V30 4405 C 421.163 3.48413 -5.33748 0
M  V30 4406 C 418.85 3.84406 -4.75053 0
M  V30 4407 C 419.848 3.7391 -5.71559 0
M  V30 4408 O 419.536 3.88452 -7.03818 0
M  V30 4409 H 419.268 0.570043 -0.363355 0
M  V30 4410 H 421.822 1.29524 -1.59414 0
M  V30 4411 H 420.052 3.75756 -0.913483 0
M  V30 4412 H 421.741 3.83671 -1.32481 0
M  V30 4413 H 422.507 3.12934 -3.70537 0
M  V30 4414 H 418.386 3.76671 -2.65782 0
M  V30 4415 H 421.93 3.40137 -6.09059 0
M  V30 4416 H 417.827 4.04035 -5.03415 0
M  V30 4417 H 418.595 4.055 -7.10993 0
M  V30 4418 N 421.258 1.00505 1.21394 0
M  V30 4419 C 422.486 0.706609 1.9446 0
M  V30 4420 C 422.901 -0.73081 1.74082 0
M  V30 4421 O 422.258 -1.49446 1.04747 0
M  V30 4422 C 422.309 1.01824 3.46863 0
M  V30 4423 O 422.03 2.39919 3.66566 0
M  V30 4424 C 423.531 0.739216 4.37093 0
M  V30 4425 H 420.751 0.260394 0.618414 0
M  V30 4426 H 423.295 1.34311 1.54211 0
M  V30 4427 H 421.45 0.427343 3.85036 0
M  V30 4428 H 421.864 2.50784 4.6066 0
M  V30 4429 H 423.338 1.00744 5.42729 0
M  V30 4430 H 423.815 -0.326746 4.37983 0
M  V30 4431 H 424.421 1.31173 4.04566 0
M  V30 4432 N 422.737 -1.36956 0.779787 0
M  V30 4433 C 423.7 -2.2851 0.177662 0
M  V30 4434 C 424.7 -1.48393 -0.619377 0
M  V30 4435 O 425.89 -1.68505 -0.441785 0
M  V30 4436 C 423.022 -3.32428 -0.755279 0
M  V30 4437 H 424.215 -2.83269 0.984823 0
M  V30 4438 H 421.768 -1.46358 0.548544 0
M  V30 4439 H 422.503 -2.82808 -1.58714 0
M  V30 4440 H 422.288 -3.91659 -0.185817 0
M  V30 4441 H 423.778 -4.00824 -1.17174 0
M  V30 4442 N 424.215 -0.530993 -1.48385 0
M  V30 4443 C 425.148 0.278511 -2.26494 0
M  V30 4444 C 426.126 0.943905 -1.32398 0
M  V30 4445 O 427.31 0.968098 -1.61741 0
M  V30 4446 C 424.437 1.39453 -3.08659 0
M  V30 4447 C 423.483 0.840434 -4.18137 0
M  V30 4448 S 424.316 -0.292496 -5.34701 0
M  V30 4449 C 425.472 0.825973 -6.20426 0
M  V30 4450 H 425.705 -0.384365 -2.94805 0
M  V30 4451 H 423.238 -0.316799 -1.51115 0
M  V30 4452 H 425.196 2.03382 -3.56575 0
M  V30 4453 H 423.857 2.02913 -2.3976 0
M  V30 4454 H 423.05 1.67769 -4.75257 0
M  V30 4455 H 422.652 0.277819 -3.72967 0
M  V30 4456 H 424.944 1.72438 -6.55188 0
M  V30 4457 H 425.887 0.292728 -7.07495 0
M  V30 4458 H 426.295 1.10683 -5.53543 0
M  V30 4459 N 425.693 1.55336 -0.266172 0
M  V30 4460 C 426.97 1.91372 0.404486 0
M  V30 4461 C 427.35 1.18935 1.74407 0
M  V30 4462 O 426.698 0.3132 2.26343 0
M  V30 4463 C 426.908 3.44581 0.553593 0
M  V30 4464 C 428.256 4.16196 0.840618 0
M  V30 4465 O 429.28 3.50426 0.638739 0
M  V30 4466 O 428.139 5.32567 1.22618 0
M  V30 4467 H 425.233 0.797194 0.220025 0
M  V30 4468 H 427.779 1.66813 -0.311664 0
M  V30 4469 H 426.551 3.89357 -0.389498 0
M  V30 4470 H 426.174 3.75065 1.31955 0
M  V30 4471 N 427.171 -0.0066808 1.57599 0
M  V30 4472 C 428.417 -0.693947 1.90558 0
M  V30 4473 C 428.75 -1.73792 0.866594 0
M  V30 4474 O 428.025 -1.94156 -0.115548 0
M  V30 4475 C 428.308 -1.34317 3.34112 0
M  V30 4476 C 428.161 -0.311189 4.48722 0
M  V30 4477 C 429.48 -2.27116 3.7697 0
M  V30 4478 H 426.599 -0.250803 0.693013 0
M  V30 4479 H 429.241 0.043242 1.89951 0
M  V30 4480 H 427.391 -1.9715 3.3476 0
M  V30 4481 H 429.063 0.316944 4.6021 0
M  V30 4482 H 427.306 0.367253 4.32243 0
M  V30 4483 H 427.977 -0.804366 5.46108 0
M  V30 4484 H 430.453 -1.74306 3.77831 0
M  V30 4485 H 429.329 -2.69511 4.78179 0
M  V30 4486 H 429.59 -3.14743 3.10466 0
M  V30 4487 N 428.649 -1.55105 -0.279332 0
M  V30 4488 C 429.612 -1.86783 -1.32834 0
M  V30 4489 C 430.612 -0.74199 -1.42657 0
M  V30 4490 O 431.802 -1.0102 -1.41918 0
M  V30 4491 C 428.934 -2.06746 -2.71052 0
M  V30 4492 H 430.127 -2.8055 -1.05979 0
M  V30 4493 H 427.68 -1.47499 -0.517087 0
M  V30 4494 H 428.415 -1.15339 -3.03097 0
M  V30 4495 H 428.2 -2.88711 -2.65309 0
M  V30 4496 H 429.69 -2.32549 -3.46858 0
M  V30 4497 N 430.127 0.543554 -1.4793 0
M  V30 4498 C 431.355 1.32516 -1.58894 0
M  V30 4499 C 431.77 1.87215 -0.244131 0
M  V30 4500 O 431.127 1.65709 0.764652 0
M  V30 4501 C 431.178 2.48554 -2.62494 0
M  V30 4502 O 430.899 1.96112 -3.91755 0
M  V30 4503 C 432.4 3.40572 -2.8377 0
M  V30 4504 H 429.62 0.403472 -0.536145 0
M  V30 4505 H 432.164 0.657106 -1.93655 0
M  V30 4506 H 430.319 3.1127 -2.30629 0
M  V30 4507 H 430.733 2.71967 -4.4848 0
M  V30 4508 H 432.207 4.18375 -3.60093 0
M  V30 4509 H 432.684 3.94965 -1.92092 0
M  V30 4510 H 433.29 2.8366 -3.16887 0
M  V30 4511 N 431.605 1.3629 0.791371 0
M  V30 4512 C 432.853 1.30154 1.5461 0
M  V30 4513 C 433.174 -0.119409 1.94634 0
M  V30 4514 O 432.444 -1.05924 1.64794 0
M  V30 4515 H 431.024 0.478784 0.573389 0
M  V30 4516 H 433.686 1.70565 0.94306 0
M  V30 4517 H 432.782 1.92762 2.45457 0
M  V30 4518 N 433.083 -1.0153 1.20538 0
M  V30 4519 C 434.015 -2.10224 0.913155 0
M  V30 4520 C 435.028 -1.62495 -0.0995998 0
M  V30 4521 O 436.217 -1.78014 0.131582 0
M  V30 4522 C 433.317 -3.37111 0.347717 0
M  V30 4523 C 432.49 -4.13971 1.41233 0
M  V30 4524 C 431.549 -5.19158 0.857976 0
M  V30 4525 O 430.575 -5.48 1.53897 0
M  V30 4526 N 431.777 -5.7955 -0.331966 0
M  V30 4527 H 434.542 -2.35879 1.84881 0
M  V30 4528 H 432.103 -1.17931 1.10923 0
M  V30 4529 H 434.095 -4.04683 -0.0373026 0
M  V30 4530 H 432.665 -3.08696 -0.492527 0
M  V30 4531 H 431.885 -3.41351 1.97163 0
M  V30 4532 H 433.173 -4.62103 2.12928 0
M  V30 4533 H 432.571 -5.58455 -0.902478 0
M  V30 4534 H 431.128 -6.48464 -0.65861 0
M  V30 4535 N 434.561 -1.01147 -1.20859 0
M  V30 4536 C 435.471 -0.58686 -2.27141 0
M  V30 4537 C 436.487 0.373198 -1.69951 0
M  V30 4538 O 437.663 0.235423 -2.00019 0
M  V30 4539 C 434.728 0.0733602 -3.46622 0
M  V30 4540 C 433.789 -0.931995 -4.19061 0
M  V30 4541 C 433.022 -0.303186 -5.32838 0
M  V30 4542 O 433.245 0.898395 -5.63281 0
M  V30 4543 O 432.179 -1.01735 -5.9324 0
M  V30 4544 H 436.005 -1.47155 -2.65667 0
M  V30 4545 H 433.59 -0.780689 -1.2738 0
M  V30 4546 H 435.472 0.442333 -4.19072 0
M  V30 4547 H 434.147 0.932329 -3.09983 0
M  V30 4548 H 433.054 -1.35224 -3.48805 0
M  V30 4549 H 434.387 -1.76076 -4.59628 0
M  V30 4550 N 436.039 1.36541 -0.78704 0
M  V30 4551 C 437.285 1.99599 -0.358872 0
M  V30 4552 C 437.618 1.62323 1.06606 0
M  V30 4553 O 436.893 0.876858 1.73613 0
M  V30 4554 C 437.176 3.56327 -0.519944 0
M  V30 4555 C 437.029 4.03464 -1.98839 0
M  V30 4556 C 438.348 4.4005 0.0664737 0
M  V30 4557 H 435.467 0.725107 -0.131869 0
M  V30 4558 H 438.109 1.6199 -0.992936 0
M  V30 4559 H 436.259 3.88495 0.0198321 0
M  V30 4560 H 437.931 3.81793 -2.58905 0
M  V30 4561 H 436.174 3.55092 -2.49183 0
M  V30 4562 H 436.845 5.12439 -2.05207 0
M  V30 4563 H 439.321 4.14228 -0.394267 0
M  V30 4564 H 438.197 5.48847 -0.0762682 0
M  V30 4565 H 438.458 4.26655 1.15835 0
M  V30 4566 N 437.518 0.538854 1.48102 0
M  V30 4567 C 438.481 -0.208395 2.28251 0
M  V30 4568 C 439.481 -0.859656 1.35892 0
M  V30 4569 O 440.671 -0.71834 1.58699 0
M  V30 4570 C 437.803 -1.30252 3.15035 0
M  V30 4571 H 438.996 0.495407 2.9578 0
M  V30 4572 H 436.549 0.295112 1.53489 0
M  V30 4573 H 437.284 -2.0393 2.52157 0
M  V30 4574 H 437.069 -0.840551 3.82985 0
M  V30 4575 H 438.559 -1.82787 3.75471 0
M  V30 4576 N 438.996 -1.55193 0.274407 0
M  V30 4577 C 440.245 -1.98758 -0.343213 0
M  V30 4578 C 440.558 -1.16624 -1.5703 0
M  V30 4579 O 441.764 -1.5033 -2.26082 0
M  V30 4580 C 440.22 -3.53759 -0.661996 0
M  V30 4581 C 439.828 -4.4467 0.54524 0
M  V30 4582 C 441.572 -4.05916 -1.24228 0
M  V30 4583 C 439.479 -5.91058 0.201084 0
M  V30 4584 H 438.409 -0.742353 -0.132014 0
M  V30 4585 H 441.06 -1.79545 0.378948 0
M  V30 4586 H 439.442 -3.68772 -1.44304 0
M  V30 4587 H 440.616 -4.41426 1.32212 0
M  V30 4588 H 438.931 -4.03143 1.04232 0
M  V30 4589 H 441.528 -5.12831 -1.51357 0
M  V30 4590 H 441.871 -3.54908 -2.17592 0
M  V30 4591 H 442.404 -3.9434 -0.523542 0
M  V30 4592 H 439.143 -6.46161 1.10258 0
M  V30 4593 H 438.663 -5.97373 -0.539045 0
M  V30 4594 H 440.342 -6.46669 -0.206954 0
M  V30 4595 N 440.474 -0.00167713 -1.576 0
M  V30 4596 C 441.421 0.989195 -2.08527 0
M  V30 4597 C 442.391 1.34031 -0.981065 0
M  V30 4598 O 443.576 1.43839 -1.2536 0
M  V30 4599 C 440.716 2.27537 -2.59463 0
M  V30 4600 C 439.829 1.98314 -3.83791 0
M  V30 4601 C 438.964 3.21025 -4.23222 0
M  V30 4602 C 438.003 2.87495 -5.40382 0
M  V30 4603 N 437.14 4.02749 -5.75098 0
M  V30 4604 H 441.98 0.547973 -2.92919 0
M  V30 4605 H 439.517 0.258917 -1.44803 0
M  V30 4606 H 441.475 3.02729 -2.87073 0
M  V30 4607 H 440.105 2.69325 -1.77943 0
M  V30 4608 H 439.157 1.13482 -3.63078 0
M  V30 4609 H 440.469 1.69601 -4.69081 0
M  V30 4610 H 439.623 4.04561 -4.52123 0
M  V30 4611 H 438.362 3.52877 -3.36644 0
M  V30 4612 H 437.367 2.02367 -5.11202 0
M  V30 4613 H 438.592 2.56889 -6.28637 0
M  V30 4614 H 436.538 4.34494 -4.91478 0
M  V30 4615 H 436.455 3.77566 -6.54966 0
M  V30 4616 H 437.723 4.87068 -6.08592 0
M  V30 4617 N 441.952 1.55251 0.271103 0
M  V30 4618 C 442.884 1.84675 1.35749 0
M  V30 4619 C 443.897 0.731366 1.45447 0
M  V30 4620 O 445.086 1.00924 1.4723 0
M  V30 4621 C 442.186 1.99638 2.73857 0
M  V30 4622 C 441.359 3.30312 2.86727 0
M  V30 4623 C 440.418 3.35318 4.05522 0
M  V30 4624 O 439.444 4.08682 3.96191 0
M  V30 4625 N 440.646 2.62857 5.17577 0
M  V30 4626 H 443.411 2.78445 1.10853 0
M  V30 4627 H 440.972 1.55191 0.461218 0
M  V30 4628 H 442.964 2.00355 3.51625 0
M  V30 4629 H 441.534 1.12725 2.91568 0
M  V30 4630 H 440.754 3.42118 1.95829 0
M  V30 4631 H 442.042 4.16488 2.92258 0
M  V30 4632 H 441.44 2.02939 5.28046 0
M  V30 4633 H 439.997 2.69295 5.93568 0
M  V30 4634 N 443.43 -0.535701 1.48216 0
M  V30 4635 C 444.363 -1.65726 1.56876 0
M  V30 4636 C 445.341 -1.57094 0.419542 0
M  V30 4637 O 446.525 -1.77648 0.630352 0
M  V30 4638 C 443.652 -3.04096 1.49142 0
M  V30 4639 C 442.698 -3.31105 2.68834 0
M  V30 4640 S 443.531 -3.18001 4.30854 0
M  V30 4641 C 444.687 -4.58828 4.25709 0
M  V30 4642 H 444.92 -1.58129 2.51759 0
M  V30 4643 H 442.453 -0.718218 1.36678 0
M  V30 4644 H 444.411 -3.839 1.45366 0
M  V30 4645 H 443.072 -3.09139 0.556067 0
M  V30 4646 H 442.265 -4.32033 2.59545 0
M  V30 4647 H 441.867 -2.58961 2.69843 0
M  V30 4648 H 444.159 -5.5023 3.95289 0
M  V30 4649 H 445.102 -4.73172 5.26796 0
M  V30 4650 H 445.51 -4.37883 3.56257 0
M  V30 4651 N 444.908 -1.36708 -0.784132 0
M  V30 4652 C 445.856 -1.31533 -1.91838 0
M  V30 4653 C 446.85 -0.206205 -1.6814 0
M  V30 4654 O 448.056 -0.373519 -1.76082 0
M  V30 4655 H 444.431 -0.409613 -0.630651 0
M  V30 4656 H 446.402 -2.2731 -1.9332 0
M  V30 4657 C 445.151 -1.12679 -3.28936 0
M  V30 4658 H 444.474 -1.97274 -3.4774 0
M  V30 4659 H 445.914 -1.13106 -4.08636 0
M  V30 4660 C 444.373 0.168281 -3.36479 0
M  V30 4661 O 444.903 1.15625 -3.84699 0
M  V30 4662 N 443.109 0.214762 -2.89805 0
M  V30 4663 H 442.656 -0.589852 -2.50756 0
M  V30 4664 H 442.614 1.08094 -2.95234 0
M  V30 4665 N 446.386 1.0089 -1.21074 0
M  V30 4666 C 447.316 2.1145 -0.990523 0
M  V30 4667 C 448.297 1.69897 0.0831699 0
M  V30 4668 O 449.482 1.94052 -0.0758853 0
M  V30 4669 C 446.612 3.42914 -0.550177 0
M  V30 4670 C 445.566 3.98244 -1.56799 0
M  V30 4671 C 444.892 5.25568 -0.984013 0
M  V30 4672 C 446.192 4.30752 -2.95381 0
M  V30 4673 H 447.886 2.3013 -1.91521 0
M  V30 4674 H 445.432 1.10592 -0.92225 0
M  V30 4675 H 447.385 4.19653 -0.383305 0
M  V30 4676 H 446.109 3.24014 0.41015 0
M  V30 4677 H 444.768 3.23621 -1.72236 0
M  V30 4678 H 444.416 5.02998 -0.0155216 0
M  V30 4679 H 444.116 5.63551 -1.66384 0
M  V30 4680 H 445.64 6.04955 -0.828378 0
M  V30 4681 H 447.054 4.98349 -2.8341 0
M  V30 4682 H 445.451 4.79869 -3.60341 0
M  V30 4683 H 446.521 3.39192 -3.46521 0
M  V30 4684 N 447.864 1.01787 1.20321 0
M  V30 4685 C 448.796 0.547357 2.22568 0
M  V30 4686 C 449.809 -0.370922 1.58518 0
M  V30 4687 O 450.998 -0.169067 1.77698 0
M  V30 4688 C 448.098 -0.223031 3.38165 0
M  V30 4689 C 447.271 0.697472 4.31803 0
M  V30 4690 C 446.33 -0.025562 5.26194 0
M  V30 4691 O 445.356 0.597367 5.66057 0
M  V30 4692 N 446.558 -1.29999 5.65757 0
M  V30 4693 H 449.323 1.42668 2.63564 0
M  V30 4694 H 446.884 0.895552 1.34876 0
M  V30 4695 H 448.876 -0.716002 3.98316 0
M  V30 4696 H 447.446 -1.00366 2.9605 0
M  V30 4697 H 446.666 1.37073 3.69601 0
M  V30 4698 H 447.954 1.32347 4.91286 0
M  V30 4699 H 447.352 -1.827 5.35385 0
M  V30 4700 H 445.909 -1.73766 6.28211 0
M  V30 4701 N 449.342 -1.36122 0.79427 0
M  V30 4702 C 450.274 -2.28683 0.153903 0
M  V30 4703 C 451.287 -1.49707 -0.639669 0
M  V30 4704 O 452.476 -1.7209 -0.474054 0
M  V30 4705 C 449.576 -3.29202 -0.804921 0
M  V30 4706 C 448.749 -4.37358 -0.060366 0
M  V30 4707 C 447.808 -5.17811 -0.935849 0
M  V30 4708 O 446.834 -5.67853 -0.391309 0
M  V30 4709 N 448.036 -5.34721 -2.25951 0
M  V30 4710 H 450.801 -2.84278 0.949008 0
M  V30 4711 H 448.362 -1.4834 0.648611 0
M  V30 4712 H 450.354 -3.79914 -1.39455 0
M  V30 4713 H 448.924 -2.74212 -1.50088 0
M  V30 4714 H 448.144 -3.87746 0.710382 0
M  V30 4715 H 449.432 -5.06777 0.45324 0
M  V30 4716 H 448.83 -4.95687 -2.72601 0
M  V30 4717 H 447.387 -5.88657 -2.79867 0
M  V30 4718 N 450.82 -0.546701 -1.47814 0
M  V30 4719 C 451.752 0.244196 -2.27895 0
M  V30 4720 C 452.765 0.88911 -1.36377 0
M  V30 4721 O 453.954 0.764733 -1.61289 0
M  V30 4722 C 451.054 1.36252 -3.10304 0
M  V30 4723 C 450.227 0.816382 -4.29714 0
M  V30 4724 C 449.286 1.81789 -4.93801 0
M  V30 4725 O 448.312 1.36818 -5.52512 0
M  V30 4726 N 449.514 3.15085 -4.87547 0
M  V30 4727 H 452.279 -0.442694 -2.96412 0
M  V30 4728 H 449.84 -0.382095 -1.57327 0
M  V30 4729 H 451.832 2.03102 -3.50045 0
M  V30 4730 H 450.402 1.95281 -2.44099 0
M  V30 4731 H 449.622 -0.0285981 -3.9419 0
M  V30 4732 H 450.91 0.430668 -5.06974 0
M  V30 4733 H 450.308 3.54275 -4.41028 0
M  V30 4734 H 448.865 3.77522 -5.31339 0
M  V30 4735 N 452.299 1.55045 -0.282633 0
M  V30 4736 C 453.71 1.85473 0.213655 0
M  V30 4737 C 454.061 1.20465 1.54863 0
M  V30 4738 O 453.186 0.495676 2.10647 0
M  V30 4739 C 453.781 3.36496 0.394445 0
M  V30 4740 C 452.34 3.67022 0.834961 0
M  V30 4741 C 451.487 2.77218 -0.0674081 0
M  V30 4742 H 454.438 1.50478 -0.504202 0
M  V30 4743 H 454.459 3.60007 1.23186 0
M  V30 4744 H 453.971 3.83782 -0.577326 0
M  V30 4745 H 452.072 3.25241 1.81794 0
M  V30 4746 H 452.185 4.74433 0.667075 0
M  V30 4747 H 450.549 2.5069 0.450196 0
M  V30 4748 H 451.332 3.2732 -1.0352 0
M  V30 4749 N 453.777 0.010035 1.57597 0
M  V30 4750 C 454.724 -0.978122 2.09049 0
M  V30 4751 C 455.694 -1.33509 0.988159 0
M  V30 4752 O 456.879 -1.43172 1.26121 0
M  V30 4753 C 454.019 -2.26158 2.60666 0
M  V30 4754 C 453.132 -1.96275 3.84838 0
M  V30 4755 C 452.267 -3.18776 4.24918 0
M  V30 4756 C 451.306 -2.84625 5.41899 0
M  V30 4757 N 450.443 -3.99693 5.77226 0
M  V30 4758 H 455.283 -0.532431 2.93205 0
M  V30 4759 H 452.82 -0.251234 1.44939 0
M  V30 4760 H 454.778 -3.01202 2.88675 0
M  V30 4761 H 453.408 -2.68378 1.79369 0
M  V30 4762 H 452.46 -1.11555 3.63675 0
M  V30 4763 H 453.772 -1.67111 4.69974 0
M  V30 4764 H 452.926 -4.02157 4.54262 0
M  V30 4765 H 451.665 -3.51087 3.38511 0
M  V30 4766 H 450.67 -1.99653 5.12268 0
M  V30 4767 H 451.895 -2.53551 6.29991 0
M  V30 4768 H 449.841 -4.31882 4.93776 0
M  V30 4769 H 449.758 -3.74087 6.56959 0
M  V30 4770 H 451.026 -4.83834 6.11167 0
M  V30 4771 N 455.255 -1.55392 -0.262866 0
M  V30 4772 C 456.202 -1.88966 -1.32516 0
M  V30 4773 C 457.172 -0.742187 -1.48596 0
M  V30 4774 O 458.357 -0.99439 -1.62839 0
M  V30 4775 C 455.497 -2.17592 -2.67858 0
M  V30 4776 C 454.61 -3.45061 -2.59917 0
M  V30 4777 C 453.745 -3.63336 -3.87505 0
M  V30 4778 C 452.784 -4.84462 -3.74116 0
M  V30 4779 N 451.921 -4.99342 -4.93561 0
M  V30 4780 H 456.761 -2.79566 -1.03184 0
M  V30 4781 H 454.298 -1.38404 -0.498285 0
M  V30 4782 H 456.256 -2.3219 -3.46617 0
M  V30 4783 H 454.886 -1.30215 -2.95371 0
M  V30 4784 H 453.938 -3.38881 -1.72812 0
M  V30 4785 H 455.25 -4.3396 -2.45926 0
M  V30 4786 H 454.404 -3.77807 -4.74707 0
M  V30 4787 H 453.143 -2.72641 -4.04374 0
M  V30 4788 H 452.148 -4.69985 -2.85297 0
M  V30 4789 H 453.373 -5.76603 -3.58757 0
M  V30 4790 H 451.319 -4.1158 -5.10821 0
M  V30 4791 H 451.236 -5.82303 -4.82141 0
M  V30 4792 H 452.504 -5.18208 -5.82306 0
M  V30 4793 N 456.733 0.527833 -1.48498 0
M  V30 4794 C 457.643 1.65907 -1.65867 0
M  V30 4795 C 458.659 1.6537 -0.541192 0
M  V30 4796 O 459.835 1.84282 -0.812534 0
M  V30 4797 C 456.9 3.02364 -1.69637 0
M  V30 4798 C 455.961 3.1374 -2.93028 0
M  V30 4799 C 455.194 4.43688 -2.96609 0
M  V30 4800 O 455.417 5.30913 -2.08538 0
M  V30 4801 O 454.351 4.59475 -3.88802 0
M  V30 4802 H 458.177 1.5419 -2.61647 0
M  V30 4803 H 455.762 0.701163 -1.31924 0
M  V30 4804 H 457.644 3.83515 -1.74625 0
M  V30 4805 H 456.319 3.14401 -0.770312 0
M  V30 4806 H 455.226 2.31877 -2.93571 0
M  V30 4807 H 456.559 3.06621 -3.85026 0
M  V30 4808 N 458.211 1.37122 0.776871 0
M  V30 4809 C 459.141 1.35164 1.90402 0
M  V30 4810 C 460.122 0.221069 1.68657 0
M  V30 4811 O 461.307 0.420642 1.8959 0
M  V30 4812 C 458.437 1.15274 3.27611 0
M  V30 4813 C 457.391 2.25289 3.63908 0
M  V30 4814 C 456.717 1.90527 4.99603 0
M  V30 4815 C 458.017 3.67446 3.71188 0
M  V30 4816 H 459.711 2.29482 1.92297 0
M  V30 4817 H 457.257 1.10465 0.923773 0
M  V30 4818 H 459.21 1.12536 4.06096 0
M  V30 4819 H 457.934 0.174102 3.26136 0
M  V30 4820 H 456.593 2.27174 2.87728 0
M  V30 4821 H 456.241 0.91206 4.94662 0
M  V30 4822 H 455.941 2.64193 5.24858 0
M  V30 4823 H 457.465 1.89367 5.80493 0
M  V30 4824 H 458.879 3.67719 4.39836 0
M  V30 4825 H 457.276 4.40123 4.07936 0
M  V30 4826 H 458.346 4.01443 2.71977 0
M  V30 4827 N 459.689 -1.00246 1.21608 0
M  V30 4828 C 460.938 -1.73476 1.02902 0
M  V30 4829 C 461.251 -1.90643 -0.437561 0
M  V30 4830 O 462.457 -2.61105 -0.74407 0
M  V30 4831 C 460.913 -3.12079 1.79261 0
M  V30 4832 C 460.521 -3.02877 3.30106 0
M  V30 4833 C 462.265 -3.89421 1.68972 0
M  V30 4834 C 460.172 -4.36575 3.98944 0
M  V30 4835 H 459.102 -0.650408 0.381425 0
M  V30 4836 H 461.753 -1.11985 1.45367 0
M  V30 4837 H 460.135 -3.74196 1.2959 0
M  V30 4838 H 461.309 -2.49983 3.87098 0
M  V30 4839 H 459.624 -2.39022 3.40965 0
M  V30 4840 H 462.221 -4.88362 2.17731 0
M  V30 4841 H 462.564 -4.1122 0.648397 0
M  V30 4842 H 463.097 -3.33963 2.16133 0
M  V30 4843 H 459.836 -4.19978 5.03288 0
M  V30 4844 H 459.356 -4.8942 3.4674 0
M  V30 4845 H 461.035 -5.05364 4.04 0
M  V30 4846 N 461.167 -1.02423 -1.1978 0
M  V30 4847 C 462.416 -0.713265 -1.88667 0
M  V30 4848 C 462.729 0.7609 -1.80193 0
M  V30 4849 O 463.935 1.18473 -2.44288 0
M  V30 4850 C 462.391 -1.22545 -3.38394 0
M  V30 4851 C 461.999 -2.72706 -3.55437 0
M  V30 4852 C 463.743 -0.990257 -4.12788 0
M  V30 4853 C 461.65 -3.17367 -4.99031 0
M  V30 4854 H 460.58 -0.263105 -0.706606 0
M  V30 4855 H 463.231 -1.23792 -1.35454 0
M  V30 4856 H 461.613 -0.628732 -3.90977 0
M  V30 4857 H 462.787 -3.37993 -3.13205 0
M  V30 4858 H 461.102 -2.94453 -2.94425 0
M  V30 4859 H 463.699 -1.29926 -5.18675 0
M  V30 4860 H 464.042 0.0730761 -4.16236 0
M  V30 4861 H 464.575 -1.55074 -3.66329 0
M  V30 4862 H 461.314 -4.23009 -5.00743 0
M  V30 4863 H 460.834 -2.56805 -5.42044 0
M  V30 4864 H 462.513 -3.10441 -5.67658 0
M  V30 4865 N 462.645 1.35699 -0.801477 0
M  V30 4866 C 463.593 2.3177 -0.196317 0
M  V30 4867 C 464.587 1.56388 0.651081 0
M  V30 4868 O 465.793 1.71557 0.544815 0
M  V30 4869 H 462.168 0.750669 -0.0447189 0
M  V30 4870 H 464.139 2.8036 -1.02181 0
M  V30 4871 C 462.888 3.41671 0.644702 0
M  V30 4872 H 462.211 3.998 0.0019921 0
M  V30 4873 H 463.651 4.11184 1.0346 0
M  V30 4874 C 462.11 2.84271 1.80808 0
M  V30 4875 O 462.64 2.77408 2.9053 0
M  V30 4876 N 460.846 2.41391 1.61799 0
M  V30 4877 H 460.393 2.47173 0.725493 0
M  V30 4878 H 460.351 2.03334 2.39797 0
M  V30 4879 N 464.123 0.554532 1.47522 0
M  V30 4880 C 465.033 -0.197865 2.33764 0
M  V30 4881 C 466.049 -0.914576 1.48025 0
M  V30 4882 O 467.225 -0.884067 1.80959 0
M  V30 4883 C 464.29 -1.21628 3.24665 0
M  V30 4884 C 463.351 -0.507283 4.26292 0
M  V30 4885 C 462.584 -1.47718 5.1285 0
M  V30 4886 O 462.807 -2.7118 5.01814 0
M  V30 4887 O 461.741 -1.00313 5.93482 0
M  V30 4888 H 465.567 0.50949 2.99396 0
M  V30 4889 H 463.152 0.315176 1.46038 0
M  V30 4890 H 465.034 -1.80421 3.80823 0
M  V30 4891 H 463.709 -1.9056 2.61665 0
M  V30 4892 H 462.616 0.121778 3.73902 0
M  V30 4893 H 463.949 0.140544 4.91999 0
M  V30 4894 N 465.601 -1.54893 0.290851 0
M  V30 4895 C 466.85 -1.99111 -0.322113 0
M  V30 4896 C 467.163 -1.18283 -1.55784 0
M  V30 4897 O 468.369 -1.5272 -2.24475 0
M  V30 4898 C 466.825 -3.54442 -0.624438 0
M  V30 4899 C 466.433 -4.44066 0.592373 0
M  V30 4900 C 468.177 -4.07211 -1.19916 0
M  V30 4901 C 466.084 -5.90812 0.263762 0
M  V30 4902 H 465.014 -0.743712 -0.124133 0
M  V30 4903 H 467.665 -1.79132 0.39797 0
M  V30 4904 H 466.047 -3.70281 -1.40384 0
M  V30 4905 H 467.221 -4.39999 1.36886 0
M  V30 4906 H 465.536 -4.02015 1.08502 0
M  V30 4907 H 468.133 -5.14407 -1.45909 0
M  V30 4908 H 468.476 -3.57196 -2.13815 0
M  V30 4909 H 469.009 -3.94873 -0.481687 0
M  V30 4910 H 465.748 -6.44955 1.17105 0
M  V30 4911 H 465.268 -5.97911 -0.475655 0
M  V30 4912 H 466.947 -6.46852 -0.138354 0
M  V30 4913 N 467.08 -0.0183926 -1.57589 0
M  V30 4914 C 468.01 0.965596 -2.12599 0
M  V30 4915 C 468.991 1.34641 -1.0395 0
M  V30 4916 O 470.176 1.42693 -1.31729 0
M  V30 4917 C 467.306 2.25149 -2.64434 0
M  V30 4918 C 466.26 2.01175 -3.77773 0
M  V30 4919 C 465.586 3.35937 -4.15994 0
M  V30 4920 C 466.886 1.35953 -5.04296 0
M  V30 4921 H 468.58 0.507504 -2.95067 0
M  V30 4922 H 466.126 0.242671 -1.41941 0
M  V30 4923 H 468.079 2.94357 -3.01549 0
M  V30 4924 H 466.803 2.73105 -1.79112 0
M  V30 4925 H 465.462 1.34388 -3.4108 0
M  V30 4926 H 465.11 3.81631 -3.27669 0
M  V30 4927 H 464.81 3.20705 -4.92364 0
M  V30 4928 H 466.334 4.0643 -4.55683 0
M  V30 4929 H 467.748 1.95144 -5.39065 0
M  V30 4930 H 466.145 1.31152 -5.85593 0
M  V30 4931 H 467.215 0.331071 -4.83768 0
M  V30 4932 N 468.558 1.5553 0.254621 0
M  V30 4933 C 469.804 1.77262 0.985193 0
M  V30 4934 C 470.137 0.582286 1.85265 0
M  V30 4935 O 469.412 -0.419666 1.89919 0
M  V30 4936 C 469.695 3.0881 1.85225 0
M  V30 4937 C 469.548 4.38233 1.0135 0
M  V30 4938 C 470.867 3.3653 2.83612 0
M  V30 4939 H 467.986 0.644906 0.356742 0
M  V30 4940 H 470.628 1.88264 0.256236 0
M  V30 4941 H 468.778 2.99562 2.47376 0
M  V30 4942 H 470.45 4.59463 0.411269 0
M  V30 4943 H 468.693 4.32636 0.317574 0
M  V30 4944 H 469.364 5.26644 1.65379 0
M  V30 4945 H 471.84 3.45691 2.31596 0
M  V30 4946 H 470.716 4.29805 3.41407 0
M  V30 4947 H 470.977 2.57064 3.59681 0
M  V30 4948 N 470.036 -0.519951 1.48776 0
M  V30 4949 C 470.969 -1.64053 1.58625 0
M  V30 4950 C 471.947 -1.5664 0.43618 0
M  V30 4951 O 473.131 -1.76969 0.649159 0
M  V30 4952 C 470.258 -3.02497 1.52359 0
M  V30 4953 C 469.304 -3.28235 2.72331 0
M  V30 4954 S 470.137 -3.13414 4.34203 0
M  V30 4955 C 471.293 -4.54287 4.30551 0
M  V30 4956 H 471.526 -1.5545 2.53422 0
M  V30 4957 H 469.059 -0.703681 1.37433 0
M  V30 4958 H 471.017 -3.82336 1.4943 0
M  V30 4959 H 469.678 -3.08531 0.588824 0
M  V30 4960 H 468.871 -4.29256 2.64113 0
M  V30 4961 H 468.473 -2.56085 2.72574 0
M  V30 4962 H 470.765 -5.46006 4.01103 0
M  V30 4963 H 471.708 -4.67558 5.31785 0
M  V30 4964 H 472.116 -4.34079 3.60881 0
M  V30 4965 N 471.514 -1.37532 -0.769588 0
M  V30 4966 C 472.93 -1.18379 -1.07045 0
M  V30 4967 C 473.13 -0.0214312 -2.01489 0
M  V30 4968 O 472.186 0.637809 -2.44312 0
M  V30 4969 C 473.499 -2.50338 -1.66588 0
M  V30 4970 C 475.047 -2.56879 -1.78835 0
M  V30 4971 C 475.522 -3.88974 -2.41792 0
M  V30 4972 N 477.013 -3.90428 -2.4924 0
M  V30 4973 C 477.748 -4.89388 -2.98809 0
M  V30 4974 N 477.244 -5.98745 -3.48535 0
M  V30 4975 N 479.037 -4.76791 -2.97703 0
M  V30 4976 H 471.188 -2.11921 -0.142541 0
M  V30 4977 H 473.451 -0.939608 -0.125863 0
M  V30 4978 H 473.157 -3.35767 -1.0466 0
M  V30 4979 H 473.031 -2.67583 -2.65856 0
M  V30 4980 H 475.418 -1.71856 -2.39895 0
M  V30 4981 H 475.499 -2.43516 -0.783166 0
M  V30 4982 H 475.143 -4.74412 -1.81371 0
M  V30 4983 H 475.073 -3.99641 -3.4292 0
M  V30 4984 H 477.564 -3.11433 -2.14052 0
M  V30 4985 H 477.877 -6.70205 -3.84767 0
M  V30 4986 H 476.222 -6.02387 -3.46634 0
M  V30 4987 H 479.413 -3.90478 -2.58157 0
M  V30 4988 H 479.586 -5.54069 -3.36024 0
M  V30 4989 N 472.992 0.995999 -1.22138 0
M  V30 4990 C 473.902 2.11985 -1.00496 0
M  V30 4991 C 474.918 1.7394 0.0457701 0
M  V30 4992 O 476.094 2.00868 -0.146273 0
M  V30 4993 C 473.159 3.41779 -0.582086 0
M  V30 4994 C 472.22 3.93943 -1.70608 0
M  V30 4995 C 471.453 5.17542 -1.30328 0
M  V30 4996 O 471.676 5.70114 -0.180743 0
M  V30 4997 O 470.61 5.63382 -2.11861 0
M  V30 4998 H 474.436 2.33123 -1.94647 0
M  V30 4999 H 472.021 1.10358 -1.00705 0
M  V30 5000 H 473.903 4.1989 -0.356467 0
M  V30 5001 H 472.578 3.22007 0.330592 0
M  V30 5002 H 471.485 3.17019 -1.98619 0
M  V30 5003 H 472.818 4.18141 -2.59651 0
M  V30 5004 N 474.47 1.03057 1.19235 0
M  V30 5005 C 475.418 0.606391 2.24557 0
M  V30 5006 C 476.412 -0.361826 1.65491 0
M  V30 5007 O 477.618 -0.23022 1.78522 0
M  V30 5008 H 473.993 0.177838 0.730669 0
M  V30 5009 H 475.964 1.50529 2.5765 0
M  V30 5010 C 474.713 -0.0252127 3.47691 0
M  V30 5011 H 474.036 0.710838 3.9343 0
M  V30 5012 H 475.476 -0.284931 4.23042 0
M  V30 5013 C 473.935 -1.27229 3.11953 0
M  V30 5014 O 474.465 -2.36416 3.24762 0
M  V30 5015 N 472.671 -1.16169 2.6637 0
M  V30 5016 H 472.218 -0.273189 2.56147 0
M  V30 5017 H 472.176 -1.99703 2.42829 0
M  V30 5018 N 475.948 -1.35272 0.808662 0
M  V30 5019 C 476.895 -2.29764 0.218482 0
M  V30 5020 C 477.865 -1.52911 -0.648652 0
M  V30 5021 O 479.05 -1.81341 -0.593297 0
M  V30 5022 C 476.19 -3.39388 -0.625282 0
M  V30 5023 C 475.303 -4.31202 0.262516 0
M  V30 5024 C 474.438 -5.27919 -0.589451 0
M  V30 5025 C 473.477 -6.11371 0.298617 0
M  V30 5026 N 472.614 -7.0022 -0.513443 0
M  V30 5027 H 477.454 -2.79645 1.02968 0
M  V30 5028 H 474.991 -1.37629 0.519303 0
M  V30 5029 H 476.949 -4.01615 -1.12966 0
M  V30 5030 H 475.579 -2.90777 -1.40173 0
M  V30 5031 H 474.631 -3.69962 0.885013 0
M  V30 5032 H 475.943 -4.89748 0.945971 0
M  V30 5033 H 475.097 -5.95529 -1.15888 0
M  V30 5034 H 473.836 -4.69875 -1.30647 0
M  V30 5035 H 472.841 -5.42707 0.880301 0
M  V30 5036 H 474.066 -6.71494 1.01352 0
M  V30 5037 H 472.012 -6.44662 -1.21439 0
M  V30 5038 H 471.929 -7.55917 0.111922 0
M  V30 5039 H 473.197 -7.72175 -1.06608 0
M  V30 5040 N 477.426 -0.562348 -1.47226 0
M  V30 5041 C 478.374 0.195476 -2.31777 0
M  V30 5042 C 479.368 0.90433 -1.43242 0
M  V30 5043 O 480.574 0.825031 -1.59979 0
M  V30 5044 H 476.949 0.0819095 -0.747526 0
M  V30 5045 H 478.92 -0.536753 -2.93533 0
M  V30 5046 C 477.669 1.20902 -3.26003 0
M  V30 5047 H 476.992 0.672997 -3.94095 0
M  V30 5048 H 478.432 1.71006 -3.87986 0
M  V30 5049 C 476.891 2.25955 -2.49891 0
M  V30 5050 O 477.421 3.32969 -2.2471 0
M  V30 5051 N 475.627 2.00019 -2.1081 0
M  V30 5052 H 475.174 1.13006 -2.31489 0
M  V30 5053 H 475.132 2.70523 -1.60201 0
M  V30 5054 N 478.904 1.54736 -0.299062 0
M  V30 5055 C 480.315 1.8569 0.193971 0
M  V30 5056 C 480.666 1.22101 1.53577 0
M  V30 5057 O 479.791 0.51799 2.10109 0
M  V30 5058 C 480.386 3.36895 0.358733 0
M  V30 5059 C 478.945 3.67887 0.795986 0
M  V30 5060 C 478.092 2.77131 -0.096807 0
M  V30 5061 H 481.043 1.49934 -0.520134 0
M  V30 5062 H 481.064 3.61294 1.19361 0
M  V30 5063 H 480.576 3.83148 -0.617998 0
M  V30 5064 H 478.677 3.27151 1.78334 0
M  V30 5065 H 478.79 4.75114 0.616718 0
M  V30 5066 H 477.154 2.51153 0.423581 0
M  V30 5067 H 477.937 3.26204 -1.06986 0
M  V30 5068 N 480.382 0.0267497 1.57577 0
M  V30 5069 C 481.33 -0.973923 2.11229 0
M  V30 5070 C 482.324 -1.33849 1.03831 0
M  V30 5071 O 483.53 -1.321 1.22269 0
M  V30 5072 H 479.905 -0.331844 0.674821 0
M  V30 5073 H 481.876 -0.496092 2.94247 0
M  V30 5074 C 480.625 -2.24798 2.65257 0
M  V30 5075 H 479.948 -1.9762 3.47543 0
M  V30 5076 H 481.388 -2.93031 3.06445 0
M  V30 5077 C 479.847 -2.97611 1.57891 0
M  V30 5078 O 480.377 -3.89629 0.97735 0
M  V30 5079 N 478.583 -2.59905 1.29992 0
M  V30 5080 H 478.13 -1.85154 1.79097 0
M  V30 5081 H 478.088 -3.08932 0.583798 0
M  V30 5082 N 481.861 -1.55662 -0.24637 0
M  V30 5083 C 483.11 -1.7672 -0.972254 0
M  V30 5084 C 483.423 -0.59078 -1.86465 0
M  V30 5085 O 484.629 -0.684391 -2.62732 0
M  V30 5086 C 483.085 -3.12869 -1.7788 0
M  V30 5087 C 482.693 -4.38161 -0.933768 0
M  V30 5088 C 484.437 -3.43265 -2.49738 0
M  V30 5089 C 482.344 -5.6534 -1.73623 0
M  V30 5090 H 481.274 -0.658795 -0.366749 0
M  V30 5091 H 483.925 -1.82092 -0.226902 0
M  V30 5092 H 482.307 -3.01606 -2.56612 0
M  V30 5093 H 483.481 -4.60413 -0.188736 0
M  V30 5094 H 481.796 -4.15102 -0.328488 0
M  V30 5095 H 484.393 -4.35501 -3.10231 0
M  V30 5096 H 484.736 -2.64614 -3.2138 0
M  V30 5097 H 485.269 -3.55746 -1.78016 0
M  V30 5098 H 482.008 -6.46814 -1.06354 0
M  V30 5099 H 481.528 -5.47188 -2.45653 0
M  V30 5100 H 483.207 -6.04616 -2.30323 0
M  V30 5101 N 483.339 0.512053 -1.4905 0
M  V30 5102 C 484.585 1.26874 -1.58212 0
M  V30 5103 C 484.918 1.9241 -0.263073 0
M  V30 5104 O 484.193 1.80181 0.732476 0
M  V30 5105 C 484.476 2.34428 -2.73341 0
M  V30 5106 C 484.329 1.73466 -4.15006 0
M  V30 5107 C 485.648 3.36073 -2.84154 0
M  V30 5108 H 482.767 0.459924 -0.575881 0
M  V30 5109 H 485.409 0.568587 -1.81293 0
M  V30 5110 H 483.559 2.94146 -2.53792 0
M  V30 5111 H 485.231 1.17661 -4.46042 0
M  V30 5112 H 483.474 1.03921 -4.21168 0
M  V30 5113 H 484.145 2.51426 -4.91415 0
M  V30 5114 H 486.621 2.86332 -3.01916 0
M  V30 5115 H 485.497 4.08703 -3.66406 0
M  V30 5116 H 485.758 3.97725 -1.93048 0
M  V30 5117 N 484.817 1.37938 0.762283 0
M  V30 5118 C 485.765 1.34569 1.89721 0
M  V30 5119 C 486.759 0.232929 1.67791 0
M  V30 5120 O 487.965 0.401485 1.75465 0
M  V30 5121 H 484.34 0.419594 0.624055 0
M  V30 5122 H 486.311 2.30357 1.8968 0
M  V30 5123 C 485.06 1.17898 3.27101 0
M  V30 5124 H 484.383 2.02781 3.44558 0
M  V30 5125 H 485.823 1.19593 4.06784 0
M  V30 5126 C 484.282 -0.114728 3.36705 0
M  V30 5127 O 484.812 -1.0949 3.8649 0
M  V30 5128 N 483.018 -0.16863 2.9011 0
M  V30 5129 H 482.565 0.62967 2.49786 0
M  V30 5130 H 482.523 -1.03383 2.96916 0
M  V30 5131 N 486.295 -0.989507 1.22664 0
M  V30 5132 C 487.525 -1.7624 1.0781 0
M  V30 5133 C 487.933 -1.85466 -0.374036 0
M  V30 5134 O 487.276 -1.32645 -1.27087 0
M  V30 5135 C 487.338 -3.21007 1.61849 0
M  V30 5136 C 487.002 -3.35316 3.10503 0
M  V30 5137 C 487.999 -3.22362 4.07896 0
M  V30 5138 C 485.684 -3.60258 3.50028 0
M  V30 5139 C 487.678 -3.34139 5.42798 0
M  V30 5140 C 485.365 -3.71676 4.85078 0
M  V30 5141 C 486.363 -3.58625 5.81272 0
M  V30 5142 O 486.051 -3.69655 7.1387 0
M  V30 5143 H 485.783 -0.560209 0.378341 0
M  V30 5144 H 488.337 -1.25252 1.62792 0
M  V30 5145 H 486.567 -3.73202 1.01279 0
M  V30 5146 H 488.256 -3.80024 1.42606 0
M  V30 5147 H 489.022 -3.03 3.78703 0
M  V30 5148 H 484.901 -3.69492 2.75675 0
M  V30 5149 H 488.445 -3.23869 6.17863 0
M  V30 5150 H 484.342 -3.90545 5.1395 0
M  V30 5151 H 485.11 -3.86507 7.21495 0
M  V30 5152 N 487.773 -1.03688 -1.18687 0
M  V30 5153 C 488.703 -0.645407 -2.24403 0
M  V30 5154 C 489.684 0.349511 -1.66471 0
M  V30 5155 O 490.869 0.230453 -1.92828 0
M  V30 5156 C 487.999 -0.00365337 -3.473 0
M  V30 5157 C 486.953 -0.921705 -4.17958 0
M  V30 5158 C 486.279 -0.144629 -5.34504 0
M  V30 5159 C 487.579 -2.23909 -4.71871 0
M  V30 5160 H 489.273 -1.52917 -2.57404 0
M  V30 5161 H 486.819 -0.736711 -1.23728 0
M  V30 5162 H 488.772 0.281908 -4.20456 0
M  V30 5163 H 487.496 0.914963 -3.13522 0
M  V30 5164 H 486.155 -1.19159 -3.46694 0
M  V30 5165 H 485.803 0.776274 -4.96974 0
M  V30 5166 H 485.503 -0.756206 -5.82714 0
M  V30 5167 H 487.027 0.134004 -6.10453 0
M  V30 5168 H 488.441 -2.0145 -5.36741 0
M  V30 5169 H 486.838 -2.8033 -5.30599 0
M  V30 5170 H 487.908 -2.88822 -3.895 0
M  V30 5171 N 489.251 1.34841 -0.815825 0
M  V30 5172 C 490.528 1.92908 -0.323416 0
M  V30 5173 C 490.908 1.74479 1.18828 0
M  V30 5174 O 490.256 1.11928 1.99209 0
M  V30 5175 C 490.466 3.40957 -0.744952 0
M  V30 5176 C 491.814 4.18107 -0.739716 0
M  V30 5177 O 492.838 3.49511 -0.68708 0
M  V30 5178 O 491.697 5.40517 -0.806456 0
M  V30 5179 H 488.791 0.822436 -0.0867646 0
M  V30 5180 H 491.337 1.4386 -0.90014 0
M  V30 5181 H 490.109 3.4814 -1.78646 0
M  V30 5182 H 489.732 3.97341 -0.143535 0
M  V30 5183 N 490.729 0.570148 1.46925 0
M  V30 5184 C 491.954 0.0542592 2.07329 0
M  V30 5185 C 492.379 -1.23582 1.41806 0
M  V30 5186 O 491.737 -1.74341 0.497479 0
M  V30 5187 C 491.785 -0.111175 3.60429 0
M  V30 5188 O 490.889 -1.17071 3.95434 0
M  V30 5189 H 490.23 0.0571425 0.661537 0
M  V30 5190 H 492.76 0.789516 1.88753 0
M  V30 5191 H 492.77 -0.321315 4.06733 0
M  V30 5192 H 491.445 0.831012 4.07513 0
M  V30 5193 H 490.022 -0.940029 3.60857 0
M  V30 5194 N 492.207 -1.54576 0.307264 0
M  V30 5195 C 493.437 -2.04378 -0.302158 0
M  V30 5196 C 493.845 -1.18381 -1.47589 0
M  V30 5197 O 493.188 -0.20352 -1.82569 0
M  V30 5198 C 493.25 -3.50133 -0.815305 0
M  V30 5199 C 492.914 -4.56401 0.233977 0
M  V30 5200 C 493.911 -5.08884 1.06456 0
M  V30 5201 C 491.596 -5.0088 0.377478 0
M  V30 5202 C 493.59 -6.04394 2.02452 0
M  V30 5203 C 491.277 -5.96208 1.34088 0
M  V30 5204 C 492.275 -6.47849 2.16288 0
M  V30 5205 O 491.963 -7.41308 3.10994 0
M  V30 5206 H 491.695 -0.672502 -0.0686839 0
M  V30 5207 H 494.249 -2.00484 0.446682 0
M  V30 5208 H 492.479 -3.51371 -1.61478 0
M  V30 5209 H 494.168 -3.83098 -1.34129 0
M  V30 5210 H 494.934 -4.75311 0.964596 0
M  V30 5211 H 490.813 -4.60309 -0.252405 0
M  V30 5212 H 494.357 -6.44626 2.66652 0
M  V30 5213 H 490.254 -6.29198 1.44154 0
M  V30 5214 H 491.022 -7.5913 3.06045 0
M  V30 5215 N 493.685 -0.035106 -1.57561 0
M  V30 5216 C 494.615 0.942993 -2.13612 0
M  V30 5217 C 495.596 1.33531 -1.05373 0
M  V30 5218 O 496.781 1.41287 -1.33235 0
M  V30 5219 C 493.911 2.22332 -2.66807 0
M  V30 5220 C 492.865 1.97156 -3.79886 0
M  V30 5221 C 492.191 3.31506 -4.19533 0
M  V30 5222 C 493.491 1.30596 -5.05709 0
M  V30 5223 H 495.185 0.476179 -2.95589 0
M  V30 5224 H 492.731 0.227602 -1.4219 0
M  V30 5225 H 494.684 2.91142 -3.04654 0
M  V30 5226 H 493.408 2.7119 -1.81999 0
M  V30 5227 H 492.067 1.30763 -3.42486 0
M  V30 5228 H 491.715 3.78134 -3.31698 0
M  V30 5229 H 491.415 3.15465 -4.95738 0
M  V30 5230 H 492.939 4.01574 -4.59968 0
M  V30 5231 H 494.353 1.89416 -5.41105 0
M  V30 5232 H 492.75 1.24934 -5.86951 0
M  V30 5233 H 493.82 0.279742 -4.84092 0
M  V30 5234 N 495.163 1.55791 0.238111 0
M  V30 5235 C 496.409 1.78297 0.966337 0
M  V30 5236 C 496.742 0.601903 1.84637 0
M  V30 5237 O 496.017 -0.399499 1.90353 0
M  V30 5238 C 496.3 3.10758 1.81939 0
M  V30 5239 C 496.153 4.39283 0.966958 0
M  V30 5240 C 497.472 3.39519 2.80027 0
M  V30 5241 H 494.591 0.648654 0.349882 0
M  V30 5242 H 497.233 1.88525 0.236253 0
M  V30 5243 H 495.383 3.02168 2.44185 0
M  V30 5244 H 497.055 4.59873 0.362514 0
M  V30 5245 H 495.298 4.32948 0.271669 0
M  V30 5246 H 495.969 5.28368 1.59784 0
M  V30 5247 H 498.445 3.48128 2.27917 0
M  V30 5248 H 497.321 4.33402 3.36829 0
M  V30 5249 H 497.582 2.60864 3.56934 0
M  V30 5250 N 496.642 -0.504142 1.49319 0
M  V30 5251 C 497.89 -1.25598 1.58334 0
M  V30 5252 C 498.211 -1.93114 0.270538 0
M  V30 5253 O 497.481 -1.82585 -0.709891 0
M  V30 5254 H 496.061 -0.466571 0.58337 0
M  V30 5255 H 498.723 -0.584547 1.85928 0
M  V30 5256 H 497.819 -2.02159 2.37778 0
M  V30 5257 N 498.12 -1.38341 -0.754957 0
M  V30 5258 C 499.397 -1.24995 -1.50451 0
M  V30 5259 C 499.777 0.149244 -2.10572 0
M  V30 5260 O 499.125 1.15861 -1.96948 0
M  V30 5261 C 499.335 -2.35904 -2.57197 0
M  V30 5262 C 500.683 -2.74262 -3.24138 0
M  V30 5263 O 501.707 -2.35205 -2.67501 0
M  V30 5264 O 500.566 -3.4161 -4.26574 0
M  V30 5265 H 497.66 -0.48872 -0.667144 0
M  V30 5266 H 500.206 -1.50165 -0.790486 0
M  V30 5267 H 498.978 -3.2953 -2.11011 0
M  V30 5268 H 498.601 -2.12291 -3.36182 0
M  V30 5269 N 499.598 0.982988 -1.23187 0
M  V30 5270 C 500.508 2.10907 -1.02739 0
M  V30 5271 C 501.524 1.73979 0.0273188 0
M  V30 5272 O 502.7 2.00702 -0.16757 0
M  V30 5273 C 499.765 3.41142 -0.618304 0
M  V30 5274 C 498.826 3.92112 -1.74777 0
M  V30 5275 C 498.059 5.16131 -1.3581 0
M  V30 5276 O 498.282 5.6989 -0.241201 0
M  V30 5277 O 497.216 5.61103 -2.17824 0
M  V30 5278 H 501.042 2.31046 -1.97108 0
M  V30 5279 H 498.627 1.09284 -1.01869 0
M  V30 5280 H 500.509 4.19488 -0.400982 0
M  V30 5281 H 499.184 3.2234 0.296421 0
M  V30 5282 H 498.091 3.14895 -2.0197 0
M  V30 5283 H 499.424 4.15364 -2.64071 0
M  V30 5284 N 501.076 1.04316 1.18135 0
M  V30 5285 C 502.006 0.657299 2.24058 0
M  V30 5286 C 502.987 -0.340678 1.66654 0
M  V30 5287 O 504.172 -0.220223 1.92947 0
M  V30 5288 C 501.302 0.0220715 3.47293 0
M  V30 5289 C 500.256 0.943857 4.17463 0
M  V30 5290 C 499.582 0.172973 5.3442 0
M  V30 5291 C 500.882 2.26409 4.70677 0
M  V30 5292 H 502.576 1.5428 2.56589 0
M  V30 5293 H 500.122 0.743263 1.23335 0
M  V30 5294 H 502.075 -0.259607 4.206 0
M  V30 5295 H 500.799 -0.898323 3.14003 0
M  V30 5296 H 499.458 1.20996 3.46057 0
M  V30 5297 H 499.106 -0.749907 4.97379 0
M  V30 5298 H 498.806 0.787098 5.82304 0
M  V30 5299 H 500.33 -0.101628 6.10515 0
M  V30 5300 H 501.744 2.04294 5.35665 0
M  V30 5301 H 500.141 2.8314 5.29105 0
M  V30 5302 H 501.211 2.90883 3.87962 0
M  V30 5303 N 502.554 -1.34406 0.822964 0
M  V30 5304 C 503.8 -1.98999 0.420847 0
M  V30 5305 C 504.155 -1.64067 -1.00498 0
M  V30 5306 O 503.448 -0.902071 -1.69036 0
M  V30 5307 C 503.642 -3.52981 0.560268 0
M  V30 5308 C 503.471 -4.02873 1.99809 0
M  V30 5309 C 502.241 -4.31463 2.62998 0
M  V30 5310 C 504.439 -4.20241 2.96483 0
M  V30 5311 N 502.421 -4.6739 3.9802 0
M  V30 5312 C 503.792 -4.59348 4.16413 0
M  V30 5313 C 505.847 -4.02489 2.93098 0
M  V30 5314 C 504.55 -4.82559 5.33413 0
M  V30 5315 C 506.576 -4.26866 4.09315 0
M  V30 5316 C 505.938 -4.6626 5.27997 0
M  V30 5317 H 502.037 -0.755432 0.202104 0
M  V30 5318 H 504.621 -1.62815 1.06767 0
M  V30 5319 H 502.792 -3.88359 -0.0566596 0
M  V30 5320 H 504.524 -4.04487 0.131146 0
M  V30 5321 H 501.279 -4.22373 2.14238 0
M  V30 5322 H 501.703 -4.89588 4.67582 0
M  V30 5323 H 506.345 -3.71161 2.02483 0
M  V30 5324 H 504.063 -5.12754 6.24587 0
M  V30 5325 H 507.649 -4.14667 4.08096 0
M  V30 5326 H 506.529 -4.84752 6.16429 0
M  V30 5327 N 504.032 -0.577932 -1.46621 0
M  V30 5328 C 505.278 -0.0617793 -2.02706 0
M  V30 5329 C 505.611 1.29294 -1.44903 0
M  V30 5330 O 504.886 1.8461 -0.61232 0
M  V30 5331 C 505.169 0.00911824 -3.60099 0
M  V30 5332 C 505.022 -1.37416 -4.28295 0
M  V30 5333 C 506.341 0.712159 -4.343 0
M  V30 5334 H 503.46 -0.0239246 -0.736612 0
M  V30 5335 H 506.102 -0.744211 -1.74818 0
M  V30 5336 H 504.252 0.590292 -3.83989 0
M  V30 5337 H 505.924 -2.00013 -4.15683 0
M  V30 5338 H 504.167 -1.94319 -3.87843 0
M  V30 5339 H 504.838 -1.27707 -5.37024 0
M  V30 5340 H 507.314 0.218486 -4.15526 0
M  V30 5341 H 506.19 0.730782 -5.44014 0
M  V30 5342 H 506.451 1.77251 -4.05012 0
M  V30 5343 N 505.51 1.54411 -0.315457 0
M  V30 5344 C 506.756 2.00716 0.289972 0
M  V30 5345 C 507.089 1.2034 1.5242 0
M  V30 5346 O 506.364 0.283579 1.92422 0
M  V30 5347 C 506.647 3.54507 0.632196 0
M  V30 5348 C 506.5 4.45615 -0.61218 0
M  V30 5349 C 507.819 4.15421 1.45305 0
M  V30 5350 H 504.938 0.729637 0.10392 0
M  V30 5351 H 507.58 1.8506 -0.430427 0
M  V30 5352 H 505.73 3.67979 1.24595 0
M  V30 5353 H 507.402 4.44026 -1.25053 0
M  V30 5354 H 505.645 4.15621 -1.24264 0
M  V30 5355 H 506.316 5.51022 -0.328379 0
M  V30 5356 H 508.792 4.05474 0.934331 0
M  V30 5357 H 507.668 5.23157 1.66127 0
M  V30 5358 H 507.929 3.68223 2.44671 0
M  V30 5359 N 506.988 0.0434614 1.5754 0
M  V30 5360 C 507.921 -0.968729 2.06618 0
M  V30 5361 C 508.899 -1.30868 0.965 0
M  V30 5362 O 510.083 -1.42288 1.23638 0
M  V30 5363 C 507.21 -2.28486 2.50023 0
M  V30 5364 C 506.256 -2.09851 3.71302 0
M  V30 5365 S 507.089 -1.38401 5.17306 0
M  V30 5366 C 508.245 -2.71354 5.64019 0
M  V30 5367 H 508.478 -0.551021 2.92149 0
M  V30 5368 H 506.011 -0.168607 1.53477 0
M  V30 5369 H 507.969 -3.04142 2.75695 0
M  V30 5370 H 506.63 -2.67387 1.64812 0
M  V30 5371 H 505.823 -3.07184 3.99567 0
M  V30 5372 H 505.425 -1.42336 3.45856 0
M  V30 5373 H 507.717 -3.67549 5.69134 0
M  V30 5374 H 508.66 -2.47734 6.6335 0
M  V30 5375 H 509.068 -2.77259 4.91719 0
M  V30 5376 N 508.466 -1.55915 -0.229846 0
M  V30 5377 C 509.376 -1.94891 -1.30593 0
M  V30 5378 C 510.392 -0.851604 -1.51736 0
M  V30 5379 O 511.568 -1.15447 -1.65027 0
M  V30 5380 C 508.633 -2.25052 -2.63728 0
M  V30 5381 C 507.694 -3.48306 -2.5096 0
M  V30 5382 C 506.927 -3.77019 -3.77747 0
M  V30 5383 O 507.15 -3.07534 -4.80395 0
M  V30 5384 O 506.084 -4.70523 -3.75356 0
M  V30 5385 H 509.91 -2.86581 -1.00525 0
M  V30 5386 H 507.495 -1.43017 -0.432025 0
M  V30 5387 H 509.377 -2.45682 -3.42372 0
M  V30 5388 H 508.052 -1.36538 -2.93495 0
M  V30 5389 H 506.959 -3.32964 -1.70546 0
M  V30 5390 H 508.292 -4.37177 -2.26136 0
M  V30 5391 N 509.944 0.496216 -1.49584 0
M  V30 5392 C 511.174 1.27209 -1.62793 0
M  V30 5393 C 511.582 1.86799 -0.300476 0
M  V30 5394 O 510.925 1.68802 0.724674 0
M  V30 5395 C 510.987 2.43812 -2.64189 0
M  V30 5396 C 510.651 2.05055 -4.08414 0
M  V30 5397 C 511.648 1.58752 -4.9507 0
M  V30 5398 C 509.333 2.14543 -4.54177 0
M  V30 5399 C 511.327 1.22448 -6.25528 0
M  V30 5400 C 509.014 1.77851 -5.84647 0
M  V30 5401 C 510.012 1.31878 -6.70147 0
M  V30 5402 O 509.7 0.956834 -7.98185 0
M  V30 5403 H 509.432 0.391848 -0.550846 0
M  V30 5404 H 511.986 0.601712 -1.96389 0
M  V30 5405 H 510.216 3.13941 -2.25783 0
M  V30 5406 H 511.905 3.05829 -2.66877 0
M  V30 5407 H 512.671 1.50863 -4.60939 0
M  V30 5408 H 508.55 2.49277 -3.87791 0
M  V30 5409 H 512.094 0.864933 -6.92217 0
M  V30 5410 H 507.991 1.8539 -6.18305 0
M  V30 5411 H 508.759 1.08789 -8.11238 0
M  V30 5412 N 511.423 1.38739 0.74761 0
M  V30 5413 C 512.353 1.39173 1.87492 0
M  V30 5414 C 513.334 0.256794 1.6815 0
M  V30 5415 O 514.519 0.460762 1.88655 0
M  V30 5416 C 511.649 1.22197 3.25093 0
M  V30 5417 C 510.603 2.32957 3.59047 0
M  V30 5418 C 509.929 2.01082 4.95449 0
M  V30 5419 C 511.229 3.75237 3.6331 0
M  V30 5420 H 512.923 2.3351 1.87386 0
M  V30 5421 H 510.469 1.12399 0.900134 0
M  V30 5422 H 512.422 1.21124 4.03617 0
M  V30 5423 H 511.146 0.243241 3.25693 0
M  V30 5424 H 509.805 2.33226 2.82845 0
M  V30 5425 H 509.453 1.01678 4.92616 0
M  V30 5426 H 509.153 2.75267 5.19136 0
M  V30 5427 H 510.677 2.01638 5.76346 0
M  V30 5428 H 512.091 3.76966 4.31937 0
M  V30 5429 H 510.488 4.48677 3.98509 0
M  V30 5430 H 511.558 4.07122 2.634 0
M  V30 5431 N 512.901 -0.976442 1.23707 0
M  V30 5432 C 513.864 -2.0511 1.02287 0
M  V30 5433 C 514.864 -1.60791 -0.0167195 0
M  V30 5434 O 516.054 -1.72761 0.223408 0
M  V30 5435 C 513.186 -3.36458 0.548507 0
M  V30 5436 H 514.379 -2.25545 1.9766 0
M  V30 5437 H 511.932 -1.15042 1.05806 0
M  V30 5438 H 512.667 -3.21713 -0.408818 0
M  V30 5439 H 512.452 -3.69967 1.29874 0
M  V30 5440 H 513.942 -4.15489 0.419406 0
M  V30 5441 N 514.379 -1.04941 -1.1758 0
M  V30 5442 C 515.627 -0.756492 -1.87408 0
M  V30 5443 C 515.948 0.718478 -1.81281 0
M  V30 5444 O 515.218 1.519 -1.23706 0
M  V30 5445 H 513.798 -0.276841 -0.693807 0
M  V30 5446 H 516.46 -1.32803 -1.42652 0
M  V30 5447 H 515.556 -1.06918 -2.93215 0
M  V30 5448 N 515.857 1.33968 -0.830081 0
M  V30 5449 C 517.105 1.97672 -0.420734 0
M  V30 5450 C 517.426 1.66111 1.02138 0
M  V30 5451 O 516.696 0.955503 1.71017 0
M  V30 5452 H 515.276 0.73125 -0.152587 0
M  V30 5453 H 517.938 1.63483 -1.0611 0
M  V30 5454 H 517.034 3.07294 -0.545588 0
M  V30 5455 N 517.335 0.585699 1.46312 0
M  V30 5456 C 518.56 0.0762461 2.0726 0
M  V30 5457 C 518.985 -1.22071 1.43109 0
M  V30 5458 O 518.343 -1.73804 0.515942 0
M  V30 5459 C 518.391 -0.0729404 3.60526 0
M  V30 5460 O 517.495 -1.1287 3.96654 0
M  V30 5461 H 516.836 0.0641558 0.660893 0
M  V30 5462 H 519.366 0.809492 1.87905 0
M  V30 5463 H 519.376 -0.278158 4.07051 0
M  V30 5464 H 518.051 0.874188 4.06609 0
M  V30 5465 H 516.628 -0.901703 3.61834 0
M  V30 5466 N 518.813 -1.54241 0.323641 0
M  V30 5467 C 519.743 -2.27289 -0.534993 0
M  V30 5468 C 520.724 -1.28087 -1.11927 0
M  V30 5469 O 521.909 -1.56899 -1.14439 0
M  V30 5470 C 519.039 -3.03075 -1.69596 0
M  V30 5471 C 517.993 -4.09614 -1.24098 0
M  V30 5472 C 517.319 -4.73242 -2.4889 0
M  V30 5473 C 518.619 -5.21087 -0.355789 0
M  V30 5474 H 520.313 -2.99308 0.0743257 0
M  V30 5475 H 517.859 -1.43952 0.0371874 0
M  V30 5476 H 519.812 -3.52907 -2.30293 0
M  V30 5477 H 518.536 -2.28673 -2.33187 0
M  V30 5478 H 517.195 -3.60666 -0.656945 0
M  V30 5479 H 516.843 -3.95455 -3.10845 0
M  V30 5480 H 516.543 -5.45209 -2.19138 0
M  V30 5481 H 518.067 -5.25848 -3.10348 0
M  V30 5482 H 519.481 -5.66675 -0.869042 0
M  V30 5483 H 517.878 -5.9991 -0.151045 0
M  V30 5484 H 518.948 -4.81005 0.613339 0
M  V30 5485 N 520.291 -0.0518155 -1.57515 0
M  V30 5486 C 521.519 0.631395 -1.9703 0
M  V30 5487 C 521.934 1.64341 -0.92938 0
M  V30 5488 O 521.291 1.82296 0.0863266 0
M  V30 5489 C 521.342 1.31774 -3.36627 0
M  V30 5490 O 521.063 0.346247 -4.3673 0
M  V30 5491 C 522.564 2.09065 -3.90905 0
M  V30 5492 H 519.784 0.172576 -0.648428 0
M  V30 5493 H 522.328 -0.118306 -2.04158 0
M  V30 5494 H 520.483 2.01867 -3.30649 0
M  V30 5495 H 520.897 0.836226 -5.17791 0
M  V30 5496 H 522.371 2.52508 -4.9086 0
M  V30 5497 H 522.848 2.93908 -3.26366 0
M  V30 5498 H 523.454 1.43882 -4.00223 0
M  V30 5499 N 521.769 1.56035 0.221574 0
M  V30 5500 C 523.046 1.69837 0.970301 0
M  V30 5501 C 523.426 0.599065 2.02421 0
M  V30 5502 O 522.774 -0.393929 2.25079 0
M  V30 5503 C 522.984 3.11148 1.58076 0
M  V30 5504 C 524.332 3.70555 2.07302 0
M  V30 5505 O 525.356 3.14109 1.6797 0
M  V30 5506 O 524.215 4.69562 2.79596 0
M  V30 5507 H 521.309 0.691727 0.453257 0
M  V30 5508 H 523.855 1.68353 0.213358 0
M  V30 5509 H 522.627 3.82617 0.819759 0
M  V30 5510 H 522.25 3.16749 2.40324 0
M  V30 5511 N 523.247 -0.488276 1.49845 0
M  V30 5512 C 524.493 -1.24341 1.6021 0
M  V30 5513 C 524.826 -1.91967 0.293651 0
M  V30 5514 O 524.101 -1.81323 -0.703718 0
M  V30 5515 C 524.384 -2.3005 2.77036 0
M  V30 5516 C 524.237 -1.66842 4.17713 0
M  V30 5517 C 525.556 -3.31509 2.89464 0
M  V30 5518 H 522.675 -0.450704 0.583125 0
M  V30 5519 H 525.317 -0.539673 1.82174 0
M  V30 5520 H 523.467 -2.90071 2.58439 0
M  V30 5521 H 525.139 -1.1055 4.47858 0
M  V30 5522 H 523.382 -0.972079 4.22768 0
M  V30 5523 H 524.053 -2.43576 4.95353 0
M  V30 5524 H 526.529 -2.81493 3.06433 0
M  V30 5525 H 525.405 -4.02822 3.72861 0
M  V30 5526 H 525.666 -3.94603 1.99351 0
M  V30 5527 N 524.725 -1.39134 -0.740242 0
M  V30 5528 C 525.971 -1.36273 -1.50192 0
M  V30 5529 C 526.304 0.0430136 -1.94152 0
M  V30 5530 O 525.579 1.00691 -1.66408 0
M  V30 5531 C 525.862 -2.33041 -2.74525 0
M  V30 5532 C 525.715 -3.82535 -2.36617 0
M  V30 5533 C 527.034 -2.27723 -3.76604 0
M  V30 5534 H 524.153 -0.496323 -0.544823 0
M  V30 5535 H 526.795 -1.70085 -0.846815 0
M  V30 5536 H 524.945 -2.04337 -3.30422 0
M  V30 5537 H 526.617 -4.21967 -1.86391 0
M  V30 5538 H 524.86 -3.99565 -1.68909 0
M  V30 5539 H 525.531 -4.45723 -3.2563 0
M  V30 5540 H 528.007 -2.53091 -3.30279 0
M  V30 5541 H 526.883 -2.97519 -4.61274 0
M  V30 5542 H 527.144 -1.28049 -4.2315 0
M  V30 5543 N 526.204 0.969867 -1.24223 0
M  V30 5544 C 527.432 1.74756 -1.10761 0
M  V30 5545 C 527.847 1.85713 0.340041 0
M  V30 5546 O 527.204 1.34389 1.23474 0
M  V30 5547 C 527.255 3.16915 -1.73917 0
M  V30 5548 O 526.976 3.06511 -3.13021 0
M  V30 5549 C 528.477 4.11032 -1.66036 0
M  V30 5550 H 525.697 0.548092 -0.387087 0
M  V30 5551 H 528.241 1.2178 -1.64286 0
M  V30 5552 H 526.396 3.66884 -1.244 0
M  V30 5553 H 526.81 3.96079 -3.43834 0
M  V30 5554 H 528.284 5.08446 -2.14911 0
M  V30 5555 H 528.761 4.34785 -0.621159 0
M  V30 5556 H 529.367 3.66972 -2.14969 0
M  V30 5557 N 527.682 1.05563 1.17022 0
M  V30 5558 C 528.592 0.670758 2.24807 0
M  V30 5559 C 529.608 -0.309865 1.71219 0
M  V30 5560 O 530.784 -0.161025 2.00755 0
M  V30 5561 C 527.849 0.055337 3.46656 0
M  V30 5562 C 526.91 1.08688 4.15314 0
M  V30 5563 C 526.143 0.500736 5.31346 0
M  V30 5564 O 526.366 -0.688718 5.66227 0
M  V30 5565 O 525.3 1.23683 5.89055 0
M  V30 5566 H 529.126 1.56914 2.60023 0
M  V30 5567 H 526.711 0.827428 1.24395 0
M  V30 5568 H 528.593 -0.286492 4.20425 0
M  V30 5569 H 527.268 -0.816638 3.13229 0
M  V30 5570 H 526.175 1.48077 3.43546 0
M  V30 5571 H 527.508 1.93014 4.52777 0
M  V30 5572 N 529.16 -1.33526 0.837174 0
M  V30 5573 C 530.388 -2.02047 0.445494 0
M  V30 5574 C 530.803 -1.62995 -0.952788 0
M  V30 5575 O 530.16 -0.842447 -1.61892 0
M  V30 5576 C 530.211 -3.57221 0.554577 0
M  V30 5577 O 529.932 -3.94863 1.89776 0
M  V30 5578 C 531.433 -4.43012 0.159634 0
M  V30 5579 H 528.653 -0.647221 0.177048 0
M  V30 5580 H 531.197 -1.70492 1.12928 0
M  V30 5581 H 529.352 -3.87315 -0.0812781 0
M  V30 5582 H 529.766 -4.89569 1.88208 0
M  V30 5583 H 531.24 -5.51253 0.28701 0
M  V30 5584 H 531.717 -4.29916 -0.898289 0
M  V30 5585 H 532.323 -4.18274 0.769855 0
M  V30 5586 N 530.638 -0.59345 -1.46 0
M  V30 5587 C 531.878 -0.0859747 -2.04219 0
M  V30 5588 C 532.242 1.25432 -1.45364 0
M  V30 5589 O 533.443 1.85168 -1.9485 0
M  V30 5590 C 531.714 -0.0324314 -3.57385 0
M  V30 5591 S 533.273 0.415908 -4.36824 0
M  V30 5592 H 530.091 -0.0426872 -0.709717 0
M  V30 5593 H 532.693 -0.788369 -1.78899 0
M  V30 5594 H 531.397 -1.01166 -3.97735 0
M  V30 5595 H 530.928 0.6924 -3.87259 0
M  V30 5596 H 532.943 1.66844 -4.67309 0
M  V30 5597 N 532.116 1.54067 -0.331816 0
M  V30 5598 C 533.049 2.20886 0.573127 0
M  V30 5599 C 534.027 1.18876 1.10938 0
M  V30 5600 O 535.211 1.47649 1.17184 0
M  V30 5601 C 532.338 2.87706 1.78726 0
M  V30 5602 C 531.384 4.03505 1.38152 0
M  V30 5603 S 532.217 5.33919 0.41123 0
M  V30 5604 C 533.373 6.04236 1.63246 0
M  V30 5605 H 533.606 2.97299 0.00555737 0
M  V30 5606 H 531.139 1.53964 -0.115893 0
M  V30 5607 H 533.097 3.26825 2.48386 0
M  V30 5608 H 531.758 2.1108 2.32603 0
M  V30 5609 H 530.951 4.49152 2.28645 0
M  V30 5610 H 530.553 3.66102 0.764524 0
M  V30 5611 H 532.845 6.26917 2.56869 0
M  V30 5612 H 533.788 6.97546 1.218 0
M  V30 5613 H 534.196 5.34247 1.82318 0
M  V30 5614 N 533.594 0.0601682 1.57485 0
M  V30 5615 C 534.871 -0.651956 1.84415 0
M  V30 5616 C 535.251 -1.88498 0.950361 0
M  V30 5617 O 534.599 -2.28496 0.0136719 0
M  V30 5618 C 534.809 -1.00069 3.34346 0
M  V30 5619 C 536.157 -1.37915 4.01578 0
M  V30 5620 O 537.181 -1.09277 3.39024 0
M  V30 5621 O 536.04 -1.91399 5.11887 0
M  V30 5622 H 533.134 -0.322668 0.761455 0
M  V30 5623 H 535.68 0.0902159 1.6946 0
M  V30 5624 H 534.452 -0.124463 3.91102 0
M  V30 5625 H 534.075 -1.80001 3.54521 0
M  V30 5626 N 535.072 -1.5615 -0.213296 0
M  V30 5627 C 535.982 -1.96265 -1.28519 0
M  V30 5628 C 536.998 -0.86765 -1.50824 0
M  V30 5629 O 538.174 -1.17191 -1.63793 0
M  V30 5630 C 535.239 -2.27836 -2.61327 0
M  V30 5631 C 534.3 -3.50949 -2.47252 0
M  V30 5632 C 533.533 -3.81004 -3.73727 0
M  V30 5633 O 533.756 -3.12612 -4.77106 0
M  V30 5634 O 532.69 -4.74477 -3.70344 0
M  V30 5635 H 536.516 -2.87631 -0.974795 0
M  V30 5636 H 534.101 -1.43467 -0.416832 0
M  V30 5637 H 535.983 -2.49299 -3.39747 0
M  V30 5638 H 534.658 -1.39643 -2.9203 0
M  V30 5639 H 533.565 -3.34754 -1.67004 0
M  V30 5640 H 534.898 -4.39551 -2.21486 0
M  V30 5641 N 536.55 0.480323 -1.50102 0
M  V30 5642 C 537.798 1.23063 -1.60312 0
M  V30 5643 C 538.119 1.92659 -0.301226 0
M  V30 5644 O 537.389 1.83691 0.680753 0
M  V30 5645 H 535.969 0.457231 -0.590719 0
M  V30 5646 H 538.631 0.554893 -1.86834 0
M  V30 5647 H 537.727 1.9835 -2.40964 0
M  V30 5648 N 538.028 1.39524 0.732853 0
M  V30 5649 C 538.96 1.34318 1.85718 0
M  V30 5650 C 539.973 0.251576 1.60844 0
M  V30 5651 O 541.162 0.510685 1.71039 0
M  V30 5652 C 538.262 1.06334 3.21786 0
M  V30 5653 C 537.435 2.26813 3.73998 0
M  V30 5654 C 536.494 1.95253 4.88634 0
M  V30 5655 O 535.52 2.67957 5.02183 0
M  V30 5656 N 536.722 0.919984 5.73164 0
M  V30 5657 H 539.487 2.3121 1.90688 0
M  V30 5658 H 537.048 1.33654 0.91368 0
M  V30 5659 H 539.04 0.832363 3.96048 0
M  V30 5660 H 537.61 0.181682 3.12072 0
M  V30 5661 H 536.83 2.65849 2.91064 0
M  V30 5662 H 538.118 3.0717 4.05616 0
M  V30 5663 H 537.516 0.317487 5.64808 0
M  V30 5664 H 536.073 0.748905 6.47483 0
M  V30 5665 N 539.506 -0.963266 1.24736 0
M  V30 5666 C 540.755 -1.70115 1.08369 0
M  V30 5667 C 541.068 -1.91939 -0.376688 0
M  V30 5668 O 542.274 -2.6334 -0.660624 0
M  V30 5669 C 540.73 -3.06218 1.89099 0
M  V30 5670 C 540.338 -2.92221 3.39574 0
M  V30 5671 C 542.082 -3.83848 1.81275 0
M  V30 5672 C 539.989 -4.23662 4.12631 0
M  V30 5673 H 538.919 -0.637944 0.401924 0
M  V30 5674 H 541.57 -1.07304 1.48856 0
M  V30 5675 H 539.952 -3.69884 1.41429 0
M  V30 5676 H 541.126 -2.37541 3.94856 0
M  V30 5677 H 539.441 -2.28054 3.48397 0
M  V30 5678 H 542.038 -4.81188 2.33158 0
M  V30 5679 H 542.381 -4.08949 0.778895 0
M  V30 5680 H 542.914 -3.26918 2.26649 0
M  V30 5681 H 539.653 -4.03753 5.16395 0
M  V30 5682 H 539.173 -4.78141 3.62135 0
M  V30 5683 H 540.852 -4.92256 4.19873 0
M  V30 5684 N 540.985 -1.06182 -1.16461 0
M  V30 5685 C 541.948 -0.675723 -2.19013 0
M  V30 5686 C 542.948 0.277963 -1.58379 0
M  V30 5687 O 544.138 0.0604962 -1.74095 0
M  V30 5688 C 541.27 0.00591459 -3.40899 0
M  V30 5689 H 542.463 -1.58353 -2.54685 0
M  V30 5690 H 540.016 -0.856908 -1.30716 0
M  V30 5691 H 540.751 0.92652 -3.10783 0
M  V30 5692 H 540.536 -0.67984 -3.86161 0
M  V30 5693 H 542.026 0.26181 -4.16778 0
M  V30 5694 N 542.463 1.3308 -0.844243 0
M  V30 5695 C 543.426 2.27403 -0.286485 0
M  V30 5696 C 544.426 1.51179 0.547872 0
M  V30 5697 O 545.616 1.70421 0.360886 0
M  V30 5698 C 542.748 3.35653 0.595813 0
M  V30 5699 H 543.941 2.78248 -1.11885 0
M  V30 5700 H 541.494 1.43574 -0.617749 0
M  V30 5701 H 542.229 2.90058 1.4504 0
M  V30 5702 H 542.014 3.921 -0.00125994 0
M  V30 5703 H 543.504 4.05958 0.979168 0
M  V30 5704 N 543.941 0.601185 1.45683 0
M  V30 5705 C 545.187 0.0940202 2.02582 0
M  V30 5706 C 545.52 -1.26972 1.46941 0
M  V30 5707 O 544.795 -1.83613 0.641612 0
M  V30 5708 C 545.078 0.0481715 3.60068 0
M  V30 5709 C 544.931 1.44212 4.26055 0
M  V30 5710 C 546.25 -0.642975 4.35378 0
M  V30 5711 H 543.369 0.0356404 0.736138 0
M  V30 5712 H 546.011 0.771929 1.73612 0
M  V30 5713 H 544.161 -0.529128 3.8488 0
M  V30 5714 H 545.833 2.06601 4.12449 0
M  V30 5715 H 544.076 2.00465 3.84703 0
M  V30 5716 H 544.747 1.36234 5.34925 0
M  V30 5717 H 547.223 -0.152351 4.15821 0
M  V30 5718 H 546.099 -0.644141 5.45107 0
M  V30 5719 H 546.36 -1.70785 4.0778 0
M  V30 5720 N 545.419 -1.53889 0.339982 0
M  V30 5721 C 546.659 -2.02765 -0.258011 0
M  V30 5722 C 547.023 -1.22249 -1.48051 0
M  V30 5723 O 548.224 -1.61007 -2.15245 0
M  V30 5724 C 546.495 -3.5286 -0.567872 0
M  V30 5725 S 548.054 -4.23647 -1.14318 0
M  V30 5726 H 544.872 -0.706814 -0.0770389 0
M  V30 5727 H 547.474 -1.89594 0.476917 0
M  V30 5728 H 546.178 -4.09073 0.329745 0
M  V30 5729 H 545.709 -3.70144 -1.33256 0
M  V30 5730 H 547.724 -4.32676 -2.42911 0
M  V30 5731 N 546.897 -0.0685191 -1.57451 0
M  V30 5732 C 548.313 0.288101 -1.56978 0
M  V30 5733 C 548.513 1.70262 -1.07765 0
M  V30 5734 O 547.569 2.4135 -0.742054 0
M  V30 5735 C 548.882 0.100745 -3.00531 0
M  V30 5736 C 550.43 0.170531 -3.12535 0
M  V30 5737 C 550.905 0.0114944 -4.57999 0
M  V30 5738 N 552.396 0.0672065 -4.63151 0
M  V30 5739 C 553.131 -0.0314813 -5.73391 0
M  V30 5740 N 552.627 -0.183503 -6.92557 0
M  V30 5741 N 554.42 0.0253489 -5.62094 0
M  V30 5742 H 546.571 -0.993026 -1.87757 0
M  V30 5743 H 548.834 -0.386981 -0.865419 0
M  V30 5744 H 548.54 -0.875197 -3.40636 0
M  V30 5745 H 548.414 0.854457 -3.67395 0
M  V30 5746 H 550.801 1.13696 -2.72318 0
M  V30 5747 H 550.882 -0.614229 -2.48316 0
M  V30 5748 H 550.526 -0.951684 -4.98904 0
M  V30 5749 H 550.456 0.815617 -5.20245 0
M  V30 5750 H 552.947 0.183246 -3.77455 0
M  V30 5751 H 553.26 -0.251041 -7.72392 0
M  V30 5752 H 551.605 -0.218822 -6.94655 0
M  V30 5753 H 554.796 0.142794 -4.67882 0
M  V30 5754 H 554.969 -0.0550166 -6.47977 0
M  V30 5755 N 548.375 1.56261 0.205012 0
M  V30 5756 C 549.285 1.96944 1.27476 0
M  V30 5757 C 550.301 0.875636 1.50362 0
M  V30 5758 O 551.477 1.18058 1.6317 0
M  V30 5759 C 548.542 2.29219 2.60115 0
M  V30 5760 C 547.603 3.52255 2.45387 0
M  V30 5761 C 546.836 3.8298 3.71701 0
M  V30 5762 O 547.059 3.15138 4.75441 0
M  V30 5763 O 545.993 4.76435 3.67823 0
M  V30 5764 H 549.819 2.88144 0.959527 0
M  V30 5765 H 547.404 1.43686 0.409217 0
M  V30 5766 H 549.286 2.51098 3.3842 0
M  V30 5767 H 547.961 1.4119 2.91285 0
M  V30 5768 H 546.868 3.35635 1.65227 0
M  V30 5769 H 548.201 4.40719 2.19152 0
M  V30 5770 N 549.853 -0.472356 1.50355 0
M  V30 5771 C 551.093 -1.23439 1.62918 0
M  V30 5772 C 551.457 -1.89284 0.321801 0
M  V30 5773 O 552.658 -2.66854 0.322852 0
M  V30 5774 C 550.929 -2.25119 2.7759 0
M  V30 5775 S 552.488 -3.10278 3.10279 0
M  V30 5776 H 549.306 -0.41911 0.574341 0
M  V30 5777 H 551.908 -0.531621 1.88133 0
M  V30 5778 H 550.612 -1.75324 3.71066 0
M  V30 5779 H 550.143 -3.00026 2.54457 0
M  V30 5780 H 552.158 -4.26257 2.54007 0
M  V30 5781 N 551.331 -1.39911 -0.725443 0
M  V30 5782 C 552.261 -1.42138 -1.85254 0
M  V30 5783 C 553.242 -0.283513 -1.67721 0
M  V30 5784 O 554.427 -0.490717 -1.87898 0
M  V30 5785 C 551.557 -1.27354 -3.23107 0
M  V30 5786 C 550.511 -2.3864 -3.55296 0
M  V30 5787 C 549.837 -2.08939 -4.92188 0
M  V30 5788 C 551.137 -3.8097 -3.57295 0
M  V30 5789 H 552.831 -2.36461 -1.83648 0
M  V30 5790 H 550.377 -1.13817 -0.882138 0
M  V30 5791 H 552.33 -1.2753 -4.01639 0
M  V30 5792 H 551.054 -0.295025 -3.25265 0
M  V30 5793 H 549.713 -2.37696 -2.79099 0
M  V30 5794 H 549.361 -1.09502 -4.90936 0
M  V30 5795 H 549.061 -2.83491 -5.14691 0
M  V30 5796 H 550.585 -2.10781 -5.73065 0
M  V30 5797 H 551.999 -3.8379 -4.25885 0
M  V30 5798 H 550.396 -4.5496 -3.9132 0
M  V30 5799 H 551.466 -4.11261 -2.5689 0
M  V30 5800 N 552.809 0.956637 -1.25245 0
M  V30 5801 C 553.741 2.05628 -1.01242 0
M  V30 5802 C 554.754 1.62785 0.0219579 0
M  V30 5803 O 555.943 1.77184 -0.216365 0
M  V30 5804 C 553.043 3.35069 -0.508161 0
M  V30 5805 C 552.216 4.06761 -1.60823 0
M  V30 5806 C 551.275 5.14473 -1.1047 0
M  V30 5807 O 550.301 5.40033 -1.79868 0
M  V30 5808 N 551.503 5.80474 0.0550773 0
M  V30 5809 H 554.268 2.2679 -1.95925 0
M  V30 5810 H 551.829 1.12505 -1.16423 0
M  V30 5811 H 553.821 4.044 -0.155819 0
M  V30 5812 H 552.391 3.10694 0.344683 0
M  V30 5813 H 551.611 3.31555 -2.13224 0
M  V30 5814 H 552.899 4.51418 -2.34733 0
M  V30 5815 H 552.297 5.62125 0.635004 0
M  V30 5816 H 550.854 6.50868 0.348469 0
M  V30 5817 N 554.287 1.06798 1.15896 0
M  V30 5818 C 555.25 0.687328 2.18651 0
M  V30 5819 C 556.25 -0.269559 1.58524 0
M  V30 5820 O 557.44 -0.0512627 1.74125 0
M  V30 5821 C 554.572 0.0121642 3.40898 0
M  V30 5822 H 555.765 1.59701 2.53842 0
M  V30 5823 H 553.318 0.863828 1.3026 0
M  V30 5824 H 554.053 -0.910025 3.1127 0
M  V30 5825 H 553.838 0.700309 3.85795 0
M  V30 5826 H 555.328 -0.239703 4.16911 0
M  V30 5827 N 555.766 -1.3263 0.851289 0
M  V30 5828 C 556.696 -2.31449 0.308771 0
M  V30 5829 C 557.677 -1.59531 -0.590255 0
M  V30 5830 O 558.862 -1.87351 -0.511205 0
M  V30 5831 C 555.992 -3.43586 -0.506548 0
M  V30 5832 C 554.946 -4.26963 0.297753 0
M  V30 5833 C 554.272 -5.30831 -0.642094 0
M  V30 5834 C 555.572 -4.99643 1.52166 0
M  V30 5835 H 557.266 -2.77074 1.13447 0
M  V30 5836 H 554.812 -1.33207 0.546971 0
M  V30 5837 H 556.765 -4.11754 -0.896474 0
M  V30 5838 H 555.489 -2.96681 -1.36558 0
M  V30 5839 H 554.148 -3.60437 0.669391 0
M  V30 5840 H 553.796 -4.8018 -1.49788 0
M  V30 5841 H 553.496 -5.87501 -0.107968 0
M  V30 5842 H 555.02 -6.01862 -1.02927 0
M  V30 5843 H 556.434 -5.6051 1.20421 0
M  V30 5844 H 554.831 -5.66022 1.99347 0
M  V30 5845 H 555.901 -4.27701 2.28474 0
M  V30 5846 N 557.244 -0.608902 -1.45362 0
M  V30 5847 C 558.154 0.110969 -2.34337 0
M  V30 5848 C 559.17 0.859007 -1.51318 0
M  V30 5849 O 560.346 0.816296 -1.84116 0
M  V30 5850 C 557.411 1.09494 -3.28956 0
M  V30 5851 C 556.472 0.348718 -4.27881 0
M  V30 5852 C 555.705 1.28582 -5.17979 0
M  V30 5853 O 555.928 2.52369 -5.11533 0
M  V30 5854 O 554.862 0.782172 -5.96796 0
M  V30 5855 H 558.688 -0.620258 -2.97299 0
M  V30 5856 H 556.273 -0.36916 -1.44767 0
M  V30 5857 H 558.155 1.66163 -3.87257 0
M  V30 5858 H 556.83 1.80717 -2.68557 0
M  V30 5859 H 555.737 -0.260465 -3.73192 0
M  V30 5860 H 557.07 -0.323049 -4.91139 0
M  V30 5861 N 558.722 1.53707 -0.348139 0
M  V30 5862 C 559.969 2.00988 0.246966 0
M  V30 5863 C 560.297 1.23586 1.50189 0
M  V30 5864 O 559.552 0.312817 1.93184 0
M  V30 5865 C 559.851 3.52292 0.602061 0
M  V30 5866 C 559.517 4.47453 -0.556509 0
M  V30 5867 C 558.179 4.73188 -0.874446 0
M  V30 5868 C 560.531 5.03851 -1.33354 0
M  V30 5869 C 557.859 5.52577 -1.9717 0
M  V30 5870 C 560.211 5.84437 -2.42108 0
M  V30 5871 C 558.875 6.08465 -2.74456 0
M  V30 5872 H 558.145 0.735469 0.0903712 0
M  V30 5873 H 560.792 1.85464 -0.477001 0
M  V30 5874 H 559.097 3.65672 1.40681 0
M  V30 5875 H 560.794 3.86337 1.07447 0
M  V30 5876 H 557.384 4.27558 -0.298652 0
M  V30 5877 H 561.568 4.8393 -1.10117 0
M  V30 5878 H 556.824 5.69418 -2.22651 0
M  V30 5879 H 560.998 6.27151 -3.02745 0
M  V30 5880 H 558.625 6.69768 -3.59604 0
M  V30 5881 N 560.2 0.0768682 1.57412 0
M  V30 5882 C 561.13 -0.886026 2.16037 0
M  V30 5883 C 562.111 -1.30691 1.08876 0
M  V30 5884 O 563.296 -1.37705 1.36934 0
M  V30 5885 C 560.426 -2.1518 2.72608 0
M  V30 5886 C 559.38 -1.87015 3.8498 0
M  V30 5887 C 558.706 -3.20266 4.28175 0
M  V30 5888 C 560.006 -1.17143 5.08994 0
M  V30 5889 H 561.7 -0.397642 2.96748 0
M  V30 5890 H 559.246 -0.189823 1.42743 0
M  V30 5891 H 561.199 -2.82962 3.12266 0
M  V30 5892 H 559.923 -2.66269 1.89125 0
M  V30 5893 H 558.582 -1.21636 3.45833 0
M  V30 5894 H 558.23 -3.69207 3.41607 0
M  V30 5895 H 557.93 -3.0221 5.03927 0
M  V30 5896 H 559.454 -3.89237 4.70454 0
M  V30 5897 H 560.868 -1.75003 5.45937 0
M  V30 5898 H 559.265 -1.09328 5.90057 0
M  V30 5899 H 560.335 -0.151295 4.84664 0
M  V30 5900 N 561.678 -1.56367 -0.196722 0
M  V30 5901 C 562.628 -1.9082 -1.24787 0
M  V30 5902 C 563.612 -0.773719 -1.41076 0
M  V30 5903 O 564.804 -1.03655 -1.43474 0
M  V30 5904 C 561.933 -2.24982 -2.59303 0
M  V30 5905 C 561.019 -3.44882 -2.46814 0
M  V30 5906 N 561.41 -4.62835 -2.04003 0
M  V30 5907 C 559.708 -3.48988 -2.77711 0
M  V30 5908 C 560.409 -5.44993 -2.03366 0
M  V30 5909 N 559.385 -4.85356 -2.44807 0
M  V30 5910 H 563.187 -2.79516 -0.908175 0
M  V30 5911 H 560.701 -1.57265 -0.405166 0
M  V30 5912 H 562.698 -2.47848 -3.35227 0
M  V30 5913 H 561.358 -1.37611 -2.94098 0
M  V30 5914 H 562.369 -4.87532 -1.74738 0
M  V30 5915 H 559.046 -2.72029 -3.16712 0
M  V30 5916 H 560.436 -6.49464 -1.72181 0
M  V30 5917 N 563.156 0.464375 -1.50603 0
M  V30 5918 C 564.381 1.24372 -1.65971 0
M  V30 5919 C 564.806 1.84901 -0.345453 0
M  V30 5920 O 564.164 1.67596 0.691457 0
M  V30 5921 C 564.212 2.32331 -2.7578 0
M  V30 5922 O 563.316 3.37146 -2.375 0
M  V30 5923 H 562.657 0.365604 -0.554283 0
M  V30 5924 H 565.187 0.55183 -1.97018 0
M  V30 5925 H 565.197 2.77539 -2.99059 0
M  V30 5926 H 563.872 1.87648 -3.71162 0
M  V30 5927 H 562.449 2.97602 -2.24694 0
M  V30 5928 N 564.634 1.40294 0.718013 0
M  V30 5929 C 565.582 1.40536 1.85344 0
M  V30 5930 C 566.576 0.286192 1.66965 0
M  V30 5931 O 567.782 0.457105 1.74099 0
M  V30 5932 H 564.157 0.439236 0.61039 0
M  V30 5933 H 566.128 2.36275 1.82255 0
M  V30 5934 C 564.877 1.28245 3.23185 0
M  V30 5935 H 564.2 2.1364 3.37932 0
M  V30 5936 H 565.64 1.32474 4.02774 0
M  V30 5937 C 564.099 -0.0075503 3.36899 0
M  V30 5938 O 564.629 -0.971391 3.89778 0
M  V30 5939 N 562.835 -0.0762479 2.905 0
M  V30 5940 H 562.382 0.708819 2.47656 0
M  V30 5941 H 562.34 -0.938846 3.00055 0
M  V30 5942 N 566.112 -0.949982 1.2575 0
M  V30 5943 C 567.044 -2.05088 1.02331 0
M  V30 5944 C 568.057 -1.62795 -0.0133247 0
M  V30 5945 O 569.246 -1.77067 0.225759 0
M  V30 5946 C 566.346 -3.34794 0.525924 0
M  V30 5947 C 565.519 -4.05903 1.62978 0
M  V30 5948 C 564.578 -5.1388 1.13196 0
M  V30 5949 O 563.604 -5.39072 1.82729 0
M  V30 5950 N 564.806 -5.80495 -0.0242926 0
M  V30 5951 H 567.571 -2.25747 1.97125 0
M  V30 5952 H 565.132 -1.11886 1.17018 0
M  V30 5953 H 567.124 -4.04312 0.177263 0
M  V30 5954 H 565.694 -3.10872 -0.328202 0
M  V30 5955 H 564.914 -3.3042 2.1498 0
M  V30 5956 H 566.202 -4.50166 2.37124 0
M  V30 5957 H 565.6 -5.62454 -0.605184 0
M  V30 5958 H 564.157 -6.51043 -0.313947 0
M  V30 5959 N 567.59 -1.07411 -1.15328 0
M  V30 5960 C 568.836 -0.798831 -1.86404 0
M  V30 5961 C 569.169 0.673433 -1.8215 0
M  V30 5962 O 568.444 1.49428 -1.24505 0
M  V30 5963 C 568.727 -1.30846 -3.35487 0
M  V30 5964 C 568.58 -2.84532 -3.4837 0
M  V30 5965 C 569.899 -0.925486 -4.30259 0
M  V30 5966 H 567.018 -0.291659 -0.676834 0
M  V30 5967 H 569.66 -1.332 -1.35491 0
M  V30 5968 H 567.81 -0.854916 -3.78977 0
M  V30 5969 H 569.482 -3.3818 -3.13739 0
M  V30 5970 H 567.725 -3.22699 -2.8991 0
M  V30 5971 H 568.396 -3.15259 -4.53118 0
M  V30 5972 H 570.872 -1.3163 -3.94731 0
M  V30 5973 H 569.748 -1.3094 -5.33053 0
M  V30 5974 H 570.009 0.168525 -4.41779 0
M  V30 5975 N 569.068 1.32177 -0.85831 0
M  V30 5976 C 570.317 1.96392 -0.459689 0
M  V30 5977 C 570.63 1.68659 0.990632 0
M  V30 5978 O 571.836 2.26641 1.49485 0
M  V30 5979 C 570.292 3.51542 -0.7711 0
M  V30 5980 C 569.9 3.8813 -2.2374 0
M  V30 5981 C 571.644 4.2221 -0.44038 0
M  V30 5982 C 569.551 5.36341 -2.49183 0
M  V30 5983 H 568.481 0.735007 -0.168169 0
M  V30 5984 H 571.132 1.50518 -1.0496 0
M  V30 5985 H 569.514 3.95846 -0.11058 0
M  V30 5986 H 570.688 3.54824 -2.94001 0
M  V30 5987 H 569.003 3.30497 -2.533 0
M  V30 5988 H 571.6 5.31234 -0.607855 0
M  V30 5989 H 571.943 4.11683 0.618291 0
M  V30 5990 H 572.476 3.83502 -1.05695 0
M  V30 5991 H 569.215 5.51892 -3.53689 0
M  V30 5992 H 568.735 5.7104 -1.83504 0
M  V30 5993 H 570.414 6.03466 -2.33318 0
M  V30 5994 N 570.547 0.616602 1.45037 0
M  V30 5995 C 571.497 -0.118543 2.27692 0
M  V30 5996 C 572.481 -0.830025 1.37838 0
M  V30 5997 O 573.673 -0.718528 1.6176 0
M  V30 5998 C 570.802 -1.10924 3.24886 0
M  V30 5999 C 569.888 -0.398134 4.22227 0
M  V30 6000 N 570.279 0.565233 5.02632 0
M  V30 6001 C 568.577 -0.644506 4.41319 0
M  V30 6002 C 569.278 0.984043 5.73316 0
M  V30 6003 N 568.254 0.325879 5.42622 0
M  V30 6004 H 572.056 0.621239 2.87259 0
M  V30 6005 H 569.57 0.440968 1.56299 0
M  V30 6006 H 571.567 -1.65038 3.82842 0
M  V30 6007 H 570.227 -1.84948 2.66879 0
M  V30 6008 H 571.238 0.942395 5.09254 0
M  V30 6009 H 567.915 -1.36873 3.94426 0
M  V30 6010 H 569.305 1.77911 6.47918 0
M  V30 6011 N 572.025 -1.5352 0.356285 0
M  V30 6012 C 573.441 -1.59599 0.00485267 0
M  V30 6013 C 573.641 -1.37179 -1.47595 0
M  V30 6014 O 572.697 -1.17234 -2.23635 0
M  V30 6015 C 574.01 -2.97277 0.452454 0
M  V30 6016 C 575.558 -3.10357 0.405881 0
M  V30 6017 C 576.033 -4.50432 0.829148 0
M  V30 6018 N 577.524 -4.5652 0.783838 0
M  V30 6019 C 578.259 -5.63077 1.08315 0
M  V30 6020 N 577.755 -6.77429 1.45126 0
M  V30 6021 N 579.548 -5.53014 1.00655 0
M  V30 6022 H 571.699 -1.66346 1.32071 0
M  V30 6023 H 573.962 -0.77971 0.539218 0
M  V30 6024 H 573.668 -3.18792 1.48542 0
M  V30 6025 H 573.542 -3.76836 -0.165762 0
M  V30 6026 H 575.929 -2.88558 -0.617934 0
M  V30 6027 H 576.01 -2.32828 1.05947 0
M  V30 6028 H 575.654 -4.72968 1.85103 0
M  V30 6029 H 575.584 -5.26378 0.152906 0
M  V30 6030 H 578.075 -3.74408 0.512513 0
M  V30 6031 H 578.388 -7.54669 1.66415 0
M  V30 6032 H 576.733 -6.78844 1.48983 0
M  V30 6033 H 579.924 -4.62557 0.718215 0
M  V30 6034 H 580.097 -6.35964 1.24315 0
M  V30 6035 N 573.503 -0.0852151 -1.57369 0
M  V30 6036 C 574.78 0.622534 -1.85429 0
M  V30 6037 C 575.16 1.86962 -0.980229 0
M  V30 6038 O 574.508 2.28445 -0.0500219 0
M  V30 6039 C 574.718 0.947374 -3.35896 0
M  V30 6040 C 576.066 1.31509 -4.03721 0
M  V30 6041 O 577.09 1.03869 -3.40719 0
M  V30 6042 O 575.949 1.83231 -5.14868 0
M  V30 6043 H 573.043 0.310513 -0.766492 0
M  V30 6044 H 575.589 -0.117164 -1.69295 0
M  V30 6045 H 574.361 0.0622264 -3.91251 0
M  V30 6046 H 573.984 1.74338 -3.5734 0
M  V30 6047 N 574.981 1.5647 0.188427 0
M  V30 6048 C 576.23 1.80207 0.905995 0
M  V30 6049 C 576.543 0.659579 1.84144 0
M  V30 6050 O 577.749 0.781431 2.60011 0
M  V30 6051 C 576.205 3.19255 1.66145 0
M  V30 6052 C 575.813 4.41324 0.770504 0
M  V30 6053 C 577.557 3.52298 2.36826 0
M  V30 6054 C 575.464 5.71394 1.52521 0
M  V30 6055 H 574.394 0.671953 0.342045 0
M  V30 6056 H 577.045 1.82808 0.159164 0
M  V30 6057 H 575.427 3.10922 2.45242 0
M  V30 6058 H 576.601 4.60797 0.0177261 0
M  V30 6059 H 574.916 4.16035 0.174199 0
M  V30 6060 H 577.513 4.46715 2.93854 0
M  V30 6061 H 577.856 2.76359 3.11338 0
M  V30 6062 H 578.389 3.62108 1.6469 0
M  V30 6063 H 575.128 6.50316 0.82275 0
M  V30 6064 H 574.648 5.55928 2.25175 0
M  V30 6065 H 576.327 6.12747 2.07725 0
M  V30 6066 N 576.459 -0.456382 1.50847 0
M  V30 6067 C 577.406 -1.55249 1.70782 0
M  V30 6068 C 578.376 -1.56757 0.549231 0
M  V30 6069 O 579.561 -1.74061 0.7815 0
M  V30 6070 C 576.701 -2.93118 1.82143 0
M  V30 6071 C 575.814 -3.01285 3.09598 0
M  V30 6072 C 574.949 -4.30159 3.11667 0
M  V30 6073 C 573.988 -4.32124 4.33515 0
M  V30 6074 N 573.125 -5.52492 4.3324 0
M  V30 6075 H 577.965 -1.37555 2.64353 0
M  V30 6076 H 575.502 -0.668543 1.3103 0
M  V30 6077 H 577.46 -3.73088 1.86711 0
M  V30 6078 H 576.09 -3.09413 0.919978 0
M  V30 6079 H 575.142 -2.14096 3.14431 0
M  V30 6080 H 576.454 -2.98597 3.99551 0
M  V30 6081 H 575.608 -5.18489 3.15046 0
M  V30 6082 H 574.347 -4.35477 2.1957 0
M  V30 6083 H 573.352 -3.42189 4.30333 0
M  V30 6084 H 574.577 -4.28485 5.26856 0
M  V30 6085 H 572.523 -5.58567 3.44004 0
M  V30 6086 H 572.44 -5.51605 5.16979 0
M  V30 6087 H 573.708 -6.42906 4.40786 0
M  V30 6088 N 577.937 -1.40673 -0.710563 0
M  V30 6089 C 579.162 -1.42741 -1.50465 0
M  V30 6090 C 579.587 -0.0302116 -1.88076 0
M  V30 6091 O 578.945 0.962945 -1.53613 0
M  V30 6092 C 578.993 -2.32873 -2.75322 0
M  V30 6093 O 578.097 -1.77544 -3.72226 0
M  V30 6094 H 577.438 -0.485056 -0.45345 0
M  V30 6095 H 579.968 -1.84961 -0.874681 0
M  V30 6096 H 579.978 -2.48233 -3.23797 0
M  V30 6097 H 578.653 -3.34401 -2.47283 0
M  V30 6098 H 577.23 -1.71556 -3.31093 0
M  V30 6099 N 579.415 0.9433 -1.26252 0
M  V30 6100 C 580.692 1.66639 -1.02424 0
M  V30 6101 C 581.072 2.06335 0.446006 0
M  V30 6102 O 580.42 1.78551 1.42589 0
M  V30 6103 C 580.63 2.88019 -1.97094 0
M  V30 6104 C 581.978 3.59718 -2.25584 0
M  V30 6105 O 583.002 2.9812 -1.94943 0
M  V30 6106 O 581.861 4.7066 -2.77743 0
M  V30 6107 H 578.955 0.729643 -0.389294 0
M  V30 6108 H 581.501 0.995218 -1.37454 0
M  V30 6109 H 580.273 2.5556 -2.96319 0
M  V30 6110 H 579.896 3.62863 -1.62532 0
M  V30 6111 N 580.893 1.08022 1.14757 0
M  V30 6112 C 581.841 0.701088 2.21783 0
M  V30 6113 C 582.835 -0.291311 1.66876 0
M  V30 6114 O 584.041 -0.154296 1.79337 0
M  V30 6115 H 580.416 0.208668 0.722469 0
M  V30 6116 H 582.387 1.61321 2.51034 0
M  V30 6117 C 581.136 0.122278 3.47485 0
M  V30 6118 H 580.459 0.877065 3.90061 0
M  V30 6119 H 581.899 -0.105248 4.23869 0
M  V30 6120 C 580.358 -1.13883 3.17068 0
M  V30 6121 O 580.888 -2.22429 3.34497 0
M  V30 6122 N 579.094 -1.04767 2.71058 0
M  V30 6123 H 578.641 -0.164302 2.57075 0
M  V30 6124 H 578.599 -1.89224 2.51081 0
M  V30 6125 N 582.371 -1.3172 0.865308 0
M  V30 6126 C 583.62 -1.96145 0.470098 0
M  V30 6127 C 583.933 -1.69182 -0.981674 0
M  V30 6128 O 585.139 -2.27431 -1.48281 0
M  V30 6129 C 583.595 -3.51129 0.789732 0
M  V30 6130 C 583.203 -3.86938 2.25795 0
M  V30 6131 C 584.947 -4.2197 0.462765 0
M  V30 6132 C 582.854 -5.35012 2.52024 0
M  V30 6133 H 581.784 -0.734105 0.172065 0
M  V30 6134 H 584.435 -1.49959 1.05757 0
M  V30 6135 H 582.817 -3.95781 0.131571 0
M  V30 6136 H 583.991 -3.5326 2.95879 0
M  V30 6137 H 582.306 -3.29149 2.55049 0
M  V30 6138 H 584.903 -5.30904 0.636019 0
M  V30 6139 H 585.246 -4.12005 -0.59645 0
M  V30 6140 H 585.779 -3.82936 1.07727 0
M  V30 6141 H 582.518 -5.50008 3.56611 0
M  V30 6142 H 582.038 -5.70058 1.8653 0
M  V30 6143 H 583.717 -6.0222 2.36515 0
M  V30 6144 N 583.85 -0.624285 -1.44708 0
M  V30 6145 C 584.779 0.0717025 -2.3339 0
M  V30 6146 C 585.76 0.841814 -1.47809 0
M  V30 6147 O 586.946 0.809056 -1.76544 0
M  V30 6148 C 584.076 1.05852 -3.30776 0
M  V30 6149 C 583.029 0.400503 -4.26122 0
M  V30 6150 C 582.356 1.49674 -5.13324 0
M  V30 6151 C 583.656 -0.688924 -5.17737 0
M  V30 6152 H 585.35 -0.668819 -2.91834 0
M  V30 6153 H 582.896 -0.32308 -1.40329 0
M  V30 6154 H 584.849 1.5541 -3.91696 0
M  V30 6155 H 583.572 1.82984 -2.70526 0
M  V30 6156 H 582.231 -0.0743687 -3.66525 0
M  V30 6157 H 581.88 2.25877 -4.49431 0
M  V30 6158 H 581.58 1.06188 -5.77926 0
M  V30 6159 H 583.104 1.99427 -5.77115 0
M  V30 6160 H 584.518 -0.276724 -5.72632 0
M  V30 6161 H 582.915 -1.04652 -5.90904 0
M  V30 6162 H 583.985 -1.55884 -4.5916 0
M  V30 6163 N 585.328 1.53329 -0.364422 0
M  V30 6164 C 586.258 2.28627 0.474543 0
M  V30 6165 C 587.239 1.31009 1.08492 0
M  V30 6166 O 588.424 1.59878 1.10239 0
M  V30 6167 C 585.554 3.07465 1.61501 0
M  V30 6168 C 584.508 4.1276 1.13194 0
M  V30 6169 C 583.834 4.79674 2.36255 0
M  V30 6170 C 585.134 5.21847 0.217507 0
M  V30 6171 H 586.828 2.99005 -0.153656 0
M  V30 6172 H 584.374 1.43803 -0.0753406 0
M  V30 6173 H 586.327 3.58889 2.20855 0
M  V30 6174 H 585.051 2.34775 2.27042 0
M  V30 6175 H 583.71 3.62281 0.56109 0
M  V30 6176 H 583.358 4.03557 3.00251 0
M  V30 6177 H 583.058 5.50827 2.04606 0
M  V30 6178 H 584.582 5.33892 2.96297 0
M  V30 6179 H 585.996 5.6878 0.718493 0
M  V30 6180 H 584.393 6.00099 -0.00806408 0
M  V30 6181 H 585.463 4.7921 -0.740653 0
M  V30 6182 N 586.806 0.0935595 1.57322 0
M  V30 6183 C 588.054 -0.569383 1.93913 0
M  V30 6184 C 588.375 -1.68817 0.976009 0
M  V30 6185 O 587.645 -1.9588 0.0278099 0
M  V30 6186 H 586.225 -0.21332 0.715894 0
M  V30 6187 H 588.887 0.156531 1.9427 0
M  V30 6188 H 587.983 -0.980577 2.96296 0
M  V30 6189 N 588.284 -1.56567 -0.180126 0
M  V30 6190 C 589.217 -1.90813 -1.25163 0
M  V30 6191 C 590.195 -0.7699 -1.43218 0
M  V30 6192 O 591.379 -1.02236 -1.58367 0
M  V30 6193 C 588.506 -2.15138 -2.61597 0
M  V30 6194 C 587.552 -3.37834 -2.60328 0
M  V30 6195 S 588.385 -4.92486 -2.1028 0
M  V30 6196 C 589.541 -5.19896 -3.48509 0
M  V30 6197 H 589.774 -2.81398 -0.959283 0
M  V30 6198 H 587.307 -1.49541 -0.3843 0
M  V30 6199 H 589.265 -2.29835 -3.40127 0
M  V30 6200 H 587.926 -1.25276 -2.88036 0
M  V30 6201 H 587.119 -3.52027 -3.60684 0
M  V30 6202 H 586.721 -3.22208 -1.8989 0
M  V30 6203 H 589.013 -5.11334 -4.44459 0
M  V30 6204 H 589.956 -6.21571 -3.39198 0
M  V30 6205 H 590.364 -4.47489 -3.44114 0
M  V30 6206 N 589.762 0.448376 -1.51087 0
M  V30 6207 C 591.039 1.20926 -1.53741 0
M  V30 6208 C 591.419 2.09025 -0.295222 0
M  V30 6209 O 590.767 2.16851 0.720283 0
M  V30 6210 C 590.977 2.02067 -2.84552 0
M  V30 6211 C 592.325 2.59486 -3.36084 0
M  V30 6212 O 593.349 2.12289 -2.86028 0
M  V30 6213 O 592.208 3.45539 -4.23397 0
M  V30 6214 H 589.302 0.549951 -0.617643 0
M  V30 6215 H 591.848 0.458344 -1.63393 0
M  V30 6216 H 590.62 1.37291 -3.66425 0
M  V30 6217 H 590.243 2.84246 -2.78011 0
M  V30 6218 N 591.24 1.41047 0.703093 0
M  V30 6219 C 592.488 1.39723 1.4602 0
M  V30 6220 C 592.809 0.00461257 1.94999 0
M  V30 6221 O 592.079 -0.952292 1.71196 0
M  V30 6222 H 590.659 0.514281 0.541779 0
M  V30 6223 H 593.321 1.76217 0.832678 0
M  V30 6224 H 592.417 2.07982 2.32701 0
M  V30 6225 N 592.718 -0.936591 1.26751 0
M  V30 6226 C 593.943 -1.72288 1.15462 0
M  V30 6227 C 594.368 -1.85915 -0.285887 0
M  V30 6228 O 593.726 -1.35272 -1.20711 0
M  V30 6229 C 593.774 -3.10503 1.83359 0
M  V30 6230 O 592.878 -3.96745 1.1255 0
M  V30 6231 H 592.219 -0.52843 0.402067 0
M  V30 6232 H 594.749 -1.17271 1.67656 0
M  V30 6233 H 594.759 -3.60867 1.90365 0
M  V30 6234 H 593.434 -2.99901 2.88153 0
M  V30 6235 H 592.011 -3.55191 1.13551 0
M  V30 6236 N 594.196 -1.08629 -1.14182 0
M  V30 6237 C 595.442 -0.818556 -1.85546 0
M  V30 6238 C 595.775 0.654076 -1.82854 0
M  V30 6239 O 595.05 1.48099 -1.26083 0
M  V30 6240 C 595.333 -1.34397 -3.3408 0
M  V30 6241 C 595.186 -2.8821 -3.45333 0
M  V30 6242 C 596.505 -0.971069 -4.29253 0
M  V30 6243 H 593.624 -0.298821 -0.673702 0
M  V30 6244 H 596.266 -1.34629 -1.34071 0
M  V30 6245 H 594.416 -0.895064 -3.78049 0
M  V30 6246 H 596.088 -3.41488 -3.10134 0
M  V30 6247 H 594.331 -3.25756 -2.86471 0
M  V30 6248 H 595.002 -3.20047 -4.49749 0
M  V30 6249 H 597.478 -1.35809 -3.93313 0
M  V30 6250 H 596.354 -1.36586 -5.31635 0
M  V30 6251 H 596.615 0.121659 -4.41933 0
M  V30 6252 N 595.674 1.31259 -0.872281 0
M  V30 6253 C 596.621 2.28459 -0.327857 0
M  V30 6254 C 597.591 1.55831 0.574957 0
M  V30 6255 O 598.776 1.83965 0.506101 0
M  V30 6256 C 595.916 3.41985 0.462644 0
M  V30 6257 C 595.029 4.29458 -0.467949 0
M  V30 6258 C 594.164 5.30131 0.336903 0
M  V30 6259 C 593.203 6.0925 -0.58997 0
M  V30 6260 N 592.34 7.01872 0.178775 0
M  V30 6261 H 597.18 2.74414 -1.16193 0
M  V30 6262 H 594.717 1.34994 -0.584376 0
M  V30 6263 H 596.675 4.06547 0.936759 0
M  V30 6264 H 595.305 2.97134 1.2614 0
M  V30 6265 H 594.357 3.65318 -1.06052 0
M  V30 6266 H 595.669 4.84677 -1.17856 0
M  V30 6267 H 594.823 6.0038 0.873427 0
M  V30 6268 H 593.562 4.75573 1.08079 0
M  V30 6269 H 592.567 5.37889 -1.13823 0
M  V30 6270 H 593.792 6.65894 -1.33275 0
M  V30 6271 H 591.738 6.49721 0.905435 0
M  V30 6272 H 591.655 7.54522 -0.472452 0
M  V30 6273 H 592.923 7.76382 0.696454 0
M  V30 6274 N 597.152 0.631951 1.44375 0
M  V30 6275 C 598.082 -0.0593243 2.33425 0
M  V30 6276 C 599.063 -0.833964 1.48253 0
M  V30 6277 O 600.248 -0.799682 1.76971 0
M  V30 6278 C 597.378 -1.04096 3.31333 0
M  V30 6279 C 596.332 -0.377899 4.26328 0
M  V30 6280 C 595.658 -1.4695 5.14111 0
M  V30 6281 C 596.958 0.716371 5.17364 0
M  V30 6282 H 598.652 0.684287 2.91475 0
M  V30 6283 H 596.198 0.330518 1.40156 0
M  V30 6284 H 598.151 -1.53331 3.92514 0
M  V30 6285 H 596.875 -1.81547 2.71493 0
M  V30 6286 H 595.534 0.0938054 3.6648 0
M  V30 6287 H 595.182 -2.2349 4.50623 0
M  V30 6288 H 594.882 -1.03121 5.78481 0
M  V30 6289 H 596.406 -1.96363 5.78164 0
M  V30 6290 H 597.82 0.307089 5.72477 0
M  V30 6291 H 596.217 1.07784 5.90341 0
M  V30 6292 H 597.287 1.58316 4.58327 0
M  V30 6293 N 598.631 -1.53133 0.372548 0
M  V30 6294 C 599.859 -2.05774 -0.215515 0
M  V30 6295 C 600.274 -1.24555 -1.41886 0
M  V30 6296 O 599.631 -0.287951 -1.80214 0
M  V30 6297 C 599.682 -3.5645 -0.602161 0
M  V30 6298 O 599.403 -4.34591 0.553359 0
M  V30 6299 C 600.904 -4.25374 -1.24787 0
M  V30 6300 H 598.124 -0.670009 -0.0364529 0
M  V30 6301 H 600.668 -1.97434 0.532934 0
M  V30 6302 H 598.823 -3.64918 -1.30052 0
M  V30 6303 H 599.237 -5.23954 0.239336 0
M  V30 6304 H 600.711 -5.32097 -1.46891 0
M  V30 6305 H 601.188 -3.79531 -2.21026 0
M  V30 6306 H 601.794 -4.21177 -0.590752 0
M  V30 6307 N 600.109 -0.101901 -1.5727 0
M  V30 6308 C 601.386 0.602832 -1.86079 0
M  V30 6309 C 601.766 1.85912 -1 0
M  V30 6310 O 601.114 2.28379 -0.0742488 0
M  V30 6311 C 601.324 0.911694 -3.36881 0
M  V30 6312 C 602.672 1.2722 -4.05093 0
M  V30 6313 O 603.696 1.0025 -3.41802 0
M  V30 6314 O 602.555 1.7776 -5.16782 0
M  V30 6315 H 599.649 0.302366 -0.769743 0
M  V30 6316 H 602.195 -0.135113 -1.69161 0
M  V30 6317 H 600.967 0.0207256 -3.91295 0
M  V30 6318 H 600.59 1.70538 -3.59169 0
M  V30 6319 N 601.587 1.56661 0.17182 0
M  V30 6320 C 602.834 1.81965 0.888529 0
M  V30 6321 C 603.162 0.6789 1.82267 0
M  V30 6322 O 602.417 -0.333875 1.92831 0
M  V30 6323 C 602.716 3.13435 1.71736 0
M  V30 6324 C 602.382 4.41159 0.932184 0
M  V30 6325 C 601.044 4.75851 0.715481 0
M  V30 6326 C 603.396 5.19803 0.381387 0
M  V30 6327 C 600.724 5.86666 -0.063126 0
M  V30 6328 C 603.076 6.31433 -0.384129 0
M  V30 6329 C 601.74 6.64692 -0.611637 0
M  V30 6330 H 601.01 0.665859 0.325136 0
M  V30 6331 H 603.657 1.90884 0.153495 0
M  V30 6332 H 601.962 2.99857 2.52177 0
M  V30 6333 H 603.659 3.30224 2.27493 0
M  V30 6334 H 600.249 4.13947 1.11112 0
M  V30 6335 H 604.433 4.93396 0.536148 0
M  V30 6336 H 599.689 6.10892 -0.249136 0
M  V30 6337 H 603.863 6.91577 -0.818185 0
M  V30 6338 H 601.49 7.50398 -1.21684 0
M  V30 6339 N 603.065 -0.440357 1.51323 0
M  V30 6340 C 604.313 -1.18769 1.63518 0
M  V30 6341 C 604.634 -1.91793 0.352201 0
M  V30 6342 O 603.904 -1.85432 -0.631811 0
M  V30 6343 H 602.484 -0.441408 0.602634 0
M  V30 6344 H 605.146 -0.505162 1.8824 0
M  V30 6345 H 604.242 -1.91892 2.46138 0
M  V30 6346 N 604.543 -1.41418 -0.695603 0
M  V30 6347 C 605.79 -1.40774 -1.45564 0
M  V30 6348 C 606.118 -0.0168604 -1.94493 0
M  V30 6349 O 605.373 0.971259 -1.69897 0
M  V30 6350 C 605.672 -2.36112 -2.68302 0
M  V30 6351 C 605.338 -3.82952 -2.38031 0
M  V30 6352 C 604 -4.22954 -2.29486 0
M  V30 6353 C 606.352 -4.75662 -2.13061 0
M  V30 6354 C 603.68 -5.53674 -1.94067 0
M  V30 6355 C 606.032 -6.06702 -1.79151 0
M  V30 6356 C 604.696 -6.45725 -1.69102 0
M  V30 6357 H 603.966 -0.515128 -0.532658 0
M  V30 6358 H 606.613 -1.74216 -0.795047 0
M  V30 6359 H 604.918 -1.95924 -3.39295 0
M  V30 6360 H 606.615 -2.32887 -3.26442 0
M  V30 6361 H 603.205 -3.5127 -2.45576 0
M  V30 6362 H 607.389 -4.45561 -2.18608 0
M  V30 6363 H 602.645 -5.8279 -1.8484 0
M  V30 6364 H 606.819 -6.78041 -1.5885 0
M  V30 6365 H 604.446 -7.46929 -1.41426 0
M  V30 6366 N 606.021 0.929856 -1.27246 0
M  V30 6367 C 607.261 1.6919 -1.14691 0
M  V30 6368 C 607.625 1.896 0.302621 0
M  V30 6369 O 608.826 2.63102 0.550543 0
M  V30 6370 C 607.097 3.02291 -1.9067 0
M  V30 6371 S 608.656 3.93436 -1.94303 0
M  V30 6372 H 605.474 0.581248 -0.409477 0
M  V30 6373 H 608.076 1.10722 -1.61124 0
M  V30 6374 H 606.78 2.85125 -2.95181 0
M  V30 6375 H 606.311 3.65813 -1.44723 0
M  V30 6376 H 608.326 4.85224 -1.0379 0
M  V30 6377 N 607.499 1.09233 1.13605 0
M  V30 6378 C 608.462 0.733553 2.17144 0
M  V30 6379 C 609.462 -0.235873 1.59061 0
M  V30 6380 O 610.652 -0.0143167 1.74194 0
M  V30 6381 C 607.784 0.084471 3.40795 0
M  V30 6382 H 608.977 1.65049 2.50397 0
M  V30 6383 H 606.53 0.891264 1.28399 0
M  V30 6384 H 607.265 -0.843795 3.1313 0
M  V30 6385 H 607.05 0.781985 3.84223 0
M  V30 6386 H 608.54 -0.151216 4.17326 0
M  V30 6387 N 608.977 -1.30795 0.87923 0
M  V30 6388 C 609.909 -2.27241 0.299025 0
M  V30 6389 C 610.922 -1.53472 -0.543166 0
M  V30 6390 O 612.111 -1.74756 -0.363651 0
M  V30 6391 C 609.211 -3.33655 -0.593931 0
M  V30 6392 C 608.384 -4.36857 0.2179 0
M  V30 6393 C 607.443 -5.22715 -0.604646 0
M  V30 6394 O 606.469 -5.69192 -0.0293838 0
M  V30 6395 N 607.671 -5.48008 -1.91488 0
M  V30 6396 H 610.436 -2.77667 1.12788 0
M  V30 6397 H 607.997 -1.43914 0.741637 0
M  V30 6398 H 609.989 -3.88013 -1.15012 0
M  V30 6399 H 608.559 -2.83202 -1.32346 0
M  V30 6400 H 607.779 -3.82444 0.955536 0
M  V30 6401 H 609.067 -5.02869 0.774614 0
M  V30 6402 H 608.465 -5.1202 -2.40525 0
M  V30 6403 H 607.022 -6.05264 -2.41864 0
M  V30 6404 N 610.455 -0.639598 -1.44038 0
M  V30 6405 C 611.704 -0.144885 -2.01179 0
M  V30 6406 C 612.017 1.24372 -1.50967 0
M  V30 6407 O 613.223 1.83291 -2.00292 0
M  V30 6408 C 611.679 -0.208244 -3.59297 0
M  V30 6409 C 611.287 -1.59869 -4.18504 0
M  V30 6410 C 613.031 0.229568 -4.23879 0
M  V30 6411 C 610.938 -1.61671 -5.68873 0
M  V30 6412 H 609.868 -0.0504005 -0.752314 0
M  V30 6413 H 612.519 -0.799639 -1.65161 0
M  V30 6414 H 610.901 0.513767 -3.92653 0
M  V30 6415 H 612.075 -2.34496 -3.96671 0
M  V30 6416 H 610.39 -1.98131 -3.66242 0
M  V30 6417 H 612.987 0.235758 -5.3418 0
M  V30 6418 H 613.33 1.25848 -3.96822 0
M  V30 6419 H 613.863 -0.440233 -3.95357 0
M  V30 6420 H 610.602 -2.62427 -6.00677 0
M  V30 6421 H 610.122 -0.913489 -5.92803 0
M  V30 6422 H 611.801 -1.35439 -6.32665 0
M  V30 6423 N 611.933 1.52934 -0.380664 0
M  V30 6424 C 613.161 2.05886 0.204599 0
M  V30 6425 C 613.576 1.25305 1.41223 0
M  V30 6426 O 612.933 0.297504 1.80059 0
M  V30 6427 C 612.984 3.56764 0.583249 0
M  V30 6428 O 612.705 4.34292 -0.576398 0
M  V30 6429 C 614.206 4.2603 1.2253 0
M  V30 6430 H 611.426 0.670193 0.0328991 0
M  V30 6431 H 613.97 1.97148 -0.543397 0
M  V30 6432 H 612.125 3.65603 1.28115 0
M  V30 6433 H 612.539 5.23819 -0.267119 0
M  V30 6434 H 614.013 5.32868 1.44068 0
M  V30 6435 H 614.49 3.80698 2.19011 0
M  V30 6436 H 615.096 4.21485 0.568407 0
M  V30 6437 N 613.412 0.11024 1.57214 0
M  V30 6438 C 614.823 -0.416527 1.81994 0
M  V30 6439 C 615.174 -1.67183 1.02686 0
M  V30 6440 O 614.299 -2.14823 0.260782 0
M  V30 6441 C 614.894 -0.762466 3.30109 0
M  V30 6442 C 613.453 -1.23391 3.556 0
M  V30 6443 C 612.6 -0.238166 2.76275 0
M  V30 6444 H 615.551 0.335491 1.55113 0
M  V30 6445 H 615.572 -1.62068 3.44259 0
M  V30 6446 H 615.084 0.151346 3.87805 0
M  V30 6447 H 613.185 -2.16492 3.03253 0
M  V30 6448 H 613.298 -1.18528 4.64207 0
M  V30 6449 H 611.662 -0.723421 2.4421 0
M  V30 6450 H 612.445 0.668591 3.36727 0
M  V30 6451 N 614.89 -1.56749 -0.16351 0
M  V30 6452 C 615.8 -2.00255 -1.2221 0
M  V30 6453 C 616.816 -0.915194 -1.47987 0
M  V30 6454 O 617.992 -1.22342 -1.59982 0
M  V30 6455 C 615.057 -2.36035 -2.53946 0
M  V30 6456 C 614.118 -3.58637 -2.35962 0
M  V30 6457 C 613.351 -3.92701 -3.61416 0
M  V30 6458 O 613.574 -3.27632 -4.66919 0
M  V30 6459 O 612.508 -4.86019 -3.55062 0
M  V30 6460 H 616.334 -2.90586 -0.882794 0
M  V30 6461 H 613.919 -1.44721 -0.370978 0
M  V30 6462 H 615.801 -2.59982 -3.31643 0
M  V30 6463 H 614.476 -1.48863 -2.8744 0
M  V30 6464 H 613.383 -3.39898 -1.5627 0
M  V30 6465 H 614.716 -4.46374 -2.0739 0
M  V30 6466 N 616.368 0.432326 -1.51554 0
M  V30 6467 C 617.3 1.54357 -1.6943 0
M  V30 6468 C 618.313 1.52311 -0.574897 0
M  V30 6469 O 619.502 1.56997 -0.849369 0
M  V30 6470 C 616.602 2.93273 -1.69836 0
M  V30 6471 C 615.775 3.19768 -2.98442 0
M  V30 6472 C 614.834 4.38433 -2.90969 0
M  V30 6473 O 613.86 4.36842 -3.64908 0
M  V30 6474 N 615.062 5.42276 -2.07163 0
M  V30 6475 H 617.827 1.39426 -2.65293 0
M  V30 6476 H 615.388 0.621331 -1.49503 0
M  V30 6477 H 617.38 3.70687 -1.62399 0
M  V30 6478 H 615.95 3.01777 -0.815456 0
M  V30 6479 H 615.17 2.30607 -3.19709 0
M  V30 6480 H 616.458 3.343 -3.83563 0
M  V30 6481 H 615.856 5.46407 -1.46477 0
M  V30 6482 H 614.413 6.18524 -2.05601 0
M  V30 6483 N 617.846 1.41785 0.688094 0
M  V30 6484 C 619.071 1.45117 1.48175 0
M  V30 6485 C 619.496 0.060129 1.88004 0
M  V30 6486 O 618.854 -0.938385 1.55126 0
M  V30 6487 C 618.902 2.37224 2.71583 0
M  V30 6488 O 618.006 1.83443 3.69354 0
M  V30 6489 H 617.347 0.492208 0.445676 0
M  V30 6490 H 619.877 1.86329 0.845145 0
M  V30 6491 H 619.887 2.53353 3.19806 0
M  V30 6492 H 618.562 3.38293 2.41931 0
M  V30 6493 H 617.139 1.76802 3.28322 0
M  V30 6494 N 619.324 -0.923095 1.27737 0
M  V30 6495 C 620.271 -2.02432 1.1086 0
M  V30 6496 C 621.241 -1.66098 0.00835195 0
M  V30 6497 O 622.426 -1.90027 0.171542 0
M  V30 6498 C 619.566 -3.36476 0.766671 0
M  V30 6499 C 618.679 -3.85737 1.94501 0
M  V30 6500 C 617.814 -5.08249 1.54455 0
M  V30 6501 C 616.853 -5.49818 2.6901 0
M  V30 6502 N 615.99 -6.63524 2.29521 0
M  V30 6503 H 620.83 -2.16201 2.05089 0
M  V30 6504 H 618.367 -1.05909 1.02087 0
M  V30 6505 H 620.325 -4.13569 0.549223 0
M  V30 6506 H 618.955 -3.22502 -0.13867 0
M  V30 6507 H 618.007 -3.04883 2.27487 0
M  V30 6508 H 619.319 -4.12513 2.80419 0
M  V30 6509 H 618.473 -5.92857 1.28862 0
M  V30 6510 H 617.212 -4.83261 0.656534 0
M  V30 6511 H 616.217 -4.63757 2.95313 0
M  V30 6512 H 617.442 -5.76799 3.5844 0
M  V30 6513 H 615.388 -6.40185 1.43177 0
M  V30 6514 H 615.305 -6.89978 3.08977 0
M  V30 6515 H 616.573 -7.51461 2.07187 0
M  V30 6516 N 620.802 -1.09834 -1.13024 0
M  V30 6517 C 622.218 -0.828875 -1.36388 0
M  V30 6518 C 622.418 0.554756 -1.93713 0
M  V30 6519 O 621.474 1.30882 -2.15931 0
M  V30 6520 C 622.787 -1.92352 -2.3113 0
M  V30 6521 C 624.335 -1.95124 -2.44735 0
M  V30 6522 C 624.81 -3.03745 -3.42787 0
M  V30 6523 N 626.301 -3.03012 -3.5034 0
M  V30 6524 C 627.036 -3.83699 -4.26101 0
M  V30 6525 N 626.532 -4.74306 -5.04981 0
M  V30 6526 N 628.325 -3.71942 -4.21445 0
M  V30 6527 H 620.476 -1.99029 -0.74169 0
M  V30 6528 H 622.739 -0.864557 -0.388903 0
M  V30 6529 H 622.445 -2.91906 -1.96172 0
M  V30 6530 H 622.319 -1.80536 -3.3119 0
M  V30 6531 H 624.706 -0.962069 -2.78977 0
M  V30 6532 H 624.787 -2.11018 -1.44586 0
M  V30 6533 H 624.431 -4.02878 -3.09276 0
M  V30 6534 H 624.361 -2.85094 -4.42752 0
M  V30 6535 H 626.852 -2.37352 -2.94062 0
M  V30 6536 H 627.165 -5.32446 -5.60108 0
M  V30 6537 H 625.51 -4.78339 -5.04199 0
M  V30 6538 H 628.701 -3.00513 -3.589 0
M  V30 6539 H 628.874 -4.35062 -4.80235 0
M  V30 6540 N 622.28 1.30327 -0.886154 0
M  V30 6541 C 623.505 2.0079 -0.519425 0
M  V30 6542 C 623.93 1.65979 0.885013 0
M  V30 6543 O 623.288 0.877043 1.58675 0
M  V30 6544 C 623.336 3.53686 -0.702758 0
M  V30 6545 O 622.44 4.11637 0.250828 0
M  V30 6546 H 621.781 0.63171 -0.204544 0
M  V30 6547 H 624.311 1.66145 -1.19402 0
M  V30 6548 H 624.321 4.03531 -0.602207 0
M  V30 6549 H 622.996 3.78361 -1.72673 0
M  V30 6550 H 621.573 3.72755 0.103873 0
M  V30 6551 N 623.758 0.647228 1.43697 0
M  V30 6552 C 624.986 0.16575 2.06235 0
M  V30 6553 C 625.401 -1.1662 1.48476 0
M  V30 6554 O 624.758 -1.7187 0.613762 0
M  V30 6555 C 624.809 0.0621651 3.61447 0
M  V30 6556 O 624.53 1.34146 4.17057 0
M  V30 6557 C 626.031 -0.446102 4.4105 0
M  V30 6558 H 623.251 0.0871158 0.665321 0
M  V30 6559 H 625.795 0.886183 1.84301 0
M  V30 6560 H 623.95 -0.608794 3.82587 0
M  V30 6561 H 624.364 1.19675 5.10664 0
M  V30 6562 H 625.838 -0.46755 5.50016 0
M  V30 6563 H 626.315 -1.47627 4.13646 0
M  V30 6564 H 626.921 0.192159 4.24866 0
M  V30 6565 N 625.236 -1.5273 0.388769 0
M  V30 6566 C 626.169 -2.22861 -0.490752 0
M  V30 6567 C 627.147 -1.22912 -1.06449 0
M  V30 6568 O 628.331 -1.51896 -1.11624 0
M  V30 6569 C 625.458 -2.94141 -1.67925 0
M  V30 6570 C 624.504 -4.08355 -1.23081 0
M  V30 6571 S 625.337 -5.35077 -0.212786 0
M  V30 6572 C 626.493 -6.09879 -1.40708 0
M  V30 6573 H 626.726 -2.97115 0.104787 0
M  V30 6574 H 624.259 -1.53428 0.172956 0
M  V30 6575 H 626.217 -3.35818 -2.36085 0
M  V30 6576 H 624.878 -2.19568 -2.24608 0
M  V30 6577 H 624.071 -4.57328 -2.11818 0
M  V30 6578 H 623.673 -3.68688 -0.628121 0
M  V30 6579 H 625.965 -6.36018 -2.33424 0
M  V30 6580 H 626.908 -7.01586 -0.958271 0
M  V30 6581 H 627.316 -5.40646 -1.62364 0
M  V30 6582 N 626.714 -0.118576 -1.57153 0
M  V30 6583 C 627.96 0.540326 -1.95469 0
M  V30 6584 C 628.293 1.66356 -1.00196 0
M  V30 6585 O 627.568 1.94461 -0.039104 0
M  V30 6586 C 627.851 1.07342 -3.43729 0
M  V30 6587 C 627.704 -0.0463732 -4.49776 0
M  V30 6588 C 629.023 1.96442 -3.93826 0
M  V30 6589 H 626.142 0.19494 -0.710751 0
M  V30 6590 H 628.784 -0.19405 -1.89006 0
M  V30 6591 H 626.934 1.69925 -3.49368 0
M  V30 6592 H 628.606 -0.681648 -4.56236 0
M  V30 6593 H 626.849 -0.709574 -4.27957 0
M  V30 6594 H 627.52 0.367856 -5.50773 0
M  V30 6595 H 629.996 1.43731 -3.90488 0
M  V30 6596 H 628.872 2.3066 -4.98084 0
M  V30 6597 H 629.133 2.89077 -3.34495 0
M  V30 6598 N 628.193 1.56834 0.155195 0
M  V30 6599 C 629.441 1.82536 0.867462 0
M  V30 6600 C 629.762 0.698168 1.82073 0
M  V30 6601 O 629.032 -0.280807 1.93877 0
M  V30 6602 H 627.612 0.673401 0.323327 0
M  V30 6603 H 630.274 1.94313 0.151156 0
M  V30 6604 H 629.37 2.77171 1.43466 0
M  V30 6605 N 629.671 -0.424282 1.51781 0
M  V30 6606 C 630.899 -1.1947 1.68921 0
M  V30 6607 C 631.314 -1.84683 0.39213 0
M  V30 6608 O 630.671 -1.71261 -0.630554 0
M  V30 6609 C 630.722 -2.26909 2.81416 0
M  V30 6610 O 630.443 -1.64361 4.061 0
M  V30 6611 C 631.944 -3.16945 3.09937 0
M  V30 6612 H 629.164 -0.359591 0.566511 0
M  V30 6613 H 631.708 -0.501139 1.98265 0
M  V30 6614 H 629.863 -2.91959 2.54635 0
M  V30 6615 H 630.277 -2.35468 4.68674 0
M  V30 6616 H 631.751 -3.88437 3.922 0
M  V30 6617 H 632.228 -3.78451 2.22871 0
M  V30 6618 H 632.834 -2.57581 3.38426 0
M  V30 6619 N 631.149 -1.42148 -0.680565 0
M  V30 6620 C 632.56 -1.3768 -1.26099 0
M  V30 6621 C 632.911 -0.0672348 -1.96085 0
M  V30 6622 O 632.036 0.834172 -1.99676 0
M  V30 6623 C 632.631 -2.49387 -2.29328 0
M  V30 6624 C 631.19 -2.4827 -2.82911 0
M  V30 6625 C 630.337 -2.2847 -1.57152 0
M  V30 6626 H 633.288 -1.51446 -0.474326 0
M  V30 6627 H 633.309 -2.19307 -3.10941 0
M  V30 6628 H 632.821 -3.44686 -1.78363 0
M  V30 6629 H 630.922 -1.56773 -3.38013 0
M  V30 6630 H 631.035 -3.45109 -3.3232 0
M  V30 6631 H 629.399 -1.76623 -1.83511 0
M  V30 6632 H 630.182 -3.25816 -1.0816 0
M  V30 6633 N 632.627 0.916307 -1.28225 0
M  V30 6634 C 633.857 1.69654 -1.17902 0
M  V30 6635 C 634.265 1.87331 0.265268 0
M  V30 6636 O 633.608 1.39828 1.19137 0
M  V30 6637 C 633.67 3.11024 -1.80289 0
M  V30 6638 C 633.334 3.16643 -3.29525 0
M  V30 6639 C 634.331 2.98032 -4.25997 0
M  V30 6640 C 632.016 3.39238 -3.70436 0
M  V30 6641 C 634.01 3.01924 -5.61356 0
M  V30 6642 C 631.697 3.42762 -5.05922 0
M  V30 6643 C 632.695 3.24125 -6.01192 0
M  V30 6644 O 632.383 3.27406 -7.34208 0
M  V30 6645 H 632.115 0.537197 -0.41036 0
M  V30 6646 H 634.669 1.15547 -1.69817 0
M  V30 6647 H 632.899 3.66662 -1.22865 0
M  V30 6648 H 634.588 3.71063 -1.6452 0
M  V30 6649 H 635.354 2.80405 -3.95725 0
M  V30 6650 H 631.233 3.52791 -2.96749 0
M  V30 6651 H 634.777 2.87295 -6.35694 0
M  V30 6652 H 630.674 3.59916 -5.35846 0
M  V30 6653 H 631.442 3.43784 -7.42802 0
M  V30 6654 N 634.105 1.10431 1.1244 0
M  V30 6655 C 635.351 0.857864 1.84424 0
M  V30 6656 C 635.706 -0.609995 1.82474 0
M  V30 6657 O 634.999 -1.44401 1.25932 0
M  V30 6658 C 635.193 1.34022 3.3132 0
M  V30 6659 C 635.022 2.85344 3.47576 0
M  V30 6660 C 633.792 3.53345 3.61213 0
M  V30 6661 C 635.99 3.83446 3.42744 0
M  V30 6662 N 633.972 4.92989 3.65834 0
M  V30 6663 C 635.343 5.09101 3.5386 0
M  V30 6664 C 637.398 3.76154 3.26209 0
M  V30 6665 C 636.101 6.28323 3.50146 0
M  V30 6666 C 638.127 4.94876 3.23809 0
M  V30 6667 C 637.489 6.19378 3.35485 0
M  V30 6668 H 633.588 0.366917 0.690577 0
M  V30 6669 H 636.172 1.40668 1.34613 0
M  V30 6670 H 634.343 0.818727 3.79673 0
M  V30 6671 H 636.075 1.03801 3.91162 0
M  V30 6672 H 632.83 3.03791 3.63329 0
M  V30 6673 H 633.254 5.65762 3.71809 0
M  V30 6674 H 637.896 2.80813 3.16076 0
M  V30 6675 H 635.614 7.23953 3.5905 0
M  V30 6676 H 639.2 4.90942 3.12197 0
M  V30 6677 H 638.08 7.09704 3.33602 0
M  V30 6678 N 635.583 -1.29855 0.893053 0
M  V30 6679 C 636.516 -2.26079 0.3104 0
M  V30 6680 C 637.494 -1.52145 -0.573644 0
M  V30 6681 O 638.678 -1.8113 -0.521937 0
M  V30 6682 C 635.805 -3.34069 -0.558179 0
M  V30 6683 C 634.851 -4.25721 0.257638 0
M  V30 6684 S 635.684 -5.09409 1.65114 0
M  V30 6685 C 636.84 -6.20903 0.789307 0
M  V30 6686 H 637.073 -2.75151 1.12602 0
M  V30 6687 H 634.606 -1.37975 0.692978 0
M  V30 6688 H 636.564 -3.9675 -1.05355 0
M  V30 6689 H 635.225 -2.83705 -1.34797 0
M  V30 6690 H 634.418 -5.02366 -0.405562 0
M  V30 6691 H 634.02 -3.67656 0.685917 0
M  V30 6692 H 636.312 -6.77499 0.00978451 0
M  V30 6693 H 637.255 -6.91426 1.52762 0
M  V30 6694 H 637.663 -5.63435 0.346634 0
M  V30 6695 N 637.061 -0.65484 -1.43351 0
M  V30 6696 C 638.024 0.0263562 -2.29185 0
M  V30 6697 C 639.024 0.748951 -1.42293 0
M  V30 6698 O 640.214 0.589957 -1.63906 0
M  V30 6699 C 637.346 1.04806 -3.2439 0
M  V30 6700 H 638.539 -0.728883 -2.90908 0
M  V30 6701 H 636.092 -0.416149 -1.50658 0
M  V30 6702 H 636.827 1.83247 -2.67565 0
M  V30 6703 H 636.612 0.533554 -3.88453 0
M  V30 6704 H 638.102 1.52372 -3.88809 0
M  V30 6705 N 638.539 1.52521 -0.396863 0
M  V30 6706 C 639.95 1.86547 0.0754868 0
M  V30 6707 C 640.301 1.31621 1.45501 0
M  V30 6708 O 639.426 0.650563 2.0639 0
M  V30 6709 C 640.021 3.38495 0.143754 0
M  V30 6710 C 638.58 3.72205 0.560413 0
M  V30 6711 C 637.727 2.75954 -0.272856 0
M  V30 6712 H 640.678 1.46323 -0.614434 0
M  V30 6713 H 640.699 3.68153 0.961425 0
M  V30 6714 H 640.211 3.78442 -0.860415 0
M  V30 6715 H 638.312 3.3783 1.57167 0
M  V30 6716 H 638.425 4.78074 0.313314 0
M  V30 6717 H 636.789 2.53339 0.263 0
M  V30 6718 H 637.572 3.1874 -1.27515 0
M  V30 6719 N 640.017 0.126909 1.57088 0
M  V30 6720 C 640.927 -0.833867 2.1928 0
M  V30 6721 C 641.943 -1.2868 1.17122 0
M  V30 6722 O 643.119 -1.34815 1.49622 0
M  V30 6723 C 640.184 -2.0632 2.78627 0
M  V30 6724 C 639.245 -1.66143 3.95847 0
M  V30 6725 C 638.478 -2.83217 4.52354 0
M  V30 6726 O 638.701 -3.98868 4.0775 0
M  V30 6727 O 637.635 -2.59846 5.42922 0
M  V30 6728 H 641.461 -0.334564 3.01852 0
M  V30 6729 H 639.046 -0.0991091 1.49071 0
M  V30 6730 H 640.928 -2.78304 3.16425 0
M  V30 6731 H 639.603 -2.55242 1.99082 0
M  V30 6732 H 638.51 -0.912435 3.62802 0
M  V30 6733 H 639.843 -1.21957 4.76852 0
M  V30 6734 N 641.495 -1.56914 -0.146875 0
M  V30 6735 C 642.741 -1.83628 -0.860741 0
M  V30 6736 C 643.074 -0.708528 -1.80813 0
M  V30 6737 O 642.349 0.287838 -1.92358 0
M  V30 6738 C 642.632 -3.20836 -1.63511 0
M  V30 6739 C 642.485 -4.44174 -0.709199 0
M  V30 6740 C 643.804 -3.55268 -2.59756 0
M  V30 6741 H 640.923 -0.667949 -0.311468 0
M  V30 6742 H 643.565 -1.89582 -0.125936 0
M  V30 6743 H 641.715 -3.15891 -2.26153 0
M  V30 6744 H 643.387 -4.61205 -0.0937781 0
M  V30 6745 H 641.63 -4.33796 -0.0187856 0
M  V30 6746 H 642.301 -5.36785 -1.28707 0
M  V30 6747 H 644.777 -3.60824 -2.07232 0
M  V30 6748 H 643.653 -4.52303 -3.10987 0
M  V30 6749 H 643.914 -2.81231 -3.41118 0
M  V30 6750 N 642.974 0.416227 -1.52004 0
M  V30 6751 C 644.22 1.16555 -1.6596 0
M  V30 6752 C 644.553 1.90347 -0.384906 0
M  V30 6753 O 643.828 1.84474 0.616405 0
M  V30 6754 C 644.111 2.1657 -2.87696 0
M  V30 6755 C 643.964 1.46722 -4.25197 0
M  V30 6756 C 645.283 3.17321 -3.04951 0
M  V30 6757 H 642.402 0.422369 -0.603965 0
M  V30 6758 H 645.044 0.452141 -1.84542 0
M  V30 6759 H 643.194 2.77411 -2.71985 0
M  V30 6760 H 644.866 0.89056 -4.52622 0
M  V30 6761 H 643.109 0.769263 -4.26925 0
M  V30 6762 H 643.78 2.19665 -5.0641 0
M  V30 6763 H 646.256 2.66552 -3.19514 0
M  V30 6764 H 645.132 3.84573 -3.91656 0
M  V30 6765 H 645.393 3.84643 -2.17951 0
M  V30 6766 N 644.452 1.42507 0.673017 0
M  V30 6767 C 645.68 1.46473 1.46128 0
M  V30 6768 C 646.095 0.0765912 1.88645 0
M  V30 6769 O 645.452 -0.909057 1.58248 0
M  V30 6770 C 645.503 2.39339 2.70923 0
M  V30 6771 O 645.224 3.72752 2.3019 0
M  V30 6772 C 646.725 2.52343 3.64469 0
M  V30 6773 H 643.945 0.49812 0.449575 0
M  V30 6774 H 646.489 1.87041 0.826802 0
M  V30 6775 H 644.644 2.02019 3.30556 0
M  V30 6776 H 645.058 4.22503 3.10791 0
M  V30 6777 H 646.532 3.2144 4.48754 0
M  V30 6778 H 647.009 1.56189 4.1049 0
M  V30 6779 H 647.615 2.90392 3.10729 0
M  V30 6780 N 645.93 -0.909495 1.28709 0
M  V30 6781 C 647.346 -1.18862 1.06508 0
M  V30 6782 C 647.546 -2.00604 -0.189864 0
M  V30 6783 O 646.602 -2.36281 -0.890355 0
M  V30 6784 C 647.915 -1.91908 2.31499 0
M  V30 6785 C 649.463 -2.04773 2.36721 0
M  V30 6786 C 649.938 -2.81228 3.6149 0
M  V30 6787 N 651.429 -2.88787 3.62155 0
M  V30 6788 C 652.164 -3.48455 4.55375 0
M  V30 6789 N 651.66 -4.09369 5.58918 0
M  V30 6790 N 653.453 -3.46035 4.42963 0
M  V30 6791 H 645.604 -0.363867 2.0926 0
M  V30 6792 H 647.867 -0.223649 0.921241 0
M  V30 6793 H 647.573 -1.39275 3.22948 0
M  V30 6794 H 647.447 -2.92436 2.38245 0
M  V30 6795 H 649.834 -2.56585 1.45767 0
M  V30 6796 H 649.915 -1.03408 2.33967 0
M  V30 6797 H 649.559 -2.30094 4.5279 0
M  V30 6798 H 649.489 -3.82917 3.61499 0
M  V30 6799 H 651.98 -2.45514 2.87283 0
M  V30 6800 H 652.293 -4.52891 6.26187 0
M  V30 6801 H 650.638 -4.0786 5.62739 0
M  V30 6802 H 653.829 -2.9766 3.6127 0
M  V30 6803 H 654.002 -3.92244 5.15799 0
M  V30 6804 N 647.408 -1.11026 -1.11852 0
M  V30 6805 C 648.355 -0.764662 -2.17765 0
M  V30 6806 C 649.325 0.261854 -1.64023 0
M  V30 6807 O 650.51 0.139748 -1.90288 0
M  V30 6808 C 647.65 -0.209317 -3.44465 0
M  V30 6809 C 646.763 -1.29187 -4.12231 0
M  V30 6810 C 645.898 -0.697523 -5.266 0
M  V30 6811 C 644.937 -1.76023 -5.86244 0
M  V30 6812 N 644.074 -1.18569 -6.92016 0
M  V30 6813 H 648.914 -1.67202 -2.46673 0
M  V30 6814 H 646.451 -0.835065 -1.21099 0
M  V30 6815 H 648.409 0.130599 -4.16996 0
M  V30 6816 H 647.039 0.661251 -3.15955 0
M  V30 6817 H 646.091 -1.74881 -3.37818 0
M  V30 6818 H 647.403 -2.09607 -4.52622 0
M  V30 6819 H 646.557 -0.307412 -6.05921 0
M  V30 6820 H 645.296 0.138044 -4.87505 0
M  V30 6821 H 644.301 -2.1597 -5.05606 0
M  V30 6822 H 645.526 -2.59875 -6.27409 0
M  V30 6823 H 643.472 -0.371695 -6.54946 0
M  V30 6824 H 643.389 -1.92666 -7.31038 0
M  V30 6825 H 644.657 -0.82233 -7.7515 0
M  V30 6826 N 648.886 1.2938 -0.899927 0
M  V30 6827 C 649.849 2.25983 -0.382677 0
M  V30 6828 C 650.849 1.53366 0.483259 0
M  V30 6829 O 652.039 1.71798 0.28828 0
M  V30 6830 C 649.171 3.37878 0.452915 0
M  V30 6831 H 650.364 2.73252 -1.23586 0
M  V30 6832 H 647.917 1.40825 -0.678088 0
M  V30 6833 H 648.652 2.95949 1.32608 0
M  V30 6834 H 648.437 3.91742 -0.167562 0
M  V30 6835 H 649.927 4.09746 0.806107 0
M  V30 6836 N 650.364 0.662433 1.43002 0
M  V30 6837 C 651.594 0.187343 2.05749 0
M  V30 6838 C 652.002 -1.15582 1.49791 0
M  V30 6839 O 651.345 -1.72651 0.627487 0
M  V30 6840 C 651.407 0.0316493 3.59486 0
M  V30 6841 C 651.071 1.30156 4.38073 0
M  V30 6842 C 652.068 2.23234 4.69535 0
M  V30 6843 C 649.753 1.54572 4.77926 0
M  V30 6844 C 651.747 3.39012 5.39768 0
M  V30 6845 C 649.434 2.70641 5.47902 0
M  V30 6846 C 650.432 3.62687 5.78746 0
M  V30 6847 O 650.12 4.76728 6.47291 0
M  V30 6848 H 649.852 0.0915214 0.669776 0
M  V30 6849 H 652.406 0.905982 1.8434 0
M  V30 6850 H 650.636 -0.742451 3.79506 0
M  V30 6851 H 652.325 -0.401977 4.03905 0
M  V30 6852 H 653.091 2.05616 4.39257 0
M  V30 6853 H 648.97 0.83804 4.53319 0
M  V30 6854 H 652.514 4.10877 5.63761 0
M  V30 6855 H 648.411 2.88189 5.77596 0
M  V30 6856 H 649.179 4.76113 6.65777 0
M  V30 6857 N 651.842 -1.52309 0.404946 0
M  V30 6858 C 653.09 -2.01368 -0.17186 0
M  V30 6859 C 653.411 -1.29261 -1.46002 0
M  V30 6860 O 652.681 -0.41729 -1.91404 0
M  V30 6861 H 651.261 -0.744034 -0.0664993 0
M  V30 6862 H 653.923 -1.87263 0.540228 0
M  V30 6863 H 653.019 -3.09888 -0.370957 0
M  V30 6864 N 653.32 -0.135238 -1.57019 0
M  V30 6865 C 654.731 0.387521 -1.82634 0
M  V30 6866 C 655.082 1.65528 -1.05332 0
M  V30 6867 O 654.207 2.14381 -0.294926 0
M  V30 6868 C 654.802 0.709852 -3.3128 0
M  V30 6869 C 653.361 1.17718 -3.57518 0
M  V30 6870 C 652.508 0.194183 -2.76619 0
M  V30 6871 H 655.459 -0.360126 -1.5456 0
M  V30 6872 H 655.48 1.5657 -3.46794 0
M  V30 6873 H 654.992 -0.213024 -3.87515 0
M  V30 6874 H 653.093 2.1164 -3.06658 0
M  V30 6875 H 653.206 1.11128 -4.66034 0
M  V30 6876 H 651.57 0.684478 -2.4533 0
M  V30 6877 H 652.353 -0.722076 -3.3562 0
M  V30 6878 N 654.798 1.5699 0.138552 0
M  V30 6879 C 655.745 1.98899 1.17081 0
M  V30 6880 C 656.715 0.857922 1.42228 0
M  V30 6881 O 657.9 1.12065 1.54422 0
M  V30 6882 C 655.04 2.38189 2.4972 0
M  V30 6883 C 654.153 3.64624 2.31674 0
M  V30 6884 C 653.288 3.9298 3.57407 0
M  V30 6885 C 652.327 5.1266 3.34435 0
M  V30 6886 N 651.464 5.36983 4.5232 0
M  V30 6887 H 656.304 2.86881 0.80642 0
M  V30 6888 H 653.841 1.41925 0.386727 0
M  V30 6889 H 655.799 2.59 3.2707 0
M  V30 6890 H 654.429 1.53275 2.84089 0
M  V30 6891 H 653.481 3.51542 1.45337 0
M  V30 6892 H 654.793 4.52131 2.10664 0
M  V30 6893 H 653.947 4.14335 4.43183 0
M  V30 6894 H 652.686 3.03912 3.8143 0
M  V30 6895 H 651.691 4.9117 2.47048 0
M  V30 6896 H 652.916 6.03288 3.11802 0
M  V30 6897 H 650.862 4.50871 4.76499 0
M  V30 6898 H 650.779 6.18775 4.34343 0
M  V30 6899 H 652.047 5.62842 5.39285 0
M  V30 6900 N 656.276 -0.40816 1.52223 0
M  V30 6901 C 657.522 -1.15673 1.66576 0
M  V30 6902 C 657.855 -1.90141 0.394996 0
M  V30 6903 O 657.13 -1.84798 -0.606613 0
M  V30 6904 C 657.413 -2.15042 2.88841 0
M  V30 6905 C 657.266 -1.44465 4.25969 0
M  V30 6906 C 658.585 -3.15699 3.0663 0
M  V30 6907 H 655.704 -0.41916 0.606196 0
M  V30 6908 H 658.346 -0.442348 1.84779 0
M  V30 6909 H 656.496 -2.75964 2.73452 0
M  V30 6910 H 658.168 -0.866544 4.53088 0
M  V30 6911 H 656.411 -0.746612 4.27327 0
M  V30 6912 H 657.082 -2.16976 5.07568 0
M  V30 6913 H 659.558 -2.64854 3.20923 0
M  V30 6914 H 658.434 -3.82491 3.9369 0
M  V30 6915 H 658.695 -3.83481 2.19987 0
M  V30 6916 N 657.755 -1.42862 -0.66545 0
M  V30 6917 C 659.032 -1.3431 -1.42197 0
M  V30 6918 C 659.412 0.0150265 -2.11095 0
M  V30 6919 O 658.76 1.03101 -2.03918 0
M  V30 6920 C 658.97 -2.51783 -2.41674 0
M  V30 6921 C 660.318 -2.94321 -3.0604 0
M  V30 6922 O 661.342 -2.51741 -2.52001 0
M  V30 6923 O 660.201 -3.68047 -4.03985 0
M  V30 6924 H 657.295 -0.530159 -0.634713 0
M  V30 6925 H 659.841 -1.54888 -0.693386 0
M  V30 6926 H 658.613 -3.42282 -1.89627 0
M  V30 6927 H 658.236 -2.33241 -3.22001 0
M  V30 6928 N 659.233 0.902656 -1.29189 0
M  V30 6929 C 660.482 1.6475 -1.16362 0
M  V30 6930 C 660.795 1.93517 0.284682 0
M  V30 6931 O 662.001 2.66192 0.534229 0
M  V30 6932 C 660.457 2.96848 -2.03493 0
M  V30 6933 C 660.065 2.75687 -3.5313 0
M  V30 6934 C 661.809 3.74762 -1.99383 0
M  V30 6935 C 659.716 4.03492 -4.32375 0
M  V30 6936 H 658.646 0.618041 -0.431904 0
M  V30 6937 H 661.297 1.0008 -1.53806 0
M  V30 6938 H 659.679 3.62715 -1.58916 0
M  V30 6939 H 660.853 2.18431 -4.05739 0
M  V30 6940 H 659.168 2.11171 -3.58881 0
M  V30 6941 H 661.765 4.69515 -2.5585 0
M  V30 6942 H 662.108 4.04767 -0.973123 0
M  V30 6943 H 662.641 3.15732 -2.41988 0
M  V30 6944 H 659.38 3.78656 -5.3507 0
M  V30 6945 H 658.9 4.60318 -3.84535 0
M  V30 6946 H 660.579 4.71662 -4.42881 0
M  V30 6947 N 660.711 1.11618 1.11262 0
M  V30 6948 C 661.957 0.877377 1.83504 0
M  V30 6949 C 662.312 -0.590606 1.83111 0
M  V30 6950 O 661.605 -1.43057 1.27456 0
M  V30 6951 C 661.799 1.37529 3.2988 0
M  V30 6952 C 661.628 2.89014 3.4453 0
M  V30 6953 C 660.398 3.57157 3.57445 0
M  V30 6954 C 662.596 3.8706 3.38658 0
M  V30 6955 N 660.578 4.96842 3.60585 0
M  V30 6956 C 661.949 5.12825 3.4844 0
M  V30 6957 C 664.004 3.79593 3.22201 0
M  V30 6958 C 662.707 6.32002 3.43462 0
M  V30 6959 C 664.733 4.98282 3.18542 0
M  V30 6960 C 664.095 6.22901 3.28897 0
M  V30 6961 H 660.194 0.37422 0.686646 0
M  V30 6962 H 662.778 1.42087 1.33114 0
M  V30 6963 H 660.949 0.85895 3.78783 0
M  V30 6964 H 662.681 1.07944 3.90039 0
M  V30 6965 H 659.436 3.07628 3.60086 0
M  V30 6966 H 659.86 5.69674 3.65788 0
M  V30 6967 H 664.502 2.84149 3.1308 0
M  V30 6968 H 662.22 7.27721 3.51352 0
M  V30 6969 H 665.806 4.94226 3.06972 0
M  V30 6970 H 664.686 7.13202 3.26056 0
M  V30 6971 N 662.189 -1.289 0.906776 0
M  V30 6972 C 663.414 -1.99939 0.551303 0
M  V30 6973 C 663.839 -1.67366 -0.858496 0
M  V30 6974 O 663.197 -0.902176 -1.57259 0
M  V30 6975 C 663.245 -3.52523 0.758937 0
M  V30 6976 O 662.349 -4.11983 -0.185308 0
M  V30 6977 H 661.69 -0.628376 0.214568 0
M  V30 6978 H 664.22 -1.64225 1.2203 0
M  V30 6979 H 664.23 -4.02522 0.666329 0
M  V30 6980 H 662.905 -3.75566 1.78671 0
M  V30 6981 H 661.482 -3.72873 -0.0445577 0
M  V30 6982 N 663.667 -0.670007 -1.42649 0
M  V30 6983 C 664.597 -0.00258501 -2.335 0
M  V30 6984 C 665.578 0.794364 -1.50412 0
M  V30 6985 O 666.763 0.75248 -1.79029 0
M  V30 6986 C 663.893 0.952748 -3.33976 0
M  V30 6987 C 662.847 0.264733 -4.2718 0
M  V30 6988 C 662.173 1.33267 -5.17826 0
M  V30 6989 C 663.473 -0.853289 -5.15283 0
M  V30 6990 H 665.167 -0.761326 -2.89559 0
M  V30 6991 H 662.713 -0.367561 -1.3923 0
M  V30 6992 H 664.666 1.4287 -3.96442 0
M  V30 6993 H 663.39 1.74285 -2.7621 0
M  V30 6994 H 662.049 -0.190938 -3.66102 0
M  V30 6995 H 661.697 2.11464 -4.5639 0
M  V30 6996 H 661.397 0.877476 -5.81011 0
M  V30 6997 H 662.921 1.80965 -5.83167 0
M  V30 6998 H 664.335 -0.458763 -5.71462 0
M  V30 6999 H 662.732 -1.23398 -5.87276 0
M  V30 7000 H 663.802 -1.70412 -4.53969 0
M  V30 7001 N 665.145 1.52092 -0.413018 0
M  V30 7002 C 666.393 2.01456 0.161178 0
M  V30 7003 C 666.714 1.30034 1.45314 0
M  V30 7004 O 665.984 0.427435 1.9118 0
M  V30 7005 H 664.564 0.744376 0.0625526 0
M  V30 7006 H 667.226 1.86974 -0.550151 0
M  V30 7007 H 666.322 3.1008 0.354517 0
M  V30 7008 N 666.623 0.143563 1.56945 0
M  V30 7009 C 667.872 -0.50835 1.95189 0
M  V30 7010 C 668.185 -1.66239 1.03073 0
M  V30 7011 O 669.391 -2.3787 1.30882 0
M  V30 7012 C 667.847 -0.955735 3.46978 0
M  V30 7013 C 667.455 0.171183 4.47673 0
M  V30 7014 C 669.199 -1.57763 3.94095 0
M  V30 7015 C 667.106 -0.294279 5.90667 0
M  V30 7016 H 666.036 -0.193679 0.728701 0
M  V30 7017 H 668.687 0.227357 1.82086 0
M  V30 7018 H 667.069 -1.7466 3.55401 0
M  V30 7019 H 668.243 0.948049 4.50942 0
M  V30 7020 H 666.558 0.701273 4.10452 0
M  V30 7021 H 669.155 -1.93745 4.98364 0
M  V30 7022 H 669.498 -2.46531 3.35452 0
M  V30 7023 H 670.031 -0.851728 3.88575 0
M  V30 7024 H 666.77 0.557939 6.53121 0
M  V30 7025 H 666.29 -1.0371 5.90766 0
M  V30 7026 H 667.969 -0.747426 6.42668 0
M  V30 7027 N 668.101 -1.57061 -0.130224 0
M  V30 7028 C 669.034 -1.94698 -1.19029 0
M  V30 7029 C 670.012 -0.815074 -1.40696 0
M  V30 7030 O 671.196 -1.07223 -1.55034 0
M  V30 7031 C 668.323 -2.23352 -2.5462 0
M  V30 7032 C 667.369 -3.45945 -2.49448 0
M  V30 7033 S 668.202 -4.98927 -1.94505 0
M  V30 7034 C 669.358 -5.30721 -3.31792 0
M  V30 7035 H 669.591 -2.84308 -0.869272 0
M  V30 7036 H 667.124 -1.50688 -0.336531 0
M  V30 7037 H 669.082 -2.40539 -3.32643 0
M  V30 7038 H 667.743 -1.34376 -2.83905 0
M  V30 7039 H 666.936 -3.63324 -3.49302 0
M  V30 7040 H 666.538 -3.28086 -1.79543 0
M  V30 7041 H 668.83 -5.25215 -4.27966 0
M  V30 7042 H 669.773 -6.32048 -3.19251 0
M  V30 7043 H 670.181 -4.5821 -3.29703 0
M  V30 7044 N 669.579 0.400081 -1.52437 0
M  V30 7045 C 670.542 1.4707 -1.75793 0
M  V30 7046 C 671.542 1.48036 -0.627856 0
M  V30 7047 O 672.732 1.49401 -0.895817 0
M  V30 7048 C 669.864 2.86427 -1.84858 0
M  V30 7049 H 671.057 1.27649 -2.71377 0
M  V30 7050 H 668.61 0.631141 -1.42991 0
M  V30 7051 H 669.345 3.11207 -0.912194 0
M  V30 7052 H 669.13 2.87128 -2.6702 0
M  V30 7053 H 670.62 3.64023 -2.04638 0
M  V30 7054 N 671.057 1.43213 0.657864 0
M  V30 7055 C 672.306 1.43871 1.41365 0
M  V30 7056 C 672.619 0.064898 1.95492 0
M  V30 7057 O 673.825 -0.0510796 2.71452 0
M  V30 7058 C 672.281 2.53158 2.55811 0
M  V30 7059 C 671.889 3.96624 2.08311 0
M  V30 7060 C 673.633 2.63004 3.3321 0
M  V30 7061 C 671.54 4.97385 3.1994 0
M  V30 7062 H 670.47 0.535174 0.531136 0
M  V30 7063 H 673.121 1.69185 0.710543 0
M  V30 7064 H 671.503 2.21037 3.2857 0
M  V30 7065 H 672.677 4.38182 1.42593 0
M  V30 7066 H 670.992 3.90781 1.43804 0
M  V30 7067 H 673.589 3.3546 4.16378 0
M  V30 7068 H 673.932 1.67918 3.80932 0
M  V30 7069 H 674.465 2.94403 2.67529 0
M  V30 7070 H 671.204 5.94007 2.77192 0
M  V30 7071 H 670.724 4.60444 3.84385 0
M  V30 7072 H 672.403 5.19877 3.85145 0
M  V30 7073 N 672.536 -0.895792 1.29666 0
M  V30 7074 C 673.446 -2.03329 1.17024 0
M  V30 7075 C 674.462 -1.73753 0.0925962 0
M  V30 7076 O 675.638 -1.99071 0.305431 0
M  V30 7077 C 672.703 -3.36072 0.851841 0
M  V30 7078 C 671.764 -3.7914 2.01373 0
M  V30 7079 C 670.997 -5.05549 1.71043 0
M  V30 7080 O 671.22 -5.66874 0.633213 0
M  V30 7081 O 670.154 -5.44764 2.5596 0
M  V30 7082 H 673.98 -2.16918 2.12556 0
M  V30 7083 H 671.565 -1.02007 1.09156 0
M  V30 7084 H 673.447 -4.15729 0.689006 0
M  V30 7085 H 672.122 -3.23616 -0.0736634 0
M  V30 7086 H 671.029 -3.00233 2.23183 0
M  V30 7087 H 672.362 -3.96186 2.92058 0
M  V30 7088 N 674.014 -1.12206 -1.10668 0
M  V30 7089 C 674.947 -0.731468 -2.16159 0
M  V30 7090 C 675.925 0.276216 -1.60237 0
M  V30 7091 O 677.109 0.17074 -1.87725 0
M  V30 7092 C 674.236 -0.0822882 -3.386 0
M  V30 7093 C 673.282 -1.05641 -4.1321 0
M  V30 7094 S 674.115 -2.58281 -4.69096 0
M  V30 7095 C 675.271 -1.94686 -5.94851 0
M  V30 7096 H 675.504 -1.62504 -2.48957 0
M  V30 7097 H 673.037 -0.940906 -1.22419 0
M  V30 7098 H 674.995 0.285896 -4.09503 0
M  V30 7099 H 673.656 0.788358 -3.04046 0
M  V30 7100 H 672.849 -0.549764 -5.00993 0
M  V30 7101 H 672.451 -1.36741 -3.48106 0
M  V30 7102 H 674.743 -1.28815 -6.65141 0
M  V30 7103 H 675.686 -2.80499 -6.50174 0
M  V30 7104 H 676.094 -1.40369 -5.46769 0
M  V30 7105 N 675.492 1.28418 -0.913599 0
M  V30 7106 C 676.741 1.94265 -0.542572 0
M  V30 7107 C 677.054 1.72709 0.918207 0
M  V30 7108 O 678.26 2.32778 1.39738 0
M  V30 7109 C 676.716 3.47956 -0.919507 0
M  V30 7110 C 676.324 3.78291 -2.4 0
M  V30 7111 C 678.068 4.19962 -0.619057 0
M  V30 7112 C 675.975 5.2529 -2.71707 0
M  V30 7113 H 674.905 0.727213 -0.199192 0
M  V30 7114 H 677.556 1.45931 -1.11249 0
M  V30 7115 H 675.938 3.9502 -0.278372 0
M  V30 7116 H 677.112 3.42035 -3.08786 0
M  V30 7117 H 675.427 3.19456 -2.67089 0
M  V30 7118 H 678.024 5.28178 -0.832623 0
M  V30 7119 H 678.367 4.13935 0.443126 0
M  V30 7120 H 678.9 3.78674 -1.21865 0
M  V30 7121 H 675.639 5.36394 -3.76778 0
M  V30 7122 H 675.159 5.62743 -2.07559 0
M  V30 7123 H 676.838 5.93027 -2.58703 0
M  V30 7124 N 676.97 0.677563 1.42291 0
M  V30 7125 C 677.88 0.000962654 2.346 0
M  V30 7126 C 678.896 -0.785833 1.55244 0
M  V30 7127 O 680.072 -0.727523 1.87801 0
M  V30 7128 C 677.137 -0.936746 3.33805 0
M  V30 7129 C 676.198 -0.144173 4.29058 0
M  V30 7130 C 675.431 -1.03722 5.23524 0
M  V30 7131 O 675.654 -2.27675 5.22992 0
M  V30 7132 O 674.588 -0.496542 5.99848 0
M  V30 7133 H 678.414 0.761397 2.94001 0
M  V30 7134 H 675.999 0.43781 1.42841 0
M  V30 7135 H 677.881 -1.47497 3.94744 0
M  V30 7136 H 676.556 -1.67698 2.76874 0
M  V30 7137 H 675.463 0.438224 3.71524 0
M  V30 7138 H 676.796 0.55701 4.89038 0
M  V30 7139 N 678.448 -1.51871 0.421078 0
M  V30 7140 C 679.696 -2.01539 -0.150492 0
M  V30 7141 C 680.017 -1.30803 -1.44623 0
M  V30 7142 O 679.287 -0.437568 -1.90951 0
M  V30 7143 H 677.867 -0.744698 -0.0586041 0
M  V30 7144 H 680.529 -1.8668 0.560059 0
M  V30 7145 H 679.625 -3.10264 -0.338068 0
M  V30 7146 N 679.926 -0.151884 -1.56866 0
M  V30 7147 C 680.836 0.798876 -2.20579 0
M  V30 7148 C 681.852 1.268 -1.19154 0
M  V30 7149 O 683.028 1.32418 -1.51748 0
M  V30 7150 C 680.093 2.01861 -2.81874 0
M  V30 7151 C 679.154 1.59825 -3.9844 0
M  V30 7152 C 678.387 2.75984 -4.56802 0
M  V30 7153 O 678.61 3.92331 -4.14044 0
M  V30 7154 O 677.544 2.51175 -5.46987 0
M  V30 7155 H 681.37 0.2865 -3.02346 0
M  V30 7156 H 678.955 0.0753806 -1.4921 0
M  V30 7157 H 680.837 2.73235 -3.20813 0
M  V30 7158 H 679.512 2.52042 -2.03117 0
M  V30 7159 H 678.419 0.854601 -3.64208 0
M  V30 7160 H 679.752 1.14355 -4.78731 0
M  V30 7161 N 681.404 1.57128 0.121893 0
M  V30 7162 C 682.815 1.73902 0.679348 0
M  V30 7163 C 683.166 0.770135 1.80453 0
M  V30 7164 O 682.291 -0.0576083 2.16323 0
M  V30 7165 C 682.886 3.15328 1.2391 0
M  V30 7166 C 681.445 3.33618 1.74288 0
M  V30 7167 C 680.592 2.6978 0.641414 0
M  V30 7168 H 683.543 1.58359 -0.104 0
M  V30 7169 H 683.564 3.16718 2.10879 0
M  V30 7170 H 683.076 3.85821 0.419957 0
M  V30 7171 H 681.177 2.68162 2.58689 0
M  V30 7172 H 681.29 4.4176 1.85432 0
M  V30 7173 H 679.654 2.30935 1.0743 0
M  V30 7174 H 680.437 3.42895 -0.166707 0
M  V30 7175 N 682.882 -0.391992 1.52647 0
M  V30 7176 C 684.293 -0.970064 1.5952 0
M  V30 7177 C 684.644 -1.91059 0.446207 0
M  V30 7178 O 683.769 -2.12062 -0.431125 0
M  V30 7179 C 684.364 -1.76614 2.89125 0
M  V30 7180 C 682.923 -2.29396 2.9842 0
M  V30 7181 C 682.07 -1.09864 2.54608 0
M  V30 7182 H 685.021 -0.171638 1.57769 0
M  V30 7183 H 685.042 -2.62511 2.75442 0
M  V30 7184 H 684.554 -1.08135 3.72731 0
M  V30 7185 H 682.655 -3.01196 2.19344 0
M  V30 7186 H 682.768 -2.59088 4.03002 0
M  V30 7187 H 681.132 -1.45777 2.08857 0
M  V30 7188 H 681.915 -0.429249 3.40606 0
M  V30 7189 N 684.36 -1.4356 -0.65026 0
M  V30 7190 C 685.59 -1.48563 -1.4357 0
M  V30 7191 C 685.998 -0.103041 -1.88919 0
M  V30 7192 O 685.341 0.897602 -1.60277 0
M  V30 7193 C 685.403 -2.37181 -2.70158 0
M  V30 7194 C 685.067 -3.84673 -2.4673 0
M  V30 7195 C 686.064 -4.75704 -2.09765 0
M  V30 7196 C 683.749 -4.29189 -2.60963 0
M  V30 7197 C 685.743 -6.09249 -1.87334 0
M  V30 7198 C 683.43 -5.62787 -2.38147 0
M  V30 7199 C 684.428 -6.52634 -2.01389 0
M  V30 7200 O 684.116 -7.83761 -1.78813 0
M  V30 7201 H 683.848 -0.506743 -0.447423 0
M  V30 7202 H 686.402 -1.89001 -0.80423 0
M  V30 7203 H 684.632 -1.91636 -3.35876 0
M  V30 7204 H 686.321 -2.33354 -3.32116 0
M  V30 7205 H 687.087 -4.42589 -1.98343 0
M  V30 7206 H 682.966 -3.59529 -2.88548 0
M  V30 7207 H 686.51 -6.7934 -1.58567 0
M  V30 7208 H 682.407 -5.95469 -2.49173 0
M  V30 7209 H 683.175 -7.95368 -1.93214 0
M  V30 7210 N 685.838 0.888903 -1.30139 0
M  V30 7211 C 686.768 2.01046 -1.18755 0
M  V30 7212 C 687.749 1.69916 -0.0791438 0
M  V30 7213 O 688.934 1.92445 -0.260498 0
M  V30 7214 C 686.064 3.36109 -0.874518 0
M  V30 7215 C 685.018 3.81486 -1.94043 0
M  V30 7216 C 684.344 5.13796 -1.48047 0
M  V30 7217 C 685.644 4.00637 -3.35093 0
M  V30 7218 H 687.338 2.10828 -2.12584 0
M  V30 7219 H 684.884 1.01298 -1.02346 0
M  V30 7220 H 686.837 4.14089 -0.781548 0
M  V30 7221 H 685.561 3.26449 0.0994519 0
M  V30 7222 H 684.22 3.05731 -2.02297 0
M  V30 7223 H 683.868 5.0056 -0.494878 0
M  V30 7224 H 683.568 5.45127 -2.19341 0
M  V30 7225 H 685.092 5.94305 -1.40121 0
M  V30 7226 H 686.506 4.69067 -3.2962 0
M  V30 7227 H 684.903 4.43339 -4.04438 0
M  V30 7228 H 685.973 3.0462 -3.77273 0
M  V30 7229 N 687.317 1.12792 1.10072 0
M  V30 7230 C 688.265 0.794523 2.18609 0
M  V30 7231 C 689.259 -0.220271 1.67962 0
M  V30 7232 O 690.465 -0.0780938 1.79831 0
M  V30 7233 H 686.84 0.239123 0.712969 0
M  V30 7234 H 688.811 1.71823 2.43966 0
M  V30 7235 C 687.56 0.269548 3.46654 0
M  V30 7236 H 686.883 1.04171 3.8599 0
M  V30 7237 H 688.323 0.0746242 4.23934 0
M  V30 7238 C 686.782 -1.00333 3.21613 0
M  V30 7239 O 687.312 -2.08042 3.4363 0
M  V30 7240 N 685.518 -0.931763 2.75257 0
M  V30 7241 H 685.065 -0.0551197 2.57541 0
M  V30 7242 H 685.023 -1.78405 2.58881 0
M  V30 7243 N 688.795 -1.27931 0.920396 0
M  V30 7244 C 689.705 -2.30824 0.419212 0
M  V30 7245 C 690.721 -1.66767 -0.496461 0
M  V30 7246 O 691.897 -1.97763 -0.38104 0
M  V30 7247 C 688.962 -3.45158 -0.326601 0
M  V30 7248 C 688.023 -4.24754 0.623098 0
M  V30 7249 C 687.256 -5.33629 -0.0872172 0
M  V30 7250 O 687.479 -5.55204 -1.30784 0
M  V30 7251 O 686.413 -5.99091 0.580875 0
M  V30 7252 H 690.239 -2.75716 1.27337 0
M  V30 7253 H 687.824 -1.32747 0.685465 0
M  V30 7254 H 689.706 -4.14716 -0.747559 0
M  V30 7255 H 688.381 -3.02336 -1.15648 0
M  V30 7256 H 687.288 -3.57759 1.09359 0
M  V30 7257 H 688.621 -4.71272 1.41998 0
M  V30 7258 N 690.273 -0.685099 -1.4193 0
M  V30 7259 C 691.221 -0.00165985 -2.326 0
M  V30 7260 C 692.215 0.779678 -1.50391 0
M  V30 7261 O 693.421 0.68648 -1.66395 0
M  V30 7262 H 689.796 0.0182616 -0.751778 0
M  V30 7263 H 691.767 -0.783592 -2.87928 0
M  V30 7264 C 690.516 0.928385 -3.35077 0
M  V30 7265 H 689.839 0.336578 -3.98381 0
M  V30 7266 H 691.279 1.37509 -4.01083 0
M  V30 7267 C 689.738 2.03964 -2.68142 0
M  V30 7268 O 690.268 3.12727 -2.5212 0
M  V30 7269 N 688.474 1.81433 -2.27003 0
M  V30 7270 H 688.021 0.929807 -2.40234 0
M  V30 7271 H 687.979 2.55973 -1.82552 0
M  V30 7272 N 691.751 1.51645 -0.429126 0
M  V30 7273 C 693.162 1.86665 0.0359003 0
M  V30 7274 C 693.513 1.34677 1.42676 0
M  V30 7275 O 692.638 0.694195 2.04963 0
M  V30 7276 C 693.233 3.38724 0.0719221 0
M  V30 7277 C 691.792 3.7331 0.481336 0
M  V30 7278 C 690.939 2.75313 -0.331329 0
M  V30 7279 H 693.89 1.44987 -0.645333 0
M  V30 7280 H 693.911 3.7011 0.883118 0
M  V30 7281 H 693.423 3.76532 -0.940495 0
M  V30 7282 H 691.524 3.41088 1.49966 0
M  V30 7283 H 691.637 4.78631 0.211837 0
M  V30 7284 H 690.001 2.53839 0.209204 0
M  V30 7285 H 690.784 3.15963 -1.34247 0
M  V30 7286 N 693.229 0.160201 1.56784 0
M  V30 7287 C 694.159 -0.770264 2.2043 0
M  V30 7288 C 695.14 -1.24736 1.15651 0
M  V30 7289 O 696.325 -1.30253 1.44041 0
M  V30 7290 C 693.455 -2.00427 2.83631 0
M  V30 7291 C 692.409 -1.66345 3.94352 0
M  V30 7292 C 691.735 -2.97119 4.4455 0
M  V30 7293 C 693.035 -0.899972 5.14488 0
M  V30 7294 H 694.729 -0.239783 2.98438 0
M  V30 7295 H 692.275 -0.113891 1.43549 0
M  V30 7296 H 694.228 -2.66012 3.26827 0
M  V30 7297 H 692.952 -2.5587 2.02973 0
M  V30 7298 H 691.611 -1.03133 3.51794 0
M  V30 7299 H 691.259 -3.5058 3.60698 0
M  V30 7300 H 690.959 -2.75073 5.19238 0
M  V30 7301 H 692.483 -3.63753 4.90425 0
M  V30 7302 H 693.897 -1.45818 5.54446 0
M  V30 7303 H 692.294 -0.778968 5.95023 0
M  V30 7304 H 693.364 0.105827 4.84785 0
M  V30 7305 N 694.707 -1.5719 -0.113559 0
M  V30 7306 C 696.123 -1.52607 -0.467253 0
M  V30 7307 C 696.323 -0.874058 -1.81556 0
M  V30 7308 O 695.379 -0.458703 -2.48299 0
M  V30 7309 C 696.692 -2.97363 -0.446736 0
M  V30 7310 C 698.24 -3.08482 -0.529903 0
M  V30 7311 C 698.715 -4.54809 -0.539721 0
M  V30 7312 N 700.206 -4.59284 -0.601005 0
M  V30 7313 C 700.941 -5.69927 -0.630138 0
M  V30 7314 N 700.437 -6.90051 -0.616589 0
M  V30 7315 N 702.23 -5.5805 -0.673558 0
M  V30 7316 H 694.381 -1.97958 0.769819 0
M  V30 7317 H 696.644 -0.90428 0.284572 0
M  V30 7318 H 696.35 -3.48458 0.47643 0
M  V30 7319 H 696.224 -3.55086 -1.27254 0
M  V30 7320 H 698.611 -2.57386 -1.44349 0
M  V30 7321 H 698.692 -2.53744 0.323695 0
M  V30 7322 H 698.336 -5.06552 0.369843 0
M  V30 7323 H 698.266 -5.07364 -1.41028 0
M  V30 7324 H 700.757 -3.72822 -0.617419 0
M  V30 7325 H 701.07 -7.70132 -0.641592 0
M  V30 7326 H 699.415 -6.92543 -0.583927 0
M  V30 7327 H 702.606 -4.63112 -0.681544 0
M  V30 7328 H 702.779 -6.44286 -0.692794 0
M  V30 7329 N 696.185 0.383891 -1.52853 0
M  V30 7330 C 697.148 1.45197 -1.77343 0
M  V30 7331 C 698.148 1.47362 -0.643522 0
M  V30 7332 O 699.338 1.48443 -0.911613 0
M  V30 7333 C 696.47 2.8445 -1.87885 0
M  V30 7334 H 697.663 1.24764 -2.72716 0
M  V30 7335 H 695.216 0.615939 -1.43652 0
M  V30 7336 H 695.951 3.10222 -0.94515 0
M  V30 7337 H 695.736 2.8428 -2.70051 0
M  V30 7338 H 697.226 3.61832 -2.08488 0
M  V30 7339 N 697.663 1.43903 0.642637 0
M  V30 7340 C 698.593 1.52697 1.76652 0
M  V30 7341 C 699.574 0.380816 1.65782 0
M  V30 7342 O 700.759 0.599432 1.84717 0
M  V30 7343 C 697.889 1.45975 3.15133 0
M  V30 7344 C 696.843 2.58949 3.40778 0
M  V30 7345 C 696.169 2.37279 4.79169 0
M  V30 7346 C 697.469 4.01153 3.34475 0
M  V30 7347 H 699.163 2.46766 1.69549 0
M  V30 7348 H 696.709 1.18767 0.814279 0
M  V30 7349 H 698.662 1.5073 3.93521 0
M  V30 7350 H 697.386 0.484162 3.22991 0
M  V30 7351 H 696.045 2.53564 2.64765 0
M  V30 7352 H 695.693 1.37939 4.83717 0
M  V30 7353 H 695.393 3.13016 4.97287 0
M  V30 7354 H 696.917 2.43834 5.59801 0
M  V30 7355 H 698.331 4.07968 4.02784 0
M  V30 7356 H 696.728 4.77001 3.64129 0
M  V30 7357 H 697.798 4.25539 2.32475 0
M  V30 7358 N 699.141 -0.881989 1.30609 0
M  V30 7359 C 700.371 -1.66469 1.22359 0
M  V30 7360 C 700.779 -1.87969 -0.215507 0
M  V30 7361 O 700.122 -1.42938 -1.15388 0
M  V30 7362 C 700.184 -3.06135 1.88472 0
M  V30 7363 C 699.848 -3.07795 3.37804 0
M  V30 7364 C 700.845 -2.86633 4.33749 0
M  V30 7365 C 698.53 -3.29297 3.793 0
M  V30 7366 C 700.524 -2.86934 5.69164 0
M  V30 7367 C 698.211 -3.29228 5.14832 0
M  V30 7368 C 699.209 -3.08071 6.09574 0
M  V30 7369 O 698.897 -3.07824 7.4263 0
M  V30 7370 H 698.629 -0.526129 0.424458 0
M  V30 7371 H 701.183 -1.11004 1.72821 0
M  V30 7372 H 699.413 -3.63276 1.32543 0
M  V30 7373 H 701.102 -3.66571 1.74301 0
M  V30 7374 H 701.868 -2.69814 4.0302 0
M  V30 7375 H 697.747 -3.44799 3.05998 0
M  V30 7376 H 701.291 -2.70339 6.43088 0
M  V30 7377 H 697.188 -3.45583 5.452 0
M  V30 7378 H 697.956 -3.2397 7.51656 0
M  V30 7379 N 700.619 -1.13374 -1.09472 0
M  V30 7380 C 701.549 -0.833268 -2.18126 0
M  V30 7381 C 702.53 0.207169 -1.68834 0
M  V30 7382 O 703.715 0.0662012 -1.94087 0
M  V30 7383 C 700.845 -0.297979 -3.46019 0
M  V30 7384 C 699.799 -1.27261 -4.08642 0
M  V30 7385 C 699.125 -0.597104 -5.31356 0
M  V30 7386 C 700.425 -2.63095 -4.51197 0
M  V30 7387 H 702.119 -1.74182 -2.43518 0
M  V30 7388 H 699.665 -0.838921 -1.17039 0
M  V30 7389 H 701.618 -0.0754444 -4.21332 0
M  V30 7390 H 700.342 0.645959 -3.20148 0
M  V30 7391 H 699.001 -1.48113 -3.35348 0
M  V30 7392 H 698.649 0.352293 -5.01765 0
M  V30 7393 H 698.349 -1.24734 -5.74208 0
M  V30 7394 H 699.873 -0.38384 -6.09392 0
M  V30 7395 H 701.287 -2.46214 -5.17737 0
M  V30 7396 H 699.684 -3.2429 -5.04932 0
M  V30 7397 H 700.754 -3.20793 -3.6362 0
M  V30 7398 N 702.098 1.27442 -0.927168 0
M  V30 7399 C 703.347 1.93679 -0.563146 0
M  V30 7400 C 703.66 1.73673 0.899837 0
M  V30 7401 O 704.866 2.34247 1.37262 0
M  V30 7402 C 703.322 3.46961 -0.95636 0
M  V30 7403 C 702.93 3.75724 -2.43999 0
M  V30 7404 C 704.674 4.19282 -0.663565 0
M  V30 7405 C 702.581 5.22378 -2.77263 0
M  V30 7406 H 701.511 0.725059 -0.206894 0
M  V30 7407 H 704.162 1.44743 -1.12791 0
M  V30 7408 H 702.544 3.94703 -0.320254 0
M  V30 7409 H 703.718 3.38741 -3.12396 0
M  V30 7410 H 702.033 3.16605 -2.70463 0
M  V30 7411 H 704.63 5.27265 -0.888596 0
M  V30 7412 H 704.973 4.14382 0.399198 0
M  V30 7413 H 705.506 3.7736 -1.25875 0
M  V30 7414 H 702.245 5.32367 -3.82446 0
M  V30 7415 H 701.765 5.6051 -2.13516 0
M  V30 7416 H 703.444 5.9025 -2.64979 0
M  V30 7417 N 703.576 0.692616 1.41565 0
M  V30 7418 C 704.539 0.0344174 2.29174 0
M  V30 7419 C 705.539 -0.710961 1.44229 0
M  V30 7420 O 706.729 -0.546293 1.65412 0
M  V30 7421 C 703.861 -0.961682 3.27054 0
M  V30 7422 H 705.054 0.805755 2.88873 0
M  V30 7423 H 702.607 0.455947 1.49502 0
M  V30 7424 H 703.342 -1.76089 2.72329 0
M  V30 7425 H 703.127 -0.430375 3.89731 0
M  V30 7426 H 704.617 -1.4201 3.92712 0
M  V30 7427 N 705.054 -1.51416 0.437162 0
M  V30 7428 C 706.282 -2.06503 -0.128045 0
M  V30 7429 C 706.697 -1.30461 -1.36475 0
M  V30 7430 O 706.054 -0.364127 -1.78831 0
M  V30 7431 C 706.105 -3.58683 -0.450437 0
M  V30 7432 O 705.826 -4.31853 0.737186 0
M  V30 7433 C 707.327 -4.30284 -1.06633 0
M  V30 7434 H 704.547 -0.670952 -0.00800269 0
M  V30 7435 H 707.091 -1.94996 0.616193 0
M  V30 7436 H 705.246 -3.70106 -1.14457 0
M  V30 7437 H 705.66 -5.22467 0.461347 0
M  V30 7438 H 707.134 -5.37848 -1.24191 0
M  V30 7439 H 707.611 -3.88564 -2.0473 0
M  V30 7440 H 708.217 -4.23304 -0.411585 0
M  V30 7441 N 706.532 -0.168513 -1.56696 0
M  V30 7442 C 707.48 0.779791 -2.19139 0
M  V30 7443 C 708.474 1.23957 -1.1546 0
M  V30 7444 O 709.68 1.20555 -1.33666 0
M  V30 7445 H 706.055 0.269739 -0.701958 0
M  V30 7446 H 708.026 0.229156 -2.97519 0
M  V30 7447 C 706.775 2.00003 -2.84419 0
M  V30 7448 H 706.098 1.65527 -3.63924 0
M  V30 7449 H 707.538 2.64251 -3.31583 0
M  V30 7450 C 705.997 2.82187 -1.84044 0
M  V30 7451 O 706.527 3.79247 -1.32418 0
M  V30 7452 N 704.733 2.47145 -1.52864 0
M  V30 7453 H 704.28 1.68277 -1.9504 0
M  V30 7454 H 704.238 3.02422 -0.859569 0
M  V30 7455 N 708.01 1.57248 0.105221 0
M  V30 7456 C 709.258 1.85204 0.808951 0
M  V30 7457 C 709.579 0.75574 1.7976 0
M  V30 7458 O 708.849 -0.218984 1.94672 0
M  V30 7459 H 707.429 0.683346 0.301739 0
M  V30 7460 H 710.091 1.94695 0.0892605 0
M  V30 7461 H 709.187 2.81595 1.34575 0
M  V30 7462 N 709.488 -0.375779 1.53054 0
M  V30 7463 C 710.716 -1.14036 1.72637 0
M  V30 7464 C 711.131 -1.83342 0.450687 0
M  V30 7465 O 710.488 -1.7318 -0.575749 0
M  V30 7466 C 710.539 -2.17841 2.88492 0
M  V30 7467 O 710.26 -1.51358 4.11123 0
M  V30 7468 C 711.761 -3.06924 3.19863 0
M  V30 7469 H 708.981 -0.341386 0.577665 0
M  V30 7470 H 711.525 -0.437809 1.99759 0
M  V30 7471 H 709.68 -2.8371 2.63794 0
M  V30 7472 H 710.094 -2.20439 4.75928 0
M  V30 7473 H 711.568 -3.75763 4.04359 0
M  V30 7474 H 712.045 -3.71169 2.34798 0
M  V30 7475 H 712.651 -2.46684 3.46449 0
M  V30 7476 N 710.966 -1.44241 -0.634997 0
M  V30 7477 C 712.377 -1.41622 -1.21655 0
M  V30 7478 C 712.728 -0.129584 -1.95772 0
M  V30 7479 O 711.853 0.770225 -2.02229 0
M  V30 7480 C 712.448 -2.56557 -2.21278 0
M  V30 7481 C 711.007 -2.57145 -2.7487 0
M  V30 7482 C 710.154 -2.33354 -1.49804 0
M  V30 7483 H 713.105 -1.52878 -0.425905 0
M  V30 7484 H 713.126 -2.29089 -3.03807 0
M  V30 7485 H 712.638 -3.50186 -1.67306 0
M  V30 7486 H 710.739 -1.67447 -3.32855 0
M  V30 7487 H 710.852 -3.55507 -3.21172 0
M  V30 7488 H 709.216 -1.82372 -1.77799 0
M  V30 7489 H 709.999 -3.29092 -0.977402 0
M  V30 7490 N 712.444 0.87505 -1.31075 0
M  V30 7491 C 713.354 2.01441 -1.20244 0
M  V30 7492 C 714.37 1.73584 -0.120227 0
M  V30 7493 O 715.546 1.98559 -0.337063 0
M  V30 7494 C 712.611 3.34675 -0.905199 0
M  V30 7495 C 711.672 3.75889 -2.0738 0
M  V30 7496 C 710.905 5.02764 -1.79064 0
M  V30 7497 O 711.128 5.65795 -0.723318 0
M  V30 7498 O 710.062 5.40623 -2.64594 0
M  V30 7499 H 713.888 2.13509 -2.1598 0
M  V30 7500 H 711.473 1.00257 -1.10765 0
M  V30 7501 H 713.355 4.1458 -0.755057 0
M  V30 7502 H 712.03 3.23692 0.0221695 0
M  V30 7503 H 710.937 2.96645 -2.27931 0
M  V30 7504 H 712.27 3.91489 -2.98324 0
M  V30 7505 N 713.922 1.13953 1.08869 0
M  V30 7506 C 714.852 0.844824 2.17681 0
M  V30 7507 C 715.833 -0.198213 1.68941 0
M  V30 7508 O 717.018 -0.0559073 1.9412 0
M  V30 7509 C 714.148 0.316325 3.45856 0
M  V30 7510 C 713.102 1.29426 4.07962 0
M  V30 7511 C 712.428 0.625275 5.31031 0
M  V30 7512 C 713.728 2.65484 4.49795 0
M  V30 7513 H 715.422 1.75471 2.42591 0
M  V30 7514 H 712.968 0.845116 1.16592 0
M  V30 7515 H 714.921 0.0977876 4.21287 0
M  V30 7516 H 713.645 -0.628972 3.20486 0
M  V30 7517 H 712.304 1.49889 3.34558 0
M  V30 7518 H 711.952 -0.325678 5.01945 0
M  V30 7519 H 711.652 1.27777 5.73539 0
M  V30 7520 H 713.176 0.416152 6.0918 0
M  V30 7521 H 714.59 2.48957 5.16424 0
M  V30 7522 H 712.987 3.26963 5.03205 0
M  V30 7523 H 714.057 3.22717 3.61914 0
M  V30 7524 N 715.4 -1.26948 0.933913 0
M  V30 7525 C 716.332 -2.25768 0.395137 0
M  V30 7526 C 717.345 -1.55637 -0.477585 0
M  V30 7527 O 718.534 -1.76142 -0.289204 0
M  V30 7528 C 715.634 -3.35874 -0.451882 0
M  V30 7529 C 714.807 -4.3554 0.40299 0
M  V30 7530 C 713.866 -5.24809 -0.3824 0
M  V30 7531 O 712.892 -5.68805 0.212057 0
M  V30 7532 N 714.094 -5.55636 -1.68072 0
M  V30 7533 H 716.859 -2.72634 1.24463 0
M  V30 7534 H 714.42 -1.40639 0.802008 0
M  V30 7535 H 716.412 -3.92542 -0.984516 0
M  V30 7536 H 714.982 -2.8856 -1.20215 0
M  V30 7537 H 714.202 -3.78047 1.11688 0
M  V30 7538 H 715.49 -4.99131 0.987201 0
M  V30 7539 H 714.888 -5.2176 -2.18592 0
M  V30 7540 H 713.445 -6.14978 -2.15975 0
M  V30 7541 N 716.879 -0.700114 -1.41195 0
M  V30 7542 C 717.827 -0.0263301 -2.32585 0
M  V30 7543 C 718.821 0.763683 -1.51209 0
M  V30 7544 O 720.027 0.668793 -1.67114 0
M  V30 7545 H 716.402 0.0102869 -0.75193 0
M  V30 7546 H 718.373 -0.814087 -2.8708 0
M  V30 7547 C 717.122 0.892793 -3.36042 0
M  V30 7548 H 716.445 0.294306 -3.98715 0
M  V30 7549 H 717.885 1.33247 -4.02518 0
M  V30 7550 C 716.344 2.01109 -2.7029 0
M  V30 7551 O 716.874 3.10035 -2.55423 0
M  V30 7552 N 715.08 1.79015 -2.28915 0
M  V30 7553 H 714.627 0.904275 -2.41207 0
M  V30 7554 H 714.585 2.54022 -1.85257 0
M  V30 7555 N 718.357 1.51182 -0.445186 0
M  V30 7556 C 719.768 1.86693 0.0160999 0
M  V30 7557 C 720.119 1.36183 1.4124 0
M  V30 7558 O 719.244 0.715895 2.04215 0
M  V30 7559 C 719.839 3.38781 0.0359918 0
M  V30 7560 C 718.398 3.73799 0.441715 0
M  V30 7561 C 717.545 2.74947 -0.360511 0
M  V30 7562 H 720.496 1.44294 -0.660674 0
M  V30 7563 H 720.517 3.71026 0.843813 0
M  V30 7564 H 720.029 3.75513 -0.980378 0
M  V30 7565 H 718.13 3.42659 1.4634 0
M  V30 7566 H 718.243 4.78829 0.16106 0
M  V30 7567 H 716.607 2.54047 0.182269 0
M  V30 7568 H 717.39 3.14521 -1.3759 0
M  V30 7569 N 719.835 0.176821 1.56605 0
M  V30 7570 C 720.745 -0.763682 2.21822 0
M  V30 7571 C 721.761 -1.24889 1.21156 0
M  V30 7572 O 722.937 -1.29987 1.53836 0
M  V30 7573 C 720.002 -1.97352 2.8505 0
M  V30 7574 C 719.063 -1.53466 4.00932 0
M  V30 7575 C 718.296 -2.68682 4.61135 0
M  V30 7576 O 718.519 -3.85694 4.20234 0
M  V30 7577 O 717.453 -2.42442 5.50913 0
M  V30 7578 H 721.279 -0.238363 3.02763 0
M  V30 7579 H 718.864 -0.0516331 1.49311 0
M  V30 7580 H 720.746 -2.68096 3.25119 0
M  V30 7581 H 719.421 -2.48779 2.07101 0
M  V30 7582 H 718.328 -0.796551 3.65521 0
M  V30 7583 H 719.661 -1.06724 4.8049 0
M  V30 7584 N 721.313 -1.57302 -0.09688 0
M  V30 7585 C 722.26 -2.01933 -1.11766 0
M  V30 7586 C 723.23 -0.895329 -1.39904 0
M  V30 7587 O 724.415 -1.16119 -1.51397 0
M  V30 7588 C 721.555 -2.44726 -2.43317 0
M  V30 7589 C 720.668 -3.70639 -2.21925 0
M  V30 7590 C 719.803 -4.02318 -3.46862 0
M  V30 7591 C 718.842 -5.21346 -3.20725 0
M  V30 7592 N 717.979 -5.48787 -4.37924 0
M  V30 7593 H 722.819 -2.88919 -0.730075 0
M  V30 7594 H 720.356 -1.42901 -0.348962 0
M  V30 7595 H 722.314 -2.6758 -3.20088 0
M  V30 7596 H 720.944 -1.60753 -2.79926 0
M  V30 7597 H 719.996 -3.55271 -1.35965 0
M  V30 7598 H 721.308 -4.57557 -1.98603 0
M  V30 7599 H 720.462 -4.25939 -4.32042 0
M  V30 7600 H 719.201 -3.13918 -3.73238 0
M  V30 7601 H 718.206 -4.97547 -2.33938 0
M  V30 7602 H 719.431 -6.11343 -2.95697 0
M  V30 7603 H 717.377 -4.63346 -4.64378 0
M  V30 7604 H 717.294 -6.30073 -4.17785 0
M  V30 7605 H 718.562 -5.76943 -5.24173 0
M  V30 7606 N 722.791 0.367657 -1.53252 0
M  V30 7607 C 723.721 1.45632 -1.8252 0
M  V30 7608 C 724.702 1.55979 -0.678568 0
M  V30 7609 O 725.887 1.70581 -0.928217 0
M  V30 7610 C 723.017 2.82994 -2.01325 0
M  V30 7611 C 721.971 2.87473 -3.17086 0
M  V30 7612 C 721.297 4.2749 -3.21179 0
M  V30 7613 C 722.597 2.55182 -4.55719 0
M  V30 7614 H 724.291 1.21387 -2.73689 0
M  V30 7615 H 721.837 0.58251 -1.31692 0
M  V30 7616 H 723.79 3.59179 -2.20383 0
M  V30 7617 H 722.514 3.08622 -1.06864 0
M  V30 7618 H 721.173 2.13739 -2.97844 0
M  V30 7619 H 720.821 4.5019 -2.24361 0
M  V30 7620 H 720.521 4.31403 -3.98955 0
M  V30 7621 H 722.045 5.0555 -3.42419 0
M  V30 7622 H 723.459 3.21081 -4.74953 0
M  V30 7623 H 721.856 2.70414 -5.3572 0
M  V30 7624 H 722.926 1.5044 -4.60973 0
M  V30 7625 N 724.269 1.44576 0.627338 0
M  V30 7626 C 725.494 1.51271 1.41887 0
M  V30 7627 C 725.919 0.139814 1.8758 0
M  V30 7628 O 725.277 -0.871746 1.58966 0
M  V30 7629 C 725.325 2.48529 2.61277 0
M  V30 7630 O 724.429 1.98944 3.61241 0
M  V30 7631 H 723.77 0.510668 0.424399 0
M  V30 7632 H 726.3 1.89746 0.765356 0
M  V30 7633 H 726.31 2.66689 3.08773 0
M  V30 7634 H 724.985 3.48249 2.27366 0
M  V30 7635 H 723.562 1.90568 3.20528 0
M  V30 7636 N 725.747 -0.868086 1.31537 0
M  V30 7637 C 726.71 -1.95703 1.19302 0
M  V30 7638 C 727.71 -1.60355 0.119612 0
M  V30 7639 O 728.9 -1.70247 0.36902 0
M  V30 7640 C 726.032 -3.30599 0.831684 0
M  V30 7641 H 727.225 -2.07982 2.16064 0
M  V30 7642 H 724.778 -1.05661 1.15176 0
M  V30 7643 H 725.513 -3.2402 -0.134694 0
M  V30 7644 H 725.298 -3.57629 1.60761 0
M  V30 7645 H 726.788 -4.10439 0.770026 0
M  V30 7646 N 727.225 -1.14528 -1.08264 0
M  V30 7647 C 728.474 -0.908992 -1.80056 0
M  V30 7648 C 728.787 0.565859 -1.87236 0
M  V30 7649 O 729.993 0.919454 -2.55457 0
M  V30 7650 C 728.449 -1.57681 -3.23519 0
M  V30 7651 C 728.057 -3.08803 -3.24569 0
M  V30 7652 C 729.801 -1.4217 -3.99985 0
M  V30 7653 C 727.708 -3.68414 -4.62629 0
M  V30 7654 H 726.638 -0.336432 -0.674781 0
M  V30 7655 H 729.289 -1.37437 -1.21587 0
M  V30 7656 H 727.671 -1.03911 -3.82124 0
M  V30 7657 H 728.845 -3.69252 -2.75663 0
M  V30 7658 H 727.16 -3.23968 -2.61598 0
M  V30 7659 H 729.757 -1.84106 -5.02005 0
M  V30 7660 H 730.1 -0.367989 -4.1467 0
M  V30 7661 H 730.633 -1.92984 -3.47853 0
M  V30 7662 H 727.372 -4.73644 -4.53147 0
M  V30 7663 H 726.892 -3.12746 -5.11811 0
M  V30 7664 H 728.571 -3.68793 -5.31602 0
M  V30 7665 N 728.703 1.26451 -0.940633 0
M  V30 7666 C 729.95 1.93778 -0.587909 0
M  V30 7667 C 730.278 1.73811 0.872935 0
M  V30 7668 O 729.533 1.06816 1.63978 0
M  V30 7669 C 729.832 3.46503 -0.875794 0
M  V30 7670 C 729.498 3.86609 -2.32043 0
M  V30 7671 C 728.16 3.97269 -2.71534 0
M  V30 7672 C 730.512 4.0672 -3.25927 0
M  V30 7673 C 727.84 4.25436 -4.04006 0
M  V30 7674 C 730.192 4.36375 -4.57995 0
M  V30 7675 C 728.856 4.45249 -4.97302 0
M  V30 7676 H 728.126 0.709084 -0.215131 0
M  V30 7677 H 730.773 1.50272 -1.18704 0
M  V30 7678 H 729.078 3.91319 -0.194124 0
M  V30 7679 H 730.775 3.96759 -0.581665 0
M  V30 7680 H 727.365 3.78858 -2.00411 0
M  V30 7681 H 731.549 3.97912 -2.96614 0
M  V30 7682 H 726.805 4.30519 -4.34124 0
M  V30 7683 H 730.979 4.50882 -5.30734 0
M  V30 7684 H 728.606 4.66829 -5.99979 0
M  V30 7685 N 730.181 0.707592 1.40822 0
M  V30 7686 C 731.597 0.38034 1.55002 0
M  V30 7687 C 731.797 -1.11163 1.68062 0
M  V30 7688 O 730.853 -1.89761 1.66574 0
M  V30 7689 C 732.166 1.1394 2.78277 0
M  V30 7690 C 733.714 1.12492 2.92087 0
M  V30 7691 C 734.189 1.86597 4.18265 0
M  V30 7692 N 735.68 1.83626 4.25248 0
M  V30 7693 C 736.415 2.37794 5.21768 0
M  V30 7694 N 735.911 3.00485 6.24244 0
M  V30 7695 N 737.704 2.27982 5.13791 0
M  V30 7696 H 729.855 1.67511 1.3059 0
M  V30 7697 H 732.118 0.707579 0.630901 0
M  V30 7698 H 731.824 2.19398 2.74877 0
M  V30 7699 H 731.698 0.725793 3.70151 0
M  V30 7700 H 734.085 0.0785564 2.94995 0
M  V30 7701 H 734.166 1.57768 2.01353 0
M  V30 7702 H 733.81 2.91219 4.16118 0
M  V30 7703 H 733.74 1.38746 5.07993 0
M  V30 7704 H 736.231 1.3793 3.51829 0
M  V30 7705 H 736.544 3.39355 6.94304 0
M  V30 7706 H 734.889 3.04567 6.24711 0
M  V30 7707 H 738.08 1.78669 4.3266 0
M  V30 7708 H 738.253 2.70499 5.88841 0
M  V30 7709 N 731.66 -1.50943 0.453197 0
M  V30 7710 C 732.937 -1.94872 -0.168633 0
M  V30 7711 C 733.317 -1.39272 -1.5864 0
M  V30 7712 O 732.665 -0.586272 -2.20851 0
M  V30 7713 C 732.875 -3.48757 -0.130217 0
M  V30 7714 C 734.223 -4.23331 -0.327975 0
M  V30 7715 O 735.247 -3.55594 -0.207619 0
M  V30 7716 O 734.106 -5.43529 -0.569077 0
M  V30 7717 H 731.2 -0.818042 -0.121394 0
M  V30 7718 H 733.746 -1.61782 0.512316 0
M  V30 7719 H 732.518 -3.81725 0.860346 0
M  V30 7720 H 732.141 -3.88333 -0.853397 0
M  V30 7721 N 733.138 -0.185124 -1.56509 0
M  V30 7722 C 734.385 0.456258 -1.97293 0
M  V30 7723 C 734.713 1.62314 -1.07165 0
M  V30 7724 O 733.968 1.95398 -0.108621 0
M  V30 7725 C 734.267 0.967977 -3.44042 0
M  V30 7726 C 733.933 -0.084476 -4.50821 0
M  V30 7727 C 732.595 -0.373689 -4.79747 0
M  V30 7728 C 734.947 -0.79812 -5.15053 0
M  V30 7729 C 732.275 -1.3817 -5.70198 0
M  V30 7730 C 734.627 -1.79521 -6.06593 0
M  V30 7731 C 733.291 -2.09172 -6.3388 0
M  V30 7732 H 732.561 0.166957 -0.721946 0
M  V30 7733 H 735.208 -0.279992 -1.89442 0
M  V30 7734 H 733.513 1.78231 -3.48914 0
M  V30 7735 H 735.21 1.47347 -3.72948 0
M  V30 7736 H 731.8 0.15111 -4.28334 0
M  V30 7737 H 735.984 -0.587903 -4.92806 0
M  V30 7738 H 731.24 -1.61745 -5.89617 0
M  V30 7739 H 735.414 -2.35347 -6.55427 0
M  V30 7740 H 733.041 -2.87427 -7.03768 0
M  V30 7741 N 734.616 1.57351 0.0885366 0
M  V30 7742 C 735.546 2.05561 1.10757 0
M  V30 7743 C 736.527 0.945789 1.41382 0
M  V30 7744 O 737.712 1.21747 1.51299 0
M  V30 7745 C 734.842 2.48554 2.42566 0
M  V30 7746 C 733.796 3.63259 2.26334 0
M  V30 7747 C 733.122 3.9225 3.63378 0
M  V30 7748 C 734.422 4.93913 1.69844 0
M  V30 7749 H 736.116 2.90946 0.706468 0
M  V30 7750 H 733.662 1.39968 0.338385 0
M  V30 7751 H 735.615 2.8089 3.14132 0
M  V30 7752 H 734.339 1.60176 2.84625 0
M  V30 7753 H 732.998 3.31179 1.57213 0
M  V30 7754 H 732.646 3.0103 4.02976 0
M  V30 7755 H 732.346 4.69478 3.53362 0
M  V30 7756 H 733.87 4.27067 4.36401 0
M  V30 7757 H 735.284 5.24588 2.31258 0
M  V30 7758 H 733.681 5.75349 1.70569 0
M  V30 7759 H 734.751 4.80409 0.65843 0
M  V30 7760 N 736.094 -0.359525 1.53444 0
M  V30 7761 C 737.042 -1.46104 1.80987 0
M  V30 7762 C 738.036 -1.55181 0.679351 0
M  V30 7763 O 739.242 -1.57995 0.862405 0
M  V30 7764 H 735.617 -0.486835 0.573145 0
M  V30 7765 H 737.588 -1.2008 2.73173 0
M  V30 7766 C 736.337 -2.82855 2.02208 0
M  V30 7767 H 735.66 -2.76631 2.88644 0
M  V30 7768 H 737.1 -3.59091 2.25455 0
M  V30 7769 C 735.559 -3.27192 0.802931 0
M  V30 7770 O 736.089 -4.017 -0.00544286 0
M  V30 7771 N 734.295 -2.83807 0.624657 0
M  V30 7772 H 733.842 -2.23339 1.28364 0
M  V30 7773 H 733.8 -3.13828 -0.189641 0
M  V30 7774 N 737.572 -1.44907 -0.619662 0
M  V30 7775 C 738.988 -1.29046 -0.939107 0
M  V30 7776 C 739.188 -0.23462 -2.00129 0
M  V30 7777 O 738.244 0.37558 -2.49691 0
M  V30 7778 C 739.557 -2.66567 -1.39149 0
M  V30 7779 C 741.105 -2.74368 -1.50635 0
M  V30 7780 C 741.58 -4.12386 -1.99253 0
M  V30 7781 N 743.071 -4.1462 -2.06506 0
M  V30 7782 C 743.806 -5.18272 -2.4532 0
M  V30 7783 N 743.302 -6.32278 -2.83189 0
M  V30 7784 N 745.095 -5.05628 -2.45554 0
M  V30 7785 H 737.246 -2.12239 0.0826135 0
M  V30 7786 H 739.509 -0.947652 -0.0256829 0
M  V30 7787 H 739.215 -3.4496 -0.685254 0
M  V30 7788 H 739.089 -2.94224 -2.36034 0
M  V30 7789 H 741.476 -1.96287 -2.20353 0
M  V30 7790 H 741.557 -2.50439 -0.520963 0
M  V30 7791 H 741.201 -4.90947 -1.30127 0
M  V30 7792 H 741.131 -4.33699 -2.98684 0
M  V30 7793 H 743.622 -3.32343 -1.79878 0
M  V30 7794 H 743.935 -7.07172 -3.11652 0
M  V30 7795 H 742.28 -6.35699 -2.80913 0
M  V30 7796 H 745.471 -4.15613 -2.15367 0
M  V30 7797 H 745.644 -5.86529 -2.75478 0
M  V30 7798 N 739.05 0.861098 -1.31996 0
M  V30 7799 C 740.29 1.62873 -1.23498 0
M  V30 7800 C 740.654 1.90938 0.201692 0
M  V30 7801 O 741.855 2.6565 0.410305 0
M  V30 7802 C 740.126 2.91759 -2.06426 0
M  V30 7803 S 741.685 3.82583 -2.14885 0
M  V30 7804 H 738.503 0.558726 -0.439712 0
M  V30 7805 H 741.105 1.02025 -1.66767 0
M  V30 7806 H 739.809 2.69077 -3.0988 0
M  V30 7807 H 739.34 3.57627 -1.6391 0
M  V30 7808 H 741.355 4.7904 -1.29364 0
M  V30 7809 N 740.528 1.15101 1.07655 0
M  V30 7810 C 741.458 0.867864 2.16773 0
M  V30 7811 C 742.439 -0.180283 1.69142 0
M  V30 7812 O 743.624 -0.0353152 1.94168 0
M  V30 7813 C 740.754 0.35299 3.45501 0
M  V30 7814 C 739.708 1.33746 4.06566 0
M  V30 7815 C 739.034 0.681562 5.30338 0
M  V30 7816 C 740.334 2.7024 4.46954 0
M  V30 7817 H 742.028 1.78034 2.40716 0
M  V30 7818 H 739.574 0.857435 1.15689 0
M  V30 7819 H 741.527 0.142465 4.21159 0
M  V30 7820 H 740.251 -0.594945 3.21135 0
M  V30 7821 H 738.91 1.53429 3.32949 0
M  V30 7822 H 738.558 -0.272422 5.02262 0
M  V30 7823 H 738.258 1.33853 5.72151 0
M  V30 7824 H 739.782 0.48074 6.08705 0
M  V30 7825 H 741.196 2.5442 5.13754 0
M  V30 7826 H 739.593 3.32282 4.99709 0
M  V30 7827 H 740.663 3.26537 3.58471 0
M  V30 7828 N 742.006 -1.2595 0.947325 0
M  V30 7829 C 742.916 -2.29883 0.468079 0
M  V30 7830 C 743.932 -1.67783 -0.460975 0
M  V30 7831 O 745.108 -1.98526 -0.339006 0
M  V30 7832 C 742.173 -3.45773 -0.253315 0
M  V30 7833 C 741.234 -4.23337 0.713054 0
M  V30 7834 C 740.467 -5.33694 0.025993 0
M  V30 7835 O 740.69 -5.57853 -1.18978 0
M  V30 7836 O 739.624 -5.97724 0.70782 0
M  V30 7837 H 743.45 -2.72952 1.33156 0
M  V30 7838 H 741.035 -1.31263 0.713468 0
M  V30 7839 H 742.917 -4.16209 -0.659423 0
M  V30 7840 H 741.592 -3.04721 -1.09209 0
M  V30 7841 H 740.499 -3.55359 1.16923 0
M  V30 7842 H 741.832 -4.68154 1.51963 0
M  V30 7843 N 743.484 -0.715051 -1.40445 0
M  V30 7844 C 744.417 -0.0112426 -2.28197 0
M  V30 7845 C 745.395 0.768211 -1.43308 0
M  V30 7846 O 746.579 0.754961 -1.72721 0
M  V30 7847 C 743.706 0.991453 -3.23864 0
M  V30 7848 C 742.752 0.302873 -4.25423 0
M  V30 7849 S 743.585 -0.968852 -5.26663 0
M  V30 7850 C 744.741 0.0317538 -6.25892 0
M  V30 7851 H 744.974 -0.755467 -2.87541 0
M  V30 7852 H 742.507 -0.506054 -1.45871 0
M  V30 7853 H 744.465 1.56475 -3.79507 0
M  V30 7854 H 743.126 1.70838 -2.63578 0
M  V30 7855 H 742.319 1.06086 -4.92709 0
M  V30 7856 H 741.921 -0.197853 -3.73476 0
M  V30 7857 H 744.213 0.878764 -6.71777 0
M  V30 7858 H 745.156 -0.607698 -7.05488 0
M  V30 7859 H 745.564 0.39524 -5.63115 0
M  V30 7860 N 744.962 1.50701 -0.461195 0
M  V30 7861 C 746.239 1.94958 0.158296 0
M  V30 7862 C 746.619 1.40111 1.57899 0
M  V30 7863 O 745.967 0.597976 2.20537 0
M  V30 7864 C 746.177 3.48821 0.11172 0
M  V30 7865 C 747.525 4.23499 0.30552 0
M  V30 7866 O 748.549 3.557 0.188758 0
M  V30 7867 O 747.408 5.43823 0.540244 0
M  V30 7868 H 744.502 0.818674 0.117054 0
M  V30 7869 H 747.048 1.61508 -0.520888 0
M  V30 7870 H 745.82 3.81263 -0.880577 0
M  V30 7871 H 745.443 3.88781 0.832791 0
M  V30 7872 N 746.441 0.193421 1.56409 0
M  V30 7873 C 747.687 -0.446449 1.97825 0
M  V30 7874 C 748.02 -1.61386 1.08019 0
M  V30 7875 O 747.295 -1.94053 0.131839 0
M  V30 7876 C 747.578 -0.908199 3.48459 0
M  V30 7877 C 747.431 0.260914 4.49043 0
M  V30 7878 C 748.75 -1.77428 4.0275 0
M  V30 7879 H 745.869 -0.160807 0.719243 0
M  V30 7880 H 748.511 0.284006 1.87865 0
M  V30 7881 H 746.661 -1.53062 3.57077 0
M  V30 7882 H 748.333 0.898548 4.52464 0
M  V30 7883 H 746.576 0.912949 4.24085 0
M  V30 7884 H 747.247 -0.104657 5.51901 0
M  V30 7885 H 749.723 -1.24936 3.96901 0
M  V30 7886 H 748.599 -2.06633 5.08521 0
M  V30 7887 H 748.86 -2.72788 3.47907 0
M  V30 7888 N 747.919 -1.57396 -0.0801906 0
M  V30 7889 C 748.829 -2.06451 -1.11423 0
M  V30 7890 C 749.845 -0.992352 -1.42928 0
M  V30 7891 O 751.021 -1.30651 -1.53272 0
M  V30 7892 C 748.086 -2.49164 -2.41077 0
M  V30 7893 C 747.147 -3.70641 -2.16619 0
M  V30 7894 C 746.38 -4.11307 -3.40092 0
M  V30 7895 O 746.603 -3.51922 -4.48895 0
M  V30 7896 O 745.537 -5.04157 -3.288 0
M  V30 7897 H 749.363 -2.94857 -0.727519 0
M  V30 7898 H 746.948 -1.46484 -0.293743 0
M  V30 7899 H 748.83 -2.77196 -3.17396 0
M  V30 7900 H 747.505 -1.6389 -2.79145 0
M  V30 7901 H 746.412 -3.47703 -1.38033 0
M  V30 7902 H 747.745 -4.5674 -1.83437 0
M  V30 7903 N 749.397 0.351382 -1.53633 0
M  V30 7904 C 750.344 1.43115 -1.81071 0
M  V30 7905 C 751.314 1.52601 -0.655913 0
M  V30 7906 O 752.499 1.68264 -0.89955 0
M  V30 7907 C 749.639 2.79874 -2.01903 0
M  V30 7908 C 748.752 2.79242 -3.29618 0
M  V30 7909 C 747.887 4.07667 -3.40559 0
M  V30 7910 C 746.926 4.01233 -4.62254 0
M  V30 7911 N 746.063 5.21334 -4.70271 0
M  V30 7912 H 750.903 1.19017 -2.73201 0
M  V30 7913 H 748.44 0.576691 -1.35324 0
M  V30 7914 H 750.398 3.5934 -2.11969 0
M  V30 7915 H 749.028 3.0234 -1.13094 0
M  V30 7916 H 748.08 1.91927 -3.28433 0
M  V30 7917 H 749.392 2.70363 -4.19172 0
M  V30 7918 H 748.546 4.95555 -3.50015 0
M  V30 7919 H 747.285 4.19317 -2.49047 0
M  V30 7920 H 746.29 3.11732 -4.52884 0
M  V30 7921 H 747.515 3.91173 -5.55122 0
M  V30 7922 H 745.461 5.33543 -3.81665 0
M  V30 7923 H 745.378 5.14681 -5.5375 0
M  V30 7924 H 746.646 6.11014 -4.84027 0
M  V30 7925 N 750.875 1.45233 0.611969 0
M  V30 7926 C 752.291 1.29542 0.932251 0
M  V30 7927 C 752.491 0.24523 2.00002 0
M  V30 7928 O 751.547 -0.362333 2.49887 0
M  V30 7929 C 752.86 2.67301 1.37733 0
M  V30 7930 C 754.408 2.75163 1.49178 0
M  V30 7931 C 754.883 4.13437 1.97064 0
M  V30 7932 N 756.374 4.15709 2.04304 0
M  V30 7933 C 757.109 5.19566 2.42568 0
M  V30 7934 N 756.605 6.33771 2.79832 0
M  V30 7935 N 758.398 5.06923 2.42869 0
M  V30 7936 H 750.549 2.12192 -0.0938679 0
M  V30 7937 H 752.812 0.947775 0.0206569 0
M  V30 7938 H 752.518 3.45318 0.666951 0
M  V30 7939 H 752.392 2.95472 2.3447 0
M  V30 7940 H 754.779 1.97453 2.19309 0
M  V30 7941 H 754.86 2.50712 0.507674 0
M  V30 7942 H 754.504 4.91631 1.27521 0
M  V30 7943 H 754.434 4.35277 2.9638 0
M  V30 7944 H 756.925 3.33293 1.78113 0
M  V30 7945 H 757.238 7.08815 3.07898 0
M  V30 7946 H 755.583 6.37179 2.77538 0
M  V30 7947 H 758.774 4.1675 2.1316 0
M  V30 7948 H 758.947 5.87981 2.72364 0
M  V30 7949 N 752.353 -0.854086 1.3245 0
M  V30 7950 C 753.601 -1.60513 1.228 0
M  V30 7951 C 753.922 -1.93865 -0.210073 0
M  V30 7952 O 753.192 -1.59673 -1.13496 0
M  V30 7953 H 751.772 -0.595099 0.451516 0
M  V30 7954 H 754.434 -1.0216 1.6598 0
M  V30 7955 H 753.53 -2.54182 1.81102 0
M  V30 7956 N 753.831 -1.1567 -1.07043 0
M  V30 7957 C 755.056 -0.957946 -1.83952 0
M  V30 7958 C 755.481 0.488807 -1.81638 0
M  V30 7959 O 754.839 1.34869 -1.21162 0
M  V30 7960 C 754.887 -1.48064 -3.288 0
M  V30 7961 O 753.991 -0.681921 -4.06723 0
M  V30 7962 H 753.332 -0.341453 -0.569479 0
M  V30 7963 H 755.862 -1.53728 -1.35015 0
M  V30 7964 H 755.872 -1.49484 -3.7963 0
M  V30 7965 H 754.547 -2.53388 -3.29799 0
M  V30 7966 H 753.124 -0.737612 -3.65532 0
M  V30 7967 N 755.309 1.25446 -0.953992 0
M  V30 7968 C 756.272 2.24156 -0.478179 0
M  V30 7969 C 757.272 1.55278 0.417776 0
M  V30 7970 O 758.462 1.72866 0.215155 0
M  V30 7971 C 755.594 3.39495 0.309202 0
M  V30 7972 H 756.787 2.67764 -1.35064 0
M  V30 7973 H 754.34 1.37822 -0.737206 0
M  V30 7974 H 755.075 3.01307 1.19936 0
M  V30 7975 H 754.86 3.90679 -0.333562 0
M  V30 7976 H 756.35 4.12796 0.631594 0
M  V30 7977 N 756.787 0.722489 1.40064 0
M  V30 7978 C 757.734 0.0743738 2.3068 0
M  V30 7979 C 758.704 -0.743004 1.48555 0
M  V30 7980 O 759.889 -0.705536 1.77276 0
M  V30 7981 C 757.029 -0.836292 3.34814 0
M  V30 7982 C 756.142 -0.00764663 4.31999 0
M  V30 7983 C 755.277 -0.918428 5.232 0
M  V30 7984 C 754.316 -0.0842838 6.12042 0
M  V30 7985 N 753.453 -0.950316 6.95639 0
M  V30 7986 H 758.293 0.852794 2.85537 0
M  V30 7987 H 755.83 0.432222 1.40607 0
M  V30 7988 H 757.788 -1.3786 3.93765 0
M  V30 7989 H 756.418 -1.58082 2.81443 0
M  V30 7990 H 755.47 0.651928 3.74772 0
M  V30 7991 H 756.782 0.63786 4.94705 0
M  V30 7992 H 755.936 -1.52902 5.87116 0
M  V30 7993 H 754.675 -1.59774 4.60786 0
M  V30 7994 H 753.68 0.5392 5.4715 0
M  V30 7995 H 754.905 0.591628 6.76518 0
M  V30 7996 H 752.851 -1.61515 6.35806 0
M  V30 7997 H 752.768 -0.361004 7.55138 0
M  V30 7998 H 754.036 -1.54687 7.63997 0
M  V30 7999 N 758.265 -1.50454 0.469181 0
M  V30 8000 C 759.175 -2.32248 -0.331349 0
M  V30 8001 C 760.191 -1.42548 -0.997807 0
M  V30 8002 O 761.367 -1.75602 -0.9862 0
M  V30 8003 C 758.432 -3.17171 -1.40012 0
M  V30 8004 C 757.493 -4.2269 -0.750463 0
M  V30 8005 C 756.726 -5.03554 -1.76831 0
M  V30 8006 O 756.949 -4.85469 -2.99459 0
M  V30 8007 O 755.883 -5.86767 -1.3412 0
M  V30 8008 H 759.709 -3.01821 0.337279 0
M  V30 8009 H 757.294 -1.47602 0.231066 0
M  V30 8010 H 759.176 -3.69871 -2.01924 0
M  V30 8011 H 757.851 -2.50328 -2.05226 0
M  V30 8012 H 756.758 -3.73986 -0.0924446 0
M  V30 8013 H 758.091 -4.91997 -0.14131 0
M  V30 8014 N 759.743 -0.201713 -1.56304 0
M  V30 8015 C 760.673 0.71155 -2.22394 0
M  V30 8016 C 761.654 1.21625 -1.18917 0
M  V30 8017 O 762.839 1.26388 -1.47444 0
M  V30 8018 C 759.969 1.92837 -2.88845 0
M  V30 8019 C 758.923 1.55831 -3.98623 0
M  V30 8020 C 758.249 2.85228 -4.52271 0
M  V30 8021 C 759.549 0.763249 -5.16693 0
M  V30 8022 H 761.243 0.160573 -2.98969 0
M  V30 8023 H 758.789 0.0757916 -1.438 0
M  V30 8024 H 760.742 2.57253 -3.33764 0
M  V30 8025 H 759.466 2.50398 -2.09686 0
M  V30 8026 H 758.125 0.9377 -3.54405 0
M  V30 8027 H 757.773 3.40893 -3.69866 0
M  V30 8028 H 757.473 2.6121 -5.26349 0
M  V30 8029 H 758.997 3.50622 -4.99897 0
M  V30 8030 H 760.411 1.31066 -5.58117 0
M  V30 8031 H 758.808 0.620935 -5.96879 0
M  V30 8032 H 759.878 -0.234322 -4.84334 0
M  V30 8033 N 761.222 1.57436 0.0718424 0
M  V30 8034 C 762.152 2.06724 1.08571 0
M  V30 8035 C 763.133 0.960731 1.40371 0
M  V30 8036 O 764.318 1.23345 1.49999 0
M  V30 8037 C 761.448 2.51112 2.39916 0
M  V30 8038 C 760.402 3.65639 2.22469 0
M  V30 8039 C 759.728 3.96082 3.59198 0
M  V30 8040 C 761.028 4.95687 1.64596 0
M  V30 8041 H 762.722 2.91679 0.675569 0
M  V30 8042 H 760.268 1.40319 0.32352 0
M  V30 8043 H 762.221 2.84206 3.11135 0
M  V30 8044 H 760.945 1.63186 2.8291 0
M  V30 8045 H 759.604 3.32828 1.53691 0
M  V30 8046 H 759.252 3.05287 3.99761 0
M  V30 8047 H 758.952 4.73199 3.48362 0
M  V30 8048 H 760.476 4.31672 4.31847 0
M  V30 8049 H 761.89 5.27011 2.25681 0
M  V30 8050 H 760.287 5.77126 1.64457 0
M  V30 8051 H 761.357 4.8108 0.60744 0
M  V30 8052 N 762.7 -0.34323 1.53817 0
M  V30 8053 C 763.632 -1.44216 1.78141 0
M  V30 8054 C 764.645 -1.48701 0.662721 0
M  V30 8055 O 765.834 -1.51778 0.939458 0
M  V30 8056 C 762.934 -2.82872 1.86646 0
M  V30 8057 C 762.107 -3.01824 3.16577 0
M  V30 8058 C 761.166 -4.20723 3.16036 0
M  V30 8059 O 760.192 -4.14824 3.89756 0
M  V30 8060 N 761.394 -5.29276 2.38427 0
M  V30 8061 H 764.159 -1.23721 2.72971 0
M  V30 8062 H 761.72 -0.53311 1.52871 0
M  V30 8063 H 763.712 -3.60588 1.83735 0
M  V30 8064 H 762.282 -2.96509 0.990014 0
M  V30 8065 H 761.502 -2.11575 3.3261 0
M  V30 8066 H 762.79 -3.11369 4.02402 0
M  V30 8067 H 762.188 -5.36938 1.78085 0
M  V30 8068 H 760.745 -6.05484 2.41313 0
M  V30 8069 N 764.178 -1.45556 -0.604258 0
M  V30 8070 C 765.128 -1.50906 -1.70913 0
M  V30 8071 C 766.112 -0.371996 -1.56541 0
M  V30 8072 O 767.304 -0.619064 -1.65821 0
M  V30 8073 C 764.433 -1.48181 -3.09673 0
M  V30 8074 C 763.519 -2.67102 -3.2942 0
M  V30 8075 N 763.91 -3.92184 -3.19414 0
M  V30 8076 C 762.208 -2.6287 -3.60299 0
M  V30 8077 C 762.909 -4.71571 -3.40581 0
M  V30 8078 N 761.885 -4.03081 -3.64728 0
M  V30 8079 H 765.687 -2.45435 -1.61675 0
M  V30 8080 H 763.201 -1.40894 -0.807622 0
M  V30 8081 H 765.198 -1.501 -3.88942 0
M  V30 8082 H 763.858 -0.54712 -3.20057 0
M  V30 8083 H 764.869 -4.23756 -2.97743 0
M  V30 8084 H 761.546 -1.78324 -3.77501 0
M  V30 8085 H 762.936 -5.80571 -3.38211 0
M  V30 8086 N 765.656 0.84705 -1.32902 0
M  V30 8087 C 766.588 1.96308 -1.18304 0
M  V30 8088 C 767.601 1.62386 -0.116082 0
M  V30 8089 O 768.79 1.74713 -0.365751 0
M  V30 8090 C 765.89 3.29556 -0.790305 0
M  V30 8091 C 765.063 3.91668 -1.94717 0
M  V30 8092 C 764.122 5.0326 -1.53674 0
M  V30 8093 O 763.148 5.22847 -2.24989 0
M  V30 8094 N 764.35 5.78852 -0.437075 0
M  V30 8095 H 767.115 2.09369 -2.14441 0
M  V30 8096 H 764.676 1.02233 -1.25539 0
M  V30 8097 H 766.668 4.01624 -0.49799 0
M  V30 8098 H 765.238 3.12497 0.0801286 0
M  V30 8099 H 764.458 3.12292 -2.40557 0
M  V30 8100 H 765.746 4.299 -2.72146 0
M  V30 8101 H 765.144 5.65484 0.156316 0
M  V30 8102 H 763.701 6.51479 -0.204399 0
M  V30 8103 N 767.134 1.16236 1.06428 0
M  V30 8104 C 768.381 0.943034 1.79201 0
M  V30 8105 C 768.709 -0.529243 1.87161 0
M  V30 8106 O 767.964 -1.40874 1.35842 0
M  V30 8107 C 768.263 1.51396 3.2375 0
M  V30 8108 C 767.929 3.00833 3.35873 0
M  V30 8109 C 766.591 3.41626 3.38888 0
M  V30 8110 C 768.943 3.96825 3.37904 0
M  V30 8111 C 766.271 4.77033 3.4155 0
M  V30 8112 C 768.623 5.32116 3.42104 0
M  V30 8113 C 767.287 5.72392 3.43401 0
M  V30 8114 H 766.557 0.34508 0.655744 0
M  V30 8115 H 769.204 1.44929 1.25171 0
M  V30 8116 H 767.509 0.929114 3.80624 0
M  V30 8117 H 769.206 1.31996 3.78653 0
M  V30 8118 H 765.796 2.68306 3.3423 0
M  V30 8119 H 769.98 3.66376 3.34787 0
M  V30 8120 H 765.236 5.07569 3.40858 0
M  V30 8121 H 769.41 6.06286 3.42623 0
M  V30 8122 H 767.037 6.77296 3.45216 0
M  V30 8123 N 768.612 -1.24939 0.960631 0
M  V30 8124 C 769.542 -2.28 0.503815 0
M  V30 8125 C 770.523 -1.63959 -0.452928 0
M  V30 8126 O 771.708 -1.91009 -0.350585 0
M  V30 8127 C 768.838 -3.46643 -0.213535 0
M  V30 8128 C 767.792 -4.22903 0.658535 0
M  V30 8129 C 767.118 -5.34363 -0.189902 0
M  V30 8130 C 768.418 -4.84949 1.93963 0
M  V30 8131 H 770.112 -2.66462 1.36521 0
M  V30 8132 H 767.658 -1.28093 0.657897 0
M  V30 8133 H 769.611 -4.1787 -0.544286 0
M  V30 8134 H 768.335 -3.07187 -1.10923 0
M  V30 8135 H 766.994 -3.53467 0.972455 0
M  V30 8136 H 766.642 -4.91147 -1.08553 0
M  V30 8137 H 766.342 -5.86302 0.390331 0
M  V30 8138 H 767.866 -6.0842 -0.515484 0
M  V30 8139 H 769.28 -5.48288 1.67491 0
M  V30 8140 H 767.677 -5.47091 2.46601 0
M  V30 8141 H 768.747 -4.06799 2.639 0
M  V30 8142 N 770.09 -0.729906 -1.39679 0
M  V30 8143 C 771.037 -0.0866063 -2.30637 0
M  V30 8144 C 772.007 0.735115 -1.48947 0
M  V30 8145 O 773.192 0.696125 -1.77648 0
M  V30 8146 C 770.332 0.818524 -3.35252 0
M  V30 8147 C 769.445 -0.0152635 -4.31997 0
M  V30 8148 C 768.58 0.890669 -5.2368 0
M  V30 8149 C 767.619 0.0518246 -6.12078 0
M  V30 8150 N 766.756 0.913411 -6.96133 0
M  V30 8151 H 771.596 -0.867925 -2.85081 0
M  V30 8152 H 769.133 -0.439673 -1.40376 0
M  V30 8153 H 771.091 1.3577 -3.9449 0
M  V30 8154 H 769.721 1.56587 -2.82277 0
M  V30 8155 H 768.773 -0.671794 -3.74421 0
M  V30 8156 H 770.085 -0.664086 -4.9436 0
M  V30 8157 H 769.239 1.49787 -5.87919 0
M  V30 8158 H 767.978 1.57328 -4.61627 0
M  V30 8159 H 766.983 -0.568209 -5.46856 0
M  V30 8160 H 768.208 -0.627497 -6.76195 0
M  V30 8161 H 766.154 1.58141 -6.36653 0
M  V30 8162 H 766.071 0.320952 -7.55318 0
M  V30 8163 H 767.339 1.50633 -7.64807 0
M  V30 8164 N 771.568 1.50203 -0.477153 0
M  V30 8165 C 772.817 2.01551 0.0774548 0
M  V30 8166 C 773.13 1.36359 1.40234 0
M  V30 8167 O 774.336 1.78898 2.04225 0
M  V30 8168 C 772.792 3.59406 0.188539 0
M  V30 8169 C 772.4 4.3356 -1.12828 0
M  V30 8170 C 774.144 4.18776 0.694782 0
M  V30 8171 C 772.051 5.83213 -0.98066 0
M  V30 8172 H 770.981 0.75329 0.0327212 0
M  V30 8173 H 773.632 1.72959 -0.612969 0
M  V30 8174 H 772.014 3.84611 0.942881 0
M  V30 8175 H 773.188 4.20074 -1.89405 0
M  V30 8176 H 771.503 3.85827 -1.5661 0
M  V30 8177 H 774.1 5.28338 0.822356 0
M  V30 8178 H 774.443 3.80557 1.68766 0
M  V30 8179 H 774.976 3.978 -0.00234519 0
M  V30 8180 H 771.715 6.25914 -1.94709 0
M  V30 8181 H 771.235 5.99256 -0.255375 0
M  V30 8182 H 772.914 6.4373 -0.649717 0
M  V30 8183 N 773.046 0.209999 1.56195 0
M  V30 8184 C 774.009 -0.691232 2.18528 0
M  V30 8185 C 775.009 -1.13013 1.14388 0
M  V30 8186 O 776.199 -1.04081 1.39688 0
M  V30 8187 C 773.331 -1.94551 2.79934 0
M  V30 8188 H 774.524 -0.147953 2.99535 0
M  V30 8189 H 772.077 -0.0396243 1.5625 0
M  V30 8190 H 772.812 -2.53094 2.02766 0
M  V30 8191 H 772.597 -1.63938 3.56184 0
M  V30 8192 H 774.087 -2.58785 3.2775 0
M  V30 8193 N 774.524 -1.57472 -0.0634922 0
M  V30 8194 C 775.471 -2.04258 -1.07457 0
M  V30 8195 C 776.441 -0.924804 -1.37973 0
M  V30 8196 O 777.626 -1.19305 -1.48899 0
M  V30 8197 C 774.766 -2.49832 -2.38071 0
M  V30 8198 C 773.879 -3.75263 -2.14014 0
M  V30 8199 C 773.014 -4.09585 -3.38251 0
M  V30 8200 C 772.053 -5.28032 -3.09594 0
M  V30 8201 N 771.19 -5.57953 -4.26185 0
M  V30 8202 H 776.03 -2.90402 -0.668626 0
M  V30 8203 H 773.567 -1.43609 -0.318572 0
M  V30 8204 H 775.525 -2.7431 -3.14341 0
M  V30 8205 H 774.155 -1.66654 -2.76453 0
M  V30 8206 H 773.207 -3.58075 -1.28399 0
M  V30 8207 H 774.519 -4.61667 -1.88852 0
M  V30 8208 H 773.673 -4.35008 -4.2291 0
M  V30 8209 H 772.412 -3.21765 -3.66495 0
M  V30 8210 H 771.417 -5.02397 -2.23332 0
M  V30 8211 H 772.642 -6.17477 -2.82663 0
M  V30 8212 H 770.588 -4.73092 -4.54445 0
M  V30 8213 H 770.505 -6.38793 -4.04326 0
M  V30 8214 H 771.773 -5.87931 -5.11817 0
M  V30 8215 N 776.003 0.335068 -1.53997 0
M  V30 8216 C 777.414 0.910191 -1.6301 0
M  V30 8217 C 777.765 1.89271 -0.516809 0
M  V30 8218 O 776.89 2.13516 0.352123 0
M  V30 8219 C 777.485 1.65761 -2.9548 0
M  V30 8220 C 776.044 2.18163 -3.06728 0
M  V30 8221 C 775.191 1.00338 -2.5851 0
M  V30 8222 H 778.142 0.112965 -1.58297 0
M  V30 8223 H 778.163 2.52107 -2.84995 0
M  V30 8224 H 777.675 0.94227 -3.76488 0
M  V30 8225 H 775.776 2.92847 -2.30372 0
M  V30 8226 H 775.889 2.43952 -4.1234 0
M  V30 8227 H 774.253 1.37925 -2.14124 0
M  V30 8228 H 775.036 0.30254 -3.41964 0
M  V30 8229 N 777.481 1.45874 0.596531 0
M  V30 8230 C 778.411 1.5824 1.71705 0
M  V30 8231 C 779.392 0.433366 1.64487 0
M  V30 8232 O 780.577 0.657895 1.82717 0
M  V30 8233 C 777.707 1.55927 3.10329 0
M  V30 8234 C 776.661 2.69659 3.32367 0
M  V30 8235 C 775.987 2.52403 4.71377 0
M  V30 8236 C 777.287 4.11591 3.21544 0
M  V30 8237 H 778.981 2.52035 1.61613 0
M  V30 8238 H 776.527 1.21297 0.776082 0
M  V30 8239 H 778.48 1.63173 3.88526 0
M  V30 8240 H 777.204 0.586674 3.21288 0
M  V30 8241 H 775.863 2.61859 2.56564 0
M  V30 8242 H 775.511 1.53258 4.79083 0
M  V30 8243 H 775.211 3.28679 4.87077 0
M  V30 8244 H 776.735 2.6152 5.5176 0
M  V30 8245 H 778.149 4.20576 3.89601 0
M  V30 8246 H 776.546 4.88344 3.4877 0
M  V30 8247 H 777.616 4.32719 2.1882 0
M  V30 8248 N 778.959 -0.83999 1.33349 0
M  V30 8249 C 780.184 -1.63249 1.27924 0
M  V30 8250 C 780.609 -1.87523 -0.147193 0
M  V30 8251 O 779.967 -1.43853 -1.10345 0
M  V30 8252 C 780.015 -2.96046 2.05886 0
M  V30 8253 O 779.119 -3.87303 1.4167 0
M  V30 8254 H 778.46 -0.49715 0.440157 0
M  V30 8255 H 780.99 -1.04512 1.75893 0
M  V30 8256 H 781 -3.45752 2.16609 0
M  V30 8257 H 779.675 -2.77701 3.09605 0
M  V30 8258 H 778.252 -3.45789 1.39585 0
M  V30 8259 N 780.437 -1.16799 -1.0581 0
M  V30 8260 C 781.662 -0.977402 -1.82925 0
M  V30 8261 C 782.087 0.469514 -1.82146 0
M  V30 8262 O 781.445 1.33576 -1.22585 0
M  V30 8263 C 781.493 -1.51543 -3.27211 0
M  V30 8264 O 780.597 -0.725021 -4.05977 0
M  V30 8265 H 779.938 -0.347474 -0.565825 0
M  V30 8266 H 782.468 -1.55151 -1.33376 0
M  V30 8267 H 782.478 -1.53502 -3.78023 0
M  V30 8268 H 781.153 -2.56872 -3.27093 0
M  V30 8269 H 779.73 -0.77634 -3.64729 0
M  V30 8270 N 781.915 1.24427 -0.967243 0
M  V30 8271 C 782.845 2.2773 -0.515899 0
M  V30 8272 C 783.826 1.64197 0.444227 0
M  V30 8273 O 785.011 1.91193 0.340451 0
M  V30 8274 C 782.141 3.46751 0.195149 0
M  V30 8275 C 781.095 4.22548 -0.680953 0
M  V30 8276 C 780.421 5.34456 0.161561 0
M  V30 8277 C 781.721 4.83914 -1.96532 0
M  V30 8278 H 783.415 2.65735 -1.37933 0
M  V30 8279 H 780.961 1.27742 -0.664681 0
M  V30 8280 H 782.914 4.18153 0.522117 0
M  V30 8281 H 781.638 3.07771 1.09292 0
M  V30 8282 H 780.297 3.52946 -0.991186 0
M  V30 8283 H 779.945 4.91716 1.05947 0
M  V30 8284 H 779.645 5.86087 -0.421418 0
M  V30 8285 H 781.169 6.08685 0.483211 0
M  V30 8286 H 782.583 5.47392 -1.70396 0
M  V30 8287 H 780.98 5.45775 -2.49499 0
M  V30 8288 H 782.05 4.05393 -2.66053 0
M  V30 8289 N 783.393 0.737304 1.3929 0
M  V30 8290 C 784.621 0.296573 2.04763 0
M  V30 8291 C 785.036 -1.06941 1.55592 0
M  V30 8292 O 784.393 -1.67619 0.721822 0
M  V30 8293 C 784.444 0.291906 3.6032 0
M  V30 8294 O 784.165 1.60397 4.07682 0
M  V30 8295 C 785.666 -0.164708 4.42994 0
M  V30 8296 H 782.886 0.129251 0.658434 0
M  V30 8297 H 785.43 1.0016 1.78293 0
M  V30 8298 H 783.585 -0.364251 3.85684 0
M  V30 8299 H 783.999 1.51909 5.0202 0
M  V30 8300 H 785.473 -0.116814 5.51876 0
M  V30 8301 H 785.95 -1.21022 4.22197 0
M  V30 8302 H 786.556 0.461968 4.22784 0
M  V30 8303 N 784.871 -1.49948 0.485112 0
M  V30 8304 C 786.282 -1.8667 0.0334041 0
M  V30 8305 C 786.633 -1.3988 -1.37579 0
M  V30 8306 O 785.758 -0.769788 -2.02245 0
M  V30 8307 C 786.353 -3.38757 0.0538426 0
M  V30 8308 C 784.912 -3.74839 -0.342453 0
M  V30 8309 C 784.059 -2.73894 0.433281 0
M  V30 8310 H 787.01 -1.42492 0.698699 0
M  V30 8311 H 787.031 -3.73132 -0.745146 0
M  V30 8312 H 786.543 -3.72782 1.07959 0
M  V30 8313 H 784.644 -3.46419 -1.37203 0
M  V30 8314 H 784.757 -4.79088 -0.0340503 0
M  V30 8315 H 783.121 -2.54441 -0.114849 0
M  V30 8316 H 783.904 -3.10763 1.45881 0
M  V30 8317 N 786.349 -0.21828 -1.56081 0
M  V30 8318 C 787.279 0.687922 -2.23136 0
M  V30 8319 C 788.26 1.20357 -1.202 0
M  V30 8320 O 789.445 1.24817 -1.48776 0
M  V30 8321 C 786.575 1.89762 -2.90874 0
M  V30 8322 C 785.529 1.51595 -4.00254 0
M  V30 8323 C 784.855 2.80415 -4.55271 0
M  V30 8324 C 786.155 0.708404 -5.17474 0
M  V30 8325 H 787.849 0.128854 -2.99123 0
M  V30 8326 H 785.395 0.0605354 -1.43873 0
M  V30 8327 H 787.348 2.53699 -3.36474 0
M  V30 8328 H 786.072 2.4816 -2.1233 0
M  V30 8329 H 784.731 0.900058 -3.55379 0
M  V30 8330 H 784.379 3.36951 -3.73461 0
M  V30 8331 H 784.079 2.55613 -5.2909 0
M  V30 8332 H 785.603 3.453 -5.03587 0
M  V30 8333 H 787.017 1.2514 -5.59476 0
M  V30 8334 H 785.414 0.557593 -5.97504 0
M  V30 8335 H 786.484 -0.285679 -4.84058 0
M  V30 8336 N 787.827 1.57504 0.0551401 0
M  V30 8337 C 789.076 1.87237 0.750009 0
M  V30 8338 C 789.389 0.813268 1.77891 0
M  V30 8339 O 790.595 0.99898 2.52453 0
M  V30 8340 C 789.051 3.32187 1.38491 0
M  V30 8341 C 788.659 4.46267 0.393707 0
M  V30 8342 C 790.403 3.71101 2.06117 0
M  V30 8343 C 788.31 5.82265 1.03547 0
M  V30 8344 H 787.24 0.698524 0.283866 0
M  V30 8345 H 789.891 1.835 0.00365997 0
M  V30 8346 H 788.273 3.30588 2.18008 0
M  V30 8347 H 789.447 4.59289 -0.372865 0
M  V30 8348 H 787.762 4.16015 -0.17902 0
M  V30 8349 H 790.359 4.70012 2.54937 0
M  V30 8350 H 790.702 3.01751 2.86796 0
M  V30 8351 H 791.235 3.74762 1.33409 0
M  V30 8352 H 787.974 6.54949 0.268644 0
M  V30 8353 H 787.494 5.73012 1.7725 0
M  V30 8354 H 789.173 6.28148 1.55047 0
M  V30 8355 N 789.305 -0.326896 1.54172 0
M  V30 8356 C 790.268 -1.38515 1.8261 0
M  V30 8357 C 791.268 -1.44872 0.697771 0
M  V30 8358 O 792.458 -1.44957 0.966078 0
M  V30 8359 C 789.59 -2.77281 1.98313 0
M  V30 8360 H 790.783 -1.14556 2.77159 0
M  V30 8361 H 788.336 -0.562199 1.45839 0
M  V30 8362 H 789.071 -3.065 1.05964 0
M  V30 8363 H 788.856 -2.74061 2.80416 0
M  V30 8364 H 790.346 -3.53845 2.21773 0
M  V30 8365 N 790.784 -1.46188 -0.588786 0
M  V30 8366 C 791.747 -1.55882 -1.68029 0
M  V30 8367 C 792.747 -0.436515 -1.54762 0
M  V30 8368 O 793.937 -0.700626 -1.59489 0
M  V30 8369 C 791.069 -1.47332 -3.07418 0
M  V30 8370 H 792.262 -2.5315 -1.60795 0
M  V30 8371 H 789.815 -1.33908 -0.806116 0
M  V30 8372 H 790.55 -0.513193 -3.20214 0
M  V30 8373 H 790.335 -2.28753 -3.18456 0
M  V30 8374 H 791.825 -1.57187 -3.86887 0
M  V30 8375 N 792.262 0.832906 -1.33792 0
M  V30 8376 C 793.225 1.92471 -1.24449 0
M  V30 8377 C 794.225 1.59981 -0.162085 0
M  V30 8378 O 795.415 1.69208 -0.414029 0
M  V30 8379 C 792.547 3.28278 -0.919044 0
M  V30 8380 H 793.74 2.0218 -2.21502 0
M  V30 8381 H 791.293 1.0257 -1.17936 0
M  V30 8382 H 792.028 3.24263 0.048738 0
M  V30 8383 H 791.813 3.53241 -1.70187 0
M  V30 8384 H 793.303 4.08253 -0.878576 0
M  V30 8385 N 793.74 1.17359 1.05189 0
M  V30 8386 C 794.687 0.890325 2.12936 0
M  V30 8387 C 795.657 -0.165779 1.65271 0
M  V30 8388 O 796.842 -0.0285672 1.90779 0
M  V30 8389 C 793.982 0.409793 3.42658 0
M  V30 8390 C 793.095 1.53002 4.03998 0
M  V30 8391 C 792.23 1.00336 5.21638 0
M  V30 8392 C 791.269 2.09903 5.74984 0
M  V30 8393 N 790.406 1.58714 6.83926 0
M  V30 8394 H 795.246 1.81299 2.36505 0
M  V30 8395 H 792.783 0.904249 1.16025 0
M  V30 8396 H 794.741 0.112743 4.17048 0
M  V30 8397 H 793.371 -0.475915 3.19272 0
M  V30 8398 H 792.423 1.9428 3.27047 0
M  V30 8399 H 793.735 2.3564 4.39631 0
M  V30 8400 H 792.889 0.660158 6.03098 0
M  V30 8401 H 791.628 0.14642 4.8748 0
M  V30 8402 H 790.633 2.45081 4.92154 0
M  V30 8403 H 791.858 2.96013 6.1119 0
M  V30 8404 H 789.804 0.752915 6.51665 0
M  V30 8405 H 789.721 2.34959 7.18561 0
M  V30 8406 H 790.989 1.27287 7.69037 0
M  V30 8407 N 795.218 -1.23913 0.973828 0
M  V30 8408 C 796.128 -2.28838 0.516735 0
M  V30 8409 C 797.144 -1.68723 -0.425282 0
M  V30 8410 O 798.32 -1.99201 -0.296819 0
M  V30 8411 C 795.385 -3.46233 -0.179914 0
M  V30 8412 C 794.446 -4.21729 0.80269 0
M  V30 8413 C 793.679 -5.33518 0.139191 0
M  V30 8414 O 793.902 -5.60252 -1.07118 0
M  V30 8415 O 792.836 -5.96088 0.834447 0
M  V30 8416 H 796.662 -2.70067 1.38916 0
M  V30 8417 H 794.247 -1.2972 0.74115 0
M  V30 8418 H 796.129 -4.17514 -0.570991 0
M  V30 8419 H 794.804 -3.06969 -1.02721 0
M  V30 8420 H 793.711 -3.52799 1.24434 0
M  V30 8421 H 795.044 -4.64825 1.61859 0
M  V30 8422 N 796.696 -0.74468 -1.38897 0
M  V30 8423 C 797.659 -0.11945 -2.28889 0
M  V30 8424 C 798.659 0.656942 -1.46768 0
M  V30 8425 O 799.849 0.484525 -1.67326 0
M  V30 8426 C 796.981 0.839635 -3.30398 0
M  V30 8427 H 798.174 -0.912414 -2.85683 0
M  V30 8428 H 795.727 -0.511119 -1.47707 0
M  V30 8429 H 796.462 1.6586 -2.78677 0
M  V30 8430 H 796.247 0.285432 -3.9106 0
M  V30 8431 H 797.737 1.27337 -3.97712 0
M  V30 8432 N 798.174 1.49689 -0.493057 0
M  V30 8433 C 799.402 2.06836 0.0513141 0
M  V30 8434 C 799.817 1.35436 1.31539 0
M  V30 8435 O 799.174 0.430248 1.77356 0
M  V30 8436 C 799.225 3.60107 0.317003 0
M  V30 8437 O 798.946 4.2882 -0.896957 0
M  V30 8438 C 800.447 4.33945 0.905902 0
M  V30 8439 H 797.667 0.670787 -0.0169048 0
M  V30 8440 H 800.211 1.92574 -0.688139 0
M  V30 8441 H 798.366 3.74099 1.00642 0
M  V30 8442 H 798.78 5.20395 -0.654939 0
M  V30 8443 H 800.254 5.42087 1.04144 0
M  V30 8444 H 800.731 3.95895 1.90168 0
M  V30 8445 H 801.337 4.2454 0.254195 0
M  V30 8446 N 799.652 0.226554 1.55963 0
M  V30 8447 C 800.599 -0.681504 2.20509 0
M  V30 8448 C 801.569 -1.1866 1.16229 0
M  V30 8449 O 802.754 -1.24478 1.44602 0
M  V30 8450 C 799.894 -1.88183 2.89277 0
M  V30 8451 C 799.007 -1.41517 4.08163 0
M  V30 8452 C 798.142 -2.57346 4.647 0
M  V30 8453 C 797.181 -2.07441 5.75877 0
M  V30 8454 N 796.318 -3.16561 6.26685 0
M  V30 8455 H 801.158 -0.124372 2.9774 0
M  V30 8456 H 798.695 -0.0496333 1.47016 0
M  V30 8457 H 800.653 -2.58666 3.27335 0
M  V30 8458 H 799.283 -2.41177 2.14555 0
M  V30 8459 H 798.335 -0.605099 3.75557 0
M  V30 8460 H 799.647 -1.00928 4.88482 0
M  V30 8461 H 798.801 -3.35903 5.05227 0
M  V30 8462 H 797.54 -3.01227 3.83554 0
M  V30 8463 H 796.545 -1.27347 5.34848 0
M  V30 8464 H 797.77 -1.64554 6.58862 0
M  V30 8465 H 795.716 -3.59914 5.48451 0
M  V30 8466 H 795.633 -2.80239 7.02141 0
M  V30 8467 H 796.901 -3.95238 6.71868 0
M  V30 8468 N 801.13 -1.57531 -0.0467866 0
M  V30 8469 C 802.078 -2.06455 -1.0714 0
M  V30 8470 C 803.072 -0.974744 -1.38546 0
M  V30 8471 O 804.278 -1.15974 -1.37659 0
M  V30 8472 H 800.653 -0.658607 -0.362962 0
M  V30 8473 H 802.624 -2.91613 -0.632813 0
M  V30 8474 C 801.373 -2.54481 -2.36927 0
M  V30 8475 H 800.696 -3.37946 -2.13617 0
M  V30 8476 H 802.136 -2.92442 -3.07007 0
M  V30 8477 C 800.595 -1.43836 -3.04652 0
M  V30 8478 O 801.125 -0.794531 -3.93764 0
M  V30 8479 N 799.331 -1.17727 -2.65686 0
M  V30 8480 H 798.878 -1.70265 -1.93307 0
M  V30 8481 H 798.836 -0.439051 -3.11319 0
M  V30 8482 N 802.608 0.318715 -1.54344 0
M  V30 8483 C 803.556 1.41254 -1.84798 0
M  V30 8484 C 804.55 1.53325 -0.720256 0
M  V30 8485 O 805.756 1.55653 -0.903992 0
M  V30 8486 H 802.131 0.471468 -0.585851 0
M  V30 8487 H 804.102 1.12795 -2.7626 0
M  V30 8488 C 802.851 2.77395 -2.09637 0
M  V30 8489 H 802.174 2.68881 -2.95876 0
M  V30 8490 H 803.614 3.52987 -2.34896 0
M  V30 8491 C 802.073 3.24948 -0.889398 0
M  V30 8492 O 802.603 4.01573 -0.101063 0
M  V30 8493 N 800.809 2.82051 -0.699684 0
M  V30 8494 H 800.356 2.19858 -1.3424 0
M  V30 8495 H 800.314 3.1422 0.106368 0
M  V30 8496 N 804.086 1.46499 0.581025 0
M  V30 8497 C 805.036 1.53606 1.68491 0
M  V30 8498 C 806.02 0.396853 1.55929 0
M  V30 8499 O 807.212 0.645366 1.64815 0
M  V30 8500 C 804.341 1.53089 3.07276 0
M  V30 8501 C 803.427 2.72309 3.25128 0
M  V30 8502 N 803.818 3.97216 3.13134 0
M  V30 8503 C 802.116 2.68568 3.56072 0
M  V30 8504 C 802.817 4.7693 3.33036 0
M  V30 8505 N 801.793 4.08833 3.58269 0
M  V30 8506 H 805.595 2.47976 1.5775 0
M  V30 8507 H 803.109 1.42161 0.785104 0
M  V30 8508 H 805.106 1.56268 3.86505 0
M  V30 8509 H 803.766 0.597969 3.19146 0
M  V30 8510 H 804.777 4.28439 2.90964 0
M  V30 8511 H 801.454 1.84307 3.74616 0
M  V30 8512 H 802.844 5.85879 3.28932 0
M  V30 8513 O 805.603 -0.725332 1.44295 0
M  V30 8514 H 806.294 -1.37566 1.36365 0
M  V30 END ATOM
M  V30 BEGIN BOND
M  V30 END BOND
M  V30 END CTAB
M  END
$$$$
