drugbank_target|P32173 Molybdenum cofactor guanylyltransferase (DB04137)
 OpenBabel12092119583D

  0  0  0     0  0            999 V3000
M  V30 BEGIN CTAB
M  V30 COUNTS 3030 3065 0 0 0
M  V30 BEGIN ATOM
M  V30 1 H -0.908 1.98254 -0.117106 0
M  V30 2 N 0 1.576 0 0
M  V30 3 C 0.933 2.03868 1.02534 0
M  V30 4 C 1.911 0.928543 1.3348 0
M  V30 5 O 3.095 1.19667 1.45644 0
M  V30 6 C 0.222 2.43627 2.35294 0
M  V30 7 C -0.732 3.65373 2.2001 0
M  V30 8 S 0.101 5.13292 1.52614 0
M  V30 9 C 1.257 5.56322 2.86805 0
M  V30 10 H 1.49 2.90518 0.631377 0
M  V30 11 H -0.977 1.52953 0.210867 0
M  V30 12 H 0.981 2.67203 3.11629 0
M  V30 13 H -0.358 1.57376 2.7183 0
M  V30 14 H -1.165 3.90944 3.18086 0
M  V30 15 H -1.563 3.418 1.51819 0
M  V30 16 H 0.729 5.58782 3.83104 0
M  V30 17 H 1.672 6.56266 2.65933 0
M  V30 18 H 2.08 4.83886 2.90714 0
M  V30 19 N 1.4781 -0.272755 1.55222 0
M  V30 20 C 2.4261 -1.35705 1.88909 0
M  V30 21 C 3.4201 -1.5112 0.765456 0
M  V30 22 O 4.6261 -1.52901 0.949802 0
M  V30 23 H 1.0011 -0.453868 0.59959 0
M  V30 24 H 2.9721 -1.04544 2.79487 0
M  V30 25 C 1.7211 -2.71049 2.17779 0
M  V30 26 H 1.0441 -2.59979 3.03728 0
M  V30 27 H 2.4841 -3.45858 2.45272 0
M  V30 28 C 0.9431 -3.22165 0.985473 0
M  V30 29 O 1.4731 -4.01096 0.220233 0
M  V30 30 N -0.3209 -2.7985 0.783108 0
M  V30 31 H -0.7739 -2.15775 1.40708 0
M  V30 32 H -0.8159 -3.14397 -0.0130392 0
M  V30 33 N 2.9562 -1.48159 -0.537278 0
M  V30 34 C 3.8862 -1.65029 -1.6519 0
M  V30 35 C 4.8672 -0.499281 -1.62607 0
M  V30 36 O 6.0522 -0.730972 -1.79918 0
M  V30 37 C 3.1822 -1.68303 -3.03795 0
M  V30 38 C 2.1362 -2.8283 -3.21234 0
M  V30 39 C 1.4622 -2.71189 -4.60826 0
M  V30 40 C 2.7622 -4.24211 -3.04701 0
M  V30 41 H 4.4562 -2.58341 -1.51328 0
M  V30 42 H 2.0022 -1.24325 -0.726585 0
M  V30 43 H 3.9552 -1.78693 -3.81637 0
M  V30 44 H 2.6792 -0.715635 -3.18663 0
M  V30 45 H 1.3382 -2.71983 -2.45807 0
M  V30 46 H 0.9862 -1.72435 -4.7252 0
M  V30 47 H 0.6862 -3.48035 -4.7344 0
M  V30 48 H 2.2102 -2.83537 -5.40777 0
M  V30 49 H 3.6242 -4.3593 -3.72341 0
M  V30 50 H 2.0212 -5.01998 -3.28813 0
M  V30 51 H 3.0912 -4.41184 -2.01209 0
M  V30 52 N 4.4343 0.785586 -1.36625 0
M  V30 53 C 5.3673 1.90509 -1.25625 0
M  V30 54 C 6.3453 1.62 -0.139607 0
M  V30 55 O 7.5293 1.8591 -0.31141 0
M  V30 56 C 4.6563 3.25419 -0.939158 0
M  V30 57 C 3.7023 3.72856 -2.07077 0
M  V30 58 S 4.5353 3.88162 -3.68904 0
M  V30 59 C 5.6913 5.25942 -3.39317 0
M  V30 60 H 5.9243 1.99549 -2.20381 0
M  V30 61 H 3.4573 0.945226 -1.22085 0
M  V30 62 H 5.4153 4.03346 -0.763029 0
M  V30 63 H 4.0763 3.14099 -0.00931402 0
M  V30 64 H 3.2693 4.70624 -1.80357 0
M  V30 65 H 2.8713 3.01989 -2.20632 0
M  V30 66 H 5.1633 6.10651 -2.93447 0
M  V30 67 H 6.1063 5.57668 -4.36363 0
M  V30 68 H 6.5143 4.93224 -2.74573 0
M  V30 69 N 5.9124 1.20967 1.01018 0
M  V30 70 C 7.1404 1.04956 1.78303 0
M  V30 71 C 7.5554 -0.400915 1.84494 0
M  V30 72 O 6.9124 -1.27826 1.30257 0
M  V30 73 C 6.9634 1.63403 3.22462 0
M  V30 74 O 6.6844 3.02775 3.16637 0
M  V30 75 C 8.1854 1.52432 4.16268 0
M  V30 76 H 5.4054 0.368858 0.560522 0
M  V30 77 H 7.9494 1.60193 1.27116 0
M  V30 78 H 6.1044 1.1227 3.70775 0
M  V30 79 H 6.5184 3.30626 4.07169 0
M  V30 80 H 7.9924 1.98078 5.15237 0
M  V30 81 H 8.4694 0.477875 4.36592 0
M  V30 82 H 9.0754 2.02787 3.73841 0
M  V30 83 N 7.3905 -1.2043 1.01659 0
M  V30 84 C 8.6185 -1.93777 0.725132 0
M  V30 85 C 9.0335 -1.74772 -0.714166 0
M  V30 86 O 8.3905 -1.06169 -1.4844 0
M  V30 87 C 8.4415 -3.45876 1.05129 0
M  V30 88 O 8.1625 -3.6426 2.43406 0
M  V30 89 C 9.6635 -4.36368 0.780891 0
M  V30 90 H 6.8835 -0.615901 0.266284 0
M  V30 91 H 9.4275 -1.52922 1.35776 0
M  V30 92 H 7.5825 -3.8461 0.464065 0
M  V30 93 H 7.9965 -4.58246 2.55169 0
M  V30 94 H 9.4705 -5.41743 1.05918 0
M  V30 95 H 9.9475 -4.38275 -0.284937 0
M  V30 96 H 10.5535 -4.03296 1.35027 0
M  V30 97 N 8.8686 -0.792821 -1.36206 0
M  V30 98 C 10.1176 -0.363353 -1.984 0
M  V30 99 C 10.4306 1.07172 -1.63626 0
M  V30 100 O 11.6366 1.60362 -2.19081 0
M  V30 101 C 10.0926 -0.59872 -3.54885 0
M  V30 102 C 9.7006 -2.04543 -3.9858 0
M  V30 103 C 11.4446 -0.233926 -4.23855 0
M  V30 104 C 9.3516 -2.22727 -5.47856 0
M  V30 105 H 8.2816 -0.13212 -0.742334 0
M  V30 106 H 10.9326 -0.974935 -1.55458 0
M  V30 107 H 9.3146 0.0826222 -3.95914 0
M  V30 108 H 10.4886 -2.76345 -3.68741 0
M  V30 109 H 8.8036 -2.36879 -3.42458 0
M  V30 110 H 11.4006 -0.348027 -5.33566 0
M  V30 111 H 11.7436 0.818351 -4.08177 0
M  V30 112 H 12.2766 -0.868639 -3.882 0
M  V30 113 H 9.0156 -3.2635 -5.68486 0
M  V30 114 H 8.5356 -1.55434 -5.7931 0
M  V30 115 H 10.2146 -2.03607 -6.14128 0
M  V30 116 N 10.3467 1.47872 -0.545128 0
M  V30 117 C 11.5747 2.06889 -0.021084 0
M  V30 118 C 11.9897 1.39955 1.2672 0
M  V30 119 O 11.3467 0.492036 1.75742 0
M  V30 120 C 11.3977 3.60996 0.190817 0
M  V30 121 O 11.1187 4.25419 -1.04644 0
M  V30 122 C 12.6197 4.36849 0.753521 0
M  V30 123 H 9.8397 0.669785 -0.0403635 0
M  V30 124 H 12.3837 1.90049 -0.755095 0
M  V30 125 H 10.5387 3.77391 0.87492 0
M  V30 126 H 10.9527 5.17785 -0.836611 0
M  V30 127 H 12.4267 5.45399 0.851139 0
M  V30 128 H 12.9037 4.02306 1.762 0
M  V30 129 H 13.5097 4.25169 0.105503 0
M  V30 130 N 11.8248 0.280983 1.55075 0
M  V30 131 C 13.0728 -0.333455 1.9933 0
M  V30 132 C 13.3938 -1.55937 1.17085 0
M  V30 133 O 12.6638 -1.94143 0.261805 0
M  V30 134 H 11.2438 -0.126197 0.736263 0
M  V30 135 H 13.9058 0.387678 1.91005 0
M  V30 136 H 13.0018 -0.619292 3.05894 0
M  V30 137 N 13.3029 -1.57598 0.00835791 0
M  V30 138 C 14.5489 -1.91211 -0.675732 0
M  V30 139 C 14.8819 -0.883139 -1.72958 0
M  V30 140 O 14.1569 0.097016 -1.94258 0
M  V30 141 C 14.4399 -3.35379 -1.31123 0
M  V30 142 C 14.2929 -4.48999 -0.268356 0
M  V30 143 C 15.6119 -3.7912 -2.23508 0
M  V30 144 H 12.7309 -0.695374 -0.244179 0
M  V30 145 H 15.3729 -1.89901 0.0613655 0
M  V30 146 H 13.5229 -3.36626 -1.93946 0
M  V30 147 H 15.1949 -4.59887 0.360844 0
M  V30 148 H 13.4379 -4.31873 0.408482 0
M  V30 149 H 14.1089 -5.46851 -0.752218 0
M  V30 150 H 16.5849 -3.79477 -1.70693 0
M  V30 151 H 15.4609 -4.80729 -2.64936 0
M  V30 152 H 15.7219 -3.13455 -3.11766 0
M  V30 153 N 14.781 0.264519 -1.55364 0
M  V30 154 C 16.027 0.99646 -1.76631 0
M  V30 155 C 16.36 1.85632 -0.570478 0
M  V30 156 O 15.635 1.89647 0.43175 0
M  V30 157 C 15.918 1.87187 -3.07625 0
M  V30 158 C 15.771 1.04138 -4.37579 0
M  V30 159 C 17.09 2.85749 -3.34717 0
M  V30 160 H 14.209 0.360841 -0.642622 0
M  V30 161 H 16.851 0.268218 -1.88097 0
M  V30 162 H 15.001 2.49279 -2.9798 0
M  V30 163 H 16.673 0.440517 -4.59192 0
M  V30 164 H 14.916 0.345115 -4.32425 0
M  V30 165 H 15.587 1.68729 -5.2558 0
M  V30 166 H 18.063 2.33793 -3.4421 0
M  V30 167 H 16.939 3.44136 -4.27623 0
M  V30 168 H 17.2 3.61311 -2.54768 0
M  V30 169 N 16.2591 1.48442 0.529413 0
M  V30 170 C 17.1891 1.65902 1.64313 0
M  V30 171 C 18.1701 0.507897 1.6234 0
M  V30 172 O 19.3551 0.740503 1.79528 0
M  V30 173 C 16.4851 1.69911 3.02898 0
M  V30 174 C 15.4391 2.8453 3.19729 0
M  V30 175 C 14.7651 2.73629 4.59381 0
M  V30 176 C 16.0651 4.25821 3.02447 0
M  V30 177 H 17.7591 2.5914 1.49955 0
M  V30 178 H 15.3051 1.24709 0.719982 0
M  V30 179 H 17.2581 1.80715 3.80684 0
M  V30 180 H 15.9821 0.732524 3.18279 0
M  V30 181 H 14.6411 2.73283 2.44361 0
M  V30 182 H 14.2891 1.74938 4.71599 0
M  V30 183 H 13.9891 3.50541 4.71588 0
M  V30 184 H 15.5131 2.86401 5.39265 0
M  V30 185 H 16.9271 4.37898 3.70024 0
M  V30 186 H 15.3241 5.03735 3.26146 0
M  V30 187 H 16.3941 4.42244 1.98867 0
M  V30 188 N 17.7372 -0.778329 1.37039 0
M  V30 189 C 18.7002 -1.87301 1.32102 0
M  V30 190 C 19.7002 -1.59198 0.226405 0
M  V30 191 O 20.8902 -1.67403 0.481861 0
M  V30 192 C 18.0222 -3.24309 1.05055 0
M  V30 193 H 19.2152 -1.93093 2.29467 0
M  V30 194 H 16.7682 -0.977358 1.21973 0
M  V30 195 H 17.5032 -3.24196 0.0819373 0
M  V30 196 H 17.2882 -3.46098 1.84279 0
M  V30 197 H 18.7782 -4.04382 1.04234 0
M  V30 198 N 19.2153 -1.21501 -1.00376 0
M  V30 199 C 20.4633 -1.03095 -1.73827 0
M  V30 200 C 20.7843 0.436341 -1.90055 0
M  V30 201 O 20.0543 1.31466 -1.45236 0
M  V30 202 H 18.6343 -0.378487 -0.644016 0
M  V30 203 H 21.2963 -1.52831 -1.20949 0
M  V30 204 H 20.3923 -1.49991 -2.73695 0
M  V30 205 N 20.6934 1.19889 -1.02296 0
M  V30 206 C 21.9414 1.89046 -0.714558 0
M  V30 207 C 22.2624 1.79636 0.758681 0
M  V30 208 O 21.5324 1.20292 1.54618 0
M  V30 209 H 20.1124 0.699802 -0.261317 0
M  V30 210 H 22.7744 1.45574 -1.29592 0
M  V30 211 H 21.8704 2.95524 -1.0036 0
M  V30 212 N 22.1715 0.800033 1.35784 0
M  V30 213 C 23.1185 0.203848 2.29898 0
M  V30 214 C 24.0885 -0.658375 1.52495 0
M  V30 215 O 25.2735 -0.604832 1.8096 0
M  V30 216 C 22.4135 -0.64688 3.38983 0
M  V30 217 C 21.5265 0.235054 4.3136 0
M  V30 218 C 20.6615 -0.623054 5.27533 0
M  V30 219 C 19.7005 0.259682 6.11549 0
M  V30 220 N 18.8375 -0.558019 6.99879 0
M  V30 221 H 23.6775 1.01186 2.80295 0
M  V30 222 H 21.2145 0.51053 1.37957 0
M  V30 223 H 23.1725 -1.15521 4.00887 0
M  V30 224 H 21.8025 -1.42021 2.89879 0
M  V30 225 H 20.8545 0.861438 3.70518 0
M  V30 226 H 22.1665 0.914768 4.9034 0
M  V30 227 H 21.3205 -1.19678 5.94779 0
M  V30 228 H 20.0595 -1.33636 4.69034 0
M  V30 229 H 19.0645 0.845726 5.43256 0
M  V30 230 H 20.2895 0.970748 6.72126 0
M  V30 231 H 18.2355 -1.25542 6.43875 0
M  V30 232 H 18.1525 0.0637872 7.55973 0
M  V30 233 H 19.4205 -1.11523 7.71481 0
M  V30 234 N 23.6496 -1.47581 0.552962 0
M  V30 235 C 24.6126 -2.28439 -0.186605 0
M  V30 236 C 25.6126 -1.36706 -0.84665 0
M  V30 237 O 26.8026 -1.59378 -0.703164 0
M  V30 238 C 23.9346 -3.16264 -1.2724 0
M  V30 239 H 25.1276 -2.95294 0.523609 0
M  V30 240 H 22.6806 -1.532 0.309745 0
M  V30 241 H 23.4156 -2.54091 -2.01514 0
M  V30 242 H 23.2006 -3.83769 -0.803968 0
M  V30 243 H 24.6906 -3.77198 -1.79196 0
M  V30 244 N 25.1277 -0.289203 -1.54924 0
M  V30 245 C 26.5437 0.0645403 -1.59469 0
M  V30 246 C 26.7437 1.53419 -1.30632 0
M  V30 247 O 25.7997 2.2852 -1.074 0
M  V30 248 C 27.1127 -0.32278 -2.98963 0
M  V30 249 C 28.6607 -0.270564 -3.11828 0
M  V30 250 C 29.1357 -0.632532 -4.53611 0
M  V30 251 N 30.6267 -0.584617 -4.59496 0
M  V30 252 C 31.3617 -0.837314 -5.67254 0
M  V30 253 N 30.8577 -1.15536 -6.83098 0
M  V30 254 N 32.6507 -0.765166 -5.56868 0
M  V30 255 H 24.8017 -1.24714 -1.71931 0
M  V30 256 H 27.0647 -0.504809 -0.802416 0
M  V30 257 H 26.7707 -1.34541 -3.24948 0
M  V30 258 H 26.6447 0.32944 -3.75759 0
M  V30 259 H 29.0317 0.742805 -2.85598 0
M  V30 260 H 29.1127 -0.957242 -2.37214 0
M  V30 261 H 28.7567 -1.64365 -4.80569 0
M  V30 262 H 28.6867 0.07609 -5.26545 0
M  V30 263 H 31.1777 -0.349248 -3.76283 0
M  V30 264 H 31.4907 -1.33447 -7.61191 0
M  V30 265 H 29.8357 -1.19328 -6.84679 0
M  V30 266 H 33.0267 -0.516432 -4.65243 0
M  V30 267 H 33.1997 -0.965477 -6.40767 0
M  V30 268 N 26.6058 1.57591 -0.0167156 0
M  V30 269 C 28.0218 1.55946 0.339557 0
M  V30 270 C 28.2218 1.02109 1.73713 0
M  V30 271 O 27.2778 0.662303 2.43659 0
M  V30 272 C 28.5908 3.00037 0.199499 0
M  V30 273 C 30.1388 3.11805 0.273193 0
M  V30 274 C 30.6138 4.57713 0.162068 0
M  V30 275 N 32.1048 4.6268 0.219444 0
M  V30 276 C 32.8398 5.73185 0.157054 0
M  V30 277 N 32.3358 6.92786 0.0442936 0
M  V30 278 N 34.1288 5.61707 0.21014 0
M  V30 279 H 26.2798 1.90921 -0.930758 0
M  V30 280 H 28.5428 0.877674 -0.358319 0
M  V30 281 H 28.2488 3.4333 -0.76273 0
M  V30 282 H 28.1228 3.64387 0.974786 0
M  V30 283 H 30.5098 2.68433 1.22587 0
M  V30 284 H 30.5908 2.50201 -0.532256 0
M  V30 285 H 30.2348 5.01763 -0.78714 0
M  V30 286 H 30.1648 5.17283 0.986222 0
M  V30 287 H 32.6558 3.76649 0.307246 0
M  V30 288 H 32.9688 7.728 0.00304069 0
M  V30 289 H 31.3138 6.94999 0.00968457 0
M  V30 290 H 34.5048 4.6716 0.296546 0
M  V30 291 H 34.6778 6.47807 0.158054 0
M  V30 292 N 28.0839 -0.256276 1.55502 0
M  V30 293 C 29.0169 -1.34321 1.84481 0
M  V30 294 C 29.9949 -1.46802 0.699131 0
M  V30 295 O 31.1789 -1.63165 0.943904 0
M  V30 296 C 28.3059 -2.71779 2.02123 0
M  V30 297 C 27.3519 -2.76496 3.24734 0
M  V30 298 S 28.1849 -2.3405 4.81644 0
M  V30 299 C 29.3409 -3.73452 5.02279 0
M  V30 300 H 29.5739 -1.09539 2.76385 0
M  V30 301 H 27.1069 -0.45678 1.47489 0
M  V30 302 H 29.0649 -3.50932 2.12972 0
M  V30 303 H 27.7259 -2.93803 1.11078 0
M  V30 304 H 26.9189 -3.77424 3.34016 0
M  V30 305 H 26.5209 -2.05379 3.12563 0
M  V30 306 H 28.8129 -4.6887 4.89047 0
M  V30 307 H 29.7559 -3.6911 6.04287 0
M  V30 308 H 30.1639 -3.6553 4.30172 0
M  V30 309 N 29.562 -1.4872 -0.521534 0
M  V30 310 C 30.81 -1.56857 -1.27437 0
M  V30 311 C 31.131 -0.247982 -1.93417 0
M  V30 312 O 30.401 0.731151 -1.81744 0
M  V30 313 H 28.981 -0.577885 -0.473347 0
M  V30 314 H 31.643 -1.85233 -0.606205 0
M  V30 315 H 30.739 -2.35402 -2.0492 0
M  V30 316 N 31.0401 0.771051 -1.3745 0
M  V30 317 C 32.2881 1.52661 -1.32435 0
M  V30 318 C 32.6091 1.9479 0.0905024 0
M  V30 319 O 31.8791 1.66348 1.03466 0
M  V30 320 H 30.4591 0.566218 -0.487244 0
M  V30 321 H 33.1211 0.917636 -1.71946 0
M  V30 322 H 32.2171 2.42568 -1.96385 0
M  V30 323 N 32.5182 1.22032 0.997298 0
M  V30 324 C 33.7642 1.04376 1.73878 0
M  V30 325 C 34.0972 -0.420716 1.89588 0
M  V30 326 O 33.3722 -1.31202 1.43583 0
M  V30 327 C 33.6552 1.75047 3.14691 0
M  V30 328 C 33.5082 3.29062 3.06656 0
M  V30 329 C 34.8272 1.49928 4.13775 0
M  V30 330 H 31.9462 0.380578 0.631133 0
M  V30 331 H 34.5882 1.50312 1.16217 0
M  V30 332 H 32.7382 1.35996 3.63919 0
M  V30 333 H 34.4102 3.7753 2.65083 0
M  V30 334 H 32.6532 3.58967 2.43568 0
M  V30 335 H 33.3242 3.73683 4.06282 0
M  V30 336 H 35.8002 1.83842 3.73285 0
M  V30 337 H 34.6762 2.01878 5.10428 0
M  V30 338 H 34.9372 0.430929 4.39995 0
M  V30 339 N 33.9963 -1.19345 1.0293 0
M  V30 340 C 35.2733 -1.84811 0.640642 0
M  V30 341 C 35.6533 -1.91855 -0.88062 0
M  V30 342 O 35.0013 -1.43587 -1.7775 0
M  V30 343 C 35.2113 -3.23755 1.30321 0
M  V30 344 C 36.5593 -3.99912 1.42673 0
M  V30 345 O 37.5833 -3.33155 1.26041 0
M  V30 346 O 36.4423 -5.19494 1.6967 0
M  V30 347 H 33.5363 -0.796443 0.222726 0
M  V30 348 H 36.0823 -1.26831 1.12748 0
M  V30 349 H 34.8543 -3.13466 2.34211 0
M  V30 350 H 34.4773 -3.89381 0.804261 0
M  V30 351 N 35.4744 -0.807222 -1.35358 0
M  V30 352 C 36.4214 -0.216037 -2.29787 0
M  V30 353 C 37.3914 0.650278 -1.52842 0
M  V30 354 O 38.5764 0.595227 -1.81278 0
M  V30 355 C 35.7164 0.628893 -3.39321 0
M  V30 356 C 34.8294 -0.257927 -4.31229 0
M  V30 357 C 33.9644 0.595069 -5.27856 0
M  V30 358 C 33.0034 -0.292111 -6.11403 0
M  V30 359 N 32.1404 0.520895 -7.00165 0
M  V30 360 H 36.9804 -1.02671 -2.79755 0
M  V30 361 H 34.5174 -0.517839 -1.37684 0
M  V30 362 H 36.4754 1.13393 -4.01494 0
M  V30 363 H 35.1054 1.40482 -2.90628 0
M  V30 364 H 34.1574 -0.881076 -3.70056 0
M  V30 365 H 35.4694 -0.940759 -4.89848 0
M  V30 366 H 34.6234 1.16522 -5.95405 0
M  V30 367 H 33.3624 1.31146 -4.69736 0
M  V30 368 H 32.3674 -0.874525 -5.428 0
M  V30 369 H 33.5924 -1.00638 -6.71602 0
M  V30 370 H 31.5384 1.22125 -6.44532 0
M  V30 371 H 31.4554 -0.103877 -7.55929 0
M  V30 372 H 32.7234 1.0743 -7.72062 0
M  V30 373 N 36.9525 1.47285 -0.560781 0
M  V30 374 C 38.2005 2.02064 -0.0379868 0
M  V30 375 C 38.5215 1.43711 1.31803 0
M  V30 376 O 37.7915 0.61362 1.86042 0
M  V30 377 H 36.3715 0.746918 -0.0110531 0
M  V30 378 H 39.0335 1.80648 -0.731598 0
M  V30 379 H 38.1295 3.12064 0.0474463 0
M  V30 380 N 38.4306 0.297415 1.54768 0
M  V30 381 C 39.3606 -0.573494 2.26348 0
M  V30 382 C 40.3416 -1.14085 1.26169 0
M  V30 383 O 41.5266 -1.17086 1.54934 0
M  V30 384 C 38.6566 -1.74716 3.00153 0
M  V30 385 C 37.6106 -1.31032 4.07449 0
M  V30 386 C 36.9366 -2.56887 4.68949 0
M  V30 387 C 38.2366 -0.444183 5.20408 0
M  V30 388 H 39.9306 0.0235131 2.99391 0
M  V30 389 H 37.4766 0.0127488 1.43994 0
M  V30 390 H 39.4296 -2.3625 3.48947 0
M  V30 391 H 38.1536 -2.37035 2.24682 0
M  V30 392 H 36.8126 -0.718066 3.59499 0
M  V30 393 H 36.4606 -3.17512 3.90122 0
M  V30 394 H 36.1606 -2.2836 5.41411 0
M  V30 395 H 37.6846 -3.19229 5.20505 0
M  V30 396 H 39.0986 -0.9651 5.65118 0
M  V30 397 H 37.4956 -0.252846 5.99567 0
M  V30 398 H 38.5656 0.531609 4.81977 0
M  V30 399 N 39.9087 -1.5758 0.0250728 0
M  V30 400 C 40.8387 -2.13007 -0.956575 0
M  V30 401 C 41.8197 -1.0452 -1.342 0
M  V30 402 O 43.0047 -1.32332 -1.42133 0
M  V30 403 C 40.1347 -2.65386 -2.24026 0
M  V30 404 C 39.0887 -3.78623 -1.99571 0
M  V30 405 C 38.4147 -4.17414 -3.3417 0
M  V30 406 C 39.7147 -5.04867 -1.33814 0
M  V30 407 H 41.4087 -2.9528 -0.494991 0
M  V30 408 H 38.9547 -1.42042 -0.236651 0
M  V30 409 H 40.9077 -3.02794 -2.93076 0
M  V30 410 H 39.6317 -1.80268 -2.72343 0
M  V30 411 H 38.2907 -3.41646 -1.32941 0
M  V30 412 H 37.9387 -3.29284 -3.80238 0
M  V30 413 H 37.6387 -4.93719 -3.18615 0
M  V30 414 H 39.1627 -4.57402 -4.04495 0
M  V30 415 H 40.5767 -5.39888 -1.92857 0
M  V30 416 H 38.9737 -5.86144 -1.28669 0
M  V30 417 H 40.0437 -4.83904 -0.310561 0
M  V30 418 N 41.3868 0.248026 -1.55636 0
M  V30 419 C 42.2968 1.32859 -1.93354 0
M  V30 420 C 43.3128 1.52719 -0.833838 0
M  V30 421 O 44.4888 1.66363 -1.13513 0
M  V30 422 C 41.5538 2.66337 -2.21958 0
M  V30 423 C 40.6148 2.55008 -3.45354 0
M  V30 424 C 39.8478 3.82121 -3.72584 0
M  V30 425 O 40.0708 4.83951 -3.01907 0
M  V30 426 O 39.0048 3.80822 -4.6611 0
M  V30 427 H 42.8308 1.03862 -2.85388 0
M  V30 428 H 40.4158 0.448686 -1.42503 0
M  V30 429 H 42.2978 3.45216 -2.4167 0
M  V30 430 H 40.9728 2.95068 -1.33103 0
M  V30 431 H 39.8798 1.7442 -3.30951 0
M  V30 432 H 41.2128 2.31222 -4.34508 0
M  V30 433 N 42.8649 1.48995 0.513639 0
M  V30 434 C 43.7949 1.67636 1.62544 0
M  V30 435 C 44.7759 0.525087 1.61793 0
M  V30 436 O 45.9609 0.759502 1.78732 0
M  V30 437 C 43.0909 1.73114 3.01079 0
M  V30 438 C 42.0449 2.87905 3.16693 0
M  V30 439 C 41.3709 2.78486 4.56453 0
M  V30 440 C 42.6709 4.29005 2.97913 0
M  V30 441 H 44.3649 2.60716 1.47198 0
M  V30 442 H 41.9109 1.25465 0.706714 0
M  V30 443 H 43.8639 1.84742 3.78746 0
M  V30 444 H 42.5879 0.766241 3.17484 0
M  V30 445 H 41.2469 2.75859 2.41448 0
M  V30 446 H 40.8949 1.7993 4.69717 0
M  V30 447 H 40.5949 3.55523 4.67843 0
M  V30 448 H 42.1189 2.92104 5.36197 0
M  V30 449 H 43.5329 4.41798 3.65359 0
M  V30 450 H 41.9299 5.07166 3.20785 0
M  V30 451 H 42.9999 4.44329 1.94165 0
M  V30 452 N 44.343 -0.763751 1.37857 0
M  V30 453 C 45.291 -1.89864 1.34367 0
M  V30 454 C 46.285 -1.67816 0.231143 0
M  V30 455 O 47.491 -1.75508 0.399617 0
M  V30 456 H 43.866 -0.624501 0.41893 0
M  V30 457 H 45.837 -1.89925 2.30155 0
M  V30 458 C 44.586 -3.27227 1.1755 0
M  V30 459 H 43.909 -3.44773 2.02414 0
M  V30 460 H 45.349 -4.06911 1.1916 0
M  V30 461 C 43.808 -3.36692 -0.118311 0
M  V30 462 O 44.338 -3.86374 -1.09902 0
M  V30 463 N 42.544 -2.90092 -0.171717 0
M  V30 464 H 42.091 -2.49853 0.627012 0
M  V30 465 H 42.049 -2.96806 -1.03699 0
M  V30 466 N 45.8211 -1.22559 -0.990812 0
M  V30 467 C 47.0691 -1.04933 -1.72724 0
M  V30 468 C 47.3901 0.416158 -1.90508 0
M  V30 469 O 46.6601 1.29918 -1.46622 0
M  V30 470 H 45.2401 -0.385296 -0.639965 0
M  V30 471 H 47.9021 -1.54105 -1.19322 0
M  V30 472 H 46.9981 -1.52886 -2.72089 0
M  V30 473 N 47.2992 1.18797 -1.03562 0
M  V30 474 C 48.2462 2.22253 -0.622259 0
M  V30 475 C 49.2162 1.61987 0.36736 0
M  V30 476 O 50.4012 1.88986 0.262492 0
M  V30 477 C 47.5412 3.45097 0.0138462 0
M  V30 478 C 46.6542 4.19722 -1.02263 0
M  V30 479 C 45.7892 5.30009 -0.355573 0
M  V30 480 C 44.8282 5.96399 -1.37749 0
M  V30 481 N 43.9652 6.98234 -0.735766 0
M  V30 482 H 48.8052 2.56968 -1.50903 0
M  V30 483 H 46.3422 1.26245 -0.755017 0
M  V30 484 H 48.3002 4.15279 0.399948 0
M  V30 485 H 46.9302 3.11018 0.864158 0
M  V30 486 H 45.9822 3.48418 -1.52673 0
M  V30 487 H 47.2942 4.65227 -1.79903 0
M  V30 488 H 46.4482 6.0664 0.0850095 0
M  V30 489 H 45.1872 4.85592 0.452967 0
M  V30 490 H 44.1922 5.18512 -1.82826 0
M  V30 491 H 45.4172 6.42899 -2.18764 0
M  V30 492 H 43.3632 6.55979 0.0525597 0
M  V30 493 H 43.2802 7.41965 -1.44995 0
M  V30 494 H 44.5482 7.78845 -0.31941 0
M  V30 495 N 48.7773 0.814389 1.34928 0
M  V30 496 C 50.1883 0.458364 1.80986 0
M  V30 497 C 50.5393 -1.02042 1.67577 0
M  V30 498 O 49.6643 -1.79352 1.21086 0
M  V30 499 C 50.2593 0.825212 3.28597 0
M  V30 500 C 48.8183 0.521677 3.72767 0
M  V30 501 C 47.9653 1.04668 2.56788 0
M  V30 502 H 50.9163 1.00533 1.22795 0
M  V30 503 H 50.9373 0.12571 3.80292 0
M  V30 504 H 50.4493 1.90154 3.38324 0
M  V30 505 H 48.5503 -0.545589 3.68584 0
M  V30 506 H 48.6633 1.05977 4.67232 0
M  V30 507 H 47.0273 0.468622 2.50352 0
M  V30 508 H 47.8103 2.12927 2.6929 0
M  V30 509 N 50.2554 -1.46986 0.568584 0
M  V30 510 C 51.1854 -2.32946 -0.160753 0
M  V30 511 C 52.1664 -1.44487 -0.897631 0
M  V30 512 O 53.3514 -1.73327 -0.875867 0
M  V30 513 C 50.4814 -3.26494 -1.18403 0
M  V30 514 C 49.4354 -4.24282 -0.562895 0
M  V30 515 C 48.7614 -5.07236 -1.69163 0
M  V30 516 C 50.0614 -5.19989 0.490761 0
M  V30 517 H 51.7554 -2.94175 0.556916 0
M  V30 518 H 49.3014 -1.4146 0.26927 0
M  V30 519 H 51.2544 -3.85477 -1.70251 0
M  V30 520 H 49.9784 -2.63343 -1.93179 0
M  V30 521 H 48.6374 -3.66541 -0.0656164 0
M  V30 522 H 48.2854 -4.4048 -2.42871 0
M  V30 523 H 47.9854 -5.7345 -1.28174 0
M  V30 524 H 49.5094 -5.6908 -2.21314 0
M  V30 525 H 50.9234 -5.73271 0.0579047 0
M  V30 526 H 49.3204 -5.94469 0.820165 0
M  V30 527 H 50.3904 -4.64777 1.3824 0
M  V30 528 N 51.7335 -0.305618 -1.54608 0
M  V30 529 C 52.9795 0.295595 -2.01241 0
M  V30 530 C 53.3345 1.51171 -1.19018 0
M  V30 531 O 52.6275 1.89832 -0.259684 0
M  V30 532 C 52.8215 0.698983 -3.50498 0
M  V30 533 C 52.6505 -0.476491 -4.47168 0
M  V30 534 C 51.4205 -0.969963 -4.95903 0
M  V30 535 C 53.6185 -1.32294 -4.96994 0
M  V30 536 N 51.6005 -2.11172 -5.76437 0
M  V30 537 C 52.9715 -2.31212 -5.75275 0
M  V30 538 C 55.0265 -1.35278 -4.7917 0
M  V30 539 C 53.7295 -3.32896 -6.37631 0
M  V30 540 C 55.7555 -2.35823 -5.42348 0
M  V30 541 C 55.1175 -3.33469 -6.20466 0
M  V30 542 H 51.2165 0.0724992 -0.778632 0
M  V30 543 H 53.8005 -0.436583 -1.89742 0
M  V30 544 H 51.9715 1.40032 -3.62278 0
M  V30 545 H 53.7035 1.28013 -3.8392 0
M  V30 546 H 50.4585 -0.544178 -4.70463 0
M  V30 547 H 50.8825 -2.68714 -6.21387 0
M  V30 548 H 55.5245 -0.61157 -4.18354 0
M  V30 549 H 53.2425 -4.07933 -6.97579 0
M  V30 550 H 56.8285 -2.38911 -5.30484 0
M  V30 551 H 55.7085 -4.09996 -6.68485 0
M  V30 552 N 53.2116 1.57565 -0.0334293 0
M  V30 553 C 54.1436 2.0739 0.975811 0
M  V30 554 C 55.1566 0.998166 1.2861 0
M  V30 555 O 56.3456 1.27426 1.25 0
M  V30 556 C 53.4456 2.4871 2.30209 0
M  V30 557 C 52.6186 3.79413 2.17634 0
M  V30 558 C 51.6776 4.07237 3.33233 0
M  V30 559 O 50.7036 4.77425 3.09927 0
M  V30 560 N 51.9056 3.5775 4.5716 0
M  V30 561 H 54.6706 2.94598 0.55066 0
M  V30 562 H 52.2316 1.61173 0.15323 0
M  V30 563 H 54.2236 2.64413 3.06378 0
M  V30 564 H 52.7936 1.66845 2.64351 0
M  V30 565 H 52.0136 3.73465 1.26165 0
M  V30 566 H 53.3016 4.65038 2.0644 0
M  V30 567 H 52.6996 3.00976 4.78989 0
M  V30 568 H 51.2566 3.78724 5.30482 0
M  V30 569 N 54.6897 -0.239769 1.55765 0
M  V30 570 C 55.6397 -1.30002 1.87306 0
M  V30 571 C 56.6237 -1.43156 0.73452 0
M  V30 572 O 57.8157 -1.46277 0.99659 0
M  V30 573 C 54.9447 -2.65409 2.17745 0
M  V30 574 C 54.0307 -2.56231 3.37945 0
M  V30 575 N 54.4217 -2.16689 4.57033 0
M  V30 576 C 52.7197 -2.87229 3.41197 0
M  V30 577 C 53.4207 -2.18318 5.39177 0
M  V30 578 N 52.3967 -2.58098 4.78421 0
M  V30 579 H 56.1987 -0.984912 2.76906 0
M  V30 580 H 53.7127 -0.448381 1.56087 0
M  V30 581 H 55.7097 -3.41934 2.38509 0
M  V30 582 H 54.3697 -2.97781 1.29448 0
M  V30 583 H 55.3807 -1.88116 4.82528 0
M  V30 584 H 52.0577 -3.24094 2.63191 0
M  V30 585 H 53.4477 -1.90025 6.44469 0
M  V30 586 N 56.1678 -1.49265 -0.50573 0
M  V30 587 C 57.4138 -1.58748 -1.26202 0
M  V30 588 C 57.7468 -0.271227 -1.92297 0
M  V30 589 O 57.0218 0.724831 -1.80489 0
M  V30 590 C 57.3048 -2.74332 -2.33268 0
M  V30 591 C 57.1578 -4.15737 -1.71705 0
M  V30 592 C 58.4768 -2.85576 -3.34865 0
M  V30 593 H 55.5958 -0.577826 -0.457478 0
M  V30 594 H 58.2378 -1.81532 -0.560897 0
M  V30 595 H 56.3878 -2.55036 -2.93068 0
M  V30 596 H 58.0598 -4.46537 -1.15769 0
M  V30 597 H 56.3028 -4.21605 -1.02135 0
M  V30 598 H 56.9738 -4.92477 -2.49341 0
M  V30 599 H 59.4498 -3.03127 -2.8505 0
M  V30 600 H 58.3258 -3.68135 -4.07146 0
M  V30 601 H 58.5868 -1.94732 -3.96903 0
M  V30 602 N 57.6459 0.756429 -1.3826 0
M  V30 603 C 58.6089 1.85176 -1.35065 0
M  V30 604 C 59.6089 1.58818 -0.251703 0
M  V30 605 O 60.7989 1.66615 -0.508433 0
M  V30 606 C 57.9309 3.22596 -1.10201 0
M  V30 607 H 59.1239 1.89417 -2.3251 0
M  V30 608 H 56.6769 0.95783 -1.23512 0
M  V30 609 H 57.4119 3.24025 -0.133504 0
M  V30 610 H 57.1969 3.43122 -1.89762 0
M  V30 611 H 58.6869 4.02673 -1.10654 0
M  V30 612 N 59.124 1.23083 0.984299 0
M  V30 613 C 60.401 0.9689 1.69917 0
M  V30 614 C 60.781 -0.513604 2.04757 0
M  V30 615 O 60.129 -1.48383 1.73767 0
M  V30 616 C 60.339 1.87518 2.94343 0
M  V30 617 C 61.687 2.13636 3.6694 0
M  V30 618 O 62.711 1.85036 3.04368 0
M  V30 619 O 61.57 2.62119 4.79537 0
M  V30 620 H 58.664 0.365095 0.742048 0
M  V30 621 H 61.21 1.34107 1.03987 0
M  V30 622 H 59.982 2.87756 2.65164 0
M  V30 623 H 59.605 1.50514 3.6801 0
M  V30 624 N 60.6021 -1.18246 1.0419 0
M  V30 625 C 61.5651 -2.20128 0.638452 0
M  V30 626 C 62.5651 -1.57885 -0.304805 0
M  V30 627 O 63.7551 -1.73967 -0.0900369 0
M  V30 628 C 60.8871 -3.4084 -0.0637751 0
M  V30 629 H 62.0801 -2.57336 1.54007 0
M  V30 630 H 59.6331 -1.32152 0.834598 0
M  V30 631 H 60.3681 -3.09166 -0.979136 0
M  V30 632 H 60.1531 -3.8726 0.614198 0
M  V30 633 H 61.6431 -4.16274 -0.332512 0
M  V30 634 N 62.0802 -0.821533 -1.34494 0
M  V30 635 C 63.0102 -0.257138 -2.3208 0
M  V30 636 C 63.9912 0.625645 -1.58176 0
M  V30 637 O 65.1762 0.552811 -1.86166 0
M  V30 638 C 62.3062 0.582958 -3.42372 0
M  V30 639 C 61.2602 -0.202571 -4.2752 0
M  V30 640 C 60.5862 0.760179 -5.29269 0
M  V30 641 C 61.8862 -1.40998 -5.02908 0
M  V30 642 H 63.5802 -1.07247 -2.79532 0
M  V30 643 H 61.1262 -0.517163 -1.34393 0
M  V30 644 H 63.0792 0.987972 -4.09655 0
M  V30 645 H 61.8032 1.43133 -2.93565 0
M  V30 646 H 60.4622 -0.588936 -3.61838 0
M  V30 647 H 60.1102 1.60447 -4.76724 0
M  V30 648 H 59.8102 0.238809 -5.87115 0
M  V30 649 H 61.3342 1.16308 -5.9942 0
M  V30 650 H 62.7482 -1.07905 -5.63054 0
M  V30 651 H 61.1452 -1.86689 -5.70322 0
M  V30 652 H 62.2152 -2.1889 -4.32684 0
M  V30 653 N 63.5583 1.46682 -0.576371 0
M  V30 654 C 64.4913 2.27243 0.208731 0
M  V30 655 C 65.4693 1.35238 0.902746 0
M  V30 656 O 66.6533 1.64641 0.917904 0
M  V30 657 C 63.7803 3.12802 1.29896 0
M  V30 658 C 62.8263 4.20524 0.711457 0
M  V30 659 S 63.6593 5.33548 -0.456781 0
M  V30 660 C 64.8153 6.22673 0.634798 0
M  V30 661 H 65.0483 2.93484 -0.474838 0
M  V30 662 H 62.5813 1.50069 -0.363118 0
M  V30 663 H 64.5393 3.62661 1.92321 0
M  V30 664 H 63.2003 2.45887 1.95444 0
M  V30 665 H 62.3933 4.80191 1.53076 0
M  V30 666 H 61.9953 3.73645 0.162999 0
M  V30 667 H 64.2873 6.60181 1.52209 0
M  V30 668 H 65.2303 7.0806 0.0750311 0
M  V30 669 H 65.6383 5.56684 0.936092 0
M  V30 670 N 65.0364 0.313813 1.54444 0
M  V30 671 C 66.2644 -0.293918 2.04802 0
M  V30 672 C 66.6794 -1.46537 1.19047 0
M  V30 673 O 66.0364 -1.81182 0.218939 0
M  V30 674 C 66.0874 -0.737806 3.53891 0
M  V30 675 O 65.8084 0.387038 4.36387 0
M  V30 676 C 67.3094 -1.40936 4.203 0
M  V30 677 H 64.5294 -0.0620057 0.668129 0
M  V30 678 H 67.0734 0.457169 1.99324 0
M  V30 679 H 65.2284 -1.43889 3.59687 0
M  V30 680 H 65.6424 0.0391274 5.24485 0
M  V30 681 H 67.1164 -1.67099 5.26101 0
M  V30 682 H 67.5934 -2.35355 3.70816 0
M  V30 683 H 68.1994 -0.751117 4.18615 0
M  V30 684 N 66.5145 -1.57545 0.0417849 0
M  V30 685 C 67.4465 -2.07904 -0.964799 0
M  V30 686 C 68.4595 -1.00497 -1.28079 0
M  V30 687 O 69.6485 -1.28087 -1.24322 0
M  V30 688 C 66.7485 -2.49928 -2.28887 0
M  V30 689 C 65.9215 -3.80562 -2.15619 0
M  V30 690 C 64.9805 -4.08999 -3.31069 0
M  V30 691 O 64.0065 -4.79061 -3.0739 0
M  V30 692 N 65.2085 -3.6017 -4.55256 0
M  V30 693 H 67.9735 -2.94886 -0.535029 0
M  V30 694 H 65.5345 -1.61252 -0.144681 0
M  V30 695 H 67.5265 -2.66034 -3.04972 0
M  V30 696 H 66.0965 -1.68245 -2.63463 0
M  V30 697 H 65.3165 -3.74129 -1.24183 0
M  V30 698 H 66.6045 -4.66126 -2.03971 0
M  V30 699 H 66.0025 -3.03512 -4.77386 0
M  V30 700 H 64.5595 -3.81532 -5.28466 0
M  V30 701 N 67.9926 0.231505 -1.5589 0
M  V30 702 C 68.9226 1.29022 -1.94617 0
M  V30 703 C 69.9036 1.4941 -0.813067 0
M  V30 704 O 71.0886 1.6176 -1.07459 0
M  V30 705 C 68.2186 2.64199 -2.25424 0
M  V30 706 C 67.1726 2.58484 -3.41131 0
M  V30 707 C 66.4986 3.97599 -3.57518 0
M  V30 708 C 67.7986 2.1413 -4.76388 0
M  V30 709 H 69.4926 0.968563 -2.83301 0
M  V30 710 H 67.0386 0.464479 -1.36303 0
M  V30 711 H 68.9916 3.38413 -2.51107 0
M  V30 712 H 67.7156 2.98032 -1.33583 0
M  V30 713 H 66.3746 1.86727 -3.15481 0
M  V30 714 H 66.0226 4.28723 -2.6307 0
M  V30 715 H 65.7226 3.94659 -4.35337 0
M  V30 716 H 67.2466 4.7349 -3.85538 0
M  V30 717 H 68.6606 2.78083 -5.01341 0
M  V30 718 H 67.0576 2.2227 -5.57419 0
M  V30 719 H 68.1276 1.09331 -4.72414 0
M  V30 720 N 69.4707 1.49531 0.497807 0
M  V30 721 C 70.6957 1.63159 1.28039 0
M  V30 722 C 71.1207 0.30418 1.85624 0
M  V30 723 O 70.4787 -0.728618 1.66015 0
M  V30 724 C 70.5267 2.70537 2.38416 0
M  V30 725 O 69.6307 2.29931 3.42353 0
M  V30 726 H 68.9717 0.546001 0.377861 0
M  V30 727 H 71.5017 1.9574 0.59558 0
M  V30 728 H 71.5117 2.92802 2.84132 0
M  V30 729 H 70.1867 3.6689 1.95869 0
M  V30 730 H 68.7637 2.18009 3.02533 0
M  V30 731 N 70.9488 -0.749086 1.3866 0
M  V30 732 C 71.8988 -1.85368 1.32751 0
M  V30 733 C 72.8828 -1.59511 0.210945 0
M  V30 734 O 74.0748 -1.71255 0.447299 0
M  V30 735 C 71.2038 -3.23131 1.15935 0
M  V30 736 C 70.2898 -3.54864 2.32233 0
M  V30 737 N 70.6808 -3.57625 3.57684 0
M  V30 738 C 68.9788 -3.85154 2.24883 0
M  V30 739 C 69.6798 -3.86753 4.34508 0
M  V30 740 N 68.6558 -4.03812 3.63918 0
M  V30 741 H 72.4578 -1.85787 2.27729 0
M  V30 742 H 69.9718 -0.946658 1.31955 0
M  V30 743 H 71.9688 -4.02185 1.09786 0
M  V30 744 H 70.6288 -3.23961 0.218947 0
M  V30 745 H 71.6398 -3.39276 3.91295 0
M  V30 746 H 68.3168 -3.93672 1.39027 0
M  V30 747 H 69.7068 -3.95474 5.43185 0
M  V30 748 N 72.4269 -1.23603 -0.977757 0
M  V30 749 C 73.6729 -1.07129 -1.72195 0
M  V30 750 C 74.0059 0.390501 -1.90233 0
M  V30 751 O 73.2809 1.28902 -1.45653 0
M  V30 752 C 73.5639 -1.80031 -3.11867 0
M  V30 753 C 73.4169 -3.33899 -3.01383 0
M  V30 754 C 74.7359 -1.56492 -4.11337 0
M  V30 755 H 71.8549 -0.390571 -0.624999 0
M  V30 756 H 74.4969 -1.52142 -1.13811 0
M  V30 757 H 72.6469 -1.41768 -3.6171 0
M  V30 758 H 74.3189 -3.81699 -2.59043 0
M  V30 759 H 72.5619 -3.62796 -2.37827 0
M  V30 760 H 73.2329 -3.801 -4.00285 0
M  V30 761 H 75.7089 -1.89757 -3.70313 0
M  V30 762 H 74.5849 -2.09973 -5.07151 0
M  V30 763 H 74.8459 -0.500874 -4.39254 0
M  V30 764 N 73.905 1.17692 -1.04816 0
M  V30 765 C 75.151 1.88137 -0.75711 0
M  V30 766 C 75.484 1.80604 0.713841 0
M  V30 767 O 74.759 1.21146 1.52164 0
M  V30 768 C 75.042 3.38318 -1.2334 0
M  V30 769 C 74.895 3.54622 -2.76701 0
M  V30 770 C 76.214 4.32214 -0.829415 0
M  V30 771 H 73.333 0.683163 -0.27651 0
M  V30 772 H 75.975 1.38424 -1.30149 0
M  V30 773 H 74.125 3.80787 -0.770286 0
M  V30 774 H 75.797 3.21194 -3.31107 0
M  V30 775 H 74.04 2.97026 -3.16161 0
M  V30 776 H 74.711 4.60028 -3.05088 0
M  V30 777 H 77.187 3.97565 -1.22805 0
M  V30 778 H 76.063 5.35838 -1.19033 0
M  V30 779 H 76.324 4.41294 0.266891 0
M  V30 780 N 75.3831 0.828654 1.34056 0
M  V30 781 C 76.6291 0.42008 1.98402 0
M  V30 782 C 76.9621 -1.01564 1.65525 0
M  V30 783 O 76.2371 -1.70834 0.929831 0
M  V30 784 C 76.5201 0.62927 3.54559 0
M  V30 785 C 76.3731 2.11152 3.97159 0
M  V30 786 C 77.6921 0.0688756 4.40046 0
M  V30 787 H 74.8111 0.154104 0.720709 0
M  V30 788 H 77.4531 1.04228 1.5886 0
M  V30 789 H 75.6031 0.0996418 3.88372 0
M  V30 790 H 77.2751 2.70522 3.73651 0
M  V30 791 H 75.5181 2.59985 3.47261 0
M  V30 792 H 76.1891 2.20868 5.05887 0
M  V30 793 H 78.6651 0.521458 4.1282 0
M  V30 794 H 77.5411 0.245006 5.48353 0
M  V30 795 H 77.8021 -1.0266 4.30015 0
M  V30 796 N 76.8612 -1.46375 0.584142 0
M  V30 797 C 77.8092 -2.32042 -0.161047 0
M  V30 798 C 78.8032 -1.44569 -0.882966 0
M  V30 799 O 80.0092 -1.61186 -0.801191 0
M  V30 800 H 76.3842 -0.748659 -0.0708033 0
M  V30 801 H 78.3552 -2.92704 0.580269 0
M  V30 802 C 77.1042 -3.27762 -1.1605 0
M  V30 803 H 76.4272 -3.95051 -0.614419 0
M  V30 804 H 77.8672 -3.90481 -1.65228 0
M  V30 805 C 76.3262 -2.53218 -2.22221 0
M  V30 806 O 76.8562 -2.29628 -3.29597 0
M  V30 807 N 75.0622 -2.13756 -1.96868 0
M  V30 808 H 74.6092 -2.33142 -1.09557 0
M  V30 809 H 74.5672 -1.642 -2.68115 0
M  V30 810 N 78.3393 -0.321999 -1.54275 0
M  V30 811 C 79.3023 0.531975 -2.22941 0
M  V30 812 C 80.3023 1.04478 -1.22234 0
M  V30 813 O 81.4923 0.937452 -1.46825 0
M  V30 814 C 78.6243 1.73874 -2.93224 0
M  V30 815 H 79.8173 -0.0682612 -2.99822 0
M  V30 816 H 77.3703 -0.0730644 -1.56129 0
M  V30 817 H 78.1053 2.37825 -2.20476 0
M  V30 818 H 77.8903 1.37847 -3.6707 0
M  V30 819 H 79.3803 2.34496 -3.45545 0
M  V30 820 N 79.8174 1.5752 -0.0501392 0
M  V30 821 C 80.7654 2.12651 0.942459 0
M  V30 822 C 81.7594 1.05807 1.32292 0
M  V30 823 O 82.9654 1.24217 1.3027 0
M  V30 824 H 79.3404 0.679673 0.321789 0
M  V30 825 H 81.3114 2.94951 0.452356 0
M  V30 826 C 80.0604 2.68565 2.20836 0
M  V30 827 H 79.3834 3.50439 1.92439 0
M  V30 828 H 80.8234 3.10761 2.8845 0
M  V30 829 C 79.2824 1.62291 2.95234 0
M  V30 830 O 79.8124 1.03508 3.88135 0
M  V30 831 N 78.0184 1.33836 2.57946 0
M  V30 832 H 77.5654 1.81826 1.82475 0
M  V30 833 H 77.5234 0.629595 3.08032 0
M  V30 834 N 81.2955 -0.223234 1.56011 0
M  V30 835 C 82.7115 -0.572856 1.48965 0
M  V30 836 C 82.9115 -1.87225 0.74492 0
M  V30 837 O 81.9675 -2.50899 0.283896 0
M  V30 838 C 83.2805 -0.653646 2.9351 0
M  V30 839 C 84.8285 -0.744386 3.0402 0
M  V30 840 C 85.3035 -0.856535 4.49919 0
M  V30 841 N 86.7945 -0.9208 4.53955 0
M  V30 842 C 87.5295 -1.02726 5.64123 0
M  V30 843 N 87.0255 -1.09777 6.84047 0
M  V30 844 N 88.8185 -1.06226 5.51971 0
M  V30 845 H 80.9695 0.629462 2.02858 0
M  V30 846 H 83.2325 0.220621 0.921971 0
M  V30 847 H 82.9385 0.231518 3.50937 0
M  V30 848 H 82.8125 -1.51781 3.45315 0
M  V30 849 H 85.1995 -1.61999 2.46658 0
M  V30 850 H 85.2805 0.14541 2.55386 0
M  V30 851 H 84.9245 0.0146069 5.07898 0
M  V30 852 H 84.8545 -1.76172 4.96257 0
M  V30 853 H 87.3455 -0.876694 3.6759 0
M  V30 854 H 87.6585 -1.17872 7.63758 0
M  V30 855 H 86.0035 -1.06693 6.86762 0
M  V30 856 H 89.1945 -1.00382 4.5721 0
M  V30 857 H 89.3675 -1.14177 6.37862 0
M  V30 858 N 82.7736 -1.49793 -0.48987 0
M  V30 859 C 83.7236 -1.63673 -1.5873 0
M  V30 860 C 84.7076 -0.491956 -1.53195 0
M  V30 861 O 85.8996 -0.745461 -1.60536 0
M  V30 862 C 83.0286 -1.71689 -2.97284 0
M  V30 863 C 82.1146 -2.91781 -3.07774 0
M  V30 864 N 82.5056 -4.15714 -2.88124 0
M  V30 865 C 80.8036 -2.89949 -3.38889 0
M  V30 866 C 81.5046 -4.965 -3.03088 0
M  V30 867 N 80.4806 -4.30083 -3.3246 0
M  V30 868 H 84.2826 -2.57204 -1.42208 0
M  V30 869 H 81.7966 -1.46719 -0.69623 0
M  V30 870 H 83.7936 -1.79732 -3.76168 0
M  V30 871 H 82.4536 -0.793024 -3.14867 0
M  V30 872 H 83.4646 -4.45515 -2.64077 0
M  V30 873 H 80.1416 -2.06987 -3.62578 0
M  V30 874 H 81.5316 -6.04991 -2.92294 0
M  V30 875 N 84.2517 0.741722 -1.39055 0
M  V30 876 C 85.1837 1.8657 -1.33133 0
M  V30 877 C 86.1967 1.61001 -0.241329 0
M  V30 878 O 87.3857 1.7136 -0.499784 0
M  V30 879 C 84.4857 3.22457 -1.04283 0
M  V30 880 C 83.6587 3.75435 -2.24427 0
M  V30 881 C 82.7177 4.89867 -1.92138 0
M  V30 882 O 81.7437 5.03879 -2.64754 0
M  V30 883 N 82.9457 5.73738 -0.88347 0
M  V30 884 H 85.7107 1.92156 -2.29991 0
M  V30 885 H 83.2717 0.922172 -1.3307 0
M  V30 886 H 85.2637 3.9657 -0.807128 0
M  V30 887 H 83.8337 3.12181 -0.161807 0
M  V30 888 H 83.0537 2.92751 -2.6399 0
M  V30 889 H 84.3417 4.07563 -3.04581 0
M  V30 890 H 83.7397 5.64999 -0.281517 0
M  V30 891 H 82.2967 6.47947 -0.707662 0
M  V30 892 N 85.7298 1.2412 0.971189 0
M  V30 893 C 86.6398 1.04747 2.09917 0
M  V30 894 C 87.6558 -0.0107162 1.73997 0
M  V30 895 O 88.8318 0.186714 2.00533 0
M  V30 896 C 85.8968 0.650828 3.40537 0
M  V30 897 C 84.9578 1.7851 3.90426 0
M  V30 898 C 84.1908 1.40729 5.14812 0
M  V30 899 O 84.4138 0.29557 5.69634 0
M  V30 900 O 83.3478 2.23168 5.58999 0
M  V30 901 H 87.1738 1.99304 2.29154 0
M  V30 902 H 84.7588 1.02908 1.08307 0
M  V30 903 H 86.6408 0.440992 4.19086 0
M  V30 904 H 85.3158 -0.265649 3.22608 0
M  V30 905 H 84.2228 2.04966 3.12953 0
M  V30 906 H 85.5558 2.68023 4.12825 0
M  V30 907 N 87.2079 -1.17134 1.05439 0
M  V30 908 C 88.4569 -1.86791 0.761049 0
M  V30 909 C 88.7699 -1.82072 -0.714795 0
M  V30 910 O 89.9759 -2.47223 -1.12218 0
M  V30 911 C 88.4319 -3.35166 1.31117 0
M  V30 912 C 88.0399 -3.48381 2.81664 0
M  V30 913 C 89.7839 -4.10134 1.09499 0
M  V30 914 C 87.6909 -4.90793 3.29964 0
M  V30 915 H 86.6209 -0.699681 0.281002 0
M  V30 916 H 89.2719 -1.3226 1.27199 0
M  V30 917 H 87.6539 -3.8925 0.72803 0
M  V30 918 H 88.8279 -3.04502 3.45855 0
M  V30 919 H 87.1429 -2.86836 3.01851 0
M  V30 920 H 89.7399 -5.152 1.43084 0
M  V30 921 H 90.0829 -4.16287 0.0328772 0
M  V30 922 H 90.6159 -3.62264 1.64346 0
M  V30 923 H 87.3549 -4.89816 4.35616 0
M  V30 924 H 86.8749 -5.35333 2.70516 0
M  V30 925 H 88.5539 -5.59573 3.24787 0
M  V30 926 N 88.686 -0.835752 -1.33615 0
M  V30 927 C 89.916 -0.442701 -2.01801 0
M  V30 928 C 90.324 0.959807 -1.63047 0
M  V30 929 O 89.667 1.63468 -0.838088 0
M  V30 930 C 89.729 -0.480125 -3.56279 0
M  V30 931 C 89.393 -1.8382 -4.18401 0
M  V30 932 C 90.39 -2.80097 -4.37998 0
M  V30 933 C 88.075 -2.13019 -4.54894 0
M  V30 934 C 90.069 -4.03736 -4.9323 0
M  V30 935 C 87.756 -3.36916 -5.09834 0
M  V30 936 C 88.754 -4.32091 -5.28948 0
M  V30 937 O 88.442 -5.53797 -5.82721 0
M  V30 938 H 88.174 -0.17441 -0.653114 0
M  V30 939 H 90.728 -1.129 -1.71589 0
M  V30 940 H 88.958 0.262931 -3.85805 0
M  V30 941 H 90.647 -0.105335 -4.05763 0
M  V30 942 H 91.413 -2.58838 -4.10156 0
M  V30 943 H 87.292 -1.39733 -4.39313 0
M  V30 944 H 90.836 -4.78034 -5.08064 0
M  V30 945 H 86.733 -3.58033 -5.37106 0
M  V30 946 H 87.501 -5.55494 -6.0114 0
M  V30 947 N 90.1641 1.46063 -0.591896 0
M  V30 948 C 91.0961 2.28539 0.174001 0
M  V30 949 C 92.1091 1.39047 0.846753 0
M  V30 950 O 93.2981 1.63564 0.714774 0
M  V30 951 C 90.3981 3.14347 1.26645 0
M  V30 952 C 89.5711 4.32021 0.683856 0
M  V30 953 C 88.6301 4.99157 1.66518 0
M  V30 954 O 87.6561 5.56458 1.19763 0
M  V30 955 N 88.8581 4.97005 2.99943 0
M  V30 956 H 91.6231 2.94911 -0.533633 0
M  V30 957 H 89.1841 1.56077 -0.430294 0
M  V30 958 H 91.1761 3.56125 1.92242 0
M  V30 959 H 89.7461 2.49988 1.87682 0
M  V30 960 H 88.9661 3.93915 -0.1498 0
M  V30 961 H 90.2541 5.08059 0.274567 0
M  V30 962 H 89.6521 4.51714 3.40545 0
M  V30 963 H 88.2091 5.42696 3.61004 0
M  V30 964 N 91.6422 0.330177 1.54103 0
M  V30 965 C 92.6052 -0.520144 2.2322 0
M  V30 966 C 93.6052 -1.03828 1.22786 0
M  V30 967 O 94.7952 -0.929652 1.4732 0
M  V30 968 C 91.9272 -1.72317 2.94142 0
M  V30 969 H 93.1202 0.0841605 2.99782 0
M  V30 970 H 90.6732 0.0813433 1.56088 0
M  V30 971 H 91.4082 -2.36653 2.21734 0
M  V30 972 H 91.1932 -1.35898 3.67796 0
M  V30 973 H 92.6832 -2.3266 3.46784 0
M  V30 974 N 93.1203 -1.57491 0.0584922 0
M  V30 975 C 94.3453 -1.97711 -0.62652 0
M  V30 976 C 94.7703 -0.936132 -1.63151 0
M  V30 977 O 94.1283 0.099811 -1.81025 0
M  V30 978 C 94.1763 -3.36989 -1.28338 0
M  V30 979 O 93.2803 -3.35433 -2.39913 0
M  V30 980 H 92.6213 -0.643868 -0.162266 0
M  V30 981 H 95.1513 -2.04193 0.129064 0
M  V30 982 H 95.1613 -3.73879 -1.63335 0
M  V30 983 H 93.8363 -4.12289 -0.546889 0
M  V30 984 H 92.4133 -3.10298 -2.06809 0
M  V30 985 N 94.5984 0.214957 -1.56127 0
M  V30 986 C 95.8464 0.936518 -1.79091 0
M  V30 987 C 96.1674 1.84606 -0.628148 0
M  V30 988 O 95.4374 1.92664 0.35462 0
M  V30 989 H 94.0174 0.3488 -0.660566 0
M  V30 990 H 96.6794 0.22523 -1.93594 0
M  V30 991 H 95.7754 1.53943 -2.71492 0
M  V30 992 N 96.0765 1.50051 0.48192 0
M  V30 993 C 97.0065 1.71046 1.58951 0
M  V30 994 C 97.9875 0.559288 1.60642 0
M  V30 995 O 99.1725 0.797243 1.77081 0
M  V30 996 C 96.3025 1.79462 2.97339 0
M  V30 997 C 95.2565 2.94558 3.10515 0
M  V30 998 C 94.5825 2.88105 4.50444 0
M  V30 999 C 95.8825 4.35227 2.88747 0
M  V30 1000 H 97.5765 2.6378 1.41635 0
M  V30 1001 H 95.1225 1.26936 0.679942 0
M  V30 1002 H 97.0755 1.92734 3.74742 0
M  V30 1003 H 95.7995 0.833412 3.15788 0
M  V30 1004 H 94.4585 2.80918 2.35543 0
M  V30 1005 H 94.1065 1.89853 4.65795 0
M  V30 1006 H 93.8065 3.65366 4.60197 0
M  V30 1007 H 95.3305 3.03412 5.29881 0
M  V30 1008 H 96.7445 4.49449 3.55905 0
M  V30 1009 H 95.1415 5.13856 3.09955 0
M  V30 1010 H 96.2115 4.48347 1.84696 0
M  V30 1011 N 97.5546 -0.734337 1.39446 0
M  V30 1012 C 98.5016 -1.84835 1.38219 0
M  V30 1013 C 99.4716 -1.64331 0.24179 0
M  V30 1014 O 100.657 -1.85728 0.437002 0
M  V30 1015 C 97.7966 -3.22355 1.23212 0
M  V30 1016 C 96.9096 -3.5456 2.46801 0
M  V30 1017 C 96.0446 -4.81485 2.24377 0
M  V30 1018 C 95.0836 -5.06536 3.43639 0
M  V30 1019 N 94.2206 -6.24665 3.20528 0
M  V30 1020 H 99.0606 -1.85219 2.33448 0
M  V30 1021 H 96.5976 -0.905039 1.15963 0
M  V30 1022 H 98.5556 -4.0174 1.12522 0
M  V30 1023 H 97.1856 -3.21248 0.316121 0
M  V30 1024 H 96.2376 -2.69872 2.68092 0
M  V30 1025 H 97.5496 -3.6899 3.3563 0
M  V30 1026 H 96.7036 -5.68852 2.10933 0
M  V30 1027 H 95.4426 -4.6923 1.32944 0
M  V30 1028 H 94.4476 -4.17632 3.5758 0
M  V30 1029 H 95.6726 -5.20676 4.35974 0
M  V30 1030 H 93.6186 -6.13696 2.3176 0
M  V30 1031 H 93.5356 -6.39685 4.02913 0
M  V30 1032 H 94.8036 -7.14868 3.10779 0
M  V30 1033 N 99.0327 -1.24633 -0.964593 0
M  V30 1034 C 100.279 -1.08949 -1.71049 0
M  V30 1035 C 100.612 0.370302 -1.90637 0
M  V30 1036 O 99.8867 1.27349 -1.47011 0
M  V30 1037 C 100.17 -1.83329 -3.0994 0
M  V30 1038 C 100.023 -3.37077 -2.97824 0
M  V30 1039 C 101.342 -1.60846 -4.09654 0
M  V30 1040 H 98.4607 -0.397178 -0.620821 0
M  V30 1041 H 101.103 -1.5334 -1.12191 0
M  V30 1042 H 99.2527 -1.45597 -3.60186 0
M  V30 1043 H 100.925 -3.84425 -2.5498 0
M  V30 1044 H 99.1677 -3.65298 -2.33965 0
M  V30 1045 H 99.8387 -3.84324 -3.96231 0
M  V30 1046 H 102.315 -1.93674 -3.68279 0
M  V30 1047 H 101.191 -2.1534 -5.04896 0
M  V30 1048 H 101.452 -0.547434 -4.38698 0
M  V30 1049 N 100.511 1.16574 -1.06058 0
M  V30 1050 C 101.76 1.86385 -0.770944 0
M  V30 1051 C 102.073 1.82448 0.705129 0
M  V30 1052 O 103.279 2.47815 1.10905 0
M  V30 1053 C 101.735 3.34466 -1.32893 0
M  V30 1054 C 101.343 3.46883 -2.83507 0
M  V30 1055 C 103.087 4.09548 -1.11672 0
M  V30 1056 C 100.994 4.89036 -3.32562 0
M  V30 1057 H 99.9238 0.698181 -0.284709 0
M  V30 1058 H 102.575 1.31583 -1.27899 0
M  V30 1059 H 100.957 3.88859 -0.748662 0
M  V30 1060 H 102.131 3.02663 -3.47465 0
M  V30 1061 H 100.446 2.85232 -3.03368 0
M  V30 1062 H 103.043 5.14434 -1.45814 0
M  V30 1063 H 103.386 4.16264 -0.0549535 0
M  V30 1064 H 103.919 3.61387 -1.66265 0
M  V30 1065 H 100.658 4.87499 -4.38207 0
M  V30 1066 H 100.178 5.3389 -2.73351 0
M  V30 1067 H 101.857 5.57843 -3.2775 0
M  V30 1068 N 101.989 0.842826 1.3317 0
M  V30 1069 C 102.899 0.281444 2.32906 0
M  V30 1070 C 103.915 -0.594587 1.63526 0
M  V30 1071 O 105.091 -0.49777 1.95152 0
M  V30 1072 C 102.156 -0.530929 3.42611 0
M  V30 1073 C 101.217 0.369843 4.27704 0
M  V30 1074 C 100.45 -0.403853 5.3217 0
M  V30 1075 O 100.673 -1.63513 5.46461 0
M  V30 1076 O 99.6069 0.224199 6.01482 0
M  V30 1077 H 103.433 1.10744 2.82789 0
M  V30 1078 H 101.018 0.60545 1.36582 0
M  V30 1079 H 102.9 -0.992437 4.09547 0
M  V30 1080 H 101.575 -1.33392 2.94938 0
M  V30 1081 H 100.482 0.879275 3.6362 0
M  V30 1082 H 101.815 1.13771 4.78871 0
M  V30 1083 N 103.467 -1.45747 0.599634 0
M  V30 1084 C 104.744 -1.95585 0.0240846 0
M  V30 1085 C 105.124 -1.54217 -1.44154 0
M  V30 1086 O 104.472 -0.800903 -2.14004 0
M  V30 1087 C 104.682 -3.48344 0.21385 0
M  V30 1088 C 106.03 -4.24504 0.0904902 0
M  V30 1089 O 107.054 -3.55911 0.143558 0
M  V30 1090 O 105.913 -5.46491 -0.0310766 0
M  V30 1091 H 103.007 -0.82602 -0.0402478 0
M  V30 1092 H 105.553 -1.55951 0.669139 0
M  V30 1093 H 104.325 -3.71397 1.23206 0
M  V30 1094 H 103.948 -3.9485 -0.466842 0
M  V30 1095 N 104.945 -0.338344 -1.53925 0
M  V30 1096 C 106.17 0.263987 -2.05713 0
M  V30 1097 C 106.595 1.43847 -1.21201 0
M  V30 1098 O 105.953 1.79904 -0.224535 0
M  V30 1099 C 106.001 0.662 -3.54471 0
M  V30 1100 O 105.105 1.76265 -3.72833 0
M  V30 1101 H 104.446 0.0448722 -0.662482 0
M  V30 1102 H 106.976 -0.491048 -1.9862 0
M  V30 1103 H 106.986 0.940594 -3.9701 0
M  V30 1104 H 105.661 -0.196937 -4.15433 0
M  V30 1105 H 104.238 1.48173 -3.42198 0
M  V30 1106 N 106.423 1.57458 -0.0668435 0
M  V30 1107 C 107.353 2.15468 0.899764 0
M  V30 1108 C 108.334 1.08042 1.31381 0
M  V30 1109 O 109.519 1.36054 1.38574 0
M  V30 1110 C 106.649 2.71232 2.16911 0
M  V30 1111 C 105.603 3.83781 1.89463 0
M  V30 1112 C 104.929 4.26127 3.22986 0
M  V30 1113 C 106.229 5.08238 1.20381 0
M  V30 1114 H 107.923 2.96488 0.416529 0
M  V30 1115 H 105.469 1.4262 0.198908 0
M  V30 1116 H 107.422 3.10458 2.84945 0
M  V30 1117 H 106.146 1.87426 2.67468 0
M  V30 1118 H 104.805 3.45051 1.23836 0
M  V30 1119 H 104.453 3.39249 3.71374 0
M  V30 1120 H 104.153 5.01993 3.05413 0
M  V30 1121 H 105.677 4.67966 3.92225 0
M  V30 1122 H 107.091 5.44811 1.78475 0
M  V30 1123 H 105.488 5.89349 1.13083 0
M  V30 1124 H 106.558 4.84558 0.182153 0
M  V30 1125 N 107.901 -0.206675 1.56239 0
M  V30 1126 C 108.864 -1.23976 1.92776 0
M  V30 1127 C 109.864 -1.39041 0.807729 0
M  V30 1128 O 111.054 -1.37051 1.0753 0
M  V30 1129 C 108.186 -2.61112 2.19165 0
M  V30 1130 H 109.379 -0.927764 2.85189 0
M  V30 1131 H 106.932 -0.447718 1.4975 0
M  V30 1132 H 107.667 -2.97386 1.29352 0
M  V30 1133 H 107.452 -2.51552 3.00772 0
M  V30 1134 H 108.942 -3.35633 2.48476 0
M  V30 1135 N 109.379 -1.50304 -0.473955 0
M  V30 1136 C 110.656 -1.51667 -1.23518 0
M  V30 1137 C 111.036 -0.259701 -2.09496 0
M  V30 1138 O 110.384 0.756986 -2.15597 0
M  V30 1139 C 110.594 -2.81082 -2.06868 0
M  V30 1140 C 111.942 -3.31631 -2.65153 0
M  V30 1141 O 112.966 -2.82384 -2.17113 0
M  V30 1142 O 111.825 -4.17471 -3.52675 0
M  V30 1143 H 108.919 -0.60822 -0.560355 0
M  V30 1144 H 111.465 -1.62592 -0.486011 0
M  V30 1145 H 110.237 -3.64041 -1.4349 0
M  V30 1146 H 109.86 -2.73146 -2.88924 0
M  V30 1147 N 110.857 0.726932 -1.39834 0
M  V30 1148 C 112.087 1.51393 -1.40583 0
M  V30 1149 C 112.495 1.892 -0.000740625 0
M  V30 1150 O 111.838 1.55189 0.982951 0
M  V30 1151 C 111.9 2.82588 -2.22226 0
M  V30 1152 C 111.564 2.67169 -3.70769 0
M  V30 1153 C 112.561 2.3518 -4.63666 0
M  V30 1154 C 110.246 2.83788 -4.14451 0
M  V30 1155 C 112.24 2.20002 -5.98229 0
M  V30 1156 C 109.927 2.68229 -5.49087 0
M  V30 1157 C 110.925 2.36382 -6.4079 0
M  V30 1158 O 110.613 2.2093 -7.72946 0
M  V30 1159 H 110.345 0.474168 -0.48181 0
M  V30 1160 H 112.899 0.905247 -1.84376 0
M  V30 1161 H 111.129 3.45746 -1.73195 0
M  V30 1162 H 112.818 3.44247 -2.15055 0
M  V30 1163 H 113.584 2.21984 -4.31217 0
M  V30 1164 H 109.463 3.07566 -3.43401 0
M  V30 1165 H 113.007 1.95067 -6.69772 0
M  V30 1166 H 108.904 2.81006 -5.81125 0
M  V30 1167 H 109.672 2.35937 -7.83757 0
M  V30 1168 N 112.336 1.25143 0.95797 0
M  V30 1169 C 113.747 1.08851 1.51685 0
M  V30 1170 C 114.098 -0.33687 1.93286 0
M  V30 1171 O 113.223 -1.22644 1.7829 0
M  V30 1172 C 113.818 1.96978 2.75654 0
M  V30 1173 C 112.377 1.84881 3.27866 0
M  V30 1174 C 111.524 1.91329 2.0072 0
M  V30 1175 H 114.475 1.38478 0.77522 0
M  V30 1176 H 114.496 1.5078 3.4935 0
M  V30 1177 H 114.008 3.00712 2.45345 0
M  V30 1178 H 112.109 0.840182 3.63004 0
M  V30 1179 H 112.222 2.6951 3.96107 0
M  V30 1180 H 110.586 1.35174 2.15871 0
M  V30 1181 H 111.369 2.96661 1.72764 0
M  V30 1182 N 113.814 -1.1601 1.06675 0
M  V30 1183 C 115.062 -1.86264 0.784229 0
M  V30 1184 C 115.383 -1.82328 -0.691488 0
M  V30 1185 O 114.653 -1.25947 -1.50047 0
M  V30 1186 H 113.233 -0.689621 0.28711 0
M  V30 1187 H 115.895 -1.40664 1.34906 0
M  V30 1188 H 114.991 -2.91595 1.11259 0
M  V30 1189 N 115.292 -0.849877 -1.32721 0
M  V30 1190 C 116.703 -0.506188 -1.79707 0
M  V30 1191 C 117.054 0.975627 -1.70223 0
M  V30 1192 O 116.179 1.76078 -1.25799 0
M  V30 1193 C 116.774 -0.912044 -3.26293 0
M  V30 1194 C 115.333 -0.620326 -3.71253 0
M  V30 1195 C 114.48 -1.11439 -2.53922 0
M  V30 1196 H 117.431 -1.03754 -1.20087 0
M  V30 1197 H 117.452 -0.226493 -3.79825 0
M  V30 1198 H 116.964 -1.99057 -3.33164 0
M  V30 1199 H 115.065 0.447674 -3.69901 0
M  V30 1200 H 115.178 -1.18327 -4.64258 0
M  V30 1201 H 113.542 -0.534834 -2.49021 0
M  V30 1202 H 114.325 -2.19992 -2.6355 0
M  V30 1203 N 116.77 1.45427 -0.607355 0
M  V30 1204 C 117.7 2.3329 0.0989352 0
M  V30 1205 C 118.681 1.46816 0.859007 0
M  V30 1206 O 119.866 1.75588 0.829604 0
M  V30 1207 C 116.996 3.29518 1.09705 0
M  V30 1208 C 115.95 4.25626 0.450206 0
M  V30 1209 C 115.276 5.11542 1.55655 0
M  V30 1210 C 116.576 5.18505 -0.628455 0
M  V30 1211 H 118.27 2.92595 -0.634716 0
M  V30 1212 H 115.816 1.40696 -0.306681 0
M  V30 1213 H 117.769 3.89855 1.59971 0
M  V30 1214 H 116.493 2.68372 1.86129 0
M  V30 1215 H 115.152 3.66586 -0.0315886 0
M  V30 1216 H 114.8 4.46765 2.31107 0
M  V30 1217 H 114.5 5.76647 1.12925 0
M  V30 1218 H 116.024 5.74748 2.06148 0
M  V30 1219 H 117.438 5.72916 -0.209877 0
M  V30 1220 H 115.835 5.92085 -0.977489 0
M  V30 1221 H 116.905 4.60948 -1.50514 0
M  V30 1222 N 118.248 0.346503 1.53744 0
M  V30 1223 C 119.211 -0.496439 2.23759 0
M  V30 1224 C 120.211 -1.0252 1.2388 0
M  V30 1225 O 121.401 -0.913974 1.48297 0
M  V30 1226 C 118.533 -1.69187 2.95954 0
M  V30 1227 H 119.726 0.115952 2.99676 0
M  V30 1228 H 117.279 0.0978939 1.55993 0
M  V30 1229 H 118.014 -2.34288 2.24231 0
M  V30 1230 H 117.799 -1.31989 3.69217 0
M  V30 1231 H 119.289 -2.28969 3.49232 0
M  V30 1232 N 119.726 -1.57421 0.075193 0
M  V30 1233 C 120.974 -1.93236 -0.591974 0
M  V30 1234 C 121.295 -0.956241 -1.69944 0
M  V30 1235 O 120.565 -0.00494792 -1.95899 0
M  V30 1236 H 119.145 -0.713355 -0.22166 0
M  V30 1237 H 121.807 -1.9444 0.133848 0
M  V30 1238 H 120.903 -2.95131 -1.01509 0
M  V30 1239 N 121.204 0.198386 -1.56346 0
M  V30 1240 C 122.137 1.27381 -1.89339 0
M  V30 1241 C 123.115 1.44106 -0.753134 0
M  V30 1242 O 124.299 1.59549 -1.00381 0
M  V30 1243 C 121.426 2.6409 -2.12071 0
M  V30 1244 C 120.472 2.64253 -3.34772 0
M  V30 1245 S 121.305 2.16013 -4.89999 0
M  V30 1246 C 122.461 3.54553 -5.15794 0
M  V30 1247 H 122.694 0.992058 -2.8026 0
M  V30 1248 H 120.227 0.401726 -1.49082 0
M  V30 1249 H 122.185 3.42786 -2.2585 0
M  V30 1250 H 120.846 2.89478 -1.21906 0
M  V30 1251 H 120.039 3.64768 -3.47794 0
M  V30 1252 H 119.641 1.93637 -3.1997 0
M  V30 1253 H 121.933 4.50396 -5.06112 0
M  V30 1254 H 122.876 3.46428 -6.1757 0
M  V30 1255 H 123.284 3.49313 -4.43442 0
M  V30 1256 N 122.682 1.50554 0.465978 0
M  V30 1257 C 123.612 1.72722 1.57128 0
M  V30 1258 C 124.593 0.576294 1.6004 0
M  V30 1259 O 125.778 0.81598 1.76225 0
M  V30 1260 C 122.908 1.82605 2.95419 0
M  V30 1261 C 121.862 2.97835 3.07373 0
M  V30 1262 C 121.188 2.92867 4.47363 0
M  V30 1263 C 122.488 4.38265 2.84114 0
M  V30 1264 H 124.182 2.65267 1.38829 0
M  V30 1265 H 121.728 1.2765 0.666441 0
M  V30 1266 H 123.681 1.96698 3.72677 0
M  V30 1267 H 122.405 0.866858 3.14886 0
M  V30 1268 H 121.064 2.83401 2.3255 0
M  V30 1269 H 120.712 1.94783 4.63755 0
M  V30 1270 H 120.412 3.70227 4.56296 0
M  V30 1271 H 121.936 3.09015 5.26633 0
M  V30 1272 H 123.35 4.53198 3.51118 0
M  V30 1273 H 121.747 5.17115 3.04487 0
M  V30 1274 H 122.817 4.50281 1.7993 0
M  V30 1275 N 124.16 -0.719506 1.40217 0
M  V30 1276 C 125.385 -1.51371 1.4178 0
M  V30 1277 C 125.81 -1.88091 0.0182355 0
M  V30 1278 O 125.168 -1.52997 -0.972707 0
M  V30 1279 C 125.216 -2.768 2.31115 0
M  V30 1280 O 124.32 -3.73349 1.7517 0
M  V30 1281 H 123.661 -0.456529 0.482159 0
M  V30 1282 H 126.191 -0.88644 1.844 0
M  V30 1283 H 126.201 -3.25371 2.46167 0
M  V30 1284 H 124.876 -2.49407 3.3282 0
M  V30 1285 H 123.453 -3.32179 1.69444 0
M  V30 1286 N 125.638 -1.25649 -0.95132 0
M  V30 1287 C 126.884 -1.10757 -1.69884 0
M  V30 1288 C 127.217 0.350061 -1.91019 0
M  V30 1289 O 126.492 1.25783 -1.48354 0
M  V30 1290 C 126.775 -1.86606 -3.07978 0
M  V30 1291 C 126.628 -3.40217 -2.94232 0
M  V30 1292 C 127.947 -1.65182 -4.07925 0
M  V30 1293 H 125.066 -0.40374 -0.616574 0
M  V30 1294 H 127.708 -1.54521 -1.10558 0
M  V30 1295 H 125.858 -1.49409 -3.58621 0
M  V30 1296 H 127.53 -3.87108 -2.50889 0
M  V30 1297 H 125.773 -3.67759 -2.30078 0
M  V30 1298 H 126.444 -3.88505 -3.92133 0
M  V30 1299 H 128.92 -1.9757 -3.66204 0
M  V30 1300 H 127.796 -2.20683 -5.02583 0
M  V30 1301 H 128.057 -0.593933 -4.38092 0
M  V30 1302 N 127.117 1.15442 -1.07289 0
M  V30 1303 C 128.05 2.19135 -0.636798 0
M  V30 1304 C 129.028 1.58884 0.34562 0
M  V30 1305 O 130.212 1.86805 0.252195 0
M  V30 1306 C 127.339 3.38638 0.0650014 0
M  V30 1307 C 126.385 4.17412 -0.87576 0
M  V30 1308 S 127.218 4.79882 -2.37642 0
M  V30 1309 C 128.374 6.02753 -1.6864 0
M  V30 1310 H 128.607 2.55787 -1.51526 0
M  V30 1311 H 126.14 1.26394 -0.886793 0
M  V30 1312 H 128.098 4.07873 0.463664 0
M  V30 1313 H 126.759 3.00331 0.919801 0
M  V30 1314 H 125.952 5.02909 -0.33143 0
M  V30 1315 H 125.554 3.53722 -1.21478 0
M  V30 1316 H 127.846 6.70113 -0.997753 0
M  V30 1317 H 128.789 6.61754 -2.51967 0
M  V30 1318 H 129.197 5.52355 -1.16465 0
M  V30 1319 N 128.595 0.856903 1.32268 0
M  V30 1320 C 129.527 0.260412 2.27716 0
M  V30 1321 C 130.54 -0.569137 1.52528 0
M  V30 1322 O 131.729 -0.39326 1.74114 0
M  V30 1323 C 128.829 -0.650477 3.32599 0
M  V30 1324 C 128.002 0.14372 4.37164 0
M  V30 1325 C 127.061 -0.69328 5.21613 0
M  V30 1326 O 126.087 -0.12599 5.69061 0
M  V30 1327 N 127.289 -2.00761 5.44679 0
M  V30 1328 H 130.054 1.08059 2.79541 0
M  V30 1329 H 127.615 0.717103 1.45152 0
M  V30 1330 H 129.607 -1.21581 3.86005 0
M  V30 1331 H 128.177 -1.37133 2.80915 0
M  V30 1332 H 127.397 0.890486 3.8401 0
M  V30 1333 H 128.685 0.68915 5.04111 0
M  V30 1334 H 128.083 -2.49181 5.07863 0
M  V30 1335 H 126.64 -2.52103 6.01072 0
M  V30 1336 N 130.073 -1.45103 0.615059 0
M  V30 1337 C 131.005 -2.28786 -0.13762 0
M  V30 1338 C 132.018 -1.40376 -0.824525 0
M  V30 1339 O 133.207 -1.64681 -0.688662 0
M  V30 1340 C 130.307 -3.16322 -1.21628 0
M  V30 1341 C 129.48 -4.33054 -0.615039 0
M  V30 1342 C 128.539 -5.01743 -1.58556 0
M  V30 1343 O 127.565 -5.58293 -1.10895 0
M  V30 1344 N 128.767 -5.01714 -2.91998 0
M  V30 1345 H 131.532 -2.94025 0.580483 0
M  V30 1346 H 129.093 -1.55373 0.45507 0
M  V30 1347 H 131.085 -3.59139 -1.86552 0
M  V30 1348 H 129.655 -2.52943 -1.83681 0
M  V30 1349 H 128.875 -3.93627 0.21245 0
M  V30 1350 H 130.163 -5.08431 -0.193704 0
M  V30 1351 H 129.561 -4.57075 -3.33316 0
M  V30 1352 H 128.118 -5.48371 -3.52325 0
M  V30 1353 N 131.551 -0.354651 -1.53558 0
M  V30 1354 C 132.461 0.50515 -2.29097 0
M  V30 1355 C 133.477 1.10223 -1.34636 0
M  V30 1356 O 134.653 1.11553 -1.67684 0
M  V30 1357 C 131.718 1.63479 -3.05738 0
M  V30 1358 C 130.779 1.06636 -4.15845 0
M  V30 1359 C 130.012 2.14217 -4.88822 0
M  V30 1360 O 130.235 3.35137 -4.61562 0
M  V30 1361 O 129.169 1.77887 -5.75013 0
M  V30 1362 H 132.995 -0.109237 -3.03503 0
M  V30 1363 H 130.58 -0.119357 -1.48922 0
M  V30 1364 H 132.462 2.2918 -3.5363 0
M  V30 1365 H 131.137 2.23478 -2.34178 0
M  V30 1366 H 130.044 0.373565 -3.7223 0
M  V30 1367 H 131.377 0.511081 -4.89539 0
M  V30 1368 N 133.029 1.57378 -0.0835403 0
M  V30 1369 C 133.992 2.12252 0.864959 0
M  V30 1370 C 134.992 1.04916 1.21858 0
M  V30 1371 O 136.182 1.30853 1.14991 0
M  V30 1372 C 133.314 2.63358 2.16461 0
M  V30 1373 H 134.507 2.97371 0.388676 0
M  V30 1374 H 132.06 1.55423 0.165317 0
M  V30 1375 H 132.795 1.81727 2.686 0
M  V30 1376 H 132.58 3.41826 1.92087 0
M  V30 1377 H 134.07 3.05847 2.84337 0
M  V30 1378 N 134.507 -0.190092 1.56449 0
M  V30 1379 C 135.755 -0.907908 1.80559 0
M  V30 1380 C 136.076 -1.83583 0.657438 0
M  V30 1381 O 135.346 -1.93203 -0.323924 0
M  V30 1382 H 133.926 -0.338247 0.666032 0
M  V30 1383 H 136.588 -0.194403 1.93928 0
M  V30 1384 H 135.684 -1.49604 2.73907 0
M  V30 1385 N 135.985 -1.50799 -0.457987 0
M  V30 1386 C 136.895 -1.73426 -1.57989 0
M  V30 1387 C 137.911 -0.617745 -1.62665 0
M  V30 1388 O 139.087 -0.897614 -1.80291 0
M  V30 1389 C 136.152 -1.83557 -2.94122 0
M  V30 1390 C 135.213 -3.07345 -2.99729 0
M  V30 1391 C 134.446 -3.16983 -4.29368 0
M  V30 1392 O 134.669 -2.33077 -5.20607 0
M  V30 1393 O 133.603 -4.09812 -4.40837 0
M  V30 1394 H 137.429 -2.68555 -1.41817 0
M  V30 1395 H 135.014 -1.35052 -0.638859 0
M  V30 1396 H 136.896 -1.92326 -3.74952 0
M  V30 1397 H 135.571 -0.916137 -3.10465 0
M  V30 1398 H 134.478 -3.04068 -2.1793 0
M  V30 1399 H 135.811 -3.9891 -2.88326 0
M  V30 1400 N 137.463 0.71206 -1.40597 0
M  V30 1401 C 138.709 1.47292 -1.40274 0
M  V30 1402 C 139.064 1.92399 -0.00576812 0
M  V30 1403 O 138.357 1.65507 0.965297 0
M  V30 1404 C 138.551 2.71039 -2.32965 0
M  V30 1405 C 138.38 2.38035 -3.81536 0
M  V30 1406 C 137.15 2.29203 -4.50327 0
M  V30 1407 C 139.348 2.02076 -4.72938 0
M  V30 1408 N 137.33 1.88911 -5.84111 0
M  V30 1409 C 138.701 1.72412 -5.95545 0
M  V30 1410 C 140.756 1.88742 -4.60739 0
M  V30 1411 C 139.459 1.30756 -7.07316 0
M  V30 1412 C 141.485 1.4849 -5.72455 0
M  V30 1413 C 140.847 1.19726 -6.94151 0
M  V30 1414 H 136.946 0.536919 -0.568544 0
M  V30 1415 H 139.53 0.825424 -1.76337 0
M  V30 1416 H 137.701 3.33533 -1.99023 0
M  V30 1417 H 139.433 3.37404 -2.23474 0
M  V30 1418 H 136.188 2.47059 -4.04053 0
M  V30 1419 H 136.612 1.71293 -6.54972 0
M  V30 1420 H 141.254 2.0964 -3.67166 0
M  V30 1421 H 138.972 1.08601 -8.00769 0
M  V30 1422 H 142.558 1.38747 -5.65014 0
M  V30 1423 H 141.438 0.890482 -7.79128 0
M  V30 1424 N 138.941 1.26152 0.944643 0
M  V30 1425 C 140.188 1.11492 1.69044 0
M  V30 1426 C 140.516 -0.342366 1.91463 0
M  V30 1427 O 139.771 -1.26812 1.49054 0
M  V30 1428 C 140.07 1.82541 3.07268 0
M  V30 1429 C 139.736 3.32445 3.04616 0
M  V30 1430 C 138.398 3.73337 3.036 0
M  V30 1431 C 140.75 4.28171 2.97185 0
M  V30 1432 C 138.078 5.08348 2.92915 0
M  V30 1433 C 140.43 5.63218 2.88041 0
M  V30 1434 C 139.094 6.03426 2.85366 0
M  V30 1435 H 138.364 0.407977 0.618576 0
M  V30 1436 H 141.011 1.56551 1.10291 0
M  V30 1437 H 139.316 1.29941 3.69625 0
M  V30 1438 H 141.013 1.68642 3.63815 0
M  V30 1439 H 137.603 2.99915 3.06185 0
M  V30 1440 H 141.787 3.97563 2.97081 0
M  V30 1441 H 137.043 5.38667 2.89219 0
M  V30 1442 H 141.217 6.37078 2.81254 0
M  V30 1443 H 138.844 7.07999 2.76842 0
M  V30 1444 N 140.419 -1.14872 1.07899 0
M  V30 1445 C 141.349 -2.2193 0.725887 0
M  V30 1446 C 142.33 -1.67622 -0.28927 0
M  V30 1447 O 143.515 -1.93533 -0.160787 0
M  V30 1448 C 140.645 -3.47061 0.128856 0
M  V30 1449 C 139.599 -4.14363 1.07178 0
M  V30 1450 C 138.925 -5.33636 0.337229 0
M  V30 1451 C 140.225 -4.63492 2.40775 0
M  V30 1452 H 141.919 -2.51724 1.62097 0
M  V30 1453 H 139.465 -1.20991 0.780838 0
M  V30 1454 H 141.418 -4.21199 -0.130147 0
M  V30 1455 H 140.142 -3.16617 -0.80134 0
M  V30 1456 H 138.801 -3.42173 1.3158 0
M  V30 1457 H 138.449 -4.99449 -0.596606 0
M  V30 1458 H 138.149 -5.79609 0.965788 0
M  V30 1459 H 139.673 -6.10539 0.0861567 0
M  V30 1460 H 141.087 -5.2913 2.20669 0
M  V30 1461 H 139.484 -5.20148 2.99276 0
M  V30 1462 H 140.554 -3.78834 3.02676 0
M  V30 1463 N 141.898 -0.863906 -1.31812 0
M  V30 1464 C 143.145 -0.471836 -1.96926 0
M  V30 1465 C 143.473 0.974578 -1.68322 0
M  V30 1466 O 142.728 1.7003 -0.968933 0
M  V30 1467 C 143.027 -0.668547 -3.51091 0
M  V30 1468 C 142.693 -2.08683 -3.99703 0
M  V30 1469 C 141.355 -2.47471 -4.12688 0
M  V30 1470 C 143.707 -3.01207 -4.25351 0
M  V30 1471 C 141.035 -3.78037 -4.4867 0
M  V30 1472 C 143.387 -4.31282 -4.62794 0
M  V30 1473 C 142.051 -4.69992 -4.73987 0
M  V30 1474 H 141.321 -0.172657 -0.720604 0
M  V30 1475 H 143.968 -1.09573 -1.57054 0
M  V30 1476 H 142.273 0.0385252 -3.91781 0
M  V30 1477 H 143.97 -0.345102 -3.99512 0
M  V30 1478 H 140.56 -1.77566 -3.90087 0
M  V30 1479 H 144.744 -2.72469 -4.14819 0
M  V30 1480 H 140 -4.078 -4.55532 0
M  V30 1481 H 144.174 -5.03031 -4.81594 0
M  V30 1482 H 141.801 -5.71207 -5.01624 0
M  V30 1483 N 143.376 1.44774 -0.622745 0
M  V30 1484 C 144.616 2.04004 -0.127102 0
M  V30 1485 C 144.98 1.47862 1.22478 0
M  V30 1486 O 146.181 1.98541 1.81204 0
M  V30 1487 C 144.452 3.57247 -0.104429 0
M  V30 1488 S 146.011 4.37574 0.327814 0
M  V30 1489 H 142.829 0.708713 -0.0569776 0
M  V30 1490 H 145.431 1.77275 -0.824253 0
M  V30 1491 H 144.135 3.95616 -1.09159 0
M  V30 1492 H 143.666 3.88575 0.614236 0
M  V30 1493 H 145.681 4.70575 1.57395 0
M  V30 1494 N 144.854 0.36279 1.53368 0
M  V30 1495 C 146.265 -0.117022 1.86333 0
M  V30 1496 C 146.616 -1.48397 1.28347 0
M  V30 1497 O 145.741 -2.07787 0.604428 0
M  V30 1498 C 146.336 -0.21912 3.38091 0
M  V30 1499 C 144.895 -0.643184 3.70864 0
M  V30 1500 C 144.042 0.211318 2.76494 0
M  V30 1501 H 146.993 0.581687 1.47655 0
M  V30 1502 H 147.014 -1.04319 3.6592 0
M  V30 1503 H 146.526 0.775902 3.80265 0
M  V30 1504 H 144.627 -1.64654 3.34245 0
M  V30 1505 H 144.74 -0.41973 4.77258 0
M  V30 1506 H 143.104 -0.319367 2.5269 0
M  V30 1507 H 143.887 1.20383 3.21501 0
M  V30 1508 N 146.332 -1.57332 0.0918853 0
M  V30 1509 C 147.572 -1.96117 -0.575988 0
M  V30 1510 C 147.936 -0.972499 -1.65549 0
M  V30 1511 O 149.137 -1.24872 -2.38034 0
M  V30 1512 C 147.408 -3.39407 -1.11973 0
M  V30 1513 S 148.967 -4.00185 -1.79992 0
M  V30 1514 H 145.785 -0.685682 -0.188045 0
M  V30 1515 H 148.387 -1.94755 0.170525 0
M  V30 1516 H 147.091 -4.09131 -0.322504 0
M  V30 1517 H 146.622 -3.44358 -1.90214 0
M  V30 1518 H 148.637 -3.88728 -3.08391 0
M  V30 1519 N 147.81 0.181792 -1.56548 0
M  V30 1520 C 149.087 0.926765 -1.72251 0
M  V30 1521 C 149.467 2.00831 -0.650386 0
M  V30 1522 O 148.815 2.26008 0.336521 0
M  V30 1523 C 149.025 1.50106 -3.1507 0
M  V30 1524 C 150.373 1.97805 -3.75711 0
M  V30 1525 O 151.397 1.59922 -3.18282 0
M  V30 1526 O 150.256 2.67555 -4.76525 0
M  V30 1527 H 147.35 0.435506 -0.703039 0
M  V30 1528 H 149.896 0.170443 -1.68842 0
M  V30 1529 H 148.668 0.72212 -3.84579 0
M  V30 1530 H 148.291 2.32186 -3.22763 0
M  V30 1531 N 149.288 1.51039 0.449983 0
M  V30 1532 C 150.516 1.66869 1.2232 0
M  V30 1533 C 150.931 0.360727 1.85322 0
M  V30 1534 O 150.288 -0.659531 1.70166 0
M  V30 1535 C 150.339 2.77524 2.31652 0
M  V30 1536 O 150.06 4.03252 1.7123 0
M  V30 1537 C 151.561 3.04512 3.2216 0
M  V30 1538 H 148.781 0.560326 0.369155 0
M  V30 1539 H 151.325 1.97385 0.534719 0
M  V30 1540 H 149.48 2.49642 2.96239 0
M  V30 1541 H 149.894 4.64609 2.43389 0
M  V30 1542 H 151.368 3.85551 3.95038 0
M  V30 1543 H 151.845 2.16415 3.8218 0
M  V30 1544 H 152.451 3.34005 2.63288 0
M  V30 1545 N 150.766 -0.704594 1.40972 0
M  V30 1546 C 152.177 -1.28418 1.3552 0
M  V30 1547 C 152.528 -1.96171 0.0339434 0
M  V30 1548 O 151.653 -1.98231 -0.867944 0
M  V30 1549 C 152.248 -2.33528 2.45459 0
M  V30 1550 C 150.807 -2.87085 2.43433 0
M  V30 1551 C 149.954 -1.61007 2.2577 0
M  V30 1552 H 152.905 -0.499963 1.50619 0
M  V30 1553 H 152.926 -3.14619 2.13998 0
M  V30 1554 H 152.438 -1.84187 3.41609 0
M  V30 1555 H 150.539 -3.40626 1.51013 0
M  V30 1556 H 150.652 -3.3813 3.39419 0
M  V30 1557 H 149.016 -1.86482 1.73483 0
M  V30 1558 H 149.799 -1.13675 3.23933 0
M  V30 1559 N 152.244 -1.26651 -0.937939 0
M  V30 1560 C 153.474 -1.15006 -1.71631 0
M  V30 1561 C 153.882 0.297026 -1.86854 0
M  V30 1562 O 153.225 1.21493 -1.37786 0
M  V30 1563 C 153.287 -1.74984 -3.14039 0
M  V30 1564 C 152.951 -3.24103 -3.2219 0
M  V30 1565 C 153.948 -4.20877 -3.05219 0
M  V30 1566 C 151.633 -3.64625 -3.45476 0
M  V30 1567 C 153.627 -5.56151 -3.11408 0
M  V30 1568 C 151.314 -5.00032 -3.513 0
M  V30 1569 C 152.312 -5.95604 -3.34282 0
M  V30 1570 O 152 -7.28545 -3.3982 0
M  V30 1571 H 151.732 -0.401183 -0.544085 0
M  V30 1572 H 154.286 -1.67832 -1.18413 0
M  V30 1573 H 152.516 -1.16624 -3.68695 0
M  V30 1574 H 154.205 -1.58199 -3.73802 0
M  V30 1575 H 154.971 -3.90908 -2.87081 0
M  V30 1576 H 150.85 -2.90718 -3.57777 0
M  V30 1577 H 154.394 -6.30727 -2.98043 0
M  V30 1578 H 150.291 -5.29659 -3.68959 0
M  V30 1579 H 151.059 -7.3686 -3.56343 0
M  V30 1580 N 153.722 1.14298 -1.08507 0
M  V30 1581 C 154.971 1.84708 -0.810305 0
M  V30 1582 C 155.284 1.83903 0.666271 0
M  V30 1583 O 156.49 2.50112 1.05624 0
M  V30 1584 C 154.946 3.31572 -1.39957 0
M  V30 1585 C 154.554 3.40791 -2.90801 0
M  V30 1586 C 156.298 4.07087 -1.20334 0
M  V30 1587 C 154.205 4.81872 -3.4286 0
M  V30 1588 H 153.135 0.691985 -0.299454 0
M  V30 1589 H 155.786 1.28841 -1.30661 0
M  V30 1590 H 154.168 3.87183 -0.830976 0
M  V30 1591 H 155.342 2.95225 -3.53806 0
M  V30 1592 H 153.657 2.78732 -3.0935 0
M  V30 1593 H 156.254 5.11225 -1.56693 0
M  V30 1594 H 156.597 4.16054 -0.143237 0
M  V30 1595 H 157.13 3.57779 -1.73893 0
M  V30 1596 H 153.869 4.78094 -4.48449 0
M  V30 1597 H 153.389 5.27972 -2.84615 0
M  V30 1598 H 155.068 5.50765 -3.39509 0
M  V30 1599 N 155.201 0.870884 1.31352 0
M  V30 1600 C 156.612 0.534714 1.78879 0
M  V30 1601 C 156.963 -0.948423 1.71754 0
M  V30 1602 O 156.088 -1.74055 1.28584 0
M  V30 1603 C 156.683 0.963839 3.24801 0
M  V30 1604 C 155.242 0.679311 3.70219 0
M  V30 1605 C 154.389 1.15465 2.52117 0
M  V30 1606 H 157.34 1.05651 1.18421 0
M  V30 1607 H 157.361 0.286892 3.79417 0
M  V30 1608 H 156.873 2.04332 3.29955 0
M  V30 1609 H 154.974 -0.388769 3.70566 0
M  V30 1610 H 155.087 1.25698 4.62317 0
M  V30 1611 H 153.451 0.574383 2.48139 0
M  V30 1612 H 154.234 2.24157 2.60016 0
M  V30 1613 N 156.679 -1.44442 0.630414 0
M  V30 1614 C 158.09 -1.85434 0.217063 0
M  V30 1615 C 158.441 -1.52748 -1.23136 0
M  V30 1616 O 157.566 -0.965205 -1.93682 0
M  V30 1617 C 158.161 -3.36581 0.387168 0
M  V30 1618 C 156.72 -3.76389 0.0283297 0
M  V30 1619 C 155.867 -2.68296 0.700889 0
M  V30 1620 H 158.818 -1.34919 0.83562 0
M  V30 1621 H 158.839 -3.78657 -0.374086 0
M  V30 1622 H 158.351 -3.60339 1.44144 0
M  V30 1623 H 156.452 -3.58246 -1.02423 0
M  V30 1624 H 156.565 -4.77095 0.437892 0
M  V30 1625 H 154.929 -2.54335 0.136267 0
M  V30 1626 H 155.712 -2.94887 1.75774 0
M  V30 1627 N 158.157 -0.370918 -1.53173 0
M  V30 1628 C 159.434 0.273754 -1.93675 0
M  V30 1629 C 159.814 1.65938 -1.3049 0
M  V30 1630 O 159.162 2.23698 -0.465999 0
M  V30 1631 C 159.372 0.318602 -3.47543 0
M  V30 1632 C 160.72 0.556392 -4.20939 0
M  V30 1633 O 161.744 0.399587 -3.53952 0
M  V30 1634 O 160.603 0.862133 -5.39657 0
M  V30 1635 H 157.697 0.165448 -0.810281 0
M  V30 1636 H 160.243 -0.42409 -1.64315 0
M  V30 1637 H 159.015 -0.652687 -3.85818 0
M  V30 1638 H 158.638 1.06212 -3.83151 0
M  V30 1639 N 159.635 1.57281 -0.100228 0
M  V30 1640 C 160.565 2.17328 0.853857 0
M  V30 1641 C 161.546 1.10804 1.2906 0
M  V30 1642 O 162.731 1.38963 1.35657 0
M  V30 1643 C 159.861 2.75772 2.11109 0
M  V30 1644 C 158.815 3.87713 1.81279 0
M  V30 1645 C 158.141 4.32882 3.13874 0
M  V30 1646 C 159.441 5.10677 1.09574 0
M  V30 1647 H 161.135 2.97305 0.353545 0
M  V30 1648 H 158.681 1.43009 0.168612 0
M  V30 1649 H 160.634 3.16433 2.78296 0
M  V30 1650 H 159.358 1.93057 2.63432 0
M  V30 1651 H 158.017 3.476 1.16489 0
M  V30 1652 H 157.665 3.47051 3.64095 0
M  V30 1653 H 157.365 5.08358 2.94696 0
M  V30 1654 H 158.889 4.7618 3.82211 0
M  V30 1655 H 160.303 5.48474 1.66879 0
M  V30 1656 H 158.7 5.91615 1.00557 0
M  V30 1657 H 159.77 4.84835 0.0793299 0
M  V30 1658 N 161.113 -0.173488 1.56642 0
M  V30 1659 C 162.076 -1.19859 1.95362 0
M  V30 1660 C 163.076 -1.37296 0.83704 0
M  V30 1661 O 164.266 -1.34739 1.10413 0
M  V30 1662 C 161.398 -2.56405 2.24654 0
M  V30 1663 H 162.591 -0.867062 2.87092 0
M  V30 1664 H 160.144 -0.415853 1.50666 0
M  V30 1665 H 160.879 -2.94576 1.35631 0
M  V30 1666 H 160.664 -2.45115 3.06041 0
M  V30 1667 H 162.154 -3.30287 2.5554 0
M  V30 1668 N 162.591 -1.51276 -0.441967 0
M  V30 1669 C 163.554 -1.7167 -1.51862 0
M  V30 1670 C 164.554 -0.586793 -1.49711 0
M  V30 1671 O 165.744 -0.854276 -1.51815 0
M  V30 1672 C 162.876 -1.76889 -2.91416 0
M  V30 1673 H 164.069 -2.67754 -1.35084 0
M  V30 1674 H 161.622 -1.41196 -0.670333 0
M  V30 1675 H 162.357 -0.826026 -3.13604 0
M  V30 1676 H 162.142 -2.59001 -2.94382 0
M  V30 1677 H 163.632 -1.94522 -3.69528 0
M  V30 1678 N 164.069 0.697108 -1.41344 0
M  V30 1679 C 165.485 1.00751 -1.2378 0
M  V30 1680 C 165.685 2.01105 -0.126066 0
M  V30 1681 O 164.741 2.47295 0.51004 0
M  V30 1682 C 166.054 1.53359 -2.58653 0
M  V30 1683 C 167.602 1.6525 -2.65822 0
M  V30 1684 C 168.077 2.2126 -4.01009 0
M  V30 1685 N 169.568 2.28622 -4.02847 0
M  V30 1686 C 170.303 2.72984 -5.04249 0
M  V30 1687 N 169.799 3.16962 -6.16041 0
M  V30 1688 N 171.592 2.72534 -4.91611 0
M  V30 1689 H 163.743 0.0322662 -2.12375 0
M  V30 1690 H 166.006 0.0768853 -0.944877 0
M  V30 1691 H 165.712 0.870773 -3.4075 0
M  V30 1692 H 165.586 2.51597 -2.81032 0
M  V30 1693 H 167.973 2.30644 -1.84086 0
M  V30 1694 H 168.054 0.655614 -2.47256 0
M  V30 1695 H 167.698 1.56482 -4.83193 0
M  V30 1696 H 167.628 3.21698 -4.16915 0
M  V30 1697 H 170.119 1.97585 -3.22131 0
M  V30 1698 H 170.432 3.49434 -6.89287 0
M  V30 1699 H 168.777 3.14875 -6.1958 0
M  V30 1700 H 171.968 2.37525 -4.0336 0
M  V30 1701 H 172.141 3.06789 -5.70775 0
M  V30 1702 N 165.547 1.27147 0.931209 0
M  V30 1703 C 166.477 1.12081 2.04842 0
M  V30 1704 C 167.458 0.0232364 1.70084 0
M  V30 1705 O 168.643 0.197085 1.93197 0
M  V30 1706 C 165.773 0.76354 3.38803 0
M  V30 1707 C 164.727 1.81396 3.87659 0
M  V30 1708 C 164.053 1.31075 5.18385 0
M  V30 1709 C 165.353 3.21739 4.11438 0
M  V30 1710 H 167.047 2.05537 2.17703 0
M  V30 1711 H 164.593 0.989603 1.04608 0
M  V30 1712 H 166.546 0.644982 4.16435 0
M  V30 1713 H 165.27 -0.206727 3.25945 0
M  V30 1714 H 163.929 1.92136 3.12217 0
M  V30 1715 H 163.577 0.330037 5.01916 0
M  V30 1716 H 163.277 2.013 5.52044 0
M  V30 1717 H 164.801 1.20506 5.98591 0
M  V30 1718 H 166.215 3.14019 4.79651 0
M  V30 1719 H 164.612 3.89644 4.56397 0
M  V30 1720 H 165.682 3.67054 3.16859 0
M  V30 1721 N 167.025 -1.13721 1.09112 0
M  V30 1722 C 167.973 -2.21103 0.722219 0
M  V30 1723 C 168.967 -1.67147 -0.275374 0
M  V30 1724 O 170.173 -1.79477 -0.137176 0
M  V30 1725 H 166.548 -0.720445 0.215553 0
M  V30 1726 H 168.519 -2.49483 1.63709 0
M  V30 1727 C 167.268 -3.47352 0.15543 0
M  V30 1728 H 166.591 -3.89206 0.914246 0
M  V30 1729 H 168.031 -4.2395 -0.0647967 0
M  V30 1730 C 166.49 -3.1814 -1.10852 0
M  V30 1731 O 167.02 -3.36604 -2.19227 0
M  V30 1732 N 165.226 -2.72045 -1.02176 0
M  V30 1733 H 164.773 -2.57221 -0.139764 0
M  V30 1734 H 164.731 -2.52875 -1.8682 0
M  V30 1735 N 168.503 -0.877838 -1.30888 0
M  V30 1736 C 169.453 -0.310872 -2.25871 0
M  V30 1737 C 170.437 0.556596 -1.50966 0
M  V30 1738 O 171.629 0.402187 -1.7237 0
M  V30 1739 C 168.758 0.479821 -3.3993 0
M  V30 1740 C 167.844 -0.401333 -4.22197 0
M  V30 1741 N 168.235 -1.49848 -4.83093 0
M  V30 1742 C 166.533 -0.195167 -4.45573 0
M  V30 1743 C 167.234 -2.0425 -5.44662 0
M  V30 1744 N 166.21 -1.33843 -5.26865 0
M  V30 1745 H 170.012 -1.1493 -2.70496 0
M  V30 1746 H 167.526 -0.726458 -1.45246 0
M  V30 1747 H 169.523 0.902582 -4.07012 0
M  V30 1748 H 168.183 1.31577 -2.96846 0
M  V30 1749 H 169.194 -1.88137 -4.82519 0
M  V30 1750 H 165.871 0.604192 -4.13105 0
M  V30 1751 H 167.261 -2.96345 -6.03017 0
M  V30 1752 N 169.982 1.44106 -0.638065 0
M  V30 1753 C 170.914 2.28976 0.101205 0
M  V30 1754 C 171.927 1.4167 0.802088 0
M  V30 1755 O 173.116 1.65755 0.662375 0
M  V30 1756 C 170.216 3.18217 1.16581 0
M  V30 1757 C 169.389 4.33978 0.546066 0
M  V30 1758 C 168.448 5.04202 1.50554 0
M  V30 1759 O 167.474 5.59986 1.01999 0
M  V30 1760 N 168.676 5.06296 2.8398 0
M  V30 1761 H 171.441 2.93064 -0.627186 0
M  V30 1762 H 169.002 1.54629 -0.479731 0
M  V30 1763 H 170.994 3.62061 1.80815 0
M  V30 1764 H 169.564 2.55833 1.79634 0
M  V30 1765 H 168.784 3.93239 -0.275046 0
M  V30 1766 H 170.072 5.08675 0.112793 0
M  V30 1767 H 169.47 4.62319 3.26002 0
M  V30 1768 H 168.027 5.53907 3.43556 0
M  V30 1769 N 171.46 0.379036 1.52974 0
M  V30 1770 C 172.876 0.0285448 1.59574 0
M  V30 1771 C 173.076 -1.45542 1.39355 0
M  V30 1772 O 172.132 -2.2187 1.20541 0
M  V30 1773 C 173.445 0.496535 2.96572 0
M  V30 1774 C 174.993 0.451909 3.0972 0
M  V30 1775 C 175.468 0.895924 4.49152 0
M  V30 1776 N 176.959 0.851522 4.55306 0
M  V30 1777 C 177.694 1.16661 5.61407 0
M  V30 1778 N 177.19 1.55166 6.752 0
M  V30 1779 N 178.983 1.08853 5.51459 0
M  V30 1780 H 171.134 1.34525 1.64367 0
M  V30 1781 H 173.397 0.550733 0.771619 0
M  V30 1782 H 173.103 1.53258 3.16552 0
M  V30 1783 H 172.977 -0.109802 3.7704 0
M  V30 1784 H 175.364 -0.575029 2.89443 0
M  V30 1785 H 175.445 1.09392 2.3123 0
M  V30 1786 H 175.089 1.92104 4.70168 0
M  V30 1787 H 175.019 0.23103 5.26093 0
M  V30 1788 H 177.51 0.568038 3.73606 0
M  V30 1789 H 177.823 1.776 7.52116 0
M  V30 1790 H 176.168 1.59044 6.76557 0
M  V30 1791 H 179.359 0.786803 4.6144 0
M  V30 1792 H 179.532 1.33742 6.34048 0
M  V30 1793 N 172.938 -1.57226 0.108567 0
M  V30 1794 C 173.885 -2.14756 -0.845481 0
M  V30 1795 C 174.855 -1.06971 -1.27068 0
M  V30 1796 O 176.04 -1.34827 -1.35005 0
M  V30 1797 C 173.18 -2.74298 -2.09415 0
M  V30 1798 C 172.293 -3.96358 -1.71826 0
M  V30 1799 C 171.428 -4.44021 -2.9158 0
M  V30 1800 C 170.467 -5.58637 -2.50181 0
M  V30 1801 N 169.604 -6.01091 -3.62814 0
M  V30 1802 H 174.444 -2.95961 -0.348035 0
M  V30 1803 H 171.981 -1.46226 -0.160106 0
M  V30 1804 H 173.939 -3.06945 -2.82561 0
M  V30 1805 H 172.569 -1.95801 -2.56636 0
M  V30 1806 H 171.621 -3.69939 -0.885947 0
M  V30 1807 H 172.933 -4.79504 -1.37394 0
M  V30 1808 H 172.087 -4.78522 -3.72963 0
M  V30 1809 H 170.826 -3.59803 -3.29231 0
M  V30 1810 H 169.831 -5.23751 -1.67228 0
M  V30 1811 H 171.056 -6.44613 -2.13659 0
M  V30 1812 H 169.002 -5.19817 -4.00158 0
M  V30 1813 H 168.919 -6.79066 -3.32273 0
M  V30 1814 H 170.187 -6.40227 -4.44668 0
M  V30 1815 N 174.416 0.165178 -1.56732 0
M  V30 1816 C 175.693 0.908443 -1.73224 0
M  V30 1817 C 176.073 2.0013 -0.67165 0
M  V30 1818 O 175.421 2.26353 0.31253 0
M  V30 1819 C 175.631 1.46756 -3.16644 0
M  V30 1820 C 176.979 1.93809 -3.77787 0
M  V30 1821 O 178.003 1.56537 -3.1996 0
M  V30 1822 O 176.862 2.62486 -4.79336 0
M  V30 1823 H 173.956 0.428025 -0.707618 0
M  V30 1824 H 176.502 0.152526 -1.69013 0
M  V30 1825 H 175.274 0.68129 -3.85323 0
M  V30 1826 H 174.897 2.28749 -3.25207 0
M  V30 1827 N 175.894 1.51508 0.433938 0
M  V30 1828 C 176.857 1.72473 1.50949 0
M  V30 1829 C 177.857 0.594725 1.49398 0
M  V30 1830 O 179.047 0.862315 1.5136 0
M  V30 1831 C 176.179 1.78431 2.90474 0
M  V30 1832 H 177.372 2.68467 1.33662 0
M  V30 1833 H 174.925 1.41549 0.662836 0
M  V30 1834 H 175.66 0.842645 3.13161 0
M  V30 1835 H 175.445 2.60558 2.93005 0
M  V30 1836 H 176.935 1.96479 3.68491 0
M  V30 1837 N 177.372 -0.689602 1.41712 0
M  V30 1838 C 178.783 -1.26973 1.36875 0
M  V30 1839 C 179.134 -1.96124 0.054748 0
M  V30 1840 O 178.259 -1.99141 -0.84687 0
M  V30 1841 C 178.854 -2.30912 2.47922 0
M  V30 1842 C 177.413 -2.84486 2.46464 0
M  V30 1843 C 176.56 -1.58603 2.27465 0
M  V30 1844 H 179.511 -0.48396 1.51141 0
M  V30 1845 H 179.532 -3.12331 2.17323 0
M  V30 1846 H 179.044 -1.80554 3.43543 0
M  V30 1847 H 177.145 -3.39005 1.54617 0
M  V30 1848 H 177.258 -3.34511 3.42986 0
M  V30 1849 H 175.622 -1.84632 1.75451 0
M  V30 1850 H 176.405 -1.10233 3.25121 0
M  V30 1851 N 178.85 -1.27639 -0.924453 0
M  V30 1852 C 180.096 -1.14336 -1.67497 0
M  V30 1853 C 180.429 0.309465 -1.91718 0
M  V30 1854 O 179.704 1.22608 -1.50989 0
M  V30 1855 C 179.987 -1.93096 -3.0395 0
M  V30 1856 C 179.84 -3.46381 -2.8695 0
M  V30 1857 C 181.159 -1.73798 -4.0433 0
M  V30 1858 H 178.278 -0.416728 -0.607871 0
M  V30 1859 H 180.92 -1.56832 -1.07256 0
M  V30 1860 H 179.07 -1.56982 -3.55372 0
M  V30 1861 H 180.742 -3.92343 -2.42621 0
M  V30 1862 H 178.985 -3.72557 -2.22225 0
M  V30 1863 H 179.656 -3.96735 -3.83804 0
M  V30 1864 H 182.132 -2.05293 -3.61931 0
M  V30 1865 H 181.008 -2.31294 -4.97789 0
M  V30 1866 H 181.269 -0.686725 -4.36734 0
M  V30 1867 N 180.328 1.1314 -1.09713 0
M  V30 1868 C 181.574 1.84757 -0.836224 0
M  V30 1869 C 181.907 1.8347 0.636598 0
M  V30 1870 O 181.182 1.27491 1.46889 0
M  V30 1871 C 181.465 3.32782 -1.37578 0
M  V30 1872 C 181.318 3.42567 -2.91493 0
M  V30 1873 C 182.637 4.28307 -1.01198 0
M  V30 1874 H 179.756 0.67082 -0.305236 0
M  V30 1875 H 182.398 1.3278 -1.35903 0
M  V30 1876 H 180.548 3.77177 -0.931097 0
M  V30 1877 H 182.22 3.06862 -3.44432 0
M  V30 1878 H 180.463 2.83349 -3.28475 0
M  V30 1879 H 181.134 4.46674 -3.24324 0
M  V30 1880 H 183.61 3.91999 -1.39556 0
M  V30 1881 H 182.486 5.30307 -1.41653 0
M  V30 1882 H 182.747 4.42029 0.0794833 0
M  V30 1883 N 181.806 0.884767 1.30421 0
M  V30 1884 C 183.052 0.513218 1.96819 0
M  V30 1885 C 183.407 -0.927347 1.68577 0
M  V30 1886 O 182.7 -1.64644 0.979941 0
M  V30 1887 C 182.894 0.724318 3.49983 0
M  V30 1888 C 182.723 2.18385 3.93113 0
M  V30 1889 C 181.493 2.82839 4.18725 0
M  V30 1890 C 183.691 3.15763 4.05953 0
M  V30 1891 N 181.673 4.1939 4.48314 0
M  V30 1892 C 183.044 4.37387 4.39423 0
M  V30 1893 C 185.099 3.11555 3.88379 0
M  V30 1894 C 183.802 5.55343 4.5715 0
M  V30 1895 C 185.828 4.28782 4.07308 0
M  V30 1896 C 185.19 5.49172 4.41123 0
M  V30 1897 H 181.289 0.237123 0.745182 0
M  V30 1898 H 183.873 1.14246 1.57658 0
M  V30 1899 H 182.044 0.124565 3.882 0
M  V30 1900 H 183.776 0.31969 4.03435 0
M  V30 1901 H 180.531 2.33708 4.11919 0
M  V30 1902 H 180.955 4.89911 4.67243 0
M  V30 1903 H 185.597 2.19576 3.61312 0
M  V30 1904 H 183.315 6.47826 4.8306 0
M  V30 1905 H 186.901 4.26995 3.95179 0
M  V30 1906 H 185.781 6.38371 4.55469 0
M  V30 1907 N 183.284 -1.43765 0.645699 0
M  V30 1908 C 184.53 -2.02197 0.156271 0
M  V30 1909 C 184.863 -1.50776 -1.22393 0
M  V30 1910 O 184.138 -0.697771 -1.81553 0
M  V30 1911 C 184.421 -3.59749 0.158872 0
M  V30 1912 C 184.274 -4.21419 1.57245 0
M  V30 1913 C 185.593 -4.37149 -0.50879 0
M  V30 1914 H 182.712 -0.734694 0.0582602 0
M  V30 1915 H 185.354 -1.71157 0.824951 0
M  V30 1916 H 183.504 -3.86325 -0.410525 0
M  V30 1917 H 185.176 -4.059 2.19186 0
M  V30 1918 H 183.419 -3.78356 2.122 0
M  V30 1919 H 184.09 -5.30482 1.52619 0
M  V30 1920 H 186.566 -4.16093 -0.024412 0
M  V30 1921 H 185.442 -5.4683 -0.476213 0
M  V30 1922 H 185.703 -4.12839 -1.58165 0
M  V30 1923 N 184.763 -0.387143 -1.52771 0
M  V30 1924 C 185.713 0.465942 -2.23188 0
M  V30 1925 C 186.697 1.03138 -1.23496 0
M  V30 1926 O 187.889 0.957845 -1.48843 0
M  V30 1927 C 185.018 1.59384 -3.04059 0
M  V30 1928 C 184.104 1.04024 -4.11144 0
M  V30 1929 N 184.495 0.211416 -5.05358 0
M  V30 1930 C 182.793 1.31295 -4.26237 0
M  V30 1931 C 183.494 -0.0941698 -5.81624 0
M  V30 1932 N 182.47 0.509207 -5.4121 0
M  V30 1933 H 186.272 -0.173856 -2.93385 0
M  V30 1934 H 183.786 -0.19633 -1.61209 0
M  V30 1935 H 185.783 2.21738 -3.53041 0
M  V30 1936 H 184.443 2.23648 -2.35397 0
M  V30 1937 H 185.454 -0.151151 -5.17679 0
M  V30 1938 H 182.131 1.95679 -3.68803 0
M  V30 1939 H 183.521 -0.765572 -6.67524 0
M  V30 1940 N 186.241 1.57166 -0.116904 0
M  V30 1941 C 187.518 1.86645 0.585049 0
M  V30 1942 C 187.898 1.0177 1.84949 0
M  V30 1943 O 187.246 0.0960379 2.28298 0
M  V30 1944 C 187.456 3.37736 0.879507 0
M  V30 1945 C 188.804 4.06289 1.23348 0
M  V30 1946 O 189.828 3.42743 0.969836 0
M  V30 1947 O 188.687 5.18455 1.7282 0
M  V30 1948 H 185.781 0.772593 0.295007 0
M  V30 1949 H 188.327 1.69025 -0.151249 0
M  V30 1950 H 187.099 3.91296 -0.0166136 0
M  V30 1951 H 186.722 3.6078 1.67103 0
M  V30 1952 N 187.719 -0.156864 1.56817 0
M  V30 1953 C 188.967 -0.869404 1.82444 0
M  V30 1954 C 189.288 -1.82147 0.69623 0
M  V30 1955 O 188.558 -1.93847 -0.28287 0
M  V30 1956 H 187.138 -0.324043 0.673056 0
M  V30 1957 H 189.8 -0.153224 1.94297 0
M  V30 1958 H 188.896 -1.43761 2.77019 0
M  V30 1959 N 189.197 -1.51736 -0.425897 0
M  V30 1960 C 190.107 -1.76738 -1.54275 0
M  V30 1961 C 191.123 -0.65211 -1.61318 0
M  V30 1962 O 192.299 -0.935654 -1.78346 0
M  V30 1963 C 189.364 -1.89755 -2.90162 0
M  V30 1964 C 188.425 -3.13633 -2.93143 0
M  V30 1965 C 187.658 -3.2602 -4.22548 0
M  V30 1966 O 187.881 -2.44067 -5.15546 0
M  V30 1967 O 186.815 -4.19071 -4.32046 0
M  V30 1968 H 190.641 -2.71502 -1.36089 0
M  V30 1969 H 188.226 -1.36376 -0.610069 0
M  V30 1970 H 190.108 -2.00236 -3.70788 0
M  V30 1971 H 188.783 -0.981785 -3.08452 0
M  V30 1972 H 187.69 -3.08622 -2.11431 0
M  V30 1973 H 189.023 -4.04936 -2.798 0
M  V30 1974 N 190.675 0.682077 -1.42076 0
M  V30 1975 C 192.091 0.994324 -1.24841 0
M  V30 1976 C 192.291 2.0096 -0.147389 0
M  V30 1977 O 191.347 2.47822 0.483782 0
M  V30 1978 C 192.66 1.50607 -2.60265 0
M  V30 1979 C 194.208 1.62421 -2.6756 0
M  V30 1980 C 194.683 2.16994 -4.03333 0
M  V30 1981 N 196.174 2.24337 -4.0525 0
M  V30 1982 C 196.909 2.67621 -5.07116 0
M  V30 1983 N 196.405 3.1041 -6.19368 0
M  V30 1984 N 198.198 2.67305 -4.94474 0
M  V30 1985 H 190.349 0.00973908 -2.12398 0
M  V30 1986 H 192.612 0.0668593 -0.945639 0
M  V30 1987 H 192.318 0.834583 -3.41654 0
M  V30 1988 H 192.192 2.48602 -2.83684 0
M  V30 1989 H 194.579 2.28678 -1.86521 0
M  V30 1990 H 194.66 0.629352 -2.47937 0
M  V30 1991 H 194.304 1.51349 -4.84826 0
M  V30 1992 H 194.234 3.17258 -4.20304 0
M  V30 1993 H 196.725 1.94158 -3.24209 0
M  V30 1994 H 197.038 3.42103 -6.92954 0
M  V30 1995 H 195.383 3.08286 -6.22884 0
M  V30 1996 H 198.574 2.33233 -4.05857 0
M  V30 1997 H 198.747 3.00718 -5.73997 0
M  V30 1998 N 192.153 1.28127 0.917671 0
M  V30 1999 C 193.43 1.05761 1.64542 0
M  V30 2000 C 193.81 -0.404344 2.07191 0
M  V30 2001 O 193.158 -1.38963 1.81388 0
M  V30 2002 C 193.368 2.02857 2.83989 0
M  V30 2003 C 194.716 2.32786 3.551 0
M  V30 2004 O 195.74 2.0091 2.94132 0
M  V30 2005 O 194.599 2.87169 4.64969 0
M  V30 2006 H 191.693 0.403916 0.721652 0
M  V30 2007 H 194.239 1.39431 0.967322 0
M  V30 2008 H 193.011 3.01407 2.49538 0
M  V30 2009 H 192.634 1.69809 3.59514 0
M  V30 2010 N 193.631 -1.12557 1.10312 0
M  V30 2011 C 194.581 -2.16331 0.720076 0
M  V30 2012 C 195.565 -1.58616 -0.270115 0
M  V30 2013 O 196.757 -1.76823 -0.0790507 0
M  V30 2014 C 193.886 -3.42963 0.152113 0
M  V30 2015 C 192.972 -4.07663 1.16927 0
M  V30 2016 N 193.363 -4.47392 2.35953 0
M  V30 2017 C 191.661 -4.34425 1.0095 0
M  V30 2018 C 192.362 -4.97932 3.0073 0
M  V30 2019 N 191.338 -4.93358 2.28252 0
M  V30 2020 H 195.14 -2.44813 1.62616 0
M  V30 2021 H 192.654 -1.29449 0.980654 0
M  V30 2022 H 194.651 -4.16664 -0.14037 0
M  V30 2023 H 193.311 -3.1595 -0.748701 0
M  V30 2024 H 194.322 -4.39802 2.73486 0
M  V30 2025 H 190.999 -4.17177 0.164134 0
M  V30 2026 H 192.389 -5.38397 4.01969 0
M  V30 2027 N 195.109 -0.891671 -1.2995 0
M  V30 2028 C 196.52 -0.563104 -1.78006 0
M  V30 2029 C 196.871 0.920978 -1.73241 0
M  V30 2030 O 195.996 1.71987 -1.31337 0
M  V30 2031 C 196.591 -1.01539 -3.23226 0
M  V30 2032 C 195.15 -0.738124 -3.69092 0
M  V30 2033 C 194.297 -1.19461 -2.50249 0
M  V30 2034 H 197.248 -1.07522 -1.16725 0
M  V30 2035 H 197.269 -0.347217 -3.78912 0
M  V30 2036 H 196.781 -2.09555 -3.26662 0
M  V30 2037 H 194.882 0.329766 -3.71138 0
M  V30 2038 H 194.995 -1.33037 -4.60259 0
M  V30 2039 H 193.359 -0.613787 -2.47194 0
M  V30 2040 H 194.142 -2.28265 -2.56417 0
M  V30 2041 N 196.587 1.43421 -0.653314 0
M  V30 2042 C 197.815 2.06163 -0.174491 0
M  V30 2043 C 198.23 1.48969 1.1599 0
M  V30 2044 O 197.587 0.621042 1.71608 0
M  V30 2045 C 197.638 3.61417 -0.0774865 0
M  V30 2046 O 197.359 4.16485 -1.35912 0
M  V30 2047 C 198.86 4.41235 0.427402 0
M  V30 2048 H 196.08 0.664946 -0.0899353 0
M  V30 2049 H 198.624 1.83924 -0.893988 0
M  V30 2050 H 196.779 3.82841 0.59257 0
M  V30 2051 H 197.193 5.10153 -1.21839 0
M  V30 2052 H 198.667 5.5021 0.44423 0
M  V30 2053 H 199.144 4.14268 1.45873 0
M  V30 2054 H 199.75 4.2478 -0.210167 0
M  V30 2055 N 198.065 0.39524 1.52563 0
M  V30 2056 C 199.314 -0.186321 2.00838 0
M  V30 2057 C 199.627 -1.47402 1.28577 0
M  V30 2058 O 200.833 -2.13599 1.67593 0
M  V30 2059 C 199.289 -0.382595 3.57861 0
M  V30 2060 C 198.897 0.892202 4.39026 0
M  V30 2061 C 200.641 -0.9202 4.14406 0
M  V30 2062 C 198.548 0.66388 5.87662 0
M  V30 2063 H 197.478 -0.0734041 0.750418 0
M  V30 2064 H 200.129 0.518552 1.76021 0
M  V30 2065 H 198.511 -1.14946 3.7895 0
M  V30 2066 H 199.685 1.66414 4.29701 0
M  V30 2067 H 198 1.35519 3.9373 0
M  V30 2068 H 200.597 -1.10683 5.23119 0
M  V30 2069 H 200.94 -1.89096 3.70875 0
M  V30 2070 H 201.473 -0.212751 3.97231 0
M  V30 2071 H 198.212 1.6058 6.35527 0
M  V30 2072 H 197.732 -0.0690193 5.9976 0
M  V30 2073 H 199.411 0.300699 6.46301 0
M  V30 2074 N 199.544 -1.57102 0.125237 0
M  V30 2075 C 200.507 -2.14471 -0.80838 0
M  V30 2076 C 201.507 -1.0811 -1.19033 0
M  V30 2077 O 202.697 -1.33856 -1.11482 0
M  V30 2078 C 199.829 -2.69005 -2.09402 0
M  V30 2079 H 201.022 -2.98297 -0.309696 0
M  V30 2080 H 198.575 -1.55807 -0.124051 0
M  V30 2081 H 199.31 -1.88785 -2.63687 0
M  V30 2082 H 199.095 -3.46799 -1.82957 0
M  V30 2083 H 200.585 -3.13278 -2.76128 0
M  V30 2084 N 201.022 0.148545 -1.56898 0
M  V30 2085 C 201.952 1.18524 -2.01182 0
M  V30 2086 C 202.933 1.4489 -0.891123 0
M  V30 2087 O 204.118 1.55836 -1.15882 0
M  V30 2088 C 201.248 2.51879 -2.39112 0
M  V30 2089 C 200.202 2.40038 -3.54353 0
M  V30 2090 C 199.528 3.78089 -3.78091 0
M  V30 2091 C 200.828 1.88577 -4.87069 0
M  V30 2092 H 202.522 0.817029 -2.88036 0
M  V30 2093 H 200.068 0.391575 -1.38574 0
M  V30 2094 H 202.021 3.24627 -2.68692 0
M  V30 2095 H 200.745 2.90532 -1.49193 0
M  V30 2096 H 199.404 1.69742 -3.24936 0
M  V30 2097 H 199.052 4.14175 -2.85426 0
M  V30 2098 H 198.752 3.71028 -4.55645 0
M  V30 2099 H 200.276 4.52387 -4.10095 0
M  V30 2100 H 201.69 2.51117 -5.15377 0
M  V30 2101 H 200.087 1.9241 -5.68417 0
M  V30 2102 H 201.157 0.84136 -4.77545 0
M  V30 2103 N 202.5 1.5196 0.417844 0
M  V30 2104 C 203.746 1.65836 1.16732 0
M  V30 2105 C 204.079 0.382881 1.90388 0
M  V30 2106 O 203.354 -0.618368 1.84408 0
M  V30 2107 C 203.637 2.87466 2.16876 0
M  V30 2108 C 203.49 4.25041 1.47174 0
M  V30 2109 C 204.809 3.04613 3.17646 0
M  V30 2110 H 201.928 0.603515 0.423011 0
M  V30 2111 H 204.57 1.84494 0.454105 0
M  V30 2112 H 202.72 2.71689 2.777 0
M  V30 2113 H 204.392 4.52527 0.895376 0
M  V30 2114 H 202.635 4.26843 0.773806 0
M  V30 2115 H 203.306 5.06176 2.20204 0
M  V30 2116 H 205.782 3.1923 2.66892 0
M  V30 2117 H 204.658 3.91247 3.8499 0
M  V30 2118 H 204.919 2.17541 3.84874 0
M  V30 2119 N 203.978 -0.674533 1.42435 0
M  V30 2120 C 204.926 -1.80934 1.46169 0
M  V30 2121 C 205.92 -1.66006 0.3374 0
M  V30 2122 O 207.126 -1.72611 0.510425 0
M  V30 2123 H 203.501 -0.596594 0.457798 0
M  V30 2124 H 205.472 -1.74903 2.41767 0
M  V30 2125 C 204.221 -3.19088 1.38123 0
M  V30 2126 H 203.544 -3.31203 2.23931 0
M  V30 2127 H 204.984 -3.9851 1.44797 0
M  V30 2128 C 203.443 -3.36763 0.0960517 0
M  V30 2129 O 203.973 -3.92581 -0.851073 0
M  V30 2130 N 202.179 -2.90597 0.0131186 0
M  V30 2131 H 201.726 -2.45359 0.784639 0
M  V30 2132 H 201.684 -3.028 -0.846133 0
M  V30 2133 N 205.456 -1.28612 -0.910864 0
M  V30 2134 C 206.872 -1.06381 -1.18976 0
M  V30 2135 C 207.072 0.191998 -2.00583 0
M  V30 2136 O 206.128 0.892869 -2.36187 0
M  V30 2137 C 207.441 -2.31295 -1.92154 0
M  V30 2138 C 208.989 -2.36503 -2.05025 0
M  V30 2139 C 209.464 -3.61191 -2.81612 0
M  V30 2140 N 210.955 -3.61847 -2.89172 0
M  V30 2141 C 211.69 -4.55004 -3.4894 0
M  V30 2142 N 211.186 -5.58482 -4.09963 0
M  V30 2143 N 212.979 -4.42594 -3.46506 0
M  V30 2144 H 205.13 -2.09221 -0.366094 0
M  V30 2145 H 207.393 -0.921003 -0.224629 0
M  V30 2146 H 207.099 -3.228 -1.39618 0
M  V30 2147 H 206.973 -2.37934 -2.9269 0
M  V30 2148 H 209.36 -1.45494 -2.5674 0
M  V30 2149 H 209.441 -2.33857 -1.03657 0
M  V30 2150 H 209.085 -4.52545 -2.30576 0
M  V30 2151 H 209.015 -3.61092 -3.83302 0
M  V30 2152 H 211.506 -2.87022 -2.45819 0
M  V30 2153 H 211.819 -6.25704 -4.53557 0
M  V30 2154 H 210.164 -5.62305 -4.08459 0
M  V30 2155 H 213.355 -3.60953 -2.98045 0
M  V30 2156 H 213.528 -5.15381 -3.92793 0
M  V30 2157 N 206.934 1.1197 -1.10907 0
M  V30 2158 C 207.897 2.16031 -0.765707 0
M  V30 2159 C 208.897 1.59393 0.212235 0
M  V30 2160 O 210.087 1.74196 -0.0115441 0
M  V30 2161 C 207.219 3.40632 -0.135053 0
M  V30 2162 H 208.412 2.47919 -1.68748 0
M  V30 2163 H 205.965 1.27061 -0.910226 0
M  V30 2164 H 206.7 3.14348 0.797218 0
M  V30 2165 H 206.485 3.8302 -0.838937 0
M  V30 2166 H 207.975 4.17505 0.0892469 0
M  V30 2167 N 208.412 0.89855 1.29475 0
M  V30 2168 C 209.661 0.519863 1.94885 0
M  V30 2169 C 209.974 -0.9383 1.71625 0
M  V30 2170 O 211.18 -1.42445 2.31131 0
M  V30 2171 C 209.636 0.878836 3.49005 0
M  V30 2172 C 209.244 2.35569 3.81066 0
M  V30 2173 C 210.988 0.570004 4.20656 0
M  V30 2174 C 208.895 2.65558 5.28425 0
M  V30 2175 H 207.825 0.190692 0.729488 0
M  V30 2176 H 210.476 1.09539 1.47219 0
M  V30 2177 H 208.858 0.232253 3.95318 0
M  V30 2178 H 210.032 3.04773 3.45616 0
M  V30 2179 H 208.347 2.63343 3.22552 0
M  V30 2180 H 210.944 0.770925 5.29113 0
M  V30 2181 H 211.287 -0.491404 4.1339 0
M  V30 2182 H 211.82 1.17438 3.8007 0
M  V30 2183 H 208.559 3.70493 5.40754 0
M  V30 2184 H 208.079 2.00977 5.65127 0
M  V30 2185 H 209.758 2.51765 5.96006 0
M  V30 2186 N 209.89 -1.43072 0.660911 0
M  V30 2187 C 210.8 -2.34585 -0.0264163 0
M  V30 2188 C 211.816 -1.54316 -0.803898 0
M  V30 2189 O 212.992 -1.86939 -0.749391 0
M  V30 2190 C 210.057 -3.32689 -0.975639 0
M  V30 2191 C 209.118 -4.2886 -0.194236 0
M  V30 2192 C 208.351 -5.22278 -1.09825 0
M  V30 2193 O 208.574 -5.20299 -2.33763 0
M  V30 2194 O 207.508 -5.99228 -0.566513 0
M  V30 2195 H 211.334 -2.94869 0.727034 0
M  V30 2196 H 208.919 -1.43342 0.42111 0
M  V30 2197 H 210.801 -3.92995 -1.52094 0
M  V30 2198 H 209.476 -2.74898 -1.70918 0
M  V30 2199 H 208.383 -3.72011 0.394835 0
M  V30 2200 H 209.716 -4.89655 0.499899 0
M  V30 2201 N 211.368 -0.403325 -1.52352 0
M  V30 2202 C 212.779 0.0675782 -1.86578 0
M  V30 2203 C 213.13 1.44941 -1.32236 0
M  V30 2204 O 212.255 2.06112 -0.659307 0
M  V30 2205 C 212.85 0.129404 -3.38553 0
M  V30 2206 C 211.409 0.544629 -3.72439 0
M  V30 2207 C 210.556 -0.284551 -2.75836 0
M  V30 2208 H 213.507 -0.620631 -1.46061 0
M  V30 2209 H 213.528 0.94581 -3.68558 0
M  V30 2210 H 213.04 -0.87645 -3.78074 0
M  V30 2211 H 211.141 1.55734 -3.38493 0
M  V30 2212 H 211.254 0.293046 -4.78203 0
M  V30 2213 H 209.618 0.252258 -2.53448 0
M  V30 2214 H 210.401 -1.28865 -3.18196 0
M  V30 2215 N 212.846 1.57033 -0.133567 0
M  V30 2216 C 213.776 2.1909 0.807567 0
M  V30 2217 C 214.757 1.13517 1.26681 0
M  V30 2218 O 215.942 1.41809 1.32679 0
M  V30 2219 C 213.072 2.80188 2.05212 0
M  V30 2220 C 212.026 3.91471 1.73015 0
M  V30 2221 C 211.352 4.39443 3.04622 0
M  V30 2222 C 212.652 5.12886 0.987168 0
M  V30 2223 H 214.346 2.97988 0.290403 0
M  V30 2224 H 211.892 1.43335 0.138239 0
M  V30 2225 H 213.845 3.22264 2.71521 0
M  V30 2226 H 212.569 1.98601 2.59278 0
M  V30 2227 H 211.228 3.49993 1.0909 0
M  V30 2228 H 210.876 3.54695 3.56651 0
M  V30 2229 H 210.576 5.14495 2.83847 0
M  V30 2230 H 212.1 4.8418 3.72024 0
M  V30 2231 H 213.514 5.51891 1.55208 0
M  V30 2232 H 211.911 5.93615 0.87985 0
M  V30 2233 H 212.981 4.84894 -0.0235286 0
M  V30 2234 N 214.325 -0.140222 1.56975 0
M  V30 2235 C 215.255 -1.17456 2.01808 0
M  V30 2236 C 216.236 -1.44415 0.898794 0
M  V30 2237 O 217.421 -1.5522 1.16707 0
M  V30 2238 C 214.551 -2.50607 2.40444 0
M  V30 2239 C 213.505 -2.38155 3.55621 0
M  V30 2240 C 212.831 -3.76078 3.80091 0
M  V30 2241 C 214.131 -1.85991 4.88062 0
M  V30 2242 H 215.825 -0.801743 2.88466 0
M  V30 2243 H 213.371 -0.38422 1.38779 0
M  V30 2244 H 215.324 -3.23197 2.7041 0
M  V30 2245 H 214.048 -2.89737 1.50732 0
M  V30 2246 H 212.707 -1.68016 3.25832 0
M  V30 2247 H 212.355 -4.12656 2.87618 0
M  V30 2248 H 212.055 -3.68606 4.57606 0
M  V30 2249 H 213.579 -4.50206 4.12488 0
M  V30 2250 H 214.993 -2.4838 5.16701 0
M  V30 2251 H 213.39 -1.89393 5.6943 0
M  V30 2252 H 214.46 -0.816023 4.77984 0
M  V30 2253 N 215.803 -1.52179 -0.40978 0
M  V30 2254 C 216.733 -1.78435 -1.5061 0
M  V30 2255 C 217.714 -0.635295 -1.57791 0
M  V30 2256 O 218.899 -0.880823 -1.73076 0
M  V30 2257 C 216.029 -1.93444 -2.88439 0
M  V30 2258 C 214.983 -3.09038 -2.96108 0
M  V30 2259 C 214.309 -3.09268 -4.36185 0
M  V30 2260 C 215.609 -4.48508 -2.67652 0
M  V30 2261 H 217.303 -2.70237 -1.28889 0
M  V30 2262 H 214.849 -1.30036 -0.618605 0
M  V30 2263 H 216.802 -2.10394 -3.65119 0
M  V30 2264 H 215.526 -0.983129 -3.11452 0
M  V30 2265 H 214.185 -2.91837 -2.21872 0
M  V30 2266 H 213.833 -2.11861 -4.56206 0
M  V30 2267 H 213.533 -3.86907 -4.42241 0
M  V30 2268 H 215.057 -3.28348 -5.14801 0
M  V30 2269 H 216.471 -4.65918 -3.34056 0
M  V30 2270 H 214.868 -5.28059 -2.85085 0
M  V30 2271 H 215.938 -4.56649 -1.63095 0
M  V30 2272 N 217.281 0.66697 -1.42791 0
M  V30 2273 C 218.191 1.80962 -1.49299 0
M  V30 2274 C 219.207 1.69775 -0.381108 0
M  V30 2275 O 220.383 1.91188 -0.633188 0
M  V30 2276 C 217.448 3.17156 -1.40045 0
M  V30 2277 C 216.509 3.40242 -2.6179 0
M  V30 2278 C 215.742 4.69939 -2.52969 0
M  V30 2279 O 215.965 5.48372 -1.56985 0
M  V30 2280 O 214.899 4.94441 -3.43237 0
M  V30 2281 H 218.725 1.78427 -2.45759 0
M  V30 2282 H 216.31 0.823713 -1.24641 0
M  V30 2283 H 218.192 3.98413 -1.37276 0
M  V30 2284 H 216.867 3.20312 -0.467138 0
M  V30 2285 H 215.774 2.58802 -2.70134 0
M  V30 2286 H 217.107 3.41923 -3.54047 0
M  V30 2287 N 218.759 1.29093 0.90403 0
M  V30 2288 C 219.989 1.19516 1.68522 0
M  V30 2289 C 220.397 -0.24738 1.87576 0
M  V30 2290 O 219.74 -1.17798 1.40959 0
M  V30 2291 C 219.802 1.83249 3.0929 0
M  V30 2292 C 219.466 3.32531 3.13484 0
M  V30 2293 C 220.463 4.28821 2.93953 0
M  V30 2294 C 218.148 3.73656 3.35688 0
M  V30 2295 C 220.142 5.64212 2.96553 0
M  V30 2296 C 217.829 5.0917 3.37919 0
M  V30 2297 C 218.827 6.04258 3.18373 0
M  V30 2298 O 218.515 7.37298 3.20385 0
M  V30 2299 H 218.247 0.415467 0.533257 0
M  V30 2300 H 220.801 1.70912 1.13922 0
M  V30 2301 H 219.031 1.26358 3.65473 0
M  V30 2302 H 220.72 1.68054 3.69476 0
M  V30 2303 H 221.486 3.98382 2.76616 0
M  V30 2304 H 217.365 3.00101 3.49943 0
M  V30 2305 H 220.909 6.38407 2.81216 0
M  V30 2306 H 216.806 5.39256 3.54787 0
M  V30 2307 H 217.574 7.46048 3.36681 0
M  V30 2308 N 220.237 -1.11381 1.11499 0
M  V30 2309 C 221.167 -2.19509 0.796125 0
M  V30 2310 C 222.148 -1.68458 -0.235796 0
M  V30 2311 O 223.333 -1.93947 -0.0991344 0
M  V30 2312 C 220.463 -3.46475 0.239205 0
M  V30 2313 C 219.417 -4.10744 1.20307 0
M  V30 2314 C 218.743 -5.32293 0.50683 0
M  V30 2315 C 220.043 -4.55597 2.55399 0
M  V30 2316 H 221.737 -2.46439 1.70024 0
M  V30 2317 H 219.283 -1.18446 0.818935 0
M  V30 2318 H 221.236 -4.214 0.00392006 0
M  V30 2319 H 219.96 -3.19006 -0.700206 0
M  V30 2320 H 218.619 -3.37813 1.42399 0
M  V30 2321 H 218.267 -5.01095 -0.437408 0
M  V30 2322 H 217.967 -5.76243 1.1497 0
M  V30 2323 H 219.491 -6.09956 0.280351 0
M  V30 2324 H 220.905 -5.21841 2.37391 0
M  V30 2325 H 219.302 -5.10363 3.15673 0
M  V30 2326 H 220.372 -3.69013 3.14575 0
M  V30 2327 N 221.715 -0.905404 -1.28997 0
M  V30 2328 C 222.647 -0.344748 -2.26592 0
M  V30 2329 C 223.66 0.512135 -1.54535 0
M  V30 2330 O 224.849 0.328368 -1.75454 0
M  V30 2331 C 221.949 0.526587 -3.34784 0
M  V30 2332 C 221.122 -0.305871 -4.36329 0
M  V30 2333 C 220.181 0.499209 -5.23827 0
M  V30 2334 O 219.207 -0.0853004 -5.69136 0
M  V30 2335 N 220.409 1.80408 -5.51755 0
M  V30 2336 H 223.174 -1.18359 -2.75338 0
M  V30 2337 H 220.735 -0.770481 -1.42391 0
M  V30 2338 H 222.727 1.07171 -3.90252 0
M  V30 2339 H 221.297 1.26613 -2.85811 0
M  V30 2340 H 220.517 -1.0324 -3.80441 0
M  V30 2341 H 221.805 -0.875773 -5.01206 0
M  V30 2342 H 221.203 2.3016 -5.16762 0
M  V30 2343 H 219.76 2.29621 -6.10014 0
M  V30 2344 N 223.193 1.4272 -0.668489 0
M  V30 2345 C 224.156 2.292 0.00448567 0
M  V30 2346 C 225.156 1.43001 0.735339 0
M  V30 2347 O 226.346 1.64461 0.57429 0
M  V30 2348 C 223.478 3.25375 1.01705 0
M  V30 2349 H 224.671 2.90199 -0.756608 0
M  V30 2350 H 222.224 1.50254 -0.430506 0
M  V30 2351 H 222.959 2.69301 1.80686 0
M  V30 2352 H 222.744 3.88944 0.496463 0
M  V30 2353 H 224.234 3.90245 1.48655 0
M  V30 2354 N 224.671 0.411399 1.52136 0
M  V30 2355 C 225.919 -0.163322 2.01439 0
M  V30 2356 C 226.24 -1.45453 1.29879 0
M  V30 2357 O 225.51 -1.91225 0.4254 0
M  V30 2358 H 224.09 -0.0633447 0.744309 0
M  V30 2359 H 226.752 0.548161 1.87033 0
M  V30 2360 H 225.848 -0.357817 3.10042 0
M  V30 2361 N 226.149 -1.5696 0.141893 0
M  V30 2362 C 227.059 -2.20066 -0.812905 0
M  V30 2363 C 228.075 -1.18344 -1.27557 0
M  V30 2364 O 229.251 -1.50902 -1.33381 0
M  V30 2365 C 226.316 -2.80583 -2.03652 0
M  V30 2366 C 225.377 -3.97414 -1.62359 0
M  V30 2367 C 224.61 -4.55036 -2.78887 0
M  V30 2368 O 224.833 -4.11538 -3.94959 0
M  V30 2369 O 223.767 -5.45376 -2.54653 0
M  V30 2370 H 227.593 -3.02157 -0.305746 0
M  V30 2371 H 225.178 -1.49159 -0.0848799 0
M  V30 2372 H 227.06 -3.19067 -2.75272 0
M  V30 2373 H 225.735 -2.01508 -2.5333 0
M  V30 2374 H 224.642 -3.63656 -0.877775 0
M  V30 2375 H 225.975 -4.77994 -1.17401 0
M  V30 2376 N 227.627 0.131896 -1.57047 0
M  V30 2377 C 229.043 0.485031 -1.52051 0
M  V30 2378 C 229.243 1.82563 -0.85281 0
M  V30 2379 O 228.299 2.48817 -0.429694 0
M  V30 2380 C 229.612 0.481409 -2.96821 0
M  V30 2381 C 231.16 0.565868 -3.07842 0
M  V30 2382 C 231.635 0.592762 -4.54148 0
M  V30 2383 N 233.126 0.654564 -4.58552 0
M  V30 2384 C 233.861 0.696608 -5.69153 0
M  V30 2385 N 233.357 0.697078 -6.89284 0
M  V30 2386 N 235.15 0.738639 -5.57226 0
M  V30 2387 H 227.301 -0.746664 -1.98843 0
M  V30 2388 H 229.564 -0.273999 -0.90754 0
M  V30 2389 H 229.27 -0.435731 -3.4899 0
M  V30 2390 H 229.144 1.3139 -3.53577 0
M  V30 2391 H 231.531 1.47343 -2.55684 0
M  V30 2392 H 231.612 -0.29406 -2.54104 0
M  V30 2393 H 231.256 -0.310701 -5.06949 0
M  V30 2394 H 231.186 1.46939 -5.05684 0
M  V30 2395 H 233.677 0.660887 -3.72076 0
M  V30 2396 H 233.99 0.731426 -7.69331 0
M  V30 2397 H 232.335 0.66471 -6.91814 0
M  V30 2398 H 235.526 0.735545 -4.62285 0
M  V30 2399 H 235.699 0.767938 -6.43434 0
M  V30 2400 N 229.106 1.52395 0.401703 0
M  V30 2401 C 230.522 1.41363 0.740864 0
M  V30 2402 C 230.722 0.523982 1.94568 0
M  V30 2403 O 229.778 -0.00741204 2.52499 0
M  V30 2404 C 231.091 2.84011 0.987847 0
M  V30 2405 C 232.639 2.93404 1.09011 0
M  V30 2406 C 233.114 4.37036 1.3698 0
M  V30 2407 N 234.605 4.40304 1.43829 0
M  V30 2408 C 235.34 5.48508 1.67112 0
M  V30 2409 N 234.836 6.66819 1.87949 0
M  V30 2410 N 236.629 5.36034 1.69187 0
M  V30 2411 H 228.78 2.08765 -0.391262 0
M  V30 2412 H 231.043 0.941265 -0.112798 0
M  V30 2413 H 230.749 3.51265 0.174835 0
M  V30 2414 H 230.623 3.25502 1.906 0
M  V30 2415 H 233.01 2.26325 1.8937 0
M  V30 2416 H 233.091 2.55359 0.15015 0
M  V30 2417 H 232.735 5.04676 0.571353 0
M  V30 2418 H 232.665 4.72623 2.3224 0
M  V30 2419 H 235.156 3.55024 1.29486 0
M  V30 2420 H 235.469 7.45063 2.05185 0
M  V30 2421 H 233.814 6.6987 1.85199 0
M  V30 2422 H 237.005 4.42579 1.52451 0
M  V30 2423 H 237.178 6.20434 1.86993 0
M  V30 2424 N 230.584 -0.659388 1.43143 0
M  V30 2425 C 231.83 -1.42145 1.44647 0
M  V30 2426 C 232.163 -1.9408 0.0681907 0
M  V30 2427 O 231.438 -1.71899 -0.910007 0
M  V30 2428 C 231.721 -2.60735 2.48373 0
M  V30 2429 C 231.574 -2.14332 3.95451 0
M  V30 2430 C 232.893 -3.62951 2.48906 0
M  V30 2431 H 230.012 -0.51552 0.526696 0
M  V30 2432 H 232.654 -0.748069 1.74654 0
M  V30 2433 H 230.804 -3.18184 2.22916 0
M  V30 2434 H 232.476 -1.61932 4.31944 0
M  V30 2435 H 230.719 -1.4576 4.08578 0
M  V30 2436 H 231.39 -2.99583 4.63631 0
M  V30 2437 H 233.866 -3.1525 2.71582 0
M  V30 2438 H 232.742 -4.43487 3.23435 0
M  V30 2439 H 233.003 -4.15126 1.52061 0
M  V30 2440 N 232.062 -1.29571 -0.897171 0
M  V30 2441 C 232.995 -1.0924 -2.00354 0
M  V30 2442 C 233.973 -0.00354011 -1.626 0
M  V30 2443 O 235.157 -0.15473 -1.87864 0
M  V30 2444 C 232.284 -0.66352 -3.32137 0
M  V30 2445 C 231.33 -1.75146 -3.88878 0
M  V30 2446 S 232.163 -3.35124 -4.17674 0
M  V30 2447 C 233.319 -2.9411 -5.52494 0
M  V30 2448 H 233.552 -2.02907 -2.17292 0
M  V30 2449 H 231.085 -1.13746 -1.04408 0
M  V30 2450 H 233.043 -0.422791 -4.08317 0
M  V30 2451 H 231.704 0.253588 -3.13075 0
M  V30 2452 H 230.897 -1.40337 -4.84068 0
M  V30 2453 H 230.499 -1.94584 -3.19395 0
M  V30 2454 H 232.791 -2.41312 -6.33068 0
M  V30 2455 H 233.734 -3.88161 -5.9223 0
M  V30 2456 H 234.142 -2.32332 -5.14473 0
M  V30 2457 N 233.54 1.10788 -1.12088 0
M  V30 2458 C 234.786 1.82942 -0.875226 0
M  V30 2459 C 235.119 1.84779 0.597538 0
M  V30 2460 O 234.394 1.30578 1.44152 0
M  V30 2461 C 234.677 3.29789 -1.44606 0
M  V30 2462 C 234.53 3.36307 -2.98693 0
M  V30 2463 C 235.849 4.26064 -1.10261 0
M  V30 2464 H 232.968 0.664195 -0.319397 0
M  V30 2465 H 235.61 1.29867 -1.38689 0
M  V30 2466 H 233.76 3.75118 -1.01089 0
M  V30 2467 H 235.432 2.99487 -3.50864 0
M  V30 2468 H 233.675 2.76318 -3.34411 0
M  V30 2469 H 234.346 4.39694 -3.33726 0
M  V30 2470 H 236.822 3.88951 -1.4784 0
M  V30 2471 H 235.698 5.27183 -1.52869 0
M  V30 2472 H 235.959 4.42098 -0.0142953 0
M  V30 2473 N 235.018 0.912232 1.28515 0
M  V30 2474 C 236.265 0.544599 1.95039 0
M  V30 2475 C 236.593 -0.911435 1.71823 0
M  V30 2476 O 235.848 -1.66317 1.03137 0
M  V30 2477 C 236.147 0.798392 3.48368 0
M  V30 2478 C 235.813 2.23374 3.91682 0
M  V30 2479 C 234.475 2.62617 4.03219 0
M  V30 2480 C 236.827 3.16786 4.13879 0
M  V30 2481 C 234.155 3.94429 4.3433 0
M  V30 2482 C 236.507 4.48161 4.46469 0
M  V30 2483 C 235.171 4.8726 4.56217 0
M  V30 2484 H 234.441 0.199283 0.7137 0
M  V30 2485 H 237.088 1.15327 1.52879 0
M  V30 2486 H 235.393 0.106908 3.91654 0
M  V30 2487 H 237.09 0.493141 3.97956 0
M  V30 2488 H 233.68 1.91922 3.83228 0
M  V30 2489 H 237.864 2.87677 4.0442 0
M  V30 2490 H 233.12 4.24426 4.40082 0
M  V30 2491 H 237.294 5.20559 4.62592 0
M  V30 2492 H 234.921 5.89431 4.80078 0
M  V30 2493 N 236.496 -1.42363 0.676048 0
M  V30 2494 C 237.429 -2.28141 -0.0516916 0
M  V30 2495 C 238.407 -1.41135 -0.807439 0
M  V30 2496 O 239.591 -1.70573 -0.802305 0
M  V30 2497 C 236.718 -3.21007 -1.08039 0
M  V30 2498 C 235.764 -4.24426 -0.420076 0
M  V30 2499 S 236.597 -5.29134 0.823246 0
M  V30 2500 C 237.753 -6.25566 -0.204344 0
M  V30 2501 H 237.986 -2.89515 0.675884 0
M  V30 2502 H 235.519 -1.47211 0.465635 0
M  V30 2503 H 237.477 -3.75048 -1.66881 0
M  V30 2504 H 236.138 -2.58766 -1.78042 0
M  V30 2505 H 235.331 -4.89596 -1.19633 0
M  V30 2506 H 234.933 -3.7388 0.0947845 0
M  V30 2507 H 237.225 -6.69098 -1.06369 0
M  V30 2508 H 238.168 -7.06895 0.412915 0
M  V30 2509 H 238.576 -5.61811 -0.55038 0
M  V30 2510 N 237.974 -0.419461 -1.51915 0
M  V30 2511 C 239.39 -0.0708431 -1.59443 0
M  V30 2512 C 239.59 1.41796 -1.43164 0
M  V30 2513 O 238.646 2.18596 -1.26381 0
M  V30 2514 C 239.959 -0.574991 -2.95151 0
M  V30 2515 C 241.507 -0.533867 -3.08413 0
M  V30 2516 C 241.982 -1.01469 -4.46618 0
M  V30 2517 N 243.473 -0.971939 -4.52888 0
M  V30 2518 C 244.208 -1.31505 -5.58116 0
M  V30 2519 N 243.704 -1.73014 -6.70849 0
M  V30 2520 N 245.497 -1.23436 -5.48379 0
M  V30 2521 H 237.648 -1.38836 -1.60743 0
M  V30 2522 H 239.911 -0.570998 -0.756747 0
M  V30 2523 H 239.617 -1.61597 -3.12377 0
M  V30 2524 H 239.491 0.00979777 -3.77199 0
M  V30 2525 H 241.878 0.498086 -2.90866 0
M  V30 2526 H 241.959 -1.15484 -2.28248 0
M  V30 2527 H 241.603 -2.04502 -4.6491 0
M  V30 2528 H 241.533 -0.370433 -5.25295 0
M  V30 2529 H 244.024 -0.666893 -3.71969 0
M  V30 2530 H 244.337 -1.97479 -7.47143 0
M  V30 2531 H 242.682 -1.76926 -6.72103 0
M  V30 2532 H 245.873 -0.908869 -4.59192 0
M  V30 2533 H 246.046 -1.50506 -6.30279 0
M  V30 2534 N 239.452 1.56882 -0.150215 0
M  V30 2535 C 240.382 2.19935 0.784284 0
M  V30 2536 C 241.363 1.14854 1.25469 0
M  V30 2537 O 242.548 1.43209 1.31168 0
M  V30 2538 C 239.678 2.82349 2.02229 0
M  V30 2539 C 238.632 3.93285 1.68853 0
M  V30 2540 C 237.958 4.42649 2.99944 0
M  V30 2541 C 239.258 5.13904 0.932714 0
M  V30 2542 H 240.952 2.9828 0.258781 0
M  V30 2543 H 238.498 1.43473 0.123029 0
M  V30 2544 H 240.451 3.25126 2.68088 0
M  V30 2545 H 239.175 2.0134 2.57157 0
M  V30 2546 H 237.834 3.5113 1.05371 0
M  V30 2547 H 237.482 3.58458 3.52869 0
M  V30 2548 H 237.182 5.17476 2.78374 0
M  V30 2549 H 238.706 4.88099 3.66868 0
M  V30 2550 H 240.12 5.53506 1.49345 0
M  V30 2551 H 238.517 5.94515 0.81684 0
M  V30 2552 H 239.587 4.84842 -0.0749568 0
M  V30 2553 N 240.93 -0.123565 1.57115 0
M  V30 2554 C 241.893 -1.13583 1.99076 0
M  V30 2555 C 242.893 -1.34564 0.880296 0
M  V30 2556 O 244.083 -1.31158 1.14644 0
M  V30 2557 C 241.215 -2.49128 2.32698 0
M  V30 2558 H 242.408 -0.775287 2.89706 0
M  V30 2559 H 239.961 -0.36771 1.51913 0
M  V30 2560 H 240.696 -2.90111 1.44934 0
M  V30 2561 H 240.481 -2.35255 3.13684 0
M  V30 2562 H 241.971 -3.2199 2.65918 0
M  V30 2563 N 242.408 -1.52605 -0.393616 0
M  V30 2564 C 243.656 -1.67093 -1.13685 0
M  V30 2565 C 243.977 -0.411011 -1.90619 0
M  V30 2566 O 243.247 0.574491 -1.87287 0
M  V30 2567 H 241.827 -0.615923 -0.422668 0
M  V30 2568 H 244.489 -1.89704 -0.447039 0
M  V30 2569 H 243.585 -2.51922 -1.84232 0
M  V30 2570 N 243.887 0.651787 -1.4349 0
M  V30 2571 C 245.135 1.40888 -1.44897 0
M  V30 2572 C 245.456 1.94856 -0.0749086 0
M  V30 2573 O 244.726 1.74518 0.889956 0
M  V30 2574 H 243.306 0.522887 -0.533478 0
M  V30 2575 H 245.968 0.768609 -1.79104 0
M  V30 2576 H 245.064 2.25052 -2.16236 0
M  V30 2577 N 245.365 1.30045 0.890287 0
M  V30 2578 C 246.315 1.12592 1.9826 0
M  V30 2579 C 247.299 0.0426021 1.60844 0
M  V30 2580 O 248.491 0.265346 1.75 0
M  V30 2581 C 245.62 0.814301 3.33503 0
M  V30 2582 C 244.706 1.93761 3.7725 0
M  V30 2583 N 245.097 3.18232 3.93143 0
M  V30 2584 C 243.395 1.83277 4.06602 0
M  V30 2585 C 244.096 3.9158 4.30163 0
M  V30 2586 N 243.072 3.19591 4.3973 0
M  V30 2587 H 246.874 2.07003 2.08631 0
M  V30 2588 H 244.388 1.21307 1.07974 0
M  V30 2589 H 246.385 0.67029 4.11476 0
M  V30 2590 H 245.045 -0.121797 3.24471 0
M  V30 2591 H 246.056 3.53581 3.78419 0
M  V30 2592 H 242.733 0.97001 4.06075 0
M  V30 2593 H 244.123 4.98744 4.50226 0
M  V30 2594 N 246.843 -1.10192 1.12674 0
M  V30 2595 C 247.806 -2.14786 0.799979 0
M  V30 2596 C 248.806 -1.59711 -0.18685 0
M  V30 2597 O 249.996 -1.74156 0.0392558 0
M  V30 2598 C 247.128 -3.40374 0.189228 0
M  V30 2599 H 248.321 -2.45203 1.72671 0
M  V30 2600 H 245.874 -1.25597 0.930326 0
M  V30 2601 H 246.609 -3.15577 -0.747107 0
M  V30 2602 H 246.394 -3.81637 0.899766 0
M  V30 2603 H 247.884 -4.17594 -0.0228143 0
M  V30 2604 N 248.321 -0.919034 -1.28029 0
M  V30 2605 C 249.567 -0.555757 -1.95036 0
M  V30 2606 C 249.9 0.899198 -1.72128 0
M  V30 2607 O 249.175 1.64023 -1.04531 0
M  V30 2608 C 249.458 -0.872024 -3.49382 0
M  V30 2609 C 249.311 -2.3801 -3.81669 0
M  V30 2610 C 250.63 -0.37185 -4.38526 0
M  V30 2611 H 247.749 -0.203386 -0.708381 0
M  V30 2612 H 250.391 -1.14924 -1.51303 0
M  V30 2613 H 248.541 -0.366946 -3.86763 0
M  V30 2614 H 250.213 -2.9562 -3.54128 0
M  V30 2615 H 248.456 -2.83289 -3.28526 0
M  V30 2616 H 249.127 -2.55192 -4.8947 0
M  V30 2617 H 251.603 -0.804602 -4.08247 0
M  V30 2618 H 250.479 -0.622173 -5.45362 0
M  V30 2619 H 250.74 0.727934 -4.36066 0
M  V30 2620 N 249.799 1.42003 -0.683588 0
M  V30 2621 C 251.076 1.95112 -0.138075 0
M  V30 2622 C 251.456 1.62359 1.34918 0
M  V30 2623 O 250.804 0.924311 2.08971 0
M  V30 2624 C 251.014 3.46505 -0.416581 0
M  V30 2625 C 252.362 4.23254 -0.337834 0
M  V30 2626 O 253.386 3.54468 -0.35082 0
M  V30 2627 O 252.245 5.45743 -0.287596 0
M  V30 2628 H 249.339 0.826961 -0.00797996 0
M  V30 2629 H 251.885 1.51784 -0.758924 0
M  V30 2630 H 250.657 3.63582 -1.4465 0
M  V30 2631 H 250.28 3.969 0.235839 0
M  V30 2632 N 251.277 0.427512 1.51691 0
M  V30 2633 C 252.524 -0.142229 2.02 0
M  V30 2634 C 252.852 -1.43566 1.31221 0
M  V30 2635 O 252.107 -1.91298 0.412744 0
M  V30 2636 C 252.406 -0.418249 3.54944 0
M  V30 2637 C 252.072 0.788187 4.43958 0
M  V30 2638 C 250.734 1.11906 4.68007 0
M  V30 2639 C 253.086 1.59347 4.96244 0
M  V30 2640 C 250.414 2.25608 5.41588 0
M  V30 2641 C 252.766 2.7214 5.71072 0
M  V30 2642 C 251.43 3.05692 5.93387 0
M  V30 2643 H 250.7 -0.0520451 0.73917 0
M  V30 2644 H 253.347 0.572697 1.82736 0
M  V30 2645 H 251.652 -1.21496 3.72486 0
M  V30 2646 H 253.349 -0.872339 3.91397 0
M  V30 2647 H 249.939 0.520344 4.2543 0
M  V30 2648 H 254.123 1.35106 4.77556 0
M  V30 2649 H 249.379 2.51929 5.57083 0
M  V30 2650 H 253.553 3.34914 6.10578 0
M  V30 2651 H 251.18 3.9391 6.50184 0
M  V30 2652 N 252.755 -1.56801 0.158532 0
M  V30 2653 C 253.98 -2.01295 -0.499516 0
M  V30 2654 C 254.405 -1.03799 -1.56867 0
M  V30 2655 O 253.763 -0.0155162 -1.81293 0
M  V30 2656 C 253.811 -3.44469 -1.06647 0
M  V30 2657 O 252.915 -3.50012 -2.18095 0
M  V30 2658 H 252.256 -0.652884 -0.12099 0
M  V30 2659 H 254.786 -2.02958 0.258661 0
M  V30 2660 H 254.796 -3.8351 -1.39227 0
M  V30 2661 H 253.471 -4.14932 -0.283581 0
M  V30 2662 H 252.048 -3.22822 -1.86656 0
M  V30 2663 N 254.233 0.115231 -1.57178 0
M  V30 2664 C 255.51 0.852873 -1.76027 0
M  V30 2665 C 255.89 1.97892 -0.73498 0
M  V30 2666 O 255.238 2.27232 0.24036 0
M  V30 2667 C 255.448 1.36608 -3.21153 0
M  V30 2668 C 256.796 1.81692 -3.83762 0
M  V30 2669 O 257.82 1.46278 -3.24779 0
M  V30 2670 O 256.679 2.47104 -4.87444 0
M  V30 2671 H 253.773 0.405296 -0.720877 0
M  V30 2672 H 256.319 0.0986785 -1.69413 0
M  V30 2673 H 255.091 0.558357 -3.87296 0
M  V30 2674 H 254.714 2.18287 -3.3232 0
M  V30 2675 N 255.711 1.52812 0.385517 0
M  V30 2676 C 256.661 1.74219 1.47078 0
M  V30 2677 C 257.645 0.59632 1.49442 0
M  V30 2678 O 258.837 0.85428 1.5502 0
M  V30 2679 C 255.966 1.9176 2.84751 0
M  V30 2680 C 255.052 3.12289 2.86943 0
M  V30 2681 N 255.443 4.34575 2.58802 0
M  V30 2682 C 253.741 3.12605 3.1811 0
M  V30 2683 C 254.442 5.162 2.68166 0
M  V30 2684 N 253.418 4.51964 3.02043 0
M  V30 2685 H 257.22 2.6639 1.24152 0
M  V30 2686 H 254.734 1.51166 0.593504 0
M  V30 2687 H 256.731 2.05218 3.62893 0
M  V30 2688 H 255.391 1.00805 3.08656 0
M  V30 2689 H 256.402 4.62649 2.32759 0
M  V30 2690 H 253.079 2.31472 3.47458 0
M  V30 2691 H 254.469 6.23689 2.49923 0
M  V30 2692 N 257.189 -0.644168 1.43834 0
M  V30 2693 C 258.136 -1.75671 1.49694 0
M  V30 2694 C 259.106 -1.6246 0.345809 0
M  V30 2695 O 260.291 -1.82573 0.554234 0
M  V30 2696 C 257.431 -3.13867 1.43463 0
M  V30 2697 C 256.544 -3.38147 2.6885 0
M  V30 2698 C 255.679 -4.66241 2.54544 0
M  V30 2699 C 254.718 -4.83657 3.75157 0
M  V30 2700 N 253.855 -6.03016 3.59605 0
M  V30 2701 H 258.695 -1.69998 2.44754 0
M  V30 2702 H 256.232 -0.829458 1.21484 0
M  V30 2703 H 258.19 -3.9377 1.37843 0
M  V30 2704 H 256.82 -3.18588 0.519783 0
M  V30 2705 H 255.872 -2.52276 2.84712 0
M  V30 2706 H 257.184 -3.46899 3.58417 0
M  V30 2707 H 256.338 -5.54285 2.46683 0
M  V30 2708 H 255.077 -4.59826 1.62516 0
M  V30 2709 H 254.082 -3.94046 3.83416 0
M  V30 2710 H 255.307 -4.91896 4.68204 0
M  V30 2711 H 253.253 -5.97715 2.7032 0
M  V30 2712 H 253.17 -6.12766 4.42779 0
M  V30 2713 H 254.438 -6.93657 3.55613 0
M  V30 2714 N 258.668 -1.30515 -0.883378 0
M  V30 2715 C 259.945 -1.10086 -1.6168 0
M  V30 2716 C 260.325 0.349269 -2.08191 0
M  V30 2717 O 259.673 1.34105 -1.85008 0
M  V30 2718 C 259.883 -2.10315 -2.78511 0
M  V30 2719 C 261.231 -2.42119 -3.48803 0
M  V30 2720 O 262.255 -2.08638 -2.88702 0
M  V30 2721 O 261.114 -2.99396 -4.57192 0
M  V30 2722 H 258.208 -0.422907 -0.710689 0
M  V30 2723 H 260.754 -1.41947 -0.930015 0
M  V30 2724 H 259.526 -3.07917 -2.41459 0
M  V30 2725 H 259.149 -1.79282 -3.54886 0
M  V30 2726 N 260.146 1.09593 -1.13257 0
M  V30 2727 C 261.109 2.14359 -0.811358 0
M  V30 2728 C 262.109 1.59808 0.178377 0
M  V30 2729 O 263.299 1.74132 -0.0484911 0
M  V30 2730 C 260.431 3.40269 -0.207276 0
M  V30 2731 H 261.624 2.44284 -1.73969 0
M  V30 2732 H 259.177 1.25102 -0.936973 0
M  V30 2733 H 259.912 3.15969 0.73036 0
M  V30 2734 H 259.697 3.81154 -0.919992 0
M  V30 2735 H 261.187 4.176 0.000667944 0
M  V30 2736 N 261.624 0.925811 1.2754 0
M  V30 2737 C 262.871 0.565255 1.94451 0
M  V30 2738 C 263.199 -0.89316 1.7278 0
M  V30 2739 O 262.454 -1.65213 1.04895 0
M  V30 2740 C 262.753 0.835296 3.47502 0
M  V30 2741 C 262.419 2.27515 3.89291 0
M  V30 2742 C 261.081 2.66879 4.00411 0
M  V30 2743 C 263.433 3.21158 4.10496 0
M  V30 2744 C 260.761 3.99014 4.30122 0
M  V30 2745 C 263.113 4.52871 4.4169 0
M  V30 2746 C 261.777 4.92072 4.51023 0
M  V30 2747 H 261.047 0.206841 0.711546 0
M  V30 2748 H 263.694 1.16942 1.51647 0
M  V30 2749 H 261.999 0.148442 3.91519 0
M  V30 2750 H 263.696 0.535322 3.97411 0
M  V30 2751 H 260.286 1.95976 3.81171 0
M  V30 2752 H 264.47 2.9195 4.01346 0
M  V30 2753 H 259.726 4.2907 4.35556 0
M  V30 2754 H 263.9 5.25436 4.57045 0
M  V30 2755 H 261.527 5.9449 4.738 0
M  V30 2756 N 263.102 -1.41638 0.69111 0
M  V30 2757 C 264.348 -2.01598 0.220519 0
M  V30 2758 C 264.681 -1.54594 -1.17535 0
M  V30 2759 O 263.956 -0.755177 -1.79241 0
M  V30 2760 C 264.239 -3.59062 0.273243 0
M  V30 2761 C 264.092 -4.16203 1.70573 0
M  V30 2762 C 265.411 -4.38546 -0.369457 0
M  V30 2763 H 262.53 -0.732468 0.0816045 0
M  V30 2764 H 265.172 -1.68445 0.878986 0
M  V30 2765 H 263.322 -3.87435 -0.287411 0
M  V30 2766 H 264.994 -3.98722 2.31989 0
M  V30 2767 H 263.237 -3.71414 2.2413 0
M  V30 2768 H 263.908 -5.25358 1.69419 0
M  V30 2769 H 266.384 -4.1596 0.107977 0
M  V30 2770 H 265.26 -5.48069 -0.302002 0
M  V30 2771 H 265.521 -4.17662 -1.44951 0
M  V30 2772 N 264.58 -0.43555 -1.51462 0
M  V30 2773 C 265.528 0.391205 -2.29287 0
M  V30 2774 C 266.522 1.02247 -1.35062 0
M  V30 2775 O 267.728 0.957646 -1.52411 0
M  V30 2776 H 264.103 0.144968 -0.737895 0
M  V30 2777 H 266.074 -0.286051 -2.97026 0
M  V30 2778 C 264.823 1.48096 -3.14583 0
M  V30 2779 H 264.146 1.00457 -3.86973 0
M  V30 2780 H 265.586 2.03273 -3.72097 0
M  V30 2781 C 264.045 2.46321 -2.29843 0
M  V30 2782 O 264.575 3.50815 -1.95682 0
M  V30 2783 N 262.781 2.17166 -1.931 0
M  V30 2784 H 262.328 1.32218 -2.21079 0
M  V30 2785 H 262.286 2.83127 -1.36698 0
M  V30 2786 N 266.058 1.56714 -0.166846 0
M  V30 2787 C 267.304 1.97039 0.479962 0
M  V30 2788 C 267.637 1.05264 1.63197 0
M  V30 2789 O 266.912 0.0988833 1.94248 0
M  V30 2790 C 267.195 3.46867 0.967212 0
M  V30 2791 C 267.048 4.49421 -0.18466 0
M  V30 2792 C 268.367 3.9968 1.84238 0
M  V30 2793 H 265.486 0.71641 0.172992 0
M  V30 2794 H 268.128 1.8832 -0.252079 0
M  V30 2795 H 266.278 3.54428 1.59101 0
M  V30 2796 H 267.95 4.53924 -0.821621 0
M  V30 2797 H 266.193 4.25573 -0.840837 0
M  V30 2798 H 266.864 5.51644 0.198317 0
M  V30 2799 H 269.34 3.94723 1.31655 0
M  V30 2800 H 268.216 5.04941 2.15234 0
M  V30 2801 H 268.477 3.43226 2.78654 0
M  V30 2802 N 267.536 -0.106894 1.57237 0
M  V30 2803 C 268.484 -1.14944 2.02215 0
M  V30 2804 C 269.478 -1.42167 0.92114 0
M  V30 2805 O 270.684 -1.41987 1.10634 0
M  V30 2806 H 267.059 -0.387841 0.64427 0
M  V30 2807 H 269.03 -0.743683 2.88984 0
M  V30 2808 C 267.779 -2.4647 2.4525 0
M  V30 2809 H 267.102 -2.26363 3.29545 0
M  V30 2810 H 268.542 -3.17948 2.80508 0
M  V30 2811 C 267.001 -3.09921 1.321 0
M  V30 2812 O 267.531 -3.9651 0.643622 0
M  V30 2813 N 265.737 -2.69986 1.07497 0
M  V30 2814 H 265.284 -1.99667 1.62761 0
M  V30 2815 H 265.242 -3.12769 0.319876 0
M  V30 2816 N 269.014 -1.53014 -0.377408 0
M  V30 2817 C 270.242 -1.72515 -1.14219 0
M  V30 2818 C 270.657 -0.448735 -1.8339 0
M  V30 2819 O 270.014 0.577592 -1.73119 0
M  V30 2820 C 270.065 -2.8826 -2.18148 0
M  V30 2821 O 269.786 -4.10962 -1.51795 0
M  V30 2822 C 271.287 -3.19536 -3.07264 0
M  V30 2823 H 268.507 -0.577301 -0.342001 0
M  V30 2824 H 271.051 -1.99712 -0.439935 0
M  V30 2825 H 269.206 -2.63492 -2.83991 0
M  V30 2826 H 269.62 -4.75693 -2.20945 0
M  V30 2827 H 271.094 -4.03959 -3.76193 0
M  V30 2828 H 271.571 -2.34403 -3.71419 0
M  V30 2829 H 272.177 -3.46186 -2.47053 0
M  V30 2830 N 270.492 0.636531 -1.44174 0
M  V30 2831 C 271.903 1.21806 -1.41493 0
M  V30 2832 C 272.254 1.95785 -0.1275 0
M  V30 2833 O 271.379 2.02147 0.772376 0
M  V30 2834 C 271.974 2.21551 -2.56321 0
M  V30 2835 C 270.533 2.75143 -2.56853 0
M  V30 2836 C 269.68 1.50052 -2.33195 0
M  V30 2837 H 272.631 0.427531 -1.52833 0
M  V30 2838 H 272.652 3.0405 -2.28765 0
M  V30 2839 H 272.164 1.67679 -3.50008 0
M  V30 2840 H 270.265 3.33033 -1.67093 0
M  V30 2841 H 270.378 3.2155 -3.55165 0
M  V30 2842 H 268.742 1.77993 -1.82183 0
M  V30 2843 H 269.525 0.980903 -3.28988 0
M  V30 2844 N 271.97 1.30982 0.876444 0
M  V30 2845 C 272.88 1.2003 2.01569 0
M  V30 2846 C 273.896 0.11838 1.73597 0
M  V30 2847 O 275.072 0.33495 1.98595 0
M  V30 2848 C 272.137 0.901637 3.34771 0
M  V30 2849 C 271.198 2.06979 3.76109 0
M  V30 2850 C 270.431 1.78529 5.02954 0
M  V30 2851 O 270.654 0.717296 5.65872 0
M  V30 2852 O 269.588 2.64019 5.40905 0
M  V30 2853 H 273.414 2.15753 2.13739 0
M  V30 2854 H 270.999 1.10658 1.00375 0
M  V30 2855 H 272.881 0.750645 4.1466 0
M  V30 2856 H 271.556 -0.0256141 3.2369 0
M  V30 2857 H 270.463 2.27616 2.96887 0
M  V30 2858 H 271.796 2.97907 3.91807 0
M  V30 2859 N 273.449 -1.08991 1.13837 0
M  V30 2860 C 274.359 -2.19301 0.833333 0
M  V30 2861 C 275.375 -1.73026 -0.183847 0
M  V30 2862 O 276.551 -2.01395 -0.0138092 0
M  V30 2863 C 273.616 -3.45323 0.308651 0
M  V30 2864 C 272.677 -4.06255 1.38764 0
M  V30 2865 C 271.91 -5.26262 0.887896 0
M  V30 2866 O 272.133 -5.69747 -0.27287 0
M  V30 2867 O 271.067 -5.78435 1.66421 0
M  V30 2868 H 274.893 -2.47854 1.75506 0
M  V30 2869 H 272.478 -1.18012 0.916166 0
M  V30 2870 H 274.36 -4.21394 0.0216739 0
M  V30 2871 H 273.035 -3.18362 -0.585431 0
M  V30 2872 H 271.942 -3.318 1.72799 0
M  V30 2873 H 273.275 -4.37452 2.25602 0
M  V30 2874 N 274.927 -0.932562 -1.27047 0
M  V30 2875 C 275.857 -0.452902 -2.29066 0
M  V30 2876 C 276.838 0.489338 -1.62909 0
M  V30 2877 O 278.023 0.393046 -1.90181 0
M  V30 2878 C 275.153 0.290698 -3.46081 0
M  V30 2879 C 274.107 -0.564168 -4.24265 0
M  V30 2880 C 273.433 0.308886 -5.33807 0
M  V30 2881 C 274.733 -1.83112 -4.89149 0
M  V30 2882 H 276.427 -1.30552 -2.69437 0
M  V30 2883 H 273.973 -0.629201 -1.29526 0
M  V30 2884 H 275.926 0.637233 -4.16554 0
M  V30 2885 H 274.65 1.17738 -3.0464 0
M  V30 2886 H 273.309 -0.893477 -3.55545 0
M  V30 2887 H 272.957 1.19467 -4.88607 0
M  V30 2888 H 272.657 -0.259633 -5.87026 0
M  V30 2889 H 274.181 0.650884 -6.07121 0
M  V30 2890 H 275.595 -1.55236 -5.51883 0
M  V30 2891 H 273.992 -2.34353 -5.52448 0
M  V30 2892 H 275.062 -2.54772 -4.12576 0
M  V30 2893 N 276.405 1.4127 -0.698611 0
M  V30 2894 C 277.368 2.29158 -0.044132 0
M  V30 2895 C 278.368 1.44529 0.704841 0
M  V30 2896 O 279.558 1.65643 0.539276 0
M  V30 2897 C 276.69 3.27459 0.947809 0
M  V30 2898 H 277.883 2.88529 -0.817994 0
M  V30 2899 H 275.436 1.49307 -0.46228 0
M  V30 2900 H 276.171 2.73073 1.74933 0
M  V30 2901 H 275.956 3.8991 0.41385 0
M  V30 2902 H 277.446 3.93311 1.40344 0
M  V30 2903 N 277.883 0.443576 1.51229 0
M  V30 2904 C 279.299 0.0962001 1.5931 0
M  V30 2905 C 279.499 -1.39501 1.45402 0
M  V30 2906 O 278.555 -2.16557 1.29843 0
M  V30 2907 C 279.868 0.621875 2.94199 0
M  V30 2908 C 281.416 0.582865 3.07525 0
M  V30 2909 C 281.891 1.08562 4.44948 0
M  V30 2910 N 283.382 1.04387 4.51284 0
M  V30 2911 C 284.117 1.40368 5.55954 0
M  V30 2912 N 283.613 1.83664 6.68011 0
M  V30 2913 N 285.406 1.32145 5.46346 0
M  V30 2914 H 277.557 1.41376 1.58514 0
M  V30 2915 H 279.82 0.582965 0.747567 0
M  V30 2916 H 279.526 1.66546 3.09767 0
M  V30 2917 H 279.4 0.0502125 3.77167 0
M  V30 2918 H 281.787 -0.451749 2.91622 0
M  V30 2919 H 281.868 1.191 2.26382 0
M  V30 2920 H 281.512 2.11873 4.61598 0
M  V30 2921 H 281.442 0.453956 5.2464 0
M  V30 2922 H 283.933 0.725986 3.70861 0
M  V30 2923 H 284.246 2.0934 7.43906 0
M  V30 2924 H 282.591 1.87596 6.69203 0
M  V30 2925 H 285.782 0.981808 4.57688 0
M  V30 2926 H 285.955 1.60514 6.27805 0
M  V30 2927 N 279.361 -1.56624 0.175154 0
M  V30 2928 C 280.607 -1.98061 -0.462976 0
M  V30 2929 C 280.962 -1.05949 -1.60601 0
M  V30 2930 O 280.255 -0.0999027 -1.91339 0
M  V30 2931 C 280.449 -3.43419 -0.989864 0
M  V30 2932 C 280.278 -4.49587 0.100583 0
M  V30 2933 C 279.048 -5.02281 0.551539 0
M  V30 2934 C 281.246 -5.06322 0.902369 0
M  V30 2935 N 279.228 -5.92088 1.62189 0
M  V30 2936 C 280.599 -5.92607 1.82256 0
M  V30 2937 C 282.654 -4.88811 0.947019 0
M  V30 2938 C 281.357 -6.63254 2.78364 0
M  V30 2939 C 283.383 -5.60182 1.89606 0
M  V30 2940 C 282.745 -6.46197 2.80372 0
M  V30 2941 H 278.844 -0.769833 -0.137409 0
M  V30 2942 H 281.428 -1.9273 0.276256 0
M  V30 2943 H 279.599 -3.49288 -1.6986 0
M  V30 2944 H 281.331 -3.7186 -1.59694 0
M  V30 2945 H 278.086 -4.73367 0.148537 0
M  V30 2946 H 278.51 -6.41696 2.15767 0
M  V30 2947 H 283.152 -4.22004 0.259304 0
M  V30 2948 H 280.87 -7.29271 3.48122 0
M  V30 2949 H 284.456 -5.48617 1.93676 0
M  V30 2950 H 283.336 -7.00453 3.52612 0
M  V30 2951 N 280.839 0.0985539 -1.57292 0
M  V30 2952 C 281.771 1.14595 -1.98496 0
M  V30 2953 C 282.784 1.36512 -0.887031 0
M  V30 2954 O 283.973 1.35225 -1.16518 0
M  V30 2955 C 281.073 2.50216 -2.28572 0
M  V30 2956 C 280.246 2.48624 -3.59868 0
M  V30 2957 C 279.305 3.66146 -3.7792 0
M  V30 2958 O 278.331 3.48795 -4.49812 0
M  V30 2959 N 279.533 4.85496 -3.18235 0
M  V30 2960 H 282.298 0.795277 -2.88956 0
M  V30 2961 H 279.859 0.287579 -1.59325 0
M  V30 2962 H 281.851 3.27432 -2.37845 0
M  V30 2963 H 280.421 2.77387 -1.44136 0
M  V30 2964 H 279.641 1.56978 -3.61596 0
M  V30 2965 H 280.929 2.44635 -4.46129 0
M  V30 2966 H 280.327 5.02497 -2.59833 0
M  V30 2967 H 278.884 5.60317 -3.32999 0
M  V30 2968 N 282.317 1.53212 0.369288 0
M  V30 2969 C 283.227 1.82342 1.47609 0
M  V30 2970 C 284.243 0.711532 1.58787 0
M  V30 2971 O 285.419 1.0012 1.74751 0
M  V30 2972 C 282.484 2.00393 2.8292 0
M  V30 2973 C 281.545 3.24297 2.81301 0
M  V30 2974 C 280.778 3.41478 4.10157 0
M  V30 2975 O 281.001 2.63033 5.06132 0
M  V30 2976 O 279.935 4.34817 4.16194 0
M  V30 2977 H 283.761 2.76366 1.25918 0
M  V30 2978 H 281.346 1.38547 0.559034 0
M  V30 2979 H 283.228 2.13859 3.63101 0
M  V30 2980 H 281.903 1.09559 3.04596 0
M  V30 2981 H 280.81 3.16257 1.99831 0
M  V30 2982 H 282.143 4.15041 2.64578 0
M  V30 2983 N 283.795 -0.628877 1.44509 0
M  V30 2984 C 284.742 -1.74074 1.51549 0
M  V30 2985 C 285.712 -1.62084 0.363021 0
M  V30 2986 O 286.897 -1.81975 0.573567 0
M  V30 2987 C 284.037 -3.12328 1.46784 0
M  V30 2988 C 283.15 -3.35277 2.72422 0
M  V30 2989 C 282.285 -4.63515 2.59475 0
M  V30 2990 C 281.324 -4.7965 3.80266 0
M  V30 2991 N 280.461 -5.99168 3.65981 0
M  V30 2992 H 285.301 -1.67392 2.46544 0
M  V30 2993 H 282.838 -0.816527 1.22357 0
M  V30 2994 H 284.796 -3.92286 1.42012 0
M  V30 2995 H 283.426 -3.18018 0.553544 0
M  V30 2996 H 282.478 -2.49242 2.87372 0
M  V30 2997 H 283.79 -3.43078 3.62076 0
M  V30 2998 H 282.944 -5.51638 2.52548 0
M  V30 2999 H 281.683 -4.58076 1.67384 0
M  V30 3000 H 280.688 -3.89957 3.87574 0
M  V30 3001 H 281.913 -4.86902 4.73395 0
M  V30 3002 H 279.859 -5.94814 2.76644 0
M  V30 3003 H 279.776 -6.08035 4.49254 0
M  V30 3004 H 281.044 -6.89846 3.6295 0
M  V30 3005 N 285.273 -1.31445 -0.869486 0
M  V30 3006 C 286.689 -1.10113 -1.15531 0
M  V30 3007 C 286.889 0.128087 -2.01092 0
M  V30 3008 O 285.945 0.817276 -2.38908 0
M  V30 3009 C 287.258 -2.37291 -1.84698 0
M  V30 3010 C 288.806 -2.42906 -1.97397 0
M  V30 3011 C 289.281 -3.69967 -2.69979 0
M  V30 3012 N 290.772 -3.70864 -2.77514 0
M  V30 3013 C 291.507 -4.65875 -3.34287 0
M  V30 3014 N 291.003 -5.71242 -3.91988 0
M  V30 3015 N 292.796 -4.53394 -3.3225 0
M  V30 3016 H 284.947 -2.1028 -0.299347 0
M  V30 3017 H 287.21 -0.927683 -0.195214 0
M  V30 3018 H 286.916 -3.27078 -1.29278 0
M  V30 3019 H 286.79 -2.47125 -2.84972 0
M  V30 3020 H 289.177 -1.53588 -2.51982 0
M  V30 3021 H 289.258 -2.37036 -0.961643 0
M  V30 3022 H 288.902 -4.59652 -2.16062 0
M  V30 3023 H 288.832 -3.73103 -3.7162 0
M  V30 3024 H 291.323 -2.94697 -2.36563 0
M  V30 3025 H 291.636 -6.39817 -4.33421 0
M  V30 3026 H 289.981 -5.75015 -3.90362 0
M  V30 3027 H 293.172 -3.70252 -2.8641 0
M  V30 3028 H 293.345 -5.27617 -3.76197 0
M  V30 3029 O 286.79 1.00619 -1.26325 0
M  V30 3030 H 287.481 1.62637 -1.05209 0
M  V30 END ATOM
M  V30 BEGIN BOND
M  V30 END BOND
M  V30 END CTAB
M  END
$$$$
