drugbank_target|Q9Y233 cAMP and cAMP-inhibited cGMP 3',5'-cyclic phosphodiesterase 10A (DB00975; DB01113; DB08383; DB08384; DB08386; DB08387; DB08389; DB08391; DB08811; DB08814)
 OpenBabel12092119363D

  0  0  0     0  0            999 V3000
M  V30 BEGIN CTAB
M  V30 COUNTS 12391 12522 0 0 0
M  V30 BEGIN ATOM
M  V30 1 H -0.908 1.98254 -0.117106 0
M  V30 2 N 0 1.576 0 0
M  V30 3 C 0.933 2.03868 1.02534 0
M  V30 4 C 1.911 0.928543 1.3348 0
M  V30 5 O 3.095 1.19667 1.45644 0
M  V30 6 C 0.222 2.43627 2.35294 0
M  V30 7 C -0.732 3.65373 2.2001 0
M  V30 8 S 0.101 5.13292 1.52614 0
M  V30 9 C 1.257 5.56322 2.86805 0
M  V30 10 H 1.49 2.90518 0.631377 0
M  V30 11 H -0.977 1.52953 0.210867 0
M  V30 12 H 0.981 2.67203 3.11629 0
M  V30 13 H -0.358 1.57376 2.7183 0
M  V30 14 H -1.165 3.90944 3.18086 0
M  V30 15 H -1.563 3.418 1.51819 0
M  V30 16 H 0.729 5.58782 3.83104 0
M  V30 17 H 1.672 6.56266 2.65933 0
M  V30 18 H 2.08 4.83886 2.90714 0
M  V30 19 N 1.4781 -0.272755 1.55222 0
M  V30 20 C 2.8941 -0.619959 1.47067 0
M  V30 21 C 3.0941 -1.895 0.684978 0
M  V30 22 O 2.1501 -2.51675 0.203931 0
M  V30 23 C 3.4631 -0.746693 2.91282 0
M  V30 24 C 5.0111 -0.840731 3.01497 0
M  V30 25 C 5.4861 -0.99924 4.46967 0
M  V30 26 N 6.9771 -1.06476 4.50796 0
M  V30 27 C 7.7121 -1.20621 5.6057 0
M  V30 28 N 7.2081 -1.31483 6.80209 0
M  V30 29 N 9.0011 -1.23733 5.48312 0
M  V30 30 H 1.1521 0.564606 2.04758 0
M  V30 31 H 3.4151 0.191177 0.928523 0
M  V30 32 H 3.1211 0.119753 3.51496 0
M  V30 33 H 2.9951 -1.6269 3.40311 0
M  V30 34 H 5.3821 -1.69764 2.41379 0
M  V30 35 H 5.4631 0.0640874 2.5572 0
M  V30 36 H 5.1071 -0.146984 5.07687 0
M  V30 37 H 5.0371 -1.91871 4.90401 0
M  V30 38 H 7.5281 -0.993196 3.64615 0
M  V30 39 H 7.8411 -1.42111 7.59621 0
M  V30 40 H 6.1861 -1.28487 6.8302 0
M  V30 41 H 9.3771 -1.14877 4.53785 0
M  V30 42 H 9.5501 -1.34412 6.33906 0
M  V30 43 N 2.9562 -1.48159 -0.537278 0
M  V30 44 C 4.2052 -1.5506 -1.28993 0
M  V30 45 C 4.5182 -0.226211 -1.94288 0
M  V30 46 O 5.7242 -0.173395 -2.70946 0
M  V30 47 C 4.1802 -2.73429 -2.34018 0
M  V30 48 C 3.7882 -4.1248 -1.74825 0
M  V30 49 C 5.5322 -2.89638 -3.10339 0
M  V30 50 C 3.4392 -5.22121 -2.77747 0
M  V30 51 H 2.3692 -0.577231 -0.485098 0
M  V30 52 H 5.0202 -1.74478 -0.568317 0
M  V30 53 H 3.4022 -2.47431 -3.09182 0
M  V30 54 H 4.5762 -4.48466 -1.05899 0
M  V30 55 H 2.8912 -4.01327 -1.11022 0
M  V30 56 H 5.4882 -3.68718 -3.87235 0
M  V30 57 H 5.8312 -1.9882 -3.65754 0
M  V30 58 H 6.3642 -3.15502 -2.42288 0
M  V30 59 H 3.1032 -6.1488 -2.27161 0
M  V30 60 H 2.6232 -4.90631 -3.45024 0
M  V30 61 H 4.3022 -5.49924 -3.4087 0
M  V30 62 N 4.4343 0.785586 -1.36625 0
M  V30 63 C 5.3443 1.92964 -1.33425 0
M  V30 64 C 6.3603 1.72394 -0.235851 0
M  V30 65 O 7.5363 1.95866 -0.468878 0
M  V30 66 C 4.6013 3.27884 -1.12662 0
M  V30 67 C 3.6623 3.61204 -2.32013 0
M  V30 68 C 2.8953 4.89687 -2.12231 0
M  V30 69 O 3.1183 5.59704 -1.09945 0
M  V30 70 O 2.0523 5.21752 -3.00098 0
M  V30 71 H 5.8783 1.98613 -2.29753 0
M  V30 72 H 3.4633 0.926384 -1.17211 0
M  V30 73 H 5.3453 4.08614 -1.03016 0
M  V30 74 H 4.0203 3.23118 -0.193991 0
M  V30 75 H 2.9273 2.80765 -2.47228 0
M  V30 76 H 4.2603 3.70698 -3.23796 0
M  V30 77 N 5.9124 1.20967 1.01018 0
M  V30 78 C 6.8224 0.980157 2.13143 0
M  V30 79 C 7.8384 -0.0660665 1.73875 0
M  V30 80 O 9.0144 0.122821 2.01025 0
M  V30 81 C 6.0794 0.54216 3.42435 0
M  V30 82 C 5.1404 1.65999 3.95908 0
M  V30 83 C 4.3734 1.2428 5.19028 0
M  V30 84 O 4.5964 0.114196 5.70286 0
M  V30 85 O 3.5304 2.05271 5.65816 0
M  V30 86 H 7.3564 1.91913 2.35379 0
M  V30 87 H 4.9414 0.994099 1.11526 0
M  V30 88 H 6.8234 0.30744 4.20277 0
M  V30 89 H 5.4984 -0.36815 3.216 0
M  V30 90 H 4.4054 1.94906 3.19316 0
M  V30 91 H 5.7384 2.54753 4.21143 0
M  V30 92 N 7.3905 -1.2043 1.01659 0
M  V30 93 C 8.8065 -1.41852 0.731442 0
M  V30 94 C 9.0065 -1.89358 -0.688898 0
M  V30 95 O 8.0625 -2.06247 -1.45666 0
M  V30 96 C 9.3755 -2.44019 1.75714 0
M  V30 97 C 10.9235 -2.57785 1.77527 0
M  V30 98 C 11.3985 -3.63194 2.79023 0
M  V30 99 N 12.8895 -3.70678 2.77763 0
M  V30 100 C 13.6245 -4.51897 3.52954 0
M  V30 101 N 13.1205 -5.36921 4.37821 0
M  V30 102 N 14.9135 -4.4643 3.41551 0
M  V30 103 H 7.0645 -0.879093 1.93354 0
M  V30 104 H 9.3275 -0.448425 0.835236 0
M  V30 105 H 9.0335 -2.1611 2.77469 0
M  V30 106 H 8.9075 -3.43007 1.56927 0
M  V30 107 H 11.2945 -2.85023 0.764569 0
M  V30 108 H 11.3755 -1.58992 2.00387 0
M  V30 109 H 11.0195 -3.36699 3.80258 0
M  V30 110 H 10.9495 -4.61609 2.53425 0
M  V30 111 H 13.4405 -3.09944 2.16201 0
M  V30 112 H 13.7535 -5.95981 4.91962 0
M  V30 113 H 12.0985 -5.36424 4.41899 0
M  V30 114 H 15.2895 -3.79042 2.74672 0
M  V30 115 H 15.4625 -5.09491 4.00404 0
M  V30 116 N 8.8686 -0.792821 -1.36206 0
M  V30 117 C 9.8156 -0.191653 -2.30003 0
M  V30 118 C 10.7856 0.666453 -1.52143 0
M  V30 119 O 11.9706 0.61442 -1.80636 0
M  V30 120 C 9.1106 0.664848 -3.38635 0
M  V30 121 C 8.2236 -0.212175 -4.31479 0
M  V30 122 C 7.3586 0.651022 -5.27196 0
M  V30 123 C 6.3976 -0.227247 -6.11678 0
M  V30 124 N 5.5346 0.595127 -6.99573 0
M  V30 125 H 10.3746 -0.996978 -2.80828 0
M  V30 126 H 7.9116 -0.503206 -1.38225 0
M  V30 127 H 9.8696 1.17645 -4.00269 0
M  V30 128 H 8.4996 1.43557 -2.89122 0
M  V30 129 H 7.5516 -0.841777 -3.70969 0
M  V30 130 H 8.8636 -0.888751 -4.90818 0
M  V30 131 H 8.0176 1.2283 -5.94136 0
M  V30 132 H 6.7566 1.36121 -4.68319 0
M  V30 133 H 5.7616 -0.816904 -5.43697 0
M  V30 134 H 6.9866 -0.93509 -6.72631 0
M  V30 135 H 4.9326 1.28955 -6.432 0
M  V30 136 H 4.8496 -0.0236952 -7.55996 0
M  V30 137 H 6.1176 1.15613 -7.70879 0
M  V30 138 N 10.3467 1.47872 -0.545128 0
M  V30 139 C 11.5717 2.07391 -0.0190611 0
M  V30 140 C 11.9967 1.39688 1.25971 0
M  V30 141 O 11.3547 0.467816 1.7516 0
M  V30 142 C 11.4027 3.60188 0.172335 0
M  V30 143 O 10.5067 3.9339 1.23766 0
M  V30 144 H 9.8477 0.662411 -0.0459059 0
M  V30 145 H 12.3777 1.90066 -0.757365 0
M  V30 146 H 12.3877 4.06129 0.390305 0
M  V30 147 H 11.0627 4.08865 -0.761725 0
M  V30 148 H 9.6397 3.5921 1.00114 0
M  V30 149 N 11.8248 0.280983 1.55075 0
M  V30 150 C 12.7568 -0.637268 2.20163 0
M  V30 151 C 13.7698 -1.11298 1.18813 0
M  V30 152 O 14.9588 -1.03388 1.4551 0
M  V30 153 C 12.0588 -1.88199 2.81841 0
M  V30 154 C 11.2318 -1.55211 4.08936 0
M  V30 155 C 10.2908 -2.64991 4.54606 0
M  V30 156 O 9.3168 -2.30929 5.2025 0
M  V30 157 N 10.5188 -3.95161 4.25238 0
M  V30 158 H 13.2838 -0.0801694 2.99593 0
M  V30 159 H 10.8448 0.102329 1.61576 0
M  V30 160 H 12.8368 -2.60948 3.09335 0
M  V30 161 H 11.4068 -2.34799 2.06369 0
M  V30 162 H 10.6268 -0.658185 3.88666 0
M  V30 163 H 11.9148 -1.30681 4.91732 0
M  V30 164 H 11.3128 -4.25653 3.72607 0
M  V30 165 H 9.8698 -4.6427 4.5749 0
M  V30 166 N 13.3029 -1.57598 0.00835791 0
M  V30 167 C 14.2529 -2.05431 -0.989045 0
M  V30 168 C 15.2369 -0.950662 -1.29812 0
M  V30 169 O 16.4289 -1.21438 -1.28771 0
M  V30 170 C 13.5579 -2.56801 -2.27833 0
M  V30 171 C 12.6439 -3.74058 -1.99853 0
M  V30 172 N 13.0349 -4.8544 -1.42062 0
M  V30 173 C 11.3329 -3.82148 -2.29953 0
M  V30 174 C 12.0339 -5.66817 -1.30743 0
M  V30 175 N 11.0099 -5.13077 -1.7959 0
M  V30 176 H 14.8119 -2.88955 -0.536853 0
M  V30 177 H 12.3259 -1.61199 -0.197148 0
M  V30 178 H 14.3229 -2.89349 -3.00137 0
M  V30 179 H 12.9829 -1.74699 -2.73698 0
M  V30 180 H 13.9939 -5.0612 -1.09833 0
M  V30 181 H 10.6709 -3.10916 -2.78635 0
M  V30 182 H 12.0609 -6.66343 -0.862328 0
M  V30 183 N 14.781 0.264519 -1.55364 0
M  V30 184 C 15.711 1.33121 -1.91836 0
M  V30 185 C 16.692 1.51101 -0.781192 0
M  V30 186 O 17.877 1.64003 -1.04003 0
M  V30 187 C 15.007 2.68921 -2.19769 0
M  V30 188 C 13.961 2.65661 -3.35571 0
M  V30 189 C 13.287 4.05093 -3.49004 0
M  V30 190 C 14.587 2.24187 -4.71739 0
M  V30 191 H 16.281 1.02844 -2.81182 0
M  V30 192 H 13.827 0.493286 -1.35287 0
M  V30 193 H 15.78 3.43663 -2.43872 0
M  V30 194 H 14.504 3.00799 -1.27231 0
M  V30 195 H 13.163 1.93377 -3.1145 0
M  V30 196 H 12.811 4.34206 -2.53917 0
M  V30 197 H 12.511 4.03804 -4.26868 0
M  V30 198 H 14.035 4.81561 -3.75408 0
M  V30 199 H 15.449 2.88654 -4.9533 0
M  V30 200 H 13.846 2.34044 -5.52579 0
M  V30 201 H 14.916 1.19327 -4.69988 0
M  V30 202 N 16.2591 1.48442 0.529413 0
M  V30 203 C 17.4871 1.60151 1.30994 0
M  V30 204 C 17.9021 0.261985 1.86973 0
M  V30 205 O 17.2591 -0.748805 1.66431 0
M  V30 206 C 17.3101 2.64854 2.46038 0
M  V30 207 O 17.0311 3.93608 1.92365 0
M  V30 208 C 18.5321 2.87007 3.37849 0
M  V30 209 H 15.7521 0.539971 0.398338 0
M  V30 210 H 18.2961 1.94273 0.638597 0
M  V30 211 H 16.4511 2.33589 3.09055 0
M  V30 212 H 16.8651 4.51055 2.67675 0
M  V30 213 H 18.3391 3.64068 4.14919 0
M  V30 214 H 18.8161 1.95852 3.93114 0
M  V30 215 H 19.4221 3.19579 2.80623 0
M  V30 216 N 17.7372 -0.778329 1.37039 0
M  V30 217 C 18.9852 -1.53361 1.31623 0
M  V30 218 C 19.3062 -1.94739 -0.100831 0
M  V30 219 O 18.5762 -1.65797 -1.04347 0
M  V30 220 H 17.1562 -0.568794 0.484234 0
M  V30 221 H 19.8182 -0.926742 1.71457 0
M  V30 222 H 18.9142 -2.43606 1.95096 0
M  V30 223 N 19.2153 -1.21501 -1.00376 0
M  V30 224 C 20.1453 -0.999478 -2.11028 0
M  V30 225 C 21.1263 0.0759671 -1.6993 0
M  V30 226 O 22.3113 -0.0841106 -1.94018 0
M  V30 227 C 19.4413 -0.564709 -3.42678 0
M  V30 228 C 18.3953 -1.58486 -3.97576 0
M  V30 229 C 17.7213 -1.00628 -5.25146 0
M  V30 230 C 19.0213 -2.97204 -4.29496 0
M  V30 231 H 20.7153 -1.92495 -2.29317 0
M  V30 232 H 18.2613 -0.92693 -1.102 0
M  V30 233 H 20.2143 -0.401091 -4.19487 0
M  V30 234 H 18.9383 0.396411 -3.24185 0
M  V30 235 H 17.5973 -1.73606 -3.22888 0
M  V30 236 H 17.2453 -0.0368439 -5.02987 0
M  V30 237 H 16.9453 -1.68771 -5.62841 0
M  V30 238 H 18.4693 -0.854015 -6.04598 0
M  V30 239 H 19.8833 -2.8552 -4.97143 0
M  V30 240 H 18.2803 -3.62372 -4.78338 0
M  V30 241 H 19.3503 -3.47956 -3.3772 0
M  V30 242 N 20.6934 1.19889 -1.02296 0
M  V30 243 C 21.9214 1.9339 -0.735399 0
M  V30 244 C 22.3364 1.75148 0.704887 0
M  V30 245 O 21.6934 1.06954 1.47875 0
M  V30 246 C 21.7444 3.45313 -1.06962 0
M  V30 247 O 21.4654 3.62964 -2.45334 0
M  V30 248 C 22.9664 4.35948 -0.804021 0
M  V30 249 H 20.1864 0.61448 -0.269546 0
M  V30 250 H 22.7304 1.522 -1.36585 0
M  V30 251 H 20.8854 3.84359 -0.484455 0
M  V30 252 H 21.2994 4.56886 -2.57595 0
M  V30 253 H 22.7734 5.41174 -1.0879 0
M  V30 254 H 23.2504 4.3842 0.261691 0
M  V30 255 H 23.8564 4.02574 -1.37164 0
M  V30 256 N 22.1715 0.800033 1.35784 0
M  V30 257 C 23.4485 0.30088 1.93272 0
M  V30 258 C 23.8285 -1.20857 1.73081 0
M  V30 259 O 23.1765 -2.00502 1.09596 0
M  V30 260 C 23.3865 0.70511 3.41803 0
M  V30 261 C 24.7345 0.690871 4.18942 0
M  V30 262 O 25.7585 0.646244 3.50289 0
M  V30 263 O 24.6175 0.74332 5.41421 0
M  V30 264 H 21.7115 0.0771605 0.823393 0
M  V30 265 H 24.2575 0.88329 1.449 0
M  V30 266 H 23.0295 1.74571 3.50201 0
M  V30 267 H 22.6525 0.0971541 3.97481 0
M  V30 268 N 23.6496 -1.47581 0.552962 0
M  V30 269 C 24.5596 -2.33743 -0.200353 0
M  V30 270 C 25.5756 -1.47928 -0.916151 0
M  V30 271 O 26.7516 -1.80865 -0.885993 0
M  V30 272 C 23.8166 -3.24536 -1.21973 0
M  V30 273 C 22.8776 -4.26238 -0.511819 0
M  V30 274 C 22.1106 -5.12693 -1.48263 0
M  V30 275 O 22.3336 -5.01525 -2.71714 0
M  V30 276 O 21.2676 -5.93375 -1.00945 0
M  V30 277 H 25.0936 -2.9945 0.506304 0
M  V30 278 H 22.6786 -1.46071 0.313622 0
M  V30 279 H 24.5606 -3.80631 -1.80827 0
M  V30 280 H 23.2356 -2.61462 -1.90839 0
M  V30 281 H 22.1426 -3.73914 0.117799 0
M  V30 282 H 23.4756 -4.92014 0.135308 0
M  V30 283 N 25.1277 -0.289203 -1.54924 0
M  V30 284 C 26.0747 0.592115 -2.23075 0
M  V30 285 C 27.0447 1.13881 -1.20915 0
M  V30 286 O 28.2297 1.18551 -1.495 0
M  V30 287 C 25.3697 1.76376 -2.96623 0
M  V30 288 C 24.4827 1.24959 -4.13533 0
M  V30 289 C 23.6177 2.38416 -4.74691 0
M  V30 290 C 22.6567 1.84072 -5.83767 0
M  V30 291 N 21.7937 2.91057 -6.38929 0
M  V30 292 H 26.6337 0.00432038 -2.98 0
M  V30 293 H 24.1707 -0.00963529 -1.47097 0
M  V30 294 H 26.1287 2.45268 -3.3749 0
M  V30 295 H 24.7587 2.32337 -2.24097 0
M  V30 296 H 23.8107 0.453307 -3.77689 0
M  V30 297 H 25.1227 0.811662 -4.92152 0
M  V30 298 H 24.2767 3.15276 -5.18349 0
M  V30 299 H 23.0157 2.8553 -3.95378 0
M  V30 300 H 22.0207 1.05697 -5.39545 0
M  V30 301 H 23.2457 1.37877 -6.64956 0
M  V30 302 H 21.1917 3.37526 -5.62505 0
M  V30 303 H 21.1087 2.51724 -7.12861 0
M  V30 304 H 22.3767 3.6785 -6.87246 0
M  V30 305 N 26.6058 1.57591 -0.0167156 0
M  V30 306 C 27.8518 1.91567 0.665582 0
M  V30 307 C 28.1848 0.892298 1.72487 0
M  V30 308 O 27.4598 -0.0867127 1.94307 0
M  V30 309 C 27.7428 3.36069 1.29342 0
M  V30 310 C 27.5958 4.49135 0.244541 0
M  V30 311 C 28.9148 3.803 2.21495 0
M  V30 312 H 26.0338 0.69666 0.240488 0
M  V30 313 H 28.6758 1.89866 -0.0714356 0
M  V30 314 H 26.8258 3.3765 1.92158 0
M  V30 315 H 28.4978 4.59689 -0.385228 0
M  V30 316 H 26.7408 4.3165 -0.431379 0
M  V30 317 H 27.4118 5.47242 0.723207 0
M  V30 318 H 29.8878 3.80377 1.68678 0
M  V30 319 H 28.7638 4.82127 2.62382 0
M  V30 320 H 29.0248 3.15104 3.101 0
M  V30 321 N 28.0839 -0.256276 1.55502 0
M  V30 322 C 29.0309 -1.31714 1.89526 0
M  V30 323 C 30.0009 -1.4828 0.748479 0
M  V30 324 O 31.1859 -1.62416 1.00128 0
M  V30 325 C 28.3259 -2.66933 2.18725 0
M  V30 326 C 27.4389 -2.58452 3.4616 0
M  V30 327 C 26.5739 -3.85961 3.64976 0
M  V30 328 C 25.6129 -3.72059 4.86044 0
M  V30 329 N 24.7499 -4.9144 5.01429 0
M  V30 330 H 29.5899 -1.01998 2.80001 0
M  V30 331 H 27.1269 -0.492413 1.38613 0
M  V30 332 H 29.0849 -3.4563 2.33657 0
M  V30 333 H 27.7149 -2.94816 1.31466 0
M  V30 334 H 26.7669 -1.71374 3.3961 0
M  V30 335 H 28.0789 -2.44085 4.34999 0
M  V30 336 H 27.2329 -4.73101 3.79816 0
M  V30 337 H 25.9719 -4.03215 2.74353 0
M  V30 338 H 24.9769 -2.83302 4.7119 0
M  V30 339 H 26.2019 -3.56309 5.78118 0
M  V30 340 H 24.1479 -5.09072 4.13741 0
M  V30 341 H 24.0649 -4.79668 5.84341 0
M  V30 342 H 25.3329 -5.80104 5.20672 0
M  V30 343 N 29.562 -1.4872 -0.521534 0
M  V30 344 C 30.525 -1.63379 -1.60748 0
M  V30 345 C 31.525 -0.50661 -1.52611 0
M  V30 346 O 32.715 -0.772601 -1.5613 0
M  V30 347 C 29.847 -1.61192 -3.00383 0
M  V30 348 H 31.04 -2.60217 -1.49087 0
M  V30 349 H 28.593 -1.37444 -0.744235 0
M  V30 350 H 29.328 -0.65863 -3.17541 0
M  V30 351 H 29.113 -2.43032 -3.07698 0
M  V30 352 H 30.603 -1.7466 -3.7932 0
M  V30 353 N 31.0401 0.771051 -1.3745 0
M  V30 354 C 32.2701 1.55789 -1.35696 0
M  V30 355 C 32.6781 1.89107 0.0594523 0
M  V30 356 O 32.0211 1.51984 1.03183 0
M  V30 357 C 32.0831 2.89515 -2.13123 0
M  V30 358 C 31.7471 2.78829 -3.62082 0
M  V30 359 C 32.7441 2.49812 -4.5595 0
M  V30 360 C 30.4291 2.9683 -4.05213 0
M  V30 361 C 32.4231 2.38923 -5.90927 0
M  V30 362 C 30.1101 2.85562 -5.40276 0
M  V30 363 C 31.1081 2.56649 -6.32946 0
M  V30 364 O 30.7961 2.45408 -7.65526 0
M  V30 365 H 30.5281 0.489257 -0.466481 0
M  V30 366 H 33.0821 0.963446 -1.81403 0
M  V30 367 H 31.3121 3.51081 -1.62107 0
M  V30 368 H 33.0011 3.50915 -2.03994 0
M  V30 369 H 33.7671 2.3559 -4.23937 0
M  V30 370 H 29.6461 3.18335 -3.33442 0
M  V30 371 H 33.1901 2.16277 -6.63227 0
M  V30 372 H 29.0871 2.99351 -5.71891 0
M  V30 373 H 29.8551 2.60753 -7.75855 0
M  V30 374 N 32.5182 1.22032 0.997298 0
M  V30 375 C 33.4482 1.01065 2.10495 0
M  V30 376 C 34.4292 -0.0669542 1.69968 0
M  V30 377 O 35.6142 0.0943987 1.9397 0
M  V30 378 C 32.7442 0.582874 3.42374 0
M  V30 379 C 31.6982 1.60592 3.96729 0
M  V30 380 C 31.0242 1.03412 5.24605 0
M  V30 381 C 32.3242 2.99478 4.27914 0
M  V30 382 H 34.0182 1.93708 2.28292 0
M  V30 383 H 31.5642 0.932761 1.09707 0
M  V30 384 H 33.5172 0.423332 4.19268 0
M  V30 385 H 32.2412 -0.379213 3.24391 0
M  V30 386 H 30.9002 1.75316 3.21963 0
M  V30 387 H 30.5482 0.063518 5.0296 0
M  V30 388 H 30.2482 1.71754 5.61938 0
M  V30 389 H 31.7722 0.886066 6.04137 0
M  V30 390 H 33.1862 2.88153 4.95622 0
M  V30 391 H 31.5832 3.64903 4.76409 0
M  V30 392 H 32.6532 3.49742 3.3587 0
M  V30 393 N 33.9963 -1.19345 1.0293 0
M  V30 394 C 35.2213 -1.93538 0.745511 0
M  V30 395 C 35.6463 -1.75007 -0.689511 0
M  V30 396 O 35.0043 -1.05265 -1.47611 0
M  V30 397 C 35.0523 -3.43336 1.10239 0
M  V30 398 O 34.1563 -4.11806 0.221289 0
M  V30 399 H 33.4973 -0.604193 0.275404 0
M  V30 400 H 36.0273 -1.5141 1.37609 0
M  V30 401 H 36.0373 -3.94004 1.05947 0
M  V30 402 H 34.7123 -3.56146 2.14786 0
M  V30 403 H 33.2893 -3.715 0.322842 0
M  V30 404 N 35.4744 -0.807222 -1.35358 0
M  V30 405 C 36.4044 -0.232509 -2.3234 0
M  V30 406 C 37.3854 0.642386 -1.57504 0
M  V30 407 O 38.5704 0.572526 -1.85569 0
M  V30 408 C 35.7004 0.619238 -3.41735 0
M  V30 409 C 34.6544 -0.157215 -4.27711 0
M  V30 410 C 33.9804 0.816273 -5.28433 0
M  V30 411 C 35.2804 -1.35656 -5.04376 0
M  V30 412 H 36.9744 -1.04276 -2.80654 0
M  V30 413 H 34.5204 -0.50288 -1.34934 0
M  V30 414 H 36.4734 1.03137 -4.08584 0
M  V30 415 H 35.1974 1.46239 -2.92031 0
M  V30 416 H 33.8564 -0.550525 -3.62443 0
M  V30 417 H 33.5044 1.65494 -4.74996 0
M  V30 418 H 33.2044 0.301067 -5.86828 0
M  V30 419 H 34.7284 1.22659 -5.98153 0
M  V30 420 H 36.1424 -1.01927 -5.64166 0
M  V30 421 H 34.5394 -1.8063 -5.7227 0
M  V30 422 H 35.6094 -2.14288 -4.34981 0
M  V30 423 N 36.9525 1.47285 -0.560781 0
M  V30 424 C 37.9025 2.27073 0.205384 0
M  V30 425 C 38.8865 1.34569 0.882044 0
M  V30 426 O 40.0785 1.58899 0.77976 0
M  V30 427 C 37.2075 3.20414 1.23247 0
M  V30 428 C 36.2935 4.20399 0.559041 0
M  V30 429 N 36.6845 5.04423 -0.372927 0
M  V30 430 C 34.9825 4.38536 0.812522 0
M  V30 431 C 35.6835 5.76655 -0.764446 0
M  V30 432 N 34.6595 5.43471 -0.11848 0
M  V30 433 H 38.4615 2.89422 -0.511117 0
M  V30 434 H 35.9755 1.57868 -0.380975 0
M  V30 435 H 37.9725 3.76262 1.79534 0
M  V30 436 H 36.6325 2.59623 1.95002 0
M  V30 437 H 37.6435 5.1248 -0.747287 0
M  V30 438 H 34.3205 3.88913 1.51832 0
M  V30 439 H 35.7105 6.54238 -1.53045 0
M  V30 440 N 38.4306 0.297415 1.54768 0
M  V30 441 C 39.8416 -0.195947 1.85669 0
M  V30 442 C 40.1926 -1.53707 1.21937 0
M  V30 443 O 39.3176 -2.10164 0.515754 0
M  V30 444 C 39.9126 -0.362318 3.36857 0
M  V30 445 C 38.4716 -0.799901 3.67802 0
M  V30 446 C 37.6186 0.0938578 2.77141 0
M  V30 447 H 40.5696 0.518538 1.4999 0
M  V30 448 H 40.5906 -1.19745 3.61167 0
M  V30 449 H 40.1026 0.613921 3.83214 0
M  V30 450 H 38.2036 -1.78682 3.26961 0
M  V30 451 H 38.3166 -0.621773 4.75048 0
M  V30 452 H 36.6806 -0.426254 2.51108 0
M  V30 453 H 37.4636 1.06639 3.26318 0
M  V30 454 N 39.9087 -1.5758 0.0250728 0
M  V30 455 C 40.8407 -2.06869 -0.986796 0
M  V30 456 C 41.8537 -0.991332 -1.29137 0
M  V30 457 O 43.0427 -1.26761 -1.25674 0
M  V30 458 C 40.1427 -2.47486 -2.31525 0
M  V30 459 C 39.3157 -3.78253 -2.19643 0
M  V30 460 C 38.3747 -4.05464 -3.35388 0
M  V30 461 O 37.4007 -4.75774 -3.12454 0
M  V30 462 N 38.6027 -3.55321 -4.59051 0
M  V30 463 H 41.3677 -2.94302 -0.566276 0
M  V30 464 H 38.9287 -1.6109 -0.161776 0
M  V30 465 H 40.9207 -2.62785 -3.07776 0
M  V30 466 H 39.4907 -1.65441 -2.65232 0
M  V30 467 H 38.7107 -3.7279 -1.28144 0
M  V30 468 H 39.9987 -4.63936 -2.08903 0
M  V30 469 H 39.3967 -2.98431 -4.80578 0
M  V30 470 H 37.9537 -3.75905 -5.32483 0
M  V30 471 N 41.3868 0.248026 -1.55636 0
M  V30 472 C 42.6328 0.97767 -1.77678 0
M  V30 473 C 42.9658 1.85016 -0.590135 0
M  V30 474 O 42.2408 1.90095 0.411611 0
M  V30 475 C 42.5238 1.83914 -3.09593 0
M  V30 476 C 42.3768 0.99491 -4.38659 0
M  V30 477 C 43.6958 2.82183 -3.37729 0
M  V30 478 H 40.8148 0.354005 -0.646413 0
M  V30 479 H 43.4568 0.248253 -1.88371 0
M  V30 480 H 41.6068 2.46104 -3.00608 0
M  V30 481 H 43.2788 0.391789 -4.59633 0
M  V30 482 H 41.5218 0.299231 -4.32767 0
M  V30 483 H 42.1928 1.63145 -5.2734 0
M  V30 484 H 44.6688 2.30129 -3.4667 0
M  V30 485 H 43.5448 3.39582 -4.31249 0
M  V30 486 H 43.8058 3.58588 -2.58586 0
M  V30 487 N 42.8649 1.48995 0.513639 0
M  V30 488 C 43.7949 1.67636 1.62544 0
M  V30 489 C 44.7759 0.525087 1.61793 0
M  V30 490 O 45.9609 0.759502 1.78732 0
M  V30 491 C 43.0909 1.73114 3.01079 0
M  V30 492 C 42.0449 2.87905 3.16693 0
M  V30 493 C 41.3709 2.78486 4.56453 0
M  V30 494 C 42.6709 4.29005 2.97913 0
M  V30 495 H 44.3649 2.60716 1.47198 0
M  V30 496 H 41.9109 1.25465 0.706714 0
M  V30 497 H 43.8639 1.84742 3.78746 0
M  V30 498 H 42.5879 0.766241 3.17484 0
M  V30 499 H 41.2469 2.75859 2.41448 0
M  V30 500 H 40.8949 1.7993 4.69717 0
M  V30 501 H 40.5949 3.55523 4.67843 0
M  V30 502 H 42.1189 2.92104 5.36197 0
M  V30 503 H 43.5329 4.41798 3.65359 0
M  V30 504 H 41.9299 5.07166 3.20785 0
M  V30 505 H 42.9999 4.44329 1.94165 0
M  V30 506 N 44.343 -0.763751 1.37857 0
M  V30 507 C 45.62 -1.51244 1.24035 0
M  V30 508 C 46 -2.10472 -0.162649 0
M  V30 509 O 45.348 -1.96206 -1.17112 0
M  V30 510 C 45.558 -2.58694 2.34261 0
M  V30 511 C 46.906 -3.25878 2.72193 0
M  V30 512 O 47.93 -2.68993 2.33497 0
M  V30 513 O 46.789 -4.2874 3.38887 0
M  V30 514 H 43.883 -0.670243 0.484462 0
M  V30 515 H 46.429 -0.800031 1.49658 0
M  V30 516 H 45.201 -2.13105 3.2818 0
M  V30 517 H 44.824 -3.37527 2.10146 0
M  V30 518 N 45.8211 -1.22559 -0.990812 0
M  V30 519 C 46.7311 -1.01394 -2.11557 0
M  V30 520 C 47.7471 0.0383962 -1.73958 0
M  V30 521 O 48.9231 -0.154787 -2.00804 0
M  V30 522 C 45.9881 -0.596569 -3.41529 0
M  V30 523 C 45.0491 -1.72276 -3.93217 0
M  V30 524 C 44.2821 -1.32521 -5.16985 0
M  V30 525 O 44.5051 -0.204909 -5.70032 0
M  V30 526 O 43.4391 -2.14247 -5.62478 0
M  V30 527 H 47.2651 -1.95633 -2.32296 0
M  V30 528 H 44.8501 -1.01172 -1.0993 0
M  V30 529 H 46.7321 -0.374263 -4.19735 0
M  V30 530 H 45.4071 0.316939 -3.22145 0
M  V30 531 H 44.3141 -1.99961 -3.16174 0
M  V30 532 H 45.6471 -2.61421 -4.17037 0
M  V30 533 N 47.2992 1.18797 -1.03562 0
M  V30 534 C 48.5462 1.8865 -0.736023 0
M  V30 535 C 48.8742 1.80041 0.735889 0
M  V30 536 O 48.1292 1.19179 1.55225 0
M  V30 537 C 48.4282 3.38692 -1.14117 0
M  V30 538 C 48.0942 3.67504 -2.6125 0
M  V30 539 C 46.7562 3.75078 -3.01447 0
M  V30 540 C 49.1082 3.80293 -3.56408 0
M  V30 541 C 46.4362 3.92915 -4.35701 0
M  V30 542 C 48.7882 3.99645 -4.90374 0
M  V30 543 C 47.4522 4.05453 -5.30249 0
M  V30 544 H 46.7222 0.690321 -0.26933 0
M  V30 545 H 49.3692 1.40641 -1.29971 0
M  V30 546 H 47.6742 3.88645 -0.496202 0
M  V30 547 H 49.3712 3.91072 -0.886789 0
M  V30 548 H 45.9612 3.62223 -2.29113 0
M  V30 549 H 50.1452 3.73779 -3.26501 0
M  V30 550 H 45.4012 3.95653 -4.66121 0
M  V30 551 H 49.5752 4.08482 -5.64017 0
M  V30 552 H 47.2022 4.19027 -6.34288 0
M  V30 553 N 48.7773 0.814389 1.34928 0
M  V30 554 C 50.0233 0.399013 1.98836 0
M  V30 555 C 50.3563 -1.03314 1.64438 0
M  V30 556 O 49.6313 -1.71811 0.911659 0
M  V30 557 C 49.9143 0.591629 3.55207 0
M  V30 558 C 49.7673 2.06928 3.99376 0
M  V30 559 C 51.0863 0.022199 4.40094 0
M  V30 560 H 48.2053 0.146451 0.722303 0
M  V30 561 H 50.8473 1.02537 1.59957 0
M  V30 562 H 48.9973 0.0584441 3.88456 0
M  V30 563 H 50.6693 2.66544 3.76499 0
M  V30 564 H 48.9123 2.56287 3.49999 0
M  V30 565 H 49.5833 2.1549 5.08201 0
M  V30 566 H 52.0593 0.477643 4.13349 0
M  V30 567 H 50.9353 0.186832 5.48582 0
M  V30 568 H 51.1963 -1.07215 4.28902 0
M  V30 569 N 50.2554 -1.46986 0.568584 0
M  V30 570 C 51.4804 -2.07335 0.0520528 0
M  V30 571 C 51.9054 -1.41675 -1.23733 0
M  V30 572 O 51.2634 -0.495623 -1.74394 0
M  V30 573 C 51.3114 -3.60417 -0.11501 0
M  V30 574 O 50.4154 -3.95309 -1.17492 0
M  V30 575 H 49.7564 -0.661597 0.0564385 0
M  V30 576 H 52.2864 -1.88837 0.787507 0
M  V30 577 H 52.2964 -4.06698 -0.325644 0
M  V30 578 H 50.9714 -4.07601 0.826675 0
M  V30 579 H 49.5484 -3.60757 -0.943869 0
M  V30 580 N 51.7335 -0.305618 -1.54608 0
M  V30 581 C 52.6435 0.57778 -2.27374 0
M  V30 582 C 53.6595 1.14451 -1.31061 0
M  V30 583 O 54.8355 1.16831 -1.6405 0
M  V30 584 C 51.9005 1.73123 -3.00382 0
M  V30 585 C 50.9615 1.19812 -4.12242 0
M  V30 586 C 50.1945 2.2966 -4.81759 0
M  V30 587 O 50.4175 3.49651 -4.50666 0
M  V30 588 O 49.3515 1.96091 -5.69062 0
M  V30 589 H 53.1775 -0.012624 -3.03697 0
M  V30 590 H 50.7625 -0.0719184 -1.49227 0
M  V30 591 H 52.6445 2.40315 -3.4616 0
M  V30 592 H 51.3195 2.30815 -2.26949 0
M  V30 593 H 50.2265 0.491798 -3.70853 0
M  V30 594 H 51.5595 0.666566 -4.87666 0
M  V30 595 N 53.2116 1.57565 -0.0334293 0
M  V30 596 C 54.4366 1.96689 0.657895 0
M  V30 597 C 54.8616 0.910057 1.64619 0
M  V30 598 O 54.2196 -0.128598 1.80843 0
M  V30 599 C 54.2676 3.34905 1.33683 0
M  V30 600 O 53.3716 3.31574 2.45219 0
M  V30 601 H 52.7126 0.641205 0.172489 0
M  V30 602 H 55.2426 2.04372 -0.0965621 0
M  V30 603 H 55.2526 3.71234 1.69262 0
M  V30 604 H 53.9276 4.11366 0.612411 0
M  V30 605 H 52.5046 3.06968 2.11719 0
M  V30 606 N 54.6897 -0.239769 1.55765 0
M  V30 607 C 55.9357 -0.968234 1.78194 0
M  V30 608 C 56.2687 -1.84701 0.599938 0
M  V30 609 O 55.5437 -1.9031 -0.401524 0
M  V30 610 C 55.8267 -1.8227 3.10564 0
M  V30 611 C 55.6797 -0.971633 4.3918 0
M  V30 612 C 56.9987 -2.80388 3.39221 0
M  V30 613 H 54.1177 -0.350572 0.648281 0
M  V30 614 H 56.7597 -0.238259 1.885 0
M  V30 615 H 54.9097 -2.44507 3.01908 0
M  V30 616 H 56.5817 -0.367408 4.59835 0
M  V30 617 H 54.8247 -0.276276 4.32919 0
M  V30 618 H 55.4957 -1.60346 5.28198 0
M  V30 619 H 57.9717 -2.28287 3.47885 0
M  V30 620 H 56.8477 -3.3729 4.33044 0
M  V30 621 H 57.1087 -3.57212 2.60484 0
M  V30 622 N 56.1678 -1.49265 -0.50573 0
M  V30 623 C 57.3928 -1.62478 -1.28902 0
M  V30 624 C 57.8178 -0.294332 -1.85783 0
M  V30 625 O 57.1758 0.737412 -1.65626 0
M  V30 626 C 57.2238 -2.69268 -2.39848 0
M  V30 627 O 56.3278 -2.28113 -3.43567 0
M  V30 628 H 55.6688 -0.54399 -0.380751 0
M  V30 629 H 58.1988 -1.95421 -0.605952 0
M  V30 630 H 58.2088 -2.91291 -2.85681 0
M  V30 631 H 56.8838 -3.65846 -1.97812 0
M  V30 632 H 55.4608 -2.16401 -3.03685 0
M  V30 633 N 57.6459 0.756429 -1.3826 0
M  V30 634 C 58.6089 1.85176 -1.35065 0
M  V30 635 C 59.6089 1.58818 -0.251703 0
M  V30 636 O 60.7989 1.66615 -0.508433 0
M  V30 637 C 57.9309 3.22596 -1.10201 0
M  V30 638 H 59.1239 1.89417 -2.3251 0
M  V30 639 H 56.6769 0.95783 -1.23512 0
M  V30 640 H 57.4119 3.24025 -0.133504 0
M  V30 641 H 57.1969 3.43122 -1.89762 0
M  V30 642 H 58.6869 4.02673 -1.10654 0
M  V30 643 N 59.124 1.23083 0.984299 0
M  V30 644 C 60.034 1.02515 2.11016 0
M  V30 645 C 61.05 -0.0291702 1.73976 0
M  V30 646 O 62.226 0.165434 2.00719 0
M  V30 647 C 59.291 0.614673 3.41208 0
M  V30 648 C 58.352 1.74359 3.92297 0
M  V30 649 C 57.585 1.35261 5.16275 0
M  V30 650 O 57.808 0.235136 5.69915 0
M  V30 651 O 56.742 2.17227 5.61334 0
M  V30 652 H 60.568 1.96862 2.31255 0
M  V30 653 H 58.153 1.01753 1.09392 0
M  V30 654 H 60.035 0.396518 4.1953 0
M  V30 655 H 58.71 -0.299851 3.22308 0
M  V30 656 H 57.617 2.01635 3.1511 0
M  V30 657 H 58.95 2.63629 4.15645 0
M  V30 658 N 60.6021 -1.18246 1.0419 0
M  V30 659 C 61.8301 -1.92195 0.766072 0
M  V30 660 C 62.2451 -1.76247 -0.676933 0
M  V30 661 O 61.6021 -1.09293 -1.46155 0
M  V30 662 C 61.6531 -3.43568 1.12442 0
M  V30 663 O 61.3741 -3.59015 2.51078 0
M  V30 664 C 62.8751 -4.34613 0.873275 0
M  V30 665 H 60.0951 -0.610114 0.279288 0
M  V30 666 H 62.6391 -1.50007 1.38989 0
M  V30 667 H 60.7941 -3.8354 0.545542 0
M  V30 668 H 61.2081 -4.5273 2.64831 0
M  V30 669 H 62.6821 -5.39374 1.17385 0
M  V30 670 H 63.1591 -4.38781 -0.191909 0
M  V30 671 H 63.7651 -4.00341 1.43551 0
M  V30 672 N 62.0802 -0.821533 -1.34494 0
M  V30 673 C 63.3262 -0.409552 -1.98622 0
M  V30 674 C 63.6592 1.0244 -1.64984 0
M  V30 675 O 62.9342 1.71325 -0.920758 0
M  V30 676 C 63.2172 -0.610458 -3.54888 0
M  V30 677 C 63.0702 -2.09043 -3.98273 0
M  V30 678 C 64.3892 -0.0455379 -4.40076 0
M  V30 679 H 61.5082 -0.15028 -0.721516 0
M  V30 680 H 64.1502 -1.03384 -1.59411 0
M  V30 681 H 62.3002 -0.079044 -3.8842 0
M  V30 682 H 63.9722 -2.68537 -3.75081 0
M  V30 683 H 62.2152 -2.58139 -3.48635 0
M  V30 684 H 62.8862 -2.18182 -5.07051 0
M  V30 685 H 65.3622 -0.499557 -4.1309 0
M  V30 686 H 64.2382 -0.215922 -5.48475 0
M  V30 687 H 64.4992 1.04939 -4.29465 0
M  V30 688 N 63.5583 1.46682 -0.576371 0
M  V30 689 C 64.4683 2.34032 0.163141 0
M  V30 690 C 65.4843 1.49367 0.892501 0
M  V30 691 O 66.6603 1.82252 0.857106 0
M  V30 692 C 63.7253 3.26435 1.16795 0
M  V30 693 C 62.7863 4.26998 0.443944 0
M  V30 694 C 62.0193 5.14986 1.40088 0
M  V30 695 O 62.2423 5.05785 2.637 0
M  V30 696 O 61.1763 5.94906 0.914917 0
M  V30 697 H 65.0023 2.98607 -0.55388 0
M  V30 698 H 62.5873 1.45554 -0.336821 0
M  V30 699 H 64.4693 3.83459 1.74748 0
M  V30 700 H 63.1443 2.64465 1.86655 0
M  V30 701 H 62.0513 3.7368 -0.177271 0
M  V30 702 H 63.3843 4.91736 -0.213566 0
M  V30 703 N 65.0364 0.313813 1.54444 0
M  V30 704 C 65.9834 -0.55655 2.23989 0
M  V30 705 C 66.9534 -1.11943 1.22711 0
M  V30 706 O 68.1384 -1.16158 1.51367 0
M  V30 707 C 65.2784 -1.71635 2.99392 0
M  V30 708 C 64.3914 -1.18364 4.15468 0
M  V30 709 C 63.5264 -2.30834 4.78424 0
M  V30 710 C 62.5654 -1.74762 5.86622 0
M  V30 711 N 61.7024 -2.80855 6.43479 0
M  V30 712 H 66.5424 0.0430893 2.97969 0
M  V30 713 H 64.0794 0.0330359 1.47063 0
M  V30 714 H 66.0374 -2.39868 3.41349 0
M  V30 715 H 64.6674 -2.28742 2.27765 0
M  V30 716 H 63.7194 -0.393163 3.78363 0
M  V30 717 H 65.0314 -0.733262 4.93381 0
M  V30 718 H 64.1854 -3.0699 5.23299 0
M  V30 719 H 62.9244 -2.79204 3.99871 0
M  V30 720 H 61.9294 -0.970995 5.41158 0
M  V30 721 H 63.1544 -1.2728 6.67066 0
M  V30 722 H 61.1004 -3.28535 5.67804 0
M  V30 723 H 61.0174 -2.40351 7.16776 0
M  V30 724 H 62.2854 -3.5687 6.93011 0
M  V30 725 N 66.5145 -1.57545 0.0417849 0
M  V30 726 C 67.7605 -1.93424 -0.629168 0
M  V30 727 C 68.1155 -0.919564 -1.69002 0
M  V30 728 O 67.4085 0.0626178 -1.91498 0
M  V30 729 C 67.6025 -3.33794 -1.27735 0
M  V30 730 C 67.4315 -4.48822 -0.280806 0
M  V30 731 C 66.2015 -5.05148 0.123869 0
M  V30 732 C 68.3995 -5.12148 0.470012 0
M  V30 733 N 66.3815 -6.03703 1.11426 0
M  V30 734 C 67.7525 -6.05921 1.31377 0
M  V30 735 C 69.8075 -4.95078 0.529343 0
M  V30 736 C 68.5105 -6.84459 2.21152 0
M  V30 737 C 70.5365 -5.74235 1.41448 0
M  V30 738 C 69.8985 -6.67634 2.24598 0
M  V30 739 H 65.9975 -0.755418 -0.202158 0
M  V30 740 H 68.5815 -1.94378 0.111923 0
M  V30 741 H 66.7525 -3.33635 -1.98852 0
M  V30 742 H 68.4845 -3.56988 -1.90635 0
M  V30 743 H 65.2395 -4.72923 -0.253178 0
M  V30 744 H 65.6635 -6.57674 1.60607 0
M  V30 745 H 70.3055 -4.22683 -0.0992798 0
M  V30 746 H 68.0235 -7.56151 2.85063 0
M  V30 747 H 71.6095 -5.63057 1.46484 0
M  V30 748 H 70.4895 -7.27817 2.9198 0
M  V30 749 N 67.9926 0.231505 -1.5589 0
M  V30 750 C 68.9226 1.29022 -1.94617 0
M  V30 751 C 69.9036 1.4941 -0.813067 0
M  V30 752 O 71.0886 1.6176 -1.07459 0
M  V30 753 C 68.2186 2.64199 -2.25424 0
M  V30 754 C 67.1726 2.58484 -3.41131 0
M  V30 755 C 66.4986 3.97599 -3.57518 0
M  V30 756 C 67.7986 2.1413 -4.76388 0
M  V30 757 H 69.4926 0.968563 -2.83301 0
M  V30 758 H 67.0386 0.464479 -1.36303 0
M  V30 759 H 68.9916 3.38413 -2.51107 0
M  V30 760 H 67.7156 2.98032 -1.33583 0
M  V30 761 H 66.3746 1.86727 -3.15481 0
M  V30 762 H 66.0226 4.28723 -2.6307 0
M  V30 763 H 65.7226 3.94659 -4.35337 0
M  V30 764 H 67.2466 4.7349 -3.85538 0
M  V30 765 H 68.6606 2.78083 -5.01341 0
M  V30 766 H 67.0576 2.2227 -5.57419 0
M  V30 767 H 68.1276 1.09331 -4.72414 0
M  V30 768 N 69.4707 1.49531 0.497807 0
M  V30 769 C 70.4177 1.66436 1.59899 0
M  V30 770 C 71.3877 0.505793 1.58212 0
M  V30 771 O 72.5727 0.733202 1.7615 0
M  V30 772 C 69.7127 1.7399 2.98029 0
M  V30 773 C 68.8257 3.01172 3.09708 0
M  V30 774 C 67.9607 2.99686 4.38591 0
M  V30 775 C 66.9997 4.21434 4.43914 0
M  V30 776 N 66.1367 4.1784 5.64229 0
M  V30 777 H 70.9767 2.60459 1.44793 0
M  V30 778 H 68.5137 1.29137 0.704423 0
M  V30 779 H 70.4717 1.76352 3.78095 0
M  V30 780 H 69.1017 0.834301 3.11832 0
M  V30 781 H 68.1537 3.08408 2.22685 0
M  V30 782 H 69.4657 3.91165 3.09502 0
M  V30 783 H 68.6197 3.00628 5.2698 0
M  V30 784 H 67.3587 2.07477 4.41367 0
M  V30 785 H 66.3637 4.20733 3.53926 0
M  V30 786 H 67.5887 5.14839 4.42851 0
M  V30 787 H 65.5347 3.28469 5.67841 0
M  V30 788 H 65.4517 5.01571 5.65652 0
M  V30 789 H 66.7197 4.22889 6.54817 0
M  V30 790 N 70.9488 -0.749086 1.3866 0
M  V30 791 C 72.3648 -1.05276 1.19955 0
M  V30 792 C 72.5648 -2.01435 0.05134 0
M  V30 793 O 71.6208 -2.45232 -0.60147 0
M  V30 794 C 72.9338 -1.62853 2.52783 0
M  V30 795 C 74.4818 -1.75002 2.59506 0
M  V30 796 C 74.9568 -2.35991 3.92521 0
M  V30 797 N 76.4478 -2.43416 3.94085 0
M  V30 798 C 77.1828 -2.91511 4.9377 0
M  V30 799 N 76.6788 -3.39608 6.03853 0
M  V30 800 N 78.4718 -2.90592 4.81157 0
M  V30 801 H 70.6228 -0.111066 2.12109 0
M  V30 802 H 72.8858 -0.111901 0.941373 0
M  V30 803 H 72.5918 -0.99664 3.37283 0
M  V30 804 H 72.4658 -2.61854 2.715 0
M  V30 805 H 74.8528 -2.37317 1.75398 0
M  V30 806 H 74.9338 -0.74693 2.44652 0
M  V30 807 H 74.5778 -1.74308 4.77053 0
M  V30 808 H 74.5078 -3.3695 4.04688 0
M  V30 809 H 76.9988 -2.09405 3.14576 0
M  V30 810 H 77.3118 -3.74775 6.75843 0
M  V30 811 H 75.6568 -3.37653 6.07466 0
M  V30 812 H 78.8478 -2.52332 3.94267 0
M  V30 813 H 79.0208 -3.27762 5.58996 0
M  V30 814 N 72.4269 -1.23603 -0.977757 0
M  V30 815 C 73.3739 -1.01954 -2.07061 0
M  V30 816 C 74.3439 0.0638697 -1.65977 0
M  V30 817 O 75.5289 -0.0887624 -1.90593 0
M  V30 818 C 72.6689 -0.619658 -3.39491 0
M  V30 819 C 71.7819 -1.77547 -3.93829 0
M  V30 820 C 70.9169 -1.32212 -5.14484 0
M  V30 821 C 69.9559 -2.44852 -5.60994 0
M  V30 822 N 69.0929 -2.00456 -6.72876 0
M  V30 823 H 73.9329 -1.95495 -2.24913 0
M  V30 824 H 71.4699 -0.973861 -1.10247 0
M  V30 825 H 73.4279 -0.368898 -4.15566 0
M  V30 826 H 72.0579 0.278752 -3.21594 0
M  V30 827 H 71.1099 -2.14016 -3.14486 0
M  V30 828 H 72.4219 -2.62219 -4.24314 0
M  V30 829 H 71.5759 -1.02965 -5.97899 0
M  V30 830 H 70.3149 -0.445808 -4.85658 0
M  V30 831 H 69.3199 -2.74871 -4.76157 0
M  V30 832 H 70.5449 -3.33024 -5.91837 0
M  V30 833 H 68.4909 -1.15208 -6.45804 0
M  V30 834 H 68.4079 -2.78687 -7.02759 0
M  V30 835 H 69.6759 -1.7432 -7.59758 0
M  V30 836 N 73.905 1.17692 -1.04816 0
M  V30 837 C 74.853 2.23632 -0.63966 0
M  V30 838 C 75.847 1.6601 0.337219 0
M  V30 839 O 77.053 1.78844 0.203693 0
M  V30 840 H 73.428 0.727949 -0.188665 0
M  V30 841 H 75.399 2.55387 -1.54337 0
M  V30 842 C 74.148 3.4769 -0.0264051 0
M  V30 843 H 73.471 3.92331 -0.769164 0
M  V30 844 H 74.911 4.23418 0.222098 0
M  V30 845 C 73.37 3.13807 1.22584 0
M  V30 846 O 73.9 3.28236 2.31569 0
M  V30 847 N 72.106 2.68065 1.12202 0
M  V30 848 H 71.653 2.56525 0.235133 0
M  V30 849 H 71.611 2.45767 1.96076 0
M  V30 850 N 75.3831 0.828654 1.34056 0
M  V30 851 C 76.3311 0.242973 2.31327 0
M  V30 852 C 77.3251 -0.61944 1.57668 0
M  V30 853 O 78.5311 -0.51014 1.7262 0
M  V30 854 H 74.9061 0.059834 0.749616 0
M  V30 855 H 76.8771 1.07809 2.78244 0
M  V30 856 C 75.6261 -0.575733 3.429 0
M  V30 857 H 74.9491 0.0785582 3.99723 0
M  V30 858 H 76.3891 -0.951547 4.13185 0
M  V30 859 C 74.8481 -1.75044 2.87856 0
M  V30 860 O 75.3781 -2.84882 2.83205 0
M  V30 861 N 73.5841 -1.56903 2.44602 0
M  V30 862 H 73.1311 -0.675547 2.48584 0
M  V30 863 H 73.0891 -2.35652 2.08124 0
M  V30 864 N 76.8612 -1.46375 0.584142 0
M  V30 865 C 77.8082 -2.30323 -0.148286 0
M  V30 866 C 78.7782 -1.40703 -0.882713 0
M  V30 867 O 79.9632 -1.69651 -0.873099 0
M  V30 868 C 77.1032 -3.25196 -1.15507 0
M  V30 869 C 76.2162 -4.29915 -0.423943 0
M  V30 870 C 75.3512 -5.11914 -1.41838 0
M  V30 871 C 74.3902 -6.08381 -0.673736 0
M  V30 872 N 73.5272 -6.83242 -1.6163 0
M  V30 873 H 78.3672 -2.92427 0.573644 0
M  V30 874 H 75.9042 -1.44118 0.294703 0
M  V30 875 H 77.8622 -3.78646 -1.75166 0
M  V30 876 H 76.4922 -2.64898 -1.8447 0
M  V30 877 H 75.5442 -3.7931 0.287714 0
M  V30 878 H 76.8562 -4.98549 0.158128 0
M  V30 879 H 76.0102 -5.69648 -2.08773 0
M  V30 880 H 74.7492 -4.43243 -2.03438 0
M  V30 881 H 73.7542 -5.49799 0.00938483 0
M  V30 882 H 74.9792 -6.79071 -0.0631082 0
M  V30 883 H 72.9252 -6.1728 -2.22038 0
M  V30 884 H 72.8422 -7.48144 -1.08707 0
M  V30 885 H 74.1102 -7.45534 -2.27596 0
M  V30 886 N 78.3393 -0.321999 -1.54275 0
M  V30 887 C 79.5643 0.285791 -2.05422 0
M  V30 888 C 79.9893 1.45124 -1.19669 0
M  V30 889 O 79.3473 1.80132 -0.205441 0
M  V30 890 C 79.3953 0.69956 -3.53749 0
M  V30 891 O 78.4993 1.8021 -3.70942 0
M  V30 892 H 77.8403 0.0518962 -0.661969 0
M  V30 893 H 80.3703 -0.469954 -1.9913 0
M  V30 894 H 80.3803 0.982649 -3.9599 0
M  V30 895 H 79.0553 -0.152864 -4.15619 0
M  V30 896 H 77.6323 1.51794 -3.40607 0
M  V30 897 N 79.8174 1.5752 -0.0501392 0
M  V30 898 C 80.7274 2.14952 0.939827 0
M  V30 899 C 81.7434 1.10706 1.34239 0
M  V30 900 O 82.9194 1.42869 1.41952 0
M  V30 901 C 79.9844 2.68232 2.19665 0
M  V30 902 C 79.0454 3.87272 1.85253 0
M  V30 903 C 78.2784 4.38002 3.04943 0
M  V30 904 O 78.5014 3.87811 4.18281 0
M  V30 905 O 77.4354 5.29602 2.86017 0
M  V30 906 H 81.2614 2.9986 0.481392 0
M  V30 907 H 78.8464 1.4841 0.171699 0
M  V30 908 H 80.7284 3.02475 2.93406 0
M  V30 909 H 79.4034 1.86395 2.64648 0
M  V30 910 H 78.3104 3.5792 1.0883 0
M  V30 911 H 79.6434 4.70336 1.4507 0
M  V30 912 N 81.2955 -0.223234 1.56011 0
M  V30 913 C 82.5725 -0.972108 1.69733 0
M  V30 914 C 82.9525 -2.02485 0.59691 0
M  V30 915 O 82.3005 -2.25037 -0.396324 0
M  V30 916 C 82.5105 -1.58407 3.10979 0
M  V30 917 C 83.8585 -2.07696 3.70334 0
M  V30 918 O 84.8825 -1.68304 3.1393 0
M  V30 919 O 83.7415 -2.80096 4.69264 0
M  V30 920 H 80.8355 -0.453993 0.691245 0
M  V30 921 H 83.3815 -0.215149 1.68331 0
M  V30 922 H 82.1535 -0.823831 3.82529 0
M  V30 923 H 81.7765 -2.40661 3.16493 0
M  V30 924 N 82.7736 -1.49793 -0.48987 0
M  V30 925 C 83.6836 -1.70036 -1.61632 0
M  V30 926 C 84.6996 -0.583102 -1.63939 0
M  V30 927 O 85.8756 -0.859169 -1.82154 0
M  V30 928 C 82.9406 -1.77277 -2.97949 0
M  V30 929 C 82.0016 -3.00918 -3.06181 0
M  V30 930 C 81.2346 -3.07804 -4.35996 0
M  V30 931 O 81.4576 -2.21982 -5.25433 0
M  V30 932 O 80.3916 -4.00369 -4.49431 0
M  V30 933 H 84.2176 -2.65486 -1.47482 0
M  V30 934 H 81.8026 -1.33666 -0.667362 0
M  V30 935 H 83.6846 -1.84329 -3.78947 0
M  V30 936 H 82.3596 -0.850076 -3.12339 0
M  V30 937 H 81.2666 -2.99377 -2.2433 0
M  V30 938 H 82.5996 -3.92704 -2.96723 0
M  V30 939 N 84.2517 0.741722 -1.39055 0
M  V30 940 C 85.4767 1.53607 -1.39354 0
M  V30 941 C 85.9017 1.88096 0.0116905 0
M  V30 942 O 85.2597 1.5143 0.996924 0
M  V30 943 C 85.3077 2.80441 -2.26682 0
M  V30 944 O 84.4117 3.76088 -1.69208 0
M  V30 945 H 83.7527 0.464142 -0.474835 0
M  V30 946 H 86.2827 0.915665 -1.82967 0
M  V30 947 H 86.2927 3.29246 -2.40959 0
M  V30 948 H 84.9677 2.5467 -3.2881 0
M  V30 949 H 83.5447 3.34833 -1.64138 0
M  V30 950 N 85.7298 1.2412 0.971189 0
M  V30 951 C 86.6928 1.03156 2.04674 0
M  V30 952 C 87.6928 -0.00990322 1.60797 0
M  V30 953 O 88.8828 0.230729 1.72665 0
M  V30 954 C 86.0148 0.562765 3.36223 0
M  V30 955 H 87.2078 1.98614 2.24705 0
M  V30 956 H 84.7608 1.06293 1.14593 0
M  V30 957 H 85.4958 -0.395176 3.21883 0
M  V30 958 H 85.2808 1.31441 3.69413 0
M  V30 959 H 86.7708 0.437015 4.15307 0
M  V30 960 N 87.2079 -1.17134 1.05439 0
M  V30 961 C 88.6189 -1.69084 0.791676 0
M  V30 962 C 88.9699 -1.83822 -0.685839 0
M  V30 963 O 88.0949 -1.52757 -1.53278 0
M  V30 964 C 88.6899 -3.07119 1.4305 0
M  V30 965 C 87.2489 -3.56225 1.21577 0
M  V30 966 C 86.3959 -2.32421 1.51247 0
M  V30 967 H 89.3469 -1.01617 1.219 0
M  V30 968 H 89.3679 -3.71087 0.84112 0
M  V30 969 H 88.8799 -2.9636 2.50584 0
M  V30 970 H 86.9809 -3.72257 0.159787 0
M  V30 971 H 87.0939 -4.38837 1.92246 0
M  V30 972 H 85.4579 -2.3701 0.932653 0
M  V30 973 H 86.2409 -2.24268 2.5992 0
M  V30 974 N 88.686 -0.835752 -1.33615 0
M  V30 975 C 89.633 -0.26473 -2.29277 0
M  V30 976 C 90.603 0.617712 -1.54187 0
M  V30 977 O 91.788 0.556641 -1.825 0
M  V30 978 C 88.928 0.556777 -3.40579 0
M  V30 979 C 88.041 -0.349339 -4.30585 0
M  V30 980 C 87.176 0.482969 -5.29 0
M  V30 981 C 86.215 -0.421732 -6.10645 0
M  V30 982 N 85.352 0.372262 -7.01112 0
M  V30 983 H 90.192 -1.08582 -2.77514 0
M  V30 984 H 87.729 -0.546927 -1.36554 0
M  V30 985 H 89.687 1.04852 -4.03809 0
M  V30 986 H 88.317 1.34286 -2.93542 0
M  V30 987 H 87.369 -0.959372 -3.68104 0
M  V30 988 H 88.681 -1.04445 -4.87742 0
M  V30 989 H 87.835 1.03866 -5.97743 0
M  V30 990 H 86.574 1.21153 -4.72412 0
M  V30 991 H 85.579 -0.989464 -5.40823 0
M  V30 992 H 86.804 -1.14861 -6.69316 0
M  V30 993 H 84.75 1.08426 -6.46977 0
M  V30 994 H 84.667 -0.264198 -7.55538 0
M  V30 995 H 85.935 0.910293 -7.74167 0
M  V30 996 N 90.1641 1.46063 -0.591896 0
M  V30 997 C 91.0741 2.34192 0.13831 0
M  V30 998 C 92.0901 1.50305 0.876608 0
M  V30 999 O 93.2661 1.8315 0.837728 0
M  V30 1000 C 90.3311 3.27656 1.13326 0
M  V30 1001 C 89.3921 4.27445 0.39863 0
M  V30 1002 C 88.6251 5.16443 1.34618 0
M  V30 1003 O 88.8481 5.08553 2.58321 0
M  V30 1004 O 87.7821 5.95843 0.851768 0
M  V30 1005 H 91.6081 2.98002 -0.58552 0
M  V30 1006 H 89.1931 1.45188 -0.352239 0
M  V30 1007 H 91.0751 3.85291 1.70671 0
M  V30 1008 H 89.7501 2.6643 1.83839 0
M  V30 1009 H 88.6571 3.73471 -0.216895 0
M  V30 1010 H 89.9901 4.91482 -0.265709 0
M  V30 1011 N 91.6422 0.330177 1.54103 0
M  V30 1012 C 92.8882 -0.270806 2.00984 0
M  V30 1013 C 93.2212 -1.51265 1.21789 0
M  V30 1014 O 92.4962 -1.92142 0.301927 0
M  V30 1015 C 92.7792 -0.598339 3.55094 0
M  V30 1016 C 92.6322 0.654674 4.4501 0
M  V30 1017 C 93.9512 -1.41334 4.16789 0
M  V30 1018 H 91.0702 -0.0969531 0.730595 0
M  V30 1019 H 93.7122 0.448066 1.84641 0
M  V30 1020 H 91.8622 -1.21078 3.69151 0
M  V30 1021 H 93.5342 1.29285 4.42813 0
M  V30 1022 H 91.7772 1.28224 4.14416 0
M  V30 1023 H 92.4482 0.380944 5.50684 0
M  V30 1024 H 94.9242 -0.895597 4.06347 0
M  V30 1025 H 93.8002 -1.61127 5.24718 0
M  V30 1026 H 94.0612 -2.41146 3.70541 0
M  V30 1027 N 93.1203 -1.57491 0.0584922 0
M  V30 1028 C 94.3453 -1.97711 -0.62652 0
M  V30 1029 C 94.7703 -0.936132 -1.63151 0
M  V30 1030 O 94.1283 0.099811 -1.81025 0
M  V30 1031 C 94.1763 -3.36989 -1.28338 0
M  V30 1032 O 93.2803 -3.35433 -2.39913 0
M  V30 1033 H 92.6213 -0.643868 -0.162266 0
M  V30 1034 H 95.1513 -2.04193 0.129064 0
M  V30 1035 H 95.1613 -3.73879 -1.63335 0
M  V30 1036 H 93.8363 -4.12289 -0.546889 0
M  V30 1037 H 92.4133 -3.10298 -2.06809 0
M  V30 1038 N 94.5984 0.214957 -1.56127 0
M  V30 1039 C 96.0144 0.564948 -1.49267 0
M  V30 1040 C 96.2144 1.86827 -0.754838 0
M  V30 1041 O 95.2704 2.50745 -0.297198 0
M  V30 1042 C 96.5834 0.638071 -2.93852 0
M  V30 1043 C 98.1314 0.728253 -3.0441 0
M  V30 1044 C 98.6064 0.832663 -4.50367 0
M  V30 1045 N 100.097 0.896712 -4.54437 0
M  V30 1046 C 100.832 0.997324 -5.6466 0
M  V30 1047 N 100.328 1.06147 -6.8462 0
M  V30 1048 N 102.121 1.03297 -5.52527 0
M  V30 1049 H 94.2724 -0.640211 -2.02522 0
M  V30 1050 H 96.5354 -0.225507 -0.920788 0
M  V30 1051 H 96.2414 -0.250126 -3.50809 0
M  V30 1052 H 96.1154 1.49947 -3.46115 0
M  V30 1053 H 98.5024 1.60689 -2.47514 0
M  V30 1054 H 98.5834 -0.158952 -2.55306 0
M  V30 1055 H 98.2274 -0.0415417 -5.07883 0
M  V30 1056 H 98.1574 1.73538 -4.97184 0
M  V30 1057 H 100.648 0.857188 -3.6805 0
M  V30 1058 H 100.961 1.1382 -7.64372 0
M  V30 1059 H 99.3064 1.03049 -6.87318 0
M  V30 1060 H 102.497 0.979558 -4.57736 0
M  V30 1061 H 102.67 1.10793 -6.38458 0
M  V30 1062 N 96.0765 1.50051 0.48192 0
M  V30 1063 C 97.3065 1.63999 1.2565 0
M  V30 1064 C 97.7145 0.318288 1.86504 0
M  V30 1065 O 97.0575 -0.708534 1.69486 0
M  V30 1066 C 97.1195 2.66504 2.4128 0
M  V30 1067 C 96.7835 4.10352 2.01148 0
M  V30 1068 C 97.7805 4.96562 1.54021 0
M  V30 1069 C 95.4655 4.56203 2.10199 0
M  V30 1070 C 97.4595 6.26668 1.16473 0
M  V30 1071 C 95.1465 5.86318 1.72264 0
M  V30 1072 C 96.1445 6.71375 1.25477 0
M  V30 1073 O 95.8325 7.99062 0.880626 0
M  V30 1074 H 95.5645 0.55456 0.386574 0
M  V30 1075 H 98.1185 1.96954 0.582944 0
M  V30 1076 H 96.3485 2.28769 3.11772 0
M  V30 1077 H 98.0375 2.69783 3.03268 0
M  V30 1078 H 98.8035 4.62358 1.46458 0
M  V30 1079 H 94.6825 3.90152 2.45566 0
M  V30 1080 H 98.2265 6.93011 0.798841 0
M  V30 1081 H 94.1235 6.20046 1.79482 0
M  V30 1082 H 94.8915 8.12239 1.01043 0
M  V30 1083 N 97.5546 -0.734337 1.39446 0
M  V30 1084 C 98.4866 -1.85861 1.34121 0
M  V30 1085 C 99.4996 -1.60871 0.249864 0
M  V30 1086 O 100.689 -1.71093 0.508865 0
M  V30 1087 C 97.7886 -3.21899 1.05991 0
M  V30 1088 C 96.9616 -3.74239 2.26415 0
M  V30 1089 C 96.0206 -4.88841 1.94733 0
M  V30 1090 O 95.0466 -5.02468 2.67422 0
M  V30 1091 N 96.2486 -5.73261 0.913884 0
M  V30 1092 H 99.0136 -1.90934 2.31007 0
M  V30 1093 H 96.5746 -0.915102 1.33557 0
M  V30 1094 H 98.5666 -3.96136 0.828147 0
M  V30 1095 H 97.1366 -3.12091 0.178361 0
M  V30 1096 H 96.3566 -2.91347 2.65539 0
M  V30 1097 H 97.6446 -4.05942 3.06738 0
M  V30 1098 H 97.0426 -5.64842 0.311476 0
M  V30 1099 H 95.5996 -6.47563 0.742015 0
M  V30 1100 N 99.0327 -1.24633 -0.964593 0
M  V30 1101 C 100.31 -0.995809 -1.68354 0
M  V30 1102 C 100.69 0.480964 -2.05548 0
M  V30 1103 O 100.038 1.45599 -1.76105 0
M  V30 1104 C 100.248 -1.92177 -2.91323 0
M  V30 1105 C 101.596 -2.19446 -3.63495 0
M  V30 1106 O 102.62 -1.89855 -3.01386 0
M  V30 1107 O 101.479 -2.69714 -4.75307 0
M  V30 1108 H 98.5727 -0.376854 -0.736146 0
M  V30 1109 H 101.119 -1.35745 -1.0184 0
M  V30 1110 H 99.8907 -2.91938 -2.60553 0
M  V30 1111 H 99.5137 -1.56349 -3.65569 0
M  V30 1112 N 100.511 1.16574 -1.06058 0
M  V30 1113 C 101.739 1.90952 -0.796552 0
M  V30 1114 C 102.154 1.77302 0.648808 0
M  V30 1115 O 101.511 1.11605 1.44397 0
M  V30 1116 C 101.562 3.41736 -1.17894 0
M  V30 1117 O 101.283 3.54975 -2.56758 0
M  V30 1118 C 102.784 4.33169 -0.942308 0
M  V30 1119 H 100.004 0.605594 -0.288959 0
M  V30 1120 H 102.548 1.47777 -1.41358 0
M  V30 1121 H 100.703 3.82623 -0.606491 0
M  V30 1122 H 101.117 4.4846 -2.72 0
M  V30 1123 H 102.591 5.37439 -1.25952 0
M  V30 1124 H 103.068 4.3903 0.122078 0
M  V30 1125 H 103.674 3.98007 -1.49902 0
M  V30 1126 N 101.989 0.842826 1.3317 0
M  V30 1127 C 102.937 0.267495 2.31057 0
M  V30 1128 C 103.931 -0.602682 1.58316 0
M  V30 1129 O 105.137 -0.491803 1.73151 0
M  V30 1130 H 101.512 0.0677813 0.748939 0
M  V30 1131 H 103.483 1.10754 2.77085 0
M  V30 1132 C 102.232 -0.539331 3.43492 0
M  V30 1133 H 101.555 0.12095 3.99617 0
M  V30 1134 H 102.995 -0.90767 4.14171 0
M  V30 1135 C 101.454 -1.71981 2.89697 0
M  V30 1136 O 101.984 -2.81862 2.86211 0
M  V30 1137 N 100.19 -1.54299 2.46252 0
M  V30 1138 H 99.7369 -0.649143 2.49287 0
M  V30 1139 H 99.6949 -2.33431 2.10612 0
M  V30 1140 N 103.467 -1.45747 0.599634 0
M  V30 1141 C 104.4 -2.27547 -0.172552 0
M  V30 1142 C 105.378 -1.36657 -0.881116 0
M  V30 1143 O 106.562 -1.66081 -0.891595 0
M  V30 1144 C 103.689 -3.14829 -1.24903 0
M  V30 1145 C 102.735 -4.21603 -0.644465 0
M  V30 1146 S 103.568 -5.32754 0.541606 0
M  V30 1147 C 104.724 -6.23604 -0.535656 0
M  V30 1148 H 104.957 -2.92691 0.521468 0
M  V30 1149 H 102.49 -1.49473 0.386947 0
M  V30 1150 H 104.448 -3.65675 -1.86527 0
M  V30 1151 H 103.109 -2.48965 -1.91508 0
M  V30 1152 H 102.302 -4.82566 -1.45417 0
M  V30 1153 H 101.904 -3.73857 -0.103534 0
M  V30 1154 H 104.196 -6.62519 -1.41686 0
M  V30 1155 H 105.139 -7.0809 0.0376246 0
M  V30 1156 H 105.547 -5.58103 -0.84741 0
M  V30 1157 N 104.945 -0.338344 -1.53925 0
M  V30 1158 C 105.877 0.555117 -2.22376 0
M  V30 1159 C 106.89 1.06812 -1.22862 0
M  V30 1160 O 108.079 0.979163 -1.49247 0
M  V30 1161 C 105.179 1.77609 -2.88631 0
M  V30 1162 C 104.352 1.39927 -4.14414 0
M  V30 1163 C 103.411 2.47936 -4.64127 0
M  V30 1164 O 102.437 2.11461 -5.28463 0
M  V30 1165 N 103.639 3.79107 -4.39612 0
M  V30 1166 H 106.404 -0.0310778 -2.99684 0
M  V30 1167 H 103.965 -0.162226 -1.61085 0
M  V30 1168 H 105.957 2.49287 -3.18807 0
M  V30 1169 H 104.527 2.26978 -2.14941 0
M  V30 1170 H 103.747 0.513481 -3.90841 0
M  V30 1171 H 105.035 1.12341 -4.96243 0
M  V30 1172 H 104.433 4.11531 -3.88148 0
M  V30 1173 H 102.99 4.4697 -4.74406 0
M  V30 1174 N 106.423 1.57458 -0.0668435 0
M  V30 1175 C 107.671 1.92919 0.602214 0
M  V30 1176 C 107.992 0.947215 1.70449 0
M  V30 1177 O 107.262 -0.00544117 1.95899 0
M  V30 1178 H 105.842 0.71217 0.22544 0
M  V30 1179 H 108.504 1.94508 -0.123535 0
M  V30 1180 H 107.6 2.94589 1.03073 0
M  V30 1181 N 107.901 -0.206675 1.56239 0
M  V30 1182 C 109.147 -0.930218 1.80208 0
M  V30 1183 C 109.48 -1.83387 0.638981 0
M  V30 1184 O 108.755 -1.91119 -0.361066 0
M  V30 1185 C 109.038 -1.75641 3.1436 0
M  V30 1186 C 108.891 -0.878257 4.41142 0
M  V30 1187 C 110.21 -2.73129 3.45092 0
M  V30 1188 H 107.329 -0.336742 0.655571 0
M  V30 1189 H 109.971 -0.198222 1.88963 0
M  V30 1190 H 108.121 -2.38048 3.07027 0
M  V30 1191 H 109.793 -0.269787 4.6051 0
M  V30 1192 H 108.036 -0.184385 4.33408 0
M  V30 1193 H 108.707 -1.49106 5.3148 0
M  V30 1194 H 111.183 -2.20856 3.52649 0
M  V30 1195 H 110.059 -3.28028 4.40101 0
M  V30 1196 H 110.32 -3.51606 2.68003 0
M  V30 1197 N 109.379 -1.50304 -0.473955 0
M  V30 1198 C 110.625 -1.61389 -1.22806 0
M  V30 1199 C 110.958 -0.311955 -1.91678 0
M  V30 1200 O 110.233 0.686384 -1.81986 0
M  V30 1201 C 110.516 -2.79219 -2.27396 0
M  V30 1202 C 110.369 -4.19286 -1.62848 0
M  V30 1203 C 111.688 -2.92614 -3.28732 0
M  V30 1204 H 108.807 -0.587399 -0.445119 0
M  V30 1205 H 111.449 -1.82681 -0.522265 0
M  V30 1206 H 109.599 -2.61195 -2.87592 0
M  V30 1207 H 111.271 -4.48892 -1.06271 0
M  V30 1208 H 109.514 -4.23677 -0.931693 0
M  V30 1209 H 110.185 -4.97655 -2.38838 0
M  V30 1210 H 112.661 -3.09105 -2.78556 0
M  V30 1211 H 111.537 -3.76688 -3.99246 0
M  V30 1212 H 111.798 -2.03107 -3.92683 0
M  V30 1213 N 110.857 0.726932 -1.39834 0
M  V30 1214 C 112.087 1.51393 -1.40583 0
M  V30 1215 C 112.495 1.892 -0.000740625 0
M  V30 1216 O 111.838 1.55189 0.982951 0
M  V30 1217 C 111.9 2.82588 -2.22226 0
M  V30 1218 C 111.564 2.67169 -3.70769 0
M  V30 1219 C 112.561 2.3518 -4.63666 0
M  V30 1220 C 110.246 2.83788 -4.14451 0
M  V30 1221 C 112.24 2.20002 -5.98229 0
M  V30 1222 C 109.927 2.68229 -5.49087 0
M  V30 1223 C 110.925 2.36382 -6.4079 0
M  V30 1224 O 110.613 2.2093 -7.72946 0
M  V30 1225 H 110.345 0.474168 -0.48181 0
M  V30 1226 H 112.899 0.905247 -1.84376 0
M  V30 1227 H 111.129 3.45746 -1.73195 0
M  V30 1228 H 112.818 3.44247 -2.15055 0
M  V30 1229 H 113.584 2.21984 -4.31217 0
M  V30 1230 H 109.463 3.07566 -3.43401 0
M  V30 1231 H 113.007 1.95067 -6.69772 0
M  V30 1232 H 108.904 2.81006 -5.81125 0
M  V30 1233 H 109.672 2.35937 -7.83757 0
M  V30 1234 N 112.336 1.25143 0.95797 0
M  V30 1235 C 113.246 1.06968 2.08794 0
M  V30 1236 C 114.262 0.00773911 1.73998 0
M  V30 1237 O 115.438 0.207972 2.00323 0
M  V30 1238 C 112.503 0.68691 3.39827 0
M  V30 1239 C 111.564 1.82641 3.88511 0
M  V30 1240 C 110.797 1.46181 5.1329 0
M  V30 1241 O 111.02 0.355971 5.69288 0
M  V30 1242 O 109.954 2.29085 5.566 0
M  V30 1243 H 113.78 2.01723 2.27027 0
M  V30 1244 H 111.365 1.04051 1.07209 0
M  V30 1245 H 113.247 0.485417 4.18595 0
M  V30 1246 H 111.922 -0.231417 3.22872 0
M  V30 1247 H 110.829 2.08274 3.10762 0
M  V30 1248 H 112.162 2.72386 4.09959 0
M  V30 1249 N 113.814 -1.1601 1.06675 0
M  V30 1250 C 114.744 -2.22688 0.702307 0
M  V30 1251 C 115.725 -1.67306 -0.307032 0
M  V30 1252 O 116.91 -1.93352 -0.181305 0
M  V30 1253 C 114.04 -3.47178 0.092038 0
M  V30 1254 C 112.994 -4.15477 1.02777 0
M  V30 1255 C 112.32 -5.33963 0.28061 0
M  V30 1256 C 113.62 -4.66019 2.35846 0
M  V30 1257 H 115.314 -2.53429 1.59419 0
M  V30 1258 H 112.86 -1.21813 0.767961 0
M  V30 1259 H 114.813 -4.21037 -0.174814 0
M  V30 1260 H 113.537 -3.15749 -0.834877 0
M  V30 1261 H 112.196 -3.43549 1.27944 0
M  V30 1262 H 111.844 -4.98788 -0.649545 0
M  V30 1263 H 111.544 -5.806 0.904258 0
M  V30 1264 H 113.068 -6.10596 0.021396 0
M  V30 1265 H 114.482 -5.3144 2.15045 0
M  V30 1266 H 112.879 -5.23293 2.93743 0
M  V30 1267 H 113.949 -3.82023 2.98641 0
M  V30 1268 N 115.292 -0.849877 -1.32721 0
M  V30 1269 C 116.24 -0.279745 -2.30912 0
M  V30 1270 C 117.234 0.594278 -1.58634 0
M  V30 1271 O 118.44 0.482613 -1.73409 0
M  V30 1272 H 114.815 -0.0717521 -0.748569 0
M  V30 1273 H 116.786 -1.12222 -2.76494 0
M  V30 1274 C 115.535 0.521108 -3.43773 0
M  V30 1275 H 114.858 -0.142141 -3.99547 0
M  V30 1276 H 116.298 0.885693 -4.14646 0
M  V30 1277 C 114.757 1.70442 -2.90605 0
M  V30 1278 O 115.287 2.8034 -2.87702 0
M  V30 1279 N 113.493 1.52991 -2.47067 0
M  V30 1280 H 113.04 0.635914 -2.49628 0
M  V30 1281 H 112.998 2.32311 -2.11847 0
M  V30 1282 N 116.77 1.45427 -0.607355 0
M  V30 1283 C 117.995 2.07124 -0.107006 0
M  V30 1284 C 118.42 1.44906 1.19933 0
M  V30 1285 O 117.778 0.541687 1.73019 0
M  V30 1286 C 117.826 3.60595 0.0194119 0
M  V30 1287 O 116.93 3.98285 1.0697 0
M  V30 1288 H 116.271 0.659868 -0.0739597 0
M  V30 1289 H 118.801 1.86683 -0.837297 0
M  V30 1290 H 118.811 4.07419 0.2177 0
M  V30 1291 H 117.486 4.05266 -0.934453 0
M  V30 1292 H 116.063 3.63133 0.847889 0
M  V30 1293 N 118.248 0.346503 1.53744 0
M  V30 1294 C 119.478 -0.250047 2.05081 0
M  V30 1295 C 119.886 -1.44529 1.22098 0
M  V30 1296 O 119.229 -1.81992 0.249917 0
M  V30 1297 C 119.291 -0.725934 3.52094 0
M  V30 1298 C 118.955 0.350053 4.55657 0
M  V30 1299 C 119.952 1.19372 5.0601 0
M  V30 1300 C 117.637 0.504827 4.99757 0
M  V30 1301 C 119.631 2.17768 5.99046 0
M  V30 1302 C 117.318 1.49218 5.92602 0
M  V30 1303 C 118.316 2.32706 6.42135 0
M  V30 1304 O 118.004 3.2976 7.33153 0
M  V30 1305 H 117.736 -0.0515469 0.674032 0
M  V30 1306 H 120.29 0.497559 1.99282 0
M  V30 1307 H 118.52 -1.52483 3.55367 0
M  V30 1308 H 120.209 -1.24336 3.86388 0
M  V30 1309 H 120.975 1.08525 4.72702 0
M  V30 1310 H 116.854 -0.135178 4.60802 0
M  V30 1311 H 120.398 2.82971 6.37631 0
M  V30 1312 H 116.295 1.6012 6.25325 0
M  V30 1313 H 117.063 3.25265 7.51096 0
M  V30 1314 N 119.726 -1.57421 0.075193 0
M  V30 1315 C 120.975 -1.92794 -0.592731 0
M  V30 1316 C 121.288 -0.957478 -1.70563 0
M  V30 1317 O 122.494 -1.20417 -2.43335 0
M  V30 1318 C 120.95 -3.42495 -1.10569 0
M  V30 1319 C 120.558 -4.47994 -0.0236121 0
M  V30 1320 C 122.302 -3.86864 -1.74748 0
M  V30 1321 C 120.209 -5.88829 -0.550803 0
M  V30 1322 H 119.139 -0.719591 -0.225177 0
M  V30 1323 H 121.79 -1.82902 0.147978 0
M  V30 1324 H 120.172 -3.47471 -1.89947 0
M  V30 1325 H 121.346 -4.54637 0.751099 0
M  V30 1326 H 119.661 -4.13113 0.522159 0
M  V30 1327 H 122.258 -4.8947 -2.15229 0
M  V30 1328 H 122.601 -3.24417 -2.60882 0
M  V30 1329 H 123.134 -3.84504 -1.01986 0
M  V30 1330 H 119.873 -6.54929 0.273457 0
M  V30 1331 H 119.393 -5.85698 -1.29296 0
M  V30 1332 H 121.072 -6.38811 -1.02613 0
M  V30 1333 N 121.204 0.198386 -1.56346 0
M  V30 1334 C 122.114 1.2664 -1.97483 0
M  V30 1335 C 123.13 1.49989 -0.882002 0
M  V30 1336 O 124.306 1.62668 -1.18748 0
M  V30 1337 C 121.371 2.59141 -2.30319 0
M  V30 1338 C 120.432 2.43892 -3.53292 0
M  V30 1339 C 119.665 3.70074 -3.84553 0
M  V30 1340 O 119.888 4.74101 -3.1715 0
M  V30 1341 O 118.822 3.658 -4.7799 0
M  V30 1342 H 122.648 0.947304 -2.88548 0
M  V30 1343 H 120.233 0.403123 -1.43859 0
M  V30 1344 H 122.115 3.37352 -2.5253 0
M  V30 1345 H 120.79 2.90684 -1.42423 0
M  V30 1346 H 119.697 1.63803 -3.36332 0
M  V30 1347 H 121.03 2.17282 -4.41644 0
M  V30 1348 N 122.682 1.50554 0.465978 0
M  V30 1349 C 123.614 1.65949 1.58093 0
M  V30 1350 C 124.627 0.540827 1.53554 0
M  V30 1351 O 125.816 0.814187 1.5885 0
M  V30 1352 C 122.916 1.63261 2.96983 0
M  V30 1353 C 122.089 2.91245 3.26336 0
M  V30 1354 C 121.148 2.8113 4.44806 0
M  V30 1355 O 120.174 3.55086 4.44862 0
M  V30 1356 N 121.376 1.95032 5.46756 0
M  V30 1357 H 124.141 2.62122 1.45301 0
M  V30 1358 H 121.702 1.48082 0.65448 0
M  V30 1359 H 123.694 1.54101 3.74212 0
M  V30 1360 H 122.264 0.748032 3.03518 0
M  V30 1361 H 121.484 3.14493 2.37672 0
M  V30 1362 H 122.772 3.76022 3.42761 0
M  V30 1363 H 122.17 1.3427 5.49534 0
M  V30 1364 H 120.727 1.91772 6.2295 0
M  V30 1365 N 124.16 -0.719506 1.40217 0
M  V30 1366 C 125.576 -1.02707 1.22161 0
M  V30 1367 C 125.776 -2.0128 0.0940557 0
M  V30 1368 O 124.832 -2.46452 -0.549318 0
M  V30 1369 C 126.145 -1.57454 2.56181 0
M  V30 1370 C 127.693 -1.69458 2.63159 0
M  V30 1371 C 128.168 -2.27611 3.97438 0
M  V30 1372 N 129.659 -2.35002 3.99159 0
M  V30 1373 C 130.394 -2.80972 4.99842 0
M  V30 1374 N 129.89 -3.26723 6.10921 0
M  V30 1375 N 131.683 -2.80321 4.87213 0
M  V30 1376 H 123.834 -0.0660492 2.12297 0
M  V30 1377 H 126.097 -0.0919077 0.943534 0
M  V30 1378 H 125.803 -0.924873 3.39321 0
M  V30 1379 H 125.677 -2.56036 2.76993 0
M  V30 1380 H 128.064 -2.33543 1.80393 0
M  V30 1381 H 128.145 -0.694867 2.46181 0
M  V30 1382 H 127.789 -1.6415 4.80643 0
M  V30 1383 H 127.719 -3.2829 4.11744 0
M  V30 1384 H 130.21 -2.02685 3.18947 0
M  V30 1385 H 130.523 -3.60355 6.8364 0
M  V30 1386 H 128.868 -3.24692 6.14492 0
M  V30 1387 H 132.059 -2.43912 3.9953 0
M  V30 1388 H 132.232 -3.15831 5.65822 0
M  V30 1389 N 125.638 -1.25649 -0.95132 0
M  V30 1390 C 126.568 -1.08808 -2.06599 0
M  V30 1391 C 127.549 0.00382547 -1.701 0
M  V30 1392 O 128.734 -0.166325 -1.93486 0
M  V30 1393 C 125.864 -0.709542 -3.39975 0
M  V30 1394 C 124.818 -1.75206 -3.90496 0
M  V30 1395 C 124.144 -1.22811 -5.20405 0
M  V30 1396 C 125.444 -3.15153 -4.16504 0
M  V30 1397 H 127.138 -2.02048 -2.20946 0
M  V30 1398 H 124.684 -0.972835 -1.06169 0
M  V30 1399 H 126.637 -0.578649 -4.17408 0
M  V30 1400 H 125.361 0.258556 -3.25575 0
M  V30 1401 H 124.02 -1.87145 -3.15234 0
M  V30 1402 H 123.668 -0.250145 -5.02378 0
M  V30 1403 H 123.368 -1.92492 -5.55176 0
M  V30 1404 H 124.892 -1.10968 -6.00432 0
M  V30 1405 H 126.306 -3.06349 -4.84586 0
M  V30 1406 H 124.703 -3.82333 -4.62538 0
M  V30 1407 H 125.773 -3.61966 -3.22658 0
M  V30 1408 N 127.117 1.15442 -1.07289 0
M  V30 1409 C 128.394 1.82306 -0.708792 0
M  V30 1410 C 128.774 1.94991 0.808807 0
M  V30 1411 O 128.122 1.50085 1.72298 0
M  V30 1412 C 128.332 3.18695 -1.42247 0
M  V30 1413 C 129.68 3.94341 -1.57417 0
M  V30 1414 O 130.704 3.28247 -1.38319 0
M  V30 1415 O 129.563 5.12839 -1.88834 0
M  V30 1416 H 126.657 0.787628 -0.252132 0
M  V30 1417 H 129.203 1.22559 -1.17377 0
M  V30 1418 H 127.975 3.04557 -2.45684 0
M  V30 1419 H 127.598 3.86128 -0.948223 0
M  V30 1420 N 128.595 0.856903 1.32268 0
M  V30 1421 C 129.823 0.475439 2.01363 0
M  V30 1422 C 130.238 -0.928486 1.64392 0
M  V30 1423 O 129.595 -1.60624 0.866387 0
M  V30 1424 C 129.646 0.607545 3.56358 0
M  V30 1425 O 129.367 1.95617 3.92002 0
M  V30 1426 C 130.868 0.225382 4.42727 0
M  V30 1427 H 128.088 0.186636 0.644521 0
M  V30 1428 H 130.632 1.15446 1.68797 0
M  V30 1429 H 128.787 -0.0237719 3.87393 0
M  V30 1430 H 129.201 1.95455 4.86721 0
M  V30 1431 H 130.675 0.368813 5.50767 0
M  V30 1432 H 131.152 -0.834369 4.31202 0
M  V30 1433 H 131.758 0.831864 4.17085 0
M  V30 1434 N 130.073 -1.45103 0.615059 0
M  V30 1435 C 131.321 -2.01784 0.112955 0
M  V30 1436 C 131.642 -1.48504 -1.26378 0
M  V30 1437 O 130.912 -0.682245 -1.83636 0
M  V30 1438 H 129.492 -0.745993 0.0387668 0
M  V30 1439 H 132.154 -1.77808 0.798141 0
M  V30 1440 H 131.25 -3.12025 0.0684069 0
M  V30 1441 N 131.551 -0.354651 -1.53558 0
M  V30 1442 C 132.799 0.237972 -2.00694 0
M  V30 1443 C 133.12 1.50173 -1.24391 0
M  V30 1444 O 132.39 1.92673 -0.354135 0
M  V30 1445 H 130.97 0.0909256 -0.741446 0
M  V30 1446 H 133.632 -0.478368 -1.88938 0
M  V30 1447 H 132.728 0.47264 -3.085 0
M  V30 1448 N 133.029 1.57378 -0.0835403 0
M  V30 1449 C 134.306 1.85363 0.624507 0
M  V30 1450 C 134.686 0.978239 1.87066 0
M  V30 1451 O 134.034 0.0475908 2.2845 0
M  V30 1452 C 134.244 3.35795 0.950947 0
M  V30 1453 C 135.592 4.03581 1.31939 0
M  V30 1454 O 136.616 3.40609 1.04232 0
M  V30 1455 O 135.475 5.14672 1.83779 0
M  V30 1456 H 132.569 0.766162 0.311329 0
M  V30 1457 H 135.115 1.69307 -0.115362 0
M  V30 1458 H 133.887 3.91244 0.0663899 0
M  V30 1459 H 133.51 3.57154 1.74719 0
M  V30 1460 N 134.507 -0.190092 1.56449 0
M  V30 1461 C 135.455 -1.25501 1.95837 0
M  V30 1462 C 136.449 -1.4685 0.844485 0
M  V30 1463 O 137.655 -1.47651 1.02952 0
M  V30 1464 H 134.03 -0.421447 0.622805 0
M  V30 1465 H 136.001 -0.895821 2.84636 0
M  V30 1466 C 134.75 -2.59124 2.31841 0
M  V30 1467 H 134.073 -2.43514 3.17082 0
M  V30 1468 H 135.513 -3.32371 2.6326 0
M  V30 1469 C 133.972 -3.16488 1.15486 0
M  V30 1470 O 134.502 -3.99365 0.432535 0
M  V30 1471 N 132.708 -2.75305 0.930349 0
M  V30 1472 H 132.255 -2.08013 1.51948 0
M  V30 1473 H 132.213 -3.14024 0.153634 0
M  V30 1474 N 135.985 -1.50799 -0.457987 0
M  V30 1475 C 136.917 -1.66786 -1.57211 0
M  V30 1476 C 137.93 -0.548962 -1.53265 0
M  V30 1477 O 139.119 -0.8226 -1.58416 0
M  V30 1478 C 136.219 -1.64834 -2.96113 0
M  V30 1479 C 135.392 -2.92971 -3.24787 0
M  V30 1480 C 134.451 -2.83485 -4.43309 0
M  V30 1481 O 133.477 -3.5744 -4.42973 0
M  V30 1482 N 134.679 -1.97929 -5.45714 0
M  V30 1483 H 137.444 -2.62889 -1.43909 0
M  V30 1484 H 135.005 -1.48427 -0.646617 0
M  V30 1485 H 136.997 -1.56084 -3.7339 0
M  V30 1486 H 135.567 -0.764118 -3.03117 0
M  V30 1487 H 134.787 -3.15749 -2.36 0
M  V30 1488 H 136.075 -3.77834 -3.40762 0
M  V30 1489 H 135.473 -1.37182 -5.48815 0
M  V30 1490 H 134.03 -1.95073 -6.21924 0
M  V30 1491 N 137.463 0.71206 -1.40597 0
M  V30 1492 C 138.393 1.83889 -1.43899 0
M  V30 1493 C 139.374 1.67442 -0.299504 0
M  V30 1494 O 140.559 1.87421 -0.508624 0
M  V30 1495 C 137.689 3.21877 -1.30431 0
M  V30 1496 C 136.643 3.53002 -2.42019 0
M  V30 1497 C 135.969 4.90172 -2.13626 0
M  V30 1498 C 137.269 3.53643 -3.84362 0
M  V30 1499 H 138.963 1.81383 -2.38203 0
M  V30 1500 H 136.509 0.871237 -1.14654 0
M  V30 1501 H 138.462 4.00404 -1.31357 0
M  V30 1502 H 137.186 3.24968 -0.326049 0
M  V30 1503 H 135.845 2.76818 -2.40349 0
M  V30 1504 H 135.493 4.89869 -1.14182 0
M  V30 1505 H 135.193 5.11962 -2.88389 0
M  V30 1506 H 136.717 5.71028 -2.1624 0
M  V30 1507 H 138.131 4.22203 -3.87837 0
M  V30 1508 H 136.528 3.86961 -4.58673 0
M  V30 1509 H 137.598 2.52954 -4.13693 0
M  V30 1510 N 138.941 1.26152 0.944643 0
M  V30 1511 C 139.871 1.09902 2.06019 0
M  V30 1512 C 140.852 0.00519538 1.70099 0
M  V30 1513 O 142.037 0.176583 1.93396 0
M  V30 1514 C 139.167 0.727562 3.39594 0
M  V30 1515 C 138.121 1.77274 3.89561 0
M  V30 1516 C 137.447 1.25569 5.19747 0
M  V30 1517 C 138.747 3.17357 4.14827 0
M  V30 1518 H 140.441 2.03217 2.19871 0
M  V30 1519 H 137.987 0.978452 1.05652 0
M  V30 1520 H 139.94 0.600777 4.17095 0
M  V30 1521 H 138.664 -0.241287 3.25707 0
M  V30 1522 H 137.323 1.88814 3.14237 0
M  V30 1523 H 136.971 0.276783 5.02238 0
M  V30 1524 H 136.671 1.95433 5.54148 0
M  V30 1525 H 138.195 1.1415 5.99835 0
M  V30 1526 H 139.609 3.08914 4.82954 0
M  V30 1527 H 138.006 3.84781 4.60504 0
M  V30 1528 H 139.076 3.63673 3.20734 0
M  V30 1529 N 140.419 -1.14872 1.07899 0
M  V30 1530 C 141.349 -2.2193 0.725887 0
M  V30 1531 C 142.33 -1.67622 -0.28927 0
M  V30 1532 O 143.515 -1.93533 -0.160787 0
M  V30 1533 C 140.645 -3.47061 0.128856 0
M  V30 1534 C 139.599 -4.14363 1.07178 0
M  V30 1535 C 138.925 -5.33636 0.337229 0
M  V30 1536 C 140.225 -4.63492 2.40775 0
M  V30 1537 H 141.919 -2.51724 1.62097 0
M  V30 1538 H 139.465 -1.20991 0.780838 0
M  V30 1539 H 141.418 -4.21199 -0.130147 0
M  V30 1540 H 140.142 -3.16617 -0.80134 0
M  V30 1541 H 138.801 -3.42173 1.3158 0
M  V30 1542 H 138.449 -4.99449 -0.596606 0
M  V30 1543 H 138.149 -5.79609 0.965788 0
M  V30 1544 H 139.673 -6.10539 0.0861567 0
M  V30 1545 H 141.087 -5.2913 2.20669 0
M  V30 1546 H 139.484 -5.20148 2.99276 0
M  V30 1547 H 140.554 -3.78834 3.02676 0
M  V30 1548 N 141.898 -0.863906 -1.31812 0
M  V30 1549 C 143.128 -0.485406 -2.00817 0
M  V30 1550 C 143.536 0.925007 -1.65046 0
M  V30 1551 O 142.879 1.61653 -0.872574 0
M  V30 1552 C 142.941 -0.555589 -3.55181 0
M  V30 1553 C 142.605 -1.92654 -4.14407 0
M  V30 1554 C 143.602 -2.89324 -4.31958 0
M  V30 1555 C 141.287 -2.2262 -4.50273 0
M  V30 1556 C 143.281 -4.14108 -4.84555 0
M  V30 1557 C 140.968 -3.47654 -5.02573 0
M  V30 1558 C 141.966 -4.43214 -5.19664 0
M  V30 1559 O 141.654 -5.66033 -5.70843 0
M  V30 1560 H 141.386 -0.188224 -0.649267 0
M  V30 1561 H 143.94 -1.16514 -1.69156 0
M  V30 1562 H 142.17 0.181037 -3.86276 0
M  V30 1563 H 143.859 -0.19138 -4.05449 0
M  V30 1564 H 144.625 -2.6748 -4.04573 0
M  V30 1565 H 140.504 -1.4902 -4.3625 0
M  V30 1566 H 144.048 -4.88703 -4.9781 0
M  V30 1567 H 139.945 -3.69345 -5.29391 0
M  V30 1568 H 140.713 -5.6812 -5.89222 0
M  V30 1569 N 143.376 1.44774 -0.622745 0
M  V30 1570 C 144.286 2.34433 0.0886031 0
M  V30 1571 C 145.302 1.52131 0.844529 0
M  V30 1572 O 146.478 1.84886 0.798691 0
M  V30 1573 C 143.543 3.29986 1.0635 0
M  V30 1574 C 142.604 4.28195 0.307873 0
M  V30 1575 C 141.837 5.19183 1.23633 0
M  V30 1576 O 142.06 5.13918 2.47476 0
M  V30 1577 O 140.994 5.97515 0.725189 0
M  V30 1578 H 144.82 2.96693 -0.648599 0
M  V30 1579 H 142.405 1.44408 -0.382957 0
M  V30 1580 H 144.287 3.88825 1.6246 0
M  V30 1581 H 142.962 2.70269 1.78146 0
M  V30 1582 H 141.869 3.72927 -0.296064 0
M  V30 1583 H 143.202 4.90808 -0.3699 0
M  V30 1584 N 144.854 0.36279 1.53368 0
M  V30 1585 C 145.784 -0.476976 2.28576 0
M  V30 1586 C 146.765 -1.08631 1.30894 0
M  V30 1587 O 147.95 -1.10409 1.59761 0
M  V30 1588 C 145.08 -1.61828 3.07293 0
M  V30 1589 C 144.034 -1.13633 4.1264 0
M  V30 1590 C 143.36 -2.36766 4.79423 0
M  V30 1591 C 144.66 -0.223061 5.21823 0
M  V30 1592 H 146.354 0.150474 2.99022 0
M  V30 1593 H 143.9 0.0738103 1.43811 0
M  V30 1594 H 145.853 -2.21237 3.58653 0
M  V30 1595 H 144.577 -2.27292 2.34533 0
M  V30 1596 H 143.236 -0.564945 3.62221 0
M  V30 1597 H 142.884 -3.0068 4.03238 0
M  V30 1598 H 142.584 -2.05192 5.50609 0
M  V30 1599 H 144.108 -2.96865 5.33576 0
M  V30 1600 H 145.522 -0.724545 5.68703 0
M  V30 1601 H 143.919 0.001678 6.001 0
M  V30 1602 H 144.989 0.735553 4.79289 0
M  V30 1603 N 146.332 -1.57332 0.0918853 0
M  V30 1604 C 147.557 -1.98995 -0.584442 0
M  V30 1605 C 147.982 -0.970528 -1.61128 0
M  V30 1606 O 147.34 0.0613904 -1.81196 0
M  V30 1607 C 147.388 -3.39636 -1.21161 0
M  V30 1608 O 146.492 -3.40447 -2.32744 0
M  V30 1609 H 145.833 -0.647165 -0.148572 0
M  V30 1610 H 148.363 -2.03873 0.172347 0
M  V30 1611 H 148.373 -3.7726 -1.55367 0
M  V30 1612 H 147.048 -4.13356 -0.459313 0
M  V30 1613 H 145.625 -3.14614 -2.0018 0
M  V30 1614 N 147.81 0.181792 -1.56548 0
M  V30 1615 C 149.035 0.920019 -1.85877 0
M  V30 1616 C 149.46 1.75494 -0.677021 0
M  V30 1617 O 148.818 1.77399 0.374056 0
M  V30 1618 C 148.866 1.78112 -3.13542 0
M  V30 1619 O 147.97 2.88152 -2.95029 0
M  V30 1620 H 147.311 0.258334 -0.611686 0
M  V30 1621 H 149.841 0.183092 -2.03779 0
M  V30 1622 H 149.851 2.18314 -3.44678 0
M  V30 1623 H 148.526 1.16777 -3.99169 0
M  V30 1624 H 147.103 2.51609 -2.75222 0
M  V30 1625 N 149.288 1.51039 0.449983 0
M  V30 1626 C 150.537 1.62317 1.19733 0
M  V30 1627 C 150.85 0.339101 1.92638 0
M  V30 1628 O 152.056 0.331069 2.69474 0
M  V30 1629 C 150.512 2.86608 2.17678 0
M  V30 1630 C 150.12 4.21972 1.50479 0
M  V30 1631 C 151.864 3.07239 2.92924 0
M  V30 1632 C 149.771 5.37426 2.46834 0
M  V30 1633 H 148.701 0.604532 0.450619 0
M  V30 1634 H 151.352 1.77494 0.465625 0
M  V30 1635 H 149.734 2.65037 2.94231 0
M  V30 1636 H 150.908 4.53878 0.795716 0
M  V30 1637 H 149.223 4.07117 0.874344 0
M  V30 1638 H 151.82 3.90668 3.65079 0
M  V30 1639 H 152.163 2.19807 3.5354 0
M  V30 1640 H 152.696 3.29091 2.23481 0
M  V30 1641 H 149.435 6.27079 1.90926 0
M  V30 1642 H 148.955 5.09912 3.15832 0
M  V30 1643 H 150.634 5.68862 3.08228 0
M  V30 1644 N 150.766 -0.704594 1.40972 0
M  V30 1645 C 152.015 -1.46018 1.39146 0
M  V30 1646 C 152.328 -1.956 0.000589254 0
M  V30 1647 O 153.534 -2.71137 -0.1403 0
M  V30 1648 C 151.99 -2.63996 2.4461 0
M  V30 1649 C 151.598 -2.21238 3.89561 0
M  V30 1650 C 153.342 -3.41677 2.51907 0
M  V30 1651 C 151.249 -3.3612 4.86598 0
M  V30 1652 H 150.179 -0.548444 0.517422 0
M  V30 1653 H 152.83 -0.765784 1.66757 0
M  V30 1654 H 151.212 -3.3566 2.10115 0
M  V30 1655 H 152.386 -1.56923 4.33257 0
M  V30 1656 H 150.701 -1.56574 3.85841 0
M  V30 1657 H 153.298 -4.27182 3.2159 0
M  V30 1658 H 153.641 -3.86247 1.55303 0
M  V30 1659 H 154.174 -2.77064 2.85448 0
M  V30 1660 H 150.913 -2.96572 5.84573 0
M  V30 1661 H 150.433 -3.99315 4.47557 0
M  V30 1662 H 152.112 -4.02029 5.06934 0
M  V30 1663 N 152.244 -1.26651 -0.937939 0
M  V30 1664 C 153.191 -1.0849 -2.03712 0
M  V30 1665 C 154.161 0.011033 -1.66096 0
M  V30 1666 O 155.346 -0.149353 -1.90215 0
M  V30 1667 C 152.486 -0.72735 -3.37348 0
M  V30 1668 C 151.599 -1.89986 -3.87981 0
M  V30 1669 C 150.734 -1.48513 -5.10017 0
M  V30 1670 C 149.773 -2.62575 -5.5292 0
M  V30 1671 N 148.91 -2.21762 -6.66158 0
M  V30 1672 H 153.75 -2.02551 -2.18579 0
M  V30 1673 H 151.287 -1.00844 -1.07093 0
M  V30 1674 H 153.245 -0.50092 -4.14182 0
M  V30 1675 H 151.875 0.176298 -3.22318 0
M  V30 1676 H 150.927 -2.23913 -3.07518 0
M  V30 1677 H 152.239 -2.75586 -4.15757 0
M  V30 1678 H 151.393 -1.21934 -5.94321 0
M  V30 1679 H 150.132 -0.60009 -4.83994 0
M  V30 1680 H 149.137 -2.8988 -4.67172 0
M  V30 1681 H 150.362 -3.51685 -5.80943 0
M  V30 1682 H 148.308 -1.35696 -6.41812 0
M  V30 1683 H 148.225 -3.00903 -6.93537 0
M  V30 1684 H 149.493 -1.98403 -7.53828 0
M  V30 1685 N 153.722 1.14298 -1.08507 0
M  V30 1686 C 154.971 1.84708 -0.810305 0
M  V30 1687 C 155.284 1.83903 0.666271 0
M  V30 1688 O 156.49 2.50112 1.05624 0
M  V30 1689 C 154.946 3.31572 -1.39957 0
M  V30 1690 C 154.554 3.40791 -2.90801 0
M  V30 1691 C 156.298 4.07087 -1.20334 0
M  V30 1692 C 154.205 4.81872 -3.4286 0
M  V30 1693 H 153.135 0.691985 -0.299454 0
M  V30 1694 H 155.786 1.28841 -1.30661 0
M  V30 1695 H 154.168 3.87183 -0.830976 0
M  V30 1696 H 155.342 2.95225 -3.53806 0
M  V30 1697 H 153.657 2.78732 -3.0935 0
M  V30 1698 H 156.254 5.11225 -1.56693 0
M  V30 1699 H 156.597 4.16054 -0.143237 0
M  V30 1700 H 157.13 3.57779 -1.73893 0
M  V30 1701 H 153.869 4.78094 -4.48449 0
M  V30 1702 H 153.389 5.27972 -2.84615 0
M  V30 1703 H 155.068 5.50765 -3.39509 0
M  V30 1704 N 155.201 0.870884 1.31352 0
M  V30 1705 C 156.164 0.332243 2.26779 0
M  V30 1706 C 157.164 -0.517302 1.52252 0
M  V30 1707 O 158.354 -0.326477 1.71113 0
M  V30 1708 C 155.486 -0.528066 3.36785 0
M  V30 1709 H 156.679 1.17469 2.75937 0
M  V30 1710 H 154.232 0.64655 1.423 0
M  V30 1711 H 154.967 -1.39167 2.92922 0
M  V30 1712 H 154.752 0.0802582 3.92018 0
M  V30 1713 H 156.242 -0.897179 4.07849 0
M  V30 1714 N 156.679 -1.44442 0.630414 0
M  V30 1715 C 157.907 -2.06414 0.141671 0
M  V30 1716 C 158.322 -1.47105 -1.18345 0
M  V30 1717 O 157.679 -0.593662 -1.72574 0
M  V30 1718 C 157.73 -3.61494 0.0199784 0
M  V30 1719 O 157.451 -4.18594 1.29269 0
M  V30 1720 C 158.952 -4.40499 -0.497544 0
M  V30 1721 H 156.172 -0.666292 0.0793452 0
M  V30 1722 H 158.716 -1.85323 0.864614 0
M  V30 1723 H 156.871 -3.8185 -0.653402 0
M  V30 1724 H 157.285 -5.12026 1.13707 0
M  V30 1725 H 158.759 -5.49433 -0.531708 0
M  V30 1726 H 159.236 -4.11895 -1.52445 0
M  V30 1727 H 159.842 -4.25061 0.142562 0
M  V30 1728 N 158.157 -0.370918 -1.53173 0
M  V30 1729 C 159.104 0.473035 -2.259 0
M  V30 1730 C 160.074 1.07311 -1.26781 0
M  V30 1731 O 161.259 1.1046 -1.55574 0
M  V30 1732 C 158.399 1.60405 -3.05556 0
M  V30 1733 C 157.512 1.02863 -4.19575 0
M  V30 1734 C 156.647 2.12918 -4.86661 0
M  V30 1735 C 155.686 1.52869 -5.92704 0
M  V30 1736 N 154.823 2.56779 -6.53459 0
M  V30 1737 H 159.663 -0.153649 -2.97604 0
M  V30 1738 H 157.2 -0.0875946 -1.46839 0
M  V30 1739 H 159.158 2.27034 -3.50016 0
M  V30 1740 H 157.788 2.20131 -2.36097 0
M  V30 1741 H 156.84 0.252465 -3.79561 0
M  V30 1742 H 158.152 0.549642 -4.95762 0
M  V30 1743 H 157.306 2.87356 -5.34333 0
M  V30 1744 H 156.045 2.6417 -4.09958 0
M  V30 1745 H 155.05 0.769479 -5.44389 0
M  V30 1746 H 156.275 1.02435 -6.7133 0
M  V30 1747 H 154.221 3.07235 -5.79606 0
M  V30 1748 H 154.138 2.13583 -7.25202 0
M  V30 1749 H 155.406 3.30903 -7.05779 0
M  V30 1750 N 159.635 1.57281 -0.100228 0
M  V30 1751 C 160.598 2.13158 0.842398 0
M  V30 1752 C 161.598 1.06202 1.20738 0
M  V30 1753 O 162.788 1.32066 1.13597 0
M  V30 1754 C 159.92 2.65639 2.13655 0
M  V30 1755 H 161.113 2.97766 0.357114 0
M  V30 1756 H 158.666 1.5559 0.148823 0
M  V30 1757 H 159.401 1.84566 2.66657 0
M  V30 1758 H 159.186 3.43844 1.88451 0
M  V30 1759 H 160.676 3.08846 2.81077 0
M  V30 1760 N 161.113 -0.173488 1.56642 0
M  V30 1761 C 162.39 -0.917617 1.7274 0
M  V30 1762 C 162.77 -2.00484 0.661027 0
M  V30 1763 O 162.118 -2.26184 -0.32453 0
M  V30 1764 C 162.328 -1.48433 3.15862 0
M  V30 1765 C 163.676 -1.95809 3.76754 0
M  V30 1766 O 164.7 -1.58231 3.19126 0
M  V30 1767 O 163.559 -2.65024 4.77938 0
M  V30 1768 H 160.653 -0.431772 0.705338 0
M  V30 1769 H 163.199 -0.161487 1.6893 0
M  V30 1770 H 161.971 -0.701715 3.84957 0
M  V30 1771 H 161.594 -2.30471 3.23989 0
M  V30 1772 N 162.591 -1.51276 -0.441967 0
M  V30 1773 C 163.839 -1.63392 -1.18943 0
M  V30 1774 C 164.16 -0.350159 -1.9183 0
M  V30 1775 O 163.43 0.633784 -1.85364 0
M  V30 1776 H 162.01 -0.602164 -0.442049 0
M  V30 1777 H 164.672 -1.88186 -0.507165 0
M  V30 1778 H 163.768 -2.45934 -1.92154 0
M  V30 1779 N 164.069 0.697108 -1.41344 0
M  V30 1780 C 165.316 1.45714 -1.40619 0
M  V30 1781 C 165.644 1.94494 -0.0147907 0
M  V30 1782 O 164.899 1.69794 0.973066 0
M  V30 1783 C 165.198 2.68553 -2.35826 0
M  V30 1784 C 164.864 2.38438 -3.82698 0
M  V30 1785 C 163.526 2.29936 -4.22709 0
M  V30 1786 C 165.878 2.13567 -4.75435 0
M  V30 1787 C 163.206 1.94656 -5.53467 0
M  V30 1788 C 165.558 1.79797 -6.06511 0
M  V30 1789 C 164.222 1.69789 -6.45545 0
M  V30 1790 H 163.492 0.533206 -0.51456 0
M  V30 1791 H 166.139 0.796901 -1.74131 0
M  V30 1792 H 164.444 3.39503 -1.95563 0
M  V30 1793 H 166.141 3.2669 -2.32539 0
M  V30 1794 H 162.731 2.4595 -3.51008 0
M  V30 1795 H 166.915 2.19082 -4.45328 0
M  V30 1796 H 162.171 1.8546 -5.82593 0
M  V30 1797 H 166.345 1.59572 -6.77872 0
M  V30 1798 H 163.972 1.4222 -7.46778 0
M  V30 1799 N 165.547 1.27147 0.931209 0
M  V30 1800 C 166.51 1.09615 2.01289 0
M  V30 1801 C 167.51 0.0412581 1.60747 0
M  V30 1802 O 168.7 0.285545 1.71844 0
M  V30 1803 C 165.832 0.669447 3.34262 0
M  V30 1804 H 167.025 2.05662 2.18273 0
M  V30 1805 H 164.578 1.09885 1.11153 0
M  V30 1806 H 165.313 -0.292572 3.22978 0
M  V30 1807 H 165.098 1.43127 3.65044 0
M  V30 1808 H 166.588 0.568921 4.13706 0
M  V30 1809 N 167.025 -1.13721 1.09112 0
M  V30 1810 C 167.955 -2.21148 0.749385 0
M  V30 1811 C 168.936 -1.6792 -0.271475 0
M  V30 1812 O 170.121 -1.93693 -0.140251 0
M  V30 1813 C 167.251 -3.46905 0.165659 0
M  V30 1814 C 166.205 -4.13203 1.11567 0
M  V30 1815 C 165.531 -5.33248 0.393809 0
M  V30 1816 C 166.831 -4.60912 2.45678 0
M  V30 1817 H 168.525 -2.4999 1.64758 0
M  V30 1818 H 166.071 -1.20156 0.793626 0
M  V30 1819 H 168.024 -4.21313 -0.085466 0
M  V30 1820 H 166.748 -3.17449 -0.767714 0
M  V30 1821 H 165.407 -3.40758 1.35202 0
M  V30 1822 H 165.055 -5.00054 -0.543599 0
M  V30 1823 H 164.755 -5.78552 1.02721 0
M  V30 1824 H 166.279 -6.10413 0.150908 0
M  V30 1825 H 167.693 -5.26759 2.26269 0
M  V30 1826 H 166.09 -5.16944 3.04776 0
M  V30 1827 H 167.16 -3.75603 3.06677 0
M  V30 1828 N 168.503 -0.877838 -1.30888 0
M  V30 1829 C 169.733 -0.506678 -2.00291 0
M  V30 1830 C 170.141 0.907449 -1.66018 0
M  V30 1831 O 169.484 1.60719 -0.88967 0
M  V30 1832 C 169.546 -0.59323 -3.54572 0
M  V30 1833 C 169.21 -1.97038 -4.12341 0
M  V30 1834 C 170.207 -2.93889 -4.28865 0
M  V30 1835 C 167.892 -2.27383 -4.47886 0
M  V30 1836 C 169.886 -4.19224 -4.80136 0
M  V30 1837 C 167.573 -3.52965 -4.98857 0
M  V30 1838 C 168.571 -4.48701 -5.14934 0
M  V30 1839 O 168.259 -5.72056 -5.64808 0
M  V30 1840 H 167.991 -0.1951 -0.647234 0
M  V30 1841 H 170.545 -1.18301 -1.6791 0
M  V30 1842 H 168.775 0.140057 -3.86446 0
M  V30 1843 H 170.464 -0.234372 -4.05223 0
M  V30 1844 H 171.23 -2.71756 -4.01714 0
M  V30 1845 H 167.109 -1.53639 -4.34645 0
M  V30 1846 H 170.653 -4.93956 -4.92599 0
M  V30 1847 H 166.55 -3.74939 -5.25443 0
M  V30 1848 H 167.318 -5.74337 -5.83163 0
M  V30 1849 N 169.982 1.44106 -0.638065 0
M  V30 1850 C 171.229 2.01978 -0.14533 0
M  V30 1851 C 171.557 1.50234 1.23532 0
M  V30 1852 O 170.812 0.679548 1.83523 0
M  V30 1853 C 171.111 3.5729 -0.0887327 0
M  V30 1854 C 170.777 4.28317 -1.40909 0
M  V30 1855 C 169.439 4.47437 -1.77069 0
M  V30 1856 C 171.791 4.6867 -2.28031 0
M  V30 1857 C 169.119 5.04171 -3.00047 0
M  V30 1858 C 171.471 5.26766 -3.50286 0
M  V30 1859 C 170.135 5.44104 -3.86661 0
M  V30 1860 H 169.405 0.739089 -0.0531801 0
M  V30 1861 H 172.052 1.72781 -0.825761 0
M  V30 1862 H 170.357 3.8594 0.675095 0
M  V30 1863 H 172.054 3.99807 0.309145 0
M  V30 1864 H 168.644 4.1377 -1.1177 0
M  V30 1865 H 172.828 4.53604 -2.01388 0
M  V30 1866 H 168.084 5.15782 -3.28298 0
M  V30 1867 H 172.258 5.56983 -4.18023 0
M  V30 1868 H 169.885 5.87832 -4.82034 0
M  V30 1869 N 171.46 0.379036 1.52974 0
M  V30 1870 C 172.39 -0.452706 2.29069 0
M  V30 1871 C 173.371 -1.07237 1.32039 0
M  V30 1872 O 174.556 -1.08708 1.60923 0
M  V30 1873 C 171.686 -1.5856 3.08992 0
M  V30 1874 C 170.64 -1.0925 4.13822 0
M  V30 1875 C 169.966 -2.31668 4.81907 0
M  V30 1876 C 171.266 -0.167702 5.22031 0
M  V30 1877 H 172.96 0.182181 2.98845 0
M  V30 1878 H 170.506 0.0890592 1.43724 0
M  V30 1879 H 172.459 -2.1742 3.6098 0
M  V30 1880 H 171.183 -2.24792 2.36931 0
M  V30 1881 H 169.842 -0.526494 3.628 0
M  V30 1882 H 169.49 -2.96386 4.06404 0
M  V30 1883 H 169.19 -1.9934 5.52754 0
M  V30 1884 H 170.714 -2.91189 5.36695 0
M  V30 1885 H 172.128 -0.664186 5.6944 0
M  V30 1886 H 170.525 0.0653265 6.00064 0
M  V30 1887 H 171.595 0.786347 4.78482 0
M  V30 1888 N 172.938 -1.57226 0.108567 0
M  V30 1889 C 174.186 -1.94448 -0.550853 0
M  V30 1890 C 174.507 -0.992074 -1.67878 0
M  V30 1891 O 173.777 -0.0465 -1.95845 0
M  V30 1892 H 172.357 -0.717897 -0.206479 0
M  V30 1893 H 175.019 -1.94112 0.175062 0
M  V30 1894 H 174.115 -2.97218 -0.952259 0
M  V30 1895 N 174.416 0.165178 -1.56732 0
M  V30 1896 C 175.326 1.22423 -2.00125 0
M  V30 1897 C 176.342 1.48084 -0.913619 0
M  V30 1898 O 177.518 1.60112 -1.22172 0
M  V30 1899 C 174.583 2.54197 -2.35764 0
M  V30 1900 C 173.644 2.36343 -3.58386 0
M  V30 1901 C 172.877 3.61834 -3.92316 0
M  V30 1902 O 173.1 4.67267 -3.27135 0
M  V30 1903 O 172.034 3.55579 -4.85641 0
M  V30 1904 H 175.86 0.885886 -2.90492 0
M  V30 1905 H 173.445 0.372518 -1.44681 0
M  V30 1906 H 175.327 3.3192 -2.59629 0
M  V30 1907 H 174.002 2.87598 -1.48557 0
M  V30 1908 H 172.909 1.56632 -3.39731 0
M  V30 1909 H 174.242 2.07865 -4.46154 0
M  V30 1910 N 175.894 1.51508 0.433938 0
M  V30 1911 C 177.134 1.66006 1.19253 0
M  V30 1912 C 177.498 0.369868 1.88404 0
M  V30 1913 O 178.699 0.39066 2.65946 0
M  V30 1914 C 176.97 2.83229 2.17981 0
M  V30 1915 S 178.529 3.18075 3.02281 0
M  V30 1916 H 175.347 0.584821 0.404358 0
M  V30 1917 H 177.949 1.89425 0.48357 0
M  V30 1918 H 176.653 3.75407 1.65824 0
M  V30 1919 H 176.184 2.6201 2.93453 0
M  V30 1920 H 178.199 2.64772 4.19655 0
M  V30 1921 N 177.372 -0.689602 1.41712 0
M  V30 1922 C 178.32 -1.82475 1.44242 0
M  V30 1923 C 179.314 -1.66354 0.319774 0
M  V30 1924 O 180.52 -1.73143 0.492089 0
M  V30 1925 H 176.895 -0.601416 0.451445 0
M  V30 1926 H 178.866 -1.77458 2.39899 0
M  V30 1927 C 177.615 -3.20535 1.3473 0
M  V30 1928 H 176.938 -3.33559 2.20405 0
M  V30 1929 H 178.378 -4.00023 1.40562 0
M  V30 1930 C 176.837 -3.36846 0.0603281 0
M  V30 1931 O 177.367 -3.91656 -0.892663 0
M  V30 1932 N 175.573 -2.90595 -0.0177039 0
M  V30 1933 H 175.12 -2.46178 0.758572 0
M  V30 1934 H 175.078 -3.01886 -0.878201 0
M  V30 1935 N 178.85 -1.27639 -0.924453 0
M  V30 1936 C 179.798 -1.10485 -2.04685 0
M  V30 1937 C 180.792 -0.0270421 -1.69378 0
M  V30 1938 O 181.998 -0.185008 -1.79047 0
M  V30 1939 H 178.373 -0.340546 -0.670472 0
M  V30 1940 H 180.344 -2.05566 -2.16298 0
M  V30 1941 C 179.093 -0.772229 -3.39016 0
M  V30 1942 H 178.416 -1.59351 -3.66671 0
M  V30 1943 H 179.856 -0.692097 -4.18313 0
M  V30 1944 C 178.315 0.523554 -3.32807 0
M  V30 1945 O 178.845 1.55702 -3.70297 0
M  V30 1946 N 177.051 0.520363 -2.85903 0
M  V30 1947 H 176.598 -0.32107 -2.55591 0
M  V30 1948 H 176.556 1.38742 -2.82131 0
M  V30 1949 N 180.328 1.1314 -1.09713 0
M  V30 1950 C 181.553 1.88862 -0.857081 0
M  V30 1951 C 181.978 1.78729 0.586304 0
M  V30 1952 O 181.336 1.13692 1.41222 0
M  V30 1953 C 181.384 3.36325 -1.30069 0
M  V30 1954 O 180.488 4.09815 -0.461007 0
M  V30 1955 H 179.829 0.587108 -0.310162 0
M  V30 1956 H 182.359 1.43129 -1.46203 0
M  V30 1957 H 182.369 3.87157 -1.28738 0
M  V30 1958 H 181.044 3.43017 -2.35185 0
M  V30 1959 H 179.621 3.68986 -0.538888 0
M  V30 1960 N 181.806 0.884767 1.30421 0
M  V30 1961 C 182.736 0.367574 2.30589 0
M  V30 1962 C 183.717 -0.549464 1.60981 0
M  V30 1963 O 184.902 -0.46336 1.88591 0
M  V30 1964 C 182.032 -0.418944 3.44764 0
M  V30 1965 C 180.986 0.406316 4.26067 0
M  V30 1966 C 180.312 -0.506793 5.32293 0
M  V30 1967 C 181.612 1.64832 4.95608 0
M  V30 1968 H 183.306 1.20462 2.74097 0
M  V30 1969 H 180.852 0.580695 1.31772 0
M  V30 1970 H 182.805 -0.791395 4.13902 0
M  V30 1971 H 181.529 -1.28964 3.0006 0
M  V30 1972 H 180.188 0.760903 3.58617 0
M  V30 1973 H 179.836 -1.37519 4.83836 0
M  V30 1974 H 179.536 0.0415828 5.87585 0
M  V30 1975 H 181.06 -0.875764 6.04287 0
M  V30 1976 H 182.474 1.34646 5.57264 0
M  V30 1977 H 180.871 2.13688 5.60765 0
M  V30 1978 H 181.941 2.39284 4.21748 0
M  V30 1979 N 183.284 -1.43765 0.645699 0
M  V30 1980 C 184.524 -2.03776 0.159542 0
M  V30 1981 C 184.888 -1.49792 -1.2011 0
M  V30 1982 O 186.089 -2.01398 -1.78023 0
M  V30 1983 C 184.36 -3.57036 0.161251 0
M  V30 1984 S 185.919 -4.3804 -0.258159 0
M  V30 1985 H 182.737 -0.707717 0.0682454 0
M  V30 1986 H 185.339 -1.75941 0.852352 0
M  V30 1987 H 184.043 -3.9383 1.15439 0
M  V30 1988 H 183.574 -3.89503 -0.552339 0
M  V30 1989 H 185.589 -4.7302 -1.49889 0
M  V30 1990 N 184.763 -0.387143 -1.52771 0
M  V30 1991 C 186.012 0.19697 -2.00736 0
M  V30 1992 C 186.325 1.48082 -1.27793 0
M  V30 1993 O 187.531 2.14485 -1.66458 0
M  V30 1994 C 185.987 0.401568 -3.57653 0
M  V30 1995 C 185.595 -0.868907 -4.39493 0
M  V30 1996 C 187.339 0.942164 -4.13912 0
M  V30 1997 C 185.246 -0.632705 -5.88006 0
M  V30 1998 H 184.176 0.0773827 -0.750019 0
M  V30 1999 H 186.827 -0.50921 -1.76293 0
M  V30 2000 H 185.209 1.16954 -3.78335 0
M  V30 2001 H 186.383 -1.64133 -4.30577 0
M  V30 2002 H 184.698 -1.33429 -3.94443 0
M  V30 2003 H 187.295 1.13455 -5.22525 0
M  V30 2004 H 187.638 1.9106 -3.69867 0
M  V30 2005 H 188.171 0.233814 -3.97112 0
M  V30 2006 H 184.91 -1.57208 -6.36369 0
M  V30 2007 H 184.43 0.100825 -5.99715 0
M  V30 2008 H 186.109 -0.26642 -6.46451 0
M  V30 2009 N 186.241 1.57166 -0.116904 0
M  V30 2010 C 187.488 1.95123 0.541603 0
M  V30 2011 C 187.816 1.00006 1.6682 0
M  V30 2012 O 187.071 0.0235658 1.95686 0
M  V30 2013 C 187.37 3.39508 1.11664 0
M  V30 2014 C 187.036 4.50762 0.111606 0
M  V30 2015 C 185.698 4.80918 -0.164758 0
M  V30 2016 C 188.05 5.18036 -0.573438 0
M  V30 2017 C 185.378 5.75666 -1.13249 0
M  V30 2018 C 187.73 6.13824 -1.52978 0
M  V30 2019 C 186.394 6.42374 -1.81415 0
M  V30 2020 H 185.664 0.714005 0.198187 0
M  V30 2021 H 188.311 1.9048 -0.197365 0
M  V30 2022 H 186.616 3.40835 1.93232 0
M  V30 2023 H 188.313 3.66189 1.63422 0
M  V30 2024 H 184.903 4.27272 0.337192 0
M  V30 2025 H 189.087 4.94896 -0.373092 0
M  V30 2026 H 184.343 5.96092 -1.35958 0
M  V30 2027 H 188.517 6.65039 -2.06629 0
M  V30 2028 H 186.144 7.15599 -2.56557 0
M  V30 2029 N 187.719 -0.156864 1.56817 0
M  V30 2030 C 188.947 -0.886316 1.86955 0
M  V30 2031 C 189.362 -1.75185 0.703975 0
M  V30 2032 O 188.719 -1.79555 -0.326552 0
M  V30 2033 C 188.77 -1.75117 3.16253 0
M  V30 2034 O 188.491 -0.920537 4.2832 0
M  V30 2035 C 189.992 -2.58905 3.59837 0
M  V30 2036 H 187.212 -0.25678 0.619923 0
M  V30 2037 H 189.756 -0.152615 2.0393 0
M  V30 2038 H 187.911 -2.43805 3.01062 0
M  V30 2039 H 188.325 -1.51337 5.02192 0
M  V30 2040 H 189.799 -3.1518 4.53172 0
M  V30 2041 H 190.276 -3.34472 2.84649 0
M  V30 2042 H 190.882 -1.95526 3.7769 0
M  V30 2043 N 189.197 -1.51736 -0.425897 0
M  V30 2044 C 190.608 -1.5732 -1.00536 0
M  V30 2045 C 190.959 -0.403537 -1.92005 0
M  V30 2046 O 190.084 0.478256 -2.11049 0
M  V30 2047 C 190.679 -2.85119 -1.8301 0
M  V30 2048 C 189.238 -2.93236 -2.35987 0
M  V30 2049 C 188.385 -2.52098 -1.15508 0
M  V30 2050 H 191.336 -1.57348 -0.206739 0
M  V30 2051 H 191.357 -2.69526 -2.68581 0
M  V30 2052 H 190.869 -3.7023 -1.16411 0
M  V30 2053 H 188.97 -2.12581 -3.06007 0
M  V30 2054 H 189.083 -3.9713 -2.68001 0
M  V30 2055 H 187.447 -2.05558 -1.50393 0
M  V30 2056 H 188.23 -3.39565 -0.505014 0
M  V30 2057 N 190.675 0.682077 -1.42076 0
M  V30 2058 C 192.086 1.26246 -1.37546 0
M  V30 2059 C 192.437 1.96092 -0.0651481 0
M  V30 2060 O 191.562 1.99587 0.836297 0
M  V30 2061 C 192.157 2.29594 -2.49143 0
M  V30 2062 C 190.716 2.83175 -2.47969 0
M  V30 2063 C 189.863 1.57395 -2.28303 0
M  V30 2064 H 192.814 0.475937 -1.51395 0
M  V30 2065 H 192.835 3.11175 -2.18976 0
M  V30 2066 H 192.347 1.78729 -3.44496 0
M  V30 2067 H 190.448 3.3818 -1.56413 0
M  V30 2068 H 190.561 3.32687 -3.44755 0
M  V30 2069 H 188.925 1.83699 -1.76428 0
M  V30 2070 H 189.708 1.08507 -3.25701 0
M  V30 2071 N 192.153 1.28127 0.917671 0
M  V30 2072 C 193.401 1.14825 1.66312 0
M  V30 2073 C 193.722 -0.304379 1.9261 0
M  V30 2074 O 192.992 -1.21149 1.53947 0
M  V30 2075 H 191.572 0.421953 0.616413 0
M  V30 2076 H 194.234 1.608 1.10134 0
M  V30 2077 H 193.33 1.68489 2.62712 0
M  V30 2078 N 193.631 -1.12557 1.10312 0
M  V30 2079 C 194.88 -1.83395 0.839588 0
M  V30 2080 C 195.193 -1.84939 -0.636929 0
M  V30 2081 O 196.399 -2.51761 -1.01631 0
M  V30 2082 C 194.855 -3.29303 1.45215 0
M  V30 2083 C 194.463 -3.36122 2.96186 0
M  V30 2084 C 196.207 -4.05121 1.26796 0
M  V30 2085 C 194.114 -4.76357 3.50483 0
M  V30 2086 H 193.044 -0.687133 0.310425 0
M  V30 2087 H 195.695 -1.26746 1.32694 0
M  V30 2088 H 194.077 -3.85812 0.892469 0
M  V30 2089 H 195.251 -2.89559 3.58458 0
M  V30 2090 H 193.566 -2.73776 3.13745 0
M  V30 2091 H 196.163 -5.08668 1.64806 0
M  V30 2092 H 196.506 -4.15773 0.209409 0
M  V30 2093 H 197.039 -3.54967 1.79563 0
M  V30 2094 H 193.778 -4.70899 4.55998 0
M  V30 2095 H 193.298 -5.23377 2.92978 0
M  V30 2096 H 194.977 -5.45294 3.48228 0
M  V30 2097 N 195.109 -0.891671 -1.2995 0
M  V30 2098 C 196.056 -0.361736 -2.27948 0
M  V30 2099 C 197.026 0.551761 -1.56668 0
M  V30 2100 O 198.211 0.478736 -1.84696 0
M  V30 2101 C 195.351 0.411825 -3.42634 0
M  V30 2102 C 194.464 -0.531651 -4.28716 0
M  V30 2103 C 193.599 0.258167 -5.30572 0
M  V30 2104 C 192.638 -0.680349 -6.08307 0
M  V30 2105 N 191.775 0.0745613 -7.0206 0
M  V30 2106 H 196.615 -1.20254 -2.72659 0
M  V30 2107 H 194.152 -0.604352 -1.34112 0
M  V30 2108 H 196.11 0.876304 -4.07893 0
M  V30 2109 H 194.74 1.21715 -2.98974 0
M  V30 2110 H 193.792 -1.11463 -3.63703 0
M  V30 2111 H 195.104 -1.25038 -4.82874 0
M  V30 2112 H 194.258 0.784204 -6.0161 0
M  V30 2113 H 192.997 1.01008 -4.77126 0
M  V30 2114 H 192.002 -1.21796 -5.3614 0
M  V30 2115 H 193.227 -1.43145 -6.63842 0
M  V30 2116 H 191.173 0.808883 -6.50994 0
M  V30 2117 H 191.09 -0.584409 -7.53738 0
M  V30 2118 H 192.358 0.581123 -7.77331 0
M  V30 2119 N 196.587 1.43421 -0.653314 0
M  V30 2120 C 197.497 2.34568 0.0388565 0
M  V30 2121 C 198.513 1.53888 0.81207 0
M  V30 2122 O 199.689 1.86539 0.759294 0
M  V30 2123 C 196.754 3.32167 0.993269 0
M  V30 2124 C 195.815 4.28751 0.216977 0
M  V30 2125 C 195.048 5.21688 1.12593 0
M  V30 2126 O 195.271 5.19052 2.36519 0
M  V30 2127 O 194.205 5.98919 0.598284 0
M  V30 2128 H 198.031 2.95251 -0.711386 0
M  V30 2129 H 195.616 1.43564 -0.413502 0
M  V30 2130 H 197.498 3.92183 1.54176 0
M  V30 2131 H 196.173 2.73987 1.72374 0
M  V30 2132 H 195.08 3.72215 -0.375101 0
M  V30 2133 H 196.413 4.89913 -0.473924 0
M  V30 2134 N 198.065 0.39524 1.52563 0
M  V30 2135 C 199.313 -0.184678 2.01254 0
M  V30 2136 C 199.634 -1.46822 1.28329 0
M  V30 2137 O 198.904 -1.91666 0.405094 0
M  V30 2138 H 197.484 -0.0712355 0.743596 0
M  V30 2139 H 200.146 0.528293 1.87603 0
M  V30 2140 H 199.242 -0.390681 3.09645 0
M  V30 2141 N 199.544 -1.57102 0.125237 0
M  V30 2142 C 200.491 -2.15641 -0.822655 0
M  V30 2143 C 201.461 -1.08313 -1.25927 0
M  V30 2144 O 202.646 -1.36251 -1.33567 0
M  V30 2145 C 199.786 -2.76504 -2.06494 0
M  V30 2146 C 198.899 -3.98158 -1.67612 0
M  V30 2147 C 198.034 -4.47088 -2.86854 0
M  V30 2148 C 197.073 -5.6126 -2.44242 0
M  V30 2149 N 196.21 -6.04905 -3.56419 0
M  V30 2150 H 201.05 -2.96313 -0.316625 0
M  V30 2151 H 198.587 -1.46388 -0.144588 0
M  V30 2152 H 200.545 -3.09925 -2.79289 0
M  V30 2153 H 199.175 -1.98512 -2.54545 0
M  V30 2154 H 198.227 -3.70858 -0.846661 0
M  V30 2155 H 199.539 -4.80934 -1.32301 0
M  V30 2156 H 198.693 -4.82451 -3.67867 0
M  V30 2157 H 197.432 -3.63275 -3.25396 0
M  V30 2158 H 196.437 -5.25495 -1.61663 0
M  V30 2159 H 197.662 -6.46843 -2.0681 0
M  V30 2160 H 195.608 -5.24032 -3.94623 0
M  V30 2161 H 195.525 -6.82552 -3.25051 0
M  V30 2162 H 196.793 -6.44907 -4.37853 0
M  V30 2163 N 201.022 0.148545 -1.56898 0
M  V30 2164 C 202.433 0.708766 -1.72723 0
M  V30 2165 C 202.784 1.81734 -0.739395 0
M  V30 2166 O 201.909 2.16194 0.0943169 0
M  V30 2167 C 202.504 1.29245 -3.13179 0
M  V30 2168 C 201.063 1.79925 -3.30611 0
M  V30 2169 C 200.21 0.687111 -2.68652 0
M  V30 2170 H 203.161 -0.0771063 -1.58513 0
M  V30 2171 H 203.182 2.16224 -3.13093 0
M  V30 2172 H 202.694 0.485382 -3.85053 0
M  V30 2173 H 200.795 2.63203 -2.63732 0
M  V30 2174 H 200.908 1.92903 -4.38549 0
M  V30 2175 H 199.272 1.11335 -2.29078 0
M  V30 2176 H 200.055 -0.108483 -3.43129 0
M  V30 2177 N 202.5 1.5196 0.417844 0
M  V30 2178 C 203.916 1.40569 0.755816 0
M  V30 2179 C 204.116 0.503316 1.95113 0
M  V30 2180 O 203.172 -0.0341925 2.52477 0
M  V30 2181 C 204.485 2.82947 1.01791 0
M  V30 2182 C 206.033 2.92231 1.12116 0
M  V30 2183 C 206.508 4.35559 1.41608 0
M  V30 2184 N 207.999 4.38753 1.48491 0
M  V30 2185 C 208.734 5.46705 1.7292 0
M  V30 2186 N 208.23 6.64788 1.95011 0
M  V30 2187 N 210.023 5.34209 1.74863 0
M  V30 2188 H 202.174 2.09168 -0.369098 0
M  V30 2189 H 204.437 0.942409 -0.102809 0
M  V30 2190 H 204.143 3.5106 0.212081 0
M  V30 2191 H 204.017 3.23462 1.94042 0
M  V30 2192 H 206.404 2.24304 1.9176 0
M  V30 2193 H 206.485 2.55185 0.177225 0
M  V30 2194 H 206.129 5.04042 0.624848 0
M  V30 2195 H 206.059 4.70133 2.37239 0
M  V30 2196 H 208.55 3.5363 1.33244 0
M  V30 2197 H 208.863 7.42845 2.13076 0
M  V30 2198 H 207.208 6.67869 1.92293 0
M  V30 2199 H 210.399 4.40937 1.57137 0
M  V30 2200 H 210.572 6.18415 1.93563 0
M  V30 2201 N 203.978 -0.674533 1.42435 0
M  V30 2202 C 204.908 -1.80009 1.48724 0
M  V30 2203 C 205.889 -1.6659 0.343793 0
M  V30 2204 O 207.074 -1.86007 0.558137 0
M  V30 2205 C 204.204 -3.18306 1.38919 0
M  V30 2206 C 203.158 -3.46461 2.51294 0
M  V30 2207 C 202.484 -4.84335 2.26547 0
M  V30 2208 C 203.784 -3.43328 3.93603 0
M  V30 2209 H 205.478 -1.75004 2.42928 0
M  V30 2210 H 203.024 -0.840533 1.16923 0
M  V30 2211 H 204.977 -3.9678 1.41927 0
M  V30 2212 H 203.701 -3.2399 0.412094 0
M  V30 2213 H 202.36 -2.70348 2.47604 0
M  V30 2214 H 202.008 -4.86669 1.2713 0
M  V30 2215 H 201.708 -5.04136 3.01861 0
M  V30 2216 H 203.232 -5.65094 2.31304 0
M  V30 2217 H 204.646 -4.11772 3.98894 0
M  V30 2218 H 203.043 -3.74664 4.68771 0
M  V30 2219 H 204.113 -2.41897 4.20255 0
M  V30 2220 N 205.456 -1.28612 -0.910864 0
M  V30 2221 C 206.705 -1.15311 -1.65488 0
M  V30 2222 C 207.018 0.296999 -1.93332 0
M  V30 2223 O 208.224 0.551168 -2.65847 0
M  V30 2224 C 206.68 -2.01599 -2.98137 0
M  V30 2225 C 206.288 -3.51367 -2.7793 0
M  V30 2226 C 208.032 -1.96993 -3.76024 0
M  V30 2227 C 205.939 -4.29797 -4.06237 0
M  V30 2228 H 204.869 -0.42796 -0.620779 0
M  V30 2229 H 207.52 -1.53166 -1.01057 0
M  V30 2230 H 205.902 -1.56603 -3.63719 0
M  V30 2231 H 207.076 -4.0434 -2.21011 0
M  V30 2232 H 205.391 -3.57529 -2.13452 0
M  V30 2233 H 207.988 -2.52856 -4.71135 0
M  V30 2234 H 208.331 -0.94733 -4.05378 0
M  V30 2235 H 208.864 -2.39973 -3.17266 0
M  V30 2236 H 205.603 -5.32648 -3.82055 0
M  V30 2237 H 205.123 -3.81596 -4.62757 0
M  V30 2238 H 206.802 -4.39869 -4.74473 0
M  V30 2239 N 206.934 1.1197 -1.10907 0
M  V30 2240 C 208.345 1.65114 -0.871446 0
M  V30 2241 C 208.696 1.86885 0.597353 0
M  V30 2242 O 207.821 1.59896 1.45816 0
M  V30 2243 C 208.416 2.99944 -1.5754 0
M  V30 2244 C 206.975 3.50018 -1.38435 0
M  V30 2245 C 206.122 2.24941 -1.62164 0
M  V30 2246 H 209.073 0.956851 -1.2661 0
M  V30 2247 H 209.094 3.66651 -1.01721 0
M  V30 2248 H 208.606 2.84067 -2.64438 0
M  V30 2249 H 206.707 3.71071 -0.337214 0
M  V30 2250 H 206.82 4.29165 -2.12965 0
M  V30 2251 H 205.184 2.3229 -1.04467 0
M  V30 2252 H 205.967 2.11612 -2.70324 0
M  V30 2253 N 208.412 0.89855 1.29475 0
M  V30 2254 C 209.375 0.380272 2.26023 0
M  V30 2255 C 210.375 -0.484891 1.53315 0
M  V30 2256 O 211.565 -0.290108 1.71767 0
M  V30 2257 C 208.697 -0.45651 3.3783 0
M  V30 2258 H 209.89 1.23295 2.73383 0
M  V30 2259 H 207.443 0.676589 1.40897 0
M  V30 2260 H 208.178 -1.32922 2.95808 0
M  V30 2261 H 207.963 0.163393 3.91759 0
M  V30 2262 H 209.453 -0.810466 4.0966 0
M  V30 2263 N 209.89 -1.43072 0.660911 0
M  V30 2264 C 211.138 -2.01323 0.177094 0
M  V30 2265 C 211.459 -1.5245 -1.2159 0
M  V30 2266 O 210.729 -0.740322 -1.81373 0
M  V30 2267 H 209.309 -0.744382 0.0624804 0
M  V30 2268 H 211.971 -1.75179 0.854305 0
M  V30 2269 H 211.067 -3.11649 0.167641 0
M  V30 2270 N 211.368 -0.403325 -1.52352 0
M  V30 2271 C 212.779 0.0675782 -1.86578 0
M  V30 2272 C 213.13 1.44941 -1.32236 0
M  V30 2273 O 212.255 2.06112 -0.659307 0
M  V30 2274 C 212.85 0.129404 -3.38553 0
M  V30 2275 C 211.409 0.544629 -3.72439 0
M  V30 2276 C 210.556 -0.284551 -2.75836 0
M  V30 2277 H 213.507 -0.620631 -1.46061 0
M  V30 2278 H 213.528 0.94581 -3.68558 0
M  V30 2279 H 213.04 -0.87645 -3.78074 0
M  V30 2280 H 211.141 1.55734 -3.38493 0
M  V30 2281 H 211.254 0.293046 -4.78203 0
M  V30 2282 H 209.618 0.252258 -2.53448 0
M  V30 2283 H 210.401 -1.28865 -3.18196 0
M  V30 2284 N 212.846 1.57033 -0.133567 0
M  V30 2285 C 214.095 1.94861 0.520768 0
M  V30 2286 C 214.408 1.02012 1.66892 0
M  V30 2287 O 215.614 1.29365 2.38699 0
M  V30 2288 C 214.07 3.46362 0.977809 0
M  V30 2289 C 213.678 4.47773 -0.142674 0
M  V30 2290 C 215.422 3.93083 1.60269 0
M  V30 2291 C 213.329 5.90468 0.331883 0
M  V30 2292 H 212.259 0.727453 0.198315 0
M  V30 2293 H 214.91 1.82227 -0.215759 0
M  V30 2294 H 213.292 3.54282 1.7692 0
M  V30 2295 H 214.466 4.51536 -0.919317 0
M  V30 2296 H 212.781 4.10891 -0.675124 0
M  V30 2297 H 215.378 4.97121 1.96914 0
M  V30 2298 H 215.721 3.33876 2.48662 0
M  V30 2299 H 216.254 3.88025 0.876453 0
M  V30 2300 H 212.993 6.53463 -0.516341 0
M  V30 2301 H 212.513 5.90094 1.07469 0
M  V30 2302 H 214.192 6.42179 0.788332 0
M  V30 2303 N 214.325 -0.140222 1.56975 0
M  V30 2304 C 215.553 -0.866437 1.87884 0
M  V30 2305 C 215.968 -1.74428 0.722517 0
M  V30 2306 O 215.325 -1.79891 -0.30749 0
M  V30 2307 C 215.376 -1.71753 3.18093 0
M  V30 2308 O 215.097 -0.875056 4.29272 0
M  V30 2309 C 216.598 -2.55074 3.62563 0
M  V30 2310 H 213.818 -0.25019 0.622612 0
M  V30 2311 H 216.362 -0.130977 2.0408 0
M  V30 2312 H 214.517 -2.40598 3.03631 0
M  V30 2313 H 214.931 -1.46002 5.03769 0
M  V30 2314 H 216.405 -3.10356 4.5649 0
M  V30 2315 H 216.882 -3.31434 2.88181 0
M  V30 2316 H 217.488 -1.91509 3.79743 0
M  V30 2317 N 215.803 -1.52179 -0.40978 0
M  V30 2318 C 216.735 -1.71703 -1.51825 0
M  V30 2319 C 217.748 -0.597445 -1.51441 0
M  V30 2320 O 218.937 -0.872582 -1.55719 0
M  V30 2321 C 216.037 -1.74171 -2.90719 0
M  V30 2322 C 215.21 -3.03156 -3.15302 0
M  V30 2323 C 214.269 -2.97445 -4.34065 0
M  V30 2324 O 213.295 -3.71352 -4.31377 0
M  V30 2325 N 214.497 -2.15191 -5.39141 0
M  V30 2326 H 217.262 -2.67334 -1.35472 0
M  V30 2327 H 214.823 -1.50409 -0.599069 0
M  V30 2328 H 216.815 -1.67884 -3.68235 0
M  V30 2329 H 215.385 -0.860166 -3.00533 0
M  V30 2330 H 214.605 -3.23097 -2.25836 0
M  V30 2331 H 215.893 -3.88484 -3.28569 0
M  V30 2332 H 215.291 -1.54573 -5.44173 0
M  V30 2333 H 213.848 -2.1476 -6.15403 0
M  V30 2334 N 217.281 0.66697 -1.42791 0
M  V30 2335 C 218.529 1.42417 -1.43394 0
M  V30 2336 C 218.85 1.94925 -0.0542373 0
M  V30 2337 O 218.12 1.73564 0.908415 0
M  V30 2338 H 216.7 0.528515 -0.527902 0
M  V30 2339 H 219.362 0.787562 -1.78279 0
M  V30 2340 H 218.458 2.27333 -2.13837 0
M  V30 2341 N 218.759 1.29093 0.90403 0
M  V30 2342 C 219.987 1.19689 1.68766 0
M  V30 2343 C 220.402 -0.243113 1.87228 0
M  V30 2344 O 219.759 -1.16326 1.40621 0
M  V30 2345 C 219.81 1.90144 3.07453 0
M  V30 2346 O 219.531 3.2852 2.89838 0
M  V30 2347 C 221.032 1.87162 4.01852 0
M  V30 2348 H 218.252 0.415035 0.527244 0
M  V30 2349 H 220.796 1.7039 1.13082 0
M  V30 2350 H 218.951 1.43289 3.59926 0
M  V30 2351 H 219.365 3.63944 3.77684 0
M  V30 2352 H 220.839 2.41032 4.96596 0
M  V30 2353 H 221.316 0.84617 4.30972 0
M  V30 2354 H 221.922 2.33741 3.5531 0
M  V30 2355 N 220.237 -1.11381 1.11499 0
M  V30 2356 C 221.465 -1.86934 0.88675 0
M  V30 2357 C 221.88 -1.80195 -0.563476 0
M  V30 2358 O 221.237 -1.18367 -1.38908 0
M  V30 2359 C 221.288 -3.35722 1.34064 0
M  V30 2360 O 221.009 -3.4232 2.73401 0
M  V30 2361 C 222.51 -4.2818 1.14791 0
M  V30 2362 H 219.73 -0.591117 0.317523 0
M  V30 2363 H 222.274 -1.40865 1.48248 0
M  V30 2364 H 220.429 -3.79294 0.788355 0
M  V30 2365 H 220.843 -4.34971 2.93087 0
M  V30 2366 H 222.317 -5.30817 1.5145 0
M  V30 2367 H 222.794 -4.39113 0.0875279 0
M  V30 2368 H 223.4 -3.90402 1.68721 0
M  V30 2369 N 221.715 -0.905404 -1.28997 0
M  V30 2370 C 222.961 -0.535039 -1.95615 0
M  V30 2371 C 223.294 0.917404 -1.71165 0
M  V30 2372 O 222.569 1.65123 -1.02785 0
M  V30 2373 C 222.852 -0.834918 -3.50287 0
M  V30 2374 C 222.705 -2.33948 -3.84172 0
M  V30 2375 C 224.024 -0.325318 -4.38896 0
M  V30 2376 H 221.143 -0.195861 -0.710498 0
M  V30 2377 H 223.785 -1.13313 -1.52513 0
M  V30 2378 H 221.935 -0.325904 -3.87131 0
M  V30 2379 H 223.607 -2.91847 -3.57243 0
M  V30 2380 H 221.85 -2.79789 -3.31513 0
M  V30 2381 H 222.521 -2.49987 -4.92149 0
M  V30 2382 H 224.997 -0.761256 -4.09077 0
M  V30 2383 H 223.873 -0.564295 -5.45992 0
M  V30 2384 H 224.134 0.774144 -4.35269 0
M  V30 2385 N 223.193 1.4272 -0.668489 0
M  V30 2386 C 224.418 2.06484 -0.194758 0
M  V30 2387 C 224.843 1.49862 1.13679 0
M  V30 2388 O 224.201 0.614582 1.70565 0
M  V30 2389 C 224.249 3.60353 -0.133546 0
M  V30 2390 O 223.353 4.02464 0.899806 0
M  V30 2391 H 222.694 0.656137 -0.10188 0
M  V30 2392 H 225.224 1.82964 -0.915722 0
M  V30 2393 H 225.234 4.07976 0.0447041 0
M  V30 2394 H 223.909 4.00938 -1.1055 0
M  V30 2395 H 222.486 3.66402 0.693109 0
M  V30 2396 N 224.671 0.411399 1.52136 0
M  V30 2397 C 225.634 -0.401089 2.25663 0
M  V30 2398 C 226.634 -0.971732 1.28117 0
M  V30 2399 O 227.824 -0.850254 1.52041 0
M  V30 2400 C 224.956 -1.56483 3.02863 0
M  V30 2401 H 226.149 0.24295 2.98914 0
M  V30 2402 H 223.702 0.163968 1.55438 0
M  V30 2403 H 224.437 -2.24567 2.33967 0
M  V30 2404 H 224.222 -1.16211 3.74483 0
M  V30 2405 H 225.712 -2.13951 3.58629 0
M  V30 2406 N 226.149 -1.5696 0.141893 0
M  V30 2407 C 227.379 -2.00031 -0.516828 0
M  V30 2408 C 227.787 -1.02091 -1.59293 0
M  V30 2409 O 227.13 -0.00909657 -1.83698 0
M  V30 2410 C 227.192 -3.39534 -1.1814 0
M  V30 2411 C 226.856 -4.56313 -0.250513 0
M  V30 2412 C 227.853 -5.17295 0.519839 0
M  V30 2413 C 225.538 -5.02061 -0.154907 0
M  V30 2414 C 227.532 -6.2243 1.3733 0
M  V30 2415 C 225.219 -6.07053 0.702161 0
M  V30 2416 C 226.217 -6.67106 1.46487 0
M  V30 2417 O 225.905 -7.70066 2.30767 0
M  V30 2418 H 225.637 -0.661451 -0.139493 0
M  V30 2419 H 228.191 -2.04086 0.231926 0
M  V30 2420 H 226.421 -3.32302 -1.97769 0
M  V30 2421 H 228.11 -3.66745 -1.73933 0
M  V30 2422 H 228.876 -4.82852 0.45598 0
M  V30 2423 H 224.755 -4.5505 -0.7383 0
M  V30 2424 H 228.299 -6.69233 1.96909 0
M  V30 2425 H 224.196 -6.40923 0.76733 0
M  V30 2426 H 224.964 -7.87264 2.23959 0
M  V30 2427 N 227.627 0.131896 -1.57047 0
M  V30 2428 C 228.873 0.843179 -1.84441 0
M  V30 2429 C 229.206 1.80129 -0.725749 0
M  V30 2430 O 228.481 1.92624 0.269469 0
M  V30 2431 C 228.764 1.60442 -3.22382 0
M  V30 2432 C 228.617 0.666782 -4.4483 0
M  V30 2433 C 229.936 2.56354 -3.5773 0
M  V30 2434 H 227.055 0.305081 -0.670891 0
M  V30 2435 H 229.697 0.107839 -1.89694 0
M  V30 2436 H 227.847 2.23128 -3.18035 0
M  V30 2437 H 229.519 0.0497646 -4.61273 0
M  V30 2438 H 227.762 -0.022609 -4.33794 0
M  V30 2439 H 228.433 1.23579 -5.37989 0
M  V30 2440 H 230.909 2.0378 -3.62785 0
M  V30 2441 H 229.785 3.06657 -4.5525 0
M  V30 2442 H 230.046 3.38419 -2.84473 0
M  V30 2443 N 229.106 1.52395 0.401703 0
M  V30 2444 C 230.069 1.75636 1.47257 0
M  V30 2445 C 231.069 0.62628 1.48103 0
M  V30 2446 O 232.259 0.894227 1.49497 0
M  V30 2447 C 229.391 1.84553 2.86624 0
M  V30 2448 H 230.584 2.71241 1.27938 0
M  V30 2449 H 228.137 1.42923 0.632662 0
M  V30 2450 H 228.872 0.908882 3.11303 0
M  V30 2451 H 228.657 2.66715 2.87412 0
M  V30 2452 H 230.147 2.04251 3.64241 0
M  V30 2453 N 230.584 -0.659388 1.43143 0
M  V30 2454 C 231.531 -1.77249 1.47822 0
M  V30 2455 C 232.501 -1.62818 0.328558 0
M  V30 2456 O 233.686 -1.83151 0.534838 0
M  V30 2457 C 230.826 -3.15371 1.40126 0
M  V30 2458 C 229.939 -3.4098 2.65249 0
M  V30 2459 C 229.074 -4.68915 2.49584 0
M  V30 2460 C 228.113 -4.87608 3.70006 0
M  V30 2461 N 227.25 -6.06796 3.53189 0
M  V30 2462 H 232.09 -1.72584 2.42938 0
M  V30 2463 H 229.627 -0.842297 1.20598 0
M  V30 2464 H 231.585 -3.9521 1.33659 0
M  V30 2465 H 230.215 -3.19121 0.485964 0
M  V30 2466 H 229.267 -2.55282 2.8202 0
M  V30 2467 H 230.579 -3.50681 3.54717 0
M  V30 2468 H 229.733 -5.56871 2.4079 0
M  V30 2469 H 228.472 -4.61524 1.5763 0
M  V30 2470 H 227.477 -3.9809 3.79215 0
M  V30 2471 H 228.702 -4.96834 4.62961 0
M  V30 2472 H 226.648 -6.00549 2.63965 0
M  V30 2473 H 226.565 -6.17428 4.36255 0
M  V30 2474 H 227.833 -6.9739 3.48236 0
M  V30 2475 N 232.062 -1.29571 -0.897171 0
M  V30 2476 C 233.287 -1.20705 -1.68656 0
M  V30 2477 C 233.712 0.228582 -1.86706 0
M  V30 2478 O 233.07 1.16494 -1.3892 0
M  V30 2479 C 233.118 -1.9282 -3.04717 0
M  V30 2480 O 232.222 -1.24697 -3.93096 0
M  V30 2481 H 231.563 -0.418126 -0.515816 0
M  V30 2482 H 234.093 -1.71183 -1.12061 0
M  V30 2483 H 234.103 -2.01372 -3.54843 0
M  V30 2484 H 232.778 -2.97239 -2.90899 0
M  V30 2485 H 231.355 -1.2442 -3.51531 0
M  V30 2486 N 233.54 1.10788 -1.12088 0
M  V30 2487 C 234.956 1.34691 -0.856186 0
M  V30 2488 C 235.156 1.94791 0.515615 0
M  V30 2489 O 234.212 2.18524 1.26505 0
M  V30 2490 C 235.525 2.27208 -1.9697 0
M  V30 2491 C 237.073 2.40755 -2.00016 0
M  V30 2492 C 237.548 3.36598 -3.1059 0
M  V30 2493 N 239.039 3.44164 -3.10008 0
M  V30 2494 C 239.774 4.18284 -3.92206 0
M  V30 2495 N 239.27 4.95322 -4.84384 0
M  V30 2496 N 241.063 4.13865 -3.80357 0
M  V30 2497 H 233.214 0.70144 -2.00483 0
M  V30 2498 H 235.477 0.371405 -0.872217 0
M  V30 2499 H 235.183 1.90251 -2.958 0
M  V30 2500 H 235.057 3.27485 -1.87172 0
M  V30 2501 H 237.444 2.76982 -1.01808 0
M  V30 2502 H 237.525 1.40305 -2.13888 0
M  V30 2503 H 237.169 3.01096 -4.09028 0
M  V30 2504 H 237.099 4.36918 -2.93956 0
M  V30 2505 H 239.59 2.8922 -2.43228 0
M  V30 2506 H 239.903 5.49267 -5.43623 0
M  V30 2507 H 238.248 4.94459 -4.884 0
M  V30 2508 H 241.439 3.52773 -3.07683 0
M  V30 2509 H 241.612 4.71372 -4.44649 0
M  V30 2510 N 235.018 0.912232 1.28515 0
M  V30 2511 C 235.965 0.397954 2.27343 0
M  V30 2512 C 236.935 -0.526766 1.57526 0
M  V30 2513 O 238.12 -0.449292 1.85435 0
M  V30 2514 C 235.26 -0.357263 3.43246 0
M  V30 2515 C 234.373 0.599788 4.27816 0
M  V30 2516 C 233.508 -0.173725 5.30916 0
M  V30 2517 C 232.547 0.777039 6.07148 0
M  V30 2518 N 231.684 0.0371398 7.0209 0
M  V30 2519 H 236.524 1.24577 2.70711 0
M  V30 2520 H 234.061 0.625612 1.33133 0
M  V30 2521 H 236.019 -0.8113 4.09236 0
M  V30 2522 H 234.649 -1.16943 3.00872 0
M  V30 2523 H 233.701 1.17235 3.61884 0
M  V30 2524 H 235.013 1.32704 4.80823 0
M  V30 2525 H 234.167 -0.688394 6.02782 0
M  V30 2526 H 232.906 -0.934041 4.78672 0
M  V30 2527 H 231.911 1.3031 5.34134 0
M  V30 2528 H 233.136 1.53689 6.61481 0
M  V30 2529 H 231.082 -0.705213 6.52198 0
M  V30 2530 H 230.999 0.704249 7.52713 0
M  V30 2531 H 232.267 -0.457383 7.78157 0
M  V30 2532 N 236.496 -1.42363 0.676048 0
M  V30 2533 C 237.724 -2.05859 0.207268 0
M  V30 2534 C 238.139 -1.50796 -1.13605 0
M  V30 2535 O 237.496 -0.648265 -1.70598 0
M  V30 2536 C 237.547 -3.61248 0.134975 0
M  V30 2537 O 237.268 -4.1427 1.42521 0
M  V30 2538 C 238.769 -4.41859 -0.357151 0
M  V30 2539 H 235.989 -0.663431 0.100503 0
M  V30 2540 H 238.533 -1.82479 0.923136 0
M  V30 2541 H 236.688 -3.83735 -0.531588 0
M  V30 2542 H 237.102 -5.0815 1.29939 0
M  V30 2543 H 238.576 -5.50847 -0.356641 0
M  V30 2544 H 239.053 -4.16536 -1.39264 0
M  V30 2545 H 239.659 -4.24392 0.27772 0
M  V30 2546 N 237.974 -0.419461 -1.51915 0
M  V30 2547 C 238.904 0.391813 -2.30189 0
M  V30 2548 C 239.885 1.03699 -1.34836 0
M  V30 2549 O 241.07 1.04403 -1.63748 0
M  V30 2550 C 238.2 1.50312 -3.13087 0
M  V30 2551 C 237.154 0.9824 -4.16573 0
M  V30 2552 C 236.48 2.18809 -4.8788 0
M  V30 2553 C 237.78 0.0292356 -5.22292 0
M  V30 2554 H 239.474 -0.26135 -2.98257 0
M  V30 2555 H 237.02 -0.127134 -1.43438 0
M  V30 2556 H 238.973 2.07773 -3.66617 0
M  V30 2557 H 237.697 2.18431 -2.42807 0
M  V30 2558 H 236.356 0.430119 -3.64068 0
M  V30 2559 H 236.004 2.85507 -4.14119 0
M  V30 2560 H 235.704 1.84615 -5.57845 0
M  V30 2561 H 237.228 2.76858 -5.44226 0
M  V30 2562 H 238.642 0.512976 -5.71 0
M  V30 2563 H 237.039 -0.2244 -5.9968 0
M  V30 2564 H 238.109 -0.912931 -4.76228 0
M  V30 2565 N 239.452 1.56882 -0.150215 0
M  V30 2566 C 240.382 2.19935 0.784284 0
M  V30 2567 C 241.363 1.14854 1.25469 0
M  V30 2568 O 242.548 1.43209 1.31168 0
M  V30 2569 C 239.678 2.82349 2.02229 0
M  V30 2570 C 238.632 3.93285 1.68853 0
M  V30 2571 C 237.958 4.42649 2.99944 0
M  V30 2572 C 239.258 5.13904 0.932714 0
M  V30 2573 H 240.952 2.9828 0.258781 0
M  V30 2574 H 238.498 1.43473 0.123029 0
M  V30 2575 H 240.451 3.25126 2.68088 0
M  V30 2576 H 239.175 2.0134 2.57157 0
M  V30 2577 H 237.834 3.5113 1.05371 0
M  V30 2578 H 237.482 3.58458 3.52869 0
M  V30 2579 H 237.182 5.17476 2.78374 0
M  V30 2580 H 238.706 4.88099 3.66868 0
M  V30 2581 H 240.12 5.53506 1.49345 0
M  V30 2582 H 238.517 5.94515 0.81684 0
M  V30 2583 H 239.587 4.84842 -0.0749568 0
M  V30 2584 N 240.93 -0.123565 1.57115 0
M  V30 2585 C 242.176 -0.833386 1.84885 0
M  V30 2586 C 242.509 -1.79742 0.735292 0
M  V30 2587 O 241.784 -1.92764 -0.25925 0
M  V30 2588 C 242.067 -1.5873 3.23228 0
M  V30 2589 C 241.92 -0.643183 4.45178 0
M  V30 2590 C 243.239 -2.54453 3.59085 0
M  V30 2591 H 240.358 -0.301518 0.6725 0
M  V30 2592 H 243 -0.097778 1.89748 0
M  V30 2593 H 241.15 -2.21438 3.19214 0
M  V30 2594 H 242.822 -0.0253015 4.61293 0
M  V30 2595 H 241.065 0.0456139 4.33776 0
M  V30 2596 H 241.736 -1.20724 5.38637 0
M  V30 2597 H 244.212 -2.01853 3.63861 0
M  V30 2598 H 243.088 -3.04238 4.5687 0
M  V30 2599 H 243.349 -3.36906 2.86264 0
M  V30 2600 N 242.408 -1.52605 -0.393616 0
M  V30 2601 C 243.318 -1.79971 -1.50492 0
M  V30 2602 C 244.334 -0.686181 -1.59899 0
M  V30 2603 O 245.51 -0.973274 -1.76322 0
M  V30 2604 C 242.575 -1.95867 -2.86072 0
M  V30 2605 C 241.636 -3.19781 -2.86424 0
M  V30 2606 C 240.869 -3.34909 -4.15538 0
M  V30 2607 O 241.092 -2.54948 -5.10253 0
M  V30 2608 O 240.026 -4.28141 -4.23059 0
M  V30 2609 H 243.852 -2.74328 -1.30299 0
M  V30 2610 H 241.437 -1.3764 -0.581005 0
M  V30 2611 H 243.319 -2.08056 -3.66457 0
M  V30 2612 H 241.994 -1.04699 -3.063 0
M  V30 2613 H 240.901 -3.13038 -2.04837 0
M  V30 2614 H 242.234 -4.1078 -2.71147 0
M  V30 2615 N 243.887 0.651787 -1.4349 0
M  V30 2616 C 245.164 1.40909 -1.35661 0
M  V30 2617 C 245.544 2.11099 -0.00511733 0
M  V30 2618 O 244.892 2.04892 1.0115 0
M  V30 2619 C 245.102 2.3926 -2.54078 0
M  V30 2620 C 246.45 3.03217 -2.97228 0
M  V30 2621 O 247.474 2.49588 -2.54135 0
M  V30 2622 O 246.333 4.00455 -3.71885 0
M  V30 2623 H 243.427 0.629625 -0.536191 0
M  V30 2624 H 245.973 0.678575 -1.55542 0
M  V30 2625 H 244.745 1.86352 -3.44076 0
M  V30 2626 H 244.368 3.1976 -2.36303 0
M  V30 2627 N 245.365 1.30045 0.890287 0
M  V30 2628 C 246.614 1.17929 1.63633 0
M  V30 2629 C 246.927 -0.266204 1.9378 0
M  V30 2630 O 248.133 -0.508804 2.6669 0
M  V30 2631 C 246.589 2.06317 2.94892 0
M  V30 2632 C 246.197 3.55745 2.72305 0
M  V30 2633 C 247.941 2.0295 3.72843 0
M  V30 2634 C 245.848 4.36205 3.99348 0
M  V30 2635 H 244.778 0.437782 0.613892 0
M  V30 2636 H 247.429 1.54754 0.986075 0
M  V30 2637 H 245.811 1.6237 3.61182 0
M  V30 2638 H 246.985 4.07805 2.1455 0
M  V30 2639 H 245.3 3.6088 2.07737 0
M  V30 2640 H 247.897 2.60319 4.67053 0
M  V30 2641 H 248.24 1.0117 4.0382 0
M  V30 2642 H 248.773 2.4499 3.13408 0
M  V30 2643 H 245.512 5.38659 3.73533 0
M  V30 2644 H 245.032 3.8891 4.56628 0
M  V30 2645 H 246.711 4.47362 4.67415 0
M  V30 2646 N 246.843 -1.10192 1.12674 0
M  V30 2647 C 247.773 -2.18652 0.819362 0
M  V30 2648 C 248.754 -1.68698 -0.217915 0
M  V30 2649 O 249.939 -1.94041 -0.0785581 0
M  V30 2650 C 247.069 -3.46202 0.27594 0
M  V30 2651 C 246.023 -4.09444 1.24656 0
M  V30 2652 C 245.349 -5.31725 0.563258 0
M  V30 2653 C 246.649 -4.52863 2.60217 0
M  V30 2654 H 248.343 -2.44622 1.72628 0
M  V30 2655 H 245.889 -1.17571 0.831451 0
M  V30 2656 H 247.842 -4.21372 0.0486149 0
M  V30 2657 H 246.566 -3.1973 -0.666331 0
M  V30 2658 H 245.225 -3.36284 1.45974 0
M  V30 2659 H 244.873 -5.0153 -0.384235 0
M  V30 2660 H 244.573 -5.74991 1.21075 0
M  V30 2661 H 246.097 -6.09624 0.34503 0
M  V30 2662 H 247.511 -5.19294 2.42913 0
M  V30 2663 H 245.908 -5.06986 3.21068 0
M  V30 2664 H 246.978 -3.65656 3.18471 0
M  V30 2665 N 248.321 -0.919034 -1.28029 0
M  V30 2666 C 249.569 -0.553838 -1.94363 0
M  V30 2667 C 249.89 0.906357 -1.72656 0
M  V30 2668 O 249.16 1.64143 -1.0693 0
M  V30 2669 H 247.74 -0.201834 -0.719216 0
M  V30 2670 H 250.402 -1.16954 -1.55909 0
M  V30 2671 H 249.498 -0.752758 -3.02886 0
M  V30 2672 N 249.799 1.42003 -0.683588 0
M  V30 2673 C 251.076 1.95112 -0.138075 0
M  V30 2674 C 251.456 1.62359 1.34918 0
M  V30 2675 O 250.804 0.924311 2.08971 0
M  V30 2676 C 251.014 3.46505 -0.416581 0
M  V30 2677 C 252.362 4.23254 -0.337834 0
M  V30 2678 O 253.386 3.54468 -0.35082 0
M  V30 2679 O 252.245 5.45743 -0.287596 0
M  V30 2680 H 249.339 0.826961 -0.00797996 0
M  V30 2681 H 251.885 1.51784 -0.758924 0
M  V30 2682 H 250.657 3.63582 -1.4465 0
M  V30 2683 H 250.28 3.969 0.235839 0
M  V30 2684 N 251.277 0.427512 1.51691 0
M  V30 2685 C 252.187 -0.39527 2.31246 0
M  V30 2686 C 253.203 -1.03674 1.39742 0
M  V30 2687 O 254.379 -1.03425 1.72816 0
M  V30 2688 C 251.444 -1.48706 3.13189 0
M  V30 2689 C 250.505 -0.866743 4.20459 0
M  V30 2690 C 249.738 -1.90651 4.98486 0
M  V30 2691 O 249.961 -3.12733 4.77026 0
M  V30 2692 O 248.895 -1.5025 5.82845 0
M  V30 2693 H 252.721 0.253918 3.02637 0
M  V30 2694 H 250.306 0.190274 1.48183 0
M  V30 2695 H 252.188 -2.12047 3.64162 0
M  V30 2696 H 250.863 -2.12051 2.44573 0
M  V30 2697 H 249.77 -0.195544 3.73589 0
M  V30 2698 H 251.103 -0.276934 4.9142 0
M  V30 2699 N 252.755 -1.56801 0.158532 0
M  V30 2700 C 254.171 -1.5837 -0.197774 0
M  V30 2701 C 254.371 -1.17334 -1.63814 0
M  V30 2702 O 253.427 -0.878988 -2.36707 0
M  V30 2703 C 254.74 -3.00615 0.0714459 0
M  V30 2704 C 256.288 -3.12999 0.00864533 0
M  V30 2705 C 256.763 -4.57313 0.250685 0
M  V30 2706 N 258.254 -4.62777 0.198014 0
M  V30 2707 C 258.989 -5.72271 0.359642 0
M  V30 2708 N 258.485 -6.90371 0.579625 0
M  V30 2709 N 260.278 -5.61318 0.296438 0
M  V30 2710 H 252.429 -1.81765 1.09887 0
M  V30 2711 H 254.692 -0.841849 0.435884 0
M  V30 2712 H 254.398 -3.35068 1.06874 0
M  V30 2713 H 254.272 -3.71683 -0.642757 0
M  V30 2714 H 256.659 -2.7838 -0.979217 0
M  V30 2715 H 256.74 -2.44393 0.755359 0
M  V30 2716 H 256.384 -4.92639 1.2357 0
M  V30 2717 H 256.314 -5.24061 -0.516489 0
M  V30 2718 H 258.805 -3.77885 0.0331115 0
M  V30 2719 H 259.118 -7.69689 0.69275 0
M  V30 2720 H 257.463 -6.92264 0.616087 0
M  V30 2721 H 260.654 -4.67932 0.125258 0
M  V30 2722 H 260.827 -6.46599 0.425831 0
M  V30 2723 N 254.233 0.115231 -1.57178 0
M  V30 2724 C 255.48 0.822351 -1.8505 0
M  V30 2725 C 255.808 1.79701 -0.744168 0
M  V30 2726 O 255.063 1.93909 0.26414 0
M  V30 2727 C 255.362 1.60324 -3.19423 0
M  V30 2728 C 255.028 0.772536 -4.44233 0
M  V30 2729 C 253.69 0.543468 -4.78121 0
M  V30 2730 C 256.042 0.193746 -5.2084 0
M  V30 2731 C 253.37 -0.274583 -5.86057 0
M  V30 2732 C 255.722 -0.611517 -6.29637 0
M  V30 2733 C 254.386 -0.850867 -6.62055 0
M  V30 2734 H 253.656 0.30092 -0.677147 0
M  V30 2735 H 256.303 0.0845802 -1.91313 0
M  V30 2736 H 254.608 2.41203 -3.08753 0
M  V30 2737 H 256.305 2.1544 -3.38211 0
M  V30 2738 H 252.895 0.96117 -4.17683 0
M  V30 2739 H 257.079 0.357926 -4.95008 0
M  V30 2740 H 252.335 -0.469206 -6.09597 0
M  V30 2741 H 256.509 -1.06697 -6.88178 0
M  V30 2742 H 254.136 -1.48657 -7.45523 0
M  V30 2743 N 255.711 1.52812 0.385517 0
M  V30 2744 C 257.122 1.5993 0.963293 0
M  V30 2745 C 257.473 0.454302 1.90868 0
M  V30 2746 O 256.598 -0.422132 2.12243 0
M  V30 2747 C 257.193 2.89871 1.75387 0
M  V30 2748 C 255.752 2.99389 2.28129 0
M  V30 2749 C 254.899 2.55071 1.08783 0
M  V30 2750 H 257.85 1.5784 0.164948 0
M  V30 2751 H 257.871 2.76553 2.61341 0
M  V30 2752 H 257.383 3.73186 1.06554 0
M  V30 2753 H 255.484 2.20619 3.00263 0
M  V30 2754 H 255.597 4.04096 2.57377 0
M  V30 2755 H 253.961 2.09473 1.4489 0
M  V30 2756 H 254.744 3.40785 0.414807 0
M  V30 2757 N 257.189 -0.644168 1.43834 0
M  V30 2758 C 258.605 -0.960875 1.27434 0
M  V30 2759 C 258.805 -2.00499 0.200618 0
M  V30 2760 O 257.861 -2.49018 -0.417906 0
M  V30 2761 C 259.174 -1.43653 2.64167 0
M  V30 2762 C 260.722 -1.55271 2.71772 0
M  V30 2763 C 261.197 -2.06224 4.08944 0
M  V30 2764 N 262.688 -2.13513 4.11055 0
M  V30 2765 C 263.423 -2.54081 5.14033 0
M  V30 2766 N 262.919 -2.9388 6.27381 0
M  V30 2767 N 264.712 -2.54101 5.01387 0
M  V30 2768 H 256.863 0.0465779 2.12349 0
M  V30 2769 H 259.126 -0.0417638 0.94708 0
M  V30 2770 H 258.832 -0.743706 3.43747 0
M  V30 2771 H 258.706 -2.40993 2.90176 0
M  V30 2772 H 261.093 -2.23653 1.92519 0
M  V30 2773 H 261.174 -0.563395 2.49519 0
M  V30 2774 H 260.818 -1.38441 4.88668 0
M  V30 2775 H 260.748 -3.06003 4.28567 0
M  V30 2776 H 263.239 -1.85493 3.29242 0
M  V30 2777 H 263.552 -3.2361 7.01781 0
M  V30 2778 H 261.897 -2.91663 6.30839 0
M  V30 2779 H 265.088 -2.22391 4.11898 0
M  V30 2780 H 265.261 -2.85394 5.81768 0
M  V30 2781 N 258.668 -1.30515 -0.883378 0
M  V30 2782 C 259.916 -1.19194 -1.63209 0
M  V30 2783 C 260.237 0.253205 -1.93349 0
M  V30 2784 O 259.507 1.17025 -1.57105 0
M  V30 2785 H 258.087 -0.438148 -0.605009 0
M  V30 2786 H 260.749 -1.63663 -1.05832 0
M  V30 2787 H 259.845 -1.75396 -2.58153 0
M  V30 2788 N 260.146 1.09593 -1.13257 0
M  V30 2789 C 261.374 1.855 -0.916378 0
M  V30 2790 C 261.789 1.81069 0.534738 0
M  V30 2791 O 261.146 1.20562 1.37007 0
M  V30 2792 C 261.197 3.33546 -1.39388 0
M  V30 2793 O 260.918 3.37927 -2.78813 0
M  V30 2794 C 262.419 4.26299 -1.21588 0
M  V30 2795 H 259.639 0.585991 -0.326887 0
M  V30 2796 H 262.183 1.38488 -1.5047 0
M  V30 2797 H 260.338 3.77992 -0.848597 0
M  V30 2798 H 260.752 4.30254 -2.9997 0
M  V30 2799 H 262.226 5.28341 -1.59876 0
M  V30 2800 H 262.703 4.38918 -0.157376 0
M  V30 2801 H 263.309 3.87668 -1.7491 0
M  V30 2802 N 261.624 0.925811 1.2754 0
M  V30 2803 C 262.872 0.564138 1.94067 0
M  V30 2804 C 263.193 -0.897188 1.73134 0
M  V30 2805 O 262.463 -1.63573 1.07799 0
M  V30 2806 H 261.043 0.205645 0.718136 0
M  V30 2807 H 263.705 1.1778 1.55287 0
M  V30 2808 H 262.801 0.76881 3.02483 0
M  V30 2809 N 263.102 -1.41638 0.69111 0
M  V30 2810 C 264.032 -2.3347 0.037248 0
M  V30 2811 C 265.013 -1.51575 -0.771947 0
M  V30 2812 O 266.198 -1.80126 -0.72582 0
M  V30 2813 C 263.328 -3.35354 -0.903064 0
M  V30 2814 C 262.282 -4.27526 -0.201288 0
M  V30 2815 C 261.608 -5.19747 -1.25565 0
M  V30 2816 C 262.908 -5.13959 0.929689 0
M  V30 2817 H 264.602 -2.88397 0.804227 0
M  V30 2818 H 262.148 -1.38669 0.388189 0
M  V30 2819 H 264.101 -3.98519 -1.36969 0
M  V30 2820 H 262.825 -2.78767 -1.70166 0
M  V30 2821 H 261.484 -3.65779 0.245265 0
M  V30 2822 H 261.132 -4.59479 -2.04666 0
M  V30 2823 H 260.832 -5.8225 -0.791128 0
M  V30 2824 H 262.356 -5.85789 -1.72288 0
M  V30 2825 H 263.77 -5.70718 0.543546 0
M  V30 2826 H 262.167 -5.85379 1.32103 0
M  V30 2827 H 263.237 -4.51389 1.77133 0
M  V30 2828 N 264.58 -0.43555 -1.51462 0
M  V30 2829 C 265.49 0.383001 -2.31453 0
M  V30 2830 C 266.506 1.02931 -1.4029 0
M  V30 2831 O 267.682 1.02507 -1.73362 0
M  V30 2832 C 264.747 1.47043 -3.13973 0
M  V30 2833 C 263.808 0.844433 -4.20913 0
M  V30 2834 C 263.041 1.88004 -4.9949 0
M  V30 2835 O 263.264 3.10199 -4.78678 0
M  V30 2836 O 262.198 1.47157 -5.83634 0
M  V30 2837 H 266.024 -0.269964 -3.02498 0
M  V30 2838 H 263.609 -0.19813 -1.4808 0
M  V30 2839 H 265.491 2.10113 -3.65281 0
M  V30 2840 H 264.166 2.10751 -2.45695 0
M  V30 2841 H 263.073 0.175729 -3.73687 0
M  V30 2842 H 264.406 0.250869 -4.9156 0
M  V30 2843 N 266.058 1.56714 -0.166846 0
M  V30 2844 C 267.283 2.01557 0.488833 0
M  V30 2845 C 267.708 1.0463 1.56314 0
M  V30 2846 O 267.066 0.0251304 1.81283 0
M  V30 2847 C 267.114 3.4503 1.04818 0
M  V30 2848 O 266.218 3.51163 2.16236 0
M  V30 2849 H 265.559 0.653516 0.117526 0
M  V30 2850 H 268.089 2.02818 -0.269421 0
M  V30 2851 H 268.099 3.84243 1.37191 0
M  V30 2852 H 266.774 4.15077 0.261572 0
M  V30 2853 H 265.351 3.23807 1.84942 0
M  V30 2854 N 267.536 -0.106894 1.57237 0
M  V30 2855 C 268.784 -0.810921 1.85117 0
M  V30 2856 C 269.105 -1.7984 0.753827 0
M  V30 2857 O 268.375 -1.94649 -0.221056 0
M  V30 2858 H 266.955 -0.302466 0.683025 0
M  V30 2859 H 269.617 -0.0913324 1.94686 0
M  V30 2860 H 268.713 -1.34875 2.81452 0
M  V30 2861 N 269.014 -1.53014 -0.377408 0
M  V30 2862 C 270.242 -1.72515 -1.14219 0
M  V30 2863 C 270.657 -0.448735 -1.8339 0
M  V30 2864 O 270.014 0.577592 -1.73119 0
M  V30 2865 C 270.065 -2.8826 -2.18148 0
M  V30 2866 O 269.786 -4.10962 -1.51795 0
M  V30 2867 C 271.287 -3.19536 -3.07264 0
M  V30 2868 H 268.507 -0.577301 -0.342001 0
M  V30 2869 H 271.051 -1.99712 -0.439935 0
M  V30 2870 H 269.206 -2.63492 -2.83991 0
M  V30 2871 H 269.62 -4.75693 -2.20945 0
M  V30 2872 H 271.094 -4.03959 -3.76193 0
M  V30 2873 H 271.571 -2.34403 -3.71419 0
M  V30 2874 H 272.177 -3.46186 -2.47053 0
M  V30 2875 N 270.492 0.636531 -1.44174 0
M  V30 2876 C 271.908 0.954104 -1.27941 0
M  V30 2877 C 272.108 2.0039 -0.211248 0
M  V30 2878 O 271.164 2.49236 0.404695 0
M  V30 2879 C 272.477 1.4225 -2.64925 0
M  V30 2880 C 274.025 1.53827 -2.72592 0
M  V30 2881 C 274.5 2.04053 -4.10032 0
M  V30 2882 N 275.991 2.11331 -4.12182 0
M  V30 2883 C 276.726 2.51352 -5.15374 0
M  V30 2884 N 276.222 2.90549 -6.2893 0
M  V30 2885 N 278.015 2.51438 -5.02728 0
M  V30 2886 H 270.166 -0.0578386 -2.12321 0
M  V30 2887 H 272.429 0.0367406 -0.947288 0
M  V30 2888 H 272.135 0.725466 -3.44136 0
M  V30 2889 H 272.009 2.39451 -2.9145 0
M  V30 2890 H 274.396 2.22628 -1.93702 0
M  V30 2891 H 274.477 0.550154 -2.49814 0
M  V30 2892 H 274.121 1.35848 -4.89395 0
M  V30 2893 H 274.051 3.03726 -4.30184 0
M  V30 2894 H 276.542 1.83745 -3.30222 0
M  V30 2895 H 276.855 3.19884 -7.03487 0
M  V30 2896 H 275.2 2.88313 -6.32377 0
M  V30 2897 H 278.391 2.20203 -4.13072 0
M  V30 2898 H 278.564 2.82304 -5.83274 0
M  V30 2899 N 271.97 1.30982 0.876444 0
M  V30 2900 C 273.219 1.19658 1.62373 0
M  V30 2901 C 273.532 -0.245636 1.94052 0
M  V30 2902 O 274.738 -0.48049 2.67214 0
M  V30 2903 C 273.194 2.09433 2.92687 0
M  V30 2904 C 272.802 3.58613 2.68516 0
M  V30 2905 C 274.546 2.06893 3.70669 0
M  V30 2906 C 272.453 4.40416 3.94699 0
M  V30 2907 H 271.383 0.444268 0.609214 0
M  V30 2908 H 274.034 1.55791 0.969605 0
M  V30 2909 H 272.416 1.66191 3.59439 0
M  V30 2910 H 273.59 4.10058 2.10212 0
M  V30 2911 H 271.905 3.63063 2.03898 0
M  V30 2912 H 274.502 2.65258 4.64265 0
M  V30 2913 H 274.845 1.05448 4.02724 0
M  V30 2914 H 275.378 2.48301 3.10792 0
M  V30 2915 H 272.117 5.42591 3.67798 0
M  V30 2916 H 271.637 3.93731 4.52477 0
M  V30 2917 H 273.316 4.52294 4.62644 0
M  V30 2918 N 273.449 -1.08991 1.13837 0
M  V30 2919 C 274.381 -2.15606 0.777612 0
M  V30 2920 C 275.394 -1.61533 -0.202739 0
M  V30 2921 O 276.583 -1.78491 0.0181055 0
M  V30 2922 C 273.683 -3.3864 0.132623 0
M  V30 2923 C 272.856 -4.22115 1.1462 0
M  V30 2924 C 271.915 -5.23564 0.526074 0
M  V30 2925 O 270.941 -5.56678 1.18735 0
M  V30 2926 N 272.143 -5.76266 -0.699866 0
M  V30 2927 H 274.908 -2.47159 1.69506 0
M  V30 2928 H 272.469 -1.24747 1.03198 0
M  V30 2929 H 274.461 -4.03626 -0.29459 0
M  V30 2930 H 273.031 -3.04938 -0.687849 0
M  V30 2931 H 272.251 -3.53199 1.75055 0
M  V30 2932 H 273.539 -4.74709 1.83109 0
M  V30 2933 H 272.937 -5.51585 -1.25581 0
M  V30 2934 H 271.494 -6.42963 -1.06968 0
M  V30 2935 N 274.927 -0.932562 -1.27047 0
M  V30 2936 C 276.152 -0.591474 -1.98787 0
M  V30 2937 C 276.577 0.824601 -1.69062 0
M  V30 2938 O 275.935 1.5541 -0.933677 0
M  V30 2939 C 275.983 -0.829808 -3.50922 0
M  V30 2940 O 275.087 0.102266 -4.12273 0
M  V30 2941 H 274.428 -0.227185 -0.623926 0
M  V30 2942 H 276.958 -1.25314 -1.61733 0
M  V30 2943 H 276.968 -0.747292 -4.01098 0
M  V30 2944 H 275.643 -1.86201 -3.7189 0
M  V30 2945 H 274.22 -0.0305761 -3.72887 0
M  V30 2946 N 276.405 1.4127 -0.698611 0
M  V30 2947 C 277.651 2.01478 -0.231207 0
M  V30 2948 C 277.984 1.55215 1.16713 0
M  V30 2949 O 277.259 0.764672 1.78838 0
M  V30 2950 C 277.542 3.58912 -0.292281 0
M  V30 2951 C 277.395 4.15293 -1.72778 0
M  V30 2952 C 278.714 4.38736 0.346194 0
M  V30 2953 H 275.833 0.732025 -0.0854878 0
M  V30 2954 H 278.475 1.67977 -0.887906 0
M  V30 2955 H 276.625 3.87582 0.26686 0
M  V30 2956 H 278.297 3.97486 -2.341 0
M  V30 2957 H 276.54 3.7022 -2.26096 0
M  V30 2958 H 277.211 5.24452 -1.72202 0
M  V30 2959 H 279.687 4.15897 -0.130035 0
M  V30 2960 H 278.563 5.48221 0.272932 0
M  V30 2961 H 278.824 4.18425 1.42734 0
M  V30 2962 N 277.883 0.443576 1.51229 0
M  V30 2963 C 278.813 -0.355142 2.30783 0
M  V30 2964 C 279.794 -1.0154 1.36468 0
M  V30 2965 O 280.979 -1.01785 1.65389 0
M  V30 2966 C 278.109 -1.45312 3.15439 0
M  V30 2967 C 277.063 -0.916002 4.18083 0
M  V30 2968 C 276.389 -2.1102 4.91299 0
M  V30 2969 C 277.689 0.0538602 5.22272 0
M  V30 2970 H 279.383 0.308767 2.97804 0
M  V30 2971 H 276.929 0.149937 1.43217 0
M  V30 2972 H 278.882 -2.01914 3.69876 0
M  V30 2973 H 277.606 -2.14541 2.46252 0
M  V30 2974 H 276.265 -0.372145 3.64706 0
M  V30 2975 H 275.913 -2.78882 4.18609 0
M  V30 2976 H 275.613 -1.75717 5.60712 0
M  V30 2977 H 277.137 -2.68164 5.48562 0
M  V30 2978 H 278.551 -0.422069 5.71744 0
M  V30 2979 H 276.948 0.319776 5.99247 0
M  V30 2980 H 278.018 0.98858 4.74716 0
M  V30 2981 N 279.361 -1.56624 0.175154 0
M  V30 2982 C 280.601 -1.98894 -0.471221 0
M  V30 2983 C 280.965 -1.05889 -1.60161 0
M  V30 2984 O 282.166 -1.37315 -2.3108 0
M  V30 2985 C 280.437 -3.44865 -0.938241 0
M  V30 2986 S 281.996 -4.09164 -1.58526 0
M  V30 2987 H 278.814 -0.694686 -0.151434 0
M  V30 2988 H 281.416 -1.93577 0.27352 0
M  V30 2989 H 280.12 -4.10265 -0.10518 0
M  V30 2990 H 279.651 -3.53956 -1.71693 0
M  V30 2991 H 281.666 -4.04528 -2.87352 0
M  V30 2992 N 280.839 0.0985539 -1.57292 0
M  V30 2993 C 281.769 1.12064 -2.04851 0
M  V30 2994 C 282.75 1.41981 -0.936767 0
M  V30 2995 O 283.935 1.52071 -1.20781 0
M  V30 2996 C 281.065 2.44144 -2.47004 0
M  V30 2997 C 280.019 2.28643 -3.6181 0
M  V30 2998 C 279.345 3.65869 -3.89929 0
M  V30 2999 C 280.645 1.72986 -4.92822 0
M  V30 3000 H 282.339 0.724979 -2.9049 0
M  V30 3001 H 279.885 0.34729 -1.39749 0
M  V30 3002 H 281.838 3.15914 -2.78884 0
M  V30 3003 H 280.562 2.85639 -1.5836 0
M  V30 3004 H 279.221 1.59318 -3.30172 0
M  V30 3005 H 278.869 4.04885 -2.98458 0
M  V30 3006 H 278.569 3.56344 -4.67218 0
M  V30 3007 H 280.093 4.39112 -4.2428 0
M  V30 3008 H 281.507 2.34593 -5.23105 0
M  V30 3009 H 279.904 1.74229 -5.74251 0
M  V30 3010 H 280.974 0.689007 -4.7998 0
M  V30 3011 N 282.317 1.53212 0.369288 0
M  V30 3012 C 283.728 1.60943 0.946276 0
M  V30 3013 C 284.079 0.47452 1.90375 0
M  V30 3014 O 283.204 -0.399597 2.12679 0
M  V30 3015 C 283.799 2.91715 1.72302 0
M  V30 3016 C 282.358 3.01792 2.24941 0
M  V30 3017 C 281.505 2.56211 1.06072 0
M  V30 3018 H 284.456 1.58007 0.148198 0
M  V30 3019 H 284.477 2.79309 2.58393 0
M  V30 3020 H 283.989 3.74295 1.0259 0
M  V30 3021 H 282.09 2.23791 2.97906 0
M  V30 3022 H 282.203 4.06803 2.53077 0
M  V30 3023 H 280.567 2.10998 1.4266 0
M  V30 3024 H 281.35 3.41206 0.378639 0
M  V30 3025 N 283.795 -0.628877 1.44509 0
M  V30 3026 C 285.044 -1.38437 1.4669 0
M  V30 3027 C 285.357 -1.95322 0.104272 0
M  V30 3028 O 286.563 -2.715 0.00362163 0
M  V30 3029 C 285.019 -2.50659 2.5826 0
M  V30 3030 C 284.627 -2.00277 4.0074 0
M  V30 3031 C 286.371 -3.27844 2.69664 0
M  V30 3032 C 284.278 -3.09854 5.0373 0
M  V30 3033 H 283.208 -0.520245 0.545766 0
M  V30 3034 H 285.859 -0.676313 1.70582 0
M  V30 3035 H 284.241 -3.2405 2.27612 0
M  V30 3036 H 285.415 -1.33736 4.40966 0
M  V30 3037 H 283.73 -1.35901 3.93599 0
M  V30 3038 H 286.327 -4.09534 3.43781 0
M  V30 3039 H 286.67 -3.77471 1.75559 0
M  V30 3040 H 287.203 -2.61543 2.99733 0
M  V30 3041 H 283.942 -2.65168 5.99472 0
M  V30 3042 H 283.462 -3.7503 4.68095 0
M  V30 3043 H 285.141 -3.74592 5.27532 0
M  V30 3044 N 285.273 -1.31445 -0.869486 0
M  V30 3045 C 286.519 -1.21337 -1.62496 0
M  V30 3046 C 286.852 0.227872 -1.92858 0
M  V30 3047 O 286.127 1.16094 -1.56053 0
M  V30 3048 C 286.41 -2.05814 -2.95487 0
M  V30 3049 C 286.263 -3.5824 -2.72 0
M  V30 3050 C 287.582 -1.9079 -3.96594 0
M  V30 3051 H 284.701 -0.442135 -0.589649 0
M  V30 3052 H 287.343 -1.6124 -1.00507 0
M  V30 3053 H 285.493 -1.71913 -3.48394 0
M  V30 3054 H 287.165 -4.0228 -2.25762 0
M  V30 3055 H 285.408 -3.81647 -2.06224 0
M  V30 3056 H 286.079 -4.12657 -3.66631 0
M  V30 3057 H 288.555 -2.20459 -3.52898 0
M  V30 3058 H 287.431 -2.52199 -4.87531 0
M  V30 3059 H 287.692 -0.871341 -4.33428 0
M  V30 3060 N 286.751 1.08385 -1.14413 0
M  V30 3061 C 287.979 1.84517 -0.936001 0
M  V30 3062 C 288.394 1.81626 0.515503 0
M  V30 3063 O 287.751 1.22008 1.35721 0
M  V30 3064 C 287.802 3.32049 -1.42918 0
M  V30 3065 O 287.523 3.34951 -2.82381 0
M  V30 3066 C 289.024 4.24986 -1.26103 0
M  V30 3067 H 286.244 0.582491 -0.333084 0
M  V30 3068 H 288.788 1.36885 -1.5193 0
M  V30 3069 H 286.943 3.7707 -0.888641 0
M  V30 3070 H 287.357 4.27048 -3.04517 0
M  V30 3071 H 288.831 5.26615 -1.6547 0
M  V30 3072 H 289.308 4.38726 -0.20392 0
M  V30 3073 H 289.914 3.85791 -1.79012 0
M  V30 3074 N 288.23 0.939286 1.26551 0
M  V30 3075 C 289.193 0.451987 2.24699 0
M  V30 3076 C 290.193 -0.435869 1.5478 0
M  V30 3077 O 291.383 -0.235314 1.72603 0
M  V30 3078 C 288.515 -0.348801 3.39111 0
M  V30 3079 H 289.708 1.3193 2.69322 0
M  V30 3080 H 287.261 0.721072 1.38673 0
M  V30 3081 H 287.996 -1.23444 2.99887 0
M  V30 3082 H 287.781 0.287945 3.91041 0
M  V30 3083 H 289.271 -0.679726 4.12031 0
M  V30 3084 N 289.708 -1.40897 0.706093 0
M  V30 3085 C 290.957 -2.00284 0.238574 0
M  V30 3086 C 291.27 -1.56604 -1.17194 0
M  V30 3087 O 292.476 -2.08624 -1.73748 0
M  V30 3088 C 290.932 -3.57934 0.375623 0
M  V30 3089 C 290.54 -4.10591 1.79217 0
M  V30 3090 C 292.284 -4.24488 -0.0315857 0
M  V30 3091 C 290.191 -5.60712 1.88032 0
M  V30 3092 H 289.121 -0.749144 0.0854398 0
M  V30 3093 H 291.772 -1.61251 0.875813 0
M  V30 3094 H 290.154 -3.94622 -0.330042 0
M  V30 3095 H 291.328 -3.85301 2.52745 0
M  V30 3096 H 289.643 -3.56601 2.15 0
M  V30 3097 H 292.24 -5.34698 0.0136842 0
M  V30 3098 H 292.583 -4.02261 -1.072 0
M  V30 3099 H 293.116 -3.92873 0.624181 0
M  V30 3100 H 289.855 -5.87781 2.90161 0
M  V30 3101 H 289.375 -5.87896 1.18903 0
M  V30 3102 H 291.054 -6.25658 1.64805 0
M  V30 3103 N 291.186 -0.45159 -1.50991 0
M  V30 3104 C 292.434 0.109857 -2.01801 0
M  V30 3105 C 292.755 1.41958 -1.3369 0
M  V30 3106 O 292.025 1.9003 -0.475951 0
M  V30 3107 H 290.605 0.0435884 -0.745727 0
M  V30 3108 H 293.267 -0.597557 -1.85514 0
M  V30 3109 H 292.363 0.275489 -3.10882 0
M  V30 3110 N 292.664 1.56529 -0.183458 0
M  V30 3111 C 293.941 1.88959 0.50536 0
M  V30 3112 C 294.321 1.09523 1.80466 0
M  V30 3113 O 293.669 0.19278 2.27685 0
M  V30 3114 C 293.879 3.41162 0.73547 0
M  V30 3115 C 295.227 4.11155 1.06005 0
M  V30 3116 O 296.251 3.46548 0.823594 0
M  V30 3117 O 295.11 5.25318 1.50675 0
M  V30 3118 H 292.204 0.78441 0.261973 0
M  V30 3119 H 294.75 1.68231 -0.222802 0
M  V30 3120 H 293.522 3.90874 -0.182561 0
M  V30 3121 H 293.145 3.67543 1.51651 0
M  V30 3122 N 294.142 -0.090211 1.57342 0
M  V30 3123 C 295.072 -1.10976 2.05443 0
M  V30 3124 C 296.053 -1.41482 0.944284 0
M  V30 3125 O 297.238 -1.51428 1.21586 0
M  V30 3126 C 294.368 -2.42831 2.48295 0
M  V30 3127 C 293.322 -2.26721 3.63018 0
M  V30 3128 C 292.648 -3.63796 3.91863 0
M  V30 3129 C 293.948 -1.7037 4.93732 0
M  V30 3130 H 295.642 -0.709564 2.9087 0
M  V30 3131 H 293.188 -0.339874 1.39932 0
M  V30 3132 H 295.141 -3.14431 2.80555 0
M  V30 3133 H 293.865 -2.84795 1.59873 0
M  V30 3134 H 292.524 -1.57565 3.31012 0
M  V30 3135 H 292.172 -4.03297 3.00601 0
M  V30 3136 H 291.872 -3.53861 4.69101 0
M  V30 3137 H 293.396 -4.36855 4.26603 0
M  V30 3138 H 294.81 -2.31816 5.24342 0
M  V30 3139 H 293.207 -1.71181 5.75167 0
M  V30 3140 H 294.277 -0.663542 4.80339 0
M  V30 3141 N 295.62 -1.53406 -0.361157 0
M  V30 3142 C 296.869 -1.69022 -1.10066 0
M  V30 3143 C 297.182 -0.450838 -1.90333 0
M  V30 3144 O 298.388 -0.487617 -2.67085 0
M  V30 3145 C 296.844 -2.98812 -2.00598 0
M  V30 3146 C 296.452 -4.30027 -1.25621 0
M  V30 3147 C 298.196 -3.23795 -2.74513 0
M  V30 3148 C 296.103 -5.50903 -2.1508 0
M  V30 3149 H 295.033 -0.629776 -0.414606 0
M  V30 3150 H 297.684 -1.79907 -0.361348 0
M  V30 3151 H 296.066 -2.8174 -2.78278 0
M  V30 3152 H 297.24 -4.57745 -0.529739 0
M  V30 3153 H 295.555 -4.11522 -0.635496 0
M  V30 3154 H 298.152 -4.11289 -3.41681 0
M  V30 3155 H 298.495 -2.40045 -3.40123 0
M  V30 3156 H 299.028 -3.41561 -2.03914 0
M  V30 3157 H 295.767 -6.37143 -1.54041 0
M  V30 3158 H 295.287 -5.27459 -2.85565 0
M  V30 3159 H 296.966 -5.85865 -2.74538 0
M  V30 3160 N 297.098 0.621204 -1.44841 0
M  V30 3161 C 298.346 1.37783 -1.47852 0
M  V30 3162 C 298.667 1.94653 -0.116224 0
M  V30 3163 O 297.937 1.76367 0.852737 0
M  V30 3164 H 296.517 0.511453 -0.544449 0
M  V30 3165 H 299.179 0.730446 -1.80694 0
M  V30 3166 H 298.275 2.20414 -2.20961 0
M  V30 3167 N 298.576 1.31904 0.862503 0
M  V30 3168 C 299.825 1.21373 1.61094 0
M  V30 3169 C 300.138 -0.22504 1.94301 0
M  V30 3170 O 301.344 -0.452121 2.67709 0
M  V30 3171 C 299.8 2.12525 2.9045 0
M  V30 3172 C 299.408 3.61441 2.64697 0
M  V30 3173 C 301.152 2.10813 3.68454 0
M  V30 3174 C 299.059 4.44578 3.90006 0
M  V30 3175 H 297.989 0.450705 0.604468 0
M  V30 3176 H 300.64 1.56811 0.953027 0
M  V30 3177 H 299.022 1.69994 3.57656 0
M  V30 3178 H 300.196 4.12264 2.05851 0
M  V30 3179 H 298.511 3.65205 2.00036 0
M  V30 3180 H 301.108 2.70167 4.61426 0
M  V30 3181 H 301.451 1.09713 4.01583 0
M  V30 3182 H 301.984 2.51583 3.08141 0
M  V30 3183 H 298.723 5.46461 3.62023 0
M  V30 3184 H 298.243 3.98508 4.48276 0
M  V30 3185 H 299.922 4.57176 4.5782 0
M  V30 3186 N 300.054 -1.07777 1.14986 0
M  V30 3187 C 300.984 -2.16865 0.865557 0
M  V30 3188 C 301.965 -1.69123 -0.182083 0
M  V30 3189 O 303.15 -1.94164 -0.0373815 0
M  V30 3190 C 300.28 -3.45539 0.349313 0
M  V30 3191 C 299.234 -4.06708 1.33313 0
M  V30 3192 C 298.56 -5.30411 0.675918 0
M  V30 3193 C 299.86 -4.47241 2.69764 0
M  V30 3194 H 301.554 -2.40905 1.77778 0
M  V30 3195 H 299.1 -1.15781 0.856203 0
M  V30 3196 H 301.053 -4.21174 0.137983 0
M  V30 3197 H 299.777 -3.21072 -0.598362 0
M  V30 3198 H 298.436 -3.33112 1.53075 0
M  V30 3199 H 298.084 -5.02232 -0.277767 0
M  V30 3200 H 297.784 -5.72293 1.33244 0
M  V30 3201 H 299.308 -6.08755 0.474262 0
M  V30 3202 H 300.722 -5.14025 2.53873 0
M  V30 3203 H 299.119 -5.00062 3.3175 0
M  V30 3204 H 300.189 -3.58818 3.26156 0
M  V30 3205 N 301.532 -0.945985 -1.26051 0
M  V30 3206 C 302.442 -0.465633 -2.29933 0
M  V30 3207 C 303.458 0.462761 -1.67733 0
M  V30 3208 O 304.634 0.341118 -1.9849 0
M  V30 3209 C 301.699 0.256994 -3.45746 0
M  V30 3210 C 300.76 -0.708549 -4.23412 0
M  V30 3211 C 299.993 -0.0203135 -5.33696 0
M  V30 3212 O 300.216 1.19571 -5.57726 0
M  V30 3213 O 299.15 -0.701459 -5.97799 0
M  V30 3214 H 302.976 -1.32866 -2.73094 0
M  V30 3215 H 300.561 -0.712071 -1.31339 0
M  V30 3216 H 302.443 0.663852 -4.16138 0
M  V30 3217 H 301.118 1.09533 -3.04605 0
M  V30 3218 H 300.025 -1.16545 -3.55483 0
M  V30 3219 H 301.358 -1.51465 -4.68315 0
M  V30 3220 N 303.011 1.40521 -0.713556 0
M  V30 3221 C 303.941 2.33381 -0.0743864 0
M  V30 3222 C 304.922 1.52784 0.747735 0
M  V30 3223 O 306.107 1.81258 0.697071 0
M  V30 3224 C 303.237 3.36748 0.849598 0
M  V30 3225 C 302.191 4.27793 0.133247 0
M  V30 3226 C 301.517 5.21679 1.17281 0
M  V30 3227 C 302.817 5.12415 -1.01134 0
M  V30 3228 H 304.511 2.87081 -0.850007 0
M  V30 3229 H 302.057 1.38034 -0.410201 0
M  V30 3230 H 304.01 4.00648 1.30612 0
M  V30 3231 H 302.734 2.81439 1.65709 0
M  V30 3232 H 301.393 3.65342 -0.303426 0
M  V30 3233 H 301.041 4.62677 1.9733 0
M  V30 3234 H 300.741 5.83435 0.698397 0
M  V30 3235 H 302.265 5.88456 1.62947 0
M  V30 3236 H 303.679 5.69781 -0.634274 0
M  V30 3237 H 302.076 5.83203 -1.41399 0
M  V30 3238 H 303.146 4.48514 -1.84292 0
M  V30 3239 N 304.489 0.459591 1.5075 0
M  V30 3240 C 305.719 -0.0972338 2.06371 0
M  V30 3241 C 306.127 -1.35074 1.32483 0
M  V30 3242 O 305.47 -1.79637 0.384226 0
M  V30 3243 C 305.532 -0.462759 3.56509 0
M  V30 3244 C 305.196 0.687084 4.51805 0
M  V30 3245 C 306.193 1.56578 4.95761 0
M  V30 3246 C 303.878 0.874144 4.94635 0
M  V30 3247 C 305.872 2.61604 5.81242 0
M  V30 3248 C 303.559 1.92765 5.79901 0
M  V30 3249 C 304.557 2.79697 6.23104 0
M  V30 3250 O 304.245 3.83235 7.06673 0
M  V30 3251 H 303.977 -0.00140687 0.675999 0
M  V30 3252 H 306.531 0.644011 1.95043 0
M  V30 3253 H 304.761 -1.25703 3.65699 0
M  V30 3254 H 306.45 -0.953323 3.94546 0
M  V30 3255 H 307.216 1.4329 4.6335 0
M  V30 3256 H 303.095 0.207006 4.60535 0
M  V30 3257 H 306.639 3.29489 6.14884 0
M  V30 3258 H 302.536 2.06064 6.11725 0
M  V30 3259 H 303.304 3.80084 7.24899 0
M  V30 3260 N 305.967 -1.56429 0.191757 0
M  V30 3261 C 307.383 -1.58754 -0.164137 0
M  V30 3262 C 307.583 -1.20782 -1.61288 0
M  V30 3263 O 306.639 -0.928999 -2.34789 0
M  V30 3264 C 307.952 -3.00396 0.135195 0
M  V30 3265 C 309.5 -3.1291 0.0750351 0
M  V30 3266 C 309.975 -4.56679 0.347632 0
M  V30 3267 N 311.466 -4.62252 0.296131 0
M  V30 3268 C 312.201 -5.71379 0.480948 0
M  V30 3269 N 311.697 -6.88986 0.725933 0
M  V30 3270 N 313.49 -5.60563 0.415435 0
M  V30 3271 H 305.641 -1.79393 1.13718 0
M  V30 3272 H 307.904 -0.832414 0.453643 0
M  V30 3273 H 307.61 -3.32726 1.13958 0
M  V30 3274 H 307.484 -3.72963 -0.563773 0
M  V30 3275 H 309.871 -2.80394 -0.919948 0
M  V30 3276 H 309.952 -2.42736 0.807029 0
M  V30 3277 H 309.596 -4.89907 1.33992 0
M  V30 3278 H 309.526 -5.25039 -0.405212 0
M  V30 3279 H 312.017 -3.7773 0.113259 0
M  V30 3280 H 312.33 -7.68046 0.855857 0
M  V30 3281 H 310.675 -6.90801 0.762788 0
M  V30 3282 H 313.866 -4.67561 0.224486 0
M  V30 3283 H 314.039 -6.45551 0.562889 0
M  V30 3284 N 307.445 0.0818655 -1.57387 0
M  V30 3285 C 308.395 1.10501 -1.99433 0
M  V30 3286 C 309.379 1.35041 -0.874798 0
M  V30 3287 O 310.571 1.35511 -1.13868 0
M  V30 3288 C 307.7 2.42159 -2.43339 0
M  V30 3289 C 306.786 2.20937 -3.62005 0
M  V30 3290 N 307.177 1.69616 -4.76512 0
M  V30 3291 C 305.475 2.51451 -3.68359 0
M  V30 3292 C 306.176 1.62973 -5.58404 0
M  V30 3293 N 305.152 2.08664 -5.01956 0
M  V30 3294 H 308.954 0.701373 -2.85408 0
M  V30 3295 H 306.468 0.289096 -1.59806 0
M  V30 3296 H 308.465 3.16208 -2.71695 0
M  V30 3297 H 307.125 2.83249 -1.58746 0
M  V30 3298 H 308.136 1.38624 -4.99003 0
M  V30 3299 H 304.813 2.95975 -2.94457 0
M  V30 3300 H 306.203 1.24233 -6.60315 0
M  V30 3301 N 308.923 1.53595 0.353017 0
M  V30 3302 C 310.169 1.71581 1.09232 0
M  V30 3303 C 310.524 0.468328 1.86613 0
M  V30 3304 O 309.817 -0.538911 1.83865 0
M  V30 3305 C 310.011 2.91313 2.07054 0
M  V30 3306 C 309.84 4.27585 1.39287 0
M  V30 3307 C 308.61 4.92233 1.1417 0
M  V30 3308 C 310.808 5.07656 0.824005 0
M  V30 3309 N 308.79 6.124 0.428841 0
M  V30 3310 C 310.161 6.19531 0.241195 0
M  V30 3311 C 312.216 4.92609 0.723922 0
M  V30 3312 C 310.919 7.18002 -0.431952 0
M  V30 3313 C 312.945 5.91365 0.0645334 0
M  V30 3314 C 312.307 7.02571 -0.507347 0
M  V30 3315 H 308.406 0.680987 0.384422 0
M  V30 3316 H 310.99 1.91013 0.377096 0
M  V30 3317 H 309.161 2.73398 2.75877 0
M  V30 3318 H 310.893 2.98062 2.73753 0
M  V30 3319 H 307.648 4.51612 1.42631 0
M  V30 3320 H 308.072 6.76944 0.0874131 0
M  V30 3321 H 312.714 4.06808 1.15181 0
M  V30 3322 H 310.432 8.03384 -0.871758 0
M  V30 3323 H 314.018 5.81799 -0.0121469 0
M  V30 3324 H 312.898 7.77675 -1.0095 0
M  V30 3325 N 310.401 -0.613514 1.45168 0
M  V30 3326 C 311.649 -1.36997 1.48581 0
M  V30 3327 C 311.97 -1.94589 0.126545 0
M  V30 3328 O 311.24 -1.76816 -0.843372 0
M  V30 3329 H 309.82 -0.508558 0.547154 0
M  V30 3330 H 312.482 -0.720853 1.81079 0
M  V30 3331 H 311.578 -2.1924 2.22127 0
M  V30 3332 N 311.879 -1.3236 -0.855495 0
M  V30 3333 C 312.826 -1.21225 -1.964 0
M  V30 3334 C 313.796 -0.0946204 -1.6583 0
M  V30 3335 O 314.981 -0.27002 -1.8888 0
M  V30 3336 C 312.121 -0.940419 -3.32039 0
M  V30 3337 C 311.234 -2.14276 -3.75113 0
M  V30 3338 C 310.369 -1.80648 -4.9954 0
M  V30 3339 C 309.408 -2.97208 -5.35102 0
M  V30 3340 N 308.545 -2.63678 -6.50706 0
M  V30 3341 H 313.385 -2.16042 -2.05255 0
M  V30 3342 H 310.922 -1.07451 -1.00463 0
M  V30 3343 H 312.88 -0.763311 -4.10158 0
M  V30 3344 H 311.51 -0.0290413 -3.22787 0
M  V30 3345 H 310.562 -2.43017 -2.92655 0
M  V30 3346 H 311.874 -3.01468 -3.97389 0
M  V30 3347 H 311.028 -1.59484 -5.85363 0
M  V30 3348 H 309.767 -0.906678 -4.79198 0
M  V30 3349 H 308.772 -3.19004 -4.47791 0
M  V30 3350 H 309.997 -3.87918 -5.57401 0
M  V30 3351 H 307.943 -1.76238 -6.31883 0
M  V30 3352 H 307.86 -3.444 -6.72997 0
M  V30 3353 H 309.128 -2.45942 -7.39684 0
M  V30 3354 N 313.357 1.07166 -1.15556 0
M  V30 3355 C 314.267 2.17947 -0.868116 0
M  V30 3356 C 315.283 1.73297 0.156297 0
M  V30 3357 O 316.459 2.01392 -0.0182327 0
M  V30 3358 C 313.524 3.44789 -0.36355 0
M  V30 3359 C 312.585 4.03996 -1.45209 0
M  V30 3360 C 311.818 5.24783 -0.971508 0
M  V30 3361 O 312.041 5.70109 0.182194 0
M  V30 3362 O 310.975 5.75715 -1.75603 0
M  V30 3363 H 314.801 2.4503 -1.79427 0
M  V30 3364 H 312.386 1.16539 -0.934824 0
M  V30 3365 H 314.268 4.21307 -0.0887113 0
M  V30 3366 H 312.943 3.19253 0.534708 0
M  V30 3367 H 311.85 3.29009 -1.78056 0
M  V30 3368 H 313.183 4.33808 -2.32533 0
M  V30 3369 N 314.835 0.952656 1.25548 0
M  V30 3370 C 315.798 0.475794 2.24207 0
M  V30 3371 C 316.798 -0.419428 1.55234 0
M  V30 3372 O 317.988 -0.216994 1.72843 0
M  V30 3373 C 315.12 -0.312814 3.39462 0
M  V30 3374 H 316.313 1.34779 2.67908 0
M  V30 3375 H 313.866 0.735739 1.37901 0
M  V30 3376 H 314.601 -1.20257 3.01179 0
M  V30 3377 H 314.386 0.329404 3.90714 0
M  V30 3378 H 315.876 -0.635986 4.12729 0
M  V30 3379 N 316.313 -1.40141 0.720998 0
M  V30 3380 C 317.56 -2.00787 0.262842 0
M  V30 3381 C 317.888 -1.5718 -1.14563 0
M  V30 3382 O 317.143 -0.785391 -1.79249 0
M  V30 3383 C 317.442 -3.56165 0.296892 0
M  V30 3384 C 317.108 -4.19373 1.65641 0
M  V30 3385 C 315.77 -4.36352 2.02855 0
M  V30 3386 C 318.122 -4.54578 2.54968 0
M  V30 3387 C 315.45 -4.8582 3.28931 0
M  V30 3388 C 317.802 -5.05447 3.80402 0
M  V30 3389 C 316.466 -5.20635 4.17726 0
M  V30 3390 H 315.736 -0.734731 0.0961807 0
M  V30 3391 H 318.383 -1.67673 0.925093 0
M  V30 3392 H 316.688 -3.8922 -0.448932 0
M  V30 3393 H 318.385 -4.00929 -0.0755208 0
M  V30 3394 H 314.975 -4.06549 1.35704 0
M  V30 3395 H 319.159 -4.41091 2.27491 0
M  V30 3396 H 314.415 -4.95764 3.57811 0
M  V30 3397 H 318.589 -5.31663 4.49786 0
M  V30 3398 H 316.216 -5.58728 5.15487 0
M  V30 3399 N 317.792 -0.46758 -1.50504 0
M  V30 3400 C 319.032 0.0874114 -2.04213 0
M  V30 3401 C 319.396 1.37301 -1.34211 0
M  V30 3402 O 320.597 2.01015 -1.78456 0
M  V30 3403 C 318.868 0.270571 -3.56374 0
M  V30 3404 S 320.427 0.784623 -4.31728 0
M  V30 3405 H 317.245 0.0176153 -0.710782 0
M  V30 3406 H 319.847 -0.633915 -1.84937 0
M  V30 3407 H 318.551 -0.670942 -4.04878 0
M  V30 3408 H 318.082 1.01811 -3.79997 0
M  V30 3409 H 320.097 2.05849 -4.51487 0
M  V30 3410 N 319.27 1.56325 -0.20005 0
M  V30 3411 C 320.2 2.22318 0.713916 0
M  V30 3412 C 321.181 1.18788 1.21752 0
M  V30 3413 O 322.366 1.47309 1.26545 0
M  V30 3414 C 319.496 2.88639 1.93144 0
M  V30 3415 C 318.45 3.98457 1.56255 0
M  V30 3416 C 317.776 4.51967 2.85709 0
M  V30 3417 C 319.076 5.16612 0.768747 0
M  V30 3418 H 320.77 2.98952 0.163755 0
M  V30 3419 H 318.316 1.43792 0.0773219 0
M  V30 3420 H 320.269 3.33491 2.57608 0
M  V30 3421 H 318.993 2.09419 2.50621 0
M  V30 3422 H 317.652 3.54305 0.941471 0
M  V30 3423 H 317.3 3.69503 3.41287 0
M  V30 3424 H 317 5.26071 2.6177 0
M  V30 3425 H 318.524 4.99523 3.51154 0
M  V30 3426 H 319.938 5.57977 1.3166 0
M  V30 3427 H 318.335 5.96812 0.627286 0
M  V30 3428 H 319.405 4.84358 -0.229168 0
M  V30 3429 N 320.748 -0.0735177 1.57428 0
M  V30 3430 C 321.973 -0.789787 1.91774 0
M  V30 3431 C 322.398 -1.70413 0.796306 0
M  V30 3432 O 321.756 -1.79555 -0.250961 0
M  V30 3433 C 321.804 -1.5609 3.25067 0
M  V30 3434 O 320.908 -2.67144 3.14178 0
M  V30 3435 H 320.249 -0.215582 0.628029 0
M  V30 3436 H 322.779 -0.0422781 2.04556 0
M  V30 3437 H 322.789 -1.94052 3.58898 0
M  V30 3438 H 321.464 -0.890015 4.06265 0
M  V30 3439 H 320.041 -2.32052 2.91901 0
M  V30 3440 N 322.226 -1.5378 -0.344866 0
M  V30 3441 C 323.176 -1.78057 -1.42407 0
M  V30 3442 C 324.16 -0.635732 -1.47808 0
M  V30 3443 O 325.352 -0.89508 -1.527 0
M  V30 3444 C 322.481 -1.99242 -2.79566 0
M  V30 3445 C 321.567 -3.19787 -2.78562 0
M  V30 3446 N 321.958 -4.41284 -2.47189 0
M  V30 3447 C 320.256 -3.2093 -3.0971 0
M  V30 3448 C 320.957 -5.23128 -2.54385 0
M  V30 3449 N 319.933 -4.59813 -2.89953 0
M  V30 3450 H 323.735 -2.69588 -1.17046 0
M  V30 3451 H 321.249 -1.52687 -0.553217 0
M  V30 3452 H 323.246 -2.14768 -3.57324 0
M  V30 3453 H 321.906 -1.08953 -3.05875 0
M  V30 3454 H 322.917 -4.68657 -2.20411 0
M  V30 3455 H 319.594 -2.40603 -3.41199 0
M  V30 3456 H 320.984 -6.30096 -2.333 0
M  V30 3457 N 323.704 0.605807 -1.45491 0
M  V30 3458 C 324.636 1.73031 -1.5031 0
M  V30 3459 C 325.649 1.57968 -0.393687 0
M  V30 3460 O 326.838 1.65817 -0.660839 0
M  V30 3461 C 323.938 3.11049 -1.34543 0
M  V30 3462 C 323.111 3.52334 -2.59189 0
M  V30 3463 C 322.17 4.69323 -2.37954 0
M  V30 3464 O 321.196 4.7635 -3.11575 0
M  V30 3465 N 322.398 5.62705 -1.4263 0
M  V30 3466 H 325.163 1.6936 -2.4726 0
M  V30 3467 H 322.724 0.79114 -1.41254 0
M  V30 3468 H 324.716 3.87071 -1.18144 0
M  V30 3469 H 323.286 3.09217 -0.458623 0
M  V30 3470 H 322.506 2.66256 -2.90691 0
M  V30 3471 H 323.794 3.76677 -3.42041 0
M  V30 3472 H 323.192 5.59744 -0.818758 0
M  V30 3473 H 321.749 6.38252 -1.32202 0
M  V30 3474 N 325.182 1.32811 0.848464 0
M  V30 3475 C 326.092 1.24278 1.98978 0
M  V30 3476 C 327.108 0.155176 1.73307 0
M  V30 3477 O 328.284 0.376999 1.9784 0
M  V30 3478 C 325.349 0.972444 3.32783 0
M  V30 3479 C 324.41 2.14911 3.71634 0
M  V30 3480 C 323.643 1.89157 4.99054 0
M  V30 3481 O 323.866 0.837165 5.64223 0
M  V30 3482 O 322.8 2.75433 5.35183 0
M  V30 3483 H 326.626 2.20238 2.09115 0
M  V30 3484 H 324.211 1.12762 0.980052 0
M  V30 3485 H 326.093 0.838432 4.12975 0
M  V30 3486 H 324.768 0.043051 3.23671 0
M  V30 3487 H 323.675 2.33862 2.91992 0
M  V30 3488 H 325.008 3.06151 3.85399 0
M  V30 3489 N 326.66 -1.06551 1.16123 0
M  V30 3490 C 327.906 -1.79567 0.94252 0
M  V30 3491 C 328.239 -1.86869 -0.528547 0
M  V30 3492 O 327.514 -1.35838 -1.39206 0
M  V30 3493 C 327.797 -3.24195 1.56747 0
M  V30 3494 C 327.65 -3.24989 3.10969 0
M  V30 3495 C 328.969 -4.21678 1.25998 0
M  V30 3496 H 326.088 -0.651883 0.343828 0
M  V30 3497 H 328.73 -1.2463 1.43413 0
M  V30 3498 H 326.88 -3.71107 1.14942 0
M  V30 3499 H 328.552 -2.86258 3.61737 0
M  V30 3500 H 326.795 -2.63716 3.44436 0
M  V30 3501 H 327.466 -4.27005 3.49815 0
M  V30 3502 H 329.942 -3.83196 1.62174 0
M  V30 3503 H 328.818 -5.21146 1.7233 0
M  V30 3504 H 329.079 -4.4174 0.178367 0
M  V30 3505 N 328.138 -0.959301 -1.25041 0
M  V30 3506 C 329.101 -0.487677 -2.23952 0
M  V30 3507 C 330.101 0.41119 -1.55454 0
M  V30 3508 O 331.291 0.207825 -1.72956 0
M  V30 3509 C 328.423 0.294807 -3.39623 0
M  V30 3510 H 329.616 -1.36198 -2.67189 0
M  V30 3511 H 327.169 -0.743042 -1.37508 0
M  V30 3512 H 327.904 1.18658 -3.01813 0
M  V30 3513 H 327.689 -0.35012 -3.90534 0
M  V30 3514 H 329.179 0.614089 -4.1306 0
M  V30 3515 N 329.616 1.39756 -0.72842 0
M  V30 3516 C 330.844 2.04948 -0.283528 0
M  V30 3517 C 331.259 1.54908 1.0793 0
M  V30 3518 O 330.616 0.711135 1.68075 0
M  V30 3519 C 330.667 3.60498 -0.268957 0
M  V30 3520 O 330.388 4.08695 -1.57798 0
M  V30 3521 C 331.889 4.4288 0.192912 0
M  V30 3522 H 329.109 0.659243 -0.125056 0
M  V30 3523 H 331.653 1.78927 -0.990226 0
M  V30 3524 H 329.808 3.85444 0.388801 0
M  V30 3525 H 330.222 5.02977 -1.48709 0
M  V30 3526 H 331.696 5.51791 0.151952 0
M  V30 3527 H 332.173 4.21418 1.23708 0
M  V30 3528 H 332.779 4.23069 -0.435039 0
M  V30 3529 N 331.094 0.475555 1.50254 0
M  V30 3530 C 332.057 -0.305016 2.27161 0
M  V30 3531 C 333.057 -0.916519 1.32123 0
M  V30 3532 O 334.247 -0.785003 1.5551 0
M  V30 3533 C 331.379 -1.43496 3.09227 0
M  V30 3534 H 332.572 0.369511 2.97615 0
M  V30 3535 H 330.125 0.229747 1.54602 0
M  V30 3536 H 330.86 -2.14441 2.43281 0
M  V30 3537 H 330.645 -1.00223 3.79075 0
M  V30 3538 H 332.135 -1.98548 3.67381 0
M  V30 3539 N 332.573 -1.56217 0.208337 0
M  V30 3540 C 333.521 -2.21053 -0.723769 0
M  V30 3541 C 334.515 -1.18578 -1.20978 0
M  V30 3542 O 335.721 -1.36691 -1.17114 0
M  V30 3543 H 332.096 -0.708595 -0.251788 0
M  V30 3544 H 334.067 -2.98006 -0.153365 0
M  V30 3545 C 332.816 -2.89417 -1.927 0
M  V30 3546 H 332.139 -3.68019 -1.56212 0
M  V30 3547 H 333.579 -3.38201 -2.55727 0
M  V30 3548 C 332.038 -1.91166 -2.77411 0
M  V30 3549 O 332.568 -1.42026 -3.75754 0
M  V30 3550 N 330.774 -1.59105 -2.43175 0
M  V30 3551 H 330.321 -1.99259 -1.63259 0
M  V30 3552 H 330.279 -0.936255 -3.00136 0
M  V30 3553 N 334.051 0.0651679 -1.57465 0
M  V30 3554 C 334.981 1.07693 -2.07182 0
M  V30 3555 C 335.962 1.39962 -0.966673 0
M  V30 3556 O 337.147 1.49475 -1.2398 0
M  V30 3557 C 334.277 2.3885 -2.52127 0
M  V30 3558 C 333.231 2.20917 -3.66579 0
M  V30 3559 C 332.557 3.57515 -3.97601 0
M  V30 3560 C 333.857 1.62493 -4.9638 0
M  V30 3561 H 335.551 0.663199 -2.91962 0
M  V30 3562 H 333.097 0.317569 -1.40455 0
M  V30 3563 H 335.05 3.09928 -2.85522 0
M  V30 3564 H 333.774 2.82215 -1.64384 0
M  V30 3565 H 332.433 1.52279 -3.33477 0
M  V30 3566 H 332.081 3.98463 -3.06979 0
M  V30 3567 H 331.781 3.46353 -4.74672 0
M  V30 3568 H 333.305 4.30013 -4.33499 0
M  V30 3569 H 334.719 2.23445 -5.27963 0
M  V30 3570 H 333.116 1.62009 -5.77818 0
M  V30 3571 H 334.186 0.587041 -4.81333 0
M  V30 3572 N 335.529 1.53961 0.336706 0
M  V30 3573 C 336.492 1.81724 1.39675 0
M  V30 3574 C 337.492 0.688532 1.45313 0
M  V30 3575 O 338.682 0.956829 1.45569 0
M  V30 3576 C 335.814 1.96543 2.78538 0
M  V30 3577 H 337.007 2.76424 1.16318 0
M  V30 3578 H 334.56 1.45478 0.571474 0
M  V30 3579 H 335.295 1.0401 3.07168 0
M  V30 3580 H 335.08 2.78665 2.75841 0
M  V30 3581 H 336.57 2.19516 3.5525 0
M  V30 3582 N 337.007 -0.598083 1.45811 0
M  V30 3583 C 338.253 -1.35679 1.51535 0
M  V30 3584 C 338.608 -1.91745 0.15864 0
M  V30 3585 O 337.901 -1.72654 -0.830724 0
M  V30 3586 C 338.095 -2.51669 2.53766 0
M  V30 3587 C 337.924 -2.06963 3.99245 0
M  V30 3588 C 336.694 -1.92693 4.67116 0
M  V30 3589 C 338.892 -1.63855 4.875 0
M  V30 3590 N 336.874 -1.41897 5.97276 0
M  V30 3591 C 338.245 -1.24541 6.07363 0
M  V30 3592 C 340.3 -1.51533 4.74281 0
M  V30 3593 C 339.003 -0.741354 7.15469 0
M  V30 3594 C 341.029 -1.0253 5.82444 0
M  V30 3595 C 340.391 -0.641869 7.01469 0
M  V30 3596 H 336.49 -0.490042 0.609412 0
M  V30 3597 H 339.074 -0.682687 1.82339 0
M  V30 3598 H 337.245 -3.16663 2.24898 0
M  V30 3599 H 338.977 -3.18578 2.4958 0
M  V30 3600 H 335.732 -2.1417 4.22408 0
M  V30 3601 H 336.156 -1.18704 6.66512 0
M  V30 3602 H 340.798 -1.798 3.82664 0
M  V30 3603 H 338.516 -0.446243 8.06867 0
M  V30 3604 H 342.102 -0.934088 5.74253 0
M  V30 3605 H 340.982 -0.268531 7.8374 0
M  V30 3606 N 338.485 -1.33259 -0.841409 0
M  V30 3607 C 339.448 -1.23221 -1.9326 0
M  V30 3608 C 340.448 -0.151895 -1.60081 0
M  V30 3609 O 341.638 -0.403246 -1.69468 0
M  V30 3610 C 338.77 -0.898123 -3.28856 0
M  V30 3611 H 339.963 -2.2021 -2.03587 0
M  V30 3612 H 337.516 -1.17281 -1.03319 0
M  V30 3613 H 338.251 0.0693841 -3.24226 0
M  V30 3614 H 338.036 -1.67934 -3.54317 0
M  V30 3615 H 339.526 -0.852563 -4.08805 0
M  V30 3616 N 339.963 1.05934 -1.16686 0
M  V30 3617 C 341.188 1.83029 -0.975455 0
M  V30 3618 C 341.613 1.82096 0.471452 0
M  V30 3619 O 340.971 1.22443 1.33706 0
M  V30 3620 C 341.019 3.27372 -1.51195 0
M  V30 3621 O 340.123 4.06054 -0.720701 0
M  V30 3622 H 339.464 0.566194 -0.346872 0
M  V30 3623 H 341.994 1.33541 -1.55009 0
M  V30 3624 H 342.004 3.78186 -1.53099 0
M  V30 3625 H 340.679 3.27366 -2.56523 0
M  V30 3626 H 339.256 3.64812 -0.772458 0
M  V30 3627 N 341.441 0.965919 1.2453 0
M  V30 3628 C 342.687 0.62776 1.92839 0
M  V30 3629 C 343.02 -0.834694 1.75347 0
M  V30 3630 O 342.295 -1.60031 1.10546 0
M  V30 3631 C 342.578 1.00109 3.45905 0
M  V30 3632 C 342.431 2.52011 3.72573 0
M  V30 3633 C 343.75 0.53435 4.36844 0
M  V30 3634 H 340.869 0.229537 0.700344 0
M  V30 3635 H 343.511 1.2046 1.46933 0
M  V30 3636 H 341.661 0.510238 3.85135 0
M  V30 3637 H 343.333 3.08559 3.42912 0
M  V30 3638 H 341.576 2.95287 3.17786 0
M  V30 3639 H 342.247 2.73183 4.79661 0
M  V30 3640 H 344.723 0.955565 4.04979 0
M  V30 3641 H 343.599 0.824152 5.42678 0
M  V30 3642 H 343.86 -0.565589 4.38467 0
M  V30 3643 N 342.919 -1.39368 0.735821 0
M  V30 3644 C 343.882 -2.2896 0.104874 0
M  V30 3645 C 344.882 -1.46347 -0.666274 0
M  V30 3646 O 346.072 -1.67014 -0.49517 0
M  V30 3647 C 343.204 -3.29857 -0.860656 0
M  V30 3648 H 344.397 -2.86259 0.894205 0
M  V30 3649 H 341.95 -1.48029 0.501704 0
M  V30 3650 H 342.685 -2.77615 -1.67631 0
M  V30 3651 H 342.47 -3.9087 -0.310327 0
M  V30 3652 H 343.96 -3.96893 -1.29867 0
M  V30 3653 N 344.397 -0.483516 -1.5 0
M  V30 3654 C 345.646 0.0689102 -2.01582 0
M  V30 3655 C 345.959 1.39655 -1.36952 0
M  V30 3656 O 347.165 2.03465 -1.79762 0
M  V30 3657 C 345.621 0.173302 -3.59483 0
M  V30 3658 C 345.229 -1.14665 -4.33077 0
M  V30 3659 C 346.973 0.677024 -4.19066 0
M  V30 3660 C 344.88 -1.00537 -5.82792 0
M  V30 3661 H 343.81 0.0295277 -0.753422 0
M  V30 3662 H 346.461 -0.620295 -1.72698 0
M  V30 3663 H 344.843 0.926569 -3.85007 0
M  V30 3664 H 346.017 -1.91184 -4.19268 0
M  V30 3665 H 344.332 -1.58244 -3.85159 0
M  V30 3666 H 346.929 0.799952 -5.28682 0
M  V30 3667 H 347.272 1.67151 -3.81269 0
M  V30 3668 H 347.805 -0.0192083 -3.97795 0
M  V30 3669 H 344.544 -1.9736 -6.25083 0
M  V30 3670 H 344.064 -0.280776 -5.99142 0
M  V30 3671 H 345.743 -0.677 -6.43448 0
M  V30 3672 N 345.875 1.56104 -0.216619 0
M  V30 3673 C 346.825 2.16703 0.708798 0
M  V30 3674 C 347.809 1.11392 1.16106 0
M  V30 3675 O 349.001 1.37395 1.11587 0
M  V30 3676 C 346.13 2.84666 1.91886 0
M  V30 3677 C 345.216 3.97195 1.48651 0
M  V30 3678 N 345.607 4.99959 0.766434 0
M  V30 3679 C 343.905 4.09193 1.77418 0
M  V30 3680 C 344.606 5.79126 0.546659 0
M  V30 3681 N 343.582 5.32315 1.10188 0
M  V30 3682 H 347.384 2.93516 0.150162 0
M  V30 3683 H 344.898 1.6239 -0.0176768 0
M  V30 3684 H 346.895 3.26486 2.59253 0
M  V30 3685 H 345.555 2.09347 2.48202 0
M  V30 3686 H 346.566 5.16197 0.419634 0
M  V30 3687 H 343.243 3.45021 2.35088 0
M  V30 3688 H 344.633 6.71895 -0.026103 0
M  V30 3689 N 347.353 -0.0568162 1.57498 0
M  V30 3690 C 348.285 -1.09292 2.01464 0
M  V30 3691 C 349.298 -1.34112 0.922913 0
M  V30 3692 O 350.487 -1.32089 1.20062 0
M  V30 3693 C 347.587 -2.44068 2.35125 0
M  V30 3694 C 346.76 -2.38995 3.66333 0
M  V30 3695 C 345.819 -3.55997 3.87495 0
M  V30 3696 O 344.845 -3.36746 4.58901 0
M  V30 3697 N 346.047 -4.76888 3.30996 0
M  V30 3698 H 348.812 -0.718386 2.90963 0
M  V30 3699 H 346.373 -0.245235 1.60032 0
M  V30 3700 H 348.365 -3.21011 2.46443 0
M  V30 3701 H 346.935 -2.73468 1.5144 0
M  V30 3702 H 346.155 -1.47336 3.65631 0
M  V30 3703 H 347.443 -2.3272 4.52458 0
M  V30 3704 H 346.841 -4.95431 2.73065 0
M  V30 3705 H 345.398 -5.51291 3.47738 0
M  V30 3706 N 348.832 -1.54138 -0.328536 0
M  V30 3707 C 350.078 -1.7236 -1.06865 0
M  V30 3708 C 350.411 -0.493231 -1.87832 0
M  V30 3709 O 349.686 0.5098 -1.877 0
M  V30 3710 C 349.969 -2.99621 -1.99747 0
M  V30 3711 C 349.822 -4.32899 -1.22143 0
M  V30 3712 C 351.141 -3.22615 -2.99345 0
M  V30 3713 H 348.26 -0.627151 -0.387105 0
M  V30 3714 H 350.902 -1.86827 -0.345767 0
M  V30 3715 H 349.052 -2.87418 -2.61387 0
M  V30 3716 H 350.724 -4.56978 -0.630017 0
M  V30 3717 H 348.967 -4.30628 -0.523628 0
M  V30 3718 H 349.638 -5.18154 -1.90318 0
M  V30 3719 H 352.114 -3.34248 -2.47826 0
M  V30 3720 H 350.99 -4.13027 -3.61524 0
M  V30 3721 H 351.251 -2.3961 -3.71536 0
M  V30 3722 N 350.31 0.590341 -1.46126 0
M  V30 3723 C 351.242 1.71427 -1.52136 0
M  V30 3724 C 352.255 1.57542 -0.41042 0
M  V30 3725 O 353.444 1.65106 -0.678389 0
M  V30 3726 C 350.544 3.09605 -1.37834 0
M  V30 3727 C 349.717 3.49566 -2.62912 0
M  V30 3728 C 348.776 4.66773 -2.42918 0
M  V30 3729 O 347.802 4.73019 -3.1661 0
M  V30 3730 N 349.004 5.61161 -1.4859 0
M  V30 3731 H 351.769 1.66728 -2.49042 0
M  V30 3732 H 349.33 0.776113 -1.42085 0
M  V30 3733 H 351.322 3.85796 -1.22243 0
M  V30 3734 H 349.892 3.08714 -0.491393 0
M  V30 3735 H 349.112 2.63158 -2.93499 0
M  V30 3736 H 350.4 3.73028 -3.46017 0
M  V30 3737 H 349.798 5.58844 -0.87808 0
M  V30 3738 H 348.355 6.36814 -1.38965 0
M  V30 3739 N 351.788 1.33704 0.83433 0
M  V30 3740 C 353.034 1.25603 1.59222 0
M  V30 3741 C 353.367 -0.176659 1.93395 0
M  V30 3742 O 352.642 -1.11915 1.59076 0
M  V30 3743 C 352.925 2.13576 2.89926 0
M  V30 3744 C 352.778 3.65326 2.62406 0
M  V30 3745 C 354.097 2.01238 3.91397 0
M  V30 3746 H 351.216 0.457613 0.577719 0
M  V30 3747 H 353.858 1.63848 0.961972 0
M  V30 3748 H 352.008 1.8109 3.43713 0
M  V30 3749 H 353.68 4.08124 2.15017 0
M  V30 3750 H 351.923 3.8698 1.96033 0
M  V30 3751 H 352.594 4.22232 3.55562 0
M  V30 3752 H 355.07 2.29738 3.46929 0
M  V30 3753 H 353.946 2.65036 4.80673 0
M  V30 3754 H 354.207 0.985951 4.30966 0
M  V30 3755 N 353.266 -1.05314 1.17247 0
M  V30 3756 C 354.506 -1.79869 0.970898 0
M  V30 3757 C 354.87 -1.85594 -0.491808 0
M  V30 3758 O 356.071 -2.56229 -0.812409 0
M  V30 3759 C 354.342 -3.19937 1.59295 0
M  V30 3760 S 355.901 -4.10986 1.53741 0
M  V30 3761 H 352.719 -0.61949 0.348931 0
M  V30 3762 H 355.321 -1.26368 1.49169 0
M  V30 3763 H 354.025 -3.13372 2.65003 0
M  V30 3764 H 353.556 -3.78515 1.07191 0
M  V30 3765 H 355.571 -4.93203 0.544537 0
M  V30 3766 N 354.744 -0.972509 -1.24016 0
M  V30 3767 C 356.16 -0.679827 -1.44397 0
M  V30 3768 C 356.36 0.756716 -1.86751 0
M  V30 3769 O 355.416 1.53007 -2.00861 0
M  V30 3770 C 356.729 -1.66803 -2.50195 0
M  V30 3771 C 358.277 -1.68119 -2.64017 0
M  V30 3772 C 358.752 -2.65748 -3.73017 0
M  V30 3773 N 360.243 -2.64219 -3.8045 0
M  V30 3774 C 360.978 -3.36433 -4.64328 0
M  V30 3775 N 360.474 -4.1818 -5.52356 0
M  V30 3776 N 362.267 -3.25235 -4.58453 0
M  V30 3777 H 354.418 -1.90059 -0.948228 0
M  V30 3778 H 356.681 -0.818527 -0.478245 0
M  V30 3779 H 356.387 -2.69498 -2.25973 0
M  V30 3780 H 356.261 -1.4446 -3.48441 0
M  V30 3781 H 358.648 -0.661319 -2.87594 0
M  V30 3782 H 358.729 -1.94525 -1.66113 0
M  V30 3783 H 358.373 -3.67872 -3.50189 0
M  V30 3784 H 358.303 -2.36619 -4.70446 0
M  V30 3785 H 360.794 -2.04887 -3.17537 0
M  V30 3786 H 361.107 -4.70157 -6.13329 0
M  V30 3787 H 359.452 -4.22273 -5.52006 0
M  V30 3788 H 362.643 -2.60829 -3.88698 0
M  V30 3789 H 362.816 -3.81776 -5.23594 0
M  V30 3790 N 356.222 1.38976 -0.743202 0
M  V30 3791 C 357.47 1.99948 -0.29417 0
M  V30 3792 C 357.791 1.59279 1.12495 0
M  V30 3793 O 357.061 0.844808 1.76748 0
M  V30 3794 H 355.641 0.739473 -0.105774 0
M  V30 3795 H 358.303 1.699 -0.954986 0
M  V30 3796 H 357.399 3.10142 -0.349056 0
M  V30 3797 N 357.7 0.491464 1.49741 0
M  V30 3798 C 358.63 -0.28154 2.31796 0
M  V30 3799 C 359.611 -0.971473 1.3963 0
M  V30 3800 O 360.796 -0.964719 1.68543 0
M  V30 3801 C 357.926 -1.35203 3.19902 0
M  V30 3802 C 356.88 -0.782529 4.20786 0
M  V30 3803 C 356.206 -1.95283 4.97764 0
M  V30 3804 C 357.506 0.21999 5.21837 0
M  V30 3805 H 359.2 0.403355 2.96671 0
M  V30 3806 H 356.746 0.195425 1.42668 0
M  V30 3807 H 358.699 -1.90045 3.76113 0
M  V30 3808 H 357.423 -2.06598 2.52953 0
M  V30 3809 H 356.082 -0.255928 3.65706 0
M  V30 3810 H 355.73 -2.65423 4.2727 0
M  V30 3811 H 355.43 -1.57789 5.66018 0
M  V30 3812 H 356.954 -2.50577 5.56816 0
M  V30 3813 H 358.368 -0.23996 5.72798 0
M  V30 3814 H 356.765 0.51026 5.97927 0
M  V30 3815 H 357.835 1.13911 4.7133 0
M  V30 3816 N 359.178 -1.55987 0.224894 0
M  V30 3817 C 360.141 -2.19178 -0.670348 0
M  V30 3818 C 361.141 -1.15461 -1.11917 0
M  V30 3819 O 362.331 -1.40675 -1.02743 0
M  V30 3820 C 359.463 -2.81777 -1.9187 0
M  V30 3821 H 360.656 -2.99662 -0.119364 0
M  V30 3822 H 358.209 -1.5628 -0.0247128 0
M  V30 3823 H 358.944 -2.05172 -2.51147 0
M  V30 3824 H 358.729 -3.57732 -1.60531 0
M  V30 3825 H 360.219 -3.30205 -2.55645 0
M  V30 3826 N 360.656 0.0484629 -1.57525 0
M  V30 3827 C 361.603 1.05504 -2.05275 0
M  V30 3828 C 362.573 1.37084 -0.937927 0
M  V30 3829 O 363.758 1.47754 -1.2072 0
M  V30 3830 C 360.898 2.35676 -2.52093 0
M  V30 3831 C 360.011 2.10423 -3.77288 0
M  V30 3832 C 359.146 3.34327 -4.12794 0
M  V30 3833 C 358.185 3.04542 -5.30962 0
M  V30 3834 N 357.322 4.20841 -5.61994 0
M  V30 3835 H 362.162 0.640885 -2.91027 0
M  V30 3836 H 359.699 0.304854 -1.43906 0
M  V30 3837 H 361.657 3.11709 -2.77297 0
M  V30 3838 H 360.287 2.7485 -1.69285 0
M  V30 3839 H 359.339 1.24976 -3.59284 0
M  V30 3840 H 360.651 1.84438 -4.63448 0
M  V30 3841 H 359.805 4.1874 -4.39024 0
M  V30 3842 H 358.544 3.63408 -3.25247 0
M  V30 3843 H 357.549 2.18528 -5.04505 0
M  V30 3844 H 358.774 2.76758 -6.20146 0
M  V30 3845 H 356.72 4.4991 -4.77406 0
M  V30 3846 H 356.637 3.98212 -6.42622 0
M  V30 3847 H 357.905 5.06184 -5.92789 0
M  V30 3848 N 362.134 1.5431 0.320358 0
M  V30 3849 C 363.066 1.80262 1.41556 0
M  V30 3850 C 364.079 0.684723 1.477 0
M  V30 3851 O 365.268 0.961886 1.50366 0
M  V30 3852 C 362.368 1.90825 2.8007 0
M  V30 3853 C 361.541 3.21023 2.97091 0
M  V30 3854 C 360.6 3.22247 4.15985 0
M  V30 3855 O 359.626 3.95871 4.08992 0
M  V30 3856 N 360.828 2.46258 5.25678 0
M  V30 3857 H 363.593 2.74778 1.19655 0
M  V30 3858 H 361.154 1.53646 0.510358 0
M  V30 3859 H 363.146 1.89067 3.57821 0
M  V30 3860 H 361.716 1.03392 2.95006 0
M  V30 3861 H 360.936 3.35715 2.06614 0
M  V30 3862 H 362.224 4.0698 3.05361 0
M  V30 3863 H 361.622 1.86037 5.34235 0
M  V30 3864 H 360.179 2.50275 6.01835 0
M  V30 3865 N 363.613 -0.582584 1.46437 0
M  V30 3866 C 364.841 -1.36682 1.55324 0
M  V30 3867 C 365.256 -1.87796 0.194409 0
M  V30 3868 O 364.613 -1.63623 -0.808318 0
M  V30 3869 C 364.664 -2.55426 2.55812 0
M  V30 3870 O 364.385 -2.0643 3.86417 0
M  V30 3871 C 365.886 -3.47976 2.74641 0
M  V30 3872 H 363.106 -0.417545 0.525259 0
M  V30 3873 H 365.65 -0.708219 1.91845 0
M  V30 3874 H 363.805 -3.17275 2.22295 0
M  V30 3875 H 364.219 -2.83762 4.41111 0
M  V30 3876 H 365.693 -4.27775 3.48874 0
M  V30 3877 H 366.17 -3.99919 1.81553 0
M  V30 3878 H 366.776 -2.91962 3.09255 0
M  V30 3879 N 365.091 -1.34144 -0.827227 0
M  V30 3880 C 366.001 -1.27428 -1.96975 0
M  V30 3881 C 367.017 -0.182728 -1.73038 0
M  V30 3882 O 368.193 -0.408426 -1.97215 0
M  V30 3883 C 365.258 -1.02526 -3.31194 0
M  V30 3884 C 364.319 -2.20796 -3.68168 0
M  V30 3885 C 363.552 -1.97073 -4.95982 0
M  V30 3886 O 363.775 -0.926822 -5.6282 0
M  V30 3887 O 362.709 -2.83912 -5.30733 0
M  V30 3888 H 366.535 -2.23537 -2.05584 0
M  V30 3889 H 364.12 -1.14307 -0.961989 0
M  V30 3890 H 366.002 -0.904026 -4.11589 0
M  V30 3891 H 364.677 -0.0945389 -3.23562 0
M  V30 3892 H 363.584 -2.38477 -2.88235 0
M  V30 3893 H 364.917 -3.12243 -3.8048 0
M  V30 3894 N 366.569 1.04691 -1.17803 0
M  V30 3895 C 367.499 2.14494 -0.92275 0
M  V30 3896 C 368.48 1.69546 0.137179 0
M  V30 3897 O 369.665 1.94195 -0.0141108 0
M  V30 3898 C 366.795 3.44491 -0.440803 0
M  V30 3899 C 365.749 4.03031 -1.4405 0
M  V30 3900 C 365.075 5.28432 -0.81631 0
M  V30 3901 C 366.375 4.39932 -2.81527 0
M  V30 3902 H 368.069 2.36107 -1.84103 0
M  V30 3903 H 365.615 1.1347 -0.886599 0
M  V30 3904 H 367.568 4.2066 -0.249602 0
M  V30 3905 H 366.292 3.22546 0.513025 0
M  V30 3906 H 364.951 3.28937 -1.61853 0
M  V30 3907 H 364.599 5.02792 0.144511 0
M  V30 3908 H 364.299 5.68559 -1.48371 0
M  V30 3909 H 365.823 6.07284 -0.635496 0
M  V30 3910 H 367.237 5.07113 -2.67412 0
M  V30 3911 H 365.634 4.9109 -3.44892 0
M  V30 3912 H 366.704 3.50045 -3.35554 0
M  V30 3913 N 368.047 0.979072 1.23499 0
M  V30 3914 C 368.995 0.510604 2.26926 0
M  V30 3915 C 369.989 -0.431691 1.63807 0
M  V30 3916 O 371.195 -0.30573 1.77385 0
M  V30 3917 H 367.57 0.146688 0.737554 0
M  V30 3918 H 369.541 1.39466 2.63803 0
M  V30 3919 C 368.29 -0.172658 3.47271 0
M  V30 3920 H 367.613 0.543331 3.96091 0
M  V30 3921 H 369.053 -0.464101 4.21452 0
M  V30 3922 C 367.512 -1.40345 3.06276 0
M  V30 3923 O 368.042 -2.49978 3.14442 0
M  V30 3924 N 366.248 -1.27362 2.61203 0
M  V30 3925 H 365.795 -0.381584 2.54758 0
M  V30 3926 H 365.753 -2.09822 2.34141 0
M  V30 3927 N 369.525 -1.3858 0.750561 0
M  V30 3928 C 370.802 -1.94231 0.231009 0
M  V30 3929 C 371.182 -1.68611 -1.27018 0
M  V30 3930 O 370.53 -1.02296 -2.04323 0
M  V30 3931 C 370.74 -3.44123 0.581428 0
M  V30 3932 C 372.088 -4.2116 0.539389 0
M  V30 3933 O 373.112 -3.52391 0.519541 0
M  V30 3934 O 371.971 -5.43749 0.54765 0
M  V30 3935 H 369.065 -0.825639 0.0474263 0
M  V30 3936 H 371.611 -1.4799 0.830478 0
M  V30 3937 H 370.383 -3.56267 1.61833 0
M  V30 3938 H 370.006 -3.97573 -0.0462047 0
M  V30 3939 N 371.003 -0.499398 -1.49478 0
M  V30 3940 C 372.25 0.0456899 -2.02448 0
M  V30 3941 C 372.578 1.37142 -1.37921 0
M  V30 3942 O 371.833 1.89111 -0.503544 0
M  V30 3943 C 372.132 0.248424 -3.56536 0
M  V30 3944 C 371.798 -0.999107 -4.39692 0
M  V30 3945 C 370.46 -1.34108 -4.62135 0
M  V30 3946 C 372.812 -1.82842 -4.88076 0
M  V30 3947 C 370.14 -2.51191 -5.30208 0
M  V30 3948 C 372.492 -2.99076 -5.57437 0
M  V30 3949 C 371.156 -3.33655 -5.78127 0
M  V30 3950 H 370.426 0.0167191 -0.740811 0
M  V30 3951 H 373.073 -0.65923 -1.79795 0
M  V30 3952 H 371.378 1.03586 -3.77859 0
M  V30 3953 H 373.075 0.684605 -3.95113 0
M  V30 3954 H 369.665 -0.722729 -4.22463 0
M  V30 3955 H 373.849 -1.57737 -4.70566 0
M  V30 3956 H 369.105 -2.78221 -5.44429 0
M  V30 3957 H 373.279 -3.63664 -5.93904 0
M  V30 3958 H 370.906 -4.24483 -6.30649 0
M  V30 3959 N 372.481 1.55866 -0.233164 0
M  V30 3960 C 373.411 2.23783 0.666599 0
M  V30 3961 C 374.392 1.21343 1.19205 0
M  V30 3962 O 375.577 1.4996 1.23392 0
M  V30 3963 C 372.707 2.92671 1.86978 0
M  V30 3964 C 371.661 4.01682 1.47768 0
M  V30 3965 C 370.987 4.57926 2.76058 0
M  V30 3966 C 372.287 5.18126 0.658993 0
M  V30 3967 H 373.981 2.99232 0.100306 0
M  V30 3968 H 371.527 1.43924 0.046804 0
M  V30 3969 H 373.48 3.3888 2.50476 0
M  V30 3970 H 372.204 2.14688 2.46123 0
M  V30 3971 H 370.863 3.56222 0.866106 0
M  V30 3972 H 370.511 3.76659 3.33372 0
M  V30 3973 H 370.211 5.31505 2.50552 0
M  V30 3974 H 371.735 5.06859 3.40479 0
M  V30 3975 H 373.149 5.60644 1.19795 0
M  V30 3976 H 371.546 5.98009 0.500552 0
M  V30 3977 H 372.616 4.83763 -0.331856 0
M  V30 3978 N 373.959 -0.0401083 1.57549 0
M  V30 3979 C 374.889 -1.04384 2.08869 0
M  V30 3980 C 375.87 -1.38407 0.988817 0
M  V30 3981 O 377.055 -1.47483 1.26342 0
M  V30 3982 C 374.185 -2.34808 2.55895 0
M  V30 3983 C 373.139 -2.15057 3.70047 0
M  V30 3984 C 372.465 -3.51145 4.03239 0
M  V30 3985 C 373.765 -1.54576 4.98902 0
M  V30 3986 H 375.459 -0.616666 2.92981 0
M  V30 3987 H 373.005 -0.295184 1.40942 0
M  V30 3988 H 374.958 -3.05346 2.90417 0
M  V30 3989 H 373.682 -2.79565 1.68853 0
M  V30 3990 H 372.341 -1.46954 3.35857 0
M  V30 3991 H 371.989 -3.93529 3.13279 0
M  V30 3992 H 371.689 -3.38758 4.80122 0
M  V30 3993 H 373.213 -4.23062 4.40285 0
M  V30 3994 H 374.627 -2.15017 5.31451 0
M  V30 3995 H 373.024 -1.52796 5.80322 0
M  V30 3996 H 374.094 -0.51039 4.82206 0
M  V30 3997 N 375.437 -1.54477 -0.31217 0
M  V30 3998 C 376.714 -1.63891 -1.06767 0
M  V30 3999 C 377.094 -0.480028 -2.0557 0
M  V30 4000 O 376.442 0.524487 -2.22399 0
M  V30 4001 C 376.652 -3.01402 -1.75948 0
M  V30 4002 C 378 -3.57838 -2.28554 0
M  V30 4003 O 379.024 -3.03782 -1.85998 0
M  V30 4004 O 377.883 -4.52462 -3.06497 0
M  V30 4005 H 374.977 -0.664125 -0.492816 0
M  V30 4006 H 377.523 -1.66823 -0.311149 0
M  V30 4007 H 376.295 -3.77187 -1.04144 0
M  V30 4008 H 375.918 -3.02199 -2.58383 0
M  V30 4009 N 376.915 0.57481 -1.46744 0
M  V30 4010 C 378.161 1.3347 -1.52688 0
M  V30 4011 C 378.494 1.93353 -0.181229 0
M  V30 4012 O 377.769 1.76912 0.808237 0
M  V30 4013 C 378.052 2.45811 -2.63152 0
M  V30 4014 C 377.905 1.90912 -4.07275 0
M  V30 4015 C 379.224 3.47822 -2.69644 0
M  V30 4016 H 376.343 0.483935 -0.555856 0
M  V30 4017 H 378.985 0.644968 -1.78718 0
M  V30 4018 H 377.135 3.04646 -2.41088 0
M  V30 4019 H 378.807 1.36473 -4.4065 0
M  V30 4020 H 377.05 1.21691 -4.16382 0
M  V30 4021 H 377.721 2.72042 -4.80309 0
M  V30 4022 H 380.197 2.9888 -2.895 0
M  V30 4023 H 379.073 4.23876 -3.48742 0
M  V30 4024 H 379.334 4.05555 -1.76005 0
M  V30 4025 N 378.394 1.34581 0.820102 0
M  V30 4026 C 379.619 1.30333 1.61332 0
M  V30 4027 C 380.044 -0.119339 1.87721 0
M  V30 4028 O 379.402 -1.08197 1.45475 0
M  V30 4029 C 379.45 2.10258 2.92957 0
M  V30 4030 O 378.554 1.47404 3.85157 0
M  V30 4031 H 377.895 0.447488 0.490561 0
M  V30 4032 H 380.425 1.77425 1.01889 0
M  V30 4033 H 380.435 2.21718 3.42498 0
M  V30 4034 H 379.11 3.13693 2.73074 0
M  V30 4035 H 377.687 1.44703 3.43679 0
M  V30 4036 N 379.872 -1.04064 1.18357 0
M  V30 4037 C 380.819 -2.12077 0.910603 0
M  V30 4038 C 381.789 -1.65421 -0.15 0
M  V30 4039 O 382.974 -1.90797 -0.0103614 0
M  V30 4040 C 380.114 -3.42252 0.442472 0
M  V30 4041 C 379.227 -4.0252 1.5685 0
M  V30 4042 C 378.362 -5.20657 1.05309 0
M  V30 4043 C 377.401 -5.72955 2.1538 0
M  V30 4044 N 376.538 -6.8238 1.65233 0
M  V30 4045 H 381.378 -2.34764 1.83548 0
M  V30 4046 H 378.915 -1.15157 0.915279 0
M  V30 4047 H 380.873 -4.16921 0.152534 0
M  V30 4048 H 379.503 -3.19712 -0.445428 0
M  V30 4049 H 378.555 -3.25178 1.97391 0
M  V30 4050 H 379.867 -4.37362 2.39824 0
M  V30 4051 H 379.021 -6.0244 0.717677 0
M  V30 4052 H 377.76 -4.87318 0.19293 0
M  V30 4053 H 376.765 -4.89793 2.49766 0
M  V30 4054 H 377.99 -6.08337 3.01832 0
M  V30 4055 H 375.936 -6.50917 0.815064 0
M  V30 4056 H 375.853 -7.16286 2.41805 0
M  V30 4057 H 377.121 -7.67788 1.34619 0
M  V30 4058 N 381.35 -0.985608 -1.22978 0
M  V30 4059 C 382.578 -0.675582 -1.95559 0
M  V30 4060 C 382.993 0.758413 -1.72897 0
M  V30 4061 O 382.35 1.51094 -1.02357 0
M  V30 4062 C 382.401 -0.96293 -3.48439 0
M  V30 4063 O 382.122 -2.34057 -3.70336 0
M  V30 4064 C 383.623 -0.669585 -4.38214 0
M  V30 4065 H 380.843 -0.250523 -0.622478 0
M  V30 4066 H 383.387 -1.3184 -1.56328 0
M  V30 4067 H 381.542 -0.366033 -3.85667 0
M  V30 4068 H 381.956 -2.43424 -4.64591 0
M  V30 4069 H 383.43 -0.920967 -5.44263 0
M  V30 4070 H 383.907 0.396383 -4.37408 0
M  V30 4071 H 384.513 -1.2472 -4.06602 0
M  V30 4072 N 382.828 1.3818 -0.7579 0
M  V30 4073 C 384.058 2.04004 -0.326463 0
M  V30 4074 C 384.466 1.57286 1.05156 0
M  V30 4075 O 383.809 0.743144 1.67997 0
M  V30 4076 C 383.871 3.58444 -0.275402 0
M  V30 4077 C 383.535 4.28237 -1.59569 0
M  V30 4078 C 384.532 4.53312 -2.54566 0
M  V30 4079 C 382.217 4.66341 -1.86631 0
M  V30 4080 C 384.211 5.15531 -3.74842 0
M  V30 4081 C 381.898 5.28283 -3.0718 0
M  V30 4082 C 382.896 5.52814 -4.01106 0
M  V30 4083 O 382.584 6.13465 -5.19534 0
M  V30 4084 H 382.316 0.662026 -0.136739 0
M  V30 4085 H 384.87 1.7777 -1.02893 0
M  V30 4086 H 383.1 3.83667 0.483337 0
M  V30 4087 H 384.789 4.05701 0.127099 0
M  V30 4088 H 385.555 4.24299 -2.34936 0
M  V30 4089 H 381.434 4.46591 -1.14358 0
M  V30 4090 H 384.978 5.34594 -4.48168 0
M  V30 4091 H 380.875 5.56719 -3.26702 0
M  V30 4092 H 381.643 6.31951 -5.20173 0
M  V30 4093 N 384.306 0.507319 1.49211 0
M  V30 4094 C 385.553 -0.0349529 2.0247 0
M  V30 4095 C 385.881 -1.36409 1.38647 0
M  V30 4096 O 385.136 -1.88841 0.513566 0
M  V30 4097 C 385.435 -0.229513 3.56662 0
M  V30 4098 C 385.101 1.02241 4.39156 0
M  V30 4099 C 383.763 1.36557 4.61417 0
M  V30 4100 C 386.115 1.85428 4.871 0
M  V30 4101 C 383.443 2.53999 5.28868 0
M  V30 4102 C 385.795 3.02028 5.55843 0
M  V30 4103 C 384.459 3.36717 5.76349 0
M  V30 4104 H 383.729 -0.0127902 0.74089 0
M  V30 4105 H 386.376 0.668756 1.79443 0
M  V30 4106 H 384.681 -1.0158 3.78403 0
M  V30 4107 H 386.378 -0.663641 3.9547 0
M  V30 4108 H 382.968 0.745124 4.22073 0
M  V30 4109 H 387.152 1.6023 4.69723 0
M  V30 4110 H 382.408 2.81105 5.42946 0
M  V30 4111 H 386.582 3.66808 5.91967 0
M  V30 4112 H 384.209 4.27821 6.28389 0
M  V30 4113 N 385.784 -1.5574 0.241426 0
M  V30 4114 C 387.061 -1.90704 -0.434881 0
M  V30 4115 C 387.441 -1.16145 -1.76277 0
M  V30 4116 O 386.789 -0.277152 -2.26813 0
M  V30 4117 C 386.999 -3.43657 -0.608343 0
M  V30 4118 C 388.347 -4.14806 -0.906725 0
M  V30 4119 O 389.371 -3.49366 -0.694408 0
M  V30 4120 O 388.23 -5.30548 -1.31075 0
M  V30 4121 H 385.324 -0.793592 -0.23268 0
M  V30 4122 H 387.87 -1.67288 0.285086 0
M  V30 4123 H 386.642 -3.89927 0.327505 0
M  V30 4124 H 386.265 -3.72918 -1.37906 0
M  V30 4125 N 387.262 0.0317525 -1.57568 0
M  V30 4126 C 388.21 1.05165 -2.07468 0
M  V30 4127 C 389.204 1.3761 -0.98792 0
M  V30 4128 O 390.41 1.36546 -1.17282 0
M  V30 4129 H 386.785 0.35666 -0.66204 0
M  V30 4130 H 388.756 0.604958 -2.92203 0
M  V30 4131 C 387.505 2.34488 -2.56731 0
M  V30 4132 H 386.828 2.10383 -3.39969 0
M  V30 4133 H 388.268 3.04203 -2.95358 0
M  V30 4134 C 386.727 3.03266 -1.46736 0
M  V30 4135 O 387.257 3.92988 -0.832069 0
M  V30 4136 N 385.463 2.6455 -1.20256 0
M  V30 4137 H 385.01 1.91674 -1.72102 0
M  V30 4138 H 384.968 3.10886 -0.468737 0
M  V30 4139 N 388.74 1.54641 0.303973 0
M  V30 4140 C 389.989 1.7299 1.03717 0
M  V30 4141 C 390.302 0.521168 1.88529 0
M  V30 4142 O 391.508 0.586408 2.65092 0
M  V30 4143 C 389.964 3.06051 1.89369 0
M  V30 4144 C 389.572 4.34393 1.09574 0
M  V30 4145 C 391.316 3.3376 2.62306 0
M  V30 4146 C 389.223 5.58506 1.94486 0
M  V30 4147 H 388.153 0.64473 0.390947 0
M  V30 4148 H 390.804 1.81124 0.294328 0
M  V30 4149 H 389.186 2.91874 2.67629 0
M  V30 4150 H 390.36 4.59396 0.359485 0
M  V30 4151 H 388.675 4.13597 0.482324 0
M  V30 4152 H 391.272 4.23687 3.26181 0
M  V30 4153 H 391.615 2.52503 3.3098 0
M  V30 4154 H 392.148 3.48894 1.91097 0
M  V30 4155 H 388.887 6.42422 1.30287 0
M  V30 4156 H 388.407 5.37694 2.65792 0
M  V30 4157 H 390.086 5.95651 2.52605 0
M  V30 4158 N 390.218 -0.567019 1.47046 0
M  V30 4159 C 391.464 -1.32658 1.53394 0
M  V30 4160 C 391.797 -1.93254 0.19148 0
M  V30 4161 O 391.072 -1.77338 -0.798844 0
M  V30 4162 C 391.355 -2.44412 2.64452 0
M  V30 4163 C 391.208 -1.88749 4.08282 0
M  V30 4164 C 392.527 -3.46387 2.71485 0
M  V30 4165 H 389.646 -0.48098 0.558415 0
M  V30 4166 H 392.288 -0.635481 1.79058 0
M  V30 4167 H 390.438 -3.03363 2.427 0
M  V30 4168 H 392.11 -1.34134 4.41368 0
M  V30 4169 H 390.353 -1.19481 4.17021 0
M  V30 4170 H 391.024 -2.69491 4.81745 0
M  V30 4171 H 393.5 -2.9734 2.91081 0
M  V30 4172 H 392.376 -4.2202 3.50985 0
M  V30 4173 H 392.637 -4.04616 1.78153 0
M  V30 4174 N 391.696 -1.35014 -0.812953 0
M  V30 4175 C 392.659 -1.27292 -1.90602 0
M  V30 4176 C 393.659 -0.185817 -1.59723 0
M  V30 4177 O 394.849 -0.439102 -1.68575 0
M  V30 4178 C 391.981 -0.967676 -3.26877 0
M  V30 4179 H 393.174 -2.24479 -1.9887 0
M  V30 4180 H 390.727 -1.19446 -1.00808 0
M  V30 4181 H 391.462 0.0005954 -3.243 0
M  V30 4182 H 391.247 -1.75412 -3.50675 0
M  V30 4183 H 392.737 -0.939085 -4.06904 0
M  V30 4184 N 393.175 1.03435 -1.18907 0
M  V30 4185 C 394.424 1.76143 -0.982669 0
M  V30 4186 C 394.737 1.89416 0.487953 0
M  V30 4187 O 395.943 2.59041 0.813036 0
M  V30 4188 C 394.399 3.16722 -1.70924 0
M  V30 4189 C 394.007 3.11522 -3.21959 0
M  V30 4190 C 395.751 3.93764 -1.58588 0
M  V30 4191 C 393.658 4.46999 -3.87228 0
M  V30 4192 H 392.588 0.660292 -0.364047 0
M  V30 4193 H 395.239 1.158 -1.42347 0
M  V30 4194 H 393.621 3.775 -1.19623 0
M  V30 4195 H 394.795 2.60158 -3.80335 0
M  V30 4196 H 393.11 2.47978 -3.34508 0
M  V30 4197 H 395.707 4.93963 -2.04707 0
M  V30 4198 H 396.05 4.12794 -0.539142 0
M  V30 4199 H 396.583 3.39576 -2.07203 0
M  V30 4200 H 393.322 4.33174 -4.91976 0
M  V30 4201 H 392.842 4.98441 -3.33642 0
M  V30 4202 H 394.521 5.15898 -3.90459 0
M  V30 4203 N 394.653 0.992116 1.22453 0
M  V30 4204 C 395.93 0.583508 1.86694 0
M  V30 4205 C 396.31 -0.9392 1.89056 0
M  V30 4206 O 395.658 -1.82081 1.38053 0
M  V30 4207 C 395.868 1.20304 3.2761 0
M  V30 4208 C 397.216 1.30308 4.0411 0
M  V30 4209 O 398.24 1.15737 3.36873 0
M  V30 4210 O 397.099 1.53615 5.24466 0
M  V30 4211 H 394.193 0.198129 0.802916 0
M  V30 4212 H 396.739 1.08794 1.30238 0
M  V30 4213 H 395.511 2.24461 3.2052 0
M  V30 4214 H 395.134 0.684144 3.9167 0
M  V30 4215 N 396.131 -1.37776 0.765217 0
M  V30 4216 C 397.356 -2.04651 0.336537 0
M  V30 4217 C 397.781 -1.57337 -1.03086 0
M  V30 4218 O 397.139 -0.730621 -1.65927 0
M  V30 4219 C 397.187 -3.58577 0.381468 0
M  V30 4220 O 396.291 -4.07706 -0.62042 0
M  V30 4221 H 395.632 -0.64756 0.146838 0
M  V30 4222 H 398.162 -1.76221 1.03959 0
M  V30 4223 H 398.172 -4.07314 0.236448 0
M  V30 4224 H 396.847 -3.9237 1.37907 0
M  V30 4225 H 395.424 -3.70306 -0.439056 0
M  V30 4226 N 397.609 -0.515225 -1.4894 0
M  V30 4227 C 398.539 0.244628 -2.32215 0
M  V30 4228 C 399.52 0.949136 -1.41157 0
M  V30 4229 O 400.705 0.937783 -1.70057 0
M  V30 4230 C 397.835 1.30096 -3.22013 0
M  V30 4231 C 396.789 0.715486 -4.21977 0
M  V30 4232 C 396.115 1.87339 -5.00808 0
M  V30 4233 C 397.415 -0.302982 -5.2142 0
M  V30 4234 H 399.109 -0.450501 -2.95991 0
M  V30 4235 H 396.655 -0.218098 -1.42339 0
M  V30 4236 H 398.608 1.84037 -3.79089 0
M  V30 4237 H 397.332 2.02547 -2.56207 0
M  V30 4238 H 395.991 0.197715 -3.66066 0
M  V30 4239 H 395.639 2.58592 -4.31438 0
M  V30 4240 H 395.339 1.48764 -5.68457 0
M  V30 4241 H 396.863 2.41686 -5.60732 0
M  V30 4242 H 398.277 0.148802 -5.73107 0
M  V30 4243 H 396.674 -0.60532 -5.97039 0
M  V30 4244 H 397.744 -1.21395 -4.69459 0
M  V30 4245 N 399.087 1.5561 -0.249682 0
M  V30 4246 C 400.017 2.24477 0.642826 0
M  V30 4247 C 400.998 1.22601 1.17911 0
M  V30 4248 O 402.183 1.5126 1.21795 0
M  V30 4249 C 399.313 2.94638 1.83863 0
M  V30 4250 C 398.267 4.03227 1.435 0
M  V30 4251 C 397.593 4.60828 2.71186 0
M  V30 4252 C 398.893 5.18796 0.604002 0
M  V30 4253 H 400.587 2.99321 0.0685625 0
M  V30 4254 H 398.133 1.43965 0.0315363 0
M  V30 4255 H 400.086 3.41517 2.46868 0
M  V30 4256 H 398.81 2.17287 2.43832 0
M  V30 4257 H 397.469 3.57121 0.828275 0
M  V30 4258 H 397.117 3.80174 3.29358 0
M  V30 4259 H 396.817 5.34132 2.44901 0
M  V30 4260 H 398.341 5.10442 3.35084 0
M  V30 4261 H 399.755 5.61883 1.13842 0
M  V30 4262 H 398.152 5.98506 0.437097 0
M  V30 4263 H 399.222 4.83384 -0.383147 0
M  V30 4264 N 400.565 -0.0233959 1.57583 0
M  V30 4265 C 401.475 -1.03907 2.10334 0
M  V30 4266 C 402.491 -1.39257 1.04323 0
M  V30 4267 O 403.667 -1.48462 1.36091 0
M  V30 4268 C 400.732 -2.31938 2.57693 0
M  V30 4269 C 399.793 -2.03117 3.78209 0
M  V30 4270 C 399.026 -3.25043 4.233 0
M  V30 4271 O 399.249 -4.35916 3.67876 0
M  V30 4272 O 398.183 -3.10411 5.15683 0
M  V30 4273 H 402.009 -0.620748 2.97288 0
M  V30 4274 H 399.594 -0.240743 1.47448 0
M  V30 4275 H 401.476 -3.07196 2.88458 0
M  V30 4276 H 400.151 -2.73055 1.73847 0
M  V30 4277 H 399.058 -1.25408 3.52454 0
M  V30 4278 H 400.391 -1.66852 4.63056 0
M  V30 4279 N 402.043 -1.548 -0.295768 0
M  V30 4280 C 402.993 -1.82497 -1.3667 0
M  V30 4281 C 403.977 -0.682434 -1.45711 0
M  V30 4282 O 405.169 -0.943207 -1.49775 0
M  V30 4283 C 402.298 -2.08036 -2.73086 0
M  V30 4284 C 401.384 -3.28488 -2.68247 0
M  V30 4285 N 401.775 -4.48924 -2.33025 0
M  V30 4286 C 400.073 -3.3062 -2.99343 0
M  V30 4287 C 400.774 -5.30956 -2.37613 0
M  V30 4288 N 399.75 -4.68805 -2.75178 0
M  V30 4289 H 403.552 -2.73175 -1.0841 0
M  V30 4290 H 401.066 -1.5437 -0.504361 0
M  V30 4291 H 403.063 -2.26027 -3.5031 0
M  V30 4292 H 401.723 -1.18629 -3.02254 0
M  V30 4293 H 402.734 -4.75432 -2.05389 0
M  V30 4294 H 399.411 -2.51336 -3.33371 0
M  V30 4295 H 400.801 -6.37199 -2.13135 0
M  V30 4296 N 403.521 0.559213 -1.47345 0
M  V30 4297 C 404.77 1.31281 -1.53128 0
M  V30 4298 C 405.083 1.94602 -0.197344 0
M  V30 4299 O 406.289 2.71173 -0.133154 0
M  V30 4300 C 404.745 2.38051 -2.69925 0
M  V30 4301 C 404.353 1.8093 -4.0984 0
M  V30 4302 C 406.097 3.14604 -2.84999 0
M  V30 4303 C 404.004 2.85468 -5.1794 0
M  V30 4304 H 402.934 0.493614 -0.569966 0
M  V30 4305 H 405.585 0.594155 -1.73615 0
M  V30 4306 H 403.967 3.12822 -2.42814 0
M  V30 4307 H 405.141 1.12544 -4.46845 0
M  V30 4308 H 403.456 1.16967 -3.99634 0
M  V30 4309 H 406.053 3.92666 -3.62929 0
M  V30 4310 H 406.396 3.68665 -1.93369 0
M  V30 4311 H 406.929 2.46945 -3.1187 0
M  V30 4312 H 403.668 2.36264 -6.1144 0
M  V30 4313 H 403.188 3.52269 -4.85455 0
M  V30 4314 H 404.867 3.48996 -5.44803 0
M  V30 4315 N 404.999 1.35443 0.805782 0
M  V30 4316 C 405.932 1.22783 1.92353 0
M  V30 4317 C 406.91 0.115543 1.62189 0
M  V30 4318 O 408.094 0.283778 1.86352 0
M  V30 4319 C 405.221 0.890746 3.26777 0
M  V30 4320 C 404.267 2.01519 3.75889 0
M  V30 4321 S 405.1 3.63101 3.93596 0
M  V30 4322 C 406.256 3.31472 5.30921 0
M  V30 4323 H 406.489 2.17394 2.02798 0
M  V30 4324 H 404.022 1.20669 0.963245 0
M  V30 4325 H 405.98 0.703068 4.04434 0
M  V30 4326 H 404.641 -0.0373152 3.14078 0
M  V30 4327 H 403.834 1.7335 4.7325 0
M  V30 4328 H 403.436 2.16124 3.05231 0
M  V30 4329 H 405.728 2.8435 6.1494 0
M  V30 4330 H 406.671 4.28036 5.64084 0
M  V30 4331 H 407.079 2.67221 4.97246 0
M  V30 4332 N 406.477 -1.02803 1.19454 0
M  V30 4333 C 407.726 -1.7562 0.991996 0
M  V30 4334 C 408.039 -1.89672 -0.477901 0
M  V30 4335 O 409.245 -2.59468 -0.799287 0
M  V30 4336 C 407.701 -3.15812 1.72601 0
M  V30 4337 C 407.309 -3.0981 3.23607 0
M  V30 4338 C 409.053 -3.92918 1.60674 0
M  V30 4339 C 406.96 -4.44939 3.89594 0
M  V30 4340 H 405.89 -0.658352 0.367543 0
M  V30 4341 H 408.541 -1.15044 1.42959 0
M  V30 4342 H 406.923 -3.7686 1.21624 0
M  V30 4343 H 408.097 -2.58138 3.81709 0
M  V30 4344 H 406.412 -2.46201 3.35819 0
M  V30 4345 H 409.009 -4.9287 2.07323 0
M  V30 4346 H 409.352 -4.12502 0.561025 0
M  V30 4347 H 409.885 -3.38472 2.09001 0
M  V30 4348 H 406.624 -4.30559 4.94267 0
M  V30 4349 H 406.144 -4.96664 3.36281 0
M  V30 4350 H 407.823 -5.1382 3.93189 0
M  V30 4351 N 407.956 -0.998596 -1.21925 0
M  V30 4352 C 409.186 -0.695276 -1.94549 0
M  V30 4353 C 409.594 0.745079 -1.73911 0
M  V30 4354 O 408.937 1.51507 -1.03881 0
M  V30 4355 C 408.999 -0.928485 -3.47303 0
M  V30 4356 C 408.663 -2.35443 -3.91683 0
M  V30 4357 C 409.66 -3.33428 -3.98901 0
M  V30 4358 C 407.345 -2.69038 -4.24174 0
M  V30 4359 C 409.339 -4.63079 -4.37992 0
M  V30 4360 C 407.026 -3.98906 -4.62944 0
M  V30 4361 C 408.024 -4.95738 -4.69822 0
M  V30 4362 O 407.712 -6.23285 -5.07711 0
M  V30 4363 H 407.444 -0.255902 -0.625692 0
M  V30 4364 H 409.998 -1.33767 -1.5587 0
M  V30 4365 H 408.228 -0.228917 -3.86022 0
M  V30 4366 H 409.917 -0.619539 -4.01144 0
M  V30 4367 H 410.683 -3.08807 -3.73983 0
M  V30 4368 H 406.562 -1.94367 -4.18022 0
M  V30 4369 H 410.106 -5.38658 -4.43275 0
M  V30 4370 H 406.003 -4.23314 -4.87314 0
M  V30 4371 H 406.771 -6.27306 -5.25766 0
M  V30 4372 N 409.434 1.37368 -0.772513 0
M  V30 4373 C 410.397 2.28601 -0.165541 0
M  V30 4374 C 411.397 1.48062 0.627238 0
M  V30 4375 O 412.587 1.68268 0.450715 0
M  V30 4376 C 409.719 3.32023 0.772897 0
M  V30 4377 H 410.912 2.83787 -0.969787 0
M  V30 4378 H 408.465 1.46647 -0.540775 0
M  V30 4379 H 409.2 2.81962 1.60212 0
M  V30 4380 H 408.985 3.91555 0.206585 0
M  V30 4381 H 410.475 4.00197 1.19298 0
M  V30 4382 N 410.912 0.523116 1.48665 0
M  V30 4383 C 411.859 -0.243398 2.29513 0
M  V30 4384 C 412.829 -0.940139 1.36933 0
M  V30 4385 O 414.014 -0.942503 1.65896 0
M  V30 4386 C 411.154 -1.28855 3.20141 0
M  V30 4387 C 410.267 -0.60135 4.27794 0
M  V30 4388 C 409.402 -1.62884 5.05611 0
M  V30 4389 C 408.441 -0.924726 6.05075 0
M  V30 4390 N 407.578 -1.89744 6.75975 0
M  V30 4391 H 412.418 0.452234 2.94549 0
M  V30 4392 H 409.955 0.234858 1.45213 0
M  V30 4393 H 411.913 -1.90674 3.71079 0
M  V30 4394 H 410.543 -1.95266 2.57043 0
M  V30 4395 H 409.595 0.130623 3.80176 0
M  V30 4396 H 410.907 -0.0481585 4.98777 0
M  V30 4397 H 410.061 -2.32149 5.60528 0
M  V30 4398 H 408.8 -2.21592 4.34452 0
M  V30 4399 H 407.805 -0.217966 5.49368 0
M  V30 4400 H 409.03 -0.343851 6.78229 0
M  V30 4401 H 406.976 -2.47373 6.07571 0
M  V30 4402 H 406.893 -1.3955 7.43009 0
M  V30 4403 H 408.161 -2.58229 7.35485 0
M  V30 4404 N 412.39 -1.55475 0.257931 0
M  V30 4405 C 413.338 -2.23244 -0.653076 0
M  V30 4406 C 414.332 -1.22366 -1.17144 0
M  V30 4407 O 415.538 -1.40347 -1.12706 0
M  V30 4408 H 411.913 -0.716247 -0.229117 0
M  V30 4409 H 413.884 -2.98343 -0.0584788 0
M  V30 4410 C 412.633 -2.95401 -1.83395 0
M  V30 4411 H 411.956 -3.72802 -1.44424 0
M  V30 4412 H 413.396 -3.46165 -2.44838 0
M  V30 4413 C 411.855 -1.99895 -2.71189 0
M  V30 4414 O 412.385 -1.53909 -3.71046 0
M  V30 4415 N 410.591 -1.6676 -2.3799 0
M  V30 4416 H 410.138 -2.04352 -1.56837 0
M  V30 4417 H 410.096 -1.03127 -2.97005 0
M  V30 4418 N 413.868 0.0150385 -1.57593 0
M  V30 4419 C 414.798 1.01047 -2.10503 0
M  V30 4420 C 415.779 1.36816 -1.01071 0
M  V30 4421 O 416.964 1.45455 -1.28672 0
M  V30 4422 C 414.094 2.30708 -2.59598 0
M  V30 4423 C 413.048 2.09142 -3.73421 0
M  V30 4424 C 412.374 3.44685 -4.08774 0
M  V30 4425 C 413.674 1.46619 -5.01298 0
M  V30 4426 H 415.368 0.569978 -2.93925 0
M  V30 4427 H 412.914 0.272724 -1.41394 0
M  V30 4428 H 414.867 3.00687 -2.95238 0
M  V30 4429 H 413.591 2.76843 -1.73279 0
M  V30 4430 H 412.25 1.41592 -3.38153 0
M  V30 4431 H 411.898 3.88495 -3.195 0
M  V30 4432 H 411.598 3.31077 -4.8545 0
M  V30 4433 H 413.122 4.16004 -4.4696 0
M  V30 4434 H 414.536 2.06535 -5.34805 0
M  V30 4435 H 412.933 1.43544 -5.82679 0
M  V30 4436 H 414.003 0.433611 -4.82957 0
M  V30 4437 N 415.346 1.54954 0.287554 0
M  V30 4438 C 416.592 1.75132 1.02257 0
M  V30 4439 C 416.925 0.542858 1.86458 0
M  V30 4440 O 416.2 -0.459856 1.88986 0
M  V30 4441 C 416.483 3.04812 1.91733 0
M  V30 4442 C 416.336 4.35985 1.10622 0
M  V30 4443 C 417.655 3.30438 2.90687 0
M  V30 4444 H 414.774 0.637194 0.370341 0
M  V30 4445 H 417.416 1.87678 0.296111 0
M  V30 4446 H 415.566 2.94247 2.53675 0
M  V30 4447 H 417.238 4.58487 0.508636 0
M  V30 4448 H 415.481 4.31865 0.409271 0
M  V30 4449 H 416.152 5.23017 1.76513 0
M  V30 4450 H 418.628 3.40701 2.38877 0
M  V30 4451 H 417.504 4.22467 3.50447 0
M  V30 4452 H 417.765 2.49377 3.65053 0
M  V30 4453 N 416.824 -0.551391 1.4764 0
M  V30 4454 C 417.772 -1.67896 1.60978 0
M  V30 4455 C 418.766 -1.62549 0.476877 0
M  V30 4456 O 419.972 -1.67664 0.654878 0
M  V30 4457 H 416.347 -0.555649 0.506713 0
M  V30 4458 H 418.318 -1.53784 2.55721 0
M  V30 4459 C 417.067 -3.06234 1.64669 0
M  V30 4460 H 416.39 -3.11033 2.51194 0
M  V30 4461 H 417.83 -3.84804 1.7805 0
M  V30 4462 C 416.289 -3.34737 0.381115 0
M  V30 4463 O 416.819 -3.98381 -0.515297 0
M  V30 4464 N 415.025 -2.8944 0.259354 0
M  V30 4465 H 414.572 -2.37827 0.98976 0
M  V30 4466 H 414.53 -3.08882 -0.586464 0
M  V30 4467 N 418.302 -1.35869 -0.798587 0
M  V30 4468 C 419.265 -1.29307 -1.89242 0
M  V30 4469 C 420.265 -0.202747 -1.59517 0
M  V30 4470 O 421.455 -0.456957 -1.681 0
M  V30 4471 C 418.587 -1.00229 -3.25833 0
M  V30 4472 H 419.78 -2.26576 -1.96478 0
M  V30 4473 H 417.333 -1.20509 -0.995358 0
M  V30 4474 H 418.068 -0.033801 -3.24282 0
M  V30 4475 H 417.853 -1.79121 -3.48795 0
M  V30 4476 H 419.343 -0.98219 -4.05885 0
M  V30 4477 N 419.78 1.02168 -1.19998 0
M  V30 4478 C 421.057 1.72816 -0.916191 0
M  V30 4479 C 421.437 2.03081 0.576325 0
M  V30 4480 O 420.785 1.69122 1.53656 0
M  V30 4481 C 420.995 2.9997 -1.78378 0
M  V30 4482 C 422.343 3.73336 -2.02251 0
M  V30 4483 O 423.367 3.09914 -1.75589 0
M  V30 4484 O 422.226 4.87371 -2.47249 0
M  V30 4485 H 419.32 0.752924 -0.342103 0
M  V30 4486 H 421.866 1.08062 -1.30846 0
M  V30 4487 H 420.638 2.73888 -2.79466 0
M  V30 4488 H 420.261 3.72464 -1.39126 0
M  V30 4489 N 421.258 1.00505 1.21394 0
M  V30 4490 C 422.674 0.717873 1.42544 0
M  V30 4491 C 422.874 -0.706936 1.88692 0
M  V30 4492 O 421.93 -1.47627 2.04847 0
M  V30 4493 C 423.243 1.73377 2.45684 0
M  V30 4494 C 424.791 1.75059 2.59467 0
M  V30 4495 C 425.266 2.75545 3.6584 0
M  V30 4496 N 426.757 2.74213 3.73311 0
M  V30 4497 C 427.492 3.48626 4.55245 0
M  V30 4498 N 426.988 4.32678 5.41075 0
M  V30 4499 N 428.781 3.37276 4.49668 0
M  V30 4500 H 420.932 1.92506 0.897503 0
M  V30 4501 H 423.195 0.830919 0.456375 0
M  V30 4502 H 422.901 2.75395 2.18748 0
M  V30 4503 H 422.775 1.53647 3.44489 0
M  V30 4504 H 425.162 0.737337 2.8574 0
M  V30 4505 H 425.243 1.98861 1.60897 0
M  V30 4506 H 424.887 3.77028 3.40313 0
M  V30 4507 H 424.817 2.49009 4.64007 0
M  V30 4508 H 427.308 2.13234 3.11993 0
M  V30 4509 H 427.621 4.86253 6.00648 0
M  V30 4510 H 425.966 4.3676 5.40616 0
M  V30 4511 H 429.157 2.71043 3.81646 0
M  V30 4512 H 429.33 3.95524 5.13288 0
M  V30 4513 N 422.737 -1.36956 0.779787 0
M  V30 4514 C 423.977 -2.01328 0.353043 0
M  V30 4515 C 424.341 -1.60558 -1.05286 0
M  V30 4516 O 425.542 -2.1745 -1.58016 0
M  V30 4517 C 423.813 -3.53874 0.500822 0
M  V30 4518 S 425.372 -4.38506 0.16053 0
M  V30 4519 H 422.19 -0.69799 0.13539 0
M  V30 4520 H 424.792 -1.67016 1.01617 0
M  V30 4521 H 423.496 -3.81034 1.52451 0
M  V30 4522 H 423.027 -3.92994 -0.178574 0
M  V30 4523 H 425.042 -4.85153 -1.04121 0
M  V30 4524 N 424.215 -0.530993 -1.48385 0
M  V30 4525 C 425.178 0.220497 -2.28137 0
M  V30 4526 C 426.178 0.866851 -1.35434 0
M  V30 4527 O 427.368 0.726746 -1.58316 0
M  V30 4528 C 424.5 1.31921 -3.1434 0
M  V30 4529 H 425.693 -0.479714 -2.96038 0
M  V30 4530 H 423.246 -0.286968 -1.53643 0
M  V30 4531 H 423.981 2.05264 -2.51072 0
M  V30 4532 H 423.766 0.86085 -3.82533 0
M  V30 4533 H 425.256 1.84776 -3.74497 0
M  V30 4534 N 425.693 1.55336 -0.266172 0
M  V30 4535 C 426.623 2.25146 0.618981 0
M  V30 4536 C 427.604 1.23845 1.16604 0
M  V30 4537 O 428.789 1.52544 1.20183 0
M  V30 4538 C 425.919 2.96572 1.80728 0
M  V30 4539 C 424.873 4.04726 1.39215 0
M  V30 4540 C 424.199 4.63678 2.66283 0
M  V30 4541 C 425.499 5.19407 0.548942 0
M  V30 4542 H 427.193 2.99377 0.0368116 0
M  V30 4543 H 424.739 1.43991 0.0162651 0
M  V30 4544 H 426.692 3.44116 2.43232 0
M  V30 4545 H 425.416 2.19861 2.41514 0
M  V30 4546 H 424.075 3.57979 0.790351 0
M  V30 4547 H 423.723 3.83646 3.25308 0
M  V30 4548 H 423.423 5.367 2.39222 0
M  V30 4549 H 424.947 5.13967 3.29651 0
M  V30 4550 H 426.361 5.63059 1.07876 0
M  V30 4551 H 424.758 5.98936 0.373593 0
M  V30 4552 H 425.828 4.8295 -0.434394 0
M  V30 4553 N 427.171 -0.0066808 1.57599 0
M  V30 4554 C 428.418 -0.69292 1.90276 0
M  V30 4555 C 428.746 -1.74148 0.866192 0
M  V30 4556 O 428.001 -1.95268 -0.129933 0
M  V30 4557 C 428.3 -1.37939 3.29708 0
M  V30 4558 C 427.966 -0.464679 4.48499 0
M  V30 4559 C 426.628 -0.212809 4.80729 0
M  V30 4560 C 428.98 0.16551 5.20937 0
M  V30 4561 C 426.308 0.677653 5.82773 0
M  V30 4562 C 428.66 1.04381 6.23929 0
M  V30 4563 C 427.324 1.30492 6.54621 0
M  V30 4564 H 426.594 -0.253558 0.696268 0
M  V30 4565 H 429.241 0.0474123 1.91441 0
M  V30 4566 H 427.546 -2.1936 3.24636 0
M  V30 4567 H 429.243 -1.9163 3.52249 0
M  V30 4568 H 425.833 -0.671153 4.23313 0
M  V30 4569 H 430.017 -0.0160756 4.96297 0
M  V30 4570 H 425.273 0.88803 6.04917 0
M  V30 4571 H 429.447 1.53851 6.79193 0
M  V30 4572 H 427.074 1.99662 7.33512 0
M  V30 4573 N 428.649 -1.55105 -0.279332 0
M  V30 4574 C 429.581 -1.83952 -1.36727 0
M  V30 4575 C 430.594 -0.723642 -1.45833 0
M  V30 4576 O 431.783 -1.00141 -1.47763 0
M  V30 4577 C 428.883 -1.98183 -2.74912 0
M  V30 4578 C 428.056 -3.28787 -2.88475 0
M  V30 4579 C 427.115 -3.33162 -4.07295 0
M  V30 4580 O 426.141 -4.06576 -3.98353 0
M  V30 4581 N 427.343 -2.60109 -5.18964 0
M  V30 4582 H 430.108 -2.77853 -1.12328 0
M  V30 4583 H 427.669 -1.54945 -0.469442 0
M  V30 4584 H 429.661 -1.98488 -3.52682 0
M  V30 4585 H 428.231 -1.11177 -2.92162 0
M  V30 4586 H 427.451 -3.41075 -1.97641 0
M  V30 4587 H 428.739 -4.14933 -2.94463 0
M  V30 4588 H 428.137 -2.00136 -5.29115 0
M  V30 4589 H 426.694 -2.66143 -5.94988 0
M  V30 4590 N 430.127 0.543554 -1.4793 0
M  V30 4591 C 431.373 1.30201 -1.55485 0
M  V30 4592 C 431.706 1.92925 -0.222201 0
M  V30 4593 O 430.981 1.78586 0.77053 0
M  V30 4594 C 431.264 2.40174 -2.68307 0
M  V30 4595 C 431.117 1.8223 -4.11233 0
M  V30 4596 C 432.436 3.42024 -2.76961 0
M  V30 4597 H 429.555 0.472036 -0.565996 0
M  V30 4598 H 432.197 0.606914 -1.80046 0
M  V30 4599 H 430.347 2.99463 -2.47495 0
M  V30 4600 H 432.019 1.27096 -4.43446 0
M  V30 4601 H 430.262 1.12832 -4.18869 0
M  V30 4602 H 430.933 2.61793 -4.85972 0
M  V30 4603 H 433.409 2.92672 -2.95774 0
M  V30 4604 H 432.285 4.16383 -3.57654 0
M  V30 4605 H 432.546 4.0173 -1.84568 0
M  V30 4606 N 431.605 1.3629 0.791371 0
M  V30 4607 C 432.882 1.20962 1.53712 0
M  V30 4608 C 433.262 -0.205021 2.10102 0
M  V30 4609 O 432.61 -1.21042 1.93807 0
M  V30 4610 C 432.82 2.29002 2.63361 0
M  V30 4611 C 434.168 2.65572 3.31295 0
M  V30 4612 O 435.192 2.2803 2.73643 0
M  V30 4613 O 434.051 3.3018 4.35481 0
M  V30 4614 H 431.145 0.47086 0.679867 0
M  V30 4615 H 433.691 1.48016 0.830021 0
M  V30 4616 H 432.463 3.2382 2.19674 0
M  V30 4617 H 432.086 2.03303 3.41692 0
M  V30 4618 N 433.083 -1.0153 1.20538 0
M  V30 4619 C 434.033 -2.08482 0.922991 0
M  V30 4620 C 435.017 -1.60469 -0.117702 0
M  V30 4621 O 436.209 -1.76772 0.0898465 0
M  V30 4622 C 433.338 -3.39952 0.478312 0
M  V30 4623 C 432.424 -3.94662 1.5525 0
M  V30 4624 N 432.815 -4.22866 2.77521 0
M  V30 4625 C 431.113 -4.22825 1.41897 0
M  V30 4626 C 431.814 -4.67002 3.4682 0
M  V30 4627 N 430.79 -4.69356 2.74237 0
M  V30 4628 H 434.592 -2.28199 1.85209 0
M  V30 4629 H 432.106 -1.19512 1.09957 0
M  V30 4630 H 434.103 -4.16105 0.257408 0
M  V30 4631 H 432.763 -3.21648 -0.444148 0
M  V30 4632 H 433.774 -4.11732 3.1416 0
M  V30 4633 H 430.451 -4.13714 0.561015 0
M  V30 4634 H 431.841 -4.97632 4.51455 0
M  V30 4635 N 434.561 -1.01147 -1.20859 0
M  V30 4636 C 435.508 -0.577354 -2.23462 0
M  V30 4637 C 436.478 0.399922 -1.61214 0
M  V30 4638 O 437.663 0.300515 -1.88419 0
M  V30 4639 C 434.803 0.083372 -3.44999 0
M  V30 4640 C 433.916 -0.937856 -4.21697 0
M  V30 4641 C 433.051 -0.248717 -5.30617 0
M  V30 4642 C 432.09 -1.25705 -5.99053 0
M  V30 4643 N 431.227 -0.594939 -6.99575 0
M  V30 4644 H 436.067 -1.45695 -2.59956 0
M  V30 4645 H 433.604 -0.729428 -1.27741 0
M  V30 4646 H 435.562 0.483535 -4.14388 0
M  V30 4647 H 434.192 0.926645 -3.09214 0
M  V30 4648 H 433.244 -1.45622 -3.51423 0
M  V30 4649 H 434.556 -1.70493 -4.68757 0
M  V30 4650 H 433.71 0.207215 -6.06346 0
M  V30 4651 H 432.449 0.55071 -4.84581 0
M  V30 4652 H 431.454 -1.72343 -5.2209 0
M  V30 4653 H 432.679 -2.05767 -6.47176 0
M  V30 4654 H 430.625 0.184713 -6.5574 0
M  V30 4655 H 430.542 -1.30017 -7.44736 0
M  V30 4656 H 431.81 -0.162427 -7.79331 0
M  V30 4657 N 436.039 1.36541 -0.78704 0
M  V30 4658 C 436.987 2.31965 -0.171724 0
M  V30 4659 C 437.981 1.55689 0.667631 0
M  V30 4660 O 439.187 1.70969 0.562981 0
M  V30 4661 H 435.562 0.751101 -0.0367545 0
M  V30 4662 H 437.533 2.81428 -0.992017 0
M  V30 4663 C 436.282 3.40968 0.680904 0
M  V30 4664 H 435.605 3.99775 0.0443961 0
M  V30 4665 H 437.045 4.10063 1.07815 0
M  V30 4666 C 435.504 2.82338 1.83813 0
M  V30 4667 O 436.034 2.74311 2.93456 0
M  V30 4668 N 434.24 2.39661 1.6435 0
M  V30 4669 H 433.787 2.46389 0.751668 0
M  V30 4670 H 433.745 2.00779 2.4194 0
M  V30 4671 N 437.518 0.538854 1.48102 0
M  V30 4672 C 438.465 -0.219042 2.29758 0
M  V30 4673 C 439.435 -0.925562 1.37922 0
M  V30 4674 O 440.62 -0.924855 1.66886 0
M  V30 4675 C 437.76 -1.25452 3.2149 0
M  V30 4676 C 436.873 -0.555943 4.28408 0
M  V30 4677 C 436.008 -1.57512 5.0731 0
M  V30 4678 C 435.047 -0.860498 6.06021 0
M  V30 4679 N 434.184 -1.82564 6.77949 0
M  V30 4680 H 439.024 0.483449 2.94052 0
M  V30 4681 H 436.561 0.250247 1.44956 0
M  V30 4682 H 438.519 -1.86727 3.7308 0
M  V30 4683 H 437.149 -1.92528 2.591 0
M  V30 4684 H 436.201 0.170938 3.80016 0
M  V30 4685 H 437.513 0.00474616 4.988 0
M  V30 4686 H 436.667 -2.26191 5.62959 0
M  V30 4687 H 435.406 -2.16972 4.36778 0
M  V30 4688 H 434.411 -0.159686 5.49568 0
M  V30 4689 H 435.636 -0.271897 6.78555 0
M  V30 4690 H 433.582 -2.40915 6.10161 0
M  V30 4691 H 433.499 -1.31662 7.44447 0
M  V30 4692 H 434.767 -2.50414 7.38182 0
M  V30 4693 N 438.996 -1.55193 0.274407 0
M  V30 4694 C 439.906 -2.26164 -0.623473 0
M  V30 4695 C 440.922 -1.28729 -1.17068 0
M  V30 4696 O 442.098 -1.61663 -1.20112 0
M  V30 4697 C 439.163 -2.96833 -1.7914 0
M  V30 4698 C 438.224 -4.09745 -1.28093 0
M  V30 4699 C 437.457 -4.77034 -2.3932 0
M  V30 4700 O 437.68 -4.4353 -3.5866 0
M  V30 4701 O 436.614 -5.64996 -2.07516 0
M  V30 4702 H 440.44 -3.03661 -0.0485661 0
M  V30 4703 H 438.025 -1.49341 0.0418382 0
M  V30 4704 H 439.907 -3.41248 -2.4724 0
M  V30 4705 H 438.582 -2.22253 -2.35341 0
M  V30 4706 H 437.489 -3.69787 -0.566416 0
M  V30 4707 H 438.822 -4.86224 -0.764683 0
M  V30 4708 N 440.474 -0.00167713 -1.576 0
M  V30 4709 C 441.404 0.988091 -2.11563 0
M  V30 4710 C 442.385 1.35736 -1.02517 0
M  V30 4711 O 443.57 1.44082 -1.30208 0
M  V30 4712 C 440.7 2.27941 -2.62031 0
M  V30 4713 C 439.654 2.0517 -3.75619 0
M  V30 4714 C 438.98 3.4033 -4.12407 0
M  V30 4715 C 440.28 1.41294 -5.02825 0
M  V30 4716 H 441.974 0.538771 -2.94513 0
M  V30 4717 H 439.52 0.257712 -1.41675 0
M  V30 4718 H 441.473 2.97539 -2.9841 0
M  V30 4719 H 440.197 2.74989 -1.76205 0
M  V30 4720 H 438.856 1.37998 -3.39635 0
M  V30 4721 H 438.504 3.85085 -3.23603 0
M  V30 4722 H 438.204 3.25909 -4.88935 0
M  V30 4723 H 439.728 4.1124 -4.51347 0
M  V30 4724 H 441.142 2.00851 -5.36965 0
M  V30 4725 H 439.539 1.37356 -5.84169 0
M  V30 4726 H 440.609 0.382362 -4.8339 0
M  V30 4727 N 441.952 1.55251 0.271103 0
M  V30 4728 C 443.182 1.79713 1.01916 0
M  V30 4729 C 443.59 0.571613 1.80359 0
M  V30 4730 O 442.933 -0.468853 1.77616 0
M  V30 4731 C 442.995 2.97138 2.02359 0
M  V30 4732 C 442.659 4.34104 1.42837 0
M  V30 4733 C 443.656 5.13019 0.843071 0
M  V30 4734 C 441.341 4.80765 1.455 0
M  V30 4735 C 443.335 6.36729 0.292333 0
M  V30 4736 C 441.022 6.0443 0.900402 0
M  V30 4737 C 442.02 6.8225 0.32007 0
M  V30 4738 O 441.708 8.03582 -0.226031 0
M  V30 4739 H 441.44 0.602431 0.306681 0
M  V30 4740 H 443.994 2.03097 0.306701 0
M  V30 4741 H 442.224 2.6945 2.77369 0
M  V30 4742 H 443.913 3.08907 2.63309 0
M  V30 4743 H 444.679 4.781 0.815178 0
M  V30 4744 H 440.558 4.20202 1.89609 0
M  V30 4745 H 444.102 6.97414 -0.161274 0
M  V30 4746 H 439.999 6.3883 0.925541 0
M  V30 4747 H 440.767 8.18418 -0.115572 0
M  V30 4748 N 443.43 -0.535701 1.48216 0
M  V30 4749 C 444.655 -1.32149 1.59848 0
M  V30 4750 C 445.08 -1.86338 0.256842 0
M  V30 4751 O 444.438 -1.64107 -0.770632 0
M  V30 4752 C 444.486 -2.45224 2.64381 0
M  V30 4753 O 443.59 -3.48093 2.21144 0
M  V30 4754 H 442.931 -0.391634 0.536208 0
M  V30 4755 H 445.461 -0.645202 1.94161 0
M  V30 4756 H 445.471 -2.91491 2.85476 0
M  V30 4757 H 444.146 -2.05143 3.61786 0
M  V30 4758 H 442.723 -3.07984 2.10239 0
M  V30 4759 N 444.908 -1.36708 -0.784132 0
M  V30 4760 C 446.185 -1.21776 -1.53069 0
M  V30 4761 C 446.565 0.193876 -2.10208 0
M  V30 4762 O 445.913 1.20012 -1.94446 0
M  V30 4763 C 446.123 -2.30395 -2.62143 0
M  V30 4764 C 447.471 -2.67325 -3.29882 0
M  V30 4765 O 448.495 -2.29478 -2.7243 0
M  V30 4766 O 447.354 -3.32485 -4.33724 0
M  V30 4767 H 444.448 -0.474459 -0.677361 0
M  V30 4768 H 446.994 -1.48454 -0.82216 0
M  V30 4769 H 445.766 -3.2498 -2.17953 0
M  V30 4770 H 445.389 -2.05112 -3.40609 0
M  V30 4771 N 446.386 1.0089 -1.21074 0
M  V30 4772 C 447.316 2.1145 -0.990523 0
M  V30 4773 C 448.297 1.69897 0.0831699 0
M  V30 4774 O 449.482 1.94052 -0.0758853 0
M  V30 4775 C 446.612 3.42914 -0.550177 0
M  V30 4776 C 445.566 3.98244 -1.56799 0
M  V30 4777 C 444.892 5.25568 -0.984013 0
M  V30 4778 C 446.192 4.30752 -2.95381 0
M  V30 4779 H 447.886 2.3013 -1.91521 0
M  V30 4780 H 445.432 1.10592 -0.92225 0
M  V30 4781 H 447.385 4.19653 -0.383305 0
M  V30 4782 H 446.109 3.24014 0.41015 0
M  V30 4783 H 444.768 3.23621 -1.72236 0
M  V30 4784 H 444.416 5.02998 -0.0155216 0
M  V30 4785 H 444.116 5.63551 -1.66384 0
M  V30 4786 H 445.64 6.04955 -0.828378 0
M  V30 4787 H 447.054 4.98349 -2.8341 0
M  V30 4788 H 445.451 4.79869 -3.60341 0
M  V30 4789 H 446.521 3.39192 -3.46521 0
M  V30 4790 N 447.864 1.01787 1.20321 0
M  V30 4791 C 449.111 0.707936 1.89722 0
M  V30 4792 C 449.439 -0.762535 1.78929 0
M  V30 4793 O 448.694 -1.56977 1.16861 0
M  V30 4794 C 448.993 1.09076 3.40349 0
M  V30 4795 C 448.659 2.55765 3.71342 0
M  V30 4796 C 447.321 2.95845 3.79511 0
M  V30 4797 C 449.673 3.50723 3.85542 0
M  V30 4798 C 447.001 4.2982 3.99339 0
M  V30 4799 C 449.353 4.84387 4.06881 0
M  V30 4800 C 448.017 5.24172 4.1328 0
M  V30 4801 H 447.287 0.259052 0.694243 0
M  V30 4802 H 449.934 1.27868 1.42555 0
M  V30 4803 H 448.239 0.438453 3.89339 0
M  V30 4804 H 449.936 0.828636 3.92345 0
M  V30 4805 H 446.526 2.2371 3.65584 0
M  V30 4806 H 450.71 3.20916 3.78585 0
M  V30 4807 H 445.966 4.60196 4.02529 0
M  V30 4808 H 450.14 5.57891 4.1681 0
M  V30 4809 H 447.767 6.27997 4.28396 0
M  V30 4810 N 449.342 -1.36122 0.79427 0
M  V30 4811 C 450.619 -1.93398 0.292685 0
M  V30 4812 C 450.999 -1.72567 -1.21589 0
M  V30 4813 O 450.347 -1.08745 -2.00965 0
M  V30 4814 C 450.557 -3.42099 0.690614 0
M  V30 4815 C 451.905 -4.19231 0.673105 0
M  V30 4816 O 452.929 -3.50559 0.631389 0
M  V30 4817 O 451.788 -5.41732 0.720362 0
M  V30 4818 H 448.882 -0.823712 0.0736693 0
M  V30 4819 H 451.428 -1.45273 0.87714 0
M  V30 4820 H 450.2 -3.50938 1.73085 0
M  V30 4821 H 449.823 -3.97519 0.0803036 0
M  V30 4822 N 450.82 -0.546701 -1.47814 0
M  V30 4823 C 452.069 -0.0166497 -2.01693 0
M  V30 4824 C 452.382 1.33721 -1.42752 0
M  V30 4825 O 453.588 1.95658 -1.8823 0
M  V30 4826 C 452.044 0.0206769 -3.59894 0
M  V30 4827 C 451.652 -1.3293 -4.27824 0
M  V30 4828 C 453.396 0.498674 -4.21561 0
M  V30 4829 C 451.303 -1.25165 -5.78003 0
M  V30 4830 H 450.233 -0.0024541 -0.753996 0
M  V30 4831 H 452.884 -0.692984 -1.69912 0
M  V30 4832 H 451.266 0.76244 -3.88591 0
M  V30 4833 H 452.44 -2.08795 -4.10781 0
M  V30 4834 H 450.755 -1.74438 -3.78101 0
M  V30 4835 H 453.352 0.575 -5.31599 0
M  V30 4836 H 453.695 1.5083 -3.88016 0
M  V30 4837 H 454.228 -0.18791 -3.97356 0
M  V30 4838 H 450.967 -2.23695 -6.1615 0
M  V30 4839 H 450.487 -0.53464 -5.97412 0
M  V30 4840 H 452.166 -0.949299 -6.39998 0
M  V30 4841 N 452.299 1.55045 -0.282633 0
M  V30 4842 C 453.547 1.99365 0.331334 0
M  V30 4843 C 453.868 1.1725 1.55812 0
M  V30 4844 O 453.138 0.263871 1.94115 0
M  V30 4845 H 451.718 0.736397 0.125414 0
M  V30 4846 H 454.38 1.90964 -0.389711 0
M  V30 4847 H 453.476 3.0596 0.616036 0
M  V30 4848 N 453.777 0.010035 1.57597 0
M  V30 4849 C 454.687 -0.994226 2.12491 0
M  V30 4850 C 455.703 -1.37013 1.07254 0
M  V30 4851 O 456.879 -1.45542 1.3921 0
M  V30 4852 C 453.944 -2.2642 2.62555 0
M  V30 4853 C 453.005 -1.95049 3.82432 0
M  V30 4854 C 452.238 -3.15991 4.30099 0
M  V30 4855 O 452.461 -4.28015 3.7704 0
M  V30 4856 O 451.395 -2.99403 5.22151 0
M  V30 4857 H 455.221 -0.557549 2.98538 0
M  V30 4858 H 452.806 -0.209413 1.47925 0
M  V30 4859 H 454.688 -3.01009 2.9491 0
M  V30 4860 H 453.363 -2.69306 1.796 0
M  V30 4861 H 452.27 -1.17904 3.55034 0
M  V30 4862 H 453.603 -1.56992 4.66491 0
M  V30 4863 N 455.255 -1.55392 -0.262866 0
M  V30 4864 C 456.165 -1.92077 -1.34698 0
M  V30 4865 C 457.181 -0.819227 -1.53508 0
M  V30 4866 O 458.357 -1.11921 -1.67439 0
M  V30 4867 C 455.422 -2.19407 -2.68443 0
M  V30 4868 C 454.483 -3.42905 -2.58292 0
M  V30 4869 C 453.716 -3.68921 -3.85659 0
M  V30 4870 O 453.939 -2.97275 -4.8681 0
M  V30 4871 O 452.873 -4.62455 -3.85252 0
M  V30 4872 H 456.699 -2.84384 -1.06581 0
M  V30 4873 H 454.284 -1.42069 -0.462264 0
M  V30 4874 H 456.166 -2.38365 -3.47506 0
M  V30 4875 H 454.841 -1.30282 -2.96325 0
M  V30 4876 H 453.748 -3.29272 -1.7757 0
M  V30 4877 H 455.081 -4.32282 -2.35358 0
M  V30 4878 N 456.733 0.527833 -1.48498 0
M  V30 4879 C 457.68 1.6322 -1.6318 0
M  V30 4880 C 458.65 1.59199 -0.473815 0
M  V30 4881 O 459.835 1.77591 -0.697563 0
M  V30 4882 C 456.975 3.01474 -1.67951 0
M  V30 4883 C 456.088 3.15713 -2.94871 0
M  V30 4884 C 455.223 4.44539 -2.90789 0
M  V30 4885 C 454.262 4.52315 -4.12404 0
M  V30 4886 N 453.399 5.72533 -4.06387 0
M  V30 4887 H 458.239 1.50011 -2.57489 0
M  V30 4888 H 455.776 0.730298 -1.27691 0
M  V30 4889 H 457.734 3.81572 -1.68698 0
M  V30 4890 H 456.364 3.1345 -0.771306 0
M  V30 4891 H 455.416 2.28854 -3.03859 0
M  V30 4892 H 456.728 3.1732 -3.8485 0
M  V30 4893 H 455.882 5.3293 -2.89949 0
M  V30 4894 H 454.621 4.45457 -1.98542 0
M  V30 4895 H 453.626 3.62331 -4.13517 0
M  V30 4896 H 454.851 4.53134 -5.05812 0
M  V30 4897 H 452.797 5.74344 -3.16962 0
M  V30 4898 H 452.714 5.75643 -4.90073 0
M  V30 4899 H 453.982 6.63204 -4.0961 0
M  V30 4900 N 458.211 1.37122 0.776871 0
M  V30 4901 C 459.121 1.34651 1.9211 0
M  V30 4902 C 460.137 0.246824 1.7224 0
M  V30 4903 O 461.313 0.48134 1.95563 0
M  V30 4904 C 458.378 1.14748 3.2716 0
M  V30 4905 C 457.439 2.34308 3.5972 0
M  V30 4906 C 456.672 2.15345 4.88326 0
M  V30 4907 O 456.895 1.13507 5.58992 0
M  V30 4908 O 455.829 3.03414 5.1983 0
M  V30 4909 H 459.655 2.31013 1.97146 0
M  V30 4910 H 457.24 1.17799 0.918901 0
M  V30 4911 H 459.122 1.05616 4.0795 0
M  V30 4912 H 457.797 0.214562 3.22988 0
M  V30 4913 H 456.704 2.49011 2.79185 0
M  V30 4914 H 458.037 3.26149 3.68629 0
M  V30 4915 N 459.689 -1.00246 1.21608 0
M  V30 4916 C 460.937 -1.73717 1.0328 0
M  V30 4917 C 461.258 -1.90102 -0.434318 0
M  V30 4918 O 460.528 -1.45376 -1.31311 0
M  V30 4919 H 459.108 -0.643613 0.379172 0
M  V30 4920 H 461.77 -1.20787 1.52959 0
M  V30 4921 H 460.866 -2.73535 1.50283 0
M  V30 4922 N 461.167 -1.02423 -1.1978 0
M  V30 4923 C 462.114 -0.601023 -2.22837 0
M  V30 4924 C 463.084 0.382801 -1.61629 0
M  V30 4925 O 464.269 0.280514 -1.88727 0
M  V30 4926 C 461.409 0.0467755 -3.45068 0
M  V30 4927 C 460.522 -0.98253 -4.20678 0
M  V30 4928 C 459.657 -0.304982 -5.30324 0
M  V30 4929 C 458.696 -1.32052 -5.97686 0
M  V30 4930 N 457.833 -0.669105 -6.98904 0
M  V30 4931 H 462.673 -1.48444 -2.58396 0
M  V30 4932 H 460.21 -0.742936 -1.2696 0
M  V30 4933 H 462.168 0.439556 -4.14878 0
M  V30 4934 H 460.798 0.893796 -3.10179 0
M  V30 4935 H 459.85 -1.49341 -3.49859 0
M  V30 4936 H 461.162 -1.75455 -4.66923 0
M  V30 4937 H 460.316 0.142893 -6.06532 0
M  V30 4938 H 459.055 0.499283 -4.85138 0
M  V30 4939 H 458.06 -1.7787 -5.20233 0
M  V30 4940 H 459.285 -2.1262 -6.44957 0
M  V30 4941 H 457.231 0.115152 -6.55899 0
M  V30 4942 H 457.148 -1.37908 -7.43315 0
M  V30 4943 H 458.416 -0.245076 -7.79115 0
M  V30 4944 N 462.645 1.35699 -0.801477 0
M  V30 4945 C 464.056 1.81415 -0.441073 0
M  V30 4946 C 464.407 1.66595 1.03636 0
M  V30 4947 O 463.532 1.19369 1.80499 0
M  V30 4948 C 464.127 3.29369 -0.793819 0
M  V30 4949 C 462.686 3.73248 -0.486083 0
M  V30 4950 C 461.833 2.57775 -1.02213 0
M  V30 4951 H 464.784 1.23749 -0.993572 0
M  V30 4952 H 464.805 3.80395 -0.0894158 0
M  V30 4953 H 464.317 3.40123 -1.86917 0
M  V30 4954 H 462.418 3.68046 0.580735 0
M  V30 4955 H 462.531 4.68222 -1.01513 0
M  V30 4956 H 460.895 2.50788 -0.444712 0
M  V30 4957 H 461.678 2.71309 -2.10348 0
M  V30 4958 N 464.123 0.554532 1.47522 0
M  V30 4959 C 465.369 0.0295227 2.02779 0
M  V30 4960 C 465.702 -1.31582 1.42828 0
M  V30 4961 O 464.977 -1.85561 0.582872 0
M  V30 4962 C 465.26 -0.0664057 3.60039 0
M  V30 4963 C 465.113 1.30585 4.30427 0
M  V30 4964 C 466.432 -0.781162 4.33112 0
M  V30 4965 H 463.551 0.0122027 0.736899 0
M  V30 4966 H 466.193 0.716305 1.7598 0
M  V30 4967 H 464.343 -0.651307 3.83002 0
M  V30 4968 H 466.015 1.93374 4.18813 0
M  V30 4969 H 464.258 1.88125 3.90886 0
M  V30 4970 H 464.929 1.19147 5.38988 0
M  V30 4971 H 467.405 -0.284565 4.15126 0
M  V30 4972 H 466.281 -0.817237 5.42782 0
M  V30 4973 H 466.542 -1.83672 4.0214 0
M  V30 4974 N 465.601 -1.54893 0.290851 0
M  V30 4975 C 466.848 -1.99933 -0.321391 0
M  V30 4976 C 467.176 -1.17927 -1.54672 0
M  V30 4977 O 466.431 -0.240902 -1.94212 0
M  V30 4978 C 466.73 -3.49815 -0.732397 0
M  V30 4979 C 466.396 -4.4921 0.390056 0
M  V30 4980 C 465.058 -4.76107 0.698223 0
M  V30 4981 C 467.41 -5.08453 1.14562 0
M  V30 4982 C 464.738 -5.59514 1.76526 0
M  V30 4983 C 467.09 -5.9302 2.2025 0
M  V30 4984 C 465.754 -6.18232 2.51684 0
M  V30 4985 H 465.024 -0.731608 -0.117605 0
M  V30 4986 H 467.671 -1.87107 0.407839 0
M  V30 4987 H 465.976 -3.60199 -1.54155 0
M  V30 4988 H 467.673 -3.82083 -1.21712 0
M  V30 4989 H 464.263 -4.28372 0.13976 0
M  V30 4990 H 468.447 -4.87683 0.920801 0
M  V30 4991 H 463.703 -5.77289 2.01364 0
M  V30 4992 H 467.877 -6.37955 2.7926 0
M  V30 4993 H 465.504 -6.82653 3.34499 0
M  V30 4994 N 467.08 -0.0183926 -1.57589 0
M  V30 4995 C 468.027 0.967022 -2.09565 0
M  V30 4996 C 468.997 1.32983 -0.995225 0
M  V30 4997 O 470.182 1.42501 -1.26878 0
M  V30 4998 C 467.322 2.24772 -2.61861 0
M  V30 4999 C 466.435 1.94232 -3.85873 0
M  V30 5000 C 465.57 3.16518 -4.26603 0
M  V30 5001 C 464.609 2.81748 -5.43401 0
M  V30 5002 N 463.746 3.96626 -5.79338 0
M  V30 5003 H 468.586 0.516874 -2.93483 0
M  V30 5004 H 466.123 0.243544 -1.4507 0
M  V30 5005 H 468.081 2.99667 -2.90268 0
M  V30 5006 H 466.711 2.67423 -1.8079 0
M  V30 5007 H 465.763 1.09625 -3.64262 0
M  V30 5008 H 467.075 1.64616 -4.70853 0
M  V30 5009 H 466.229 3.99743 -4.56389 0
M  V30 5010 H 464.968 3.49286 -3.40368 0
M  V30 5011 H 463.973 1.96933 -5.1332 0
M  V30 5012 H 465.198 2.50207 -6.31327 0
M  V30 5013 H 463.144 4.29257 -4.96059 0
M  V30 5014 H 463.061 3.70598 -6.58933 0
M  V30 5015 H 464.329 4.80586 -6.13724 0
M  V30 5016 N 468.558 1.5553 0.254621 0
M  V30 5017 C 469.505 1.89666 1.31512 0
M  V30 5018 C 470.475 0.750057 1.482 0
M  V30 5019 O 471.66 1.00301 1.62309 0
M  V30 5020 C 468.8 2.19009 2.667 0
M  V30 5021 C 467.913 3.46435 2.58083 0
M  V30 5022 C 467.048 3.65386 3.85573 0
M  V30 5023 C 466.087 4.8644 3.71541 0
M  V30 5024 N 465.224 5.01952 4.90906 0
M  V30 5025 H 470.064 2.80109 1.017 0
M  V30 5026 H 467.601 1.38666 0.490938 0
M  V30 5027 H 469.559 2.34025 3.45381 0
M  V30 5028 H 468.189 1.31779 2.94676 0
M  V30 5029 H 467.241 3.39792 1.71013 0
M  V30 5030 H 468.553 4.35258 2.43622 0
M  V30 5031 H 467.707 3.80319 4.72697 0
M  V30 5032 H 466.446 2.74781 4.02922 0
M  V30 5033 H 465.451 4.71491 2.82801 0
M  V30 5034 H 466.676 5.78497 3.55694 0
M  V30 5035 H 464.622 4.14283 5.08631 0
M  V30 5036 H 464.539 5.84851 4.79046 0
M  V30 5037 H 465.807 5.21289 5.7955 0
M  V30 5038 N 470.036 -0.519951 1.48776 0
M  V30 5039 C 471.264 -1.29971 1.60982 0
M  V30 5040 C 471.679 -1.86803 0.273885 0
M  V30 5041 O 471.036 -1.66904 -0.738193 0
M  V30 5042 C 471.087 -2.44346 2.66415 0
M  V30 5043 O 470.808 -1.89855 3.94825 0
M  V30 5044 C 472.309 -3.36014 2.89153 0
M  V30 5045 H 469.529 -0.394891 0.542496 0
M  V30 5046 H 472.073 -0.626214 1.94676 0
M  V30 5047 H 470.228 -3.07562 2.35552 0
M  V30 5048 H 470.642 -2.64798 4.5275 0
M  V30 5049 H 472.116 -4.12593 3.66703 0
M  V30 5050 H 472.593 -3.91859 1.98351 0
M  V30 5051 H 473.199 -2.78582 3.21359 0
M  V30 5052 N 471.514 -1.37532 -0.769588 0
M  V30 5053 C 472.461 -1.3347 -1.88293 0
M  V30 5054 C 473.431 -0.199891 -1.64893 0
M  V30 5055 O 474.616 -0.389594 -1.8678 0
M  V30 5056 C 471.756 -1.14968 -3.25387 0
M  V30 5057 C 470.869 -2.37698 -3.60727 0
M  V30 5058 C 470.004 -2.12051 -4.8704 0
M  V30 5059 C 469.043 -3.30636 -5.15117 0
M  V30 5060 N 468.18 -3.04527 -6.3262 0
M  V30 5061 H 473.02 -2.28658 -1.911 0
M  V30 5062 H 470.557 -1.13622 -0.934257 0
M  V30 5063 H 472.515 -1.02261 -4.04473 0
M  V30 5064 H 471.145 -0.234263 -3.21949 0
M  V30 5065 H 470.197 -2.61137 -2.76608 0
M  V30 5066 H 471.509 -3.26131 -3.77413 0
M  V30 5067 H 470.663 -1.96388 -5.74035 0
M  V30 5068 H 469.402 -1.20959 -4.72462 0
M  V30 5069 H 468.407 -3.46836 -4.26597 0
M  V30 5070 H 469.632 -4.22582 -5.31603 0
M  V30 5071 H 467.578 -2.16067 -6.19396 0
M  V30 5072 H 467.495 -3.86503 -6.49732 0
M  V30 5073 H 468.763 -2.92485 -7.22546 0
M  V30 5074 N 472.992 0.995999 -1.22138 0
M  V30 5075 C 473.902 2.11985 -1.00496 0
M  V30 5076 C 474.918 1.7394 0.0457701 0
M  V30 5077 O 476.094 2.00868 -0.146273 0
M  V30 5078 C 473.159 3.41779 -0.582086 0
M  V30 5079 C 472.22 3.93943 -1.70608 0
M  V30 5080 C 471.453 5.17542 -1.30328 0
M  V30 5081 O 471.676 5.70114 -0.180743 0
M  V30 5082 O 470.61 5.63382 -2.11861 0
M  V30 5083 H 474.436 2.33123 -1.94647 0
M  V30 5084 H 472.021 1.10358 -1.00705 0
M  V30 5085 H 473.903 4.1989 -0.356467 0
M  V30 5086 H 472.578 3.22007 0.330592 0
M  V30 5087 H 471.485 3.17019 -1.98619 0
M  V30 5088 H 472.818 4.18141 -2.59651 0
M  V30 5089 N 474.47 1.03057 1.19235 0
M  V30 5090 C 475.719 0.72326 1.88287 0
M  V30 5091 C 476.032 -0.751333 1.80594 0
M  V30 5092 O 477.238 -1.17176 2.44912 0
M  V30 5093 C 475.694 1.24338 3.3774 0
M  V30 5094 C 475.302 2.74587 3.53986 0
M  V30 5095 C 477.046 1.01213 4.12257 0
M  V30 5096 C 474.953 3.20009 4.97341 0
M  V30 5097 H 473.883 0.266848 0.705201 0
M  V30 5098 H 476.534 1.24509 1.34795 0
M  V30 5099 H 474.916 0.649457 3.90638 0
M  V30 5100 H 476.09 3.39649 3.11408 0
M  V30 5101 H 474.405 2.9601 2.9286 0
M  V30 5102 H 477.002 1.32675 5.17978 0
M  V30 5103 H 477.345 -0.051001 4.16269 0
M  V30 5104 H 477.878 1.57014 3.65501 0
M  V30 5105 H 474.617 4.25659 4.98493 0
M  V30 5106 H 474.137 2.59676 5.40674 0
M  V30 5107 H 475.816 3.13447 5.66003 0
M  V30 5108 N 475.948 -1.35272 0.808662 0
M  V30 5109 C 477.364 -1.51806 0.492653 0
M  V30 5110 C 477.564 -1.7574 -0.985778 0
M  V30 5111 O 476.62 -1.80003 -1.77074 0
M  V30 5112 C 477.933 -2.69202 1.33981 0
M  V30 5113 C 479.481 -2.8308 1.33547 0
M  V30 5114 C 479.956 -4.03502 2.16679 0
M  V30 5115 N 481.447 -4.10684 2.14227 0
M  V30 5116 C 482.182 -5.02984 2.75308 0
M  V30 5117 N 481.678 -6.00603 3.45323 0
M  V30 5118 N 483.471 -4.95746 2.64938 0
M  V30 5119 H 475.622 -1.17993 1.76611 0
M  V30 5120 H 477.885 -0.577476 0.751814 0
M  V30 5121 H 477.591 -2.581 2.38909 0
M  V30 5122 H 477.465 -3.63854 0.994491 0
M  V30 5123 H 479.852 -2.93631 0.294036 0
M  V30 5124 H 479.933 -1.89278 1.72068 0
M  V30 5125 H 479.577 -3.93711 3.20864 0
M  V30 5126 H 479.507 -4.96489 1.75517 0
M  V30 5127 H 481.998 -3.40802 1.63285 0
M  V30 5128 H 482.311 -6.67633 3.89212 0
M  V30 5129 H 480.656 -6.0077 3.49428 0
M  V30 5130 H 483.847 -4.18439 2.09825 0
M  V30 5131 H 484.02 -5.67487 3.12829 0
M  V30 5132 N 477.426 -0.562348 -1.47226 0
M  V30 5133 C 478.673 -0.0402165 -2.0246 0
M  V30 5134 C 479.001 1.31169 -1.43614 0
M  V30 5135 O 478.256 1.86805 -0.5833 0
M  V30 5136 C 478.555 0.0969817 -3.57268 0
M  V30 5137 C 478.221 -1.1847 -4.35058 0
M  V30 5138 C 476.883 -1.53588 -4.56031 0
M  V30 5139 C 479.235 -2.03378 -4.79882 0
M  V30 5140 C 476.563 -2.73452 -5.19077 0
M  V30 5141 C 478.915 -3.2245 -5.44251 0
M  V30 5142 C 477.579 -3.57876 -5.63455 0
M  V30 5143 H 476.849 -0.0147163 -0.740854 0
M  V30 5144 H 479.496 -0.734895 -1.76838 0
M  V30 5145 H 477.801 0.87466 -3.81912 0
M  V30 5146 H 479.498 0.516408 -3.97661 0
M  V30 5147 H 476.088 -0.90126 -4.19017 0
M  V30 5148 H 480.272 -1.77553 -4.63453 0
M  V30 5149 H 475.528 -3.01062 -5.32139 0
M  V30 5150 H 479.702 -3.88526 -5.77945 0
M  V30 5151 H 477.329 -4.50849 -6.12078 0
M  V30 5152 N 478.904 1.54736 -0.299062 0
M  V30 5153 C 480.129 2.04975 0.316254 0
M  V30 5154 C 480.554 1.17501 1.46885 0
M  V30 5155 O 479.912 0.178678 1.80417 0
M  V30 5156 C 479.96 3.52672 0.751997 0
M  V30 5157 O 479.064 3.68226 1.85697 0
M  V30 5158 H 478.405 0.661126 0.0617175 0
M  V30 5159 H 480.935 1.99805 -0.440341 0
M  V30 5160 H 480.945 3.94488 1.04133 0
M  V30 5161 H 479.62 4.158 -0.0911482 0
M  V30 5162 H 478.197 3.38316 1.56834 0
M  V30 5163 N 480.382 0.0267497 1.57577 0
M  V30 5164 C 481.631 -0.651736 1.9088 0
M  V30 5165 C 481.944 -1.73427 0.904576 0
M  V30 5166 O 483.15 -2.46923 1.12877 0
M  V30 5167 C 481.606 -1.21048 3.38933 0
M  V30 5168 C 481.214 -0.161362 4.47709 0
M  V30 5169 C 482.958 -1.86562 3.81307 0
M  V30 5170 C 480.865 -0.731611 5.86857 0
M  V30 5171 H 479.795 -0.247198 0.712326 0
M  V30 5172 H 482.446 0.0916641 1.83271 0
M  V30 5173 H 480.828 -2.00542 3.41466 0
M  V30 5174 H 482.002 0.61094 4.56732 0
M  V30 5175 H 480.317 0.394877 4.14523 0
M  V30 5176 H 482.914 -2.30178 4.8262 0
M  V30 5177 H 483.257 -2.70735 3.16241 0
M  V30 5178 H 483.79 -1.13762 3.81186 0
M  V30 5179 H 480.529 0.0719329 6.55461 0
M  V30 5180 H 480.049 -1.47245 5.81445 0
M  V30 5181 H 481.728 -1.22208 6.35354 0
M  V30 5182 N 481.861 -1.55662 -0.24637 0
M  V30 5183 C 482.771 -1.93495 -1.32653 0
M  V30 5184 C 483.787 -0.835462 -1.5263 0
M  V30 5185 O 484.963 -1.1369 -1.66242 0
M  V30 5186 C 482.028 -2.22242 -2.66101 0
M  V30 5187 C 481.089 -3.45625 -2.54641 0
M  V30 5188 C 480.322 -3.72991 -3.81724 0
M  V30 5189 O 480.545 -3.02421 -4.8363 0
M  V30 5190 O 479.479 -4.66515 -3.80325 0
M  V30 5191 H 483.305 -2.85498 -1.03559 0
M  V30 5192 H 480.89 -1.42551 -0.44717 0
M  V30 5193 H 482.772 -2.42037 -3.44958 0
M  V30 5194 H 481.447 -1.33417 -2.94926 0
M  V30 5195 H 480.354 -3.31136 -1.74067 0
M  V30 5196 H 481.687 -4.34754 -2.3076 0
M  V30 5197 N 483.339 0.512053 -1.4905 0
M  V30 5198 C 484.286 1.6148 -1.64902 0
M  V30 5199 C 485.256 1.58687 -0.490673 0
M  V30 5200 O 486.441 1.76842 -0.71636 0
M  V30 5201 C 483.581 2.99676 -1.71139 0
M  V30 5202 C 482.694 3.12568 -2.98203 0
M  V30 5203 C 481.829 4.4143 -2.95487 0
M  V30 5204 C 480.868 4.47916 -4.17179 0
M  V30 5205 N 480.005 5.68191 -4.12437 0
M  V30 5206 H 484.845 1.47271 -2.59066 0
M  V30 5207 H 482.382 0.716713 -1.28459 0
M  V30 5208 H 484.34 3.79761 -1.72736 0
M  V30 5209 H 482.97 3.12614 -0.804508 0
M  V30 5210 H 482.022 2.25618 -3.06269 0
M  V30 5211 H 483.334 3.1322 -3.88194 0
M  V30 5212 H 482.488 5.29825 -2.95585 0
M  V30 5213 H 481.227 4.43326 -2.03256 0
M  V30 5214 H 480.232 3.57925 -4.17337 0
M  V30 5215 H 481.457 4.47744 -5.1059 0
M  V30 5216 H 479.403 5.7095 -3.23036 0
M  V30 5217 H 479.32 5.70413 -4.96151 0
M  V30 5218 H 480.588 6.58823 -4.16621 0
M  V30 5219 N 484.817 1.37938 0.762283 0
M  V30 5220 C 486.065 1.33404 1.51815 0
M  V30 5221 C 486.386 -0.0780975 1.94844 0
M  V30 5222 O 485.656 -1.02405 1.67003 0
M  V30 5223 H 484.236 0.490839 0.563104 0
M  V30 5224 H 486.898 1.72527 0.906669 0
M  V30 5225 H 485.994 1.97926 2.41313 0
M  V30 5226 N 486.295 -0.989507 1.22664 0
M  V30 5227 C 487.544 -1.72375 1.04737 0
M  V30 5228 C 487.857 -1.91096 -0.417316 0
M  V30 5229 O 489.063 -2.6188 -0.716334 0
M  V30 5230 C 487.519 -3.10161 1.82561 0
M  V30 5231 C 487.127 -2.99358 3.333 0
M  V30 5232 C 488.871 -3.87607 1.73093 0
M  V30 5233 C 486.778 -4.32319 4.03552 0
M  V30 5234 H 485.708 -0.646326 0.388302 0
M  V30 5235 H 488.359 -1.10437 1.46546 0
M  V30 5236 H 486.741 -3.728 1.33552 0
M  V30 5237 H 487.915 -2.45863 3.89728 0
M  V30 5238 H 486.23 -2.35392 3.43481 0
M  V30 5239 H 488.827 -4.86025 2.22899 0
M  V30 5240 H 489.17 -4.10509 0.691976 0
M  V30 5241 H 489.703 -3.31652 2.19663 0
M  V30 5242 H 486.442 -4.14616 5.07714 0
M  V30 5243 H 485.962 -4.85714 3.51911 0
M  V30 5244 H 487.641 -5.01051 4.09337 0
M  V30 5245 N 487.773 -1.03688 -1.18687 0
M  V30 5246 C 488.736 -0.629115 -2.20397 0
M  V30 5247 C 489.736 0.311495 -1.57754 0
M  V30 5248 O 490.926 0.0974107 -1.73927 0
M  V30 5249 C 488.058 0.0782231 -3.4081 0
M  V30 5250 H 489.251 -1.52915 -2.57987 0
M  V30 5251 H 486.804 -0.828988 -1.32505 0
M  V30 5252 H 487.539 0.992233 -3.08748 0
M  V30 5253 H 487.324 -0.597776 -3.87517 0
M  V30 5254 H 488.814 0.350156 -4.16129 0
M  V30 5255 N 489.251 1.34841 -0.815825 0
M  V30 5256 C 490.499 1.98107 -0.399744 0
M  V30 5257 C 490.82 1.65019 1.03894 0
M  V30 5258 O 490.09 0.937311 1.72021 0
M  V30 5259 H 488.67 0.732827 -0.144823 0
M  V30 5260 H 491.332 1.64599 -1.0437 0
M  V30 5261 H 490.428 3.07856 -0.512965 0
M  V30 5262 N 490.729 0.570148 1.46925 0
M  V30 5263 C 491.661 -0.207909 2.28255 0
M  V30 5264 C 492.674 -0.867301 1.37774 0
M  V30 5265 O 493.863 -0.738976 1.62485 0
M  V30 5266 C 490.963 -1.31298 3.12433 0
M  V30 5267 C 490.136 -0.747915 4.30958 0
M  V30 5268 C 489.195 -1.7391 4.9663 0
M  V30 5269 O 488.221 -1.2801 5.54619 0
M  V30 5270 N 489.423 -3.07288 4.92498 0
M  V30 5271 H 492.188 0.489794 2.95671 0
M  V30 5272 H 489.749 0.407076 1.56699 0
M  V30 5273 H 491.741 -1.97507 3.53232 0
M  V30 5274 H 490.311 -1.91373 2.47175 0
M  V30 5275 H 489.531 0.0913066 3.94094 0
M  V30 5276 H 490.819 -0.349958 5.07595 0
M  V30 5277 H 490.217 -3.47213 4.46609 0
M  V30 5278 H 488.774 -3.69021 5.37277 0
M  V30 5279 N 492.207 -1.54576 0.307264 0
M  V30 5280 C 493.453 -2.0056 -0.300612 0
M  V30 5281 C 493.786 -1.1953 -1.53057 0
M  V30 5282 O 493.061 -0.27337 -1.92569 0
M  V30 5283 C 493.344 -3.54167 -0.650987 0
M  V30 5284 C 493.197 -4.45933 0.588539 0
M  V30 5285 C 494.516 -4.14645 -1.47506 0
M  V30 5286 H 491.635 -0.729075 -0.107788 0
M  V30 5287 H 494.277 -1.85286 0.420606 0
M  V30 5288 H 492.427 -3.67313 -1.26544 0
M  V30 5289 H 494.099 -4.44683 1.22697 0
M  V30 5290 H 492.342 -4.16274 1.22058 0
M  V30 5291 H 493.013 -5.51189 0.299153 0
M  V30 5292 H 495.489 -4.04973 -0.955821 0
M  V30 5293 H 494.365 -5.22269 -1.68899 0
M  V30 5294 H 494.626 -3.66921 -2.4662 0
M  V30 5295 N 493.685 -0.035106 -1.57561 0
M  V30 5296 C 494.648 0.929819 -2.09492 0
M  V30 5297 C 495.648 1.25026 -1.01119 0
M  V30 5298 O 496.838 1.18961 -1.27255 0
M  V30 5299 C 493.97 2.24457 -2.56577 0
M  V30 5300 H 495.163 0.479935 -2.96035 0
M  V30 5301 H 492.716 0.213033 -1.54841 0
M  V30 5302 H 493.451 2.74061 -1.73382 0
M  V30 5303 H 493.236 2.02508 -3.35757 0
M  V30 5304 H 494.726 2.93607 -2.96959 0
M  V30 5305 N 495.163 1.55791 0.238111 0
M  V30 5306 C 496.579 1.48411 0.587045 0
M  V30 5307 C 496.779 0.72702 1.87927 0
M  V30 5308 O 495.835 0.259942 2.51158 0
M  V30 5309 C 497.148 2.92873 0.681623 0
M  V30 5310 C 498.696 3.03295 0.773363 0
M  V30 5311 C 499.171 4.49082 0.899428 0
M  V30 5312 N 500.662 4.53056 0.964075 0
M  V30 5313 C 501.397 5.63117 1.08104 0
M  V30 5314 N 500.893 6.82969 1.16299 0
M  V30 5315 N 502.686 5.50933 1.11488 0
M  V30 5316 H 494.837 2.0345 -0.610076 0
M  V30 5317 H 497.1 0.924034 -0.211813 0
M  V30 5318 H 496.806 3.51142 -0.19802 0
M  V30 5319 H 496.68 3.43851 1.55069 0
M  V30 5320 H 499.067 2.45101 1.64346 0
M  V30 5321 H 499.148 2.55513 -0.121034 0
M  V30 5322 H 498.792 5.07889 0.0338586 0
M  V30 5323 H 498.722 4.94553 1.809 0
M  V30 5324 H 501.213 3.66737 0.91173 0
M  V30 5325 H 501.526 7.62598 1.25155 0
M  V30 5326 H 499.871 6.85712 1.13241 0
M  V30 5327 H 503.062 4.56231 1.0474 0
M  V30 5328 H 503.235 6.36743 1.20259 0
M  V30 5329 N 496.642 -0.504142 1.49319 0
M  V30 5330 C 497.87 -1.28256 1.62351 0
M  V30 5331 C 498.285 -1.86502 0.293682 0
M  V30 5332 O 497.642 -1.67678 -0.720449 0
M  V30 5333 C 497.693 -2.41507 2.68992 0
M  V30 5334 O 497.414 -1.85656 3.96817 0
M  V30 5335 C 498.915 -3.32929 2.927 0
M  V30 5336 H 496.135 -0.389115 0.546654 0
M  V30 5337 H 498.679 -0.605531 1.95329 0
M  V30 5338 H 496.834 -3.05046 2.38801 0
M  V30 5339 H 497.248 -2.59981 4.55533 0
M  V30 5340 H 498.722 -4.0868 3.71058 0
M  V30 5341 H 499.199 -3.89733 2.02496 0
M  V30 5342 H 499.805 -2.75158 3.24296 0
M  V30 5343 N 498.12 -1.38341 -0.754957 0
M  V30 5344 C 499.368 -1.34208 -1.51105 0
M  V30 5345 C 499.689 0.0677634 -1.94882 0
M  V30 5346 O 498.959 1.01517 -1.67544 0
M  V30 5347 H 497.539 -0.493819 -0.560493 0
M  V30 5348 H 500.201 -1.73005 -0.897507 0
M  V30 5349 H 499.297 -1.99203 -2.4026 0
M  V30 5350 N 499.598 0.982988 -1.23187 0
M  V30 5351 C 500.508 2.10907 -1.02739 0
M  V30 5352 C 501.524 1.73979 0.0273188 0
M  V30 5353 O 502.7 2.00702 -0.16757 0
M  V30 5354 C 499.765 3.41142 -0.618304 0
M  V30 5355 C 498.826 3.92112 -1.74777 0
M  V30 5356 C 498.059 5.16131 -1.3581 0
M  V30 5357 O 498.282 5.6989 -0.241201 0
M  V30 5358 O 497.216 5.61103 -2.17824 0
M  V30 5359 H 501.042 2.31046 -1.97108 0
M  V30 5360 H 498.627 1.09284 -1.01869 0
M  V30 5361 H 500.509 4.19488 -0.400982 0
M  V30 5362 H 499.184 3.2234 0.296421 0
M  V30 5363 H 498.091 3.14895 -2.0197 0
M  V30 5364 H 499.424 4.15364 -2.64071 0
M  V30 5365 N 501.076 1.04316 1.18135 0
M  V30 5366 C 502.322 0.749128 1.88457 0
M  V30 5367 C 502.655 -0.72149 1.803 0
M  V30 5368 O 501.93 -1.52676 1.205 0
M  V30 5369 C 502.213 1.21905 3.38838 0
M  V30 5370 C 502.066 2.75195 3.55792 0
M  V30 5371 C 503.385 0.811085 4.32561 0
M  V30 5372 H 500.504 0.273611 0.684329 0
M  V30 5373 H 503.146 1.29561 1.38975 0
M  V30 5374 H 501.296 0.754137 3.8111 0
M  V30 5375 H 502.968 3.29743 3.22595 0
M  V30 5376 H 501.211 3.14899 2.98364 0
M  V30 5377 H 501.882 3.03135 4.61317 0
M  V30 5378 H 504.358 1.21118 3.98082 0
M  V30 5379 H 503.234 1.16761 5.36338 0
M  V30 5380 H 503.495 -0.285596 4.41177 0
M  V30 5381 N 502.554 -1.34406 0.822964 0
M  V30 5382 C 503.484 -2.32052 0.259608 0
M  V30 5383 C 504.465 -1.58243 -0.623961 0
M  V30 5384 O 505.65 -1.86224 -0.55083 0
M  V30 5385 C 502.78 -3.42434 -0.579314 0
M  V30 5386 C 501.734 -4.27499 0.20712 0
M  V30 5387 C 501.06 -5.29349 -0.754547 0
M  V30 5388 C 502.36 -5.02758 1.41533 0
M  V30 5389 H 504.054 -2.79418 1.07545 0
M  V30 5390 H 501.6 -1.34338 0.518593 0
M  V30 5391 H 503.553 -4.0976 -0.983612 0
M  V30 5392 H 502.277 -2.93717 -1.4282 0
M  V30 5393 H 500.936 -3.61776 0.592787 0
M  V30 5394 H 500.584 -4.76895 -1.59939 0
M  V30 5395 H 500.284 -5.8714 -0.232561 0
M  V30 5396 H 501.808 -5.99544 -1.1567 0
M  V30 5397 H 503.222 -5.62938 1.08504 0
M  V30 5398 H 501.619 -5.70123 1.87296 0
M  V30 5399 H 502.689 -4.32451 2.1935 0
M  V30 5400 N 504.032 -0.577932 -1.46621 0
M  V30 5401 C 504.98 0.170882 -2.31971 0
M  V30 5402 C 505.974 0.889086 -1.44193 0
M  V30 5403 O 507.18 0.808017 -1.60845 0
M  V30 5404 H 503.555 0.0739763 -0.748353 0
M  V30 5405 H 505.526 -0.567856 -2.92947 0
M  V30 5406 C 504.275 1.17438 -3.27267 0
M  V30 5407 H 503.598 0.63116 -3.94787 0
M  V30 5408 H 505.038 1.66882 -3.89778 0
M  V30 5409 C 503.497 2.23292 -2.52274 0
M  V30 5410 O 504.027 3.30567 -2.28229 0
M  V30 5411 N 502.233 1.97772 -2.12919 0
M  V30 5412 H 501.78 1.10545 -2.32675 0
M  V30 5413 H 501.738 2.68809 -1.63062 0
M  V30 5414 N 505.51 1.54411 -0.315457 0
M  V30 5415 C 506.759 1.99599 0.290395 0
M  V30 5416 C 507.072 1.20746 1.53882 0
M  V30 5417 O 508.278 1.56272 2.22017 0
M  V30 5418 C 506.734 3.5539 0.56797 0
M  V30 5419 C 506.342 4.43068 -0.662945 0
M  V30 5420 C 508.086 4.09067 1.13422 0
M  V30 5421 C 505.993 5.90317 -0.357722 0
M  V30 5422 H 504.923 0.745592 0.112286 0
M  V30 5423 H 507.574 1.78477 -0.426418 0
M  V30 5424 H 505.956 3.72468 1.34476 0
M  V30 5425 H 507.13 4.37765 -1.43869 0
M  V30 5426 H 505.445 4.00238 -1.14884 0
M  V30 5427 H 508.042 5.16663 1.37707 0
M  V30 5428 H 508.385 3.60552 2.08106 0
M  V30 5429 H 508.918 3.95589 0.418805 0
M  V30 5430 H 505.657 6.4301 -1.27351 0
M  V30 5431 H 505.177 5.98592 0.380472 0
M  V30 5432 H 506.856 6.4699 0.0354284 0
M  V30 5433 N 506.988 0.0434614 1.5754 0
M  V30 5434 C 508.399 -0.493343 1.80064 0
M  V30 5435 C 508.75 -1.71388 0.955023 0
M  V30 5436 O 507.875 -2.15736 0.169434 0
M  V30 5437 C 508.47 -0.90179 3.26578 0
M  V30 5438 C 507.029 -1.38362 3.50047 0
M  V30 5439 C 506.176 -0.355129 2.75017 0
M  V30 5440 H 509.127 0.2694 1.56397 0
M  V30 5441 H 509.148 -1.76523 3.37075 0
M  V30 5442 H 508.66 -0.013271 3.88098 0
M  V30 5443 H 506.761 -2.29159 2.93798 0
M  V30 5444 H 506.874 -1.3811 4.58762 0
M  V30 5445 H 505.238 -0.826348 2.40922 0
M  V30 5446 H 506.021 0.525172 3.39259 0
M  V30 5447 N 508.466 -1.55915 -0.229846 0
M  V30 5448 C 509.743 -1.6932 -0.979295 0
M  V30 5449 C 510.123 -0.588321 -2.02736 0
M  V30 5450 O 509.471 0.40586 -2.24867 0
M  V30 5451 C 509.681 -3.10305 -1.59724 0
M  V30 5452 C 511.029 -3.6945 -2.09264 0
M  V30 5453 O 512.053 -3.13214 -1.69633 0
M  V30 5454 O 510.912 -4.68072 -2.82082 0
M  V30 5455 H 508.006 -0.689314 -0.456919 0
M  V30 5456 H 510.552 -1.68238 -0.222283 0
M  V30 5457 H 509.324 -3.82177 -0.840039 0
M  V30 5458 H 508.947 -3.1547 -2.42001 0
M  V30 5459 N 509.944 0.496216 -1.49584 0
M  V30 5460 C 510.907 1.57952 -1.66084 0
M  V30 5461 C 511.907 1.51729 -0.53244 0
M  V30 5462 O 513.097 1.54796 -0.79899 0
M  V30 5463 C 510.229 2.97604 -1.66268 0
M  V30 5464 H 511.422 1.44649 -2.6271 0
M  V30 5465 H 508.975 0.7208 -1.38687 0
M  V30 5466 H 509.71 3.16378 -0.712432 0
M  V30 5467 H 509.495 3.03528 -2.4822 0
M  V30 5468 H 510.985 3.76301 -1.81073 0
M  V30 5469 N 511.423 1.38739 0.74761 0
M  V30 5470 C 512.653 1.3832 1.53464 0
M  V30 5471 C 513.061 -0.0273464 1.8918 0
M  V30 5472 O 512.404 -1.00588 1.53713 0
M  V30 5473 C 512.466 2.18007 2.85855 0
M  V30 5474 C 512.13 3.66762 2.72644 0
M  V30 5475 C 513.127 4.60124 2.42037 0
M  V30 5476 C 510.812 4.10193 2.89909 0
M  V30 5477 C 512.806 5.94897 2.28859 0
M  V30 5478 C 510.493 5.45045 2.7635 0
M  V30 5479 C 511.491 6.37211 2.45869 0
M  V30 5480 O 511.179 7.69581 2.3238 0
M  V30 5481 H 510.911 0.474718 0.481268 0
M  V30 5482 H 513.465 1.83012 0.932518 0
M  V30 5483 H 511.695 1.68043 3.48279 0
M  V30 5484 H 513.384 2.09921 3.47402 0
M  V30 5485 H 514.15 4.27874 2.28361 0
M  V30 5486 H 510.029 3.38797 3.1263 0
M  V30 5487 H 513.573 6.66802 2.04989 0
M  V30 5488 H 509.47 5.76889 2.89601 0
M  V30 5489 H 510.238 7.80169 2.47546 0
M  V30 5490 N 512.901 -0.976442 1.23707 0
M  V30 5491 C 513.864 -2.0511 1.02287 0
M  V30 5492 C 514.864 -1.60791 -0.0167195 0
M  V30 5493 O 516.054 -1.72761 0.223408 0
M  V30 5494 C 513.186 -3.36458 0.548507 0
M  V30 5495 H 514.379 -2.25545 1.9766 0
M  V30 5496 H 511.932 -1.15042 1.05806 0
M  V30 5497 H 512.667 -3.21713 -0.408818 0
M  V30 5498 H 512.452 -3.69967 1.29874 0
M  V30 5499 H 513.942 -4.15489 0.419406 0
M  V30 5500 N 514.379 -1.04941 -1.1758 0
M  V30 5501 C 515.656 -0.671918 -1.83697 0
M  V30 5502 C 516.036 0.847929 -1.93322 0
M  V30 5503 O 515.384 1.75287 -1.46583 0
M  V30 5504 C 515.594 -1.35797 -3.21497 0
M  V30 5505 C 516.942 -1.4944 -3.97433 0
M  V30 5506 O 517.966 -1.31678 -3.30967 0
M  V30 5507 O 516.825 -1.78463 -5.1654 0
M  V30 5508 H 513.919 -0.236212 -0.792548 0
M  V30 5509 H 516.465 -1.14884 -1.24899 0
M  V30 5510 H 515.237 -2.39498 -3.09446 0
M  V30 5511 H 514.86 -0.870236 -3.8796 0
M  V30 5512 N 515.857 1.33968 -0.830081 0
M  V30 5513 C 517.268 1.80439 -0.479455 0
M  V30 5514 C 517.619 1.68756 1.00079 0
M  V30 5515 O 516.744 1.23171 1.77927 0
M  V30 5516 C 517.339 3.27611 -0.863505 0
M  V30 5517 C 515.898 3.72133 -0.565145 0
M  V30 5518 C 515.045 2.55549 -1.07657 0
M  V30 5519 H 517.996 1.21614 -1.0196 0
M  V30 5520 H 518.017 3.8012 -0.170083 0
M  V30 5521 H 517.529 3.36082 -1.94089 0
M  V30 5522 H 515.63 3.69196 0.502536 0
M  V30 5523 H 515.743 4.65963 -1.11422 0
M  V30 5524 H 514.107 2.49788 -0.497807 0
M  V30 5525 H 514.89 2.66786 -2.16055 0
M  V30 5526 N 517.335 0.585699 1.46312 0
M  V30 5527 C 518.751 0.247607 1.57668 0
M  V30 5528 C 518.951 -1.25007 1.58037 0
M  V30 5529 O 518.007 -2.03196 1.49893 0
M  V30 5530 C 519.32 0.899456 2.86933 0
M  V30 5531 C 520.868 0.873326 3.00569 0
M  V30 5532 C 521.343 1.50477 4.32574 0
M  V30 5533 N 522.834 1.46925 4.3928 0
M  V30 5534 C 523.569 1.92719 5.40044 0
M  V30 5535 N 523.065 2.46499 6.47464 0
M  V30 5536 N 524.858 1.83617 5.31264 0
M  V30 5537 H 517.009 1.55841 1.44317 0
M  V30 5538 H 519.272 0.651564 0.688599 0
M  V30 5539 H 518.978 1.95313 2.92482 0
M  V30 5540 H 518.852 0.409476 3.74971 0
M  V30 5541 H 521.239 -0.171736 2.946 0
M  V30 5542 H 521.32 1.40136 2.13999 0
M  V30 5543 H 520.964 2.54905 4.39302 0
M  V30 5544 H 520.894 0.951944 5.17924 0
M  V30 5545 H 523.385 1.07616 3.62253 0
M  V30 5546 H 523.698 2.79291 7.20567 0
M  V30 5547 H 522.043 2.50526 6.48276 0
M  V30 5548 H 525.234 1.41358 4.46246 0
M  V30 5549 H 525.407 2.19622 6.09648 0
M  V30 5550 N 518.813 -1.54241 0.323641 0
M  V30 5551 C 520.06 -2.0057 -0.27891 0
M  V30 5552 C 520.388 -1.21181 -1.52136 0
M  V30 5553 O 519.643 -0.282043 -1.93657 0
M  V30 5554 C 519.942 -3.5129 -0.658031 0
M  V30 5555 C 519.608 -4.48281 0.485252 0
M  V30 5556 C 518.27 -4.74519 0.799055 0
M  V30 5557 C 520.622 -5.05909 1.25322 0
M  V30 5558 C 517.95 -5.55643 1.88354 0
M  V30 5559 C 520.302 -5.88215 2.32779 0
M  V30 5560 C 518.966 -6.12755 2.64741 0
M  V30 5561 H 518.236 -0.733938 -0.10206 0
M  V30 5562 H 520.883 -1.862 0.447435 0
M  V30 5563 H 519.188 -3.63388 -1.4648 0
M  V30 5564 H 520.885 -3.84578 -1.1358 0
M  V30 5565 H 517.475 -4.27979 0.230593 0
M  V30 5566 H 521.659 -4.8562 1.02404 0
M  V30 5567 H 516.915 -5.72888 2.13564 0
M  V30 5568 H 521.089 -6.31888 2.92729 0
M  V30 5569 H 518.716 -6.75404 3.48904 0
M  V30 5570 N 520.291 -0.0518155 -1.57515 0
M  V30 5571 C 521.239 0.940195 -2.12751 0
M  V30 5572 C 522.233 1.3218 -1.05948 0
M  V30 5573 O 523.439 1.30138 -1.24355 0
M  V30 5574 H 519.814 0.321066 -0.680015 0
M  V30 5575 H 521.785 0.449217 -2.94999 0
M  V30 5576 C 520.534 2.2055 -2.68799 0
M  V30 5577 H 519.857 1.92066 -3.50643 0
M  V30 5578 H 521.297 2.88119 -3.11068 0
M  V30 5579 C 519.756 2.95061 -1.62605 0
M  V30 5580 O 520.286 3.88025 -1.03921 0
M  V30 5581 N 518.492 2.57804 -1.34111 0
M  V30 5582 H 518.039 1.82281 -1.8202 0
M  V30 5583 H 517.997 3.07964 -0.632872 0
M  V30 5584 N 521.769 1.56035 0.221574 0
M  V30 5585 C 523.185 1.49026 0.571271 0
M  V30 5586 C 523.385 0.746912 1.87146 0
M  V30 5587 O 522.441 0.286566 2.50869 0
M  V30 5588 C 523.754 2.93579 0.650522 0
M  V30 5589 C 525.302 3.04099 0.741151 0
M  V30 5590 C 525.777 4.5001 0.851747 0
M  V30 5591 N 527.268 4.54053 0.915968 0
M  V30 5592 C 528.003 5.64232 1.02125 0
M  V30 5593 N 527.499 6.84164 1.09049 0
M  V30 5594 N 529.292 5.52084 1.05639 0
M  V30 5595 H 521.443 2.02791 -0.63162 0
M  V30 5596 H 523.706 0.921736 -0.221602 0
M  V30 5597 H 523.412 3.50912 -0.235253 0
M  V30 5598 H 523.286 3.45476 1.51413 0
M  V30 5599 H 525.673 2.4683 1.61737 0
M  V30 5600 H 525.754 2.55371 -0.148128 0
M  V30 5601 H 525.398 5.07896 -0.0200117 0
M  V30 5602 H 525.328 4.96444 1.75644 0
M  V30 5603 H 527.819 3.67683 0.872782 0
M  V30 5604 H 528.132 7.63883 1.1706 0
M  V30 5605 H 526.477 6.86875 1.05962 0
M  V30 5606 H 529.668 4.57317 0.998953 0
M  V30 5607 H 529.841 6.37983 1.13498 0
M  V30 5608 N 523.247 -0.488276 1.49845 0
M  V30 5609 C 524.157 -1.61451 1.70207 0
M  V30 5610 C 525.173 -1.63877 0.584846 0
M  V30 5611 O 526.349 -1.82063 0.861107 0
M  V30 5612 C 523.414 -2.9776 1.77594 0
M  V30 5613 C 522.475 -3.05861 3.01243 0
M  V30 5614 C 521.708 -4.35668 3.08268 0
M  V30 5615 O 521.931 -5.25197 2.22541 0
M  V30 5616 O 520.865 -4.49005 4.00847 0
M  V30 5617 H 524.691 -1.47199 2.65643 0
M  V30 5618 H 522.276 -0.665939 1.33737 0
M  V30 5619 H 524.158 -3.7875 1.84732 0
M  V30 5620 H 522.833 -3.12248 0.8534 0
M  V30 5621 H 521.74 -2.24012 2.99616 0
M  V30 5622 H 523.073 -2.96304 3.9302 0
M  V30 5623 N 524.725 -1.39134 -0.740242 0
M  V30 5624 C 525.971 -1.36273 -1.50192 0
M  V30 5625 C 526.304 0.0430136 -1.94152 0
M  V30 5626 O 525.579 1.00691 -1.66408 0
M  V30 5627 C 525.862 -2.33041 -2.74525 0
M  V30 5628 C 525.715 -3.82535 -2.36617 0
M  V30 5629 C 527.034 -2.27723 -3.76604 0
M  V30 5630 H 524.153 -0.496323 -0.544823 0
M  V30 5631 H 526.795 -1.70085 -0.846815 0
M  V30 5632 H 524.945 -2.04337 -3.30422 0
M  V30 5633 H 526.617 -4.21967 -1.86391 0
M  V30 5634 H 524.86 -3.99565 -1.68909 0
M  V30 5635 H 525.531 -4.45723 -3.2563 0
M  V30 5636 H 528.007 -2.53091 -3.30279 0
M  V30 5637 H 526.883 -2.97519 -4.61274 0
M  V30 5638 H 527.144 -1.28049 -4.2315 0
M  V30 5639 N 526.204 0.969867 -1.24223 0
M  V30 5640 C 527.481 1.68774 -0.988664 0
M  V30 5641 C 527.861 2.05342 0.489673 0
M  V30 5642 O 527.209 1.75486 1.46345 0
M  V30 5643 C 527.419 2.92135 -1.90941 0
M  V30 5644 C 528.767 3.64422 -2.17903 0
M  V30 5645 O 529.791 3.02188 -1.88576 0
M  V30 5646 O 528.65 4.76446 -2.67697 0
M  V30 5647 H 525.744 0.737736 -0.37373 0
M  V30 5648 H 528.29 1.02415 -1.35312 0
M  V30 5649 H 527.062 2.61788 -2.90831 0
M  V30 5650 H 526.685 3.66228 -1.54798 0
M  V30 5651 N 527.682 1.05563 1.17022 0
M  V30 5652 C 528.612 0.681026 2.23348 0
M  V30 5653 C 529.593 -0.322983 1.67005 0
M  V30 5654 O 530.778 -0.199746 1.9317 0
M  V30 5655 C 527.908 0.0589053 3.4725 0
M  V30 5656 C 526.862 0.988082 4.16438 0
M  V30 5657 C 526.188 0.229646 5.34207 0
M  V30 5658 C 527.488 2.31388 4.68249 0
M  V30 5659 H 529.182 1.56993 2.54938 0
M  V30 5660 H 526.728 0.756302 1.2254 0
M  V30 5661 H 528.681 -0.214982 4.20851 0
M  V30 5662 H 527.405 -0.864968 3.14938 0
M  V30 5663 H 526.064 1.24659 3.44754 0
M  V30 5664 H 525.712 -0.697111 4.98146 0
M  V30 5665 H 525.412 0.848815 5.81437 0
M  V30 5666 H 526.936 -0.0368694 6.10589 0
M  V30 5667 H 528.35 2.09964 5.33468 0
M  V30 5668 H 526.747 2.88736 5.26072 0
M  V30 5669 H 527.817 2.94982 3.84855 0
M  V30 5670 N 529.16 -1.33526 0.837174 0
M  V30 5671 C 530.39 -2.01754 0.444848 0
M  V30 5672 C 530.798 -1.63149 -0.958072 0
M  V30 5673 O 530.141 -0.839827 -1.63379 0
M  V30 5674 C 530.203 -3.56228 0.483917 0
M  V30 5675 C 529.867 -4.18205 1.84265 0
M  V30 5676 C 530.864 -4.37699 2.80563 0
M  V30 5677 C 528.549 -4.54667 2.13503 0
M  V30 5678 C 530.543 -4.928 4.04261 0
M  V30 5679 C 528.23 -5.09475 3.37458 0
M  V30 5680 C 529.228 -5.28488 4.32654 0
M  V30 5681 O 528.916 -5.82132 5.54417 0
M  V30 5682 H 528.648 -0.652928 0.175104 0
M  V30 5683 H 531.202 -1.71469 1.13082 0
M  V30 5684 H 529.432 -3.85833 -0.258826 0
M  V30 5685 H 531.121 -4.05752 0.109653 0
M  V30 5686 H 531.887 -4.0988 2.59274 0
M  V30 5687 H 527.766 -4.39164 1.40201 0
M  V30 5688 H 531.31 -5.07555 4.78574 0
M  V30 5689 H 527.207 -5.36725 3.58604 0
M  V30 5690 H 527.975 -6.00548 5.56133 0
M  V30 5691 N 530.638 -0.59345 -1.46 0
M  V30 5692 C 531.866 -0.0890934 -2.06708 0
M  V30 5693 C 532.281 1.2205 -1.44046 0
M  V30 5694 O 531.638 1.74029 -0.549551 0
M  V30 5695 C 531.689 0.0720263 -3.61428 0
M  V30 5696 O 531.41 -1.18574 -4.21748 0
M  V30 5697 C 532.911 0.609487 -4.3909 0
M  V30 5698 H 530.131 -0.0623628 -0.668096 0
M  V30 5699 H 532.675 -0.817171 -1.87464 0
M  V30 5700 H 530.83 0.750369 -3.80063 0
M  V30 5701 H 531.244 -1.0064 -5.14754 0
M  V30 5702 H 532.718 0.671363 -5.47902 0
M  V30 5703 H 533.195 1.62878 -4.07882 0
M  V30 5704 H 533.801 -0.03434 -4.25286 0
M  V30 5705 N 532.116 1.54067 -0.331816 0
M  V30 5706 C 533.364 2.00319 0.267739 0
M  V30 5707 C 533.685 1.22148 1.52003 0
M  V30 5708 O 532.955 0.325494 1.93177 0
M  V30 5709 H 531.535 0.740014 0.101922 0
M  V30 5710 H 534.197 1.89628 -0.450267 0
M  V30 5711 H 533.293 3.07765 0.518385 0
M  V30 5712 N 533.594 0.0601682 1.57485 0
M  V30 5713 C 534.824 -0.620037 1.97076 0
M  V30 5714 C 535.232 -1.64381 0.936784 0
M  V30 5715 O 534.575 -1.83497 -0.0863377 0
M  V30 5716 C 534.637 -1.35617 3.32939 0
M  V30 5717 C 534.301 -0.487208 4.54396 0
M  V30 5718 C 535.298 0.250428 5.19297 0
M  V30 5719 C 532.983 -0.415494 5.00579 0
M  V30 5720 C 534.977 1.04812 6.28723 0
M  V30 5721 C 532.664 0.385879 6.0988 0
M  V30 5722 C 533.662 1.11637 6.73815 0
M  V30 5723 O 533.35 1.90454 7.81014 0
M  V30 5724 H 533.082 -0.173664 0.653312 0
M  V30 5725 H 535.636 0.1256 2.05016 0
M  V30 5726 H 533.866 -2.14763 3.2158 0
M  V30 5727 H 535.555 -1.92749 3.57215 0
M  V30 5728 H 536.321 0.204546 4.84568 0
M  V30 5729 H 532.2 -0.973679 4.506 0
M  V30 5730 H 535.744 1.6188 6.78558 0
M  V30 5731 H 531.641 0.433366 6.44044 0
M  V30 5732 H 532.409 1.82762 7.97835 0
M  V30 5733 N 535.072 -1.5615 -0.213296 0
M  V30 5734 C 536.3 -1.83638 -0.953139 0
M  V30 5735 C 536.715 -0.640362 -1.77609 0
M  V30 5736 O 536.072 0.391071 -1.78261 0
M  V30 5737 C 536.123 -3.09735 -1.86405 0
M  V30 5738 O 535.844 -4.24723 -1.07435 0
M  V30 5739 C 537.345 -3.5027 -2.71709 0
M  V30 5740 H 534.565 -0.610263 -0.278962 0
M  V30 5741 H 537.109 -2.03247 -0.226035 0
M  V30 5742 H 535.264 -2.92077 -2.545 0
M  V30 5743 H 535.678 -4.9641 -1.69343 0
M  V30 5744 H 537.152 -4.41515 -3.31313 0
M  V30 5745 H 537.629 -2.72406 -3.44516 0
M  V30 5746 H 538.235 -3.70396 -2.09015 0
M  V30 5747 N 536.55 0.480323 -1.50102 0
M  V30 5748 C 537.778 1.25657 -1.64371 0
M  V30 5749 C 538.193 1.86011 -0.323316 0
M  V30 5750 O 537.55 1.68803 0.693682 0
M  V30 5751 C 537.601 2.37197 -2.728 0
M  V30 5752 O 537.322 1.7932 -3.9972 0
M  V30 5753 C 538.823 3.2823 -2.9796 0
M  V30 5754 H 536.043 0.380369 -0.552775 0
M  V30 5755 H 538.587 0.574379 -1.96268 0
M  V30 5756 H 536.742 3.01208 -2.43623 0
M  V30 5757 H 537.156 2.52701 -4.59611 0
M  V30 5758 H 538.63 4.02725 -3.77513 0
M  V30 5759 H 539.107 3.86462 -2.08671 0
M  V30 5760 H 539.713 2.69964 -3.28633 0
M  V30 5761 N 538.028 1.39524 0.732853 0
M  V30 5762 C 539.444 1.21176 1.03868 0
M  V30 5763 C 539.644 0.0748448 2.01361 0
M  V30 5764 O 538.7 -0.57281 2.45917 0
M  V30 5765 C 540.013 2.54667 1.59892 0
M  V30 5766 C 541.561 2.6153 1.71962 0
M  V30 5767 C 542.036 3.95248 2.31394 0
M  V30 5768 N 543.527 3.96899 2.38801 0
M  V30 5769 C 544.262 4.97138 2.85729 0
M  V30 5770 N 543.758 6.07775 3.32537 0
M  V30 5771 N 545.551 4.84516 2.84957 0
M  V30 5772 H 537.702 2.12225 0.086304 0
M  V30 5773 H 539.965 0.942614 0.100907 0
M  V30 5774 H 539.671 3.38423 0.95721 0
M  V30 5775 H 539.545 2.74538 2.58668 0
M  V30 5776 H 541.932 1.78156 2.35254 0
M  V30 5777 H 542.013 2.45507 0.718327 0
M  V30 5778 H 541.657 4.79054 1.68729 0
M  V30 5779 H 541.587 4.08593 3.32204 0
M  V30 5780 H 544.078 3.16998 2.05719 0
M  V30 5781 H 544.391 6.8017 3.66862 0
M  V30 5782 H 542.736 6.11366 3.30541 0
M  V30 5783 H 545.927 3.97185 2.47713 0
M  V30 5784 H 546.1 5.62783 3.21215 0
M  V30 5785 N 539.506 -0.963266 1.24736 0
M  V30 5786 C 540.454 -2.07985 1.04139 0
M  V30 5787 C 541.448 -1.69381 -0.0250556 0
M  V30 5788 O 542.654 -1.79531 0.129863 0
M  V30 5789 H 539.029 -0.680627 0.319768 0
M  V30 5790 H 541 -2.22517 1.98818 0
M  V30 5791 C 539.749 -3.4123 0.667615 0
M  V30 5792 H 539.072 -3.71397 1.48 0
M  V30 5793 H 540.512 -4.20244 0.563136 0
M  V30 5794 C 538.971 -3.3104 -0.625647 0
M  V30 5795 O 539.501 -3.65334 -1.67016 0
M  V30 5796 N 537.707 -2.84168 -0.608033 0
M  V30 5797 H 537.254 -2.56458 0.242323 0
M  V30 5798 H 537.212 -2.77732 -1.47352 0
M  V30 5799 N 540.985 -1.06182 -1.16461 0
M  V30 5800 C 542.234 -0.772927 -1.86303 0
M  V30 5801 C 542.547 0.703187 -1.82523 0
M  V30 5802 O 543.753 1.10641 -2.47933 0
M  V30 5803 C 542.209 -1.33249 -3.34324 0
M  V30 5804 C 541.817 -2.83876 -3.46581 0
M  V30 5805 C 543.561 -1.12108 -4.09429 0
M  V30 5806 C 541.468 -3.33082 -4.88682 0
M  V30 5807 H 540.398 -0.285452 -0.697878 0
M  V30 5808 H 543.049 -1.28039 -1.31447 0
M  V30 5809 H 541.431 -0.7528 -3.88779 0
M  V30 5810 H 542.605 -3.47786 -3.02293 0
M  V30 5811 H 540.92 -3.03671 -2.84909 0
M  V30 5812 H 543.517 -1.46361 -5.14279 0
M  V30 5813 H 543.86 -0.0593832 -4.16258 0
M  V30 5814 H 544.393 -1.6665 -3.6121 0
M  V30 5815 H 541.132 -4.38726 -4.87032 0
M  V30 5816 H 540.652 -2.73919 -5.33599 0
M  V30 5817 H 542.331 -3.28344 -5.57494 0
M  V30 5818 N 542.463 1.3308 -0.844243 0
M  V30 5819 C 543.393 2.3161 -0.296493 0
M  V30 5820 C 544.374 1.59215 0.598707 0
M  V30 5821 O 545.559 1.87077 0.521134 0
M  V30 5822 C 542.689 3.43313 0.524762 0
M  V30 5823 C 541.643 4.27115 -0.275106 0
M  V30 5824 C 540.969 5.30483 0.670236 0
M  V30 5825 C 542.269 5.00443 -1.49514 0
M  V30 5826 H 543.963 2.77672 -1.11976 0
M  V30 5827 H 541.509 1.33496 -0.539899 0
M  V30 5828 H 543.462 4.11273 0.918298 0
M  V30 5829 H 542.186 2.95952 1.3813 0
M  V30 5830 H 540.845 3.60787 -0.650267 0
M  V30 5831 H 540.493 4.79379 1.52332 0
M  V30 5832 H 540.193 5.87435 0.139123 0
M  V30 5833 H 541.717 6.01308 1.06117 0
M  V30 5834 H 543.131 5.61141 -1.17447 0
M  V30 5835 H 541.528 5.67071 -1.96343 0
M  V30 5836 H 542.598 4.28906 -2.26202 0
M  V30 5837 N 543.941 0.601185 1.45683 0
M  V30 5838 C 545.181 0.0968037 2.04171 0
M  V30 5839 C 545.545 -1.2466 1.46027 0
M  V30 5840 O 546.746 -1.84132 1.95829 0
M  V30 5841 C 545.017 0.051384 3.57363 0
M  V30 5842 S 546.576 -0.392737 4.37039 0
M  V30 5843 H 543.394 0.0464504 0.709481 0
M  V30 5844 H 545.996 0.797846 1.78479 0
M  V30 5845 H 544.7 1.03274 3.97193 0
M  V30 5846 H 544.231 -0.671853 3.87621 0
M  V30 5847 H 546.246 -1.64364 4.68187 0
M  V30 5848 N 545.419 -1.53889 0.339982 0
M  V30 5849 C 546.352 -2.21187 -0.561405 0
M  V30 5850 C 547.33 -1.19463 -1.10306 0
M  V30 5851 O 548.514 -1.48268 -1.164 0
M  V30 5852 C 545.641 -2.8865 -1.77198 0
M  V30 5853 C 544.687 -4.04232 -1.3601 0
M  V30 5854 S 545.52 -5.34129 -0.382909 0
M  V30 5855 C 546.676 -6.05094 -1.60039 0
M  V30 5856 H 546.909 -2.97298 0.0102092 0
M  V30 5857 H 544.442 -1.53901 0.124056 0
M  V30 5858 H 546.4 -3.28138 -2.4665 0
M  V30 5859 H 545.061 -2.12311 -2.3148 0
M  V30 5860 H 544.254 -4.50358 -2.2626 0
M  V30 5861 H 543.856 -3.66503 -0.745098 0
M  V30 5862 H 546.148 -6.2827 -2.53541 0
M  V30 5863 H 547.091 -6.98182 -1.18099 0
M  V30 5864 H 547.499 -5.35207 -1.79483 0
M  V30 5865 N 546.897 -0.0685191 -1.57451 0
M  V30 5866 C 548.308 0.464634 -1.80826 0
M  V30 5867 C 548.659 1.69847 -0.982169 0
M  V30 5868 O 547.784 2.15439 -0.203734 0
M  V30 5869 C 548.379 0.849721 -3.27971 0
M  V30 5870 C 546.938 1.32776 -3.52204 0
M  V30 5871 C 546.085 0.311332 -2.75547 0
M  V30 5872 H 549.036 -0.294248 -1.55948 0
M  V30 5873 H 549.057 1.71138 -3.39841 0
M  V30 5874 H 548.569 -0.0484736 -3.8807 0
M  V30 5875 H 546.67 2.24456 -2.97406 0
M  V30 5876 H 546.783 1.30794 -4.60901 0
M  V30 5877 H 545.147 0.787915 -2.42206 0
M  V30 5878 H 545.93 -0.579078 -3.38381 0
M  V30 5879 N 548.375 1.56261 0.205012 0
M  V30 5880 C 549.624 1.79236 0.925058 0
M  V30 5881 C 549.937 0.640011 1.84833 0
M  V30 5882 O 551.143 0.753809 2.60826 0
M  V30 5883 C 549.599 3.17475 1.69522 0
M  V30 5884 C 549.207 4.40482 0.817269 0
M  V30 5885 C 550.951 3.49766 2.4055 0
M  V30 5886 C 548.858 5.69744 1.58573 0
M  V30 5887 H 547.788 0.668287 0.349153 0
M  V30 5888 H 550.439 1.82629 0.178544 0
M  V30 5889 H 548.821 3.08304 2.48526 0
M  V30 5890 H 549.995 4.60752 0.0665988 0
M  V30 5891 H 548.31 4.15827 0.218316 0
M  V30 5892 H 550.907 4.43573 2.98575 0
M  V30 5893 H 551.25 2.73041 3.14252 0
M  V30 5894 H 551.783 3.60341 1.68522 0
M  V30 5895 H 548.522 6.49407 0.891679 0
M  V30 5896 H 548.042 5.53509 2.31059 0
M  V30 5897 H 549.721 6.1051 2.14212 0
M  V30 5898 N 549.853 -0.472356 1.50355 0
M  V30 5899 C 551.099 -1.22634 1.6152 0
M  V30 5900 C 551.432 -1.91645 0.313995 0
M  V30 5901 O 550.707 -1.82059 -0.684446 0
M  V30 5902 C 550.99 -2.27099 2.7946 0
M  V30 5903 C 550.843 -1.62402 4.19459 0
M  V30 5904 C 552.162 -3.28421 2.92964 0
M  V30 5905 H 549.281 -0.444494 0.587873 0
M  V30 5906 H 551.923 -0.520321 1.82737 0
M  V30 5907 H 550.073 -2.87314 2.61501 0
M  V30 5908 H 551.745 -1.05793 4.49005 0
M  V30 5909 H 549.988 -0.927184 4.23776 0
M  V30 5910 H 550.659 -2.38309 4.97909 0
M  V30 5911 H 553.135 -2.78227 3.09401 0
M  V30 5912 H 552.011 -3.98845 3.77113 0
M  V30 5913 H 552.272 -3.92467 2.03525 0
M  V30 5914 N 551.331 -1.39911 -0.725443 0
M  V30 5915 C 552.556 -1.41137 -1.5197 0
M  V30 5916 C 552.981 -0.010262 -1.88097 0
M  V30 5917 O 552.339 0.979184 -1.52583 0
M  V30 5918 C 552.387 -2.2994 -2.77777 0
M  V30 5919 O 551.491 -1.73586 -3.74088 0
M  V30 5920 H 550.832 -0.480219 -0.458569 0
M  V30 5921 H 553.362 -1.84023 -0.894249 0
M  V30 5922 H 553.372 -2.44785 -3.26411 0
M  V30 5923 H 552.047 -3.31759 -2.50816 0
M  V30 5924 H 550.624 -1.68035 -3.32894 0
M  V30 5925 N 552.809 0.956637 -1.25245 0
M  V30 5926 C 554.225 1.22733 -1.02023 0
M  V30 5927 C 554.425 1.99761 0.264186 0
M  V30 5928 O 553.481 2.32814 0.977436 0
M  V30 5929 C 554.794 2.00367 -2.24217 0
M  V30 5930 C 556.342 2.13418 -2.28958 0
M  V30 5931 C 556.817 2.9445 -3.50803 0
M  V30 5932 N 558.308 3.02029 -3.51187 0
M  V30 5933 C 559.043 3.65116 -4.42129 0
M  V30 5934 N 558.539 4.2983 -5.43339 0
M  V30 5935 N 560.332 3.62237 -4.29815 0
M  V30 5936 H 552.483 0.441282 -2.07765 0
M  V30 5937 H 554.746 0.257686 -0.912306 0
M  V30 5938 H 554.452 1.51165 -3.17556 0
M  V30 5939 H 554.326 3.01077 -2.27228 0
M  V30 5940 H 556.713 2.61819 -1.36143 0
M  V30 5941 H 556.794 1.1202 -2.29968 0
M  V30 5942 H 556.438 2.46741 -4.43939 0
M  V30 5943 H 556.368 3.9607 -3.47039 0
M  V30 5944 H 558.859 2.56007 -2.77973 0
M  V30 5945 H 559.172 4.75819 -6.08947 0
M  V30 5946 H 557.517 4.28465 -5.47214 0
M  V30 5947 H 560.708 3.10863 -3.49974 0
M  V30 5948 H 560.881 4.11117 -5.00886 0
M  V30 5949 N 554.287 1.06798 1.15896 0
M  V30 5950 C 555.535 0.786211 1.8618 0
M  V30 5951 C 555.856 -0.689547 1.82401 0
M  V30 5952 O 555.126 -1.49913 1.26107 0
M  V30 5953 H 553.706 0.287843 0.689315 0
M  V30 5954 H 556.368 1.35055 1.40521 0
M  V30 5955 H 555.464 1.1157 2.91477 0
M  V30 5956 N 555.766 -1.3263 0.851289 0
M  V30 5957 C 556.991 -2.02097 0.466006 0
M  V30 5958 C 557.416 -1.63574 -0.928709 0
M  V30 5959 O 556.774 -0.834665 -1.60944 0
M  V30 5960 C 556.822 -3.55425 0.608737 0
M  V30 5961 O 555.926 -4.10827 -0.359878 0
M  V30 5962 H 555.267 -0.636911 0.187724 0
M  V30 5963 H 557.797 -1.69253 1.14955 0
M  V30 5964 H 557.807 -4.04986 0.495006 0
M  V30 5965 H 556.482 -3.82806 1.62581 0
M  V30 5966 H 555.059 -3.72349 -0.202666 0
M  V30 5967 N 557.244 -0.608902 -1.45362 0
M  V30 5968 C 558.49 -0.104762 -2.02529 0
M  V30 5969 C 558.823 1.26191 -1.47613 0
M  V30 5970 O 558.098 1.8327 -0.65134 0
M  V30 5971 C 558.381 -0.0672661 -3.60037 0
M  V30 5972 C 558.234 -1.4647 -4.25284 0
M  V30 5973 C 559.553 0.619877 -4.35713 0
M  V30 5974 H 556.672 -0.0395438 -0.735938 0
M  V30 5975 H 559.314 -0.781126 -1.73201 0
M  V30 5976 H 557.464 0.50871 -3.85155 0
M  V30 5977 H 559.136 -2.08785 -4.11347 0
M  V30 5978 H 557.379 -2.02502 -3.83634 0
M  V30 5979 H 558.05 -1.39069 -5.34195 0
M  V30 5980 H 560.526 0.130297 -4.15896 0
M  V30 5981 H 559.402 0.615224 -5.45441 0
M  V30 5982 H 559.663 1.68621 -4.0868 0
M  V30 5983 N 558.722 1.53707 -0.348139 0
M  V30 5984 C 559.971 2.0017 0.247992 0
M  V30 5985 C 560.284 1.23983 1.51286 0
M  V30 5986 O 561.49 1.60946 2.18652 0
M  V30 5987 C 559.946 3.56515 0.492459 0
M  V30 5988 C 559.554 4.41562 -0.756777 0
M  V30 5989 C 561.298 4.11381 1.0472 0
M  V30 5990 C 559.205 5.89426 -0.482856 0
M  V30 5991 H 558.135 0.747806 0.0964452 0
M  V30 5992 H 560.786 1.77532 -0.464179 0
M  V30 5993 H 559.168 3.75236 1.26545 0
M  V30 5994 H 560.342 4.34615 -1.53122 0
M  V30 5995 H 558.657 3.97711 -1.23348 0
M  V30 5996 H 561.254 5.19468 1.26717 0
M  V30 5997 H 561.597 3.64885 2.00411 0
M  V30 5998 H 562.13 3.96389 0.334801 0
M  V30 5999 H 558.869 6.40164 -1.40962 0
M  V30 6000 H 558.389 5.99264 0.253416 0
M  V30 6001 H 560.068 6.4692 -0.101816 0
M  V30 6002 N 560.2 0.0768682 1.57412 0
M  V30 6003 C 561.448 -0.589918 1.93299 0
M  V30 6004 C 561.769 -1.69842 0.958049 0
M  V30 6005 O 561.039 -1.95899 0.00703261 0
M  V30 6006 H 559.619 -0.220901 0.713591 0
M  V30 6007 H 562.281 0.135917 1.94425 0
M  V30 6008 H 561.377 -1.01195 2.95239 0
M  V30 6009 N 561.678 -1.56367 -0.196722 0
M  V30 6010 C 562.924 -1.80796 -0.918725 0
M  V30 6011 C 563.257 -0.650645 -1.82976 0
M  V30 6012 O 562.532 0.348889 -1.91345 0
M  V30 6013 C 562.815 -3.15472 -1.73636 0
M  V30 6014 C 562.668 -4.41693 -0.85015 0
M  V30 6015 C 563.987 -3.46824 -2.70927 0
M  V30 6016 H 561.106 -0.657702 -0.332561 0
M  V30 6017 H 563.748 -1.89086 -0.186186 0
M  V30 6018 H 561.898 -3.08536 -2.36088 0
M  V30 6019 H 563.57 -4.60673 -0.240459 0
M  V30 6020 H 561.813 -4.33517 -0.156785 0
M  V30 6021 H 562.484 -5.32419 -1.45719 0
M  V30 6022 H 564.96 -3.54049 -2.18607 0
M  V30 6023 H 563.836 -4.4218 -3.25219 0
M  V30 6024 H 564.097 -2.70236 -3.49893 0
M  V30 6025 N 563.156 0.464375 -1.50603 0
M  V30 6026 C 564.402 1.21776 -1.62168 0
M  V30 6027 C 564.735 1.91476 -0.324154 0
M  V30 6028 O 564.01 1.8242 0.674782 0
M  V30 6029 C 564.293 2.25614 -2.80661 0
M  V30 6030 C 564.146 1.60175 -4.20314 0
M  V30 6031 C 565.465 3.26862 -2.94702 0
M  V30 6032 H 562.584 0.44137 -0.590222 0
M  V30 6033 H 565.226 0.510623 -1.8301 0
M  V30 6034 H 563.376 2.85923 -2.63021 0
M  V30 6035 H 565.048 1.03411 -4.4956 0
M  V30 6036 H 563.291 0.904697 -4.24261 0
M  V30 6037 H 563.962 2.35665 -4.99165 0
M  V30 6038 H 566.438 2.76582 -3.10872 0
M  V30 6039 H 565.314 3.96839 -3.79223 0
M  V30 6040 H 565.575 3.91382 -2.05603 0
M  V30 6041 N 564.634 1.40294 0.718013 0
M  V30 6042 C 565.566 1.36281 1.84283 0
M  V30 6043 C 566.579 0.268621 1.60569 0
M  V30 6044 O 567.768 0.528798 1.70487 0
M  V30 6045 C 564.868 1.09741 3.2064 0
M  V30 6046 C 564.041 2.30767 3.71571 0
M  V30 6047 C 563.1 2.00424 4.86535 0
M  V30 6048 O 562.126 2.73268 4.99313 0
M  V30 6049 N 563.328 0.980724 5.72156 0
M  V30 6050 H 566.093 2.3322 1.88225 0
M  V30 6051 H 563.654 1.34616 0.899453 0
M  V30 6052 H 565.646 0.874322 3.95143 0
M  V30 6053 H 564.216 0.214771 3.11861 0
M  V30 6054 H 563.436 2.68921 2.88228 0
M  V30 6055 H 564.724 3.11455 4.02335 0
M  V30 6056 H 564.122 0.377375 5.6444 0
M  V30 6057 H 562.679 0.817538 6.46653 0
M  V30 6058 N 566.112 -0.949982 1.2575 0
M  V30 6059 C 567.045 -2.047 1.00862 0
M  V30 6060 C 568.023 -1.62475 -0.0636982 0
M  V30 6061 O 569.207 -1.88343 0.0769153 0
M  V30 6062 C 566.334 -3.34597 0.525613 0
M  V30 6063 C 565.38 -3.95788 1.58916 0
M  V30 6064 S 566.213 -4.31175 3.17567 0
M  V30 6065 C 567.369 -5.64183 2.71013 0
M  V30 6066 H 567.602 -2.25497 1.93749 0
M  V30 6067 H 565.135 -1.09022 1.09332 0
M  V30 6068 H 567.093 -4.09716 0.25359 0
M  V30 6069 H 565.754 -3.11758 -0.382828 0
M  V30 6070 H 564.947 -4.89457 1.20201 0
M  V30 6071 H 564.549 -3.27168 1.81211 0
M  V30 6072 H 566.841 -6.42504 2.14928 0
M  V30 6073 H 567.784 -6.07774 3.6334 0
M  V30 6074 H 568.192 -5.2364 2.1086 0
M  V30 6075 N 567.59 -1.07411 -1.15328 0
M  V30 6076 C 568.836 -0.798831 -1.86404 0
M  V30 6077 C 569.169 0.673433 -1.8215 0
M  V30 6078 O 568.444 1.49428 -1.24505 0
M  V30 6079 C 568.727 -1.30846 -3.35487 0
M  V30 6080 C 568.58 -2.84532 -3.4837 0
M  V30 6081 C 569.899 -0.925486 -4.30259 0
M  V30 6082 H 567.018 -0.291659 -0.676834 0
M  V30 6083 H 569.66 -1.332 -1.35491 0
M  V30 6084 H 567.81 -0.854916 -3.78977 0
M  V30 6085 H 569.482 -3.3818 -3.13739 0
M  V30 6086 H 567.725 -3.22699 -2.8991 0
M  V30 6087 H 568.396 -3.15259 -4.53118 0
M  V30 6088 H 570.872 -1.3163 -3.94731 0
M  V30 6089 H 569.748 -1.3094 -5.33053 0
M  V30 6090 H 570.009 0.168525 -4.41779 0
M  V30 6091 N 569.068 1.32177 -0.85831 0
M  V30 6092 C 570.016 2.30729 -0.294442 0
M  V30 6093 C 571.01 1.59009 0.584165 0
M  V30 6094 O 572.216 1.73713 0.471562 0
M  V30 6095 H 568.591 0.748097 -0.0765171 0
M  V30 6096 H 570.562 2.75774 -1.1398 0
M  V30 6097 C 569.311 3.44098 0.499208 0
M  V30 6098 H 568.634 3.99449 -0.167579 0
M  V30 6099 H 570.074 4.15202 0.859273 0
M  V30 6100 C 568.533 2.91684 1.68588 0
M  V30 6101 O 569.063 2.89481 2.78503 0
M  V30 6102 N 567.269 2.48036 1.51415 0
M  V30 6103 H 566.816 2.50027 0.620006 0
M  V30 6104 H 566.774 2.13322 2.30957 0
M  V30 6105 N 570.547 0.616602 1.45037 0
M  V30 6106 C 571.494 -0.0969439 2.30596 0
M  V30 6107 C 572.464 -0.851151 1.42635 0
M  V30 6108 O 573.649 -0.835092 1.71554 0
M  V30 6109 C 570.789 -1.08234 3.27688 0
M  V30 6110 C 569.902 -0.328072 4.30752 0
M  V30 6111 C 569.037 -1.30399 5.14946 0
M  V30 6112 C 568.076 -0.538049 6.09731 0
M  V30 6113 N 567.213 -1.46371 6.86673 0
M  V30 6114 H 572.053 0.63864 2.91076 0
M  V30 6115 H 569.59 0.326733 1.43425 0
M  V30 6116 H 571.548 -1.66688 3.82454 0
M  V30 6117 H 570.178 -1.78523 2.68941 0
M  V30 6118 H 569.23 0.372136 3.78575 0
M  V30 6119 H 570.542 0.269142 4.98073 0
M  V30 6120 H 569.696 -1.96032 5.74157 0
M  V30 6121 H 568.435 -1.93514 4.47665 0
M  V30 6122 H 567.44 0.131852 5.49642 0
M  V30 6123 H 568.665 0.0881732 6.79043 0
M  V30 6124 H 566.611 -2.08233 6.22073 0
M  V30 6125 H 566.528 -0.920152 7.50379 0
M  V30 6126 H 567.796 -2.10932 7.50418 0
M  V30 6127 N 572.025 -1.5352 0.356285 0
M  V30 6128 C 573.274 -2.00298 -0.237373 0
M  V30 6129 C 573.587 -1.24784 -1.50627 0
M  V30 6130 O 574.793 -1.62103 -2.17795 0
M  V30 6131 C 573.249 -3.56771 -0.473545 0
M  V30 6132 C 572.857 -4.41154 0.780183 0
M  V30 6133 C 574.601 -4.1193 -1.02537 0
M  V30 6134 C 572.508 -5.89161 0.514108 0
M  V30 6135 H 571.438 -0.748307 -0.092478 0
M  V30 6136 H 574.089 -1.77283 0.473588 0
M  V30 6137 H 572.471 -3.75902 -1.24553 0
M  V30 6138 H 573.645 -4.33797 1.55425 0
M  V30 6139 H 571.96 -3.97052 1.25455 0
M  V30 6140 H 574.557 -5.20133 -1.2396 0
M  V30 6141 H 574.9 -3.65943 -1.98473 0
M  V30 6142 H 575.433 -3.96561 -0.313775 0
M  V30 6143 H 572.172 -6.39408 1.44355 0
M  V30 6144 H 571.692 -5.9939 -0.221632 0
M  V30 6145 H 573.371 -6.46857 0.136122 0
M  V30 6146 N 573.503 -0.0852151 -1.57369 0
M  V30 6147 C 574.728 0.592872 -1.98746 0
M  V30 6148 C 575.153 1.61538 -0.963689 0
M  V30 6149 O 574.511 1.81168 0.069071 0
M  V30 6150 C 574.559 1.22599 -3.39119 0
M  V30 6151 O 573.663 2.34185 -3.39457 0
M  V30 6152 H 573.004 0.151314 -0.646529 0
M  V30 6153 H 575.534 -0.163703 -2.03944 0
M  V30 6154 H 575.544 1.56965 -3.76598 0
M  V30 6155 H 574.219 0.476831 -4.13158 0
M  V30 6156 H 572.796 2.01512 -3.13763 0
M  V30 6157 N 574.981 1.5647 0.188427 0
M  V30 6158 C 576.229 1.80655 0.905986 0
M  V30 6159 C 576.55 0.659391 1.83513 0
M  V30 6160 O 575.82 -0.321868 1.93238 0
M  V30 6161 H 574.4 0.666391 0.337538 0
M  V30 6162 H 577.062 1.93949 0.192339 0
M  V30 6163 H 576.158 2.74066 1.49313 0
M  V30 6164 N 576.459 -0.456382 1.50847 0
M  V30 6165 C 577.684 -1.2349 1.66628 0
M  V30 6166 C 578.109 -1.84715 0.355254 0
M  V30 6167 O 577.467 -1.67961 -0.682559 0
M  V30 6168 C 577.515 -2.30865 2.77009 0
M  V30 6169 O 576.619 -3.35882 2.39285 0
M  V30 6170 H 575.96 -0.36266 0.556214 0
M  V30 6171 H 578.49 -0.541374 1.97308 0
M  V30 6172 H 578.5 -2.75949 3.00526 0
M  V30 6173 H 577.175 -1.85677 3.72152 0
M  V30 6174 H 575.752 -2.96406 2.26269 0
M  V30 6175 N 577.937 -1.40673 -0.710563 0
M  V30 6176 C 578.9 -1.4108 -1.80635 0
M  V30 6177 C 579.9 -0.303783 -1.57904 0
M  V30 6178 O 581.09 -0.562937 -1.64853 0
M  V30 6179 C 578.222 -1.20748 -3.18799 0
M  V30 6180 H 579.415 -2.38612 -1.81671 0
M  V30 6181 H 576.968 -1.26595 -0.916704 0
M  V30 6182 H 577.703 -0.239964 -3.23411 0
M  V30 6183 H 577.488 -2.00941 -3.36698 0
M  V30 6184 H 578.978 -1.23833 -3.98817 0
M  V30 6185 N 579.415 0.9433 -1.26252 0
M  V30 6186 C 580.662 1.68925 -1.11672 0
M  V30 6187 C 580.99 1.91499 0.340329 0
M  V30 6188 O 580.245 1.49189 1.26653 0
M  V30 6189 C 580.544 3.07073 -1.82868 0
M  V30 6190 C 580.21 3.04262 -3.32769 0
M  V30 6191 C 578.872 3.03203 -3.7366 0
M  V30 6192 C 581.224 2.96729 -4.28487 0
M  V30 6193 C 578.552 2.92373 -5.0866 0
M  V30 6194 C 580.904 2.87442 -5.63525 0
M  V30 6195 C 579.568 2.84724 -6.03729 0
M  V30 6196 H 578.838 0.618141 -0.408635 0
M  V30 6197 H 581.485 1.10124 -1.56668 0
M  V30 6198 H 579.79 3.69486 -1.30335 0
M  V30 6199 H 581.487 3.63635 -1.69029 0
M  V30 6200 H 578.077 3.05865 -3.00241 0
M  V30 6201 H 582.261 2.96658 -3.97879 0
M  V30 6202 H 577.517 2.88645 -5.38975 0
M  V30 6203 H 581.691 2.80576 -6.37377 0
M  V30 6204 H 579.318 2.76089 -7.08293 0
M  V30 6205 N 580.893 1.08022 1.14757 0
M  V30 6206 C 582.118 0.82895 1.90114 0
M  V30 6207 C 582.543 -0.612772 1.77839 0
M  V30 6208 O 581.901 -1.42895 1.11583 0
M  V30 6209 C 581.949 1.25062 3.38219 0
M  V30 6210 O 581.053 0.400119 4.10454 0
M  V30 6211 H 580.394 0.301412 0.591648 0
M  V30 6212 H 582.924 1.44062 1.45284 0
M  V30 6213 H 582.934 1.22977 3.89025 0
M  V30 6214 H 581.609 2.30067 3.46471 0
M  V30 6215 H 580.186 0.484052 3.69745 0
M  V30 6216 N 582.371 -1.3172 0.865308 0
M  V30 6217 C 583.318 -2.2863 0.315736 0
M  V30 6218 C 584.288 -1.55524 -0.583213 0
M  V30 6219 O 585.473 -1.83694 -0.51585 0
M  V30 6220 C 582.613 -3.41735 -0.480773 0
M  V30 6221 C 581.726 -4.297 0.445167 0
M  V30 6222 C 580.861 -5.29944 -0.365012 0
M  V30 6223 C 579.9 -6.09554 0.557651 0
M  V30 6224 N 579.037 -7.01768 -0.215994 0
M  V30 6225 H 583.877 -2.75026 1.14736 0
M  V30 6226 H 581.414 -1.35302 0.577209 0
M  V30 6227 H 583.372 -4.06045 -0.958306 0
M  V30 6228 H 582.002 -2.96461 -1.27714 0
M  V30 6229 H 581.054 -3.65875 1.04113 0
M  V30 6230 H 582.366 -4.85295 1.15284 0
M  V30 6231 H 581.52 -5.99908 -0.905255 0
M  V30 6232 H 580.259 -4.74994 -1.106 0
M  V30 6233 H 579.264 -5.38485 1.10969 0
M  V30 6234 H 580.489 -6.66591 1.29742 0
M  V30 6235 H 578.435 -6.49232 -0.939878 0
M  V30 6236 H 578.352 -7.54762 0.432431 0
M  V30 6237 H 579.62 -7.76002 -0.737618 0
M  V30 6238 N 583.85 -0.624285 -1.44708 0
M  V30 6239 C 585.077 -0.132919 -2.06473 0
M  V30 6240 C 585.493 1.18967 -1.46602 0
M  V30 6241 O 584.85 1.72824 -0.586341 0
M  V30 6242 C 584.901 -0.00465418 -3.615 0
M  V30 6243 O 584.622 -1.27494 -4.19138 0
M  V30 6244 C 586.123 0.516213 -4.40284 0
M  V30 6245 H 583.343 -0.0765201 -0.666623 0
M  V30 6246 H 585.887 -0.856751 -1.85688 0
M  V30 6247 H 584.042 0.669583 -3.8157 0
M  V30 6248 H 584.456 -1.11536 -5.12504 0
M  V30 6249 H 585.93 0.554994 -5.49203 0
M  V30 6250 H 586.407 1.5419 -4.11245 0
M  V30 6251 H 587.013 -0.124542 -4.25118 0
M  V30 6252 N 585.328 1.53329 -0.364422 0
M  V30 6253 C 586.605 1.93557 0.281962 0
M  V30 6254 C 586.985 1.29786 1.6649 0
M  V30 6255 O 586.333 0.456512 2.23893 0
M  V30 6256 C 586.543 3.47405 0.333331 0
M  V30 6257 C 587.891 4.20699 0.574231 0
M  V30 6258 O 588.915 3.53779 0.414588 0
M  V30 6259 O 587.774 5.39287 0.885002 0
M  V30 6260 H 584.868 0.809573 0.168881 0
M  V30 6261 H 587.414 1.64494 -0.417121 0
M  V30 6262 H 586.186 3.86091 -0.636326 0
M  V30 6263 H 585.809 3.82697 1.07836 0
M  V30 6264 N 586.806 0.0935595 1.57322 0
M  V30 6265 C 587.716 -0.880192 2.17462 0
M  V30 6266 C 588.732 -1.31135 1.14366 0
M  V30 6267 O 589.908 -1.37958 1.46729 0
M  V30 6268 C 586.973 -2.12184 2.74188 0
M  V30 6269 C 586.034 -1.74503 3.92234 0
M  V30 6270 C 585.267 -2.92748 4.46245 0
M  V30 6271 O 585.49 -4.07427 3.99198 0
M  V30 6272 O 584.424 -2.71303 5.37288 0
M  V30 6273 H 588.25 -0.398516 3.01074 0
M  V30 6274 H 585.835 -0.130707 1.48827 0
M  V30 6275 H 587.717 -2.84953 3.10451 0
M  V30 6276 H 586.392 -2.59407 1.93623 0
M  V30 6277 H 585.299 -0.989186 3.60785 0
M  V30 6278 H 586.632 -1.32044 4.74157 0
M  V30 6279 N 588.284 -1.56567 -0.180126 0
M  V30 6280 C 589.232 -1.96632 -1.24251 0
M  V30 6281 C 590.226 -0.853818 -1.46309 0
M  V30 6282 O 591.432 -1.0389 -1.46993 0
M  V30 6283 H 587.807 -0.625476 -0.417473 0
M  V30 6284 H 589.778 -2.85201 -0.877679 0
M  V30 6285 C 588.527 -2.33486 -2.57642 0
M  V30 6286 H 587.85 -3.18626 -2.4149 0
M  V30 6287 H 589.29 -2.65371 -3.30688 0
M  V30 6288 C 587.749 -1.17499 -3.15746 0
M  V30 6289 O 588.279 -0.457956 -3.99081 0
M  V30 6290 N 586.485 -0.94786 -2.74707 0
M  V30 6291 H 586.032 -1.53269 -2.07042 0
M  V30 6292 H 585.99 -0.173626 -3.1392 0
M  V30 6293 N 589.762 0.448376 -1.51087 0
M  V30 6294 C 590.71 1.56407 -1.72161 0
M  V30 6295 C 591.704 1.58878 -0.587721 0
M  V30 6296 O 592.91 1.62755 -0.768822 0
M  V30 6297 H 589.285 0.519423 -0.543786 0
M  V30 6298 H 591.256 1.35803 -2.65707 0
M  V30 6299 C 590.005 2.94163 -1.85373 0
M  V30 6300 H 589.328 2.9299 -2.72024 0
M  V30 6301 H 590.768 3.71625 -2.04135 0
M  V30 6302 C 589.227 3.31317 -0.610803 0
M  V30 6303 O 589.757 4.00985 0.239636 0
M  V30 6304 N 587.963 2.86966 -0.458127 0
M  V30 6305 H 587.51 2.30443 -1.15124 0
M  V30 6306 H 587.468 3.12188 0.372289 0
M  V30 6307 N 591.24 1.41047 0.703093 0
M  V30 6308 C 592.487 1.4 1.46309 0
M  V30 6309 C 592.815 0.00654574 1.94499 0
M  V30 6310 O 592.07 -0.980255 1.6938 0
M  V30 6311 C 592.369 2.34686 2.6955 0
M  V30 6312 C 592.035 3.81684 2.40058 0
M  V30 6313 C 590.697 4.21731 2.31725 0
M  V30 6314 C 593.049 4.74525 2.15581 0
M  V30 6315 C 590.377 5.52637 1.97001 0
M  V30 6316 C 592.729 6.05744 1.82366 0
M  V30 6317 C 591.393 6.44819 1.72524 0
M  V30 6318 H 590.663 0.512295 0.535382 0
M  V30 6319 H 593.31 1.73792 0.804275 0
M  V30 6320 H 591.615 1.94122 3.40329 0
M  V30 6321 H 593.312 2.31152 3.27673 0
M  V30 6322 H 589.902 3.49963 2.47435 0
M  V30 6323 H 594.086 4.44395 2.20968 0
M  V30 6324 H 589.342 5.81802 1.87928 0
M  V30 6325 H 593.516 6.77189 1.62444 0
M  V30 6326 H 591.143 7.46168 1.45385 0
M  V30 6327 N 592.718 -0.936591 1.26751 0
M  V30 6328 C 593.665 -2.03597 1.08706 0
M  V30 6329 C 594.635 -1.66097 -0.00926542 0
M  V30 6330 O 595.82 -1.90199 0.151377 0
M  V30 6331 C 592.96 -3.3727 0.73094 0
M  V30 6332 C 592.073 -3.87778 1.90399 0
M  V30 6333 C 591.208 -5.09859 1.49056 0
M  V30 6334 C 590.247 -5.5264 2.63164 0
M  V30 6335 N 589.384 -6.65921 2.22471 0
M  V30 6336 H 594.224 -2.18364 2.02784 0
M  V30 6337 H 591.761 -1.06985 1.00958 0
M  V30 6338 H 593.719 -4.14128 0.505328 0
M  V30 6339 H 592.349 -3.22337 -0.172868 0
M  V30 6340 H 591.401 -3.07279 2.2424 0
M  V30 6341 H 592.713 -4.15464 2.76028 0
M  V30 6342 H 591.867 -5.9419 1.22567 0
M  V30 6343 H 590.606 -4.8393 0.60524 0
M  V30 6344 H 589.611 -4.66863 2.90377 0
M  V30 6345 H 590.836 -5.80568 3.52303 0
M  V30 6346 H 588.782 -6.41667 1.36379 0
M  V30 6347 H 588.699 -6.93216 3.01641 0
M  V30 6348 H 589.967 -7.53616 1.99205 0
M  V30 6349 N 594.196 -1.08629 -1.14182 0
M  V30 6350 C 595.129 -0.662329 -2.18377 0
M  V30 6351 C 596.107 0.327054 -1.59277 0
M  V30 6352 O 597.291 0.230376 -1.87087 0
M  V30 6353 C 594.418 0.0254765 -3.3869 0
M  V30 6354 C 593.464 -0.924414 -4.16361 0
M  V30 6355 S 594.297 -2.43226 -4.77076 0
M  V30 6356 C 595.453 -1.75663 -6.00744 0
M  V30 6357 H 595.686 -1.54501 -2.54001 0
M  V30 6358 H 593.219 -0.901484 -1.2535 0
M  V30 6359 H 595.177 0.416032 -4.08386 0
M  V30 6360 H 593.838 0.884689 -3.01384 0
M  V30 6361 H 593.031 -0.390099 -5.02488 0
M  V30 6362 H 592.633 -1.25598 -3.5228 0
M  V30 6363 H 594.925 -1.07589 -6.68903 0
M  V30 6364 H 595.868 -2.59673 -6.58768 0
M  V30 6365 H 596.276 -1.22903 -5.50958 0
M  V30 6366 N 595.674 1.31259 -0.872281 0
M  V30 6367 C 596.921 1.96622 -0.484365 0
M  V30 6368 C 597.249 1.68939 0.963841 0
M  V30 6369 O 596.504 0.97974 1.6941 0
M  V30 6370 C 596.803 3.50659 -0.690889 0
M  V30 6371 C 596.469 3.98366 -2.11224 0
M  V30 6372 C 595.131 4.11104 -2.50094 0
M  V30 6373 C 597.483 4.23425 -3.0391 0
M  V30 6374 C 594.811 4.46254 -3.80887 0
M  V30 6375 C 597.163 4.60039 -4.3422 0
M  V30 6376 C 595.827 4.70984 -4.73001 0
M  V30 6377 H 595.097 0.71949 -0.177242 0
M  V30 6378 H 597.744 1.56353 -1.10571 0
M  V30 6379 H 596.049 3.91798 0.0135782 0
M  V30 6380 H 597.746 3.99284 -0.370534 0
M  V30 6381 H 594.336 3.88949 -1.80047 0
M  V30 6382 H 598.52 4.13075 -2.75104 0
M  V30 6383 H 593.776 4.52926 -4.10692 0
M  V30 6384 H 597.95 4.78381 -5.06088 0
M  V30 6385 H 595.577 4.97977 -5.7439 0
M  V30 6386 N 597.152 0.631951 1.44375 0
M  V30 6387 C 598.115 -0.0628142 2.29114 0
M  V30 6388 C 599.115 -0.771494 1.41084 0
M  V30 6389 O 600.305 -0.615959 1.62947 0
M  V30 6390 C 597.437 -1.09953 3.22681 0
M  V30 6391 H 598.63 0.682509 2.92031 0
M  V30 6392 H 596.183 0.392128 1.51301 0
M  V30 6393 H 596.918 -1.87481 2.64616 0
M  V30 6394 H 596.703 -0.595286 3.87555 0
M  V30 6395 H 598.193 -1.58538 3.86336 0
M  V30 6396 N 598.631 -1.53133 0.372548 0
M  V30 6397 C 599.877 -2.01654 -0.215277 0
M  V30 6398 C 600.21 -1.25914 -1.47849 0
M  V30 6399 O 599.485 -0.3548 -1.91237 0
M  V30 6400 C 599.768 -3.56609 -0.500187 0
M  V30 6401 C 599.621 -4.43036 0.777145 0
M  V30 6402 C 600.94 -4.20528 -1.29786 0
M  V30 6403 H 598.059 -0.732991 -0.0767686 0
M  V30 6404 H 600.701 -1.83335 0.498814 0
M  V30 6405 H 598.851 -3.7235 -1.10852 0
M  V30 6406 H 600.523 -4.39079 1.41447 0
M  V30 6407 H 598.766 -4.10723 1.39604 0
M  V30 6408 H 599.437 -5.49424 0.532662 0
M  V30 6409 H 601.913 -4.08663 -0.783198 0
M  V30 6410 H 600.789 -5.28962 -1.46596 0
M  V30 6411 H 601.05 -3.77051 -2.30836 0
M  V30 6412 N 600.109 -0.101901 -1.5727 0
M  V30 6413 C 601.356 0.560197 -1.94597 0
M  V30 6414 C 601.684 1.67767 -0.984101 0
M  V30 6415 O 600.939 1.95699 -0.00489193 0
M  V30 6416 C 601.238 1.14898 -3.38427 0
M  V30 6417 C 600.904 0.154613 -4.50635 0
M  V30 6418 C 599.566 -0.118861 -4.81053 0
M  V30 6419 C 601.918 -0.523979 -5.18559 0
M  V30 6420 C 599.246 -1.0775 -5.76721 0
M  V30 6421 C 601.598 -1.47114 -6.15256 0
M  V30 6422 C 600.262 -1.75278 -6.44076 0
M  V30 6423 H 599.532 0.204991 -0.712081 0
M  V30 6424 H 602.179 -0.17918 -1.9066 0
M  V30 6425 H 600.484 1.96476 -3.38976 0
M  V30 6426 H 602.181 1.66909 -3.64613 0
M  V30 6427 H 598.771 0.377948 -4.2693 0
M  V30 6428 H 602.955 -0.325851 -4.95229 0
M  V30 6429 H 598.211 -1.30263 -5.97362 0
M  V30 6430 H 602.385 -2.00274 -6.66981 0
M  V30 6431 H 600.012 -2.49717 -7.18015 0
M  V30 6432 N 601.587 1.56661 0.17182 0
M  V30 6433 C 602.827 1.83762 0.895029 0
M  V30 6434 C 603.191 0.682752 1.79451 0
M  V30 6435 O 604.392 0.834208 2.55528 0
M  V30 6436 C 602.663 3.15976 1.67015 0
M  V30 6437 S 604.222 3.64558 2.44219 0
M  V30 6438 H 601.04 0.644713 0.299778 0
M  V30 6439 H 603.642 1.94871 0.156701 0
M  V30 6440 H 602.346 3.98021 1.00039 0
M  V30 6441 H 601.877 3.07807 2.44986 0
M  V30 6442 H 603.892 3.31845 3.68909 0
M  V30 6443 N 603.065 -0.440357 1.51323 0
M  V30 6444 C 604.028 -1.51679 1.71832 0
M  V30 6445 C 605.028 -1.49648 0.588386 0
M  V30 6446 O 606.218 -1.51724 0.855891 0
M  V30 6447 C 603.35 -2.91228 1.77199 0
M  V30 6448 H 604.543 -1.34799 2.67898 0
M  V30 6449 H 602.096 -0.66883 1.41267 0
M  V30 6450 H 602.831 -3.13516 0.829363 0
M  V30 6451 H 602.616 -2.94107 2.59314 0
M  V30 6452 H 604.106 -3.69321 1.94915 0
M  V30 6453 N 604.543 -1.41418 -0.695603 0
M  V30 6454 C 605.473 -1.46035 -1.82197 0
M  V30 6455 C 606.454 -0.319025 -1.67082 0
M  V30 6456 O 607.639 -0.530462 -1.86815 0
M  V30 6457 C 604.769 -1.34179 -3.20333 0
M  V30 6458 C 603.723 -2.46123 -3.50154 0
M  V30 6459 C 603.049 -2.19332 -4.87645 0
M  V30 6460 C 604.349 -3.88463 -3.49133 0
M  V30 6461 H 606.043 -2.40303 -1.78591 0
M  V30 6462 H 603.589 -1.15663 -0.857797 0
M  V30 6463 H 605.542 -1.36021 -3.98844 0
M  V30 6464 H 604.266 -0.363952 -3.24566 0
M  V30 6465 H 602.925 -2.43563 -2.73994 0
M  V30 6466 H 602.573 -1.19891 -4.88503 0
M  V30 6467 H 602.273 -2.94344 -5.08562 0
M  V30 6468 H 603.797 -2.22889 -5.68465 0
M  V30 6469 H 605.211 -3.92738 -4.17648 0
M  V30 6470 H 603.608 -4.63158 -3.81582 0
M  V30 6471 H 604.678 -4.16617 -2.48109 0
M  V30 6472 N 606.021 0.929856 -1.27246 0
M  V30 6473 C 606.984 2.01172 -1.09829 0
M  V30 6474 C 607.984 1.60743 -0.0429687 0
M  V30 6475 O 609.174 1.71813 -0.287373 0
M  V30 6476 C 606.306 3.34191 -0.673003 0
M  V30 6477 H 607.499 2.18054 -2.05895 0
M  V30 6478 H 605.052 1.11036 -1.10003 0
M  V30 6479 H 605.787 3.23009 0.289134 0
M  V30 6480 H 605.572 3.64892 -1.43515 0
M  V30 6481 H 607.062 4.13646 -0.573323 0
M  V30 6482 N 607.499 1.09233 1.13605 0
M  V30 6483 C 608.429 0.751738 2.21068 0
M  V30 6484 C 609.41 -0.269688 1.67948 0
M  V30 6485 O 610.595 -0.13819 1.93708 0
M  V30 6486 C 607.725 0.16935 3.46887 0
M  V30 6487 C 606.679 1.12007 4.13084 0
M  V30 6488 C 606.005 0.399483 5.33206 0
M  V30 6489 C 607.305 2.46168 4.6065 0
M  V30 6490 H 608.999 1.65024 2.49815 0
M  V30 6491 H 606.545 0.794905 1.20072 0
M  V30 6492 H 608.498 -0.0809824 4.21322 0
M  V30 6493 H 607.222 -0.764335 3.1753 0
M  V30 6494 H 605.881 1.35564 3.40614 0
M  V30 6495 H 605.529 -0.538277 5.00112 0
M  V30 6496 H 605.229 1.03337 5.78442 0
M  V30 6497 H 606.753 0.157403 6.10397 0
M  V30 6498 H 608.167 2.26829 5.26518 0
M  V30 6499 H 606.564 3.05326 5.1662 0
M  V30 6500 H 607.634 3.07076 3.75276 0
M  V30 6501 N 608.977 -1.30795 0.87923 0
M  V30 6502 C 609.927 -2.25838 0.313276 0
M  V30 6503 C 610.911 -1.51025 -0.55499 0
M  V30 6504 O 612.103 -1.72413 -0.400353 0
M  V30 6505 C 609.232 -3.39981 -0.476204 0
M  V30 6506 C 608.318 -4.22154 0.405826 0
M  V30 6507 N 608.709 -4.82934 1.50362 0
M  V30 6508 C 607.007 -4.45552 0.199909 0
M  V30 6509 C 607.708 -5.44444 2.0483 0
M  V30 6510 N 606.684 -5.26723 1.34403 0
M  V30 6511 H 610.486 -2.70374 1.15218 0
M  V30 6512 H 608 -1.45168 0.728003 0
M  V30 6513 H 609.997 -4.07108 -0.898251 0
M  V30 6514 H 608.657 -2.96986 -1.31261 0
M  V30 6515 H 609.668 -4.82319 1.8865 0
M  V30 6516 H 606.345 -4.13169 -0.599795 0
M  V30 6517 H 607.735 -6.02701 2.96986 0
M  V30 6518 N 610.455 -0.639598 -1.44038 0
M  V30 6519 C 611.695 -0.150902 -2.03842 0
M  V30 6520 C 612.059 1.20744 -1.49281 0
M  V30 6521 O 613.26 1.78875 -2.00642 0
M  V30 6522 C 611.531 -0.146114 -3.57101 0
M  V30 6523 S 613.09 0.276725 -4.37927 0
M  V30 6524 H 609.908 -0.0652447 -0.708 0
M  V30 6525 H 612.51 -0.844886 -1.76301 0
M  V30 6526 H 611.214 -1.13769 -3.94316 0
M  V30 6527 H 610.745 0.568846 -3.89266 0
M  V30 6528 H 612.76 1.51893 -4.7238 0
M  V30 6529 N 611.933 1.52934 -0.380664 0
M  V30 6530 C 612.896 2.24809 0.446473 0
M  V30 6531 C 613.896 1.26133 0.997347 0
M  V30 6532 O 615.086 1.50297 0.880714 0
M  V30 6533 C 612.218 2.99649 1.62553 0
M  V30 6534 H 613.411 2.99343 -0.182677 0
M  V30 6535 H 610.964 1.55736 -0.132618 0
M  V30 6536 H 611.699 2.29395 2.29235 0
M  V30 6537 H 611.484 3.72066 1.23732 0
M  V30 6538 H 612.974 3.54246 2.21133 0
M  V30 6539 N 613.412 0.11024 1.57214 0
M  V30 6540 C 614.36 -0.860586 2.16094 0
M  V30 6541 C 615.354 -1.28156 1.1078 0
M  V30 6542 O 616.56 -1.25433 1.29099 0
M  V30 6543 H 612.935 -0.295606 0.691463 0
M  V30 6544 H 614.906 -0.33942 2.96463 0
M  V30 6545 C 613.655 -2.10421 2.768 0
M  V30 6546 H 612.978 -1.7892 3.5753 0
M  V30 6547 H 614.418 -2.76375 3.21547 0
M  V30 6548 C 612.877 -2.88823 1.73444 0
M  V30 6549 O 613.407 -3.839 1.18251 0
M  V30 6550 N 611.613 -2.52649 1.43586 0
M  V30 6551 H 611.16 -1.754 1.8866 0
M  V30 6552 H 611.118 -3.05403 0.746735 0
M  V30 6553 N 614.89 -1.56749 -0.16351 0
M  V30 6554 C 615.823 -1.9213 -1.23132 0
M  V30 6555 C 616.801 -0.785047 -1.42393 0
M  V30 6556 O 617.985 -1.0391 -1.57273 0
M  V30 6557 C 615.112 -2.17901 -2.59301 0
M  V30 6558 C 614.158 -3.40576 -2.5673 0
M  V30 6559 S 614.991 -4.94689 -2.05045 0
M  V30 6560 C 616.147 -5.23564 -3.42975 0
M  V30 6561 H 616.38 -2.824 -0.929383 0
M  V30 6562 H 613.913 -1.4994 -0.368418 0
M  V30 6563 H 615.871 -2.33429 -3.3767 0
M  V30 6564 H 614.532 -1.28324 -2.86691 0
M  V30 6565 H 613.725 -3.55833 -3.5693 0
M  V30 6566 H 613.327 -3.24204 -1.86462 0
M  V30 6567 H 615.619 -5.16019 -4.3901 0
M  V30 6568 H 616.562 -6.25134 -3.32586 0
M  V30 6569 H 616.97 -4.51113 -3.39348 0
M  V30 6570 N 616.368 0.432326 -1.51554 0
M  V30 6571 C 617.598 1.2019 -1.68042 0
M  V30 6572 C 618.006 1.85356 -0.379434 0
M  V30 6573 O 617.349 1.71724 0.652427 0
M  V30 6574 C 617.411 2.32387 -2.74292 0
M  V30 6575 C 617.075 1.87548 -4.16743 0
M  V30 6576 C 618.072 1.37611 -5.01357 0
M  V30 6577 C 615.757 1.95087 -4.62868 0
M  V30 6578 C 617.751 0.958069 -6.30159 0
M  V30 6579 C 615.438 1.52894 -5.91664 0
M  V30 6580 C 616.436 1.03336 -6.75137 0
M  V30 6581 O 616.124 0.617435 -8.01525 0
M  V30 6582 H 615.856 0.368132 -0.56697 0
M  V30 6583 H 618.41 0.517875 -1.98764 0
M  V30 6584 H 616.64 3.04082 -2.38895 0
M  V30 6585 H 618.329 2.94235 -2.79608 0
M  V30 6586 H 619.095 1.31178 -4.66923 0
M  V30 6587 H 614.974 2.32606 -3.98015 0
M  V30 6588 H 618.518 0.570562 -6.95263 0
M  V30 6589 H 614.415 1.58999 -6.25611 0
M  V30 6590 H 615.183 0.742835 -8.15122 0
M  V30 6591 N 617.846 1.41785 0.688094 0
M  V30 6592 C 618.796 1.40684 1.79421 0
M  V30 6593 C 619.78 0.280096 1.58443 0
M  V30 6594 O 620.972 0.521332 1.69148 0
M  V30 6595 C 618.101 1.29874 3.17785 0
M  V30 6596 C 617.187 2.47442 3.44432 0
M  V30 6597 N 617.578 3.72895 3.41736 0
M  V30 6598 C 615.876 2.41416 3.75013 0
M  V30 6599 C 616.577 4.50912 3.67496 0
M  V30 6600 N 615.553 3.81131 3.87608 0
M  V30 6601 H 619.355 2.35591 1.7571 0
M  V30 6602 H 616.869 1.35946 0.888393 0
M  V30 6603 H 618.866 1.27168 3.97031 0
M  V30 6604 H 617.526 0.359587 3.22703 0
M  V30 6605 H 618.537 4.05676 3.21943 0
M  V30 6606 H 615.214 1.56011 3.87256 0
M  V30 6607 H 616.604 5.59865 3.71484 0
M  V30 6608 N 619.324 -0.923095 1.27737 0
M  V30 6609 C 620.74 -1.19985 1.05241 0
M  V30 6610 C 620.94 -2.00391 -0.21113 0
M  V30 6611 O 619.996 -2.35324 -0.915366 0
M  V30 6612 C 621.309 -1.94352 2.29451 0
M  V30 6613 C 622.857 -2.07273 2.34536 0
M  V30 6614 C 623.332 -2.85046 3.58487 0
M  V30 6615 N 624.823 -2.92612 3.59072 0
M  V30 6616 C 625.558 -3.53266 4.51654 0
M  V30 6617 N 625.054 -4.15274 5.54545 0
M  V30 6618 N 626.847 -3.50714 4.39268 0
M  V30 6619 H 618.998 -0.386042 2.08862 0
M  V30 6620 H 621.261 -0.233407 0.918817 0
M  V30 6621 H 620.967 -1.42692 3.21453 0
M  V30 6622 H 620.841 -2.94947 2.3513 0
M  V30 6623 H 623.228 -2.58117 1.43037 0
M  V30 6624 H 623.309 -1.05884 2.32857 0
M  V30 6625 H 622.953 -2.34884 4.50324 0
M  V30 6626 H 622.883 -3.8673 3.57418 0
M  V30 6627 H 625.374 -2.48547 2.84663 0
M  V30 6628 H 625.687 -4.59507 6.21348 0
M  V30 6629 H 624.032 -4.13806 5.58382 0
M  V30 6630 H 627.223 -3.01475 3.58093 0
M  V30 6631 H 627.396 -3.97693 5.1161 0
M  V30 6632 N 620.802 -1.09834 -1.13024 0
M  V30 6633 C 622.051 -0.831806 -1.83749 0
M  V30 6634 C 622.364 0.644763 -1.84668 0
M  V30 6635 O 623.57 1.02697 -2.51327 0
M  V30 6636 C 622.026 -1.43817 -3.29916 0
M  V30 6637 C 621.634 -2.94759 -3.37374 0
M  V30 6638 C 623.378 -1.25077 -4.05655 0
M  V30 6639 C 621.285 -3.48461 -4.77838 0
M  V30 6640 H 620.215 -0.30751 -0.688443 0
M  V30 6641 H 622.866 -1.32156 -1.27307 0
M  V30 6642 H 621.248 -0.876106 -3.86187 0
M  V30 6643 H 622.422 -3.57228 -2.91076 0
M  V30 6644 H 620.737 -3.12581 -2.75103 0
M  V30 6645 H 623.334 -1.62649 -5.09362 0
M  V30 6646 H 623.677 -0.191782 -4.15858 0
M  V30 6647 H 624.21 -1.78057 -3.55725 0
M  V30 6648 H 620.949 -4.53998 -4.72828 0
M  V30 6649 H 620.469 -2.90757 -5.24615 0
M  V30 6650 H 622.148 -3.45914 -5.46766 0
M  V30 6651 N 622.28 1.30327 -0.886154 0
M  V30 6652 C 623.696 1.48676 -0.580323 0
M  V30 6653 C 623.896 1.81189 0.881639 0
M  V30 6654 O 622.952 1.90021 1.66278 0
M  V30 6655 C 624.265 2.60932 -1.49449 0
M  V30 6656 C 625.813 2.74812 -1.49824 0
M  V30 6657 C 626.288 3.90183 -2.39836 0
M  V30 6658 N 627.779 3.97495 -2.37806 0
M  V30 6659 C 628.514 4.86078 -3.04165 0
M  V30 6660 N 628.01 5.79448 -3.79753 0
M  V30 6661 N 629.803 4.79456 -2.93391 0
M  V30 6662 H 621.954 1.07495 -1.8319 0
M  V30 6663 H 624.217 0.532661 -0.784204 0
M  V30 6664 H 623.923 2.43731 -2.5355 0
M  V30 6665 H 623.797 3.57437 -1.20494 0
M  V30 6666 H 626.184 2.91418 -0.464731 0
M  V30 6667 H 626.265 1.78924 -1.82811 0
M  V30 6668 H 625.909 3.74334 -3.43273 0
M  V30 6669 H 625.839 4.85411 -2.04166 0
M  V30 6670 H 628.33 3.30703 -1.82877 0
M  V30 6671 H 628.643 6.43805 -4.27475 0
M  V30 6672 H 626.988 5.79376 -3.8386 0
M  V30 6673 H 630.179 4.05494 -2.33864 0
M  V30 6674 H 630.352 5.48283 -3.45383 0
M  V30 6675 N 623.758 0.647228 1.43697 0
M  V30 6676 C 624.708 -0.0702191 2.27892 0
M  V30 6677 C 625.692 -0.800601 1.39568 0
M  V30 6678 O 626.884 -0.684055 1.63247 0
M  V30 6679 C 624.013 -1.04008 3.27165 0
M  V30 6680 C 623.099 -0.308484 4.22977 0
M  V30 6681 N 623.49 0.671721 5.0132 0
M  V30 6682 C 621.788 -0.550751 4.42586 0
M  V30 6683 C 622.489 1.10543 5.711 0
M  V30 6684 N 621.465 0.440903 5.41809 0
M  V30 6685 H 625.267 0.682031 2.85877 0
M  V30 6686 H 622.781 0.474022 1.55328 0
M  V30 6687 H 624.778 -1.56881 3.86256 0
M  V30 6688 H 623.438 -1.79246 2.70742 0
M  V30 6689 H 624.449 1.0502 5.0714 0
M  V30 6690 H 621.126 -1.28476 3.97241 0
M  V30 6691 H 622.516 1.91614 6.43998 0
M  V30 6692 N 625.236 -1.5273 0.388769 0
M  V30 6693 C 626.461 -2.0647 -0.19621 0
M  V30 6694 C 626.886 -1.25865 -1.39784 0
M  V30 6695 O 626.244 -0.283562 -1.79069 0
M  V30 6696 C 626.292 -3.56456 -0.5451 0
M  V30 6697 O 625.396 -3.78426 -1.63912 0
M  V30 6698 H 624.737 -0.663599 -0.023067 0
M  V30 6699 H 627.267 -1.96898 0.556084 0
M  V30 6700 H 627.277 -3.99888 -0.809557 0
M  V30 6701 H 625.952 -4.14561 0.333417 0
M  V30 6702 H 624.529 -3.46884 -1.36842 0
M  V30 6703 N 626.714 -0.118576 -1.57153 0
M  V30 6704 C 627.624 0.845484 -2.18835 0
M  V30 6705 C 628.64 1.29299 -1.16438 0
M  V30 6706 O 629.816 1.35607 -1.48905 0
M  V30 6707 C 626.881 2.07795 -2.77529 0
M  V30 6708 C 625.942 1.6824 -3.9496 0
M  V30 6709 C 625.175 2.85612 -4.50845 0
M  V30 6710 O 625.398 4.01025 -4.05629 0
M  V30 6711 O 624.332 2.62721 -5.41536 0
M  V30 6712 H 628.158 0.350568 -3.0167 0
M  V30 6713 H 625.743 0.107013 -1.49016 0
M  V30 6714 H 627.625 2.79978 -3.14945 0
M  V30 6715 H 626.3 2.56294 -1.97725 0
M  V30 6716 H 625.207 0.931663 -3.62313 0
M  V30 6717 H 626.54 1.24484 -4.76198 0
M  V30 6718 N 628.193 1.56834 0.155195 0
M  V30 6719 C 629.433 1.84701 0.875488 0
M  V30 6720 C 629.797 0.701747 1.78716 0
M  V30 6721 O 630.998 0.861263 2.54629 0
M  V30 6722 C 629.269 3.1773 1.63654 0
M  V30 6723 S 630.828 3.67128 2.40338 0
M  V30 6724 H 627.646 0.647856 0.292923 0
M  V30 6725 H 630.248 1.95026 0.136024 0
M  V30 6726 H 628.952 3.99059 0.958117 0
M  V30 6727 H 628.483 3.10388 2.41708 0
M  V30 6728 H 630.498 3.35739 3.65368 0
M  V30 6729 N 629.671 -0.424282 1.51781 0
M  V30 6730 C 630.92 -1.16961 1.64326 0
M  V30 6731 C 631.233 -1.92035 0.371749 0
M  V30 6732 O 632.439 -2.68873 0.37676 0
M  V30 6733 C 630.895 -2.12782 2.90262 0
M  V30 6734 C 630.503 -1.43295 4.24465 0
M  V30 6735 C 632.247 -2.87667 3.12166 0
M  V30 6736 C 630.154 -2.37676 5.41538 0
M  V30 6737 H 629.084 -0.440293 0.612093 0
M  V30 6738 H 631.735 -0.435431 1.78259 0
M  V30 6739 H 630.117 -2.8969 2.69992 0
M  V30 6740 H 631.291 -0.718564 4.55163 0
M  V30 6741 H 629.606 -0.805118 4.08542 0
M  V30 6742 H 632.203 -3.58395 3.96808 0
M  V30 6743 H 632.546 -3.49758 2.25776 0
M  V30 6744 H 633.079 -2.17863 3.32837 0
M  V30 6745 H 629.818 -1.80255 6.30229 0
M  V30 6746 H 629.338 -3.07132 5.15199 0
M  V30 6747 H 631.017 -2.98529 5.74012 0
M  V30 6748 N 631.149 -1.42148 -0.680565 0
M  V30 6749 C 632.379 -1.45485 -1.46689 0
M  V30 6750 C 632.787 -0.0629451 -1.89095 0
M  V30 6751 O 632.13 0.931397 -1.58337 0
M  V30 6752 C 632.192 -2.31397 -2.75129 0
M  V30 6753 C 631.856 -3.79353 -2.54834 0
M  V30 6754 C 632.853 -4.71148 -2.19808 0
M  V30 6755 C 630.538 -4.23557 -2.70008 0
M  V30 6756 C 632.532 -6.05139 -2.00215 0
M  V30 6757 C 630.219 -5.57609 -2.50031 0
M  V30 6758 C 631.217 -6.48216 -2.15187 0
M  V30 6759 O 630.905 -7.79792 -1.95397 0
M  V30 6760 H 630.637 -0.497139 -0.458071 0
M  V30 6761 H 633.191 -1.87252 -0.844139 0
M  V30 6762 H 631.421 -1.84468 -3.39865 0
M  V30 6763 H 633.11 -2.26257 -3.36991 0
M  V30 6764 H 633.876 -4.38282 -2.07686 0
M  V30 6765 H 629.755 -3.53327 -2.96109 0
M  V30 6766 H 633.299 -6.75823 -1.72941 0
M  V30 6767 H 629.196 -5.9005 -2.61748 0
M  V30 6768 H 629.964 -7.91091 -2.10042 0
M  V30 6769 N 632.627 0.916307 -1.28225 0
M  V30 6770 C 634.043 1.19425 -1.05876 0
M  V30 6771 C 634.243 2.005 0.2005 0
M  V30 6772 O 633.299 2.35806 0.902873 0
M  V30 6773 C 634.612 1.93133 -2.30478 0
M  V30 6774 C 636.16 2.06026 -2.35632 0
M  V30 6775 C 636.635 2.83141 -3.59994 0
M  V30 6776 N 638.126 2.90704 -3.60618 0
M  V30 6777 C 638.861 3.50865 -4.53521 0
M  V30 6778 N 638.357 4.12327 -5.56739 0
M  V30 6779 N 640.15 3.48379 -4.41122 0
M  V30 6780 H 632.301 0.37496 -2.09064 0
M  V30 6781 H 634.564 0.228531 -0.920042 0
M  V30 6782 H 634.27 1.40985 -3.22205 0
M  V30 6783 H 634.144 2.93696 -2.36691 0
M  V30 6784 H 636.531 2.57355 -1.44404 0
M  V30 6785 H 636.612 1.04647 -2.33415 0
M  V30 6786 H 636.256 2.32492 -4.51564 0
M  V30 6787 H 636.186 3.84829 -3.59464 0
M  V30 6788 H 638.677 2.47034 -2.85977 0
M  V30 6789 H 638.99 4.56205 -6.23776 0
M  V30 6790 H 637.335 4.10839 -5.60568 0
M  V30 6791 H 640.526 2.99572 -3.59686 0
M  V30 6792 H 640.699 3.94974 -5.13712 0
M  V30 6793 N 634.105 1.10431 1.1244 0
M  V30 6794 C 635.351 0.847972 1.84221 0
M  V30 6795 C 635.684 -0.624903 1.83871 0
M  V30 6796 O 634.959 -1.46074 1.28423 0
M  V30 6797 C 635.242 1.39695 3.319 0
M  V30 6798 C 635.095 2.93668 3.40704 0
M  V30 6799 C 636.414 1.03924 4.27654 0
M  V30 6800 H 633.533 0.309502 0.668863 0
M  V30 6801 H 636.175 1.36745 1.31912 0
M  V30 6802 H 634.325 0.955095 3.76577 0
M  V30 6803 H 635.997 3.46379 3.04662 0
M  V30 6804 H 634.24 3.30272 2.81252 0
M  V30 6805 H 634.911 3.27162 4.446 0
M  V30 6806 H 637.387 1.42049 3.91102 0
M  V30 6807 H 636.263 1.45027 5.29394 0
M  V30 6808 H 636.524 -0.051336 4.4207 0
M  V30 6809 N 635.583 -1.29855 0.893053 0
M  V30 6810 C 636.811 -1.99976 0.530788 0
M  V30 6811 C 637.226 -1.66889 -0.882799 0
M  V30 6812 O 636.583 -0.910352 -1.58173 0
M  V30 6813 C 636.634 -3.54547 0.705587 0
M  V30 6814 O 636.355 -3.86458 2.06353 0
M  V30 6815 C 637.856 -4.41937 0.347387 0
M  V30 6816 H 635.076 -0.639129 0.204339 0
M  V30 6817 H 637.62 -1.65549 1.20057 0
M  V30 6818 H 635.775 -3.87311 0.0830685 0
M  V30 6819 H 636.189 -4.81146 2.08803 0
M  V30 6820 H 637.663 -5.4954 0.520557 0
M  V30 6821 H 638.14 -4.33339 -0.715139 0
M  V30 6822 H 638.746 -4.14633 0.946567 0
M  V30 6823 N 637.061 -0.65484 -1.43351 0
M  V30 6824 C 637.994 0.0855537 -2.2804 0
M  V30 6825 C 638.972 0.828301 -1.39921 0
M  V30 6826 O 640.156 0.827539 -1.69364 0
M  V30 6827 C 637.283 1.12792 -3.19368 0
M  V30 6828 C 636.329 0.483037 -4.23756 0
M  V30 6829 S 637.162 -0.744605 -5.30298 0
M  V30 6830 C 638.318 0.297187 -6.25194 0
M  V30 6831 H 638.551 -0.632831 -2.90487 0
M  V30 6832 H 636.084 -0.44373 -1.47886 0
M  V30 6833 H 638.042 1.7243 -3.72529 0
M  V30 6834 H 636.703 1.81863 -2.56095 0
M  V30 6835 H 635.896 1.26888 -4.87766 0
M  V30 6836 H 635.498 -0.0392713 -3.73979 0
M  V30 6837 H 637.79 1.1629 -6.67445 0
M  V30 6838 H 638.733 -0.30793 -7.0743 0
M  V30 6839 H 639.141 0.633721 -5.60932 0
M  V30 6840 N 638.539 1.52521 -0.396863 0
M  V30 6841 C 639.449 2.30403 0.44178 0
M  V30 6842 C 640.465 1.37625 1.06468 0
M  V30 6843 O 641.641 1.70697 1.06886 0
M  V30 6844 C 638.706 3.1013 1.54986 0
M  V30 6845 C 637.767 4.18628 0.951279 0
M  V30 6846 C 637 4.94543 2.00655 0
M  V30 6847 O 637.223 4.70629 3.22281 0
M  V30 6848 O 636.157 5.797 1.61962 0
M  V30 6849 H 639.983 3.03087 -0.192892 0
M  V30 6850 H 637.568 1.48537 -0.16038 0
M  V30 6851 H 639.45 3.59816 2.19341 0
M  V30 6852 H 638.125 2.40251 2.16935 0
M  V30 6853 H 637.032 3.73119 0.270773 0
M  V30 6854 H 638.365 4.90763 0.375887 0
M  V30 6855 N 640.017 0.126909 1.57088 0
M  V30 6856 C 640.964 -0.82036 2.15728 0
M  V30 6857 C 641.934 -1.25811 1.08447 0
M  V30 6858 O 643.119 -1.33422 1.36393 0
M  V30 6859 C 640.259 -2.06199 2.76724 0
M  V30 6860 C 639.372 -1.67188 3.98337 0
M  V30 6861 C 638.507 -2.86378 4.47393 0
M  V30 6862 C 637.546 -2.43644 5.61519 0
M  V30 6863 N 636.683 -3.55775 6.05284 0
M  V30 6864 H 641.523 -0.313472 2.96347 0
M  V30 6865 H 639.06 -0.14303 1.46403 0
M  V30 6866 H 641.018 -2.78959 3.10222 0
M  V30 6867 H 639.648 -2.54333 1.98782 0
M  V30 6868 H 638.7 -0.842714 3.70948 0
M  V30 6869 H 640.012 -1.31789 4.81075 0
M  V30 6870 H 639.166 -3.67353 4.82842 0
M  V30 6871 H 637.905 -3.25009 3.63621 0
M  V30 6872 H 636.91 -1.61104 5.25667 0
M  V30 6873 H 638.135 -2.06122 6.47063 0
M  V30 6874 H 636.081 -3.94065 5.24451 0
M  V30 6875 H 635.998 -3.24325 6.82898 0
M  V30 6876 H 637.266 -4.37166 6.45373 0
M  V30 6877 N 641.495 -1.56914 -0.146875 0
M  V30 6878 C 642.425 -2.01308 -1.1831 0
M  V30 6879 C 643.406 -0.892664 -1.44795 0
M  V30 6880 O 644.591 -1.16048 -1.55713 0
M  V30 6881 C 641.721 -2.3938 -2.51624 0
M  V30 6882 C 640.675 -3.54608 -2.3966 0
M  V30 6883 C 640.001 -3.78493 -3.77686 0
M  V30 6884 C 641.301 -4.87269 -1.88058 0
M  V30 6885 H 642.995 -2.88123 -0.813964 0
M  V30 6886 H 640.541 -1.38615 -0.3901 0
M  V30 6887 H 642.494 -2.69037 -3.24341 0
M  V30 6888 H 641.218 -1.49502 -2.90373 0
M  V30 6889 H 639.877 -3.25116 -1.69396 0
M  V30 6890 H 639.525 -2.85866 -4.13871 0
M  V30 6891 H 639.225 -4.56039 -3.70543 0
M  V30 6892 H 640.749 -4.10576 -4.51951 0
M  V30 6893 H 642.163 -5.15644 -2.50568 0
M  V30 6894 H 640.56 -5.68622 -1.91805 0
M  V30 6895 H 641.63 -4.77634 -0.836277 0
M  V30 6896 N 642.974 0.416227 -1.52004 0
M  V30 6897 C 644.199 1.19029 -1.69843 0
M  V30 6898 C 644.624 1.83708 -0.404103 0
M  V30 6899 O 643.982 1.69711 0.637787 0
M  V30 6900 C 644.03 2.23439 -2.83032 0
M  V30 6901 O 643.134 3.29419 -2.48106 0
M  V30 6902 H 642.475 0.347785 -0.565634 0
M  V30 6903 H 645.005 0.488871 -1.98674 0
M  V30 6904 H 645.015 2.67884 -3.07737 0
M  V30 6905 H 643.69 1.75745 -3.76944 0
M  V30 6906 H 642.267 2.90303 -2.34048 0
M  V30 6907 N 644.452 1.42507 0.673017 0
M  V30 6908 C 645.682 1.46261 1.45916 0
M  V30 6909 C 646.09 0.0729724 1.89059 0
M  V30 6910 O 645.433 -0.922987 1.58829 0
M  V30 6911 C 645.495 2.32853 2.73898 0
M  V30 6912 C 645.159 3.80699 2.52819 0
M  V30 6913 C 646.156 4.72307 2.17306 0
M  V30 6914 C 643.841 4.24983 2.67758 0
M  V30 6915 C 645.835 6.06192 1.97003 0
M  V30 6916 C 643.522 5.58927 2.4707 0
M  V30 6917 C 644.52 6.49348 2.11746 0
M  V30 6918 O 644.208 7.80817 1.91259 0
M  V30 6919 H 643.94 0.499561 0.455428 0
M  V30 6920 H 646.494 1.87697 0.834196 0
M  V30 6921 H 644.724 1.86268 3.38882 0
M  V30 6922 H 646.413 2.28041 3.35786 0
M  V30 6923 H 647.179 4.39378 2.05359 0
M  V30 6924 H 643.058 3.54893 2.94231 0
M  V30 6925 H 646.602 6.76731 1.69355 0
M  V30 6926 H 642.499 5.91429 2.58615 0
M  V30 6927 H 643.267 7.92194 2.05843 0
M  V30 6928 N 645.93 -0.909495 1.28709 0
M  V30 6929 C 646.88 -1.9991 1.09636 0
M  V30 6930 C 647.864 -1.60889 0.01872 0
M  V30 6931 O 649.056 -1.75374 0.239338 0
M  V30 6932 C 646.185 -3.34675 0.764702 0
M  V30 6933 C 645.271 -3.80085 1.8814 0
M  V30 6934 N 645.662 -3.97824 3.12361 0
M  V30 6935 C 643.96 -4.09278 1.77221 0
M  V30 6936 C 644.661 -4.35928 3.85151 0
M  V30 6937 N 643.637 -4.44426 3.13028 0
M  V30 6938 H 647.439 -2.11681 2.03883 0
M  V30 6939 H 644.953 -1.09763 1.1969 0
M  V30 6940 H 646.95 -4.12426 0.609132 0
M  V30 6941 H 645.61 -3.24255 -0.169952 0
M  V30 6942 H 646.621 -3.83626 3.47925 0
M  V30 6943 H 643.298 -4.0747 0.909621 0
M  V30 6944 H 644.688 -4.57581 4.92006 0
M  V30 6945 N 647.408 -1.11026 -1.11852 0
M  V30 6946 C 648.633 -0.879064 -1.87849 0
M  V30 6947 C 649.058 0.565406 -1.79401 0
M  V30 6948 O 648.416 1.39886 -1.15333 0
M  V30 6949 C 648.464 -1.33985 -3.34784 0
M  V30 6950 O 647.568 -0.508803 -4.09249 0
M  V30 6951 H 646.909 -0.316992 -0.583448 0
M  V30 6952 H 649.439 -1.47863 -1.41413 0
M  V30 6953 H 649.449 -1.33248 -3.85628 0
M  V30 6954 H 648.124 -2.39172 -3.40249 0
M  V30 6955 H 646.701 -0.581913 -3.68332 0
M  V30 6956 N 648.886 1.2938 -0.899927 0
M  V30 6957 C 650.135 1.9483 -0.521937 0
M  V30 6958 C 650.448 1.71725 0.936473 0
M  V30 6959 O 651.654 2.31282 1.42199 0
M  V30 6960 C 650.11 3.48911 -0.88255 0
M  V30 6961 C 649.718 3.80815 -2.35974 0
M  V30 6962 C 651.462 4.20595 -0.57448 0
M  V30 6963 C 649.369 5.28142 -2.66121 0
M  V30 6964 H 648.299 0.729285 -0.191468 0
M  V30 6965 H 650.95 1.47103 -1.09695 0
M  V30 6966 H 649.332 3.95293 -0.236459 0
M  V30 6967 H 650.506 3.45291 -3.05141 0
M  V30 6968 H 648.821 3.22271 -2.63686 0
M  V30 6969 H 651.418 5.29031 -0.776556 0
M  V30 6970 H 651.761 4.13442 0.487005 0
M  V30 6971 H 652.294 3.79945 -1.17842 0
M  V30 6972 H 649.033 5.4036 -3.71068 0
M  V30 6973 H 648.553 5.64913 -2.01578 0
M  V30 6974 H 650.232 5.95738 -2.52399 0
M  V30 6975 N 650.364 0.662433 1.43002 0
M  V30 6976 C 651.604 0.183312 2.03576 0
M  V30 6977 C 651.968 -1.18354 1.51183 0
M  V30 6978 O 653.169 -1.7566 2.03462 0
M  V30 6979 C 651.44 0.202908 3.56824 0
M  V30 6980 S 652.999 -0.20702 4.38311 0
M  V30 6981 H 649.817 0.0765001 0.706872 0
M  V30 6982 H 652.419 0.872827 1.74934 0
M  V30 6983 H 651.123 1.20028 3.92456 0
M  V30 6984 H 650.654 -0.506845 3.90121 0
M  V30 6985 H 652.669 -1.44358 4.74737 0
M  V30 6986 N 651.842 -1.52309 0.404946 0
M  V30 6987 C 653.07 -2.06185 -0.171818 0
M  V30 6988 C 653.485 -1.27536 -1.39212 0
M  V30 6989 O 652.842 -0.326112 -1.79563 0
M  V30 6990 C 652.893 -3.57647 -0.526417 0
M  V30 6991 O 652.614 -4.3332 0.645417 0
M  V30 6992 C 654.115 -4.27925 -1.15736 0
M  V30 6993 H 651.335 -0.670632 -0.0222328 0
M  V30 6994 H 653.879 -1.96259 0.574692 0
M  V30 6995 H 652.034 -3.67595 -1.22282 0
M  V30 6996 H 652.448 -5.23328 0.35042 0
M  V30 6997 H 653.922 -5.35093 -1.35572 0
M  V30 6998 H 654.399 -3.84134 -2.12926 0
M  V30 6999 H 655.005 -4.22335 -0.501281 0
M  V30 7000 N 653.32 -0.135238 -1.57019 0
M  V30 7001 C 654.545 0.529343 -2.00531 0
M  V30 7002 C 654.97 1.58391 -1.01459 0
M  V30 7003 O 654.328 1.81296 0.0113986 0
M  V30 7004 C 654.376 1.11748 -3.42848 0
M  V30 7005 O 653.48 2.23267 -3.46736 0
M  V30 7006 H 652.821 0.130669 -0.651016 0
M  V30 7007 H 655.351 -0.228503 -2.0332 0
M  V30 7008 H 655.361 1.44905 -3.81401 0
M  V30 7009 H 654.036 0.345147 -4.14465 0
M  V30 7010 H 652.613 1.91428 -3.20015 0
M  V30 7011 N 654.798 1.5699 0.138552 0
M  V30 7012 C 655.708 2.02174 1.19008 0
M  V30 7013 C 656.724 0.938622 1.46512 0
M  V30 7014 O 657.9 1.24872 1.58016 0
M  V30 7015 C 654.965 2.40045 2.50159 0
M  V30 7016 C 654.026 3.62346 2.30226 0
M  V30 7017 C 653.259 3.98401 3.55123 0
M  V30 7018 O 653.482 3.35019 4.61647 0
M  V30 7019 O 652.416 4.91606 3.47285 0
M  V30 7020 H 656.242 2.91954 0.836452 0
M  V30 7021 H 653.827 1.45293 0.347907 0
M  V30 7022 H 655.709 2.65225 3.27465 0
M  V30 7023 H 654.384 1.53417 2.85035 0
M  V30 7024 H 653.291 3.42341 1.50843 0
M  V30 7025 H 654.624 4.49617 2.00262 0
M  V30 7026 N 656.276 -0.40816 1.52223 0
M  V30 7027 C 657.186 -1.52202 1.78526 0
M  V30 7028 C 658.202 -1.60546 0.670892 0
M  V30 7029 O 659.378 -1.77242 0.956404 0
M  V30 7030 C 656.443 -2.87928 1.93128 0
M  V30 7031 C 655.504 -2.89463 3.17033 0
M  V30 7032 C 654.737 -4.18715 3.30929 0
M  V30 7033 O 654.96 -5.12662 2.50067 0
M  V30 7034 O 653.894 -4.27125 4.24084 0
M  V30 7035 H 657.72 -1.32911 2.73072 0
M  V30 7036 H 655.305 -0.594112 1.37079 0
M  V30 7037 H 657.187 -3.68426 2.04549 0
M  V30 7038 H 655.862 -3.07285 1.01772 0
M  V30 7039 H 654.769 -2.07815 3.11069 0
M  V30 7040 H 656.102 -2.75055 4.08174 0
M  V30 7041 N 657.755 -1.42862 -0.66545 0
M  V30 7042 C 659.001 -1.4504 -1.426 0
M  V30 7043 C 659.356 -0.0690217 -1.92276 0
M  V30 7044 O 658.649 0.91036 -1.68591 0
M  V30 7045 C 658.843 -2.4175 -2.63233 0
M  V30 7046 C 658.672 -3.89155 -2.25362 0
M  V30 7047 C 657.442 -4.57619 -2.14273 0
M  V30 7048 C 659.64 -4.79326 -1.86417 0
M  V30 7049 N 657.622 -5.90006 -1.69604 0
M  V30 7050 C 658.993 -6.00892 -1.52738 0
M  V30 7051 C 661.048 -4.66696 -1.73492 0
M  V30 7052 C 659.751 -7.11232 -1.0743 0
M  V30 7053 C 661.777 -5.77027 -1.29589 0
M  V30 7054 C 661.139 -6.97712 -0.968393 0
M  V30 7055 H 657.238 -0.585889 -0.517936 0
M  V30 7056 H 659.822 -1.78956 -0.767002 0
M  V30 7057 H 657.993 -2.09881 -3.26809 0
M  V30 7058 H 659.725 -2.34447 -3.29874 0
M  V30 7059 H 656.48 -4.11957 -2.33641 0
M  V30 7060 H 656.904 -6.60249 -1.49666 0
M  V30 7061 H 661.546 -3.7386 -1.97455 0
M  V30 7062 H 659.264 -8.03907 -0.822147 0
M  V30 7063 H 662.85 -5.6927 -1.20095 0
M  V30 7064 H 661.73 -7.81634 -0.63384 0
M  V30 7065 N 659.233 0.902656 -1.29189 0
M  V30 7066 C 660.165 2.01149 -1.09872 0
M  V30 7067 C 661.178 1.62732 -0.0471046 0
M  V30 7068 O 662.367 1.76107 -0.29132 0
M  V30 7069 C 659.467 3.32612 -0.649818 0
M  V30 7070 C 658.64 3.99574 -1.7793 0
M  V30 7071 C 657.699 5.09325 -1.32191 0
M  V30 7072 O 656.725 5.31919 -2.02611 0
M  V30 7073 N 657.927 5.80185 -0.191171 0
M  V30 7074 H 660.692 2.18276 -2.05368 0
M  V30 7075 H 658.253 1.07466 -1.2109 0
M  V30 7076 H 660.245 4.03375 -0.327199 0
M  V30 7077 H 658.815 3.11876 0.212597 0
M  V30 7078 H 658.035 3.22213 -2.27095 0
M  V30 7079 H 659.323 4.41056 -2.53668 0
M  V30 7080 H 658.721 5.64312 0.396016 0
M  V30 7081 H 657.278 6.5176 0.0721001 0
M  V30 7082 N 660.711 1.11618 1.11262 0
M  V30 7083 C 661.959 0.864469 1.82678 0
M  V30 7084 C 662.28 -0.611564 1.85162 0
M  V30 7085 O 661.55 -1.44429 1.32352 0
M  V30 7086 H 660.13 0.316821 0.676486 0
M  V30 7087 H 662.792 1.40894 1.34666 0
M  V30 7088 H 661.888 1.23832 2.86482 0
M  V30 7089 N 662.189 -1.289 0.906776 0
M  V30 7090 C 663.119 -2.29932 0.406659 0
M  V30 7091 C 664.1 -1.6189 -0.522061 0
M  V30 7092 O 665.285 -1.8935 -0.431283 0
M  V30 7093 C 662.415 -3.45425 -0.360366 0
M  V30 7094 C 661.369 -4.25316 0.478574 0
M  V30 7095 C 660.695 -5.33076 -0.416373 0
M  V30 7096 C 661.995 -4.92739 1.7322 0
M  V30 7097 H 663.689 -2.72013 1.25097 0
M  V30 7098 H 661.235 -1.30768 0.602977 0
M  V30 7099 H 663.188 -4.15186 -0.721029 0
M  V30 7100 H 661.912 -3.02206 -1.23852 0
M  V30 7101 H 660.571 -3.57273 0.821662 0
M  V30 7102 H 660.219 -4.86101 -1.29287 0
M  V30 7103 H 659.919 -5.8743 0.141309 0
M  V30 7104 H 661.443 -6.05686 -0.773072 0
M  V30 7105 H 662.857 -5.54898 1.44086 0
M  V30 7106 H 661.254 -5.57057 2.23175 0
M  V30 7107 H 662.324 -4.17625 2.46408 0
M  V30 7108 N 663.667 -0.670007 -1.42649 0
M  V30 7109 C 664.6 0.0613623 -2.28117 0
M  V30 7110 C 665.578 0.813414 -1.40792 0
M  V30 7111 O 666.762 0.809529 -1.70232 0
M  V30 7112 C 663.889 1.09399 -3.20546 0
M  V30 7113 C 662.935 0.438064 -4.24244 0
M  V30 7114 S 663.768 -0.800808 -5.29478 0
M  V30 7115 C 664.924 0.23086 -6.25474 0
M  V30 7116 H 665.157 -0.663606 -2.89799 0
M  V30 7117 H 662.69 -0.45939 -1.47407 0
M  V30 7118 H 664.648 1.68469 -3.74337 0
M  V30 7119 H 663.309 1.79137 -2.58009 0
M  V30 7120 H 662.502 1.21707 -4.89084 0
M  V30 7121 H 662.104 -0.0789346 -3.73917 0
M  V30 7122 H 664.396 1.09204 -6.68641 0
M  V30 7123 H 665.339 -0.382945 -7.07064 0
M  V30 7124 H 665.747 0.574191 -5.61572 0
M  V30 7125 N 665.145 1.52092 -0.413018 0
M  V30 7126 C 666.077 2.24819 0.445994 0
M  V30 7127 C 667.09 1.27925 1.00692 0
M  V30 7128 O 668.279 1.53845 0.905204 0
M  V30 7129 C 665.379 2.96951 1.6332 0
M  V30 7130 C 664.552 4.20746 1.19548 0
M  V30 7131 C 663.611 4.75668 2.25003 0
M  V30 7132 O 662.637 5.38148 1.85434 0
M  V30 7133 N 663.839 4.57579 3.57214 0
M  V30 7134 H 666.604 2.99176 -0.177209 0
M  V30 7135 H 664.165 1.60102 -0.240601 0
M  V30 7136 H 666.157 3.30586 2.33441 0
M  V30 7137 H 664.727 2.25756 2.16225 0
M  V30 7138 H 663.947 3.92881 0.32224 0
M  V30 7139 H 665.235 5.01132 0.880033 0
M  V30 7140 H 664.633 4.07758 3.92109 0
M  V30 7141 H 663.19 4.95642 4.23299 0
M  V30 7142 N 666.623 0.143563 1.56945 0
M  V30 7143 C 667.87 -0.508407 1.96014 0
M  V30 7144 C 668.198 -1.65099 1.02824 0
M  V30 7145 O 667.453 -1.95618 0.0567764 0
M  V30 7146 C 667.752 -1.05885 3.41355 0
M  V30 7147 C 667.418 -0.0350809 4.50886 0
M  V30 7148 C 666.08 0.246362 4.80569 0
M  V30 7149 C 668.432 0.661282 5.16988 0
M  V30 7150 C 665.76 1.23003 5.73661 0
M  V30 7151 C 668.112 1.63375 6.11139 0
M  V30 7152 C 666.776 1.92292 6.39203 0
M  V30 7153 H 666.046 -0.186039 0.717266 0
M  V30 7154 H 668.693 0.229667 1.90118 0
M  V30 7155 H 666.998 -1.87419 3.44066 0
M  V30 7156 H 668.695 -1.57183 3.6891 0
M  V30 7157 H 665.285 -0.264622 4.27782 0
M  V30 7158 H 669.469 0.457038 4.94191 0
M  V30 7159 H 664.725 1.46056 5.93698 0
M  V30 7160 H 668.899 2.17887 6.61436 0
M  V30 7161 H 666.526 2.68666 7.11142 0
M  V30 7162 N 668.101 -1.57061 -0.130224 0
M  V30 7163 C 669.329 -1.88432 -0.854456 0
M  V30 7164 C 669.744 -0.733608 -1.73964 0
M  V30 7165 O 669.101 0.296029 -1.80083 0
M  V30 7166 C 669.152 -3.1918 -1.69724 0
M  V30 7167 O 668.873 -4.2982 -0.847705 0
M  V30 7168 C 670.374 -3.6418 -2.5276 0
M  V30 7169 H 667.594 -0.624193 -0.246221 0
M  V30 7170 H 670.138 -2.04159 -0.11798 0
M  V30 7171 H 668.293 -3.05156 -2.3866 0
M  V30 7172 H 668.707 -5.04689 -1.42792 0
M  V30 7173 H 670.181 -4.58457 -3.07443 0
M  V30 7174 H 670.658 -2.90285 -3.29592 0
M  V30 7175 H 671.264 -3.80954 -1.89087 0
M  V30 7176 N 669.579 0.400081 -1.52437 0
M  V30 7177 C 670.509 1.4947 -1.7939 0
M  V30 7178 C 671.49 1.57383 -0.645329 0
M  V30 7179 O 672.675 1.72511 -0.891826 0
M  V30 7180 C 669.805 2.87201 -1.95276 0
M  V30 7181 C 668.759 2.94134 -3.10917 0
M  V30 7182 C 668.085 4.34207 -3.1204 0
M  V30 7183 C 669.385 2.64791 -4.50203 0
M  V30 7184 H 671.079 1.27165 -2.71052 0
M  V30 7185 H 668.625 0.610312 -1.30427 0
M  V30 7186 H 670.578 3.63772 -2.12715 0
M  V30 7187 H 669.302 3.10819 -1.00294 0
M  V30 7188 H 667.961 2.20009 -2.93243 0
M  V30 7189 H 667.609 4.54848 -2.14761 0
M  V30 7190 H 667.309 4.39768 -3.89715 0
M  V30 7191 H 668.833 5.127 -3.31619 0
M  V30 7192 H 670.247 3.31083 -4.68035 0
M  V30 7193 H 668.644 2.81717 -5.29864 0
M  V30 7194 H 669.714 1.60184 -4.57678 0
M  V30 7195 N 671.057 1.43213 0.657864 0
M  V30 7196 C 672.468 1.39669 1.23893 0
M  V30 7197 C 672.819 0.0984217 1.95953 0
M  V30 7198 O 671.944 -0.8023 2.00978 0
M  V30 7199 C 672.539 2.53004 2.25332 0
M  V30 7200 C 671.098 2.5274 2.78926 0
M  V30 7201 C 670.245 2.30941 1.53497 0
M  V30 7202 H 673.196 1.52181 0.450172 0
M  V30 7203 H 673.217 2.24226 3.07413 0
M  V30 7204 H 672.729 3.4748 1.72856 0
M  V30 7205 H 670.83 1.6213 3.35477 0
M  V30 7206 H 670.943 3.50352 3.26787 0
M  V30 7207 H 669.307 1.7952 1.80678 0
M  V30 7208 H 670.09 3.27496 1.02963 0
M  V30 7209 N 672.536 -0.895792 1.29666 0
M  V30 7210 C 673.782 -1.64908 1.18039 0
M  V30 7211 C 674.115 -1.9236 -0.266682 0
M  V30 7212 O 673.39 -1.53682 -1.19214 0
M  V30 7213 C 673.673 -2.99574 1.99819 0
M  V30 7214 C 673.526 -2.79163 3.52687 0
M  V30 7215 C 674.845 -4.00358 1.82761 0
M  V30 7216 H 671.964 -0.598437 0.430165 0
M  V30 7217 H 674.606 -1.03736 1.59182 0
M  V30 7218 H 672.756 -3.51786 1.64859 0
M  V30 7219 H 674.428 -2.33821 3.9765 0
M  V30 7220 H 672.671 -2.13871 3.77414 0
M  V30 7221 H 673.342 -3.74871 4.05186 0
M  V30 7222 H 675.818 -3.57268 2.13304 0
M  V30 7223 H 674.694 -4.92514 2.42325 0
M  V30 7224 H 674.955 -4.35096 0.783839 0
M  V30 7225 N 674.014 -1.12206 -1.10668 0
M  V30 7226 C 675.43 -0.857619 -1.346 0
M  V30 7227 C 675.63 0.513542 -1.94846 0
M  V30 7228 O 674.686 1.26273 -2.18658 0
M  V30 7229 C 675.999 -1.97212 -2.26998 0
M  V30 7230 C 677.547 -2.00272 -2.40542 0
M  V30 7231 C 678.022 -3.10948 -3.36267 0
M  V30 7232 N 679.513 -3.10375 -3.43834 0
M  V30 7233 C 680.248 -3.92651 -4.17867 0
M  V30 7234 N 679.744 -4.84911 -4.94807 0
M  V30 7235 N 681.537 -3.80798 -4.1346 0
M  V30 7236 H 673.688 -2.00558 -0.699306 0
M  V30 7237 H 675.951 -0.872612 -0.370477 0
M  V30 7238 H 675.657 -2.96002 -1.89936 0
M  V30 7239 H 675.531 -1.87521 -3.27286 0
M  V30 7240 H 677.918 -1.02103 -2.76874 0
M  V30 7241 H 677.999 -2.14037 -1.40077 0
M  V30 7242 H 677.643 -4.09348 -3.00661 0
M  V30 7243 H 677.573 -2.94421 -4.36605 0
M  V30 7244 H 680.064 -2.43536 -2.88961 0
M  V30 7245 H 680.377 -5.44207 -5.48688 0
M  V30 7246 H 678.722 -4.88926 -4.93939 0
M  V30 7247 H 681.913 -3.08058 -3.52445 0
M  V30 7248 H 682.086 -4.4515 -4.70898 0
M  V30 7249 N 675.492 1.28418 -0.913599 0
M  V30 7250 C 676.422 2.29713 -0.418847 0
M  V30 7251 C 677.403 1.62165 0.513469 0
M  V30 7252 O 678.588 1.89576 0.421235 0
M  V30 7253 C 675.718 3.45612 0.342042 0
M  V30 7254 C 674.672 4.25056 -0.501123 0
M  V30 7255 C 673.998 5.3329 0.388097 0
M  V30 7256 C 675.298 4.91814 -1.75831 0
M  V30 7257 H 676.992 2.71346 -1.26538 0
M  V30 7258 H 674.538 1.30446 -0.609903 0
M  V30 7259 H 676.491 4.15562 0.699 0
M  V30 7260 H 675.215 3.02858 1.22248 0
M  V30 7261 H 673.874 3.56833 -0.840598 0
M  V30 7262 H 673.522 4.8678 1.26707 0
M  V30 7263 H 673.222 5.87347 -0.172459 0
M  V30 7264 H 674.746 6.06088 0.74094 0
M  V30 7265 H 676.16 5.54126 -1.47026 0
M  V30 7266 H 674.557 5.55866 -2.26126 0
M  V30 7267 H 675.627 4.16313 -2.4862 0
M  V30 7268 N 676.97 0.677563 1.42291 0
M  V30 7269 C 678.21 0.204894 2.0337 0
M  V30 7270 C 678.574 -1.16744 1.5243 0
M  V30 7271 O 679.775 -1.73492 2.05314 0
M  V30 7272 C 678.046 0.240742 3.56588 0
M  V30 7273 S 679.605 -0.16052 4.38506 0
M  V30 7274 H 676.423 0.0839932 0.706021 0
M  V30 7275 H 679.025 0.891332 1.73999 0
M  V30 7276 H 677.729 1.24184 3.91161 0
M  V30 7277 H 677.26 -0.465439 3.90637 0
M  V30 7278 H 679.275 -1.39315 4.76241 0
M  V30 7279 N 678.448 -1.51871 0.421078 0
M  V30 7280 C 679.395 -2.27334 -0.398508 0
M  V30 7281 C 680.365 -1.30241 -1.03085 0
M  V30 7282 O 681.55 -1.59121 -1.05285 0
M  V30 7283 C 678.69 -3.10664 -1.50272 0
M  V30 7284 C 677.803 -4.2273 -0.890122 0
M  V30 7285 C 676.938 -4.93399 -1.96803 0
M  V30 7286 C 675.977 -5.97409 -1.333 0
M  V30 7287 N 675.114 -6.61548 -2.35156 0
M  V30 7288 H 679.954 -2.96938 0.251411 0
M  V30 7289 H 677.491 -1.46472 0.135825 0
M  V30 7290 H 679.449 -3.57292 -2.15403 0
M  V30 7291 H 678.079 -2.43207 -2.1225 0
M  V30 7292 H 677.131 -3.80186 -0.127537 0
M  V30 7293 H 678.443 -4.97302 -0.386349 0
M  V30 7294 H 677.597 -5.43491 -2.69633 0
M  V30 7295 H 676.336 -4.18421 -2.50549 0
M  V30 7296 H 675.341 -5.46624 -0.59008 0
M  V30 7297 H 676.566 -6.74335 -0.803076 0
M  V30 7298 H 674.512 -5.89394 -2.88012 0
M  V30 7299 H 674.429 -7.31832 -1.89624 0
M  V30 7300 H 675.697 -7.16276 -3.0752 0
M  V30 7301 N 679.926 -0.151884 -1.56866 0
M  V30 7302 C 680.836 0.798876 -2.20579 0
M  V30 7303 C 681.852 1.268 -1.19154 0
M  V30 7304 O 683.028 1.32418 -1.51748 0
M  V30 7305 C 680.093 2.01861 -2.81874 0
M  V30 7306 C 679.154 1.59825 -3.9844 0
M  V30 7307 C 678.387 2.75984 -4.56802 0
M  V30 7308 O 678.61 3.92331 -4.14044 0
M  V30 7309 O 677.544 2.51175 -5.46987 0
M  V30 7310 H 681.37 0.2865 -3.02346 0
M  V30 7311 H 678.955 0.0753806 -1.4921 0
M  V30 7312 H 680.837 2.73235 -3.20813 0
M  V30 7313 H 679.512 2.52042 -2.03117 0
M  V30 7314 H 678.419 0.854601 -3.64208 0
M  V30 7315 H 679.752 1.14355 -4.78731 0
M  V30 7316 N 681.404 1.57128 0.121893 0
M  V30 7317 C 682.653 1.83888 0.828748 0
M  V30 7318 C 682.966 0.737087 1.81181 0
M  V30 7319 O 684.172 0.891007 2.56463 0
M  V30 7320 C 682.628 3.26014 1.52455 0
M  V30 7321 C 682.236 4.44195 0.58263 0
M  V30 7322 C 683.98 3.62025 2.21671 0
M  V30 7323 C 681.887 5.77349 1.28149 0
M  V30 7324 H 680.817 0.685856 0.313238 0
M  V30 7325 H 683.468 1.83319 0.0814851 0
M  V30 7326 H 681.85 3.21044 2.31834 0
M  V30 7327 H 683.024 4.60457 -0.177729 0
M  V30 7328 H 681.339 4.164 -0.00241228 0
M  V30 7329 H 683.936 4.58776 2.74643 0
M  V30 7330 H 684.279 2.89315 2.99337 0
M  V30 7331 H 684.812 3.68767 1.49184 0
M  V30 7332 H 681.551 6.53221 0.546189 0
M  V30 7333 H 681.071 5.64978 2.01394 0
M  V30 7334 H 682.75 6.21006 1.81549 0
M  V30 7335 N 682.882 -0.391992 1.52647 0
M  V30 7336 C 683.792 -1.503 1.80131 0
M  V30 7337 C 684.808 -1.59825 0.687882 0
M  V30 7338 O 685.984 -1.76218 0.975149 0
M  V30 7339 C 683.049 -2.85863 1.96171 0
M  V30 7340 C 682.11 -2.86084 3.20085 0
M  V30 7341 C 681.343 -4.15181 3.35351 0
M  V30 7342 O 681.566 -5.09981 2.55491 0
M  V30 7343 O 680.5 -4.22603 4.28591 0
M  V30 7344 H 684.326 -1.30007 2.74466 0
M  V30 7345 H 681.911 -0.579539 1.37701 0
M  V30 7346 H 683.793 -3.66236 2.08445 0
M  V30 7347 H 682.468 -3.06189 1.05025 0
M  V30 7348 H 681.375 -2.04504 3.13256 0
M  V30 7349 H 682.708 -2.7071 4.11068 0
M  V30 7350 N 684.36 -1.4356 -0.65026 0
M  V30 7351 C 685.29 -1.51758 -1.77459 0
M  V30 7352 C 686.271 -0.372019 -1.65982 0
M  V30 7353 O 687.456 -0.589627 -1.85033 0
M  V30 7354 C 684.586 -1.44302 -3.15902 0
M  V30 7355 C 683.54 -2.57138 -3.42146 0
M  V30 7356 C 682.866 -2.34735 -4.8042 0
M  V30 7357 C 684.166 -3.99373 -3.36598 0
M  V30 7358 H 685.86 -2.45863 -1.70855 0
M  V30 7359 H 683.406 -1.18333 -0.820566 0
M  V30 7360 H 685.359 -1.48641 -3.94314 0
M  V30 7361 H 684.083 -0.467026 -3.23244 0
M  V30 7362 H 682.742 -2.52157 -2.66106 0
M  V30 7363 H 682.39 -1.35372 -4.84441 0
M  V30 7364 H 682.09 -3.10375 -4.9894 0
M  V30 7365 H 683.614 -2.40862 -5.61086 0
M  V30 7366 H 685.028 -4.05826 -4.04942 0
M  V30 7367 H 683.425 -4.75063 -3.66654 0
M  V30 7368 H 684.495 -4.243 -2.34729 0
M  V30 7369 N 685.838 0.888903 -1.30139 0
M  V30 7370 C 687.085 1.64037 -1.18736 0
M  V30 7371 C 687.413 1.92771 0.258801 0
M  V30 7372 O 686.668 1.54427 1.20212 0
M  V30 7373 C 686.967 2.99041 -1.95728 0
M  V30 7374 C 686.633 2.89874 -3.45375 0
M  V30 7375 C 685.295 2.87082 -3.86183 0
M  V30 7376 C 687.647 2.78289 -4.40687 0
M  V30 7377 C 684.975 2.70536 -5.20603 0
M  V30 7378 C 687.327 2.63282 -5.75209 0
M  V30 7379 C 685.991 2.58861 -6.15262 0
M  V30 7380 H 685.261 0.600253 -0.434485 0
M  V30 7381 H 687.908 1.0338 -1.61198 0
M  V30 7382 H 686.213 3.63626 -1.45888 0
M  V30 7383 H 687.91 3.56139 -1.843 0
M  V30 7384 H 684.5 2.92856 -3.12943 0
M  V30 7385 H 688.684 2.79516 -4.10103 0
M  V30 7386 H 683.94 2.65526 -5.50732 0
M  V30 7387 H 688.114 2.5329 -6.48704 0
M  V30 7388 H 685.741 2.45799 -7.19366 0
M  V30 7389 N 687.317 1.12792 1.10072 0
M  V30 7390 C 688.267 0.768086 2.14673 0
M  V30 7391 C 689.251 -0.234716 1.59179 0
M  V30 7392 O 690.443 -0.039643 1.76956 0
M  V30 7393 C 687.572 0.228472 3.42539 0
M  V30 7394 C 686.658 1.25979 4.04957 0
M  V30 7395 N 687.049 2.4586 4.42025 0
M  V30 7396 C 685.347 1.10602 4.32069 0
M  V30 7397 C 686.048 3.11747 4.9111 0
M  V30 7398 N 685.024 2.39185 4.88151 0
M  V30 7399 H 688.826 1.68029 2.4113 0
M  V30 7400 H 686.34 1.00925 1.27232 0
M  V30 7401 H 688.337 -0.0475216 4.16873 0
M  V30 7402 H 686.997 -0.678136 3.1754 0
M  V30 7403 H 688.008 2.83215 4.33601 0
M  V30 7404 H 684.685 0.257021 4.16708 0
M  V30 7405 H 686.075 4.13862 5.29309 0
M  V30 7406 N 688.795 -1.27931 0.920396 0
M  V30 7407 C 690.042 -1.94689 0.557007 0
M  V30 7408 C 690.37 -1.724 -0.900476 0
M  V30 7409 O 689.625 -1.04194 -1.65657 0
M  V30 7410 C 689.924 -3.47853 0.820558 0
M  V30 7411 C 689.59 -3.90252 2.25863 0
M  V30 7412 C 688.252 -4.01539 2.65179 0
M  V30 7413 C 690.604 -4.11853 3.19415 0
M  V30 7414 C 687.932 -4.3181 3.97187 0
M  V30 7415 C 690.284 -4.43606 4.50995 0
M  V30 7416 C 688.948 -4.53105 4.90155 0
M  V30 7417 H 688.218 -0.712416 0.203823 0
M  V30 7418 H 690.865 -1.52142 1.16298 0
M  V30 7419 H 689.17 -3.91578 0.131844 0
M  V30 7420 H 690.867 -3.97634 0.51847 0
M  V30 7421 H 687.457 -3.81999 1.94358 0
M  V30 7422 H 691.641 -4.0258 2.90246 0
M  V30 7423 H 686.897 -4.37371 4.2722 0
M  V30 7424 H 691.071 -4.59268 5.23494 0
M  V30 7425 H 688.698 -4.76315 5.92476 0
M  V30 7426 N 690.273 -0.685099 -1.4193 0
M  V30 7427 C 691.55 -0.140152 -1.95097 0
M  V30 7428 C 691.93 1.34745 -1.62502 0
M  V30 7429 O 691.278 2.08872 -0.926534 0
M  V30 7430 C 691.488 -0.420268 -3.4646 0
M  V30 7431 C 692.836 -0.342338 -4.23218 0
M  V30 7432 O 693.86 -0.354592 -3.54431 0
M  V30 7433 O 692.719 -0.293404 -5.45712 0
M  V30 7434 H 689.813 -0.00885998 -0.826953 0
M  V30 7435 H 692.359 -0.760539 -1.51703 0
M  V30 7436 H 691.131 -1.45037 -3.63428 0
M  V30 7437 H 690.754 0.231616 -3.96925 0
M  V30 7438 N 691.751 1.51645 -0.429126 0
M  V30 7439 C 693 2.01203 0.141538 0
M  V30 7440 C 693.313 1.31828 1.44502 0
M  V30 7441 O 694.519 1.7231 2.09813 0
M  V30 7442 C 692.975 3.58624 0.302786 0
M  V30 7443 C 692.583 4.3693 -0.989775 0
M  V30 7444 C 694.327 4.16353 0.827661 0
M  V30 7445 C 692.234 5.86037 -0.794619 0
M  V30 7446 H 691.164 0.751867 0.05667 0
M  V30 7447 H 693.815 1.74822 -0.557633 0
M  V30 7448 H 692.197 3.81417 1.06476 0
M  V30 7449 H 693.371 4.25887 -1.75945 0
M  V30 7450 H 691.686 3.90614 -1.44256 0
M  V30 7451 H 694.283 5.25455 0.990026 0
M  V30 7452 H 694.626 3.74995 1.80787 0
M  V30 7453 H 695.159 3.97606 0.124213 0
M  V30 7454 H 691.898 6.31792 -1.74697 0
M  V30 7455 H 691.418 5.99765 -0.0645968 0
M  V30 7456 H 693.097 6.45471 -0.444591 0
M  V30 7457 N 693.229 0.160201 1.56784 0
M  V30 7458 C 694.477 -0.486625 1.96154 0
M  V30 7459 C 694.798 -1.64525 1.04673 0
M  V30 7460 O 694.068 -1.95586 0.110864 0
M  V30 7461 H 692.648 -0.182764 0.724297 0
M  V30 7462 H 695.31 0.238787 1.93432 0
M  V30 7463 H 694.406 -0.854025 3.00188 0
M  V30 7464 N 694.707 -1.5719 -0.113559 0
M  V30 7465 C 696.118 -1.74259 -0.670116 0
M  V30 7466 C 696.469 -0.779694 -1.80042 0
M  V30 7467 O 695.594 0.0461353 -2.16351 0
M  V30 7468 C 696.189 -3.15981 -1.22236 0
M  V30 7469 C 694.748 -3.34537 -1.72516 0
M  V30 7470 C 693.895 -2.70116 -0.627098 0
M  V30 7471 H 696.846 -1.58301 0.112396 0
M  V30 7472 H 696.867 -3.17832 -2.09197 0
M  V30 7473 H 696.379 -3.86038 -0.39949 0
M  V30 7474 H 694.48 -2.6953 -2.57263 0
M  V30 7475 H 694.593 -4.42737 -1.83086 0
M  V30 7476 H 692.957 -2.31501 -1.06204 0
M  V30 7477 H 693.74 -3.42802 0.184889 0
M  V30 7478 N 696.185 0.383891 -1.52853 0
M  V30 7479 C 697.432 1.12842 -1.68146 0
M  V30 7480 C 697.76 1.89823 -0.423954 0
M  V30 7481 O 697.015 1.86475 0.593765 0
M  V30 7482 C 697.314 2.12881 -2.87082 0
M  V30 7483 C 696.98 1.52519 -4.24322 0
M  V30 7484 C 695.642 1.35783 -4.61645 0
M  V30 7485 C 697.994 1.0868 -5.09743 0
M  V30 7486 C 695.322 0.737643 -5.82044 0
M  V30 7487 C 697.674 0.480699 -6.30771 0
M  V30 7488 C 696.338 0.300681 -6.66822 0
M  V30 7489 H 695.608 0.412917 -0.615289 0
M  V30 7490 H 698.255 0.412416 -1.87006 0
M  V30 7491 H 696.56 2.90719 -2.62659 0
M  V30 7492 H 698.257 2.70408 -2.96109 0
M  V30 7493 H 694.847 1.66534 -3.94923 0
M  V30 7494 H 699.031 1.2041 -4.81472 0
M  V30 7495 H 694.287 0.586415 -6.08581 0
M  V30 7496 H 698.461 0.132733 -6.96273 0
M  V30 7497 H 696.088 -0.181966 -7.59982 0
M  V30 7498 N 697.663 1.43903 0.642637 0
M  V30 7499 C 698.573 1.52349 1.78401 0
M  V30 7500 C 699.589 0.409869 1.69104 0
M  V30 7501 O 700.765 0.665548 1.90085 0
M  V30 7502 C 697.83 1.45408 3.14734 0
M  V30 7503 C 696.891 2.67528 3.35749 0
M  V30 7504 C 696.124 2.60909 4.65577 0
M  V30 7505 O 696.347 1.6627 5.45628 0
M  V30 7506 O 695.281 3.5158 4.88544 0
M  V30 7507 H 699.107 2.48752 1.7423 0
M  V30 7508 H 696.692 1.26021 0.802439 0
M  V30 7509 H 698.574 1.44019 3.96026 0
M  V30 7510 H 697.249 0.521437 3.19473 0
M  V30 7511 H 696.156 2.74487 2.5418 0
M  V30 7512 H 697.489 3.598 3.35864 0
M  V30 7513 N 699.141 -0.881989 1.30609 0
M  V30 7514 C 700.089 -2.00942 1.17155 0
M  V30 7515 C 701.083 -1.69198 0.0827154 0
M  V30 7516 O 702.289 -1.78342 0.243775 0
M  V30 7517 H 698.664 -0.658913 0.362406 0
M  V30 7518 H 700.635 -2.09423 2.12567 0
M  V30 7519 C 699.384 -3.36294 0.883273 0
M  V30 7520 H 698.707 -3.61233 1.7132 0
M  V30 7521 H 700.147 -4.15812 0.829255 0
M  V30 7522 C 698.606 -3.34348 -0.413851 0
M  V30 7523 O 699.136 -3.75216 -1.43444 0
M  V30 7524 N 697.342 -2.87459 -0.426082 0
M  V30 7525 H 696.889 -2.54397 0.40493 0
M  V30 7526 H 696.847 -2.8654 -1.29391 0
M  V30 7527 N 700.619 -1.13374 -1.09472 0
M  V30 7528 C 701.552 -0.754354 -2.15371 0
M  V30 7529 C 702.53 0.259205 -1.60521 0
M  V30 7530 O 703.714 0.150819 -1.87896 0
M  V30 7531 C 700.841 -0.118197 -3.38494 0
M  V30 7532 C 699.887 -1.10017 -4.12066 0
M  V30 7533 S 700.72 -2.63242 -4.6633 0
M  V30 7534 C 701.876 -2.00984 -5.92753 0
M  V30 7535 H 702.109 -1.65135 -2.4722 0
M  V30 7536 H 699.642 -0.953838 -1.21414 0
M  V30 7537 H 701.6 0.242447 -4.09783 0
M  V30 7538 H 700.261 0.756065 -3.04865 0
M  V30 7539 H 699.454 -0.60287 -5.00381 0
M  V30 7540 H 699.056 -1.40426 -3.46636 0
M  V30 7541 H 701.348 -1.35863 -6.63738 0
M  V30 7542 H 702.291 -2.8738 -6.47162 0
M  V30 7543 H 702.699 -1.46161 -5.4525 0
M  V30 7544 N 702.098 1.27442 -0.927168 0
M  V30 7545 C 703.344 1.95025 -0.577651 0
M  V30 7546 C 703.699 1.71534 0.871421 0
M  V30 7547 O 702.992 1.03354 1.61333 0
M  V30 7548 C 703.186 3.47413 -0.838994 0
M  V30 7549 C 703.015 3.85721 -2.31192 0
M  V30 7550 C 701.785 4.09199 -2.96452 0
M  V30 7551 C 703.983 3.95352 -3.28939 0
M  V30 7552 N 701.965 4.34283 -4.33903 0
M  V30 7553 C 703.336 4.24805 -4.51598 0
M  V30 7554 C 705.391 3.77926 -3.24155 0
M  V30 7555 C 704.094 4.38645 -5.70073 0
M  V30 7556 C 706.12 3.9299 -4.41942 0
M  V30 7557 C 705.482 4.22829 -5.63379 0
M  V30 7558 H 701.581 0.736983 -0.261495 0
M  V30 7559 H 704.165 1.53816 -1.19368 0
M  V30 7560 H 702.336 3.87581 -0.252129 0
M  V30 7561 H 704.068 4.02166 -0.452158 0
M  V30 7562 H 700.823 4.04013 -2.47125 0
M  V30 7563 H 701.247 4.50883 -5.05008 0
M  V30 7564 H 705.889 3.53897 -2.31337 0
M  V30 7565 H 703.607 4.615 -6.63358 0
M  V30 7566 H 707.193 3.80926 -4.39757 0
M  V30 7567 H 706.073 4.34234 -6.53001 0
M  V30 7568 N 703.576 0.692616 1.41565 0
M  V30 7569 C 704.987 0.297478 1.84315 0
M  V30 7570 C 705.338 -1.16379 1.57957 0
M  V30 7571 O 704.463 -1.89303 1.0485 0
M  V30 7572 C 705.058 0.533136 3.34579 0
M  V30 7573 C 703.617 0.191944 3.7591 0
M  V30 7574 C 702.764 0.816873 2.64995 0
M  V30 7575 H 705.715 0.893488 1.31158 0
M  V30 7576 H 705.736 -0.209105 3.79925 0
M  V30 7577 H 705.248 1.59674 3.53731 0
M  V30 7578 H 703.349 -0.867512 3.6236 0
M  V30 7579 H 703.462 0.644902 4.7474 0
M  V30 7580 H 701.826 0.246715 2.53502 0
M  V30 7581 H 702.609 1.88429 2.86966 0
M  V30 7582 N 705.054 -1.51416 0.437162 0
M  V30 7583 C 706.302 -2.01687 -0.129108 0
M  V30 7584 C 706.623 -1.32329 -1.43227 0
M  V30 7585 O 705.893 -0.457796 -1.90476 0
M  V30 7586 H 704.473 -0.745277 -0.0507023 0
M  V30 7587 H 707.135 -1.86075 0.579828 0
M  V30 7588 H 706.231 -3.10605 -0.305141 0
M  V30 7589 N 706.532 -0.168513 -1.56696 0
M  V30 7590 C 707.781 0.477233 -1.95973 0
M  V30 7591 C 708.094 1.64578 -1.05704 0
M  V30 7592 O 709.3 2.35758 -1.3465 0
M  V30 7593 C 707.756 0.900413 -3.48455 0
M  V30 7594 C 707.364 -0.242382 -4.47344 0
M  V30 7595 C 709.108 1.51474 -3.96555 0
M  V30 7596 C 707.015 0.200272 -5.91061 0
M  V30 7597 H 705.945 0.182061 -0.73169 0
M  V30 7598 H 708.596 -0.256297 -1.81701 0
M  V30 7599 H 706.978 1.68984 -3.58135 0
M  V30 7600 H 708.152 -1.01967 -4.49377 0
M  V30 7601 H 706.467 -0.766484 -4.09285 0
M  V30 7602 H 709.064 1.85792 -5.01384 0
M  V30 7603 H 709.407 2.41163 -3.39332 0
M  V30 7604 H 709.94 0.789802 -3.89881 0
M  V30 7605 H 706.679 -0.661775 -6.52151 0
M  V30 7606 H 706.199 0.942979 -5.92341 0
M  V30 7607 H 707.878 0.645088 -6.43776 0
M  V30 7608 N 708.01 1.57248 0.105221 0
M  V30 7609 C 709.257 1.8557 0.810552 0
M  V30 7610 C 709.585 0.755595 1.79223 0
M  V30 7611 O 708.84 -0.251788 1.94073 0
M  V30 7612 C 709.139 3.20437 1.58287 0
M  V30 7613 C 708.805 4.44716 0.744235 0
M  V30 7614 C 707.467 4.78458 0.513013 0
M  V30 7615 C 709.819 5.20953 0.160578 0
M  V30 7616 C 707.147 5.8587 -0.311894 0
M  V30 7617 C 709.499 6.29235 -0.651596 0
M  V30 7618 C 708.163 6.615 -0.893005 0
M  V30 7619 H 707.433 0.67905 0.296602 0
M  V30 7620 H 710.08 1.91363 0.0723968 0
M  V30 7621 H 708.385 3.10283 2.39232 0
M  V30 7622 H 710.082 3.39576 2.13282 0
M  V30 7623 H 706.672 4.18287 0.934555 0
M  V30 7624 H 710.856 4.95226 0.3264 0
M  V30 7625 H 706.112 6.09286 -0.508012 0
M  V30 7626 H 710.286 6.87484 -1.11077 0
M  V30 7627 H 707.913 7.44562 -1.53401 0
M  V30 7628 N 709.488 -0.375779 1.53054 0
M  V30 7629 C 710.734 -1.12114 1.68992 0
M  V30 7630 C 711.067 -1.8926 0.435238 0
M  V30 7631 O 710.342 -1.86044 -0.567278 0
M  V30 7632 C 710.625 -2.08867 2.93337 0
M  V30 7633 C 710.478 -1.35397 4.28938 0
M  V30 7634 C 711.797 -3.09124 3.13257 0
M  V30 7635 H 708.916 -0.406207 0.614951 0
M  V30 7636 H 711.558 -0.403054 1.85676 0
M  V30 7637 H 709.708 -2.70102 2.79244 0
M  V30 7638 H 711.38 -0.770242 4.54824 0
M  V30 7639 H 709.623 -0.655801 4.28814 0
M  V30 7640 H 710.294 -2.06161 5.12056 0
M  V30 7641 H 712.77 -2.57987 3.26469 0
M  V30 7642 H 711.646 -3.74054 4.01715 0
M  V30 7643 H 711.907 -3.78729 2.28072 0
M  V30 7644 N 710.966 -1.44241 -0.634997 0
M  V30 7645 C 712.196 -1.50078 -1.41987 0
M  V30 7646 C 712.604 -0.123072 -1.88799 0
M  V30 7647 O 711.947 0.880552 -1.6122 0
M  V30 7648 C 712.009 -2.40033 -2.67628 0
M  V30 7649 C 711.673 -3.87268 -2.42637 0
M  V30 7650 C 712.67 -4.77902 -2.04708 0
M  V30 7651 C 710.355 -4.31933 -2.56396 0
M  V30 7652 C 712.349 -6.11202 -1.80862 0
M  V30 7653 C 710.036 -5.65281 -2.32164 0
M  V30 7654 C 711.034 -6.54734 -1.94455 0
M  V30 7655 O 710.722 -7.85613 -1.7049 0
M  V30 7656 H 710.454 -0.51146 -0.442023 0
M  V30 7657 H 713.008 -1.89843 -0.784138 0
M  V30 7658 H 711.238 -1.95188 -3.33824 0
M  V30 7659 H 712.927 -2.36863 -3.29622 0
M  V30 7660 H 713.693 -4.44668 -1.93638 0
M  V30 7661 H 709.572 -3.62569 -2.84719 0
M  V30 7662 H 713.116 -6.80983 -1.51353 0
M  V30 7663 H 709.013 -5.98078 -2.42843 0
M  V30 7664 H 709.781 -7.97373 -1.84767 0
M  V30 7665 N 712.444 0.87505 -1.31075 0
M  V30 7666 C 713.377 1.98471 -1.12625 0
M  V30 7667 C 714.355 1.6257 -0.0311379 0
M  V30 7668 O 715.539 1.87574 -0.186594 0
M  V30 7669 C 712.666 3.30963 -0.719799 0
M  V30 7670 C 711.712 3.85849 -1.81722 0
M  V30 7671 S 712.545 4.11926 -3.42165 0
M  V30 7672 C 713.701 5.47423 -3.03445 0
M  V30 7673 H 713.934 2.13817 -2.06566 0
M  V30 7674 H 711.467 1.02463 -1.15502 0
M  V30 7675 H 713.425 4.07541 -0.492035 0
M  V30 7676 H 712.086 3.1346 0.200413 0
M  V30 7677 H 711.279 4.81616 -1.48533 0
M  V30 7678 H 710.881 3.16046 -1.99977 0
M  V30 7679 H 713.173 6.28881 -2.52023 0
M  V30 7680 H 714.116 5.85557 -3.98157 0
M  V30 7681 H 714.524 5.10455 -2.41031 0
M  V30 7682 N 713.922 1.13953 1.08869 0
M  V30 7683 C 715.168 0.906151 1.8143 0
M  V30 7684 C 715.501 -0.566089 1.85766 0
M  V30 7685 O 714.776 -1.41915 1.33006 0
M  V30 7686 C 715.059 1.50183 3.27287 0
M  V30 7687 C 714.912 3.04359 3.31189 0
M  V30 7688 C 716.231 1.17477 4.24131 0
M  V30 7689 H 713.35 0.330624 0.658678 0
M  V30 7690 H 715.992 1.40873 1.27495 0
M  V30 7691 H 714.142 1.07442 3.73348 0
M  V30 7692 H 715.814 3.55896 2.93488 0
M  V30 7693 H 714.057 3.39053 2.70602 0
M  V30 7694 H 714.728 3.41141 4.33966 0
M  V30 7695 H 717.204 1.5442 3.86385 0
M  V30 7696 H 716.08 1.61795 5.24513 0
M  V30 7697 H 716.341 0.0893312 4.4201 0
M  V30 7698 N 715.4 -1.26948 0.933913 0
M  V30 7699 C 716.35 -2.24306 0.408779 0
M  V30 7700 C 717.334 -1.53243 -0.490435 0
M  V30 7701 O 718.526 -1.73956 -0.326866 0
M  V30 7702 C 715.655 -3.41695 -0.331578 0
M  V30 7703 C 714.741 -4.20053 0.58451 0
M  V30 7704 N 715.132 -4.76122 1.70709 0
M  V30 7705 C 713.43 -4.44303 0.388703 0
M  V30 7706 C 714.131 -5.35267 2.27737 0
M  V30 7707 N 713.107 -5.20548 1.56622 0
M  V30 7708 H 716.909 -2.65244 1.26582 0
M  V30 7709 H 714.423 -1.4195 0.788919 0
M  V30 7710 H 716.42 -4.10552 -0.724774 0
M  V30 7711 H 715.08 -3.02286 -1.18547 0
M  V30 7712 H 716.091 -4.73884 2.08937 0
M  V30 7713 H 712.768 -4.15341 -0.424016 0
M  V30 7714 H 714.158 -5.89563 3.22282 0
M  V30 7715 N 716.879 -0.700114 -1.41195 0
M  V30 7716 C 718.295 -0.372114 -1.55201 0
M  V30 7717 C 718.495 1.12053 -1.6747 0
M  V30 7718 O 717.551 1.90642 -1.65566 0
M  V30 7719 C 718.864 -1.12462 -2.78878 0
M  V30 7720 C 720.412 -1.10941 -2.92679 0
M  V30 7721 C 720.887 -1.84376 -4.19249 0
M  V30 7722 N 722.378 -1.81368 -4.26216 0
M  V30 7723 C 723.113 -2.35024 -5.23021 0
M  V30 7724 N 722.609 -2.9717 -6.25829 0
M  V30 7725 N 724.402 -2.25254 -5.14992 0
M  V30 7726 H 716.553 -1.66816 -1.31477 0
M  V30 7727 H 718.816 -0.704223 -0.634644 0
M  V30 7728 H 718.522 -2.17937 -2.76037 0
M  V30 7729 H 718.396 -0.706152 -3.70531 0
M  V30 7730 H 720.783 -0.062911 -2.95033 0
M  V30 7731 H 720.864 -1.56698 -2.02187 0
M  V30 7732 H 720.508 -2.89008 -4.17656 0
M  V30 7733 H 720.438 -1.3605 -5.08722 0
M  V30 7734 H 722.929 -1.36062 -3.52556 0
M  V30 7735 H 723.242 -3.35668 -6.96094 0
M  V30 7736 H 721.587 -3.01249 -6.26318 0
M  V30 7737 H 724.778 -1.76372 -4.33602 0
M  V30 7738 H 724.951 -2.67373 -5.90268 0
M  V30 7739 N 718.357 1.51182 -0.445186 0
M  V30 7740 C 719.582 2.07056 0.119445 0
M  V30 7741 C 720.007 1.30966 1.35016 0
M  V30 7742 O 719.365 0.349827 1.77893 0
M  V30 7743 C 719.413 3.58234 0.412428 0
M  V30 7744 O 718.517 3.84249 1.49754 0
M  V30 7745 H 717.858 0.663998 -0.00157797 0
M  V30 7746 H 720.388 1.94699 -0.628779 0
M  V30 7747 H 720.398 4.02617 0.660583 0
M  V30 7748 H 719.073 4.13038 -0.487049 0
M  V30 7749 H 717.65 3.51724 1.23873 0
M  V30 7750 N 719.835 0.176821 1.56605 0
M  V30 7751 C 721.075 -0.469104 1.98944 0
M  V30 7752 C 721.439 -1.60048 1.06059 0
M  V30 7753 O 722.64 -2.30934 1.3756 0
M  V30 7754 C 720.911 -0.934571 3.44965 0
M  V30 7755 S 722.47 -1.58091 4.09332 0
M  V30 7756 H 719.288 -0.150695 0.694847 0
M  V30 7757 H 721.89 0.27558 1.93548 0
M  V30 7758 H 720.594 -0.100814 4.10276 0
M  V30 7759 H 720.125 -1.71316 3.54139 0
M  V30 7760 H 722.14 -2.86922 4.04834 0
M  V30 7761 N 721.313 -1.57302 -0.09688 0
M  V30 7762 C 722.561 -1.8563 -0.799117 0
M  V30 7763 C 722.882 -0.765263 -1.79356 0
M  V30 7764 O 722.152 0.208657 -1.94786 0
M  V30 7765 H 720.732 -0.684937 -0.298111 0
M  V30 7766 H 723.394 -1.9474 -0.0789341 0
M  V30 7767 H 722.49 -2.82305 -1.3308 0
M  V30 7768 N 722.791 0.367657 -1.53252 0
M  V30 7769 C 724.019 1.13119 -1.73239 0
M  V30 7770 C 724.434 1.831 -0.460404 0
M  V30 7771 O 723.791 1.73483 0.566557 0
M  V30 7772 C 723.842 2.16308 -2.89643 0
M  V30 7773 O 723.563 1.49175 -4.1192 0
M  V30 7774 C 725.064 3.05224 -3.21486 0
M  V30 7775 H 722.284 0.338318 -0.579467 0
M  V30 7776 H 724.828 0.42721 -1.99988 0
M  V30 7777 H 722.983 2.82307 -2.65295 0
M  V30 7778 H 723.397 2.17912 -4.7709 0
M  V30 7779 H 724.871 3.73613 -4.06346 0
M  V30 7780 H 725.348 3.69919 -2.36763 0
M  V30 7781 H 725.954 2.44843 -3.47753 0
M  V30 7782 N 724.269 1.44576 0.627338 0
M  V30 7783 C 725.494 1.51271 1.41887 0
M  V30 7784 C 725.919 0.139814 1.8758 0
M  V30 7785 O 725.277 -0.871746 1.58966 0
M  V30 7786 C 725.325 2.48529 2.61277 0
M  V30 7787 O 724.429 1.98944 3.61241 0
M  V30 7788 H 723.77 0.510668 0.424399 0
M  V30 7789 H 726.3 1.89746 0.765356 0
M  V30 7790 H 726.31 2.66689 3.08773 0
M  V30 7791 H 724.985 3.48249 2.27366 0
M  V30 7792 H 723.562 1.90568 3.20528 0
M  V30 7793 N 725.747 -0.868086 1.31537 0
M  V30 7794 C 726.987 -1.63526 1.22632 0
M  V30 7795 C 727.351 -1.90828 -0.211815 0
M  V30 7796 O 728.552 -2.65429 -0.424387 0
M  V30 7797 C 726.823 -2.92849 2.04876 0
M  V30 7798 S 728.382 -3.83717 2.12853 0
M  V30 7799 H 725.2 -0.56105 0.436743 0
M  V30 7800 H 727.802 -1.02908 1.66223 0
M  V30 7801 H 726.506 -2.70717 3.08449 0
M  V30 7802 H 726.037 -3.58491 1.62011 0
M  V30 7803 H 728.052 -4.79719 1.26822 0
M  V30 7804 N 727.225 -1.14528 -1.08264 0
M  V30 7805 C 728.472 -0.914405 -1.80679 0
M  V30 7806 C 728.8 0.558952 -1.86295 0
M  V30 7807 O 728.055 1.43017 -1.33584 0
M  V30 7808 C 728.354 -1.46226 -3.26117 0
M  V30 7809 C 728.02 -2.95451 -3.40616 0
M  V30 7810 C 726.682 -3.36191 -3.4428 0
M  V30 7811 C 729.034 -3.91399 -3.44175 0
M  V30 7812 C 726.362 -4.71539 -3.49096 0
M  V30 7813 C 728.714 -5.26606 -3.50526 0
M  V30 7814 C 727.378 -5.66856 -3.52464 0
M  V30 7815 H 726.648 -0.334604 -0.661151 0
M  V30 7816 H 729.295 -1.4292 -1.27461 0
M  V30 7817 H 727.6 -0.868442 -3.82054 0
M  V30 7818 H 729.297 -1.25955 -3.80705 0
M  V30 7819 H 725.887 -2.62955 -3.38456 0
M  V30 7820 H 730.071 -3.61004 -3.40573 0
M  V30 7821 H 725.327 -5.02082 -3.4889 0
M  V30 7822 H 729.501 -6.00758 -3.52225 0
M  V30 7823 H 727.128 -6.71718 -3.55948 0
M  V30 7824 N 728.703 1.26451 -0.940633 0
M  V30 7825 C 729.613 2.30128 -0.455881 0
M  V30 7826 C 730.629 1.67536 0.469867 0
M  V30 7827 O 731.805 1.98344 0.349529 0
M  V30 7828 C 728.87 3.45634 0.271648 0
M  V30 7829 C 727.931 4.23709 -0.690594 0
M  V30 7830 C 727.164 5.337 0.00231047 0
M  V30 7831 O 727.387 5.57215 1.21935 0
M  V30 7832 O 726.321 5.98091 -0.676111 0
M  V30 7833 H 730.147 2.73655 -1.31707 0
M  V30 7834 H 727.732 1.3164 -0.706497 0
M  V30 7835 H 729.614 4.15853 0.681486 0
M  V30 7836 H 728.289 3.04138 1.10824 0
M  V30 7837 H 727.196 3.55974 -1.15037 0
M  V30 7838 H 728.529 4.68953 -1.49478 0
M  V30 7839 N 730.181 0.707592 1.40822 0
M  V30 7840 C 731.111 0.0644925 2.33411 0
M  V30 7841 C 732.092 -0.754205 1.52466 0
M  V30 7842 O 733.277 -0.704749 1.80961 0
M  V30 7843 C 730.407 -0.863865 3.36385 0
M  V30 7844 C 729.361 -0.15138 4.27732 0
M  V30 7845 C 728.687 -1.19491 5.21177 0
M  V30 7846 C 729.987 0.989607 5.12839 0
M  V30 7847 H 731.681 0.837829 2.87438 0
M  V30 7848 H 729.227 0.404346 1.38207 0
M  V30 7849 H 731.18 -1.32309 4.0009 0
M  V30 7850 H 729.904 -1.66901 2.80734 0
M  V30 7851 H 728.563 0.287937 3.65467 0
M  V30 7852 H 728.211 -1.9929 4.61836 0
M  V30 7853 H 727.911 -0.723123 5.83134 0
M  V30 7854 H 729.435 -1.6544 5.8776 0
M  V30 7855 H 730.849 0.610114 5.70044 0
M  V30 7856 H 729.246 1.38926 5.83798 0
M  V30 7857 H 730.316 1.82389 4.49291 0
M  V30 7858 N 731.66 -1.50943 0.453197 0
M  V30 7859 C 732.57 -2.31884 -0.355963 0
M  V30 7860 C 733.586 -1.41481 -1.01287 0
M  V30 7861 O 734.762 -1.74546 -1.00477 0
M  V30 7862 C 731.827 -3.15668 -1.43369 0
M  V30 7863 C 730.888 -4.2187 -0.795253 0
M  V30 7864 C 730.121 -5.0165 -1.82162 0
M  V30 7865 O 730.344 -4.82266 -3.04592 0
M  V30 7866 O 729.278 -5.85311 -1.40336 0
M  V30 7867 H 733.104 -3.02162 0.305248 0
M  V30 7868 H 730.689 -1.47839 0.215398 0
M  V30 7869 H 732.571 -3.67709 -2.05836 0
M  V30 7870 H 731.246 -2.48137 -2.07869 0
M  V30 7871 H 730.153 -3.73867 -0.132106 0
M  V30 7872 H 731.486 -4.9182 -0.193484 0
M  V30 7873 N 733.138 -0.185124 -1.56509 0
M  V30 7874 C 734.085 0.739729 -2.18624 0
M  V30 7875 C 735.055 1.217 -1.13042 0
M  V30 7876 O 736.24 1.28268 -1.41251 0
M  V30 7877 C 733.38 1.95787 -2.84186 0
M  V30 7878 C 732.493 1.52289 -4.04267 0
M  V30 7879 C 731.628 2.69576 -4.57714 0
M  V30 7880 C 730.667 2.22636 -5.70175 0
M  V30 7881 N 729.804 3.33065 -6.18071 0
M  V30 7882 H 734.644 0.203269 -2.97306 0
M  V30 7883 H 732.181 0.0885946 -1.46833 0
M  V30 7884 H 734.139 2.67253 -3.20361 0
M  V30 7885 H 732.769 2.4678 -2.08085 0
M  V30 7886 H 731.821 0.704458 -3.7382 0
M  V30 7887 H 733.133 1.13843 -4.85635 0
M  V30 7888 H 732.287 3.4918 -4.96143 0
M  V30 7889 H 731.026 3.1129 -3.75433 0
M  V30 7890 H 730.031 1.41483 -5.31284 0
M  V30 7891 H 731.256 1.81964 -6.54267 0
M  V30 7892 H 729.202 3.74328 -5.38715 0
M  V30 7893 H 729.119 2.98756 -6.94464 0
M  V30 7894 H 730.387 4.12912 -6.61153 0
M  V30 7895 N 734.616 1.57351 0.0885366 0
M  V30 7896 C 735.546 2.05561 1.10757 0
M  V30 7897 C 736.527 0.945789 1.41382 0
M  V30 7898 O 737.712 1.21747 1.51299 0
M  V30 7899 C 734.842 2.48554 2.42566 0
M  V30 7900 C 733.796 3.63259 2.26334 0
M  V30 7901 C 733.122 3.9225 3.63378 0
M  V30 7902 C 734.422 4.93913 1.69844 0
M  V30 7903 H 736.116 2.90946 0.706468 0
M  V30 7904 H 733.662 1.39968 0.338385 0
M  V30 7905 H 735.615 2.8089 3.14132 0
M  V30 7906 H 734.339 1.60176 2.84625 0
M  V30 7907 H 732.998 3.31179 1.57213 0
M  V30 7908 H 732.646 3.0103 4.02976 0
M  V30 7909 H 732.346 4.69478 3.53362 0
M  V30 7910 H 733.87 4.27067 4.36401 0
M  V30 7911 H 735.284 5.24588 2.31258 0
M  V30 7912 H 733.681 5.75349 1.70569 0
M  V30 7913 H 734.751 4.80409 0.65843 0
M  V30 7914 N 736.094 -0.359525 1.53444 0
M  V30 7915 C 737.334 -1.11014 1.71625 0
M  V30 7916 C 737.698 -1.86376 0.46132 0
M  V30 7917 O 738.899 -2.63724 0.519908 0
M  V30 7918 C 737.17 -2.03907 2.93524 0
M  V30 7919 S 738.729 -2.86408 3.3244 0
M  V30 7920 H 735.547 -0.375352 0.603847 0
M  V30 7921 H 738.149 -0.390604 1.91558 0
M  V30 7922 H 736.853 -1.47316 3.83048 0
M  V30 7923 H 736.384 -2.80324 2.76011 0
M  V30 7924 H 738.399 -4.06241 2.84926 0
M  V30 7925 N 737.572 -1.44907 -0.619662 0
M  V30 7926 C 738.988 -1.29046 -0.939107 0
M  V30 7927 C 739.188 -0.23462 -2.00129 0
M  V30 7928 O 738.244 0.37558 -2.49691 0
M  V30 7929 C 739.557 -2.66567 -1.39149 0
M  V30 7930 C 741.105 -2.74368 -1.50635 0
M  V30 7931 C 741.58 -4.12386 -1.99253 0
M  V30 7932 N 743.071 -4.1462 -2.06506 0
M  V30 7933 C 743.806 -5.18272 -2.4532 0
M  V30 7934 N 743.302 -6.32278 -2.83189 0
M  V30 7935 N 745.095 -5.05628 -2.45554 0
M  V30 7936 H 737.246 -2.12239 0.0826135 0
M  V30 7937 H 739.509 -0.947652 -0.0256829 0
M  V30 7938 H 739.215 -3.4496 -0.685254 0
M  V30 7939 H 739.089 -2.94224 -2.36034 0
M  V30 7940 H 741.476 -1.96287 -2.20353 0
M  V30 7941 H 741.557 -2.50439 -0.520963 0
M  V30 7942 H 741.201 -4.90947 -1.30127 0
M  V30 7943 H 741.131 -4.33699 -2.98684 0
M  V30 7944 H 743.622 -3.32343 -1.79878 0
M  V30 7945 H 743.935 -7.07172 -3.11652 0
M  V30 7946 H 742.28 -6.35699 -2.80913 0
M  V30 7947 H 745.471 -4.15613 -2.15367 0
M  V30 7948 H 745.644 -5.86529 -2.75478 0
M  V30 7949 N 739.05 0.861098 -1.31996 0
M  V30 7950 C 740.297 1.61481 -1.22188 0
M  V30 7951 C 740.625 1.93276 0.217853 0
M  V30 7952 O 739.88 1.56942 1.16909 0
M  V30 7953 C 740.179 2.94822 -2.02027 0
M  V30 7954 C 739.845 2.82483 -3.51446 0
M  V30 7955 C 738.507 2.78825 -3.92186 0
M  V30 7956 C 740.859 2.68878 -4.46491 0
M  V30 7957 C 738.187 2.59433 -5.26224 0
M  V30 7958 C 740.539 2.51022 -5.80664 0
M  V30 7959 C 739.203 2.45753 -6.20614 0
M  V30 7960 H 738.473 0.590902 -0.447119 0
M  V30 7961 H 741.12 0.999376 -1.63355 0
M  V30 7962 H 739.425 3.6045 -1.53569 0
M  V30 7963 H 741.122 3.52149 -1.91812 0
M  V30 7964 H 737.712 2.86152 -3.19085 0
M  V30 7965 H 741.896 2.70754 -4.1594 0
M  V30 7966 H 737.152 2.53784 -5.5624 0
M  V30 7967 H 741.326 2.39473 -6.53931 0
M  V30 7968 H 738.953 2.30485 -7.24417 0
M  V30 7969 N 740.528 1.15101 1.07655 0
M  V30 7970 C 741.777 0.918528 1.79572 0
M  V30 7971 C 742.09 -0.555922 1.87534 0
M  V30 7972 O 743.296 -0.905893 2.55941 0
M  V30 7973 C 741.752 1.59394 3.22679 0
M  V30 7974 C 741.36 3.1052 3.22927 0
M  V30 7975 C 743.104 1.44289 3.99225 0
M  V30 7976 C 741.011 3.70862 4.60668 0
M  V30 7977 H 739.941 0.340006 0.672987 0
M  V30 7978 H 742.592 1.38079 1.20857 0
M  V30 7979 H 740.974 1.05936 3.81567 0
M  V30 7980 H 742.148 3.70708 2.737 0
M  V30 7981 H 740.463 3.25351 2.59876 0
M  V30 7982 H 743.06 1.86766 5.01022 0
M  V30 7983 H 743.403 0.389975 4.14469 0
M  V30 7984 H 743.936 1.94826 3.46825 0
M  V30 7985 H 740.675 4.7604 4.50628 0
M  V30 7986 H 740.195 3.15456 5.10145 0
M  V30 7987 H 741.874 3.71607 5.29639 0
M  V30 7988 N 742.006 -1.2595 0.947325 0
M  V30 7989 C 742.939 -2.24559 0.406009 0
M  V30 7990 C 743.917 -1.54441 -0.508598 0
M  V30 7991 O 745.101 -1.83181 -0.444644 0
M  V30 7992 C 742.228 -3.36136 -0.415987 0
M  V30 7993 C 741.274 -4.24245 0.437969 0
M  V30 7994 S 742.107 -5.01948 1.86572 0
M  V30 7995 C 743.263 -6.16997 1.05194 0
M  V30 7996 H 743.496 -2.70128 1.24171 0
M  V30 7997 H 741.029 -1.34912 0.750874 0
M  V30 7998 H 742.987 -4.00861 -0.88433 0
M  V30 7999 H 741.648 -2.89167 -1.22643 0
M  V30 8000 H 740.841 -5.03634 -0.192127 0
M  V30 8001 H 740.443 -3.64416 0.841235 0
M  V30 8002 H 742.735 -6.76848 0.297126 0
M  V30 8003 H 743.678 -6.84324 1.8195 0
M  V30 8004 H 744.086 -5.61458 0.585294 0
M  V30 8005 N 743.484 -0.715051 -1.40445 0
M  V30 8006 C 744.709 -0.26254 -2.05732 0
M  V30 8007 C 745.134 1.08691 -1.53519 0
M  V30 8008 O 744.492 1.68453 -0.670328 0
M  V30 8009 C 744.54 -0.25195 -3.59719 0
M  V30 8010 O 743.644 0.766998 -4.05205 0
M  V30 8011 H 742.985 -0.123398 -0.652433 0
M  V30 8012 H 745.515 -0.975382 -1.79854 0
M  V30 8013 H 745.525 -0.0894537 -4.07902 0
M  V30 8014 H 744.2 -1.23672 -3.97087 0
M  V30 8015 H 742.777 0.572269 -3.68483 0
M  V30 8016 N 744.962 1.50701 -0.461195 0
M  V30 8017 C 746.208 2.02566 0.0973411 0
M  V30 8018 C 746.541 1.3432 1.40257 0
M  V30 8019 O 745.816 0.465692 1.88843 0
M  V30 8020 C 746.099 3.58919 0.291423 0
M  V30 8021 C 745.952 4.37751 -1.03413 0
M  V30 8022 C 747.271 4.27379 1.05048 0
M  V30 8023 H 744.39 0.73622 0.0339026 0
M  V30 8024 H 747.032 1.80115 -0.604855 0
M  V30 8025 H 745.182 3.78179 0.889539 0
M  V30 8026 H 746.854 4.30085 -1.66806 0
M  V30 8027 H 745.097 4.01885 -1.63313 0
M  V30 8028 H 745.768 5.45384 -0.852085 0
M  V30 8029 H 748.244 4.12534 0.543603 0
M  V30 8030 H 747.12 5.36609 1.15506 0
M  V30 8031 H 747.381 3.89868 2.0846 0
M  V30 8032 N 746.441 0.193421 1.56409 0
M  V30 8033 C 747.388 -0.728124 2.19014 0
M  V30 8034 C 748.358 -1.21098 1.13686 0
M  V30 8035 O 749.543 -1.27517 1.4193 0
M  V30 8036 C 746.683 -1.94277 2.8522 0
M  V30 8037 C 745.796 -1.50143 4.05069 0
M  V30 8038 C 744.931 -2.67145 4.59137 0
M  V30 8039 C 743.97 -2.19609 5.71348 0
M  V30 8040 N 743.107 -3.29782 6.19829 0
M  V30 8041 H 747.947 -0.187499 2.9741 0
M  V30 8042 H 745.484 -0.0808064 1.46878 0
M  V30 8043 H 747.442 -2.65551 3.21774 0
M  V30 8044 H 746.072 -2.45673 2.09391 0
M  V30 8045 H 745.124 -0.684624 3.74189 0
M  V30 8046 H 746.436 -1.11266 4.86232 0
M  V30 8047 H 745.59 -3.46544 4.97988 0
M  V30 8048 H 744.329 -3.09295 3.77078 0
M  V30 8049 H 743.334 -1.38664 5.32027 0
M  V30 8050 H 744.559 -1.78492 6.55223 0
M  V30 8051 H 742.505 -3.71466 5.40693 0
M  V30 8052 H 742.422 -2.95069 6.96039 0
M  V30 8053 H 743.69 -4.094 6.63334 0
M  V30 8054 N 747.919 -1.57396 -0.0801906 0
M  V30 8055 C 748.866 -2.03107 -1.09618 0
M  V30 8056 C 749.836 -0.910118 -1.38946 0
M  V30 8057 O 751.021 -1.17719 -1.50156 0
M  V30 8058 C 748.161 -2.47293 -2.40708 0
M  V30 8059 C 747.274 -3.72972 -2.17982 0
M  V30 8060 C 746.409 -4.05975 -3.42576 0
M  V30 8061 C 745.448 -5.24719 -3.15177 0
M  V30 8062 N 744.585 -5.53401 -4.32078 0
M  V30 8063 H 749.425 -2.89677 -0.69939 0
M  V30 8064 H 746.962 -1.43263 -0.333785 0
M  V30 8065 H 748.92 -2.7096 -3.17232 0
M  V30 8066 H 747.55 -1.63713 -2.78205 0
M  V30 8067 H 746.602 -3.56693 -1.32189 0
M  V30 8068 H 747.914 -4.59638 -1.93738 0
M  V30 8069 H 747.068 -4.30498 -4.275 0
M  V30 8070 H 745.807 -3.17859 -3.69887 0
M  V30 8071 H 744.812 -5 -2.28648 0
M  V30 8072 H 746.037 -6.14445 -2.89197 0
M  V30 8073 H 743.983 -4.68245 -4.59437 0
M  V30 8074 H 743.9 -6.34469 -4.11078 0
M  V30 8075 H 745.168 -5.8247 -5.18024 0
M  V30 8076 N 749.397 0.351382 -1.53633 0
M  V30 8077 C 750.345 1.45142 -1.8176 0
M  V30 8078 C 751.339 1.54819 -0.687571 0
M  V30 8079 O 752.545 1.57536 -0.870772 0
M  V30 8080 H 748.92 0.483789 -0.575719 0
M  V30 8081 H 750.891 1.1863 -2.73806 0
M  V30 8082 C 749.64 2.81779 -2.03706 0
M  V30 8083 H 748.963 2.75097 -2.90107 0
M  V30 8084 H 750.403 3.5789 -2.27356 0
M  V30 8085 C 748.862 3.26762 -0.820271 0
M  V30 8086 O 749.392 4.01697 -0.0158603 0
M  V30 8087 N 747.598 2.83472 -0.639699 0
M  V30 8088 H 747.145 2.22655 -1.29547 0
M  V30 8089 H 747.103 3.13924 0.172995 0
M  V30 8090 N 750.875 1.45233 0.611969 0
M  V30 8091 C 752.105 1.52318 1.39581 0
M  V30 8092 C 752.513 0.153093 1.8858 0
M  V30 8093 O 751.856 -0.854792 1.62601 0
M  V30 8094 C 751.918 2.4426 2.63775 0
M  V30 8095 C 751.582 3.91079 2.36445 0
M  V30 8096 C 752.579 4.81099 1.97079 0
M  V30 8097 C 750.264 4.35958 2.49492 0
M  V30 8098 C 752.258 6.14002 1.71115 0
M  V30 8099 C 749.945 5.68903 2.23142 0
M  V30 8100 C 750.943 6.57744 1.84015 0
M  V30 8101 O 750.631 7.88226 1.5797 0
M  V30 8102 H 750.363 0.518428 0.43383 0
M  V30 8103 H 752.917 1.91067 0.753837 0
M  V30 8104 H 751.147 2.00474 3.30677 0
M  V30 8105 H 752.836 2.42077 3.25812 0
M  V30 8106 H 753.602 4.47692 1.86539 0
M  V30 8107 H 749.481 3.67053 2.78914 0
M  V30 8108 H 753.025 6.83305 1.405 0
M  V30 8109 H 748.922 6.01866 2.33297 0
M  V30 8110 H 749.69 8.00211 1.72058 0
M  V30 8111 N 752.353 -0.854086 1.3245 0
M  V30 8112 C 753.769 -1.14238 1.11453 0
M  V30 8113 C 753.969 -2.01228 -0.10461 0
M  V30 8114 O 753.025 -2.39845 -0.789339 0
M  V30 8115 C 754.338 -1.81916 2.39431 0
M  V30 8116 C 755.886 -1.94549 2.45193 0
M  V30 8117 C 756.361 -2.65642 3.73093 0
M  V30 8118 N 757.852 -2.73167 3.74078 0
M  V30 8119 C 758.587 -3.28828 4.69744 0
M  V30 8120 N 758.083 -3.85295 5.75778 0
M  V30 8121 N 759.876 -3.26936 4.57241 0
M  V30 8122 H 752.027 -0.274786 2.10615 0
M  V30 8123 H 754.29 -0.184375 0.929898 0
M  V30 8124 H 753.996 -1.25452 3.28565 0
M  V30 8125 H 753.87 -2.82068 2.50434 0
M  V30 8126 H 756.257 -2.50172 1.56518 0
M  V30 8127 H 756.338 -0.933914 2.38142 0
M  V30 8128 H 755.982 -2.10683 4.62142 0
M  V30 8129 H 755.912 -3.6724 3.77415 0
M  V30 8130 H 758.403 -2.33108 2.97438 0
M  V30 8131 H 758.716 -4.25925 6.44832 0
M  V30 8132 H 757.061 -3.83625 5.79531 0
M  V30 8133 H 760.252 -2.8207 3.7357 0
M  V30 8134 H 760.425 -3.70014 5.31971 0
M  V30 8135 N 753.831 -1.1567 -1.07043 0
M  V30 8136 C 755.247 -0.900006 -1.31803 0
M  V30 8137 C 755.447 0.451293 -1.96381 0
M  V30 8138 O 754.503 1.19252 -2.22565 0
M  V30 8139 C 755.816 -2.04334 -2.20609 0
M  V30 8140 C 757.364 -2.07823 -2.34048 0
M  V30 8141 C 757.839 -3.21488 -3.26204 0
M  V30 8142 N 759.33 -3.21156 -3.33786 0
M  V30 8143 C 760.065 -4.05746 -4.05163 0
M  V30 8144 N 759.561 -5.00407 -4.79129 0
M  V30 8145 N 761.354 -3.93759 -4.01136 0
M  V30 8146 H 753.505 -2.02681 -0.635146 0
M  V30 8147 H 755.768 -0.883956 -0.342528 0
M  V30 8148 H 755.474 -3.01895 -1.80423 0
M  V30 8149 H 755.348 -1.97838 -3.21154 0
M  V30 8150 H 757.735 -1.1086 -2.73485 0
M  V30 8151 H 757.816 -2.18386 -1.33197 0
M  V30 8152 H 757.46 -4.18706 -2.87485 0
M  V30 8153 H 757.39 -3.08162 -4.27017 0
M  V30 8154 H 759.881 -2.52606 -2.81067 0
M  V30 8155 H 760.194 -5.61387 -5.31097 0
M  V30 8156 H 758.539 -5.04393 -4.78135 0
M  V30 8157 H 761.73 -3.19115 -3.42466 0
M  V30 8158 H 761.903 -4.59906 -4.56498 0
M  V30 8159 N 755.309 1.25446 -0.953992 0
M  V30 8160 C 756.555 1.9343 -0.60933 0
M  V30 8161 C 756.888 1.74542 0.851388 0
M  V30 8162 O 756.163 1.09014 1.61078 0
M  V30 8163 C 756.446 3.46844 -0.968041 0
M  V30 8164 C 756.299 3.74961 -2.48444 0
M  V30 8165 C 757.618 4.37334 -0.492641 0
M  V30 8166 H 754.737 0.702502 -0.222844 0
M  V30 8167 H 757.379 1.48076 -1.19053 0
M  V30 8168 H 755.529 3.85604 -0.473465 0
M  V30 8169 H 757.201 3.45841 -3.05273 0
M  V30 8170 H 755.444 3.20589 -2.92241 0
M  V30 8171 H 756.115 4.82246 -2.68594 0
M  V30 8172 H 758.591 4.05873 -0.916878 0
M  V30 8173 H 757.467 5.43439 -0.772331 0
M  V30 8174 H 757.728 4.37908 0.607403 0
M  V30 8175 N 756.787 0.722489 1.40064 0
M  V30 8176 C 758.198 0.336507 1.83642 0
M  V30 8177 C 758.549 -1.13002 1.6039 0
M  V30 8178 O 757.674 -1.87036 1.08842 0
M  V30 8179 C 758.269 0.603985 3.33373 0
M  V30 8180 C 756.828 0.271637 3.75419 0
M  V30 8181 C 755.975 0.872898 2.63203 0
M  V30 8182 H 758.926 0.921108 1.29233 0
M  V30 8183 H 758.947 -0.128471 3.80283 0
M  V30 8184 H 758.459 1.67141 3.50265 0
M  V30 8185 H 756.56 -0.790455 3.64119 0
M  V30 8186 H 756.673 0.745457 4.73265 0
M  V30 8187 H 755.037 0.300431 2.52922 0
M  V30 8188 H 755.82 1.94473 2.82905 0
M  V30 8189 N 758.265 -1.50454 0.469181 0
M  V30 8190 C 759.495 -2.06429 -0.0840913 0
M  V30 8191 C 759.903 -1.3334 -1.34227 0
M  V30 8192 O 759.246 -0.395656 -1.79389 0
M  V30 8193 C 759.308 -3.56797 -0.440049 0
M  V30 8194 C 758.972 -4.51359 0.715838 0
M  V30 8195 C 759.969 -4.94754 1.59732 0
M  V30 8196 C 757.654 -4.94069 0.905621 0
M  V30 8197 C 759.648 -5.79564 2.653 0
M  V30 8198 C 757.335 -5.78662 1.96453 0
M  V30 8199 C 758.333 -6.21311 2.83658 0
M  V30 8200 O 758.021 -7.04218 3.87727 0
M  V30 8201 H 757.753 -0.675994 0.00289751 0
M  V30 8202 H 760.307 -1.94629 0.656417 0
M  V30 8203 H 758.537 -3.66492 -1.23372 0
M  V30 8204 H 760.226 -3.95145 -0.928181 0
M  V30 8205 H 760.992 -4.62428 1.46237 0
M  V30 8206 H 756.871 -4.60394 0.236326 0
M  V30 8207 H 760.415 -6.12774 3.33398 0
M  V30 8208 H 756.312 -6.10401 2.09955 0
M  V30 8209 H 757.08 -7.22464 3.84692 0
M  V30 8210 N 759.743 -0.201713 -1.56304 0
M  V30 8211 C 760.693 0.729444 -2.16016 0
M  V30 8212 C 761.677 1.17164 -1.10279 0
M  V30 8213 O 762.869 1.12893 -1.36324 0
M  V30 8214 C 759.998 1.94594 -2.82822 0
M  V30 8215 C 759.084 1.52434 -3.95758 0
M  V30 8216 N 759.475 0.814106 -4.99205 0
M  V30 8217 C 757.773 1.81314 -4.07481 0
M  V30 8218 C 758.474 0.601896 -5.78578 0
M  V30 8219 N 757.45 1.15263 -5.3124 0
M  V30 8220 H 761.252 0.178163 -2.93359 0
M  V30 8221 H 758.766 -0.00218038 -1.624 0
M  V30 8222 H 760.763 2.62357 -3.23998 0
M  V30 8223 H 759.423 2.50188 -2.06969 0
M  V30 8224 H 760.434 0.468872 -5.15773 0
M  V30 8225 H 757.111 2.3837 -3.42762 0
M  V30 8226 H 758.501 0.0380119 -6.71889 0
M  V30 8227 N 761.222 1.57436 0.0718424 0
M  V30 8228 C 762.17 2.04725 1.10411 0
M  V30 8229 C 763.164 0.952579 1.4008 0
M  V30 8230 O 764.37 1.13769 1.39487 0
M  V30 8231 H 760.745 0.652749 0.373393 0
M  V30 8232 H 762.716 2.90569 0.679126 0
M  V30 8233 C 761.465 2.5068 2.40946 0
M  V30 8234 H 760.788 3.34505 2.18967 0
M  V30 8235 H 762.228 2.87521 3.11621 0
M  V30 8236 C 760.687 1.38971 3.06902 0
M  V30 8237 O 761.217 0.731786 3.94978 0
M  V30 8238 N 759.423 1.13485 2.67525 0
M  V30 8239 H 758.97 1.67168 1.95991 0
M  V30 8240 H 758.928 0.389467 3.11978 0
M  V30 8241 N 762.7 -0.34323 1.53817 0
M  V30 8242 C 763.946 -1.08137 1.72273 0
M  V30 8243 C 764.301 -1.86311 0.480201 0
M  V30 8244 O 763.594 -1.84204 -0.527192 0
M  V30 8245 C 763.788 -2.05195 2.92626 0
M  V30 8246 C 763.617 -1.36561 4.28464 0
M  V30 8247 C 762.387 -1.11033 4.9295 0
M  V30 8248 C 764.585 -0.791663 5.0817 0
M  V30 8249 N 762.567 -0.389839 6.12661 0
M  V30 8250 C 763.938 -0.201742 6.19672 0
M  V30 8251 C 765.993 -0.692541 4.9306 0
M  V30 8252 C 764.696 0.477661 7.17712 0
M  V30 8253 C 766.722 -0.0268775 5.91394 0
M  V30 8254 C 766.084 0.552072 7.02233 0
M  V30 8255 H 762.183 -0.380078 0.683421 0
M  V30 8256 H 764.767 -0.364925 1.9125 0
M  V30 8257 H 762.938 -2.74131 2.75149 0
M  V30 8258 H 764.67 -2.7185 2.99799 0
M  V30 8259 H 761.425 -1.39752 4.52511 0
M  V30 8260 H 761.849 -0.0443076 6.76986 0
M  V30 8261 H 766.491 -1.12589 4.07534 0
M  V30 8262 H 764.209 0.922895 8.02813 0
M  V30 8263 H 767.795 0.0491921 5.81779 0
M  V30 8264 H 766.675 1.05899 7.77017 0
M  V30 8265 N 764.178 -1.45556 -0.604258 0
M  V30 8266 C 765.125 -1.54482 -1.71476 0
M  V30 8267 C 766.095 -0.390479 -1.61445 0
M  V30 8268 O 767.28 -0.604371 -1.80975 0
M  V30 8269 C 764.42 -1.52064 -3.09791 0
M  V30 8270 C 763.533 -2.78073 -3.30604 0
M  V30 8271 C 762.668 -2.67304 -4.59044 0
M  V30 8272 C 761.707 -3.88352 -4.73127 0
M  V30 8273 N 760.844 -3.76098 -5.9287 0
M  V30 8274 H 765.684 -2.49349 -1.63184 0
M  V30 8275 H 763.221 -1.23725 -0.795641 0
M  V30 8276 H 765.179 -1.48649 -3.89819 0
M  V30 8277 H 763.809 -0.607442 -3.17033 0
M  V30 8278 H 762.861 -2.91561 -2.44329 0
M  V30 8279 H 764.173 -3.67847 -3.36883 0
M  V30 8280 H 763.327 -2.61875 -5.47272 0
M  V30 8281 H 762.066 -1.75135 -4.55169 0
M  V30 8282 H 761.071 -3.94137 -3.83322 0
M  V30 8283 H 762.296 -4.81591 -4.78797 0
M  V30 8284 H 760.242 -2.867 -5.90033 0
M  V30 8285 H 760.159 -4.59509 -6.00323 0
M  V30 8286 H 761.427 -3.74607 -6.83586 0
M  V30 8287 N 765.656 0.84705 -1.32902 0
M  V30 8288 C 766.606 1.94451 -1.19049 0
M  V30 8289 C 767.59 1.60617 -0.095461 0
M  V30 8290 O 768.782 1.74033 -0.322739 0
M  V30 8291 C 765.911 3.30645 -0.923509 0
M  V30 8292 C 764.997 3.70675 -2.0606 0
M  V30 8293 N 765.388 3.82468 -3.30986 0
M  V30 8294 C 763.686 4.00357 -1.96547 0
M  V30 8295 C 764.387 4.17056 -4.05511 0
M  V30 8296 N 763.363 4.28985 -3.33876 0
M  V30 8297 H 767.165 2.01713 -2.1375 0
M  V30 8298 H 764.679 1.03928 -1.24791 0
M  V30 8299 H 766.676 4.0905 -0.805212 0
M  V30 8300 H 765.336 3.24697 0.0150523 0
M  V30 8301 H 766.347 3.66589 -3.65832 0
M  V30 8302 H 763.024 4.02666 -1.10299 0
M  V30 8303 H 764.414 4.33585 -5.13277 0
M  V30 8304 N 767.134 1.16236 1.06428 0
M  V30 8305 C 768.097 0.870163 2.1204 0
M  V30 8306 C 769.097 -0.134239 1.60239 0
M  V30 8307 O 770.287 0.0964932 1.73933 0
M  V30 8308 C 767.419 0.301033 3.39568 0
M  V30 8309 H 768.612 1.8064 2.39394 0
M  V30 8310 H 766.165 0.971116 1.2247 0
M  V30 8311 H 766.9 -0.642948 3.17863 0
M  V30 8312 H 766.685 1.02475 3.78472 0
M  V30 8313 H 768.175 0.114494 4.17443 0
M  V30 8314 N 768.612 -1.24939 0.960631 0
M  V30 8315 C 769.858 -1.93104 0.61958 0
M  V30 8316 C 770.191 -1.74991 -0.84212 0
M  V30 8317 O 769.466 -1.09867 -1.60498 0
M  V30 8318 C 769.749 -3.46326 0.986422 0
M  V30 8319 C 769.602 -3.73638 2.50429 0
M  V30 8320 C 770.921 -4.37067 0.515827 0
M  V30 8321 H 768.04 -0.701311 0.226566 0
M  V30 8322 H 770.682 -1.47442 1.19836 0
M  V30 8323 H 768.832 -3.85348 0.493907 0
M  V30 8324 H 770.504 -3.44217 3.07103 0
M  V30 8325 H 768.747 -3.19035 2.93937 0
M  V30 8326 H 769.418 -4.80815 2.71147 0
M  V30 8327 H 771.894 -4.05381 0.938389 0
M  V30 8328 H 770.77 -5.43022 0.80114 0
M  V30 8329 H 771.031 -4.38224 -0.584171 0
M  V30 8330 N 770.09 -0.729906 -1.39679 0
M  V30 8331 C 771.318 -0.285709 -2.04918 0
M  V30 8332 C 771.733 1.07765 -1.55023 0
M  V30 8333 O 771.09 1.67999 -0.712923 0
M  V30 8334 C 771.141 -0.272793 -3.60469 0
M  V30 8335 O 770.862 -1.58233 -4.08527 0
M  V30 8336 C 772.363 0.188199 -4.429 0
M  V30 8337 H 769.583 -0.125758 -0.65911 0
M  V30 8338 H 772.127 -0.992129 -1.78821 0
M  V30 8339 H 770.282 0.384699 -3.85485 0
M  V30 8340 H 770.696 -1.49245 -5.02818 0
M  V30 8341 H 772.17 0.14608 -5.51807 0
M  V30 8342 H 772.647 1.2326 -4.21549 0
M  V30 8343 H 773.253 -0.439541 -4.23023 0
M  V30 8344 N 771.568 1.50203 -0.477153 0
M  V30 8345 C 772.814 2.02658 0.0758507 0
M  V30 8346 C 773.147 1.358 1.38824 0
M  V30 8347 O 772.422 0.485696 1.88338 0
M  V30 8348 C 772.705 3.59208 0.253339 0
M  V30 8349 C 772.558 4.36629 -1.0805 0
M  V30 8350 C 773.877 4.28469 1.00509 0
M  V30 8351 H 770.996 0.736538 0.0260921 0
M  V30 8352 H 773.638 1.79464 -0.623925 0
M  V30 8353 H 771.788 3.79101 0.849378 0
M  V30 8354 H 773.46 4.28292 -1.71358 0
M  V30 8355 H 771.703 4.0013 -1.67566 0
M  V30 8356 H 772.374 5.44449 -0.909883 0
M  V30 8357 H 774.85 4.13087 0.499818 0
M  V30 8358 H 773.726 5.37804 1.09808 0
M  V30 8359 H 773.987 3.92057 2.04314 0
M  V30 8360 N 773.046 0.209999 1.56195 0
M  V30 8361 C 774.009 -0.691232 2.18528 0
M  V30 8362 C 775.009 -1.13013 1.14388 0
M  V30 8363 O 776.199 -1.04081 1.39688 0
M  V30 8364 C 773.331 -1.94551 2.79934 0
M  V30 8365 H 774.524 -0.147953 2.99535 0
M  V30 8366 H 772.077 -0.0396243 1.5625 0
M  V30 8367 H 772.812 -2.53094 2.02766 0
M  V30 8368 H 772.597 -1.63938 3.56184 0
M  V30 8369 H 774.087 -2.58785 3.2775 0
M  V30 8370 N 774.524 -1.57472 -0.0634922 0
M  V30 8371 C 775.474 -2.00709 -1.08166 0
M  V30 8372 C 776.458 -0.890498 -1.34011 0
M  V30 8373 O 777.65 -1.15441 -1.34173 0
M  V30 8374 C 774.779 -2.46148 -2.39303 0
M  V30 8375 C 773.865 -3.64559 -2.16697 0
M  V30 8376 N 774.256 -4.78459 -1.64043 0
M  V30 8377 C 772.554 -3.71269 -2.47135 0
M  V30 8378 C 773.255 -5.60268 -1.56445 0
M  V30 8379 N 772.231 -5.04357 -2.02792 0
M  V30 8380 H 776.033 -2.86208 -0.668016 0
M  V30 8381 H 773.547 -1.60133 -0.270426 0
M  V30 8382 H 775.544 -2.75367 -3.13016 0
M  V30 8383 H 774.204 -1.62041 -2.81377 0
M  V30 8384 H 775.215 -5.00587 -1.32791 0
M  V30 8385 H 771.892 -2.97891 -2.92518 0
M  V30 8386 H 773.282 -6.6172 -1.16519 0
M  V30 8387 N 776.003 0.335068 -1.53997 0
M  V30 8388 C 777.243 1.0827 -1.7337 0
M  V30 8389 C 777.607 1.85618 -0.490913 0
M  V30 8390 O 778.808 2.62864 -0.561799 0
M  V30 8391 C 777.079 1.99212 -2.96731 0
M  V30 8392 S 778.638 2.81083 -3.36954 0
M  V30 8393 H 775.456 0.365698 -0.609743 0
M  V30 8394 H 778.058 0.360079 -1.92155 0
M  V30 8395 H 776.762 1.41204 -3.85344 0
M  V30 8396 H 776.293 2.75898 -2.80436 0
M  V30 8397 H 778.308 4.01657 -2.91352 0
M  V30 8398 N 777.481 1.45874 0.596531 0
M  V30 8399 C 778.414 1.49889 1.72071 0
M  V30 8400 C 779.392 0.354224 1.58695 0
M  V30 8401 O 780.576 0.556355 1.80103 0
M  V30 8402 C 777.703 1.3644 3.10003 0
M  V30 8403 C 776.749 2.54913 3.41938 0
M  V30 8404 S 777.582 4.17336 3.35545 0
M  V30 8405 C 778.738 4.06372 4.76039 0
M  V30 8406 H 778.971 2.45005 1.68404 0
M  V30 8407 H 776.504 1.33592 0.77412 0
M  V30 8408 H 778.462 1.29368 3.89582 0
M  V30 8409 H 777.123 0.427762 3.11174 0
M  V30 8410 H 776.316 2.41458 4.42396 0
M  V30 8411 H 775.918 2.58904 2.69898 0
M  V30 8412 H 778.21 3.72199 5.66105 0
M  V30 8413 H 779.153 5.0678 4.9455 0
M  V30 8414 H 779.561 3.37846 4.52239 0
M  V30 8415 N 778.959 -0.83999 1.33349 0
M  V30 8416 C 780.189 -1.62492 1.27593 0
M  V30 8417 C 780.597 -1.88559 -0.155597 0
M  V30 8418 O 779.94 -1.46537 -1.10782 0
M  V30 8419 C 780.002 -2.99984 1.98116 0
M  V30 8420 C 779.666 -2.96892 3.47425 0
M  V30 8421 C 780.663 -2.72688 4.42648 0
M  V30 8422 C 778.348 -3.17063 3.89585 0
M  V30 8423 C 780.342 -2.68681 5.78004 0
M  V30 8424 C 778.029 -3.12682 5.25046 0
M  V30 8425 C 779.027 -2.88522 6.19067 0
M  V30 8426 O 778.715 -2.84042 7.52047 0
M  V30 8427 H 778.447 -0.512358 0.440982 0
M  V30 8428 H 781.001 -1.0545 1.76265 0
M  V30 8429 H 779.231 -3.58875 1.44034 0
M  V30 8430 H 780.92 -3.6084 1.85875 0
M  V30 8431 H 781.686 -2.56856 4.114 0
M  V30 8432 H 777.565 -3.34889 3.16813 0
M  V30 8433 H 781.109 -2.49743 6.51363 0
M  V30 8434 H 777.006 -3.28063 5.55918 0
M  V30 8435 H 777.774 -2.99892 7.61582 0
M  V30 8436 N 780.437 -1.16799 -1.0581 0
M  V30 8437 C 781.4 -0.881396 -2.11575 0
M  V30 8438 C 782.4 0.12574 -1.60308 0
M  V30 8439 O 783.59 -0.105716 -1.73879 0
M  V30 8440 C 780.722 -0.319037 -3.39404 0
M  V30 8441 H 781.915 -1.81907 -2.38432 0
M  V30 8442 H 779.468 -0.977597 -1.21954 0
M  V30 8443 H 780.203 0.626082 -3.18199 0
M  V30 8444 H 779.988 -1.04481 -3.77923 0
M  V30 8445 H 781.478 -0.13663 -4.17376 0
M  V30 8446 N 781.915 1.24427 -0.967243 0
M  V30 8447 C 783.164 1.91789 -0.624478 0
M  V30 8448 C 783.477 1.76448 0.844129 0
M  V30 8449 O 784.683 2.38495 1.2974 0
M  V30 8450 C 783.139 3.43743 -1.06626 0
M  V30 8451 C 782.747 3.67771 -2.55829 0
M  V30 8452 C 784.491 4.16958 -0.79662 0
M  V30 8453 C 782.398 5.13293 -2.93742 0
M  V30 8454 H 781.328 0.71811 -0.229856 0
M  V30 8455 H 783.979 1.41081 -1.17339 0
M  V30 8456 H 782.361 3.93484 -0.445663 0
M  V30 8457 H 783.535 3.28631 -3.23015 0
M  V30 8458 H 781.85 3.07841 -2.80398 0
M  V30 8459 H 784.447 5.24171 -1.05589 0
M  V30 8460 H 784.79 4.15442 0.267163 0
M  V30 8461 H 785.323 3.73164 -1.37816 0
M  V30 8462 H 782.062 5.19931 -3.9919 0
M  V30 8463 H 781.582 5.53433 -2.3124 0
M  V30 8464 H 783.261 5.81521 -2.83623 0
M  V30 8465 N 783.393 0.737304 1.3929 0
M  V30 8466 C 784.323 0.113988 2.33222 0
M  V30 8467 C 785.304 -0.721695 1.54031 0
M  V30 8468 O 786.489 -0.666206 1.82415 0
M  V30 8469 C 783.619 -0.792319 3.38141 0
M  V30 8470 C 782.573 -0.0606178 4.27957 0
M  V30 8471 C 781.899 -1.08409 5.23595 0
M  V30 8472 C 783.199 1.09817 5.10625 0
M  V30 8473 H 784.893 0.898611 2.85596 0
M  V30 8474 H 782.439 0.433571 1.37318 0
M  V30 8475 H 784.392 -1.23793 4.02807 0
M  V30 8476 H 783.116 -1.60908 2.84211 0
M  V30 8477 H 781.775 0.365393 3.64775 0
M  V30 8478 H 781.423 -1.89449 4.6596 0
M  V30 8479 H 781.123 -0.599269 5.84536 0
M  V30 8480 H 782.647 -1.52936 5.91137 0
M  V30 8481 H 784.061 0.730892 5.68622 0
M  V30 8482 H 782.458 1.51278 5.80719 0
M  V30 8483 H 783.528 1.91878 4.45321 0
M  V30 8484 N 784.871 -1.49948 0.485112 0
M  V30 8485 C 785.803 -2.26691 -0.338222 0
M  V30 8486 C 786.816 -1.32584 -0.944742 0
M  V30 8487 O 788.005 -1.57989 -0.830772 0
M  V30 8488 C 785.105 -3.04405 -1.48966 0
M  V30 8489 C 784.278 -4.25971 -0.993371 0
M  V30 8490 C 783.337 -4.85861 -2.02052 0
M  V30 8491 O 782.363 -5.46382 -1.59547 0
M  V30 8492 N 783.565 -4.74101 -3.34975 0
M  V30 8493 H 786.33 -2.97989 0.319748 0
M  V30 8494 H 783.891 -1.58772 0.316714 0
M  V30 8495 H 785.883 -3.41348 -2.17403 0
M  V30 8496 H 784.453 -2.35815 -2.05207 0
M  V30 8497 H 783.673 -3.93971 -0.134424 0
M  V30 8498 H 784.961 -5.0476 -0.639934 0
M  V30 8499 H 784.359 -4.26002 -3.72208 0
M  V30 8500 H 782.916 -5.15274 -3.9917 0
M  V30 8501 N 786.349 -0.21828 -1.56081 0
M  V30 8502 C 787.297 0.709679 -2.21509 0
M  V30 8503 C 788.291 1.20221 -1.19346 0
M  V30 8504 O 789.497 1.16241 -1.37433 0
M  V30 8505 H 785.872 0.247271 -0.710184 0
M  V30 8506 H 787.843 0.134386 -2.98097 0
M  V30 8507 C 786.592 1.90853 -2.90638 0
M  V30 8508 H 785.915 1.53865 -3.69006 0
M  V30 8509 H 787.355 2.53568 -3.39822 0
M  V30 8510 C 785.814 2.76189 -1.92929 0
M  V30 8511 O 786.344 3.74842 -1.44416 0
M  V30 8512 N 784.55 2.42157 -1.6065 0
M  V30 8513 H 784.097 1.61987 -2.00294 0
M  V30 8514 H 784.055 2.99534 -0.955347 0
M  V30 8515 N 787.827 1.57504 0.0551401 0
M  V30 8516 C 788.775 2.05884 1.08233 0
M  V30 8517 C 789.769 0.967383 1.39061 0
M  V30 8518 O 790.975 1.15242 1.38273 0
M  V30 8519 H 787.35 0.656673 0.366449 0
M  V30 8520 H 789.321 2.91273 0.648269 0
M  V30 8521 C 788.07 2.53221 2.38273 0
M  V30 8522 H 787.393 3.36809 2.15406 0
M  V30 8523 H 788.833 2.9081 3.08554 0
M  V30 8524 C 787.292 1.42218 3.05411 0
M  V30 8525 O 787.822 0.773638 3.9418 0
M  V30 8526 N 786.028 1.16316 2.66306 0
M  V30 8527 H 785.575 1.69237 1.94207 0
M  V30 8528 H 785.533 0.422534 3.11548 0
M  V30 8529 N 789.305 -0.326896 1.54172 0
M  V30 8530 C 790.255 -1.40319 1.79707 0
M  V30 8531 C 791.239 -1.47056 0.652938 0
M  V30 8532 O 792.431 -1.51645 0.91284 0
M  V30 8533 C 789.56 -2.77222 2.02491 0
M  V30 8534 C 788.646 -2.74811 3.23016 0
M  V30 8535 N 789.037 -2.42022 4.44138 0
M  V30 8536 C 787.335 -3.05943 3.24522 0
M  V30 8537 C 788.036 -2.48263 5.26061 0
M  V30 8538 N 787.012 -2.84567 4.63166 0
M  V30 8539 H 790.814 -1.13892 2.70935 0
M  V30 8540 H 788.328 -0.53536 1.53322 0
M  V30 8541 H 790.325 -3.54793 2.18923 0
M  V30 8542 H 788.985 -3.04582 1.12515 0
M  V30 8543 H 789.996 -2.14926 4.71197 0
M  V30 8544 H 786.673 -3.38367 2.44569 0
M  V30 8545 H 788.063 -2.2593 6.32776 0
M  V30 8546 N 790.784 -1.46188 -0.588786 0
M  V30 8547 C 792.012 -1.54743 -1.37339 0
M  V30 8548 C 792.427 -0.186446 -1.87877 0
M  V30 8549 O 791.784 0.815247 -1.63279 0
M  V30 8550 C 791.835 -2.54727 -2.56508 0
M  V30 8551 O 791.556 -3.85539 -2.08066 0
M  V30 8552 C 793.057 -2.73163 -3.49137 0
M  V30 8553 H 790.277 -0.523484 -0.419768 0
M  V30 8554 H 792.821 -1.91543 -0.716345 0
M  V30 8555 H 790.976 -2.20948 -3.18215 0
M  V30 8556 H 791.39 -4.39905 -2.85629 0
M  V30 8557 H 792.864 -3.47057 -4.2925 0
M  V30 8558 H 793.341 -1.79856 -4.00685 0
M  V30 8559 H 793.947 -3.08014 -2.9327 0
M  V30 8560 N 792.262 0.832906 -1.33792 0
M  V30 8561 C 793.192 1.95828 -1.27176 0
M  V30 8562 C 794.173 1.69427 -0.15114 0
M  V30 8563 O 795.358 1.91167 -0.341886 0
M  V30 8564 C 792.488 3.32098 -1.01629 0
M  V30 8565 C 791.442 3.72912 -2.10049 0
M  V30 8566 C 790.768 5.07054 -1.69706 0
M  V30 8567 C 792.068 3.86064 -3.51783 0
M  V30 8568 H 793.762 2.01622 -2.21334 0
M  V30 8569 H 791.308 0.96866 -1.0655 0
M  V30 8570 H 793.261 4.10402 -0.956474 0
M  V30 8571 H 791.985 3.26577 -0.0390956 0
M  V30 8572 H 790.644 2.96876 -2.15082 0
M  V30 8573 H 790.292 4.9801 -0.706737 0
M  V30 8574 H 789.992 5.35333 -2.42264 0
M  V30 8575 H 791.516 5.87827 -1.65202 0
M  V30 8576 H 792.93 4.54665 -3.49218 0
M  V30 8577 H 791.327 4.25787 -4.22878 0
M  V30 8578 H 792.397 2.88344 -3.89854 0
M  V30 8579 N 793.74 1.17359 1.05189 0
M  V30 8580 C 794.987 0.961987 1.78191 0
M  V30 8581 C 795.315 -0.509363 1.87712 0
M  V30 8582 O 794.57 -1.39425 1.37329 0
M  V30 8583 C 794.869 1.54821 3.22126 0
M  V30 8584 C 794.535 3.04378 3.32663 0
M  V30 8585 C 793.197 3.45201 3.35246 0
M  V30 8586 C 795.549 4.00387 3.33677 0
M  V30 8587 C 792.877 4.80629 3.36471 0
M  V30 8588 C 795.229 5.35715 3.36441 0
M  V30 8589 C 793.893 5.76002 3.37311 0
M  V30 8590 H 793.163 0.352016 0.652047 0
M  V30 8591 H 795.81 1.46249 1.23627 0
M  V30 8592 H 794.115 0.969432 3.79617 0
M  V30 8593 H 795.812 1.36004 3.77232 0
M  V30 8594 H 792.402 2.71836 3.31366 0
M  V30 8595 H 796.586 3.69906 3.30882 0
M  V30 8596 H 791.842 5.11155 3.35455 0
M  V30 8597 H 796.016 6.09886 3.36173 0
M  V30 8598 H 793.643 6.80919 3.38013 0
M  V30 8599 N 795.218 -1.23913 0.973828 0
M  V30 8600 C 796.446 -1.96195 0.656891 0
M  V30 8601 C 796.861 -1.72166 -0.774876 0
M  V30 8602 O 796.218 -1.0091 -1.52064 0
M  V30 8603 C 796.269 -3.49342 0.929638 0
M  V30 8604 O 795.99 -3.72553 2.30512 0
M  V30 8605 C 797.491 -4.38833 0.627739 0
M  V30 8606 H 794.711 -0.624841 0.244572 0
M  V30 8607 H 797.255 -1.57579 1.30343 0
M  V30 8608 H 795.41 -3.85999 0.329216 0
M  V30 8609 H 795.824 -4.66893 2.3898 0
M  V30 8610 H 797.298 -5.45117 0.868991 0
M  V30 8611 H 797.775 -4.37009 -0.438104 0
M  V30 8612 H 798.381 -4.07773 1.20834 0
M  V30 8613 N 796.696 -0.74468 -1.38897 0
M  V30 8614 C 797.973 -0.222773 -1.94327 0
M  V30 8615 C 798.353 1.27731 -1.68071 0
M  V30 8616 O 797.701 2.04754 -1.01429 0
M  V30 8617 C 797.911 -0.566836 -3.44366 0
M  V30 8618 C 799.259 -0.521531 -4.21385 0
M  V30 8619 O 800.283 -0.504599 -3.52608 0
M  V30 8620 O 799.142 -0.524595 -5.43976 0
M  V30 8621 H 796.236 -0.0439259 -0.825833 0
M  V30 8622 H 798.782 -0.824197 -1.48341 0
M  V30 8623 H 797.554 -1.60321 -3.56949 0
M  V30 8624 H 797.177 0.0630577 -3.9755 0
M  V30 8625 N 798.174 1.49689 -0.493057 0
M  V30 8626 C 799.104 2.31826 0.279073 0
M  V30 8627 C 800.085 1.39733 0.969987 0
M  V30 8628 O 801.27 1.68646 0.962925 0
M  V30 8629 C 798.4 3.20046 1.34862 0
M  V30 8630 C 797.354 4.20869 0.77805 0
M  V30 8631 C 796.68 4.97971 1.94753 0
M  V30 8632 C 797.98 5.21813 -0.225543 0
M  V30 8633 H 799.674 2.96627 -0.406512 0
M  V30 8634 H 797.22 1.42647 -0.196943 0
M  V30 8635 H 799.173 3.76315 1.89645 0
M  V30 8636 H 797.897 2.53172 2.06328 0
M  V30 8637 H 796.556 3.65733 0.252036 0
M  V30 8638 H 796.204 4.27552 2.64969 0
M  V30 8639 H 795.904 5.66186 1.57187 0
M  V30 8640 H 797.428 5.57082 2.49984 0
M  V30 8641 H 798.842 5.72823 0.233864 0
M  V30 8642 H 797.239 5.97872 -0.516622 0
M  V30 8643 H 798.309 4.71209 -1.14412 0
M  V30 8644 N 799.652 0.226554 1.55963 0
M  V30 8645 C 800.562 -0.692725 2.24139 0
M  V30 8646 C 801.578 -1.20971 1.25068 0
M  V30 8647 O 802.754 -1.25027 1.57893 0
M  V30 8648 C 799.819 -1.88183 2.91184 0
M  V30 8649 C 798.88 -1.40633 4.05612 0
M  V30 8650 C 798.113 -2.53875 4.6945 0
M  V30 8651 O 798.336 -3.72129 4.32292 0
M  V30 8652 O 797.27 -2.24792 5.58348 0
M  V30 8653 H 801.096 -0.141921 3.03368 0
M  V30 8654 H 798.681 -0.0041049 1.49399 0
M  V30 8655 H 800.563 -2.57617 3.33484 0
M  V30 8656 H 799.238 -2.42064 2.14911 0
M  V30 8657 H 798.145 -0.67986 3.67871 0
M  V30 8658 H 799.478 -0.913838 4.83642 0
M  V30 8659 N 801.13 -1.57531 -0.0467866 0
M  V30 8660 C 802.546 -1.54451 -0.402107 0
M  V30 8661 C 802.746 -0.950275 -1.77685 0
M  V30 8662 O 801.802 -0.563602 -2.4613 0
M  V30 8663 C 803.115 -2.9899 -0.320212 0
M  V30 8664 C 804.663 -3.10452 -0.398588 0
M  V30 8665 C 805.138 -4.56689 -0.346335 0
M  V30 8666 N 806.629 -4.6142 -0.405666 0
M  V30 8667 C 807.364 -5.72087 -0.387845 0
M  V30 8668 N 806.86 -6.92045 -0.32336 0
M  V30 8669 N 808.653 -5.60404 -0.436263 0
M  V30 8670 H 800.804 -1.94515 0.853087 0
M  V30 8671 H 803.067 -0.891397 0.322669 0
M  V30 8672 H 802.773 -3.46124 0.623794 0
M  V30 8673 H 802.647 -3.60164 -1.1208 0
M  V30 8674 H 805.034 -2.63276 -1.33302 0
M  V30 8675 H 805.115 -2.52142 0.431026 0
M  V30 8676 H 804.759 -5.04527 0.584356 0
M  V30 8677 H 804.689 -5.12889 -1.19382 0
M  V30 8678 H 807.18 -3.75105 -0.458737 0
M  V30 8679 H 807.493 -7.7216 -0.314375 0
M  V30 8680 H 805.838 -6.94396 -0.28967 0
M  V30 8681 H 809.029 -4.65586 -0.48451 0
M  V30 8682 H 809.202 -6.46645 -0.418907 0
M  V30 8683 N 802.608 0.318715 -1.54344 0
M  V30 8684 C 803.555 1.39242 -1.84066 0
M  V30 8685 C 804.525 1.51175 -0.688134 0
M  V30 8686 O 805.71 1.66318 -0.935039 0
M  V30 8687 C 802.85 2.75528 -2.07794 0
M  V30 8688 C 801.963 2.72187 -3.35467 0
M  V30 8689 C 801.098 4.00352 -3.4913 0
M  V30 8690 C 800.137 3.91338 -4.7066 0
M  V30 8691 N 799.274 5.11242 -4.81224 0
M  V30 8692 H 804.114 1.13196 -2.75664 0
M  V30 8693 H 801.651 0.547857 -1.36517 0
M  V30 8694 H 803.609 3.54763 -2.19543 0
M  V30 8695 H 802.239 2.99873 -1.19482 0
M  V30 8696 H 801.291 1.84917 -3.3243 0
M  V30 8697 H 802.603 2.61411 -4.24812 0
M  V30 8698 H 801.757 4.88019 -3.60448 0
M  V30 8699 H 800.496 4.1394 -2.57886 0
M  V30 8700 H 799.501 3.02055 -4.59394 0
M  V30 8701 H 800.726 3.7931 -5.63294 0
M  V30 8702 H 798.672 5.25327 -3.92897 0
M  V30 8703 H 798.589 5.0282 -5.64543 0
M  V30 8704 H 799.857 6.0061 -4.96879 0
M  V30 8705 N 804.086 1.46499 0.581025 0
M  V30 8706 C 805.334 1.51596 1.33653 0
M  V30 8707 C 805.655 0.169859 1.94259 0
M  V30 8708 O 804.925 -0.803776 1.78651 0
M  V30 8709 H 803.505 0.558346 0.496244 0
M  V30 8710 H 806.167 1.8264 0.680338 0
M  V30 8711 H 805.263 2.26956 2.14237 0
M  V30 8712 N 805.565 -0.825799 1.34232 0
M  V30 8713 C 806.495 -1.95151 1.28212 0
M  V30 8714 C 807.476 -1.69345 0.160123 0
M  V30 8715 O 808.661 -1.90983 0.352019 0
M  V30 8716 C 805.791 -3.31554 1.03388 0
M  V30 8717 C 804.745 -3.71793 2.12023 0
M  V30 8718 C 804.071 -5.06147 1.72392 0
M  V30 8719 C 805.371 -3.84193 3.53826 0
M  V30 8720 H 807.065 -2.00445 2.22401 0
M  V30 8721 H 804.611 -0.962996 1.07063 0
M  V30 8722 H 806.564 -4.09889 0.978225 0
M  V30 8723 H 805.288 -3.26551 0.0564142 0
M  V30 8724 H 803.947 -2.95731 2.16654 0
M  V30 8725 H 803.595 -4.97628 0.733137 0
M  V30 8726 H 803.295 -5.34041 2.451 0
M  V30 8727 H 804.819 -5.86943 1.68317 0
M  V30 8728 H 806.233 -4.52806 3.51624 0
M  V30 8729 H 804.63 -4.23538 4.2513 0
M  V30 8730 H 805.7 -2.86272 3.91377 0
M  V30 8731 N 807.043 -1.17915 -1.04565 0
M  V30 8732 C 807.973 -0.925033 -2.14395 0
M  V30 8733 C 808.954 0.135375 -1.6956 0
M  V30 8734 O 810.139 -0.0161774 -1.94193 0
M  V30 8735 C 807.269 -0.444469 -3.44444 0
M  V30 8736 C 806.223 -1.44478 -4.02877 0
M  V30 8737 C 805.549 -0.821933 -5.28345 0
M  V30 8738 C 806.849 -2.81995 -4.39632 0
M  V30 8739 H 808.543 -1.84354 -2.35911 0
M  V30 8740 H 806.089 -0.887806 -1.13375 0
M  V30 8741 H 808.042 -0.254078 -4.20633 0
M  V30 8742 H 806.766 0.509592 -3.226 0
M  V30 8743 H 805.425 -1.62203 -3.28764 0
M  V30 8744 H 805.073 0.139161 -5.02807 0
M  V30 8745 H 804.773 -1.48976 -5.68401 0
M  V30 8746 H 806.297 -0.641959 -6.07216 0
M  V30 8747 H 807.711 -2.67952 -5.06828 0
M  V30 8748 H 806.108 -3.45414 -4.90723 0
M  V30 8749 H 807.178 -3.35927 -3.49687 0
M  V30 8750 N 808.521 1.23394 -0.980386 0
M  V30 8751 C 809.77 1.91116 -0.644785 0
M  V30 8752 C 810.083 1.77333 0.825367 0
M  V30 8753 O 811.289 2.39858 1.27203 0
M  V30 8754 C 809.745 3.42592 -1.10266 0
M  V30 8755 C 809.353 3.65037 -2.59715 0
M  V30 8756 C 811.097 4.1609 -0.8408 0
M  V30 8757 C 809.004 5.10148 -2.9917 0
M  V30 8758 H 807.934 0.715632 -0.23746 0
M  V30 8759 H 810.585 1.39829 -1.18828 0
M  V30 8760 H 808.967 3.92989 -0.487372 0
M  V30 8761 H 810.141 3.25186 -3.26482 0
M  V30 8762 H 808.456 3.04849 -2.83647 0
M  V30 8763 H 811.053 5.23021 -1.11143 0
M  V30 8764 H 811.396 4.15702 0.223085 0
M  V30 8765 H 811.929 3.71681 -1.41767 0
M  V30 8766 H 808.668 5.15668 -4.04682 0
M  V30 8767 H 808.188 5.50949 -2.37097 0
M  V30 8768 H 809.867 5.7848 -2.89775 0
M  V30 8769 N 809.999 0.752036 1.385 0
M  V30 8770 C 810.962 0.131587 2.28822 0
M  V30 8771 C 811.962 -0.649149 1.47115 0
M  V30 8772 O 813.152 -0.475645 1.67581 0
M  V30 8773 C 810.284 -0.822101 3.30839 0
M  V30 8774 H 811.477 0.927551 2.85196 0
M  V30 8775 H 809.03 0.518945 1.47434 0
M  V30 8776 H 809.765 -1.6438 2.79553 0
M  V30 8777 H 809.55 -0.264689 3.91206 0
M  V30 8778 H 811.04 -1.25226 3.98382 0
M  V30 8779 N 811.477 -1.49425 0.500989 0
M  V30 8780 C 812.717 -2.04357 -0.0419004 0
M  V30 8781 C 813.081 -1.37236 -1.34277 0
M  V30 8782 O 814.282 -1.82889 -1.9699 0
M  V30 8783 C 812.553 -3.56889 -0.19112 0
M  V30 8784 S 814.112 -4.33369 -0.688259 0
M  V30 8785 H 810.93 -0.710998 -0.00177796 0
M  V30 8786 H 813.532 -1.83479 0.674953 0
M  V30 8787 H 812.236 -4.03283 0.760964 0
M  V30 8788 H 811.767 -3.82171 -0.933214 0
M  V30 8789 H 813.782 -4.55961 -1.9574 0
M  V30 8790 N 812.955 -0.234822 -1.55841 0
M  V30 8791 C 813.885 0.664217 -2.23854 0
M  V30 8792 C 814.866 1.19076 -1.2147 0
M  V30 8793 O 816.051 1.23232 -1.50091 0
M  V30 8794 C 813.181 1.86666 -2.9287 0
M  V30 8795 C 812.135 1.47341 -4.01839 0
M  V30 8796 C 811.461 2.75571 -4.58219 0
M  V30 8797 C 812.761 0.653479 -5.18196 0
M  V30 8798 H 814.455 0.0971213 -2.99242 0
M  V30 8799 H 812.001 0.0452724 -1.43929 0
M  V30 8800 H 813.954 2.50116 -3.39146 0
M  V30 8801 H 812.678 2.45894 -2.1495 0
M  V30 8802 H 811.337 0.862314 -3.56314 0
M  V30 8803 H 810.985 3.32971 -3.77014 0
M  V30 8804 H 810.685 2.49987 -5.31771 0
M  V30 8805 H 812.209 3.39939 -5.07221 0
M  V30 8806 H 813.623 1.19198 -5.60771 0
M  V30 8807 H 812.02 0.494188 -5.98062 0
M  V30 8808 H 813.09 -0.337004 -4.83728 0
M  V30 8809 N 814.433 1.57553 0.0384317 0
M  V30 8810 C 815.673 1.90687 0.736069 0
M  V30 8811 C 816.037 0.832381 1.73019 0
M  V30 8812 O 817.238 1.04777 2.47538 0
M  V30 8813 C 815.509 3.28994 1.39635 0
M  V30 8814 S 817.068 3.83944 2.12444 0
M  V30 8815 H 813.886 0.667799 0.244059 0
M  V30 8816 H 816.488 1.95498 -0.00901643 0
M  V30 8817 H 815.192 4.05067 0.659465 0
M  V30 8818 H 814.723 3.27463 2.18018 0
M  V30 8819 H 816.738 3.61916 3.39457 0
M  V30 8820 N 815.911 -0.310526 1.54511 0
M  V30 8821 C 816.861 -1.38405 1.81185 0
M  V30 8822 C 817.845 -1.46355 0.668499 0
M  V30 8823 O 819.037 -1.50668 0.928873 0
M  V30 8824 C 816.166 -2.75059 2.0542 0
M  V30 8825 C 815.252 -2.7137 3.25913 0
M  V30 8826 N 815.643 -2.37298 4.4668 0
M  V30 8827 C 813.941 -3.02484 3.27749 0
M  V30 8828 C 814.642 -2.42669 5.28665 0
M  V30 8829 N 813.618 -2.79639 4.66158 0
M  V30 8830 H 817.42 -1.11012 2.72128 0
M  V30 8831 H 814.934 -0.519068 1.53881 0
M  V30 8832 H 816.931 -3.52451 2.22674 0
M  V30 8833 H 815.591 -3.03372 1.15739 0
M  V30 8834 H 816.602 -2.09917 4.73451 0
M  V30 8835 H 813.279 -3.35754 2.48144 0
M  V30 8836 H 814.669 -2.19206 6.35136 0
M  V30 8837 N 817.389 -1.46805 -0.573248 0
M  V30 8838 C 818.666 -1.43082 -1.33368 0
M  V30 8839 C 819.046 -0.119252 -2.10763 0
M  V30 8840 O 818.394 0.899239 -2.10062 0
M  V30 8841 C 818.604 -2.66643 -2.25172 0
M  V30 8842 C 819.952 -3.13188 -2.86702 0
M  V30 8843 O 820.976 -2.67258 -2.35482 0
M  V30 8844 O 819.835 -3.92994 -3.79761 0
M  V30 8845 H 816.929 -0.569451 -0.599712 0
M  V30 8846 H 819.475 -1.58984 -0.59348 0
M  V30 8847 H 818.247 -3.53649 -1.67475 0
M  V30 8848 H 817.87 -2.53247 -3.06516 0
M  V30 8849 N 818.867 0.818669 -1.34668 0
M  V30 8850 C 819.797 1.94468 -1.29245 0
M  V30 8851 C 820.778 1.69257 -0.169101 0
M  V30 8852 O 821.963 1.90794 -0.362143 0
M  V30 8853 C 819.093 3.31001 -1.05145 0
M  V30 8854 C 818.047 3.70663 -2.13992 0
M  V30 8855 C 817.373 5.05226 -1.75074 0
M  V30 8856 C 818.673 3.82312 -3.55858 0
M  V30 8857 H 820.367 1.99263 -2.2346 0
M  V30 8858 H 817.913 0.957304 -1.07572 0
M  V30 8859 H 819.866 4.09364 -0.999949 0
M  V30 8860 H 818.59 3.26517 -0.0737312 0
M  V30 8861 H 817.249 2.94578 -2.18219 0
M  V30 8862 H 816.897 4.97233 -0.759518 0
M  V30 8863 H 816.597 5.32734 -2.47928 0
M  V30 8864 H 818.121 5.86042 -1.71427 0
M  V30 8865 H 819.535 4.50935 -3.5402 0
M  V30 8866 H 817.932 4.21278 -4.2737 0
M  V30 8867 H 819.002 2.84193 -3.9289 0
M  V30 8868 N 820.346 1.18468 1.03938 0
M  V30 8869 C 821.623 0.890435 1.74157 0
M  V30 8870 C 822.003 -0.606409 2.02203 0
M  V30 8871 O 821.351 -1.5615 1.66822 0
M  V30 8872 C 821.561 1.73906 3.02585 0
M  V30 8873 C 822.909 1.96686 3.76297 0
M  V30 8874 O 823.933 1.70969 3.12487 0
M  V30 8875 O 822.792 2.39986 4.90988 0
M  V30 8876 H 819.886 0.330889 0.757919 0
M  V30 8877 H 822.432 1.29228 1.09992 0
M  V30 8878 H 821.204 2.75369 2.78006 0
M  V30 8879 H 820.827 1.33581 3.74489 0
M  V30 8880 N 821.824 -1.22873 0.986916 0
M  V30 8881 C 822.774 -2.2237 0.503547 0
M  V30 8882 C 823.758 -1.55186 -0.424998 0
M  V30 8883 O 824.95 -1.75186 -0.252791 0
M  V30 8884 C 822.079 -3.42794 -0.186355 0
M  V30 8885 C 821.165 -4.17196 0.762143 0
M  V30 8886 N 821.556 -4.68453 1.9075 0
M  V30 8887 C 819.854 -4.42255 0.576797 0
M  V30 8888 C 820.555 -5.25126 2.50235 0
M  V30 8889 N 819.531 -5.13437 1.7856 0
M  V30 8890 H 823.333 -2.59636 1.37718 0
M  V30 8891 H 820.847 -1.38476 0.848415 0
M  V30 8892 H 822.844 -4.13256 -0.549993 0
M  V30 8893 H 821.504 -3.07042 -1.05619 0
M  V30 8894 H 822.515 -4.64595 2.28848 0
M  V30 8895 H 819.192 -4.16766 -0.247474 0
M  V30 8896 H 820.582 -5.75363 3.46997 0
M  V30 8897 N 823.302 -0.75937 -1.38099 0
M  V30 8898 C 824.718 -0.437606 -1.53483 0
M  V30 8899 C 824.918 1.04849 -1.72072 0
M  V30 8900 O 823.974 1.83448 -1.73502 0
M  V30 8901 C 825.287 -1.24189 -2.73857 0
M  V30 8902 C 826.835 -1.23255 -2.8771 0
M  V30 8903 C 827.31 -2.01992 -4.11051 0
M  V30 8904 N 828.801 -1.99282 -4.1814 0
M  V30 8905 C 829.536 -2.56996 -5.12583 0
M  V30 8906 N 829.032 -3.23446 -6.12662 0
M  V30 8907 N 830.825 -2.46894 -5.04975 0
M  V30 8908 H 822.976 -1.72242 -1.24283 0
M  V30 8909 H 825.239 -0.730507 -0.604205 0
M  V30 8910 H 824.945 -2.29449 -2.66545 0
M  V30 8911 H 824.819 -0.862672 -3.67203 0
M  V30 8912 H 827.206 -0.187988 -2.94501 0
M  V30 8913 H 827.287 -1.65132 -1.95359 0
M  V30 8914 H 826.931 -3.06462 -4.05023 0
M  V30 8915 H 826.861 -1.57505 -5.02494 0
M  V30 8916 H 829.352 -1.50893 -3.46467 0
M  V30 8917 H 829.665 -3.6489 -6.81231 0
M  V30 8918 H 828.01 -3.27543 -6.12977 0
M  V30 8919 H 831.201 -1.94604 -4.25731 0
M  V30 8920 H 831.374 -2.92168 -5.78396 0
M  V30 8921 N 824.78 1.49157 -0.508906 0
M  V30 8922 C 826.028 2.02073 0.0327335 0
M  V30 8923 C 826.349 1.39012 1.3675 0
M  V30 8924 O 825.619 0.548153 1.88075 0
M  V30 8925 H 824.199 0.746848 0.0150864 0
M  V30 8926 H 826.861 1.83097 -0.667946 0
M  V30 8927 H 825.957 3.11707 0.1566 0
M  V30 8928 N 826.258 0.243083 1.55714 0
M  V30 8929 C 827.505 -0.38272 1.9885 0
M  V30 8930 C 827.833 -1.58225 1.13115 0
M  V30 8931 O 827.088 -1.94861 0.181067 0
M  V30 8932 C 827.387 -0.839621 3.47398 0
M  V30 8933 C 827.053 0.251737 4.50197 0
M  V30 8934 C 825.715 0.551487 4.78029 0
M  V30 8935 C 828.067 0.988728 5.11736 0
M  V30 8936 C 825.395 1.59237 5.64677 0
M  V30 8937 C 827.747 2.0191 5.99512 0
M  V30 8938 C 826.411 2.32554 6.2568 0
M  V30 8939 H 825.681 -0.140047 0.727645 0
M  V30 8940 H 828.328 0.35011 1.88272 0
M  V30 8941 H 826.633 -1.65159 3.55288 0
M  V30 8942 H 828.33 -1.33404 3.78159 0
M  V30 8943 H 824.92 0.00796741 4.28599 0
M  V30 8944 H 829.104 0.7704 4.90284 0
M  V30 8945 H 824.36 1.83517 5.83208 0
M  V30 8946 H 828.534 2.59511 6.46241 0
M  V30 8947 H 826.161 3.13349 6.92616 0
M  V30 8948 N 827.736 -1.57571 -0.0300757 0
M  V30 8949 C 828.961 -1.93879 -0.736601 0
M  V30 8950 C 829.386 -0.842998 -1.68152 0
M  V30 8951 O 828.744 0.20135 -1.80178 0
M  V30 8952 C 828.792 -3.29247 -1.47066 0
M  V30 8953 O 827.896 -3.21426 -2.58378 0
M  V30 8954 H 827.237 -0.633735 -0.198181 0
M  V30 8955 H 829.767 -2.04595 0.0141485 0
M  V30 8956 H 829.777 -3.64113 -1.84081 0
M  V30 8957 H 828.452 -4.08565 -0.77764 0
M  V30 8958 H 827.029 -2.98189 -2.23914 0
M  V30 8959 N 829.214 0.302327 -1.54673 0
M  V30 8960 C 830.162 1.39286 -1.86285 0
M  V30 8961 C 831.156 1.52553 -0.736478 0
M  V30 8962 O 832.362 1.54686 -0.92045 0
M  V30 8963 H 828.737 0.465228 -0.590819 0
M  V30 8964 H 830.708 1.09859 -2.77441 0
M  V30 8965 C 829.457 2.75155 -2.12567 0
M  V30 8966 H 828.78 2.65728 -2.98712 0
M  V30 8967 H 830.22 3.50476 -2.38627 0
M  V30 8968 C 828.679 3.23987 -0.923813 0
M  V30 8969 O 829.209 4.01443 -0.143649 0
M  V30 8970 N 827.415 2.81293 -0.72956 0
M  V30 8971 H 826.962 2.18421 -1.36565 0
M  V30 8972 H 826.92 3.14315 0.0730351 0
M  V30 8973 N 830.692 1.47107 0.565454 0
M  V30 8974 C 831.917 1.57153 1.35343 0
M  V30 8975 C 832.342 0.219247 1.86818 0
M  V30 8976 O 831.7 -0.803539 1.62521 0
M  V30 8977 C 831.748 2.59387 2.50501 0
M  V30 8978 O 830.852 2.14086 3.52478 0
M  V30 8979 H 830.193 0.528209 0.402357 0
M  V30 8980 H 832.723 1.92821 0.684189 0
M  V30 8981 H 832.733 2.79546 2.97184 0
M  V30 8982 H 831.408 3.57579 2.12391 0
M  V30 8983 H 829.985 2.03991 3.12157 0
M  V30 8984 N 832.17 -0.811516 1.35101 0
M  V30 8985 C 833.4 -1.59749 1.31011 0
M  V30 8986 C 833.808 -1.88847 -0.115566 0
M  V30 8987 O 833.151 -1.48854 -1.07649 0
M  V30 8988 C 833.213 -2.95714 2.04435 0
M  V30 8989 C 832.877 -2.89456 3.53645 0
M  V30 8990 C 833.874 -2.63237 4.48333 0
M  V30 8991 C 831.559 -3.08728 3.96222 0
M  V30 8992 C 833.553 -2.56361 5.83573 0
M  V30 8993 C 831.24 -3.01475 5.3156 0
M  V30 8994 C 832.238 -2.75326 6.25048 0
M  V30 8995 O 831.926 -2.68026 7.57903 0
M  V30 8996 H 831.658 -0.502889 0.45175 0
M  V30 8997 H 834.212 -1.01687 1.78462 0
M  V30 8998 H 832.442 -3.55739 1.51613 0
M  V30 8999 H 834.131 -3.56816 1.93487 0
M  V30 9000 H 834.897 -2.48072 4.16756 0
M  V30 9001 H 830.776 -3.28094 3.23845 0
M  V30 9002 H 834.32 -2.35871 6.56514 0
M  V30 9003 H 830.217 -3.16197 5.62752 0
M  V30 9004 H 830.985 -2.8367 7.67772 0
M  V30 9005 N 833.648 -1.19017 -1.03309 0
M  V30 9006 C 834.578 -0.94772 -2.13402 0
M  V30 9007 C 835.559 0.117383 -1.69694 0
M  V30 9008 O 836.744 -0.0367733 -1.94165 0
M  V30 9009 C 833.874 -0.480977 -3.43953 0
M  V30 9010 C 832.828 -1.48743 -4.01322 0
M  V30 9011 C 832.154 -0.877924 -5.27443 0
M  V30 9012 C 833.454 -2.86642 -4.36616 0
M  V30 9013 H 835.148 -1.86846 -2.33942 0
M  V30 9014 H 832.694 -0.899781 -1.12427 0
M  V30 9015 H 834.647 -0.298677 -4.2034 0
M  V30 9016 H 833.371 0.475348 -3.23122 0
M  V30 9017 H 832.03 -1.65681 -3.27025 0
M  V30 9018 H 831.678 0.0858232 -5.02927 0
M  V30 9019 H 831.378 -1.54996 -5.66789 0
M  V30 9020 H 832.902 -0.706326 -6.06501 0
M  V30 9021 H 834.316 -2.73312 -5.03958 0
M  V30 9022 H 832.713 -3.50599 -4.87032 0
M  V30 9023 H 833.783 -3.39617 -3.46105 0
M  V30 9024 N 835.127 1.22348 -0.993418 0
M  V30 9025 C 836.059 2.23626 -0.502404 0
M  V30 9026 C 837.072 1.57739 0.402784 0
M  V30 9027 O 838.261 1.77321 0.204835 0
M  V30 9028 C 835.361 3.37647 0.291118 0
M  V30 9029 C 834.534 4.33121 -0.610332 0
M  V30 9030 C 833.593 5.26035 0.131572 0
M  V30 9031 O 832.619 5.67145 -0.483199 0
M  V30 9032 N 833.821 5.63023 1.41371 0
M  V30 9033 H 836.586 2.66385 -1.37329 0
M  V30 9034 H 834.147 1.36653 -0.868196 0
M  V30 9035 H 836.139 3.96792 0.796107 0
M  V30 9036 H 834.709 2.93967 1.0631 0
M  V30 9037 H 833.929 3.72287 -1.29598 0
M  V30 9038 H 835.217 4.93853 -1.22422 0
M  V30 9039 H 834.615 5.31596 1.93449 0
M  V30 9040 H 833.172 6.24582 1.86388 0
M  V30 9041 N 836.605 0.766683 1.37694 0
M  V30 9042 C 837.552 0.147725 2.30327 0
M  V30 9043 C 838.522 -0.695366 1.50844 0
M  V30 9044 O 839.707 -0.64878 1.79431 0
M  V30 9045 C 836.847 -0.72935 3.37305 0
M  V30 9046 C 835.96 0.129795 4.31805 0
M  V30 9047 C 835.095 -0.751511 5.25857 0
M  V30 9048 C 834.134 0.110475 6.12 0
M  V30 9049 N 833.271 -0.728522 6.9831 0
M  V30 9050 H 838.111 0.943204 2.82679 0
M  V30 9051 H 835.648 0.476736 1.3916 0
M  V30 9052 H 837.606 -1.25263 3.97951 0
M  V30 9053 H 836.236 -1.49048 2.86329 0
M  V30 9054 H 835.288 0.770829 3.72508 0
M  V30 9055 H 836.6 0.794923 4.92425 0
M  V30 9056 H 835.754 -1.34146 5.91684 0
M  V30 9057 H 834.493 -1.45034 4.65636 0
M  V30 9058 H 833.498 0.712999 5.45157 0
M  V30 9059 H 834.723 0.806557 6.74293 0
M  V30 9060 H 832.669 -1.41206 6.40622 0
M  V30 9061 H 832.586 -0.12058 7.55904 0
M  V30 9062 H 833.854 -1.30303 7.68532 0
M  V30 9063 N 838.083 -1.48885 0.516809 0
M  V30 9064 C 839.33 -2.02488 -0.0220602 0
M  V30 9065 C 839.658 -1.39513 -1.35523 0
M  V30 9066 O 838.913 -0.52558 -1.8851 0
M  V30 9067 C 839.212 -3.56801 -0.206798 0
M  V30 9068 C 838.878 -4.38496 1.05035 0
M  V30 9069 C 837.54 -4.60538 1.39492 0
M  V30 9070 C 839.892 -4.85909 1.88525 0
M  V30 9071 C 837.22 -5.2724 2.57361 0
M  V30 9072 C 839.572 -5.53909 3.05561 0
M  V30 9073 C 838.236 -5.74193 3.4038 0
M  V30 9074 H 837.506 -0.740956 -0.00807238 0
M  V30 9075 H 840.153 -1.79014 0.680168 0
M  V30 9076 H 838.458 -3.79042 -0.991687 0
M  V30 9077 H 840.155 -3.95885 -0.638447 0
M  V30 9078 H 836.745 -4.2159 0.771984 0
M  V30 9079 H 840.929 -4.68694 1.63218 0
M  V30 9080 H 836.185 -5.41145 2.84556 0
M  V30 9081 H 840.359 -5.89619 3.7057 0
M  V30 9082 H 837.986 -6.25652 4.31814 0
M  V30 9083 N 839.561 -0.251338 -1.55583 0
M  V30 9084 C 840.838 0.422729 -1.90977 0
M  V30 9085 C 841.218 1.75534 -1.17265 0
M  V30 9086 O 840.566 2.26632 -0.291588 0
M  V30 9087 C 840.776 0.586448 -3.44037 0
M  V30 9088 C 842.124 0.880294 -4.15375 0
M  V30 9089 O 843.148 0.672148 -3.49801 0
M  V30 9090 O 842.007 1.27694 -5.31372 0
M  V30 9091 H 839.101 0.227622 -0.795058 0
M  V30 9092 H 841.647 -0.295733 -1.67103 0
M  V30 9093 H 840.419 -0.352327 -3.89711 0
M  V30 9094 H 840.042 1.35528 -3.73789 0
M  V30 9095 N 841.039 1.57585 0.0217189 0
M  V30 9096 C 841.989 2.03506 1.02807 0
M  V30 9097 C 842.973 0.925716 1.31603 0
M  V30 9098 O 844.165 1.18958 1.31065 0
M  V30 9099 C 841.294 2.52407 2.32693 0
M  V30 9100 C 840.38 3.70176 2.06955 0
M  V30 9101 N 840.771 4.82641 1.513 0
M  V30 9102 C 839.069 3.77691 2.37204 0
M  V30 9103 C 839.77 5.64218 1.41536 0
M  V30 9104 N 838.746 5.09557 1.89348 0
M  V30 9105 H 842.548 2.87878 0.591899 0
M  V30 9106 H 840.062 1.60793 0.227875 0
M  V30 9107 H 842.059 2.83569 3.05605 0
M  V30 9108 H 840.719 1.69444 2.76982 0
M  V30 9109 H 841.73 5.03931 1.19472 0
M  V30 9110 H 838.407 3.05542 2.84517 0
M  V30 9111 H 839.797 6.64576 0.989333 0
M  V30 9112 N 842.517 -0.29412 1.54831 0
M  V30 9113 C 843.928 -0.866651 1.65366 0
M  V30 9114 C 844.279 -1.87834 0.56681 0
M  V30 9115 O 843.404 -2.14374 -0.295389 0
M  V30 9116 C 843.999 -1.57869 2.99771 0
M  V30 9117 C 842.558 -2.09954 3.12404 0
M  V30 9118 C 841.705 -0.934492 2.6108 0
M  V30 9119 H 844.656 -0.0709551 1.58541 0
M  V30 9120 H 844.677 -2.44462 2.91579 0
M  V30 9121 H 844.189 -0.84212 3.78853 0
M  V30 9122 H 842.29 -2.86637 2.38055 0
M  V30 9123 H 842.403 -2.32934 4.18663 0
M  V30 9124 H 840.767 -1.32199 2.17705 0
M  V30 9125 H 841.55 -0.211768 3.42646 0
M  V30 9126 N 843.995 -1.47404 -0.557645 0
M  V30 9127 C 844.925 -1.62736 -1.67449 0
M  V30 9128 C 845.906 -0.476824 -1.6328 0
M  V30 9129 O 847.091 -0.706108 -1.80908 0
M  V30 9130 C 844.221 -1.641 -3.06086 0
M  V30 9131 C 843.175 -2.78377 -3.25101 0
M  V30 9132 C 842.501 -2.64812 -4.6452 0
M  V30 9133 C 843.801 -4.19971 -3.10518 0
M  V30 9134 H 845.495 -2.56232 -1.54873 0
M  V30 9135 H 843.041 -1.23312 -0.743649 0
M  V30 9136 H 844.994 -1.73417 -3.84063 0
M  V30 9137 H 843.718 -0.671652 -3.19619 0
M  V30 9138 H 842.377 -2.6857 -2.49531 0
M  V30 9139 H 842.025 -1.65906 -4.74852 0
M  V30 9140 H 841.725 -3.41477 -4.78191 0
M  V30 9141 H 843.249 -2.76057 -5.44633 0
M  V30 9142 H 844.663 -4.30757 -3.78313 0
M  V30 9143 H 843.06 -4.97419 -3.35699 0
M  V30 9144 H 844.13 -4.38369 -2.0727 0
M  V30 9145 N 845.473 0.80434 -1.35529 0
M  V30 9146 C 846.436 1.89788 -1.28503 0
M  V30 9147 C 847.436 1.59601 -0.195983 0
M  V30 9148 O 848.626 1.68292 -0.449827 0
M  V30 9149 C 845.758 3.26255 -0.98847 0
M  V30 9150 H 846.951 1.97436 -2.25741 0
M  V30 9151 H 844.504 1.00046 -1.20086 0
M  V30 9152 H 845.239 3.24294 -0.0200541 0
M  V30 9153 H 845.024 3.49551 -1.77641 0
M  V30 9154 H 846.514 4.06298 -0.964975 0
M  V30 9155 N 846.951 1.19563 1.02676 0
M  V30 9156 C 847.914 0.937182 2.09164 0
M  V30 9157 C 848.914 -0.0831927 1.60585 0
M  V30 9158 O 850.104 0.15178 1.73538 0
M  V30 9159 C 847.236 0.408912 3.38439 0
M  V30 9160 H 848.429 1.88164 2.33526 0
M  V30 9161 H 845.982 1.00959 1.19319 0
M  V30 9162 H 846.717 -0.541497 3.19747 0
M  V30 9163 H 846.502 1.14464 3.7502 0
M  V30 9164 H 847.992 0.247242 4.16867 0
M  V30 9165 N 848.429 -1.21819 0.999893 0
M  V30 9166 C 849.359 -2.26282 0.576096 0
M  V30 9167 C 850.34 -1.65317 -0.400537 0
M  V30 9168 O 851.525 -1.92028 -0.28964 0
M  V30 9169 C 848.655 -3.47147 -0.103145 0
M  V30 9170 C 847.609 -4.20594 0.792745 0
M  V30 9171 C 846.935 -5.34696 -0.0198026 0
M  V30 9172 C 848.235 -4.78533 2.09293 0
M  V30 9173 H 849.929 -2.61984 1.4493 0
M  V30 9174 H 847.475 -1.25935 0.698316 0
M  V30 9175 H 849.428 -4.1939 -0.411068 0
M  V30 9176 H 848.152 -3.1056 -1.01094 0
M  V30 9177 H 846.811 -3.50194 1.08442 0
M  V30 9178 H 846.459 -4.94352 -0.928729 0
M  V30 9179 H 846.159 -5.84764 0.576661 0
M  V30 9180 H 847.683 -6.09752 -0.321659 0
M  V30 9181 H 849.097 -5.42682 1.8485 0
M  V30 9182 H 847.494 -5.38968 2.63881 0
M  V30 9183 H 848.564 -3.98197 2.76708 0
M  V30 9184 N 849.908 -0.773975 -1.37286 0
M  V30 9185 C 851.138 -0.350249 -2.03609 0
M  V30 9186 C 851.546 1.03313 -1.58502 0
M  V30 9187 O 850.889 1.67118 -0.7627 0
M  V30 9188 C 850.951 -0.317215 -3.58098 0
M  V30 9189 C 850.615 -1.64556 -4.26345 0
M  V30 9190 C 851.612 -2.59839 -4.50311 0
M  V30 9191 C 849.297 -1.92061 -4.64131 0
M  V30 9192 C 851.291 -3.80833 -5.11122 0
M  V30 9193 C 848.978 -3.13325 -5.24663 0
M  V30 9194 C 849.976 -4.0753 -5.48095 0
M  V30 9195 O 849.664 -5.26658 -6.0736 0
M  V30 9196 H 849.396 -0.144456 -0.660385 0
M  V30 9197 H 851.95 -1.0496 -1.76557 0
M  V30 9198 H 850.18 0.438528 -3.84205 0
M  V30 9199 H 851.869 0.0797428 -4.05822 0
M  V30 9200 H 852.635 -2.39872 -4.21529 0
M  V30 9201 H 848.514 -1.19562 -4.45226 0
M  V30 9202 H 852.058 -4.54377 -5.29327 0
M  V30 9203 H 847.955 -3.33177 -5.52869 0
M  V30 9204 H 848.723 -5.27513 -6.25837 0
M  V30 9205 N 851.386 1.48609 -0.524698 0
M  V30 9206 C 852.611 2.07398 0.00952139 0
M  V30 9207 C 853.036 1.37939 1.27884 0
M  V30 9208 O 852.394 0.443633 1.75788 0
M  V30 9209 C 852.442 3.59916 0.221956 0
M  V30 9210 O 851.546 3.91647 1.29175 0
M  V30 9211 H 850.887 0.662981 -0.0367729 0
M  V30 9212 H 853.417 1.91092 -0.7311 0
M  V30 9213 H 853.427 4.05552 0.446236 0
M  V30 9214 H 852.102 4.09876 -0.705306 0
M  V30 9215 H 850.679 3.57796 1.05055 0
M  V30 9216 N 852.864 0.259585 1.55447 0
M  V30 9217 C 854.092 -0.365392 2.03648 0
M  V30 9218 C 854.507 -1.50613 1.13847 0
M  V30 9219 O 853.864 -1.81837 0.155414 0
M  V30 9220 C 853.915 -0.861172 3.51093 0
M  V30 9221 O 853.636 0.234121 4.37474 0
M  V30 9222 C 855.137 -1.55555 4.15111 0
M  V30 9223 H 852.357 -0.0853439 0.66555 0
M  V30 9224 H 854.901 0.387151 2.00802 0
M  V30 9225 H 853.056 -1.56385 3.54433 0
M  V30 9226 H 853.47 -0.1444 5.24301 0
M  V30 9227 H 854.944 -1.85403 5.19932 0
M  V30 9228 H 855.421 -2.48185 3.62355 0
M  V30 9229 H 856.027 -0.89712 4.15731 0
M  V30 9230 N 854.342 -1.57594 -0.0133615 0
M  V30 9231 C 855.567 -1.94649 -0.715996 0
M  V30 9232 C 855.992 -0.860786 -1.67249 0
M  V30 9233 O 855.35 0.182228 -1.80382 0
M  V30 9234 C 855.398 -3.30789 -1.43566 0
M  V30 9235 O 854.502 -3.24148 -2.54955 0
M  V30 9236 H 853.843 -0.635801 -0.191449 0
M  V30 9237 H 856.373 -2.04569 0.0358478 0
M  V30 9238 H 856.383 -3.66045 -1.80208 0
M  V30 9239 H 855.058 -4.09367 -0.734263 0
M  V30 9240 H 853.635 -3.00548 -2.20739 0
M  V30 9241 N 855.82 0.285905 -1.54985 0
M  V30 9242 C 857.048 1.03776 -1.78992 0
M  V30 9243 C 857.463 1.80402 -0.556814 0
M  V30 9244 O 856.82 1.76242 0.473801 0
M  V30 9245 C 856.871 2.0065 -3.00702 0
M  V30 9246 O 856.592 1.27131 -4.19249 0
M  V30 9247 C 858.093 2.87753 -3.37214 0
M  V30 9248 H 855.313 0.307126 -0.596586 0
M  V30 9249 H 857.857 0.3206 -2.01971 0
M  V30 9250 H 856.012 2.67847 -2.79887 0
M  V30 9251 H 856.426 1.92316 -4.8797 0
M  V30 9252 H 857.9 3.51548 -4.2558 0
M  V30 9253 H 858.377 3.56848 -2.56039 0
M  V30 9254 H 858.983 2.26065 -3.60242 0
M  V30 9255 N 857.298 1.47698 0.54982 0
M  V30 9256 C 858.231 1.55288 1.67215 0
M  V30 9257 C 859.209 0.404533 1.57487 0
M  V30 9258 O 860.393 0.613372 1.78241 0
M  V30 9259 C 857.52 1.46233 3.05505 0
M  V30 9260 C 856.566 2.65662 3.33655 0
M  V30 9261 S 857.399 4.278 3.22098 0
M  V30 9262 C 858.555 4.21311 4.62869 0
M  V30 9263 H 858.788 2.50238 1.60524 0
M  V30 9264 H 856.321 1.35987 0.731227 0
M  V30 9265 H 858.279 1.41696 3.85269 0
M  V30 9266 H 856.94 0.526543 3.09655 0
M  V30 9267 H 856.133 2.55411 4.3449 0
M  V30 9268 H 855.735 2.67359 2.61524 0
M  V30 9269 H 858.027 3.90021 5.53977 0
M  V30 9270 H 858.97 5.22257 4.78177 0
M  V30 9271 H 859.378 3.52063 4.41262 0
M  V30 9272 N 858.776 -0.797141 1.35954 0
M  V30 9273 C 859.686 -1.94088 1.31784 0
M  V30 9274 C 860.702 -1.72588 0.221227 0
M  V30 9275 O 861.878 -1.96256 0.452255 0
M  V30 9276 C 858.943 -3.28828 1.09878 0
M  V30 9277 C 858.004 -3.63158 2.28942 0
M  V30 9278 C 857.237 -4.91469 2.08072 0
M  V30 9279 O 857.46 -5.60616 1.05196 0
M  V30 9280 O 856.394 -5.24277 2.95664 0
M  V30 9281 H 860.22 -2.00554 2.28061 0
M  V30 9282 H 857.805 -0.936288 1.16422 0
M  V30 9283 H 859.687 -4.09473 0.995485 0
M  V30 9284 H 858.362 -3.23271 0.16659 0
M  V30 9285 H 857.269 -2.82851 2.44839 0
M  V30 9286 H 858.602 -3.7343 3.20641 0
M  V30 9287 N 860.254 -1.20106 -1.0204 0
M  V30 9288 C 861.186 -0.904236 -2.10609 0
M  V30 9289 C 862.199 0.106487 -1.62451 0
M  V30 9290 O 863.388 -0.124035 -1.78069 0
M  V30 9291 C 860.488 -0.333423 -3.37256 0
M  V30 9292 C 859.661 -1.39476 -4.14566 0
M  V30 9293 C 858.72 -0.835961 -5.19517 0
M  V30 9294 O 857.746 -1.51573 -5.48648 0
M  V30 9295 N 858.948 0.356531 -5.79404 0
M  V30 9296 H 861.713 -1.8388 -2.36661 0
M  V30 9297 H 859.274 -1.10422 -1.184 0
M  V30 9298 H 861.266 0.0544571 -4.04663 0
M  V30 9299 H 859.836 0.505608 -3.08484 0
M  V30 9300 H 859.056 -1.95714 -3.42184 0
M  V30 9301 H 860.344 -2.10967 -4.63001 0
M  V30 9302 H 859.742 0.926143 -5.58067 0
M  V30 9303 H 858.299 0.686093 -6.48179 0
M  V30 9304 N 861.732 1.21287 -1.00634 0
M  V30 9305 C 862.682 2.21541 -0.53886 0
M  V30 9306 C 863.666 1.55842 0.400256 0
M  V30 9307 O 864.858 1.75566 0.224889 0
M  V30 9308 C 861.987 3.43047 0.131796 0
M  V30 9309 C 861.073 4.1593 -0.828419 0
M  V30 9310 N 861.464 4.65359 -1.98178 0
M  V30 9311 C 859.762 4.41281 -0.647083 0
M  V30 9312 C 860.463 5.21079 -2.58557 0
M  V30 9313 N 859.439 5.10531 -1.86705 0
M  V30 9314 H 863.241 2.57413 -1.41831 0
M  V30 9315 H 860.755 1.37109 -0.870338 0
M  V30 9316 H 862.752 4.14079 0.484178 0
M  V30 9317 H 861.412 3.08683 1.00721 0
M  V30 9318 H 862.423 4.60896 -2.3621 0
M  V30 9319 H 859.1 4.17107 0.181139 0
M  V30 9320 H 860.49 5.6977 -3.56107 0
M  V30 9321 N 863.21 0.781244 1.36873 0
M  V30 9322 C 864.16 0.147313 2.27524 0
M  V30 9323 C 865.144 -0.663928 1.46563 0
M  V30 9324 O 866.336 -0.525343 1.69024 0
M  V30 9325 C 863.465 -0.723511 3.35589 0
M  V30 9326 C 862.551 0.0960763 4.23991 0
M  V30 9327 N 862.942 1.14649 4.92635 0
M  V30 9328 C 861.24 -0.126397 4.45821 0
M  V30 9329 C 861.941 1.64474 5.57964 0
M  V30 9330 N 860.917 0.955316 5.3514 0
M  V30 9331 H 864.719 0.951406 2.78075 0
M  V30 9332 H 862.233 0.619913 1.50103 0
M  V30 9333 H 864.23 -1.19351 3.99451 0
M  V30 9334 H 862.89 -1.52624 2.86594 0
M  V30 9335 H 863.901 1.5288 4.94821 0
M  V30 9336 H 860.578 -0.900284 4.07678 0
M  V30 9337 H 861.968 2.52124 6.22803 0
M  V30 9338 N 864.689 -1.48329 0.532571 0
M  V30 9339 C 865.936 -2.025 -0.000582356 0
M  V30 9340 C 866.264 -1.40942 -1.34036 0
M  V30 9341 O 865.519 -0.545545 -1.87942 0
M  V30 9342 C 865.818 -3.57 -0.168943 0
M  V30 9343 C 865.484 -4.37357 1.0968 0
M  V30 9344 C 864.146 -4.59033 1.44369 0
M  V30 9345 C 866.498 -4.83882 1.93669 0
M  V30 9346 C 863.826 -5.24481 2.62939 0
M  V30 9347 C 866.178 -5.50637 3.11419 0
M  V30 9348 C 864.842 -5.70551 3.46451 0
M  V30 9349 H 864.112 -0.741 -0.000213099 0
M  V30 9350 H 866.759 -1.78282 0.699117 0
M  V30 9351 H 865.064 -3.80072 -0.951429 0
M  V30 9352 H 866.761 -3.9654 -0.596422 0
M  V30 9353 H 863.351 -4.20748 0.816655 0
M  V30 9354 H 867.535 -4.66936 1.6818 0
M  V30 9355 H 862.791 -5.38096 2.9028 0
M  V30 9356 H 866.965 -5.85655 3.76803 0
M  V30 9357 H 864.592 -6.21037 4.38425 0
M  V30 9358 N 866.167 -0.267825 -1.55308 0
M  V30 9359 C 867.392 0.357487 -2.04296 0
M  V30 9360 C 867.817 1.49222 -1.14518 0
M  V30 9361 O 867.175 1.80741 -0.142292 0
M  V30 9362 C 867.223 0.822899 -3.51085 0
M  V30 9363 O 866.327 1.93078 -3.6441 0
M  V30 9364 H 865.668 0.075025 -0.659748 0
M  V30 9365 H 868.198 -0.399996 -2.00652 0
M  V30 9366 H 868.208 1.12059 -3.92309 0
M  V30 9367 H 866.883 -0.0073562 -4.15899 0
M  V30 9368 H 865.46 1.63618 -3.35087 0
M  V30 9369 N 867.645 1.57599 0.00500368 0
M  V30 9370 C 868.577 2.04949 1.02609 0
M  V30 9371 C 869.59 0.966507 1.31006 0
M  V30 9372 O 870.779 1.2434 1.2807 0
M  V30 9373 C 867.879 2.43023 2.36206 0
M  V30 9374 C 867.052 3.73993 2.26821 0
M  V30 9375 C 866.111 3.9899 3.43065 0
M  V30 9376 O 865.137 4.69725 3.21477 0
M  V30 9377 N 866.339 3.46496 4.65748 0
M  V30 9378 H 869.104 2.93167 0.622336 0
M  V30 9379 H 866.665 1.60752 0.192488 0
M  V30 9380 H 868.657 2.56863 3.12735 0
M  V30 9381 H 867.227 1.60349 2.68341 0
M  V30 9382 H 866.447 3.70277 1.35235 0
M  V30 9383 H 867.735 4.59865 2.17719 0
M  V30 9384 H 867.133 2.89206 4.86186 0
M  V30 9385 H 865.69 3.65675 5.3956 0
M  V30 9386 N 869.123 -0.277682 1.55134 0
M  V30 9387 C 870.351 -1.02826 1.7954 0
M  V30 9388 C 870.766 -1.80105 0.566373 0
M  V30 9389 O 870.123 -1.76491 -0.464448 0
M  V30 9390 C 870.174 -1.99053 3.01762 0
M  V30 9391 O 869.895 -1.24906 4.19917 0
M  V30 9392 C 871.396 -2.85961 3.38735 0
M  V30 9393 H 868.616 -0.303958 0.598206 0
M  V30 9394 H 871.16 -0.309884 2.02138 0
M  V30 9395 H 869.315 -2.66359 2.81303 0
M  V30 9396 H 869.729 -1.89725 4.88983 0
M  V30 9397 H 871.203 -3.49286 4.27438 0
M  V30 9398 H 871.68 -3.55486 2.57928 0
M  V30 9399 H 872.286 -2.24152 3.61436 0
M  V30 9400 N 870.601 -1.47988 -0.541979 0
M  V30 9401 C 871.847 -1.55623 -1.30036 0
M  V30 9402 C 872.18 -0.224254 -1.92901 0
M  V30 9403 O 871.455 0.768629 -1.78668 0
M  V30 9404 C 871.738 -2.68562 -2.39888 0
M  V30 9405 C 871.591 -4.11426 -1.81792 0
M  V30 9406 C 872.91 -2.77325 -3.41729 0
M  V30 9407 H 870.029 -0.566498 -0.471433 0
M  V30 9408 H 872.671 -1.8011 -0.604998 0
M  V30 9409 H 870.821 -2.47814 -2.992 0
M  V30 9410 H 872.493 -4.43581 -1.26624 0
M  V30 9411 H 870.736 -4.18989 -1.12386 0
M  V30 9412 H 871.407 -4.8625 -2.61276 0
M  V30 9413 H 873.883 -2.96085 -2.92357 0
M  V30 9414 H 872.759 -3.58097 -4.16002 0
M  V30 9415 H 873.02 -1.84995 -4.01534 0
M  V30 9416 N 872.079 0.78992 -1.36375 0
M  V30 9417 C 873.304 1.58389 -1.33895 0
M  V30 9418 C 873.729 1.8794 0.0774934 0
M  V30 9419 O 873.087 1.4785 1.0493 0
M  V30 9420 C 873.135 2.88201 -2.16732 0
M  V30 9421 O 872.239 3.81778 -1.55946 0
M  V30 9422 H 871.58 0.480471 -0.458305 0
M  V30 9423 H 874.11 0.979119 -1.79651 0
M  V30 9424 H 874.12 3.37475 -2.29292 0
M  V30 9425 H 872.795 2.66019 -3.19698 0
M  V30 9426 H 871.372 3.40371 -1.52323 0
M  V30 9427 N 873.557 1.20646 1.01402 0
M  V30 9428 C 874.806 1.01242 1.7445 0
M  V30 9429 C 875.119 -0.455732 1.90217 0
M  V30 9430 O 876.325 -0.768951 2.60383 0
M  V30 9431 C 874.781 1.76275 3.13776 0
M  V30 9432 C 874.389 3.27201 3.06013 0
M  V30 9433 C 876.133 1.65248 3.91016 0
M  V30 9434 C 874.04 3.9476 4.40362 0
M  V30 9435 H 872.97 0.375202 0.654018 0
M  V30 9436 H 875.621 1.44292 1.13367 0
M  V30 9437 H 874.003 1.26013 3.75415 0
M  V30 9438 H 875.177 3.84695 2.53665 0
M  V30 9439 H 873.492 3.38669 2.42265 0
M  V30 9440 H 876.089 2.13061 4.90417 0
M  V30 9441 H 876.432 0.609128 4.1182 0
M  V30 9442 H 876.965 2.12937 3.3601 0
M  V30 9443 H 873.704 4.99258 4.24761 0
M  V30 9444 H 873.224 3.42054 4.92706 0
M  V30 9445 H 874.903 3.99159 5.09196 0
M  V30 9446 N 875.035 -1.20752 1.01276 0
M  V30 9447 C 875.965 -2.25658 0.600064 0
M  V30 9448 C 876.946 -1.65733 -0.38298 0
M  V30 9449 O 878.131 -1.92324 -0.269256 0
M  V30 9450 C 875.261 -3.47237 -0.0663197 0
M  V30 9451 C 874.215 -4.1973 0.83731 0
M  V30 9452 C 873.541 -5.34687 0.0369102 0
M  V30 9453 C 874.841 -4.76286 2.14357 0
M  V30 9454 H 876.535 -2.60432 1.477 0
M  V30 9455 H 874.081 -1.25187 0.711634 0
M  V30 9456 H 876.034 -4.19803 -0.366563 0
M  V30 9457 H 874.758 -3.11615 -0.977944 0
M  V30 9458 H 873.417 -3.49024 1.1215 0
M  V30 9459 H 873.065 -4.95309 -0.876244 0
M  V30 9460 H 872.765 -5.84119 0.63865 0
M  V30 9461 H 874.289 -6.10059 -0.256968 0
M  V30 9462 H 875.703 -5.40691 1.90595 0
M  V30 9463 H 874.1 -5.36139 2.69583 0
M  V30 9464 H 875.17 -3.9524 2.80916 0
M  V30 9465 N 876.513 -0.788492 -1.36457 0
M  V30 9466 C 877.445 -0.144208 -2.28746 0
M  V30 9467 C 878.458 0.646009 -1.49434 0
M  V30 9468 O 879.647 0.481344 -1.71888 0
M  V30 9469 C 876.747 0.818869 -3.28858 0
M  V30 9470 C 875.92 0.0789055 -4.37329 0
M  V30 9471 C 874.979 0.957791 -5.1741 0
M  V30 9472 O 874.005 0.415378 -5.67682 0
M  V30 9473 N 875.207 2.28216 -5.33758 0
M  V30 9474 H 877.972 -0.936949 -2.84678 0
M  V30 9475 H 875.533 -0.642317 -1.48613 0
M  V30 9476 H 877.525 1.41065 -3.79319 0
M  V30 9477 H 876.095 1.51249 -2.73573 0
M  V30 9478 H 875.315 -0.693939 -3.88044 0
M  V30 9479 H 876.603 -0.431753 -5.06965 0
M  V30 9480 H 876.001 2.747 -4.94527 0
M  V30 9481 H 874.558 2.8236 -5.87466 0
M  V30 9482 N 877.991 1.48044 -0.54043 0
M  V30 9483 C 878.921 2.32597 0.205178 0
M  V30 9484 C 879.902 1.42748 0.925041 0
M  V30 9485 O 881.087 1.71624 0.908784 0
M  V30 9486 C 878.217 3.24175 1.24612 0
M  V30 9487 C 877.171 4.23131 0.64376 0
M  V30 9488 C 876.497 5.03915 1.78812 0
M  V30 9489 C 877.797 5.20831 -0.39144 0
M  V30 9490 H 879.491 2.95184 -0.500676 0
M  V30 9491 H 877.037 1.41948 -0.242225 0
M  V30 9492 H 878.99 3.82158 1.77576 0
M  V30 9493 H 877.714 2.59608 1.98169 0
M  V30 9494 H 876.373 3.66349 0.135554 0
M  V30 9495 H 876.021 4.35765 2.51232 0
M  V30 9496 H 875.721 5.709 1.39094 0
M  V30 9497 H 877.245 5.64753 2.32134 0
M  V30 9498 H 878.659 5.73277 0.0515064 0
M  V30 9499 H 877.056 5.95926 -0.706569 0
M  V30 9500 H 878.126 4.6733 -1.29345 0
M  V30 9501 N 879.47 0.276058 1.55163 0
M  V30 9502 C 880.38 -0.621066 2.2623 0
M  V30 9503 C 881.396 -1.16931 1.28853 0
M  V30 9504 O 882.572 -1.1994 1.61791 0
M  V30 9505 C 879.637 -1.78824 2.97023 0
M  V30 9506 C 878.698 -1.27657 4.09881 0
M  V30 9507 C 877.931 -2.38812 4.77289 0
M  V30 9508 O 878.154 -3.58188 4.43912 0
M  V30 9509 O 877.088 -2.06915 5.65217 0
M  V30 9510 H 880.914 -0.0453346 3.03666 0
M  V30 9511 H 878.499 0.0434275 1.49337 0
M  V30 9512 H 880.381 -2.46877 3.41511 0
M  V30 9513 H 879.056 -2.35104 2.22503 0
M  V30 9514 H 877.963 -0.56248 3.69847 0
M  V30 9515 H 879.296 -0.759509 4.86305 0
M  V30 9516 N 880.948 -1.576 0.00335426 0
M  V30 9517 C 882.196 -1.90336 -0.679446 0
M  V30 9518 C 882.517 -0.877777 -1.74127 0
M  V30 9519 O 881.787 0.0843585 -1.95718 0
M  V30 9520 H 880.367 -0.702509 -0.253948 0
M  V30 9521 H 883.029 -1.94848 0.0450731 0
M  V30 9522 H 882.125 -2.90197 -1.14857 0
M  V30 9523 N 882.426 0.269451 -1.5528 0
M  V30 9524 C 883.376 1.33553 -1.84791 0
M  V30 9525 C 884.36 1.44532 -0.707067 0
M  V30 9526 O 885.552 1.48153 -0.968493 0
M  V30 9527 C 882.681 2.69516 -2.12641 0
M  V30 9528 C 881.767 2.62633 -3.32993 0
M  V30 9529 N 882.158 2.25371 -4.52815 0
M  V30 9530 C 880.456 2.93688 -3.35654 0
M  V30 9531 C 881.157 2.28567 -5.34913 0
M  V30 9532 N 880.133 2.67181 -4.73408 0
M  V30 9533 H 883.935 1.03758 -2.74976 0
M  V30 9534 H 881.449 0.478087 -1.55203 0
M  V30 9535 H 883.446 3.46424 -2.3194 0
M  V30 9536 H 882.106 3.00197 -1.23742 0
M  V30 9537 H 883.117 1.9729 -4.7885 0
M  V30 9538 H 879.794 3.29057 -2.56958 0
M  V30 9539 H 881.184 2.02289 -6.40725 0
M  V30 9540 N 883.904 1.48273 0.534124 0
M  V30 9541 C 884.852 1.62926 1.66005 0
M  V30 9542 C 885.846 0.495814 1.61982 0
M  V30 9543 O 887.052 0.6744 1.66889 0
M  V30 9544 H 883.427 0.513163 0.549698 0
M  V30 9545 H 885.398 2.57498 1.50789 0
M  V30 9546 C 884.147 1.68231 3.04292 0
M  V30 9547 H 883.47 2.54807 3.0808 0
M  V30 9548 H 884.91 1.82528 3.827 0
M  V30 9549 C 883.369 0.420154 3.3427 0
M  V30 9550 O 883.899 -0.468769 3.98955 0
M  V30 9551 N 882.105 0.293115 2.89118 0
M  V30 9552 H 881.652 1.01745 2.36655 0
M  V30 9553 H 881.61 -0.550376 3.09545 0
M  V30 9554 N 885.382 -0.782676 1.36792 0
M  V30 9555 C 886.631 -1.53605 1.30723 0
M  V30 9556 C 886.944 -1.95294 -0.109296 0
M  V30 9557 O 888.15 -2.69921 -0.292398 0
M  V30 9558 C 886.606 -2.77321 2.29393 0
M  V30 9559 C 886.214 -2.42774 3.76517 0
M  V30 9560 C 887.958 -3.55289 2.32314 0
M  V30 9561 C 885.865 -3.62926 4.66947 0
M  V30 9562 H 884.795 -0.576646 0.485794 0
M  V30 9563 H 887.446 -0.858255 1.62192 0
M  V30 9564 H 885.828 -3.46934 1.90927 0
M  V30 9565 H 887.002 -1.81014 4.23758 0
M  V30 9566 H 885.317 -1.78002 3.76436 0
M  V30 9567 H 887.914 -4.44573 2.97083 0
M  V30 9568 H 888.257 -3.94361 1.3336 0
M  V30 9569 H 888.79 -2.92662 2.69432 0
M  V30 9570 H 885.529 -3.28944 5.66989 0
M  V30 9571 H 885.049 -4.23828 4.24418 0
M  V30 9572 H 886.728 -4.29873 4.83548 0
M  V30 9573 N 886.86 -1.21182 -1.00761 0
M  V30 9574 C 888.107 -1.02746 -1.74498 0
M  V30 9575 C 888.435 0.439344 -1.89473 0
M  V30 9576 O 887.69 1.34232 -1.42409 0
M  V30 9577 C 887.989 -1.6667 -3.16158 0
M  V30 9578 C 887.655 -3.16515 -3.21137 0
M  V30 9579 C 886.317 -3.57405 -3.22203 0
M  V30 9580 C 888.669 -4.12495 -3.18587 0
M  V30 9581 C 885.997 -4.92786 -3.18401 0
M  V30 9582 C 888.349 -5.47833 -3.16326 0
M  V30 9583 C 887.013 -5.88124 -3.157 0
M  V30 9584 H 886.283 -0.375974 -0.638533 0
M  V30 9585 H 888.93 -1.50736 -1.18114 0
M  V30 9586 H 887.235 -1.10966 -3.75758 0
M  V30 9587 H 888.932 -1.49911 -3.71924 0
M  V30 9588 H 885.522 -2.83947 -3.21048 0
M  V30 9589 H 889.706 -3.81932 -3.16925 0
M  V30 9590 H 884.962 -5.23253 -3.16253 0
M  V30 9591 H 889.136 -6.21942 -3.13306 0
M  V30 9592 H 886.763 -6.92995 -3.12508 0
M  V30 9593 N 888.338 1.20213 -1.01915 0
M  V30 9594 C 889.563 1.94163 -0.729076 0
M  V30 9595 C 889.988 1.74416 0.704323 0
M  V30 9596 O 889.346 1.0401 1.48498 0
M  V30 9597 C 889.394 3.44258 -1.07324 0
M  V30 9598 O 888.498 4.11979 -0.186367 0
M  V30 9599 H 887.839 0.606506 -0.270272 0
M  V30 9600 H 890.369 1.52571 -1.3632 0
M  V30 9601 H 890.379 3.94888 -1.02603 0
M  V30 9602 H 889.054 3.57954 -2.11759 0
M  V30 9603 H 887.631 3.7176 -0.291334 0
M  V30 9604 N 889.816 0.795718 1.36037 0
M  V30 9605 C 891.044 0.383153 2.03321 0
M  V30 9606 C 891.459 -1.00246 1.59988 0
M  V30 9607 O 890.816 -1.64406 0.792265 0
M  V30 9608 C 890.867 0.444467 3.58757 0
M  V30 9609 O 890.588 1.77544 4.00512 0
M  V30 9610 C 892.089 0.0233291 4.43294 0
M  V30 9611 H 889.309 0.157061 0.652359 0
M  V30 9612 H 891.853 1.07632 1.73884 0
M  V30 9613 H 890.008 -0.200341 3.86882 0
M  V30 9614 H 890.422 1.73065 4.95125 0
M  V30 9615 H 891.896 0.117361 5.51875 0
M  V30 9616 H 892.373 -1.03007 4.2695 0
M  V30 9617 H 892.979 0.64087 4.20444 0
M  V30 9618 N 891.294 -1.47756 0.548274 0
M  V30 9619 C 892.224 -2.32702 -0.19284 0
M  V30 9620 C 893.205 -1.43237 -0.917457 0
M  V30 9621 O 894.39 -1.72103 -0.89967 0
M  V30 9622 C 891.52 -3.24831 -1.22891 0
M  V30 9623 C 890.474 -4.23466 -0.621312 0
M  V30 9624 C 889.8 -5.04856 -1.76137 0
M  V30 9625 C 891.1 -5.20616 0.419055 0
M  V30 9626 H 892.794 -2.94914 0.516323 0
M  V30 9627 H 890.34 -1.41818 0.24975 0
M  V30 9628 H 892.293 -3.83094 -1.75547 0
M  V30 9629 H 891.017 -2.60656 -1.9679 0
M  V30 9630 H 889.676 -3.66416 -0.116123 0
M  V30 9631 H 889.324 -4.37091 -2.48918 0
M  V30 9632 H 889.024 -5.71629 -1.36065 0
M  V30 9633 H 890.548 -5.65976 -2.29136 0
M  V30 9634 H 891.962 -5.73296 -0.0211034 0
M  V30 9635 H 890.359 -5.95543 0.738163 0
M  V30 9636 H 891.429 -4.66638 1.31822 0
M  V30 9637 N 892.772 -0.284283 -1.55015 0
M  V30 9638 C 893.997 0.335799 -2.04664 0
M  V30 9639 C 894.422 1.47999 -1.16094 0
M  V30 9640 O 893.78 1.8058 -0.161454 0
M  V30 9641 C 893.828 0.785615 -3.51938 0
M  V30 9642 O 892.932 1.89202 -3.66437 0
M  V30 9643 H 892.273 0.0680233 -0.660506 0
M  V30 9644 H 894.803 -0.421255 -2.00216 0
M  V30 9645 H 894.813 1.07892 -3.93476 0
M  V30 9646 H 893.488 -0.0514675 -4.15868 0
M  V30 9647 H 892.065 1.60055 -3.36804 0
M  V30 9648 N 894.251 1.57596 -0.0117121 0
M  V30 9649 C 895.476 1.95764 0.684938 0
M  V30 9650 C 895.901 0.887285 1.65858 0
M  V30 9651 O 895.259 -0.153508 1.80649 0
M  V30 9652 C 895.307 3.33031 1.38285 0
M  V30 9653 O 894.411 3.28163 2.49765 0
M  V30 9654 H 893.752 0.638767 0.181309 0
M  V30 9655 H 896.282 2.04486 -0.0683883 0
M  V30 9656 H 896.292 3.68866 1.74362 0
M  V30 9657 H 894.967 4.10483 0.669043 0
M  V30 9658 H 893.544 3.04021 2.15929 0
M  V30 9659 N 895.729 -0.261212 1.5542 0
M  V30 9660 C 896.954 -1.01341 1.80955 0
M  V30 9661 C 897.379 -1.78711 0.586849 0
M  V30 9662 O 896.737 -1.75266 -0.463837 0
M  V30 9663 C 896.785 -1.93835 3.04073 0
M  V30 9664 O 895.889 -3.02791 2.79985 0
M  V30 9665 H 895.23 -0.289123 0.597749 0
M  V30 9666 H 897.76 -0.286543 2.02584 0
M  V30 9667 H 897.77 -2.3557 3.33123 0
M  V30 9668 H 896.445 -1.36936 3.9271 0
M  V30 9669 H 895.022 -2.65287 2.62063 0
M  V30 9670 N 897.207 -1.48554 -0.526253 0
M  V30 9671 C 898.117 -1.66044 -1.65731 0
M  V30 9672 C 899.133 -0.542951 -1.65312 0
M  V30 9673 O 900.309 -0.814495 -1.84195 0
M  V30 9674 C 897.374 -1.69959 -3.02184 0
M  V30 9675 C 896.435 -2.93362 -3.13428 0
M  V30 9676 C 895.668 -2.97081 -4.43372 0
M  V30 9677 O 895.891 -2.09103 -5.3069 0
M  V30 9678 O 894.825 -3.8929 -4.59061 0
M  V30 9679 H 898.651 -2.61811 -1.53912 0
M  V30 9680 H 896.236 -1.31999 -0.699759 0
M  V30 9681 H 898.118 -1.75033 -3.83329 0
M  V30 9682 H 896.793 -0.773658 -3.14319 0
M  V30 9683 H 895.7 -2.93818 -2.31564 0
M  V30 9684 H 897.033 -3.85352 -3.06211 0
M  V30 9685 N 898.685 0.775411 -1.37205 0
M  V30 9686 C 899.915 1.56219 -1.352 0
M  V30 9687 C 900.323 1.89087 0.065456 0
M  V30 9688 O 899.666 1.51655 1.03665 0
M  V30 9689 C 899.728 2.9019 -2.12203 0
M  V30 9690 C 899.392 2.79978 -3.61195 0
M  V30 9691 C 900.389 2.51258 -4.55154 0
M  V30 9692 C 898.074 2.98115 -4.04268 0
M  V30 9693 C 900.068 2.40798 -5.90165 0
M  V30 9694 C 897.755 2.87276 -5.39366 0
M  V30 9695 C 898.753 2.58657 -6.32128 0
M  V30 9696 O 898.441 2.47838 -7.64743 0
M  V30 9697 H 898.173 0.490735 -0.464925 0
M  V30 9698 H 900.727 0.969201 -1.81096 0
M  V30 9699 H 898.957 3.51594 -1.60992 0
M  V30 9700 H 900.646 3.51561 -2.02879 0
M  V30 9701 H 901.412 2.36935 -4.23186 0
M  V30 9702 H 897.291 3.19392 -3.3243 0
M  V30 9703 H 900.835 2.18381 -6.62537 0
M  V30 9704 H 896.732 3.01166 -5.70937 0
M  V30 9705 H 897.5 2.63215 -7.75023 0
M  V30 9706 N 900.163 1.21714 1.00117 0
M  V30 9707 C 901.073 0.99597 2.12409 0
M  V30 9708 C 902.089 -0.0531431 1.73919 0
M  V30 9709 O 903.265 0.137757 2.00928 0
M  V30 9710 C 900.33 0.567593 3.42022 0
M  V30 9711 C 899.391 1.68936 3.94663 0
M  V30 9712 C 898.624 1.28133 5.1809 0
M  V30 9713 O 898.847 0.156574 5.70185 0
M  V30 9714 O 897.781 2.0947 5.64275 0
M  V30 9715 H 901.607 1.93657 2.33946 0
M  V30 9716 H 899.192 1.00236 1.10784 0
M  V30 9717 H 901.074 0.338664 4.20037 0
M  V30 9718 H 899.749 -0.34424 3.21864 0
M  V30 9719 H 898.656 1.97274 3.17858 0
M  V30 9720 H 899.989 2.57876 4.19238 0
M  V30 9721 N 901.641 -1.19671 1.02551 0
M  V30 9722 C 902.573 -2.22215 0.561517 0
M  V30 9723 C 903.586 -1.58751 -0.360821 0
M  V30 9724 O 904.775 -1.77802 -0.157749 0
M  V30 9725 C 901.875 -3.383 -0.201494 0
M  V30 9726 C 901.048 -4.3135 0.724952 0
M  V30 9727 C 900.107 -5.26199 0.00794334 0
M  V30 9728 O 899.133 -5.65665 0.633398 0
M  V30 9729 N 900.335 -5.66573 -1.26394 0
M  V30 9730 H 903.1 -2.6265 1.44343 0
M  V30 9731 H 900.661 -1.34303 0.904122 0
M  V30 9732 H 902.653 -3.98764 -0.690625 0
M  V30 9733 H 901.223 -2.96683 -0.98479 0
M  V30 9734 H 900.443 -3.6872 1.39423 0
M  V30 9735 H 901.731 -4.90433 1.35472 0
M  V30 9736 H 901.129 -5.36538 -1.79287 0
M  V30 9737 H 899.686 -6.29304 -1.69763 0
M  V30 9738 N 903.119 -0.802921 -1.35613 0
M  V30 9739 C 904.365 -0.382141 -1.99167 0
M  V30 9740 C 904.698 1.04704 -1.63556 0
M  V30 9741 O 903.973 1.72578 -0.89706 0
M  V30 9742 C 904.256 -0.561493 -3.55695 0
M  V30 9743 C 904.109 -2.03534 -4.01116 0
M  V30 9744 C 905.428 0.0151135 -4.40097 0
M  V30 9745 H 902.547 -0.140322 -0.723518 0
M  V30 9746 H 905.189 -1.01177 -1.6082 0
M  V30 9747 H 903.339 -0.0255083 -3.88492 0
M  V30 9748 H 905.011 -2.63343 -3.78746 0
M  V30 9749 H 903.254 -2.5331 -3.52159 0
M  V30 9750 H 903.925 -2.11173 -5.1001 0
M  V30 9751 H 906.401 -0.442582 -4.1374 0
M  V30 9752 H 905.277 -0.140316 -5.48721 0
M  V30 9753 H 905.538 1.10848 -4.27978 0
M  V30 9754 N 904.597 1.47463 -0.556102 0
M  V30 9755 C 905.527 2.32801 0.180497 0
M  V30 9756 C 906.508 1.43721 0.909848 0
M  V30 9757 O 907.693 1.72578 0.89053 0
M  V30 9758 C 904.823 3.25478 1.21167 0
M  V30 9759 C 903.777 4.2379 0.598846 0
M  V30 9760 C 903.103 5.05783 1.73457 0
M  V30 9761 C 904.403 5.20387 -0.446659 0
M  V30 9762 H 906.097 2.94636 -0.531956 0
M  V30 9763 H 903.643 1.41683 -0.257267 0
M  V30 9764 H 905.596 3.8402 1.73513 0
M  V30 9765 H 904.32 2.61695 1.95405 0
M  V30 9766 H 902.979 3.66472 0.0966897 0
M  V30 9767 H 902.627 4.38405 2.46596 0
M  V30 9768 H 902.327 5.72343 1.33031 0
M  V30 9769 H 903.851 5.67183 2.26131 0
M  V30 9770 H 905.265 5.73299 -0.00930019 0
M  V30 9771 H 903.662 5.95143 -0.769735 0
M  V30 9772 H 904.732 4.65932 -1.34295 0
M  V30 9773 N 906.075 0.2925 1.54862 0
M  V30 9774 C 906.985 -0.597036 2.26876 0
M  V30 9775 C 908.001 -1.15558 1.30086 0
M  V30 9776 O 909.177 -1.18217 1.63054 0
M  V30 9777 C 906.242 -1.75664 2.98903 0
M  V30 9778 C 905.303 -1.23303 4.11212 0
M  V30 9779 C 904.536 -2.33736 4.79795 0
M  V30 9780 O 904.759 -3.53459 4.47686 0
M  V30 9781 O 903.693 -2.00908 5.67379 0
M  V30 9782 H 907.519 -0.0131242 3.03697 0
M  V30 9783 H 905.104 0.0592642 1.49282 0
M  V30 9784 H 906.986 -2.43241 3.4411 0
M  V30 9785 H 905.661 -2.32731 2.24984 0
M  V30 9786 H 904.568 -0.523222 3.70423 0
M  V30 9787 H 905.901 -0.707887 4.87083 0
M  V30 9788 N 907.553 -1.57587 0.0200696 0
M  V30 9789 C 908.802 -1.90602 -0.659822 0
M  V30 9790 C 909.115 -0.897216 -1.73808 0
M  V30 9791 O 910.321 -1.11829 -2.47399 0
M  V30 9792 C 908.777 -3.38416 -1.22484 0
M  V30 9793 C 908.385 -4.47637 -0.180339 0
M  V30 9794 C 910.129 -3.80513 -1.88176 0
M  V30 9795 C 908.036 -5.86542 -0.756482 0
M  V30 9796 H 906.966 -0.711272 -0.250216 0
M  V30 9797 H 909.617 -1.83308 0.0838942 0
M  V30 9798 H 907.999 -3.40613 -2.01987 0
M  V30 9799 H 909.173 -4.56987 0.591573 0
M  V30 9800 H 907.488 -4.14687 0.377302 0
M  V30 9801 H 910.085 -4.8164 -2.32222 0
M  V30 9802 H 910.428 -3.15091 -2.72073 0
M  V30 9803 H 910.961 -3.80701 -1.15377 0
M  V30 9804 H 907.7 -6.55485 0.0441468 0
M  V30 9805 H 907.22 -5.80816 -1.49709 0
M  V30 9806 H 908.899 -6.3483 -1.249 0
M  V30 9807 N 909.032 0.252966 -1.55557 0
M  V30 9808 C 910.281 0.979736 -1.76307 0
M  V30 9809 C 910.594 1.86714 -0.582871 0
M  V30 9810 O 911.8 2.6302 -0.673247 0
M  V30 9811 C 910.256 1.79205 -3.12112 0
M  V30 9812 C 909.864 0.952333 -4.37761 0
M  V30 9813 C 911.608 2.51191 -3.42203 0
M  V30 9814 C 909.515 1.76018 -5.64599 0
M  V30 9815 H 908.445 0.369538 -0.657235 0
M  V30 9816 H 911.096 0.234619 -1.81994 0
M  V30 9817 H 909.478 2.57888 -3.00515 0
M  V30 9818 H 910.652 0.208251 -4.60329 0
M  V30 9819 H 908.967 0.346082 -4.14959 0
M  V30 9820 H 911.564 3.12074 -4.34182 0
M  V30 9821 H 911.907 3.22499 -2.63249 0
M  V30 9822 H 912.44 1.79523 -3.54988 0
M  V30 9823 H 909.179 1.09095 -6.46358 0
M  V30 9824 H 908.699 2.4797 -5.46142 0
M  V30 9825 H 910.378 2.32884 -6.03634 0
M  V30 9826 N 910.51 1.48831 0.518367 0
M  V30 9827 C 911.926 1.35209 0.847979 0
M  V30 9828 C 912.126 0.371927 1.98038 0
M  V30 9829 O 911.182 -0.202681 2.51685 0
M  V30 9830 C 912.495 2.7552 1.20455 0
M  V30 9831 C 914.043 2.84094 1.31377 0
M  V30 9832 C 914.518 4.25132 1.70372 0
M  V30 9833 N 916.009 4.27861 1.77453 0
M  V30 9834 C 916.744 5.3394 2.09035 0
M  V30 9835 N 916.24 6.50285 2.3896 0
M  V30 9836 N 918.033 5.21343 2.10139 0
M  V30 9837 H 910.184 2.11166 -0.228624 0
M  V30 9838 H 912.447 0.94717 -0.0396599 0
M  V30 9839 H 912.153 3.48861 0.445991 0
M  V30 9840 H 912.027 3.09785 2.15204 0
M  V30 9841 H 914.414 2.11001 2.06307 0
M  V30 9842 H 914.495 2.53433 0.347203 0
M  V30 9843 H 914.139 4.98745 0.959975 0
M  V30 9844 H 914.069 4.53245 2.68098 0
M  V30 9845 H 916.56 3.43945 1.56557 0
M  V30 9846 H 916.873 7.26961 2.62196 0
M  V30 9847 H 915.218 6.5354 2.36454 0
M  V30 9848 H 918.409 4.29462 1.86225 0
M  V30 9849 H 918.582 6.04112 2.34419 0
M  V30 9850 N 911.988 -0.768124 1.37614 0
M  V30 9851 C 912.935 -1.88151 1.33671 0
M  V30 9852 C 913.905 -1.64871 0.201645 0
M  V30 9853 O 915.09 -1.86739 0.391582 0
M  V30 9854 C 912.23 -3.25264 1.15314 0
M  V30 9855 C 911.343 -3.60473 2.38082 0
M  V30 9856 C 910.478 -4.86814 2.12569 0
M  V30 9857 C 909.517 -5.14765 3.31184 0
M  V30 9858 N 908.654 -6.32295 3.052 0
M  V30 9859 H 913.494 -1.90857 2.28862 0
M  V30 9860 H 911.031 -0.933048 1.13722 0
M  V30 9861 H 912.989 -4.04364 1.02691 0
M  V30 9862 H 911.619 -3.21924 0.237689 0
M  V30 9863 H 910.671 -2.7633 2.61431 0
M  V30 9864 H 911.983 -3.77065 3.26532 0
M  V30 9865 H 911.137 -5.73826 1.96999 0
M  V30 9866 H 909.876 -4.72333 1.21462 0
M  V30 9867 H 908.881 -4.26227 3.4729 0
M  V30 9868 H 910.106 -5.31153 4.23147 0
M  V30 9869 H 908.052 -6.19166 2.16726 0
M  V30 9870 H 907.969 -6.4932 3.87195 0
M  V30 9871 H 909.237 -7.22234 2.93254 0
M  V30 9872 N 913.466 -1.22244 -0.994698 0
M  V30 9873 C 914.429 -0.992308 -2.06606 0
M  V30 9874 C 915.429 0.0405872 -1.60749 0
M  V30 9875 O 916.619 -0.197737 -1.73074 0
M  V30 9876 C 913.751 -0.498499 -3.37236 0
M  V30 9877 H 914.944 -1.9429 -2.28455 0
M  V30 9878 H 912.497 -1.04087 -1.166 0
M  V30 9879 H 913.232 0.456531 -3.21071 0
M  V30 9880 H 913.017 -1.24367 -3.71854 0
M  V30 9881 H 914.507 -0.35768 -4.16065 0
M  V30 9882 N 914.944 1.19125 -1.03184 0
M  V30 9883 C 916.193 1.8821 -0.725264 0
M  V30 9884 C 916.506 1.80674 0.749411 0
M  V30 9885 O 917.712 2.45037 1.16915 0
M  V30 9886 C 916.168 3.37607 -1.24697 0
M  V30 9887 C 915.776 3.53693 -2.74964 0
M  V30 9888 C 917.52 4.12149 -1.01652 0
M  V30 9889 C 915.427 4.97001 -3.20538 0
M  V30 9890 H 914.357 0.704916 -0.267599 0
M  V30 9891 H 917.008 1.34663 -1.24652 0
M  V30 9892 H 915.39 3.90569 -0.653614 0
M  V30 9893 H 916.564 3.11046 -3.39981 0
M  V30 9894 H 914.879 2.92544 -2.96322 0
M  V30 9895 H 917.476 5.17837 -1.33226 0
M  V30 9896 H 917.819 4.16274 0.0465712 0
M  V30 9897 H 918.352 3.65334 -1.57403 0
M  V30 9898 H 915.091 4.9804 -4.26189 0
M  V30 9899 H 914.611 5.40398 -2.60251 0
M  V30 9900 H 916.29 5.65669 -3.14049 0
M  V30 9901 N 916.422 0.810101 1.35185 0
M  V30 9902 C 917.671 0.388589 1.97921 0
M  V30 9903 C 917.984 -1.05079 1.64978 0
M  V30 9904 O 919.19 -1.57559 2.21105 0
M  V30 9905 C 917.646 0.643864 3.54094 0
M  V30 9906 C 917.254 2.09602 3.95943 0
M  V30 9907 C 918.998 0.287883 4.23523 0
M  V30 9908 C 916.905 2.29686 5.44976 0
M  V30 9909 H 915.835 0.141562 0.740592 0
M  V30 9910 H 918.486 0.994653 1.54204 0
M  V30 9911 H 916.868 -0.0321978 3.95987 0
M  V30 9912 H 918.042 2.81018 3.65192 0
M  V30 9913 H 916.357 2.4122 3.39414 0
M  V30 9914 H 918.954 0.415946 5.3308 0
M  V30 9915 H 919.297 -0.766305 4.09186 0
M  V30 9916 H 919.83 0.918004 3.87063 0
M  V30 9917 H 916.569 3.33563 5.64284 0
M  V30 9918 H 916.089 1.62798 5.77284 0
M  V30 9919 H 917.768 2.11411 6.11485 0
M  V30 9920 N 917.9 -1.47166 0.563914 0
M  V30 9921 C 918.863 -2.28571 -0.169624 0
M  V30 9922 C 919.863 -1.37331 -0.836467 0
M  V30 9923 O 921.053 -1.59896 -0.6913 0
M  V30 9924 C 918.185 -3.17201 -1.24886 0
M  V30 9925 H 919.378 -2.94896 0.545539 0
M  V30 9926 H 916.931 -1.52966 0.321121 0
M  V30 9927 H 917.666 -2.55582 -1.99621 0
M  V30 9928 H 917.451 -3.84356 -0.775426 0
M  V30 9929 H 918.941 -3.7852 -1.76388 0
M  V30 9930 N 919.378 -0.300708 -1.54705 0
M  V30 9931 C 920.606 0.31127 -2.04545 0
M  V30 9932 C 921.021 1.47542 -1.178 0
M  V30 9933 O 920.378 1.81361 -0.203571 0
M  V30 9934 C 920.429 0.767783 -3.53253 0
M  V30 9935 O 920.15 -0.350027 -4.36699 0
M  V30 9936 C 921.651 1.44494 -4.1909 0
M  V30 9937 H 918.871 0.067668 -0.667579 0
M  V30 9938 H 921.415 -0.440254 -1.99705 0
M  V30 9939 H 919.57 1.46933 -3.58454 0
M  V30 9940 H 919.984 0.00534038 -5.245 0
M  V30 9941 H 921.458 1.71553 -5.24665 0
M  V30 9942 H 921.935 2.3849 -3.68808 0
M  V30 9943 H 922.541 0.786581 -4.17963 0
M  V30 9944 N 920.856 1.57574 -0.0284266 0
M  V30 9945 C 922.133 1.83064 0.688979 0
M  V30 9946 C 922.513 0.91219 1.90374 0
M  V30 9947 O 921.861 -0.0323672 2.28477 0
M  V30 9948 C 922.071 3.32262 1.06785 0
M  V30 9949 C 923.419 3.98717 1.45978 0
M  V30 9950 O 924.443 3.36753 1.16085 0
M  V30 9951 O 923.302 5.07927 2.01673 0
M  V30 9952 H 920.396 0.7548 0.337944 0
M  V30 9953 H 922.942 1.69607 -0.0560555 0
M  V30 9954 H 921.714 3.90772 0.203235 0
M  V30 9955 H 921.337 3.50823 1.87107 0
M  V30 9956 N 922.334 -0.244713 1.55689 0
M  V30 9957 C 923.264 -1.30667 1.93516 0
M  V30 9958 C 924.245 -1.50094 0.800371 0
M  V30 9959 O 925.43 -1.62665 1.06083 0
M  V30 9960 C 922.56 -2.66101 2.23176 0
M  V30 9961 C 921.514 -2.61366 3.38927 0
M  V30 9962 C 920.84 -4.00616 3.54134 0
M  V30 9963 C 922.14 -2.18161 4.74555 0
M  V30 9964 H 923.834 -0.992546 2.82469 0
M  V30 9965 H 921.38 -0.476018 1.35905 0
M  V30 9966 H 923.333 -3.4053 2.48228 0
M  V30 9967 H 922.057 -2.99154 1.31051 0
M  V30 9968 H 920.716 -1.89395 3.13887 0
M  V30 9969 H 920.364 -4.30938 2.59426 0
M  V30 9970 H 920.064 -3.98335 4.31975 0
M  V30 9971 H 921.588 -4.76741 3.8151 0
M  V30 9972 H 923.002 -2.82323 4.98965 0
M  V30 9973 H 921.399 -2.26988 5.55515 0
M  V30 9974 H 922.469 -1.13333 4.7147 0
M  V30 9975 N 923.813 -1.49104 -0.510467 0
M  V30 9976 C 924.776 -1.64569 -1.59529 0
M  V30 9977 C 925.776 -0.517937 -1.5223 0
M  V30 9978 O 926.966 -0.784183 -1.55551 0
M  V30 9979 C 924.098 -1.6342 -2.99177 0
M  V30 9980 H 925.291 -2.61318 -1.4715 0
M  V30 9981 H 922.844 -1.37993 -0.734001 0
M  V30 9982 H 923.579 -0.68221 -3.17043 0
M  V30 9983 H 923.364 -2.45312 -3.05883 0
M  V30 9984 H 924.854 -1.77474 -3.78011 0
M  V30 9985 N 925.291 0.760815 -1.38019 0
M  V30 9986 C 926.221 1.88811 -1.37377 0
M  V30 9987 C 927.202 1.68388 -0.240737 0
M  V30 9988 O 928.387 1.89086 -0.442739 0
M  V30 9989 C 925.517 3.26244 -1.1909 0
M  V30 9990 C 924.471 3.61254 -2.29521 0
M  V30 9991 C 923.797 4.97346 -1.96345 0
M  V30 9992 C 925.097 3.66874 -3.71753 0
M  V30 9993 H 926.791 1.89606 -2.31711 0
M  V30 9994 H 924.337 0.910818 -1.11535 0
M  V30 9995 H 926.29 4.04755 -1.17267 0
M  V30 9996 H 925.014 3.2591 -0.212152 0
M  V30 9997 H 923.673 2.85057 -2.30517 0
M  V30 9998 H 923.321 4.93564 -0.969728 0
M  V30 9999 H 923.021 5.21739 -2.703 0
M  V30 10000 H 924.545 5.78244 -1.96129 0
M  V30 10001 H 925.959 4.35514 -3.72828 0
M  V30 10002 H 924.356 4.02772 -4.44853 0
M  V30 10003 H 925.426 2.67273 -4.0459 0
M  V30 10004 N 926.769 1.22769 0.988202 0
M  V30 10005 C 927.999 1.07998 1.76125 0
M  V30 10006 C 928.407 -0.372062 1.85506 0
M  V30 10007 O 927.75 -1.26946 1.3278 0
M  V30 10008 C 927.812 1.6219 3.20834 0
M  V30 10009 C 927.476 3.1086 3.34986 0
M  V30 10010 C 928.473 4.08239 3.21927 0
M  V30 10011 C 926.158 3.50411 3.59886 0
M  V30 10012 C 928.152 5.43154 3.33561 0
M  V30 10013 C 925.839 4.85473 3.71159 0
M  V30 10014 C 926.837 5.81653 3.58006 0
M  V30 10015 O 926.525 7.14263 3.68895 0
M  V30 10016 H 926.257 0.378937 0.559806 0
M  V30 10017 H 928.811 1.62925 1.25078 0
M  V30 10018 H 927.041 1.01676 3.73094 0
M  V30 10019 H 928.73 1.43011 3.79872 0
M  V30 10020 H 929.496 3.79025 3.02597 0
M  V30 10021 H 925.375 2.76068 3.69198 0
M  V30 10022 H 928.919 6.18207 3.23211 0
M  V30 10023 H 924.816 5.14365 3.89998 0
M  V30 10024 H 925.584 7.21906 3.85739 0
M  V30 10025 N 928.247 -1.18576 1.03814 0
M  V30 10026 C 929.494 -1.88493 0.740036 0
M  V30 10027 C 929.822 -1.80198 -0.732056 0
M  V30 10028 O 929.077 -1.19509 -1.54971 0
M  V30 10029 C 929.376 -3.38448 1.14837 0
M  V30 10030 C 929.042 -3.66947 2.62031 0
M  V30 10031 C 927.704 -3.74435 3.02244 0
M  V30 10032 C 930.056 -3.79534 3.57217 0
M  V30 10033 C 927.384 -3.91986 4.36536 0
M  V30 10034 C 929.736 -3.986 4.91223 0
M  V30 10035 C 928.4 -4.04323 5.31111 0
M  V30 10036 H 927.67 -0.689746 0.270798 0
M  V30 10037 H 930.317 -1.40364 1.3027 0
M  V30 10038 H 928.622 -3.88539 0.504472 0
M  V30 10039 H 930.319 -3.90882 0.89511 0
M  V30 10040 H 926.909 -3.61734 2.29883 0
M  V30 10041 H 931.093 -3.73083 3.27296 0
M  V30 10042 H 926.349 -3.9466 4.66962 0
M  V30 10043 H 930.523 -4.07281 5.64885 0
M  V30 10044 H 928.15 -4.17676 6.35178 0
M  V30 10045 N 929.725 -0.817259 -1.34754 0
M  V30 10046 C 930.973 -0.401852 -1.98065 0
M  V30 10047 C 931.294 1.03718 -1.65129 0
M  V30 10048 O 930.564 1.71921 -0.939141 0
M  V30 10049 H 929.144 -0.145603 -0.732672 0
M  V30 10050 H 931.806 -1.04545 -1.64488 0
M  V30 10051 H 930.902 -0.516241 -3.07801 0
M  V30 10052 N 931.203 1.46865 -0.571711 0
M  V30 10053 C 932.151 2.31897 0.180714 0
M  V30 10054 C 933.145 1.43815 0.895191 0
M  V30 10055 O 934.351 1.60501 0.814828 0
M  V30 10056 H 930.726 0.748032 0.077148 0
M  V30 10057 H 932.697 2.93185 -0.555432 0
M  V30 10058 C 931.446 3.26766 1.18824 0
M  V30 10059 H 930.769 3.94515 0.64789 0
M  V30 10060 H 932.209 3.89067 1.68532 0
M  V30 10061 C 930.668 2.51325 2.2436 0
M  V30 10062 O 931.198 2.26825 3.31532 0
M  V30 10063 N 929.404 2.12079 1.98673 0
M  V30 10064 H 928.951 2.32204 1.1153 0
M  V30 10065 H 928.909 1.61921 2.69498 0
M  V30 10066 N 932.681 0.308908 1.54543 0
M  V30 10067 C 934.097 -0.0442273 1.59539 0
M  V30 10068 C 934.297 -1.51743 1.32575 0
M  V30 10069 O 933.353 -2.27134 1.10302 0
M  V30 10070 C 934.666 0.360826 2.98527 0
M  V30 10071 C 936.214 0.310252 3.11459 0
M  V30 10072 C 936.689 0.690246 4.52769 0
M  V30 10073 N 938.18 0.643084 4.58714 0
M  V30 10074 C 938.915 0.909483 5.66141 0
M  V30 10075 N 938.411 1.24226 6.81572 0
M  V30 10076 N 940.204 0.836018 5.55848 0
M  V30 10077 H 932.355 1.26893 1.70329 0
M  V30 10078 H 934.618 0.514986 0.795923 0
M  V30 10079 H 934.324 1.38669 3.23209 0
M  V30 10080 H 934.198 -0.281563 3.76148 0
M  V30 10081 H 936.585 -0.706375 2.86521 0
M  V30 10082 H 936.666 0.987373 2.35976 0
M  V30 10083 H 936.31 1.70472 4.78437 0
M  V30 10084 H 936.24 -0.00903075 5.26599 0
M  V30 10085 H 938.731 0.397138 3.75807 0
M  V30 10086 H 939.044 1.4313 7.5943 0
M  V30 10087 H 937.389 1.28038 6.83104 0
M  V30 10088 H 940.58 0.575637 4.64547 0
M  V30 10089 H 940.753 1.047 6.39486 0
M  V30 10090 N 934.159 -1.57557 0.0367827 0
M  V30 10091 C 935.106 -2.10679 -0.942499 0
M  V30 10092 C 936.076 -1.01068 -1.31812 0
M  V30 10093 O 937.261 -1.28533 -1.41011 0
M  V30 10094 C 934.401 -2.64467 -2.21701 0
M  V30 10095 C 933.514 -3.88114 -1.89715 0
M  V30 10096 C 932.649 -4.30268 -3.11518 0
M  V30 10097 C 931.688 -5.46652 -2.75387 0
M  V30 10098 N 930.825 -5.83927 -3.89838 0
M  V30 10099 H 935.665 -2.94066 -0.482588 0
M  V30 10100 H 933.202 -1.45344 -0.226597 0
M  V30 10101 H 935.16 -2.93745 -2.96259 0
M  V30 10102 H 933.79 -1.83898 -2.65295 0
M  V30 10103 H 932.842 -3.65516 -1.05366 0
M  V30 10104 H 934.154 -4.72743 -1.5911 0
M  V30 10105 H 933.308 -4.61023 -3.94389 0
M  V30 10106 H 932.047 -3.44421 -3.4529 0
M  V30 10107 H 931.052 -5.15583 -1.90929 0
M  V30 10108 H 932.277 -6.34204 -2.42822 0
M  V30 10109 H 930.223 -5.01035 -4.23438 0
M  V30 10110 H 930.14 -6.63214 -3.62883 0
M  V30 10111 H 931.408 -6.19291 -4.73391 0
M  V30 10112 N 935.637 0.236453 -1.55816 0
M  V30 10113 C 936.569 1.31602 -1.87653 0
M  V30 10114 C 937.582 1.43782 -0.763584 0
M  V30 10115 O 938.771 1.44945 -1.04178 0
M  V30 10116 C 935.871 2.69342 -2.05689 0
M  V30 10117 C 935.044 2.79298 -3.36617 0
M  V30 10118 C 934.103 3.97952 -3.44268 0
M  V30 10119 O 933.129 3.86989 -4.17406 0
M  V30 10120 N 934.331 5.11594 -2.74321 0
M  V30 10121 H 937.096 1.04623 -2.80845 0
M  V30 10122 H 934.657 0.426534 -1.5618 0
M  V30 10123 H 936.649 3.47074 -2.08138 0
M  V30 10124 H 935.219 2.88984 -1.19192 0
M  V30 10125 H 934.439 1.8816 -3.46395 0
M  V30 10126 H 935.727 2.82908 -4.22895 0
M  V30 10127 H 935.125 5.23394 -2.14651 0
M  V30 10128 H 933.682 5.87422 -2.8245 0
M  V30 10129 N 937.115 1.49373 0.502552 0
M  V30 10130 C 938.045 1.68839 1.61294 0
M  V30 10131 C 939.026 0.537096 1.61398 0
M  V30 10132 O 940.211 0.772764 1.78163 0
M  V30 10133 C 937.341 1.75347 2.99784 0
M  V30 10134 C 936.295 2.90251 3.14545 0
M  V30 10135 C 935.621 2.8187 4.54371 0
M  V30 10136 C 936.921 4.31207 2.94717 0
M  V30 10137 H 938.615 2.61803 1.45257 0
M  V30 10138 H 936.161 1.25987 0.697371 0
M  V30 10139 H 938.114 1.87552 3.77362 0
M  V30 10140 H 936.838 0.789814 3.16906 0
M  V30 10141 H 935.497 2.77646 2.39392 0
M  V30 10142 H 935.145 1.83416 4.68367 0
M  V30 10143 H 934.845 3.5899 4.65188 0
M  V30 10144 H 936.369 2.96081 5.34012 0
M  V30 10145 H 937.783 4.44501 3.62065 0
M  V30 10146 H 936.18 5.09536 3.17007 0
M  V30 10147 H 937.25 4.45759 1.90857 0
M  V30 10148 N 938.594 -0.753485 1.38421 0
M  V30 10149 C 939.504 -1.89797 1.37892 0
M  V30 10150 C 940.52 -1.71797 0.276023 0
M  V30 10151 O 941.696 -1.94718 0.514464 0
M  V30 10152 C 938.761 -3.25166 1.20284 0
M  V30 10153 C 937.822 -3.55691 2.4038 0
M  V30 10154 C 937.055 -4.84601 2.23602 0
M  V30 10155 O 937.278 -5.56985 1.22979 0
M  V30 10156 O 936.212 -5.14605 3.12194 0
M  V30 10157 H 940.038 -1.93197 2.34326 0
M  V30 10158 H 937.623 -0.898775 1.19342 0
M  V30 10159 H 939.505 -4.06099 1.12525 0
M  V30 10160 H 938.18 -3.22577 0.269352 0
M  V30 10161 H 937.087 -2.74919 2.53714 0
M  V30 10162 H 938.42 -3.6304 3.32359 0
M  V30 10163 N 940.072 -1.23292 -0.981677 0
M  V30 10164 C 940.982 -1.02964 -2.10798 0
M  V30 10165 C 941.998 0.0254674 -1.73981 0
M  V30 10166 O 943.174 -0.169706 -2.00684 0
M  V30 10167 C 940.239 -0.621934 -3.41076 0
M  V30 10168 C 939.3 -1.75194 -3.91926 0
M  V30 10169 C 938.533 -1.36359 -5.15986 0
M  V30 10170 O 938.756 -0.247265 -5.69864 0
M  V30 10171 O 937.69 -2.18421 -5.60871 0
M  V30 10172 H 941.516 -1.97354 -2.30836 0
M  V30 10173 H 939.101 -1.01986 -1.09175 0
M  V30 10174 H 940.983 -0.405446 -4.19445 0
M  V30 10175 H 939.658 0.29299 -3.22371 0
M  V30 10176 H 938.565 -2.02305 -3.1468 0
M  V30 10177 H 939.898 -2.64513 -4.15083 0
M  V30 10178 N 941.55 1.18024 -1.04442 0
M  V30 10179 C 942.483 2.20623 -0.583171 0
M  V30 10180 C 943.461 1.57994 0.384262 0
M  V30 10181 O 944.645 1.86135 0.297673 0
M  V30 10182 C 941.772 3.38378 0.147561 0
M  V30 10183 C 940.818 4.19423 -0.773711 0
M  V30 10184 S 941.651 4.85534 -2.25869 0
M  V30 10185 C 942.807 6.06686 -1.53891 0
M  V30 10186 H 943.04 2.59406 -1.45244 0
M  V30 10187 H 940.573 1.28518 -0.855708 0
M  V30 10188 H 942.531 4.06621 0.562988 0
M  V30 10189 H 941.192 2.97998 0.992765 0
M  V30 10190 H 940.385 5.03568 -0.208694 0
M  V30 10191 H 939.987 3.56579 -1.12816 0
M  V30 10192 H 942.279 6.72347 -0.834045 0
M  V30 10193 H 943.222 6.67702 -2.35755 0
M  V30 10194 H 943.63 5.55031 -1.02961 0
M  V30 10195 N 943.028 0.824394 1.34319 0
M  V30 10196 C 944.258 0.425576 2.02169 0
M  V30 10197 C 944.666 -0.973596 1.62227 0
M  V30 10198 O 944.009 -1.64173 0.824199 0
M  V30 10199 C 944.071 0.449902 3.56674 0
M  V30 10200 C 943.735 1.80266 4.19944 0
M  V30 10201 C 944.732 2.76373 4.40357 0
M  V30 10202 C 942.417 2.09155 4.56683 0
M  V30 10203 C 944.411 3.9954 4.96635 0
M  V30 10204 C 942.098 3.32581 5.12672 0
M  V30 10205 C 943.096 4.27591 5.32592 0
M  V30 10206 O 942.784 5.48837 5.87395 0
M  V30 10207 H 942.516 0.168866 0.654569 0
M  V30 10208 H 945.07 1.11441 1.7254 0
M  V30 10209 H 943.3 -0.295631 3.85568 0
M  V30 10210 H 944.989 0.0709302 4.05838 0
M  V30 10211 H 945.755 2.55351 4.12336 0
M  V30 10212 H 941.634 1.36004 4.40481 0
M  V30 10213 H 945.178 4.73709 5.12099 0
M  V30 10214 H 941.075 3.53466 5.40122 0
M  V30 10215 H 941.843 5.50377 6.05828 0
M  V30 10216 N 944.506 -1.46559 0.579492 0
M  V30 10217 C 945.438 -2.28383 -0.19337 0
M  V30 10218 C 946.451 -1.38324 -0.858511 0
M  V30 10219 O 947.64 -1.62952 -0.728615 0
M  V30 10220 C 944.74 -3.13262 -1.29306 0
M  V30 10221 C 943.913 -4.31426 -0.720459 0
M  V30 10222 C 942.972 -4.97728 -1.70744 0
M  V30 10223 O 941.998 -5.55423 -1.24476 0
M  V30 10224 N 943.2 -4.94445 -3.04146 0
M  V30 10225 H 945.965 -2.95353 0.508611 0
M  V30 10226 H 943.526 -1.56436 0.417046 0
M  V30 10227 H 945.518 -3.54483 -1.95254 0
M  V30 10228 H 944.088 -2.48388 -1.89795 0
M  V30 10229 H 943.308 -3.94028 0.116398 0
M  V30 10230 H 944.596 -5.07808 -0.31763 0
M  V30 10231 H 943.994 -4.4881 -3.44363 0
M  V30 10232 H 942.551 -5.39616 -3.65592 0
M  V30 10233 N 945.984 -0.3171 -1.54377 0
M  V30 10234 C 947.212 0.289558 -2.04864 0
M  V30 10235 C 947.627 1.46284 -1.19359 0
M  V30 10236 O 946.984 1.81135 -0.222795 0
M  V30 10237 C 947.035 0.730273 -3.54047 0
M  V30 10238 O 946.756 -0.396325 -4.36304 0
M  V30 10239 C 948.257 1.40041 -4.20599 0
M  V30 10240 H 945.477 0.0605836 -0.668259 0
M  V30 10241 H 948.021 -0.461411 -1.99227 0
M  V30 10242 H 946.176 1.43123 -3.59992 0
M  V30 10243 H 946.59 -0.0502901 -5.24476 0
M  V30 10244 H 948.064 1.65979 -5.26455 0
M  V30 10245 H 948.541 2.34565 -3.71316 0
M  V30 10246 H 949.147 0.742206 -4.18774 0
M  V30 10247 N 947.462 1.57535 -0.0451378 0
M  V30 10248 C 948.71 1.92071 0.628743 0
M  V30 10249 C 949.031 0.923635 1.71738 0
M  V30 10250 O 948.301 -0.0324376 1.95873 0
M  V30 10251 H 946.881 0.708995 0.235233 0
M  V30 10252 H 949.543 1.9466 -0.0967177 0
M  V30 10253 H 948.639 2.9314 1.07123 0
M  V30 10254 N 948.94 -0.228186 1.55939 0
M  V30 10255 C 950.165 -0.974795 1.83064 0
M  V30 10256 C 950.59 -1.77426 0.624624 0
M  V30 10257 O 949.948 -1.76211 -0.426556 0
M  V30 10258 C 949.996 -1.87342 3.08116 0
M  V30 10259 O 949.1 -2.96784 2.86344 0
M  V30 10260 H 948.441 -0.276379 0.603747 0
M  V30 10261 H 950.971 -0.243507 2.03146 0
M  V30 10262 H 950.981 -2.28451 3.38045 0
M  V30 10263 H 949.656 -1.28575 3.95526 0
M  V30 10264 H 948.233 -2.59669 2.67631 0
M  V30 10265 N 950.418 -1.49637 -0.494624 0
M  V30 10266 C 951.348 -1.69692 -1.60396 0
M  V30 10267 C 952.329 -0.545648 -1.61111 0
M  V30 10268 O 953.514 -0.782202 -1.77751 0
M  V30 10269 C 950.644 -1.76934 -2.9885 0
M  V30 10270 C 949.598 -2.91915 -3.13001 0
M  V30 10271 C 948.924 -2.84276 -4.5287 0
M  V30 10272 C 950.224 -4.32764 -2.92426 0
M  V30 10273 H 951.918 -2.6257 -1.43866 0
M  V30 10274 H 949.464 -1.26355 -0.690679 0
M  V30 10275 H 951.417 -1.8955 -3.76362 0
M  V30 10276 H 950.141 -0.806609 -3.16483 0
M  V30 10277 H 948.8 -2.78911 -2.37916 0
M  V30 10278 H 948.448 -1.85897 -4.67388 0
M  V30 10279 H 948.148 -3.61452 -4.63278 0
M  V30 10280 H 949.672 -2.98909 -5.32434 0
M  V30 10281 H 951.086 -4.46415 -3.59703 0
M  V30 10282 H 949.483 -5.1121 -3.143 0
M  V30 10283 H 950.553 -4.46765 -1.88491 0
M  V30 10284 N 951.896 0.746133 -1.38819 0
M  V30 10285 C 952.844 1.88137 -1.36774 0
M  V30 10286 C 953.838 1.67508 -0.252495 0
M  V30 10287 O 955.044 1.74985 -0.421935 0
M  V30 10288 H 951.419 0.619116 -0.426849 0
M  V30 10289 H 953.39 1.86978 -2.32555 0
M  V30 10290 C 952.139 3.25703 -1.21708 0
M  V30 10291 H 951.462 3.42168 -2.06788 0
M  V30 10292 H 952.902 4.05361 -1.24332 0
M  V30 10293 C 951.361 3.36816 0.0754257 0
M  V30 10294 O 951.891 3.87742 1.04972 0
M  V30 10295 N 950.097 2.90287 0.134761 0
M  V30 10296 H 949.644 2.49034 -0.658779 0
M  V30 10297 H 949.602 2.98103 0.999109 0
M  V30 10298 N 953.375 1.23811 0.975125 0
M  V30 10299 C 954.305 1.04846 2.08638 0
M  V30 10300 C 955.286 -0.0362859 1.70061 0
M  V30 10301 O 956.471 0.12937 1.93769 0
M  V30 10302 C 953.601 0.644534 3.41267 0
M  V30 10303 C 952.555 1.67722 3.93768 0
M  V30 10304 C 951.881 1.12857 5.22654 0
M  V30 10305 C 953.181 3.07147 4.22443 0
M  V30 10306 H 954.875 1.97795 2.24761 0
M  V30 10307 H 952.421 0.952397 1.08006 0
M  V30 10308 H 954.374 0.498887 4.18436 0
M  V30 10309 H 953.098 -0.320641 3.25022 0
M  V30 10310 H 951.757 1.81095 3.18748 0
M  V30 10311 H 951.405 0.154227 5.02764 0
M  V30 10312 H 951.105 1.81862 5.58749 0
M  V30 10313 H 952.629 0.994891 6.0244 0
M  V30 10314 H 954.043 2.97045 4.90344 0
M  V30 10315 H 952.44 3.73437 4.6975 0
M  V30 10316 H 953.51 3.55743 3.29507 0
M  V30 10317 N 954.853 -1.17469 1.05066 0
M  V30 10318 C 955.801 -2.23495 0.644418 0
M  V30 10319 C 956.795 -1.66081 -0.333685 0
M  V30 10320 O 958.001 -1.78887 -0.199886 0
M  V30 10321 H 954.376 -0.727546 0.190214 0
M  V30 10322 H 956.347 -2.55058 1.5488 0
M  V30 10323 C 955.096 -3.47684 0.0338051 0
M  V30 10324 H 954.419 -3.92167 0.777513 0
M  V30 10325 H 955.859 -4.23464 -0.213086 0
M  V30 10326 C 954.318 -3.14067 -1.21915 0
M  V30 10327 O 954.848 -3.28728 -2.3087 0
M  V30 10328 N 953.054 -2.68304 -1.11631 0
M  V30 10329 H 952.601 -2.56574 -0.229673 0
M  V30 10330 H 952.559 -2.46184 -1.95553 0
M  V30 10331 N 956.331 -0.831506 -1.3388 0
M  V30 10332 C 957.279 -0.247896 -2.31275 0
M  V30 10333 C 958.273 0.616083 -1.578 0
M  V30 10334 O 959.479 0.506465 -1.72728 0
M  V30 10335 H 955.854 -0.0614293 -0.749487 0
M  V30 10336 H 957.825 -1.08401 -2.78014 0
M  V30 10337 C 956.574 0.568434 -3.43022 0
M  V30 10338 H 955.897 -0.0870654 -3.99705 0
M  V30 10339 H 957.337 0.942751 -4.13386 0
M  V30 10340 C 955.796 1.74431 -2.88228 0
M  V30 10341 O 956.326 2.84278 -2.83811 0
M  V30 10342 N 954.532 1.56382 -2.44935 0
M  V30 10343 H 954.079 0.670255 -2.48727 0
M  V30 10344 H 954.037 2.35208 -2.08625 0
M  V30 10345 N 957.809 1.4625 -0.587256 0
M  V30 10346 C 958.741 2.28482 0.181256 0
M  V30 10347 C 959.754 1.38777 0.851163 0
M  V30 10348 O 960.943 1.63336 0.719963 0
M  V30 10349 C 958.043 3.13944 1.27643 0
M  V30 10350 C 957.216 4.31802 0.697569 0
M  V30 10351 C 956.275 4.98626 1.68102 0
M  V30 10352 O 955.301 5.56075 1.21529 0
M  V30 10353 N 956.503 4.96051 3.0152 0
M  V30 10354 H 959.268 2.95079 -0.524267 0
M  V30 10355 H 956.829 1.56213 -0.425336 0
M  V30 10356 H 958.821 3.55513 1.93371 0
M  V30 10357 H 957.391 2.49391 1.88475 0
M  V30 10358 H 956.611 3.93961 -0.137293 0
M  V30 10359 H 957.899 5.07969 0.290696 0
M  V30 10360 H 957.297 4.5063 3.41978 0
M  V30 10361 H 955.854 5.41547 3.62725 0
M  V30 10362 N 959.287 0.325282 1.54207 0
M  V30 10363 C 960.512 -0.281418 2.05482 0
M  V30 10364 C 960.937 -1.44869 1.19977 0
M  V30 10365 O 960.295 -1.80088 0.209275 0
M  V30 10366 C 960.343 -0.692029 3.53897 0
M  V30 10367 O 959.447 -1.7942 3.71325 0
M  V30 10368 H 958.788 -0.0504872 0.662078 0
M  V30 10369 H 961.318 0.474191 1.99029 0
M  V30 10370 H 961.328 -0.974219 3.96198 0
M  V30 10371 H 960.003 0.161709 4.15586 0
M  V30 10372 H 958.58 -1.51069 3.40929 0
M  V30 10373 N 960.765 -1.57509 0.0534917 0
M  V30 10374 C 961.715 -2.08179 -0.929802 0
M  V30 10375 C 962.699 -0.987451 -1.27036 0
M  V30 10376 O 963.891 -1.25076 -1.2524 0
M  V30 10377 C 961.02 -2.63221 -2.20385 0
M  V30 10378 C 960.106 -3.79629 -1.89058 0
M  V30 10379 N 960.497 -4.8931 -1.28101 0
M  V30 10380 C 958.795 -3.88578 -2.18914 0
M  V30 10381 C 959.496 -5.70329 -1.14455 0
M  V30 10382 N 958.472 -5.18011 -1.64821 0
M  V30 10383 H 962.274 -2.90374 -0.453874 0
M  V30 10384 H 959.788 -1.61697 -0.150899 0
M  V30 10385 H 961.785 -2.97827 -2.91727 0
M  V30 10386 H 960.445 -1.82466 -2.68582 0
M  V30 10387 H 961.456 -5.09058 -0.952924 0
M  V30 10388 H 958.133 -3.18769 -2.69616 0
M  V30 10389 H 959.523 -6.6854 -0.671129 0
M  V30 10390 N 962.243 0.219913 -1.56058 0
M  V30 10391 C 963.659 0.569685 -1.49086 0
M  V30 10392 C 963.859 1.87066 -0.748903 0
M  V30 10393 O 962.915 2.50838 -0.289235 0
M  V30 10394 C 964.228 0.647397 -2.93648 0
M  V30 10395 C 965.776 0.737914 -3.04177 0
M  V30 10396 C 966.251 0.846957 -4.50101 0
M  V30 10397 N 967.742 0.911136 -4.5415 0
M  V30 10398 C 968.477 1.01525 -5.64341 0
M  V30 10399 N 967.973 1.0832 -6.8428 0
M  V30 10400 N 969.766 1.05051 -5.52196 0
M  V30 10401 H 961.917 -0.633778 -2.02724 0
M  V30 10402 H 964.18 -0.222583 -0.921499 0
M  V30 10403 H 963.886 -0.238987 -3.50887 0
M  V30 10404 H 963.76 1.51046 -3.45637 0
M  V30 10405 H 966.147 1.61474 -2.47002 0
M  V30 10406 H 966.228 -0.150845 -2.55355 0
M  V30 10407 H 965.872 -0.0254166 -5.07894 0
M  V30 10408 H 965.802 1.75116 -4.96631 0
M  V30 10409 H 968.293 0.868869 -3.67776 0
M  V30 10410 H 968.606 1.16247 -7.64007 0
M  V30 10411 H 966.951 1.05231 -6.86987 0
M  V30 10412 H 970.142 0.994086 -4.57423 0
M  V30 10413 H 970.315 1.12819 -6.38103 0
M  V30 10414 N 963.721 1.49897 0.486681 0
M  V30 10415 C 964.998 1.50614 1.24799 0
M  V30 10416 C 965.378 0.24193 2.09709 0
M  V30 10417 O 964.726 -0.775237 2.14947 0
M  V30 10418 C 964.936 2.79318 2.09243 0
M  V30 10419 C 966.284 3.29371 2.67955 0
M  V30 10420 O 967.308 2.80533 2.19499 0
M  V30 10421 O 966.167 4.14466 3.56202 0
M  V30 10422 H 963.261 0.603447 0.565491 0
M  V30 10423 H 965.807 1.62174 0.499778 0
M  V30 10424 H 964.579 3.62812 1.46572 0
M  V30 10425 H 964.202 2.70687 2.91229 0
M  V30 10426 N 965.199 -0.738761 1.39212 0
M  V30 10427 C 966.615 -1.04381 1.20734 0
M  V30 10428 C 966.815 -2.01391 0.0663082 0
M  V30 10429 O 965.871 -2.45672 -0.583229 0
M  V30 10430 C 967.184 -1.6097 2.53987 0
M  V30 10431 C 968.732 -1.73069 2.60799 0
M  V30 10432 C 969.207 -2.33067 3.94264 0
M  V30 10433 N 970.698 -2.40481 3.95883 0
M  V30 10434 C 971.433 -2.87834 4.95923 0
M  V30 10435 N 970.929 -3.35111 6.0636 0
M  V30 10436 N 972.722 -2.87009 4.83304 0
M  V30 10437 H 964.873 -0.0952996 2.12186 0
M  V30 10438 H 967.136 -0.104902 0.942178 0
M  V30 10439 H 966.842 -0.971548 3.38015 0
M  V30 10440 H 966.716 -2.59829 2.73439 0
M  V30 10441 H 969.103 -2.36007 1.77157 0
M  V30 10442 H 969.184 -0.728728 2.452 0
M  V30 10443 H 968.828 -1.70758 4.78335 0
M  V30 10444 H 968.758 -3.33933 4.07181 0
M  V30 10445 H 971.249 -2.07061 3.16123 0
M  V30 10446 H 971.562 -3.69742 6.78609 0
M  V30 10447 H 969.907 -3.33129 6.09959 0
M  V30 10448 H 973.098 -2.49395 3.96131 0
M  V30 10449 H 973.271 -3.23598 5.61416 0
M  V30 10450 N 966.677 -1.24326 -0.968545 0
M  V30 10451 C 967.923 -1.08406 -1.71394 0
M  V30 10452 C 968.256 0.376353 -1.90518 0
M  V30 10453 O 967.531 1.27816 -1.46606 0
M  V30 10454 C 967.814 -1.82344 -3.1052 0
M  V30 10455 C 967.667 -3.3613 -2.98893 0
M  V30 10456 C 968.986 -1.59545 -4.10163 0
M  V30 10457 H 966.105 -0.395205 -0.622079 0
M  V30 10458 H 968.747 -1.52983 -1.12677 0
M  V30 10459 H 966.897 -1.44452 -3.60646 0
M  V30 10460 H 968.569 -3.83614 -2.56199 0
M  V30 10461 H 966.812 -3.64553 -2.35124 0
M  V30 10462 H 967.483 -3.83064 -3.97449 0
M  V30 10463 H 969.959 -1.92504 -3.68892 0
M  V30 10464 H 968.835 -2.13736 -5.05577 0
M  V30 10465 H 969.096 -0.533503 -4.38869 0
M  V30 10466 N 968.156 1.1691 -1.05688 0
M  V30 10467 C 969.405 1.86629 -0.765022 0
M  V30 10468 C 969.718 1.82223 0.710918 0
M  V30 10469 O 970.924 2.47462 1.11691 0
M  V30 10470 C 969.38 3.34886 -1.3183 0
M  V30 10471 C 968.988 3.47781 -2.82404 0
M  V30 10472 C 970.732 4.099 -1.10372 0
M  V30 10473 C 968.639 4.9009 -3.31008 0
M  V30 10474 H 967.569 0.699082 -0.282491 0
M  V30 10475 H 970.22 1.31989 -1.27481 0
M  V30 10476 H 968.602 3.89094 -0.736312 0
M  V30 10477 H 969.776 3.03765 -3.46502 0
M  V30 10478 H 968.091 2.86193 -3.02461 0
M  V30 10479 H 970.688 5.14894 -1.4418 0
M  V30 10480 H 971.031 4.16279 -0.0417372 0
M  V30 10481 H 971.564 3.61913 -1.65117 0
M  V30 10482 H 968.303 4.88887 -4.36657 0
M  V30 10483 H 967.823 5.34756 -2.71655 0
M  V30 10484 H 969.502 5.58881 -3.25977 0
M  V30 10485 N 969.634 0.838594 1.33437 0
M  V30 10486 C 970.882 0.433312 1.974 0
M  V30 10487 C 971.203 -1.01078 1.66758 0
M  V30 10488 O 970.473 -1.70406 0.966373 0
M  V30 10489 H 969.053 0.15724 0.730263 0
M  V30 10490 H 971.715 1.07149 1.62804 0
M  V30 10491 H 970.811 0.565144 3.06941 0
M  V30 10492 N 971.112 -1.45937 0.595003 0
M  V30 10493 C 972.042 -2.33198 -0.11871 0
M  V30 10494 C 973.023 -1.46083 -0.871423 0
M  V30 10495 O 974.208 -1.74879 -0.844461 0
M  V30 10496 C 971.338 -3.28576 -1.12495 0
M  V30 10497 C 970.292 -4.25229 -0.486275 0
M  V30 10498 C 969.618 -5.10204 -1.59986 0
M  V30 10499 C 970.918 -5.19019 0.584473 0
M  V30 10500 H 972.612 -2.93122 0.609886 0
M  V30 10501 H 970.158 -1.40951 0.294742 0
M  V30 10502 H 972.111 -3.88485 -1.6327 0
M  V30 10503 H 970.835 -2.66784 -1.88398 0
M  V30 10504 H 969.494 -3.666 0.000507962 0
M  V30 10505 H 969.142 -4.44789 -2.34886 0
M  V30 10506 H 968.842 -5.75669 -1.1781 0
M  V30 10507 H 970.366 -5.7298 -2.11014 0
M  V30 10508 H 971.78 -5.73073 0.161297 0
M  V30 10509 H 970.177 -5.92893 0.927256 0
M  V30 10510 H 971.247 -4.62208 1.46601 0
M  V30 10511 N 972.59 -0.333456 -1.54032 0
M  V30 10512 C 973.523 0.570776 -2.20947 0
M  V30 10513 C 974.501 1.10811 -1.18994 0
M  V30 10514 O 975.685 1.17027 -1.47773 0
M  V30 10515 C 972.812 1.7842 -2.87896 0
M  V30 10516 C 971.858 1.37722 -4.03652 0
M  V30 10517 S 972.691 0.405548 -5.33962 0
M  V30 10518 C 973.847 1.62603 -6.0441 0
M  V30 10519 H 974.08 0.0023936 -2.973 0
M  V30 10520 H 971.613 -0.117531 -1.53952 0
M  V30 10521 H 973.571 2.48038 -3.27089 0
M  V30 10522 H 972.232 2.32378 -2.11327 0
M  V30 10523 H 971.425 2.28167 -4.49395 0
M  V30 10524 H 971.027 0.760628 -3.66184 0
M  V30 10525 H 973.319 2.56202 -6.2719 0
M  V30 10526 H 974.262 1.21058 -6.97675 0
M  V30 10527 H 974.67 1.8175 -5.34441 0
M  V30 10528 N 974.068 1.57479 -0.061844 0
M  V30 10529 C 975.001 2.07734 0.94455 0
M  V30 10530 C 975.979 0.980207 1.29733 0
M  V30 10531 O 977.163 1.2529 1.40836 0
M  V30 10532 C 974.29 2.52673 2.25553 0
M  V30 10533 C 973.336 3.73725 2.05503 0
M  V30 10534 S 974.169 5.18886 1.32354 0
M  V30 10535 C 975.325 5.67148 2.64753 0
M  V30 10536 H 975.558 2.92772 0.516888 0
M  V30 10537 H 973.091 1.53663 0.150684 0
M  V30 10538 H 975.049 2.79226 3.00904 0
M  V30 10539 H 973.71 1.67921 2.65445 0
M  V30 10540 H 972.903 4.03125 3.025 0
M  V30 10541 H 972.505 3.47494 1.3829 0
M  V30 10542 H 974.797 5.73385 3.60882 0
M  V30 10543 H 975.74 6.66196 2.39976 0
M  V30 10544 H 976.148 4.94921 2.71502 0
M  V30 10545 N 975.546 -0.211634 1.56173 0
M  V30 10546 C 976.774 -0.951184 1.83739 0
M  V30 10547 C 977.189 -1.7754 0.642252 0
M  V30 10548 O 976.546 -1.78302 -0.389174 0
M  V30 10549 C 976.597 -1.86075 3.09933 0
M  V30 10550 O 976.318 -1.06983 4.24837 0
M  V30 10551 C 977.819 -2.71337 3.50559 0
M  V30 10552 H 975.039 -0.278312 0.61056 0
M  V30 10553 H 977.583 -0.223871 2.03271 0
M  V30 10554 H 975.738 -2.54189 2.92347 0
M  V30 10555 H 976.152 -1.68815 4.9659 0
M  V30 10556 H 977.626 -3.30843 4.41868 0
M  V30 10557 H 978.103 -3.44226 2.72773 0
M  V30 10558 H 978.709 -2.0862 3.70618 0
M  V30 10559 N 977.024 -1.50153 -0.478725 0
M  V30 10560 C 977.987 -1.67916 -1.56003 0
M  V30 10561 C 978.987 -0.550111 -1.51097 0
M  V30 10562 O 980.177 -0.817001 -1.53853 0
M  V30 10563 C 977.309 -1.6973 -2.95643 0
M  V30 10564 H 978.502 -2.6438 -1.41573 0
M  V30 10565 H 976.055 -1.39519 -0.704565 0
M  V30 10566 H 976.79 -0.749306 -3.15525 0
M  V30 10567 H 976.575 -2.51745 -3.00611 0
M  V30 10568 H 978.065 -1.85453 -3.74162 0
M  V30 10569 N 978.502 0.731368 -1.39602 0
M  V30 10570 C 979.742 1.5036 -1.3846 0
M  V30 10571 C 980.106 1.91991 0.018784 0
M  V30 10572 O 981.307 2.68351 0.155236 0
M  V30 10573 C 979.578 2.70755 -2.33295 0
M  V30 10574 S 981.137 3.6036 -2.50372 0
M  V30 10575 H 977.955 0.514271 -0.490964 0
M  V30 10576 H 980.557 0.856654 -1.75732 0
M  V30 10577 H 979.261 2.38316 -3.34116 0
M  V30 10578 H 978.792 3.40376 -1.97251 0
M  V30 10579 H 980.807 4.64529 -1.74435 0
M  V30 10580 N 979.98 1.24838 0.961938 0
M  V30 10581 C 981.257 0.99939 1.68141 0
M  V30 10582 C 981.637 -0.476588 2.0565 0
M  V30 10583 O 980.985 -1.45224 1.76415 0
M  V30 10584 C 981.195 1.92797 2.90913 0
M  V30 10585 C 982.543 2.20219 3.63027 0
M  V30 10586 O 983.567 1.90496 3.00981 0
M  V30 10587 O 982.426 2.70725 4.74731 0
M  V30 10588 H 979.52 0.37842 0.735342 0
M  V30 10589 H 982.066 1.35961 1.01551 0
M  V30 10590 H 980.838 2.92492 2.59931 0
M  V30 10591 H 980.461 1.57127 3.65235 0
M  V30 10592 N 981.458 -1.16348 1.06306 0
M  V30 10593 C 982.388 -2.2291 0.695234 0
M  V30 10594 C 983.369 -1.67208 -0.312343 0
M  V30 10595 O 984.554 -1.93293 -0.187442 0
M  V30 10596 C 981.684 -3.47205 0.0810149 0
M  V30 10597 C 980.638 -4.15801 1.01458 0
M  V30 10598 C 979.964 -5.3405 0.263656 0
M  V30 10599 C 981.264 -4.66766 2.34365 0
M  V30 10600 H 982.958 -2.53934 1.58613 0
M  V30 10601 H 980.504 -1.22056 0.76409 0
M  V30 10602 H 982.457 -4.2098 -0.18818 0
M  V30 10603 H 981.181 -3.15482 -0.844897 0
M  V30 10604 H 979.84 -3.43954 1.26852 0
M  V30 10605 H 979.488 -4.9858 -0.665378 0
M  V30 10606 H 979.188 -5.80885 0.88582 0
M  V30 10607 H 980.712 -6.106 0.00200994 0
M  V30 10608 H 982.126 -5.3212 2.13356 0
M  V30 10609 H 980.523 -5.24223 2.9208 0
M  V30 10610 H 981.593 -3.82969 2.97426 0
M  V30 10611 N 982.937 -0.845659 -1.3299 0
M  V30 10612 C 984.177 -0.450819 -1.99366 0
M  V30 10613 C 984.541 0.973297 -1.65502 0
M  V30 10614 O 985.742 1.47222 -2.24898 0
M  V30 10615 C 984.013 -0.672825 -3.5101 0
M  V30 10616 S 985.572 -0.374216 -4.37201 0
M  V30 10617 H 982.39 -0.169273 -0.690556 0
M  V30 10618 H 984.992 -1.09642 -1.61861 0
M  V30 10619 H 983.696 -1.70855 -3.73145 0
M  V30 10620 H 983.227 -0.0133185 -3.93398 0
M  V30 10621 H 985.242 0.803342 -4.89654 0
M  V30 10622 N 984.415 1.45619 -0.602734 0
M  V30 10623 C 985.64 2.07157 -0.100429 0
M  V30 10624 C 986.065 1.44524 1.20393 0
M  V30 10625 O 985.423 0.536191 1.7319 0
M  V30 10626 C 985.471 3.60587 0.0308604 0
M  V30 10627 O 984.575 3.97944 1.08234 0
M  V30 10628 H 983.916 0.6601 -0.0718643 0
M  V30 10629 H 986.446 1.86948 -0.831366 0
M  V30 10630 H 986.456 4.07348 0.230634 0
M  V30 10631 H 985.131 4.05561 -0.921581 0
M  V30 10632 H 983.708 3.62862 0.859414 0
M  V30 10633 N 985.893 0.34162 1.53853 0
M  V30 10634 C 987.139 -0.255862 2.01179 0
M  V30 10635 C 987.472 -1.50356 1.22909 0
M  V30 10636 O 986.747 -1.91913 0.316198 0
M  V30 10637 C 987.03 -0.571934 3.55529 0
M  V30 10638 C 986.883 0.687727 4.44511 0
M  V30 10639 C 988.202 -1.38233 4.17827 0
M  V30 10640 H 985.321 -0.091521 0.731295 0
M  V30 10641 H 987.963 0.461775 1.84303 0
M  V30 10642 H 986.113 -1.18331 3.70041 0
M  V30 10643 H 987.785 1.32572 4.4184 0
M  V30 10644 H 986.028 1.313 4.13452 0
M  V30 10645 H 986.699 0.421858 5.50386 0
M  V30 10646 H 989.175 -0.865374 4.07002 0
M  V30 10647 H 988.051 -1.57223 5.25901 0
M  V30 10648 H 988.312 -2.38386 3.72323 0
M  V30 10649 N 987.371 -1.57444 0.0701946 0
M  V30 10650 C 988.599 -1.97754 -0.608358 0
M  V30 10651 C 989.014 -0.948496 -1.63245 0
M  V30 10652 O 988.371 0.065046 -1.82384 0
M  V30 10653 C 988.422 -3.38142 -1.27836 0
M  V30 10654 O 988.143 -4.37104 -0.295255 0
M  V30 10655 C 989.644 -3.93318 -2.04489 0
M  V30 10656 H 986.864 -0.650398 -0.164997 0
M  V30 10657 H 989.408 -2.04006 0.142124 0
M  V30 10658 H 987.563 -3.32982 -1.97994 0
M  V30 10659 H 987.977 -5.18732 -0.77574 0
M  V30 10660 H 989.451 -4.93774 -2.46762 0
M  V30 10661 H 989.928 -3.29774 -2.90079 0
M  V30 10662 H 990.534 -4.01875 -1.39201 0
M  V30 10663 N 988.849 0.203349 -1.56283 0
M  V30 10664 C 989.796 1.25205 -1.93888 0
M  V30 10665 C 990.766 1.45654 -0.798376 0
M  V30 10666 O 991.951 1.58924 -1.05583 0
M  V30 10667 C 989.091 2.59355 -2.27659 0
M  V30 10668 C 988.204 2.46553 -3.54733 0
M  V30 10669 C 987.339 3.73351 -3.77865 0
M  V30 10670 C 986.378 3.55347 -4.98392 0
M  V30 10671 N 985.515 4.74137 -5.17821 0
M  V30 10672 H 990.355 0.924356 -2.83301 0
M  V30 10673 H 987.892 0.445082 -1.40205 0
M  V30 10674 H 989.85 3.375 -2.45254 0
M  V30 10675 H 988.48 2.90184 -1.41396 0
M  V30 10676 H 987.532 1.59749 -3.45231 0
M  V30 10677 H 988.844 2.2918 -4.43033 0
M  V30 10678 H 987.998 4.59937 -3.95655 0
M  V30 10679 H 986.737 3.9367 -2.8788 0
M  V30 10680 H 985.742 2.67146 -4.80534 0
M  V30 10681 H 986.967 3.36482 -5.89879 0
M  V30 10682 H 984.913 4.94735 -4.30782 0
M  V30 10683 H 984.83 4.59558 -6.00285 0
M  V30 10684 H 986.098 5.62098 -5.40061 0
M  V30 10685 N 990.327 1.50405 0.470755 0
M  V30 10686 C 991.257 1.72222 1.57676 0
M  V30 10687 C 992.238 0.57121 1.60222 0
M  V30 10688 O 993.423 0.810381 1.76484 0
M  V30 10689 C 990.553 1.81666 2.95998 0
M  V30 10690 C 989.507 2.96857 3.08318 0
M  V30 10691 C 988.833 2.91445 4.4829 0
M  V30 10692 C 990.133 4.37361 2.85504 0
M  V30 10693 H 991.827 2.64825 1.39671 0
M  V30 10694 H 989.373 1.27438 0.67049 0
M  V30 10695 H 991.326 1.95514 3.73299 0
M  V30 10696 H 990.05 0.856856 3.1516 0
M  V30 10697 H 988.709 2.82661 2.33449 0
M  V30 10698 H 988.357 1.93309 4.64371 0
M  V30 10699 H 988.057 3.68776 4.57469 0
M  V30 10700 H 989.581 3.07341 5.27611 0
M  V30 10701 H 990.995 4.52081 3.52555 0
M  V30 10702 H 989.392 5.16145 3.06127 0
M  V30 10703 H 990.462 4.49708 1.81359 0
M  V30 10704 N 991.805 -0.723954 1.39988 0
M  V30 10705 C 993.051 -1.48476 1.3902 0
M  V30 10706 C 993.406 -1.92397 -0.0105439 0
M  V30 10707 O 992.699 -1.64683 -0.979294 0
M  V30 10708 C 992.893 -2.73004 2.30659 0
M  V30 10709 C 992.722 -2.41261 3.79504 0
M  V30 10710 C 991.492 -2.33013 4.48367 0
M  V30 10711 C 993.69 -2.06078 4.71207 0
M  V30 10712 N 991.672 -1.93856 5.82489 0
M  V30 10713 C 993.043 -1.77455 5.94062 0
M  V30 10714 C 995.098 -1.92642 4.59123 0
M  V30 10715 C 993.801 -1.36748 7.06182 0
M  V30 10716 C 995.827 -1.53338 5.71175 0
M  V30 10717 C 995.189 -1.25607 6.93111 0
M  V30 10718 H 991.288 -0.54172 0.563971 0
M  V30 10719 H 993.872 -0.840344 1.75631 0
M  V30 10720 H 992.043 -3.35209 1.96188 0
M  V30 10721 H 993.775 -3.39286 2.20606 0
M  V30 10722 H 990.53 -2.50476 4.01944 0
M  V30 10723 H 990.954 -1.7684 6.53496 0
M  V30 10724 H 995.596 -2.12745 3.65376 0
M  V30 10725 H 993.314 -1.15386 7.9982 0
M  V30 10726 H 996.9 -1.43532 5.63817 0
M  V30 10727 H 995.78 -0.956505 7.78345 0
M  V30 10728 N 993.283 -1.25346 -0.955304 0
M  V30 10729 C 994.694 -1.09173 -1.51453 0
M  V30 10730 C 995.045 0.332755 -1.93358 0
M  V30 10731 O 994.17 1.22264 -1.78551 0
M  V30 10732 C 994.765 -1.97564 -2.75234 0
M  V30 10733 C 993.324 -1.85579 -3.27471 0
M  V30 10734 C 992.471 -1.91755 -2.00313 0
M  V30 10735 H 995.422 -1.38642 -0.772271 0
M  V30 10736 H 995.443 -1.51523 -3.49029 0
M  V30 10737 H 994.955 -3.01233 -2.44704 0
M  V30 10738 H 993.056 -0.847906 -3.62824 0
M  V30 10739 H 993.169 -2.70353 -3.95533 0
M  V30 10740 H 991.533 -1.35633 -2.15582 0
M  V30 10741 H 992.316 -2.97028 -1.72132 0
M  V30 10742 N 994.761 1.15782 -1.06922 0
M  V30 10743 C 996.007 1.86741 -0.790922 0
M  V30 10744 C 996.34 1.81863 0.681149 0
M  V30 10745 O 995.615 1.23871 1.49954 0
M  V30 10746 C 995.898 3.36038 -1.29422 0
M  V30 10747 C 995.751 3.49573 -2.83052 0
M  V30 10748 C 997.07 4.30647 -0.907239 0
M  V30 10749 H 994.189 0.678064 -0.288787 0
M  V30 10750 H 996.831 1.36054 -1.32624 0
M  V30 10751 H 994.981 3.79336 -0.838843 0
M  V30 10752 H 996.653 3.1517 -3.36847 0
M  V30 10753 H 994.896 2.91275 -3.21467 0
M  V30 10754 H 995.567 4.5445 -3.13335 0
M  V30 10755 H 998.043 3.95286 -1.29956 0
M  V30 10756 H 996.919 5.33604 -1.28679 0
M  V30 10757 H 997.18 4.41703 0.187251 0
M  V30 10758 N 996.239 0.8527 1.3254 0
M  V30 10759 C 997.467 0.469044 2.01513 0
M  V30 10760 C 997.882 -0.933701 1.64096 0
M  V30 10761 O 997.239 -1.60898 0.861283 0
M  V30 10762 C 997.29 0.596228 3.56549 0
M  V30 10763 O 997.011 1.94371 3.92621 0
M  V30 10764 C 998.512 0.211324 4.42796 0
M  V30 10765 H 995.732 0.184589 0.645111 0
M  V30 10766 H 998.276 1.1491 1.69163 0
M  V30 10767 H 996.431 -0.0360712 3.87383 0
M  V30 10768 H 996.845 1.93909 4.87339 0
M  V30 10769 H 998.319 0.351324 5.50881 0
M  V30 10770 H 998.796 -0.848055 4.30935 0
M  V30 10771 H 999.402 0.818617 4.17347 0
M  V30 10772 N 997.718 -1.45297 0.610449 0
M  V30 10773 C 998.665 -2.30553 -0.106718 0
M  V30 10774 C 999.635 -1.42272 -0.85719 0
M  V30 10775 O 1000.82 -1.71199 -0.842357 0
M  V30 10776 C 997.96 -3.27226 -1.09623 0
M  V30 10777 C 997.073 -4.3061 -0.346329 0
M  V30 10778 C 996.208 -5.14389 -1.32581 0
M  V30 10779 C 995.247 -6.09497 -0.563892 0
M  V30 10780 N 994.384 -6.86047 -1.4928 0
M  V30 10781 H 999.224 -2.91344 0.626296 0
M  V30 10782 H 996.761 -1.43563 0.32065 0
M  V30 10783 H 998.719 -3.81744 -1.68308 0
M  V30 10784 H 997.349 -2.68182 -1.79662 0
M  V30 10785 H 996.401 -3.7873 0.356084 0
M  V30 10786 H 997.713 -4.98183 0.248026 0
M  V30 10787 H 996.867 -5.73321 -1.98464 0
M  V30 10788 H 995.606 -4.4684 -1.9541 0
M  V30 10789 H 994.611 -5.49693 0.108551 0
M  V30 10790 H 995.836 -6.79074 0.0593872 0
M  V30 10791 H 993.782 -6.21185 -2.10868 0
M  V30 10792 H 993.699 -7.49983 -0.951953 0
M  V30 10793 H 994.967 -7.49518 -2.14112 0
M  V30 10794 N 999.196 -0.349774 -1.5367 0
M  V30 10795 C 1000.13 0.496338 -2.28164 0
M  V30 10796 C 1001.11 1.09737 -1.29968 0
M  V30 10797 O 1002.29 1.11759 -1.58819 0
M  V30 10798 C 999.422 1.64428 -3.0591 0
M  V30 10799 C 998.376 1.17127 -4.11661 0
M  V30 10800 C 997.702 2.40822 -4.77398 0
M  V30 10801 C 999.002 0.267293 -5.21616 0
M  V30 10802 H 1000.7 -0.125117 -2.99138 0
M  V30 10803 H 998.242 -0.0616152 -1.43868 0
M  V30 10804 H 1000.19 2.2427 -3.56765 0
M  V30 10805 H 998.919 2.29272 -2.32598 0
M  V30 10806 H 997.578 0.595634 -3.61729 0
M  V30 10807 H 997.226 3.04088 -4.00674 0
M  V30 10808 H 996.926 2.09852 -5.48849 0
M  V30 10809 H 998.45 3.01378 -5.3104 0
M  V30 10810 H 999.864 0.772734 -5.68068 0
M  V30 10811 H 998.261 0.0491991 -6.0008 0
M  V30 10812 H 999.331 -0.694892 -4.79895 0
M  V30 10813 N 1000.67 1.57404 -0.0785433 0
M  V30 10814 C 1001.9 1.98074 0.597862 0
M  V30 10815 C 1002.32 0.95714 1.6274 0
M  V30 10816 O 1001.67 -0.0553728 1.82416 0
M  V30 10817 C 1001.72 3.38815 1.26041 0
M  V30 10818 O 1001.45 4.37254 0.27207 0
M  V30 10819 C 1002.95 3.94397 2.024 0
M  V30 10820 H 1000.17 0.651263 0.161546 0
M  V30 10821 H 1002.71 2.03927 -0.152941 0
M  V30 10822 H 1000.87 3.34028 1.96225 0
M  V30 10823 H 1001.28 5.19136 0.74822 0
M  V30 10824 H 1002.75 4.95075 2.4414 0
M  V30 10825 H 1003.23 3.31308 2.88326 0
M  V30 10826 H 1003.84 4.02607 1.37068 0
M  V30 10827 N 1002.15 -0.195058 1.56388 0
M  V30 10828 C 1003.11 -1.2254 1.93692 0
M  V30 10829 C 1004.11 -1.38437 0.81804 0
M  V30 10830 O 1005.3 -1.36248 1.08545 0
M  V30 10831 C 1002.44 -2.59476 2.21099 0
M  V30 10832 H 1003.63 -0.906544 2.8587 0
M  V30 10833 H 1001.18 -0.436577 1.50079 0
M  V30 10834 H 1001.92 -2.96417 1.31558 0
M  V30 10835 H 1001.7 -2.4931 3.02634 0
M  V30 10836 H 1003.19 -3.33777 2.50964 0
M  V30 10837 N 1003.63 -1.50653 -0.462772 0
M  V30 10838 C 1004.58 -1.70661 -1.58043 0
M  V30 10839 C 1005.57 -0.572533 -1.59432 0
M  V30 10840 O 1006.78 -0.753257 -1.63481 0
M  V30 10841 H 1003.15 -0.538805 -0.524588 0
M  V30 10842 H 1005.12 -2.64399 -1.38332 0
M  V30 10843 C 1003.87 -1.82558 -2.95919 0
M  V30 10844 H 1003.2 -2.69216 -2.95572 0
M  V30 10845 H 1004.64 -2.0058 -3.73556 0
M  V30 10846 C 1003.09 -0.57916 -3.31885 0
M  V30 10847 O 1003.62 0.277888 -4.00738 0
M  V30 10848 N 1001.83 -0.430723 -2.8739 0
M  V30 10849 H 1001.38 -1.1292 -2.31531 0
M  V30 10850 H 1001.34 0.402061 -3.11819 0
M  V30 10851 N 1005.11 0.71652 -1.4037 0
M  V30 10852 C 1006.39 1.46947 -1.29097 0
M  V30 10853 C 1006.77 2.10903 0.0911182 0
M  V30 10854 O 1006.11 2.00068 1.10385 0
M  V30 10855 C 1006.32 2.50594 -2.42907 0
M  V30 10856 C 1007.67 3.16451 -2.83097 0
M  V30 10857 O 1008.7 2.60913 -2.42493 0
M  V30 10858 O 1007.55 4.16991 -3.53244 0
M  V30 10859 H 1004.65 0.653413 -0.506932 0
M  V30 10860 H 1007.19 0.748774 -1.52287 0
M  V30 10861 H 1005.97 2.01843 -3.35224 0
M  V30 10862 H 1005.59 3.302 -2.21481 0
M  V30 10863 N 1006.59 1.25851 0.948643 0
M  V30 10864 C 1007.84 1.10347 1.68838 0
M  V30 10865 C 1008.15 -0.354262 1.92365 0
M  V30 10866 O 1009.35 -0.629847 2.64093 0
M  V30 10867 C 1007.81 1.92659 3.03991 0
M  V30 10868 C 1007.42 3.42962 2.88238 0
M  V30 10869 C 1009.16 1.85743 3.81707 0
M  V30 10870 C 1007.07 4.17547 4.18818 0
M  V30 10871 H 1006 0.409342 0.63321 0
M  V30 10872 H 1008.65 1.50098 1.05559 0
M  V30 10873 H 1007.03 1.45736 3.68208 0
M  V30 10874 H 1008.21 3.97601 2.32917 0
M  V30 10875 H 1006.52 3.51035 2.23972 0
M  V30 10876 H 1009.12 2.38758 4.78434 0
M  V30 10877 H 1009.46 0.826568 4.08012 0
M  V30 10878 H 1009.99 2.30449 3.2425 0
M  V30 10879 H 1006.73 5.21072 3.97699 0
M  V30 10880 H 1006.25 3.6769 4.73882 0
M  V30 10881 H 1007.93 4.25589 4.87322 0
M  V30 10882 N 1008.06 -1.15214 1.07534 0
M  V30 10883 C 1009.29 -1.89647 0.819614 0
M  V30 10884 C 1009.7 -1.78365 -0.631072 0
M  V30 10885 O 1009.05 -1.1346 -1.44474 0
M  V30 10886 C 1009.11 -3.40573 1.1511 0
M  V30 10887 C 1008.77 -3.7564 2.60276 0
M  V30 10888 C 1009.77 -3.76507 3.58523 0
M  V30 10889 C 1007.45 -4.05891 2.95901 0
M  V30 10890 C 1009.45 -4.07133 4.9043 0
M  V30 10891 C 1007.13 -4.36182 4.28005 0
M  V30 10892 C 1008.13 -4.36785 5.25079 0
M  V30 10893 O 1007.82 -4.66348 6.54809 0
M  V30 10894 H 1007.55 -0.607836 0.295822 0
M  V30 10895 H 1010.11 -1.46895 1.43565 0
M  V30 10896 H 1008.34 -3.83734 0.478033 0
M  V30 10897 H 1010.03 -3.96299 0.877615 0
M  V30 10898 H 1010.79 -3.53233 3.32342 0
M  V30 10899 H 1006.67 -4.0458 2.20989 0
M  V30 10900 H 1010.21 -4.07519 5.66193 0
M  V30 10901 H 1006.11 -4.58924 4.53937 0
M  V30 10902 H 1006.88 -4.84105 6.59988 0
M  V30 10903 N 1009.54 -0.859717 -1.32086 0
M  V30 10904 C 1010.51 -0.313005 -2.27053 0
M  V30 10905 C 1011.51 0.530191 -1.51808 0
M  V30 10906 O 1012.7 0.340972 -1.7083 0
M  V30 10907 C 1009.83 0.5566 -3.36325 0
M  V30 10908 H 1011.02 -1.15125 -2.76923 0
M  V30 10909 H 1008.57 -0.634463 -1.42843 0
M  V30 10910 H 1009.31 1.41645 -2.91731 0
M  V30 10911 H 1009.09 -0.0470197 -3.92072 0
M  V30 10912 H 1010.58 0.931725 -4.07073 0
M  V30 10913 N 1011.02 1.44971 -0.618145 0
M  V30 10914 C 1011.93 2.34403 0.0960457 0
M  V30 10915 C 1012.95 1.51862 0.849355 0
M  V30 10916 O 1014.12 1.84632 0.804557 0
M  V30 10917 C 1011.19 3.29646 1.07397 0
M  V30 10918 C 1010.25 4.28095 0.321466 0
M  V30 10919 C 1009.48 5.18787 1.25281 0
M  V30 10920 O 1009.7 5.1313 2.49106 0
M  V30 10921 O 1008.64 5.97282 0.744156 0
M  V30 10922 H 1012.46 2.96898 -0.639176 0
M  V30 10923 H 1010.05 1.44529 -0.37837 0
M  V30 10924 H 1011.93 3.88307 1.63694 0
M  V30 10925 H 1010.61 2.69702 1.79004 0
M  V30 10926 H 1009.51 3.73019 -0.284223 0
M  V30 10927 H 1010.85 4.90923 -0.354315 0
M  V30 10928 N 1012.5 0.357919 1.53482 0
M  V30 10929 C 1013.75 -0.234163 2.01142 0
M  V30 10930 C 1014.07 -1.49399 1.2454 0
M  V30 10931 O 1013.33 -1.92981 0.325111 0
M  V30 10932 C 1013.63 -0.579617 3.52669 0
M  V30 10933 C 1013.29 0.584988 4.47089 0
M  V30 10934 C 1011.96 0.904558 4.72622 0
M  V30 10935 C 1014.31 1.3656 5.02992 0
M  V30 10936 C 1011.64 2.00685 5.5131 0
M  V30 10937 C 1013.99 2.45824 5.82884 0
M  V30 10938 C 1012.65 2.78325 6.06706 0
M  V30 10939 H 1011.92 -0.0856863 0.736029 0
M  V30 10940 H 1014.57 0.488801 1.85157 0
M  V30 10941 H 1012.87 -1.38349 3.66561 0
M  V30 10942 H 1014.57 -1.04985 3.87013 0
M  V30 10943 H 1011.16 0.32587 4.27359 0
M  V30 10944 H 1015.34 1.13196 4.83219 0
M  V30 10945 H 1010.6 2.26272 5.67988 0
M  V30 10946 H 1014.77 3.06732 6.25211 0
M  V30 10947 H 1012.4 3.63862 6.67464 0
M  V30 10948 N 1013.98 -1.5736 0.0868897 0
M  V30 10949 C 1015.22 -1.95147 -0.573512 0
M  V30 10950 C 1015.58 -0.967591 -1.66299 0
M  V30 10951 O 1014.87 0.00774571 -1.91598 0
M  V30 10952 C 1015.06 -3.37316 -1.18123 0
M  V30 10953 C 1014.89 -4.49443 -0.152145 0
M  V30 10954 C 1013.66 -5.04586 0.268496 0
M  V30 10955 C 1015.86 -5.10592 0.616502 0
M  V30 10956 N 1013.84 -6.00264 1.28671 0
M  V30 10957 C 1015.21 -6.0191 1.48677 0
M  V30 10958 C 1017.27 -4.93359 0.67092 0
M  V30 10959 C 1015.97 -6.77844 2.40664 0
M  V30 10960 C 1018 -5.69949 1.57837 0
M  V30 10961 C 1017.36 -6.60927 2.43628 0
M  V30 10962 H 1013.46 -0.760898 -0.180439 0
M  V30 10963 H 1016.04 -1.93978 0.167548 0
M  V30 10964 H 1014.21 -3.39194 -1.89214 0
M  V30 10965 H 1015.95 -3.62301 -1.80332 0
M  V30 10966 H 1012.7 -4.73454 -0.117625 0
M  V30 10967 H 1013.13 -6.52804 1.79377 0
M  V30 10968 H 1017.77 -4.22794 0.0218207 0
M  V30 10969 H 1015.49 -7.47677 3.06603 0
M  V30 10970 H 1019.07 -5.58631 1.6255 0
M  V30 10971 H 1017.95 -7.19156 3.12705 0
M  V30 10972 N 1015.45 0.186762 -1.56489 0
M  V30 10973 C 1016.42 1.21511 -1.94339 0
M  V30 10974 C 1017.42 1.38001 -0.82537 0
M  V30 10975 O 1018.61 1.3567 -1.09266 0
M  V30 10976 C 1015.74 2.583 -2.22472 0
M  V30 10977 H 1016.93 0.891371 -2.86347 0
M  V30 10978 H 1014.49 0.428612 -1.50308 0
M  V30 10979 H 1015.22 2.95715 -1.33129 0
M  V30 10980 H 1015.01 2.47701 -3.03951 0
M  V30 10981 H 1016.5 3.32441 -2.5273 0
M  V30 10982 N 1016.93 1.50896 0.454776 0
M  V30 10983 C 1017.84 1.73762 1.5762 0
M  V30 10984 C 1018.86 0.621206 1.62533 0
M  V30 10985 O 1020.03 0.901449 1.801 0
M  V30 10986 C 1017.1 1.84183 2.9373 0
M  V30 10987 C 1016.16 3.07982 2.99075 0
M  V30 10988 C 1015.39 3.17896 4.28693 0
M  V30 10989 O 1015.62 2.34184 5.20109 0
M  V30 10990 O 1014.55 4.10749 4.39964 0
M  V30 10991 H 1018.38 2.68856 1.41245 0
M  V30 10992 H 1015.96 1.35187 0.635984 0
M  V30 10993 H 1017.84 1.93123 3.74542 0
M  V30 10994 H 1016.52 0.922742 3.10269 0
M  V30 10995 H 1015.43 3.04531 2.17282 0
M  V30 10996 H 1016.76 3.99523 2.87476 0
M  V30 10997 N 1018.41 -0.709066 1.40748 0
M  V30 10998 C 1019.66 -1.46611 1.39103 0
M  V30 10999 C 1019.98 -1.95 -0.00365366 0
M  V30 11000 O 1019.25 -1.70791 -0.959541 0
M  V30 11001 H 1017.83 -0.543954 0.511979 0
M  V30 11002 H 1020.49 -0.840141 1.75863 0
M  V30 11003 H 1019.59 -2.33581 2.06994 0
M  V30 11004 N 1019.89 -1.26353 -0.941956 0
M  V30 11005 C 1021.17 -1.02601 -1.6653 0
M  V30 11006 C 1021.55 0.44381 -2.06382 0
M  V30 11007 O 1020.89 1.42399 -1.78703 0
M  V30 11008 C 1021.1 -1.97401 -2.87809 0
M  V30 11009 C 1022.45 -2.25967 -3.59478 0
M  V30 11010 O 1023.48 -1.95261 -2.97912 0
M  V30 11011 O 1022.34 -2.78244 -4.70364 0
M  V30 11012 H 1019.43 -0.39007 -0.729228 0
M  V30 11013 H 1021.98 -1.37559 -0.993754 0
M  V30 11014 H 1020.75 -2.9659 -2.55245 0
M  V30 11015 H 1020.37 -1.62918 -3.62689 0
M  V30 11016 N 1021.37 1.14642 -1.08144 0
M  V30 11017 C 1022.28 2.23257 -0.720668 0
M  V30 11018 C 1023.29 1.71866 0.271648 0
M  V30 11019 O 1024.47 2.01064 0.116266 0
M  V30 11020 C 1021.53 3.46447 -0.132542 0
M  V30 11021 C 1020.6 4.12789 -1.17913 0
M  V30 11022 C 1019.83 5.30099 -0.618971 0
M  V30 11023 O 1020.05 5.6762 0.562418 0
M  V30 11024 O 1018.99 5.86154 -1.36774 0
M  V30 11025 H 1022.81 2.56463 -1.62667 0
M  V30 11026 H 1020.4 1.22521 -0.854932 0
M  V30 11027 H 1022.28 4.20959 0.19277 0
M  V30 11028 H 1020.95 3.14971 0.746662 0
M  V30 11029 H 1019.86 3.40163 -1.55693 0
M  V30 11030 H 1021.19 4.48365 -2.03051 0
M  V30 11031 N 1022.85 0.866709 1.31628 0
M  V30 11032 C 1023.78 0.264788 2.26659 0
M  V30 11033 C 1024.76 -0.604181 1.50958 0
M  V30 11034 O 1025.94 -0.558324 1.80042 0
M  V30 11035 C 1023.07 -0.625373 3.32877 0
M  V30 11036 C 1022.11 0.171813 4.26154 0
M  V30 11037 S 1022.95 1.54818 5.12632 0
M  V30 11038 C 1024.1 0.66405 6.22367 0
M  V30 11039 H 1024.34 1.07036 2.77364 0
M  V30 11040 H 1021.87 0.665038 1.39343 0
M  V30 11041 H 1023.83 -1.13327 3.94547 0
M  V30 11042 H 1022.49 -1.40486 2.80932 0
M  V30 11043 H 1021.68 -0.506694 5.01447 0
M  V30 11044 H 1021.28 0.611704 3.68964 0
M  V30 11045 H 1023.57 -0.126717 6.77381 0
M  V30 11046 H 1024.52 1.388 6.94363 0
M  V30 11047 H 1024.93 0.233046 5.64019 0
M  V30 11048 N 1024.32 -1.44642 0.625825 0
M  V30 11049 C 1025.27 -2.30653 -0.082259 0
M  V30 11050 C 1026.24 -1.43174 -0.842052 0
M  V30 11051 O 1027.43 -1.72082 -0.824151 0
M  V30 11052 C 1024.57 -3.2837 -1.06146 0
M  V30 11053 C 1023.68 -4.30953 -0.300638 0
M  V30 11054 C 1022.81 -5.15766 -1.27118 0
M  V30 11055 C 1021.85 -6.10061 -0.499215 0
M  V30 11056 N 1020.99 -6.87591 -1.41995 0
M  V30 11057 H 1025.83 -2.90664 0.657161 0
M  V30 11058 H 1023.37 -1.43215 0.335859 0
M  V30 11059 H 1025.32 -3.83507 -1.6425 0
M  V30 11060 H 1023.95 -2.70072 -1.76807 0
M  V30 11061 H 1023.01 -3.78331 0.396234 0
M  V30 11062 H 1024.32 -4.97892 0.300851 0
M  V30 11063 H 1023.47 -5.75394 -1.92372 0
M  V30 11064 H 1022.21 -4.48888 -1.9066 0
M  V30 11065 H 1021.22 -5.49547 0.166848 0
M  V30 11066 H 1022.44 -6.78973 0.131409 0
M  V30 11067 H 1020.39 -6.23387 -2.04267 0
M  V30 11068 H 1020.3 -7.5095 -0.872354 0
M  V30 11069 H 1021.57 -7.51746 -2.0615 0
M  V30 11070 N 1025.8 -0.366053 -1.5329 0
M  V30 11071 C 1026.75 0.480205 -2.25749 0
M  V30 11072 C 1027.72 1.07713 -1.2644 0
M  V30 11073 O 1028.9 1.10953 -1.55222 0
M  V30 11074 C 1026.04 1.61374 -3.05045 0
M  V30 11075 C 1025.16 1.04194 -4.19246 0
M  V30 11076 C 1024.29 2.14462 -4.85983 0
M  V30 11077 C 1023.33 1.5475 -5.92215 0
M  V30 11078 N 1022.47 2.58852 -6.52641 0
M  V30 11079 H 1027.31 -0.144199 -2.97651 0
M  V30 11080 H 1024.84 -0.0829321 -1.46866 0
M  V30 11081 H 1026.8 2.28144 -3.49294 0
M  V30 11082 H 1025.43 2.2088 -2.35397 0
M  V30 11083 H 1024.48 0.264514 -3.79479 0
M  V30 11084 H 1025.8 0.565379 -4.95585 0
M  V30 11085 H 1024.95 2.89051 -5.33418 0
M  V30 11086 H 1023.69 2.6547 -4.09117 0
M  V30 11087 H 1022.69 0.786759 -5.44142 0
M  V30 11088 H 1023.92 1.04566 -6.71001 0
M  V30 11089 H 1021.87 3.09073 -5.78627 0
M  V30 11090 H 1021.78 2.15884 -7.24521 0
M  V30 11091 H 1023.05 3.33142 -7.04724 0
M  V30 11092 N 1027.28 1.57312 -0.0952337 0
M  V30 11093 C 1028.21 2.17056 0.860753 0
M  V30 11094 C 1029.19 1.10394 1.29411 0
M  V30 11095 O 1030.38 1.38532 1.36098 0
M  V30 11096 C 1027.51 2.751 2.11984 0
M  V30 11097 C 1026.46 3.87136 1.8251 0
M  V30 11098 C 1025.79 4.31883 3.15247 0
M  V30 11099 C 1027.09 5.10326 1.11194 0
M  V30 11100 H 1028.78 2.97192 0.362983 0
M  V30 11101 H 1026.33 1.42955 0.173151 0
M  V30 11102 H 1028.28 3.15547 2.79299 0
M  V30 11103 H 1027 1.92219 2.64044 0
M  V30 11104 H 1025.66 3.47229 1.17592 0
M  V30 11105 H 1025.31 3.45893 3.65195 0
M  V30 11106 H 1025.01 5.0742 2.96309 0
M  V30 11107 H 1026.53 4.74964 3.83721 0
M  V30 11108 H 1027.95 5.47942 1.6862 0
M  V30 11109 H 1026.34 5.91293 1.02435 0
M  V30 11110 H 1027.41 4.84807 0.0947227 0
M  V30 11111 N 1028.76 -0.17846 1.56586 0
M  V30 11112 C 1030.01 -0.894464 1.81228 0
M  V30 11113 C 1030.33 -1.83089 0.671062 0
M  V30 11114 O 1029.6 -1.93439 -0.309557 0
M  V30 11115 H 1028.18 -0.333288 0.668527 0
M  V30 11116 H 1030.84 -0.179986 1.94067 0
M  V30 11117 H 1029.93 -1.47565 2.75011 0
M  V30 11118 N 1030.24 -1.51135 -0.446768 0
M  V30 11119 C 1031.48 -1.62571 -1.19388 0
M  V30 11120 C 1031.8 -0.3432 -1.92566 0
M  V30 11121 O 1033 -0.336804 -2.69403 0
M  V30 11122 C 1031.46 -2.87071 -2.17068 0
M  V30 11123 C 1031.07 -4.22291 -1.49581 0
M  V30 11124 C 1032.81 -3.07862 -2.9227 0
M  V30 11125 C 1030.72 -5.3795 -2.45689 0
M  V30 11126 H 1029.65 -0.60549 -0.449331 0
M  V30 11127 H 1032.3 -1.77593 -0.461846 0
M  V30 11128 H 1030.68 -2.65662 -2.93666 0
M  V30 11129 H 1031.86 -4.54046 -0.786054 0
M  V30 11130 H 1030.17 -4.07302 -0.865677 0
M  V30 11131 H 1032.77 -3.91444 -3.64246 0
M  V30 11132 H 1033.11 -2.20559 -3.53072 0
M  V30 11133 H 1033.64 -3.29566 -2.2278 0
M  V30 11134 H 1030.38 -6.27484 -1.89591 0
M  V30 11135 H 1029.9 -5.10583 -3.14746 0
M  V30 11136 H 1031.58 -5.69517 -3.07017 0
M  V30 11137 N 1031.71 0.701592 -1.41122 0
M  V30 11138 C 1032.65 1.8268 -1.38422 0
M  V30 11139 C 1033.66 1.60244 -0.287342 0
M  V30 11140 O 1034.85 1.69859 -0.548658 0
M  V30 11141 C 1031.95 3.19338 -1.13475 0
M  V30 11142 C 1031.12 3.68853 -2.35088 0
M  V30 11143 C 1030.18 4.84163 -2.06089 0
M  V30 11144 O 1029.21 4.9609 -2.79077 0
M  V30 11145 N 1030.41 5.70972 -1.04743 0
M  V30 11146 H 1033.17 1.8549 -2.35401 0
M  V30 11147 H 1030.73 0.883682 -1.35656 0
M  V30 11148 H 1032.73 3.94095 -0.920377 0
M  V30 11149 H 1031.3 3.11589 -0.251152 0
M  V30 11150 H 1030.52 2.8507 -2.72266 0
M  V30 11151 H 1031.8 3.98673 -3.16129 0
M  V30 11152 H 1031.2 5.63961 -0.443221 0
M  V30 11153 H 1029.76 6.45654 -0.892949 0
M  V30 11154 N 1033.19 1.2685 0.935242 0
M  V30 11155 C 1034.6 1.11569 1.49697 0
M  V30 11156 C 1034.95 -0.301952 1.93863 0
M  V30 11157 O 1034.08 -1.19408 1.80473 0
M  V30 11158 C 1034.67 2.01918 2.72056 0
M  V30 11159 C 1033.23 1.90765 3.24477 0
M  V30 11160 C 1032.38 1.94918 1.97237 0
M  V30 11161 H 1035.33 1.39853 0.750116 0
M  V30 11162 H 1035.35 1.57056 3.46574 0
M  V30 11163 H 1034.86 3.05088 2.39881 0
M  V30 11164 H 1032.96 0.905521 3.61429 0
M  V30 11165 H 1033.08 2.76611 3.91182 0
M  V30 11166 H 1031.44 1.39046 2.13397 0
M  V30 11167 H 1032.22 2.99729 1.67385 0
M  V30 11168 N 1034.67 -1.14067 1.0875 0
M  V30 11169 C 1035.92 -1.84535 0.814235 0
M  V30 11170 C 1036.23 -1.84044 -0.662355 0
M  V30 11171 O 1037.44 -2.50336 -1.05091 0
M  V30 11172 C 1035.89 -3.31273 1.40663 0
M  V30 11173 C 1035.5 -3.40171 2.91526 0
M  V30 11174 C 1037.25 -4.0683 1.21201 0
M  V30 11175 C 1035.15 -4.81141 3.43885 0
M  V30 11176 H 1034.08 -0.691346 0.300926 0
M  V30 11177 H 1036.73 -1.28562 1.30935 0
M  V30 11178 H 1035.12 -3.87005 0.839215 0
M  V30 11179 H 1036.29 -2.94471 3.54434 0
M  V30 11180 H 1034.61 -2.78073 3.09942 0
M  V30 11181 H 1037.2 -5.10891 1.57781 0
M  V30 11182 H 1037.55 -4.16022 0.152092 0
M  V30 11183 H 1038.08 -3.57408 1.74655 0
M  V30 11184 H 1034.82 -4.77138 4.49466 0
M  V30 11185 H 1034.34 -5.27365 2.85738 0
M  V30 11186 H 1036.02 -5.50042 3.40681 0
M  V30 11187 N 1036.15 -0.873678 -1.31166 0
M  V30 11188 C 1037.56 -0.53852 -1.78765 0
M  V30 11189 C 1037.91 0.944765 -1.71955 0
M  V30 11190 O 1037.04 1.73781 -1.28954 0
M  V30 11191 C 1037.63 -0.970749 -3.24595 0
M  V30 11192 C 1036.19 -0.687189 -3.70074 0
M  V30 11193 C 1035.34 -1.16001 -2.51871 0
M  V30 11194 H 1038.29 -1.05903 -1.18196 0
M  V30 11195 H 1038.31 -0.294966 -3.79355 0
M  V30 11196 H 1037.82 -2.05034 -3.29519 0
M  V30 11197 H 1035.92 0.380881 -3.70648 0
M  V30 11198 H 1036.03 -1.26682 -4.62048 0
M  V30 11199 H 1034.4 -0.579663 -2.48016 0
M  V30 11200 H 1035.18 -2.2471 -2.59539 0
M  V30 11201 N 1037.63 1.44308 -0.633487 0
M  V30 11202 C 1038.56 2.27887 0.119397 0
M  V30 11203 C 1039.54 1.38676 0.848981 0
M  V30 11204 O 1040.72 1.68116 0.85259 0
M  V30 11205 C 1037.85 3.17658 1.17521 0
M  V30 11206 C 1036.89 4.22992 0.54589 0
M  V30 11207 S 1037.73 5.31345 -0.6658 0
M  V30 11208 C 1038.88 6.24684 0.389965 0
M  V30 11209 H 1039.12 2.91394 -0.589638 0
M  V30 11210 H 1036.65 1.48529 -0.421727 0
M  V30 11211 H 1038.61 3.69929 1.77941 0
M  V30 11212 H 1037.27 2.53367 1.85645 0
M  V30 11213 H 1036.46 4.85828 1.34115 0
M  V30 11214 H 1036.06 3.73996 0.0162506 0
M  V30 11215 H 1038.36 6.65645 1.26185 0
M  V30 11216 H 1039.3 7.07809 -0.202878 0
M  V30 11217 H 1039.71 5.59929 0.716922 0
M  V30 11218 N 1039.1 0.374177 1.53094 0
M  V30 11219 C 1040.04 -0.511995 2.22382 0
M  V30 11220 C 1041.02 -1.07617 1.2189 0
M  V30 11221 O 1042.2 -1.13068 1.50824 0
M  V30 11222 C 1039.33 -1.70724 2.92525 0
M  V30 11223 C 1038.37 -1.26972 4.07161 0
M  V30 11224 S 1039.21 -0.263835 5.3485 0
M  V30 11225 C 1040.36 -1.46521 6.08508 0
M  V30 11226 H 1040.59 0.0764311 2.97202 0
M  V30 11227 H 1038.13 0.158307 1.53586 0
M  V30 11228 H 1040.09 -2.39279 3.3355 0
M  V30 11229 H 1038.75 -2.26693 2.17414 0
M  V30 11230 H 1037.94 -2.16172 4.55286 0
M  V30 11231 H 1037.54 -0.663273 3.68072 0
M  V30 11232 H 1039.83 -2.39483 6.33762 0
M  V30 11233 H 1040.78 -1.02517 7.0064 0
M  V30 11234 H 1041.18 -1.67516 5.39072 0
M  V30 11235 N 1040.58 -1.57259 0.103575 0
M  V30 11236 C 1041.86 -1.86143 -0.600852 0
M  V30 11237 C 1042.24 -1.00198 -1.85805 0
M  V30 11238 O 1041.59 -0.0766791 -2.28371 0
M  V30 11239 C 1041.8 -3.36978 -0.908108 0
M  V30 11240 C 1043.15 -4.05228 -1.26788 0
M  V30 11241 O 1044.17 -3.41908 -0.998859 0
M  V30 11242 O 1043.03 -5.16971 -1.7721 0
M  V30 11243 H 1040.12 -0.770064 -0.301547 0
M  V30 11244 H 1042.67 -1.69147 0.136914 0
M  V30 11245 H 1041.44 -3.91296 -0.0165615 0
M  V30 11246 H 1041.06 -3.5935 -1.70156 0
M  V30 11247 N 1042.06 0.170153 -1.56679 0
M  V30 11248 C 1043.48 0.521966 -1.50823 0
M  V30 11249 C 1043.68 1.84589 -0.808037 0
M  V30 11250 O 1042.73 2.49791 -0.368891 0
M  V30 11251 C 1044.05 0.553648 -2.95559 0
M  V30 11252 C 1045.59 0.640769 -3.06371 0
M  V30 11253 C 1046.07 0.703332 -4.52567 0
M  V30 11254 N 1047.56 0.76619 -4.56819 0
M  V30 11255 C 1048.29 0.835192 -5.67285 0
M  V30 11256 N 1047.79 0.864957 -6.87379 0
M  V30 11257 N 1049.58 0.874302 -5.55259 0
M  V30 11258 H 1041.73 -0.697952 -2.00605 0
M  V30 11259 H 1044 -0.251787 -0.913952 0
M  V30 11260 H 1043.7 -0.350498 -3.49949 0
M  V30 11261 H 1043.58 1.39973 -3.50268 0
M  V30 11262 H 1045.96 1.53534 -2.52015 0
M  V30 11263 H 1046.05 -0.232008 -2.54746 0
M  V30 11264 H 1045.69 -0.186986 -5.07556 0
M  V30 11265 H 1045.62 1.59227 -5.0195 0
M  V30 11266 H 1048.11 0.751424 -3.70354 0
M  V30 11267 H 1048.42 0.918814 -7.67318 0
M  V30 11268 H 1046.77 0.833215 -6.89987 0
M  V30 11269 H 1049.96 0.848057 -4.60354 0
M  V30 11270 H 1050.13 0.924615 -6.4137 0
M  V30 11271 N 1043.54 1.5137 0.438746 0
M  V30 11272 C 1044.82 1.54508 1.19944 0
M  V30 11273 C 1045.2 0.308525 2.08833 0
M  V30 11274 O 1044.54 -0.706461 2.17305 0
M  V30 11275 C 1044.75 2.85833 2.00251 0
M  V30 11276 C 1046.1 3.37729 2.5734 0
M  V30 11277 O 1047.13 2.87374 2.10463 0
M  V30 11278 O 1045.98 4.25589 3.42836 0
M  V30 11279 H 1043.08 0.621132 0.546007 0
M  V30 11280 H 1045.62 1.63682 0.447931 0
M  V30 11281 H 1044.4 3.67291 1.34955 0
M  V30 11282 H 1044.02 2.79815 2.8247 0
M  V30 11283 N 1045.02 -0.694098 1.41492 0
M  V30 11284 C 1045.96 -1.80801 1.43456 0
M  V30 11285 C 1046.93 -1.63571 0.288757 0
M  V30 11286 O 1048.12 -1.844 0.490017 0
M  V30 11287 C 1045.26 -3.18694 1.32394 0
M  V30 11288 C 1044.37 -3.47346 2.56855 0
M  V30 11289 C 1043.51 -4.74862 2.38075 0
M  V30 11290 C 1042.55 -4.96486 3.58005 0
M  V30 11291 N 1041.68 -6.15229 3.38287 0
M  V30 11292 H 1046.52 -1.78457 2.38657 0
M  V30 11293 H 1044.06 -0.871455 1.18508 0
M  V30 11294 H 1046.02 -3.98352 1.23982 0
M  V30 11295 H 1044.65 -3.20211 0.407999 0
M  V30 11296 H 1043.7 -2.62083 2.75711 0
M  V30 11297 H 1045.01 -3.59226 3.4606 0
M  V30 11298 H 1044.17 -5.62577 2.27139 0
M  V30 11299 H 1042.9 -4.6523 1.46329 0
M  V30 11300 H 1041.91 -4.07219 3.69395 0
M  V30 11301 H 1043.13 -5.07976 4.50708 0
M  V30 11302 H 1041.08 -6.06807 2.49242 0
M  V30 11303 H 1041 -6.27883 4.21069 0
M  V30 11304 H 1042.27 -7.05674 3.31126 0
M  V30 11305 N 1046.49 -1.27344 -0.928501 0
M  V30 11306 C 1047.44 -1.10001 -2.029 0
M  V30 11307 C 1048.41 -0.00131084 -1.661 0
M  V30 11308 O 1049.6 -0.163485 -1.90098 0
M  V30 11309 C 1046.74 -0.7524 -3.36798 0
M  V30 11310 C 1045.85 -1.92865 -3.86558 0
M  V30 11311 C 1044.98 -1.52299 -5.08899 0
M  V30 11312 C 1044.02 -2.66677 -5.50953 0
M  V30 11313 N 1043.16 -2.26706 -6.64491 0
M  V30 11314 H 1048 -2.0417 -2.17068 0
M  V30 11315 H 1045.54 -1.01637 -1.0634 0
M  V30 11316 H 1047.5 -0.531687 -4.13798 0
M  V30 11317 H 1046.13 0.15234 -3.2244 0
M  V30 11318 H 1045.18 -2.26192 -3.05845 0
M  V30 11319 H 1046.49 -2.78668 -4.13698 0
M  V30 11320 H 1045.64 -1.26348 -5.93398 0
M  V30 11321 H 1044.38 -0.636042 -4.83535 0
M  V30 11322 H 1043.39 -2.93344 -4.65004 0
M  V30 11323 H 1044.61 -3.55992 -5.78313 0
M  V30 11324 H 1042.56 -1.40462 -6.40786 0
M  V30 11325 H 1042.48 -3.06049 -6.91281 0
M  V30 11326 H 1043.74 -2.04 -7.52333 0
M  V30 11327 N 1047.97 1.13488 -1.09353 0
M  V30 11328 C 1049.25 1.80998 -0.741559 0
M  V30 11329 C 1049.63 1.96418 0.773505 0
M  V30 11330 O 1048.98 1.53168 1.69563 0
M  V30 11331 C 1049.19 3.16078 -1.47972 0
M  V30 11332 C 1050.54 3.91438 -1.64504 0
M  V30 11333 O 1051.56 3.25699 -1.44218 0
M  V30 11334 O 1050.42 5.0935 -1.98054 0
M  V30 11335 H 1047.51 0.782953 -0.266297 0
M  V30 11336 H 1050.06 1.20422 -1.19569 0
M  V30 11337 H 1048.83 3.00076 -2.51137 0
M  V30 11338 H 1048.45 3.84354 -1.01772 0
M  V30 11339 N 1049.45 0.880621 1.30701 0
M  V30 11340 C 1050.36 0.348034 2.32004 0
M  V30 11341 C 1051.38 -0.547508 1.65162 0
M  V30 11342 O 1052.55 -0.441673 1.96497 0
M  V30 11343 C 1049.62 -0.432585 3.43991 0
M  V30 11344 C 1048.68 0.492189 4.26469 0
M  V30 11345 C 1047.91 -0.25127 5.33108 0
M  V30 11346 O 1048.14 -1.47795 5.5092 0
M  V30 11347 O 1047.07 0.396376 6.00593 0
M  V30 11348 H 1050.9 1.18798 2.79501 0
M  V30 11349 H 1048.48 0.64432 1.34792 0
M  V30 11350 H 1050.36 -0.874733 4.12221 0
M  V30 11351 H 1049.04 -1.2489 2.98637 0
M  V30 11352 H 1047.94 0.983058 3.60953 0
M  V30 11353 H 1049.28 1.27439 4.75416 0
M  V30 11354 N 1050.93 -1.4397 0.641131 0
M  V30 11355 C 1052.18 -2.02246 0.14985 0
M  V30 11356 C 1052.51 -1.50387 -1.22871 0
M  V30 11357 O 1051.78 -0.692003 -1.81773 0
M  V30 11358 C 1052.07 -3.59798 0.147449 0
M  V30 11359 C 1051.92 -4.21916 1.55907 0
M  V30 11360 C 1053.24 -4.36985 -0.522667 0
M  V30 11361 H 1050.36 -0.734875 0.0559274 0
M  V30 11362 H 1053 -1.71418 0.819513 0
M  V30 11363 H 1051.15 -3.86193 -0.422789 0
M  V30 11364 H 1052.82 -4.06594 2.17896 0
M  V30 11365 H 1051.06 -3.79028 2.10998 0
M  V30 11366 H 1051.74 -5.30964 1.50934 0
M  V30 11367 H 1054.21 -4.16083 -0.0376226 0
M  V30 11368 H 1053.09 -5.46676 -0.493572 0
M  V30 11369 H 1053.35 -4.12335 -1.59475 0
M  V30 11370 N 1052.41 -0.382291 -1.52893 0
M  V30 11371 C 1053.82 0.0932841 -1.86467 0
M  V30 11372 C 1054.17 1.4675 -1.30226 0
M  V30 11373 O 1053.29 2.07001 -0.63084 0
M  V30 11374 C 1053.89 0.176048 -3.38342 0
M  V30 11375 C 1052.45 0.595904 -3.71653 0
M  V30 11376 C 1051.6 -0.246511 -2.76202 0
M  V30 11377 H 1054.55 -0.600443 -1.46903 0
M  V30 11378 H 1054.57 0.996512 -3.67219 0
M  V30 11379 H 1054.08 -0.824264 -3.79246 0
M  V30 11380 H 1052.18 1.60384 -3.36315 0
M  V30 11381 H 1052.29 0.358919 -4.77754 0
M  V30 11382 H 1050.66 0.287162 -2.53076 0
M  V30 11383 H 1051.44 -1.24467 -3.19942 0
M  V30 11384 N 1053.89 1.57202 -0.111913 0
M  V30 11385 C 1054.82 2.11995 0.871242 0
M  V30 11386 C 1055.83 1.06102 1.23475 0
M  V30 11387 O 1057.02 1.33497 1.18494 0
M  V30 11388 C 1054.12 2.59874 2.17528 0
M  V30 11389 C 1053.29 3.89788 1.98455 0
M  V30 11390 C 1052.35 4.23339 3.12523 0
M  V30 11391 O 1051.38 4.92277 2.85748 0
M  V30 11392 N 1052.58 3.80089 4.38762 0
M  V30 11393 H 1055.34 2.96976 0.403157 0
M  V30 11394 H 1052.91 1.61737 0.0727159 0
M  V30 11395 H 1054.9 2.79354 2.9282 0
M  V30 11396 H 1053.47 1.79812 2.55707 0
M  V30 11397 H 1052.69 3.79288 1.07396 0
M  V30 11398 H 1053.98 4.74748 1.83007 0
M  V30 11399 H 1053.37 3.24473 4.63394 0
M  V30 11400 H 1051.93 4.04691 5.10949 0
M  V30 11401 N 1055.36 -0.161842 1.56767 0
M  V30 11402 C 1056.61 -0.875192 1.82167 0
M  V30 11403 C 1056.93 -1.82367 0.690444 0
M  V30 11404 O 1056.2 -1.93756 -0.289023 0
M  V30 11405 H 1054.78 -0.326178 0.672024 0
M  V30 11406 H 1057.44 -0.159392 1.94247 0
M  V30 11407 H 1056.54 -1.44639 2.76561 0
M  V30 11408 N 1056.84 -1.516 -0.430713 0
M  V30 11409 C 1057.77 -1.69594 -1.54177 0
M  V30 11410 C 1058.79 -0.576518 -1.5225 0
M  V30 11411 O 1059.98 -0.85104 -1.56906 0
M  V30 11412 C 1057.08 -1.70148 -2.93092 0
M  V30 11413 C 1056.25 -2.98782 -3.1945 0
M  V30 11414 C 1055.31 -2.91435 -4.38123 0
M  V30 11415 O 1054.33 -3.65372 -4.36454 0
M  V30 11416 N 1055.54 -2.0774 -5.42056 0
M  V30 11417 H 1058.3 -2.65442 -1.39143 0
M  V30 11418 H 1055.86 -1.49569 -0.61974 0
M  V30 11419 H 1057.85 -1.62793 -3.70514 0
M  V30 11420 H 1056.42 -0.818667 -3.0169 0
M  V30 11421 H 1055.64 -3.19954 -2.30267 0
M  V30 11422 H 1056.93 -3.83919 -3.33892 0
M  V30 11423 H 1056.33 -1.47059 -5.46251 0
M  V30 11424 H 1054.89 -2.06259 -6.18305 0
M  V30 11425 N 1058.32 0.686584 -1.41858 0
M  V30 11426 C 1059.25 1.81264 -1.47193 0
M  V30 11427 C 1060.23 1.66875 -0.329657 0
M  V30 11428 O 1061.42 1.86473 -0.542347 0
M  V30 11429 C 1058.55 3.19472 -1.36216 0
M  V30 11430 C 1057.5 3.4858 -2.48347 0
M  V30 11431 C 1056.83 4.86239 -2.22432 0
M  V30 11432 C 1058.13 3.46653 -3.90678 0
M  V30 11433 H 1059.82 1.77057 -2.41436 0
M  V30 11434 H 1057.37 0.850415 -1.16206 0
M  V30 11435 H 1059.32 3.97969 -1.38558 0
M  V30 11436 H 1058.04 3.24327 -0.384611 0
M  V30 11437 H 1056.7 2.72437 -2.45303 0
M  V30 11438 H 1056.35 4.8773 -1.22999 0
M  V30 11439 H 1056.05 5.06677 -2.97577 0
M  V30 11440 H 1057.57 5.67034 -2.26505 0
M  V30 11441 H 1058.99 4.15139 -3.95389 0
M  V30 11442 H 1057.38 3.78625 -4.65578 0
M  V30 11443 H 1058.45 2.45451 -4.18189 0
M  V30 11444 N 1059.8 1.27835 0.921735 0
M  V30 11445 C 1061.05 1.14296 1.66676 0
M  V30 11446 C 1061.37 -0.310493 1.92512 0
M  V30 11447 O 1060.64 -1.21637 1.53562 0
M  V30 11448 H 1059.22 0.419994 0.617749 0
M  V30 11449 H 1061.88 1.60449 1.10644 0
M  V30 11450 H 1060.97 1.67654 2.63246 0
M  V30 11451 N 1061.28 -1.12907 1.09954 0
M  V30 11452 C 1062.52 -1.84306 0.838912 0
M  V30 11453 C 1062.85 -1.83825 -0.635508 0
M  V30 11454 O 1062.11 -1.27556 -1.48418 0
M  V30 11455 C 1062.4 -3.31885 1.32616 0
M  V30 11456 C 1062.07 -3.52542 2.81114 0
M  V30 11457 C 1060.73 -3.57888 3.21667 0
M  V30 11458 C 1063.08 -3.60065 3.76833 0
M  V30 11459 C 1060.41 -3.68296 4.567 0
M  V30 11460 C 1062.76 -3.72001 5.11662 0
M  V30 11461 C 1061.43 -3.75602 5.51797 0
M  V30 11462 H 1060.7 -0.674422 0.30698 0
M  V30 11463 H 1063.35 -1.33261 1.37527 0
M  V30 11464 H 1061.65 -3.85318 0.709719 0
M  V30 11465 H 1063.35 -3.85588 1.10105 0
M  V30 11466 H 1059.94 -3.4904 2.48735 0
M  V30 11467 H 1064.12 -3.55209 3.46612 0
M  V30 11468 H 1059.38 -3.69352 4.87226 0
M  V30 11469 H 1063.55 -3.76765 5.8568 0
M  V30 11470 H 1061.18 -3.83419 6.56425 0
M  V30 11471 N 1062.75 -0.88754 -1.30232 0
M  V30 11472 C 1063.98 -0.521549 -1.99909 0
M  V30 11473 C 1064.39 0.895086 -1.66688 0
M  V30 11474 O 1063.73 1.60053 -0.90159 0
M  V30 11475 C 1063.8 -0.619564 -3.54121 0
M  V30 11476 C 1063.46 -2.00097 -4.10865 0
M  V30 11477 C 1064.46 -2.97068 -4.26669 0
M  V30 11478 C 1062.14 -2.30706 -4.46184 0
M  V30 11479 C 1064.14 -4.2278 -4.77007 0
M  V30 11480 C 1061.82 -3.56663 -4.96221 0
M  V30 11481 C 1062.82 -4.52515 -5.11585 0
M  V30 11482 O 1062.51 -5.76237 -5.60541 0
M  V30 11483 H 1062.24 -0.199904 -0.645766 0
M  V30 11484 H 1064.8 -1.19546 -1.67027 0
M  V30 11485 H 1063.03 0.111334 -3.8654 0
M  V30 11486 H 1064.71 -0.26448 -4.05037 0
M  V30 11487 H 1065.48 -2.74734 -3.99683 0
M  V30 11488 H 1061.36 -1.56865 -4.33491 0
M  V30 11489 H 1064.9 -4.97603 -4.88914 0
M  V30 11490 H 1060.8 -3.78834 -5.22643 0
M  V30 11491 H 1061.57 -5.78655 -5.78879 0
M  V30 11492 N 1064.23 1.43628 -0.648757 0
M  V30 11493 C 1065.18 2.32529 0.057536 0
M  V30 11494 C 1066.17 1.48358 0.817699 0
M  V30 11495 O 1067.38 1.64595 0.728605 0
M  V30 11496 H 1063.76 0.75107 0.037388 0
M  V30 11497 H 1065.73 2.89829 -0.710062 0
M  V30 11498 C 1064.48 3.32605 1.01336 0
M  V30 11499 H 1063.8 3.97395 0.437855 0
M  V30 11500 H 1065.24 3.97453 1.47672 0
M  V30 11501 C 1063.7 2.62865 2.10722 0
M  V30 11502 O 1064.23 2.4408 3.19042 0
M  V30 11503 N 1062.43 2.22312 1.87152 0
M  V30 11504 H 1061.98 2.3779 0.990644 0
M  V30 11505 H 1061.94 1.75979 2.60536 0
M  V30 11506 N 1065.71 0.390394 1.52688 0
M  V30 11507 C 1066.67 -0.432149 2.25089 0
M  V30 11508 C 1067.67 -0.989296 1.26766 0
M  V30 11509 O 1068.86 -0.871126 1.50854 0
M  V30 11510 C 1066 -1.60642 3.00678 0
M  V30 11511 H 1067.19 0.201734 2.99221 0
M  V30 11512 H 1064.74 0.142531 1.55649 0
M  V30 11513 H 1065.48 -2.2777 2.3085 0
M  V30 11514 H 1065.26 -1.21361 3.72846 0
M  V30 11515 H 1066.75 -2.18873 3.55647 0
M  V30 11516 N 1067.19 -1.57141 0.120249 0
M  V30 11517 C 1068.43 -1.95527 -0.538245 0
M  V30 11518 C 1068.77 -1.00373 -1.6625 0
M  V30 11519 O 1068.04 -0.0411734 -1.94456 0
M  V30 11520 C 1068.33 -3.43843 -1.06976 0
M  V30 11521 C 1068.18 -4.49771 0.0511596 0
M  V30 11522 C 1069.5 -3.94035 -1.96022 0
M  V30 11523 H 1066.62 -0.710958 -0.194183 0
M  V30 11524 H 1069.26 -1.88986 0.196061 0
M  V30 11525 H 1067.41 -3.49548 -1.69553 0
M  V30 11526 H 1069.08 -4.56163 0.686503 0
M  V30 11527 H 1067.32 -4.27882 0.714127 0
M  V30 11528 H 1067.99 -5.50812 -0.361995 0
M  V30 11529 H 1070.47 -3.9064 -1.43315 0
M  V30 11530 H 1069.35 -4.98329 -2.3013 0
M  V30 11531 H 1069.61 -3.34803 -2.8872 0
M  V30 11532 N 1068.67 0.153526 -1.5685 0
M  V30 11533 C 1069.63 1.17362 -1.96873 0
M  V30 11534 C 1070.63 1.36219 -0.854456 0
M  V30 11535 O 1071.82 1.33322 -1.1212 0
M  V30 11536 C 1068.95 2.53523 -2.27901 0
M  V30 11537 H 1070.14 0.830432 -2.88173 0
M  V30 11538 H 1067.7 0.396633 -1.51184 0
M  V30 11539 H 1068.43 2.92824 -1.39371 0
M  V30 11540 H 1068.22 2.41198 -3.09137 0
M  V30 11541 H 1069.71 3.27006 -2.59725 0
M  V30 11542 N 1070.14 1.51827 0.422667 0
M  V30 11543 C 1071.39 1.6445 1.16786 0
M  V30 11544 C 1071.71 0.373792 1.91995 0
M  V30 11545 O 1072.91 0.379621 2.68833 0
M  V30 11546 C 1071.37 2.90488 2.12473 0
M  V30 11547 C 1070.98 4.24617 1.42844 0
M  V30 11548 C 1072.72 3.12472 2.87335 0
M  V30 11549 C 1070.63 5.41791 2.371 0
M  V30 11550 H 1069.56 0.612561 0.439641 0
M  V30 11551 H 1072.21 1.78305 0.433534 0
M  V30 11552 H 1070.59 2.703 2.89402 0
M  V30 11553 H 1071.76 4.55239 0.71372 0
M  V30 11554 H 1070.08 4.08628 0.800769 0
M  V30 11555 H 1072.68 3.9719 3.57973 0
M  V30 11556 H 1073.02 2.26148 3.49518 0
M  V30 11557 H 1073.55 3.33069 2.17509 0
M  V30 11558 H 1070.29 6.3042 1.79584 0
M  V30 11559 H 1069.81 5.15526 3.06583 0
M  V30 11560 H 1071.49 5.74329 2.97918 0
M  V30 11561 N 1071.62 -0.679052 1.4222 0
M  V30 11562 C 1073.03 -1.25953 1.37815 0
M  V30 11563 C 1073.38 -1.96077 0.0693215 0
M  V30 11564 O 1072.51 -1.99765 -0.832047 0
M  V30 11565 C 1073.1 -2.29063 2.49631 0
M  V30 11566 C 1071.66 -2.82647 2.48571 0
M  V30 11567 C 1070.81 -1.56909 2.28637 0
M  V30 11568 H 1073.76 -0.472714 1.51496 0
M  V30 11569 H 1073.78 -3.10708 2.19638 0
M  V30 11570 H 1073.29 -1.77996 3.44876 0
M  V30 11571 H 1071.4 -3.37846 1.57132 0
M  V30 11572 H 1071.51 -3.31952 3.45463 0
M  V30 11573 H 1069.87 -1.83323 1.76819 0
M  V30 11574 H 1070.66 -1.07814 3.25931 0
M  V30 11575 N 1073.1 -1.28322 -0.914942 0
M  V30 11576 C 1074.34 -1.16657 -1.6784 0
M  V30 11577 C 1074.7 0.280473 -1.8994 0
M  V30 11578 O 1075.91 0.519801 -2.63726 0
M  V30 11579 C 1074.18 -1.94185 -3.00045 0
M  V30 11580 S 1075.74 -1.98881 -3.91141 0
M  V30 11581 H 1072.55 -0.416232 -0.57643 0
M  V30 11582 H 1075.16 -1.62405 -1.08834 0
M  V30 11583 H 1073.86 -2.98488 -2.81661 0
M  V30 11584 H 1073.39 -1.48982 -3.64099 0
M  V30 11585 H 1075.41 -1.09445 -4.8398 0
M  V30 11586 N 1074.58 1.12322 -1.10551 0
M  V30 11587 C 1075.81 1.87407 -0.869607 0
M  V30 11588 C 1076.22 1.79976 0.58356 0
M  V30 11589 O 1075.56 1.1725 1.41415 0
M  V30 11590 C 1075.62 3.37401 -1.24099 0
M  V30 11591 C 1075.29 3.68607 -2.70144 0
M  V30 11592 C 1076.28 3.66869 -3.68379 0
M  V30 11593 C 1073.97 3.97903 -3.06559 0
M  V30 11594 C 1075.96 3.93987 -5.01052 0
M  V30 11595 C 1073.65 4.24681 -4.39419 0
M  V30 11596 C 1074.65 4.2271 -5.36475 0
M  V30 11597 O 1074.33 4.48823 -6.66943 0
M  V30 11598 H 1074.07 0.59978 -0.311834 0
M  V30 11599 H 1076.62 1.43037 -1.4741 0
M  V30 11600 H 1074.85 3.82332 -0.579606 0
M  V30 11601 H 1076.54 3.93833 -0.982378 0
M  V30 11602 H 1077.31 3.44297 -3.41591 0
M  V30 11603 H 1073.18 3.98578 -2.31638 0
M  V30 11604 H 1076.73 3.92364 -5.76798 0
M  V30 11605 H 1072.63 4.46727 -4.65945 0
M  V30 11606 H 1073.39 4.66436 -6.72592 0
M  V30 11607 N 1076.06 0.894434 1.2976 0
M  V30 11608 C 1077.28 0.532916 1.99919 0
M  V30 11609 C 1077.7 -0.881022 1.66983 0
M  V30 11610 O 1077.06 -1.58076 0.912035 0
M  V30 11611 C 1077.11 0.70936 3.54472 0
M  V30 11612 O 1076.83 2.06764 3.86239 0
M  V30 11613 C 1078.33 0.352089 4.419 0
M  V30 11614 H 1075.55 0.205019 0.638912 0
M  V30 11615 H 1078.09 1.20233 1.65421 0
M  V30 11616 H 1076.25 0.0871901 3.87302 0
M  V30 11617 H 1076.66 2.09315 4.80924 0
M  V30 11618 H 1078.14 0.526405 5.49484 0
M  V30 11619 H 1078.61 -0.710527 4.33415 0
M  V30 11620 H 1079.22 0.950979 4.14532 0
M  V30 11621 N 1077.53 -1.43282 0.656365 0
M  V30 11622 C 1078.76 -2.06125 0.178879 0
M  V30 11623 C 1079.18 -1.49216 -1.15672 0
M  V30 11624 O 1078.53 -0.624693 -1.71475 0
M  V30 11625 C 1078.59 -3.614 0.0851785 0
M  V30 11626 O 1078.31 -4.16194 1.36798 0
M  V30 11627 C 1079.81 -4.41325 -0.41801 0
M  V30 11628 H 1077.03 -0.664753 0.0913504 0
M  V30 11629 H 1079.57 -1.83733 0.897901 0
M  V30 11630 H 1077.73 -3.82966 -0.584421 0
M  V30 11631 H 1078.14 -5.09892 1.22924 0
M  V30 11632 H 1079.61 -5.50303 -0.432519 0
M  V30 11633 H 1080.09 -4.14577 -1.44991 0
M  V30 11634 H 1080.7 -4.24735 0.219208 0
M  V30 11635 N 1079.01 -0.398486 -1.52479 0
M  V30 11636 C 1079.94 0.423498 -2.29627 0
M  V30 11637 C 1080.92 1.05547 -1.33394 0
M  V30 11638 O 1082.11 1.0665 -1.62294 0
M  V30 11639 C 1079.24 1.54612 -3.10986 0
M  V30 11640 C 1078.19 1.03971 -4.15179 0
M  V30 11641 C 1077.52 2.25512 -4.84818 0
M  V30 11642 C 1078.82 0.10121 -5.22202 0
M  V30 11643 H 1080.51 -0.220222 -2.98589 0
M  V30 11644 H 1078.06 -0.107355 -1.43599 0
M  V30 11645 H 1080.01 2.12806 -3.63719 0
M  V30 11646 H 1078.74 2.21756 -2.39774 0
M  V30 11647 H 1077.4 0.480251 -3.63441 0
M  V30 11648 H 1077.04 2.91187 -4.10145 0
M  V30 11649 H 1076.74 1.92285 -5.55248 0
M  V30 11650 H 1078.27 2.84331 -5.40359 0
M  V30 11651 H 1079.68 0.591617 -5.70239 0
M  V30 11652 H 1078.08 -0.141737 -5.99933 0
M  V30 11653 H 1079.15 -0.847216 -4.77441 0
M  V30 11654 N 1080.49 1.57075 -0.12858 0
M  V30 11655 C 1081.72 1.99876 0.534544 0
M  V30 11656 C 1082.13 1.00843 1.59612 0
M  V30 11657 O 1081.49 0.00268947 1.825 0
M  V30 11658 C 1081.54 3.42654 1.15198 0
M  V30 11659 O 1081.26 4.37899 0.132823 0
M  V30 11660 C 1082.76 4.00637 1.8975 0
M  V30 11661 H 1079.98 0.656073 0.140744 0
M  V30 11662 H 1082.53 2.03337 -0.217742 0
M  V30 11663 H 1080.68 3.40101 1.85499 0
M  V30 11664 H 1081.1 5.21253 0.582682 0
M  V30 11665 H 1082.57 5.02592 2.28266 0
M  V30 11666 H 1083.05 3.40313 2.7764 0
M  V30 11667 H 1083.65 4.06764 1.2419 0
M  V30 11668 N 1081.97 -0.145205 1.5693 0
M  V30 11669 C 1082.9 -1.20438 1.95006 0
M  V30 11670 C 1083.91 -1.39085 0.846114 0
M  V30 11671 O 1085.1 -1.38625 1.12452 0
M  V30 11672 C 1082.2 -2.56892 2.21043 0
M  V30 11673 C 1081.38 -2.59197 3.52329 0
M  V30 11674 C 1080.44 -3.77204 3.66884 0
M  V30 11675 O 1079.46 -3.61995 4.39259 0
M  V30 11676 N 1080.66 -4.9473 3.03682 0
M  V30 11677 H 1083.43 -0.880709 2.86467 0
M  V30 11678 H 1080.99 -0.334751 1.58401 0
M  V30 11679 H 1082.98 -3.34349 2.2802 0
M  V30 11680 H 1081.55 -2.81544 1.35838 0
M  V30 11681 H 1080.77 -1.67644 3.56776 0
M  V30 11682 H 1082.06 -2.57771 4.3867 0
M  V30 11683 H 1081.46 -5.09989 2.44801 0
M  V30 11684 H 1080.01 -5.69956 3.16218 0
M  V30 11685 N 1083.45 -1.52049 -0.414609 0
M  V30 11686 C 1084.7 -1.65067 -1.15912 0
M  V30 11687 C 1085.01 -0.383969 -1.91794 0
M  V30 11688 O 1086.22 -0.393872 -2.68628 0
M  V30 11689 C 1084.67 -2.91611 -2.1093 0
M  V30 11690 C 1084.28 -4.25369 -1.4059 0
M  V30 11691 C 1086.02 -3.13992 -2.85674 0
M  V30 11692 C 1083.93 -5.43041 -2.34223 0
M  V30 11693 H 1082.86 -0.614884 -0.436387 0
M  V30 11694 H 1085.51 -1.78533 -0.424072 0
M  V30 11695 H 1083.89 -2.71831 -2.87965 0
M  V30 11696 H 1085.07 -4.55611 -0.689568 0
M  V30 11697 H 1083.38 -4.09047 -0.779088 0
M  V30 11698 H 1085.98 -3.99082 -3.55861 0
M  V30 11699 H 1086.32 -2.27998 -3.48314 0
M  V30 11700 H 1086.86 -3.34217 -2.1574 0
M  V30 11701 H 1083.59 -6.31364 -1.76238 0
M  V30 11702 H 1083.11 -5.17144 -3.03845 0
M  V30 11703 H 1084.79 -5.75901 -2.94868 0
M  V30 11704 N 1084.93 0.6715 -1.42579 0
M  V30 11705 C 1085.86 1.79693 -1.49107 0
M  V30 11706 C 1086.84 1.66516 -0.347338 0
M  V30 11707 O 1088.02 1.85887 -0.562094 0
M  V30 11708 C 1085.15 3.1801 -1.39596 0
M  V30 11709 C 1084.11 3.45926 -2.5203 0
M  V30 11710 C 1083.43 4.83852 -2.27577 0
M  V30 11711 C 1084.73 3.4249 -3.94333 0
M  V30 11712 H 1086.43 1.74486 -2.433 0
M  V30 11713 H 1083.97 0.838042 -1.17102 0
M  V30 11714 H 1085.92 3.96478 -1.42771 0
M  V30 11715 H 1084.65 3.23901 -0.418989 0
M  V30 11716 H 1083.31 2.6982 -2.48178 0
M  V30 11717 H 1082.96 4.86398 -1.28165 0
M  V30 11718 H 1082.66 5.03493 -3.02934 0
M  V30 11719 H 1084.18 5.646 -2.32506 0
M  V30 11720 H 1085.59 4.10922 -3.9977 0
M  V30 11721 H 1083.99 3.73666 -4.69568 0
M  V30 11722 H 1085.06 2.41002 -4.20768 0
M  V30 11723 N 1086.4 1.28806 0.908124 0
M  V30 11724 C 1087.81 1.14719 1.47297 0
M  V30 11725 C 1088.17 -0.260763 1.94459 0
M  V30 11726 O 1087.29 -1.15553 1.82966 0
M  V30 11727 C 1087.89 2.07643 2.67712 0
M  V30 11728 C 1086.44 1.97605 3.20358 0
M  V30 11729 C 1085.59 1.99058 1.93058 0
M  V30 11730 H 1088.54 1.41413 0.720283 0
M  V30 11731 H 1088.56 1.64372 3.43165 0
M  V30 11732 H 1088.08 3.10108 2.33355 0
M  V30 11733 H 1086.18 0.981982 3.59427 0
M  V30 11734 H 1086.29 2.84846 3.85226 0
M  V30 11735 H 1084.65 1.43541 2.104 0
M  V30 11736 H 1085.44 3.03212 1.60989 0
M  V30 11737 N 1087.88 -1.11734 1.11145 0
M  V30 11738 C 1089.29 -1.64928 0.874959 0
M  V30 11739 C 1089.64 -1.87012 -0.593375 0
M  V30 11740 O 1088.77 -1.60206 -1.45475 0
M  V30 11741 C 1089.36 -2.99608 1.58178 0
M  V30 11742 C 1087.92 -3.49723 1.39179 0
M  V30 11743 C 1087.07 -2.24595 1.62642 0
M  V30 11744 H 1090.02 -0.954154 1.26813 0
M  V30 11745 H 1090.04 -3.66434 1.02501 0
M  V30 11746 H 1089.55 -2.83504 2.65042 0
M  V30 11747 H 1087.65 -3.70998 0.345111 0
M  V30 11748 H 1087.77 -4.28711 2.13878 0
M  V30 11749 H 1086.13 -2.32067 1.04961 0
M  V30 11750 H 1086.91 -2.11036 2.70774 0
M  V30 11751 N 1089.36 -0.901303 -1.29284 0
M  V30 11752 C 1090.59 -0.543511 -1.99634 0
M  V30 11753 C 1091 0.872154 -1.67448 0
M  V30 11754 O 1090.36 1.57591 -0.920406 0
M  V30 11755 C 1090.41 -0.728148 -3.54091 0
M  V30 11756 O 1090.13 -2.08809 -3.85137 0
M  V30 11757 C 1091.63 -0.375519 -4.41707 0
M  V30 11758 H 1088.85 -0.208405 -0.637815 0
M  V30 11759 H 1091.4 -1.21109 -1.64781 0
M  V30 11760 H 1089.55 -0.107728 -3.8725 0
M  V30 11761 H 1089.97 -2.11863 -4.79807 0
M  V30 11762 H 1091.44 -0.555538 -5.49197 0
M  V30 11763 H 1091.92 0.687532 -4.33785 0
M  V30 11764 H 1092.52 -0.972949 -4.14021 0
M  V30 11765 N 1090.84 1.42931 -0.663954 0
M  V30 11766 C 1091.75 2.3459 0.0214234 0
M  V30 11767 C 1092.76 1.54487 0.800611 0
M  V30 11768 O 1093.94 1.87098 0.74541 0
M  V30 11769 C 1091 3.32896 0.968556 0
M  V30 11770 C 1090.07 4.28901 0.185108 0
M  V30 11771 C 1089.3 5.2251 1.08713 0
M  V30 11772 O 1089.52 5.20795 2.32655 0
M  V30 11773 O 1088.46 5.99347 0.553758 0
M  V30 11774 H 1092.28 2.94714 -0.733308 0
M  V30 11775 H 1089.87 1.43252 -0.424159 0
M  V30 11776 H 1091.75 3.93318 1.51257 0
M  V30 11777 H 1090.42 2.75261 1.70333 0
M  V30 11778 H 1089.33 3.71926 -0.402752 0
M  V30 11779 H 1090.66 4.89547 -0.510319 0
M  V30 11780 N 1092.32 0.406567 1.52266 0
M  V30 11781 C 1093.73 -0.063607 1.86592 0
M  V30 11782 C 1094.08 -1.4466 1.32544 0
M  V30 11783 O 1093.2 -2.05971 0.663692 0
M  V30 11784 C 1093.8 -0.122198 3.3858 0
M  V30 11785 C 1092.36 -0.536701 3.72554 0
M  V30 11786 C 1091.5 0.290422 2.75775 0
M  V30 11787 H 1094.45 0.623738 1.45929 0
M  V30 11788 H 1094.48 -0.937964 3.68758 0
M  V30 11789 H 1093.99 0.884495 3.77887 0
M  V30 11790 H 1092.09 -1.55013 3.38824 0
M  V30 11791 H 1092.2 -0.282867 4.78264 0
M  V30 11792 H 1090.57 -0.246864 2.53501 0
M  V30 11793 H 1091.35 1.29541 3.17921 0
M  V30 11794 N 1093.79 -1.57004 0.136909 0
M  V30 11795 C 1094.72 -2.19262 -0.802902 0
M  V30 11796 C 1095.71 -1.13786 -1.26439 0
M  V30 11797 O 1096.89 -1.42091 -1.32377 0
M  V30 11798 C 1094.02 -2.80624 -2.04615 0
M  V30 11799 C 1092.97 -3.91839 -1.72181 0
M  V30 11800 C 1092.3 -4.4009 -3.03686 0
M  V30 11801 C 1093.6 -5.13095 -0.976249 0
M  V30 11802 H 1095.29 -2.98049 -0.28406 0
M  V30 11803 H 1092.84 -1.43364 -0.135189 0
M  V30 11804 H 1094.79 -3.22842 -2.70834 0
M  V30 11805 H 1093.52 -1.99153 -2.58855 0
M  V30 11806 H 1092.18 -3.50224 -1.08344 0
M  V30 11807 H 1091.82 -3.55454 -3.55896 0
M  V30 11808 H 1091.52 -5.15098 -2.82751 0
M  V30 11809 H 1093.05 -4.84971 -3.70993 0
M  V30 11810 H 1094.46 -5.5222 -1.54033 0
M  V30 11811 H 1092.86 -5.93801 -0.867214 0
M  V30 11812 H 1093.93 -4.84888 0.0338488 0
M  V30 11813 N 1095.27 0.136881 -1.57004 0
M  V30 11814 C 1096.2 1.17026 -2.02057 0
M  V30 11815 C 1097.18 1.44223 -0.901866 0
M  V30 11816 O 1098.37 1.54971 -1.17037 0
M  V30 11817 C 1095.5 2.50095 -2.40977 0
M  V30 11818 C 1094.45 2.37398 -3.56127 0
M  V30 11819 C 1093.78 3.75268 -3.80891 0
M  V30 11820 C 1095.08 1.84952 -4.88457 0
M  V30 11821 H 1096.77 0.795601 -2.88636 0
M  V30 11822 H 1094.32 0.381266 -1.38861 0
M  V30 11823 H 1096.27 3.22621 -2.71097 0
M  V30 11824 H 1095 2.89416 -1.51348 0
M  V30 11825 H 1093.65 1.67322 -3.26188 0
M  V30 11826 H 1093.3 4.12043 -2.88496 0
M  V30 11827 H 1093 3.67631 -4.5839 0
M  V30 11828 H 1094.53 4.49327 -4.13446 0
M  V30 11829 H 1095.94 2.4728 -5.17229 0
M  V30 11830 H 1094.34 1.88181 -5.69832 0
M  V30 11831 H 1095.41 0.805848 -4.78157 0
M  V30 11832 N 1096.75 1.52266 0.40654 0
M  V30 11833 C 1097.7 1.75794 1.4955 0
M  V30 11834 C 1098.67 0.600472 1.54866 0
M  V30 11835 O 1099.85 0.838305 1.71397 0
M  V30 11836 C 1096.99 1.91682 2.86971 0
M  V30 11837 C 1096.11 3.19337 2.90943 0
M  V30 11838 C 1095.24 3.25641 4.1968 0
M  V30 11839 C 1094.28 4.47488 4.17637 0
M  V30 11840 N 1093.42 4.51171 5.37949 0
M  V30 11841 H 1098.26 2.68733 1.28789 0
M  V30 11842 H 1095.79 1.33157 0.625102 0
M  V30 11843 H 1097.75 1.98877 3.66748 0
M  V30 11844 H 1096.38 1.02121 3.06221 0
M  V30 11845 H 1095.43 3.21301 2.03642 0
M  V30 11846 H 1096.75 4.09153 2.85299 0
M  V30 11847 H 1095.9 3.31922 5.07851 0
M  V30 11848 H 1094.64 2.33769 4.28023 0
M  V30 11849 H 1093.64 4.41351 3.27856 0
M  V30 11850 H 1094.87 5.40659 4.10932 0
M  V30 11851 H 1092.81 3.62182 5.46955 0
M  V30 11852 H 1092.73 5.34835 5.3431 0
M  V30 11853 H 1094 4.61685 6.28066 0
M  V30 11854 N 1098.23 -0.663929 1.42933 0
M  V30 11855 C 1099.19 -1.75899 1.46943 0
M  V30 11856 C 1100.19 -1.5682 0.355535 0
M  V30 11857 O 1101.38 -1.62914 0.616833 0
M  V30 11858 C 1098.51 -3.14657 1.31164 0
M  V30 11859 H 1099.71 -1.73727 2.44456 0
M  V30 11860 H 1097.26 -0.874587 1.2954 0
M  V30 11861 H 1097.99 -3.22447 0.346165 0
M  V30 11862 H 1097.78 -3.29909 2.11902 0
M  V30 11863 H 1099.27 -3.9453 1.36878 0
M  V30 11864 N 1099.71 -1.29285 -0.901281 0
M  V30 11865 C 1100.95 -1.18431 -1.66594 0
M  V30 11866 C 1101.31 0.260312 -1.90227 0
M  V30 11867 O 1102.51 0.4918 -2.64263 0
M  V30 11868 C 1100.78 -1.97357 -2.97968 0
M  V30 11869 S 1102.34 -2.03019 -3.8901 0
M  V30 11870 H 1099.16 -0.422323 -0.571983 0
M  V30 11871 H 1101.76 -1.63551 -1.07105 0
M  V30 11872 H 1100.47 -3.01459 -2.78479 0
M  V30 11873 H 1100 -1.52836 -3.62498 0
M  V30 11874 H 1102.01 -1.14572 -4.82791 0
M  V30 11875 N 1101.18 1.11143 -1.11736 0
M  V30 11876 C 1102.6 1.34962 -0.851905 0
M  V30 11877 C 1102.8 1.94627 0.521797 0
M  V30 11878 O 1101.86 2.18121 1.27198 0
M  V30 11879 C 1103.17 2.27832 -1.96248 0
M  V30 11880 C 1104.72 2.41388 -1.9925 0
M  V30 11881 C 1105.19 3.37582 -3.09519 0
M  V30 11882 N 1106.68 3.45147 -3.08914 0
M  V30 11883 C 1107.42 4.19527 -3.90876 0
M  V30 11884 N 1106.91 4.96858 -4.82809 0
M  V30 11885 N 1108.71 4.15071 -3.79042 0
M  V30 11886 H 1100.86 0.707801 -2.0026 0
M  V30 11887 H 1103.12 0.374172 -0.871033 0
M  V30 11888 H 1102.83 1.91189 -2.95194 0
M  V30 11889 H 1102.7 3.28078 -1.86132 0
M  V30 11890 H 1105.09 2.77304 -1.00928 0
M  V30 11891 H 1105.17 1.40983 -2.13442 0
M  V30 11892 H 1104.81 3.02393 -4.0807 0
M  V30 11893 H 1104.74 4.37849 -2.92568 0
M  V30 11894 H 1107.23 2.89991 -2.42309 0
M  V30 11895 H 1107.55 5.5099 -5.41876 0
M  V30 11896 H 1105.89 4.96008 -4.86828 0
M  V30 11897 H 1109.08 3.53748 -3.06562 0
M  V30 11898 H 1109.26 4.72781 -4.4315 0
M  V30 11899 N 1102.66 0.908147 1.28804 0
M  V30 11900 C 1103.94 0.457561 1.90173 0
M  V30 11901 C 1104.32 -1.06333 1.82364 0
M  V30 11902 O 1103.67 -1.90892 1.25589 0
M  V30 11903 C 1103.88 0.981624 3.34911 0
M  V30 11904 C 1105.23 1.03037 4.11908 0
M  V30 11905 O 1106.25 0.929878 3.43848 0
M  V30 11906 O 1105.11 1.18257 5.33552 0
M  V30 11907 H 1102.2 0.144081 0.814352 0
M  V30 11908 H 1104.75 0.998565 1.37211 0
M  V30 11909 H 1103.52 2.02561 3.34791 0
M  V30 11910 H 1103.14 0.421122 3.95364 0
M  V30 11911 N 1104.14 -1.42577 0.671525 0
M  V30 11912 C 1105.09 -2.32591 -0.0205354 0
M  V30 11913 C 1106.08 -1.4964 -0.793993 0
M  V30 11914 O 1107.29 -1.65733 -0.702327 0
M  V30 11915 H 1103.66 -0.75157 -0.0254344 0
M  V30 11916 H 1105.63 -2.88662 0.756082 0
M  V30 11917 C 1104.38 -3.34175 -0.960316 0
M  V30 11918 H 1103.71 -3.98041 -0.374577 0
M  V30 11919 H 1105.15 -3.99752 -1.4133 0
M  V30 11920 C 1103.61 -2.66184 -2.06513 0
M  V30 11921 O 1104.14 -2.49125 -3.15119 0
M  V30 11922 N 1102.34 -2.25261 -1.83591 0
M  V30 11923 H 1101.89 -2.39336 -0.952689 0
M  V30 11924 H 1101.85 -1.80101 -2.57703 0
M  V30 11925 N 1105.62 -0.414636 -1.52048 0
M  V30 11926 C 1106.55 0.399119 -2.30064 0
M  V30 11927 C 1107.53 1.04126 -1.34506 0
M  V30 11928 O 1108.71 1.04923 -1.63416 0
M  V30 11929 C 1105.84 1.51305 -3.12608 0
M  V30 11930 C 1104.8 0.995621 -4.16259 0
M  V30 11931 C 1104.12 2.20357 -4.87183 0
M  V30 11932 C 1105.42 0.0458178 -5.2228 0
M  V30 11933 H 1107.12 -0.251879 -2.98339 0
M  V30 11934 H 1104.66 -0.122579 -1.43477 0
M  V30 11935 H 1106.62 2.08936 -3.65956 0
M  V30 11936 H 1105.34 2.19201 -2.42113 0
M  V30 11937 H 1104 0.441676 -3.6393 0
M  V30 11938 H 1103.65 2.8682 -4.13211 0
M  V30 11939 H 1103.35 1.86385 -5.57256 0
M  V30 11940 H 1104.87 2.78584 -5.43345 0
M  V30 11941 H 1106.29 0.531102 -5.70835 0
M  V30 11942 H 1104.68 -0.20536 -5.99749 0
M  V30 11943 H 1105.75 -0.897807 -4.76516 0
M  V30 11944 N 1107.1 1.56929 -0.145233 0
M  V30 11945 C 1108.32 2.00864 0.516564 0
M  V30 11946 C 1108.75 1.02466 1.57741 0
M  V30 11947 O 1108.1 0.000145439 1.813 0
M  V30 11948 C 1108.15 3.43552 1.09563 0
M  V30 11949 O 1107.26 3.4815 2.21055 0
M  V30 11950 H 1106.6 0.651835 0.126521 0
M  V30 11951 H 1109.13 2.0317 -0.241445 0
M  V30 11952 H 1109.14 3.82316 1.42473 0
M  V30 11953 H 1107.81 4.14677 0.318749 0
M  V30 11954 H 1106.39 3.21228 1.89387 0
M  V30 11955 N 1108.58 -0.128553 1.57075 0
M  V30 11956 C 1109.51 -1.18362 1.96273 0
M  V30 11957 C 1110.52 -1.3818 0.860818 0
M  V30 11958 O 1111.71 -1.37424 1.13916 0
M  V30 11959 C 1108.81 -2.54533 2.23755 0
M  V30 11960 C 1107.98 -2.55446 3.55058 0
M  V30 11961 C 1107.04 -3.73291 3.70864 0
M  V30 11962 O 1106.07 -3.57315 4.43074 0
M  V30 11963 N 1107.27 -4.91481 3.08912 0
M  V30 11964 H 1110.03 -0.850276 2.87385 0
M  V30 11965 H 1107.6 -0.317931 1.58748 0
M  V30 11966 H 1109.59 -3.31912 2.31553 0
M  V30 11967 H 1108.16 -2.80087 1.38816 0
M  V30 11968 H 1107.38 -1.6385 3.58534 0
M  V30 11969 H 1108.67 -2.53104 4.4138 0
M  V30 11970 H 1108.06 -5.07364 2.50196 0
M  V30 11971 H 1106.62 -5.6657 3.22245 0
M  V30 11972 N 1110.05 -1.5248 -0.398459 0
M  V30 11973 C 1111.3 -1.68262 -1.14277 0
M  V30 11974 C 1111.65 -0.412722 -1.87921 0
M  V30 11975 O 1110.95 0.593257 -1.82184 0
M  V30 11976 C 1111.14 -2.85038 -2.15611 0
M  V30 11977 C 1110.97 -4.23262 -1.51919 0
M  V30 11978 C 1109.74 -4.88627 -1.28732 0
M  V30 11979 C 1111.94 -5.04986 -0.974349 0
M  V30 11980 N 1109.92 -6.10857 -0.610455 0
M  V30 11981 C 1111.29 -6.18542 -0.425008 0
M  V30 11982 C 1113.35 -4.90243 -0.869843 0
M  V30 11983 C 1112.05 -7.18968 0.218609 0
M  V30 11984 C 1114.08 -5.90913 -0.240063 0
M  V30 11985 C 1113.44 -7.03767 0.298552 0
M  V30 11986 H 1109.54 -0.669275 -0.404469 0
M  V30 11987 H 1112.12 -1.8981 -0.433635 0
M  V30 11988 H 1110.29 -2.65087 -2.83872 0
M  V30 11989 H 1112.02 -2.89804 -2.82481 0
M  V30 11990 H 1108.78 -4.47179 -1.55975 0
M  V30 11991 H 1109.2 -6.76386 -0.288338 0
M  V30 11992 H 1113.84 -4.0321 -1.27207 0
M  V30 11993 H 1111.56 -8.05618 0.632874 0
M  V30 11994 H 1115.15 -5.81578 -0.160576 0
M  V30 11995 H 1114.03 -7.80329 0.778185 0
M  V30 11996 N 1111.53 0.65634 -1.43283 0
M  V30 11997 C 1112.44 1.79847 -1.50639 0
M  V30 11998 C 1113.46 1.69487 -0.393714 0
M  V30 11999 O 1114.63 1.90712 -0.647379 0
M  V30 12000 C 1111.7 3.16107 -1.42398 0
M  V30 12001 C 1110.76 3.38287 -2.64312 0
M  V30 12002 C 1109.99 4.68046 -2.56454 0
M  V30 12003 O 1110.22 5.4719 -1.61056 0
M  V30 12004 O 1109.15 4.91877 -3.46902 0
M  V30 12005 H 1112.98 1.76596 -2.47078 0
M  V30 12006 H 1110.56 0.814428 -1.25249 0
M  V30 12007 H 1112.44 3.97382 -1.40233 0
M  V30 12008 H 1111.12 3.19956 -0.490929 0
M  V30 12009 H 1110.02 2.56788 -2.72049 0
M  V30 12010 H 1111.36 3.39282 -3.56579 0
M  V30 12011 N 1113.01 1.29761 0.894412 0
M  V30 12012 C 1113.96 1.15341 1.99912 0
M  V30 12013 C 1114.93 0.0453488 1.66038 0
M  V30 12014 O 1116.11 0.213829 1.89598 0
M  V30 12015 C 1113.25 0.841432 3.34685 0
M  V30 12016 C 1112.36 2.03046 3.81309 0
M  V30 12017 C 1111.5 1.65739 5.04682 0
M  V30 12018 C 1110.54 2.81191 5.43689 0
M  V30 12019 N 1109.68 2.44244 6.58247 0
M  V30 12020 H 1114.52 2.09854 2.11578 0
M  V30 12021 H 1112.05 1.04421 1.03608 0
M  V30 12022 H 1114.01 0.641211 4.12243 0
M  V30 12023 H 1112.64 -0.066797 3.22731 0
M  V30 12024 H 1111.69 2.34222 2.9974 0
M  V30 12025 H 1113 2.89538 4.06164 0
M  V30 12026 H 1112.16 1.42036 5.8984 0
M  V30 12027 H 1110.9 0.764019 4.81678 0
M  V30 12028 H 1109.9 3.0557 4.57064 0
M  V30 12029 H 1111.13 3.712 5.68672 0
M  V30 12030 H 1109.07 1.57402 6.36837 0
M  V30 12031 H 1108.99 3.24269 6.82924 0
M  V30 12032 H 1110.26 2.23875 7.46659 0
M  V30 12033 N 1114.49 -1.10549 1.12324 0
M  V30 12034 C 1115.73 -1.82755 0.879117 0
M  V30 12035 C 1116.07 -1.84905 -0.593604 0
M  V30 12036 O 1115.34 -1.30884 -1.43873 0
M  V30 12037 C 1115.62 -3.29481 1.45308 0
M  V30 12038 C 1115.48 -3.3567 2.99408 0
M  V30 12039 C 1116.8 -4.25828 1.11167 0
M  V30 12040 H 1113.92 -0.663513 0.32081 0
M  V30 12041 H 1116.56 -1.29572 1.38965 0
M  V30 12042 H 1114.71 -3.74902 1.01887 0
M  V30 12043 H 1116.38 -2.98739 3.515 0
M  V30 12044 H 1114.62 -2.75606 3.34998 0
M  V30 12045 H 1115.29 -4.38983 3.34661 0
M  V30 12046 H 1117.77 -3.88635 1.48667 0
M  V30 12047 H 1116.65 -5.26857 1.53991 0
M  V30 12048 H 1116.91 -4.42094 0.0237046 0
M  V30 12049 N 1115.97 -0.914965 -1.28321 0
M  V30 12050 C 1117.21 -0.544639 -1.94208 0
M  V30 12051 C 1117.53 0.916368 -1.72806 0
M  V30 12052 O 1118.73 1.39491 -2.32926 0
M  V30 12053 C 1117.19 -0.923209 -3.47858 0
M  V30 12054 C 1116.8 -2.40403 -3.78035 0
M  V30 12055 C 1118.54 -0.623526 -4.19896 0
M  V30 12056 C 1116.45 -2.72266 -5.25 0
M  V30 12057 H 1115.38 -0.199966 -0.727 0
M  V30 12058 H 1118.03 -1.11405 -1.45812 0
M  V30 12059 H 1116.41 -0.282576 -3.94991 0
M  V30 12060 H 1117.59 -3.09149 -3.41706 0
M  V30 12061 H 1115.9 -2.67429 -3.19172 0
M  V30 12062 H 1118.5 -0.838243 -5.28089 0
M  V30 12063 H 1118.84 0.438721 -4.13982 0
M  V30 12064 H 1119.37 -1.22268 -3.78544 0
M  V30 12065 H 1116.11 -3.77349 -5.35993 0
M  V30 12066 H 1115.63 -2.08157 -5.62522 0
M  V30 12067 H 1117.31 -2.59334 -5.92752 0
M  V30 12068 N 1117.44 1.42219 -0.679077 0
M  V30 12069 C 1118.86 1.55737 -0.349034 0
M  V30 12070 C 1119.06 1.65789 1.14527 0
M  V30 12071 O 1118.12 1.62717 1.93079 0
M  V30 12072 C 1119.43 2.80516 -1.0831 0
M  V30 12073 C 1120.98 2.94294 -1.06584 0
M  V30 12074 C 1121.45 4.2194 -1.78132 0
M  V30 12075 N 1122.94 4.28861 -1.75021 0
M  V30 12076 C 1123.68 5.26453 -2.27234 0
M  V30 12077 N 1123.17 6.30171 -2.87847 0
M  V30 12078 N 1124.97 5.1828 -2.17584 0
M  V30 12079 H 1117.12 1.33939 -1.64846 0
M  V30 12080 H 1119.38 0.645029 -0.694725 0
M  V30 12081 H 1119.09 2.79241 -2.13816 0
M  V30 12082 H 1118.96 3.71539 -0.651069 0
M  V30 12083 H 1121.35 2.95094 -0.0191061 0
M  V30 12084 H 1121.43 2.04491 -1.53679 0
M  V30 12085 H 1121.07 4.21901 -2.82776 0
M  V30 12086 H 1121 5.10685 -1.28483 0
M  V30 12087 H 1123.49 3.54537 -1.30814 0
M  V30 12088 H 1123.81 7.01 -3.25298 0
M  V30 12089 H 1122.15 6.30721 -2.91918 0
M  V30 12090 H 1125.34 4.36172 -1.69916 0
M  V30 12091 H 1125.52 5.94172 -2.58581 0
M  V30 12092 N 1118.92 0.422693 1.51826 0
M  V30 12093 C 1120.17 -0.148348 2.01555 0
M  V30 12094 C 1120.49 -1.44483 1.30956 0
M  V30 12095 O 1119.76 -1.90904 0.439599 0
M  V30 12096 H 1118.34 -0.0578116 0.74476 0
M  V30 12097 H 1121 0.562046 1.8662 0
M  V30 12098 H 1120.1 -0.334766 3.10299 0
M  V30 12099 N 1120.4 -1.5685 0.153553 0
M  V30 12100 C 1121.31 -2.20664 -0.796528 0
M  V30 12101 C 1122.33 -1.19289 -1.26674 0
M  V30 12102 O 1123.5 -1.51889 -1.32256 0
M  V30 12103 C 1120.57 -2.82088 -2.01561 0
M  V30 12104 C 1119.63 -3.9861 -1.59401 0
M  V30 12105 C 1118.86 -4.57096 -2.75498 0
M  V30 12106 O 1119.08 -4.14462 -3.9189 0
M  V30 12107 O 1118.02 -5.47254 -2.50593 0
M  V30 12108 H 1121.84 -3.02376 -0.283282 0
M  V30 12109 H 1119.43 -1.49218 -0.0737927 0
M  V30 12110 H 1121.31 -3.21103 -2.72893 0
M  V30 12111 H 1119.99 -2.03385 -2.51826 0
M  V30 12112 H 1118.89 -3.64299 -0.850725 0
M  V30 12113 H 1120.23 -4.78853 -1.13845 0
M  V30 12114 N 1121.88 0.120221 -1.57141 0
M  V30 12115 C 1122.79 1.16641 -2.03549 0
M  V30 12116 C 1123.8 1.45407 -0.955656 0
M  V30 12117 O 1124.98 1.56547 -1.26708 0
M  V30 12118 C 1122.04 2.4734 -2.42948 0
M  V30 12119 C 1121.11 2.25982 -3.65008 0
M  V30 12120 C 1120.34 3.50449 -4.02518 0
M  V30 12121 O 1120.56 4.57706 -3.40384 0
M  V30 12122 O 1119.5 3.41524 -4.95626 0
M  V30 12123 H 1123.32 0.802323 -2.9291 0
M  V30 12124 H 1120.91 0.330927 -1.45689 0
M  V30 12125 H 1122.79 3.24348 -2.69029 0
M  V30 12126 H 1121.46 2.83225 -1.56733 0
M  V30 12127 H 1120.37 1.46837 -3.44078 0
M  V30 12128 H 1121.7 1.95002 -4.51924 0
M  V30 12129 N 1123.36 1.52689 0.390367 0
M  V30 12130 C 1124.58 1.71541 1.15678 0
M  V30 12131 C 1125 0.433171 1.83764 0
M  V30 12132 O 1124.36 -0.592248 1.72623 0
M  V30 12133 C 1124.41 2.864 2.20584 0
M  V30 12134 O 1124.13 4.0966 1.55274 0
M  V30 12135 C 1125.63 3.1692 3.09962 0
M  V30 12136 H 1122.85 0.574381 0.346883 0
M  V30 12137 H 1125.39 1.99332 0.456851 0
M  V30 12138 H 1123.55 2.61075 2.86214 0
M  V30 12139 H 1123.96 4.73802 2.2497 0
M  V30 12140 H 1125.44 4.00755 3.79604 0
M  V30 12141 H 1125.91 2.31245 3.73393 0
M  V30 12142 H 1126.52 3.4408 2.49979 0
M  V30 12143 N 1124.83 -0.648732 1.43629 0
M  V30 12144 C 1125.8 -1.74331 1.488 0
M  V30 12145 C 1126.8 -1.56434 0.372147 0
M  V30 12146 O 1127.99 -1.6225 0.634078 0
M  V30 12147 C 1125.12 -3.13248 1.34494 0
M  V30 12148 H 1126.31 -1.71125 2.46285 0
M  V30 12149 H 1123.87 -0.860798 1.30461 0
M  V30 12150 H 1124.6 -3.22062 0.380345 0
M  V30 12151 H 1124.39 -3.27643 2.15389 0
M  V30 12152 H 1125.88 -3.93056 1.41055 0
M  V30 12153 N 1126.31 -1.30234 -0.887518 0
M  V30 12154 C 1127.54 -1.21829 -1.67229 0
M  V30 12155 C 1127.96 0.219251 -1.87523 0
M  V30 12156 O 1127.31 1.14526 -1.42091 0
M  V30 12157 C 1127.36 -1.94044 -3.05007 0
M  V30 12158 O 1127.08 -3.32185 -2.85631 0
M  V30 12159 C 1128.59 -1.92265 -3.99436 0
M  V30 12160 H 1125.81 -0.421716 -0.521916 0
M  V30 12161 H 1128.35 -1.71816 -1.10903 0
M  V30 12162 H 1126.5 -1.47861 -3.58072 0
M  V30 12163 H 1126.92 -3.68724 -3.73018 0
M  V30 12164 H 1128.39 -2.47336 -4.93486 0
M  V30 12165 H 1128.87 -0.900984 -4.29859 0
M  V30 12166 H 1129.48 -2.38247 -3.52305 0
M  V30 12167 N 1127.79 1.09952 -1.12909 0
M  V30 12168 C 1129.04 1.82467 -0.898733 0
M  V30 12169 C 1129.39 1.83788 0.569196 0
M  V30 12170 O 1128.68 1.29117 1.4156 0
M  V30 12171 C 1128.88 3.28252 -1.41369 0
M  V30 12172 C 1128.71 3.41133 -2.93015 0
M  V30 12173 C 1127.48 3.53253 -3.61304 0
M  V30 12174 C 1129.68 3.34118 -3.90986 0
M  V30 12175 N 1127.66 3.54762 -5.01016 0
M  V30 12176 C 1129.03 3.42431 -5.16857 0
M  V30 12177 C 1131.08 3.1775 -3.83327 0
M  V30 12178 C 1129.79 3.36063 -6.35967 0
M  V30 12179 C 1131.81 3.12705 -5.01966 0
M  V30 12180 C 1131.17 3.21605 -6.26697 0
M  V30 12181 H 1127.27 0.682232 -0.382208 0
M  V30 12182 H 1129.86 1.31446 -1.43631 0
M  V30 12183 H 1128.03 3.77755 -0.903097 0
M  V30 12184 H 1129.76 3.88752 -1.12489 0
M  V30 12185 H 1126.52 3.56472 -3.11809 0
M  V30 12186 H 1126.94 3.59115 -5.73904 0
M  V30 12187 H 1131.58 3.09742 -2.87784 0
M  V30 12188 H 1129.3 3.42835 -7.31772 0
M  V30 12189 H 1132.89 3.01183 -4.97775 0
M  V30 12190 H 1131.77 3.1771 -7.16959 0
M  V30 12191 N 1129.27 0.921757 1.27833 0
M  V30 12192 C 1130.52 0.55493 1.93916 0
M  V30 12193 C 1130.83 -0.907191 1.7329 0
M  V30 12194 O 1132.04 -1.38253 2.33663 0
M  V30 12195 C 1130.49 0.941644 3.47363 0
M  V30 12196 C 1130.1 2.42404 3.76755 0
M  V30 12197 C 1131.84 0.645785 4.19559 0
M  V30 12198 C 1129.75 2.75046 5.23549 0
M  V30 12199 H 1128.68 0.203818 0.72593 0
M  V30 12200 H 1131.33 1.12176 1.4522 0
M  V30 12201 H 1129.71 0.303519 3.94835 0
M  V30 12202 H 1130.89 3.10957 3.40062 0
M  V30 12203 H 1129.2 2.69118 3.17749 0
M  V30 12204 H 1131.8 0.866237 5.27637 0
M  V30 12205 H 1132.14 -0.41676 4.14209 0
M  V30 12206 H 1132.68 1.24274 3.7789 0
M  V30 12207 H 1129.42 3.80186 5.33984 0
M  V30 12208 H 1128.94 2.11138 5.6141 0
M  V30 12209 H 1130.61 2.62474 5.91368 0
M  V30 12210 N 1130.75 -1.41857 0.686609 0
M  V30 12211 C 1131.97 -2.06219 0.221037 0
M  V30 12212 C 1132.4 -1.51298 -1.11762 0
M  V30 12213 O 1131.75 -0.636253 -1.69769 0
M  V30 12214 C 1131.8 -3.60153 0.179425 0
M  V30 12215 O 1130.91 -4.03577 -0.848481 0
M  V30 12216 H 1130.25 -0.654787 0.110228 0
M  V30 12217 H 1132.78 -1.81783 0.938948 0
M  V30 12218 H 1132.79 -4.07999 0.00725332 0
M  V30 12219 H 1131.46 -3.99498 1.15647 0
M  V30 12220 H 1130.04 -3.67255 -0.646393 0
M  V30 12221 N 1132.22 -0.430739 -1.51599 0
M  V30 12222 C 1133.45 0.139197 -2.06932 0
M  V30 12223 C 1133.87 1.3626 -1.29672 0
M  V30 12224 O 1133.23 1.78219 -0.332836 0
M  V30 12225 C 1133.28 0.446593 -3.57824 0
M  V30 12226 O 1132.38 1.53414 -3.82803 0
M  V30 12227 H 1131.73 0.00475812 -0.663983 0
M  V30 12228 H 1134.26 -0.610171 -1.9529 0
M  V30 12229 H 1134.27 0.698972 -4.01968 0
M  V30 12230 H 1132.94 -0.447613 -4.13484 0
M  V30 12231 H 1131.52 1.27224 -3.50526 0
M  V30 12232 N 1133.7 1.56767 -0.161869 0
M  V30 12233 C 1135.11 1.83265 0.356466 0
M  V30 12234 C 1135.46 1.08127 1.63716 0
M  V30 12235 O 1134.59 0.33127 2.13849 0
M  V30 12236 C 1135.18 3.32437 0.653521 0
M  V30 12237 C 1133.74 3.59465 1.11633 0
M  V30 12238 C 1132.89 2.76909 0.147204 0
M  V30 12239 H 1135.84 1.53926 -0.386308 0
M  V30 12240 H 1135.86 3.49401 1.50662 0
M  V30 12241 H 1135.37 3.87098 -0.278766 0
M  V30 12242 H 1133.48 3.10206 2.06404 0
M  V30 12243 H 1133.59 4.67853 1.03202 0
M  V30 12244 H 1131.95 2.46457 0.642739 0
M  V30 12245 H 1132.74 3.34346 -0.778938 0
M  V30 12246 N 1135.18 -0.111886 1.57202 0
M  V30 12247 C 1136.41 -0.836317 1.89791 0
M  V30 12248 C 1136.83 -1.72304 0.754513 0
M  V30 12249 O 1136.19 -1.78889 -0.294672 0
M  V30 12250 C 1136.24 -1.63971 3.21164 0
M  V30 12251 O 1135.34 -2.74726 3.0757 0
M  V30 12252 H 1134.68 -0.230833 0.622585 0
M  V30 12253 H 1137.21 -0.0921478 2.04392 0
M  V30 12254 H 1137.22 -2.02746 3.54059 0
M  V30 12255 H 1135.9 -0.98882 4.03974 0
M  V30 12256 H 1134.47 -2.39101 2.86156 0
M  V30 12257 N 1136.66 -1.52894 -0.382264 0
M  V30 12258 C 1137.9 -1.68515 -1.12829 0
M  V30 12259 C 1138.24 -0.427211 -1.89443 0
M  V30 12260 O 1137.51 0.57516 -1.85801 0
M  V30 12261 C 1137.8 -2.92449 -2.10108 0
M  V30 12262 C 1137.65 -4.2836 -1.37214 0
M  V30 12263 C 1138.97 -3.11944 -3.1045 0
M  V30 12264 H 1136.09 -0.613223 -0.408811 0
M  V30 12265 H 1138.73 -1.85503 -0.410921 0
M  V30 12266 H 1136.88 -2.78097 -2.71283 0
M  V30 12267 H 1138.55 -4.54493 -0.789516 0
M  V30 12268 H 1136.79 -4.28532 -0.673973 0
M  V30 12269 H 1137.46 -5.11178 -2.0833 0
M  V30 12270 H 1139.94 -3.25372 -2.59369 0
M  V30 12271 H 1138.82 -4.00125 -3.75754 0
M  V30 12272 H 1139.08 -2.26465 -3.79692 0
M  V30 12273 N 1138.14 0.641106 -1.43971 0
M  V30 12274 C 1139.1 1.73539 -1.49723 0
M  V30 12275 C 1140.1 1.56235 -0.380438 0
M  V30 12276 O 1141.29 1.61912 -0.642673 0
M  V30 12277 C 1138.42 3.1253 -1.36153 0
M  V30 12278 H 1139.62 1.69816 -2.47189 0
M  V30 12279 H 1137.17 0.853867 -1.30915 0
M  V30 12280 H 1137.9 3.21856 -0.39742 0
M  V30 12281 H 1137.69 3.26496 -2.17124 0
M  V30 12282 H 1139.18 3.92303 -1.43138 0
M  V30 12283 N 1139.62 1.30703 0.880598 0
M  V30 12284 C 1140.55 1.1327 1.99255 0
M  V30 12285 C 1141.56 0.0747186 1.62628 0
M  V30 12286 O 1142.75 0.321169 1.75587 0
M  V30 12287 C 1139.85 0.706179 3.31461 0
M  V30 12288 C 1139.02 1.84687 3.96497 0
M  V30 12289 C 1138.08 1.40817 5.07008 0
M  V30 12290 O 1137.11 2.1161 5.28403 0
M  V30 12291 N 1138.31 0.289619 5.79777 0
M  V30 12292 H 1141.07 2.09043 2.14759 0
M  V30 12293 H 1138.64 1.22896 1.05395 0
M  V30 12294 H 1140.63 0.395617 4.02762 0
M  V30 12295 H 1139.2 -0.159631 3.12192 0
M  V30 12296 H 1138.42 2.32531 3.18312 0
M  V30 12297 H 1139.71 2.61117 4.36687 0
M  V30 12298 H 1139.1 -0.300177 5.64903 0
M  V30 12299 H 1137.66 0.0385346 6.51789 0
M  V30 12300 N 1141.09 -1.09351 1.1349 0
M  V30 12301 C 1142.04 -2.16008 0.812981 0
M  V30 12302 C 1143.01 -1.64566 -0.225252 0
M  V30 12303 O 1144.2 -1.90552 -0.0973261 0
M  V30 12304 C 1141.34 -3.43913 0.285996 0
M  V30 12305 C 1140.45 -4.09251 1.38338 0
M  V30 12306 C 1139.58 -5.24916 0.814652 0
M  V30 12307 C 1138.62 -5.82178 1.89038 0
M  V30 12308 N 1137.76 -6.89203 1.33955 0
M  V30 12309 H 1142.6 -2.42887 1.72655 0
M  V30 12310 H 1140.14 -1.19209 0.861833 0
M  V30 12311 H 1142.09 -4.17183 -0.0376794 0
M  V30 12312 H 1140.72 -3.17349 -0.590707 0
M  V30 12313 H 1139.78 -3.33838 1.82363 0
M  V30 12314 H 1141.09 -4.4784 2.19638 0
M  V30 12315 H 1140.24 -6.05086 0.442306 0
M  V30 12316 H 1138.98 -4.87691 -0.029416 0
M  V30 12317 H 1137.99 -5.00669 2.27179 0
M  V30 12318 H 1139.21 -6.21464 2.73787 0
M  V30 12319 H 1137.16 -6.53956 0.517494 0
M  V30 12320 H 1137.07 -7.26565 2.08902 0
M  V30 12321 H 1138.34 -7.73126 0.994793 0
M  V30 12322 N 1142.57 -0.928524 -1.27343 0
M  V30 12323 C 1143.53 -0.43292 -2.25074 0
M  V30 12324 C 1144.53 0.448976 -1.54405 0
M  V30 12325 O 1145.72 0.249939 -1.72398 0
M  V30 12326 C 1142.86 0.377539 -3.38803 0
M  V30 12327 H 1144.05 -1.29642 -2.70431 0
M  V30 12328 H 1141.6 -0.709289 -1.3928 0
M  V30 12329 H 1142.34 1.25982 -2.98829 0
M  V30 12330 H 1142.12 -0.254782 -3.91271 0
M  V30 12331 H 1143.61 0.714634 -4.1144 0
M  V30 12332 N 1144.05 1.41491 -0.694123 0
M  V30 12333 C 1145.01 2.2917 -0.0368562 0
M  V30 12334 C 1146.01 1.44305 0.709426 0
M  V30 12335 O 1147.2 1.6547 0.544533 0
M  V30 12336 C 1144.33 3.27156 0.958201 0
M  V30 12337 H 1145.53 2.88787 -0.808829 0
M  V30 12338 H 1143.08 1.49453 -0.457538 0
M  V30 12339 H 1143.82 2.72516 1.75799 0
M  V30 12340 H 1143.6 3.89776 0.426227 0
M  V30 12341 H 1145.09 3.92863 1.41592 0
M  V30 12342 N 1145.53 0.438773 1.51369 0
M  V30 12343 C 1146.49 -0.36032 2.2635 0
M  V30 12344 C 1147.49 -0.948465 1.29849 0
M  V30 12345 O 1148.68 -0.822692 1.53549 0
M  V30 12346 C 1145.81 -1.50994 3.05636 0
M  V30 12347 H 1147.01 0.296826 2.98427 0
M  V30 12348 H 1144.56 0.191978 1.55117 0
M  V30 12349 H 1145.29 -2.2031 2.37979 0
M  V30 12350 H 1145.08 -1.09437 3.76518 0
M  V30 12351 H 1146.57 -2.07447 3.6243 0
M  V30 12352 N 1147.01 -1.56678 0.170181 0
M  V30 12353 C 1148.23 -2.0166 -0.484543 0
M  V30 12354 C 1148.66 -1.04962 -1.56091 0
M  V30 12355 O 1148.01 -0.0289887 -1.81277 0
M  V30 12356 C 1148.06 -3.45252 -1.04084 0
M  V30 12357 O 1147.17 -3.51623 -2.15488 0
M  V30 12358 H 1146.51 -0.653765 -0.116135 0
M  V30 12359 H 1149.04 -2.02761 0.273737 0
M  V30 12360 H 1149.05 -3.84534 -1.36373 0
M  V30 12361 H 1147.72 -4.15131 -0.252738 0
M  V30 12362 H 1146.3 -3.242 -1.84252 0
M  V30 12363 N 1148.48 0.103547 -1.57259 0
M  V30 12364 C 1149.39 1.14475 -2.04774 0
M  V30 12365 C 1150.41 1.44385 -0.971025 0
M  V30 12366 O 1151.59 1.55195 -1.28361 0
M  V30 12367 C 1148.65 2.4475 -2.45558 0
M  V30 12368 C 1147.71 2.22098 -3.67384 0
M  V30 12369 C 1146.94 3.4616 -4.06213 0
M  V30 12370 O 1147.17 4.5407 -3.45219 0
M  V30 12371 O 1146.1 3.36248 -4.9922 0
M  V30 12372 H 1149.93 0.771211 -2.93745 0
M  V30 12373 H 1147.51 0.315456 -1.46032 0
M  V30 12374 H 1149.39 3.21476 -2.72454 0
M  V30 12375 H 1148.07 2.81547 -1.59728 0
M  V30 12376 H 1146.98 1.43179 -3.45616 0
M  V30 12377 H 1148.31 1.90197 -4.53967 0
M  V30 12378 N 1149.96 1.53094 0.37415 0
M  V30 12379 C 1151.24 1.59456 1.13283 0
M  V30 12380 C 1151.62 0.396821 2.07337 0
M  V30 12381 O 1150.97 -0.613659 2.20106 0
M  V30 12382 C 1151.18 2.94069 1.87948 0
M  V30 12383 C 1152.52 3.4834 2.42785 0
M  V30 12384 O 1153.55 2.96042 1.98085 0
M  V30 12385 O 1152.41 4.39747 3.24477 0
M  V30 12386 H 1149.5 0.643731 0.519171 0
M  V30 12387 H 1152.05 1.65434 0.378105 0
M  V30 12388 H 1150.82 3.72685 1.19255 0
M  V30 12389 H 1150.44 2.91544 2.70348 0
M  V30 12390 O 1151.48 -0.520116 1.52896 0
M  V30 12391 H 1152.17 -1.17517 1.53979 0
M  V30 END ATOM
M  V30 BEGIN BOND
M  V30 END BOND
M  V30 END CTAB
M  END
$$$$
