drugbank_target|P28482 Mitogen-activated protein kinase 1 (DB01064; DB01169; DB02116; DB02482; DB02733; DB04338; DB06195; DB06641; DB06877; DB07010; DB07264; DB07788; DB07794; DB07905; DB08513; DB08521; DB11120; DB13930)
 OpenBabel12092119433D

  0  0  0     0  0            999 V3000
M  V30 BEGIN CTAB
M  V30 COUNTS 5830 5900 0 0 0
M  V30 BEGIN ATOM
M  V30 1 H -0.908 1.98254 -0.117106 0
M  V30 2 N 0 1.576 0 0
M  V30 3 C 0.933 2.03868 1.02534 0
M  V30 4 C 1.911 0.928543 1.3348 0
M  V30 5 O 3.095 1.19667 1.45644 0
M  V30 6 C 0.222 2.43627 2.35294 0
M  V30 7 C -0.732 3.65373 2.2001 0
M  V30 8 S 0.101 5.13292 1.52614 0
M  V30 9 C 1.257 5.56322 2.86805 0
M  V30 10 H 1.49 2.90518 0.631377 0
M  V30 11 H -0.977 1.52953 0.210867 0
M  V30 12 H 0.981 2.67203 3.11629 0
M  V30 13 H -0.358 1.57376 2.7183 0
M  V30 14 H -1.165 3.90944 3.18086 0
M  V30 15 H -1.563 3.418 1.51819 0
M  V30 16 H 0.729 5.58782 3.83104 0
M  V30 17 H 1.672 6.56266 2.65933 0
M  V30 18 H 2.08 4.83886 2.90714 0
M  V30 19 N 1.4781 -0.272755 1.55222 0
M  V30 20 C 2.4411 -1.32041 1.87344 0
M  V30 21 C 3.4411 -1.42342 0.74803 0
M  V30 22 O 4.6311 -1.41488 1.0162 0
M  V30 23 C 1.7631 -2.70173 2.07893 0
M  V30 24 H 2.9561 -1.04789 2.80997 0
M  V30 25 H 0.5091 -0.51083 1.47717 0
M  V30 26 H 1.2441 -3.02605 1.16622 0
M  V30 27 H 1.0291 -2.64082 2.89833 0
M  V30 28 H 2.5191 -3.45869 2.34017 0
M  V30 29 N 2.9562 -1.48159 -0.537278 0
M  V30 30 C 3.9192 -1.61665 -1.62472 0
M  V30 31 C 4.9192 -0.490395 -1.5314 0
M  V30 32 O 6.1092 -0.755998 -1.5694 0
M  V30 33 C 3.2412 -1.57997 -3.02076 0
M  V30 34 H 4.4342 -2.58621 -1.51839 0
M  V30 35 H 1.9872 -1.36647 -0.758771 0
M  V30 36 H 2.7222 -0.624913 -3.18222 0
M  V30 37 H 2.5072 -2.39755 -3.10258 0
M  V30 38 H 3.9972 -1.70627 -3.81151 0
M  V30 39 N 4.4343 0.785586 -1.36625 0
M  V30 40 C 5.3973 1.87999 -1.31107 0
M  V30 41 C 6.3973 1.59316 -0.217959 0
M  V30 42 O 7.5873 1.67656 -0.472977 0
M  V30 43 C 4.7193 3.24861 -1.03334 0
M  V30 44 H 5.9123 1.94307 -2.2844 0
M  V30 45 H 3.4653 0.983813 -1.21453 0
M  V30 46 H 4.2003 3.24235 -0.0647432 0
M  V30 47 H 3.9853 3.4707 -1.82441 0
M  V30 48 H 5.4753 4.04929 -1.02088 0
M  V30 49 N 5.9124 1.20967 1.01018 0
M  V30 50 C 6.8754 0.965918 2.07853 0
M  V30 51 C 7.8754 -0.0610545 1.60684 0
M  V30 52 O 9.0654 0.175681 1.73312 0
M  V30 53 C 6.1974 0.455513 3.37843 0
M  V30 54 H 7.3904 1.91365 2.3091 0
M  V30 55 H 4.9434 1.02594 1.17916 0
M  V30 56 H 5.6784 -0.497381 3.20463 0
M  V30 57 H 5.4634 1.19622 3.73407 0
M  V30 58 H 6.9534 0.304667 4.16487 0
M  V30 59 N 7.3905 -1.2043 1.01659 0
M  V30 60 C 8.3535 -2.21433 0.591616 0
M  V30 61 C 9.3535 -1.57203 -0.338226 0
M  V30 62 O 10.5435 -1.73737 -0.126918 0
M  V30 63 C 7.6755 -3.40628 -0.136058 0
M  V30 64 H 8.8685 -2.60545 1.48514 0
M  V30 65 H 6.4215 -1.33893 0.806379 0
M  V30 66 H 7.1565 -3.07019 -1.04449 0
M  V30 67 H 6.9415 -3.88475 0.531917 0
M  V30 68 H 8.4315 -4.15475 -0.420735 0
M  V30 69 N 8.8686 -0.792821 -1.36206 0
M  V30 70 C 9.8316 -0.199459 -2.2833 0
M  V30 71 C 10.8316 0.605189 -1.48977 0
M  V30 72 O 12.0216 0.425685 -1.68919 0
M  V30 73 C 9.1536 0.723523 -3.33134 0
M  V30 74 H 10.3466 -1.01181 -2.82316 0
M  V30 75 H 7.8996 -0.562485 -1.45828 0
M  V30 76 H 8.6346 1.56008 -2.84309 0
M  V30 77 H 8.4196 0.148436 -3.91819 0
M  V30 78 H 9.9096 1.13344 -4.01924 0
M  V30 79 N 10.3467 1.47872 -0.545128 0
M  V30 80 C 11.5947 2.02093 -0.016553 0
M  V30 81 C 11.9157 1.42305 1.3332 0
M  V30 82 O 11.1857 0.593853 1.86682 0
M  V30 83 H 9.7657 0.746993 -0.00313038 0
M  V30 84 H 12.4277 1.81414 -0.712397 0
M  V30 85 H 11.5237 3.11996 0.0805422 0
M  V30 86 N 11.8248 0.280983 1.55075 0
M  V30 87 C 12.7878 -0.590896 2.21452 0
M  V30 88 C 13.7878 -1.07682 1.19421 0
M  V30 89 O 14.9778 -0.97605 1.44288 0
M  V30 90 C 12.1098 -1.81587 2.88511 0
M  V30 91 H 13.3028 -0.0112554 2.99898 0
M  V30 92 H 10.8558 0.0316438 1.56268 0
M  V30 93 H 11.5908 -2.43587 2.14093 0
M  V30 94 H 11.3758 -1.4753 3.63287 0
M  V30 95 H 12.8658 -2.43575 3.39206 0
M  V30 96 N 13.3029 -1.57598 0.00835791 0
M  V30 97 C 14.5509 -1.90551 -0.6734 0
M  V30 98 C 14.8719 -0.883301 -1.73847 0
M  V30 99 O 14.1419 0.0781442 -1.95744 0
M  V30 100 H 12.7219 -0.703312 -0.251717 0
M  V30 101 H 15.3839 -1.94833 0.0512592 0
M  V30 102 H 14.4799 -2.9056 -1.13935 0
M  V30 103 N 14.781 0.264519 -1.55364 0
M  V30 104 C 16.192 0.834936 -1.6699 0
M  V30 105 C 16.543 1.86718 -0.602552 0
M  V30 106 O 15.668 2.14899 0.254425 0
M  V30 107 C 16.263 1.5212 -3.02729 0
M  V30 108 C 14.822 2.03954 -3.16354 0
M  V30 109 C 13.969 0.884498 -2.62815 0
M  V30 110 H 16.92 0.0406869 -1.58648 0
M  V30 111 H 16.941 2.38853 -2.96191 0
M  V30 112 H 16.453 0.769668 -3.80392 0
M  V30 113 H 14.554 2.82041 -2.43482 0
M  V30 114 H 14.667 2.24902 -4.23032 0
M  V30 115 H 13.031 1.2802 -2.20188 0
M  V30 116 H 13.814 0.14634 -3.42988 0
M  V30 117 N 16.2591 1.48442 0.529413 0
M  V30 118 C 17.1691 1.6569 1.66084 0
M  V30 119 C 18.1851 0.539432 1.65427 0
M  V30 120 O 19.3611 0.810572 1.84368 0
M  V30 121 C 16.4261 1.69315 3.02545 0
M  V30 122 C 15.4871 2.92694 3.14052 0
M  V30 123 C 14.7201 2.96137 4.44003 0
M  V30 124 O 14.9431 2.07973 5.31134 0
M  V30 125 O 13.8771 3.88312 4.59888 0
M  V30 126 H 17.7031 2.61483 1.54469 0
M  V30 127 H 15.2881 1.3185 0.702567 0
M  V30 128 H 17.1701 1.74217 3.83701 0
M  V30 129 H 15.8451 0.766966 3.14483 0
M  V30 130 H 14.7521 2.93324 2.32189 0
M  V30 131 H 16.0851 3.84699 3.0703 0
M  V30 132 N 17.7372 -0.778329 1.37039 0
M  V30 133 C 18.6702 -1.8984 1.26633 0
M  V30 134 C 19.6482 -1.61923 0.148197 0
M  V30 135 O 20.8322 -1.85742 0.321265 0
M  V30 136 C 17.9592 -3.24916 0.956403 0
M  V30 137 C 17.0052 -3.71752 2.09051 0
M  V30 138 S 17.8382 -3.86201 3.70957 0
M  V30 139 C 18.9942 -5.24135 3.42101 0
M  V30 140 H 19.2272 -1.98377 2.21436 0
M  V30 141 H 16.7602 -0.938738 1.22585 0
M  V30 142 H 18.7182 -4.02936 0.784409 0
M  V30 143 H 17.3792 -3.14089 0.0259713 0
M  V30 144 H 16.5722 -4.69661 1.8285 0
M  V30 145 H 16.1742 -3.00815 2.2223 0
M  V30 146 H 18.4662 -6.09086 2.96682 0
M  V30 147 H 19.4092 -5.55346 4.39314 0
M  V30 148 H 19.8172 -4.91761 2.77185 0
M  V30 149 N 19.2153 -1.21501 -1.00376 0
M  V30 150 C 20.4613 -1.03452 -1.74429 0
M  V30 151 C 20.7943 0.430764 -1.89362 0
M  V30 152 O 20.0693 1.31962 -1.42886 0
M  V30 153 C 20.3523 -1.73375 -3.15615 0
M  V30 154 C 20.2053 -3.27431 -3.08397 0
M  V30 155 C 21.5243 -1.47732 -4.14564 0
M  V30 156 H 18.6433 -0.377226 -0.633143 0
M  V30 157 H 21.2853 -1.49693 -1.17013 0
M  V30 158 H 19.4353 -1.34064 -3.64636 0
M  V30 159 H 21.1073 -3.76119 -2.67081 0
M  V30 160 H 19.3503 -3.5767 -2.45468 0
M  V30 161 H 20.0213 -3.71524 -4.08258 0
M  V30 162 H 22.4973 -1.8186 -3.74254 0
M  V30 163 H 21.3733 -1.99169 -5.11491 0
M  V30 164 H 21.6343 -0.407589 -4.40217 0
M  V30 165 N 20.6934 1.19889 -1.02296 0
M  V30 166 C 22.1094 1.41462 -0.738954 0
M  V30 167 C 22.3094 1.89721 0.678846 0
M  V30 168 O 21.3654 2.07016 1.4457 0
M  V30 169 C 22.6784 2.43083 -1.77005 0
M  V30 170 C 24.2264 2.5684 -1.78892 0
M  V30 171 C 24.7014 3.61709 -2.80945 0
M  V30 172 N 26.1924 3.69199 -2.79725 0
M  V30 173 C 26.9274 4.50019 -3.55345 0
M  V30 174 N 26.4234 5.34592 -4.40662 0
M  V30 175 N 28.2164 4.44612 -3.43914 0
M  V30 176 H 20.3674 0.868827 -1.93817 0
M  V30 177 H 22.6304 0.44399 -0.837602 0
M  V30 178 H 22.3364 2.14636 -2.78612 0
M  V30 179 H 22.2104 3.4217 -1.58744 0
M  V30 180 H 24.5974 2.84614 -0.779674 0
M  V30 181 H 24.6784 1.57927 -2.01228 0
M  V30 182 H 24.3224 3.34678 -3.82038 0
M  V30 183 H 24.2524 4.60259 -2.5587 0
M  V30 184 H 26.7434 3.08794 -2.17842 0
M  V30 185 H 27.0564 5.93363 -4.95116 0
M  V30 186 H 25.4014 5.34073 -4.44737 0
M  V30 187 H 28.5924 3.7758 -2.76679 0
M  V30 188 H 28.7654 5.0736 -4.031 0
M  V30 189 N 22.1715 0.800033 1.35784 0
M  V30 190 C 23.4195 0.376597 1.9856 0
M  V30 191 C 23.7405 -1.05812 1.63795 0
M  V30 192 O 23.0105 -1.73103 0.917171 0
M  V30 193 H 21.5905 0.136261 0.734467 0
M  V30 194 H 24.2525 1.02442 1.65806 0
M  V30 195 H 23.3485 0.477002 3.08433 0
M  V30 196 N 23.6496 -1.47581 0.552962 0
M  V30 197 C 24.5816 -2.27997 -0.234533 0
M  V30 198 C 25.5946 -1.36753 -0.883321 0
M  V30 199 O 26.7836 -1.61612 -0.757889 0
M  V30 200 C 23.8836 -3.10879 -1.34935 0
M  V30 201 C 23.0566 -4.30056 -0.798158 0
M  V30 202 C 22.1156 -4.94567 -1.79694 0
M  V30 203 O 21.1416 -5.53087 -1.34474 0
M  V30 204 N 22.3436 -4.88878 -3.13015 0
M  V30 205 H 25.1086 -2.96222 0.455255 0
M  V30 206 H 22.6696 -1.57163 0.388761 0
M  V30 207 H 24.6616 -3.50903 -2.01616 0
M  V30 208 H 23.2316 -2.44924 -1.94244 0
M  V30 209 H 22.4516 -3.94174 0.0453079 0
M  V30 210 H 23.7396 -5.07152 -0.409173 0
M  V30 211 H 23.1376 -4.42526 -3.52402 0
M  V30 212 H 21.6946 -5.32934 -3.75266 0
M  V30 213 N 25.1277 -0.289203 -1.54924 0
M  V30 214 C 26.3737 0.323998 -2.00195 0
M  V30 215 C 26.7067 1.54441 -1.17735 0
M  V30 216 O 25.9817 1.92875 -0.250878 0
M  V30 217 C 26.2647 0.692276 -3.53383 0
M  V30 218 C 26.1177 -0.536457 -4.46589 0
M  V30 219 C 27.4367 1.52335 -4.12895 0
M  V30 220 H 24.5557 0.116289 -0.727768 0
M  V30 221 H 27.1977 -0.398954 -1.85764 0
M  V30 222 H 25.3477 1.30822 -3.65811 0
M  V30 223 H 27.0197 -1.17499 -4.46085 0
M  V30 224 H 25.2627 -1.17192 -4.1767 0
M  V30 225 H 25.9337 -0.234806 -5.515 0
M  V30 226 H 28.4097 1.00302 -4.0383 0
M  V30 227 H 27.2857 1.74982 -5.20262 0
M  V30 228 H 27.5467 2.50886 -3.64018 0
M  V30 229 N 26.6058 1.57591 -0.0167156 0
M  V30 230 C 27.8528 1.91283 0.664597 0
M  V30 231 C 28.1808 0.891949 1.72842 0
M  V30 232 O 27.4358 -0.100931 1.9544 0
M  V30 233 C 27.7348 3.3172 1.33029 0
M  V30 234 C 27.4008 4.4914 0.398047 0
M  V30 235 C 26.0628 4.80992 0.141421 0
M  V30 236 C 28.4148 5.20634 -0.242825 0
M  V30 237 C 25.7428 5.81703 -0.764092 0
M  V30 238 C 28.0948 6.22311 -1.13632 0
M  V30 239 C 26.7588 6.52611 -1.40196 0
M  V30 240 H 26.0288 0.699956 0.243193 0
M  V30 241 H 28.6758 1.9135 -0.0758267 0
M  V30 242 H 26.9808 3.27856 2.14517 0
M  V30 243 H 28.6778 3.55055 1.86379 0
M  V30 244 H 25.2678 4.24262 0.608238 0
M  V30 245 H 29.4518 4.96267 -0.0576019 0
M  V30 246 H 24.7078 6.03532 -0.977732 0
M  V30 247 H 28.8818 6.76834 -1.63917 0
M  V30 248 H 26.5088 7.30467 -2.10529 0
M  V30 249 N 28.0839 -0.256276 1.55502 0
M  V30 250 C 29.3609 -1.00789 1.67633 0
M  V30 251 C 29.7409 -2.03706 0.553826 0
M  V30 252 O 29.0889 -2.24145 -0.443969 0
M  V30 253 C 29.2989 -1.64968 3.07549 0
M  V30 254 C 30.6469 -2.15505 3.65845 0
M  V30 255 O 31.6709 -1.74925 3.1029 0
M  V30 256 O 30.5299 -2.89986 4.63217 0
M  V30 257 H 27.6239 -0.468553 0.681459 0
M  V30 258 H 30.1699 -0.250806 1.67836 0
M  V30 259 H 28.9419 -0.904785 3.80696 0
M  V30 260 H 28.5649 -2.47321 3.11317 0
M  V30 261 N 29.562 -1.4872 -0.521534 0
M  V30 262 C 30.808 -1.574 -1.27879 0
M  V30 263 C 31.141 -0.250817 -1.92573 0
M  V30 264 O 30.416 0.743934 -1.79711 0
M  V30 265 C 30.699 -2.71843 -2.36164 0
M  V30 266 C 30.552 -4.13893 -1.76105 0
M  V30 267 C 31.871 -2.82008 -3.37875 0
M  V30 268 H 28.99 -0.572941 -0.463581 0
M  V30 269 H 31.632 -1.80927 -0.580119 0
M  V30 270 H 29.782 -2.51914 -2.95756 0
M  V30 271 H 31.454 -4.45284 -1.20499 0
M  V30 272 H 29.697 -4.20498 -1.06601 0
M  V30 273 H 30.368 -4.89804 -2.5455 0
M  V30 274 H 32.844 -3.00086 -2.88249 0
M  V30 275 H 31.72 -3.63796 -4.11028 0
M  V30 276 H 31.981 -1.90511 -3.98946 0
M  V30 277 N 31.0401 0.771051 -1.3745 0
M  V30 278 C 32.2881 1.52661 -1.32435 0
M  V30 279 C 32.6091 1.9479 0.0905024 0
M  V30 280 O 31.8791 1.66348 1.03466 0
M  V30 281 H 30.4591 0.566218 -0.487244 0
M  V30 282 H 33.1211 0.917636 -1.71946 0
M  V30 283 H 32.2171 2.42568 -1.96385 0
M  V30 284 N 32.5182 1.22032 0.997298 0
M  V30 285 C 33.9292 1.0397 1.55071 0
M  V30 286 C 34.2802 -0.398192 1.92117 0
M  V30 287 O 33.4052 -1.28254 1.74298 0
M  V30 288 C 34.0002 1.88109 2.81781 0
M  V30 289 C 32.5592 1.74357 3.33581 0
M  V30 290 C 31.7062 1.84846 2.06706 0
M  V30 291 H 34.6572 1.35941 0.818883 0
M  V30 292 H 34.6782 1.39589 3.53971 0
M  V30 293 H 34.1902 2.92754 2.54787 0
M  V30 294 H 32.2912 0.72427 3.65493 0
M  V30 295 H 32.4042 2.56772 4.04481 0
M  V30 296 H 30.7682 1.28238 2.20062 0
M  V30 297 H 31.5512 2.91014 1.82114 0
M  V30 298 N 33.9963 -1.19345 1.0293 0
M  V30 299 C 35.4123 -1.41069 0.746446 0
M  V30 300 C 35.6123 -1.90078 -0.668776 0
M  V30 301 O 34.6683 -2.0778 -1.4347 0
M  V30 302 C 35.9813 -2.42141 1.78292 0
M  V30 303 C 37.5293 -2.55887 1.80252 0
M  V30 304 C 38.0043 -3.60214 2.8286 0
M  V30 305 N 39.4953 -3.67711 2.81679 0
M  V30 306 C 40.2303 -4.48128 3.57727 0
M  V30 307 N 39.7263 -5.32248 4.43491 0
M  V30 308 N 41.5193 -4.42782 3.46267 0
M  V30 309 H 33.6703 -0.858536 1.94275 0
M  V30 310 H 35.9333 -0.439541 0.839945 0
M  V30 311 H 35.6393 -2.13155 2.79746 0
M  V30 312 H 35.5133 -3.41323 1.60557 0
M  V30 313 H 37.9003 -2.84196 0.794757 0
M  V30 314 H 37.9813 -1.56858 2.02062 0
M  V30 315 H 37.6253 -3.32647 3.83807 0
M  V30 316 H 37.5553 -4.58895 2.58307 0
M  V30 317 H 40.0463 -3.07634 2.19476 0
M  V30 318 H 40.3593 -5.90729 4.98256 0
M  V30 319 H 38.7043 -5.31707 4.47564 0
M  V30 320 H 41.8953 -3.76107 2.78677 0
M  V30 321 H 42.0683 -5.05215 4.05785 0
M  V30 322 N 35.4744 -0.807222 -1.35358 0
M  V30 323 C 36.7044 -0.399796 -2.02695 0
M  V30 324 C 37.1124 0.994176 -1.60974 0
M  V30 325 O 36.4554 1.65209 -0.803226 0
M  V30 326 C 36.5174 -0.404445 -3.57218 0
M  V30 327 C 36.1814 -1.74904 -4.22206 0
M  V30 328 C 37.1784 -2.70743 -4.4384 0
M  V30 329 C 34.8634 -2.03322 -4.5931 0
M  V30 330 C 36.8574 -3.93183 -5.01683 0
M  V30 331 C 34.5444 -3.26026 -5.16866 0
M  V30 332 C 35.5424 -4.20774 -5.37994 0
M  V30 333 O 35.2304 -5.41312 -5.94337 0
M  V30 334 H 34.9624 -0.160517 -0.656666 0
M  V30 335 H 37.5164 -1.09235 -1.73945 0
M  V30 336 H 35.7464 0.344707 -3.85161 0
M  V30 337 H 37.4354 -0.0192429 -4.05895 0
M  V30 338 H 38.2014 -2.5008 -4.15554 0
M  V30 339 H 34.0804 -1.30384 -4.42178 0
M  V30 340 H 37.6244 -4.6715 -5.1809 0
M  V30 341 H 33.5214 -3.46559 -5.44579 0
M  V30 342 H 34.2894 -5.42618 -6.12787 0
M  V30 343 N 36.9525 1.47285 -0.560781 0
M  V30 344 C 38.1805 2.06855 -0.0430262 0
M  V30 345 C 38.5955 1.41291 1.25229 0
M  V30 346 O 37.9525 0.510648 1.7521 0
M  V30 347 C 38.0035 3.61178 0.152518 0
M  V30 348 O 37.7245 4.24285 -1.0915 0
M  V30 349 C 39.2255 4.37624 0.707145 0
M  V30 350 H 36.4455 0.669319 -0.0474652 0
M  V30 351 H 38.9895 1.89237 -0.77521 0
M  V30 352 H 37.1445 3.78298 0.834843 0
M  V30 353 H 37.5585 5.16868 -0.891482 0
M  V30 354 H 39.0325 5.46271 0.793244 0
M  V30 355 H 39.5095 4.04152 1.71923 0
M  V30 356 H 40.1155 4.25257 0.0604027 0
M  V30 357 N 38.4306 0.297415 1.54768 0
M  V30 358 C 39.3786 -0.596051 2.24833 0
M  V30 359 C 40.3726 -1.13992 1.25308 0
M  V30 360 O 41.5786 -1.09098 1.4317 0
M  V30 361 H 37.9536 -0.210814 0.721846 0
M  V30 362 H 39.9246 0.0174667 2.98395 0
M  V30 363 C 38.6736 -1.75818 2.99972 0
M  V30 364 H 37.9966 -1.3489 3.76357 0
M  V30 365 H 39.4366 -2.35949 3.52284 0
M  V30 366 C 37.8956 -2.66014 2.06732 0
M  V30 367 O 38.4256 -3.67009 1.63302 0
M  V30 368 N 36.6316 -2.33669 1.72763 0
M  V30 369 H 36.1786 -1.51586 2.08277 0
M  V30 370 H 36.1366 -2.94285 1.10652 0
M  V30 371 N 39.9087 -1.5758 0.0250728 0
M  V30 372 C 40.8387 -2.13007 -0.956575 0
M  V30 373 C 41.8197 -1.0452 -1.342 0
M  V30 374 O 43.0047 -1.32332 -1.42133 0
M  V30 375 C 40.1347 -2.65386 -2.24026 0
M  V30 376 C 39.0887 -3.78623 -1.99571 0
M  V30 377 C 38.4147 -4.17414 -3.3417 0
M  V30 378 C 39.7147 -5.04867 -1.33814 0
M  V30 379 H 41.4087 -2.9528 -0.494991 0
M  V30 380 H 38.9547 -1.42042 -0.236651 0
M  V30 381 H 40.9077 -3.02794 -2.93076 0
M  V30 382 H 39.6317 -1.80268 -2.72343 0
M  V30 383 H 38.2907 -3.41646 -1.32941 0
M  V30 384 H 37.9387 -3.29284 -3.80238 0
M  V30 385 H 37.6387 -4.93719 -3.18615 0
M  V30 386 H 39.1627 -4.57402 -4.04495 0
M  V30 387 H 40.5767 -5.39888 -1.92857 0
M  V30 388 H 38.9737 -5.86144 -1.28669 0
M  V30 389 H 40.0437 -4.83904 -0.310561 0
M  V30 390 N 41.3868 0.248026 -1.55636 0
M  V30 391 C 42.6118 0.998028 -1.81808 0
M  V30 392 C 43.0368 1.78207 -0.601979 0
M  V30 393 O 42.3948 1.75653 0.448961 0
M  V30 394 C 42.4428 1.9125 -3.05705 0
M  V30 395 O 41.5468 3.00406 -2.82542 0
M  V30 396 H 40.8878 0.284045 -0.600179 0
M  V30 397 H 43.4178 0.269357 -2.02819 0
M  V30 398 H 43.4278 2.32737 -3.35108 0
M  V30 399 H 42.1028 1.33602 -3.93857 0
M  V30 400 H 40.6798 2.63056 -2.64303 0
M  V30 401 N 42.8649 1.48995 0.513639 0
M  V30 402 C 44.0949 1.61297 1.291 0
M  V30 403 C 44.5029 0.278656 1.87137 0
M  V30 404 O 43.8459 -0.744325 1.67945 0
M  V30 405 C 43.9079 2.61326 2.46879 0
M  V30 406 C 43.5719 4.05993 2.09807 0
M  V30 407 C 44.5689 4.93183 1.64519 0
M  V30 408 C 42.2539 4.51642 2.19829 0
M  V30 409 C 44.2479 6.24056 1.2974 0
M  V30 410 C 41.9349 5.82532 1.84662 0
M  V30 411 C 42.9329 6.68562 1.3969 0
M  V30 412 O 42.6209 7.97014 1.04992 0
M  V30 413 H 42.3529 0.546236 0.39825 0
M  V30 414 H 44.9069 1.95673 0.62459 0
M  V30 415 H 43.1369 2.22104 3.16554 0
M  V30 416 H 44.8259 2.6329 3.08923 0
M  V30 417 H 45.5919 4.59147 1.56233 0
M  V30 418 H 41.4709 3.84855 2.53786 0
M  V30 419 H 45.0149 6.91161 0.945659 0
M  V30 420 H 40.9119 6.16099 1.92594 0
M  V30 421 H 41.6799 8.09913 1.18249 0
M  V30 422 N 44.343 -0.763751 1.37857 0
M  V30 423 C 45.592 -1.51789 1.32827 0
M  V30 424 C 45.905 -1.95426 -0.0823719 0
M  V30 425 O 47.111 -2.70298 -0.255172 0
M  V30 426 C 45.567 -2.74133 2.33193 0
M  V30 427 C 45.175 -2.37562 3.79827 0
M  V30 428 C 46.919 -3.52054 2.37188 0
M  V30 429 C 44.826 -3.56456 4.71904 0
M  V30 430 H 43.756 -0.569896 0.493695 0
M  V30 431 H 46.407 -0.835822 1.63359 0
M  V30 432 H 44.789 -3.4427 1.9569 0
M  V30 433 H 45.963 -1.75157 4.26212 0
M  V30 434 H 44.278 -1.72798 3.78853 0
M  V30 435 H 46.875 -4.40437 3.03182 0
M  V30 436 H 47.218 -3.92486 1.38782 0
M  V30 437 H 47.751 -2.88921 2.7344 0
M  V30 438 H 44.49 -3.21099 5.71468 0
M  V30 439 H 44.01 -4.17938 4.30218 0
M  V30 440 H 45.689 -4.23168 4.89426 0
M  V30 441 N 45.8211 -1.22559 -0.990812 0
M  V30 442 C 47.0691 -1.04933 -1.72724 0
M  V30 443 C 47.3901 0.416158 -1.90508 0
M  V30 444 O 46.6601 1.29918 -1.46622 0
M  V30 445 H 45.2401 -0.385296 -0.639965 0
M  V30 446 H 47.9021 -1.54105 -1.19322 0
M  V30 447 H 46.9981 -1.52886 -2.72089 0
M  V30 448 N 47.2992 1.18797 -1.03562 0
M  V30 449 C 48.2092 2.25913 -0.632505 0
M  V30 450 C 49.2252 1.70668 0.338882 0
M  V30 451 O 50.4012 2.00453 0.195076 0
M  V30 452 C 47.4662 3.467 0.00350942 0
M  V30 453 C 46.5272 4.17098 -1.01624 0
M  V30 454 C 45.7602 5.32119 -0.410478 0
M  V30 455 O 45.9832 5.64976 0.784725 0
M  V30 456 O 44.9172 5.9107 -1.13667 0
M  V30 457 H 48.7432 2.62648 -1.52478 0
M  V30 458 H 46.3282 1.25781 -0.806195 0
M  V30 459 H 48.2102 4.19878 0.35781 0
M  V30 460 H 46.8852 3.11798 0.869686 0
M  V30 461 H 45.7922 3.4601 -1.42224 0
M  V30 462 H 47.1252 4.55987 -1.85301 0
M  V30 463 N 48.7773 0.814389 1.34928 0
M  V30 464 C 50.0253 0.397636 1.9815 0
M  V30 465 C 50.3463 -1.04069 1.64908 0
M  V30 466 O 49.6163 -1.72121 0.93548 0
M  V30 467 H 48.1963 0.144043 0.732981 0
M  V30 468 H 50.8583 1.04195 1.6471 0
M  V30 469 H 49.9543 0.509688 3.0791 0
M  V30 470 N 50.2554 -1.46986 0.568584 0
M  V30 471 C 51.2184 -2.28624 -0.162366 0
M  V30 472 C 52.2184 -1.37596 -0.832103 0
M  V30 473 O 53.4084 -1.60115 -0.68622 0
M  V30 474 C 50.5404 -3.17596 -1.23878 0
M  V30 475 H 51.7334 -2.94722 0.554899 0
M  V30 476 H 49.2864 -1.52863 0.325976 0
M  V30 477 H 50.0214 -2.56214 -1.98808 0
M  V30 478 H 49.8064 -3.846 -0.763219 0
M  V30 479 H 51.2964 -3.79078 -1.75185 0
M  V30 480 N 51.7335 -0.305618 -1.54608 0
M  V30 481 C 52.9635 0.304333 -2.04346 0
M  V30 482 C 53.3715 1.47715 -1.18224 0
M  V30 483 O 52.7145 1.82591 -0.201577 0
M  V30 484 C 52.7765 0.819031 -3.50046 0
M  V30 485 C 52.4405 -0.22912 -4.56425 0
M  V30 486 C 53.4375 -1.05914 -5.08997 0
M  V30 487 C 51.1225 -0.372148 -5.0092 0
M  V30 488 C 53.1165 -2.01809 -6.04609 0
M  V30 489 C 50.8035 -1.33454 -5.9635 0
M  V30 490 C 51.8015 -2.15599 -6.48079 0
M  V30 491 O 51.4895 -3.10205 -7.41639 0
M  V30 492 H 51.2215 0.0693996 -0.672428 0
M  V30 493 H 53.7755 -0.444548 -2.00532 0
M  V30 494 H 52.0055 1.61852 -3.51199 0
M  V30 495 H 53.6945 1.34537 -3.82955 0
M  V30 496 H 54.4605 -0.959538 -4.75413 0
M  V30 497 H 50.3395 0.257304 -4.60281 0
M  V30 498 H 53.8835 -2.65966 -6.44909 0
M  V30 499 H 49.7805 -1.43485 -6.29351 0
M  V30 500 H 50.5485 -3.05237 -7.59455 0
M  V30 501 N 53.2116 1.57565 -0.0334293 0
M  V30 502 C 54.4596 1.91598 0.642999 0
M  V30 503 C 54.7806 0.910847 1.7242 0
M  V30 504 O 54.0506 -0.0469931 1.95844 0
M  V30 505 H 52.6306 0.707228 0.240496 0
M  V30 506 H 55.2926 1.94726 -0.0822488 0
M  V30 507 H 54.3886 2.92336 1.09298 0
M  V30 508 N 54.6897 -0.239769 1.55765 0
M  V30 509 C 55.6227 -1.32356 1.85895 0
M  V30 510 C 56.6007 -1.46053 0.714662 0
M  V30 511 O 57.7847 -1.62154 0.961157 0
M  V30 512 C 54.9117 -2.6962 2.04994 0
M  V30 513 C 53.9577 -2.73036 3.27648 0
M  V30 514 S 54.7907 -2.28929 4.84099 0
M  V30 515 C 55.9467 -3.68103 5.06212 0
M  V30 516 H 56.1797 -1.06601 2.77531 0
M  V30 517 H 53.7127 -0.441112 1.47965 0
M  V30 518 H 55.6707 -3.48653 2.16682 0
M  V30 519 H 54.3317 -2.92609 1.14188 0
M  V30 520 H 53.5247 -3.7386 3.38 0
M  V30 521 H 53.1267 -2.02052 3.14723 0
M  V30 522 H 55.4187 -4.63656 4.93993 0
M  V30 523 H 56.3617 -3.6268 6.08168 0
M  V30 524 H 56.7697 -3.60947 4.34025 0
M  V30 525 N 56.1678 -1.49265 -0.50573 0
M  V30 526 C 57.4138 -1.58748 -1.26202 0
M  V30 527 C 57.7468 -0.271227 -1.92297 0
M  V30 528 O 57.0218 0.724831 -1.80489 0
M  V30 529 C 57.3048 -2.74332 -2.33268 0
M  V30 530 C 57.1578 -4.15737 -1.71705 0
M  V30 531 C 58.4768 -2.85576 -3.34865 0
M  V30 532 H 55.5958 -0.577826 -0.457478 0
M  V30 533 H 58.2378 -1.81532 -0.560897 0
M  V30 534 H 56.3878 -2.55036 -2.93068 0
M  V30 535 H 58.0598 -4.46537 -1.15769 0
M  V30 536 H 56.3028 -4.21605 -1.02135 0
M  V30 537 H 56.9738 -4.92477 -2.49341 0
M  V30 538 H 59.4498 -3.03127 -2.8505 0
M  V30 539 H 58.3258 -3.68135 -4.07146 0
M  V30 540 H 58.5868 -1.94732 -3.96903 0
M  V30 541 N 57.6459 0.756429 -1.3826 0
M  V30 542 C 58.8859 1.52833 -1.35725 0
M  V30 543 C 59.2499 1.91926 0.0534106 0
M  V30 544 O 60.4509 2.68028 0.203613 0
M  V30 545 C 58.7219 2.74919 -2.28373 0
M  V30 546 S 60.2809 3.64817 -2.43832 0
M  V30 547 H 57.0989 0.523043 -0.481608 0
M  V30 548 H 59.7009 0.888212 -1.74158 0
M  V30 549 H 58.4049 2.44304 -3.29763 0
M  V30 550 H 57.9359 3.43878 -1.91079 0
M  V30 551 H 59.9509 4.676 -1.66027 0
M  V30 552 N 59.124 1.23083 0.984299 0
M  V30 553 C 60.349 1.088 1.76571 0
M  V30 554 C 60.774 -0.356657 1.84688 0
M  V30 555 O 60.132 -1.25788 1.30565 0
M  V30 556 C 60.18 1.71371 3.17277 0
M  V30 557 O 59.284 0.973213 4.00752 0
M  V30 558 H 58.625 0.381599 0.543395 0
M  V30 559 H 61.155 1.63057 1.23587 0
M  V30 560 H 61.165 1.76449 3.67872 0
M  V30 561 H 59.84 2.76493 3.10684 0
M  V30 562 H 58.417 0.999078 3.59267 0
M  V30 563 N 60.6021 -1.18246 1.0419 0
M  V30 564 C 61.5651 -2.20128 0.638452 0
M  V30 565 C 62.5651 -1.57885 -0.304805 0
M  V30 566 O 63.7551 -1.73967 -0.0900369 0
M  V30 567 C 60.8871 -3.4084 -0.0637751 0
M  V30 568 H 62.0801 -2.57336 1.54007 0
M  V30 569 H 59.6331 -1.32152 0.834598 0
M  V30 570 H 60.3681 -3.09166 -0.979136 0
M  V30 571 H 60.1531 -3.8726 0.614198 0
M  V30 572 H 61.6431 -4.16274 -0.332512 0
M  V30 573 N 62.0802 -0.821533 -1.34494 0
M  V30 574 C 63.3102 -0.421272 -2.02259 0
M  V30 575 C 63.7182 0.977047 -1.6202 0
M  V30 576 O 63.0612 1.64348 -0.820703 0
M  V30 577 C 63.1232 -0.44231 -3.56769 0
M  V30 578 C 62.7872 -1.79372 -4.20327 0
M  V30 579 C 63.7842 -2.75435 -4.40944 0
M  V30 580 C 61.4692 -2.08182 -4.57127 0
M  V30 581 C 63.4632 -3.98482 -4.97484 0
M  V30 582 C 61.1502 -3.31489 -5.13379 0
M  V30 583 C 62.1482 -4.26457 -5.33501 0
M  V30 584 O 61.8362 -5.47585 -5.88562 0
M  V30 585 H 61.5682 -0.167473 -0.654927 0
M  V30 586 H 64.1222 -1.11073 -1.72777 0
M  V30 587 H 62.3522 0.303836 -3.85505 0
M  V30 588 H 64.0412 -0.0622925 -4.05852 0
M  V30 589 H 64.8072 -2.54473 -4.12878 0
M  V30 590 H 60.6862 -1.35066 -4.4077 0
M  V30 591 H 64.2302 -4.72618 -5.13106 0
M  V30 592 H 60.1272 -3.52316 -5.40873 0
M  V30 593 H 60.8952 -5.49086 -6.06998 0
M  V30 594 N 63.5583 1.46682 -0.576371 0
M  V30 595 C 64.8353 1.95599 0.00703437 0
M  V30 596 C 65.2153 1.51904 1.46589 0
M  V30 597 O 64.5633 0.766755 2.15251 0
M  V30 598 C 64.7733 3.4864 -0.158404 0
M  V30 599 C 66.1213 4.24594 -0.0229439 0
M  V30 600 O 67.1453 3.56094 -0.0869173 0
M  V30 601 O 66.0043 5.46373 0.118015 0
M  V30 602 H 63.0983 0.825275 0.053384 0
M  V30 603 H 65.6443 1.56996 -0.644244 0
M  V30 604 H 64.4163 3.7331 -1.17282 0
M  V30 605 H 64.0393 3.94057 0.5296 0
M  V30 606 N 65.0364 0.313813 1.54444 0
M  V30 607 C 65.9844 -0.572171 2.25453 0
M  V30 608 C 66.9784 -1.12657 1.2651 0
M  V30 609 O 68.1844 -1.07573 1.44319 0
M  V30 610 H 64.5594 -0.203146 0.724041 0
M  V30 611 H 66.5304 0.0491145 2.9836 0
M  V30 612 C 65.2794 -1.72626 3.0182 0
M  V30 613 H 64.6024 -1.30891 3.77767 0
M  V30 614 H 66.0424 -2.32199 3.54767 0
M  V30 615 C 64.5014 -2.63806 2.09542 0
M  V30 616 O 65.0314 -3.65256 1.67185 0
M  V30 617 N 63.2374 -2.31824 1.75232 0
M  V30 618 H 62.7844 -1.49368 2.09873 0
M  V30 619 H 62.7424 -2.93095 1.13767 0
M  V30 620 N 66.5145 -1.57545 0.0417849 0
M  V30 621 C 67.7605 -1.92601 -0.635021 0
M  V30 622 C 68.0935 -0.919627 -1.71045 0
M  V30 623 O 67.3685 0.0557892 -1.9442 0
M  V30 624 C 67.6515 -3.38085 -1.23979 0
M  V30 625 C 67.5045 -4.49467 -0.173057 0
M  V30 626 C 68.8235 -3.83776 -2.15416 0
M  V30 627 H 65.9425 -0.700397 -0.229374 0
M  V30 628 H 68.5845 -1.89728 0.101633 0
M  V30 629 H 66.7345 -3.40664 -1.86762 0
M  V30 630 H 68.4065 -4.59018 0.458312 0
M  V30 631 H 66.6495 -4.30909 0.499996 0
M  V30 632 H 67.3205 -5.48323 -0.636054 0
M  V30 633 H 69.7965 -3.83013 -1.62605 0
M  V30 634 H 68.6725 -4.8624 -2.54679 0
M  V30 635 H 68.9335 -3.19998 -3.05047 0
M  V30 636 N 67.9926 0.231505 -1.5589 0
M  V30 637 C 68.9406 1.30649 -1.92441 0
M  V30 638 C 69.9346 1.49037 -0.805254 0
M  V30 639 O 71.1406 1.50329 -0.990007 0
M  V30 640 H 67.5156 0.437812 -0.611412 0
M  V30 641 H 69.4866 0.970973 -2.82161 0
M  V30 642 C 68.2356 2.65179 -2.24889 0
M  V30 643 H 67.5586 2.51835 -3.10514 0
M  V30 644 H 68.9986 3.39234 -2.54355 0
M  V30 645 C 67.4576 3.19439 -1.07054 0
M  V30 646 O 67.9876 4.00371 -0.326499 0
M  V30 647 N 66.1936 2.77675 -0.85703 0
M  V30 648 H 65.7406 2.11969 -1.46379 0
M  V30 649 H 65.6986 3.14321 -0.0703223 0
M  V30 650 N 69.4707 1.49531 0.497807 0
M  V30 651 C 70.4177 1.66436 1.59899 0
M  V30 652 C 71.3877 0.505793 1.58212 0
M  V30 653 O 72.5727 0.733202 1.7615 0
M  V30 654 C 69.7127 1.7399 2.98029 0
M  V30 655 C 68.8257 3.01172 3.09708 0
M  V30 656 C 67.9607 2.99686 4.38591 0
M  V30 657 C 66.9997 4.21434 4.43914 0
M  V30 658 N 66.1367 4.1784 5.64229 0
M  V30 659 H 70.9767 2.60459 1.44793 0
M  V30 660 H 68.5137 1.29137 0.704423 0
M  V30 661 H 70.4717 1.76352 3.78095 0
M  V30 662 H 69.1017 0.834301 3.11832 0
M  V30 663 H 68.1537 3.08408 2.22685 0
M  V30 664 H 69.4657 3.91165 3.09502 0
M  V30 665 H 68.6197 3.00628 5.2698 0
M  V30 666 H 67.3587 2.07477 4.41367 0
M  V30 667 H 66.3637 4.20733 3.53926 0
M  V30 668 H 67.5887 5.14839 4.42851 0
M  V30 669 H 65.5347 3.28469 5.67841 0
M  V30 670 H 65.4517 5.01571 5.65652 0
M  V30 671 H 66.7197 4.22889 6.54817 0
M  V30 672 N 70.9488 -0.749086 1.3866 0
M  V30 673 C 72.1948 -1.51056 1.35314 0
M  V30 674 C 72.5278 -1.94121 -0.0553751 0
M  V30 675 O 71.8028 -1.65763 -1.01749 0
M  V30 676 C 72.0858 -2.76003 2.31288 0
M  V30 677 C 71.9388 -2.39047 3.8102 0
M  V30 678 C 73.2578 -3.78046 2.2532 0
M  V30 679 H 70.3768 -0.547972 0.492844 0
M  V30 680 H 73.0188 -0.857628 1.69543 0
M  V30 681 H 71.1688 -3.31716 2.02229 0
M  V30 682 H 72.8408 -1.89074 4.20771 0
M  V30 683 H 71.0838 -1.71449 3.98482 0
M  V30 684 H 71.7548 -3.28462 4.4364 0
M  V30 685 H 74.2308 -3.31884 2.50983 0
M  V30 686 H 73.1068 -4.63159 2.94576 0
M  V30 687 H 73.3678 -4.23957 1.25352 0
M  V30 688 N 72.4269 -1.23603 -0.977757 0
M  V30 689 C 73.8429 -0.999251 -1.24447 0
M  V30 690 C 74.0429 0.298053 -1.99283 0
M  V30 691 O 73.0989 1.01681 -2.31122 0
M  V30 692 C 74.4119 -2.20784 -2.04144 0
M  V30 693 C 75.9599 -2.25303 -2.17273 0
M  V30 694 C 76.4349 -3.45755 -3.00362 0
M  V30 695 N 77.9259 -3.4601 -3.07947 0
M  V30 696 C 78.6609 -4.35868 -3.72568 0
M  V30 697 N 78.1569 -5.35966 -4.38991 0
M  V30 698 N 79.9499 -4.23605 -3.6948 0
M  V30 699 H 72.1009 -2.06986 -0.476483 0
M  V30 700 H 74.3639 -0.907801 -0.273134 0
M  V30 701 H 74.0699 -3.14945 -1.56533 0
M  V30 702 H 73.9439 -2.22085 -3.04891 0
M  V30 703 H 76.3309 -1.3168 -2.64092 0
M  V30 704 H 76.4119 -2.28033 -1.15907 0
M  V30 705 H 76.0559 -4.39687 -2.5424 0
M  V30 706 H 75.9859 -3.40266 -4.01904 0
M  V30 707 H 78.4769 -2.73588 -2.60688 0
M  V30 708 H 78.7899 -6.00783 -4.86086 0
M  V30 709 H 77.1349 -5.39863 -4.37691 0
M  V30 710 H 80.3259 -3.44647 -3.16759 0
M  V30 711 H 80.4989 -4.93836 -4.1956 0
M  V30 712 N 73.905 1.17692 -1.04816 0
M  V30 713 C 75.151 1.88137 -0.75711 0
M  V30 714 C 75.484 1.80604 0.713841 0
M  V30 715 O 74.759 1.21146 1.52164 0
M  V30 716 C 75.042 3.38318 -1.2334 0
M  V30 717 C 74.895 3.54622 -2.76701 0
M  V30 718 C 76.214 4.32214 -0.829415 0
M  V30 719 H 73.333 0.683163 -0.27651 0
M  V30 720 H 75.975 1.38424 -1.30149 0
M  V30 721 H 74.125 3.80787 -0.770286 0
M  V30 722 H 75.797 3.21194 -3.31107 0
M  V30 723 H 74.04 2.97026 -3.16161 0
M  V30 724 H 74.711 4.60028 -3.05088 0
M  V30 725 H 77.187 3.97565 -1.22805 0
M  V30 726 H 76.063 5.35838 -1.19033 0
M  V30 727 H 76.324 4.41294 0.266891 0
M  V30 728 N 75.3831 0.828654 1.34056 0
M  V30 729 C 76.3461 0.259927 2.27721 0
M  V30 730 C 77.3461 -0.565478 1.50529 0
M  V30 731 O 78.5361 -0.38075 1.69988 0
M  V30 732 C 75.6681 -0.634944 3.34935 0
M  V30 733 H 76.8611 1.0863 2.79534 0
M  V30 734 H 74.4141 0.600951 1.44285 0
M  V30 735 H 75.1491 -1.48416 2.88346 0
M  V30 736 H 74.9341 -0.0444999 3.92075 0
M  V30 737 H 76.4241 -1.02648 4.04788 0
M  V30 738 N 76.8612 -1.46375 0.584142 0
M  V30 739 C 78.1102 -2.01585 0.0679741 0
M  V30 740 C 78.4232 -1.46109 -1.30045 0
M  V30 741 O 79.6292 -1.93148 -1.90804 0
M  V30 742 C 78.0852 -3.5983 0.0709207 0
M  V30 743 C 77.6932 -4.24303 1.43775 0
M  V30 744 C 79.4372 -4.22693 -0.391228 0
M  V30 745 C 77.3442 -5.74631 1.39834 0
M  V30 746 H 76.2742 -0.753689 0.0216421 0
M  V30 747 H 78.9252 -1.68093 0.736001 0
M  V30 748 H 77.3072 -3.90405 -0.663299 0
M  V30 749 H 78.4812 -4.05335 2.19181 0
M  V30 750 H 76.7962 -3.73539 1.84004 0
M  V30 751 H 79.3932 -5.3289 -0.439524 0
M  V30 752 H 79.7362 -3.91728 -1.40906 0
M  V30 753 H 80.2692 -3.96749 0.288974 0
M  V30 754 H 77.0082 -6.10258 2.39303 0
M  V30 755 H 76.5282 -5.95858 0.686505 0
M  V30 756 H 78.2072 -6.37375 1.11187 0
M  V30 757 N 78.3393 -0.321999 -1.54275 0
M  V30 758 C 79.2863 0.544664 -2.24281 0
M  V30 759 C 80.2563 1.1129 -1.23303 0
M  V30 760 O 81.4413 1.15354 -1.51981 0
M  V30 761 C 78.5813 1.70045 -3.00298 0
M  V30 762 C 77.6943 1.16159 -4.1609 0
M  V30 763 C 76.8293 2.28293 -4.79641 0
M  V30 764 C 75.8683 1.71648 -5.8754 0
M  V30 765 N 75.0053 2.77438 -6.44959 0
M  V30 766 H 79.8453 -0.0588907 -2.97942 0
M  V30 767 H 77.3823 -0.0408345 -1.47043 0
M  V30 768 H 79.3403 2.38054 -3.42616 0
M  V30 769 H 77.9703 2.27531 -2.28975 0
M  V30 770 H 77.0223 0.373092 -3.78566 0
M  V30 771 H 78.3343 0.707087 -4.93763 0
M  V30 772 H 77.4883 3.0421 -5.2492 0
M  V30 773 H 76.2273 2.77079 -4.01346 0
M  V30 774 H 75.2323 0.942282 -5.41665 0
M  V30 775 H 76.4573 1.23741 -6.67731 0
M  V30 776 H 74.4033 3.25519 -5.69538 0
M  V30 777 H 74.3203 2.36547 -7.1804 0
M  V30 778 H 75.5883 3.53189 -6.94894 0
M  V30 779 N 79.8174 1.5752 -0.0501392 0
M  V30 780 C 80.7644 2.1147 0.924603 0
M  V30 781 C 81.7344 1.02182 1.30951 0
M  V30 782 O 82.9194 1.29723 1.39916 0
M  V30 783 C 80.0594 2.66337 2.19451 0
M  V30 784 C 79.1724 3.89708 1.86418 0
M  V30 785 C 78.3074 4.32893 3.07859 0
M  V30 786 C 77.3464 5.48967 2.70742 0
M  V30 787 N 76.4834 5.87211 3.84874 0
M  V30 788 H 81.3234 2.94465 0.457639 0
M  V30 789 H 78.8604 1.45531 0.214266 0
M  V30 790 H 80.8184 2.96247 2.93758 0
M  V30 791 H 79.4484 1.86141 2.63726 0
M  V30 792 H 78.5004 3.66396 1.02264 0
M  V30 793 H 79.8124 4.74074 1.55096 0
M  V30 794 H 78.9664 4.6435 3.90466 0
M  V30 795 H 77.7054 3.47336 3.42358 0
M  V30 796 H 76.7104 5.17183 1.86551 0
M  V30 797 H 77.9354 6.3624 2.37436 0
M  V30 798 H 75.8814 5.04607 4.19175 0
M  V30 799 H 75.7984 6.66266 3.57247 0
M  V30 800 H 77.0664 6.23282 4.68123 0
M  V30 801 N 81.2955 -0.223234 1.56011 0
M  V30 802 C 82.5445 -0.945912 1.78144 0
M  V30 803 C 82.8575 -1.85567 0.618396 0
M  V30 804 O 84.0635 -2.61688 0.723318 0
M  V30 805 C 82.5195 -1.73216 3.15475 0
M  V30 806 C 82.1275 -0.868619 4.39499 0
M  V30 807 C 83.8715 -2.44615 3.46935 0
M  V30 808 C 81.7785 -1.65212 5.67855 0
M  V30 809 H 80.7085 -0.356929 0.664167 0
M  V30 810 H 83.3595 -0.199845 1.82409 0
M  V30 811 H 81.7415 -2.52107 3.05382 0
M  V30 812 H 82.9155 -0.120366 4.60643 0
M  V30 813 H 81.2305 -0.26683 4.15544 0
M  V30 814 H 83.8275 -3.03732 4.40058 0
M  V30 815 H 84.1705 -3.17417 2.69355 0
M  V30 816 H 84.7035 -1.72715 3.58349 0
M  V30 817 H 81.4425 -0.967407 6.48322 0
M  V30 818 H 80.9625 -2.37503 5.50774 0
M  V30 819 H 82.6415 -2.21322 6.07968 0
M  V30 820 N 82.7736 -1.49793 -0.48987 0
M  V30 821 C 83.9986 -1.63836 -1.27172 0
M  V30 822 C 84.4236 -0.31402 -1.8546 0
M  V30 823 O 83.7816 0.719803 -1.66399 0
M  V30 824 C 83.8296 -2.71797 -2.36978 0
M  V30 825 O 82.9336 -2.31744 -3.41128 0
M  V30 826 H 82.2746 -0.547997 -0.37496 0
M  V30 827 H 84.8046 -1.96053 -0.585191 0
M  V30 828 H 84.8146 -2.94305 -2.82575 0
M  V30 829 H 83.4896 -3.67923 -1.93921 0
M  V30 830 H 82.0666 -2.1961 -3.01373 0
M  V30 831 N 84.2517 0.741722 -1.39055 0
M  V30 832 C 85.6627 1.31966 -1.32068 0
M  V30 833 C 86.0137 1.96192 0.0180797 0
M  V30 834 O 85.1387 1.95861 0.920196 0
M  V30 835 C 85.7337 2.39954 -2.39181 0
M  V30 836 C 84.2927 2.93438 -2.35735 0
M  V30 837 C 83.4397 1.66936 -2.21422 0
M  V30 838 H 86.3907 0.539721 -1.4924 0
M  V30 839 H 86.4117 3.20182 -2.05581 0
M  V30 840 H 85.9237 1.9318 -3.36605 0
M  V30 841 H 84.0247 3.4451 -1.41929 0
M  V30 842 H 84.1377 3.4701 -3.30335 0
M  V30 843 H 82.5017 1.91016 -1.68478 0
M  V30 844 H 83.2847 1.22224 -3.20806 0
M  V30 845 N 85.7298 1.2412 0.971189 0
M  V30 846 C 86.9768 1.07881 1.71371 0
M  V30 847 C 87.3048 -0.382901 1.90694 0
M  V30 848 O 86.5598 -1.29945 1.46331 0
M  V30 849 C 86.8588 1.75983 3.11071 0
M  V30 850 C 86.5248 3.25909 3.11599 0
M  V30 851 C 85.1868 3.66813 3.11451 0
M  V30 852 C 87.5388 4.21771 3.062 0
M  V30 853 C 84.8668 5.02021 3.03631 0
M  V30 854 C 87.2188 5.56982 2.99923 0
M  V30 855 C 85.8828 5.97237 2.98102 0
M  V30 856 H 85.1528 0.394764 0.62709 0
M  V30 857 H 87.7998 1.54176 1.13587 0
M  V30 858 H 86.1048 1.22072 3.72298 0
M  V30 859 H 87.8018 1.60887 3.6731 0
M  V30 860 H 84.3918 2.93353 3.12477 0
M  V30 861 H 88.5758 3.91172 3.05447 0
M  V30 862 H 83.8318 5.32411 3.0058 0
M  V30 863 H 88.0058 6.30969 2.94704 0
M  V30 864 H 85.6328 7.01967 2.91798 0
M  V30 865 N 87.2079 -1.17134 1.05439 0
M  V30 866 C 88.1179 -2.24878 0.668365 0
M  V30 867 C 89.1339 -1.71186 -0.311687 0
M  V30 868 O 90.3099 -2.00738 -0.163161 0
M  V30 869 C 87.3749 -3.46662 0.051648 0
M  V30 870 C 86.4359 -4.15429 1.08246 0
M  V30 871 C 85.6689 -5.31399 0.495082 0
M  V30 872 O 85.8919 -5.66153 -0.694743 0
M  V30 873 O 84.8259 -5.89187 1.23056 0
M  V30 874 H 88.6519 -2.60189 1.56637 0
M  V30 875 H 86.2369 -1.24482 0.826104 0
M  V30 876 H 88.1189 -4.20394 -0.290966 0
M  V30 877 H 86.7939 -3.13142 -0.819971 0
M  V30 878 H 85.7009 -3.43704 1.47711 0
M  V30 879 H 87.0339 -4.52982 1.92532 0
M  V30 880 N 88.686 -0.835752 -1.33615 0
M  V30 881 C 89.636 -0.238856 -2.26745 0
M  V30 882 C 90.62 0.604343 -1.49119 0
M  V30 883 O 91.812 0.456822 -1.71003 0
M  V30 884 C 88.941 0.587725 -3.38232 0
M  V30 885 C 88.027 -0.266811 -4.2326 0
M  V30 886 N 88.418 -1.34403 -4.87616 0
M  V30 887 C 86.716 -0.0533131 -4.45968 0
M  V30 888 C 87.417 -1.86819 -5.50884 0
M  V30 889 N 86.393 -1.17013 -5.30857 0
M  V30 890 H 90.195 -1.06266 -2.74016 0
M  V30 891 H 87.709 -0.679881 -1.47483 0
M  V30 892 H 89.706 1.03161 -4.03935 0
M  V30 893 H 88.366 1.40954 -2.9251 0
M  V30 894 H 89.377 -1.7269 -4.88261 0
M  V30 895 H 86.054 0.735312 -4.10974 0
M  V30 896 H 87.444 -2.7701 -6.1214 0
M  V30 897 N 90.1641 1.46063 -0.591896 0
M  V30 898 C 91.0961 2.28539 0.174001 0
M  V30 899 C 92.1091 1.39047 0.846753 0
M  V30 900 O 93.2981 1.63564 0.714774 0
M  V30 901 C 90.3981 3.14347 1.26645 0
M  V30 902 C 89.5711 4.32021 0.683856 0
M  V30 903 C 88.6301 4.99157 1.66518 0
M  V30 904 O 87.6561 5.56458 1.19763 0
M  V30 905 N 88.8581 4.97005 2.99943 0
M  V30 906 H 91.6231 2.94911 -0.533633 0
M  V30 907 H 89.1841 1.56077 -0.430294 0
M  V30 908 H 91.1761 3.56125 1.92242 0
M  V30 909 H 89.7461 2.49988 1.87682 0
M  V30 910 H 88.9661 3.93915 -0.1498 0
M  V30 911 H 90.2541 5.08059 0.274567 0
M  V30 912 H 89.6521 4.51714 3.40545 0
M  V30 913 H 88.2091 5.42696 3.61004 0
M  V30 914 N 91.6422 0.330177 1.54103 0
M  V30 915 C 92.8702 -0.272179 2.05102 0
M  V30 916 C 93.2852 -1.45267 1.20595 0
M  V30 917 O 92.6422 -1.8094 0.238144 0
M  V30 918 C 92.6932 -0.70023 3.54653 0
M  V30 919 O 92.4142 0.433301 4.35952 0
M  V30 920 C 93.9152 -1.3647 4.21771 0
M  V30 921 H 91.1352 -0.0549159 0.668749 0
M  V30 922 H 93.6792 0.478285 1.98828 0
M  V30 923 H 91.8342 -1.40066 3.61193 0
M  V30 924 H 92.2482 0.0947539 5.24414 0
M  V30 925 H 93.7222 -1.61509 5.27843 0
M  V30 926 H 94.1992 -2.31409 3.73292 0
M  V30 927 H 94.8052 -0.706675 4.19388 0
M  V30 928 N 93.1203 -1.57491 0.0584922 0
M  V30 929 C 94.3503 -1.9701 -0.622134 0
M  V30 930 C 94.7583 -0.935034 -1.6448 0
M  V30 931 O 94.1013 0.0882904 -1.83488 0
M  V30 932 C 94.1633 -3.32794 -1.35972 0
M  V30 933 C 93.8273 -4.54343 -0.492043 0
M  V30 934 C 94.8243 -5.19323 0.244901 0
M  V30 935 C 92.5093 -5.00534 -0.420821 0
M  V30 936 C 94.5033 -6.28835 1.04143 0
M  V30 937 C 92.1903 -6.09921 0.379389 0
M  V30 938 C 93.1883 -6.73933 1.10919 0
M  V30 939 O 92.8763 -7.81216 1.89623 0
M  V30 940 H 92.6083 -0.653127 -0.174359 0
M  V30 941 H 95.1623 -2.05029 0.123418 0
M  V30 942 H 93.3923 -3.21351 -2.15105 0
M  V30 943 H 95.0813 -3.5701 -1.93129 0
M  V30 944 H 95.8473 -4.8459 0.19939 0
M  V30 945 H 91.7263 -4.50496 -0.978474 0
M  V30 946 H 95.2703 -6.7873 1.61157 0
M  V30 947 H 91.1673 -6.44089 0.426512 0
M  V30 948 H 91.9353 -7.98029 1.81913 0
M  V30 949 N 94.5984 0.214957 -1.56127 0
M  V30 950 C 95.8384 0.945364 -1.81224 0
M  V30 951 C 96.2024 1.81265 -0.633005 0
M  V30 952 O 97.4034 2.57731 -0.763423 0
M  V30 953 C 95.6744 1.75665 -3.1125 0
M  V30 954 S 97.2334 2.54179 -3.57685 0
M  V30 955 H 94.0514 0.317443 -0.6362 0
M  V30 956 H 96.6534 0.210381 -1.94365 0
M  V30 957 H 95.3574 1.10977 -3.9511 0
M  V30 958 H 94.8884 2.53381 -3.00934 0
M  V30 959 H 96.9034 3.7792 -3.21545 0
M  V30 960 N 96.0765 1.50051 0.48192 0
M  V30 961 C 97.0085 1.64263 1.59844 0
M  V30 962 C 98.0215 0.52451 1.54119 0
M  V30 963 O 99.2105 0.797293 1.59704 0
M  V30 964 C 96.3105 1.60102 2.98698 0
M  V30 965 C 95.4835 2.87767 3.29407 0
M  V30 966 C 94.5425 2.76397 4.47762 0
M  V30 967 O 93.5685 3.50348 4.48603 0
M  V30 968 N 94.7705 1.89222 5.48794 0
M  V30 969 H 97.5355 2.60566 1.48073 0
M  V30 970 H 95.0965 1.47379 0.670149 0
M  V30 971 H 97.0885 1.50123 3.75826 0
M  V30 972 H 95.6585 0.715798 3.04294 0
M  V30 973 H 94.8785 3.11954 2.40994 0
M  V30 974 H 96.1665 3.72365 3.4673 0
M  V30 975 H 95.5645 1.28434 5.50928 0
M  V30 976 H 94.1215 1.85154 6.24949 0
M  V30 977 N 97.5546 -0.734337 1.39446 0
M  V30 978 C 98.9706 -1.03997 1.21065 0
M  V30 979 C 99.1706 -2.01369 0.0727019 0
M  V30 980 O 98.2266 -2.45856 -0.575426 0
M  V30 981 C 99.5396 -1.60163 2.54496 0
M  V30 982 C 101.088 -1.7224 2.61347 0
M  V30 983 C 101.563 -2.31814 3.95002 0
M  V30 984 N 103.054 -2.39223 3.96644 0
M  V30 985 C 103.789 -2.86258 4.96834 0
M  V30 986 N 103.285 -3.33184 6.07421 0
M  V30 987 N 105.078 -2.85473 4.84213 0
M  V30 988 H 97.2286 -0.0885624 2.12215 0
M  V30 989 H 99.4916 -0.10191 0.942506 0
M  V30 990 H 99.1976 -0.960811 3.38321 0
M  V30 991 H 99.0716 -2.5896 2.74262 0
M  V30 992 H 101.459 -2.35443 1.77906 0
M  V30 993 H 101.54 -0.720939 2.4543 0
M  V30 994 H 101.184 -1.69238 4.78875 0
M  V30 995 H 101.114 -3.32638 4.08239 0
M  V30 996 H 103.605 -2.06057 3.16779 0
M  V30 997 H 103.918 -3.67586 6.7978 0
M  V30 998 H 102.263 -3.31191 6.11013 0
M  V30 999 H 105.454 -2.48136 3.96921 0
M  V30 1000 H 105.627 -3.21814 5.62441 0
M  V30 1001 N 99.0327 -1.24633 -0.964593 0
M  V30 1002 C 100.261 -1.11501 -1.74285 0
M  V30 1003 C 100.676 0.332165 -1.85855 0
M  V30 1004 O 100.033 1.22903 -1.34911 0
M  V30 1005 C 100.084 -1.75258 -3.16175 0
M  V30 1006 O 99.8047 -3.14318 -3.05182 0
M  V30 1007 C 101.306 -1.67776 -4.10324 0
M  V30 1008 H 98.5257 -0.389407 -0.546446 0
M  V30 1009 H 101.07 -1.64801 -1.21083 0
M  V30 1010 H 99.2247 -1.25954 -3.66353 0
M  V30 1011 H 99.6387 -3.4551 -3.94618 0
M  V30 1012 H 101.113 -2.17064 -5.0753 0
M  V30 1013 H 101.59 -0.639584 -4.34518 0
M  V30 1014 H 102.196 -2.16522 -3.66058 0
M  V30 1015 N 100.511 1.16574 -1.06058 0
M  V30 1016 C 101.441 2.23057 -0.690488 0
M  V30 1017 C 102.422 1.67141 0.315901 0
M  V30 1018 O 103.607 1.93253 0.191556 0
M  V30 1019 C 100.737 3.47222 -0.073625 0
M  V30 1020 C 99.6908 4.16016 -1.00573 0
M  V30 1021 C 99.0168 5.34104 -0.252289 0
M  V30 1022 C 100.317 4.67264 -2.33371 0
M  V30 1023 H 102.011 2.54271 -1.58072 0
M  V30 1024 H 99.5568 1.22218 -0.76149 0
M  V30 1025 H 101.51 4.20939 0.19714 0
M  V30 1026 H 100.234 3.15302 0.85161 0
M  V30 1027 H 98.8928 3.44223 -1.2612 0
M  V30 1028 H 98.5408 4.98437 0.675988 0
M  V30 1029 H 98.2408 5.81072 -0.873455 0
M  V30 1030 H 99.7648 6.10599 0.0109857 0
M  V30 1031 H 101.179 5.32573 -2.12223 0
M  V30 1032 H 99.5758 5.24843 -2.90963 0
M  V30 1033 H 100.646 3.83602 -2.96611 0
M  V30 1034 N 101.989 0.842826 1.3317 0
M  V30 1035 C 103.405 0.531128 1.50503 0
M  V30 1036 C 103.605 -0.940734 1.78192 0
M  V30 1037 O 102.661 -1.72436 1.84451 0
M  V30 1038 C 103.974 1.40789 2.65705 0
M  V30 1039 C 105.522 1.40708 2.79589 0
M  V30 1040 C 105.997 2.26878 3.97857 0
M  V30 1041 N 107.488 2.24609 4.05099 0
M  V30 1042 C 108.223 2.88019 4.95815 0
M  V30 1043 N 107.719 3.60496 5.9162 0
M  V30 1044 N 109.512 2.77469 4.88843 0
M  V30 1045 H 101.663 1.79557 1.1346 0
M  V30 1046 H 103.926 0.766267 0.558156 0
M  V30 1047 H 103.632 2.454 2.51936 0
M  V30 1048 H 103.506 1.08677 3.61205 0
M  V30 1049 H 105.893 0.368668 2.92788 0
M  V30 1050 H 105.974 1.76829 1.84838 0
M  V30 1051 H 105.618 3.3078 3.85418 0
M  V30 1052 H 105.548 1.88096 4.91861 0
M  V30 1053 H 108.039 1.71906 3.36536 0
M  V30 1054 H 108.352 4.06076 6.57512 0
M  V30 1055 H 106.697 3.64604 5.91683 0
M  V30 1056 H 109.888 2.20406 4.12963 0
M  V30 1057 H 110.061 3.2717 5.59342 0
M  V30 1058 N 103.467 -1.45747 0.599634 0
M  V30 1059 C 104.377 -2.34262 -0.125888 0
M  V30 1060 C 105.393 -1.50768 -0.868625 0
M  V30 1061 O 106.569 -1.83592 -0.828003 0
M  V30 1062 C 103.634 -3.28252 -1.11587 0
M  V30 1063 C 102.695 -4.27651 -0.375956 0
M  V30 1064 C 101.928 -5.1715 -1.31877 0
M  V30 1065 O 102.151 -5.09916 -2.55621 0
M  V30 1066 O 101.085 -5.96286 -0.820157 0
M  V30 1067 H 104.911 -2.97688 0.601315 0
M  V30 1068 H 102.496 -1.44999 0.359934 0
M  V30 1069 H 104.378 -3.86191 -1.68626 0
M  V30 1070 H 103.053 -2.67401 -1.82424 0
M  V30 1071 H 101.96 -3.7335 0.236698 0
M  V30 1072 H 103.293 -4.91334 0.29177 0
M  V30 1073 N 104.945 -0.338344 -1.53925 0
M  V30 1074 C 106.194 0.260732 -2.00008 0
M  V30 1075 C 106.507 1.52073 -1.23017 0
M  V30 1076 O 107.713 2.19672 -1.5955 0
M  V30 1077 C 106.169 0.51515 -3.56194 0
M  V30 1078 C 105.777 -0.728645 -4.42035 0
M  V30 1079 C 107.521 1.07337 -4.10706 0
M  V30 1080 C 105.428 -0.445315 -5.89721 0
M  V30 1081 H 104.358 0.101205 -0.747177 0
M  V30 1082 H 107.009 -0.452866 -1.77824 0
M  V30 1083 H 105.391 1.28932 -3.74423 0
M  V30 1084 H 106.565 -1.50352 -4.35581 0
M  V30 1085 H 104.88 -1.20813 -3.98489 0
M  V30 1086 H 107.477 1.30022 -5.18651 0
M  V30 1087 H 107.82 2.0273 -3.63602 0
M  V30 1088 H 108.353 0.360034 -3.96167 0
M  V30 1089 H 105.092 -1.36883 -6.41049 0
M  V30 1090 H 104.612 0.291569 -5.99091 0
M  V30 1091 H 106.291 -0.0606218 -6.46972 0
M  V30 1092 N 106.423 1.57458 -0.0668435 0
M  V30 1093 C 107.37 2.12439 0.902122 0
M  V30 1094 C 108.34 1.03565 1.2986 0
M  V30 1095 O 109.525 1.312 1.38532 0
M  V30 1096 C 106.665 2.6865 2.16614 0
M  V30 1097 C 105.778 3.91663 1.82274 0
M  V30 1098 C 104.913 4.36134 3.0325 0
M  V30 1099 C 103.952 5.51808 2.64904 0
M  V30 1100 N 103.089 5.9126 3.78624 0
M  V30 1101 H 107.929 2.94934 0.426382 0
M  V30 1102 H 105.466 1.4575 0.198819 0
M  V30 1103 H 107.424 2.99346 2.90599 0
M  V30 1104 H 106.054 1.88928 2.61737 0
M  V30 1105 H 105.106 3.6746 0.983719 0
M  V30 1106 H 106.418 4.75693 1.50059 0
M  V30 1107 H 105.572 4.68465 3.85519 0
M  V30 1108 H 104.311 3.50948 3.38655 0
M  V30 1109 H 103.316 5.19133 1.81055 0
M  V30 1110 H 104.541 6.38722 2.30675 0
M  V30 1111 H 102.487 5.09024 4.138 0
M  V30 1112 H 102.404 6.70018 3.5016 0
M  V30 1113 H 103.672 6.28212 4.61486 0
M  V30 1114 N 107.901 -0.206675 1.56239 0
M  V30 1115 C 109.15 -0.926964 1.79138 0
M  V30 1116 C 109.463 -1.84901 0.638043 0
M  V30 1117 O 110.669 -2.60906 0.751033 0
M  V30 1118 C 109.125 -1.6986 3.17294 0
M  V30 1119 C 108.733 -0.821956 4.40395 0
M  V30 1120 C 110.477 -2.40922 3.4951 0
M  V30 1121 C 108.384 -1.59179 5.69575 0
M  V30 1122 H 107.314 -0.349864 0.667915 0
M  V30 1123 H 109.965 -0.180487 1.8261 0
M  V30 1124 H 108.347 -2.48853 3.08039 0
M  V30 1125 H 109.521 -0.0715019 4.60745 0
M  V30 1126 H 107.836 -0.222741 4.15804 0
M  V30 1127 H 110.433 -2.99047 4.43255 0
M  V30 1128 H 110.776 -3.14542 2.72707 0
M  V30 1129 H 111.309 -1.68905 3.60161 0
M  V30 1130 H 108.048 -0.898589 6.49312 0
M  V30 1131 H 107.568 -2.31648 5.53262 0
M  V30 1132 H 109.247 -2.14862 6.10281 0
M  V30 1133 N 109.379 -1.50304 -0.473955 0
M  V30 1134 C 110.309 -1.71886 -1.58042 0
M  V30 1135 C 111.29 -0.567799 -1.60344 0
M  V30 1136 O 112.475 -0.806623 -1.76656 0
M  V30 1137 C 109.605 -1.81036 -2.96384 0
M  V30 1138 C 108.559 -2.962 -3.08949 0
M  V30 1139 C 107.885 -2.9049 -4.48909 0
M  V30 1140 C 109.185 -4.36752 -2.86434 0
M  V30 1141 H 110.879 -2.64527 -1.40234 0
M  V30 1142 H 108.425 -1.27295 -0.673201 0
M  V30 1143 H 110.378 -1.94719 -3.73714 0
M  V30 1144 H 109.102 -0.850147 -3.15341 0
M  V30 1145 H 107.761 -2.82164 -2.3405 0
M  V30 1146 H 107.409 -1.92321 -4.64781 0
M  V30 1147 H 107.109 -3.67802 -4.58253 0
M  V30 1148 H 108.633 -3.06218 -5.28264 0
M  V30 1149 H 110.047 -4.5133 -3.53517 0
M  V30 1150 H 108.444 -5.15493 -3.07225 0
M  V30 1151 H 109.514 -4.49321 -1.82316 0
M  V30 1152 N 110.857 0.726932 -1.39834 0
M  V30 1153 C 111.787 1.85405 -1.41941 0
M  V30 1154 C 112.768 1.67751 -0.281728 0
M  V30 1155 O 113.953 1.8795 -0.488717 0
M  V30 1156 C 111.083 3.23243 -1.2701 0
M  V30 1157 C 110.037 3.55549 -2.38262 0
M  V30 1158 C 109.363 4.9241 -2.08415 0
M  V30 1159 C 110.663 3.577 -3.80589 0
M  V30 1160 H 112.357 1.83899 -2.36266 0
M  V30 1161 H 109.903 0.883349 -1.13723 0
M  V30 1162 H 111.856 4.01775 -1.27103 0
M  V30 1163 H 110.58 3.25296 -0.291564 0
M  V30 1164 H 109.239 2.79351 -2.37399 0
M  V30 1165 H 108.887 4.91052 -1.0898 0
M  V30 1166 H 108.587 5.14992 -2.82943 0
M  V30 1167 H 110.111 5.73289 -2.10171 0
M  V30 1168 H 111.525 4.26293 -3.83337 0
M  V30 1169 H 109.922 3.91804 -4.54543 0
M  V30 1170 H 110.992 2.57328 -4.10987 0
M  V30 1171 N 112.336 1.25143 0.95797 0
M  V30 1172 C 113.752 1.01892 1.22842 0
M  V30 1173 C 113.952 -0.266311 1.99732 0
M  V30 1174 O 113.008 -0.979913 2.3271 0
M  V30 1175 C 114.321 2.24004 2.00606 0
M  V30 1176 C 115.869 2.28731 2.13662 0
M  V30 1177 C 116.344 3.5049 2.94823 0
M  V30 1178 N 117.835 3.50866 3.02403 0
M  V30 1179 C 118.57 4.4174 3.65586 0
M  V30 1180 N 118.066 5.42882 4.30408 0
M  V30 1181 N 119.859 4.29429 3.62694 0
M  V30 1182 H 112.01 2.07718 0.443493 0
M  V30 1183 H 114.273 0.912031 0.258657 0
M  V30 1184 H 113.979 3.17395 1.51503 0
M  V30 1185 H 113.853 2.26907 3.01319 0
M  V30 1186 H 116.24 1.35865 2.61963 0
M  V30 1187 H 116.321 2.29848 1.12265 0
M  V30 1188 H 115.965 4.43676 2.47213 0
M  V30 1189 H 115.895 3.46617 3.96439 0
M  V30 1190 H 118.386 2.777 2.56302 0
M  V30 1191 H 118.699 6.0844 4.76467 0
M  V30 1192 H 117.044 5.46758 4.29047 0
M  V30 1193 H 120.235 3.49643 3.11236 0
M  V30 1194 H 120.408 5.00448 4.1165 0
M  V30 1195 N 113.814 -1.1601 1.06675 0
M  V30 1196 C 115.061 -1.86633 0.785781 0
M  V30 1197 C 115.389 -1.81929 -0.687896 0
M  V30 1198 O 114.644 -1.23253 -1.52011 0
M  V30 1199 C 114.943 -3.35547 1.23057 0
M  V30 1200 C 114.609 -3.60448 2.70902 0
M  V30 1201 C 113.271 -3.66954 3.11285 0
M  V30 1202 C 115.623 -3.7071 3.66365 0
M  V30 1203 C 112.951 -3.81225 4.45965 0
M  V30 1204 C 115.303 -3.86503 5.00797 0
M  V30 1205 C 113.967 -3.91252 5.40813 0
M  V30 1206 H 113.237 -0.682937 0.287538 0
M  V30 1207 H 115.884 -1.37146 1.33654 0
M  V30 1208 H 114.189 -3.87193 0.59907 0
M  V30 1209 H 115.886 -3.88583 0.990163 0
M  V30 1210 H 112.476 -3.56021 2.38636 0
M  V30 1211 H 116.66 -3.64991 3.36296 0
M  V30 1212 H 111.916 -3.83155 4.76447 0
M  V30 1213 H 116.09 -3.93385 5.74649 0
M  V30 1214 H 113.717 -4.02062 6.45174 0
M  V30 1215 N 115.292 -0.849877 -1.32721 0
M  V30 1216 C 116.708 -0.539102 -1.50219 0
M  V30 1217 C 116.908 0.931271 -1.78689 0
M  V30 1218 O 115.964 1.71455 -1.85363 0
M  V30 1219 C 117.277 -1.42196 -2.64954 0
M  V30 1220 C 118.825 -1.42189 -2.78839 0
M  V30 1221 C 119.3 -2.28985 -3.96648 0
M  V30 1222 N 120.791 -2.26754 -4.03902 0
M  V30 1223 C 121.526 -2.90644 -4.94281 0
M  V30 1224 N 121.022 -3.63629 -5.897 0
M  V30 1225 N 122.815 -2.80057 -4.87365 0
M  V30 1226 H 114.966 -1.80156 -1.12506 0
M  V30 1227 H 117.229 -0.769217 -0.554085 0
M  V30 1228 H 116.935 -2.46733 -2.50631 0
M  V30 1229 H 116.809 -1.10591 -3.60624 0
M  V30 1230 H 119.196 -0.38419 -2.92588 0
M  V30 1231 H 119.277 -1.77807 -1.83898 0
M  V30 1232 H 118.921 -3.32819 -3.83658 0
M  V30 1233 H 118.851 -1.90702 -4.90857 0
M  V30 1234 H 121.342 -1.73688 -3.3562 0
M  V30 1235 H 121.655 -4.09558 -6.55349 0
M  V30 1236 H 120 -3.67737 -5.89741 0
M  V30 1237 H 123.191 -2.22593 -4.11789 0
M  V30 1238 H 123.364 -3.30132 -5.57599 0
M  V30 1239 N 116.77 1.45427 -0.607355 0
M  V30 1240 C 117.72 2.27612 0.133038 0
M  V30 1241 C 118.704 1.37307 0.838785 0
M  V30 1242 O 119.896 1.61299 0.728813 0
M  V30 1243 C 117.025 3.24173 1.12991 0
M  V30 1244 C 116.111 4.21965 0.425011 0
M  V30 1245 N 116.502 5.02982 -0.533217 0
M  V30 1246 C 114.8 4.40899 0.672593 0
M  V30 1247 C 115.501 5.73931 -0.947518 0
M  V30 1248 N 114.477 5.42819 -0.291321 0
M  V30 1249 H 118.279 2.87649 -0.602935 0
M  V30 1250 H 115.793 1.56576 -0.431006 0
M  V30 1251 H 117.79 3.81783 1.67473 0
M  V30 1252 H 116.45 2.65696 1.86644 0
M  V30 1253 H 117.461 5.09843 -0.90995 0
M  V30 1254 H 114.138 3.93547 1.39382 0
M  V30 1255 H 115.528 6.49037 -1.73782 0
M  V30 1256 N 118.248 0.346503 1.53744 0
M  V30 1257 C 119.158 -0.517293 2.28826 0
M  V30 1258 C 120.174 -1.10935 1.3405 0
M  V30 1259 O 121.35 -1.1244 1.6709 0
M  V30 1260 C 118.415 -1.65098 3.04866 0
M  V30 1261 C 117.476 -1.0884 4.15274 0
M  V30 1262 C 116.709 -2.16806 4.87679 0
M  V30 1263 O 116.932 -3.3758 4.59778 0
M  V30 1264 O 115.866 -1.80934 5.74061 0
M  V30 1265 H 119.692 0.0931396 3.03557 0
M  V30 1266 H 117.277 0.111458 1.48984 0
M  V30 1267 H 119.159 -2.31053 3.5241 0
M  V30 1268 H 117.834 -2.24717 2.32989 0
M  V30 1269 H 116.741 -0.3933 3.72027 0
M  V30 1270 H 118.074 -0.537036 4.89261 0
M  V30 1271 N 119.726 -1.57421 0.075193 0
M  V30 1272 C 120.674 -2.14124 -0.908508 0
M  V30 1273 C 121.668 -1.07898 -1.30592 0
M  V30 1274 O 122.874 -1.26273 -1.28277 0
M  V30 1275 H 119.249 -0.684707 -0.310935 0
M  V30 1276 H 121.22 -2.95634 -0.405374 0
M  V30 1277 C 119.969 -2.72044 -2.16535 0
M  V30 1278 H 119.292 -3.53456 -1.86839 0
M  V30 1279 H 120.732 -3.15311 -2.83469 0
M  V30 1280 C 119.191 -1.66968 -2.92615 0
M  V30 1281 O 119.721 -1.0967 -3.86439 0
M  V30 1282 N 117.927 -1.37923 -2.55784 0
M  V30 1283 H 117.474 -1.84706 -1.79559 0
M  V30 1284 H 117.432 -0.67852 -3.06991 0
M  V30 1285 N 121.204 0.198386 -1.56346 0
M  V30 1286 C 122.453 0.917451 -1.79627 0
M  V30 1287 C 122.766 1.8456 -0.64784 0
M  V30 1288 O 123.972 2.60504 -0.764859 0
M  V30 1289 C 122.428 1.68175 -3.18191 0
M  V30 1290 C 122.036 0.798589 -4.40825 0
M  V30 1291 C 123.78 2.39065 -3.50782 0
M  V30 1292 C 121.687 1.56157 -5.70411 0
M  V30 1293 H 120.617 0.346317 -0.669762 0
M  V30 1294 H 123.268 0.170801 -1.82703 0
M  V30 1295 H 121.65 2.47216 -3.09354 0
M  V30 1296 H 122.824 0.0470665 -4.60776 0
M  V30 1297 H 121.139 0.200686 -4.15916 0
M  V30 1298 H 123.736 2.96692 -4.44835 0
M  V30 1299 H 124.079 3.13091 -2.74371 0
M  V30 1300 H 124.612 1.66993 -3.61052 0
M  V30 1301 H 121.351 0.864142 -6.49779 0
M  V30 1302 H 120.871 2.2871 -5.54483 0
M  V30 1303 H 122.55 2.11622 -6.11412 0
M  V30 1304 N 122.682 1.50554 0.465978 0
M  V30 1305 C 123.931 1.61038 1.21448 0
M  V30 1306 C 124.244 0.31865 1.92987 0
M  V30 1307 O 125.45 0.302469 2.6981 0
M  V30 1308 C 123.906 2.84283 2.20706 0
M  V30 1309 C 123.514 4.20352 1.54946 0
M  V30 1310 C 125.258 3.04115 2.96166 0
M  V30 1311 C 123.165 5.34778 2.5252 0
M  V30 1312 H 122.095 0.599718 0.457005 0
M  V30 1313 H 124.746 1.7699 0.484424 0
M  V30 1314 H 123.128 2.61901 2.97025 0
M  V30 1315 H 124.302 4.53008 0.843811 0
M  V30 1316 H 122.617 4.06167 0.917475 0
M  V30 1317 H 125.214 3.86774 3.69202 0
M  V30 1318 H 125.557 2.16045 3.55852 0
M  V30 1319 H 126.09 3.26702 2.26959 0
M  V30 1320 H 122.829 6.25018 1.97566 0
M  V30 1321 H 122.349 5.06534 3.21222 0
M  V30 1322 H 124.028 5.65561 3.14245 0
M  V30 1323 N 124.16 -0.719506 1.40217 0
M  V30 1324 C 125.408 -1.47641 1.3801 0
M  V30 1325 C 125.729 -1.94992 -0.018145 0
M  V30 1326 O 124.999 -1.70073 -0.972207 0
M  V30 1327 H 123.579 -0.547744 0.507923 0
M  V30 1328 H 126.241 -0.853187 1.75233 0
M  V30 1329 H 125.337 -2.35112 2.05253 0
M  V30 1330 N 125.638 -1.25649 -0.95132 0
M  V30 1331 C 126.887 -1.09988 -1.69073 0
M  V30 1332 C 127.2 0.358355 -1.92289 0
M  V30 1333 O 128.406 0.635466 -2.63958 0
M  V30 1334 C 126.862 -1.92012 -3.044 0
M  V30 1335 C 126.47 -3.42347 -2.88968 0
M  V30 1336 C 128.214 -1.8493 -3.82101 0
M  V30 1337 C 126.121 -4.16655 -4.19705 0
M  V30 1338 H 125.051 -0.407993 -0.63408 0
M  V30 1339 H 127.702 -1.49873 -1.05879 0
M  V30 1340 H 126.084 -1.44952 -3.68517 0
M  V30 1341 H 127.258 -3.97104 -2.33762 0
M  V30 1342 H 125.573 -3.50557 -2.24719 0
M  V30 1343 H 128.17 -2.37739 -4.78941 0
M  V30 1344 H 128.513 -0.817883 -4.08187 0
M  V30 1345 H 129.046 -2.29758 -3.2474 0
M  V30 1346 H 125.785 -5.20224 -3.98807 0
M  V30 1347 H 125.305 -3.66681 -4.74663 0
M  V30 1348 H 126.984 -4.24551 -4.88227 0
M  V30 1349 N 127.117 1.15442 -1.07289 0
M  V30 1350 C 128.065 2.22225 -0.686952 0
M  V30 1351 C 129.059 1.66688 0.30193 0
M  V30 1352 O 130.265 1.79236 0.165712 0
M  V30 1353 H 126.64 0.723783 -0.204064 0
M  V30 1354 H 128.611 2.52056 -1.5972 0
M  V30 1355 C 127.36 3.47556 -0.100149 0
M  V30 1356 H 126.683 3.90612 -0.852211 0
M  V30 1357 H 128.123 4.23794 0.132235 0
M  V30 1358 C 126.582 3.16337 1.159 0
M  V30 1359 O 127.112 3.33074 2.24555 0
M  V30 1360 N 125.318 2.70385 1.06491 0
M  V30 1361 H 124.865 2.56966 0.180668 0
M  V30 1362 H 124.823 2.49871 1.90819 0
M  V30 1363 N 128.595 0.856903 1.32268 0
M  V30 1364 C 129.872 0.382583 1.91822 0
M  V30 1365 C 130.252 -1.13407 1.78051 0
M  V30 1366 O 129.6 -1.95673 1.18001 0
M  V30 1367 C 129.81 0.849446 3.38505 0
M  V30 1368 C 131.158 0.867936 4.15634 0
M  V30 1369 O 132.182 0.794232 3.47232 0
M  V30 1370 O 131.041 0.972286 5.37781 0
M  V30 1371 H 128.135 0.112014 0.819379 0
M  V30 1372 H 130.681 0.943952 1.41024 0
M  V30 1373 H 129.453 1.89267 3.42482 0
M  V30 1374 H 129.076 0.265652 3.96712 0
M  V30 1375 N 130.073 -1.45103 0.615059 0
M  V30 1376 C 131.322 -2.01396 0.110718 0
M  V30 1377 C 131.635 -1.48834 -1.26916 0
M  V30 1378 O 132.841 -1.97152 -1.86664 0
M  V30 1379 C 131.297 -3.59599 0.14723 0
M  V30 1380 C 130.905 -4.21158 1.52743 0
M  V30 1381 C 132.649 -4.23428 -0.30148 0
M  V30 1382 C 130.556 -5.71535 1.51992 0
M  V30 1383 H 129.486 -0.753061 0.0376241 0
M  V30 1384 H 132.137 -1.66494 0.77149 0
M  V30 1385 H 130.519 -3.91724 -0.580339 0
M  V30 1386 H 131.693 -4.00594 2.2773 0
M  V30 1387 H 130.008 -3.69552 1.91886 0
M  V30 1388 H 132.605 -5.33703 -0.326392 0
M  V30 1389 H 132.948 -3.94629 -1.32565 0
M  V30 1390 H 133.481 -3.96047 0.373065 0
M  V30 1391 H 130.22 -6.05044 2.52193 0
M  V30 1392 H 129.74 -5.94268 0.81274 0
M  V30 1393 H 131.419 -6.34873 1.24681 0
M  V30 1394 N 131.551 -0.354651 -1.53558 0
M  V30 1395 C 132.8 0.239504 -2.00273 0
M  V30 1396 C 133.113 1.50759 -1.24623 0
M  V30 1397 O 134.319 2.17968 -1.61871 0
M  V30 1398 C 132.775 0.477341 -3.5672 0
M  V30 1399 C 132.383 -0.775488 -4.41237 0
M  V30 1400 C 134.127 1.02975 -4.11821 0
M  V30 1401 C 132.034 -0.507838 -5.89216 0
M  V30 1402 H 130.964 0.0932743 -0.748208 0
M  V30 1403 H 133.615 -0.471701 -1.77334 0
M  V30 1404 H 131.997 1.24953 -3.7577 0
M  V30 1405 H 133.171 -1.54963 -4.33962 0
M  V30 1406 H 131.486 -1.25033 -3.97185 0
M  V30 1407 H 134.083 1.24513 -5.2 0
M  V30 1408 H 134.426 1.98862 -3.65731 0
M  V30 1409 H 134.959 0.317994 -3.96527 0
M  V30 1410 H 131.698 -1.43674 -6.39561 0
M  V30 1411 H 131.218 0.228011 -5.99366 0
M  V30 1412 H 132.897 -0.129238 -6.46871 0
M  V30 1413 N 133.029 1.57378 -0.0835403 0
M  V30 1414 C 134.445 1.57246 0.273109 0
M  V30 1415 C 134.645 1.09385 1.69225 0
M  V30 1416 O 133.701 0.765051 2.40631 0
M  V30 1417 C 135.014 3.00614 0.0720628 0
M  V30 1418 C 136.562 3.12684 0.1407 0
M  V30 1419 C 137.037 4.57989 -0.0322094 0
M  V30 1420 N 138.528 4.63194 0.0230085 0
M  V30 1421 C 139.263 5.73335 -0.0861941 0
M  V30 1422 N 138.759 6.9235 -0.24958 0
M  V30 1423 N 140.552 5.62093 -0.0282886 0
M  V30 1424 H 132.703 1.86801 -1.0109 0
M  V30 1425 H 134.966 0.861687 -0.395222 0
M  V30 1426 H 134.672 3.39786 -0.907662 0
M  V30 1427 H 134.546 3.68193 0.81936 0
M  V30 1428 H 136.933 2.73391 1.11092 0
M  V30 1429 H 137.014 2.47719 -0.637896 0
M  V30 1430 H 136.658 4.97973 -0.999247 0
M  V30 1431 H 136.588 5.21 0.765937 0
M  V30 1432 H 139.079 3.77613 0.14722 0
M  V30 1433 H 139.392 7.72117 -0.324733 0
M  V30 1434 H 137.737 6.94415 -0.285097 0
M  V30 1435 H 140.928 4.67997 0.0981408 0
M  V30 1436 H 141.101 6.47895 -0.116845 0
M  V30 1437 N 134.507 -0.190092 1.56449 0
M  V30 1438 C 135.47 -1.21925 1.9408 0
M  V30 1439 C 136.47 -1.38176 0.822431 0
M  V30 1440 O 137.66 -1.35903 1.08977 0
M  V30 1441 C 134.792 -2.58773 2.21922 0
M  V30 1442 H 135.985 -0.897464 2.86157 0
M  V30 1443 H 133.538 -0.43181 1.50217 0
M  V30 1444 H 134.273 -2.95998 1.32499 0
M  V30 1445 H 134.058 -2.48348 3.03424 0
M  V30 1446 H 135.548 -3.32978 2.52022 0
M  V30 1447 N 135.985 -1.50799 -0.457987 0
M  V30 1448 C 137.396 -1.55152 -1.0385 0
M  V30 1449 C 137.747 -0.362719 -1.92818 0
M  V30 1450 O 136.872 0.522915 -2.09987 0
M  V30 1451 C 137.467 -2.81173 -1.89017 0
M  V30 1452 C 136.026 -2.88164 -2.42154 0
M  V30 1453 C 135.173 -2.49591 -1.20829 0
M  V30 1454 H 138.124 -1.56874 -0.240068 0
M  V30 1455 H 138.145 -2.63769 -2.74238 0
M  V30 1456 H 137.657 -3.67677 -1.24238 0
M  V30 1457 H 135.758 -2.06042 -3.10447 0
M  V30 1458 H 135.871 -3.91356 -2.76364 0
M  V30 1459 H 134.235 -2.02322 -1.54719 0
M  V30 1460 H 135.018 -3.38418 -0.576927 0
M  V30 1461 N 137.463 0.71206 -1.40597 0
M  V30 1462 C 138.691 1.50111 -1.42388 0
M  V30 1463 C 139.106 1.88784 -0.0245395 0
M  V30 1464 O 138.463 1.55681 0.952351 0
M  V30 1465 C 138.514 2.7742 -2.31776 0
M  V30 1466 O 138.235 2.40382 -3.66262 0
M  V30 1467 C 139.736 3.7129 -2.42196 0
M  V30 1468 H 136.956 0.46314 -0.485533 0
M  V30 1469 H 139.5 0.878068 -1.8469 0
M  V30 1470 H 137.655 3.36001 -1.92827 0
M  V30 1471 H 138.069 3.22324 -4.13772 0
M  V30 1472 H 139.543 4.57448 -3.08943 0
M  V30 1473 H 140.02 4.14641 -1.44809 0
M  V30 1474 H 140.626 3.18619 -2.81712 0
M  V30 1475 N 138.941 1.26152 0.944643 0
M  V30 1476 C 140.19 1.10883 1.68487 0
M  V30 1477 C 140.503 -0.348153 1.92477 0
M  V30 1478 O 141.709 -0.621459 2.64292 0
M  V30 1479 C 140.165 1.93624 3.03377 0
M  V30 1480 C 139.773 3.43875 2.87148 0
M  V30 1481 C 141.517 1.86954 3.81115 0
M  V30 1482 C 139.424 4.18875 4.1749 0
M  V30 1483 H 138.354 0.41135 0.631907 0
M  V30 1484 H 141.005 1.50433 1.05082 0
M  V30 1485 H 139.387 1.46904 3.67743 0
M  V30 1486 H 140.561 3.98338 2.31653 0
M  V30 1487 H 138.876 3.51744 2.22856 0
M  V30 1488 H 141.473 2.40275 4.77673 0
M  V30 1489 H 141.816 0.839518 4.07747 0
M  V30 1490 H 142.349 2.31477 3.23517 0
M  V30 1491 H 139.088 5.22332 3.96043 0
M  V30 1492 H 138.608 3.69193 4.72712 0
M  V30 1493 H 140.287 4.27134 4.85968 0
M  V30 1494 N 140.419 -1.14872 1.07899 0
M  V30 1495 C 141.329 -2.2341 0.715915 0
M  V30 1496 C 142.345 -1.71808 -0.275306 0
M  V30 1497 O 143.521 -2.01039 -0.120545 0
M  V30 1498 C 140.586 -3.46474 0.125168 0
M  V30 1499 C 139.647 -4.13039 1.17034 0
M  V30 1500 C 138.88 -5.30229 0.607688 0
M  V30 1501 O 139.103 -5.675 -0.574497 0
M  V30 1502 O 138.037 -5.86444 1.35526 0
M  V30 1503 H 141.863 -2.56808 1.62121 0
M  V30 1504 H 139.448 -1.22702 0.852322 0
M  V30 1505 H 141.33 -4.20917 -0.201729 0
M  V30 1506 H 140.005 -3.14811 -0.753364 0
M  V30 1507 H 138.912 -3.40493 1.54968 0
M  V30 1508 H 140.245 -4.48796 2.02097 0
M  V30 1509 N 141.898 -0.863906 -1.31812 0
M  V30 1510 C 142.83 -0.272485 -2.27575 0
M  V30 1511 C 143.843 0.56104 -1.52827 0
M  V30 1512 O 145.032 0.384021 -1.7432 0
M  V30 1513 C 142.132 0.63283 -3.32939 0
M  V30 1514 C 141.305 -0.166902 -4.37081 0
M  V30 1515 C 140.364 0.665608 -5.21973 0
M  V30 1516 O 139.39 0.0958091 -5.69119 0
M  V30 1517 N 140.592 1.9787 -5.45736 0
M  V30 1518 H 143.357 -1.0954 -2.78964 0
M  V30 1519 H 140.918 -0.724791 -1.4477 0
M  V30 1520 H 142.91 1.19532 -3.86645 0
M  V30 1521 H 141.48 1.35642 -2.81638 0
M  V30 1522 H 140.7 -0.910838 -3.83533 0
M  V30 1523 H 141.988 -0.715874 -5.03739 0
M  V30 1524 H 141.386 2.46484 -5.09178 0
M  V30 1525 H 139.943 2.48911 -6.024 0
M  V30 1526 N 143.376 1.44774 -0.622745 0
M  V30 1527 C 144.309 2.27792 0.136329 0
M  V30 1528 C 145.287 1.38041 0.859264 0
M  V30 1529 O 146.471 1.67478 0.86506 0
M  V30 1530 C 143.598 3.16776 1.19878 0
M  V30 1531 C 142.644 4.22575 0.57731 0
M  V30 1532 S 143.477 5.31825 -0.626294 0
M  V30 1533 C 144.633 6.24377 0.436378 0
M  V30 1534 H 144.866 2.91824 -0.567967 0
M  V30 1535 H 142.399 1.48838 -0.410677 0
M  V30 1536 H 144.357 3.68596 1.80686 0
M  V30 1537 H 143.018 2.5198 1.87523 0
M  V30 1538 H 142.211 4.84818 1.37721 0
M  V30 1539 H 141.813 3.73974 0.0440439 0
M  V30 1540 H 144.105 6.64689 1.31128 0
M  V30 1541 H 145.048 7.07941 -0.150271 0
M  V30 1542 H 145.456 5.59381 0.758513 0
M  V30 1543 N 144.854 0.36279 1.53368 0
M  V30 1544 C 145.801 -0.485008 2.25646 0
M  V30 1545 C 146.771 -1.07982 1.2621 0
M  V30 1546 O 147.956 -1.11284 1.54986 0
M  V30 1547 C 145.096 -1.62023 3.04701 0
M  V30 1548 C 144.209 -1.05086 4.19024 0
M  V30 1549 C 143.344 -2.15496 4.85525 0
M  V30 1550 C 142.383 -1.5601 5.91884 0
M  V30 1551 N 141.52 -2.60241 6.52088 0
M  V30 1552 H 146.36 0.137864 2.97681 0
M  V30 1553 H 143.897 0.0798061 1.46883 0
M  V30 1554 H 145.855 -2.28887 3.48807 0
M  V30 1555 H 144.485 -2.2138 2.34927 0
M  V30 1556 H 143.537 -0.27259 3.79422 0
M  V30 1557 H 144.849 -0.575926 4.95464 0
M  V30 1558 H 144.003 -2.90186 5.32801 0
M  V30 1559 H 142.742 -2.66341 4.08551 0
M  V30 1560 H 141.747 -0.798338 5.43973 0
M  V30 1561 H 142.972 -1.05994 6.70777 0
M  V30 1562 H 140.918 -3.10304 5.77968 0
M  V30 1563 H 140.835 -2.17426 7.24059 0
M  V30 1564 H 142.103 -3.34641 7.04014 0
M  V30 1565 N 146.332 -1.57332 0.0918853 0
M  V30 1566 C 147.609 -1.85691 -0.614668 0
M  V30 1567 C 147.989 -0.988146 -1.86545 0
M  V30 1568 O 147.337 -0.0597055 -2.28422 0
M  V30 1569 C 147.547 -3.36294 -0.933126 0
M  V30 1570 C 148.895 -4.04275 -1.29796 0
M  V30 1571 O 149.919 -3.41157 -1.02424 0
M  V30 1572 O 148.778 -5.1564 -1.81047 0
M  V30 1573 H 145.872 -0.767802 -0.307261 0
M  V30 1574 H 148.418 -1.69244 0.12434 0
M  V30 1575 H 147.19 -3.91273 -0.0456404 0
M  V30 1576 H 146.813 -3.58076 -1.72822 0
M  V30 1577 N 147.81 0.181792 -1.56548 0
M  V30 1578 C 149.056 0.901431 -1.81665 0
M  V30 1579 C 149.389 1.82347 -0.668075 0
M  V30 1580 O 148.664 1.91669 0.330615 0
M  V30 1581 C 148.947 1.70618 -3.17115 0
M  V30 1582 C 148.8 0.807964 -4.42484 0
M  V30 1583 C 150.119 2.67605 -3.49393 0
M  V30 1584 H 147.238 0.32627 -0.660846 0
M  V30 1585 H 149.88 0.168134 -1.89255 0
M  V30 1586 H 148.03 2.33133 -3.10775 0
M  V30 1587 H 149.702 0.19649 -4.60881 0
M  V30 1588 H 147.945 0.115411 -4.33646 0
M  V30 1589 H 148.616 1.40632 -5.33785 0
M  V30 1590 H 151.092 2.15218 -3.56118 0
M  V30 1591 H 149.968 3.20985 -4.45264 0
M  V30 1592 H 150.229 3.47298 -2.73563 0
M  V30 1593 N 149.288 1.51039 0.449983 0
M  V30 1594 C 150.518 1.66627 1.22143 0
M  V30 1595 C 150.926 0.357776 1.85786 0
M  V30 1596 O 150.269 -0.672424 1.70951 0
M  V30 1597 C 150.331 2.71562 2.35573 0
M  V30 1598 C 149.995 4.14526 1.92399 0
M  V30 1599 C 150.992 4.99717 1.43453 0
M  V30 1600 C 148.677 4.60559 2.00475 0
M  V30 1601 C 150.671 6.28998 1.03155 0
M  V30 1602 C 148.358 5.8984 1.59788 0
M  V30 1603 C 149.356 6.73886 1.11208 0
M  V30 1604 O 149.044 8.0075 0.710935 0
M  V30 1605 H 148.776 0.562635 0.374724 0
M  V30 1606 H 151.33 1.98146 0.541036 0
M  V30 1607 H 149.56 2.3533 3.06849 0
M  V30 1608 H 151.249 2.76156 2.97478 0
M  V30 1609 H 152.015 4.65361 1.36618 0
M  V30 1610 H 147.894 3.95273 2.37235 0
M  V30 1611 H 151.438 6.9455 0.651663 0
M  V30 1612 H 147.335 6.23713 1.66289 0
M  V30 1613 H 148.103 8.142 0.837913 0
M  V30 1614 N 150.766 -0.704594 1.40972 0
M  V30 1615 C 152.015 -1.46018 1.39146 0
M  V30 1616 C 152.328 -1.956 0.000589254 0
M  V30 1617 O 153.534 -2.71137 -0.1403 0
M  V30 1618 C 151.99 -2.63996 2.4461 0
M  V30 1619 C 151.598 -2.21238 3.89561 0
M  V30 1620 C 153.342 -3.41677 2.51907 0
M  V30 1621 C 151.249 -3.3612 4.86598 0
M  V30 1622 H 150.179 -0.548444 0.517422 0
M  V30 1623 H 152.83 -0.765784 1.66757 0
M  V30 1624 H 151.212 -3.3566 2.10115 0
M  V30 1625 H 152.386 -1.56923 4.33257 0
M  V30 1626 H 150.701 -1.56574 3.85841 0
M  V30 1627 H 153.298 -4.27182 3.2159 0
M  V30 1628 H 153.641 -3.86247 1.55303 0
M  V30 1629 H 154.174 -2.77064 2.85448 0
M  V30 1630 H 150.913 -2.96572 5.84573 0
M  V30 1631 H 150.433 -3.99315 4.47557 0
M  V30 1632 H 152.112 -4.02029 5.06934 0
M  V30 1633 N 152.244 -1.26651 -0.937939 0
M  V30 1634 C 153.49 -1.12553 -1.687 0
M  V30 1635 C 153.823 0.329782 -1.91379 0
M  V30 1636 O 153.098 1.24202 -1.4968 0
M  V30 1637 C 153.381 -1.89862 -3.05981 0
M  V30 1638 C 153.234 -3.43318 -2.90607 0
M  V30 1639 C 154.553 -1.69499 -4.0615 0
M  V30 1640 H 151.672 -0.410257 -0.612257 0
M  V30 1641 H 154.314 -1.55685 -1.08913 0
M  V30 1642 H 152.464 -1.53204 -3.57017 0
M  V30 1643 H 154.136 -3.89747 -2.46769 0
M  V30 1644 H 152.379 -3.70179 -2.26164 0
M  V30 1645 H 153.05 -3.92642 -3.8799 0
M  V30 1646 H 155.526 -2.01442 -3.64088 0
M  V30 1647 H 154.402 -2.26002 -5.00214 0
M  V30 1648 H 154.663 -0.640365 -4.37438 0
M  V30 1649 N 153.722 1.14298 -1.08507 0
M  V30 1650 C 154.654 2.1907 -0.673859 0
M  V30 1651 C 155.667 1.60381 0.279577 0
M  V30 1652 O 156.856 1.78374 0.0670754 0
M  V30 1653 C 153.956 3.38888 0.0290979 0
M  V30 1654 C 153.129 4.27103 -0.943494 0
M  V30 1655 C 152.188 5.25477 -0.275676 0
M  V30 1656 O 151.214 5.61709 -0.920401 0
M  V30 1657 N 152.416 5.7227 0.974013 0
M  V30 1658 H 155.181 2.54965 -1.57521 0
M  V30 1659 H 152.742 1.29528 -0.971287 0
M  V30 1660 H 154.734 4.01761 0.48683 0
M  V30 1661 H 153.304 3.01309 0.832555 0
M  V30 1662 H 152.524 3.61149 -1.58004 0
M  V30 1663 H 153.812 4.82905 -1.60251 0
M  V30 1664 H 153.21 5.44965 1.51755 0
M  V30 1665 H 151.767 6.37127 1.37522 0
M  V30 1666 N 155.201 0.870884 1.31352 0
M  V30 1667 C 156.478 0.402907 1.91405 0
M  V30 1668 C 156.858 -1.11512 1.79244 0
M  V30 1669 O 156.206 -1.94411 1.2007 0
M  V30 1670 C 156.416 0.885301 3.37585 0
M  V30 1671 C 157.764 0.911971 4.14691 0
M  V30 1672 O 158.788 0.831016 3.46371 0
M  V30 1673 O 157.647 1.02927 5.3672 0
M  V30 1674 H 154.741 0.120698 0.818145 0
M  V30 1675 H 157.287 0.958857 1.40014 0
M  V30 1676 H 156.059 1.92889 3.40455 0
M  V30 1677 H 155.682 0.307714 3.96407 0
M  V30 1678 N 156.679 -1.44442 0.630414 0
M  V30 1679 C 157.609 -2.33418 -0.0618083 0
M  V30 1680 C 158.59 -1.48165 -0.835541 0
M  V30 1681 O 159.775 -1.76886 -0.801564 0
M  V30 1682 C 156.905 -3.31222 -1.04449 0
M  V30 1683 C 155.859 -4.26288 -0.382436 0
M  V30 1684 C 155.185 -5.13954 -1.47497 0
M  V30 1685 C 156.485 -5.1744 0.710865 0
M  V30 1686 H 158.179 -2.91548 0.681184 0
M  V30 1687 H 155.725 -1.40191 0.329026 0
M  V30 1688 H 157.678 -3.92351 -1.53748 0
M  V30 1689 H 156.402 -2.71299 -1.81836 0
M  V30 1690 H 155.061 -3.6649 0.0899054 0
M  V30 1691 H 154.709 -4.50385 -2.2397 0
M  V30 1692 H 154.409 -5.7837 -1.03737 0
M  V30 1693 H 155.933 -5.77955 -1.96979 0
M  V30 1694 H 157.347 -5.72509 0.300996 0
M  V30 1695 H 155.744 -5.90455 1.07156 0
M  V30 1696 H 156.814 -4.58496 1.57829 0
M  V30 1697 N 158.157 -0.370918 -1.53173 0
M  V30 1698 C 159.09 0.516727 -2.22273 0
M  V30 1699 C 160.068 1.07877 -1.21661 0
M  V30 1700 O 161.252 1.13389 -1.50583 0
M  V30 1701 C 158.379 1.71346 -2.92161 0
M  V30 1702 C 157.425 1.27838 -4.0689 0
M  V30 1703 S 158.258 0.275217 -5.34792 0
M  V30 1704 C 159.414 1.47816 -6.08195 0
M  V30 1705 H 159.647 -0.0701054 -2.97217 0
M  V30 1706 H 157.18 -0.155038 -1.5362 0
M  V30 1707 H 159.138 2.39988 -3.3304 0
M  V30 1708 H 157.799 2.27156 -2.16931 0
M  V30 1709 H 156.992 2.17141 -4.54825 0
M  V30 1710 H 156.594 0.671105 -3.6793 0
M  V30 1711 H 158.886 2.40831 -6.33251 0
M  V30 1712 H 159.829 1.04008 -7.0042 0
M  V30 1713 H 160.237 1.68663 -5.38714 0
M  V30 1714 N 159.635 1.57281 -0.100228 0
M  V30 1715 C 160.545 2.17833 0.870965 0
M  V30 1716 C 161.561 1.14921 1.30649 0
M  V30 1717 O 162.737 1.47313 1.37335 0
M  V30 1718 C 159.802 2.75085 2.1102 0
M  V30 1719 C 158.863 3.9297 1.72838 0
M  V30 1720 C 158.096 4.47482 2.90854 0
M  V30 1721 O 158.319 4.00922 4.05731 0
M  V30 1722 O 157.253 5.38433 2.69023 0
M  V30 1723 H 161.079 3.0124 0.38575 0
M  V30 1724 H 158.664 1.48881 0.124397 0
M  V30 1725 H 160.546 3.11656 2.83634 0
M  V30 1726 H 159.221 1.94721 2.58584 0
M  V30 1727 H 158.128 3.61201 0.973883 0
M  V30 1728 H 159.461 4.74713 1.30033 0
M  V30 1729 N 161.113 -0.173488 1.56642 0
M  V30 1730 C 162.341 -0.906095 1.86004 0
M  V30 1731 C 162.756 -1.75921 0.685355 0
M  V30 1732 O 162.113 -1.79198 -0.345578 0
M  V30 1733 C 162.164 -1.78462 3.14378 0
M  V30 1734 O 161.885 -0.965914 4.27319 0
M  V30 1735 C 163.386 -2.62707 3.57071 0
M  V30 1736 H 160.606 -0.263341 0.617165 0
M  V30 1737 H 163.15 -0.174236 2.03756 0
M  V30 1738 H 161.305 -2.46984 2.98459 0
M  V30 1739 H 161.719 -1.56655 5.00559 0
M  V30 1740 H 163.193 -3.19969 4.49804 0
M  V30 1741 H 163.67 -3.37472 2.81086 0
M  V30 1742 H 164.276 -1.99521 3.75595 0
M  V30 1743 N 162.591 -1.51276 -0.441967 0
M  V30 1744 C 163.868 -1.54252 -1.20273 0
M  V30 1745 C 164.248 -0.30408 -2.08898 0
M  V30 1746 O 163.596 0.711084 -2.17154 0
M  V30 1747 C 163.806 -2.85406 -2.00859 0
M  V30 1748 C 165.154 -3.37181 -2.58059 0
M  V30 1749 O 166.178 -2.86925 -2.11074 0
M  V30 1750 O 165.037 -4.24858 -3.43741 0
M  V30 1751 H 162.131 -0.619969 -0.547328 0
M  V30 1752 H 164.677 -1.63586 -0.451413 0
M  V30 1753 H 163.449 -3.67003 -1.35736 0
M  V30 1754 H 163.072 -2.79213 -2.83065 0
M  V30 1755 N 164.069 0.697108 -1.41344 0
M  V30 1756 C 164.999 1.82353 -1.45841 0
M  V30 1757 C 165.98 1.67115 -0.317247 0
M  V30 1758 O 167.165 1.86871 -0.528474 0
M  V30 1759 C 164.295 3.20476 -1.33838 0
M  V30 1760 C 163.249 3.50415 -2.4575 0
M  V30 1761 C 162.575 4.87878 -2.18813 0
M  V30 1762 C 163.875 3.49546 -3.88091 0
M  V30 1763 H 165.569 1.78846 -2.40113 0
M  V30 1764 H 163.115 0.859028 -1.15571 0
M  V30 1765 H 165.068 3.98988 -1.35596 0
M  V30 1766 H 163.792 3.24604 -0.360498 0
M  V30 1767 H 162.451 2.74253 -2.43271 0
M  V30 1768 H 162.099 4.8863 -1.19371 0
M  V30 1769 H 161.799 5.08875 -2.93803 0
M  V30 1770 H 163.323 5.68702 -2.22284 0
M  V30 1771 H 164.737 4.18066 -3.92293 0
M  V30 1772 H 163.134 3.82075 -4.62751 0
M  V30 1773 H 164.204 2.48552 -4.16353 0
M  V30 1774 N 165.547 1.27147 0.931209 0
M  V30 1775 C 166.777 1.15914 1.71019 0
M  V30 1776 C 167.185 -0.287112 1.87009 0
M  V30 1777 O 166.528 -1.20761 1.38429 0
M  V30 1778 C 166.59 1.76647 3.13107 0
M  V30 1779 C 166.254 3.25807 3.20467 0
M  V30 1780 C 167.251 4.22489 3.02983 0
M  V30 1781 C 164.936 3.66452 3.43538 0
M  V30 1782 C 166.93 5.57794 3.08454 0
M  V30 1783 C 164.617 5.01888 3.48643 0
M  V30 1784 C 165.615 5.97369 3.31119 0
M  V30 1785 O 165.303 7.30337 3.35952 0
M  V30 1786 H 165.035 0.404062 0.54195 0
M  V30 1787 H 167.589 1.68457 1.17521 0
M  V30 1788 H 165.819 1.18578 3.68071 0
M  V30 1789 H 167.508 1.60179 3.72958 0
M  V30 1790 H 168.274 3.92425 2.85004 0
M  V30 1791 H 164.153 2.92611 3.5623 0
M  V30 1792 H 167.697 6.32298 2.94694 0
M  V30 1793 H 163.594 5.31609 3.66145 0
M  V30 1794 H 164.362 7.38739 3.5243 0
M  V30 1795 N 167.025 -1.13721 1.09112 0
M  V30 1796 C 167.972 -2.19031 0.727591 0
M  V30 1797 C 168.942 -1.63555 -0.289656 0
M  V30 1798 O 170.127 -1.90023 -0.172026 0
M  V30 1799 C 167.267 -3.4477 0.15082 0
M  V30 1800 C 166.38 -4.14365 1.22172 0
M  V30 1801 C 165.515 -5.27709 0.608042 0
M  V30 1802 C 164.554 -5.89147 1.66047 0
M  V30 1803 N 163.691 -6.93929 1.06806 0
M  V30 1804 H 168.531 -2.49475 1.62991 0
M  V30 1805 H 166.068 -1.22499 0.81439 0
M  V30 1806 H 168.026 -4.16714 -0.201358 0
M  V30 1807 H 166.656 -3.14787 -0.714783 0
M  V30 1808 H 165.708 -3.40737 1.69122 0
M  V30 1809 H 167.02 -4.56114 2.01895 0
M  V30 1810 H 166.174 -6.06355 0.204523 0
M  V30 1811 H 164.913 -4.872 -0.220769 0
M  V30 1812 H 163.918 -5.09198 2.07357 0
M  V30 1813 H 165.143 -6.31729 2.49189 0
M  V30 1814 H 163.089 -6.55483 0.260476 0
M  V30 1815 H 163.006 -7.34202 1.8023 0
M  V30 1816 H 164.274 -7.76434 0.690644 0
M  V30 1817 N 168.503 -0.877838 -1.30888 0
M  V30 1818 C 169.433 -0.35534 -2.3078 0
M  V30 1819 C 170.414 0.557994 -1.60687 0
M  V30 1820 O 171.599 0.473355 -1.88343 0
M  V30 1821 C 168.729 0.437221 -3.44537 0
M  V30 1822 C 167.683 -0.383715 -4.26276 0
M  V30 1823 C 167.009 0.535014 -5.32017 0
M  V30 1824 C 168.309 -1.62201 -4.96476 0
M  V30 1825 H 170.003 -1.19007 -2.74732 0
M  V30 1826 H 167.549 -0.573698 -1.32078 0
M  V30 1827 H 169.502 0.813334 -4.13477 0
M  V30 1828 H 168.226 1.30553 -2.99372 0
M  V30 1829 H 166.885 -0.741874 -3.59015 0
M  V30 1830 H 166.533 1.40083 -4.831 0
M  V30 1831 H 166.233 -0.0104211 -5.87599 0
M  V30 1832 H 167.757 0.907799 -6.03814 0
M  V30 1833 H 169.171 -1.31689 -5.5797 0
M  V30 1834 H 167.568 -2.10711 -5.61891 0
M  V30 1835 H 168.638 -2.37044 -4.23011 0
M  V30 1836 N 169.982 1.44106 -0.638065 0
M  V30 1837 C 170.912 2.33448 0.0494287 0
M  V30 1838 C 171.893 1.48606 0.827672 0
M  V30 1839 O 173.078 1.77308 0.792173 0
M  V30 1840 C 170.208 3.31771 1.02691 0
M  V30 1841 C 169.162 4.26485 0.359823 0
M  V30 1842 C 168.488 5.14729 1.44769 0
M  V30 1843 C 169.788 5.17056 -0.738296 0
M  V30 1844 H 171.482 2.91183 -0.696636 0
M  V30 1845 H 169.028 1.40014 -0.336456 0
M  V30 1846 H 170.981 3.93161 1.51666 0
M  V30 1847 H 169.705 2.7226 1.80395 0
M  V30 1848 H 168.364 3.66437 -0.10934 0
M  V30 1849 H 168.012 4.51566 2.21578 0
M  V30 1850 H 167.712 5.78913 1.00668 0
M  V30 1851 H 169.236 5.78991 1.93911 0
M  V30 1852 H 170.65 5.72342 -0.331354 0
M  V30 1853 H 169.047 5.89879 -1.10286 0
M  V30 1854 H 170.117 4.57652 -1.60258 0
M  V30 1855 N 171.46 0.379036 1.52974 0
M  V30 1856 C 172.407 -0.461048 2.26148 0
M  V30 1857 C 173.377 -1.06637 1.27349 0
M  V30 1858 O 174.562 -1.09633 1.56157 0
M  V30 1859 C 171.702 -1.58782 3.06402 0
M  V30 1860 C 170.815 -1.00636 4.20115 0
M  V30 1861 C 169.95 -2.10334 4.87784 0
M  V30 1862 C 168.989 -1.49724 5.93506 0
M  V30 1863 N 168.126 -2.5331 6.54812 0
M  V30 1864 H 172.966 0.169429 2.97518 0
M  V30 1865 H 170.503 0.0953806 1.4679 0
M  V30 1866 H 172.461 -2.25174 3.51215 0
M  V30 1867 H 171.091 -2.18876 2.37261 0
M  V30 1868 H 170.143 -0.232332 3.7969 0
M  V30 1869 H 171.455 -0.523343 4.96047 0
M  V30 1870 H 170.609 -2.84519 5.35849 0
M  V30 1871 H 169.348 -2.61992 4.11353 0
M  V30 1872 H 168.353 -0.740598 5.44789 0
M  V30 1873 H 169.578 -0.988732 6.71864 0
M  V30 1874 H 167.524 -3.04156 5.81227 0
M  V30 1875 H 167.441 -2.09734 7.26325 0
M  V30 1876 H 168.709 -3.27155 7.07524 0
M  V30 1877 N 172.938 -1.57226 0.108567 0
M  V30 1878 C 174.166 -1.99179 -0.559954 0
M  V30 1879 C 174.581 -0.988022 -1.60884 0
M  V30 1880 O 173.938 0.0205512 -1.82488 0
M  V30 1881 C 173.989 -3.41159 -1.19552 0
M  V30 1882 O 173.71 -4.37694 -0.188577 0
M  V30 1883 C 175.211 -3.98188 -1.94837 0
M  V30 1884 H 172.431 -0.654228 -0.149088 0
M  V30 1885 H 174.975 -2.03598 0.19183 0
M  V30 1886 H 173.13 -3.37711 -1.89815 0
M  V30 1887 H 173.544 -5.20469 -0.649014 0
M  V30 1888 H 175.018 -4.99644 -2.34648 0
M  V30 1889 H 175.495 -3.3675 -2.81951 0
M  V30 1890 H 176.101 -4.0515 -1.2936 0
M  V30 1891 N 174.416 0.165178 -1.56732 0
M  V30 1892 C 175.348 1.22911 -1.93457 0
M  V30 1893 C 176.361 1.40152 -0.828333 0
M  V30 1894 O 177.55 1.40046 -1.10677 0
M  V30 1895 C 174.65 2.59686 -2.17753 0
M  V30 1896 C 173.823 2.63663 -3.48999 0
M  V30 1897 C 172.882 3.81845 -3.62051 0
M  V30 1898 O 171.908 3.67559 -4.34613 0
M  V30 1899 N 173.11 4.98557 -2.97357 0
M  V30 1900 H 175.875 0.917118 -2.85323 0
M  V30 1901 H 173.436 0.354895 -1.57962 0
M  V30 1902 H 175.428 3.37225 -2.23743 0
M  V30 1903 H 173.998 2.83251 -1.32242 0
M  V30 1904 H 173.218 1.72173 -3.54612 0
M  V30 1905 H 174.506 2.63336 -4.35352 0
M  V30 1906 H 173.904 5.13065 -2.38287 0
M  V30 1907 H 172.461 5.73936 -3.08934 0
M  V30 1908 N 175.894 1.51508 0.433938 0
M  V30 1909 C 176.844 1.69451 1.52546 0
M  V30 1910 C 177.828 0.548474 1.51263 0
M  V30 1911 O 179.02 0.804529 1.57659 0
M  V30 1912 C 176.149 1.82604 2.90707 0
M  V30 1913 C 175.235 3.03002 2.96733 0
M  V30 1914 N 175.626 4.26121 2.72496 0
M  V30 1915 C 173.924 3.02327 3.27894 0
M  V30 1916 C 174.625 5.07407 2.84452 0
M  V30 1917 N 173.601 4.42126 3.16269 0
M  V30 1918 H 177.403 2.62305 1.32564 0
M  V30 1919 H 174.917 1.49202 0.641297 0
M  V30 1920 H 176.914 1.93569 3.69238 0
M  V30 1921 H 175.574 0.909339 3.11707 0
M  V30 1922 H 176.585 4.55009 2.4736 0
M  V30 1923 H 173.262 2.20301 3.54646 0
M  V30 1924 H 174.652 6.15422 2.69639 0
M  V30 1925 N 177.372 -0.689602 1.41712 0
M  V30 1926 C 178.302 -1.81577 1.46806 0
M  V30 1927 C 179.283 -1.66945 0.326105 0
M  V30 1928 O 180.468 -1.86588 0.538377 0
M  V30 1929 C 177.598 -3.19762 1.35535 0
M  V30 1930 C 176.552 -3.49107 2.47605 0
M  V30 1931 C 175.878 -4.86711 2.21397 0
M  V30 1932 C 177.178 -3.47483 3.89939 0
M  V30 1933 H 178.872 -1.7757 2.41058 0
M  V30 1934 H 176.418 -0.852887 1.16025 0
M  V30 1935 H 178.371 -3.98263 1.3771 0
M  V30 1936 H 177.095 -3.24409 0.377708 0
M  V30 1937 H 175.754 -2.72959 2.44722 0
M  V30 1938 H 175.402 -4.8799 1.21961 0
M  V30 1939 H 175.102 -5.0731 2.96497 0
M  V30 1940 H 176.626 -5.67515 2.25297 0
M  V30 1941 H 178.04 -4.1598 3.94505 0
M  V30 1942 H 176.437 -3.79615 4.64771 0
M  V30 1943 H 177.507 -2.46341 4.17665 0
M  V30 1944 N 178.85 -1.27639 -0.924453 0
M  V30 1945 C 180.075 -1.17101 -1.71179 0
M  V30 1946 C 180.5 0.268134 -1.86179 0
M  V30 1947 O 179.858 1.19415 -1.36418 0
M  V30 1948 C 179.906 -1.86313 -3.08739 0
M  V30 1949 O 179.01 -1.16331 -3.95652 0
M  V30 1950 H 178.351 -0.407091 -0.524569 0
M  V30 1951 H 180.881 -1.68767 -1.15666 0
M  V30 1952 H 180.891 -1.938 -3.59034 0
M  V30 1953 H 179.566 -2.91001 -2.97138 0
M  V30 1954 H 178.143 -1.16935 -3.54091 0
M  V30 1955 N 180.328 1.1314 -1.09713 0
M  V30 1956 C 181.276 2.20717 -0.733934 0
M  V30 1957 C 182.27 1.6729 0.266506 0
M  V30 1958 O 183.476 1.79547 0.127656 0
M  V30 1959 H 179.851 0.719292 -0.21937 0
M  V30 1960 H 181.822 2.48611 -1.6503 0
M  V30 1961 C 180.571 3.47265 -0.173849 0
M  V30 1962 H 179.894 3.88716 -0.934873 0
M  V30 1963 H 181.334 4.23979 0.0423126 0
M  V30 1964 C 179.793 3.18724 1.09164 0
M  V30 1965 O 180.323 3.37762 2.17439 0
M  V30 1966 N 178.529 2.72583 1.00732 0
M  V30 1967 H 178.076 2.57291 0.126121 0
M  V30 1968 H 178.034 2.53862 1.85476 0
M  V30 1969 N 181.806 0.884767 1.30421 0
M  V30 1970 C 183.083 0.423185 1.90967 0
M  V30 1971 C 183.463 -1.09605 1.80416 0
M  V30 1972 O 182.811 -1.93126 1.22125 0
M  V30 1973 C 183.021 0.921056 3.36627 0
M  V30 1974 C 184.369 0.955903 4.137 0
M  V30 1975 O 185.393 0.867706 3.4547 0
M  V30 1976 O 184.252 1.08614 5.35598 0
M  V30 1977 H 181.346 0.129369 0.816819 0
M  V30 1978 H 183.892 0.973653 1.3899 0
M  V30 1979 H 182.664 1.96489 3.3839 0
M  V30 1980 H 182.287 0.349741 3.96059 0
M  V30 1981 N 183.284 -1.43765 0.645699 0
M  V30 1982 C 184.234 -2.27884 -0.0726442 0
M  V30 1983 C 185.218 -1.39483 -0.802086 0
M  V30 1984 O 186.41 -1.63174 -0.685791 0
M  V30 1985 C 183.539 -3.27055 -1.04356 0
M  V30 1986 C 182.625 -4.22944 -0.312985 0
M  V30 1987 N 183.016 -5.01391 0.666386 0
M  V30 1988 C 181.314 -4.42528 -0.55546 0
M  V30 1989 C 182.015 -5.71217 1.09935 0
M  V30 1990 N 180.991 -5.41856 0.435137 0
M  V30 1991 H 184.793 -2.85949 0.678988 0
M  V30 1992 H 182.307 -1.55378 0.472368 0
M  V30 1993 H 184.304 -3.86089 -1.57292 0
M  V30 1994 H 182.964 -2.70551 -1.79534 0
M  V30 1995 H 183.975 -5.07252 1.04481 0
M  V30 1996 H 180.652 -3.97104 -1.28899 0
M  V30 1997 H 182.042 -6.44202 1.90929 0
M  V30 1998 N 184.763 -0.387143 -1.52771 0
M  V30 1999 C 186.012 0.19697 -2.00736 0
M  V30 2000 C 186.325 1.48082 -1.27793 0
M  V30 2001 O 187.531 2.14485 -1.66458 0
M  V30 2002 C 185.987 0.401568 -3.57653 0
M  V30 2003 C 185.595 -0.868907 -4.39493 0
M  V30 2004 C 187.339 0.942164 -4.13912 0
M  V30 2005 C 185.246 -0.632705 -5.88006 0
M  V30 2006 H 184.176 0.0773827 -0.750019 0
M  V30 2007 H 186.827 -0.50921 -1.76293 0
M  V30 2008 H 185.209 1.16954 -3.78335 0
M  V30 2009 H 186.383 -1.64133 -4.30577 0
M  V30 2010 H 184.698 -1.33429 -3.94443 0
M  V30 2011 H 187.295 1.13455 -5.22525 0
M  V30 2012 H 187.638 1.9106 -3.69867 0
M  V30 2013 H 188.171 0.233814 -3.97112 0
M  V30 2014 H 184.91 -1.57208 -6.36369 0
M  V30 2015 H 184.43 0.100825 -5.99715 0
M  V30 2016 H 186.109 -0.26642 -6.46451 0
M  V30 2017 N 186.241 1.57166 -0.116904 0
M  V30 2018 C 187.481 1.97008 0.544715 0
M  V30 2019 C 187.845 0.998713 1.63981 0
M  V30 2020 O 189.046 1.28644 2.36018 0
M  V30 2021 C 187.317 3.41145 1.06559 0
M  V30 2022 S 188.876 4.02998 1.73603 0
M  V30 2023 H 185.694 0.688587 0.177112 0
M  V30 2024 H 188.296 1.94459 -0.201487 0
M  V30 2025 H 187 4.09592 0.257374 0
M  V30 2026 H 186.531 3.4734 1.84712 0
M  V30 2027 H 188.546 3.93585 3.02168 0
M  V30 2028 N 187.719 -0.156864 1.56817 0
M  V30 2029 C 188.949 -0.885031 1.86684 0
M  V30 2030 C 189.357 -1.75696 0.701954 0
M  V30 2031 O 188.7 -1.80569 -0.337732 0
M  V30 2032 C 188.762 -1.80092 3.11138 0
M  V30 2033 C 188.426 -1.10714 4.43386 0
M  V30 2034 C 189.423 -0.465714 5.1781 0
M  V30 2035 C 187.108 -1.09959 4.90117 0
M  V30 2036 C 189.102 0.174002 6.37162 0
M  V30 2037 C 186.789 -0.456055 6.09396 0
M  V30 2038 C 187.787 0.179622 6.82764 0
M  V30 2039 O 187.475 0.812975 7.99779 0
M  V30 2040 H 187.207 -0.261813 0.623242 0
M  V30 2041 H 189.761 -0.157383 2.04796 0
M  V30 2042 H 187.991 -2.56926 2.89009 0
M  V30 2043 H 189.68 -2.40018 3.27332 0
M  V30 2044 H 190.446 -0.463427 4.82781 0
M  V30 2045 H 186.325 -1.58378 4.3294 0
M  V30 2046 H 189.869 0.670765 6.94368 0
M  V30 2047 H 185.766 -0.455975 6.43888 0
M  V30 2048 H 186.534 0.71366 8.15383 0
M  V30 2049 N 189.197 -1.51736 -0.425897 0
M  V30 2050 C 190.444 -1.6497 -1.17436 0
M  V30 2051 C 190.772 -0.371445 -1.9092 0
M  V30 2052 O 190.027 0.644963 -1.84767 0
M  V30 2053 C 190.326 -2.81103 -2.20717 0
M  V30 2054 C 189.992 -4.19954 -1.64162 0
M  V30 2055 C 188.654 -4.57725 -1.48462 0
M  V30 2056 C 191.006 -5.06552 -1.22696 0
M  V30 2057 C 188.334 -5.79789 -0.897873 0
M  V30 2058 C 190.686 -6.29205 -0.654464 0
M  V30 2059 C 189.35 -6.6574 -0.484456 0
M  V30 2060 H 188.62 -0.603668 -0.429727 0
M  V30 2061 H 191.267 -1.85798 -0.463829 0
M  V30 2062 H 189.572 -2.54542 -2.97852 0
M  V30 2063 H 191.269 -2.8854 -2.78471 0
M  V30 2064 H 187.859 -3.90181 -1.77361 0
M  V30 2065 H 192.043 -4.77968 -1.33642 0
M  V30 2066 H 187.299 -6.06733 -0.75402 0
M  V30 2067 H 191.473 -6.95643 -0.324694 0
M  V30 2068 H 189.1 -7.60195 -0.0276833 0
M  V30 2069 N 190.675 0.682077 -1.42076 0
M  V30 2070 C 191.605 1.80796 -1.47767 0
M  V30 2071 C 192.586 1.6677 -0.334954 0
M  V30 2072 O 193.771 1.863 -0.548264 0
M  V30 2073 C 190.901 3.19038 -1.37229 0
M  V30 2074 C 189.855 3.47789 -2.49453 0
M  V30 2075 C 189.181 4.8553 -2.23975 0
M  V30 2076 C 190.481 3.45411 -3.91776 0
M  V30 2077 H 192.175 1.7629 -2.41997 0
M  V30 2078 H 189.721 0.846721 -1.16476 0
M  V30 2079 H 191.674 3.97528 -1.39821 0
M  V30 2080 H 190.398 3.24204 -0.394907 0
M  V30 2081 H 189.057 2.71657 -2.46166 0
M  V30 2082 H 188.705 4.87337 -1.24547 0
M  V30 2083 H 188.405 5.0573 -2.99184 0
M  V30 2084 H 189.929 5.66312 -2.28304 0
M  V30 2085 H 191.343 4.13882 -3.96705 0
M  V30 2086 H 189.74 3.77145 -4.66778 0
M  V30 2087 H 190.81 2.44122 -4.18966 0
M  V30 2088 N 192.153 1.28127 0.917671 0
M  V30 2089 C 193.383 1.17722 1.6978 0
M  V30 2090 C 193.791 -0.267261 1.87303 0
M  V30 2091 O 193.134 -1.19286 1.39702 0
M  V30 2092 C 193.196 1.79958 3.11216 0
M  V30 2093 C 192.86 3.29187 3.16993 0
M  V30 2094 C 193.857 4.25679 2.98485 0
M  V30 2095 C 191.542 3.70075 3.39632 0
M  V30 2096 C 193.536 5.61035 3.02521 0
M  V30 2097 C 191.223 5.05557 3.433 0
M  V30 2098 C 192.221 6.00847 3.24764 0
M  V30 2099 O 191.909 7.33859 3.28187 0
M  V30 2100 H 191.641 0.409788 0.537634 0
M  V30 2101 H 194.195 1.69694 1.15728 0
M  V30 2102 H 192.425 1.22475 3.66793 0
M  V30 2103 H 194.114 1.64125 3.71238 0
M  V30 2104 H 194.88 3.95426 2.80826 0
M  V30 2105 H 190.759 2.96373 3.53106 0
M  V30 2106 H 194.303 6.35388 2.87971 0
M  V30 2107 H 190.2 5.35462 3.60486 0
M  V30 2108 H 190.968 7.42436 3.44575 0
M  V30 2109 N 193.631 -1.12557 1.10312 0
M  V30 2110 C 194.563 -2.17971 0.708625 0
M  V30 2111 C 195.576 -1.60806 -0.254027 0
M  V30 2112 O 196.765 -1.78458 -0.0386891 0
M  V30 2113 C 193.865 -3.38891 0.0248198 0
M  V30 2114 C 193.038 -4.25548 1.01132 0
M  V30 2115 C 192.097 -5.24972 0.35924 0
M  V30 2116 O 191.123 -5.60174 1.00965 0
M  V30 2117 N 192.325 -5.73747 -0.882847 0
M  V30 2118 H 195.09 -2.52427 1.61557 0
M  V30 2119 H 192.651 -1.27967 0.991771 0
M  V30 2120 H 194.643 -4.02485 -0.422852 0
M  V30 2121 H 193.213 -3.02596 -0.784514 0
M  V30 2122 H 192.433 -3.58589 1.6373 0
M  V30 2123 H 193.721 -4.80294 1.67914 0
M  V30 2124 H 193.119 -5.4731 -1.43065 0
M  V30 2125 H 191.676 -6.39234 -1.27369 0
M  V30 2126 N 195.109 -0.891671 -1.2995 0
M  V30 2127 C 196.358 -0.509521 -1.95158 0
M  V30 2128 C 196.671 0.947388 -1.71125 0
M  V30 2129 O 197.877 1.43669 -2.30372 0
M  V30 2130 C 196.333 -0.860315 -3.49466 0
M  V30 2131 C 195.941 -2.33545 -3.8231 0
M  V30 2132 C 197.685 -0.547687 -4.20952 0
M  V30 2133 C 195.592 -2.62752 -5.29826 0
M  V30 2134 H 194.522 -0.18682 -0.730489 0
M  V30 2135 H 197.173 -1.08756 -1.47798 0
M  V30 2136 H 195.555 -0.211285 -3.95436 0
M  V30 2137 H 196.729 -3.02936 -3.47227 0
M  V30 2138 H 195.044 -2.61629 -3.23944 0
M  V30 2139 H 197.641 -0.742854 -5.29515 0
M  V30 2140 H 197.984 0.51332 -4.13123 0
M  V30 2141 H 198.517 -1.1542 -3.80688 0
M  V30 2142 H 195.256 -3.6762 -5.42712 0
M  V30 2143 H 194.776 -1.97977 -5.66185 0
M  V30 2144 H 196.455 -2.48601 -5.97333 0
M  V30 2145 N 196.587 1.43421 -0.653314 0
M  V30 2146 C 197.517 2.33487 0.0246656 0
M  V30 2147 C 198.498 1.49475 0.811863 0
M  V30 2148 O 199.683 1.78139 0.773322 0
M  V30 2149 C 196.813 3.32841 0.99166 0
M  V30 2150 C 195.767 4.26842 0.314568 0
M  V30 2151 C 195.093 5.16236 1.39302 0
M  V30 2152 C 196.393 5.16243 -0.793095 0
M  V30 2153 H 198.087 2.90427 -0.727481 0
M  V30 2154 H 195.633 1.39649 -0.351287 0
M  V30 2155 H 197.586 3.94747 1.47487 0
M  V30 2156 H 196.31 2.74158 1.77497 0
M  V30 2157 H 194.969 3.663 -0.148199 0
M  V30 2158 H 194.617 4.53891 2.16776 0
M  V30 2159 H 194.317 5.79948 0.945223 0
M  V30 2160 H 195.841 5.81015 1.87759 0
M  V30 2161 H 197.255 5.71958 -0.392039 0
M  V30 2162 H 195.652 5.88676 -1.16536 0
M  V30 2163 H 196.722 4.55927 -1.65103 0
M  V30 2164 N 198.065 0.39524 1.52563 0
M  V30 2165 C 199.481 0.0454682 1.59535 0
M  V30 2166 C 199.681 -1.44056 1.4089 0
M  V30 2167 O 198.737 -2.20579 1.22888 0
M  V30 2168 C 200.05 0.527963 2.96029 0
M  V30 2169 C 201.598 0.484733 3.09224 0
M  V30 2170 C 202.073 0.943512 4.48176 0
M  V30 2171 N 203.564 0.899765 4.54377 0
M  V30 2172 C 204.299 1.22609 5.60138 0
M  V30 2173 N 203.795 1.62319 6.73516 0
M  V30 2174 N 205.588 1.14696 5.50274 0
M  V30 2175 H 197.739 1.36261 1.62931 0
M  V30 2176 H 200.002 0.558887 0.765735 0
M  V30 2177 H 199.708 1.56607 3.14908 0
M  V30 2178 H 199.582 -0.0698056 3.77135 0
M  V30 2179 H 201.969 -0.544298 2.90037 0
M  V30 2180 H 202.05 1.11838 2.30056 0
M  V30 2181 H 201.694 1.9708 4.68104 0
M  V30 2182 H 201.624 0.286817 5.25818 0
M  V30 2183 H 204.115 0.607632 3.72983 0
M  V30 2184 H 204.428 1.85567 7.5019 0
M  V30 2185 H 202.773 1.66211 6.74833 0
M  V30 2186 H 205.964 0.835701 4.6058 0
M  V30 2187 H 206.137 1.40459 6.32594 0
M  V30 2188 N 199.544 -1.57102 0.125237 0
M  V30 2189 C 200.792 -1.95021 -0.530198 0
M  V30 2190 C 201.113 -1.00982 -1.66816 0
M  V30 2191 O 200.383 -0.0672693 -1.95784 0
M  V30 2192 H 198.963 -0.720046 -0.198853 0
M  V30 2193 H 201.625 -1.93916 0.19564 0
M  V30 2194 H 200.721 -2.98211 -0.920681 0
M  V30 2195 N 201.022 0.148545 -1.56898 0
M  V30 2196 C 201.952 1.18524 -2.01182 0
M  V30 2197 C 202.933 1.4489 -0.891123 0
M  V30 2198 O 204.118 1.55836 -1.15882 0
M  V30 2199 C 201.248 2.51879 -2.39112 0
M  V30 2200 C 200.202 2.40038 -3.54353 0
M  V30 2201 C 199.528 3.78089 -3.78091 0
M  V30 2202 C 200.828 1.88577 -4.87069 0
M  V30 2203 H 202.522 0.817029 -2.88036 0
M  V30 2204 H 200.068 0.391575 -1.38574 0
M  V30 2205 H 202.021 3.24627 -2.68692 0
M  V30 2206 H 200.745 2.90532 -1.49193 0
M  V30 2207 H 199.404 1.69742 -3.24936 0
M  V30 2208 H 199.052 4.14175 -2.85426 0
M  V30 2209 H 198.752 3.71028 -4.55645 0
M  V30 2210 H 200.276 4.52387 -4.10095 0
M  V30 2211 H 201.69 2.51117 -5.15377 0
M  V30 2212 H 200.087 1.9241 -5.68417 0
M  V30 2213 H 201.157 0.84136 -4.77545 0
M  V30 2214 N 202.5 1.5196 0.417844 0
M  V30 2215 C 203.447 1.74678 1.50852 0
M  V30 2216 C 204.417 0.588947 1.55308 0
M  V30 2217 O 205.602 0.825544 1.72016 0
M  V30 2218 C 202.742 1.89544 2.88387 0
M  V30 2219 C 201.855 3.17166 2.93309 0
M  V30 2220 C 200.99 3.22513 4.22088 0
M  V30 2221 C 200.029 4.44372 4.20951 0
M  V30 2222 N 199.166 4.47161 5.41287 0
M  V30 2223 H 204.006 2.67768 1.30783 0
M  V30 2224 H 201.543 1.32689 0.63498 0
M  V30 2225 H 203.501 1.96146 3.68216 0
M  V30 2226 H 202.131 0.998424 3.06971 0
M  V30 2227 H 201.183 3.19778 2.06024 0
M  V30 2228 H 202.495 4.07021 2.88332 0
M  V30 2229 H 201.649 3.28139 5.10303 0
M  V30 2230 H 200.388 2.30581 4.29748 0
M  V30 2231 H 199.393 4.38902 3.31127 0
M  V30 2232 H 200.618 5.3759 4.14938 0
M  V30 2233 H 198.564 3.58108 5.49632 0
M  V30 2234 H 198.481 5.3085 5.3827 0
M  V30 2235 H 199.749 4.57005 6.3148 0
M  V30 2236 N 203.978 -0.674533 1.42435 0
M  V30 2237 C 205.208 -1.46071 1.46105 0
M  V30 2238 C 205.616 -1.89067 0.0709605 0
M  V30 2239 O 204.959 -1.58731 -0.924677 0
M  V30 2240 C 205.021 -2.74145 2.32561 0
M  V30 2241 C 204.685 -2.53224 3.8043 0
M  V30 2242 C 205.682 -2.17809 4.72075 0
M  V30 2243 C 203.367 -2.6821 4.24698 0
M  V30 2244 C 205.361 -1.97648 6.05982 0
M  V30 2245 C 203.048 -2.47665 5.58664 0
M  V30 2246 C 204.046 -2.12437 6.49122 0
M  V30 2247 O 203.734 -1.9209 7.80613 0
M  V30 2248 H 203.466 -0.455959 0.499076 0
M  V30 2249 H 206.02 -0.836193 1.87609 0
M  V30 2250 H 204.25 -3.3908 1.85908 0
M  V30 2251 H 205.939 -3.36028 2.27683 0
M  V30 2252 H 206.705 -2.05826 4.39159 0
M  V30 2253 H 202.584 -2.94609 3.54579 0
M  V30 2254 H 206.128 -1.70075 6.7655 0
M  V30 2255 H 202.025 -2.59244 5.91154 0
M  V30 2256 H 202.793 -2.06686 7.91974 0
M  V30 2257 N 205.456 -1.28612 -0.910864 0
M  V30 2258 C 206.705 -1.15311 -1.65488 0
M  V30 2259 C 207.018 0.296999 -1.93332 0
M  V30 2260 O 208.224 0.551168 -2.65847 0
M  V30 2261 C 206.68 -2.01599 -2.98137 0
M  V30 2262 C 206.288 -3.51367 -2.7793 0
M  V30 2263 C 208.032 -1.96993 -3.76024 0
M  V30 2264 C 205.939 -4.29797 -4.06237 0
M  V30 2265 H 204.869 -0.42796 -0.620779 0
M  V30 2266 H 207.52 -1.53166 -1.01057 0
M  V30 2267 H 205.902 -1.56603 -3.63719 0
M  V30 2268 H 207.076 -4.0434 -2.21011 0
M  V30 2269 H 205.391 -3.57529 -2.13452 0
M  V30 2270 H 207.988 -2.52856 -4.71135 0
M  V30 2271 H 208.331 -0.94733 -4.05378 0
M  V30 2272 H 208.864 -2.39973 -3.17266 0
M  V30 2273 H 205.603 -5.32648 -3.82055 0
M  V30 2274 H 205.123 -3.81596 -4.62757 0
M  V30 2275 H 206.802 -4.39869 -4.74473 0
M  V30 2276 N 206.934 1.1197 -1.10907 0
M  V30 2277 C 207.884 2.15946 -0.731538 0
M  V30 2278 C 208.868 1.58758 0.261699 0
M  V30 2279 O 210.06 1.76863 0.0696722 0
M  V30 2280 C 207.189 3.42877 -0.170299 0
M  V30 2281 C 206.275 4.07037 -1.19087 0
M  V30 2282 N 206.666 4.46135 -2.38322 0
M  V30 2283 C 204.964 4.33884 -1.03252 0
M  V30 2284 C 205.665 4.96331 -3.03366 0
M  V30 2285 N 204.641 4.9214 -2.30865 0
M  V30 2286 H 208.443 2.43947 -1.63912 0
M  V30 2287 H 205.957 1.28927 -0.987505 0
M  V30 2288 H 207.954 4.16732 0.118271 0
M  V30 2289 H 206.614 3.16343 0.731935 0
M  V30 2290 H 207.625 4.38345 -2.75815 0
M  V30 2291 H 204.302 4.17084 -0.186256 0
M  V30 2292 H 205.692 5.36257 -4.04818 0
M  V30 2293 N 208.412 0.89855 1.29475 0
M  V30 2294 C 209.637 0.538561 2.00285 0
M  V30 2295 C 210.062 -0.869135 1.66816 0
M  V30 2296 O 209.42 -1.57831 0.892145 0
M  V30 2297 C 209.468 0.736475 3.52999 0
M  V30 2298 O 208.572 -0.211537 4.11857 0
M  V30 2299 H 207.913 0.210563 0.62973 0
M  V30 2300 H 210.443 1.20982 1.64998 0
M  V30 2301 H 210.453 0.640685 4.02938 0
M  V30 2302 H 209.128 1.76276 3.76696 0
M  V30 2303 H 207.705 -0.0682991 3.72837 0
M  V30 2304 N 209.89 -1.43072 0.660911 0
M  V30 2305 C 210.853 -2.29194 -0.0166406 0
M  V30 2306 C 211.853 -1.42609 -0.742912 0
M  V30 2307 O 213.043 -1.64155 -0.583004 0
M  V30 2308 C 210.175 -3.24831 -1.0343 0
M  V30 2309 H 211.368 -2.90596 0.741208 0
M  V30 2310 H 208.921 -1.5048 0.422532 0
M  V30 2311 H 209.656 -2.68339 -1.82111 0
M  V30 2312 H 209.441 -3.88676 -0.517082 0
M  V30 2313 H 210.931 -3.89451 -1.50723 0
M  V30 2314 N 211.368 -0.403325 -1.52352 0
M  V30 2315 C 212.316 0.439752 -2.28405 0
M  V30 2316 C 213.31 1.05089 -1.32863 0
M  V30 2317 O 214.516 0.989759 -1.50345 0
M  V30 2318 H 210.891 0.160587 -0.734653 0
M  V30 2319 H 212.862 -0.222983 -2.97566 0
M  V30 2320 C 211.611 1.54736 -3.11371 0
M  V30 2321 H 210.934 1.08643 -3.84755 0
M  V30 2322 H 212.374 2.1112 -3.67701 0
M  V30 2323 C 210.833 2.51141 -2.24566 0
M  V30 2324 O 211.363 3.54887 -1.88196 0
M  V30 2325 N 209.569 2.21213 -1.8845 0
M  V30 2326 H 209.116 1.36878 -2.18225 0
M  V30 2327 H 209.074 2.85963 -1.30662 0
M  V30 2328 N 212.846 1.57033 -0.133567 0
M  V30 2329 C 214.092 1.95976 0.521649 0
M  V30 2330 C 214.425 1.01779 1.65393 0
M  V30 2331 O 213.7 0.0576581 1.94415 0
M  V30 2332 C 213.983 3.44738 1.04057 0
M  V30 2333 C 213.836 4.49711 -0.0892897 0
M  V30 2334 C 215.155 3.95682 1.92675 0
M  V30 2335 H 212.274 0.712579 0.188149 0
M  V30 2336 H 214.916 1.88813 -0.212076 0
M  V30 2337 H 213.066 3.50973 1.66583 0
M  V30 2338 H 214.738 4.55565 -0.725152 0
M  V30 2339 H 212.981 4.27261 -0.750378 0
M  V30 2340 H 213.652 5.51099 0.315284 0
M  V30 2341 H 216.128 3.91841 1.39998 0
M  V30 2342 H 215.004 5.00262 2.25897 0
M  V30 2343 H 215.265 3.37239 2.85872 0
M  V30 2344 N 214.325 -0.140222 1.56975 0
M  V30 2345 C 215.255 -1.17456 2.01808 0
M  V30 2346 C 216.236 -1.44415 0.898794 0
M  V30 2347 O 217.421 -1.5522 1.16707 0
M  V30 2348 C 214.551 -2.50607 2.40444 0
M  V30 2349 C 213.505 -2.38155 3.55621 0
M  V30 2350 C 212.831 -3.76078 3.80091 0
M  V30 2351 C 214.131 -1.85991 4.88062 0
M  V30 2352 H 215.825 -0.801743 2.88466 0
M  V30 2353 H 213.371 -0.38422 1.38779 0
M  V30 2354 H 215.324 -3.23197 2.7041 0
M  V30 2355 H 214.048 -2.89737 1.50732 0
M  V30 2356 H 212.707 -1.68016 3.25832 0
M  V30 2357 H 212.355 -4.12656 2.87618 0
M  V30 2358 H 212.055 -3.68606 4.57606 0
M  V30 2359 H 213.579 -4.50206 4.12488 0
M  V30 2360 H 214.993 -2.4838 5.16701 0
M  V30 2361 H 213.39 -1.89393 5.6943 0
M  V30 2362 H 214.46 -0.816023 4.77984 0
M  V30 2363 N 215.803 -1.52179 -0.40978 0
M  V30 2364 C 216.753 -1.71857 -1.49831 0
M  V30 2365 C 217.737 -0.572469 -1.50372 0
M  V30 2366 O 218.929 -0.829509 -1.56359 0
M  V30 2367 C 216.058 -1.87206 -2.87765 0
M  V30 2368 C 215.144 -3.07685 -2.91875 0
M  V30 2369 N 215.535 -4.30403 -2.65683 0
M  V30 2370 C 213.833 -3.07505 -3.23043 0
M  V30 2371 C 214.534 -5.11868 -2.76344 0
M  V30 2372 N 213.51 -4.47101 -3.09195 0
M  V30 2373 H 217.312 -2.64381 -1.28375 0
M  V30 2374 H 214.826 -1.50203 -0.617479 0
M  V30 2375 H 216.823 -1.99419 -3.66111 0
M  V30 2376 H 215.483 -0.958814 -3.10221 0
M  V30 2377 H 216.494 -4.58887 -2.4009 0
M  V30 2378 H 213.171 -2.25915 -3.51096 0
M  V30 2379 H 214.561 -6.19634 -2.59814 0
M  V30 2380 N 217.281 0.66697 -1.42791 0
M  V30 2381 C 218.697 0.981027 -1.25889 0
M  V30 2382 C 218.897 2.00793 -0.168695 0
M  V30 2383 O 217.953 2.48321 0.45747 0
M  V30 2384 C 219.266 1.47838 -2.61848 0
M  V30 2385 C 220.814 1.59575 -2.69267 0
M  V30 2386 C 221.289 2.12704 -4.05612 0
M  V30 2387 N 222.78 2.20026 -4.07606 0
M  V30 2388 C 223.515 2.62227 -5.09926 0
M  V30 2389 N 223.011 3.03824 -6.22626 0
M  V30 2390 N 224.804 2.62045 -4.97281 0
M  V30 2391 H 216.955 -0.0127891 -2.12396 0
M  V30 2392 H 219.218 0.0568258 -0.946295 0
M  V30 2393 H 218.924 0.798299 -3.4252 0
M  V30 2394 H 218.798 2.45579 -2.86305 0
M  V30 2395 H 221.185 2.26687 -1.88936 0
M  V30 2396 H 221.266 0.60302 -2.48591 0
M  V30 2397 H 220.91 1.46198 -4.86404 0
M  V30 2398 H 220.84 3.12782 -4.23645 0
M  V30 2399 H 223.331 1.90708 -3.2625 0
M  V30 2400 H 223.644 3.34734 -6.96544 0
M  V30 2401 H 221.989 3.01662 -6.26119 0
M  V30 2402 H 225.18 2.28916 -4.08308 0
M  V30 2403 H 225.353 2.94613 -5.77154 0
M  V30 2404 N 218.759 1.29093 0.90403 0
M  V30 2405 C 220.036 1.075 1.63411 0
M  V30 2406 C 220.416 -0.382346 2.07609 0
M  V30 2407 O 219.764 -1.37031 1.82851 0
M  V30 2408 C 219.974 2.05858 2.81822 0
M  V30 2409 C 221.322 2.36539 3.52611 0
M  V30 2410 O 222.346 2.04019 2.91984 0
M  V30 2411 O 221.205 2.92085 4.61897 0
M  V30 2412 H 218.299 0.411547 0.717327 0
M  V30 2413 H 220.845 1.40449 0.952479 0
M  V30 2414 H 219.617 3.04037 2.46327 0
M  V30 2415 H 219.24 1.73613 3.57693 0
M  V30 2416 N 220.237 -1.11381 1.11499 0
M  V30 2417 C 221.167 -2.19509 0.796125 0
M  V30 2418 C 222.148 -1.68458 -0.235796 0
M  V30 2419 O 223.333 -1.93947 -0.0991344 0
M  V30 2420 C 220.463 -3.46475 0.239205 0
M  V30 2421 C 219.417 -4.10744 1.20307 0
M  V30 2422 C 218.743 -5.32293 0.50683 0
M  V30 2423 C 220.043 -4.55597 2.55399 0
M  V30 2424 H 221.737 -2.46439 1.70024 0
M  V30 2425 H 219.283 -1.18446 0.818935 0
M  V30 2426 H 221.236 -4.214 0.00392006 0
M  V30 2427 H 219.96 -3.19006 -0.700206 0
M  V30 2428 H 218.619 -3.37813 1.42399 0
M  V30 2429 H 218.267 -5.01095 -0.437408 0
M  V30 2430 H 217.967 -5.76243 1.1497 0
M  V30 2431 H 219.491 -6.09956 0.280351 0
M  V30 2432 H 220.905 -5.21841 2.37391 0
M  V30 2433 H 219.302 -5.10363 3.15673 0
M  V30 2434 H 220.372 -3.69013 3.14575 0
M  V30 2435 N 221.715 -0.905404 -1.28997 0
M  V30 2436 C 222.662 -0.385892 -2.27551 0
M  V30 2437 C 223.632 0.535113 -1.57244 0
M  V30 2438 O 224.817 0.459119 -1.85194 0
M  V30 2439 C 221.957 0.375461 -3.43051 0
M  V30 2440 C 221.07 -0.577092 -4.28128 0
M  V30 2441 C 220.205 0.201879 -5.30816 0
M  V30 2442 C 219.244 -0.744829 -6.07551 0
M  V30 2443 N 218.381 9.42587e-05 -7.021 0
M  V30 2444 H 223.221 -1.23139 -2.71368 0
M  V30 2445 H 220.758 -0.618542 -1.33463 0
M  V30 2446 H 222.716 0.832992 -4.088 0
M  V30 2447 H 221.346 1.18537 -3.00248 0
M  V30 2448 H 220.398 -1.15315 -3.62501 0
M  V30 2449 H 221.71 -1.30152 -4.8152 0
M  V30 2450 H 220.864 0.720351 -6.02408 0
M  V30 2451 H 219.603 0.959413 -4.7817 0
M  V30 2452 H 218.608 -1.27475 -5.34818 0
M  V30 2453 H 219.833 -1.50178 -6.62286 0
M  V30 2454 H 217.779 0.739791 -6.51815 0
M  V30 2455 H 217.696 -0.664321 -7.53076 0
M  V30 2456 H 218.964 0.498644 -7.77903 0
M  V30 2457 N 223.193 1.4272 -0.668489 0
M  V30 2458 C 224.604 1.84793 -0.266151 0
M  V30 2459 C 224.955 1.55959 1.19043 0
M  V30 2460 O 224.08 1.01622 1.91055 0
M  V30 2461 C 224.675 3.35436 -0.476271 0
M  V30 2462 C 223.234 3.76182 -0.128113 0
M  V30 2463 C 222.381 2.66344 -0.771777 0
M  V30 2464 H 225.332 1.32656 -0.871098 0
M  V30 2465 H 225.353 3.79515 0.273561 0
M  V30 2466 H 224.865 3.5639 -1.53647 0
M  V30 2467 H 222.966 3.60836 0.928891 0
M  V30 2468 H 223.079 4.75766 -0.564231 0
M  V30 2469 H 221.443 2.53885 -0.203652 0
M  V30 2470 H 222.226 2.90123 -1.83531 0
M  V30 2471 N 224.671 0.411399 1.52136 0
M  V30 2472 C 225.896 -0.165538 2.06738 0
M  V30 2473 C 226.321 -1.379 1.27926 0
M  V30 2474 O 225.679 -1.78628 0.310114 0
M  V30 2475 C 225.727 -0.492124 3.57226 0
M  V30 2476 O 224.831 -1.58276 3.80818 0
M  V30 2477 H 224.172 -0.0132132 0.663869 0
M  V30 2478 H 226.702 0.585253 1.96051 0
M  V30 2479 H 226.712 -0.750104 4.01045 0
M  V30 2480 H 225.387 0.394922 4.14021 0
M  V30 2481 H 223.964 -1.31677 3.48877 0
M  V30 2482 N 226.149 -1.5696 0.141893 0
M  V30 2483 C 227.097 -2.17784 -0.816874 0
M  V30 2484 C 228.091 -1.1334 -1.25899 0
M  V30 2485 O 229.297 -1.316 -1.22806 0
M  V30 2486 H 225.672 -0.697278 -0.281615 0
M  V30 2487 H 227.643 -2.97087 -0.279621 0
M  V30 2488 C 226.392 -2.80983 -2.04802 0
M  V30 2489 H 225.715 -3.61062 -1.7168 0
M  V30 2490 H 227.155 -3.2705 -2.69841 0
M  V30 2491 C 225.614 -1.79228 -2.8527 0
M  V30 2492 O 226.144 -1.25962 -3.8144 0
M  V30 2493 N 224.35 -1.48647 -2.49704 0
M  V30 2494 H 223.897 -1.92155 -1.71564 0
M  V30 2495 H 223.855 -0.808115 -3.03837 0
M  V30 2496 N 227.627 0.131896 -1.57047 0
M  V30 2497 C 228.557 1.16384 -2.02428 0
M  V30 2498 C 229.538 1.43936 -0.90644 0
M  V30 2499 O 230.723 1.54599 -1.17528 0
M  V30 2500 C 227.853 2.49328 -2.4177 0
M  V30 2501 C 226.807 2.36266 -3.56879 0
M  V30 2502 C 226.133 3.74057 -3.8208 0
M  V30 2503 C 227.433 1.834 -4.89042 0
M  V30 2504 H 229.127 0.786433 -2.88887 0
M  V30 2505 H 226.673 0.376855 -1.38981 0
M  V30 2506 H 228.626 3.21759 -2.7212 0
M  V30 2507 H 227.35 2.88934 -1.52266 0
M  V30 2508 H 226.009 1.66286 -3.26718 0
M  V30 2509 H 225.657 4.11125 -2.89803 0
M  V30 2510 H 225.357 3.66174 -4.59554 0
M  V30 2511 H 226.881 4.48012 -4.1487 0
M  V30 2512 H 228.295 2.45636 -5.18011 0
M  V30 2513 H 226.692 1.8637 -5.70426 0
M  V30 2514 H 227.762 0.790662 -4.7841 0
M  V30 2515 N 229.106 1.52395 0.401703 0
M  V30 2516 C 230.036 1.79231 1.49661 0
M  V30 2517 C 231.017 0.643654 1.57452 0
M  V30 2518 O 232.202 0.889989 1.72606 0
M  V30 2519 C 229.332 1.94971 2.87409 0
M  V30 2520 C 228.286 3.10604 2.94465 0
M  V30 2521 C 227.612 3.11577 4.34538 0
M  V30 2522 C 228.912 4.49921 2.6527 0
M  V30 2523 H 230.606 2.70917 1.27454 0
M  V30 2524 H 228.152 1.30362 0.6117 0
M  V30 2525 H 230.105 2.12328 3.63999 0
M  V30 2526 H 228.829 0.999632 3.10926 0
M  V30 2527 H 227.488 2.93009 2.20321 0
M  V30 2528 H 227.136 2.14277 4.55076 0
M  V30 2529 H 226.836 3.89247 4.40183 0
M  V30 2530 H 228.36 3.31073 5.13053 0
M  V30 2531 H 229.774 4.67683 3.31581 0
M  V30 2532 H 228.171 5.29564 2.82281 0
M  V30 2533 H 229.241 4.57507 1.60671 0
M  V30 2534 N 230.584 -0.659388 1.43143 0
M  V30 2535 C 231.514 -1.78422 1.50625 0
M  V30 2536 C 232.495 -1.66216 0.361443 0
M  V30 2537 O 233.68 -1.85404 0.577834 0
M  V30 2538 C 230.81 -3.16815 1.42287 0
M  V30 2539 C 229.764 -3.43777 2.54954 0
M  V30 2540 C 229.09 -4.81905 2.31671 0
M  V30 2541 C 230.39 -3.39134 3.97222 0
M  V30 2542 H 232.084 -1.72417 2.44771 0
M  V30 2543 H 229.63 -0.828084 1.17808 0
M  V30 2544 H 231.583 -3.95253 1.46127 0
M  V30 2545 H 230.307 -3.23534 0.446435 0
M  V30 2546 H 228.966 -2.67707 2.50457 0
M  V30 2547 H 228.614 -4.85294 1.32284 0
M  V30 2548 H 228.314 -5.00906 3.07192 0
M  V30 2549 H 229.838 -5.62609 2.37284 0
M  V30 2550 H 231.252 -4.07518 4.03239 0
M  V30 2551 H 229.649 -3.69671 4.72719 0
M  V30 2552 H 230.719 -2.37426 4.22797 0
M  V30 2553 N 232.062 -1.29571 -0.897171 0
M  V30 2554 C 233.01 -1.14802 -2.02295 0
M  V30 2555 C 234.004 -0.0629637 -1.69283 0
M  V30 2556 O 235.21 -0.222945 -1.78614 0
M  V30 2557 H 231.585 -0.354692 -0.663097 0
M  V30 2558 H 233.556 -2.10108 -2.11889 0
M  V30 2559 C 232.305 -0.843966 -3.37302 0
M  V30 2560 H 231.628 -1.67093 -3.63208 0
M  V30 2561 H 233.068 -0.780672 -4.16751 0
M  V30 2562 C 231.527 0.452843 -3.33843 0
M  V30 2563 O 232.057 1.47813 -3.73516 0
M  V30 2564 N 230.263 0.459601 -2.86943 0
M  V30 2565 H 229.81 -0.375213 -2.54853 0
M  V30 2566 H 229.768 1.32726 -2.85011 0
M  V30 2567 N 233.54 1.10788 -1.12088 0
M  V30 2568 C 234.768 1.86461 -0.896651 0
M  V30 2569 C 235.183 1.80492 0.553912 0
M  V30 2570 O 234.54 1.19102 1.38278 0
M  V30 2571 C 234.591 3.35006 -1.35843 0
M  V30 2572 O 234.312 3.40866 -2.75213 0
M  V30 2573 C 235.813 4.27565 -1.1706 0
M  V30 2574 H 233.033 0.589425 -0.320654 0
M  V30 2575 H 235.577 1.40076 -1.48993 0
M  V30 2576 H 233.732 3.7887 -0.808458 0
M  V30 2577 H 234.146 4.33411 -2.9539 0
M  V30 2578 H 235.62 5.30007 -1.54263 0
M  V30 2579 H 236.097 4.3906 -0.110814 0
M  V30 2580 H 236.703 3.89501 -1.70789 0
M  V30 2581 N 235.018 0.912232 1.28515 0
M  V30 2582 C 236.246 0.560416 1.99166 0
M  V30 2583 C 236.661 -0.857927 1.68182 0
M  V30 2584 O 236.018 -1.56805 0.933733 0
M  V30 2585 C 236.069 0.758142 3.53461 0
M  V30 2586 O 235.79 2.12067 3.83352 0
M  V30 2587 C 237.291 0.412954 4.41372 0
M  V30 2588 H 234.511 0.213805 0.636026 0
M  V30 2589 H 237.055 1.22502 1.63749 0
M  V30 2590 H 235.21 0.140556 3.87145 0
M  V30 2591 H 235.624 2.15923 4.77993 0
M  V30 2592 H 237.098 0.60208 5.48707 0
M  V30 2593 H 237.575 -0.65073 4.34353 0
M  V30 2594 H 238.181 1.00802 4.13182 0
M  V30 2595 N 236.496 -1.42363 0.676048 0
M  V30 2596 C 237.736 -2.03392 0.20273 0
M  V30 2597 C 238.1 -1.52306 -1.16906 0
M  V30 2598 O 239.301 -2.05129 -1.73711 0
M  V30 2599 C 237.572 -3.56614 0.236947 0
M  V30 2600 S 239.131 -4.38489 -0.165186 0
M  V30 2601 H 235.949 -0.70611 0.0832418 0
M  V30 2602 H 238.551 -1.74093 0.88948 0
M  V30 2603 H 237.255 -3.91293 1.23767 0
M  V30 2604 H 236.786 -3.90587 -0.469596 0
M  V30 2605 H 238.801 -4.76093 -1.39822 0
M  V30 2606 N 237.974 -0.419461 -1.51915 0
M  V30 2607 C 239.251 0.211999 -1.94448 0
M  V30 2608 C 239.631 1.61703 -1.35703 0
M  V30 2609 O 238.979 2.22102 -0.536931 0
M  V30 2610 C 239.189 0.207872 -3.4838 0
M  V30 2611 C 240.537 0.422192 -4.22496 0
M  V30 2612 O 241.561 0.286778 -3.55044 0
M  V30 2613 O 240.42 0.690009 -5.42126 0
M  V30 2614 H 237.514 0.139586 -0.815135 0
M  V30 2615 H 240.06 -0.476151 -1.62883 0
M  V30 2616 H 238.832 -0.775102 -3.83546 0
M  V30 2617 H 238.455 0.939688 -3.86336 0
M  V30 2618 N 239.452 1.56882 -0.150215 0
M  V30 2619 C 240.382 2.19935 0.784284 0
M  V30 2620 C 241.363 1.14854 1.25469 0
M  V30 2621 O 242.548 1.43209 1.31168 0
M  V30 2622 C 239.678 2.82349 2.02229 0
M  V30 2623 C 238.632 3.93285 1.68853 0
M  V30 2624 C 237.958 4.42649 2.99944 0
M  V30 2625 C 239.258 5.13904 0.932714 0
M  V30 2626 H 240.952 2.9828 0.258781 0
M  V30 2627 H 238.498 1.43473 0.123029 0
M  V30 2628 H 240.451 3.25126 2.68088 0
M  V30 2629 H 239.175 2.0134 2.57157 0
M  V30 2630 H 237.834 3.5113 1.05371 0
M  V30 2631 H 237.482 3.58458 3.52869 0
M  V30 2632 H 237.182 5.17476 2.78374 0
M  V30 2633 H 238.706 4.88099 3.66868 0
M  V30 2634 H 240.12 5.53506 1.49345 0
M  V30 2635 H 238.517 5.94515 0.81684 0
M  V30 2636 H 239.587 4.84842 -0.0749568 0
M  V30 2637 N 240.93 -0.123565 1.57115 0
M  V30 2638 C 241.877 -1.15177 2.00007 0
M  V30 2639 C 242.847 -1.41403 0.871454 0
M  V30 2640 O 244.032 -1.53346 1.13533 0
M  V30 2641 C 241.172 -2.47436 2.40561 0
M  V30 2642 C 240.285 -2.28184 3.66819 0
M  V30 2643 C 239.42 -3.53641 3.96373 0
M  V30 2644 C 238.459 -3.29528 5.15827 0
M  V30 2645 N 237.596 -4.47175 5.41275 0
M  V30 2646 H 242.436 -0.779008 2.87638 0
M  V30 2647 H 239.973 -0.373166 1.42288 0
M  V30 2648 H 241.931 -3.24584 2.62109 0
M  V30 2649 H 240.561 -2.82614 1.55978 0
M  V30 2650 H 239.613 -1.41976 3.52912 0
M  V30 2651 H 240.925 -2.0634 4.5412 0
M  V30 2652 H 240.079 -4.39209 4.18545 0
M  V30 2653 H 238.818 -3.78512 3.07538 0
M  V30 2654 H 237.823 -2.42349 4.93505 0
M  V30 2655 H 239.048 -3.06031 6.06236 0
M  V30 2656 H 236.994 -4.72175 4.55397 0
M  V30 2657 H 236.911 -4.28419 6.22891 0
M  V30 2658 H 238.179 -5.3389 5.67963 0
M  V30 2659 N 242.408 -1.52605 -0.393616 0
M  V30 2660 C 243.657 -1.66649 -1.13627 0
M  V30 2661 C 243.97 -0.410364 -1.91247 0
M  V30 2662 O 245.176 -0.430854 -2.68059 0
M  V30 2663 C 243.632 -2.9449 -2.06891 0
M  V30 2664 C 243.24 -4.27266 -1.34714 0
M  V30 2665 C 244.984 -3.17899 -2.81319 0
M  V30 2666 C 242.891 -5.46217 -2.26717 0
M  V30 2667 H 241.821 -0.62084 -0.427871 0
M  V30 2668 H 244.472 -1.791 -0.399428 0
M  V30 2669 H 242.854 -2.75774 -2.84191 0
M  V30 2670 H 244.028 -4.56518 -0.626714 0
M  V30 2671 H 242.343 -4.10081 -0.722643 0
M  V30 2672 H 244.94 -4.03949 -3.50328 0
M  V30 2673 H 245.283 -2.32777 -3.45139 0
M  V30 2674 H 245.816 -3.37159 -2.11113 0
M  V30 2675 H 242.555 -6.33733 -1.67521 0
M  V30 2676 H 242.075 -5.21283 -2.96689 0
M  V30 2677 H 243.754 -5.7991 -2.86903 0
M  V30 2678 N 243.887 0.651787 -1.4349 0
M  V30 2679 C 245.127 1.42345 -1.46688 0
M  V30 2680 C 245.491 1.91793 -0.0891023 0
M  V30 2681 O 246.692 2.688 0.00423594 0
M  V30 2682 C 244.963 2.57221 -2.48137 0
M  V30 2683 S 246.522 3.45725 -2.70221 0
M  V30 2684 H 243.34 0.485878 -0.51908 0
M  V30 2685 H 245.942 0.756578 -1.80267 0
M  V30 2686 H 244.646 2.1917 -3.46976 0
M  V30 2687 H 244.177 3.28757 -2.16061 0
M  V30 2688 H 246.192 4.53996 -2.00255 0
M  V30 2689 N 245.365 1.30045 0.890287 0
M  V30 2690 C 246.642 1.09227 1.62262 0
M  V30 2691 C 247.022 -0.360305 2.08002 0
M  V30 2692 O 246.37 -1.35084 1.84295 0
M  V30 2693 C 246.58 2.08835 2.79623 0
M  V30 2694 C 247.928 2.40266 3.50082 0
M  V30 2695 O 248.952 2.07104 2.89804 0
M  V30 2696 O 247.811 2.96967 4.58773 0
M  V30 2697 H 244.905 0.419132 0.712922 0
M  V30 2698 H 247.451 1.41451 0.937529 0
M  V30 2699 H 246.223 3.06633 2.43089 0
M  V30 2700 H 245.846 1.77397 3.55832 0
M  V30 2701 N 246.843 -1.10192 1.12674 0
M  V30 2702 C 248.09 -1.82205 0.883606 0
M  V30 2703 C 248.418 -1.8532 -0.590492 0
M  V30 2704 O 247.673 -1.31137 -1.45264 0
M  V30 2705 C 247.972 -3.28552 1.4067 0
M  V30 2706 C 247.638 -3.45582 2.89627 0
M  V30 2707 C 246.3 -3.49937 3.30299 0
M  V30 2708 C 248.652 -3.50768 3.85501 0
M  V30 2709 C 245.98 -3.57049 4.65546 0
M  V30 2710 C 248.332 -3.59414 5.20581 0
M  V30 2711 C 246.996 -3.62034 5.60792 0
M  V30 2712 H 246.266 -0.666735 0.323334 0
M  V30 2713 H 248.913 -1.29868 1.40736 0
M  V30 2714 H 247.218 -3.83473 0.80347 0
M  V30 2715 H 248.915 -3.82788 1.19475 0
M  V30 2716 H 245.505 -3.42871 2.57172 0
M  V30 2717 H 249.689 -3.46651 3.55171 0
M  V30 2718 H 244.945 -3.57361 4.96088 0
M  V30 2719 H 249.119 -3.62371 5.94693 0
M  V30 2720 H 246.746 -3.67298 6.6558 0
M  V30 2721 N 248.321 -0.919034 -1.28029 0
M  V30 2722 C 249.569 -0.553838 -1.94363 0
M  V30 2723 C 249.89 0.906357 -1.72656 0
M  V30 2724 O 249.16 1.64143 -1.0693 0
M  V30 2725 H 247.74 -0.201834 -0.719216 0
M  V30 2726 H 250.402 -1.16954 -1.55909 0
M  V30 2727 H 249.498 -0.752758 -3.02886 0
M  V30 2728 N 249.799 1.42003 -0.683588 0
M  V30 2729 C 250.729 2.33487 -0.024866 0
M  V30 2730 C 251.71 1.51163 0.779975 0
M  V30 2731 O 252.895 1.79739 0.735362 0
M  V30 2732 C 250.025 3.3487 0.920836 0
M  V30 2733 C 248.979 4.27414 0.223958 0
M  V30 2734 C 248.305 5.19074 1.2832 0
M  V30 2735 C 249.605 5.14445 -0.90242 0
M  V30 2736 H 251.299 2.88819 -0.788921 0
M  V30 2737 H 248.845 1.38873 -0.38083 0
M  V30 2738 H 250.798 3.97787 1.39081 0
M  V30 2739 H 249.522 2.77861 1.71642 0
M  V30 2740 H 248.181 3.65904 -0.225864 0
M  V30 2741 H 247.829 4.58387 2.071 0
M  V30 2742 H 247.529 5.81822 0.821995 0
M  V30 2743 H 249.053 5.84867 1.75392 0
M  V30 2744 H 250.467 5.70998 -0.513272 0
M  V30 2745 H 248.864 5.86072 -1.28997 0
M  V30 2746 H 249.934 4.52322 -1.74737 0
M  V30 2747 N 251.277 0.427512 1.51691 0
M  V30 2748 C 252.24 -0.377132 2.26076 0
M  V30 2749 C 253.24 -0.958089 1.29141 0
M  V30 2750 O 254.43 -0.83408 1.52934 0
M  V30 2751 C 251.562 -1.53262 3.04506 0
M  V30 2752 H 252.755 0.27464 2.9864 0
M  V30 2753 H 250.308 0.180445 1.55255 0
M  V30 2754 H 251.043 -2.22072 2.36335 0
M  V30 2755 H 250.828 -1.12232 3.75694 0
M  V30 2756 H 252.318 -2.10135 3.60878 0
M  V30 2757 N 252.755 -1.56801 0.158532 0
M  V30 2758 C 254.171 -1.5837 -0.197774 0
M  V30 2759 C 254.371 -1.17334 -1.63814 0
M  V30 2760 O 253.427 -0.878988 -2.36707 0
M  V30 2761 C 254.74 -3.00615 0.0714459 0
M  V30 2762 C 256.288 -3.12999 0.00864533 0
M  V30 2763 C 256.763 -4.57313 0.250685 0
M  V30 2764 N 258.254 -4.62777 0.198014 0
M  V30 2765 C 258.989 -5.72271 0.359642 0
M  V30 2766 N 258.485 -6.90371 0.579625 0
M  V30 2767 N 260.278 -5.61318 0.296438 0
M  V30 2768 H 252.429 -1.81765 1.09887 0
M  V30 2769 H 254.692 -0.841849 0.435884 0
M  V30 2770 H 254.398 -3.35068 1.06874 0
M  V30 2771 H 254.272 -3.71683 -0.642757 0
M  V30 2772 H 256.659 -2.7838 -0.979217 0
M  V30 2773 H 256.74 -2.44393 0.755359 0
M  V30 2774 H 256.384 -4.92639 1.2357 0
M  V30 2775 H 256.314 -5.24061 -0.516489 0
M  V30 2776 H 258.805 -3.77885 0.0331115 0
M  V30 2777 H 259.118 -7.69689 0.69275 0
M  V30 2778 H 257.463 -6.92264 0.616087 0
M  V30 2779 H 260.654 -4.67932 0.125258 0
M  V30 2780 H 260.827 -6.46599 0.425831 0
M  V30 2781 N 254.233 0.115231 -1.57178 0
M  V30 2782 C 255.479 0.82357 -1.85325 0
M  V30 2783 C 255.812 1.79349 -0.744814 0
M  V30 2784 O 255.087 1.92899 0.249024 0
M  V30 2785 C 255.37 1.57014 -3.24066 0
M  V30 2786 C 255.223 0.619565 -4.45513 0
M  V30 2787 C 256.542 2.52545 -3.60429 0
M  V30 2788 H 253.661 0.297948 -0.674089 0
M  V30 2789 H 256.303 0.0877138 -1.89797 0
M  V30 2790 H 254.453 2.19742 -3.20383 0
M  V30 2791 H 256.125 0.000837639 -4.613 0
M  V30 2792 H 254.368 -0.0686174 -4.33746 0
M  V30 2793 H 255.039 1.17866 -5.3927 0
M  V30 2794 H 257.515 1.9992 -3.64926 0
M  V30 2795 H 256.391 3.01811 -4.58477 0
M  V30 2796 H 256.652 3.35383 -2.88047 0
M  V30 2797 N 255.711 1.52812 0.385517 0
M  V30 2798 C 256.674 1.77188 1.45386 0
M  V30 2799 C 257.674 0.641953 1.4743 0
M  V30 2800 O 258.864 0.910033 1.4854 0
M  V30 2801 C 255.996 1.87582 2.8465 0
M  V30 2802 H 257.189 2.72583 1.25054 0
M  V30 2803 H 254.742 1.43586 0.617467 0
M  V30 2804 H 255.477 0.941849 3.10322 0
M  V30 2805 H 255.262 2.69748 2.84567 0
M  V30 2806 H 256.752 2.08102 3.62054 0
M  V30 2807 N 257.189 -0.644168 1.43834 0
M  V30 2808 C 258.466 -1.40188 1.36406 0
M  V30 2809 C 258.846 -2.11094 0.0163124 0
M  V30 2810 O 258.194 -2.05426 -1.00062 0
M  V30 2811 C 258.404 -2.3791 2.55343 0
M  V30 2812 C 259.752 -3.01637 2.98832 0
M  V30 2813 O 260.776 -2.48237 2.55455 0
M  V30 2814 O 259.635 -3.98477 3.74003 0
M  V30 2815 H 256.729 -0.626773 0.539523 0
M  V30 2816 H 259.275 -0.670317 1.559 0
M  V30 2817 H 258.047 -1.84525 3.4506 0
M  V30 2818 H 257.67 -3.18503 2.37995 0
M  V30 2819 N 258.668 -1.30515 -0.883378 0
M  V30 2820 C 260.079 -1.17509 -1.45081 0
M  V30 2821 C 260.43 0.223605 -1.94922 0
M  V30 2822 O 259.555 1.12041 -1.85137 0
M  V30 2823 C 260.15 -2.12715 -2.63701 0
M  V30 2824 C 258.709 -2.03682 -3.16529 0
M  V30 2825 C 257.856 -2.02706 -1.89224 0
M  V30 2826 H 260.807 -1.42762 -0.693165 0
M  V30 2827 H 260.828 -1.70891 -3.39965 0
M  V30 2828 H 260.34 -3.14505 -2.27395 0
M  V30 2829 H 258.441 -1.05039 -3.57488 0
M  V30 2830 H 258.554 -2.92146 -3.7972 0
M  V30 2831 H 256.918 -1.4753 -2.07622 0
M  V30 2832 H 257.701 -3.06229 -1.55174 0
M  V30 2833 N 260.146 1.09593 -1.13257 0
M  V30 2834 C 261.423 1.78293 -0.804432 0
M  V30 2835 C 261.803 1.99004 0.70431 0
M  V30 2836 O 261.151 1.59007 1.641 0
M  V30 2837 C 261.361 3.10707 -1.5894 0
M  V30 2838 C 262.709 3.85443 -1.78099 0
M  V30 2839 O 263.733 3.20454 -1.55525 0
M  V30 2840 O 262.592 5.02108 -2.15753 0
M  V30 2841 H 259.686 0.773156 -0.293528 0
M  V30 2842 H 262.232 1.16164 -1.23709 0
M  V30 2843 H 261.004 2.91106 -2.61482 0
M  V30 2844 H 260.627 3.80558 -1.15157 0
M  V30 2845 N 261.624 0.925811 1.2754 0
M  V30 2846 C 262.574 0.394488 2.24561 0
M  V30 2847 C 263.558 -0.500183 1.52928 0
M  V30 2848 O 264.75 -0.337936 1.73744 0
M  V30 2849 C 261.879 -0.353328 3.41477 0
M  V30 2850 C 260.965 0.557752 4.20416 0
M  V30 2851 N 261.356 1.67674 4.77199 0
M  V30 2852 C 259.654 0.360404 4.44541 0
M  V30 2853 C 260.355 2.24324 5.36706 0
M  V30 2854 N 259.331 1.53305 5.21535 0
M  V30 2855 H 263.133 1.2489 2.66045 0
M  V30 2856 H 260.647 0.779864 1.4245 0
M  V30 2857 H 262.644 -0.7509 4.10082 0
M  V30 2858 H 261.304 -1.20469 3.01525 0
M  V30 2859 H 262.315 2.05915 4.75204 0
M  V30 2860 H 258.992 -0.450454 4.15063 0
M  V30 2861 H 260.382 3.18521 5.91603 0
M  V30 2862 N 263.102 -1.41638 0.69111 0
M  V30 2863 C 264.379 -1.95036 0.148421 0
M  V30 2864 C 264.759 -1.63072 -1.34055 0
M  V30 2865 O 264.107 -0.93538 -2.08478 0
M  V30 2866 C 264.317 -3.46279 0.434951 0
M  V30 2867 C 265.665 -4.23069 0.360275 0
M  V30 2868 O 266.689 -3.54277 0.369613 0
M  V30 2869 O 265.548 -5.45583 0.316534 0
M  V30 2870 H 262.642 -0.826908 0.0123654 0
M  V30 2871 H 265.188 -1.5138 0.766963 0
M  V30 2872 H 263.96 -3.6281 1.46576 0
M  V30 2873 H 263.583 -3.97019 -0.214787 0
M  V30 2874 N 264.58 -0.43555 -1.51462 0
M  V30 2875 C 265.53 0.394701 -2.24558 0
M  V30 2876 C 266.514 0.99157 -1.26715 0
M  V30 2877 O 267.706 0.910007 -1.51815 0
M  V30 2878 C 264.835 1.4963 -3.08975 0
M  V30 2879 C 263.921 0.908912 -4.14246 0
M  V30 2880 N 264.312 0.0505335 -5.05775 0
M  V30 2881 C 262.61 1.17668 -4.30198 0
M  V30 2882 C 263.311 -0.279161 -5.8103 0
M  V30 2883 N 262.287 0.336767 -5.42556 0
M  V30 2884 H 266.089 -0.267106 -2.92684 0
M  V30 2885 H 263.603 -0.247518 -1.60503 0
M  V30 2886 H 265.6 2.10394 -3.59917 0
M  V30 2887 H 264.26 2.16046 -2.42393 0
M  V30 2888 H 265.271 -0.31577 -5.16936 0
M  V30 2889 H 261.948 1.83847 -3.74842 0
M  V30 2890 H 263.338 -0.977553 -6.64751 0
M  V30 2891 N 266.058 1.56714 -0.166846 0
M  V30 2892 C 267.286 2.0112 0.485644 0
M  V30 2893 C 267.701 1.04705 1.57106 0
M  V30 2894 O 267.058 0.0471923 1.82439 0
M  V30 2895 C 267.109 3.45361 1.06808 0
M  V30 2896 O 266.83 4.38092 0.0259995 0
M  V30 2897 C 268.331 4.05145 1.79924 0
M  V30 2898 H 265.551 0.65931 0.124704 0
M  V30 2899 H 268.095 2.02746 -0.267262 0
M  V30 2900 H 266.25 3.44524 1.7715 0
M  V30 2901 H 266.664 5.22519 0.455398 0
M  V30 2902 H 268.138 5.08009 2.15942 0
M  V30 2903 H 268.615 3.46982 2.69258 0
M  V30 2904 H 269.221 4.09672 1.14234 0
M  V30 2905 N 267.536 -0.106894 1.57237 0
M  V30 2906 C 268.784 -0.810921 1.85117 0
M  V30 2907 C 269.105 -1.7984 0.753827 0
M  V30 2908 O 268.375 -1.94649 -0.221056 0
M  V30 2909 H 266.955 -0.302466 0.683025 0
M  V30 2910 H 269.617 -0.0913324 1.94686 0
M  V30 2911 H 268.713 -1.34875 2.81452 0
M  V30 2912 N 269.014 -1.53014 -0.377408 0
M  V30 2913 C 270.261 -1.68623 -1.12128 0
M  V30 2914 C 270.589 -0.431997 -1.89642 0
M  V30 2915 O 269.844 0.585855 -1.86725 0
M  V30 2916 C 270.143 -2.87982 -2.11663 0
M  V30 2917 C 269.809 -4.24964 -1.50719 0
M  V30 2918 C 268.471 -4.62217 -1.33825 0
M  V30 2919 C 270.823 -5.10199 -1.06519 0
M  V30 2920 C 268.151 -5.82352 -0.712963 0
M  V30 2921 C 270.503 -6.30969 -0.453955 0
M  V30 2922 C 269.167 -6.66944 -0.272411 0
M  V30 2923 H 268.437 -0.617034 -0.410305 0
M  V30 2924 H 271.084 -1.8718 -0.404484 0
M  V30 2925 H 269.389 -2.63889 -2.89603 0
M  V30 2926 H 271.086 -2.97253 -2.6915 0
M  V30 2927 H 267.676 -3.95626 -1.64858 0
M  V30 2928 H 271.86 -4.81978 -1.18368 0
M  V30 2929 H 267.116 -6.08824 -0.560611 0
M  V30 2930 H 271.29 -6.96324 -0.103217 0
M  V30 2931 H 268.917 -7.59898 0.214181 0
M  V30 2932 N 270.492 0.636531 -1.44174 0
M  V30 2933 C 271.422 1.76003 -1.53444 0
M  V30 2934 C 272.403 1.65619 -0.387841 0
M  V30 2935 O 273.588 1.84461 -0.607257 0
M  V30 2936 C 270.718 3.14511 -1.4731 0
M  V30 2937 C 269.672 3.39677 -2.60391 0
M  V30 2938 C 268.998 4.78159 -2.39308 0
M  V30 2939 C 270.298 3.32772 -4.02567 0
M  V30 2940 H 271.992 1.68501 -2.47483 0
M  V30 2941 H 269.538 0.809237 -1.19111 0
M  V30 2942 H 271.491 3.92878 -1.52397 0
M  V30 2943 H 270.215 3.22783 -0.49785 0
M  V30 2944 H 268.874 2.63688 -2.54684 0
M  V30 2945 H 268.522 4.83128 -1.39988 0
M  V30 2946 H 268.222 4.95956 -3.15122 0
M  V30 2947 H 269.746 5.58762 -2.46205 0
M  V30 2948 H 271.16 4.01051 -4.09672 0
M  V30 2949 H 269.557 3.62104 -4.7854 0
M  V30 2950 H 270.627 2.30669 -4.2652 0
M  V30 2951 N 271.97 1.30982 0.876444 0
M  V30 2952 C 273.198 1.23242 1.6619 0
M  V30 2953 C 273.613 -0.203345 1.87702 0
M  V30 2954 O 272.97 -1.13317 1.43057 0
M  V30 2955 C 273.021 1.96623 3.03351 0
M  V30 2956 O 272.742 3.34594 2.82804 0
M  V30 2957 C 274.243 1.95644 3.97792 0
M  V30 2958 H 271.463 0.426126 0.518322 0
M  V30 2959 H 274.007 1.7275 1.09442 0
M  V30 2960 H 272.162 1.50892 3.56806 0
M  V30 2961 H 272.576 3.71873 3.69879 0
M  V30 2962 H 274.05 2.51511 4.91372 0
M  V30 2963 H 274.527 0.937395 4.2908 0
M  V30 2964 H 275.133 2.41225 3.50272 0
M  V30 2965 N 273.449 -1.08991 1.13837 0
M  V30 2966 C 274.359 -2.19301 0.833333 0
M  V30 2967 C 275.375 -1.73026 -0.183847 0
M  V30 2968 O 276.551 -2.01395 -0.0138092 0
M  V30 2969 C 273.616 -3.45323 0.308651 0
M  V30 2970 C 272.677 -4.06255 1.38764 0
M  V30 2971 C 271.91 -5.26262 0.887896 0
M  V30 2972 O 272.133 -5.69747 -0.27287 0
M  V30 2973 O 271.067 -5.78435 1.66421 0
M  V30 2974 H 274.893 -2.47854 1.75506 0
M  V30 2975 H 272.478 -1.18012 0.916166 0
M  V30 2976 H 274.36 -4.21394 0.0216739 0
M  V30 2977 H 273.035 -3.18362 -0.585431 0
M  V30 2978 H 271.942 -3.318 1.72799 0
M  V30 2979 H 273.275 -4.37452 2.25602 0
M  V30 2980 N 274.927 -0.932562 -1.27047 0
M  V30 2981 C 276.157 -0.591173 -1.97961 0
M  V30 2982 C 276.565 0.836219 -1.69717 0
M  V30 2983 O 275.908 1.56801 -0.957036 0
M  V30 2984 C 275.97 -0.743082 -3.51736 0
M  V30 2985 C 275.634 -2.1435 -4.03613 0
M  V30 2986 C 276.631 -3.11815 -4.16014 0
M  V30 2987 C 274.316 -2.46175 -4.37839 0
M  V30 2988 C 276.31 -4.39211 -4.61923 0
M  V30 2989 C 273.997 -3.73806 -4.83438 0
M  V30 2990 C 274.995 -4.70137 -4.95439 0
M  V30 2991 O 274.683 -5.95496 -5.40037 0
M  V30 2992 H 274.415 -0.222375 -0.638377 0
M  V30 2993 H 276.969 -1.25317 -1.62742 0
M  V30 2994 H 275.199 -0.0239739 -3.86693 0
M  V30 2995 H 276.888 -0.40603 -4.03864 0
M  V30 2996 H 277.654 -2.88549 -3.89826 0
M  V30 2997 H 273.533 -1.71936 -4.27737 0
M  V30 2998 H 277.077 -5.14404 -4.71205 0
M  V30 2999 H 272.974 -3.96888 -5.09068 0
M  V30 3000 H 273.742 -5.98554 -5.58279 0
M  V30 3001 N 276.405 1.4127 -0.698611 0
M  V30 3002 C 277.651 2.01478 -0.231207 0
M  V30 3003 C 277.984 1.55215 1.16713 0
M  V30 3004 O 277.259 0.764672 1.78838 0
M  V30 3005 C 277.542 3.58912 -0.292281 0
M  V30 3006 C 277.395 4.15293 -1.72778 0
M  V30 3007 C 278.714 4.38736 0.346194 0
M  V30 3008 H 275.833 0.732025 -0.0854878 0
M  V30 3009 H 278.475 1.67977 -0.887906 0
M  V30 3010 H 276.625 3.87582 0.26686 0
M  V30 3011 H 278.297 3.97486 -2.341 0
M  V30 3012 H 276.54 3.7022 -2.26096 0
M  V30 3013 H 277.211 5.24452 -1.72202 0
M  V30 3014 H 279.687 4.15897 -0.130035 0
M  V30 3015 H 278.563 5.48221 0.272932 0
M  V30 3016 H 278.824 4.18425 1.42734 0
M  V30 3017 N 277.883 0.443576 1.51229 0
M  V30 3018 C 278.846 -0.353132 2.26463 0
M  V30 3019 C 279.846 -0.944338 1.3015 0
M  V30 3020 O 281.036 -0.817813 1.5381 0
M  V30 3021 C 278.168 -1.50023 3.06114 0
M  V30 3022 H 279.361 0.3063 2.98332 0
M  V30 3023 H 276.914 0.196902 1.55055 0
M  V30 3024 H 277.649 -2.19553 2.38677 0
M  V30 3025 H 277.434 -1.08241 3.76864 0
M  V30 3026 H 278.924 -2.06296 3.63087 0
M  V30 3027 N 279.361 -1.56624 0.175154 0
M  V30 3028 C 280.589 -2.01374 -0.474971 0
M  V30 3029 C 281.004 -1.05537 -1.56548 0
M  V30 3030 O 280.361 -0.0568668 -1.82411 0
M  V30 3031 C 280.412 -3.45923 -1.04975 0
M  V30 3032 O 280.133 -4.381 -0.00276605 0
M  V30 3033 C 281.634 -4.06093 -1.77773 0
M  V30 3034 H 278.854 -0.659962 -0.121206 0
M  V30 3035 H 281.398 -2.02601 0.27801 0
M  V30 3036 H 279.553 -3.45458 -1.75321 0
M  V30 3037 H 279.967 -5.22753 -0.427681 0
M  V30 3038 H 281.441 -5.09147 -2.13245 0
M  V30 3039 H 281.918 -3.48405 -2.67414 0
M  V30 3040 H 282.524 -4.10272 -1.12059 0
M  V30 3041 N 280.839 0.0985539 -1.57292 0
M  V30 3042 C 282.255 0.45267 -1.53046 0
M  V30 3043 C 282.455 1.80713 -0.891342 0
M  V30 3044 O 281.511 2.4785 -0.482375 0
M  V30 3045 C 282.824 0.418341 -2.97776 0
M  V30 3046 C 284.372 0.500443 -3.08973 0
M  V30 3047 C 284.847 0.496297 -4.55303 0
M  V30 3048 N 286.338 0.557151 -4.59837 0
M  V30 3049 C 287.073 0.575726 -5.70502 0
M  V30 3050 N 286.569 0.550714 -6.90608 0
M  V30 3051 N 288.362 0.620277 -5.58667 0
M  V30 3052 H 280.513 -0.788673 -1.97215 0
M  V30 3053 H 282.776 -0.293188 -0.901524 0
M  V30 3054 H 282.482 -0.509659 -3.47988 0
M  V30 3055 H 282.356 1.2386 -3.56284 0
M  V30 3056 H 284.743 1.41886 -2.58751 0
M  V30 3057 H 284.824 -0.347894 -2.53423 0
M  V30 3058 H 284.468 -0.418162 -5.06176 0
M  V30 3059 H 284.398 1.3618 -5.08687 0
M  V30 3060 H 286.889 0.581816 -3.73394 0
M  V30 3061 H 287.202 0.568075 -7.70709 0
M  V30 3062 H 285.547 0.517816 -6.93068 0
M  V30 3063 H 288.738 0.637322 -4.63741 0
M  V30 3064 H 288.911 0.631283 -6.44918 0
M  V30 3065 N 282.317 1.53212 0.369288 0
M  V30 3066 C 283.563 1.70413 1.11046 0
M  V30 3067 C 283.918 0.448509 1.87099 0
M  V30 3068 O 283.211 -0.558382 1.83283 0
M  V30 3069 C 283.405 2.89101 2.10132 0
M  V30 3070 C 283.234 4.26084 1.43814 0
M  V30 3071 C 282.004 4.90994 1.19384 0
M  V30 3072 C 284.202 5.06754 0.877802 0
M  V30 3073 N 282.184 6.11911 0.49377 0
M  V30 3074 C 283.555 6.1924 0.306891 0
M  V30 3075 C 285.61 4.91814 0.776129 0
M  V30 3076 C 284.313 7.1842 -0.355774 0
M  V30 3077 C 286.339 5.91263 0.127252 0
M  V30 3078 C 285.701 7.03069 -0.432801 0
M  V30 3079 H 281.8 0.676872 0.391623 0
M  V30 3080 H 284.384 1.90603 0.397334 0
M  V30 3081 H 282.555 2.70456 2.78761 0
M  V30 3082 H 284.287 2.95142 2.76899 0
M  V30 3083 H 281.042 4.50074 1.47413 0
M  V30 3084 H 281.466 6.76813 0.159207 0
M  V30 3085 H 286.108 4.05564 1.19489 0
M  V30 3086 H 283.826 8.04264 -0.786499 0
M  V30 3087 H 287.412 5.81779 0.0495613 0
M  V30 3088 H 286.292 7.78702 -0.926958 0
M  V30 3089 N 283.795 -0.628877 1.44509 0
M  V30 3090 C 285.025 -1.41349 1.50678 0
M  V30 3091 C 285.433 -1.88745 0.131075 0
M  V30 3092 O 284.776 -1.61592 -0.87371 0
M  V30 3093 C 284.838 -2.66608 2.41165 0
M  V30 3094 C 284.502 -2.40993 3.88293 0
M  V30 3095 C 285.499 -2.0268 4.78766 0
M  V30 3096 C 283.184 -2.54563 4.33016 0
M  V30 3097 C 285.178 -1.78269 6.11963 0
M  V30 3098 C 282.865 -2.29766 5.6626 0
M  V30 3099 C 283.863 -1.91678 6.55552 0
M  V30 3100 O 283.551 -1.67158 7.86329 0
M  V30 3101 H 283.283 -0.439851 0.51333 0
M  V30 3102 H 285.837 -0.776084 1.90174 0
M  V30 3103 H 284.067 -3.32994 1.96601 0
M  V30 3104 H 285.756 -3.28615 2.38259 0
M  V30 3105 H 286.522 -1.91751 4.45485 0
M  V30 3106 H 282.401 -2.83179 3.63773 0
M  V30 3107 H 285.945 -1.48465 6.81619 0
M  V30 3108 H 281.842 -2.40306 5.99102 0
M  V30 3109 H 282.61 -1.81386 7.98149 0
M  V30 3110 N 285.273 -1.31445 -0.869486 0
M  V30 3111 C 286.689 -1.10113 -1.15531 0
M  V30 3112 C 286.889 0.128087 -2.01092 0
M  V30 3113 O 285.945 0.817276 -2.38908 0
M  V30 3114 C 287.258 -2.37291 -1.84698 0
M  V30 3115 C 288.806 -2.42906 -1.97397 0
M  V30 3116 C 289.281 -3.69967 -2.69979 0
M  V30 3117 N 290.772 -3.70864 -2.77514 0
M  V30 3118 C 291.507 -4.65875 -3.34287 0
M  V30 3119 N 291.003 -5.71242 -3.91988 0
M  V30 3120 N 292.796 -4.53394 -3.3225 0
M  V30 3121 H 284.947 -2.1028 -0.299347 0
M  V30 3122 H 287.21 -0.927683 -0.195214 0
M  V30 3123 H 286.916 -3.27078 -1.29278 0
M  V30 3124 H 286.79 -2.47125 -2.84972 0
M  V30 3125 H 289.177 -1.53588 -2.51982 0
M  V30 3126 H 289.258 -2.37036 -0.961643 0
M  V30 3127 H 288.902 -4.59652 -2.16062 0
M  V30 3128 H 288.832 -3.73103 -3.7162 0
M  V30 3129 H 291.323 -2.94697 -2.36563 0
M  V30 3130 H 291.636 -6.39817 -4.33421 0
M  V30 3131 H 289.981 -5.75015 -3.90362 0
M  V30 3132 H 293.172 -3.70252 -2.8641 0
M  V30 3133 H 293.345 -5.27617 -3.76197 0
M  V30 3134 N 286.751 1.08385 -1.14413 0
M  V30 3135 C 287.714 2.13486 -0.834048 0
M  V30 3136 C 288.714 1.59988 0.161418 0
M  V30 3137 O 289.904 1.74071 -0.0669575 0
M  V30 3138 C 287.036 3.4003 -0.243354 0
M  V30 3139 H 288.229 2.42425 -1.7655 0
M  V30 3140 H 285.782 1.24101 -0.950189 0
M  V30 3141 H 286.517 3.16726 0.696807 0
M  V30 3142 H 286.302 3.80157 -0.960367 0
M  V30 3143 H 287.792 4.17577 -0.0436242 0
M  V30 3144 N 288.23 0.939286 1.26551 0
M  V30 3145 C 289.641 0.628782 1.75793 0
M  V30 3146 C 289.992 -0.856046 1.7654 0
M  V30 3147 O 289.117 -1.66994 1.3763 0
M  V30 3148 C 289.712 1.13465 3.19235 0
M  V30 3149 C 288.271 0.874601 3.66098 0
M  V30 3150 C 287.418 1.28667 2.45642 0
M  V30 3151 H 290.369 1.1178 1.12654 0
M  V30 3152 H 290.39 0.487609 3.77363 0
M  V30 3153 H 289.902 2.21535 3.1866 0
M  V30 3154 H 288.003 -0.191793 3.72106 0
M  V30 3155 H 288.116 1.50028 4.55004 0
M  V30 3156 H 286.48 0.705109 2.44745 0
M  V30 3157 H 287.263 2.37625 2.47769 0
M  V30 3158 N 289.708 -1.40897 0.706093 0
M  V30 3159 C 290.618 -2.3455 0.0482286 0
M  V30 3160 C 291.634 -1.56796 -0.754396 0
M  V30 3161 O 292.81 -1.89228 -0.689538 0
M  V30 3162 C 289.875 -3.35625 -0.869303 0
M  V30 3163 C 288.936 -4.29261 -0.0576994 0
M  V30 3164 C 288.169 -5.25508 -0.931531 0
M  V30 3165 O 288.392 -5.27472 -2.17092 0
M  V30 3166 O 287.326 -6.00727 -0.375587 0
M  V30 3167 H 291.152 -2.92407 0.820476 0
M  V30 3168 H 288.737 -1.4193 0.4665 0
M  V30 3169 H 290.619 -3.97635 -1.39514 0
M  V30 3170 H 289.294 -2.80196 -1.62086 0
M  V30 3171 H 288.201 -3.70566 0.512988 0
M  V30 3172 H 289.534 -4.87817 0.655426 0
M  V30 3173 N 291.186 -0.45159 -1.50991 0
M  V30 3174 C 292.435 0.111653 -2.01391 0
M  V30 3175 C 292.748 1.42529 -1.33959 0
M  V30 3176 O 293.954 2.07232 -1.75405 0
M  V30 3177 C 292.41 0.249514 -3.59034 0
M  V30 3178 C 292.018 -1.05453 -4.35412 0
M  V30 3179 C 293.762 0.765762 -4.17536 0
M  V30 3180 C 291.669 -0.881529 -5.84793 0
M  V30 3181 H 290.599 0.0455022 -0.752626 0
M  V30 3182 H 293.25 -0.583524 -1.73975 0
M  V30 3183 H 291.632 1.00803 -3.82955 0
M  V30 3184 H 292.806 -1.82248 -4.23229 0
M  V30 3185 H 291.121 -1.50039 -3.88429 0
M  V30 3186 H 293.718 0.911913 -5.26866 0
M  V30 3187 H 294.061 1.75201 -3.77638 0
M  V30 3188 H 294.594 0.0651744 -3.97747 0
M  V30 3189 H 291.333 -1.84057 -6.29129 0
M  V30 3190 H 290.853 -0.153625 -5.99603 0
M  V30 3191 H 292.532 -0.540363 -6.4474 0
M  V30 3192 N 292.664 1.56529 -0.183458 0
M  V30 3193 C 293.597 2.14417 0.781052 0
M  V30 3194 C 294.575 1.07761 1.21763 0
M  V30 3195 O 295.759 1.35807 1.30724 0
M  V30 3196 C 292.886 2.69361 2.05335 0
M  V30 3197 C 291.932 3.885 1.75982 0
M  V30 3198 S 292.765 5.27568 0.918256 0
M  V30 3199 C 293.921 5.85926 2.20095 0
M  V30 3200 H 294.154 2.95893 0.2889 0
M  V30 3201 H 291.687 1.54368 0.0313844 0
M  V30 3202 H 293.645 3.01662 2.78406 0
M  V30 3203 H 292.306 1.87949 2.51663 0
M  V30 3204 H 291.499 4.25314 2.70415 0
M  V30 3205 H 291.101 3.57149 1.10999 0
M  V30 3206 H 293.393 5.99579 3.15453 0
M  V30 3207 H 294.336 6.82761 1.87731 0
M  V30 3208 H 294.744 5.14438 2.32409 0
M  V30 3209 N 294.142 -0.090211 1.57342 0
M  V30 3210 C 295.072 -1.10976 2.05443 0
M  V30 3211 C 296.053 -1.41482 0.944284 0
M  V30 3212 O 297.238 -1.51428 1.21586 0
M  V30 3213 C 294.368 -2.42831 2.48295 0
M  V30 3214 C 293.322 -2.26721 3.63018 0
M  V30 3215 C 292.648 -3.63796 3.91863 0
M  V30 3216 C 293.948 -1.7037 4.93732 0
M  V30 3217 H 295.642 -0.709564 2.9087 0
M  V30 3218 H 293.188 -0.339874 1.39932 0
M  V30 3219 H 295.141 -3.14431 2.80555 0
M  V30 3220 H 293.865 -2.84795 1.59873 0
M  V30 3221 H 292.524 -1.57565 3.31012 0
M  V30 3222 H 292.172 -4.03297 3.00601 0
M  V30 3223 H 291.872 -3.53861 4.69101 0
M  V30 3224 H 293.396 -4.36855 4.26603 0
M  V30 3225 H 294.81 -2.31816 5.24342 0
M  V30 3226 H 293.207 -1.71181 5.75167 0
M  V30 3227 H 294.277 -0.663542 4.80339 0
M  V30 3228 N 295.62 -1.53406 -0.361157 0
M  V30 3229 C 296.568 -1.80832 -1.46296 0
M  V30 3230 C 297.562 -0.677699 -1.55253 0
M  V30 3231 O 298.768 -0.860723 -1.58087 0
M  V30 3232 H 295.143 -0.572627 -0.487445 0
M  V30 3233 H 297.114 -2.73045 -1.20371 0
M  V30 3234 C 295.863 -2.01907 -2.8307 0
M  V30 3235 H 295.186 -2.88349 -2.76938 0
M  V30 3236 H 296.626 -2.25072 -3.59331 0
M  V30 3237 C 295.085 -0.799449 -3.27277 0
M  V30 3238 O 295.615 0.00971761 -4.01699 0
M  V30 3239 N 293.821 -0.621637 -2.83873 0
M  V30 3240 H 293.368 -1.28126 -2.23476 0
M  V30 3241 H 293.326 0.19298 -3.13807 0
M  V30 3242 N 297.098 0.621204 -1.44841 0
M  V30 3243 C 298.323 1.41244 -1.51871 0
M  V30 3244 C 298.748 1.87519 -0.147764 0
M  V30 3245 O 298.106 1.59334 0.865 0
M  V30 3246 C 298.154 2.60221 -2.49634 0
M  V30 3247 O 297.258 3.60395 -2.00473 0
M  V30 3248 H 296.599 0.42223 -0.512463 0
M  V30 3249 H 299.129 0.757305 -1.90069 0
M  V30 3250 H 299.139 3.0764 -2.67996 0
M  V30 3251 H 297.814 2.25887 -3.4921 0
M  V30 3252 H 296.391 3.19717 -1.91925 0
M  V30 3253 N 298.576 1.31904 0.862503 0
M  V30 3254 C 299.523 1.20182 1.9704 0
M  V30 3255 C 300.493 0.0858247 1.65878 0
M  V30 3256 O 301.678 0.26 1.8902 0
M  V30 3257 C 298.818 0.922797 3.32533 0
M  V30 3258 C 297.931 2.12284 3.76244 0
M  V30 3259 C 297.066 1.77996 5.00491 0
M  V30 3260 C 296.105 2.94366 5.36671 0
M  V30 3261 N 295.242 2.60223 6.52095 0
M  V30 3262 H 300.082 2.14951 2.06398 0
M  V30 3263 H 297.619 1.06917 1.01031 0
M  V30 3264 H 299.577 0.741548 4.10557 0
M  V30 3265 H 298.207 0.0119227 3.22798 0
M  V30 3266 H 297.259 2.41461 2.9394 0
M  V30 3267 H 298.571 2.99357 3.98982 0
M  V30 3268 H 297.725 1.56377 5.862 0
M  V30 3269 H 296.464 0.881252 4.79672 0
M  V30 3270 H 295.469 3.16625 4.49476 0
M  V30 3271 H 296.694 3.84957 5.59451 0
M  V30 3272 H 294.64 1.72884 6.32809 0
M  V30 3273 H 294.557 3.40827 6.74814 0
M  V30 3274 H 295.825 2.42016 7.40978 0
M  V30 3275 N 300.054 -1.07777 1.14986 0
M  V30 3276 C 301.302 -1.79934 0.920235 0
M  V30 3277 C 301.623 -1.86955 -0.554336 0
M  V30 3278 O 300.893 -1.36731 -1.40291 0
M  V30 3279 H 299.473 -0.666424 0.337473 0
M  V30 3280 H 302.135 -1.3027 1.44968 0
M  V30 3281 H 301.231 -2.82539 1.32583 0
M  V30 3282 N 301.532 -0.945985 -1.26051 0
M  V30 3283 C 302.762 -0.612136 -1.97323 0
M  V30 3284 C 303.17 0.818171 -1.70595 0
M  V30 3285 O 302.513 1.55777 -0.973613 0
M  V30 3286 C 302.575 -0.780347 -3.50929 0
M  V30 3287 C 302.239 -2.18619 -4.01317 0
M  V30 3288 C 303.236 -3.16209 -4.12683 0
M  V30 3289 C 300.921 -2.50805 -4.35203 0
M  V30 3290 C 302.915 -4.44085 -4.57238 0
M  V30 3291 C 300.602 -3.78912 -4.79446 0
M  V30 3292 C 301.6 -4.75365 -4.90425 0
M  V30 3293 O 301.288 -6.01191 -5.3369 0
M  V30 3294 H 301.02 -0.229134 -0.635982 0
M  V30 3295 H 303.574 -1.27036 -1.61404 0
M  V30 3296 H 301.804 -0.0649864 -3.86645 0
M  V30 3297 H 303.493 -0.448842 -4.03411 0
M  V30 3298 H 304.259 -2.92668 -3.86744 0
M  V30 3299 H 300.138 -1.76463 -4.2589 0
M  V30 3300 H 303.682 -5.19373 -4.65723 0
M  V30 3301 H 299.579 -4.02265 -5.0483 0
M  V30 3302 H 300.347 -6.04442 -5.51899 0
M  V30 3303 N 303.011 1.40521 -0.713556 0
M  V30 3304 C 304.239 2.05237 -0.261775 0
M  V30 3305 C 304.654 1.53755 1.09567 0
M  V30 3306 O 304.011 0.693268 1.6882 0
M  V30 3307 C 304.062 3.60763 -0.230706 0
M  V30 3308 O 303.783 4.10345 -1.53455 0
M  V30 3309 C 305.284 4.42651 0.239874 0
M  V30 3310 H 302.504 0.660533 -0.118057 0
M  V30 3311 H 305.048 1.79967 -0.971192 0
M  V30 3312 H 303.203 3.8501 0.429661 0
M  V30 3313 H 303.617 5.04526 -1.43366 0
M  V30 3314 H 305.091 5.51599 0.210468 0
M  V30 3315 H 305.568 4.20082 1.28171 0
M  V30 3316 H 306.174 4.23507 -0.390142 0
M  V30 3317 N 304.489 0.459591 1.5075 0
M  V30 3318 C 305.436 -0.340524 2.28274 0
M  V30 3319 C 306.406 -0.997371 1.32822 0
M  V30 3320 O 307.591 -1.01202 1.61749 0
M  V30 3321 C 304.731 -1.42317 3.14388 0
M  V30 3322 C 303.844 -0.782251 4.24859 0
M  V30 3323 C 302.979 -1.84182 4.98247 0
M  V30 3324 C 302.018 -1.18053 6.00608 0
M  V30 3325 N 301.155 -2.18244 6.67319 0
M  V30 3326 H 305.995 0.326899 2.96202 0
M  V30 3327 H 303.532 0.173057 1.46078 0
M  V30 3328 H 305.49 -2.06241 3.62658 0
M  V30 3329 H 304.12 -2.05992 2.4853 0
M  V30 3330 H 303.172 -0.0307404 3.80388 0
M  V30 3331 H 304.484 -0.259663 4.98124 0
M  V30 3332 H 303.638 -2.55714 5.50177 0
M  V30 3333 H 302.377 -2.39819 4.24662 0
M  V30 3334 H 301.382 -0.450776 5.47949 0
M  V30 3335 H 302.607 -0.631202 6.7616 0
M  V30 3336 H 300.553 -2.72919 5.96533 0
M  V30 3337 H 300.47 -1.70938 7.36421 0
M  V30 3338 H 301.738 -2.89191 7.23871 0
M  V30 3339 N 305.967 -1.56429 0.191757 0
M  V30 3340 C 307.192 -2.02309 -0.456706 0
M  V30 3341 C 307.617 -1.07103 -1.5463 0
M  V30 3342 O 306.975 -0.0539677 -1.8122 0
M  V30 3343 C 307.023 -3.46654 -0.993159 0
M  V30 3344 O 306.127 -3.54559 -2.10622 0
M  V30 3345 H 305.468 -0.655303 -0.107114 0
M  V30 3346 H 307.998 -2.02364 0.301653 0
M  V30 3347 H 308.008 -3.86377 -1.31061 0
M  V30 3348 H 306.683 -4.1544 -0.195504 0
M  V30 3349 H 305.26 -3.26708 -1.79767 0
M  V30 3350 N 307.445 0.0818655 -1.57387 0
M  V30 3351 C 308.694 0.781681 -1.85937 0
M  V30 3352 C 309.007 1.79246 -0.782957 0
M  V30 3353 O 310.213 2.54112 -0.955987 0
M  V30 3354 C 308.669 1.44109 -3.29789 0
M  V30 3355 C 308.277 0.469396 -4.45534 0
M  V30 3356 C 310.021 2.12386 -3.67549 0
M  V30 3357 C 307.928 1.13415 -5.80423 0
M  V30 3358 H 306.858 0.295682 -0.693605 0
M  V30 3359 H 309.509 0.0348051 -1.83467 0
M  V30 3360 H 307.891 2.23588 -3.2684 0
M  V30 3361 H 309.065 -0.294856 -4.59856 0
M  V30 3362 H 307.38 -0.108383 -4.16259 0
M  V30 3363 H 309.977 2.62878 -4.65617 0
M  V30 3364 H 310.32 2.91877 -2.96839 0
M  V30 3365 H 310.853 1.39751 -3.72444 0
M  V30 3366 H 307.592 0.379771 -6.54399 0
M  V30 3367 H 307.112 1.8695 -5.69921 0
M  V30 3368 H 308.791 1.65686 -6.25426 0
M  V30 3369 N 308.923 1.53595 0.353017 0
M  V30 3370 C 310.2 1.61002 1.11075 0
M  V30 3371 C 310.58 0.425356 2.0677 0
M  V30 3372 O 309.928 -0.583267 2.2093 0
M  V30 3373 C 310.138 2.96631 1.83877 0
M  V30 3374 C 311.486 3.51653 2.37961 0
M  V30 3375 O 312.51 2.98743 1.93987 0
M  V30 3376 O 311.369 4.44177 3.18386 0
M  V30 3377 H 308.463 0.650825 0.510251 0
M  V30 3378 H 311.009 1.6594 0.35527 0
M  V30 3379 H 309.781 3.74293 1.14108 0
M  V30 3380 H 309.404 2.95242 2.66304 0
M  V30 3381 N 310.401 -0.613514 1.45168 0
M  V30 3382 C 311.65 -1.36874 1.4815 0
M  V30 3383 C 311.963 -1.952 0.124982 0
M  V30 3384 O 313.169 -2.71481 0.0324176 0
M  V30 3385 C 311.625 -2.47905 2.60904 0
M  V30 3386 C 311.233 -1.96016 4.02842 0
M  V30 3387 C 312.977 -3.24965 2.73126 0
M  V30 3388 C 310.884 -3.04494 5.06988 0
M  V30 3389 H 309.814 -0.514428 0.551253 0
M  V30 3390 H 312.465 -0.658182 1.7129 0
M  V30 3391 H 310.847 -3.21618 2.31037 0
M  V30 3392 H 312.021 -1.29051 4.4236 0
M  V30 3393 H 310.336 -1.31719 3.95018 0
M  V30 3394 H 312.933 -4.05865 3.48106 0
M  V30 3395 H 313.276 -3.75588 1.79553 0
M  V30 3396 H 313.809 -2.5835 3.0249 0
M  V30 3397 H 310.548 -2.58795 6.0225 0
M  V30 3398 H 310.068 -3.70044 4.72046 0
M  V30 3399 H 311.747 -3.68976 5.31475 0
M  V30 3400 N 311.879 -1.3236 -0.855495 0
M  V30 3401 C 313.125 -1.24064 -1.61182 0
M  V30 3402 C 313.48 0.195914 -1.914 0
M  V30 3403 O 312.773 1.13345 -1.54478 0
M  V30 3404 C 312.967 -2.03275 -2.93963 0
M  V30 3405 C 312.796 -3.54486 -2.76712 0
M  V30 3406 C 311.566 -4.23824 -2.75139 0
M  V30 3407 C 313.764 -4.49154 -2.50531 0
M  V30 3408 N 311.746 -5.61095 -2.4909 0
M  V30 3409 C 313.117 -5.74195 -2.3388 0
M  V30 3410 C 315.172 -4.3842 -2.35992 0
M  V30 3411 C 313.875 -6.89716 -2.04168 0
M  V30 3412 C 315.901 -5.53739 -2.0767 0
M  V30 3413 C 315.263 -6.77779 -1.9182 0
M  V30 3414 H 311.362 -0.509139 -0.59355 0
M  V30 3415 H 313.946 -1.66715 -1.00569 0
M  V30 3416 H 312.117 -1.6297 -3.52555 0
M  V30 3417 H 313.849 -1.86881 -3.58967 0
M  V30 3418 H 310.604 -3.75934 -2.88047 0
M  V30 3419 H 311.028 -6.33411 -2.38996 0
M  V30 3420 H 315.67 -3.43172 -2.46967 0
M  V30 3421 H 313.388 -7.84977 -1.9193 0
M  V30 3422 H 316.974 -5.4736 -1.97201 0
M  V30 3423 H 315.854 -7.65504 -1.70217 0
M  V30 3424 N 313.357 1.07166 -1.15556 0
M  V30 3425 C 314.582 1.84053 -0.955988 0
M  V30 3426 C 315.007 1.81586 0.490739 0
M  V30 3427 O 314.365 1.21018 1.34997 0
M  V30 3428 C 314.413 3.28957 -1.47714 0
M  V30 3429 O 313.517 4.06795 -0.677593 0
M  V30 3430 H 312.858 0.569842 -0.340847 0
M  V30 3431 H 315.388 1.35178 -1.53584 0
M  V30 3432 H 315.398 3.79788 -1.4908 0
M  V30 3433 H 314.073 3.30068 -2.53037 0
M  V30 3434 H 312.65 3.6561 -0.733721 0
M  V30 3435 N 314.835 0.952656 1.25548 0
M  V30 3436 C 316.081 0.607272 1.93494 0
M  V30 3437 C 316.414 -0.853245 1.74452 0
M  V30 3438 O 315.689 -1.61194 1.08843 0
M  V30 3439 C 315.972 0.96435 3.46947 0
M  V30 3440 C 315.825 2.48045 3.75225 0
M  V30 3441 C 317.144 0.487987 4.37386 0
M  V30 3442 H 314.263 0.222096 0.702739 0
M  V30 3443 H 316.905 1.18895 1.48203 0
M  V30 3444 H 315.055 0.469361 3.85654 0
M  V30 3445 H 316.727 3.04905 3.46166 0
M  V30 3446 H 314.97 2.919 3.209 0
M  V30 3447 H 315.641 2.6808 4.82532 0
M  V30 3448 H 318.117 0.912558 4.0597 0
M  V30 3449 H 316.993 0.766547 5.43521 0
M  V30 3450 H 317.254 -0.612063 4.37843 0
M  V30 3451 N 316.313 -1.40141 0.720998 0
M  V30 3452 C 317.561 -2.0039 0.262323 0
M  V30 3453 C 317.882 -1.57469 -1.15015 0
M  V30 3454 O 317.152 -0.816582 -1.78069 0
M  V30 3455 H 315.732 -0.741063 0.093996 0
M  V30 3456 H 318.394 -1.71398 0.927835 0
M  V30 3457 H 317.49 -3.10658 0.299671 0
M  V30 3458 N 317.792 -0.46758 -1.50504 0
M  V30 3459 C 319.032 0.0874114 -2.04213 0
M  V30 3460 C 319.396 1.37301 -1.34211 0
M  V30 3461 O 320.597 2.01015 -1.78456 0
M  V30 3462 C 318.868 0.270571 -3.56374 0
M  V30 3463 S 320.427 0.784623 -4.31728 0
M  V30 3464 H 317.245 0.0176153 -0.710782 0
M  V30 3465 H 319.847 -0.633915 -1.84937 0
M  V30 3466 H 318.551 -0.670942 -4.04878 0
M  V30 3467 H 318.082 1.01811 -3.79997 0
M  V30 3468 H 320.097 2.05849 -4.51487 0
M  V30 3469 N 319.27 1.56325 -0.20005 0
M  V30 3470 C 320.519 1.96895 0.437652 0
M  V30 3471 C 320.832 1.08999 1.62415 0
M  V30 3472 O 322.038 1.39372 2.32997 0
M  V30 3473 C 320.494 3.50198 0.830025 0
M  V30 3474 C 320.102 4.46765 -0.332461 0
M  V30 3475 C 321.846 3.99526 1.43453 0
M  V30 3476 C 319.753 5.91344 0.0811468 0
M  V30 3477 H 318.683 0.735209 0.167282 0
M  V30 3478 H 321.334 1.81148 -0.292853 0
M  V30 3479 H 319.716 3.61467 1.61734 0
M  V30 3480 H 320.89 4.47231 -1.11 0
M  V30 3481 H 319.205 4.07657 -0.848789 0
M  V30 3482 H 321.802 5.05025 1.75652 0
M  V30 3483 H 322.145 3.44122 2.34277 0
M  V30 3484 H 322.678 3.91393 0.71109 0
M  V30 3485 H 319.417 6.50685 -0.793033 0
M  V30 3486 H 318.937 5.94121 0.823445 0
M  V30 3487 H 320.616 6.44945 0.515252 0
M  V30 3488 N 320.748 -0.0735177 1.57428 0
M  V30 3489 C 321.678 -1.0879 2.06608 0
M  V30 3490 C 322.659 -1.40473 0.959237 0
M  V30 3491 O 323.844 -1.5013 1.23185 0
M  V30 3492 C 320.974 -2.40183 2.50857 0
M  V30 3493 C 319.928 -2.22858 3.65402 0
M  V30 3494 C 319.254 -3.59619 3.957 0
M  V30 3495 C 320.554 -1.65123 4.95511 0
M  V30 3496 H 322.248 -0.678673 2.91607 0
M  V30 3497 H 319.794 -0.325013 1.40284 0
M  V30 3498 H 321.747 -3.11437 2.83874 0
M  V30 3499 H 320.471 -2.83083 1.62885 0
M  V30 3500 H 319.13 -1.54045 3.32664 0
M  V30 3501 H 318.778 -4.00086 3.04861 0
M  V30 3502 H 318.478 -3.48866 4.72828 0
M  V30 3503 H 320.002 -4.32306 4.31212 0
M  V30 3504 H 321.416 -2.26241 5.26771 0
M  V30 3505 H 319.813 -1.65071 5.7695 0
M  V30 3506 H 320.883 -0.612559 4.81015 0
M  V30 3507 N 322.226 -1.5378 -0.344866 0
M  V30 3508 C 323.189 -1.80981 -1.40637 0
M  V30 3509 C 324.189 -0.680816 -1.45676 0
M  V30 3510 O 325.379 -0.949095 -1.46075 0
M  V30 3511 C 322.511 -1.95063 -2.79577 0
M  V30 3512 H 323.704 -2.75803 -1.17783 0
M  V30 3513 H 321.257 -1.45173 -0.579181 0
M  V30 3514 H 321.992 -1.02379 -3.07716 0
M  V30 3515 H 321.777 -2.77198 -2.77315 0
M  V30 3516 H 323.267 -2.17629 -3.56409 0
M  V30 3517 N 323.704 0.605807 -1.45491 0
M  V30 3518 C 324.614 1.74466 -1.56839 0
M  V30 3519 C 325.63 1.68006 -0.452772 0
M  V30 3520 O 326.806 1.8833 -0.713708 0
M  V30 3521 C 323.871 3.10931 -1.53371 0
M  V30 3522 C 322.932 3.28832 -2.75986 0
M  V30 3523 C 322.165 4.58787 -2.72673 0
M  V30 3524 O 322.388 5.4122 -1.80102 0
M  V30 3525 O 321.322 4.79438 -3.63899 0
M  V30 3526 H 325.148 1.67843 -2.53106 0
M  V30 3527 H 322.733 0.770108 -1.28022 0
M  V30 3528 H 324.615 3.92233 -1.54051 0
M  V30 3529 H 323.29 3.18042 -0.602572 0
M  V30 3530 H 322.197 2.47112 -2.80867 0
M  V30 3531 H 323.53 3.26599 -3.68231 0
M  V30 3532 N 325.182 1.32811 0.848464 0
M  V30 3533 C 326.115 1.16601 1.96162 0
M  V30 3534 C 327.093 0.0638855 1.62474 0
M  V30 3535 O 328.277 0.224348 1.8716 0
M  V30 3536 C 325.404 0.786333 3.29446 0
M  V30 3537 C 324.45 1.89459 3.8211 0
M  V30 3538 S 325.283 3.50395 4.04949 0
M  V30 3539 C 326.439 3.14413 5.41198 0
M  V30 3540 H 326.672 2.10832 2.09612 0
M  V30 3541 H 324.205 1.17543 1.00115 0
M  V30 3542 H 326.163 0.574044 4.06466 0
M  V30 3543 H 324.824 -0.137218 3.138 0
M  V30 3544 H 324.017 1.58207 4.78526 0
M  V30 3545 H 323.619 2.06304 3.11953 0
M  V30 3546 H 325.911 2.64642 6.23675 0
M  V30 3547 H 326.854 4.09874 5.77416 0
M  V30 3548 H 327.262 2.51266 5.05495 0
M  V30 3549 N 326.66 -1.06551 1.16123 0
M  V30 3550 C 327.59 -2.15935 0.88851 0
M  V30 3551 C 328.571 -1.69306 -0.164135 0
M  V30 3552 O 329.756 -1.94193 -0.0167857 0
M  V30 3553 C 326.886 -3.45149 0.385942 0
M  V30 3554 C 325.84 -4.05271 1.3762 0
M  V30 3555 C 325.166 -5.29664 0.732137 0
M  V30 3556 C 326.466 -4.44355 2.74493 0
M  V30 3557 H 328.16 -2.39006 1.80323 0
M  V30 3558 H 325.706 -1.14866 0.868435 0
M  V30 3559 H 327.659 -4.21004 0.182647 0
M  V30 3560 H 326.383 -3.21689 -0.564274 0
M  V30 3561 H 325.042 -3.3147 1.56599 0
M  V30 3562 H 324.69 -5.02499 -0.224483 0
M  V30 3563 H 324.39 -5.70848 1.39307 0
M  V30 3564 H 325.914 -6.08218 0.538802 0
M  V30 3565 H 327.328 -5.11303 2.59311 0
M  V30 3566 H 325.725 -4.96515 3.37035 0
M  V30 3567 H 326.795 -3.55339 3.29943 0
M  V30 3568 N 328.138 -0.959301 -1.25041 0
M  V30 3569 C 329.363 -0.633507 -1.97488 0
M  V30 3570 C 329.788 0.788555 -1.70773 0
M  V30 3571 O 329.146 1.53394 -0.966431 0
M  V30 3572 C 329.194 -0.904057 -3.49083 0
M  V30 3573 O 328.298 0.0147939 -4.12397 0
M  V30 3574 H 327.639 -0.240368 -0.618966 0
M  V30 3575 H 330.169 -1.28717 -1.59038 0
M  V30 3576 H 330.179 -0.832203 -3.99423 0
M  V30 3577 H 328.854 -1.94048 -3.67856 0
M  V30 3578 H 327.431 -0.109664 -3.72739 0
M  V30 3579 N 329.616 1.39756 -0.72842 0
M  V30 3580 C 330.564 2.32485 -0.0731849 0
M  V30 3581 C 331.558 1.52717 0.733063 0
M  V30 3582 O 332.764 1.68428 0.634988 0
M  V30 3583 H 329.139 0.751984 -0.00486469 0
M  V30 3584 H 331.11 2.85382 -0.871761 0
M  V30 3585 C 329.859 3.37773 0.824908 0
M  V30 3586 H 329.182 3.99227 0.213915 0
M  V30 3587 H 330.622 4.05121 1.25111 0
M  V30 3588 C 329.081 2.74287 1.95622 0
M  V30 3589 O 329.611 2.61618 3.04826 0
M  V30 3590 N 327.817 2.32475 1.74367 0
M  V30 3591 H 327.364 2.4298 0.855494 0
M  V30 3592 H 327.322 1.90337 2.50238 0
M  V30 3593 N 331.094 0.475555 1.50254 0
M  V30 3594 C 332.51 0.12997 1.5907 0
M  V30 3595 C 332.71 -1.36385 1.48328 0
M  V30 3596 O 331.766 -2.13754 1.34407 0
M  V30 3597 C 333.079 0.684139 2.92814 0
M  V30 3598 C 334.627 0.647965 3.0622 0
M  V30 3599 C 335.102 1.17975 4.42545 0
M  V30 3600 N 336.593 1.13936 4.48969 0
M  V30 3601 C 337.328 1.52129 5.52851 0
M  V30 3602 N 336.824 1.97793 6.63965 0
M  V30 3603 N 338.617 1.43704 5.4342 0
M  V30 3604 H 330.768 1.44706 1.55479 0
M  V30 3605 H 333.031 0.598691 0.735033 0
M  V30 3606 H 332.737 1.73079 3.06164 0
M  V30 3607 H 332.611 0.130204 3.76975 0
M  V30 3608 H 334.998 -0.38979 2.92514 0
M  V30 3609 H 335.079 1.23876 2.23805 0
M  V30 3610 H 334.723 2.21616 4.57 0
M  V30 3611 H 334.653 0.565138 5.23559 0
M  V30 3612 H 337.144 0.804488 3.69238 0
M  V30 3613 H 337.457 2.25072 7.39299 0
M  V30 3614 H 335.802 2.01749 6.65073 0
M  V30 3615 H 338.993 1.07867 4.55502 0
M  V30 3616 H 339.166 1.73794 6.24259 0
M  V30 3617 N 332.573 -1.56217 0.208337 0
M  V30 3618 C 333.984 -1.84243 -0.301904 0
M  V30 3619 C 334.335 -1.12939 -1.60434 0
M  V30 3620 O 333.46 -0.39461 -2.12772 0
M  V30 3621 C 334.055 -3.34231 -0.554543 0
M  V30 3622 C 332.614 -3.62621 -1.00912 0
M  V30 3623 C 331.761 -2.77224 -0.064933 0
M  V30 3624 H 334.712 -1.52712 0.431833 0
M  V30 3625 H 334.733 -3.5372 -1.40223 0
M  V30 3626 H 334.245 -3.86099 0.393561 0
M  V30 3627 H 332.346 -3.16197 -1.97104 0
M  V30 3628 H 332.459 -4.7071 -0.892674 0
M  V30 3629 H 330.823 -2.48256 -0.56929 0
M  V30 3630 H 331.606 -3.31887 0.877851 0
M  V30 3631 N 334.051 0.0651679 -1.57465 0
M  V30 3632 C 335.3 0.761916 -1.86756 0
M  V30 3633 C 335.613 1.78406 -0.801925 0
M  V30 3634 O 336.819 2.53084 -0.982885 0
M  V30 3635 C 335.275 1.40603 -3.31299 0
M  V30 3636 C 334.883 0.422115 -4.46007 0
M  V30 3637 C 336.627 2.08476 -3.69781 0
M  V30 3638 C 334.534 1.07252 -5.81593 0
M  V30 3639 H 333.464 0.288308 -0.696702 0
M  V30 3640 H 336.115 0.015344 -1.83494 0
M  V30 3641 H 334.497 2.20109 -3.29193 0
M  V30 3642 H 335.671 -0.343613 -4.59517 0
M  V30 3643 H 333.986 -0.152527 -4.16121 0
M  V30 3644 H 336.583 2.57925 -4.68379 0
M  V30 3645 H 336.926 2.88712 -2.99919 0
M  V30 3646 H 337.459 1.35792 -3.73905 0
M  V30 3647 H 334.198 0.310342 -6.54765 0
M  V30 3648 H 333.718 1.80895 -5.71872 0
M  V30 3649 H 335.397 1.59043 -6.27148 0
M  V30 3650 N 335.529 1.53961 0.336706 0
M  V30 3651 C 336.776 1.71536 1.07618 0
M  V30 3652 C 337.104 0.482125 1.8843 0
M  V30 3653 O 336.359 -0.536142 1.88213 0
M  V30 3654 C 336.658 2.93493 2.03953 0
M  V30 3655 C 336.324 4.28811 1.39399 0
M  V30 3656 C 334.986 4.65602 1.21523 0
M  V30 3657 C 337.338 5.12844 0.929541 0
M  V30 3658 C 334.666 5.84037 0.558312 0
M  V30 3659 C 337.018 6.31951 0.286505 0
M  V30 3660 C 335.682 6.67432 0.0954869 0
M  V30 3661 H 334.952 0.627696 0.393801 0
M  V30 3662 H 337.599 1.88186 0.354715 0
M  V30 3663 H 335.904 2.71475 2.82504 0
M  V30 3664 H 337.601 3.04285 2.61174 0
M  V30 3665 H 334.191 3.99858 1.54311 0
M  V30 3666 H 338.375 4.84947 1.05548 0
M  V30 3667 H 333.631 6.10097 0.398995 0
M  V30 3668 H 337.805 6.96352 -0.0814376 0
M  V30 3669 H 335.432 7.59063 -0.415579 0
M  V30 3670 N 337.007 -0.598083 1.45811 0
M  V30 3671 C 338.418 -1.18011 1.44673 0
M  V30 3672 C 338.769 -1.95378 0.179364 0
M  V30 3673 O 337.894 -2.04124 -0.718509 0
M  V30 3674 C 338.489 -2.14677 2.62105 0
M  V30 3675 C 337.048 -2.68236 2.64057 0
M  V30 3676 C 336.195 -1.43816 2.37091 0
M  V30 3677 H 339.146 -0.38686 1.53913 0
M  V30 3678 H 339.167 -2.97878 2.36746 0
M  V30 3679 H 338.679 -1.5834 3.5433 0
M  V30 3680 H 336.78 -3.28486 1.75864 0
M  V30 3681 H 336.893 -3.12021 3.63566 0
M  V30 3682 H 335.257 -1.731 1.86838 0
M  V30 3683 H 336.04 -0.893333 3.31473 0
M  V30 3684 N 338.485 -1.33259 -0.841409 0
M  V30 3685 C 339.733 -1.24326 -1.59334 0
M  V30 3686 C 340.054 0.191564 -1.94057 0
M  V30 3687 O 339.324 1.11967 -1.60749 0
M  V30 3688 H 337.904 -0.457174 -0.590763 0
M  V30 3689 H 340.566 -1.66947 -1.00571 0
M  V30 3690 H 339.662 -1.8352 -2.52442 0
M  V30 3691 N 339.963 1.05934 -1.16686 0
M  V30 3692 C 340.91 2.13499 -0.876748 0
M  V30 3693 C 341.88 1.65162 0.176299 0
M  V30 3694 O 343.065 1.90757 0.0407143 0
M  V30 3695 C 340.205 3.42912 -0.387967 0
M  V30 3696 C 339.318 4.04964 -1.50426 0
M  V30 3697 C 338.453 5.22266 -0.970125 0
M  V30 3698 C 337.492 5.76309 -2.06238 0
M  V30 3699 N 336.629 6.84922 -1.54356 0
M  V30 3700 H 341.469 2.37654 -1.7979 0
M  V30 3701 H 339.006 1.16598 -0.896843 0
M  V30 3702 H 340.964 4.17111 -0.086186 0
M  V30 3703 H 339.594 3.18963 0.496235 0
M  V30 3704 H 338.646 3.28277 -1.92193 0
M  V30 3705 H 339.958 4.41122 -2.32836 0
M  V30 3706 H 339.112 6.03506 -0.621743 0
M  V30 3707 H 337.851 4.87564 -0.115377 0
M  V30 3708 H 336.856 4.93704 -2.41942 0
M  V30 3709 H 338.081 6.13062 -2.92115 0
M  V30 3710 H 336.027 6.52131 -0.711406 0
M  V30 3711 H 335.944 7.20043 -2.30379 0
M  V30 3712 H 337.212 7.69832 -1.22387 0
M  V30 3713 N 341.441 0.965919 1.2453 0
M  V30 3714 C 342.391 0.465731 2.23193 0
M  V30 3715 C 343.375 -0.451277 1.54442 0
M  V30 3716 O 344.567 -0.282489 1.74731 0
M  V30 3717 C 341.696 -0.244511 3.42428 0
M  V30 3718 C 340.782 0.691222 4.18429 0
M  V30 3719 N 341.173 1.82771 4.71623 0
M  V30 3720 C 339.471 0.501649 4.4317 0
M  V30 3721 C 340.172 2.41285 5.29298 0
M  V30 3722 N 339.148 1.69819 5.16394 0
M  V30 3723 H 342.95 1.33291 2.61937 0
M  V30 3724 H 340.464 0.824789 1.39896 0
M  V30 3725 H 342.461 -0.620056 4.12263 0
M  V30 3726 H 341.121 -1.10815 3.05205 0
M  V30 3727 H 342.132 2.20929 4.68413 0
M  V30 3728 H 338.809 -0.318177 4.16286 0
M  V30 3729 H 340.199 3.37181 5.8117 0
M  V30 3730 N 342.919 -1.39368 0.735821 0
M  V30 3731 C 344.149 -2.04498 0.293967 0
M  V30 3732 C 344.557 -1.55593 -1.07645 0
M  V30 3733 O 343.9 -0.716324 -1.69158 0
M  V30 3734 C 343.962 -3.58836 0.218342 0
M  V30 3735 C 343.626 -4.30721 1.52736 0
M  V30 3736 C 344.623 -4.57305 2.47322 0
M  V30 3737 C 342.308 -4.69251 1.79189 0
M  V30 3738 C 344.302 -5.21429 3.66593 0
M  V30 3739 C 341.989 -5.33104 2.98737 0
M  V30 3740 C 342.987 -5.59125 3.9226 0
M  V30 3741 O 342.675 -6.21653 5.09708 0
M  V30 3742 H 342.407 -0.664118 0.126189 0
M  V30 3743 H 344.961 -1.79385 1.00051 0
M  V30 3744 H 343.191 -3.8285 -0.544314 0
M  V30 3745 H 344.88 -4.05447 -0.191626 0
M  V30 3746 H 345.646 -4.27983 2.28156 0
M  V30 3747 H 341.525 -4.48354 1.07239 0
M  V30 3748 H 345.069 -5.41656 4.39607 0
M  V30 3749 H 340.966 -5.61846 3.17803 0
M  V30 3750 H 341.734 -6.40146 5.10054 0
M  V30 3751 N 344.397 -0.483516 -1.5 0
M  V30 3752 C 345.327 0.293829 -2.31644 0
M  V30 3753 C 346.308 0.978864 -1.39112 0
M  V30 3754 O 347.493 0.973644 -1.68029 0
M  V30 3755 C 344.623 1.36897 -3.19181 0
M  V30 3756 C 343.577 0.804833 -4.20365 0
M  V30 3757 C 342.903 1.9792 -4.96721 0
M  V30 3758 C 344.203 -0.192313 -5.21946 0
M  V30 3759 H 345.897 -0.387616 -2.9688 0
M  V30 3760 H 343.443 -0.187856 -1.42769 0
M  V30 3761 H 345.396 1.92037 -3.751 0
M  V30 3762 H 344.12 2.07936 -2.51853 0
M  V30 3763 H 342.779 0.275319 -3.65565 0
M  V30 3764 H 342.427 2.67686 -4.25856 0
M  V30 3765 H 342.127 1.60789 -5.65173 0
M  V30 3766 H 343.651 2.53526 -5.55479 0
M  V30 3767 H 345.065 0.270333 -5.72662 0
M  V30 3768 H 343.462 -0.478543 -5.98189 0
M  V30 3769 H 344.532 -1.11409 -4.71928 0
M  V30 3770 N 345.875 1.56104 -0.216619 0
M  V30 3771 C 347.152 1.89988 0.465165 0
M  V30 3772 C 347.532 1.13326 1.78102 0
M  V30 3773 O 346.88 0.241033 2.27225 0
M  V30 3774 C 347.09 3.42646 0.662939 0
M  V30 3775 C 348.438 4.13311 0.972602 0
M  V30 3776 O 349.462 3.48217 0.749901 0
M  V30 3777 O 348.321 5.28396 1.39499 0
M  V30 3778 H 345.415 0.78979 0.245276 0
M  V30 3779 H 347.961 1.67721 -0.258436 0
M  V30 3780 H 346.733 3.90399 -0.26543 0
M  V30 3781 H 346.356 3.70677 1.43821 0
M  V30 3782 N 347.353 -0.0568162 1.57498 0
M  V30 3783 C 348.285 -1.09292 2.01464 0
M  V30 3784 C 349.298 -1.34112 0.922913 0
M  V30 3785 O 350.487 -1.32089 1.20062 0
M  V30 3786 C 347.587 -2.44068 2.35125 0
M  V30 3787 C 346.76 -2.38995 3.66333 0
M  V30 3788 C 345.819 -3.55997 3.87495 0
M  V30 3789 O 344.845 -3.36746 4.58901 0
M  V30 3790 N 346.047 -4.76888 3.30996 0
M  V30 3791 H 348.812 -0.718386 2.90963 0
M  V30 3792 H 346.373 -0.245235 1.60032 0
M  V30 3793 H 348.365 -3.21011 2.46443 0
M  V30 3794 H 346.935 -2.73468 1.5144 0
M  V30 3795 H 346.155 -1.47336 3.65631 0
M  V30 3796 H 347.443 -2.3272 4.52458 0
M  V30 3797 H 346.841 -4.95431 2.73065 0
M  V30 3798 H 345.398 -5.51291 3.47738 0
M  V30 3799 N 348.832 -1.54138 -0.328536 0
M  V30 3800 C 349.762 -1.86167 -1.40939 0
M  V30 3801 C 350.743 -0.718044 -1.54202 0
M  V30 3802 O 351.928 -0.971328 -1.68163 0
M  V30 3803 C 349.058 -2.08461 -2.77779 0
M  V30 3804 C 348.012 -3.24299 -2.7931 0
M  V30 3805 C 347.338 -3.31955 -4.19178 0
M  V30 3806 C 348.638 -4.62065 -2.43502 0
M  V30 3807 H 350.332 -2.76689 -1.14383 0
M  V30 3808 H 347.878 -1.33132 -0.548806 0
M  V30 3809 H 349.831 -2.29453 -3.53454 0
M  V30 3810 H 348.555 -1.14684 -3.05802 0
M  V30 3811 H 347.214 -3.03187 -2.0609 0
M  V30 3812 H 346.862 -2.35745 -4.44335 0
M  V30 3813 H 346.562 -4.09805 -4.2111 0
M  V30 3814 H 348.086 -3.55175 -4.96672 0
M  V30 3815 H 349.5 -4.8297 -3.08889 0
M  V30 3816 H 347.897 -5.42429 -2.56693 0
M  V30 3817 H 348.967 -4.64652 -1.38659 0
M  V30 3818 N 350.31 0.590341 -1.46126 0
M  V30 3819 C 351.258 1.72105 -1.5647 0
M  V30 3820 C 352.252 1.63756 -0.433612 0
M  V30 3821 O 353.458 1.69342 -0.610194 0
M  V30 3822 H 349.833 0.568889 -0.491802 0
M  V30 3823 H 351.804 1.6051 -2.51553 0
M  V30 3824 C 350.553 3.10493 -1.56491 0
M  V30 3825 H 349.876 3.17583 -2.4286 0
M  V30 3826 H 351.316 3.8939 -1.67785 0
M  V30 3827 C 349.775 3.3563 -0.292231 0
M  V30 3828 O 350.305 3.96875 0.620739 0
M  V30 3829 N 348.511 2.90026 -0.182523 0
M  V30 3830 H 348.058 2.40367 -0.926356 0
M  V30 3831 H 348.016 3.07218 0.668152 0
M  V30 3832 N 351.788 1.33704 0.83433 0
M  V30 3833 C 352.738 1.20899 1.93306 0
M  V30 3834 C 353.722 0.110783 1.60518 0
M  V30 3835 O 354.914 0.339331 1.73717 0
M  V30 3836 C 352.043 0.955018 3.29749 0
M  V30 3837 C 351.129 2.09587 3.68692 0
M  V30 3838 N 351.52 3.34621 3.79292 0
M  V30 3839 C 349.818 2.00358 3.98463 0
M  V30 3840 C 350.519 4.09472 4.13167 0
M  V30 3841 N 349.495 3.37954 4.25779 0
M  V30 3842 H 353.297 2.15665 1.99664 0
M  V30 3843 H 350.811 1.25777 1.02732 0
M  V30 3844 H 352.808 0.844208 4.08263 0
M  V30 3845 H 351.468 0.0159317 3.24696 0
M  V30 3846 H 352.479 3.69313 3.63082 0
M  V30 3847 H 349.156 1.14137 4.01596 0
M  V30 3848 H 350.546 5.17391 4.28668 0
M  V30 3849 N 353.266 -1.05314 1.17247 0
M  V30 3850 C 354.515 -1.77685 0.954521 0
M  V30 3851 C 354.828 -1.88616 -0.518025 0
M  V30 3852 O 356.034 -2.57714 -0.854144 0
M  V30 3853 C 354.49 -3.19402 1.65863 0
M  V30 3854 C 354.098 -3.16605 3.16963 0
M  V30 3855 C 355.842 -3.96237 1.52303 0
M  V30 3856 C 353.749 -4.53103 3.80068 0
M  V30 3857 H 352.679 -0.666 0.353496 0
M  V30 3858 H 355.33 -1.1805 1.40486 0
M  V30 3859 H 353.712 -3.79355 1.13602 0
M  V30 3860 H 354.886 -2.66176 3.76148 0
M  V30 3861 H 353.201 -2.53268 3.30521 0
M  V30 3862 H 355.798 -4.97157 1.96822 0
M  V30 3863 H 356.141 -4.136 0.473401 0
M  V30 3864 H 356.674 -3.42829 2.01775 0
M  V30 3865 H 353.413 -4.40946 4.85023 0
M  V30 3866 H 352.933 -5.03686 3.2567 0
M  V30 3867 H 354.612 -5.22045 3.82202 0
M  V30 3868 N 354.744 -0.972509 -1.24016 0
M  V30 3869 C 355.674 -0.525548 -2.27509 0
M  V30 3870 C 356.655 0.437262 -1.64384 0
M  V30 3871 O 357.84 0.332343 -1.91335 0
M  V30 3872 C 354.97 0.180448 -3.46831 0
M  V30 3873 C 353.924 -0.698859 -4.22256 0
M  V30 3874 C 353.25 0.138903 -5.3452 0
M  V30 3875 C 354.55 -1.98582 -4.83076 0
M  V30 3876 H 356.244 -1.39058 -2.65148 0
M  V30 3877 H 353.79 -0.67009 -1.27459 0
M  V30 3878 H 355.743 0.504387 -4.18371 0
M  V30 3879 H 354.467 1.07987 -3.08231 0
M  V30 3880 H 353.126 -1.00614 -3.52523 0
M  V30 3881 H 352.774 1.03862 -4.9216 0
M  V30 3882 H 352.474 -0.446259 -5.85903 0
M  V30 3883 H 353.998 0.457404 -6.08884 0
M  V30 3884 H 355.412 -1.72715 -5.46665 0
M  V30 3885 H 353.809 -2.5181 -5.44713 0
M  V30 3886 H 354.879 -2.67769 -4.04262 0
M  V30 3887 N 356.222 1.38976 -0.743202 0
M  V30 3888 C 357.47 1.99948 -0.29417 0
M  V30 3889 C 357.791 1.59279 1.12495 0
M  V30 3890 O 357.061 0.844808 1.76748 0
M  V30 3891 H 355.641 0.739473 -0.105774 0
M  V30 3892 H 358.303 1.699 -0.954986 0
M  V30 3893 H 357.399 3.10142 -0.349056 0
M  V30 3894 N 357.7 0.491464 1.49741 0
M  V30 3895 C 358.949 -0.0582189 2.01616 0
M  V30 3896 C 359.262 -1.38927 1.3769 0
M  V30 3897 O 360.468 -2.02509 1.80838 0
M  V30 3898 C 358.924 -0.154235 3.59569 0
M  V30 3899 C 358.532 1.1696 4.32463 0
M  V30 3900 C 360.276 -0.65479 4.1942 0
M  V30 3901 C 358.183 1.03627 5.8225 0
M  V30 3902 H 357.113 -0.0255317 0.753568 0
M  V30 3903 H 359.764 0.629445 1.72367 0
M  V30 3904 H 358.146 -0.906138 3.85493 0
M  V30 3905 H 359.32 1.93405 4.18248 0
M  V30 3906 H 357.635 1.60285 3.84315 0
M  V30 3907 H 360.232 -0.771903 5.29099 0
M  V30 3908 H 360.575 -1.65127 3.8215 0
M  V30 3909 H 361.108 0.040304 3.9778 0
M  V30 3910 H 357.847 2.00672 6.24028 0
M  V30 3911 H 357.367 0.312546 5.98985 0
M  V30 3912 H 359.046 0.711114 6.4308 0
M  V30 3913 N 359.178 -1.55987 0.224894 0
M  V30 3914 C 360.108 -2.23426 -0.678457 0
M  V30 3915 C 361.089 -1.20709 -1.19847 0
M  V30 3916 O 362.274 -1.49304 -1.24186 0
M  V30 3917 C 359.404 -2.91676 -1.88527 0
M  V30 3918 C 358.358 -4.00893 -1.49896 0
M  V30 3919 C 357.684 -4.56455 -2.78483 0
M  V30 3920 C 358.984 -5.17769 -0.686461 0
M  V30 3921 H 360.678 -2.99175 -0.116173 0
M  V30 3922 H 358.224 -1.43897 -0.054436 0
M  V30 3923 H 360.177 -3.37547 -2.5227 0
M  V30 3924 H 358.901 -2.1338 -2.47258 0
M  V30 3925 H 357.56 -3.55758 -0.884985 0
M  V30 3926 H 357.208 -3.74886 -3.35365 0
M  V30 3927 H 356.908 -5.30169 -2.53368 0
M  V30 3928 H 358.432 -5.05047 -3.43162 0
M  V30 3929 H 359.846 -5.60001 -1.22767 0
M  V30 3930 H 358.243 -5.97735 -0.532259 0
M  V30 3931 H 359.313 -4.83932 0.306196 0
M  V30 3932 N 360.656 0.0484629 -1.57525 0
M  V30 3933 C 361.904 0.741657 -1.88 0
M  V30 3934 C 362.225 1.76918 -0.820054 0
M  V30 3935 O 361.495 1.95335 0.148661 0
M  V30 3936 H 360.075 0.276908 -0.69378 0
M  V30 3937 H 362.737 0.019013 -1.94891 0
M  V30 3938 H 361.833 1.24336 -2.86264 0
M  V30 3939 N 362.134 1.5431 0.320358 0
M  V30 3940 C 363.359 1.76954 1.08175 0
M  V30 3941 C 363.784 0.518193 1.80821 0
M  V30 3942 O 363.142 -0.530411 1.73368 0
M  V30 3943 C 363.19 2.96451 2.05303 0
M  V30 3944 O 362.294 2.68221 3.13259 0
M  V30 3945 H 361.635 0.586275 0.311733 0
M  V30 3946 H 364.165 2.01342 0.363676 0
M  V30 3947 H 364.175 3.23887 2.48116 0
M  V30 3948 H 362.85 3.87196 1.51829 0
M  V30 3949 H 361.427 2.51744 2.75099 0
M  V30 3950 N 363.613 -0.582584 1.46437 0
M  V30 3951 C 365.024 -1.1647 1.45916 0
M  V30 3952 C 365.375 -1.95177 0.200077 0
M  V30 3953 O 364.5 -2.04874 -0.696819 0
M  V30 3954 C 365.095 -2.11885 2.64367 0
M  V30 3955 C 363.654 -2.65421 2.66887 0
M  V30 3956 C 362.801 -1.41294 2.38603 0
M  V30 3957 H 365.752 -0.370514 1.54314 0
M  V30 3958 H 365.773 -2.9535 2.39892 0
M  V30 3959 H 365.285 -1.54573 3.5599 0
M  V30 3960 H 363.386 -3.26602 1.79338 0
M  V30 3961 H 363.499 -3.08147 3.66854 0
M  V30 3962 H 361.863 -1.71109 1.88663 0
M  V30 3963 H 362.646 -0.858125 3.32402 0
M  V30 3964 N 365.091 -1.34144 -0.827227 0
M  V30 3965 C 366.316 -1.29476 -1.62021 0
M  V30 3966 C 366.741 0.129292 -1.87655 0
M  V30 3967 O 366.099 1.08967 -1.449 0
M  V30 3968 C 366.147 -2.08702 -2.94068 0
M  V30 3969 O 365.251 -1.45359 -3.85933 0
M  V30 3970 H 364.592 -0.444881 -0.492927 0
M  V30 3971 H 367.122 -1.76882 -1.02829 0
M  V30 3972 H 367.132 -2.19898 -3.43669 0
M  V30 3973 H 365.807 -3.12241 -2.74734 0
M  V30 3974 H 364.384 -1.42879 -3.44442 0
M  V30 3975 N 366.569 1.04691 -1.17803 0
M  V30 3976 C 367.501 2.12571 -0.857097 0
M  V30 3977 C 368.514 1.62174 0.142647 0
M  V30 3978 O 369.703 1.78301 -0.0843387 0
M  V30 3979 C 366.803 3.37915 -0.258216 0
M  V30 3980 C 365.976 4.1757 -1.30207 0
M  V30 3981 C 365.035 5.2125 -0.720029 0
M  V30 3982 O 364.061 5.51888 -1.39314 0
M  V30 3983 N 365.263 5.78466 0.485507 0
M  V30 3984 H 368.028 2.40698 -1.78562 0
M  V30 3985 H 365.589 1.20831 -1.07757 0
M  V30 3986 H 367.581 4.04442 0.144584 0
M  V30 3987 H 366.151 3.07281 0.574199 0
M  V30 3988 H 365.371 3.46458 -1.88043 0
M  V30 3989 H 366.659 4.67586 -2.00601 0
M  V30 3990 H 366.057 5.55866 1.05022 0
M  V30 3991 H 364.614 6.4649 0.830307 0
M  V30 3992 N 368.047 0.979072 1.23499 0
M  V30 3993 C 368.957 0.526431 2.28617 0
M  V30 3994 C 369.973 -0.418126 1.68901 0
M  V30 3995 O 371.149 -0.288372 1.99325 0
M  V30 3996 C 368.214 -0.165235 3.46306 0
M  V30 3997 C 367.275 0.82056 4.21385 0
M  V30 3998 C 366.508 0.161807 5.33455 0
M  V30 3999 O 366.731 -1.04742 5.60701 0
M  V30 4000 O 365.665 0.859708 5.95729 0
M  V30 4001 H 369.491 1.4006 2.69475 0
M  V30 4002 H 367.076 0.746643 1.29405 0
M  V30 4003 H 368.958 -0.553287 4.17752 0
M  V30 4004 H 367.633 -1.01419 3.07402 0
M  V30 4005 H 366.54 1.25929 3.52268 0
M  V30 4006 H 367.873 1.63828 4.64135 0
M  V30 4007 N 369.525 -1.3858 0.750561 0
M  V30 4008 C 370.802 -1.94231 0.231009 0
M  V30 4009 C 371.182 -1.68611 -1.27018 0
M  V30 4010 O 370.53 -1.02296 -2.04323 0
M  V30 4011 C 370.74 -3.44123 0.581428 0
M  V30 4012 C 372.088 -4.2116 0.539389 0
M  V30 4013 O 373.112 -3.52391 0.519541 0
M  V30 4014 O 371.971 -5.43749 0.54765 0
M  V30 4015 H 369.065 -0.825639 0.0474263 0
M  V30 4016 H 371.611 -1.4799 0.830478 0
M  V30 4017 H 370.383 -3.56267 1.61833 0
M  V30 4018 H 370.006 -3.97573 -0.0462047 0
M  V30 4019 N 371.003 -0.499398 -1.49478 0
M  V30 4020 C 371.933 0.269244 -2.31943 0
M  V30 4021 C 372.914 0.964054 -1.40143 0
M  V30 4022 O 374.099 0.955767 -1.69052 0
M  V30 4023 C 371.229 1.33504 -3.20615 0
M  V30 4024 C 370.183 0.760202 -4.21195 0
M  V30 4025 C 369.509 1.9264 -4.98792 0
M  V30 4026 C 370.809 -0.247661 -5.21712 0
M  V30 4027 H 372.503 -0.419082 -2.96452 0
M  V30 4028 H 370.049 -0.202988 -1.42562 0
M  V30 4029 H 372.002 1.88048 -3.77115 0
M  V30 4030 H 370.726 2.05253 -2.54045 0
M  V30 4031 H 369.385 0.23653 -3.65836 0
M  V30 4032 H 369.033 2.63154 -4.28671 0
M  V30 4033 H 368.733 1.54785 -5.66847 0
M  V30 4034 H 370.257 2.4762 -5.58137 0
M  V30 4035 H 371.671 0.209579 -5.72917 0
M  V30 4036 H 370.068 -0.541962 -5.97648 0
M  V30 4037 H 371.138 -1.16409 -4.7072 0
M  V30 4038 N 372.481 1.55866 -0.233164 0
M  V30 4039 C 373.429 2.22176 0.68851 0
M  V30 4040 C 374.423 1.20487 1.19076 0
M  V30 4041 O 375.629 1.38536 1.14925 0
M  V30 4042 H 372.004 0.712511 0.240483 0
M  V30 4043 H 373.975 2.98212 0.105935 0
M  V30 4044 C 372.724 2.92446 1.88071 0
M  V30 4045 H 372.047 3.70458 1.50337 0
M  V30 4046 H 373.487 3.42226 2.50314 0
M  V30 4047 C 371.946 1.95555 2.74335 0
M  V30 4048 O 372.476 1.47986 3.73447 0
M  V30 4049 N 370.682 1.62953 2.40613 0
M  V30 4050 H 370.229 2.01831 1.60069 0
M  V30 4051 H 370.187 0.983886 2.98609 0
M  V30 4052 N 373.959 -0.0401083 1.57549 0
M  V30 4053 C 375.199 -0.738098 1.90608 0
M  V30 4054 C 375.563 -1.73107 0.830539 0
M  V30 4055 O 376.764 -2.4765 1.04513 0
M  V30 4056 C 375.035 -1.39985 3.28845 0
M  V30 4057 S 376.594 -2.12852 3.83718 0
M  V30 4058 H 373.412 -0.24477 0.667539 0
M  V30 4059 H 376.014 0.00693599 1.95499 0
M  V30 4060 H 374.718 -0.663775 4.04997 0
M  V30 4061 H 374.249 -2.18366 3.2723 0
M  V30 4062 H 376.264 -3.39842 3.61555 0
M  V30 4063 N 375.437 -1.54477 -0.31217 0
M  V30 4064 C 376.686 -1.72438 -1.04633 0
M  V30 4065 C 376.999 -0.511163 -1.88803 0
M  V30 4066 O 378.205 -0.572341 -2.65399 0
M  V30 4067 C 376.661 -3.05043 -1.9099 0
M  V30 4068 C 376.269 -4.33806 -1.11877 0
M  V30 4069 C 378.013 -3.32364 -2.64073 0
M  V30 4070 C 375.92 -5.57467 -1.97445 0
M  V30 4071 H 374.85 -0.642647 -0.394361 0
M  V30 4072 H 377.501 -1.80966 -0.303929 0
M  V30 4073 H 375.883 -2.90451 -2.69173 0
M  V30 4074 H 377.057 -4.59199 -0.383843 0
M  V30 4075 H 375.372 -4.13336 -0.504252 0
M  V30 4076 H 377.969 -4.21951 -3.28423 0
M  V30 4077 H 378.312 -2.50745 -3.32314 0
M  V30 4078 H 378.845 -3.47875 -1.92944 0
M  V30 4079 H 375.584 -6.41722 -1.33692 0
M  V30 4080 H 375.104 -5.36277 -2.6864 0
M  V30 4081 H 376.783 -5.94303 -2.5576 0
M  V30 4082 N 376.915 0.57481 -1.46744 0
M  V30 4083 C 378.164 1.32898 -1.51727 0
M  V30 4084 C 378.477 1.948 -0.176692 0
M  V30 4085 O 379.683 2.71299 -0.104385 0
M  V30 4086 C 378.139 2.40901 -2.67385 0
M  V30 4087 C 377.747 1.85266 -4.07898 0
M  V30 4088 C 379.491 3.17609 -2.81646 0
M  V30 4089 C 377.398 2.90945 -5.14883 0
M  V30 4090 H 376.328 0.499631 -0.564699 0
M  V30 4091 H 378.979 0.612536 -1.72975 0
M  V30 4092 H 377.361 3.15379 -2.39483 0
M  V30 4093 H 378.535 1.17278 -4.45626 0
M  V30 4094 H 376.85 1.21199 -3.98371 0
M  V30 4095 H 379.447 3.96493 -3.58744 0
M  V30 4096 H 379.79 3.70696 -1.89448 0
M  V30 4097 H 380.323 2.50239 -3.09233 0
M  V30 4098 H 377.062 2.42736 -6.089 0
M  V30 4099 H 376.582 3.57398 -4.81691 0
M  V30 4100 H 378.261 3.54755 -5.41071 0
M  V30 4101 N 378.394 1.34581 0.820102 0
M  V30 4102 C 379.342 1.26401 1.95258 0
M  V30 4103 C 380.336 0.161553 1.68628 0
M  V30 4104 O 381.542 0.326703 1.7701 0
M  V30 4105 H 377.917 0.392749 0.64129 0
M  V30 4106 H 379.888 2.22105 1.99279 0
M  V30 4107 C 378.637 1.03919 3.31807 0
M  V30 4108 H 377.96 1.87984 3.52848 0
M  V30 4109 H 379.4 1.02232 4.11491 0
M  V30 4110 C 377.859 -0.257433 3.35915 0
M  V30 4111 O 378.389 -1.25784 3.81499 0
M  V30 4112 N 376.595 -0.291524 2.89134 0
M  V30 4113 H 376.142 0.523161 2.52232 0
M  V30 4114 H 376.1 -1.15883 2.92264 0
M  V30 4115 N 379.872 -1.04064 1.18357 0
M  V30 4116 C 380.802 -2.14001 0.934113 0
M  V30 4117 C 381.783 -1.69616 -0.128186 0
M  V30 4118 O 382.968 -1.94185 0.0244093 0
M  V30 4119 C 380.098 -3.44253 0.459066 0
M  V30 4120 C 379.052 -4.02261 1.46185 0
M  V30 4121 C 378.378 -5.27992 0.844322 0
M  V30 4122 C 379.678 -4.38432 2.83856 0
M  V30 4123 H 381.372 -2.35127 1.85352 0
M  V30 4124 H 378.918 -1.12998 0.892604 0
M  V30 4125 H 380.871 -4.20522 0.271907 0
M  V30 4126 H 379.595 -3.22813 -0.495912 0
M  V30 4127 H 378.254 -3.28074 1.63595 0
M  V30 4128 H 377.902 -5.02862 -0.117845 0
M  V30 4129 H 377.602 -5.67765 1.51384 0
M  V30 4130 H 379.126 -6.06938 0.667693 0
M  V30 4131 H 380.54 -5.05688 2.70098 0
M  V30 4132 H 378.937 -4.89254 3.47491 0
M  V30 4133 H 380.007 -3.4826 3.37406 0
M  V30 4134 N 381.35 -0.985608 -1.22978 0
M  V30 4135 C 382.297 -0.529825 -2.24636 0
M  V30 4136 C 383.267 0.434028 -1.60329 0
M  V30 4137 O 384.452 0.340414 -1.87739 0
M  V30 4138 C 381.592 0.156533 -3.44745 0
M  V30 4139 C 380.705 -0.848197 -4.23591 0
M  V30 4140 C 379.84 -0.136109 -5.31026 0
M  V30 4141 C 378.879 -1.1297 -6.01585 0
M  V30 4142 N 378.016 -0.446415 -7.00679 0
M  V30 4143 H 382.856 -1.40148 -2.62988 0
M  V30 4144 H 380.393 -0.702168 -1.29259 0
M  V30 4145 H 382.351 0.571324 -4.1327 0
M  V30 4146 H 380.981 0.992025 -3.07179 0
M  V30 4147 H 380.033 -1.38135 -3.54433 0
M  V30 4148 H 381.345 -1.60512 -4.72268 0
M  V30 4149 H 380.499 0.335784 -6.0577 0
M  V30 4150 H 379.238 0.653373 -4.83304 0
M  V30 4151 H 378.243 -1.6123 -5.25628 0
M  V30 4152 H 379.468 -1.91993 -6.51395 0
M  V30 4153 H 377.414 0.323763 -6.55201 0
M  V30 4154 H 377.331 -1.1419 -7.47326 0
M  V30 4155 H 378.599 0.00291697 -7.795 0
M  V30 4156 N 382.828 1.3818 -0.7579 0
M  V30 4157 C 383.791 2.28764 -0.141286 0
M  V30 4158 C 384.791 1.47388 0.642907 0
M  V30 4159 O 385.981 1.67781 0.468536 0
M  V30 4160 C 383.113 3.31184 0.808069 0
M  V30 4161 H 384.306 2.848 -0.939633 0
M  V30 4162 H 381.859 1.47212 -0.525191 0
M  V30 4163 H 382.594 2.80247 1.63193 0
M  V30 4164 H 382.379 3.91314 0.248104 0
M  V30 4165 H 383.869 3.98909 1.23536 0
M  V30 4166 N 384.306 0.507319 1.49211 0
M  V30 4167 C 385.722 0.163682 1.58758 0
M  V30 4168 C 385.922 -1.33208 1.51188 0
M  V30 4169 O 384.978 -2.10855 1.38911 0
M  V30 4170 C 386.291 0.746095 2.91297 0
M  V30 4171 C 387.839 0.712773 3.04776 0
M  V30 4172 C 388.314 1.27336 4.39943 0
M  V30 4173 N 389.805 1.23433 4.46451 0
M  V30 4174 C 390.54 1.63821 5.495 0
M  V30 4175 N 390.036 2.11832 6.5962 0
M  V30 4176 N 391.829 1.55198 5.4025 0
M  V30 4177 H 383.98 1.47972 1.52375 0
M  V30 4178 H 386.243 0.614147 0.722168 0
M  V30 4179 H 385.949 1.79534 3.02424 0
M  V30 4180 H 385.823 0.210137 3.76614 0
M  V30 4181 H 388.21 -0.327656 2.93275 0
M  V30 4182 H 388.291 1.28595 2.21127 0
M  V30 4183 H 387.935 2.3126 4.52196 0
M  V30 4184 H 387.865 0.676066 5.22242 0
M  V30 4185 H 390.356 0.882627 3.67448 0
M  V30 4186 H 390.669 2.40703 7.34358 0
M  V30 4187 H 389.014 2.1581 6.60644 0
M  V30 4188 H 392.205 1.17505 4.53112 0
M  V30 4189 H 392.378 1.86997 6.20432 0
M  V30 4190 N 385.784 -1.5574 0.241426 0
M  V30 4191 C 386.732 -2.22538 -0.676718 0
M  V30 4192 C 387.726 -1.21117 -1.18436 0
M  V30 4193 O 388.932 -1.39144 -1.14188 0
M  V30 4194 H 385.307 -0.713776 -0.236701 0
M  V30 4195 H 387.278 -2.98264 -0.0901187 0
M  V30 4196 C 386.027 -2.93439 -1.86518 0
M  V30 4197 H 385.35 -3.7125 -1.4837 0
M  V30 4198 H 386.79 -3.43549 -2.48495 0
M  V30 4199 C 385.249 -1.97008 -2.73294 0
M  V30 4200 O 385.779 -1.49965 -3.72657 0
M  V30 4201 N 383.985 -1.64227 -2.39745 0
M  V30 4202 H 383.532 -2.02677 -1.58996 0
M  V30 4203 H 383.49 -0.999708 -2.98083 0
M  V30 4204 N 387.262 0.0317525 -1.57568 0
M  V30 4205 C 388.492 0.733884 -1.93126 0
M  V30 4206 C 388.9 1.69563 -0.839352 0
M  V30 4207 O 388.243 1.82681 0.193175 0
M  V30 4208 C 388.305 1.54798 -3.24465 0
M  V30 4209 C 387.969 0.751304 -4.50782 0
M  V30 4210 C 388.966 0.0527632 -5.19873 0
M  V30 4211 C 386.651 0.706639 -4.97305 0
M  V30 4212 C 388.645 -0.679774 -6.33765 0
M  V30 4213 C 386.332 -0.0296449 -6.11093 0
M  V30 4214 C 387.33 -0.721614 -6.79177 0
M  V30 4215 O 387.018 -1.44595 -7.90789 0
M  V30 4216 H 386.75 0.211459 -0.642076 0
M  V30 4217 H 389.304 -0.00585615 -2.05399 0
M  V30 4218 H 387.534 2.33147 -3.08512 0
M  V30 4219 H 389.223 2.13247 -3.4537 0
M  V30 4220 H 389.989 0.0783188 -4.84937 0
M  V30 4221 H 385.868 1.23474 -4.44157 0
M  V30 4222 H 389.412 -1.22042 -6.86842 0
M  V30 4223 H 385.309 -0.0571331 -6.45475 0
M  V30 4224 H 386.077 -1.35935 -8.07133 0
M  V30 4225 N 388.74 1.54641 0.303973 0
M  V30 4226 C 389.67 1.88386 1.3796 0
M  V30 4227 C 390.651 0.742485 1.5304 0
M  V30 4228 O 391.836 0.997959 1.66597 0
M  V30 4229 C 388.966 2.12854 2.74427 0
M  V30 4230 C 387.92 3.28702 2.74115 0
M  V30 4231 C 387.246 3.38582 4.13844 0
M  V30 4232 C 388.546 4.65881 2.3612 0
M  V30 4233 H 390.24 2.78474 1.09966 0
M  V30 4234 H 387.786 1.33988 0.527556 0
M  V30 4235 H 389.739 2.35047 3.49758 0
M  V30 4236 H 388.463 1.19535 3.03939 0
M  V30 4237 H 387.122 3.06428 2.0124 0
M  V30 4238 H 386.77 2.42784 4.40528 0
M  V30 4239 H 386.47 4.16453 4.14537 0
M  V30 4240 H 387.994 3.63031 4.90959 0
M  V30 4241 H 389.408 4.87823 3.01167 0
M  V30 4242 H 387.805 5.46444 2.48031 0
M  V30 4243 H 388.875 4.66799 1.3125 0
M  V30 4244 N 390.218 -0.567019 1.47046 0
M  V30 4245 C 391.148 -1.68482 1.61667 0
M  V30 4246 C 392.129 -1.6358 0.466418 0
M  V30 4247 O 393.314 -1.81354 0.694574 0
M  V30 4248 C 390.444 -3.07124 1.62148 0
M  V30 4249 C 389.398 -3.26867 2.76301 0
M  V30 4250 C 388.724 -4.66196 2.61849 0
M  V30 4251 C 390.024 -3.13186 4.17986 0
M  V30 4252 H 391.718 -1.56502 2.5524 0
M  V30 4253 H 389.264 -0.751486 1.22836 0
M  V30 4254 H 391.217 -3.8516 1.70968 0
M  V30 4255 H 389.941 -3.2004 0.651287 0
M  V30 4256 H 388.6 -2.51237 2.66975 0
M  V30 4257 H 388.248 -4.75898 1.62879 0
M  V30 4258 H 387.948 -4.80356 3.38425 0
M  V30 4259 H 389.472 -5.46379 2.72584 0
M  V30 4260 H 390.886 -3.81049 4.2834 0
M  V30 4261 H 389.283 -3.3886 4.95272 0
M  V30 4262 H 390.353 -2.10057 4.3704 0
M  V30 4263 N 391.696 -1.35014 -0.812953 0
M  V30 4264 C 392.921 -1.31187 -1.60639 0
M  V30 4265 C 393.346 0.109382 -1.87782 0
M  V30 4266 O 392.704 1.07424 -1.46047 0
M  V30 4267 C 392.752 -2.11809 -2.91838 0
M  V30 4268 O 391.856 -1.49444 -3.8437 0
M  V30 4269 H 391.197 -0.450084 -0.488181 0
M  V30 4270 H 393.727 -1.77963 -1.00947 0
M  V30 4271 H 393.737 -2.23531 -3.41318 0
M  V30 4272 H 392.412 -3.15137 -2.71407 0
M  V30 4273 H 390.989 -1.46524 -3.42907 0
M  V30 4274 N 393.175 1.03435 -1.18907 0
M  V30 4275 C 394.105 2.13503 -0.945448 0
M  V30 4276 C 395.086 1.69682 0.119189 0
M  V30 4277 O 396.271 1.94169 -0.034707 0
M  V30 4278 C 393.401 3.44004 -0.477316 0
M  V30 4279 C 392.355 4.0148 -1.48316 0
M  V30 4280 C 391.681 5.27537 -0.872311 0
M  V30 4281 C 392.981 4.36921 -2.86177 0
M  V30 4282 H 394.675 2.34141 -1.86597 0
M  V30 4283 H 392.221 1.12523 -0.898584 0
M  V30 4284 H 394.174 4.20372 -0.294204 0
M  V30 4285 H 392.898 3.23072 0.478786 0
M  V30 4286 H 391.557 3.27201 -1.65332 0
M  V30 4287 H 391.205 5.02917 0.0911752 0
M  V30 4288 H 390.905 5.66954 -1.54393 0
M  V30 4289 H 392.429 6.06576 -0.699871 0
M  V30 4290 H 393.843 5.04248 -2.72776 0
M  V30 4291 H 392.24 4.87405 -3.50081 0
M  V30 4292 H 393.31 3.46466 -3.39248 0
M  V30 4293 N 394.653 0.992116 1.22453 0
M  V30 4294 C 396.064 0.702776 1.72968 0
M  V30 4295 C 396.415 -0.780399 1.80012 0
M  V30 4296 O 395.54 -1.61007 1.44589 0
M  V30 4297 C 396.135 1.26903 3.14135 0
M  V30 4298 C 394.694 1.02909 3.62059 0
M  V30 4299 C 393.841 1.38969 2.39964 0
M  V30 4300 H 396.792 1.16457 1.07812 0
M  V30 4301 H 396.813 0.647223 3.74955 0
M  V30 4302 H 396.325 2.34851 3.08977 0
M  V30 4303 H 394.426 -0.0337979 3.72585 0
M  V30 4304 H 394.539 1.69191 4.48231 0
M  V30 4305 H 392.903 0.808279 2.41535 0
M  V30 4306 H 393.686 2.4792 2.37467 0
M  V30 4307 N 396.131 -1.37776 0.765217 0
M  V30 4308 C 397.081 -2.2768 0.12075 0
M  V30 4309 C 398.065 -1.45778 -0.680988 0
M  V30 4310 O 399.257 -1.684 -0.545033 0
M  V30 4311 C 396.386 -3.34722 -0.762626 0
M  V30 4312 C 395.472 -4.24074 0.0465881 0
M  V30 4313 N 395.863 -4.93939 1.08892 0
M  V30 4314 C 394.161 -4.45643 -0.178418 0
M  V30 4315 C 394.862 -5.59845 1.57951 0
M  V30 4316 N 393.838 -5.36218 0.892797 0
M  V30 4317 H 397.64 -2.79166 0.918889 0
M  V30 4318 H 395.154 -1.50816 0.602353 0
M  V30 4319 H 397.151 -3.98031 -1.24005 0
M  V30 4320 H 395.811 -2.84793 -1.55959 0
M  V30 4321 H 396.822 -4.96572 1.47095 0
M  V30 4322 H 393.499 -4.06599 -0.9478 0
M  V30 4323 H 394.889 -6.25703 2.44838 0
M  V30 4324 N 397.609 -0.515225 -1.4894 0
M  V30 4325 C 398.556 0.255567 -2.29381 0
M  V30 4326 C 399.526 0.947387 -1.36432 0
M  V30 4327 O 400.711 0.951288 -1.65394 0
M  V30 4328 C 397.851 1.30551 -3.19453 0
M  V30 4329 C 396.964 0.624029 -4.27469 0
M  V30 4330 C 396.099 1.65563 -5.0474 0
M  V30 4331 C 395.138 0.956802 -6.04576 0
M  V30 4332 N 394.275 1.93326 -6.74959 0
M  V30 4333 H 399.115 -0.436607 -2.94784 0
M  V30 4334 H 396.652 -0.227154 -1.45336 0
M  V30 4335 H 398.61 1.92639 -3.70062 0
M  V30 4336 H 397.24 1.96626 -2.56004 0
M  V30 4337 H 396.292 -0.110459 -3.8024 0
M  V30 4338 H 397.604 0.0746092 -4.98744 0
M  V30 4339 H 396.758 2.35119 -5.59289 0
M  V30 4340 H 395.497 2.23893 -4.3327 0
M  V30 4341 H 394.502 0.247097 -5.49244 0
M  V30 4342 H 395.727 0.379814 -6.78037 0
M  V30 4343 H 393.673 2.50591 -6.06251 0
M  V30 4344 H 393.59 1.43489 -7.42258 0
M  V30 4345 H 394.858 2.62126 -7.34105 0
M  V30 4346 N 399.087 1.5561 -0.249682 0
M  V30 4347 C 400.035 2.22894 0.664906 0
M  V30 4348 C 401.029 1.21743 1.17792 0
M  V30 4349 O 402.235 1.39748 1.13449 0
M  V30 4350 H 398.61 0.715022 0.232912 0
M  V30 4351 H 400.581 2.98307 0.0742998 0
M  V30 4352 C 399.33 2.94424 1.84959 0
M  V30 4353 H 398.653 3.72031 1.46399 0
M  V30 4354 H 400.093 3.44862 2.4667 0
M  V30 4355 C 398.552 1.98454 2.72245 0
M  V30 4356 O 399.082 1.51939 3.71857 0
M  V30 4357 N 397.288 1.65496 2.38871 0
M  V30 4358 H 396.835 2.03517 1.57919 0
M  V30 4359 H 396.793 1.0155 2.97548 0
M  V30 4360 N 400.565 -0.0233959 1.57583 0
M  V30 4361 C 401.512 -1.02224 2.06927 0
M  V30 4362 C 402.482 -1.35575 0.959617 0
M  V30 4363 O 403.667 -1.45815 1.23055 0
M  V30 4364 C 400.807 -2.31636 2.5581 0
M  V30 4365 C 399.92 -2.04394 3.80588 0
M  V30 4366 C 399.055 -3.27717 4.18061 0
M  V30 4367 C 398.094 -2.96056 5.3574 0
M  V30 4368 N 397.231 -4.11847 5.68618 0
M  V30 4369 H 402.071 -0.594504 2.9201 0
M  V30 4370 H 399.608 -0.281921 1.44373 0
M  V30 4371 H 401.566 -3.07258 2.82221 0
M  V30 4372 H 400.196 -2.72122 1.73636 0
M  V30 4373 H 399.248 -1.19244 3.61227 0
M  V30 4374 H 400.56 -1.77042 4.66323 0
M  V30 4375 H 399.714 -4.11702 4.4563 0
M  V30 4376 H 398.453 -3.58188 3.30988 0
M  V30 4377 H 397.458 -2.10474 5.07918 0
M  V30 4378 H 398.683 -2.66857 6.24471 0
M  V30 4379 H 396.629 -4.42258 4.84504 0
M  V30 4380 H 396.546 -3.87938 6.48876 0
M  V30 4381 H 397.814 -4.96689 6.00766 0
M  V30 4382 N 402.043 -1.548 -0.295768 0
M  V30 4383 C 403.289 -1.74588 -1.03184 0
M  V30 4384 C 403.622 -0.532962 -1.86744 0
M  V30 4385 O 402.897 0.469872 -1.88739 0
M  V30 4386 C 403.18 -3.03791 -1.93347 0
M  V30 4387 C 403.033 -4.35392 -1.12933 0
M  V30 4388 C 404.352 -3.28892 -2.92435 0
M  V30 4389 H 401.471 -0.635221 -0.373715 0
M  V30 4390 H 404.113 -1.87519 -0.30606 0
M  V30 4391 H 402.263 -2.92898 -2.55232 0
M  V30 4392 H 403.935 -4.58211 -0.532943 0
M  V30 4393 H 402.178 -4.31642 -0.432168 0
M  V30 4394 H 402.849 -5.22074 -1.79284 0
M  V30 4395 H 405.325 -3.39429 -2.4068 0
M  V30 4396 H 404.201 -4.20603 -3.52682 0
M  V30 4397 H 404.462 -2.47437 -3.6637 0
M  V30 4398 N 403.521 0.559213 -1.47345 0
M  V30 4399 C 404.932 1.14134 -1.47751 0
M  V30 4400 C 405.283 1.94834 -0.231103 0
M  V30 4401 O 404.408 2.05957 0.664137 0
M  V30 4402 C 405.003 2.07653 -2.67705 0
M  V30 4403 C 403.562 2.61141 -2.71076 0
M  V30 4404 C 402.709 1.3748 -2.40821 0
M  V30 4405 H 405.66 0.345917 -1.54884 0
M  V30 4406 H 405.681 2.91497 -2.44561 0
M  V30 4407 H 405.193 1.4889 -3.58404 0
M  V30 4408 H 403.294 3.23707 -1.84511 0
M  V30 4409 H 403.407 3.02272 -3.7171 0
M  V30 4410 H 401.771 1.68086 -1.91362 0
M  V30 4411 H 402.554 0.805135 -3.33725 0
M  V30 4412 N 404.999 1.35443 0.805782 0
M  V30 4413 C 406.245 1.2996 1.56467 0
M  V30 4414 C 406.6 -0.124742 1.91995 0
M  V30 4415 O 405.893 -1.07533 1.58579 0
M  V30 4416 C 406.087 2.14045 2.86216 0
M  V30 4417 C 405.916 3.64512 2.63365 0
M  V30 4418 C 404.686 4.33744 2.59219 0
M  V30 4419 C 406.884 4.58142 2.33688 0
M  V30 4420 N 404.866 5.69953 2.28094 0
M  V30 4421 C 406.237 5.8248 2.12408 0
M  V30 4422 C 408.292 4.46877 2.19558 0
M  V30 4423 C 406.995 6.96818 1.78429 0
M  V30 4424 C 409.021 5.61065 1.86976 0
M  V30 4425 C 408.383 6.84431 1.66532 0
M  V30 4426 H 404.482 0.530817 0.574245 0
M  V30 4427 H 407.066 1.70333 0.943126 0
M  V30 4428 H 405.237 1.75942 3.46264 0
M  V30 4429 H 406.969 2.00075 3.51784 0
M  V30 4430 H 403.724 3.86365 2.73896 0
M  V30 4431 H 404.148 6.41845 2.15323 0
M  V30 4432 H 408.79 3.52102 2.34061 0
M  V30 4433 H 406.508 7.91559 1.62664 0
M  V30 4434 H 410.094 5.54302 1.7675 0
M  V30 4435 H 408.974 7.71294 1.41688 0
M  V30 4436 N 406.477 -1.02803 1.19454 0
M  V30 4437 C 407.425 -2.13213 0.929673 0
M  V30 4438 C 408.419 -1.69011 -0.114806 0
M  V30 4439 O 409.625 -1.79967 0.0345147 0
M  V30 4440 H 406 -0.69662 0.28324 0
M  V30 4441 H 407.971 -2.32744 1.86743 0
M  V30 4442 C 406.72 -3.4429 0.485797 0
M  V30 4443 H 406.043 -3.7872 1.28105 0
M  V30 4444 H 407.483 -4.22638 0.339582 0
M  V30 4445 C 405.942 -3.27258 -0.800244 0
M  V30 4446 O 406.472 -3.55967 -1.86146 0
M  V30 4447 N 404.678 -2.80545 -0.75781 0
M  V30 4448 H 404.225 -2.57382 0.106039 0
M  V30 4449 H 404.183 -2.6953 -1.61867 0
M  V30 4450 N 407.956 -0.998596 -1.21925 0
M  V30 4451 C 409.372 -0.710303 -1.42923 0
M  V30 4452 C 409.572 0.716933 -1.88314 0
M  V30 4453 O 408.628 1.48712 -2.04062 0
M  V30 4454 C 409.941 -1.72072 -2.466 0
M  V30 4455 C 411.489 -1.73681 -2.60392 0
M  V30 4456 C 411.964 -2.73601 -3.67296 0
M  V30 4457 N 413.455 -2.7223 -3.7476 0
M  V30 4458 C 414.19 -3.46206 -4.57087 0
M  V30 4459 N 413.686 -4.29802 -5.43362 0
M  V30 4460 N 415.479 -3.34886 -4.51451 0
M  V30 4461 H 407.63 -1.92028 -0.9077 0
M  V30 4462 H 409.893 -0.828487 -0.460775 0
M  V30 4463 H 409.599 -2.74231 -2.20206 0
M  V30 4464 H 409.473 -1.51818 -3.45299 0
M  V30 4465 H 411.86 -0.722173 -2.86127 0
M  V30 4466 H 411.941 -1.98005 -1.61949 0
M  V30 4467 H 411.585 -3.75217 -3.42307 0
M  V30 4468 H 411.515 -2.46545 -4.65321 0
M  V30 4469 H 414.006 -2.11576 -3.1312 0
M  V30 4470 H 414.319 -4.83061 -6.03218 0
M  V30 4471 H 412.664 -4.33887 -5.42925 0
M  V30 4472 H 415.855 -2.69015 -3.83078 0
M  V30 4473 H 416.028 -3.92796 -5.15379 0
M  V30 4474 N 409.434 1.37368 -0.772513 0
M  V30 4475 C 410.364 2.32856 -0.173304 0
M  V30 4476 C 411.345 1.55818 0.682262 0
M  V30 4477 O 412.53 1.84052 0.619566 0
M  V30 4478 C 409.66 3.40048 0.706007 0
M  V30 4479 C 408.614 4.27973 -0.0483144 0
M  V30 4480 C 407.94 5.26184 0.950491 0
M  V30 4481 C 409.24 5.07665 -1.22776 0
M  V30 4482 H 410.934 2.83217 -0.971002 0
M  V30 4483 H 408.48 1.3617 -0.468377 0
M  V30 4484 H 410.433 4.05827 1.13501 0
M  V30 4485 H 409.157 2.88214 1.53623 0
M  V30 4486 H 407.816 3.63726 -0.458107 0
M  V30 4487 H 407.464 4.7063 1.77529 0
M  V30 4488 H 407.164 5.85872 0.450314 0
M  V30 4489 H 408.688 5.94838 1.37842 0
M  V30 4490 H 410.102 5.66578 -0.875366 0
M  V30 4491 H 408.499 5.76681 -1.66007 0
M  V30 4492 H 409.569 4.40294 -2.03149 0
M  V30 4493 N 410.912 0.523116 1.48665 0
M  V30 4494 C 412.159 -0.0134763 2.02496 0
M  V30 4495 C 412.487 -1.3493 1.40086 0
M  V30 4496 O 411.742 -1.88286 0.533567 0
M  V30 4497 C 412.041 -0.191671 3.56886 0
M  V30 4498 C 411.707 1.06893 4.38046 0
M  V30 4499 C 410.369 1.41443 4.59943 0
M  V30 4500 C 412.721 1.90584 4.85106 0
M  V30 4501 C 410.049 2.59594 5.26144 0
M  V30 4502 C 412.401 3.07907 5.52609 0
M  V30 4503 C 411.065 3.42811 5.72745 0
M  V30 4504 H 410.335 -0.00493133 0.740984 0
M  V30 4505 H 412.982 0.687751 1.78724 0
M  V30 4506 H 411.287 -0.97561 3.79459 0
M  V30 4507 H 412.984 -0.621659 3.96152 0
M  V30 4508 H 409.574 0.789848 4.21259 0
M  V30 4509 H 413.758 1.65203 4.67997 0
M  V30 4510 H 409.014 2.86847 5.39934 0
M  V30 4511 H 413.188 3.73066 5.88043 0
M  V30 4512 H 410.815 4.34462 6.23816 0
M  V30 4513 N 412.39 -1.55475 0.257931 0
M  V30 4514 C 413.801 -1.8511 -0.243135 0
M  V30 4515 C 414.152 -1.17986 -1.5676 0
M  V30 4516 O 413.277 -0.462102 -2.11409 0
M  V30 4517 C 413.872 -3.35826 -0.447929 0
M  V30 4518 C 412.431 -3.65647 -0.893245 0
M  V30 4519 C 411.578 -2.7729 0.0232965 0
M  V30 4520 H 414.529 -1.51261 0.480199 0
M  V30 4521 H 414.55 -3.58002 -1.28898 0
M  V30 4522 H 414.062 -3.84652 0.516196 0
M  V30 4523 H 412.163 -3.22308 -1.86945 0
M  V30 4524 H 412.276 -4.73312 -0.742469 0
M  V30 4525 H 410.64 -2.49942 -0.490021 0
M  V30 4526 H 411.423 -3.28926 0.982994 0
M  V30 4527 N 413.868 0.0150385 -1.57593 0
M  V30 4528 C 414.816 1.02958 -2.08572 0
M  V30 4529 C 415.81 1.36554 -1.00246 0
M  V30 4530 O 417.016 1.35295 -1.18724 0
M  V30 4531 H 413.391 0.349619 -0.665786 0
M  V30 4532 H 415.362 0.573932 -2.92829 0
M  V30 4533 C 414.111 2.31752 -2.59203 0
M  V30 4534 H 413.434 2.06765 -3.42182 0
M  V30 4535 H 414.874 3.01053 -2.98568 0
M  V30 4536 C 413.333 3.01692 -1.49945 0
M  V30 4537 O 413.863 3.92083 -0.873704 0
M  V30 4538 N 412.069 2.6326 -1.23056 0
M  V30 4539 H 411.616 1.89838 -1.74125 0
M  V30 4540 H 411.574 3.10372 -0.501685 0
M  V30 4541 N 415.346 1.54954 0.287554 0
M  V30 4542 C 416.309 1.86076 1.33823 0
M  V30 4543 C 417.309 0.734414 1.43049 0
M  V30 4544 O 418.499 1.00266 1.42452 0
M  V30 4545 C 415.631 2.05305 2.72144 0
M  V30 4546 H 416.824 2.79984 1.07465 0
M  V30 4547 H 414.377 1.47223 0.524902 0
M  V30 4548 H 415.112 1.1373 3.03704 0
M  V30 4549 H 414.897 2.873 2.66836 0
M  V30 4550 H 416.387 2.30706 3.48087 0
M  V30 4551 N 416.824 -0.551391 1.4764 0
M  V30 4552 C 418.101 -1.31229 1.45046 0
M  V30 4553 C 418.481 -2.10563 0.150527 0
M  V30 4554 O 417.829 -2.11374 -0.867956 0
M  V30 4555 C 418.039 -2.21189 2.69956 0
M  V30 4556 C 419.387 -2.82021 3.1741 0
M  V30 4557 O 420.411 -2.31488 2.70724 0
M  V30 4558 O 419.27 -3.73885 3.98588 0
M  V30 4559 H 416.364 -0.591193 0.578291 0
M  V30 4560 H 418.91 -0.569813 1.59847 0
M  V30 4561 H 417.682 -1.62207 3.56096 0
M  V30 4562 H 417.305 -3.02722 2.57769 0
M  V30 4563 N 418.302 -1.35869 -0.798587 0
M  V30 4564 C 419.527 -1.32883 -1.59238 0
M  V30 4565 C 419.952 0.0894587 -1.87887 0
M  V30 4566 O 419.31 1.05869 -1.47178 0
M  V30 4567 C 419.358 -2.14892 -2.89575 0
M  V30 4568 O 418.462 -1.53512 -3.82763 0
M  V30 4569 H 417.803 -0.455236 -0.48338 0
M  V30 4570 H 420.333 -1.79024 -0.990539 0
M  V30 4571 H 420.343 -2.27139 -3.38928 0
M  V30 4572 H 419.018 -3.17998 -2.68049 0
M  V30 4573 H 417.595 -1.50153 -3.41334 0
M  V30 4574 N 419.78 1.02168 -1.19998 0
M  V30 4575 C 420.727 2.10601 -0.944228 0
M  V30 4576 C 421.697 1.65639 0.123664 0
M  V30 4577 O 422.882 1.9079 -0.0199941 0
M  V30 4578 C 420.022 3.41504 -0.496865 0
M  V30 4579 C 419.135 3.99973 -1.63234 0
M  V30 4580 C 418.27 5.18915 -1.13579 0
M  V30 4581 C 417.309 5.69456 -2.24468 0
M  V30 4582 N 416.446 6.79665 -1.76068 0
M  V30 4583 H 421.286 2.31814 -1.8726 0
M  V30 4584 H 418.823 1.13686 -0.933483 0
M  V30 4585 H 420.781 4.16626 -0.218843 0
M  V30 4586 H 419.411 3.2038 0.394508 0
M  V30 4587 H 418.463 3.21997 -2.0254 0
M  V30 4588 H 419.775 4.33492 -2.46752 0
M  V30 4589 H 418.929 6.01222 -0.813429 0
M  V30 4590 H 417.668 4.8695 -0.270434 0
M  V30 4591 H 416.673 4.85757 -2.57526 0
M  V30 4592 H 417.898 6.03459 -3.11472 0
M  V30 4593 H 415.844 6.49538 -0.918516 0
M  V30 4594 H 415.761 7.12349 -2.5317 0
M  V30 4595 H 417.029 7.65549 -1.46817 0
M  V30 4596 N 421.258 1.00505 1.21394 0
M  V30 4597 C 422.221 0.570459 2.21987 0
M  V30 4598 C 423.221 -0.353211 1.56873 0
M  V30 4599 O 424.411 -0.14349 1.73608 0
M  V30 4600 C 421.543 -0.168555 3.40483 0
M  V30 4601 H 422.736 1.46021 2.6195 0
M  V30 4602 H 420.289 0.793565 1.34656 0
M  V30 4603 H 421.024 -1.07374 3.06009 0
M  V30 4604 H 420.809 0.494823 3.88965 0
M  V30 4605 H 422.299 -0.460362 4.15055 0
M  V30 4606 N 422.737 -1.36956 0.779787 0
M  V30 4607 C 423.667 -2.32761 0.185651 0
M  V30 4608 C 424.648 -1.56177 -0.673989 0
M  V30 4609 O 425.833 -1.84378 -0.609797 0
M  V30 4610 C 422.963 -3.40418 -0.687964 0
M  V30 4611 C 421.917 -4.27941 0.0710102 0
M  V30 4612 C 421.243 -5.26681 -0.922573 0
M  V30 4613 C 422.543 -5.07006 1.25467 0
M  V30 4614 H 424.237 -2.82698 0.986008 0
M  V30 4615 H 421.783 -1.3592 0.475592 0
M  V30 4616 H 423.736 -4.06423 -1.11348 0
M  V30 4617 H 422.46 -2.89025 -1.52093 0
M  V30 4618 H 421.119 -3.63478 0.47739 0
M  V30 4619 H 420.767 -4.71565 -1.7503 0
M  V30 4620 H 420.467 -5.86103 -0.419237 0
M  V30 4621 H 421.991 -5.9556 -1.34686 0
M  V30 4622 H 423.405 -5.66105 0.905401 0
M  V30 4623 H 421.802 -5.75793 1.69063 0
M  V30 4624 H 422.872 -4.3921 2.05481 0
M  V30 4625 N 424.215 -0.530993 -1.48385 0
M  V30 4626 C 425.492 0.0671788 -1.95485 0
M  V30 4627 C 425.872 1.51191 -1.47324 0
M  V30 4628 O 425.22 2.17507 -0.700202 0
M  V30 4629 C 425.43 -0.0511206 -3.48963 0
M  V30 4630 C 426.778 0.107632 -4.24464 0
M  V30 4631 O 427.802 0.0226248 -3.56193 0
M  V30 4632 O 426.661 0.285972 -5.45751 0
M  V30 4633 H 423.755 0.0787365 -0.823243 0
M  V30 4634 H 426.301 -0.595662 -1.58902 0
M  V30 4635 H 425.073 -1.05747 -3.7674 0
M  V30 4636 H 424.696 0.650525 -3.92242 0
M  V30 4637 N 425.693 1.55336 -0.266172 0
M  V30 4638 C 426.623 2.25146 0.618981 0
M  V30 4639 C 427.604 1.23845 1.16604 0
M  V30 4640 O 428.789 1.52544 1.20183 0
M  V30 4641 C 425.919 2.96572 1.80728 0
M  V30 4642 C 424.873 4.04726 1.39215 0
M  V30 4643 C 424.199 4.63678 2.66283 0
M  V30 4644 C 425.499 5.19407 0.548942 0
M  V30 4645 H 427.193 2.99377 0.0368116 0
M  V30 4646 H 424.739 1.43991 0.0162651 0
M  V30 4647 H 426.692 3.44116 2.43232 0
M  V30 4648 H 425.416 2.19861 2.41514 0
M  V30 4649 H 424.075 3.57979 0.790351 0
M  V30 4650 H 423.723 3.83646 3.25308 0
M  V30 4651 H 423.423 5.367 2.39222 0
M  V30 4652 H 424.947 5.13967 3.29651 0
M  V30 4653 H 426.361 5.63059 1.07876 0
M  V30 4654 H 424.758 5.98936 0.373593 0
M  V30 4655 H 425.828 4.8295 -0.434394 0
M  V30 4656 N 427.171 -0.0066808 1.57599 0
M  V30 4657 C 428.101 -0.999296 2.11036 0
M  V30 4658 C 429.082 -1.36278 1.01795 0
M  V30 4659 O 430.267 -1.4477 1.29442 0
M  V30 4660 C 427.397 -2.29328 2.60818 0
M  V30 4661 C 426.351 -2.07159 3.74525 0
M  V30 4662 C 425.677 -3.42512 4.10596 0
M  V30 4663 C 426.977 -1.43959 5.02069 0
M  V30 4664 H 428.671 -0.554382 2.94223 0
M  V30 4665 H 426.217 -0.265221 1.41536 0
M  V30 4666 H 428.17 -2.99117 2.96828 0
M  V30 4667 H 426.894 -2.7592 1.74745 0
M  V30 4668 H 425.553 -1.39797 3.38899 0
M  V30 4669 H 425.201 -3.86795 3.21556 0
M  V30 4670 H 424.901 -3.28498 4.87199 0
M  V30 4671 H 426.425 -4.13628 4.4916 0
M  V30 4672 H 427.839 -2.03696 5.35893 0
M  V30 4673 H 426.236 -1.40452 5.83432 0
M  V30 4674 H 427.306 -0.407992 4.83181 0
M  V30 4675 N 428.649 -1.55105 -0.279332 0
M  V30 4676 C 429.926 -1.66119 -1.03267 0
M  V30 4677 C 430.306 -0.523525 -2.04505 0
M  V30 4678 O 429.654 0.477194 -2.23462 0
M  V30 4679 C 429.864 -3.05067 -1.69515 0
M  V30 4680 C 431.212 -3.62606 -2.20912 0
M  V30 4681 O 432.236 -3.07659 -1.79512 0
M  V30 4682 O 431.095 -4.58861 -2.96831 0
M  V30 4683 H 428.189 -0.674429 -0.478618 0
M  V30 4684 H 430.735 -1.67446 -0.275694 0
M  V30 4685 H 429.507 -3.79311 -0.9612 0
M  V30 4686 H 429.13 -3.07611 -2.51915 0
M  V30 4687 N 430.127 0.543554 -1.4793 0
M  V30 4688 C 431.074 1.64942 -1.6144 0
M  V30 4689 C 432.044 1.59692 -0.456903 0
M  V30 4690 O 433.229 1.78321 -0.678688 0
M  V30 4691 C 430.369 3.03238 -1.64744 0
M  V30 4692 C 429.482 3.18823 -2.91506 0
M  V30 4693 C 428.617 4.47599 -2.86057 0
M  V30 4694 C 427.656 4.56664 -4.07584 0
M  V30 4695 N 426.793 5.76811 -4.00292 0
M  V30 4696 H 431.633 1.52733 -2.55884 0
M  V30 4697 H 429.17 0.7438 -1.2691 0
M  V30 4698 H 431.128 3.83339 -1.64641 0
M  V30 4699 H 429.758 3.1425 -0.738017 0
M  V30 4700 H 428.81 2.32064 -3.01414 0
M  V30 4701 H 430.122 3.21384 -3.81463 0
M  V30 4702 H 429.276 5.35975 -2.84281 0
M  V30 4703 H 428.015 4.47538 -1.93807 0
M  V30 4704 H 427.02 3.66697 -4.09651 0
M  V30 4705 H 428.245 4.58474 -5.00978 0
M  V30 4706 H 426.191 5.77673 -3.10853 0
M  V30 4707 H 426.108 5.80808 -4.8394 0
M  V30 4708 H 427.376 6.67512 -4.02553 0
M  V30 4709 N 431.605 1.3629 0.791371 0
M  V30 4710 C 432.538 1.24816 1.9104 0
M  V30 4711 C 433.516 0.132739 1.62057 0
M  V30 4712 O 434.7 0.303527 1.8604 0
M  V30 4713 C 431.827 0.925355 3.25814 0
M  V30 4714 C 430.873 2.05495 3.7373 0
M  V30 4715 S 431.706 3.67255 3.89723 0
M  V30 4716 C 432.862 3.37084 5.27376 0
M  V30 4717 H 433.095 2.19533 2.00481 0
M  V30 4718 H 430.628 1.21684 0.950393 0
M  V30 4719 H 432.586 0.745924 4.03666 0
M  V30 4720 H 431.247 -0.00400098 3.141 0
M  V30 4721 H 430.44 1.7836 4.71385 0
M  V30 4722 H 430.042 2.1935 3.02922 0
M  V30 4723 H 432.334 2.90856 6.1189 0
M  V30 4724 H 433.277 4.33995 5.59512 0
M  V30 4725 H 433.685 2.7248 4.94383 0
M  V30 4726 N 433.083 -1.0153 1.20538 0
M  V30 4727 C 434.013 -2.11972 0.979295 0
M  V30 4728 C 434.994 -1.6985 -0.0921787 0
M  V30 4729 O 436.179 -1.94089 0.0655932 0
M  V30 4730 C 433.309 -3.43201 0.531984 0
M  V30 4731 C 432.263 -3.9907 1.54685 0
M  V30 4732 C 431.589 -5.26082 0.956127 0
M  V30 4733 C 432.889 -4.32313 2.93092 0
M  V30 4734 H 434.583 -2.31143 1.90298 0
M  V30 4735 H 432.129 -1.11079 0.916372 0
M  V30 4736 H 434.082 -4.1985 0.361044 0
M  V30 4737 H 432.806 -3.23792 -0.427327 0
M  V30 4738 H 431.465 -3.2453 1.70517 0
M  V30 4739 H 431.113 -5.02999 -0.0111538 0
M  V30 4740 H 430.813 -5.64426 1.63393 0
M  V30 4741 H 432.337 -6.05386 0.796284 0
M  V30 4742 H 433.751 -4.99845 2.80763 0
M  V30 4743 H 432.148 -4.81774 3.57791 0
M  V30 4744 H 433.218 -3.41025 3.44717 0
M  V30 4745 N 434.561 -1.01147 -1.20859 0
M  V30 4746 C 435.789 -0.716911 -1.94082 0
M  V30 4747 C 436.204 0.721568 -1.74467 0
M  V30 4748 O 435.561 1.48889 -1.05539 0
M  V30 4749 C 435.612 -1.03662 -3.46318 0
M  V30 4750 O 435.333 -2.4186 -3.65288 0
M  V30 4751 C 436.834 -0.762386 -4.36695 0
M  V30 4752 H 434.054 -0.26367 -0.617024 0
M  V30 4753 H 436.598 -1.35127 -1.53496 0
M  V30 4754 H 434.753 -0.447757 -3.84804 0
M  V30 4755 H 435.167 -2.53224 -4.59323 0
M  V30 4756 H 436.641 -1.03621 -5.42187 0
M  V30 4757 H 437.118 0.303514 -4.3815 0
M  V30 4758 H 437.724 -1.33316 -4.03865 0
M  V30 4759 N 436.039 1.36541 -0.78704 0
M  V30 4760 C 437.286 1.99304 -0.358341 0
M  V30 4761 C 437.614 1.62467 1.06933 0
M  V30 4762 O 436.869 0.870019 1.75297 0
M  V30 4763 C 437.168 3.54343 -0.466485 0
M  V30 4764 C 436.834 4.10993 -1.85461 0
M  V30 4765 C 435.496 4.26177 -2.23443 0
M  V30 4766 C 437.848 4.41895 -2.76366 0
M  V30 4767 C 435.176 4.69573 -3.51736 0
M  V30 4768 C 437.528 4.86722 -4.04084 0
M  V30 4769 C 436.192 5.00112 -4.42091 0
M  V30 4770 H 435.462 0.729306 -0.131126 0
M  V30 4771 H 438.109 1.63068 -1.00404 0
M  V30 4772 H 436.414 3.90918 0.262719 0
M  V30 4773 H 438.111 4.00833 -0.115854 0
M  V30 4774 H 434.701 3.99612 -1.54946 0
M  V30 4775 H 438.885 4.29735 -2.48277 0
M  V30 4776 H 434.141 4.78127 -3.81057 0
M  V30 4777 H 438.315 5.09598 -4.7464 0
M  V30 4778 H 435.942 5.33498 -5.41557 0
M  V30 4779 N 437.518 0.538854 1.48102 0
M  V30 4780 C 438.466 -0.232325 2.31437 0
M  V30 4781 C 439.46 -0.927004 1.41785 0
M  V30 4782 O 440.666 -0.850378 1.58646 0
M  V30 4783 H 437.041 -0.0937916 0.746128 0
M  V30 4784 H 439.012 0.489986 2.9435 0
M  V30 4785 C 437.761 -1.26074 3.24038 0
M  V30 4786 H 437.084 -0.735609 3.92974 0
M  V30 4787 H 438.524 -1.77157 3.85216 0
M  V30 4788 C 436.983 -2.29902 2.46265 0
M  V30 4789 O 437.513 -3.36502 2.19384 0
M  V30 4790 N 435.719 -2.03348 2.07601 0
M  V30 4791 H 435.266 -1.16675 2.29662 0
M  V30 4792 H 435.224 -2.73038 1.55877 0
M  V30 4793 N 438.996 -1.55193 0.274407 0
M  V30 4794 C 440.407 -1.85358 -0.223488 0
M  V30 4795 C 440.758 -1.19642 -1.555 0
M  V30 4796 O 439.883 -0.484498 -2.10907 0
M  V30 4797 C 440.478 -3.36282 -0.412285 0
M  V30 4798 C 439.037 -3.66574 -0.854413 0
M  V30 4799 C 438.184 -2.7725 0.0527056 0
M  V30 4800 H 441.135 -1.50743 0.496215 0
M  V30 4801 H 441.156 -3.59349 -1.25094 0
M  V30 4802 H 440.668 -3.84083 0.556965 0
M  V30 4803 H 438.769 -3.24273 -1.83516 0
M  V30 4804 H 438.882 -4.74073 -0.692226 0
M  V30 4805 H 437.246 -2.50447 -0.463484 0
M  V30 4806 H 438.029 -3.27865 1.01783 0
M  V30 4807 N 440.474 -0.00167713 -1.576 0
M  V30 4808 C 441.424 0.997744 -2.0501 0
M  V30 4809 C 442.408 1.30214 -0.94515 0
M  V30 4810 O 443.6 1.29284 -1.20891 0
M  V30 4811 C 440.729 2.2892 -2.55833 0
M  V30 4812 C 439.815 2.01437 -3.73208 0
M  V30 4813 N 440.206 1.44119 -4.84833 0
M  V30 4814 C 438.504 2.31571 -3.8117 0
M  V30 4815 C 439.205 1.33145 -5.66257 0
M  V30 4816 N 438.181 1.81763 -5.12312 0
M  V30 4817 H 441.983 0.549098 -2.88725 0
M  V30 4818 H 439.497 0.20398 -1.61114 0
M  V30 4819 H 441.494 3.01361 -2.88075 0
M  V30 4820 H 440.154 2.74436 -1.73537 0
M  V30 4821 H 441.165 1.11978 -5.0565 0
M  V30 4822 H 437.842 2.7995 -3.09732 0
M  V30 4823 H 439.232 0.890567 -6.65972 0
M  V30 4824 N 441.952 1.55251 0.271103 0
M  V30 4825 C 442.899 1.88261 1.33516 0
M  V30 4826 C 443.869 0.734296 1.48988 0
M  V30 4827 O 445.054 0.985741 1.63364 0
M  V30 4828 C 442.194 2.16168 2.69008 0
M  V30 4829 C 441.307 3.43678 2.61743 0
M  V30 4830 C 440.442 3.61276 3.89427 0
M  V30 4831 C 439.481 4.82472 3.7668 0
M  V30 4832 N 438.618 4.96717 4.96202 0
M  V30 4833 H 443.458 2.79015 1.04665 0
M  V30 4834 H 440.995 1.38137 0.505618 0
M  V30 4835 H 442.953 2.30349 3.47844 0
M  V30 4836 H 441.583 1.28646 2.96057 0
M  V30 4837 H 440.635 3.37959 1.74607 0
M  V30 4838 H 441.947 4.3265 2.48224 0
M  V30 4839 H 441.101 3.75284 4.76704 0
M  V30 4840 H 439.84 2.70492 4.05814 0
M  V30 4841 H 438.845 4.68465 2.87786 0
M  V30 4842 H 440.07 5.74692 3.61809 0
M  V30 4843 H 438.016 4.08865 5.12997 0
M  V30 4844 H 437.933 5.79738 4.85222 0
M  V30 4845 H 439.201 5.15113 5.85046 0
M  V30 4846 N 443.43 -0.535701 1.48216 0
M  V30 4847 C 444.846 -0.863701 1.3421 0
M  V30 4848 C 445.046 -1.98458 0.34879 0
M  V30 4849 O 444.102 -2.51432 -0.23204 0
M  V30 4850 C 445.415 -1.23662 2.74095 0
M  V30 4851 C 446.963 -1.34683 2.82541 0
M  V30 4852 C 447.438 -1.75322 4.23115 0
M  V30 4853 N 448.929 -1.82434 4.2576 0
M  V30 4854 C 449.664 -2.15252 5.31464 0
M  V30 4855 N 449.16 -2.46533 6.47452 0
M  V30 4856 N 450.953 -2.16209 5.18855 0
M  V30 4857 H 443.104 0.203965 2.11418 0
M  V30 4858 H 445.367 0.0286033 0.947568 0
M  V30 4859 H 445.073 -0.486674 3.48316 0
M  V30 4860 H 444.947 -2.18805 3.07253 0
M  V30 4861 H 447.334 -2.08756 2.08579 0
M  V30 4862 H 447.415 -0.376756 2.5301 0
M  V30 4863 H 447.059 -1.01812 4.97591 0
M  V30 4864 H 446.989 -2.7337 4.50085 0
M  V30 4865 H 449.48 -1.6056 3.42095 0
M  V30 4866 H 449.793 -2.70662 7.23852 0
M  V30 4867 H 448.138 -2.44065 6.50736 0
M  V30 4868 H 451.329 -1.91224 4.2726 0
M  V30 4869 H 451.502 -2.41453 6.01335 0
M  V30 4870 N 444.908 -1.36708 -0.784132 0
M  V30 4871 C 446.157 -1.30559 -1.53744 0
M  V30 4872 C 446.47 0.111374 -1.95283 0
M  V30 4873 O 447.676 0.29527 -2.6989 0
M  V30 4874 C 446.132 -2.29098 -2.77565 0
M  V30 4875 C 445.74 -3.76258 -2.43174 0
M  V30 4876 C 447.484 -2.31936 -3.55536 0
M  V30 4877 C 445.391 -4.6656 -3.63422 0
M  V30 4878 H 444.321 -0.48518 -0.577162 0
M  V30 4879 H 446.972 -1.62101 -0.859981 0
M  V30 4880 H 445.354 -1.90557 -3.47137 0
M  V30 4881 H 446.528 -4.23565 -1.81465 0
M  V30 4882 H 444.843 -3.76246 -1.78403 0
M  V30 4883 H 447.44 -2.9661 -4.44889 0
M  V30 4884 H 447.783 -1.3294 -3.94503 0
M  V30 4885 H 448.316 -2.6912 -2.92949 0
M  V30 4886 H 445.055 -5.66638 -3.29547 0
M  V30 4887 H 444.575 -4.23966 -4.24279 0
M  V30 4888 H 446.254 -4.8309 -4.30387 0
M  V30 4889 N 446.386 1.0089 -1.21074 0
M  V30 4890 C 447.296 2.13039 -0.982425 0
M  V30 4891 C 448.312 1.73881 0.0642161 0
M  V30 4892 O 449.488 2.01012 -0.12496 0
M  V30 4893 C 446.553 3.42377 -0.545803 0
M  V30 4894 C 445.614 3.95731 -1.6642 0
M  V30 4895 C 444.847 5.18896 -1.24832 0
M  V30 4896 O 445.07 5.70273 -0.120265 0
M  V30 4897 O 444.004 5.65597 -2.05873 0
M  V30 4898 H 447.83 2.35175 -1.92163 0
M  V30 4899 H 445.415 1.1142 -0.995285 0
M  V30 4900 H 447.297 4.20244 -0.311912 0
M  V30 4901 H 445.972 3.21639 0.364727 0
M  V30 4902 H 444.879 3.19108 -1.95246 0
M  V30 4903 H 446.212 4.20872 -2.55201 0
M  V30 4904 N 447.864 1.01787 1.20321 0
M  V30 4905 C 449.11 0.708985 1.90003 0
M  V30 4906 C 449.443 -0.759572 1.78729 0
M  V30 4907 O 448.718 -1.55198 1.17234 0
M  V30 4908 C 449.001 1.1469 3.41348 0
M  V30 4909 C 448.854 2.67586 3.61549 0
M  V30 4910 C 450.173 0.71915 4.34185 0
M  V30 4911 H 447.292 0.259034 0.689978 0
M  V30 4912 H 449.934 1.26584 1.41692 0
M  V30 4913 H 448.084 0.673128 3.82624 0
M  V30 4914 H 449.756 3.22826 3.29517 0
M  V30 4915 H 447.999 3.085 3.04976 0
M  V30 4916 H 448.67 2.93281 4.67643 0
M  V30 4917 H 451.146 1.12647 4.00562 0
M  V30 4918 H 450.022 1.05358 5.38694 0
M  V30 4919 H 450.283 -0.379111 4.40472 0
M  V30 4920 N 449.342 -1.36122 0.79427 0
M  V30 4921 C 450.252 -2.33769 0.197296 0
M  V30 4922 C 451.268 -1.61276 -0.653153 0
M  V30 4923 O 452.444 -1.9323 -0.5678 0
M  V30 4924 C 449.509 -3.40474 -0.654098 0
M  V30 4925 C 448.57 -4.28759 0.215411 0
M  V30 4926 C 447.803 -5.30368 -0.595443 0
M  V30 4927 O 448.026 -5.40211 -1.83107 0
M  V30 4928 O 446.96 -6.019 0.00721351 0
M  V30 4929 H 450.786 -2.86597 1.00478 0
M  V30 4930 H 448.371 -1.38676 0.555818 0
M  V30 4931 H 450.253 -4.05703 -1.13944 0
M  V30 4932 H 448.928 -2.89937 -1.43938 0
M  V30 4933 H 447.835 -3.66554 0.747615 0
M  V30 4934 H 449.168 -4.82661 0.964332 0
M  V30 4935 N 450.82 -0.546701 -1.47814 0
M  V30 4936 C 451.752 0.244196 -2.27895 0
M  V30 4937 C 452.765 0.88911 -1.36377 0
M  V30 4938 O 453.954 0.764733 -1.61289 0
M  V30 4939 C 451.054 1.36252 -3.10304 0
M  V30 4940 C 450.227 0.816382 -4.29714 0
M  V30 4941 C 449.286 1.81789 -4.93801 0
M  V30 4942 O 448.312 1.36818 -5.52512 0
M  V30 4943 N 449.514 3.15085 -4.87547 0
M  V30 4944 H 452.279 -0.442694 -2.96412 0
M  V30 4945 H 449.84 -0.382095 -1.57327 0
M  V30 4946 H 451.832 2.03102 -3.50045 0
M  V30 4947 H 450.402 1.95281 -2.44099 0
M  V30 4948 H 449.622 -0.0285981 -3.9419 0
M  V30 4949 H 450.91 0.430668 -5.06974 0
M  V30 4950 H 450.308 3.54275 -4.41028 0
M  V30 4951 H 448.865 3.77522 -5.31339 0
M  V30 4952 N 452.299 1.55045 -0.282633 0
M  V30 4953 C 453.262 2.21515 0.588539 0
M  V30 4954 C 454.262 1.19535 1.07554 0
M  V30 4955 O 455.452 1.44391 0.974514 0
M  V30 4956 C 452.584 2.88704 1.8128 0
M  V30 4957 H 453.777 2.99899 0.00806397 0
M  V30 4958 H 451.33 1.56265 -0.0333067 0
M  V30 4959 H 452.065 2.14352 2.43359 0
M  V30 4960 H 451.85 3.63443 1.47144 0
M  V30 4961 H 453.34 3.39465 2.43214 0
M  V30 4962 N 453.777 0.010035 1.57597 0
M  V30 4963 C 454.707 -0.976857 2.12084 0
M  V30 4964 C 455.688 -1.35191 1.03235 0
M  V30 4965 O 456.873 -1.43389 1.3097 0
M  V30 4966 C 454.003 -2.26548 2.63236 0
M  V30 4967 C 452.957 -2.03175 3.76701 0
M  V30 4968 C 452.283 -3.38138 4.14206 0
M  V30 4969 C 453.583 -1.38625 5.03568 0
M  V30 4970 H 455.277 -0.523145 2.94794 0
M  V30 4971 H 452.823 -0.250195 1.4181 0
M  V30 4972 H 454.776 -2.95952 2.99984 0
M  V30 4973 H 453.5 -2.74051 1.77661 0
M  V30 4974 H 452.159 -1.36195 3.40362 0
M  V30 4975 H 451.807 -3.83363 3.25641 0
M  V30 4976 H 451.507 -3.23312 4.90656 0
M  V30 4977 H 453.031 -4.08841 4.53521 0
M  V30 4978 H 454.445 -1.98 5.38023 0
M  V30 4979 H 452.842 -1.34256 5.84889 0
M  V30 4980 H 453.912 -0.356722 4.83586 0
M  V30 4981 N 455.255 -1.55392 -0.262866 0
M  V30 4982 C 456.218 -1.88181 -1.30846 0
M  V30 4983 C 457.218 -0.757079 -1.41862 0
M  V30 4984 O 458.408 -1.02519 -1.40838 0
M  V30 4985 C 455.54 -2.09609 -2.68844 0
M  V30 4986 H 456.733 -2.81659 -1.02997 0
M  V30 4987 H 454.286 -1.48039 -0.501414 0
M  V30 4988 H 455.021 -1.18547 -3.01856 0
M  V30 4989 H 454.806 -2.91508 -2.62231 0
M  V30 4990 H 456.296 -2.36215 -3.44372 0
M  V30 4991 N 456.733 0.527833 -1.48498 0
M  V30 4992 C 457.683 1.62844 -1.5958 0
M  V30 4993 C 458.667 1.54397 -0.452809 0
M  V30 4994 O 459.859 1.62381 -0.704364 0
M  V30 4995 C 456.988 3.01557 -1.64067 0
M  V30 4996 C 456.074 3.151 -2.83853 0
M  V30 4997 N 456.465 2.9861 -4.08247 0
M  V30 4998 C 454.763 3.46158 -2.8123 0
M  V30 4999 C 455.464 3.15626 -4.88626 0
M  V30 5000 N 454.44 3.43298 -4.21483 0
M  V30 5001 H 458.242 1.48708 -2.53502 0
M  V30 5002 H 455.756 0.733343 -1.44899 0
M  V30 5003 H 457.753 3.8062 -1.70101 0
M  V30 5004 H 456.413 3.16783 -0.712636 0
M  V30 5005 H 457.424 2.75329 -4.3865 0
M  V30 5006 H 454.101 3.67728 -1.97692 0
M  V30 5007 H 455.491 3.07596 -5.97356 0
M  V30 5008 N 458.211 1.37122 0.776871 0
M  V30 5009 C 459.622 1.28667 1.35284 0
M  V30 5010 C 459.973 -0.0680035 1.96082 0
M  V30 5011 O 459.098 -0.969743 1.93455 0
M  V30 5012 C 459.693 2.32997 2.45963 0
M  V30 5013 C 458.252 2.28191 2.99342 0
M  V30 5014 C 457.399 2.17101 1.72517 0
M  V30 5015 H 460.35 1.47819 0.577527 0
M  V30 5016 H 460.371 1.97366 3.2531 0
M  V30 5017 H 459.883 3.3158 2.01684 0
M  V30 5018 H 457.984 1.33115 3.4801 0
M  V30 5019 H 458.097 3.21397 3.55304 0
M  V30 5020 H 456.461 1.63562 1.95242 0
M  V30 5021 H 457.244 3.17591 1.30348 0
M  V30 5022 N 459.689 -1.00246 1.21608 0
M  V30 5023 C 460.919 -1.77373 1.05935 0
M  V30 5024 C 461.327 -1.85059 -0.393686 0
M  V30 5025 O 460.67 -1.31289 -1.28487 0
M  V30 5026 C 460.732 -3.22705 1.58435 0
M  V30 5027 C 460.396 -3.38591 3.06929 0
M  V30 5028 C 461.393 -3.2667 4.04454 0
M  V30 5029 C 459.078 -3.6395 3.46187 0
M  V30 5030 C 461.072 -3.39877 5.39224 0
M  V30 5031 C 458.759 -3.768 4.81108 0
M  V30 5032 C 459.757 -3.6477 5.77436 0
M  V30 5033 O 459.445 -3.77206 7.09909 0
M  V30 5034 H 459.177 -0.56419 0.372378 0
M  V30 5035 H 461.731 -1.26971 1.61454 0
M  V30 5036 H 459.961 -3.74255 0.973147 0
M  V30 5037 H 461.65 -3.81515 1.38568 0
M  V30 5038 H 462.416 -3.06999 3.75468 0
M  V30 5039 H 458.295 -3.72395 2.71741 0
M  V30 5040 H 461.839 -3.30404 6.14393 0
M  V30 5041 H 457.736 -3.95975 5.09779 0
M  V30 5042 H 458.504 -3.94138 7.17355 0
M  V30 5043 N 461.167 -1.02423 -1.1978 0
M  V30 5044 C 462.097 -0.62157 -2.25075 0
M  V30 5045 C 463.078 0.367148 -1.6609 0
M  V30 5046 O 464.263 0.250892 -1.92573 0
M  V30 5047 C 461.393 0.0331826 -3.47284 0
M  V30 5048 C 460.347 -0.877323 -4.18912 0
M  V30 5049 C 459.673 -0.0879296 -5.34628 0
M  V30 5050 C 460.973 -2.18892 -4.74219 0
M  V30 5051 H 462.667 -1.50179 -2.59011 0
M  V30 5052 H 460.213 -0.723547 -1.24502 0
M  V30 5053 H 462.166 0.326488 -4.20133 0
M  V30 5054 H 460.89 0.948164 -3.12534 0
M  V30 5055 H 459.549 -1.15475 -3.47938 0
M  V30 5056 H 459.197 0.828941 -4.96123 0
M  V30 5057 H 458.897 -0.694359 -5.83483 0
M  V30 5058 H 460.421 0.198743 -6.10276 0
M  V30 5059 H 461.835 -1.95746 -5.38847 0
M  V30 5060 H 460.232 -2.74686 -5.33542 0
M  V30 5061 H 461.302 -2.84674 -3.92541 0
M  V30 5062 N 462.645 1.35699 -0.801477 0
M  V30 5063 C 463.555 2.33661 -0.209691 0
M  V30 5064 C 464.571 1.6162 0.644591 0
M  V30 5065 O 465.747 1.93529 0.557545 0
M  V30 5066 C 462.812 3.40816 0.636033 0
M  V30 5067 C 461.873 4.28639 -0.238147 0
M  V30 5068 C 461.106 5.30676 0.567307 0
M  V30 5069 O 461.329 5.41174 1.8024 0
M  V30 5070 O 460.263 6.01887 -0.0391336 0
M  V30 5071 H 464.089 2.8606 -1.01996 0
M  V30 5072 H 461.674 1.38379 -0.563164 0
M  V30 5073 H 463.556 4.06301 1.11791 0
M  V30 5074 H 462.231 2.90696 1.42399 0
M  V30 5075 H 461.138 3.66152 -0.767044 0
M  V30 5076 H 462.471 4.82143 -0.989915 0
M  V30 5077 N 464.123 0.554532 1.47522 0
M  V30 5078 C 465.055 -0.232106 2.28022 0
M  V30 5079 C 466.068 -0.881865 1.36847 0
M  V30 5080 O 467.257 -0.756168 1.61692 0
M  V30 5081 C 464.357 -1.34604 3.11022 0
M  V30 5082 C 463.53 -0.793582 4.30141 0
M  V30 5083 C 462.589 -1.79168 4.94758 0
M  V30 5084 O 461.615 -1.33886 5.5323 0
M  V30 5085 N 462.817 -3.12495 4.89211 0
M  V30 5086 H 465.582 0.458407 2.96173 0
M  V30 5087 H 463.143 0.390433 1.57122 0
M  V30 5088 H 465.135 -2.01243 3.51118 0
M  V30 5089 H 463.705 -1.93983 2.45131 0
M  V30 5090 H 462.925 0.0495025 3.94169 0
M  V30 5091 H 464.213 -0.403776 5.07195 0
M  V30 5092 H 463.611 -3.51931 4.42901 0
M  V30 5093 H 462.168 -3.74698 5.33333 0
M  V30 5094 N 465.601 -1.54893 0.290851 0
M  V30 5095 C 466.831 -2.04047 -0.323818 0
M  V30 5096 C 467.239 -1.16809 -1.48837 0
M  V30 5097 O 466.582 -0.184145 -1.82775 0
M  V30 5098 C 466.644 -3.49248 -0.852395 0
M  V30 5099 C 466.308 -4.56623 0.185557 0
M  V30 5100 C 467.305 -5.09985 1.01053 0
M  V30 5101 C 464.99 -5.01252 0.324332 0
M  V30 5102 C 466.984 -6.06507 1.96031 0
M  V30 5103 C 464.671 -5.97596 1.27757 0
M  V30 5104 C 465.669 -6.50107 2.09405 0
M  V30 5105 O 465.357 -7.44565 3.03114 0
M  V30 5106 H 465.089 -0.671735 -0.0758129 0
M  V30 5107 H 467.643 -2.00947 0.425393 0
M  V30 5108 H 465.873 -3.49639 -1.65195 0
M  V30 5109 H 467.562 -3.81654 -1.38185 0
M  V30 5110 H 468.328 -4.76307 0.914129 0
M  V30 5111 H 464.207 -4.60015 -0.301213 0
M  V30 5112 H 467.751 -6.47418 2.598 0
M  V30 5113 H 463.648 -6.30691 1.37473 0
M  V30 5114 H 464.416 -7.62334 2.97976 0
M  V30 5115 N 467.08 -0.0183926 -1.57589 0
M  V30 5116 C 468.31 0.67207 -1.95363 0
M  V30 5117 C 468.718 1.66807 -0.892872 0
M  V30 5118 O 468.061 1.83204 0.134958 0
M  V30 5119 C 468.123 1.44397 -3.29226 0
M  V30 5120 C 467.787 0.607511 -4.52944 0
M  V30 5121 C 468.784 -0.112657 -5.19778 0
M  V30 5122 C 466.469 0.548068 -4.99301 0
M  V30 5123 C 468.463 -0.881057 -6.31281 0
M  V30 5124 C 466.15 -0.224044 -6.10689 0
M  V30 5125 C 467.148 -0.937323 -6.76538 0
M  V30 5126 O 466.836 -1.6968 -7.85789 0
M  V30 5127 H 466.568 0.190925 -0.648478 0
M  V30 5128 H 469.122 -0.0711994 -2.05277 0
M  V30 5129 H 467.352 2.23214 -3.15773 0
M  V30 5130 H 469.041 2.02152 -3.51979 0
M  V30 5131 H 469.807 -0.0759998 -4.8494 0
M  V30 5132 H 465.686 1.09281 -4.4786 0
M  V30 5133 H 469.23 -1.43832 -6.82611 0
M  V30 5134 H 465.127 -0.262457 -6.44966 0
M  V30 5135 H 465.895 -1.61544 -8.024 0
M  V30 5136 N 468.558 1.5553 0.254621 0
M  V30 5137 C 469.835 1.6774 1.00611 0
M  V30 5138 C 470.215 0.555993 2.03647 0
M  V30 5139 O 469.563 -0.441583 2.24193 0
M  V30 5140 C 469.773 3.07725 1.6464 0
M  V30 5141 C 471.121 3.66074 2.15116 0
M  V30 5142 O 472.145 3.10476 1.74595 0
M  V30 5143 O 471.004 4.63526 2.89493 0
M  V30 5144 H 468.098 0.681958 0.467828 0
M  V30 5145 H 470.644 1.67863 0.24902 0
M  V30 5146 H 469.416 3.80792 0.900734 0
M  V30 5147 H 469.039 3.1158 2.46989 0
M  V30 5148 N 470.036 -0.519951 1.48776 0
M  V30 5149 C 471.447 -1.10177 1.50725 0
M  V30 5150 C 471.798 -1.94153 0.282678 0
M  V30 5151 O 470.923 -2.07645 -0.609298 0
M  V30 5152 C 471.518 -2.00482 2.73116 0
M  V30 5153 C 470.077 -2.53862 2.77905 0
M  V30 5154 C 469.224 -1.31047 2.44381 0
M  V30 5155 H 472.175 -0.30473 1.55747 0
M  V30 5156 H 472.196 -2.8491 2.52203 0
M  V30 5157 H 471.708 -1.39335 3.62225 0
M  V30 5158 H 469.809 -3.18702 1.93029 0
M  V30 5159 H 469.922 -2.9231 3.79594 0
M  V30 5160 H 468.286 -1.62953 1.95751 0
M  V30 5161 H 469.069 -0.71637 3.35743 0
M  V30 5162 N 471.514 -1.37532 -0.769588 0
M  V30 5163 C 472.739 -1.36231 -1.56384 0
M  V30 5164 C 473.164 0.0495849 -1.88035 0
M  V30 5165 O 472.522 1.02723 -1.49391 0
M  V30 5166 C 472.57 -2.20986 -2.84952 0
M  V30 5167 O 471.674 -1.61597 -3.79421 0
M  V30 5168 H 471.015 -0.465387 -0.473615 0
M  V30 5169 H 473.545 -1.81085 -0.952342 0
M  V30 5170 H 473.555 -2.34277 -3.34034 0
M  V30 5171 H 472.23 -3.23612 -2.61243 0
M  V30 5172 H 470.807 -1.57359 -3.38072 0
M  V30 5173 N 472.992 0.995999 -1.22138 0
M  V30 5174 C 474.269 1.70834 -0.952642 0
M  V30 5175 C 474.649 2.04257 0.533119 0
M  V30 5176 O 473.997 1.72343 1.50034 0
M  V30 5177 C 474.207 2.96119 -1.84701 0
M  V30 5178 C 475.555 3.68962 -2.10124 0
M  V30 5179 O 476.579 3.0612 -1.82124 0
M  V30 5180 O 475.438 4.82017 -2.57531 0
M  V30 5181 H 472.532 0.745498 -0.357997 0
M  V30 5182 H 475.078 1.05262 -1.33109 0
M  V30 5183 H 473.85 2.67898 -2.85213 0
M  V30 5184 H 473.473 3.6943 -1.46995 0
M  V30 5185 N 474.47 1.03057 1.19235 0
M  V30 5186 C 475.38 0.622922 2.26179 0
M  V30 5187 C 476.396 -0.346113 1.70523 0
M  V30 5188 O 477.572 -0.203572 2.00369 0
M  V30 5189 C 474.637 -0.0182063 3.46695 0
M  V30 5190 C 473.698 0.998546 4.17526 0
M  V30 5191 C 472.931 0.387917 5.32288 0
M  V30 5192 O 473.154 -0.808668 5.64639 0
M  V30 5193 O 472.088 1.1116 5.91546 0
M  V30 5194 H 475.914 1.51363 2.63292 0
M  V30 5195 H 473.499 0.800856 1.26122 0
M  V30 5196 H 475.381 -0.375606 4.19723 0
M  V30 5197 H 474.056 -0.882895 3.11427 0
M  V30 5198 H 472.963 1.40756 3.4661 0
M  V30 5199 H 474.296 1.83366 4.56769 0
M  V30 5200 N 475.948 -1.35272 0.808662 0
M  V30 5201 C 477.359 -1.81179 0.450688 0
M  V30 5202 C 477.71 -1.67143 -1.02751 0
M  V30 5203 O 476.835 -1.20325 -1.79864 0
M  V30 5204 C 477.43 -3.28943 0.811275 0
M  V30 5205 C 475.989 -3.72985 0.505871 0
M  V30 5206 C 475.136 -2.57229 1.03578 0
M  V30 5207 H 478.087 -1.2322 1.00012 0
M  V30 5208 H 478.108 -3.80342 0.109588 0
M  V30 5209 H 477.62 -3.39127 1.88718 0
M  V30 5210 H 475.721 -3.68349 -0.561209 0
M  V30 5211 H 475.834 -4.67677 1.03995 0
M  V30 5212 H 474.198 -2.50548 0.458005 0
M  V30 5213 H 474.981 -2.7019 2.11784 0
M  V30 5214 N 477.426 -0.562348 -1.47226 0
M  V30 5215 C 478.675 -0.038041 -2.01664 0
M  V30 5216 C 478.988 1.32199 -1.44162 0
M  V30 5217 O 480.194 1.9365 -1.90294 0
M  V30 5218 C 478.65 -0.0174958 -3.59896 0
M  V30 5219 C 478.258 -1.3746 -4.2639 0
M  V30 5220 C 480.002 0.453934 -4.22066 0
M  V30 5221 C 477.909 -1.31289 -5.76643 0
M  V30 5222 H 476.839 -0.0104511 -0.753928 0
M  V30 5223 H 479.49 -0.710966 -1.69167 0
M  V30 5224 H 477.872 0.721182 -3.89378 0
M  V30 5225 H 479.046 -2.1314 -4.08544 0
M  V30 5226 H 477.361 -1.78438 -3.7623 0
M  V30 5227 H 479.958 0.518584 -5.32179 0
M  V30 5228 H 480.301 1.46706 -3.89594 0
M  V30 5229 H 480.834 -0.230044 -3.97134 0
M  V30 5230 H 477.573 -2.30217 -6.13743 0
M  V30 5231 H 477.093 -0.597973 -5.96812 0
M  V30 5232 H 478.772 -1.01713 -6.38955 0
M  V30 5233 N 478.904 1.54736 -0.299062 0
M  V30 5234 C 479.867 2.22127 0.565012 0
M  V30 5235 C 480.867 1.20669 1.06281 0
M  V30 5236 O 482.057 1.45417 0.959145 0
M  V30 5237 C 479.189 2.90611 1.78208 0
M  V30 5238 H 480.382 2.99891 -0.0237448 0
M  V30 5239 H 477.935 1.5622 -0.0498788 0
M  V30 5240 H 478.67 2.16921 2.41072 0
M  V30 5241 H 478.455 3.64984 1.43281 0
M  V30 5242 H 479.945 3.42026 2.396 0
M  V30 5243 N 480.382 0.0267497 1.57577 0
M  V30 5244 C 481.292 -0.971633 2.13533 0
M  V30 5245 C 482.308 -1.35868 1.08701 0
M  V30 5246 O 483.484 -1.44058 1.40746 0
M  V30 5247 C 480.549 -2.23622 2.64941 0
M  V30 5248 C 479.61 -1.90982 3.8448 0
M  V30 5249 C 478.843 -3.11411 4.33427 0
M  V30 5250 O 479.066 -4.23992 3.81558 0
M  V30 5251 O 478 -2.93848 5.25297 0
M  V30 5252 H 481.826 -0.525853 2.99113 0
M  V30 5253 H 479.411 -0.193712 1.48139 0
M  V30 5254 H 481.293 -2.97864 2.98086 0
M  V30 5255 H 479.968 -2.67386 1.82446 0
M  V30 5256 H 478.875 -1.14132 3.56265 0
M  V30 5257 H 480.208 -1.52036 4.6813 0
M  V30 5258 N 481.861 -1.55662 -0.24637 0
M  V30 5259 C 482.824 -1.89558 -1.28842 0
M  V30 5260 C 483.824 -0.772082 -1.41052 0
M  V30 5261 O 485.014 -1.04007 -1.39743 0
M  V30 5262 C 482.146 -2.12449 -2.66605 0
M  V30 5263 H 483.339 -2.82735 -1.00004 0
M  V30 5264 H 480.892 -1.48562 -0.485684 0
M  V30 5265 H 481.627 -1.21742 -3.00582 0
M  V30 5266 H 481.412 -2.94273 -2.59125 0
M  V30 5267 H 482.902 -2.39854 -3.41847 0
M  V30 5268 N 483.339 0.512053 -1.4905 0
M  V30 5269 C 484.75 1.09376 -1.51307 0
M  V30 5270 C 485.101 1.94 -0.292971 0
M  V30 5271 O 484.226 2.07965 0.598277 0
M  V30 5272 C 484.821 1.99031 -2.74176 0
M  V30 5273 C 483.38 2.52385 -2.79247 0
M  V30 5274 C 482.527 1.29749 -2.45073 0
M  V30 5275 H 485.478 0.296467 -1.55906 0
M  V30 5276 H 485.499 2.83569 -2.53711 0
M  V30 5277 H 485.011 1.37412 -3.62959 0
M  V30 5278 H 483.112 3.17673 -1.94716 0
M  V30 5279 H 483.225 2.90293 -3.81139 0
M  V30 5280 H 481.589 1.61912 -1.96612 0
M  V30 5281 H 482.372 0.698555 -3.36118 0
M  V30 5282 N 484.817 1.37938 0.762283 0
M  V30 5283 C 486.064 1.33668 1.52115 0
M  V30 5284 C 486.392 -0.0759538 1.94352 0
M  V30 5285 O 485.647 -1.05121 1.6507 0
M  V30 5286 C 485.946 2.23042 2.79261 0
M  V30 5287 C 485.612 3.71159 2.56031 0
M  V30 5288 C 484.274 4.11523 2.49404 0
M  V30 5289 C 486.626 4.64955 2.35513 0
M  V30 5290 C 483.954 5.43784 2.20263 0
M  V30 5291 C 486.306 5.97464 2.07894 0
M  V30 5292 C 484.97 6.36922 1.99718 0
M  V30 5293 H 484.24 0.489127 0.556629 0
M  V30 5294 H 486.887 1.70224 0.877262 0
M  V30 5295 H 485.192 1.79512 3.48256 0
M  V30 5296 H 486.889 2.17047 3.37182 0
M  V30 5297 H 483.479 3.39153 2.62056 0
M  V30 5298 H 487.663 4.34623 2.39617 0
M  V30 5299 H 482.919 5.73307 2.12435 0
M  V30 5300 H 487.093 6.6969 1.91019 0
M  V30 5301 H 484.72 7.39331 1.76902 0
M  V30 5302 N 486.295 -0.989507 1.22664 0
M  V30 5303 C 487.242 -2.08024 0.999733 0
M  V30 5304 C 488.212 -1.65909 -0.0797047 0
M  V30 5305 O 489.397 -1.90669 0.0705715 0
M  V30 5306 C 486.537 -3.40067 0.587234 0
M  V30 5307 C 485.65 -3.95505 1.73781 0
M  V30 5308 C 484.785 -5.15722 1.27297 0
M  V30 5309 C 483.824 -5.63305 2.39488 0
M  V30 5310 N 482.961 -6.74758 1.94026 0
M  V30 5311 H 487.801 -2.26768 1.9334 0
M  V30 5312 H 485.338 -1.11171 0.963297 0
M  V30 5313 H 487.296 -4.15899 0.329227 0
M  V30 5314 H 485.926 -3.21314 -0.309426 0
M  V30 5315 H 484.978 -3.16513 2.11006 0
M  V30 5316 H 486.29 -4.26797 2.58158 0
M  V30 5317 H 485.444 -5.98854 0.972546 0
M  V30 5318 H 484.183 -4.86061 0.399445 0
M  V30 5319 H 483.188 -4.78759 2.70315 0
M  V30 5320 H 484.413 -5.94988 3.27362 0
M  V30 5321 H 482.359 -6.46874 1.09041 0
M  V30 5322 H 482.276 -7.05386 2.71968 0
M  V30 5323 H 483.544 -7.61387 1.67062 0
M  V30 5324 N 487.773 -1.03688 -1.18687 0
M  V30 5325 C 489.02 -0.73803 -1.88572 0
M  V30 5326 C 489.348 0.733973 -1.8012 0
M  V30 5327 O 488.603 1.55098 -1.19344 0
M  V30 5328 C 488.902 -1.14477 -3.3857 0
M  V30 5329 C 488.568 -2.61641 -3.67226 0
M  V30 5330 C 487.23 -3.01846 -3.74757 0
M  V30 5331 C 489.582 -3.56812 -3.79914 0
M  V30 5332 C 486.91 -4.36118 -3.92451 0
M  V30 5333 C 489.262 -4.90799 -3.99123 0
M  V30 5334 C 487.926 -5.3068 -4.04888 0
M  V30 5335 H 487.196 -0.270064 -0.690034 0
M  V30 5336 H 489.843 -1.3012 -1.40503 0
M  V30 5337 H 488.148 -0.500337 -3.88592 0
M  V30 5338 H 489.845 -0.89095 -3.90977 0
M  V30 5339 H 486.435 -2.29498 -3.61979 0
M  V30 5340 H 490.619 -3.26899 -3.73431 0
M  V30 5341 H 485.875 -4.66542 -3.95157 0
M  V30 5342 H 490.049 -5.64451 -4.07882 0
M  V30 5343 H 487.676 -6.34733 -4.18351 0
M  V30 5344 N 489.251 1.34841 -0.815825 0
M  V30 5345 C 490.528 1.92908 -0.323416 0
M  V30 5346 C 490.908 1.74479 1.18828 0
M  V30 5347 O 490.256 1.11928 1.99209 0
M  V30 5348 C 490.466 3.40957 -0.744952 0
M  V30 5349 C 491.814 4.18107 -0.739716 0
M  V30 5350 O 492.838 3.49511 -0.68708 0
M  V30 5351 O 491.697 5.40517 -0.806456 0
M  V30 5352 H 488.791 0.822436 -0.0867646 0
M  V30 5353 H 491.337 1.4386 -0.90014 0
M  V30 5354 H 490.109 3.4814 -1.78646 0
M  V30 5355 H 489.732 3.97341 -0.143535 0
M  V30 5356 N 490.729 0.570148 1.46925 0
M  V30 5357 C 491.662 -0.218362 2.27153 0
M  V30 5358 C 492.64 -0.90847 1.34854 0
M  V30 5359 O 493.824 -0.924875 1.64251 0
M  V30 5360 C 490.951 -1.3122 3.12248 0
M  V30 5361 C 489.997 -0.729277 4.20219 0
M  V30 5362 S 490.83 0.434159 5.33737 0
M  V30 5363 C 491.986 -0.661188 6.22398 0
M  V30 5364 H 492.219 0.462393 2.93682 0
M  V30 5365 H 489.752 0.356753 1.50222 0
M  V30 5366 H 491.71 -1.93856 3.61842 0
M  V30 5367 H 490.371 -1.96485 2.45056 0
M  V30 5368 H 489.564 -1.5511 4.79538 0
M  V30 5369 H 489.166 -0.178836 3.73572 0
M  V30 5370 H 491.458 -1.55006 6.5953 0
M  V30 5371 H 492.401 -0.105046 7.08022 0
M  V30 5372 H 492.809 -0.959682 5.56283 0
M  V30 5373 N 492.207 -1.54576 0.307264 0
M  V30 5374 C 493.117 -2.27435 -0.57536 0
M  V30 5375 C 494.133 -1.31183 -1.14311 0
M  V30 5376 O 495.309 -1.64175 -1.16656 0
M  V30 5377 C 492.374 -3.00566 -1.72803 0
M  V30 5378 C 491.435 -4.12369 -1.19373 0
M  V30 5379 C 490.668 -4.82003 -2.29147 0
M  V30 5380 O 490.891 -4.51038 -3.49171 0
M  V30 5381 O 489.825 -5.69271 -1.95485 0
M  V30 5382 H 493.651 -3.03696 0.0158558 0
M  V30 5383 H 491.236 -1.49219 0.0735064 0
M  V30 5384 H 493.118 -3.46416 -2.39946 0
M  V30 5385 H 491.793 -2.27195 -2.30574 0
M  V30 5386 H 490.7 -3.70905 -0.487851 0
M  V30 5387 H 492.033 -4.87736 -0.661376 0
M  V30 5388 N 493.685 -0.035106 -1.57561 0
M  V30 5389 C 494.615 0.942993 -2.13612 0
M  V30 5390 C 495.596 1.33531 -1.05373 0
M  V30 5391 O 496.781 1.41287 -1.33235 0
M  V30 5392 C 493.911 2.22332 -2.66807 0
M  V30 5393 C 492.865 1.97156 -3.79886 0
M  V30 5394 C 492.191 3.31506 -4.19533 0
M  V30 5395 C 493.491 1.30596 -5.05709 0
M  V30 5396 H 495.185 0.476179 -2.95589 0
M  V30 5397 H 492.731 0.227602 -1.4219 0
M  V30 5398 H 494.684 2.91142 -3.04654 0
M  V30 5399 H 493.408 2.7119 -1.81999 0
M  V30 5400 H 492.067 1.30763 -3.42486 0
M  V30 5401 H 491.715 3.78134 -3.31698 0
M  V30 5402 H 491.415 3.15465 -4.95738 0
M  V30 5403 H 492.939 4.01574 -4.59968 0
M  V30 5404 H 494.353 1.89416 -5.41105 0
M  V30 5405 H 492.75 1.24934 -5.86951 0
M  V30 5406 H 493.82 0.279742 -4.84092 0
M  V30 5407 N 495.163 1.55791 0.238111 0
M  V30 5408 C 496.44 1.68798 0.98826 0
M  V30 5409 C 496.82 0.577562 2.03045 0
M  V30 5410 O 496.168 -0.41778 2.24648 0
M  V30 5411 C 496.378 3.09454 1.61367 0
M  V30 5412 C 497.726 3.68335 2.11221 0
M  V30 5413 O 498.75 3.1231 1.71292 0
M  V30 5414 O 497.609 4.6657 2.84561 0
M  V30 5415 H 494.703 0.686881 0.460568 0
M  V30 5416 H 497.249 1.68118 0.231202 0
M  V30 5417 H 496.021 3.81726 0.860295 0
M  V30 5418 H 495.644 3.14182 2.4367 0
M  V30 5419 N 496.642 -0.504142 1.49319 0
M  V30 5420 C 497.919 -1.26548 1.49147 0
M  V30 5421 C 498.299 -2.09977 0.21744 0
M  V30 5422 O 497.647 -2.14028 -0.800269 0
M  V30 5423 C 497.857 -2.12489 2.76857 0
M  V30 5424 C 499.205 -2.7178 3.26222 0
M  V30 5425 O 500.229 -2.22758 2.77952 0
M  V30 5426 O 499.088 -3.61015 4.10281 0
M  V30 5427 H 496.182 -0.572495 0.596806 0
M  V30 5428 H 498.728 -0.51867 1.61579 0
M  V30 5429 H 497.5 -1.50796 3.61077 0
M  V30 5430 H 497.123 -2.94368 2.6727 0
M  V30 5431 N 498.12 -1.38341 -0.754957 0
M  V30 5432 C 499.05 -1.38176 -1.88227 0
M  V30 5433 C 500.031 -0.247873 -1.68284 0
M  V30 5434 O 501.216 -0.45075 -1.88896 0
M  V30 5435 C 498.346 -1.20471 -3.25736 0
M  V30 5436 C 497.3 -2.3105 -3.60278 0
M  V30 5437 C 496.626 -1.98452 -4.96509 0
M  V30 5438 C 497.926 -3.73305 -3.65295 0
M  V30 5439 H 499.62 -2.32512 -1.88622 0
M  V30 5440 H 497.166 -1.1192 -0.906082 0
M  V30 5441 H 499.119 -1.18982 -4.04254 0
M  V30 5442 H 497.843 -0.225965 -3.25817 0
M  V30 5443 H 496.502 -2.31723 -2.84078 0
M  V30 5444 H 496.15 -0.990641 -4.93148 0
M  V30 5445 H 495.85 -2.7251 -5.20588 0
M  V30 5446 H 497.374 -1.98578 -5.77407 0
M  V30 5447 H 498.788 -3.7467 -4.3393 0
M  V30 5448 H 497.185 -4.46557 -4.00883 0
M  V30 5449 H 498.255 -4.05719 -2.65556 0
M  V30 5450 N 499.598 0.982988 -1.23187 0
M  V30 5451 C 501.009 1.53847 -1.05773 0
M  V30 5452 C 501.36 1.92568 0.375744 0
M  V30 5453 O 500.485 1.75783 1.26211 0
M  V30 5454 C 501.08 2.79567 -1.91384 0
M  V30 5455 C 499.639 3.31524 -1.78238 0
M  V30 5456 C 498.786 2.04534 -1.87246 0
M  V30 5457 H 501.737 0.802962 -1.36888 0
M  V30 5458 H 501.758 3.52317 -1.43711 0
M  V30 5459 H 501.27 2.51353 -2.95708 0
M  V30 5460 H 499.371 3.64623 -0.766875 0
M  V30 5461 H 499.484 4.01457 -2.61475 0
M  V30 5462 H 497.848 2.1855 -1.30797 0
M  V30 5463 H 498.631 1.78706 -2.9312 0
M  V30 5464 N 501.076 1.04316 1.18135 0
M  V30 5465 C 502.023 0.636398 2.21853 0
M  V30 5466 C 502.993 -0.357039 1.62217 0
M  V30 5467 O 504.178 -0.250453 1.89149 0
M  V30 5468 C 501.318 0.00812779 3.45099 0
M  V30 5469 C 500.431 1.04933 4.19062 0
M  V30 5470 C 499.566 0.389313 5.29771 0
M  V30 5471 C 498.605 1.41544 5.9551 0
M  V30 5472 N 497.742 0.78021 6.97751 0
M  V30 5473 H 502.582 1.52536 2.56002 0
M  V30 5474 H 500.119 0.76304 1.25762 0
M  V30 5475 H 502.077 -0.373497 4.15525 0
M  V30 5476 H 500.707 -0.844336 3.11562 0
M  V30 5477 H 499.759 1.54888 3.47439 0
M  V30 5478 H 501.071 1.82862 4.64072 0
M  V30 5479 H 500.225 -0.0463805 6.06682 0
M  V30 5480 H 498.964 -0.422038 4.8587 0
M  V30 5481 H 497.969 1.86124 5.17337 0
M  V30 5482 H 499.194 2.22854 6.41493 0
M  V30 5483 H 497.14 -0.0107899 6.55999 0
M  V30 5484 H 497.057 1.49716 7.41027 0
M  V30 5485 H 498.325 0.368996 7.78626 0
M  V30 5486 N 502.554 -1.34406 0.822964 0
M  V30 5487 C 503.464 -2.33298 0.246838 0
M  V30 5488 C 504.48 -1.62625 -0.618797 0
M  V30 5489 O 505.656 -1.94391 -0.526685 0
M  V30 5490 C 502.721 -3.41785 -0.581731 0
M  V30 5491 C 501.782 -4.28206 0.306309 0
M  V30 5492 C 501.015 -5.31512 -0.48281 0
M  V30 5493 O 501.238 -5.43973 -1.71607 0
M  V30 5494 O 500.172 -6.01749 0.134884 0
M  V30 5495 H 503.998 -2.84401 1.06534 0
M  V30 5496 H 501.583 -1.37466 0.585108 0
M  V30 5497 H 503.465 -4.08028 -1.05313 0
M  V30 5498 H 502.14 -2.92925 -1.37756 0
M  V30 5499 H 501.047 -3.64885 0.825199 0
M  V30 5500 H 502.38 -4.80507 1.06649 0
M  V30 5501 N 504.032 -0.577932 -1.46621 0
M  V30 5502 C 504.979 0.158048 -2.30258 0
M  V30 5503 C 505.949 0.888669 -1.40328 0
M  V30 5504 O 507.134 0.880283 -1.6928 0
M  V30 5505 C 504.274 1.16884 -3.24703 0
M  V30 5506 C 503.387 0.442163 -4.29731 0
M  V30 5507 C 502.522 1.44007 -5.11308 0
M  V30 5508 C 501.561 0.69952 -6.0809 0
M  V30 5509 N 500.698 1.64525 -6.82551 0
M  V30 5510 H 505.538 -0.561242 -2.92667 0
M  V30 5511 H 503.075 -0.288591 -1.44241 0
M  V30 5512 H 505.033 1.7677 -3.779 0
M  V30 5513 H 503.663 1.85591 -2.64113 0
M  V30 5514 H 502.715 -0.271632 -3.79429 0
M  V30 5515 H 504.027 -0.136992 -4.98612 0
M  V30 5516 H 503.181 2.11186 -5.68758 0
M  V30 5517 H 501.92 2.05315 -4.42377 0
M  V30 5518 H 500.925 0.0139217 -5.49798 0
M  V30 5519 H 502.15 0.091894 -6.79038 0
M  V30 5520 H 500.096 2.24653 -6.16334 0
M  V30 5521 H 500.013 1.11878 -7.47676 0
M  V30 5522 H 501.281 2.30754 -7.44562 0
M  V30 5523 N 505.51 1.54411 -0.315457 0
M  V30 5524 C 506.44 2.27002 0.547039 0
M  V30 5525 C 507.421 1.27492 1.12605 0
M  V30 5526 O 508.606 1.5629 1.15269 0
M  V30 5527 C 505.736 3.02171 1.71201 0
M  V30 5528 C 504.69 4.0895 1.26268 0
M  V30 5529 C 504.016 4.71915 2.51396 0
M  V30 5530 C 505.316 5.20891 0.383419 0
M  V30 5531 H 507.01 2.99343 -0.0584517 0
M  V30 5532 H 504.556 1.4397 -0.0295527 0
M  V30 5533 H 506.509 3.51681 2.32161 0
M  V30 5534 H 505.233 2.27433 2.34397 0
M  V30 5535 H 503.892 3.60312 0.676062 0
M  V30 5536 H 503.54 3.93801 3.12937 0
M  V30 5537 H 503.24 5.44039 2.22026 0
M  V30 5538 H 504.764 5.24195 3.13133 0
M  V30 5539 H 506.178 5.66206 0.899082 0
M  V30 5540 H 504.575 5.99821 0.182857 0
M  V30 5541 H 505.645 4.81324 -0.587821 0
M  V30 5542 N 506.988 0.0434614 1.5754 0
M  V30 5543 C 507.935 -0.93356 2.11077 0
M  V30 5544 C 508.905 -1.31383 1.01626 0
M  V30 5545 O 510.09 -1.40465 1.29129 0
M  V30 5546 C 507.23 -2.20578 2.65404 0
M  V30 5547 C 506.343 -1.88068 3.88914 0
M  V30 5548 C 505.478 -3.09691 4.31584 0
M  V30 5549 C 504.517 -2.73067 5.47815 0
M  V30 5550 N 503.654 -3.87359 5.85574 0
M  V30 5551 H 508.494 -0.470118 2.94268 0
M  V30 5552 H 506.031 -0.220434 1.45439 0
M  V30 5553 H 507.989 -2.95011 2.94999 0
M  V30 5554 H 506.619 -2.64513 1.85021 0
M  V30 5555 H 505.671 -1.03816 3.6596 0
M  V30 5556 H 506.983 -1.57104 4.73413 0
M  V30 5557 H 506.137 -3.92431 4.62691 0
M  V30 5558 H 504.876 -3.43827 3.45882 0
M  V30 5559 H 503.881 -1.88742 5.16388 0
M  V30 5560 H 505.106 -2.40131 6.35227 0
M  V30 5561 H 503.052 -4.21311 5.02825 0
M  V30 5562 H 502.969 -3.60068 6.64746 0
M  V30 5563 H 504.237 -4.70761 6.21292 0
M  V30 5564 N 508.466 -1.55915 -0.229846 0
M  V30 5565 C 509.376 -1.94891 -1.30593 0
M  V30 5566 C 510.392 -0.851604 -1.51736 0
M  V30 5567 O 511.568 -1.15447 -1.65027 0
M  V30 5568 C 508.633 -2.25052 -2.63728 0
M  V30 5569 C 507.694 -3.48306 -2.5096 0
M  V30 5570 C 506.927 -3.77019 -3.77747 0
M  V30 5571 O 507.15 -3.07534 -4.80395 0
M  V30 5572 O 506.084 -4.70523 -3.75356 0
M  V30 5573 H 509.91 -2.86581 -1.00525 0
M  V30 5574 H 507.495 -1.43017 -0.432025 0
M  V30 5575 H 509.377 -2.45682 -3.42372 0
M  V30 5576 H 508.052 -1.36538 -2.93495 0
M  V30 5577 H 506.959 -3.32964 -1.70546 0
M  V30 5578 H 508.292 -4.37177 -2.26136 0
M  V30 5579 N 509.944 0.496216 -1.49584 0
M  V30 5580 C 510.874 1.60576 -1.69521 0
M  V30 5581 C 511.855 1.61169 -0.543933 0
M  V30 5582 O 513.04 1.77834 -0.78031 0
M  V30 5583 C 510.17 2.99038 -1.76616 0
M  V30 5584 C 509.124 3.13312 -2.91581 0
M  V30 5585 C 508.45 4.53172 -2.83794 0
M  V30 5586 C 509.75 2.92886 -4.32452 0
M  V30 5587 H 511.444 1.44146 -2.62416 0
M  V30 5588 H 508.99 0.692024 -1.26282 0
M  V30 5589 H 510.943 3.76564 -1.8915 0
M  V30 5590 H 509.667 3.16568 -0.80324 0
M  V30 5591 H 508.326 2.38213 -2.78658 0
M  V30 5592 H 507.974 4.67585 -1.854 0
M  V30 5593 H 507.674 4.63662 -3.60958 0
M  V30 5594 H 509.198 5.32752 -2.98342 0
M  V30 5595 H 510.612 3.60178 -4.46032 0
M  V30 5596 H 509.009 3.14844 -5.10875 0
M  V30 5597 H 510.079 1.88966 -4.46565 0
M  V30 5598 N 511.423 1.38739 0.74761 0
M  V30 5599 C 512.672 1.3459 1.50228 0
M  V30 5600 C 512.985 -0.0595592 1.95509 0
M  V30 5601 O 514.191 -0.22361 2.70578 0
M  V30 5602 C 512.647 2.36377 2.71393 0
M  V30 5603 C 512.255 3.82573 2.33113 0
M  V30 5604 C 513.999 2.41281 3.49262 0
M  V30 5605 C 511.906 4.76032 3.50924 0
M  V30 5606 H 510.836 0.500312 0.564096 0
M  V30 5607 H 513.487 1.64324 0.8167 0
M  V30 5608 H 511.869 1.99694 3.41962 0
M  V30 5609 H 513.043 4.28227 1.70171 0
M  V30 5610 H 511.358 3.80844 1.68365 0
M  V30 5611 H 513.955 3.08301 4.36869 0
M  V30 5612 H 514.298 1.43353 3.9084 0
M  V30 5613 H 514.831 2.76793 2.85711 0
M  V30 5614 H 511.57 5.75177 3.14408 0
M  V30 5615 H 511.09 4.35066 4.12889 0
M  V30 5616 H 512.769 4.94331 4.17427 0
M  V30 5617 N 512.901 -0.976442 1.23707 0
M  V30 5618 C 514.148 -1.71827 1.07153 0
M  V30 5619 C 514.476 -1.9053 -0.390982 0
M  V30 5620 O 513.731 -1.45779 -1.30564 0
M  V30 5621 C 514.03 -3.11814 1.74662 0
M  V30 5622 C 513.696 -3.12978 3.24585 0
M  V30 5623 C 512.358 -3.13003 3.6549 0
M  V30 5624 C 514.71 -3.07986 4.20469 0
M  V30 5625 C 512.038 -3.05757 5.00729 0
M  V30 5626 C 514.39 -3.02282 5.55705 0
M  V30 5627 C 513.054 -3.00631 5.95968 0
M  V30 5628 H 512.324 -0.628758 0.392102 0
M  V30 5629 H 514.971 -1.14239 1.53693 0
M  V30 5630 H 513.276 -3.72812 1.20492 0
M  V30 5631 H 514.973 -3.67989 1.59328 0
M  V30 5632 H 511.563 -3.13718 2.92026 0
M  V30 5633 H 515.747 -3.07103 3.89874 0
M  V30 5634 H 511.003 -3.02834 5.31132 0
M  V30 5635 H 515.177 -2.97376 6.29714 0
M  V30 5636 H 512.804 -2.94771 7.00724 0
M  V30 5637 N 514.379 -1.04941 -1.1758 0
M  V30 5638 C 515.289 -0.658826 -2.25159 0
M  V30 5639 C 516.305 0.318941 -1.71052 0
M  V30 5640 O 517.481 0.171669 -2.00667 0
M  V30 5641 C 514.546 -0.0369522 -3.4668 0
M  V30 5642 C 513.607 -1.06484 -4.15884 0
M  V30 5643 C 512.84 -0.472551 -5.31604 0
M  V30 5644 O 513.063 0.718736 -5.65854 0
M  V30 5645 O 511.997 -1.20557 -5.89703 0
M  V30 5646 H 515.823 -1.55533 -2.60851 0
M  V30 5647 H 513.408 -0.820819 -1.24832 0
M  V30 5648 H 515.29 0.308784 -4.20267 0
M  V30 5649 H 513.965 0.833238 -3.12792 0
M  V30 5650 H 512.872 -1.46253 -3.44327 0
M  V30 5651 H 514.205 -1.9061 -4.53794 0
M  V30 5652 N 515.857 1.33968 -0.830081 0
M  V30 5653 C 516.767 2.33164 -0.259207 0
M  V30 5654 C 517.783 1.62951 0.610164 0
M  V30 5655 O 518.959 1.94668 0.516369 0
M  V30 5656 C 516.024 3.42088 0.563598 0
M  V30 5657 C 515.085 4.28037 -0.329014 0
M  V30 5658 C 514.318 5.3176 0.454616 0
M  V30 5659 O 514.541 5.44876 1.6872 0
M  V30 5660 O 513.475 6.01669 -0.166794 0
M  V30 5661 H 517.301 2.83832 -1.08041 0
M  V30 5662 H 514.886 1.37154 -0.59239 0
M  V30 5663 H 516.768 4.08581 1.03147 0
M  V30 5664 H 515.443 2.93651 1.36201 0
M  V30 5665 H 514.35 3.64443 -0.844538 0
M  V30 5666 H 515.683 4.79934 -1.09196 0
M  V30 5667 N 517.335 0.585699 1.46312 0
M  V30 5668 C 518.563 0.0781299 2.06752 0
M  V30 5669 C 518.978 -1.22812 1.43396 0
M  V30 5670 O 518.335 -1.74318 0.540314 0
M  V30 5671 C 518.386 -0.0911927 3.61385 0
M  V30 5672 O 518.107 1.16336 4.22371 0
M  V30 5673 C 519.608 -0.632765 4.38761 0
M  V30 5674 H 516.828 0.0588188 0.668417 0
M  V30 5675 H 519.372 0.807218 1.87894 0
M  V30 5676 H 517.527 -0.770514 3.7966 0
M  V30 5677 H 517.941 0.979082 5.15281 0
M  V30 5678 H 519.415 -0.70041 5.47538 0
M  V30 5679 H 519.892 -1.65039 4.07012 0
M  V30 5680 H 520.498 0.0117856 4.25298 0
M  V30 5681 N 518.813 -1.54241 0.323641 0
M  V30 5682 C 519.776 -2.22997 -0.529602 0
M  V30 5683 C 520.776 -1.22345 -1.04347 0
M  V30 5684 O 521.966 -1.46924 -0.935889 0
M  V30 5685 C 519.098 -2.93409 -1.73562 0
M  V30 5686 H 520.291 -2.99815 0.0714518 0
M  V30 5687 H 517.844 -1.56121 0.0747258 0
M  V30 5688 H 518.579 -2.20729 -2.37591 0
M  V30 5689 H 518.364 -3.67217 -1.37456 0
M  V30 5690 H 519.854 -3.45794 -2.34128 0
M  V30 5691 N 520.291 -0.0518155 -1.57515 0
M  V30 5692 C 521.707 0.304735 -1.56664 0
M  V30 5693 C 521.907 1.71395 -1.05953 0
M  V30 5694 O 520.963 2.42123 -0.716414 0
M  V30 5695 C 522.276 0.132614 -3.00407 0
M  V30 5696 C 523.824 0.20367 -3.12337 0
M  V30 5697 C 524.299 0.0600706 -4.57961 0
M  V30 5698 N 525.79 0.116326 -4.63054 0
M  V30 5699 C 526.525 0.0293363 -5.73392 0
M  V30 5700 N 526.021 -0.110038 -6.92713 0
M  V30 5701 N 527.814 0.0849651 -5.62036 0
M  V30 5702 H 519.965 -0.973056 -1.888 0
M  V30 5703 H 522.228 -0.377781 -0.869474 0
M  V30 5704 H 521.934 -0.839019 -3.41546 0
M  V30 5705 H 521.808 0.893376 -3.66468 0
M  V30 5706 H 524.195 1.16578 -2.71097 0
M  V30 5707 H 524.276 -0.587857 -2.48954 0
M  V30 5708 H 523.92 -0.898715 -4.99886 0
M  V30 5709 H 523.85 0.87075 -5.19351 0
M  V30 5710 H 526.341 0.22327 -3.7724 0
M  V30 5711 H 526.654 -0.169104 -7.72615 0
M  V30 5712 H 524.999 -0.145132 -6.94848 0
M  V30 5713 H 528.19 0.192411 -4.67704 0
M  V30 5714 H 528.363 0.0137131 -6.47999 0
M  V30 5715 N 521.769 1.56035 0.221574 0
M  V30 5716 C 523.016 1.79047 0.94597 0
M  V30 5717 C 523.344 0.62057 1.84334 0
M  V30 5718 O 522.599 -0.395053 1.91671 0
M  V30 5719 C 522.898 3.07813 1.8162 0
M  V30 5720 C 522.564 4.3797 1.07206 0
M  V30 5721 C 521.226 4.73334 0.866508 0
M  V30 5722 C 523.578 5.18326 0.546565 0
M  V30 5723 C 520.906 5.8657 0.123549 0
M  V30 5724 C 523.258 6.32335 -0.18305 0
M  V30 5725 C 521.922 6.66301 -0.399861 0
M  V30 5726 H 521.192 0.655178 0.346155 0
M  V30 5727 H 523.839 1.90299 0.214146 0
M  V30 5728 H 522.144 2.91682 2.61589 0
M  V30 5729 H 523.841 3.2282 2.37884 0
M  V30 5730 H 520.431 4.10202 1.24226 0
M  V30 5731 H 524.615 4.9144 0.692847 0
M  V30 5732 H 519.871 6.11376 -0.0546591 0
M  V30 5733 H 524.045 6.9383 -0.59775 0
M  V30 5734 H 521.672 7.53889 -0.977489 0
M  V30 5735 N 523.247 -0.488276 1.49845 0
M  V30 5736 C 524.179 -1.60539 1.63584 0
M  V30 5737 C 525.192 -1.5434 0.517972 0
M  V30 5738 O 526.381 -1.60041 0.790516 0
M  V30 5739 C 523.481 -2.99374 1.58835 0
M  V30 5740 C 522.654 -3.30624 2.86368 0
M  V30 5741 C 521.713 -4.4893 2.74496 0
M  V30 5742 O 520.739 -4.50085 3.48443 0
M  V30 5743 N 521.941 -5.49591 1.86894 0
M  V30 5744 H 524.706 -1.49176 2.59936 0
M  V30 5745 H 522.267 -0.67639 1.47094 0
M  V30 5746 H 524.259 -3.76459 1.48529 0
M  V30 5747 H 522.829 -3.04595 0.702892 0
M  V30 5748 H 522.049 -2.42314 3.1093 0
M  V30 5749 H 523.337 -3.48305 3.70892 0
M  V30 5750 H 522.735 -5.51467 1.26097 0
M  V30 5751 H 521.292 -6.25728 1.82503 0
M  V30 5752 N 524.725 -1.39134 -0.740242 0
M  V30 5753 C 526.136 -1.32208 -1.31825 0
M  V30 5754 C 526.487 0.0159919 -1.96193 0
M  V30 5755 O 525.612 0.918111 -1.95958 0
M  V30 5756 C 526.207 -2.39436 -2.39699 0
M  V30 5757 C 524.766 -2.36048 -2.93187 0
M  V30 5758 C 523.913 -2.21599 -1.66701 0
M  V30 5759 H 526.864 -1.49298 -0.538133 0
M  V30 5760 H 526.885 -2.05922 -3.19963 0
M  V30 5761 H 526.397 -3.36811 -1.92821 0
M  V30 5762 H 524.498 -1.42295 -3.44359 0
M  V30 5763 H 524.611 -3.30704 -3.46658 0
M  V30 5764 H 522.975 -1.68681 -1.90837 0
M  V30 5765 H 523.758 -3.20936 -1.21882 0
M  V30 5766 N 526.204 0.969867 -1.24223 0
M  V30 5767 C 527.452 1.70918 -1.0785 0
M  V30 5768 C 527.773 1.91186 0.383763 0
M  V30 5769 O 527.043 1.48806 1.27411 0
M  V30 5770 H 525.623 0.633334 -0.396103 0
M  V30 5771 H 528.285 1.16689 -1.56108 0
M  V30 5772 H 527.381 2.69455 -1.57482 0
M  V30 5773 N 527.682 1.05563 1.17022 0
M  V30 5774 C 528.912 0.787307 1.91011 0
M  V30 5775 C 529.32 -0.661256 1.77268 0
M  V30 5776 O 528.663 -1.46379 1.10991 0
M  V30 5777 C 528.725 1.09313 3.42478 0
M  V30 5778 C 528.389 2.53863 3.80004 0
M  V30 5779 C 529.386 3.52081 3.82538 0
M  V30 5780 C 527.071 2.88969 4.10855 0
M  V30 5781 C 529.065 4.83449 4.15399 0
M  V30 5782 C 526.752 4.2054 4.43384 0
M  V30 5783 C 527.75 5.17589 4.45635 0
M  V30 5784 O 527.438 6.46799 4.77395 0
M  V30 5785 H 527.17 0.285463 0.61277 0
M  V30 5786 H 529.724 1.41051 1.49311 0
M  V30 5787 H 527.954 0.412833 3.8449 0
M  V30 5788 H 529.643 0.810224 3.97731 0
M  V30 5789 H 530.409 3.26299 3.58823 0
M  V30 5790 H 526.288 2.1409 4.08272 0
M  V30 5791 H 529.832 5.59194 4.1707 0
M  V30 5792 H 525.729 4.46083 4.66563 0
M  V30 5793 H 526.497 6.51677 4.95237 0
M  V30 5794 N 529.16 -1.33526 0.837174 0
M  V30 5795 C 530.576 -1.50727 0.524743 0
M  V30 5796 C 530.776 -1.77792 -0.948279 0
M  V30 5797 O 529.832 -1.83719 -1.73216 0
M  V30 5798 C 531.145 -2.66299 1.39661 0
M  V30 5799 C 532.693 -2.80183 1.39521 0
M  V30 5800 C 533.168 -3.98815 2.25189 0
M  V30 5801 N 534.659 -4.06047 2.2289 0
M  V30 5802 C 535.394 -4.97032 2.85915 0
M  V30 5803 N 534.89 -5.93143 3.57985 0
M  V30 5804 N 536.683 -4.90015 2.75394 0
M  V30 5805 H 528.834 -1.1422 1.79074 0
M  V30 5806 H 531.097 -0.561399 0.763894 0
M  V30 5807 H 530.803 -2.52974 2.4433 0
M  V30 5808 H 530.677 -3.61663 1.07145 0
M  V30 5809 H 533.064 -2.92942 0.356253 0
M  V30 5810 H 533.145 -1.85586 1.76044 0
M  V30 5811 H 532.789 -3.86817 3.29143 0
M  V30 5812 H 532.719 -4.92654 1.86009 0
M  V30 5813 H 535.21 -3.37262 1.70478 0
M  V30 5814 H 535.523 -6.59227 4.03286 0
M  V30 5815 H 533.868 -5.93223 3.62093 0
M  V30 5816 H 537.059 -4.13894 2.18654 0
M  V30 5817 H 537.232 -5.60724 3.24796 0
M  V30 5818 N 530.638 -0.59345 -1.46 0
M  V30 5819 C 531.863 -0.0872365 -2.07216 0
M  V30 5820 C 532.288 1.2131 -1.43755 0
M  V30 5821 O 531.646 1.73528 -0.525152 0
M  V30 5822 C 531.694 0.0538197 -3.6056 0
M  V30 5823 O 530.798 1.10765 -3.97247 0
M  V30 5824 H 530.139 -0.0676598 -0.660544 0
M  V30 5825 H 532.669 -0.819445 -1.87473 0
M  V30 5826 H 532.679 0.256567 -4.07193 0
M  V30 5827 H 531.354 -0.895739 -4.0614 0
M  V30 5828 H 529.931 0.882501 -3.62307 0
M  V30 5829 O 532.155 1.54388 -0.473979 0
M  V30 5830 H 532.846 1.93634 0.0506067 0
M  V30 END ATOM
M  V30 BEGIN BOND
M  V30 END BOND
M  V30 END CTAB
M  END
$$$$
