drugbank_target|P0AEK4 Enoyl-[acyl-carrier-protein] reductase [NADH] FabI (DB01691; DB01865; DB02379; DB03030; DB03534; DB04030; DB08265; DB08604; DB08605)
 OpenBabel12092120033D

  0  0  0     0  0            999 V3000
M  V30 BEGIN CTAB
M  V30 COUNTS 3904 3936 0 0 0
M  V30 BEGIN ATOM
M  V30 1 H -0.908 1.98254 -0.117106 0
M  V30 2 N 0 1.576 0 0
M  V30 3 C 0.933 2.03868 1.02534 0
M  V30 4 C 1.911 0.928543 1.3348 0
M  V30 5 O 3.095 1.19667 1.45644 0
M  V30 6 C 0.222 2.43627 2.35294 0
M  V30 7 C -0.732 3.65373 2.2001 0
M  V30 8 S 0.101 5.13292 1.52614 0
M  V30 9 C 1.257 5.56322 2.86805 0
M  V30 10 H 1.49 2.90518 0.631377 0
M  V30 11 H -0.977 1.52953 0.210867 0
M  V30 12 H 0.981 2.67203 3.11629 0
M  V30 13 H -0.358 1.57376 2.7183 0
M  V30 14 H -1.165 3.90944 3.18086 0
M  V30 15 H -1.563 3.418 1.51819 0
M  V30 16 H 0.729 5.58782 3.83104 0
M  V30 17 H 1.672 6.56266 2.65933 0
M  V30 18 H 2.08 4.83886 2.90714 0
M  V30 19 N 1.4781 -0.272755 1.55222 0
M  V30 20 C 2.7261 -1.00234 1.75492 0
M  V30 21 C 3.0471 -1.8681 0.5592 0
M  V30 22 O 2.3171 -1.91215 -0.425882 0
M  V30 23 H 0.8971 -0.373076 0.647166 0
M  V30 24 H 3.5591 -0.296926 1.92625 0
M  V30 25 H 2.6551 -1.63913 2.65592 0
M  V30 26 N 2.9562 -1.48159 -0.537278 0
M  V30 27 C 4.2032 -1.55804 -1.29349 0
M  V30 28 C 4.5312 -0.228802 -1.9315 0
M  V30 29 O 3.7862 0.780242 -1.79473 0
M  V30 30 C 4.0852 -2.63956 -2.40961 0
M  V30 31 C 3.7512 -4.0662 -1.94861 0
M  V30 32 C 2.4132 -4.45452 -1.82006 0
M  V30 33 C 4.7652 -4.96055 -1.59933 0
M  V30 34 C 2.0932 -5.71531 -1.32547 0
M  V30 35 C 4.4452 -6.22617 -1.11939 0
M  V30 36 C 3.1092 -6.60312 -0.976951 0
M  V30 37 H 2.3792 -0.570129 -0.473322 0
M  V30 38 H 5.0262 -1.81845 -0.600372 0
M  V30 39 H 3.3312 -2.31747 -3.15912 0
M  V30 40 H 5.0282 -2.67089 -2.99107 0
M  V30 41 H 1.6182 -3.75949 -2.05815 0
M  V30 42 H 5.8022 -4.66738 -1.68728 0
M  V30 43 H 1.0582 -5.99468 -1.202 0
M  V30 44 H 5.2322 -6.91318 -0.839811 0
M  V30 45 H 2.8592 -7.57895 -0.591501 0
M  V30 46 N 4.4343 0.785586 -1.36625 0
M  V30 47 C 5.3643 1.91259 -1.33949 0
M  V30 48 C 6.3453 1.68795 -0.210325 0
M  V30 49 O 7.5303 1.89854 -0.408561 0
M  V30 50 C 4.6603 3.28339 -1.13186 0
M  V30 51 C 3.6143 3.65335 -2.22967 0
M  V30 52 C 2.9403 5.00806 -1.87342 0
M  V30 53 C 4.2403 3.7352 -3.65075 0
M  V30 54 H 5.9343 1.93755 -2.28253 0
M  V30 55 H 3.4803 0.930788 -1.09874 0
M  V30 56 H 5.4333 4.06804 -1.09948 0
M  V30 57 H 4.1573 3.2624 -0.153332 0
M  V30 58 H 2.8163 2.89169 -2.25337 0
M  V30 59 H 2.4643 4.95233 -0.880545 0
M  V30 60 H 2.1643 5.26529 -2.60846 0
M  V30 61 H 3.6883 5.81687 -1.85667 0
M  V30 62 H 5.1023 4.42168 -3.64911 0
M  V30 63 H 3.4993 4.10731 -4.37516 0
M  V30 64 H 4.5693 2.74527 -3.99703 0
M  V30 65 N 5.9124 1.20967 1.01018 0
M  V30 66 C 7.1374 1.0503 1.78839 0
M  V30 67 C 7.5624 -0.395752 1.8389 0
M  V30 68 O 6.9204 -1.28529 1.27867 0
M  V30 69 C 6.9684 1.64602 3.2084 0
M  V30 70 O 6.0724 0.887988 4.02726 0
M  V30 71 H 5.4134 0.369987 0.551367 0
M  V30 72 H 7.9434 1.60399 1.27018 0
M  V30 73 H 7.9534 1.68607 3.71532 0
M  V30 74 H 6.6284 2.69841 3.16479 0
M  V30 75 H 5.2054 0.922648 3.61305 0
M  V30 76 N 7.3905 -1.2043 1.01659 0
M  V30 77 C 8.6385 -1.89423 0.704522 0
M  V30 78 C 8.9595 -1.79231 -0.768197 0
M  V30 79 O 8.2295 -1.1947 -1.55254 0
M  V30 80 H 6.8095 -0.701178 0.257602 0
M  V30 81 H 9.4715 -1.4626 1.28818 0
M  V30 82 H 8.5675 -2.96052 0.987916 0
M  V30 83 N 8.8686 -0.792821 -1.36206 0
M  V30 84 C 9.8156 -0.191653 -2.30003 0
M  V30 85 C 10.7856 0.666453 -1.52143 0
M  V30 86 O 11.9706 0.61442 -1.80636 0
M  V30 87 C 9.1106 0.664848 -3.38635 0
M  V30 88 C 8.2236 -0.212175 -4.31479 0
M  V30 89 C 7.3586 0.651022 -5.27196 0
M  V30 90 C 6.3976 -0.227247 -6.11678 0
M  V30 91 N 5.5346 0.595127 -6.99573 0
M  V30 92 H 10.3746 -0.996978 -2.80828 0
M  V30 93 H 7.9116 -0.503206 -1.38225 0
M  V30 94 H 9.8696 1.17645 -4.00269 0
M  V30 95 H 8.4996 1.43557 -2.89122 0
M  V30 96 H 7.5516 -0.841777 -3.70969 0
M  V30 97 H 8.8636 -0.888751 -4.90818 0
M  V30 98 H 8.0176 1.2283 -5.94136 0
M  V30 99 H 6.7566 1.36121 -4.68319 0
M  V30 100 H 5.7616 -0.816904 -5.43697 0
M  V30 101 H 6.9866 -0.93509 -6.72631 0
M  V30 102 H 4.9326 1.28955 -6.432 0
M  V30 103 H 4.8496 -0.0236952 -7.55996 0
M  V30 104 H 6.1176 1.15613 -7.70879 0
M  V30 105 N 10.3467 1.47872 -0.545128 0
M  V30 106 C 11.7627 1.5829 -0.204032 0
M  V30 107 C 11.9627 1.54529 1.29317 0
M  V30 108 O 11.0187 1.44232 2.07252 0
M  V30 109 C 12.3317 2.89304 -0.819987 0
M  V30 110 C 13.8797 3.02864 -0.790105 0
M  V30 111 C 14.3547 4.3656 -1.38491 0
M  V30 112 N 15.8457 4.43165 -1.34755 0
M  V30 113 C 16.5807 5.45153 -1.77753 0
M  V30 114 N 16.0767 6.54016 -2.2855 0
M  V30 115 N 17.8697 5.36125 -1.68897 0
M  V30 116 H 10.0207 1.4856 -1.51802 0
M  V30 117 H 12.2837 0.706305 -0.632327 0
M  V30 118 H 11.9897 2.97757 -1.87173 0
M  V30 119 H 11.8637 3.75957 -0.305915 0
M  V30 120 H 14.2507 2.94014 0.252913 0
M  V30 121 H 14.3317 2.17782 -1.34181 0
M  V30 122 H 13.9757 4.46164 -2.42693 0
M  V30 123 H 13.9057 5.20353 -0.808754 0
M  V30 124 H 16.3967 3.65083 -0.975855 0
M  V30 125 H 16.7097 7.27994 -2.59314 0
M  V30 126 H 15.0547 6.54938 -2.32553 0
M  V30 127 H 18.2457 4.49975 -1.28998 0
M  V30 128 H 18.4187 6.15472 -2.02726 0
M  V30 129 N 11.8248 0.280983 1.55075 0
M  V30 130 C 13.0738 -0.334784 1.98902 0
M  V30 131 C 13.3868 -1.56534 1.17288 0
M  V30 132 O 14.5928 -2.25443 1.51287 0
M  V30 133 C 13.0488 -0.646994 3.54037 0
M  V30 134 C 12.6568 0.564085 4.44435 0
M  V30 135 C 14.4008 -1.22506 4.06439 0
M  V30 136 C 12.3078 0.226137 5.90967 0
M  V30 137 H 11.2378 -0.128866 0.742906 0
M  V30 138 H 13.8888 0.386556 1.79382 0
M  V30 139 H 12.2708 -1.42739 3.6938 0
M  V30 140 H 13.4448 1.34082 4.40861 0
M  V30 141 H 11.7598 1.0594 4.02698 0
M  V30 142 H 14.3568 -1.49182 5.13468 0
M  V30 143 H 14.6998 -2.16085 3.55827 0
M  V30 144 H 15.2328 -0.50682 3.94558 0
M  V30 145 H 11.9718 1.12996 6.45687 0
M  V30 146 H 11.4918 -0.513717 5.97596 0
M  V30 147 H 13.1708 -0.179539 6.46751 0
M  V30 148 N 13.3029 -1.57598 0.00835791 0
M  V30 149 C 14.2329 -2.1198 -0.979113 0
M  V30 150 C 15.2139 -1.03091 -1.35301 0
M  V30 151 O 16.3989 -1.30818 -1.43528 0
M  V30 152 C 13.5289 -2.62995 -2.26828 0
M  V30 153 C 12.4829 -3.76485 -2.03576 0
M  V30 154 C 11.8089 -4.13846 -3.38579 0
M  V30 155 C 13.1089 -5.0342 -1.39161 0
M  V30 156 H 14.8029 -2.94738 -0.526281 0
M  V30 157 H 12.3489 -1.41783 -0.251704 0
M  V30 158 H 14.3019 -2.99669 -2.96271 0
M  V30 159 H 13.0259 -1.7737 -2.7424 0
M  V30 160 H 11.6849 -3.40217 -1.36557 0
M  V30 161 H 11.3329 -3.25232 -3.83709 0
M  V30 162 H 11.0329 -4.90312 -3.23834 0
M  V30 163 H 12.5569 -4.53086 -4.09323 0
M  V30 164 H 13.9709 -5.37812 -1.98573 0
M  V30 165 H 12.3679 -5.84746 -1.34878 0
M  V30 166 H 13.4379 -4.83548 -0.361868 0
M  V30 167 N 14.781 0.264519 -1.55364 0
M  V30 168 C 16.027 0.99646 -1.76631 0
M  V30 169 C 16.36 1.85632 -0.570478 0
M  V30 170 O 15.635 1.89647 0.43175 0
M  V30 171 C 15.918 1.87187 -3.07625 0
M  V30 172 C 15.771 1.04138 -4.37579 0
M  V30 173 C 17.09 2.85749 -3.34717 0
M  V30 174 H 14.209 0.360841 -0.642622 0
M  V30 175 H 16.851 0.268218 -1.88097 0
M  V30 176 H 15.001 2.49279 -2.9798 0
M  V30 177 H 16.673 0.440517 -4.59192 0
M  V30 178 H 14.916 0.345115 -4.32425 0
M  V30 179 H 15.587 1.68729 -5.2558 0
M  V30 180 H 18.063 2.33793 -3.4421 0
M  V30 181 H 16.939 3.44136 -4.27623 0
M  V30 182 H 17.2 3.61311 -2.54768 0
M  V30 183 N 16.2591 1.48442 0.529413 0
M  V30 184 C 17.4871 1.60151 1.30994 0
M  V30 185 C 17.9021 0.261985 1.86973 0
M  V30 186 O 17.2591 -0.748805 1.66431 0
M  V30 187 C 17.3101 2.64854 2.46038 0
M  V30 188 O 17.0311 3.93608 1.92365 0
M  V30 189 C 18.5321 2.87007 3.37849 0
M  V30 190 H 15.7521 0.539971 0.398338 0
M  V30 191 H 18.2961 1.94273 0.638597 0
M  V30 192 H 16.4511 2.33589 3.09055 0
M  V30 193 H 16.8651 4.51055 2.67675 0
M  V30 194 H 18.3391 3.64068 4.14919 0
M  V30 195 H 18.8161 1.95852 3.93114 0
M  V30 196 H 19.4221 3.19579 2.80623 0
M  V30 197 N 17.7372 -0.778329 1.37039 0
M  V30 198 C 18.9852 -1.53361 1.31623 0
M  V30 199 C 19.3062 -1.94739 -0.100831 0
M  V30 200 O 18.5762 -1.65797 -1.04347 0
M  V30 201 H 17.1562 -0.568794 0.484234 0
M  V30 202 H 19.8182 -0.926742 1.71457 0
M  V30 203 H 18.9142 -2.43606 1.95096 0
M  V30 204 N 19.2153 -1.21501 -1.00376 0
M  V30 205 C 20.4613 -1.03452 -1.74429 0
M  V30 206 C 20.7943 0.430764 -1.89362 0
M  V30 207 O 20.0693 1.31962 -1.42886 0
M  V30 208 C 20.3523 -1.73375 -3.15615 0
M  V30 209 C 20.2053 -3.27431 -3.08397 0
M  V30 210 C 21.5243 -1.47732 -4.14564 0
M  V30 211 H 18.6433 -0.377226 -0.633143 0
M  V30 212 H 21.2853 -1.49693 -1.17013 0
M  V30 213 H 19.4353 -1.34064 -3.64636 0
M  V30 214 H 21.1073 -3.76119 -2.67081 0
M  V30 215 H 19.3503 -3.5767 -2.45468 0
M  V30 216 H 20.0213 -3.71524 -4.08258 0
M  V30 217 H 22.4973 -1.8186 -3.74254 0
M  V30 218 H 21.3733 -1.99169 -5.11491 0
M  V30 219 H 21.6343 -0.407589 -4.40217 0
M  V30 220 N 20.6934 1.19889 -1.02296 0
M  V30 221 C 21.6564 2.21116 -0.603351 0
M  V30 222 C 22.6564 1.5738 0.329884 0
M  V30 223 O 23.8464 1.73802 0.117702 0
M  V30 224 C 20.9784 3.40696 0.117992 0
M  V30 225 H 22.1714 2.59754 -1.49893 0
M  V30 226 H 19.7244 1.33463 -0.813468 0
M  V30 227 H 20.4594 3.07569 1.0282 0
M  V30 228 H 20.2444 3.88188 -0.552511 0
M  V30 229 H 21.7344 4.15692 0.398696 0
M  V30 230 N 22.1715 0.800033 1.35784 0
M  V30 231 C 23.3965 0.388511 2.03729 0
M  V30 232 C 23.8215 -0.990481 1.5991 0
M  V30 233 O 23.1795 -1.64013 0.772612 0
M  V30 234 C 23.2275 0.4726 3.5749 0
M  V30 235 O 22.3315 -0.51646 4.09153 0
M  V30 236 H 21.6725 0.163271 0.643614 0
M  V30 237 H 24.2025 1.0841 1.73518 0
M  V30 238 H 24.2125 0.34003 4.06581 0
M  V30 239 H 22.8875 1.47848 3.88734 0
M  V30 240 H 21.4645 -0.344673 3.71304 0
M  V30 241 N 23.6496 -1.47581 0.552962 0
M  V30 242 C 24.5966 -2.29957 -0.197108 0
M  V30 243 C 25.5666 -1.38799 -0.912359 0
M  V30 244 O 26.7516 -1.67761 -0.908888 0
M  V30 245 C 23.8916 -3.22672 -1.22379 0
M  V30 246 C 23.0046 -4.28919 -0.515038 0
M  V30 247 C 22.1396 -5.0879 -1.52664 0
M  V30 248 C 21.1786 -6.06815 -0.802631 0
M  V30 249 N 20.3156 -6.7966 -1.76086 0
M  V30 250 H 25.1556 -2.93578 0.511486 0
M  V30 251 H 22.6926 -1.4471 0.264067 0
M  V30 252 H 24.6506 -3.74845 -1.83159 0
M  V30 253 H 23.2806 -2.60925 -1.90047 0
M  V30 254 H 22.3326 -3.79835 0.207192 0
M  V30 255 H 23.6446 -4.98773 0.0523425 0
M  V30 256 H 22.7986 -5.65091 -2.20809 0
M  V30 257 H 21.5376 -4.38828 -2.12794 0
M  V30 258 H 20.5426 -5.49695 -0.107238 0
M  V30 259 H 21.7676 -6.78784 -0.207135 0
M  V30 260 H 19.7136 -6.12432 -2.35081 0
M  V30 261 H 19.6306 -7.45669 -1.24552 0
M  V30 262 H 20.8986 -7.40538 -2.43359 0
M  V30 263 N 25.1277 -0.289203 -1.54924 0
M  V30 264 C 26.0577 0.58549 -2.2604 0
M  V30 265 C 27.0387 1.14753 -1.25562 0
M  V30 266 O 28.2237 1.17906 -1.54311 0
M  V30 267 C 25.3537 1.76305 -2.99222 0
M  V30 268 C 24.3077 1.33191 -4.06748 0
M  V30 269 C 23.6337 2.5937 -4.6758 0
M  V30 270 C 24.9337 0.471775 -5.20165 0
M  V30 271 H 26.6277 -0.00763532 -2.99399 0
M  V30 272 H 24.1737 -0.00511229 -1.43999 0
M  V30 273 H 26.1267 2.38097 -3.47689 0
M  V30 274 H 24.8507 2.38223 -2.23422 0
M  V30 275 H 23.5097 0.737121 -3.59113 0
M  V30 276 H 23.1577 3.19576 -3.88433 0
M  V30 277 H 22.8577 2.31228 -5.40192 0
M  V30 278 H 24.3817 3.21985 -5.18804 0
M  V30 279 H 25.7957 0.995056 -5.64599 0
M  V30 280 H 24.1927 0.284639 -5.99425 0
M  V30 281 H 25.2627 -0.506041 -4.82252 0
M  V30 282 N 26.6058 1.57591 -0.0167156 0
M  V30 283 C 27.8308 1.9598 0.67872 0
M  V30 284 C 28.2558 0.892546 1.65575 0
M  V30 285 O 27.6138 -0.147772 1.80697 0
M  V30 286 C 27.6618 3.33468 1.37227 0
M  V30 287 O 26.7658 3.28954 2.48722 0
M  V30 288 H 26.1068 0.639339 0.17928 0
M  V30 289 H 28.6368 2.04463 -0.0748802 0
M  V30 290 H 28.6468 3.69417 1.7319 0
M  V30 291 H 27.3218 4.10694 0.656007 0
M  V30 292 H 25.8988 3.04705 2.14963 0
M  V30 293 N 28.0839 -0.256276 1.55502 0
M  V30 294 C 29.3329 -0.983486 1.76098 0
M  V30 295 C 29.6459 -1.86837 0.578896 0
M  V30 296 O 30.8519 -2.63163 0.667648 0
M  V30 297 C 29.3079 -1.79868 3.1173 0
M  V30 298 C 28.9159 -0.961648 4.37557 0
M  V30 299 C 30.6599 -2.51919 3.41668 0
M  V30 300 C 28.5669 -1.77219 5.64223 0
M  V30 301 H 27.4969 -0.370936 0.656447 0
M  V30 302 H 30.1479 -0.238492 1.81944 0
M  V30 303 H 28.5299 -2.58527 2.99966 0
M  V30 304 H 29.7039 -0.218048 4.60284 0
M  V30 305 H 28.0189 -0.354913 4.14885 0
M  V30 306 H 30.6159 -3.12998 4.33516 0
M  V30 307 H 30.9589 -3.23059 2.62562 0
M  V30 308 H 31.4919 -1.80278 3.54605 0
M  V30 309 H 28.2309 -1.10471 6.46124 0
M  V30 310 H 27.7509 -2.49132 5.45613 0
M  V30 311 H 29.4299 -2.34169 6.03137 0
M  V30 312 N 29.562 -1.4872 -0.521534 0
M  V30 313 C 30.525 -1.63379 -1.60748 0
M  V30 314 C 31.525 -0.50661 -1.52611 0
M  V30 315 O 32.715 -0.772601 -1.5613 0
M  V30 316 C 29.847 -1.61192 -3.00383 0
M  V30 317 H 31.04 -2.60217 -1.49087 0
M  V30 318 H 28.593 -1.37444 -0.744235 0
M  V30 319 H 29.328 -0.65863 -3.17541 0
M  V30 320 H 29.113 -2.43032 -3.07698 0
M  V30 321 H 30.603 -1.7466 -3.7932 0
M  V30 322 N 31.0401 0.771051 -1.3745 0
M  V30 323 C 32.2701 1.55789 -1.35696 0
M  V30 324 C 32.6781 1.89107 0.0594523 0
M  V30 325 O 32.0211 1.51984 1.03183 0
M  V30 326 C 32.0831 2.89515 -2.13123 0
M  V30 327 C 31.7471 2.78829 -3.62082 0
M  V30 328 C 32.7441 2.49812 -4.5595 0
M  V30 329 C 30.4291 2.9683 -4.05213 0
M  V30 330 C 32.4231 2.38923 -5.90927 0
M  V30 331 C 30.1101 2.85562 -5.40276 0
M  V30 332 C 31.1081 2.56649 -6.32946 0
M  V30 333 O 30.7961 2.45408 -7.65526 0
M  V30 334 H 30.5281 0.489257 -0.466481 0
M  V30 335 H 33.0821 0.963446 -1.81403 0
M  V30 336 H 31.3121 3.51081 -1.62107 0
M  V30 337 H 33.0011 3.50915 -2.03994 0
M  V30 338 H 33.7671 2.3559 -4.23937 0
M  V30 339 H 29.6461 3.18335 -3.33442 0
M  V30 340 H 33.1901 2.16277 -6.63227 0
M  V30 341 H 29.0871 2.99351 -5.71891 0
M  V30 342 H 29.8551 2.60753 -7.75855 0
M  V30 343 N 32.5182 1.22032 0.997298 0
M  V30 344 C 33.7662 1.04016 1.73278 0
M  V30 345 C 34.0872 -0.426255 1.90284 0
M  V30 346 O 33.3572 -1.30694 1.45931 0
M  V30 347 H 31.9372 0.381897 0.642 0
M  V30 348 H 34.5992 1.5347 1.20137 0
M  V30 349 H 33.6952 1.51441 2.72896 0
M  V30 350 N 33.9963 -1.19345 1.0293 0
M  V30 351 C 35.2453 -1.88363 0.721256 0
M  V30 352 C 35.5583 -1.80514 -0.753254 0
M  V30 353 O 36.7643 -2.44788 -1.17436 0
M  V30 354 C 35.2203 -3.37872 1.23978 0
M  V30 355 C 34.8283 -3.54278 2.74211 0
M  V30 356 C 36.5723 -4.12365 1.00775 0
M  V30 357 C 34.4793 -4.97682 3.19479 0
M  V30 358 H 33.4093 -0.705484 0.266098 0
M  V30 359 H 36.0603 -1.34928 1.24365 0
M  V30 360 H 34.4423 -3.90707 0.6453 0
M  V30 361 H 35.6163 -3.11769 3.39318 0
M  V30 362 H 33.9313 -2.93174 2.95699 0
M  V30 363 H 36.5283 -5.18119 1.32123 0
M  V30 364 H 36.8713 -4.16263 -0.0554308 0
M  V30 365 H 37.4043 -3.65668 1.56625 0
M  V30 366 H 34.1433 -4.98945 4.25128 0
M  V30 367 H 33.6633 -5.4095 2.591 0
M  V30 368 H 35.3423 -5.66337 3.12845 0
M  V30 369 N 35.4744 -0.807222 -1.35358 0
M  V30 370 C 36.4374 -0.223665 -2.28106 0
M  V30 371 C 37.4374 0.589354 -1.4961 0
M  V30 372 O 38.6274 0.407745 -1.69361 0
M  V30 373 C 35.7594 0.688149 -3.33882 0
M  V30 374 H 36.9524 -1.04169 -2.81227 0
M  V30 375 H 34.5054 -0.577921 -1.45223 0
M  V30 376 H 35.2404 1.52984 -2.85948 0
M  V30 377 H 35.0254 0.10687 -3.91954 0
M  V30 378 H 36.5154 1.09075 -4.03104 0
M  V30 379 N 36.9525 1.47285 -0.560781 0
M  V30 380 C 37.8845 2.28118 0.222438 0
M  V30 381 C 38.8975 1.37219 0.876056 0
M  V30 382 O 40.0865 1.62011 0.749307 0
M  V30 383 C 37.1865 3.1159 1.33285 0
M  V30 384 C 36.3595 4.30473 0.77534 0
M  V30 385 C 35.4185 4.95513 1.77069 0
M  V30 386 O 34.4445 5.53792 1.31539 0
M  V30 387 N 35.6465 4.90531 3.10418 0
M  V30 388 H 38.4115 2.95976 -0.470958 0
M  V30 389 H 35.9725 1.56955 -0.39709 0
M  V30 390 H 37.9645 3.51967 1.99752 0
M  V30 391 H 36.5345 2.45951 1.92943 0
M  V30 392 H 35.7545 3.94144 -0.0662113 0
M  V30 393 H 37.0425 5.07362 0.382272 0
M  V30 394 H 36.4405 4.44389 3.5005 0
M  V30 395 H 34.9975 5.34917 3.72434 0
M  V30 396 N 38.4306 0.297415 1.54768 0
M  V30 397 C 39.3936 -0.567375 2.22066 0
M  V30 398 C 40.3936 -1.06409 1.20556 0
M  V30 399 O 41.5836 -0.960691 1.45315 0
M  V30 400 C 38.7156 -1.78517 2.90421 0
M  V30 401 H 39.9086 0.0205534 2.99893 0
M  V30 402 H 37.4616 0.0482163 1.56226 0
M  V30 403 H 38.1966 -2.41303 2.16664 0
M  V30 404 H 37.9816 -1.43669 3.64831 0
M  V30 405 H 39.4716 -2.39964 3.41771 0
M  V30 406 N 39.9087 -1.5758 0.0250728 0
M  V30 407 C 40.8417 -2.05473 -0.992777 0
M  V30 408 C 41.8197 -0.949661 -1.31986 0
M  V30 409 O 43.0037 -1.21969 -1.43722 0
M  V30 410 C 40.1307 -2.4734 -2.31389 0
M  V30 411 C 39.1767 -3.68827 -2.1417 0
M  V30 412 S 40.0097 -5.15655 -1.44429 0
M  V30 413 C 41.1657 -5.60814 -2.77918 0
M  V30 414 H 41.3987 -2.91486 -0.585078 0
M  V30 415 H 38.9317 -1.53269 -0.186507 0
M  V30 416 H 40.8897 -2.72127 -3.07339 0
M  V30 417 H 39.5507 -1.6168 -2.69292 0
M  V30 418 H 38.7437 -3.95955 -3.11826 0
M  V30 419 H 38.3457 -3.44172 -1.46362 0
M  V30 420 H 40.6377 -5.64806 -3.74166 0
M  V30 421 H 41.5807 -6.60414 -2.55459 0
M  V30 422 H 41.9887 -4.8845 -2.82979 0
M  V30 423 N 41.3868 0.248026 -1.55636 0
M  V30 424 C 42.3368 1.30994 -1.86614 0
M  V30 425 C 43.3208 1.43543 -0.726918 0
M  V30 426 O 44.5128 1.46804 -0.988818 0
M  V30 427 C 41.6418 2.6656 -2.16335 0
M  V30 428 C 40.7278 2.58019 -3.36581 0
M  V30 429 N 41.1188 2.1911 -4.55878 0
M  V30 430 C 39.4168 2.89035 -3.39669 0
M  V30 431 C 40.1178 2.21174 -5.38012 0
M  V30 432 N 39.0938 2.60632 -4.77045 0
M  V30 433 H 42.8958 0.999583 -2.76379 0
M  V30 434 H 40.4098 0.456652 -1.55848 0
M  V30 435 H 42.4068 3.43194 -2.36692 0
M  V30 436 H 41.0668 2.98463 -1.27867 0
M  V30 437 H 42.0778 1.90672 -4.81523 0
M  V30 438 H 38.7548 3.25485 -2.61469 0
M  V30 439 H 40.1448 1.9344 -6.43452 0
M  V30 440 N 42.8649 1.48995 0.513639 0
M  V30 441 C 44.2809 1.35478 0.843682 0
M  V30 442 C 44.4809 0.378213 1.97919 0
M  V30 443 O 43.5369 -0.194689 2.51748 0
M  V30 444 C 44.8499 2.75901 1.1958 0
M  V30 445 C 46.3979 2.84509 1.30474 0
M  V30 446 C 46.8729 4.25671 1.69021 0
M  V30 447 N 48.3639 4.28422 1.76094 0
M  V30 448 C 49.0989 5.34601 2.07338 0
M  V30 449 N 48.5949 6.5104 2.36894 0
M  V30 450 N 50.3879 5.22007 2.08483 0
M  V30 451 H 42.5389 2.11092 -0.235328 0
M  V30 452 H 44.8019 0.947039 -0.0426669 0
M  V30 453 H 44.5079 3.49001 0.434913 0
M  V30 454 H 44.3819 3.10467 2.1422 0
M  V30 455 H 46.7689 2.11655 2.05637 0
M  V30 456 H 46.8499 2.53542 0.339155 0
M  V30 457 H 46.4939 4.99048 0.944135 0
M  V30 458 H 46.4239 4.54094 2.66658 0
M  V30 459 H 48.9149 3.44441 1.55464 0
M  V30 460 H 49.2279 7.2779 2.59887 0
M  V30 461 H 47.5729 6.54287 2.34378 0
M  V30 462 H 50.7639 4.30051 1.84861 0
M  V30 463 H 50.9369 6.04854 2.325 0
M  V30 464 N 44.343 -0.763751 1.37857 0
M  V30 465 C 45.253 -1.90817 1.36478 0
M  V30 466 C 46.269 -1.71997 0.263248 0
M  V30 467 O 47.445 -1.95095 0.499979 0
M  V30 468 C 44.51 -3.2605 1.17864 0
M  V30 469 C 43.571 -3.57467 2.3773 0
M  V30 470 C 42.804 -4.86249 2.19995 0
M  V30 471 O 43.027 -5.57884 1.18836 0
M  V30 472 O 41.961 -5.16911 3.08361 0
M  V30 473 H 45.787 -1.94933 2.32884 0
M  V30 474 H 43.372 -0.907619 1.1867 0
M  V30 475 H 45.254 -4.06924 1.09504 0
M  V30 476 H 43.929 -3.22769 0.245372 0
M  V30 477 H 42.836 -2.76796 2.51664 0
M  V30 478 H 44.169 -3.655 3.29652 0
M  V30 479 N 45.8211 -1.22559 -0.990812 0
M  V30 480 C 47.0691 -1.04933 -1.72724 0
M  V30 481 C 47.3901 0.416158 -1.90508 0
M  V30 482 O 46.6601 1.29918 -1.46622 0
M  V30 483 H 45.2401 -0.385296 -0.639965 0
M  V30 484 H 47.9021 -1.54105 -1.19322 0
M  V30 485 H 46.9981 -1.52886 -2.72089 0
M  V30 486 N 47.2992 1.18797 -1.03562 0
M  V30 487 C 48.2622 2.20464 -0.626769 0
M  V30 488 C 49.2622 1.57721 0.313173 0
M  V30 489 O 50.4522 1.73917 0.0992615 0
M  V30 490 C 47.5842 3.40802 0.0818498 0
M  V30 491 H 48.7772 2.58149 -1.5264 0
M  V30 492 H 46.3302 1.32593 -0.827578 0
M  V30 493 H 47.0652 3.08642 0.995518 0
M  V30 494 H 46.8502 3.8758 -0.593652 0
M  V30 495 H 48.3402 4.16092 0.354584 0
M  V30 496 N 48.7773 0.814389 1.34928 0
M  V30 497 C 49.6873 0.231978 2.3345 0
M  V30 498 C 50.7033 -0.629139 1.62228 0
M  V30 499 O 51.8793 -0.539052 1.94052 0
M  V30 500 C 48.9443 -0.603482 3.41407 0
M  V30 501 C 48.0053 0.279037 4.28392 0
M  V30 502 C 47.2383 -0.516643 5.31193 0
M  V30 503 O 47.4613 -1.75068 5.4287 0
M  V30 504 O 46.3953 0.0965652 6.01823 0
M  V30 505 H 50.2213 1.04721 2.85074 0
M  V30 506 H 47.8063 0.576343 1.37836 0
M  V30 507 H 49.6883 -1.07908 4.0735 0
M  V30 508 H 48.3633 -1.39618 2.92042 0
M  V30 509 H 47.2703 0.801948 3.65403 0
M  V30 510 H 48.6033 1.03588 4.81176 0
M  V30 511 N 50.2554 -1.46986 0.568584 0
M  V30 512 C 51.1854 -2.32946 -0.160753 0
M  V30 513 C 52.1664 -1.44487 -0.897631 0
M  V30 514 O 53.3514 -1.73327 -0.875867 0
M  V30 515 C 50.4814 -3.26494 -1.18403 0
M  V30 516 C 49.4354 -4.24282 -0.562895 0
M  V30 517 C 48.7614 -5.07236 -1.69163 0
M  V30 518 C 50.0614 -5.19989 0.490761 0
M  V30 519 H 51.7554 -2.94175 0.556916 0
M  V30 520 H 49.3014 -1.4146 0.26927 0
M  V30 521 H 51.2544 -3.85477 -1.70251 0
M  V30 522 H 49.9784 -2.63343 -1.93179 0
M  V30 523 H 48.6374 -3.66541 -0.0656164 0
M  V30 524 H 48.2854 -4.4048 -2.42871 0
M  V30 525 H 47.9854 -5.7345 -1.28174 0
M  V30 526 H 49.5094 -5.6908 -2.21314 0
M  V30 527 H 50.9234 -5.73271 0.0579047 0
M  V30 528 H 49.3204 -5.94469 0.820165 0
M  V30 529 H 50.3904 -4.64777 1.3824 0
M  V30 530 N 51.7335 -0.305618 -1.54608 0
M  V30 531 C 52.6965 0.555591 -2.22364 0
M  V30 532 C 53.6965 1.05768 -1.21119 0
M  V30 533 O 54.8865 0.952972 -1.45822 0
M  V30 534 C 52.0185 1.76974 -2.91364 0
M  V30 535 H 53.2115 -0.0364572 -2.99878 0
M  V30 536 H 50.7645 -0.0565007 -1.56198 0
M  V30 537 H 51.4995 2.40151 -2.17941 0
M  V30 538 H 51.2845 1.41732 -3.65588 0
M  V30 539 H 52.7745 2.38148 -3.43038 0
M  V30 540 N 53.2116 1.57565 -0.0334293 0
M  V30 541 C 54.4586 1.91978 0.644272 0
M  V30 542 C 54.7866 0.910231 1.71887 0
M  V30 543 O 54.0416 -0.0801961 1.95536 0
M  V30 544 C 54.3406 3.33112 1.29504 0
M  V30 545 C 54.0066 4.49537 0.350388 0
M  V30 546 C 52.6686 4.81115 0.0903974 0
M  V30 547 C 55.0206 5.20347 -0.298032 0
M  V30 548 C 52.3486 5.8086 -0.825746 0
M  V30 549 C 54.7006 6.2107 -1.20226 0
M  V30 550 C 53.3646 6.51088 -1.4711 0
M  V30 551 H 52.6346 0.702496 0.235756 0
M  V30 552 H 55.2816 1.91259 -0.0961176 0
M  V30 553 H 53.5866 3.30113 2.11028 0
M  V30 554 H 55.2836 3.57011 1.82603 0
M  V30 555 H 51.8736 4.24883 0.563205 0
M  V30 556 H 56.0576 4.96178 -0.110234 0
M  V30 557 H 51.3136 6.02461 -1.04169 0
M  V30 558 H 55.4876 6.75057 -1.71086 0
M  V30 559 H 53.1146 7.28193 -2.18264 0
M  V30 560 N 54.6897 -0.239769 1.55765 0
M  V30 561 C 55.9177 -0.98417 1.81994 0
M  V30 562 C 56.3327 -1.7867 0.610124 0
M  V30 563 O 55.6897 -1.77571 -0.421271 0
M  V30 564 C 55.7407 -1.91635 3.06526 0
M  V30 565 O 55.4617 -1.14629 4.22838 0
M  V30 566 C 56.9627 -2.77616 3.45607 0
M  V30 567 H 54.1827 -0.28928 0.605441 0
M  V30 568 H 56.7267 -0.260499 2.02834 0
M  V30 569 H 54.8817 -2.5942 2.87715 0
M  V30 570 H 55.2957 -1.77745 4.93464 0
M  V30 571 H 56.7697 -3.38759 4.35828 0
M  V30 572 H 57.2467 -3.4909 2.6652 0
M  V30 573 H 57.8527 -2.15271 3.66795 0
M  V30 574 N 56.1678 -1.49265 -0.50573 0
M  V30 575 C 57.3978 -1.61979 -1.28243 0
M  V30 576 C 57.8058 -0.288576 -1.86986 0
M  V30 577 O 57.1488 0.735408 -1.68337 0
M  V30 578 C 57.2108 -2.62632 -2.45489 0
M  V30 579 C 56.8748 -4.071 -2.07651 0
M  V30 580 C 57.8718 -4.94049 -1.61901 0
M  V30 581 C 55.5568 -4.52801 -2.17431 0
M  V30 582 C 57.5508 -6.24736 -1.26428 0
M  V30 583 C 55.2378 -5.83503 -1.8157 0
M  V30 584 C 56.2358 -6.69294 -1.36142 0
M  V30 585 O 55.9238 -7.9756 -1.00764 0
M  V30 586 H 55.6558 -0.54834 -0.395347 0
M  V30 587 H 58.2098 -1.96002 -0.614204 0
M  V30 588 H 56.4398 -2.2378 -3.15372 0
M  V30 589 H 58.1288 -2.64925 -3.07522 0
M  V30 590 H 58.8948 -4.5997 -1.53795 0
M  V30 591 H 54.7738 -3.86196 -2.51742 0
M  V30 592 H 58.3178 -6.91652 -0.908992 0
M  V30 593 H 54.2148 -6.17112 -1.89324 0
M  V30 594 H 54.9828 -8.10529 -1.13952 0
M  V30 595 N 57.6459 0.756429 -1.3826 0
M  V30 596 C 58.5779 1.87971 -1.31147 0
M  V30 597 C 59.5909 1.61248 -0.224239 0
M  V30 598 O 60.7799 1.71881 -0.481581 0
M  V30 599 C 57.8799 3.23545 -1.00857 0
M  V30 600 C 57.0529 3.77794 -2.20432 0
M  V30 601 C 56.1119 4.91877 -1.86931 0
M  V30 602 O 55.1379 5.06659 -2.59395 0
M  V30 603 N 56.3399 5.74643 -0.822568 0
M  V30 604 H 59.1049 1.94585 -2.2794 0
M  V30 605 H 56.6659 0.936234 -1.32084 0
M  V30 606 H 58.6579 3.97403 -0.765021 0
M  V30 607 H 57.2279 3.12335 -0.128687 0
M  V30 608 H 56.4479 2.95534 -2.6087 0
M  V30 609 H 57.7359 4.10771 -3.00241 0
M  V30 610 H 57.1339 5.65266 -0.221575 0
M  V30 611 H 55.6909 6.48661 -0.638899 0
M  V30 612 N 59.124 1.23083 0.984299 0
M  V30 613 C 60.072 1.00593 2.09723 0
M  V30 614 C 61.066 -0.0538014 1.69315 0
M  V30 615 O 62.272 0.0993719 1.79725 0
M  V30 616 H 58.647 0.30817 0.685956 0
M  V30 617 H 60.618 1.95012 2.2586 0
M  V30 618 C 59.367 0.609601 3.42314 0
M  V30 619 H 58.69 1.41675 3.73856 0
M  V30 620 H 60.13 0.491726 4.21139 0
M  V30 621 C 58.589 -0.681745 3.2993 0
M  V30 622 O 59.119 -1.73192 3.62446 0
M  V30 623 N 57.325 -0.656178 2.83095 0
M  V30 624 H 56.872 0.198759 2.56832 0
M  V30 625 H 56.83 -1.52044 2.75191 0
M  V30 626 N 60.6021 -1.18246 1.0419 0
M  V30 627 C 61.8791 -1.84121 0.660208 0
M  V30 628 C 62.2591 -1.92778 -0.860221 0
M  V30 629 O 61.6071 -1.45464 -1.76217 0
M  V30 630 C 61.8171 -3.22355 1.33747 0
M  V30 631 C 63.1651 -3.98376 1.46906 0
M  V30 632 O 64.1891 -3.31799 1.29568 0
M  V30 633 O 63.0481 -5.17665 1.75171 0
M  V30 634 H 60.1421 -0.794036 0.231161 0
M  V30 635 H 62.6881 -1.25628 1.14087 0
M  V30 636 H 61.4601 -3.10964 2.37522 0
M  V30 637 H 61.0831 -3.88506 0.845515 0
M  V30 638 N 62.0802 -0.821533 -1.34494 0
M  V30 639 C 63.0272 -0.240397 -2.29545 0
M  V30 640 C 63.9972 0.634031 -1.53523 0
M  V30 641 O 65.1822 0.575966 -1.81899 0
M  V30 642 C 62.3222 0.592869 -3.39969 0
M  V30 643 C 61.4352 -0.30365 -4.30932 0
M  V30 644 C 60.5702 0.539049 -5.28458 0
M  V30 645 C 59.6092 -0.356942 -6.11058 0
M  V30 646 N 58.7462 0.446603 -7.00678 0
M  V30 647 H 63.5862 -1.05632 -2.7865 0
M  V30 648 H 61.1232 -0.532413 -1.37127 0
M  V30 649 H 63.0812 1.09129 -4.02675 0
M  V30 650 H 61.7112 1.37392 -2.92102 0
M  V30 651 H 60.7632 -0.920276 -3.691 0
M  V30 652 H 62.0752 -0.992661 -4.88823 0
M  V30 653 H 61.2292 1.102 -5.96608 0
M  V30 654 H 59.9682 1.26157 -4.71101 0
M  V30 655 H 58.9732 -0.932047 -5.41842 0
M  V30 656 H 60.1982 -1.07755 -6.70497 0
M  V30 657 H 58.1442 1.15282 -6.45791 0
M  V30 658 H 58.0612 -0.184048 -7.55776 0
M  V30 659 H 59.3292 0.992352 -7.73158 0
M  V30 660 N 63.5583 1.46682 -0.576371 0
M  V30 661 C 64.4883 2.33028 0.148397 0
M  V30 662 C 65.4693 1.44961 0.889956 0
M  V30 663 O 66.6543 1.73789 0.866662 0
M  V30 664 C 63.7843 3.27117 1.1667 0
M  V30 665 C 62.7383 4.24575 0.540386 0
M  V30 666 C 62.0643 5.08126 1.6647 0
M  V30 667 C 63.3643 5.19722 -0.518331 0
M  V30 668 H 65.0583 2.93875 -0.572509 0
M  V30 669 H 62.6043 1.41315 -0.276768 0
M  V30 670 H 64.5573 3.86374 1.68204 0
M  V30 671 H 63.2813 2.64364 1.9178 0
M  V30 672 H 61.9403 3.66571 0.0461769 0
M  V30 673 H 61.5883 4.41762 2.40531 0
M  V30 674 H 61.2883 5.74122 1.25131 0
M  V30 675 H 62.8123 5.70246 2.18293 0
M  V30 676 H 64.2263 5.73232 -0.0883058 0
M  V30 677 H 62.6233 5.94026 -0.851679 0
M  V30 678 H 63.6933 4.64037 -1.40703 0
M  V30 679 N 65.0364 0.313813 1.54444 0
M  V30 680 C 65.9834 -0.55655 2.23989 0
M  V30 681 C 66.9534 -1.11943 1.22711 0
M  V30 682 O 68.1384 -1.16158 1.51367 0
M  V30 683 C 65.2784 -1.71635 2.99392 0
M  V30 684 C 64.3914 -1.18364 4.15468 0
M  V30 685 C 63.5264 -2.30834 4.78424 0
M  V30 686 C 62.5654 -1.74762 5.86622 0
M  V30 687 N 61.7024 -2.80855 6.43479 0
M  V30 688 H 66.5424 0.0430893 2.97969 0
M  V30 689 H 64.0794 0.0330359 1.47063 0
M  V30 690 H 66.0374 -2.39868 3.41349 0
M  V30 691 H 64.6674 -2.28742 2.27765 0
M  V30 692 H 63.7194 -0.393163 3.78363 0
M  V30 693 H 65.0314 -0.733262 4.93381 0
M  V30 694 H 64.1854 -3.0699 5.23299 0
M  V30 695 H 62.9244 -2.79204 3.99871 0
M  V30 696 H 61.9294 -0.970995 5.41158 0
M  V30 697 H 63.1544 -1.2728 6.67066 0
M  V30 698 H 61.1004 -3.28535 5.67804 0
M  V30 699 H 61.0174 -2.40351 7.16776 0
M  V30 700 H 62.2854 -3.5687 6.93011 0
M  V30 701 N 66.5145 -1.57545 0.0417849 0
M  V30 702 C 67.7625 -1.91937 -0.632829 0
M  V30 703 C 68.0835 -0.919978 -1.71934 0
M  V30 704 O 67.3535 0.0366064 -1.95866 0
M  V30 705 H 65.9335 -0.708493 -0.236742 0
M  V30 706 H 68.5955 -1.9468 0.0925745 0
M  V30 707 H 67.6915 -2.92912 -1.07746 0
M  V30 708 N 67.9926 0.231505 -1.5589 0
M  V30 709 C 69.4086 0.580748 -1.48659 0
M  V30 710 C 69.6086 1.87617 -0.73498 0
M  V30 711 O 68.6646 2.51046 -0.270586 0
M  V30 712 C 69.9776 0.669202 -2.93159 0
M  V30 713 C 71.5256 0.760499 -3.03621 0
M  V30 714 C 72.0006 0.880383 -4.49459 0
M  V30 715 N 73.4916 0.944861 -4.53461 0
M  V30 716 C 74.2266 1.05716 -5.63571 0
M  V30 717 N 73.7226 1.13403 -6.83456 0
M  V30 718 N 75.5156 1.09152 -5.514 0
M  V30 719 H 67.6666 -0.618695 -2.03189 0
M  V30 720 H 69.9296 -0.215728 -0.923128 0
M  V30 721 H 69.6356 -0.212904 -3.51055 0
M  V30 722 H 69.5096 1.5361 -3.44505 0
M  V30 723 H 71.8966 1.63305 -2.45796 0
M  V30 724 H 71.9776 -0.131864 -2.5546 0
M  V30 725 H 71.6216 0.0123284 -5.07899 0
M  V30 726 H 71.5516 1.78802 -4.95316 0
M  V30 727 H 74.0426 0.896176 -3.6712 0
M  V30 728 H 74.3556 1.21921 -7.63122 0
M  V30 729 H 72.7006 1.10333 -6.86186 0
M  V30 730 H 75.8916 1.02805 -4.56671 0
M  V30 731 H 76.0646 1.17558 -6.37247 0
M  V30 732 N 69.4707 1.49531 0.497807 0
M  V30 733 C 70.7167 1.59415 1.25358 0
M  V30 734 C 71.0497 0.281422 1.9215 0
M  V30 735 O 70.3247 -0.715249 1.80871 0
M  V30 736 C 70.6077 2.75566 2.3181 0
M  V30 737 C 70.4607 4.16642 1.69498 0
M  V30 738 C 71.7797 2.87347 3.33346 0
M  V30 739 H 68.8987 0.580244 0.454408 0
M  V30 740 H 71.5407 1.81827 0.551262 0
M  V30 741 H 69.6907 2.56587 2.91711 0
M  V30 742 H 71.3627 4.47145 1.13399 0
M  V30 743 H 69.6057 4.22141 0.998978 0
M  V30 744 H 70.2767 4.93792 2.46725 0
M  V30 745 H 72.7527 3.04634 2.83438 0
M  V30 746 H 71.6287 3.70289 4.05188 0
M  V30 747 H 71.8897 1.96834 3.95865 0
M  V30 748 N 70.9488 -0.749086 1.3866 0
M  V30 749 C 71.8588 -1.89358 1.38494 0
M  V30 750 C 72.8748 -1.71708 0.281476 0
M  V30 751 O 74.0508 -1.94554 0.520643 0
M  V30 752 C 71.1158 -3.24782 1.21316 0
M  V30 753 C 70.1768 -3.54926 2.41508 0
M  V30 754 C 69.4098 -4.83888 2.2514 0
M  V30 755 O 69.6328 -5.56592 1.24746 0
M  V30 756 O 68.5668 -5.13612 3.13826 0
M  V30 757 H 72.3928 -1.92452 2.34938 0
M  V30 758 H 69.9778 -0.894981 1.19626 0
M  V30 759 H 71.8598 -4.05739 1.13814 0
M  V30 760 H 70.5348 -3.2249 0.279592 0
M  V30 761 H 69.4418 -2.74112 2.54585 0
M  V30 762 H 70.7748 -3.61983 3.3351 0
M  V30 763 N 72.4269 -1.23603 -0.977757 0
M  V30 764 C 73.3369 -1.03632 -2.1047 0
M  V30 765 C 74.3529 0.0199435 -1.73989 0
M  V30 766 O 75.5289 -0.176076 -2.00629 0
M  V30 767 C 72.5939 -0.63276 -3.40877 0
M  V30 768 C 71.6549 -1.76437 -3.91367 0
M  V30 769 C 70.8879 -1.37997 -5.15551 0
M  V30 770 O 71.1109 -0.265357 -5.69782 0
M  V30 771 O 70.0449 -2.20201 -5.60174 0
M  V30 772 H 73.8709 -1.98086 -2.30208 0
M  V30 773 H 71.4559 -1.02332 -1.08851 0
M  V30 774 H 73.3379 -0.418761 -4.19314 0
M  V30 775 H 72.0129 0.282754 -3.22463 0
M  V30 776 H 70.9199 -2.03304 -3.14036 0
M  V30 777 H 72.2529 -2.6583 -4.14241 0
M  V30 778 N 73.905 1.17692 -1.04816 0
M  V30 779 C 75.152 1.87859 -0.75599 0
M  V30 780 C 75.48 1.80812 0.716752 0
M  V30 781 O 74.735 1.20819 1.53952 0
M  V30 782 C 75.034 3.37462 -1.17703 0
M  V30 783 C 74.7 3.64713 -2.65133 0
M  V30 784 C 73.362 3.71859 -3.05408 0
M  V30 785 C 75.714 3.76492 -3.60421 0
M  V30 786 C 73.042 3.88271 -4.39843 0
M  V30 787 C 75.394 3.94421 -4.94585 0
M  V30 788 C 74.058 3.99806 -5.3452 0
M  V30 789 H 73.328 0.687425 -0.276636 0
M  V30 790 H 75.975 1.39255 -1.31455 0
M  V30 791 H 74.28 3.88097 -0.537395 0
M  V30 792 H 75.977 3.90109 -0.928218 0
M  V30 793 H 72.567 3.59772 -2.32942 0
M  V30 794 H 76.751 3.70295 -3.30447 0
M  V30 795 H 72.007 3.90687 -4.70291 0
M  V30 796 H 76.181 4.02477 -5.68318 0
M  V30 797 H 73.808 4.12276 -6.38696 0
M  V30 798 N 75.3831 0.828654 1.34056 0
M  V30 799 C 76.3461 0.259927 2.27721 0
M  V30 800 C 77.3461 -0.565478 1.50529 0
M  V30 801 O 78.5361 -0.38075 1.69988 0
M  V30 802 C 75.6681 -0.634944 3.34935 0
M  V30 803 H 76.8611 1.0863 2.79534 0
M  V30 804 H 74.4141 0.600951 1.44285 0
M  V30 805 H 75.1491 -1.48416 2.88346 0
M  V30 806 H 74.9341 -0.0444999 3.92075 0
M  V30 807 H 76.4241 -1.02648 4.04788 0
M  V30 808 N 76.8612 -1.46375 0.584142 0
M  V30 809 C 77.8242 -2.28784 -0.138108 0
M  V30 810 C 78.8242 -1.38471 -0.817462 0
M  V30 811 O 80.0142 -1.60833 -0.669199 0
M  V30 812 C 77.1462 -3.18892 -1.20503 0
M  V30 813 H 78.3392 -2.94117 0.586127 0
M  V30 814 H 75.8922 -1.52509 0.342171 0
M  V30 815 H 76.6272 -2.58309 -1.96079 0
M  V30 816 H 76.4122 -3.85388 -0.722384 0
M  V30 817 H 77.9022 -3.80914 -1.71155 0
M  V30 818 N 78.3393 -0.321999 -1.54275 0
M  V30 819 C 79.2713 0.578671 -2.21775 0
M  V30 820 C 80.2843 1.08109 -1.21722 0
M  V30 821 O 81.4733 0.994938 -1.482 0
M  V30 822 C 78.5733 1.80661 -2.86731 0
M  V30 823 C 77.7463 1.44314 -4.12907 0
M  V30 824 C 76.8053 2.52845 -4.61472 0
M  V30 825 O 75.8313 2.17054 -5.2619 0
M  V30 826 N 77.0333 3.83748 -4.35566 0
M  V30 827 H 79.7983 0.000709447 -2.997 0
M  V30 828 H 77.3593 -0.145132 -1.61248 0
M  V30 829 H 79.3513 2.52655 -3.16145 0
M  V30 830 H 77.9213 2.29245 -2.12521 0
M  V30 831 H 77.1413 0.554906 -3.90275 0
M  V30 832 H 78.4293 1.17598 -4.95023 0
M  V30 833 H 77.8273 4.15625 -3.83761 0
M  V30 834 H 76.3843 4.51977 -4.69638 0
M  V30 835 N 79.8174 1.5752 -0.0501392 0
M  V30 836 C 80.7474 2.14502 0.922566 0
M  V30 837 C 81.7284 1.06642 1.3252 0
M  V30 838 O 82.9134 1.34577 1.4001 0
M  V30 839 C 80.0434 2.68916 2.19776 0
M  V30 840 C 78.9974 3.8175 1.93523 0
M  V30 841 C 78.3234 4.22677 3.27487 0
M  V30 842 C 79.6234 5.06932 1.25765 0
M  V30 843 H 81.3174 2.9603 0.447952 0
M  V30 844 H 78.8634 1.42401 0.214024 0
M  V30 845 H 80.8164 3.07419 2.88222 0
M  V30 846 H 79.5404 1.84578 2.69441 0
M  V30 847 H 78.1994 3.43718 1.27489 0
M  V30 848 H 77.8474 3.35291 3.74952 0
M  V30 849 H 77.5474 4.98725 3.1072 0
M  V30 850 H 79.0714 4.63779 3.97166 0
M  V30 851 H 80.4854 5.42888 1.84244 0
M  V30 852 H 78.8824 5.88116 1.19328 0
M  V30 853 H 79.9524 4.84337 0.233536 0
M  V30 854 N 81.2955 -0.223234 1.56011 0
M  V30 855 C 82.5435 -0.946003 1.78592 0
M  V30 856 C 82.8645 -1.84936 0.618349 0
M  V30 857 O 82.1345 -1.92473 -0.364833 0
M  V30 858 H 80.7145 -0.352298 0.658707 0
M  V30 859 H 83.3765 -0.235494 1.93472 0
M  V30 860 H 82.4725 -1.55381 2.70672 0
M  V30 861 N 82.7736 -1.49793 -0.48987 0
M  V30 862 C 83.9986 -1.63836 -1.27172 0
M  V30 863 C 84.4236 -0.31402 -1.8546 0
M  V30 864 O 83.7816 0.719803 -1.66399 0
M  V30 865 C 83.8296 -2.71797 -2.36978 0
M  V30 866 O 82.9336 -2.31744 -3.41128 0
M  V30 867 H 82.2746 -0.547997 -0.37496 0
M  V30 868 H 84.8046 -1.96053 -0.585191 0
M  V30 869 H 84.8146 -2.94305 -2.82575 0
M  V30 870 H 83.4896 -3.67923 -1.93921 0
M  V30 871 H 82.0666 -2.1961 -3.01373 0
M  V30 872 N 84.2517 0.741722 -1.39055 0
M  V30 873 C 85.5287 1.49252 -1.26425 0
M  V30 874 C 85.9087 2.10705 0.129144 0
M  V30 875 O 85.2567 1.98045 1.13976 0
M  V30 876 C 85.4667 2.54934 -2.38347 0
M  V30 877 C 86.8147 3.21506 -2.77343 0
M  V30 878 O 87.8387 2.65245 -2.37747 0
M  V30 879 O 86.6977 4.23294 -3.45665 0
M  V30 880 H 83.7917 0.662451 -0.495064 0
M  V30 881 H 86.3377 0.776121 -1.50912 0
M  V30 882 H 85.1097 2.07857 -3.31529 0
M  V30 883 H 84.7327 3.34141 -2.15489 0
M  V30 884 N 85.7298 1.2412 0.971189 0
M  V30 885 C 86.9788 1.07284 1.70801 0
M  V30 886 C 87.2918 -0.388902 1.91695 0
M  V30 887 O 88.4978 -0.677379 2.62914 0
M  V30 888 C 86.9538 1.87145 3.07416 0
M  V30 889 C 86.5618 3.37707 2.94377 0
M  V30 890 C 88.3058 1.78828 3.84995 0
M  V30 891 C 86.2128 4.09925 4.26281 0
M  V30 892 H 85.1428 0.397854 0.64049 0
M  V30 893 H 87.7938 1.4817 1.0825 0
M  V30 894 H 86.1758 1.39071 3.70777 0
M  V30 895 H 87.3498 3.93335 2.4005 0
M  V30 896 H 85.6648 3.46938 2.30267 0
M  V30 897 H 88.2618 2.30089 4.82662 0
M  V30 898 H 88.6048 0.75284 4.09436 0
M  V30 899 H 89.1378 2.24563 3.28354 0
M  V30 900 H 85.8768 5.13813 4.07033 0
M  V30 901 H 85.3968 3.59083 4.80437 0
M  V30 902 H 87.0758 4.1673 4.94919 0
M  V30 903 N 87.2079 -1.17134 1.05439 0
M  V30 904 C 88.4539 -1.87733 0.767077 0
M  V30 905 C 88.7869 -1.8098 -0.704253 0
M  V30 906 O 88.0619 -1.21951 -1.5152 0
M  V30 907 C 88.3449 -3.37659 1.25133 0
M  V30 908 C 88.1979 -3.53149 2.78578 0
M  V30 909 C 89.5169 -4.31768 0.852324 0
M  V30 910 H 86.6359 -0.681687 0.280129 0
M  V30 911 H 89.2779 -1.37732 1.30881 0
M  V30 912 H 87.4279 -3.80373 0.790469 0
M  V30 913 H 89.0999 -3.19434 3.32806 0
M  V30 914 H 87.3429 -2.95345 3.17732 0
M  V30 915 H 88.0139 -4.58403 3.07523 0
M  V30 916 H 90.4899 -3.96909 1.24911 0
M  V30 917 H 89.3659 -5.35199 1.21873 0
M  V30 918 H 89.6269 -4.41429 -0.243485 0
M  V30 919 N 88.686 -0.835752 -1.33615 0
M  V30 920 C 89.616 -0.281739 -2.31794 0
M  V30 921 C 90.597 0.608833 -1.58831 0
M  V30 922 O 91.782 0.533035 -1.86741 0
M  V30 923 C 88.912 0.546612 -3.42971 0
M  V30 924 C 87.866 -0.247904 -4.27281 0
M  V30 925 C 87.192 0.704001 -5.30045 0
M  V30 926 C 88.492 -1.46324 -5.01385 0
M  V30 927 H 90.186 -1.10206 -2.78379 0
M  V30 928 H 87.732 -0.531388 -1.33837 0
M  V30 929 H 89.685 0.944467 -4.1068 0
M  V30 930 H 88.409 1.40011 -2.95067 0
M  V30 931 H 87.068 -0.627281 -3.61194 0
M  V30 932 H 86.716 1.55381 -4.78399 0
M  V30 933 H 86.416 0.176524 -5.87335 0
M  V30 934 H 87.94 1.09944 -6.0062 0
M  V30 935 H 89.354 -1.13871 -5.61877 0
M  V30 936 H 87.751 -1.92728 -5.6831 0
M  V30 937 H 88.821 -2.23467 -4.30338 0
M  V30 938 N 90.1641 1.46063 -0.591896 0
M  V30 939 C 91.0961 2.28539 0.174001 0
M  V30 940 C 92.1091 1.39047 0.846753 0
M  V30 941 O 93.2981 1.63564 0.714774 0
M  V30 942 C 90.3981 3.14347 1.26645 0
M  V30 943 C 89.5711 4.32021 0.683856 0
M  V30 944 C 88.6301 4.99157 1.66518 0
M  V30 945 O 87.6561 5.56458 1.19763 0
M  V30 946 N 88.8581 4.97005 2.99943 0
M  V30 947 H 91.6231 2.94911 -0.533633 0
M  V30 948 H 89.1841 1.56077 -0.430294 0
M  V30 949 H 91.1761 3.56125 1.92242 0
M  V30 950 H 89.7461 2.49988 1.87682 0
M  V30 951 H 88.9661 3.93915 -0.1498 0
M  V30 952 H 90.2541 5.08059 0.274567 0
M  V30 953 H 89.6521 4.51714 3.40545 0
M  V30 954 H 88.2091 5.42696 3.61004 0
M  V30 955 N 91.6422 0.330177 1.54103 0
M  V30 956 C 92.8822 -0.270916 2.02597 0
M  V30 957 C 93.2462 -1.48826 1.21304 0
M  V30 958 O 94.4472 -2.16266 1.59633 0
M  V30 959 C 92.7182 -0.590328 3.52491 0
M  V30 960 S 94.2772 -1.17014 4.2291 0
M  V30 961 H 91.0952 -0.0815379 0.706309 0
M  V30 962 H 93.6972 0.464835 1.89893 0
M  V30 963 H 92.4012 0.303691 4.09275 0
M  V30 964 H 91.9322 -1.3561 3.69288 0
M  V30 965 H 93.9472 -2.45662 4.3112 0
M  V30 966 N 93.1203 -1.57491 0.0584922 0
M  V30 967 C 94.3973 -1.84346 -0.653918 0
M  V30 968 C 94.7773 -0.948355 -1.88599 0
M  V30 969 O 94.1253 -0.0112403 -2.28497 0
M  V30 970 C 94.3353 -3.34239 -1.00425 0
M  V30 971 C 95.6833 -4.01431 -1.38342 0
M  V30 972 O 96.7073 -3.38907 -1.09637 0
M  V30 973 O 95.5663 -5.11683 -1.91943 0
M  V30 974 H 92.6603 -0.761112 -0.323478 0
M  V30 975 H 95.2063 -1.6947 0.0884125 0
M  V30 976 H 93.9783 -3.91089 -0.128625 0
M  V30 977 H 93.6013 -3.54329 -1.80378 0
M  V30 978 N 94.5984 0.214957 -1.56127 0
M  V30 979 C 95.8444 0.939762 -1.79712 0
M  V30 980 C 96.1774 1.83723 -0.629247 0
M  V30 981 O 95.4524 1.90925 0.371197 0
M  V30 982 C 95.7354 1.77306 -3.13424 0
M  V30 983 C 95.5884 0.90164 -4.40671 0
M  V30 984 C 96.9074 2.74956 -3.43638 0
M  V30 985 H 94.0264 0.340214 -0.653776 0
M  V30 986 H 96.6684 0.20824 -1.88855 0
M  V30 987 H 94.8184 2.39673 -3.0576 0
M  V30 988 H 96.4904 0.294206 -4.60361 0
M  V30 989 H 94.7334 0.207368 -4.33304 0
M  V30 990 H 95.4044 1.51923 -5.30682 0
M  V30 991 H 97.8804 2.22724 -3.51473 0
M  V30 992 H 96.7564 3.30358 -4.38355 0
M  V30 993 H 97.0174 3.53023 -2.66134 0
M  V30 994 N 96.0765 1.50051 0.48192 0
M  V30 995 C 97.0395 1.67584 1.5636 0
M  V30 996 C 98.0395 0.546894 1.51214 0
M  V30 997 O 99.2295 0.813725 1.54026 0
M  V30 998 C 96.3615 1.691 2.96003 0
M  V30 999 H 97.5545 2.64078 1.42136 0
M  V30 1000 H 95.1075 1.39369 0.707533 0
M  V30 1001 H 95.8425 0.742589 3.15684 0
M  V30 1002 H 95.6275 2.51105 3.01146 0
M  V30 1003 H 97.1175 1.84656 3.74556 0
M  V30 1004 N 97.5546 -0.734337 1.39446 0
M  V30 1005 C 98.4646 -1.87879 1.40495 0
M  V30 1006 C 99.4806 -1.714 0.299672 0
M  V30 1007 O 100.657 -1.93991 0.541249 0
M  V30 1008 C 97.7216 -3.23477 1.24754 0
M  V30 1009 C 96.7826 -3.52344 2.45259 0
M  V30 1010 C 96.0156 -4.81473 2.30259 0
M  V30 1011 O 96.2386 -5.55237 1.30643 0
M  V30 1012 O 95.1726 -5.10254 3.19256 0
M  V30 1013 H 98.9986 -1.89949 2.36966 0
M  V30 1014 H 96.5836 -0.882243 1.20569 0
M  V30 1015 H 98.4656 -4.04509 1.18111 0
M  V30 1016 H 97.1406 -3.22176 0.313781 0
M  V30 1017 H 96.0476 -2.71396 2.57478 0
M  V30 1018 H 97.3806 -3.58426 3.37331 0
M  V30 1019 N 99.0327 -1.24633 -0.964593 0
M  V30 1020 C 100.31 -0.995809 -1.68354 0
M  V30 1021 C 100.69 0.480964 -2.05548 0
M  V30 1022 O 100.038 1.45599 -1.76105 0
M  V30 1023 C 100.248 -1.92177 -2.91323 0
M  V30 1024 C 101.596 -2.19446 -3.63495 0
M  V30 1025 O 102.62 -1.89855 -3.01386 0
M  V30 1026 O 101.479 -2.69714 -4.75307 0
M  V30 1027 H 98.5727 -0.376854 -0.736146 0
M  V30 1028 H 101.119 -1.35745 -1.0184 0
M  V30 1029 H 99.8907 -2.91938 -2.60553 0
M  V30 1030 H 99.5137 -1.56349 -3.65569 0
M  V30 1031 N 100.511 1.16574 -1.06058 0
M  V30 1032 C 101.474 2.19085 -0.673392 0
M  V30 1033 C 102.474 1.5835 0.279648 0
M  V30 1034 O 103.664 1.74088 0.0623488 0
M  V30 1035 C 100.796 3.40899 0.00954234 0
M  V30 1036 H 101.989 2.54853 -1.58081 0
M  V30 1037 H 99.5418 1.30808 -0.855516 0
M  V30 1038 H 100.277 3.10684 0.929826 0
M  V30 1039 H 100.062 3.86233 -0.67573 0
M  V30 1040 H 101.552 4.1675 0.266245 0
M  V30 1041 N 101.989 0.842826 1.3317 0
M  V30 1042 C 103.214 0.453129 2.02389 0
M  V30 1043 C 103.639 -0.939105 1.6298 0
M  V30 1044 O 102.997 -1.61472 0.8244 0
M  V30 1045 C 103.045 0.586094 3.55805 0
M  V30 1046 O 102.149 -0.386029 4.10589 0
M  V30 1047 H 101.49 0.183664 0.638094 0
M  V30 1048 H 104.02 1.13875 1.69981 0
M  V30 1049 H 104.03 0.469209 4.05293 0
M  V30 1050 H 102.705 1.6014 3.83833 0
M  V30 1051 H 101.282 -0.226371 3.72212 0
M  V30 1052 N 103.467 -1.45747 0.599634 0
M  V30 1053 C 104.716 -2.01502 0.0893511 0
M  V30 1054 C 105.029 -1.4748 -1.28488 0
M  V30 1055 O 106.235 -1.95161 -1.88745 0
M  V30 1056 C 104.691 -3.59735 0.109082 0
M  V30 1057 C 104.299 -4.22754 1.48267 0
M  V30 1058 C 106.043 -4.23085 -0.346374 0
M  V30 1059 C 103.95 -5.73115 1.45921 0
M  V30 1060 H 102.88 -0.753417 0.0296347 0
M  V30 1061 H 105.531 -1.67303 0.753788 0
M  V30 1062 H 103.913 -3.91087 -0.621854 0
M  V30 1063 H 105.087 -4.02987 2.23468 0
M  V30 1064 H 103.402 -3.71567 1.87955 0
M  V30 1065 H 105.999 -5.33327 -0.38298 0
M  V30 1066 H 106.342 -3.93201 -1.36743 0
M  V30 1067 H 106.875 -3.9642 0.331038 0
M  V30 1068 H 103.614 -6.07685 2.45762 0
M  V30 1069 H 103.134 -5.95097 0.749665 0
M  V30 1070 H 104.813 -6.3616 1.17941 0
M  V30 1071 N 104.945 -0.338344 -1.53925 0
M  V30 1072 C 106.222 0.314774 -1.93051 0
M  V30 1073 C 106.602 1.68669 -1.26941 0
M  V30 1074 O 105.95 2.24636 -0.418445 0
M  V30 1075 C 106.16 0.392249 -3.46789 0
M  V30 1076 C 107.508 0.645554 -4.19664 0
M  V30 1077 O 108.532 0.474575 -3.53024 0
M  V30 1078 O 107.391 0.976408 -5.37707 0
M  V30 1079 H 104.485 0.182598 -0.80659 0
M  V30 1080 H 107.031 -0.389141 -1.65178 0
M  V30 1081 H 105.803 -0.570702 -3.87116 0
M  V30 1082 H 105.426 1.14316 -3.80812 0
M  V30 1083 N 106.423 1.57458 -0.0668435 0
M  V30 1084 C 107.651 1.97624 0.612565 0
M  V30 1085 C 108.066 0.94502 1.63447 0
M  V30 1086 O 107.423 -0.0689276 1.8237 0
M  V30 1087 C 107.474 3.37869 1.28555 0
M  V30 1088 O 107.195 4.3704 0.304557 0
M  V30 1089 C 108.696 3.92882 2.05325 0
M  V30 1090 H 105.916 0.650045 0.166381 0
M  V30 1091 H 108.46 2.04035 -0.137782 0
M  V30 1092 H 106.615 3.3256 1.98702 0
M  V30 1093 H 107.029 5.18565 0.786779 0
M  V30 1094 H 108.503 4.93247 2.47812 0
M  V30 1095 H 108.98 3.29156 2.9078 0
M  V30 1096 H 109.586 4.01577 1.40056 0
M  V30 1097 N 107.901 -0.206675 1.56239 0
M  V30 1098 C 108.834 -1.28383 1.88661 0
M  V30 1099 C 109.812 -1.44504 0.745481 0
M  V30 1100 O 110.996 -1.60079 0.995336 0
M  V30 1101 C 108.123 -2.65211 2.10667 0
M  V30 1102 C 107.169 -2.66025 3.33366 0
M  V30 1103 S 108.002 -2.18609 4.88846 0
M  V30 1104 C 109.158 -3.57283 5.13906 0
M  V30 1105 H 109.391 -1.00691 2.7973 0
M  V30 1106 H 106.924 -0.409627 1.48867 0
M  V30 1107 H 108.882 -3.43979 2.24029 0
M  V30 1108 H 107.543 -2.90121 1.20369 0
M  V30 1109 H 106.736 -3.66607 3.45855 0
M  V30 1110 H 106.338 -1.95331 3.18938 0
M  V30 1111 H 108.63 -4.53074 5.03717 0
M  V30 1112 H 109.573 -3.49699 6.15724 0
M  V30 1113 H 109.981 -3.51659 4.41583 0
M  V30 1114 N 109.379 -1.50304 -0.473955 0
M  V30 1115 C 110.626 -1.6115 -1.22625 0
M  V30 1116 C 110.954 -0.310517 -1.92005 0
M  V30 1117 O 110.209 0.703419 -1.82621 0
M  V30 1118 C 110.508 -2.73938 -2.29549 0
M  V30 1119 C 110.174 -4.14519 -1.7744 0
M  V30 1120 C 108.836 -4.5277 -1.62949 0
M  V30 1121 C 111.188 -5.02392 -1.3875 0
M  V30 1122 C 108.516 -5.76639 -1.08187 0
M  V30 1123 C 110.868 -6.26805 -0.854309 0
M  V30 1124 C 109.532 -6.63861 -0.696011 0
M  V30 1125 H 108.802 -0.589691 -0.448715 0
M  V30 1126 H 111.449 -1.84228 -0.522705 0
M  V30 1127 H 109.754 -2.44937 -3.05799 0
M  V30 1128 H 111.451 -2.79534 -2.87509 0
M  V30 1129 H 108.041 -3.8434 -1.89685 0
M  V30 1130 H 112.225 -4.73474 -1.4878 0
M  V30 1131 H 107.481 -6.04027 -0.946666 0
M  V30 1132 H 111.655 -6.94258 -0.545843 0
M  V30 1133 H 109.282 -7.59722 -0.26952 0
M  V30 1134 N 110.857 0.726932 -1.39834 0
M  V30 1135 C 111.82 1.82269 -1.38962 0
M  V30 1136 C 112.82 1.58248 -0.285334 0
M  V30 1137 O 114.01 1.65499 -0.54366 0
M  V30 1138 C 111.142 3.20186 -1.17019 0
M  V30 1139 H 112.335 1.84443 -2.36476 0
M  V30 1140 H 109.888 0.931416 -1.25516 0
M  V30 1141 H 110.623 3.23669 -0.202204 0
M  V30 1142 H 110.408 3.3902 -1.96998 0
M  V30 1143 H 111.898 4.00235 -1.1917 0
M  V30 1144 N 112.336 1.25143 0.95797 0
M  V30 1145 C 113.246 1.06968 2.08794 0
M  V30 1146 C 114.262 0.00773911 1.73998 0
M  V30 1147 O 115.438 0.207972 2.00323 0
M  V30 1148 C 112.503 0.68691 3.39827 0
M  V30 1149 C 111.564 1.82641 3.88511 0
M  V30 1150 C 110.797 1.46181 5.1329 0
M  V30 1151 O 111.02 0.355971 5.69288 0
M  V30 1152 O 109.954 2.29085 5.566 0
M  V30 1153 H 113.78 2.01723 2.27027 0
M  V30 1154 H 111.365 1.04051 1.07209 0
M  V30 1155 H 113.247 0.485417 4.18595 0
M  V30 1156 H 111.922 -0.231417 3.22872 0
M  V30 1157 H 110.829 2.08274 3.10762 0
M  V30 1158 H 112.162 2.72386 4.09959 0
M  V30 1159 N 113.814 -1.1601 1.06675 0
M  V30 1160 C 114.744 -2.22688 0.702307 0
M  V30 1161 C 115.725 -1.67306 -0.307032 0
M  V30 1162 O 116.91 -1.93352 -0.181305 0
M  V30 1163 C 114.04 -3.47178 0.092038 0
M  V30 1164 C 112.994 -4.15477 1.02777 0
M  V30 1165 C 112.32 -5.33963 0.28061 0
M  V30 1166 C 113.62 -4.66019 2.35846 0
M  V30 1167 H 115.314 -2.53429 1.59419 0
M  V30 1168 H 112.86 -1.21813 0.767961 0
M  V30 1169 H 114.813 -4.21037 -0.174814 0
M  V30 1170 H 113.537 -3.15749 -0.834877 0
M  V30 1171 H 112.196 -3.43549 1.27944 0
M  V30 1172 H 111.844 -4.98788 -0.649545 0
M  V30 1173 H 111.544 -5.806 0.904258 0
M  V30 1174 H 113.068 -6.10596 0.021396 0
M  V30 1175 H 114.482 -5.3144 2.15045 0
M  V30 1176 H 112.879 -5.23293 2.93743 0
M  V30 1177 H 113.949 -3.82023 2.98641 0
M  V30 1178 N 115.292 -0.849877 -1.32721 0
M  V30 1179 C 116.54 -0.450032 -1.97026 0
M  V30 1180 C 116.861 0.996604 -1.67609 0
M  V30 1181 O 116.131 1.6958 -0.980786 0
M  V30 1182 H 114.711 -0.163426 -0.728904 0
M  V30 1183 H 117.373 -1.08526 -1.6189 0
M  V30 1184 H 116.469 -0.591146 -3.0645 0
M  V30 1185 N 116.77 1.45427 -0.607355 0
M  V30 1186 C 117.717 2.3053 0.111625 0
M  V30 1187 C 118.687 1.4209 0.860216 0
M  V30 1188 O 119.872 1.71019 0.845998 0
M  V30 1189 C 117.012 3.26992 1.10319 0
M  V30 1190 C 116.125 4.30535 0.355493 0
M  V30 1191 C 115.26 5.14105 1.33676 0
M  V30 1192 C 114.299 6.09376 0.576862 0
M  V30 1193 N 113.436 6.85727 1.5074 0
M  V30 1194 H 118.276 2.91477 -0.620093 0
M  V30 1195 H 115.813 1.43631 -0.317594 0
M  V30 1196 H 117.771 3.81385 1.6912 0
M  V30 1197 H 116.401 2.67799 1.80232 0
M  V30 1198 H 115.453 3.78805 -0.348023 0
M  V30 1199 H 116.765 4.98235 -0.237423 0
M  V30 1200 H 115.919 5.72897 1.99684 0
M  V30 1201 H 114.658 4.46423 1.9636 0
M  V30 1202 H 113.663 5.49715 -0.0968519 0
M  V30 1203 H 114.888 6.79085 -0.0449341 0
M  V30 1204 H 112.834 6.20735 2.12189 0
M  V30 1205 H 112.751 7.49778 0.967913 0
M  V30 1206 H 114.019 7.4906 2.15706 0
M  V30 1207 N 118.248 0.346503 1.53744 0
M  V30 1208 C 119.494 -0.249473 2.0126 0
M  V30 1209 C 119.827 -1.49965 1.23386 0
M  V30 1210 O 119.102 -1.91811 0.32229 0
M  V30 1211 C 119.385 -0.560643 3.55709 0
M  V30 1212 C 119.238 0.701836 4.44291 0
M  V30 1213 C 120.557 -1.36905 4.18264 0
M  V30 1214 H 117.676 -0.0891987 0.731582 0
M  V30 1215 H 120.318 0.467624 1.84156 0
M  V30 1216 H 118.468 -1.17156 3.70414 0
M  V30 1217 H 120.14 1.33974 4.41417 0
M  V30 1218 H 118.383 1.32612 4.13033 0
M  V30 1219 H 119.054 0.43933 5.50249 0
M  V30 1220 H 121.53 -0.852448 4.07275 0
M  V30 1221 H 120.406 -1.55553 5.26398 0
M  V30 1222 H 120.667 -2.37203 3.73078 0
M  V30 1223 N 119.726 -1.57421 0.075193 0
M  V30 1224 C 120.972 -1.94716 -0.587998 0
M  V30 1225 C 121.327 -0.955205 -1.67014 0
M  V30 1226 O 120.62 0.0219842 -1.91587 0
M  V30 1227 C 120.814 -3.36428 -1.20626 0
M  V30 1228 C 120.643 -4.49317 -0.185541 0
M  V30 1229 C 119.413 -5.04772 0.23099 0
M  V30 1230 C 121.611 -5.11036 0.57854 0
M  V30 1231 N 119.593 -6.01204 1.24206 0
M  V30 1232 C 120.964 -6.02998 1.44199 0
M  V30 1233 C 123.019 -4.93844 0.634237 0
M  V30 1234 C 121.722 -6.79614 2.3562 0
M  V30 1235 C 123.748 -5.71106 1.53597 0
M  V30 1236 C 123.11 -6.6272 2.38709 0
M  V30 1237 H 119.209 -0.759536 -0.186089 0
M  V30 1238 H 121.793 -1.94097 0.153128 0
M  V30 1239 H 119.964 -3.37778 -1.9173 0
M  V30 1240 H 121.696 -3.60951 -1.8302 0
M  V30 1241 H 118.451 -4.73353 -0.152807 0
M  V30 1242 H 118.875 -6.54119 1.74521 0
M  V30 1243 H 123.517 -4.22799 -0.00960004 0
M  V30 1244 H 121.235 -7.49934 3.01038 0
M  V30 1245 H 124.821 -5.59824 1.58394 0
M  V30 1246 H 123.701 -7.2146 3.07352 0
M  V30 1247 N 121.204 0.198386 -1.56346 0
M  V30 1248 C 122.615 0.763358 -1.70381 0
M  V30 1249 C 122.966 1.83995 -0.681203 0
M  V30 1250 O 122.091 2.15785 0.16305 0
M  V30 1251 C 122.686 1.39143 -3.08909 0
M  V30 1252 C 121.245 1.90352 -3.2472 0
M  V30 1253 C 120.392 0.772233 -2.6633 0
M  V30 1254 H 123.343 -0.0266377 -1.58678 0
M  V30 1255 H 123.364 2.26076 -3.06055 0
M  V30 1256 H 122.876 0.607638 -3.83314 0
M  V30 1257 H 120.977 2.71461 -2.55225 0
M  V30 1258 H 121.09 2.06757 -4.3219 0
M  V30 1259 H 119.454 1.18566 -2.2542 0
M  V30 1260 H 120.237 0.00073556 -3.433 0
M  V30 1261 N 122.682 1.50554 0.465978 0
M  V30 1262 C 123.629 1.6979 1.56333 0
M  V30 1263 C 124.599 0.539239 1.57103 0
M  V30 1264 O 125.784 0.770401 1.74555 0
M  V30 1265 C 122.924 1.80273 2.94271 0
M  V30 1266 C 122.037 3.07674 3.0325 0
M  V30 1267 C 121.172 3.08922 4.32135 0
M  V30 1268 C 120.211 4.30755 4.34875 0
M  V30 1269 N 119.348 4.29714 5.55239 0
M  V30 1270 H 124.188 2.63472 1.39235 0
M  V30 1271 H 121.725 1.30602 0.676873 0
M  V30 1272 H 123.683 1.84332 3.74269 0
M  V30 1273 H 122.313 0.900258 3.09992 0
M  V30 1274 H 121.365 3.13062 2.16094 0
M  V30 1275 H 122.677 3.97642 3.01135 0
M  V30 1276 H 121.831 3.11738 5.20485 0
M  V30 1277 H 120.57 2.16792 4.36866 0
M  V30 1278 H 119.575 4.28146 3.44922 0
M  V30 1279 H 120.8 5.24117 4.31831 0
M  V30 1280 H 118.746 3.4044 5.60746 0
M  V30 1281 H 118.663 5.13456 5.54886 0
M  V30 1282 H 119.931 4.36683 6.457 0
M  V30 1283 N 124.16 -0.719506 1.40217 0
M  V30 1284 C 125.407 -1.47933 1.38283 0
M  V30 1285 C 125.735 -1.94493 -0.0161536 0
M  V30 1286 O 124.99 -1.68224 -0.999956 0
M  V30 1287 C 125.289 -2.72271 2.31524 0
M  V30 1288 C 124.955 -2.44496 3.78857 0
M  V30 1289 C 123.617 -2.36631 4.18998 0
M  V30 1290 C 125.969 -2.21104 4.71977 0
M  V30 1291 C 123.297 -2.03437 5.503 0
M  V30 1292 C 125.649 -1.89423 6.03574 0
M  V30 1293 C 124.313 -1.80038 6.42762 0
M  V30 1294 H 123.583 -0.541325 0.506012 0
M  V30 1295 H 126.23 -0.824502 1.72842 0
M  V30 1296 H 124.535 -3.42572 1.90137 0
M  V30 1297 H 126.232 -3.30348 2.27313 0
M  V30 1298 H 122.822 -2.51503 3.47051 0
M  V30 1299 H 127.006 -2.26139 4.41786 0
M  V30 1300 H 122.262 -1.94705 5.79569 0
M  V30 1301 H 126.436 -1.70336 6.75247 0
M  V30 1302 H 124.063 -1.54083 7.44421 0
M  V30 1303 N 125.638 -1.25649 -0.95132 0
M  V30 1304 C 126.915 -1.01361 -1.67288 0
M  V30 1305 C 127.295 0.459135 -2.06046 0
M  V30 1306 O 126.643 1.43723 -1.7764 0
M  V30 1307 C 126.853 -1.95256 -2.89268 0
M  V30 1308 C 128.201 -2.23289 -3.61147 0
M  V30 1309 O 129.225 -1.93041 -2.99355 0
M  V30 1310 O 128.084 -2.74741 -4.72419 0
M  V30 1311 H 125.178 -0.38464 -0.732107 0
M  V30 1312 H 127.724 -1.36817 -1.00395 0
M  V30 1313 H 126.496 -2.94685 -2.57442 0
M  V30 1314 H 126.119 -1.60218 -3.6389 0
M  V30 1315 N 127.117 1.15442 -1.07289 0
M  V30 1316 C 128.365 1.85845 -0.794096 0
M  V30 1317 C 128.686 1.82692 0.681809 0
M  V30 1318 O 127.956 1.26741 1.49377 0
M  V30 1319 H 126.536 0.688089 -0.290763 0
M  V30 1320 H 129.198 1.39947 -1.3565 0
M  V30 1321 H 128.294 2.91001 -1.12804 0
M  V30 1322 N 128.595 0.856903 1.32268 0
M  V30 1323 C 129.842 0.461386 1.97174 0
M  V30 1324 C 130.17 -0.983491 1.67803 0
M  V30 1325 O 129.425 -1.70541 0.959903 0
M  V30 1326 C 129.724 0.649919 3.51441 0
M  V30 1327 C 129.39 2.0656 4.00804 0
M  V30 1328 C 128.052 2.45279 4.13995 0
M  V30 1329 C 130.404 2.98947 4.26943 0
M  V30 1330 C 127.732 3.75653 4.50668 0
M  V30 1331 C 130.084 4.28822 4.65075 0
M  V30 1332 C 128.748 4.67472 4.76472 0
M  V30 1333 H 128.018 0.168833 0.72151 0
M  V30 1334 H 130.665 1.08739 1.57633 0
M  V30 1335 H 128.97 -0.0593018 3.91755 0
M  V30 1336 H 130.667 0.32391 3.9969 0
M  V30 1337 H 127.257 1.75495 3.91024 0
M  V30 1338 H 131.441 2.70265 4.16258 0
M  V30 1339 H 126.697 4.05379 4.57688 0
M  V30 1340 H 130.871 5.0047 4.84255 0
M  V30 1341 H 128.498 5.68539 5.04646 0
M  V30 1342 N 130.073 -1.45103 0.615059 0
M  V30 1343 C 131.319 -2.02483 0.113347 0
M  V30 1344 C 131.652 -1.48146 -1.25564 0
M  V30 1345 O 130.927 -0.659104 -1.82992 0
M  V30 1346 C 131.21 -3.60005 0.0825278 0
M  V30 1347 C 131.063 -4.2466 1.48271 0
M  V30 1348 C 132.382 -4.35972 -0.601401 0
M  V30 1349 H 129.501 -0.735764 0.0426632 0
M  V30 1350 H 132.143 -1.72868 0.788461 0
M  V30 1351 H 130.293 -3.85367 -0.492378 0
M  V30 1352 H 131.965 -4.10458 2.10527 0
M  V30 1353 H 130.208 -3.82772 2.04127 0
M  V30 1354 H 130.879 -5.336 1.41332 0
M  V30 1355 H 133.355 -4.15947 -0.112666 0
M  V30 1356 H 132.231 -5.45697 -0.592097 0
M  V30 1357 H 132.492 -4.09391 -1.66887 0
M  V30 1358 N 131.551 -0.354651 -1.53558 0
M  V30 1359 C 132.501 0.513179 -2.2215 0
M  V30 1360 C 133.485 1.05734 -1.21281 0
M  V30 1361 O 134.677 0.989202 -1.46778 0
M  V30 1362 C 131.806 1.65798 -3.00609 0
M  V30 1363 C 130.892 1.12722 -4.08845 0
M  V30 1364 N 131.283 0.318563 -5.04796 0
M  V30 1365 C 129.581 1.40307 -4.23356 0
M  V30 1366 C 130.282 0.0292224 -5.81693 0
M  V30 1367 N 129.258 0.623891 -5.40008 0
M  V30 1368 H 133.06 -0.111586 -2.93688 0
M  V30 1369 H 130.574 -0.162091 -1.61589 0
M  V30 1370 H 132.571 2.29176 -3.48258 0
M  V30 1371 H 131.231 2.28591 -2.306 0
M  V30 1372 H 132.242 -0.0413091 -5.17884 0
M  V30 1373 H 128.919 2.03458 -3.6457 0
M  V30 1374 H 130.309 -0.623808 -6.68998 0
M  V30 1375 N 133.029 1.57378 -0.0835403 0
M  V30 1376 C 134.254 1.98682 0.594987 0
M  V30 1377 C 134.679 0.961969 1.61641 0
M  V30 1378 O 134.037 -0.0709989 1.81161 0
M  V30 1379 C 134.085 3.38988 1.2296 0
M  V30 1380 O 133.189 3.39208 2.34546 0
M  V30 1381 H 132.53 0.646368 0.152002 0
M  V30 1382 H 135.06 2.03961 -0.161533 0
M  V30 1383 H 135.07 3.76431 1.57366 0
M  V30 1384 H 133.745 4.13107 0.481228 0
M  V30 1385 H 132.322 3.13548 2.01846 0
M  V30 1386 N 134.507 -0.190092 1.56449 0
M  V30 1387 C 135.756 -0.907912 1.80111 0
M  V30 1388 C 136.069 -1.84214 0.657619 0
M  V30 1389 O 137.275 -2.60094 0.778663 0
M  V30 1390 C 135.731 -1.66485 3.19078 0
M  V30 1391 C 135.339 -0.7752 4.41242 0
M  V30 1392 C 137.083 -2.37201 3.52045 0
M  V30 1393 C 134.99 -1.53129 5.71231 0
M  V30 1394 H 133.92 -0.34276 0.671589 0
M  V30 1395 H 136.571 -0.161109 1.82791 0
M  V30 1396 H 134.953 -2.45572 3.10661 0
M  V30 1397 H 136.127 -0.0226298 4.60794 0
M  V30 1398 H 134.442 -0.178627 4.16017 0
M  V30 1399 H 137.039 -2.94329 4.46402 0
M  V30 1400 H 137.382 -3.11632 2.76028 0
M  V30 1401 H 137.915 -1.65075 3.61932 0
M  V30 1402 H 134.654 -0.82967 6.50228 0
M  V30 1403 H 134.174 -2.25767 5.55688 0
M  V30 1404 H 135.853 -2.08377 6.12526 0
M  V30 1405 N 135.985 -1.50799 -0.457987 0
M  V30 1406 C 137.233 -1.62121 -1.2067 0
M  V30 1407 C 137.554 -0.329793 -1.92191 0
M  V30 1408 O 136.824 0.653409 -1.84682 0
M  V30 1409 H 135.404 -0.597441 -0.448411 0
M  V30 1410 H 138.066 -1.87637 -0.527096 0
M  V30 1411 H 137.162 -2.43882 -1.94751 0
M  V30 1412 N 137.463 0.71206 -1.40597 0
M  V30 1413 C 138.71 1.47197 -1.39065 0
M  V30 1414 C 139.038 1.94499 0.00583891 0
M  V30 1415 O 138.293 1.68752 0.99102 0
M  V30 1416 C 138.592 2.71039 -2.32965 0
M  V30 1417 C 138.258 2.42484 -3.80148 0
M  V30 1418 C 136.92 2.34406 -4.20247 0
M  V30 1419 C 139.272 2.18598 -4.73143 0
M  V30 1420 C 136.6 2.00516 -5.51371 0
M  V30 1421 C 138.952 1.8622 -6.0457 0
M  V30 1422 C 137.616 1.76626 -6.43708 0
M  V30 1423 H 136.886 0.538634 -0.508876 0
M  V30 1424 H 139.533 0.815325 -1.73276 0
M  V30 1425 H 137.838 3.41558 -1.91951 0
M  V30 1426 H 139.535 3.29138 -2.29061 0
M  V30 1427 H 136.125 2.49659 -3.4838 0
M  V30 1428 H 140.309 2.23793 -4.42979 0
M  V30 1429 H 135.565 1.91628 -5.80593 0
M  V30 1430 H 139.739 1.66752 -6.76141 0
M  V30 1431 H 137.366 1.50133 -7.45228 0
M  V30 1432 N 138.941 1.26152 0.944643 0
M  V30 1433 C 139.904 1.07474 2.0244 0
M  V30 1434 C 140.904 0.0242064 1.60782 0
M  V30 1435 O 142.094 0.267302 1.72137 0
M  V30 1436 C 139.226 0.633956 3.34953 0
M  V30 1437 H 140.419 2.03336 2.20442 0
M  V30 1438 H 137.972 1.087 1.12312 0
M  V30 1439 H 138.707 -0.326811 3.22649 0
M  V30 1440 H 138.492 1.39247 3.66542 0
M  V30 1441 H 139.982 0.52501 4.14287 0
M  V30 1442 N 140.419 -1.14872 1.07899 0
M  V30 1443 C 141.83 -1.67367 0.827363 0
M  V30 1444 C 142.181 -1.85236 -0.646693 0
M  V30 1445 O 141.306 -1.55974 -1.50004 0
M  V30 1446 C 141.901 -3.04016 1.49532 0
M  V30 1447 C 140.46 -3.53566 1.29106 0
M  V30 1448 C 139.607 -2.29161 1.56143 0
M  V30 1449 H 142.558 -0.990083 1.24028 0
M  V30 1450 H 142.579 -3.69219 0.919643 0
M  V30 1451 H 142.091 -2.90978 2.56814 0
M  V30 1452 H 140.192 -3.71835 0.238713 0
M  V30 1453 H 140.305 -4.34661 2.01511 0
M  V30 1454 H 138.669 -2.34978 0.982717 0
M  V30 1455 H 139.452 -2.18705 2.64619 0
M  V30 1456 N 141.898 -0.863906 -1.31812 0
M  V30 1457 C 143.146 -0.470904 -1.96537 0
M  V30 1458 C 143.467 0.978771 -1.68657 0
M  V30 1459 O 142.737 1.6853 -0.998717 0
M  V30 1460 H 141.317 -0.171148 -0.72713 0
M  V30 1461 H 143.979 -1.10236 -1.60729 0
M  V30 1462 H 143.075 -0.623616 -3.05806 0
M  V30 1463 N 143.376 1.44774 -0.622745 0
M  V30 1464 C 144.653 1.95522 -0.0551974 0
M  V30 1465 C 145.033 1.5649 1.41683 0
M  V30 1466 O 144.381 0.834848 2.12703 0
M  V30 1467 C 144.591 3.4796 -0.269242 0
M  V30 1468 C 145.939 4.24306 -0.158014 0
M  V30 1469 O 146.963 3.55637 -0.200162 0
M  V30 1470 O 145.822 5.46471 -0.0558693 0
M  V30 1471 H 142.916 0.826556 0.0271015 0
M  V30 1472 H 145.462 1.54866 -0.693864 0
M  V30 1473 H 144.234 3.6939 -1.29099 0
M  V30 1474 H 143.857 3.95543 0.403966 0
M  V30 1475 N 144.854 0.36279 1.53368 0
M  V30 1476 C 145.786 -0.519668 2.23231 0
M  V30 1477 C 146.799 -1.04844 1.24546 0
M  V30 1478 O 147.988 -0.955296 1.50786 0
M  V30 1479 C 145.088 -1.72995 2.9142 0
M  V30 1480 C 144.261 -1.33316 4.16588 0
M  V30 1481 C 143.32 -2.40521 4.68013 0
M  V30 1482 O 142.346 -2.03027 5.3176 0
M  V30 1483 N 143.548 -3.72065 4.45587 0
M  V30 1484 H 146.313 0.078751 2.99597 0
M  V30 1485 H 143.874 0.187833 1.60807 0
M  V30 1486 H 145.866 -2.44184 3.22733 0
M  V30 1487 H 144.436 -2.2353 2.18525 0
M  V30 1488 H 143.656 -0.451236 3.91609 0
M  V30 1489 H 144.944 -1.04432 4.97967 0
M  V30 1490 H 144.342 -4.05304 3.94646 0
M  V30 1491 H 142.899 -4.39366 4.81457 0
M  V30 1492 N 146.332 -1.57332 0.0918853 0
M  V30 1493 C 147.262 -2.16872 -0.865371 0
M  V30 1494 C 148.243 -1.10118 -1.29646 0
M  V30 1495 O 149.428 -1.38242 -1.36392 0
M  V30 1496 C 146.558 -2.74649 -2.12569 0
M  V30 1497 C 145.512 -3.86747 -1.83333 0
M  V30 1498 C 144.838 -4.31212 -3.16166 0
M  V30 1499 C 146.138 -5.10089 -1.1228 0
M  V30 1500 H 147.832 -2.97114 -0.369307 0
M  V30 1501 H 145.378 -1.42918 -0.176194 0
M  V30 1502 H 147.331 -3.14952 -2.7997 0
M  V30 1503 H 146.055 -1.91657 -2.64452 0
M  V30 1504 H 144.714 -3.46978 -1.18331 0
M  V30 1505 H 144.362 -3.45115 -3.6593 0
M  V30 1506 H 144.062 -5.06788 -2.97388 0
M  V30 1507 H 145.586 -4.74146 -3.84731 0
M  V30 1508 H 147 -5.47582 -1.69785 0
M  V30 1509 H 145.397 -5.91073 -1.03693 0
M  V30 1510 H 146.467 -4.84786 -0.105041 0
M  V30 1511 N 147.81 0.181792 -1.56548 0
M  V30 1512 C 149.087 0.926765 -1.72251 0
M  V30 1513 C 149.467 2.00831 -0.650386 0
M  V30 1514 O 148.815 2.26008 0.336521 0
M  V30 1515 C 149.025 1.50106 -3.1507 0
M  V30 1516 C 150.373 1.97805 -3.75711 0
M  V30 1517 O 151.397 1.59922 -3.18282 0
M  V30 1518 O 150.256 2.67555 -4.76525 0
M  V30 1519 H 147.35 0.435506 -0.703039 0
M  V30 1520 H 149.896 0.170443 -1.68842 0
M  V30 1521 H 148.668 0.72212 -3.84579 0
M  V30 1522 H 148.291 2.32186 -3.22763 0
M  V30 1523 N 149.288 1.51039 0.449983 0
M  V30 1524 C 150.536 1.62759 1.19808 0
M  V30 1525 C 150.857 0.339981 1.92013 0
M  V30 1526 O 150.127 -0.643606 1.85026 0
M  V30 1527 H 148.707 0.599811 0.445237 0
M  V30 1528 H 151.369 1.87914 0.517138 0
M  V30 1529 H 150.465 2.44911 1.93455 0
M  V30 1530 N 150.766 -0.704594 1.40972 0
M  V30 1531 C 152.043 -1.45847 1.30338 0
M  V30 1532 C 152.423 -2.10973 -0.0732344 0
M  V30 1533 O 151.771 -2.00997 -1.08685 0
M  V30 1534 C 151.981 -2.48525 2.45023 0
M  V30 1535 C 153.329 -3.1404 2.8577 0
M  V30 1536 O 154.353 -2.58848 2.44696 0
M  V30 1537 O 153.212 -4.13981 3.56766 0
M  V30 1538 H 150.306 -0.649092 0.512454 0
M  V30 1539 H 152.852 -0.735836 1.52917 0
M  V30 1540 H 151.624 -1.98994 3.36923 0
M  V30 1541 H 151.247 -3.2831 2.24272 0
M  V30 1542 N 152.244 -1.26651 -0.937939 0
M  V30 1543 C 153.474 -1.15006 -1.71631 0
M  V30 1544 C 153.882 0.297026 -1.86854 0
M  V30 1545 O 153.225 1.21493 -1.37786 0
M  V30 1546 C 153.287 -1.74984 -3.14039 0
M  V30 1547 C 152.951 -3.24103 -3.2219 0
M  V30 1548 C 153.948 -4.20877 -3.05219 0
M  V30 1549 C 151.633 -3.64625 -3.45476 0
M  V30 1550 C 153.627 -5.56151 -3.11408 0
M  V30 1551 C 151.314 -5.00032 -3.513 0
M  V30 1552 C 152.312 -5.95604 -3.34282 0
M  V30 1553 O 152 -7.28545 -3.3982 0
M  V30 1554 H 151.732 -0.401183 -0.544085 0
M  V30 1555 H 154.286 -1.67832 -1.18413 0
M  V30 1556 H 152.516 -1.16624 -3.68695 0
M  V30 1557 H 154.205 -1.58199 -3.73802 0
M  V30 1558 H 154.971 -3.90908 -2.87081 0
M  V30 1559 H 150.85 -2.90718 -3.57777 0
M  V30 1560 H 154.394 -6.30727 -2.98043 0
M  V30 1561 H 150.291 -5.29659 -3.68959 0
M  V30 1562 H 151.059 -7.3686 -3.56343 0
M  V30 1563 N 153.722 1.14298 -1.08507 0
M  V30 1564 C 154.968 1.85633 -0.816581 0
M  V30 1565 C 155.301 1.82784 0.656021 0
M  V30 1566 O 154.576 1.25926 1.48233 0
M  V30 1567 C 154.859 3.34223 -1.34041 0
M  V30 1568 C 154.712 3.45639 -2.87843 0
M  V30 1569 C 156.031 4.29356 -0.9665 0
M  V30 1570 H 153.15 0.67402 -0.298104 0
M  V30 1571 H 155.792 1.34214 -1.34487 0
M  V30 1572 H 153.942 3.78144 -0.89104 0
M  V30 1573 H 155.614 3.10498 -3.41158 0
M  V30 1574 H 153.857 2.86817 -3.25451 0
M  V30 1575 H 154.528 4.50089 -3.19569 0
M  V30 1576 H 157.004 3.93457 -1.35391 0
M  V30 1577 H 155.88 5.3178 -1.3602 0
M  V30 1578 H 156.141 4.41919 0.126362 0
M  V30 1579 N 155.201 0.870884 1.31352 0
M  V30 1580 C 156.149 0.316445 2.30437 0
M  V30 1581 C 157.143 -0.568965 1.59559 0
M  V30 1582 O 158.349 -0.454964 1.74155 0
M  V30 1583 H 154.724 0.0836521 0.747333 0
M  V30 1584 H 156.695 1.16606 2.74673 0
M  V30 1585 C 155.444 -0.46635 3.44558 0
M  V30 1586 H 154.767 0.205687 3.99271 0
M  V30 1587 H 156.207 -0.819614 4.16003 0
M  V30 1588 C 154.666 -1.65797 2.9328 0
M  V30 1589 O 155.196 -2.75728 2.92125 0
M  V30 1590 N 153.402 -1.49041 2.4947 0
M  V30 1591 H 152.949 -0.59612 2.50608 0
M  V30 1592 H 152.907 -2.28911 2.15516 0
M  V30 1593 N 156.679 -1.44442 0.630414 0
M  V30 1594 C 157.642 -2.29107 -0.0652523 0
M  V30 1595 C 158.642 -1.41002 -0.772995 0
M  V30 1596 O 159.832 -1.62881 -0.617692 0
M  V30 1597 C 156.964 -3.22564 -1.10296 0
M  V30 1598 H 158.157 -2.92103 0.679401 0
M  V30 1599 H 155.71 -1.51343 0.390517 0
M  V30 1600 H 156.445 -2.64416 -1.87762 0
M  V30 1601 H 156.23 -3.87491 -0.59941 0
M  V30 1602 H 157.72 -3.86167 -1.5895 0
M  V30 1603 N 158.157 -0.370918 -1.53173 0
M  V30 1604 C 159.403 0.217423 -2.01631 0
M  V30 1605 C 159.736 1.47983 -1.25756 0
M  V30 1606 O 159.011 1.91274 -0.352764 0
M  V30 1607 C 159.294 0.503982 -3.56556 0
M  V30 1608 C 159.147 -0.77243 -4.43118 0
M  V30 1609 C 160.466 1.30234 -4.20389 0
M  V30 1610 H 157.585 0.0775486 -0.732909 0
M  V30 1611 H 160.227 -0.496863 -1.83388 0
M  V30 1612 H 158.377 1.11248 -3.72231 0
M  V30 1613 H 160.049 -1.4098 -4.39229 0
M  V30 1614 H 158.292 -1.39167 -4.10871 0
M  V30 1615 H 158.963 -0.526815 -5.4948 0
M  V30 1616 H 161.439 0.787546 -4.08579 0
M  V30 1617 H 160.315 1.47158 -5.28806 0
M  V30 1618 H 160.576 2.31237 -3.76805 0
M  V30 1619 N 159.635 1.57281 -0.100228 0
M  V30 1620 C 160.863 1.98879 0.570509 0
M  V30 1621 C 161.278 0.979476 1.61405 0
M  V30 1622 O 160.635 -0.0302288 1.82475 0
M  V30 1623 C 160.686 3.4052 1.2136 0
M  V30 1624 O 160.407 4.37588 0.211786 0
M  V30 1625 C 161.908 3.97149 1.96945 0
M  V30 1626 H 159.128 0.653428 0.152555 0
M  V30 1627 H 161.672 2.03697 -0.18103 0
M  V30 1628 H 159.827 3.367 1.91603 0
M  V30 1629 H 160.241 5.20118 0.676607 0
M  V30 1630 H 161.715 4.98393 2.37294 0
M  V30 1631 H 162.192 3.3525 2.83733 0
M  V30 1632 H 162.798 4.04458 1.31506 0
M  V30 1633 N 161.113 -0.173488 1.56642 0
M  V30 1634 C 162.529 -0.525174 1.50712 0
M  V30 1635 C 162.729 -1.8476 0.804107 0
M  V30 1636 O 161.785 -2.49869 0.363574 0
M  V30 1637 C 163.098 -0.559937 2.95441 0
M  V30 1638 C 164.646 -0.647288 3.06234 0
M  V30 1639 C 165.121 -0.712963 4.52417 0
M  V30 1640 N 166.612 -0.775911 4.56655 0
M  V30 1641 C 167.347 -0.847264 5.67106 0
M  V30 1642 N 166.843 -0.879585 6.87194 0
M  V30 1643 N 168.636 -0.886117 5.55071 0
M  V30 1644 H 160.787 0.693681 2.00753 0
M  V30 1645 H 163.05 0.249841 0.914485 0
M  V30 1646 H 162.756 0.343049 3.50023 0
M  V30 1647 H 162.63 -1.40718 3.49969 0
M  V30 1648 H 165.017 -1.5407 2.51687 0
M  V30 1649 H 165.098 0.226586 2.54794 0
M  V30 1650 H 164.742 0.176183 5.07594 0
M  V30 1651 H 164.672 -1.60295 5.0161 0
M  V30 1652 H 167.163 -0.759304 3.70193 0
M  V30 1653 H 167.476 -0.935144 7.67121 0
M  V30 1654 H 165.821 -0.847898 6.89808 0
M  V30 1655 H 169.012 -0.857853 4.60172 0
M  V30 1656 H 169.185 -0.938263 6.41171 0
M  V30 1657 N 162.591 -1.51276 -0.441967 0
M  V30 1658 C 163.501 -1.75092 -1.56141 0
M  V30 1659 C 164.517 -0.634963 -1.62001 0
M  V30 1660 O 165.693 -0.916686 -1.79329 0
M  V30 1661 C 162.758 -1.86666 -2.92158 0
M  V30 1662 C 161.819 -3.10506 -2.96453 0
M  V30 1663 C 161.052 -3.21519 -4.25982 0
M  V30 1664 O 161.275 -2.38586 -5.18105 0
M  V30 1665 O 160.209 -4.14465 -4.36466 0
M  V30 1666 H 164.035 -2.70044 -1.38961 0
M  V30 1667 H 161.62 -1.35722 -0.624499 0
M  V30 1668 H 163.502 -1.96292 -3.72891 0
M  V30 1669 H 162.177 -0.949014 -3.09476 0
M  V30 1670 H 161.084 -3.06363 -2.14692 0
M  V30 1671 H 162.417 -4.01945 -2.84079 0
M  V30 1672 N 164.069 0.697108 -1.41344 0
M  V30 1673 C 165.317 1.45426 -1.40341 0
M  V30 1674 C 165.638 1.94996 -0.0128787 0
M  V30 1675 O 164.908 1.71599 0.945027 0
M  V30 1676 H 163.488 0.539594 -0.516573 0
M  V30 1677 H 166.15 0.825201 -1.76569 0
M  V30 1678 H 165.246 2.31817 -2.08967 0
M  V30 1679 N 165.547 1.27147 0.931209 0
M  V30 1680 C 166.794 1.13278 1.67852 0
M  V30 1681 C 167.122 -0.32204 1.91815 0
M  V30 1682 O 166.377 -1.25224 1.50391 0
M  V30 1683 C 166.676 1.8579 3.05314 0
M  V30 1684 C 166.342 3.35657 3.01073 0
M  V30 1685 C 165.004 3.76536 2.99623 0
M  V30 1686 C 167.356 4.31299 2.92627 0
M  V30 1687 C 164.684 5.11426 2.87506 0
M  V30 1688 C 167.036 5.66242 2.82051 0
M  V30 1689 C 165.7 6.06418 2.7895 0
M  V30 1690 H 164.97 0.414515 0.614214 0
M  V30 1691 H 167.617 1.57712 1.08624 0
M  V30 1692 H 165.922 1.33854 3.68226 0
M  V30 1693 H 167.619 1.72491 3.62005 0
M  V30 1694 H 164.209 3.03146 3.02986 0
M  V30 1695 H 168.393 4.00692 2.92848 0
M  V30 1696 H 163.649 5.41705 2.83489 0
M  V30 1697 H 167.823 6.40026 2.74481 0
M  V30 1698 H 165.45 7.10895 2.69318 0
M  V30 1699 N 167.025 -1.13721 1.09112 0
M  V30 1700 C 167.972 -2.19031 0.727591 0
M  V30 1701 C 168.942 -1.63555 -0.289656 0
M  V30 1702 O 170.127 -1.90023 -0.172026 0
M  V30 1703 C 167.267 -3.4477 0.15082 0
M  V30 1704 C 166.38 -4.14365 1.22172 0
M  V30 1705 C 165.515 -5.27709 0.608042 0
M  V30 1706 C 164.554 -5.89147 1.66047 0
M  V30 1707 N 163.691 -6.93929 1.06806 0
M  V30 1708 H 168.531 -2.49475 1.62991 0
M  V30 1709 H 166.068 -1.22499 0.81439 0
M  V30 1710 H 168.026 -4.16714 -0.201358 0
M  V30 1711 H 166.656 -3.14787 -0.714783 0
M  V30 1712 H 165.708 -3.40737 1.69122 0
M  V30 1713 H 167.02 -4.56114 2.01895 0
M  V30 1714 H 166.174 -6.06355 0.204523 0
M  V30 1715 H 164.913 -4.872 -0.220769 0
M  V30 1716 H 163.918 -5.09198 2.07357 0
M  V30 1717 H 165.143 -6.31729 2.49189 0
M  V30 1718 H 163.089 -6.55483 0.260476 0
M  V30 1719 H 163.006 -7.34202 1.8023 0
M  V30 1720 H 164.274 -7.76434 0.690644 0
M  V30 1721 N 168.503 -0.877838 -1.30888 0
M  V30 1722 C 169.752 -0.488793 -1.95688 0
M  V30 1723 C 170.065 0.965485 -1.70111 0
M  V30 1724 O 171.271 1.46104 -2.28836 0
M  V30 1725 C 169.727 -0.823201 -3.50359 0
M  V30 1726 C 169.335 -2.29477 -3.84765 0
M  V30 1727 C 171.079 -0.503009 -4.21509 0
M  V30 1728 C 168.986 -2.57118 -5.32583 0
M  V30 1729 H 167.916 -0.179062 -0.732429 0
M  V30 1730 H 170.567 -1.07183 -1.48943 0
M  V30 1731 H 168.949 -0.169331 -3.95638 0
M  V30 1732 H 170.123 -2.99236 -3.5042 0
M  V30 1733 H 168.438 -2.58178 -3.267 0
M  V30 1734 H 171.035 -0.68665 -5.30273 0
M  V30 1735 H 171.378 0.557109 -4.12555 0
M  V30 1736 H 171.911 -1.11376 -3.8189 0
M  V30 1737 H 168.65 -3.61843 -5.4658 0
M  V30 1738 H 168.17 -1.91961 -5.68253 0
M  V30 1739 H 169.849 -2.42251 -5.99936 0
M  V30 1740 N 169.982 1.44106 -0.638065 0
M  V30 1741 C 170.945 2.29138 0.0531013 0
M  V30 1742 C 171.945 1.41409 0.765506 0
M  V30 1743 O 173.135 1.63206 0.609046 0
M  V30 1744 C 170.267 3.23144 1.08584 0
M  V30 1745 H 171.46 2.91739 -0.694883 0
M  V30 1746 H 169.013 1.51134 -0.398538 0
M  V30 1747 H 169.748 2.65408 1.86357 0
M  V30 1748 H 169.533 3.87804 0.578852 0
M  V30 1749 H 171.023 3.87004 1.56899 0
M  V30 1750 N 171.46 0.379036 1.52974 0
M  V30 1751 C 172.41 -0.477772 2.22938 0
M  V30 1752 C 173.394 -1.03792 1.22948 0
M  V30 1753 O 174.586 -0.965725 1.48333 0
M  V30 1754 C 171.715 -1.60994 3.03209 0
M  V30 1755 C 170.801 -1.06203 4.10587 0
M  V30 1756 N 171.192 -0.238214 5.05239 0
M  V30 1757 C 169.49 -1.33554 4.25534 0
M  V30 1758 C 170.191 0.0633235 5.81666 0
M  V30 1759 N 169.167 -0.537901 5.40932 0
M  V30 1760 H 172.969 0.158295 2.93473 0
M  V30 1761 H 170.483 0.187778 1.61311 0
M  V30 1762 H 172.48 -2.23607 3.5186 0
M  V30 1763 H 171.14 -2.24893 2.34207 0
M  V30 1764 H 172.151 0.123695 5.17752 0
M  V30 1765 H 168.828 -1.97632 3.6776 0
M  V30 1766 H 170.218 0.730161 6.67921 0
M  V30 1767 N 172.938 -1.57226 0.108567 0
M  V30 1768 C 174.215 -1.86333 -0.594939 0
M  V30 1769 C 174.595 -1.00788 -1.85486 0
M  V30 1770 O 173.943 -0.0839293 -2.28346 0
M  V30 1771 C 174.153 -3.37265 -0.897405 0
M  V30 1772 C 175.501 -4.05629 -1.25501 0
M  V30 1773 O 176.525 -3.42224 -0.987998 0
M  V30 1774 O 175.384 -5.17531 -1.75567 0
M  V30 1775 H 172.478 -0.771018 -0.2991 0
M  V30 1776 H 175.024 -1.69102 0.142283 0
M  V30 1777 H 173.796 -3.913 -0.00413806 0
M  V30 1778 H 173.419 -3.59889 -1.69014 0
M  V30 1779 N 174.416 0.165178 -1.56732 0
M  V30 1780 C 175.665 0.879143 -1.81532 0
M  V30 1781 C 175.978 1.83144 -0.686842 0
M  V30 1782 O 177.184 2.58823 -0.819944 0
M  V30 1783 C 175.64 1.61388 -3.21686 0
M  V30 1784 C 175.248 0.704904 -4.4242 0
M  V30 1785 C 176.992 2.3157 -3.55774 0
M  V30 1786 C 174.899 1.44022 -5.73595 0
M  V30 1787 H 173.829 0.332033 -0.676957 0
M  V30 1788 H 176.48 0.132008 -1.83025 0
M  V30 1789 H 174.862 2.40599 -3.14529 0
M  V30 1790 H 176.036 -0.0506815 -4.60772 0
M  V30 1791 H 174.351 0.112419 -4.16248 0
M  V30 1792 H 176.948 2.8719 -4.51028 0
M  V30 1793 H 177.291 3.07201 -2.8095 0
M  V30 1794 H 177.824 1.59297 -3.64513 0
M  V30 1795 H 174.563 0.72612 -6.51466 0
M  V30 1796 H 174.083 2.16898 -5.5921 0
M  V30 1797 H 175.762 1.98606 -6.15764 0
M  V30 1798 N 175.894 1.51508 0.433938 0
M  V30 1799 C 177.119 1.68443 1.21003 0
M  V30 1800 C 177.544 0.382636 1.84167 0
M  V30 1801 O 176.902 -0.65755 1.68956 0
M  V30 1802 C 176.95 2.80405 2.26727 0
M  V30 1803 O 176.054 2.44245 3.32292 0
M  V30 1804 H 175.395 0.561536 0.354363 0
M  V30 1805 H 177.925 1.9809 0.512024 0
M  V30 1806 H 177.935 3.0459 2.71457 0
M  V30 1807 H 176.61 3.74867 1.80132 0
M  V30 1808 H 175.187 2.30644 2.93015 0
M  V30 1809 N 177.372 -0.689602 1.41712 0
M  V30 1810 C 178.597 -1.48329 1.44959 0
M  V30 1811 C 179.022 -1.8801 0.0581283 0
M  V30 1812 O 178.38 -1.55026 -0.940035 0
M  V30 1813 C 178.428 -2.71835 2.36935 0
M  V30 1814 O 177.532 -3.69549 1.8305 0
M  V30 1815 H 176.873 -0.446199 0.491734 0
M  V30 1816 H 179.403 -0.847127 1.86239 0
M  V30 1817 H 179.413 -3.20076 2.53013 0
M  V30 1818 H 178.088 -2.42291 3.38035 0
M  V30 1819 H 176.665 -3.2851 1.76452 0
M  V30 1820 N 178.85 -1.27639 -0.924453 0
M  V30 1821 C 180.08 -1.16819 -1.70402 0
M  V30 1822 C 180.488 0.277191 -1.87158 0
M  V30 1823 O 179.831 1.20025 -1.39067 0
M  V30 1824 C 179.893 -1.78305 -3.12166 0
M  V30 1825 C 179.557 -3.27502 -3.18734 0
M  V30 1826 C 180.554 -4.2409 -3.00738 0
M  V30 1827 C 178.239 -3.68269 -3.4159 0
M  V30 1828 C 180.233 -5.59422 -3.05492 0
M  V30 1829 C 177.92 -5.0373 -3.45977 0
M  V30 1830 C 178.918 -5.99116 -3.27946 0
M  V30 1831 O 178.606 -7.32108 -3.32074 0
M  V30 1832 H 178.338 -0.406931 -0.539799 0
M  V30 1833 H 180.892 -1.69078 -1.16626 0
M  V30 1834 H 179.122 -1.20528 -3.67437 0
M  V30 1835 H 180.811 -1.62154 -3.72103 0
M  V30 1836 H 181.577 -3.93931 -2.82919 0
M  V30 1837 H 177.456 -2.94496 -3.54673 0
M  V30 1838 H 181 -6.33852 -2.91337 0
M  V30 1839 H 176.897 -5.33543 -3.63321 0
M  V30 1840 H 177.665 -7.40598 -3.48507 0
M  V30 1841 N 180.328 1.1314 -1.09713 0
M  V30 1842 C 181.553 1.88862 -0.857081 0
M  V30 1843 C 181.978 1.78729 0.586304 0
M  V30 1844 O 181.336 1.13692 1.41222 0
M  V30 1845 C 181.384 3.36325 -1.30069 0
M  V30 1846 O 180.488 4.09815 -0.461007 0
M  V30 1847 H 179.829 0.587108 -0.310162 0
M  V30 1848 H 182.359 1.43129 -1.46203 0
M  V30 1849 H 182.369 3.87157 -1.28738 0
M  V30 1850 H 181.044 3.43017 -2.35185 0
M  V30 1851 H 179.621 3.68986 -0.538888 0
M  V30 1852 N 181.806 0.884767 1.30421 0
M  V30 1853 C 183.053 0.503105 1.96151 0
M  V30 1854 C 183.381 -0.947676 1.69851 0
M  V30 1855 O 182.636 -1.68467 0.995861 0
M  V30 1856 C 182.935 0.724318 3.49983 0
M  V30 1857 C 182.601 2.15015 3.96332 0
M  V30 1858 C 181.263 2.54005 4.08699 0
M  V30 1859 C 183.615 3.07936 4.20505 0
M  V30 1860 C 180.943 3.85128 4.42599 0
M  V30 1861 C 183.295 4.3859 4.55874 0
M  V30 1862 C 181.959 4.77474 4.66449 0
M  V30 1863 H 181.229 0.184099 0.717766 0
M  V30 1864 H 183.876 1.12058 1.55291 0
M  V30 1865 H 182.181 0.0238086 3.91793 0
M  V30 1866 H 183.878 0.408617 3.98913 0
M  V30 1867 H 180.468 1.8375 3.87213 0
M  V30 1868 H 184.652 2.79033 4.10431 0
M  V30 1869 H 179.908 4.14996 4.48986 0
M  V30 1870 H 184.082 5.10629 4.7353 0
M  V30 1871 H 181.709 5.79115 4.92473 0
M  V30 1872 N 183.284 -1.43765 0.645699 0
M  V30 1873 C 184.53 -2.02197 0.156271 0
M  V30 1874 C 184.863 -1.50776 -1.22393 0
M  V30 1875 O 184.138 -0.697771 -1.81553 0
M  V30 1876 C 184.421 -3.59749 0.158872 0
M  V30 1877 C 184.274 -4.21419 1.57245 0
M  V30 1878 C 185.593 -4.37149 -0.50879 0
M  V30 1879 H 182.712 -0.734694 0.0582602 0
M  V30 1880 H 185.354 -1.71157 0.824951 0
M  V30 1881 H 183.504 -3.86325 -0.410525 0
M  V30 1882 H 185.176 -4.059 2.19186 0
M  V30 1883 H 183.419 -3.78356 2.122 0
M  V30 1884 H 184.09 -5.30482 1.52619 0
M  V30 1885 H 186.566 -4.16093 -0.024412 0
M  V30 1886 H 185.442 -5.4683 -0.476213 0
M  V30 1887 H 185.703 -4.12839 -1.58165 0
M  V30 1888 N 184.763 -0.387143 -1.52771 0
M  V30 1889 C 185.726 0.436939 -2.24997 0
M  V30 1890 C 186.726 0.991991 -1.26555 0
M  V30 1891 O 187.916 0.874335 -1.50669 0
M  V30 1892 C 185.048 1.61281 -3.00335 0
M  V30 1893 H 186.241 -0.195365 -2.99263 0
M  V30 1894 H 183.794 -0.139218 -1.55679 0
M  V30 1895 H 184.529 2.2826 -2.30364 0
M  V30 1896 H 184.314 1.22154 -3.72587 0
M  V30 1897 H 185.804 2.19629 -3.5518 0
M  V30 1898 N 186.241 1.57166 -0.116904 0
M  V30 1899 C 187.174 2.10912 0.871291 0
M  V30 1900 C 188.152 1.025 1.26224 0
M  V30 1901 O 189.336 1.3014 1.36366 0
M  V30 1902 C 186.463 2.6041 2.16574 0
M  V30 1903 C 185.509 3.80687 1.92302 0
M  V30 1904 S 186.342 5.23199 1.14119 0
M  V30 1905 C 187.498 5.76064 2.44748 0
M  V30 1906 H 187.731 2.94401 0.414138 0
M  V30 1907 H 185.264 1.54096 0.096829 0
M  V30 1908 H 187.222 2.89583 2.9095 0
M  V30 1909 H 185.883 1.77106 2.59408 0
M  V30 1910 H 185.076 4.13462 2.8821 0
M  V30 1911 H 184.678 3.5212 1.26047 0
M  V30 1912 H 186.97 5.8566 3.406 0
M  V30 1913 H 187.913 6.74184 2.16521 0
M  V30 1914 H 188.321 5.04117 2.54019 0
M  V30 1915 N 187.719 -0.156864 1.56817 0
M  V30 1916 C 188.682 -1.17781 1.96622 0
M  V30 1917 C 189.682 -1.36401 0.851555 0
M  V30 1918 O 190.872 -1.33561 1.11836 0
M  V30 1919 C 188.004 -2.54008 2.27361 0
M  V30 1920 H 189.197 -0.836564 2.87996 0
M  V30 1921 H 186.75 -0.39985 1.51099 0
M  V30 1922 H 187.485 -2.9312 1.38748 0
M  V30 1923 H 187.27 -2.41856 3.08623 0
M  V30 1924 H 188.76 -3.27558 2.59029 0
M  V30 1925 N 189.197 -1.51736 -0.425897 0
M  V30 1926 C 190.144 -1.73875 -1.51776 0
M  V30 1927 C 191.114 -0.580702 -1.55618 0
M  V30 1928 O 192.299 -0.81641 -1.72451 0
M  V30 1929 C 189.439 -1.88012 -2.89388 0
M  V30 1930 C 188.552 -3.15606 -2.94986 0
M  V30 1931 C 187.687 -3.20271 -4.23793 0
M  V30 1932 C 186.726 -4.42134 -4.23302 0
M  V30 1933 N 185.863 -4.44284 -5.43651 0
M  V30 1934 H 190.703 -2.67071 -1.32201 0
M  V30 1935 H 188.24 -1.32351 -0.642008 0
M  V30 1936 H 190.198 -1.9419 -3.69251 0
M  V30 1937 H 188.828 -0.98213 -3.07496 0
M  V30 1938 H 187.88 -3.18681 -2.07717 0
M  V30 1939 H 189.192 -4.05486 -2.90486 0
M  V30 1940 H 188.346 -3.25428 -5.12036 0
M  V30 1941 H 187.085 -2.28299 -4.30965 0
M  V30 1942 H 186.09 -4.3714 -3.3345 0
M  V30 1943 H 187.315 -5.35382 -4.17783 0
M  V30 1944 H 185.261 -3.55188 -5.51523 0
M  V30 1945 H 185.178 -5.27988 -5.41078 0
M  V30 1946 H 186.446 -4.53649 -6.33895 0
M  V30 1947 N 190.675 0.682077 -1.42076 0
M  V30 1948 C 191.638 1.77756 -1.44691 0
M  V30 1949 C 192.638 1.5726 -0.335535 0
M  V30 1950 O 193.828 1.63686 -0.596037 0
M  V30 1951 C 190.96 3.16301 -1.27146 0
M  V30 1952 H 192.153 1.76826 -2.42224 0
M  V30 1953 H 189.706 0.891012 -1.28416 0
M  V30 1954 H 190.441 3.22862 -0.305075 0
M  V30 1955 H 190.226 3.32581 -2.07683 0
M  V30 1956 H 191.716 3.96241 -1.31843 0
M  V30 1957 N 192.153 1.28127 0.917671 0
M  V30 1958 C 193.393 1.163 1.68088 0
M  V30 1959 C 193.757 -0.284515 1.8988 0
M  V30 1960 O 194.958 -0.525413 2.63615 0
M  V30 1961 C 193.229 1.93546 3.00457 0
M  V30 1962 S 194.788 1.98048 3.91564 0
M  V30 1963 H 191.606 0.415005 0.577315 0
M  V30 1964 H 194.208 1.62173 1.09179 0
M  V30 1965 H 192.912 2.97888 2.82295 0
M  V30 1966 H 192.443 1.48207 3.64415 0
M  V30 1967 H 194.458 1.08415 4.84211 0
M  V30 1968 N 193.631 -1.12557 1.10312 0
M  V30 1969 C 195.047 -1.36036 0.834649 0
M  V30 1970 C 195.247 -1.93946 -0.546539 0
M  V30 1971 O 194.303 -2.16484 -1.29966 0
M  V30 1972 C 195.616 -2.30312 1.9333 0
M  V30 1973 C 197.164 -2.43906 1.9616 0
M  V30 1974 C 197.639 -3.41496 3.05195 0
M  V30 1975 N 199.13 -3.49053 3.04494 0
M  V30 1976 C 199.865 -4.24471 3.85502 0
M  V30 1977 N 199.361 -5.02966 4.76442 0
M  V30 1978 N 201.154 -4.19864 3.73725 0
M  V30 1979 H 193.305 -0.733246 1.99342 0
M  V30 1980 H 195.568 -0.385234 0.866198 0
M  V30 1981 H 195.274 -1.94933 2.92735 0
M  V30 1982 H 195.148 -3.30421 1.81939 0
M  V30 1983 H 197.535 -2.78567 0.973886 0
M  V30 1984 H 197.616 -1.4369 2.11629 0
M  V30 1985 H 197.26 -3.07565 4.04186 0
M  V30 1986 H 197.19 -4.41539 2.86968 0
M  V30 1987 H 199.681 -2.93053 2.38596 0
M  V30 1988 H 199.994 -5.57846 5.34815 0
M  V30 1989 H 198.339 -5.02167 4.80472 0
M  V30 1990 H 201.53 -3.57623 3.02032 0
M  V30 1991 H 201.703 -4.78386 4.37093 0
M  V30 1992 N 195.109 -0.891671 -1.2995 0
M  V30 1993 C 196.334 -0.527932 -2.00568 0
M  V30 1994 C 196.759 0.877969 -1.66353 0
M  V30 1995 O 196.117 1.58301 -0.883762 0
M  V30 1996 C 196.165 -0.717745 -3.53385 0
M  V30 1997 O 195.269 0.233376 -4.11739 0
M  V30 1998 H 194.61 -0.20722 -0.630837 0
M  V30 1999 H 197.14 -1.20105 -1.65638 0
M  V30 2000 H 197.15 -0.619307 -4.03272 0
M  V30 2001 H 195.825 -1.74276 -3.77625 0
M  V30 2002 H 194.402 0.0880706 -3.72796 0
M  V30 2003 N 196.587 1.43421 -0.653314 0
M  V30 2004 C 197.52 2.2803 0.0879804 0
M  V30 2005 C 198.498 1.39833 0.82979 0
M  V30 2006 O 199.682 1.69275 0.829341 0
M  V30 2007 C 196.809 3.19247 1.13132 0
M  V30 2008 C 195.855 4.23704 0.487546 0
M  V30 2009 S 196.688 5.30377 -0.738961 0
M  V30 2010 C 197.844 6.25162 0.30384 0
M  V30 2011 H 198.077 2.90554 -0.629739 0
M  V30 2012 H 195.61 1.47934 -0.442156 0
M  V30 2013 H 197.568 3.72346 1.72827 0
M  V30 2014 H 196.229 2.55901 1.82136 0
M  V30 2015 H 195.422 4.87631 1.27407 0
M  V30 2016 H 195.024 3.73983 -0.0352915 0
M  V30 2017 H 197.316 6.67321 1.17 0
M  V30 2018 H 198.259 7.07463 -0.300402 0
M  V30 2019 H 198.667 5.60864 0.63969 0
M  V30 2020 N 198.065 0.39524 1.52563 0
M  V30 2021 C 198.995 -0.428384 2.29537 0
M  V30 2022 C 199.976 -1.05831 1.33169 0
M  V30 2023 O 201.161 -1.06995 1.62067 0
M  V30 2024 C 198.291 -1.55274 3.10656 0
M  V30 2025 C 197.245 -1.04855 4.14957 0
M  V30 2026 C 196.571 -2.26543 4.84337 0
M  V30 2027 C 197.871 -0.112324 5.22179 0
M  V30 2028 H 199.565 0.213867 2.98635 0
M  V30 2029 H 197.111 0.104298 1.43622 0
M  V30 2030 H 199.064 -2.1358 3.63265 0
M  V30 2031 H 197.788 -2.22266 2.39302 0
M  V30 2032 H 196.447 -0.487985 3.63338 0
M  V30 2033 H 196.095 -2.92059 4.09525 0
M  V30 2034 H 195.795 -1.93466 5.54837 0
M  V30 2035 H 197.319 -2.85481 5.39753 0
M  V30 2036 H 198.733 -0.603752 5.70112 0
M  V30 2037 H 197.13 0.128968 5.99961 0
M  V30 2038 H 198.2 0.837052 4.77621 0
M  V30 2039 N 199.544 -1.57102 0.125237 0
M  V30 2040 C 200.492 -2.16905 -0.839927 0
M  V30 2041 C 201.486 -1.11998 -1.27094 0
M  V30 2042 O 202.692 -1.3029 -1.24195 0
M  V30 2043 H 199.067 -0.694252 -0.288995 0
M  V30 2044 H 201.038 -2.96774 -0.311115 0
M  V30 2045 C 199.787 -2.78795 -2.07771 0
M  V30 2046 H 199.11 -3.59221 -1.755 0
M  V30 2047 H 200.55 -3.2417 -2.73295 0
M  V30 2048 C 199.009 -1.76193 -2.87155 0
M  V30 2049 O 199.539 -1.21909 -3.82755 0
M  V30 2050 N 197.745 -1.45991 -2.51267 0
M  V30 2051 H 197.292 -1.90325 -1.73592 0
M  V30 2052 H 197.25 -0.775844 -3.04677 0
M  V30 2053 N 201.022 0.148545 -1.56898 0
M  V30 2054 C 202.433 0.708766 -1.72723 0
M  V30 2055 C 202.784 1.81734 -0.739395 0
M  V30 2056 O 201.909 2.16194 0.0943169 0
M  V30 2057 C 202.504 1.29245 -3.13179 0
M  V30 2058 C 201.063 1.79925 -3.30611 0
M  V30 2059 C 200.21 0.687111 -2.68652 0
M  V30 2060 H 203.161 -0.0771063 -1.58513 0
M  V30 2061 H 203.182 2.16224 -3.13093 0
M  V30 2062 H 202.694 0.485382 -3.85053 0
M  V30 2063 H 200.795 2.63203 -2.63732 0
M  V30 2064 H 200.908 1.92903 -4.38549 0
M  V30 2065 H 199.272 1.11335 -2.29078 0
M  V30 2066 H 200.055 -0.108483 -3.43129 0
M  V30 2067 N 202.5 1.5196 0.417844 0
M  V30 2068 C 203.748 1.65263 1.16329 0
M  V30 2069 C 204.069 0.380634 1.91249 0
M  V30 2070 O 203.339 -0.604214 1.86349 0
M  V30 2071 H 201.919 0.60912 0.432414 0
M  V30 2072 H 204.581 1.88969 0.477162 0
M  V30 2073 H 203.677 2.4896 1.88217 0
M  V30 2074 N 203.978 -0.674533 1.42435 0
M  V30 2075 C 205.203 -1.46784 1.46524 0
M  V30 2076 C 205.628 -1.87938 0.078066 0
M  V30 2077 O 204.986 -1.56014 -0.92354 0
M  V30 2078 C 205.034 -2.69307 2.39805 0
M  V30 2079 O 204.138 -3.67587 1.86959 0
M  V30 2080 H 203.479 -0.440959 0.496439 0
M  V30 2081 H 206.009 -0.827326 1.87127 0
M  V30 2082 H 206.019 -3.17374 2.56393 0
M  V30 2083 H 204.694 -2.38692 3.40586 0
M  V30 2084 H 203.271 -3.2662 1.79927 0
M  V30 2085 N 205.456 -1.28612 -0.910864 0
M  V30 2086 C 206.419 -1.12803 -1.9952 0
M  V30 2087 C 207.419 -0.0668264 -1.60661 0
M  V30 2088 O 208.609 -0.312847 -1.71368 0
M  V30 2089 C 205.741 -0.72254 -3.33155 0
M  V30 2090 H 206.934 -2.09109 -2.14973 0
M  V30 2091 H 204.487 -1.11639 -1.09391 0
M  V30 2092 H 205.222 0.241152 -3.23402 0
M  V30 2093 H 205.007 -1.48916 -3.62721 0
M  V30 2094 H 206.497 -0.634666 -4.12749 0
M  V30 2095 N 206.934 1.1197 -1.10907 0
M  V30 2096 C 207.864 2.19928 -0.784473 0
M  V30 2097 C 208.845 1.6833 0.244726 0
M  V30 2098 O 210.03 1.93892 0.109418 0
M  V30 2099 C 207.16 3.46597 -0.220827 0
M  V30 2100 C 206.114 4.11376 -1.18127 0
M  V30 2101 C 205.44 5.32554 -0.478594 0
M  V30 2102 C 206.74 4.56945 -2.52979 0
M  V30 2103 H 208.434 2.47337 -1.68715 0
M  V30 2104 H 205.98 1.18879 -0.812642 0
M  V30 2105 H 207.933 4.21396 0.0184278 0
M  V30 2106 H 206.657 3.1863 0.717113 0
M  V30 2107 H 205.316 3.38564 -1.40606 0
M  V30 2108 H 204.964 5.00856 0.463976 0
M  V30 2109 H 204.664 5.76844 -1.11912 0
M  V30 2110 H 206.188 6.10096 -0.248 0
M  V30 2111 H 207.602 5.23093 -2.3462 0
M  V30 2112 H 205.999 5.1203 -3.12962 0
M  V30 2113 H 207.069 3.70676 -3.12614 0
M  V30 2114 N 208.412 0.89855 1.29475 0
M  V30 2115 C 209.342 0.39201 2.30186 0
M  V30 2116 C 210.323 -0.532359 1.61555 0
M  V30 2117 O 211.508 -0.443331 1.89072 0
M  V30 2118 C 208.638 -0.382353 3.45189 0
M  V30 2119 C 207.592 0.451483 4.25612 0
M  V30 2120 C 206.918 -0.450307 5.328 0
M  V30 2121 C 208.218 1.70079 4.93832 0
M  V30 2122 H 209.912 1.23362 2.72804 0
M  V30 2123 H 207.458 0.594638 1.31149 0
M  V30 2124 H 209.411 -0.747451 4.14718 0
M  V30 2125 H 208.135 -1.25774 3.01411 0
M  V30 2126 H 206.794 0.798897 3.57789 0
M  V30 2127 H 206.442 -1.32379 4.85268 0
M  V30 2128 H 206.142 0.103902 5.87508 0
M  V30 2129 H 207.666 -0.811623 6.05182 0
M  V30 2130 H 209.08 1.40549 5.55805 0
M  V30 2131 H 207.477 2.19623 5.58467 0
M  V30 2132 H 208.547 2.43744 4.19186 0
M  V30 2133 N 209.89 -1.43072 0.660911 0
M  V30 2134 C 211.118 -2.06067 0.185422 0
M  V30 2135 C 211.533 -1.49582 -1.15198 0
M  V30 2136 O 210.89 -0.630134 -1.71276 0
M  V30 2137 C 210.941 -3.61371 0.0966523 0
M  V30 2138 O 210.662 -4.15758 1.38119 0
M  V30 2139 C 212.163 -4.41455 -0.403996 0
M  V30 2140 H 209.383 -0.664459 0.0934604 0
M  V30 2141 H 211.927 -1.83447 0.90373 0
M  V30 2142 H 210.082 -3.8315 -0.572259 0
M  V30 2143 H 210.496 -5.09499 1.24542 0
M  V30 2144 H 211.97 -5.50437 -0.415045 0
M  V30 2145 H 212.447 -4.15036 -1.43674 0
M  V30 2146 H 213.053 -4.24663 0.232691 0
M  V30 2147 N 211.368 -0.403325 -1.52352 0
M  V30 2148 C 212.298 0.416205 -2.29761 0
M  V30 2149 C 213.279 1.05123 -1.33728 0
M  V30 2150 O 214.464 1.06134 -1.62632 0
M  V30 2151 C 211.594 1.53624 -3.11475 0
M  V30 2152 C 210.548 1.02653 -4.15507 0
M  V30 2153 C 209.874 2.23971 -4.85532 0
M  V30 2154 C 211.174 0.08463 -5.22231 0
M  V30 2155 H 212.868 -0.229701 -2.98518 0
M  V30 2156 H 210.414 -0.111913 -1.43564 0
M  V30 2157 H 212.367 2.1165 -3.64393 0
M  V30 2158 H 211.091 2.20994 -2.40477 0
M  V30 2159 H 209.75 0.46871 -3.63591 0
M  V30 2160 H 209.398 2.89883 -4.11068 0
M  V30 2161 H 209.098 1.90521 -5.55856 0
M  V30 2162 H 210.622 2.82614 -5.41259 0
M  V30 2163 H 212.036 0.573509 -5.70424 0
M  V30 2164 H 210.433 -0.160783 -5.99885 0
M  V30 2165 H 211.503 -0.86237 -4.7717 0
M  V30 2166 N 212.846 1.57033 -0.133567 0
M  V30 2167 C 214.071 2.00475 0.531477 0
M  V30 2168 C 214.496 1.01291 1.58499 0
M  V30 2169 O 213.854 -0.0133279 1.81295 0
M  V30 2170 C 213.902 3.42729 1.12113 0
M  V30 2171 O 213.006 3.46498 2.23636 0
M  V30 2172 H 212.347 0.650876 0.131362 0
M  V30 2173 H 214.877 2.03344 -0.22634 0
M  V30 2174 H 214.887 3.81246 1.4531 0
M  V30 2175 H 213.562 4.14428 0.349557 0
M  V30 2176 H 212.139 3.19811 1.91769 0
M  V30 2177 N 214.325 -0.140222 1.56975 0
M  V30 2178 C 215.555 -0.865181 1.87612 0
M  V30 2179 C 215.963 -1.74942 0.72055 0
M  V30 2180 O 215.306 -1.80917 -0.318561 0
M  V30 2181 C 215.368 -1.76782 3.13031 0
M  V30 2182 C 215.032 -1.06005 4.44536 0
M  V30 2183 C 216.029 -0.410768 5.18275 0
M  V30 2184 C 213.714 -1.04754 4.91255 0
M  V30 2185 C 215.708 0.241572 6.36942 0
M  V30 2186 C 213.395 -0.391394 6.09845 0
M  V30 2187 C 214.393 0.252029 6.82535 0
M  V30 2188 O 214.081 0.897757 7.98871 0
M  V30 2189 H 213.813 -0.255188 0.625983 0
M  V30 2190 H 216.367 -0.135653 2.04952 0
M  V30 2191 H 214.597 -2.53846 2.91718 0
M  V30 2192 H 216.286 -2.36533 3.29859 0
M  V30 2193 H 217.052 -0.412195 4.83245 0
M  V30 2194 H 212.931 -1.53777 4.34596 0
M  V30 2195 H 216.475 0.744375 6.93617 0
M  V30 2196 H 212.372 -0.387656 6.44335 0
M  V30 2197 H 213.14 0.800102 8.1458 0
M  V30 2198 N 215.803 -1.52179 -0.40978 0
M  V30 2199 C 216.733 -1.78435 -1.5061 0
M  V30 2200 C 217.714 -0.635295 -1.57791 0
M  V30 2201 O 218.899 -0.880823 -1.73076 0
M  V30 2202 C 216.029 -1.93444 -2.88439 0
M  V30 2203 C 214.983 -3.09038 -2.96108 0
M  V30 2204 C 214.309 -3.09268 -4.36185 0
M  V30 2205 C 215.609 -4.48508 -2.67652 0
M  V30 2206 H 217.303 -2.70237 -1.28889 0
M  V30 2207 H 214.849 -1.30036 -0.618605 0
M  V30 2208 H 216.802 -2.10394 -3.65119 0
M  V30 2209 H 215.526 -0.983129 -3.11452 0
M  V30 2210 H 214.185 -2.91837 -2.21872 0
M  V30 2211 H 213.833 -2.11861 -4.56206 0
M  V30 2212 H 213.533 -3.86907 -4.42241 0
M  V30 2213 H 215.057 -3.28348 -5.14801 0
M  V30 2214 H 216.471 -4.65918 -3.34056 0
M  V30 2215 H 214.868 -5.28059 -2.85085 0
M  V30 2216 H 215.938 -4.56649 -1.63095 0
M  V30 2217 N 217.281 0.66697 -1.42791 0
M  V30 2218 C 218.529 1.42417 -1.43394 0
M  V30 2219 C 218.85 1.94925 -0.0542373 0
M  V30 2220 O 218.12 1.73564 0.908415 0
M  V30 2221 H 216.7 0.528515 -0.527902 0
M  V30 2222 H 219.362 0.787562 -1.78279 0
M  V30 2223 H 218.458 2.27333 -2.13837 0
M  V30 2224 N 218.759 1.29093 0.90403 0
M  V30 2225 C 219.722 1.1386 1.98919 0
M  V30 2226 C 220.722 0.0753457 1.60623 0
M  V30 2227 O 221.912 0.321931 1.71199 0
M  V30 2228 C 219.044 0.740198 3.32767 0
M  V30 2229 H 220.237 2.10246 2.13861 0
M  V30 2230 H 217.79 1.12218 1.08797 0
M  V30 2231 H 218.525 -0.223997 3.23525 0
M  V30 2232 H 218.31 1.50838 3.61926 0
M  V30 2233 H 219.8 0.656546 4.12407 0
M  V30 2234 N 220.237 -1.11381 1.11499 0
M  V30 2235 C 221.147 -2.21019 0.786628 0
M  V30 2236 C 222.163 -1.72597 -0.220507 0
M  V30 2237 O 223.339 -2.01321 -0.0565251 0
M  V30 2238 C 220.404 -3.459 0.235333 0
M  V30 2239 C 219.465 -4.09107 1.30115 0
M  V30 2240 C 218.698 -5.28027 0.776068 0
M  V30 2241 O 218.921 -5.6904 -0.393661 0
M  V30 2242 O 217.855 -5.81835 1.54114 0
M  V30 2243 H 221.681 -2.51521 1.70209 0
M  V30 2244 H 219.266 -1.19928 0.890928 0
M  V30 2245 H 221.148 -4.21346 -0.067715 0
M  V30 2246 H 219.823 -3.17049 -0.652828 0
M  V30 2247 H 218.73 -3.35391 1.65722 0
M  V30 2248 H 220.063 -4.42139 2.16273 0
M  V30 2249 N 221.715 -0.905404 -1.28997 0
M  V30 2250 C 223.131 -0.60233 -1.47798 0
M  V30 2251 C 223.331 0.854645 -1.82478 0
M  V30 2252 O 222.387 1.63439 -1.92468 0
M  V30 2253 C 223.7 -1.53306 -2.58685 0
M  V30 2254 C 225.248 -1.53887 -2.72558 0
M  V30 2255 C 225.723 -2.45602 -3.86579 0
M  V30 2256 N 227.214 -2.43681 -3.93921 0
M  V30 2257 C 227.949 -3.11347 -4.81509 0
M  V30 2258 N 227.445 -3.88313 -5.73746 0
M  V30 2259 N 229.238 -3.00476 -4.75048 0
M  V30 2260 H 221.389 -1.84765 -1.04764 0
M  V30 2261 H 223.652 -0.792025 -0.520961 0
M  V30 2262 H 223.358 -2.57141 -2.39941 0
M  V30 2263 H 223.232 -1.25787 -3.55609 0
M  V30 2264 H 225.619 -0.507941 -2.90696 0
M  V30 2265 H 225.7 -1.85447 -1.76191 0
M  V30 2266 H 225.344 -3.48792 -3.69197 0
M  V30 2267 H 225.274 -2.11349 -4.82327 0
M  V30 2268 H 227.765 -1.87767 -3.27951 0
M  V30 2269 H 228.078 -4.36985 -6.37389 0
M  V30 2270 H 226.423 -3.92419 -5.73614 0
M  V30 2271 H 229.614 -2.39858 -4.01977 0
M  V30 2272 H 229.787 -3.53485 -5.43095 0
M  V30 2273 N 223.193 1.4272 -0.668489 0
M  V30 2274 C 224.156 2.292 0.00448567 0
M  V30 2275 C 225.156 1.43001 0.735339 0
M  V30 2276 O 226.346 1.64461 0.57429 0
M  V30 2277 C 223.478 3.25375 1.01705 0
M  V30 2278 H 224.671 2.90199 -0.756608 0
M  V30 2279 H 222.224 1.50254 -0.430506 0
M  V30 2280 H 222.959 2.69301 1.80686 0
M  V30 2281 H 222.744 3.88944 0.496463 0
M  V30 2282 H 224.234 3.90245 1.48655 0
M  V30 2283 N 224.671 0.411399 1.52136 0
M  V30 2284 C 225.92 -0.165009 2.01024 0
M  V30 2285 C 226.233 -1.4603 1.30133 0
M  V30 2286 O 227.439 -2.1181 1.69849 0
M  V30 2287 C 225.895 -0.344618 3.58246 0
M  V30 2288 C 225.503 0.938716 4.38055 0
M  V30 2289 C 227.247 -0.876195 4.15359 0
M  V30 2290 C 225.154 0.726172 5.86925 0
M  V30 2291 H 224.084 -0.0654407 0.751155 0
M  V30 2292 H 226.735 0.537192 1.75461 0
M  V30 2293 H 225.117 -1.10921 3.80148 0
M  V30 2294 H 226.291 1.70963 4.27912 0
M  V30 2295 H 224.606 1.39688 3.92271 0
M  V30 2296 H 227.203 -1.05128 5.24263 0
M  V30 2297 H 227.546 -1.85152 3.7286 0
M  V30 2298 H 228.079 -0.170607 3.97434 0
M  V30 2299 H 224.818 1.67312 6.33788 0
M  V30 2300 H 224.338 -0.00540283 5.998 0
M  V30 2301 H 226.017 0.369231 6.45946 0
M  V30 2302 N 226.149 -1.5696 0.141893 0
M  V30 2303 C 227.56 -1.82797 -0.379776 0
M  V30 2304 C 227.911 -1.06033 -1.6508 0
M  V30 2305 O 227.036 -0.304011 -2.14254 0
M  V30 2306 C 227.631 -3.31578 -0.695802 0
M  V30 2307 C 226.19 -3.58014 -1.16201 0
M  V30 2308 C 225.337 -2.76699 -0.182455 0
M  V30 2309 H 228.288 -1.54406 0.366675 0
M  V30 2310 H 228.309 -3.47454 -1.55099 0
M  V30 2311 H 227.821 -3.87421 0.229449 0
M  V30 2312 H 225.922 -3.07553 -2.10338 0
M  V30 2313 H 226.035 -4.66501 -1.09151 0
M  V30 2314 H 224.399 -2.45618 -0.674072 0
M  V30 2315 H 225.182 -3.35311 0.736297 0
M  V30 2316 N 227.627 0.131896 -1.57047 0
M  V30 2317 C 228.575 1.18146 -2.0036 0
M  V30 2318 C 229.569 1.43614 -0.898406 0
M  V30 2319 O 230.775 1.43729 -1.08361 0
M  V30 2320 H 227.15 0.398042 -0.638018 0
M  V30 2321 H 229.121 0.789564 -2.87765 0
M  V30 2322 C 227.87 2.50341 -2.41298 0
M  V30 2323 H 227.193 2.31578 -3.25902 0
M  V30 2324 H 228.633 3.22371 -2.75414 0
M  V30 2325 C 227.092 3.11984 -1.27153 0
M  V30 2326 O 227.622 3.97484 -0.580459 0
M  V30 2327 N 225.828 2.71662 -1.03189 0
M  V30 2328 H 225.375 2.02231 -1.59564 0
M  V30 2329 H 225.333 3.13238 -0.270077 0
M  V30 2330 N 229.106 1.52395 0.401703 0
M  V30 2331 C 230.336 1.70429 1.1678 0
M  V30 2332 C 230.744 0.416702 1.84554 0
M  V30 2333 O 230.087 -0.617697 1.73003 0
M  V30 2334 C 230.149 2.78919 2.26814 0
M  V30 2335 C 229.813 4.20437 1.79113 0
M  V30 2336 C 230.81 5.04028 1.27482 0
M  V30 2337 C 228.495 4.66704 1.85722 0
M  V30 2338 C 230.489 6.31961 0.830913 0
M  V30 2339 C 228.176 5.94625 1.40942 0
M  V30 2340 C 229.174 6.77082 0.897128 0
M  V30 2341 O 228.862 8.02607 0.455822 0
M  V30 2342 H 228.594 0.574272 0.356634 0
M  V30 2343 H 231.148 1.99767 0.477724 0
M  V30 2344 H 229.378 2.44973 2.99207 0
M  V30 2345 H 231.067 2.8548 2.88541 0
M  V30 2346 H 231.833 4.69471 1.21744 0
M  V30 2347 H 227.712 4.0262 2.24539 0
M  V30 2348 H 231.256 6.96271 0.430368 0
M  V30 2349 H 227.153 6.28688 1.46362 0
M  V30 2350 H 227.921 8.16453 0.578457 0
M  V30 2351 N 230.584 -0.659388 1.43143 0
M  V30 2352 C 231.532 -1.79374 1.4808 0
M  V30 2353 C 232.526 -1.65639 0.354988 0
M  V30 2354 O 233.732 -1.7206 0.528704 0
M  V30 2355 H 230.107 -0.591705 0.4641 0
M  V30 2356 H 232.078 -1.72329 2.43609 0
M  V30 2357 C 230.827 -3.17606 1.41499 0
M  V30 2358 H 230.15 -3.28809 2.27431 0
M  V30 2359 H 231.59 -3.96951 1.49015 0
M  V30 2360 C 230.049 -3.36642 0.131765 0
M  V30 2361 O 230.579 -3.93461 -0.809386 0
M  V30 2362 N 228.785 -2.90567 0.0439396 0
M  V30 2363 H 228.332 -2.44513 0.810619 0
M  V30 2364 H 228.29 -3.03681 -0.813969 0
M  V30 2365 N 232.062 -1.29571 -0.897171 0
M  V30 2366 C 233.308 -1.17863 -1.65034 0
M  V30 2367 C 233.641 0.268729 -1.92332 0
M  V30 2368 O 232.916 1.19378 -1.53555 0
M  V30 2369 C 233.199 -1.995 -2.99786 0
M  V30 2370 C 233.052 -3.5239 -2.79538 0
M  V30 2371 C 234.371 -1.82335 -4.00552 0
M  V30 2372 H 231.49 -0.429528 -0.598895 0
M  V30 2373 H 234.132 -1.59072 -1.03905 0
M  V30 2374 H 232.282 -1.64485 -3.51962 0
M  V30 2375 H 233.954 -3.97401 -2.34244 0
M  V30 2376 H 232.197 -3.77187 -2.14273 0
M  V30 2377 H 232.868 -4.04787 -3.75302 0
M  V30 2378 H 235.344 -2.12924 -3.57495 0
M  V30 2379 H 234.22 -2.41801 -4.92771 0
M  V30 2380 H 234.481 -0.779209 -4.35179 0
M  V30 2381 N 233.54 1.10788 -1.12088 0
M  V30 2382 C 234.473 2.16237 -0.729168 0
M  V30 2383 C 235.451 1.60207 0.277921 0
M  V30 2384 O 236.635 1.87707 0.172737 0
M  V30 2385 C 233.762 3.38609 -0.0786848 0
M  V30 2386 C 232.808 4.13322 -1.05201 0
M  V30 2387 S 233.641 4.69371 -2.57781 0
M  V30 2388 C 234.797 5.95058 -1.94053 0
M  V30 2389 H 235.03 2.4913 -1.62239 0
M  V30 2390 H 232.563 1.22519 -0.939603 0
M  V30 2391 H 234.521 4.09473 0.290254 0
M  V30 2392 H 233.182 3.03962 0.791593 0
M  V30 2393 H 232.375 5.01051 -0.544433 0
M  V30 2394 H 231.977 3.48251 -1.36371 0
M  V30 2395 H 234.269 6.65278 -1.28107 0
M  V30 2396 H 235.212 6.50472 -2.79807 0
M  V30 2397 H 235.62 5.46918 -1.39787 0
M  V30 2398 N 235.018 0.912232 1.28515 0
M  V30 2399 C 236.266 0.543523 1.94654 0
M  V30 2400 C 236.587 -0.9155 1.72173 0
M  V30 2401 O 235.857 -1.64708 1.06058 0
M  V30 2402 H 234.437 0.198017 0.720277 0
M  V30 2403 H 237.099 1.16126 1.56527 0
M  V30 2404 H 236.195 0.736684 3.03281 0
M  V30 2405 N 236.496 -1.42363 0.676048 0
M  V30 2406 C 237.426 -2.33497 0.0124832 0
M  V30 2407 C 238.407 -1.50748 -0.787981 0
M  V30 2408 O 239.592 -1.79346 -0.744884 0
M  V30 2409 C 236.722 -3.34377 -0.938582 0
M  V30 2410 C 235.676 -4.27289 -0.246622 0
M  V30 2411 C 235.002 -5.18386 -1.31071 0
M  V30 2412 C 236.302 -5.14916 0.875125 0
M  V30 2413 H 237.996 -2.89233 0.773593 0
M  V30 2414 H 235.542 -1.39073 0.37346 0
M  V30 2415 H 237.495 -3.97044 -1.41188 0
M  V30 2416 H 236.219 -2.76947 -1.73113 0
M  V30 2417 H 234.878 -3.66018 0.206456 0
M  V30 2418 H 234.526 -4.57282 -2.09528 0
M  V30 2419 H 234.226 -5.81378 -0.852839 0
M  V30 2420 H 235.75 -5.83929 -1.78492 0
M  V30 2421 H 237.164 -5.71262 0.482983 0
M  V30 2422 H 235.561 -5.86747 1.25887 0
M  V30 2423 H 236.631 -4.53242 1.72335 0
M  V30 2424 N 237.974 -0.419461 -1.51915 0
M  V30 2425 C 238.937 0.389116 -2.25873 0
M  V30 2426 C 239.937 0.964924 -1.28631 0
M  V30 2427 O 241.127 0.842179 -1.52489 0
M  V30 2428 C 238.259 1.54874 -3.03689 0
M  V30 2429 H 239.452 -0.258799 -2.98781 0
M  V30 2430 H 237.005 -0.172209 -1.55348 0
M  V30 2431 H 237.74 2.23323 -2.35154 0
M  V30 2432 H 237.525 1.14223 -3.75094 0
M  V30 2433 H 239.015 2.12046 -3.59759 0
M  V30 2434 N 239.452 1.56882 -0.150215 0
M  V30 2435 C 240.399 2.16922 0.788244 0
M  V30 2436 C 241.369 1.10303 1.24187 0
M  V30 2437 O 242.554 1.38359 1.31383 0
M  V30 2438 C 239.694 2.79754 2.02068 0
M  V30 2439 C 238.807 4.00775 1.61257 0
M  V30 2440 C 237.942 4.51595 2.79705 0
M  V30 2441 C 236.981 5.65074 2.35282 0
M  V30 2442 N 236.118 6.10499 3.4675 0
M  V30 2443 H 240.958 2.96779 0.269444 0
M  V30 2444 H 238.495 1.46599 0.12128 0
M  V30 2445 H 240.453 3.14329 2.74323 0
M  V30 2446 H 239.083 2.02536 2.51354 0
M  V30 2447 H 238.135 3.72158 0.787553 0
M  V30 2448 H 239.447 4.82978 1.24633 0
M  V30 2449 H 238.601 4.88242 3.60145 0
M  V30 2450 H 237.34 3.68406 3.19576 0
M  V30 2451 H 236.345 5.28 1.53283 0
M  V30 2452 H 237.57 6.50052 1.96493 0
M  V30 2453 H 235.516 5.30243 3.86236 0
M  V30 2454 H 235.433 6.87637 3.14152 0
M  V30 2455 H 236.701 6.51791 4.27537 0
M  V30 2456 N 240.93 -0.123565 1.57115 0
M  V30 2457 C 241.893 -1.13583 1.99076 0
M  V30 2458 C 242.893 -1.34564 0.880296 0
M  V30 2459 O 244.083 -1.31158 1.14644 0
M  V30 2460 C 241.215 -2.49128 2.32698 0
M  V30 2461 H 242.408 -0.775287 2.89706 0
M  V30 2462 H 239.961 -0.36771 1.51913 0
M  V30 2463 H 240.696 -2.90111 1.44934 0
M  V30 2464 H 240.481 -2.35255 3.13684 0
M  V30 2465 H 241.971 -3.2199 2.65918 0
M  V30 2466 N 242.408 -1.52605 -0.393616 0
M  V30 2467 C 243.633 -1.71592 -1.16495 0
M  V30 2468 C 244.058 -0.43133 -1.83088 0
M  V30 2469 O 243.416 0.612523 -1.7064 0
M  V30 2470 C 243.464 -2.86318 -2.19213 0
M  V30 2471 O 242.568 -2.52969 -3.257 0
M  V30 2472 H 241.909 -0.570734 -0.33935 0
M  V30 2473 H 244.439 -1.99377 -0.459324 0
M  V30 2474 H 244.449 -3.1168 -2.63286 0
M  V30 2475 H 243.124 -3.79511 -1.7013 0
M  V30 2476 H 241.701 -2.38332 -2.86797 0
M  V30 2477 N 243.887 0.651787 -1.4349 0
M  V30 2478 C 244.817 1.77621 -1.51569 0
M  V30 2479 C 245.798 1.66022 -0.370253 0
M  V30 2480 O 246.983 1.85095 -0.587658 0
M  V30 2481 C 244.113 3.16056 -1.43966 0
M  V30 2482 C 243.067 3.4242 -2.56774 0
M  V30 2483 C 242.393 4.8067 -2.34223 0
M  V30 2484 C 243.693 3.37023 -3.99015 0
M  V30 2485 H 245.387 1.71117 -2.45681 0
M  V30 2486 H 242.933 0.821825 -1.18246 0
M  V30 2487 H 244.886 3.94472 -1.48221 0
M  V30 2488 H 243.61 3.23293 -0.463586 0
M  V30 2489 H 242.269 2.66375 -2.51873 0
M  V30 2490 H 241.917 4.84585 -1.34856 0
M  V30 2491 H 241.617 4.9927 -3.09844 0
M  V30 2492 H 243.141 5.61342 -2.40265 0
M  V30 2493 H 244.555 4.05374 -4.05395 0
M  V30 2494 H 242.952 3.67159 -4.74673 0
M  V30 2495 H 244.022 2.3518 -4.2405 0
M  V30 2496 N 245.365 1.30045 0.890287 0
M  V30 2497 C 246.275 1.17885 2.02831 0
M  V30 2498 C 247.291 0.0999609 1.73713 0
M  V30 2499 O 248.467 0.313867 1.98939 0
M  V30 2500 C 245.532 0.866079 3.35708 0
M  V30 2501 C 244.593 2.02979 3.78283 0
M  V30 2502 C 243.826 1.73184 5.0482 0
M  V30 2503 O 244.049 0.657237 5.66601 0
M  V30 2504 O 242.983 2.58267 5.43674 0
M  V30 2505 H 246.809 2.13474 2.16015 0
M  V30 2506 H 244.394 1.09587 1.01543 0
M  V30 2507 H 246.276 0.706623 4.15433 0
M  V30 2508 H 244.951 -0.0599443 3.23644 0
M  V30 2509 H 243.858 2.24454 2.99285 0
M  V30 2510 H 245.191 2.93734 3.94944 0
M  V30 2511 N 246.843 -1.10192 1.12674 0
M  V30 2512 C 247.806 -2.14786 0.799979 0
M  V30 2513 C 248.806 -1.59711 -0.18685 0
M  V30 2514 O 249.996 -1.74156 0.0392558 0
M  V30 2515 C 247.128 -3.40374 0.189228 0
M  V30 2516 H 248.321 -2.45203 1.72671 0
M  V30 2517 H 245.874 -1.25597 0.930326 0
M  V30 2518 H 246.609 -3.15577 -0.747107 0
M  V30 2519 H 246.394 -3.81637 0.899766 0
M  V30 2520 H 247.884 -4.17594 -0.0228143 0
M  V30 2521 N 248.321 -0.919034 -1.28029 0
M  V30 2522 C 249.269 -0.401753 -2.29104 0
M  V30 2523 C 250.263 0.509354 -1.61561 0
M  V30 2524 O 251.469 0.390014 -1.75724 0
M  V30 2525 H 247.844 -0.111331 -0.743713 0
M  V30 2526 H 249.815 -1.2672 -2.70156 0
M  V30 2527 C 248.564 0.338148 -3.46052 0
M  V30 2528 H 247.887 -0.353732 -3.98232 0
M  V30 2529 H 249.327 0.664653 -4.18758 0
M  V30 2530 C 247.786 1.54798 -2.99231 0
M  V30 2531 O 248.316 2.64696 -3.02157 0
M  V30 2532 N 246.522 1.3968 -2.54829 0
M  V30 2533 H 246.069 0.502698 -2.52647 0
M  V30 2534 H 246.027 2.20755 -2.23863 0
M  V30 2535 N 249.799 1.42003 -0.683588 0
M  V30 2536 C 251.045 2.01712 -0.209825 0
M  V30 2537 C 251.378 1.53968 1.18353 0
M  V30 2538 O 250.653 0.745661 1.79639 0
M  V30 2539 C 250.936 3.59202 -0.254197 0
M  V30 2540 C 250.789 4.17102 -1.68363 0
M  V30 2541 C 252.108 4.38344 0.392709 0
M  V30 2542 H 249.227 0.732891 -0.0777189 0
M  V30 2543 H 251.869 1.68909 -0.87004 0
M  V30 2544 H 250.019 3.87278 0.307954 0
M  V30 2545 H 251.691 3.99946 -2.29871 0
M  V30 2546 H 249.934 3.72597 -2.22157 0
M  V30 2547 H 250.605 5.26249 -1.6663 0
M  V30 2548 H 253.081 4.16011 -0.0859162 0
M  V30 2549 H 251.957 5.47901 0.331063 0
M  V30 2550 H 252.218 4.16887 1.47164 0
M  V30 2551 N 251.277 0.427512 1.51691 0
M  V30 2552 C 252.693 0.0792977 1.59403 0
M  V30 2553 C 252.893 -1.41035 1.43914 0
M  V30 2554 O 251.949 -2.17922 1.27539 0
M  V30 2555 C 253.262 0.590636 2.94842 0
M  V30 2556 C 254.81 0.550215 3.08126 0
M  V30 2557 C 255.285 1.03836 4.46074 0
M  V30 2558 N 256.776 0.995943 4.52366 0
M  V30 2559 C 257.511 1.34463 5.57411 0
M  V30 2560 N 257.007 1.76569 6.69922 0
M  V30 2561 N 258.8 1.26343 5.47717 0
M  V30 2562 H 250.951 1.39687 1.60004 0
M  V30 2563 H 253.214 0.575003 0.753708 0
M  V30 2564 H 252.92 1.63251 3.11516 0
M  V30 2565 H 252.794 0.0102061 3.77199 0
M  V30 2566 H 255.181 -0.482654 2.91126 0
M  V30 2567 H 255.262 1.16693 2.27632 0
M  V30 2568 H 254.906 2.06965 4.63819 0
M  V30 2569 H 254.836 0.398286 5.25092 0
M  V30 2570 H 257.327 0.68661 3.7161 0
M  V30 2571 H 257.64 2.01438 7.46085 0
M  V30 2572 H 255.985 1.80488 6.71155 0
M  V30 2573 H 259.176 0.933209 4.58703 0
M  V30 2574 H 259.349 1.53846 6.29472 0
M  V30 2575 N 252.755 -1.56801 0.158532 0
M  V30 2576 C 253.985 -2.00568 -0.495583 0
M  V30 2577 C 254.393 -1.03774 -1.58201 0
M  V30 2578 O 253.736 -0.0285797 -1.83678 0
M  V30 2579 C 253.798 -3.40768 -1.14532 0
M  V30 2580 C 253.462 -4.56553 -0.202101 0
M  V30 2581 C 254.459 -5.16714 0.574675 0
M  V30 2582 C 252.144 -5.02197 -0.101648 0
M  V30 2583 C 254.138 -6.20939 1.43924 0
M  V30 2584 C 251.825 -6.06274 0.766508 0
M  V30 2585 C 252.823 -6.65515 1.53555 0
M  V30 2586 O 252.511 -7.67575 2.38922 0
M  V30 2587 H 252.243 -0.662893 -0.13247 0
M  V30 2588 H 254.797 -2.03829 0.253559 0
M  V30 2589 H 253.027 -3.34381 -1.94233 0
M  V30 2590 H 254.716 -3.6857 -1.70033 0
M  V30 2591 H 255.482 -4.82341 0.507167 0
M  V30 2592 H 251.361 -4.55807 -0.689994 0
M  V30 2593 H 254.905 -6.67107 2.03996 0
M  V30 2594 H 250.802 -6.40073 0.835266 0
M  V30 2595 H 251.57 -7.84844 2.32296 0
M  V30 2596 N 254.233 0.115231 -1.57178 0
M  V30 2597 C 255.166 1.17166 -1.95825 0
M  V30 2598 C 256.144 1.39912 -0.828463 0
M  V30 2599 O 257.328 1.54004 -1.08697 0
M  V30 2600 C 254.455 2.52478 -2.25771 0
M  V30 2601 C 253.501 2.46136 -3.48309 0
M  V30 2602 S 254.334 1.89736 -5.0076 0
M  V30 2603 C 255.49 3.26713 -5.33863 0
M  V30 2604 H 255.723 0.842103 -2.85124 0
M  V30 2605 H 253.256 0.322136 -1.51002 0
M  V30 2606 H 255.214 3.30332 -2.43702 0
M  V30 2607 H 253.875 2.82609 -1.37079 0
M  V30 2608 H 253.068 3.45819 -3.66641 0
M  V30 2609 H 252.67 1.76404 -3.29784 0
M  V30 2610 H 254.962 4.22935 -5.29275 0
M  V30 2611 H 255.905 3.13205 -6.35065 0
M  V30 2612 H 256.313 3.25316 -4.61335 0
M  V30 2613 N 255.711 1.52812 0.385517 0
M  V30 2614 C 256.674 1.77188 1.45386 0
M  V30 2615 C 257.674 0.641953 1.4743 0
M  V30 2616 O 258.864 0.910033 1.4854 0
M  V30 2617 C 255.996 1.87582 2.8465 0
M  V30 2618 H 257.189 2.72583 1.25054 0
M  V30 2619 H 254.742 1.43586 0.617467 0
M  V30 2620 H 255.477 0.941849 3.10322 0
M  V30 2621 H 255.262 2.69748 2.84567 0
M  V30 2622 H 256.752 2.08102 3.62054 0
M  V30 2623 N 257.189 -0.644168 1.43834 0
M  V30 2624 C 258.137 -1.77793 1.49974 0
M  V30 2625 C 259.131 -1.65253 0.372536 0
M  V30 2626 O 260.337 -1.7149 0.546924 0
M  V30 2627 H 256.712 -0.58675 0.47035 0
M  V30 2628 H 258.683 -1.69736 2.45423 0
M  V30 2629 C 257.432 -3.16087 1.4486 0
M  V30 2630 H 256.755 -3.26378 2.30905 0
M  V30 2631 H 258.195 -3.95349 1.53217 0
M  V30 2632 C 256.654 -3.36484 0.167463 0
M  V30 2633 O 257.184 -3.94298 -0.767609 0
M  V30 2634 N 255.39 -2.90504 0.0747556 0
M  V30 2635 H 254.937 -2.4364 0.836507 0
M  V30 2636 H 254.895 -3.04527 -0.781714 0
M  V30 2637 N 258.668 -1.30515 -0.883378 0
M  V30 2638 C 259.631 -1.1701 -1.97082 0
M  V30 2639 C 260.631 -0.10089 -1.60483 0
M  V30 2640 O 261.821 -0.349127 -1.70666 0
M  V30 2641 C 258.953 -0.793045 -3.31547 0
M  V30 2642 H 260.146 -2.13622 -2.10489 0
M  V30 2643 H 257.699 -1.13935 -1.06998 0
M  V30 2644 H 258.434 0.172499 -3.23841 0
M  V30 2645 H 258.219 -1.56576 -3.5948 0
M  V30 2646 H 259.709 -0.722073 -4.1131 0
M  V30 2647 N 260.146 1.09593 -1.13257 0
M  V30 2648 C 261.079 2.15451 -0.752061 0
M  V30 2649 C 262.057 1.60493 0.260913 0
M  V30 2650 O 263.241 1.8788 0.152819 0
M  V30 2651 C 260.368 3.38506 -0.114594 0
M  V30 2652 C 259.414 4.12183 -1.09579 0
M  V30 2653 S 260.247 4.6661 -2.62745 0
M  V30 2654 C 261.403 5.92966 -2.00354 0
M  V30 2655 H 261.636 2.47395 -1.64872 0
M  V30 2656 H 259.169 1.21515 -0.952545 0
M  V30 2657 H 261.127 4.09757 0.246808 0
M  V30 2658 H 259.788 3.04784 0.759309 0
M  V30 2659 H 258.981 5.00445 -0.597545 0
M  V30 2660 H 258.583 3.46785 -1.40057 0
M  V30 2661 H 260.875 6.63882 -1.35156 0
M  V30 2662 H 261.818 6.47467 -2.86691 0
M  V30 2663 H 262.226 5.45405 -1.4558 0
M  V30 2664 N 261.624 0.925811 1.2754 0
M  V30 2665 C 262.872 0.564138 1.94067 0
M  V30 2666 C 263.193 -0.897188 1.73134 0
M  V30 2667 O 262.463 -1.63573 1.07799 0
M  V30 2668 H 261.043 0.205645 0.718136 0
M  V30 2669 H 263.705 1.1778 1.55287 0
M  V30 2670 H 262.801 0.76881 3.02483 0
M  V30 2671 N 263.102 -1.41638 0.69111 0
M  V30 2672 C 264.513 -1.84346 0.295517 0
M  V30 2673 C 264.864 -1.57833 -1.16547 0
M  V30 2674 O 263.989 -1.04648 -1.89414 0
M  V30 2675 C 264.584 -3.34636 0.529575 0
M  V30 2676 C 263.143 -3.7593 0.187944 0
M  V30 2677 C 262.29 -2.65082 0.814052 0
M  V30 2678 H 265.241 -1.31253 0.892092 0
M  V30 2679 H 265.262 -3.79903 -0.213148 0
M  V30 2680 H 264.774 -3.53901 1.59297 0
M  V30 2681 H 262.875 -3.62268 -0.871367 0
M  V30 2682 H 262.988 -4.74808 0.63985 0
M  V30 2683 H 261.352 -2.53528 0.244017 0
M  V30 2684 H 262.135 -2.87167 1.88123 0
M  V30 2685 N 264.58 -0.43555 -1.51462 0
M  V30 2686 C 265.49 0.383001 -2.31453 0
M  V30 2687 C 266.506 1.02931 -1.4029 0
M  V30 2688 O 267.682 1.02507 -1.73362 0
M  V30 2689 C 264.747 1.47043 -3.13973 0
M  V30 2690 C 263.808 0.844433 -4.20913 0
M  V30 2691 C 263.041 1.88004 -4.9949 0
M  V30 2692 O 263.264 3.10199 -4.78678 0
M  V30 2693 O 262.198 1.47157 -5.83634 0
M  V30 2694 H 266.024 -0.269964 -3.02498 0
M  V30 2695 H 263.609 -0.19813 -1.4808 0
M  V30 2696 H 265.491 2.10113 -3.65281 0
M  V30 2697 H 264.166 2.10751 -2.45695 0
M  V30 2698 H 263.073 0.175729 -3.73687 0
M  V30 2699 H 264.406 0.250869 -4.9156 0
M  V30 2700 N 266.058 1.56714 -0.166846 0
M  V30 2701 C 267.306 1.96358 0.478305 0
M  V30 2702 C 267.627 1.0537 1.6408 0
M  V30 2703 O 266.897 0.119154 1.95537 0
M  V30 2704 H 265.477 0.725065 0.179692 0
M  V30 2705 H 268.139 1.93329 -0.246985 0
M  V30 2706 H 267.235 3.00547 0.841292 0
M  V30 2707 N 267.536 -0.106894 1.57237 0
M  V30 2708 C 268.782 -0.81373 1.85759 0
M  V30 2709 C 269.115 -1.78952 0.754315 0
M  V30 2710 O 268.39 -1.93029 -0.23879 0
M  V30 2711 C 268.673 -1.55293 3.24894 0
M  V30 2712 C 268.526 -0.595929 4.45835 0
M  V30 2713 C 269.845 -2.5063 3.61763 0
M  V30 2714 H 266.964 -0.294369 0.67566 0
M  V30 2715 H 269.606 -0.0776472 1.89841 0
M  V30 2716 H 267.756 -2.1804 3.21544 0
M  V30 2717 H 269.428 0.0236262 4.61294 0
M  V30 2718 H 267.671 0.0916191 4.33703 0
M  V30 2719 H 268.342 -1.15004 5.39887 0
M  V30 2720 H 270.818 -1.97982 3.65981 0
M  V30 2721 H 269.694 -2.99376 4.60071 0
M  V30 2722 H 269.955 -3.3385 2.89821 0
M  V30 2723 N 269.014 -1.53014 -0.377408 0
M  V30 2724 C 270.43 -1.42523 -0.718281 0
M  V30 2725 C 270.63 -0.55487 -1.9371 0
M  V30 2726 O 269.686 -0.0327593 -2.52479 0
M  V30 2727 C 270.999 -2.85546 -0.942539 0
M  V30 2728 C 272.547 -2.95101 -1.04329 0
M  V30 2729 C 273.022 -4.3916 -1.3001 0
M  V30 2730 N 274.513 -4.42536 -1.36806 0
M  V30 2731 C 275.248 -5.51097 -1.58364 0
M  V30 2732 N 274.744 -6.69724 -1.77317 0
M  V30 2733 N 276.537 -5.38657 -1.60638 0
M  V30 2734 H 268.688 -2.08116 0.424426 0
M  V30 2735 H 270.951 -0.939352 0.127759 0
M  V30 2736 H 270.657 -3.51499 -0.118929 0
M  V30 2737 H 270.531 -3.28493 -1.85397 0
M  V30 2738 H 272.918 -2.29309 -1.85745 0
M  V30 2739 H 272.999 -2.55566 -0.109505 0
M  V30 2740 H 272.643 -5.05521 -0.490991 0
M  V30 2741 H 272.573 -4.76258 -2.24691 0
M  V30 2742 H 275.064 -3.57039 -1.23821 0
M  V30 2743 H 275.377 -7.48233 -1.93306 0
M  V30 2744 H 273.722 -6.72732 -1.74518 0
M  V30 2745 H 276.913 -4.44948 -1.45391 0
M  V30 2746 H 277.086 -6.2333 -1.77098 0
M  V30 2747 N 270.492 0.636531 -1.44174 0
M  V30 2748 C 271.738 1.39826 -1.4689 0
M  V30 2749 C 272.071 1.93947 -0.0990585 0
M  V30 2750 O 271.346 1.73325 0.882544 0
M  V30 2751 C 271.629 2.56751 -2.5249 0
M  V30 2752 C 271.482 2.08014 -3.98811 0
M  V30 2753 C 272.801 3.58946 -2.54649 0
M  V30 2754 H 269.92 0.507075 -0.53483 0
M  V30 2755 H 272.562 0.720188 -1.75822 0
M  V30 2756 H 270.712 3.14597 -2.2795 0
M  V30 2757 H 272.384 1.5504 -4.34466 0
M  V30 2758 H 270.627 1.39242 -4.10846 0
M  V30 2759 H 271.298 2.92169 -4.68339 0
M  V30 2760 H 273.774 3.1089 -2.76563 0
M  V30 2761 H 272.65 4.38286 -3.3045 0
M  V30 2762 H 272.911 4.12655 -1.58646 0
M  V30 2763 N 271.97 1.30982 0.876444 0
M  V30 2764 C 272.918 1.18006 2.00443 0
M  V30 2765 C 273.912 0.0898871 1.69161 0
M  V30 2766 O 275.118 0.251333 1.78237 0
M  V30 2767 H 271.493 0.365196 0.65737 0
M  V30 2768 H 273.464 2.13453 2.0852 0
M  V30 2769 C 272.213 0.897521 3.35916 0
M  V30 2770 H 271.536 1.7285 3.60504 0
M  V30 2771 H 272.976 0.846874 4.15456 0
M  V30 2772 C 271.435 -0.399674 3.34521 0
M  V30 2773 O 271.965 -1.41852 3.7582 0
M  V30 2774 N 270.171 -0.413893 2.87637 0
M  V30 2775 H 269.718 0.41571 2.54224 0
M  V30 2776 H 269.676 -1.28175 2.87086 0
M  V30 2777 N 273.449 -1.08991 1.13837 0
M  V30 2778 C 274.412 -2.13925 0.822715 0
M  V30 2779 C 275.412 -1.599 -0.1699 0
M  V30 2780 O 276.602 -1.74104 0.0577251 0
M  V30 2781 C 273.734 -3.40155 0.225318 0
M  V30 2782 H 274.927 -2.43358 1.75262 0
M  V30 2783 H 272.48 -1.24603 0.943594 0
M  V30 2784 H 273.215 -3.16352 -0.713594 0
M  V30 2785 H 273 -3.80661 0.940193 0
M  V30 2786 H 274.49 -4.17594 0.0214784 0
M  V30 2787 N 274.927 -0.932562 -1.27047 0
M  V30 2788 C 276.176 -0.571351 -1.93439 0
M  V30 2789 C 276.489 0.892467 -1.74053 0
M  V30 2790 O 277.695 1.36267 -2.34826 0
M  V30 2791 C 276.151 -0.97106 -3.46552 0
M  V30 2792 C 275.759 -2.4559 -3.74686 0
M  V30 2793 C 277.503 -0.681333 -4.18997 0
M  V30 2794 C 275.41 -2.79475 -5.21198 0
M  V30 2795 H 274.34 -0.209966 -0.724176 0
M  V30 2796 H 276.991 -1.13403 -1.44263 0
M  V30 2797 H 275.373 -0.336983 -3.94564 0
M  V30 2798 H 276.547 -3.13829 -3.37414 0
M  V30 2799 H 274.862 -2.71802 -3.15456 0
M  V30 2800 H 277.459 -0.910939 -5.26883 0
M  V30 2801 H 277.802 0.381628 -4.14547 0
M  V30 2802 H 278.335 -1.27473 -3.76823 0
M  V30 2803 H 275.074 -3.847 -5.30741 0
M  V30 2804 H 274.594 -2.1589 -5.596 0
M  V30 2805 H 276.273 -2.67478 -5.89122 0
M  V30 2806 N 276.405 1.4127 -0.698611 0
M  V30 2807 C 277.63 2.06024 -0.238512 0
M  V30 2808 C 278.055 1.5224 1.10475 0
M  V30 2809 O 277.413 0.650623 1.69223 0
M  V30 2810 C 277.461 3.59988 -0.209952 0
M  V30 2811 O 276.565 4.04282 0.814235 0
M  V30 2812 H 275.906 0.653829 -0.115775 0
M  V30 2813 H 278.436 1.8098 -0.954326 0
M  V30 2814 H 278.446 4.07979 -0.0418436 0
M  V30 2815 H 277.121 3.98503 -1.1903 0
M  V30 2816 H 275.698 3.6779 0.615234 0
M  V30 2817 N 277.883 0.443576 1.51229 0
M  V30 2818 C 278.846 -0.353132 2.26463 0
M  V30 2819 C 279.846 -0.944338 1.3015 0
M  V30 2820 O 281.036 -0.817813 1.5381 0
M  V30 2821 C 278.168 -1.50023 3.06114 0
M  V30 2822 H 279.361 0.3063 2.98332 0
M  V30 2823 H 276.914 0.196902 1.55055 0
M  V30 2824 H 277.649 -2.19553 2.38677 0
M  V30 2825 H 277.434 -1.08241 3.76864 0
M  V30 2826 H 278.924 -2.06296 3.63087 0
M  V30 2827 N 279.361 -1.56624 0.175154 0
M  V30 2828 C 280.609 -1.96609 -0.467885 0
M  V30 2829 C 280.93 -1.06238 -1.63519 0
M  V30 2830 O 280.2 -0.129523 -1.95471 0
M  V30 2831 H 278.78 -0.726008 -0.175845 0
M  V30 2832 H 281.442 -1.93195 0.257234 0
M  V30 2833 H 280.538 -3.00989 -0.825342 0
M  V30 2834 N 280.839 0.0985539 -1.57292 0
M  V30 2835 C 282.25 0.653457 -1.74891 0
M  V30 2836 C 282.601 1.7929 -0.796838 0
M  V30 2837 O 281.726 2.16385 0.0254886 0
M  V30 2838 C 282.321 1.19216 -3.17133 0
M  V30 2839 C 280.88 1.69316 -3.36168 0
M  V30 2840 C 280.027 0.601294 -2.70702 0
M  V30 2841 H 282.978 -0.127497 -1.58187 0
M  V30 2842 H 282.999 2.06154 -3.19814 0
M  V30 2843 H 282.511 0.362635 -3.86402 0
M  V30 2844 H 280.612 2.5468 -2.71972 0
M  V30 2845 H 280.725 1.78853 -4.44464 0
M  V30 2846 H 279.089 1.0399 -2.32504 0
M  V30 2847 H 279.872 -0.217592 -3.4261 0
M  V30 2848 N 282.317 1.53212 0.369288 0
M  V30 2849 C 283.566 1.68436 1.10961 0
M  V30 2850 C 283.879 0.440738 1.9057 0
M  V30 2851 O 285.085 0.473446 2.6734 0
M  V30 2852 C 283.541 2.97744 2.0218 0
M  V30 2853 C 283.149 4.29355 1.279 0
M  V30 2854 C 284.893 3.22334 2.76226 0
M  V30 2855 C 282.8 5.49755 2.17999 0
M  V30 2856 H 281.73 0.627568 0.41794 0
M  V30 2857 H 284.381 1.79713 0.370884 0
M  V30 2858 H 282.763 2.8026 2.79768 0
M  V30 2859 H 283.937 4.57458 0.554007 0
M  V30 2860 H 282.252 4.11179 0.657311 0
M  V30 2861 H 284.849 4.09471 3.43857 0
M  V30 2862 H 285.192 2.38238 3.41392 0
M  V30 2863 H 285.725 3.40475 2.05723 0
M  V30 2864 H 282.464 6.36318 1.57417 0
M  V30 2865 H 281.984 5.25937 2.88359 0
M  V30 2866 H 283.663 5.84401 2.77641 0
M  V30 2867 N 283.795 -0.628877 1.44509 0
M  V30 2868 C 285.211 -0.947305 1.28446 0
M  V30 2869 C 285.411 -2.00275 0.221872 0
M  V30 2870 O 284.467 -2.49447 -0.391471 0
M  V30 2871 C 285.78 -1.40843 2.65676 0
M  V30 2872 C 287.328 -1.52379 2.73404 0
M  V30 2873 C 287.803 -2.01875 4.11109 0
M  V30 2874 N 289.294 -2.09142 4.13296 0
M  V30 2875 C 290.029 -2.48615 5.16699 0
M  V30 2876 N 289.525 -2.87209 6.30462 0
M  V30 2877 N 291.318 -2.48768 5.04054 0
M  V30 2878 H 283.469 0.0690977 2.12288 0
M  V30 2879 H 285.732 -0.0317164 0.947469 0
M  V30 2880 H 285.438 -0.707206 3.44516 0
M  V30 2881 H 285.312 -2.37902 2.92716 0
M  V30 2882 H 287.699 -2.21598 1.9488 0
M  V30 2883 H 287.78 -0.536898 2.50102 0
M  V30 2884 H 287.424 -1.3325 4.90109 0
M  V30 2885 H 287.354 -3.0144 4.31789 0
M  V30 2886 H 289.845 -1.81991 3.31191 0
M  V30 2887 H 290.158 -3.16149 7.05174 0
M  V30 2888 H 288.503 -2.84955 6.33897 0
M  V30 2889 H 291.694 -2.18009 4.14234 0
M  V30 2890 H 291.867 -2.79207 5.84763 0
M  V30 2891 N 285.273 -1.31445 -0.869486 0
M  V30 2892 C 286.501 -1.24122 -1.65534 0
M  V30 2893 C 286.916 0.193387 -1.87807 0
M  V30 2894 O 286.273 1.12557 -1.43656 0
M  V30 2895 C 286.324 -1.98229 -3.02304 0
M  V30 2896 O 286.045 -3.3609 -2.81026 0
M  V30 2897 C 287.546 -1.97751 -3.96749 0
M  V30 2898 H 284.766 -0.428868 -0.516055 0
M  V30 2899 H 287.31 -1.73328 -1.08525 0
M  V30 2900 H 285.465 -1.52782 -3.56001 0
M  V30 2901 H 285.879 -3.7383 -3.67902 0
M  V30 2902 H 287.353 -2.54114 -4.90031 0
M  V30 2903 H 287.83 -0.960137 -4.28577 0
M  V30 2904 H 288.436 -2.43079 -3.48988 0
M  V30 2905 N 286.751 1.08385 -1.14413 0
M  V30 2906 C 287.681 2.17321 -0.854044 0
M  V30 2907 C 288.662 1.69024 0.191049 0
M  V30 2908 O 289.847 1.94141 0.0476779 0
M  V30 2909 C 286.977 3.45719 -0.330983 0
M  V30 2910 C 285.931 4.07409 -1.31155 0
M  V30 2911 C 285.257 5.30762 -0.64778 0
M  V30 2912 C 286.557 4.48665 -2.67388 0
M  V30 2913 H 288.251 2.41845 -1.76498 0
M  V30 2914 H 285.797 1.16233 -0.850051 0
M  V30 2915 H 287.75 4.21241 -0.115645 0
M  V30 2916 H 286.474 3.2075 0.615381 0
M  V30 2917 H 285.133 3.33919 -1.51306 0
M  V30 2918 H 284.781 5.02078 0.304398 0
M  V30 2919 H 284.481 5.72992 -1.30207 0
M  V30 2920 H 286.005 6.08998 -0.441972 0
M  V30 2921 H 287.419 5.15364 -2.51143 0
M  V30 2922 H 285.816 5.01814 -3.29093 0
M  V30 2923 H 286.886 3.60543 -3.24248 0
M  V30 2924 N 288.23 0.939286 1.26551 0
M  V30 2925 C 289.193 0.451987 2.24699 0
M  V30 2926 C 290.193 -0.435869 1.5478 0
M  V30 2927 O 291.383 -0.235314 1.72603 0
M  V30 2928 C 288.515 -0.348801 3.39111 0
M  V30 2929 H 289.708 1.3193 2.69322 0
M  V30 2930 H 287.261 0.721072 1.38673 0
M  V30 2931 H 287.996 -1.23444 2.99887 0
M  V30 2932 H 287.781 0.287945 3.91041 0
M  V30 2933 H 289.271 -0.679726 4.12031 0
M  V30 2934 N 289.708 -1.40897 0.706093 0
M  V30 2935 C 290.671 -2.29131 0.0562841 0
M  V30 2936 C 291.671 -1.44901 -0.697166 0
M  V30 2937 O 292.861 -1.65926 -0.530484 0
M  V30 2938 C 289.993 -3.27957 -0.93043 0
M  V30 2939 H 291.186 -2.88091 0.833284 0
M  V30 2940 H 288.739 -1.4906 0.470192 0
M  V30 2941 H 289.474 -2.73997 -1.73482 0
M  V30 2942 H 289.259 -3.90124 -0.393166 0
M  V30 2943 H 290.749 -3.94049 -1.38256 0
M  V30 2944 N 291.186 -0.45159 -1.50991 0
M  V30 2945 C 292.411 0.110667 -2.07105 0
M  V30 2946 C 292.836 1.3446 -1.31538 0
M  V30 2947 O 292.194 1.77743 -0.357365 0
M  V30 2948 C 292.242 0.397238 -3.58405 0
M  V30 2949 O 291.346 1.48124 -3.84881 0
M  V30 2950 H 290.687 -0.00439271 -0.663985 0
M  V30 2951 H 293.217 -0.637026 -1.9443 0
M  V30 2952 H 293.227 0.64351 -4.02893 0
M  V30 2953 H 291.902 -0.504553 -4.12828 0
M  V30 2954 H 290.479 1.22381 -3.52246 0
M  V30 2955 N 292.664 1.56529 -0.183458 0
M  V30 2956 C 293.912 1.96855 0.457452 0
M  V30 2957 C 294.233 1.07104 1.62953 0
M  V30 2958 O 293.503 0.139887 1.954 0
M  V30 2959 H 292.083 0.72693 0.171992 0
M  V30 2960 H 294.745 1.93056 -0.267476 0
M  V30 2961 H 293.841 3.01423 0.809368 0
M  V30 2962 N 294.142 -0.090211 1.57342 0
M  V30 2963 C 295.391 -0.791531 1.8552 0
M  V30 2964 C 295.704 -1.79659 0.773441 0
M  V30 2965 O 296.91 -2.54616 0.942497 0
M  V30 2966 C 295.366 -1.45856 3.2902 0
M  V30 2967 C 294.974 -0.493017 4.45279 0
M  V30 2968 C 296.718 -2.14332 3.66418 0
M  V30 2969 C 294.625 -1.16491 5.79814 0
M  V30 2970 H 293.555 -0.299356 0.692027 0
M  V30 2971 H 296.206 -0.0445343 1.83446 0
M  V30 2972 H 294.588 -2.25318 3.2565 0
M  V30 2973 H 295.762 0.270464 4.60006 0
M  V30 2974 H 294.077 0.0863061 4.16311 0
M  V30 2975 H 296.674 -2.65344 4.64216 0
M  V30 2976 H 297.017 -2.93447 2.95287 0
M  V30 2977 H 297.55 -1.41724 3.71698 0
M  V30 2978 H 294.289 -0.41447 6.54188 0
M  V30 2979 H 293.809 -1.8997 5.68921 0
M  V30 2980 H 295.488 -1.69001 6.24538 0
M  V30 2981 N 295.62 -1.53406 -0.361157 0
M  V30 2982 C 296.567 -1.80156 -1.44265 0
M  V30 2983 C 297.537 -0.646183 -1.53015 0
M  V30 2984 O 298.722 -0.888818 -1.68833 0
M  V30 2985 C 295.862 -2.00116 -2.81154 0
M  V30 2986 C 294.975 -3.27833 -2.81335 0
M  V30 2987 C 294.11 -3.37957 -4.09828 0
M  V30 2988 C 293.149 -4.59689 -4.04168 0
M  V30 2989 N 292.286 -4.66942 -5.24318 0
M  V30 2990 H 297.126 -2.72438 -1.20754 0
M  V30 2991 H 294.663 -1.34954 -0.585296 0
M  V30 2992 H 296.621 -2.09677 -3.60682 0
M  V30 2993 H 295.251 -1.11167 -3.03054 0
M  V30 2994 H 294.303 -3.27204 -1.94014 0
M  V30 2995 H 295.615 -4.17442 -2.73027 0
M  V30 2996 H 294.769 -3.46853 -4.97773 0
M  V30 2997 H 293.508 -2.46372 -4.20894 0
M  V30 2998 H 292.513 -4.50889 -3.14609 0
M  V30 2999 H 293.738 -5.5262 -3.947 0
M  V30 3000 H 291.684 -3.7826 -5.35962 0
M  V30 3001 H 291.601 -5.50462 -5.18197 0
M  V30 3002 H 292.869 -4.80127 -6.14084 0
M  V30 3003 N 297.098 0.621204 -1.44841 0
M  V30 3004 C 298.375 1.38 -1.38619 0
M  V30 3005 C 298.755 2.11041 -0.0498935 0
M  V30 3006 O 298.103 2.06992 0.967816 0
M  V30 3007 C 298.313 2.33817 -2.59096 0
M  V30 3008 C 299.661 2.96844 -3.03593 0
M  V30 3009 O 300.685 2.44141 -2.59371 0
M  V30 3010 O 299.544 3.92476 -3.80296 0
M  V30 3011 H 296.638 0.61811 -0.549426 0
M  V30 3012 H 299.184 0.645429 -1.56947 0
M  V30 3013 H 297.956 1.79012 -3.47952 0
M  V30 3014 H 297.579 3.14676 -2.43032 0
M  V30 3015 N 298.576 1.31904 0.862503 0
M  V30 3016 C 299.823 1.22017 1.61611 0
M  V30 3017 C 300.151 -0.21991 1.93253 0
M  V30 3018 O 299.406 -1.17076 1.56817 0
M  V30 3019 C 299.705 2.01713 2.95037 0
M  V30 3020 C 299.371 3.51145 2.82857 0
M  V30 3021 C 298.033 3.91889 2.79243 0
M  V30 3022 C 300.385 4.46204 2.69353 0
M  V30 3023 C 297.713 5.25947 2.59993 0
M  V30 3024 C 300.065 5.80397 2.5164 0
M  V30 3025 C 298.729 6.20352 2.46413 0
M  V30 3026 H 297.999 0.44649 0.591378 0
M  V30 3027 H 300.646 1.63248 1.00111 0
M  V30 3028 H 298.951 1.53185 3.60613 0
M  V30 3029 H 300.648 1.91437 3.52353 0
M  V30 3030 H 297.238 3.1878 2.86491 0
M  V30 3031 H 301.422 4.15652 2.71196 0
M  V30 3032 H 296.678 5.5597 2.54376 0
M  V30 3033 H 300.852 6.53676 2.40169 0
M  V30 3034 H 298.479 7.24172 2.31256 0
M  V30 3035 N 300.054 -1.07777 1.14986 0
M  V30 3036 C 301.47 -1.32373 0.891596 0
M  V30 3037 C 301.67 -1.9609 -0.463788 0
M  V30 3038 O 300.726 -2.21801 -1.20667 0
M  V30 3039 C 302.039 -2.21905 2.02925 0
M  V30 3040 C 303.587 -2.35367 2.06329 0
M  V30 3041 C 304.062 -3.28245 3.19405 0
M  V30 3042 N 305.553 -3.35824 3.19024 0
M  V30 3043 C 306.288 -4.07739 4.03158 0
M  V30 3044 N 305.784 -4.82306 4.97346 0
M  V30 3045 N 307.577 -4.03635 3.91197 0
M  V30 3046 H 299.728 -0.648039 2.02273 0
M  V30 3047 H 301.991 -0.348149 0.881757 0
M  V30 3048 H 301.697 -1.82342 3.0074 0
M  V30 3049 H 301.571 -3.22407 1.95789 0
M  V30 3050 H 303.958 -2.74186 1.09116 0
M  V30 3051 H 304.039 -1.34585 2.17533 0
M  V30 3052 H 303.683 -2.90146 4.16867 0
M  V30 3053 H 303.613 -4.28971 3.05437 0
M  V30 3054 H 306.104 -2.8267 2.50811 0
M  V30 3055 H 306.417 -5.34661 5.57994 0
M  V30 3056 H 304.762 -4.81337 5.01338 0
M  V30 3057 H 307.953 -3.44491 3.16928 0
M  V30 3058 H 308.126 -4.59417 4.5699 0
M  V30 3059 N 301.532 -0.945985 -1.26051 0
M  V30 3060 C 302.479 -0.45809 -2.26208 0
M  V30 3061 C 303.449 0.484816 -1.58867 0
M  V30 3062 O 304.634 0.399969 -1.86561 0
M  V30 3063 C 301.774 0.266131 -3.44072 0
M  V30 3064 C 300.887 -0.713005 -4.26075 0
M  V30 3065 C 300.022 0.0329013 -5.3119 0
M  V30 3066 C 299.061 -0.93774 -6.04874 0
M  V30 3067 N 298.198 -0.223274 -7.01745 0
M  V30 3068 H 303.038 -1.3171 -2.67313 0
M  V30 3069 H 300.575 -0.66069 -1.31428 0
M  V30 3070 H 302.533 0.702514 -4.11243 0
M  V30 3071 H 301.163 1.08925 -3.03867 0
M  V30 3072 H 300.215 -1.26789 -3.58648 0
M  V30 3073 H 301.527 -1.45406 -4.77136 0
M  V30 3074 H 300.681 0.528335 -6.04395 0
M  V30 3075 H 299.42 0.806801 -4.8098 0
M  V30 3076 H 298.425 -1.44425 -5.30492 0
M  V30 3077 H 299.65 -1.71172 -6.57173 0
M  V30 3078 H 297.596 0.532046 -6.53839 0
M  V30 3079 H 297.513 -0.90357 -7.50581 0
M  V30 3080 H 298.781 0.250907 -7.79096 0
M  V30 3081 N 303.011 1.40521 -0.713556 0
M  V30 3082 C 303.944 2.28198 -0.00881422 0
M  V30 3083 C 304.922 1.43227 0.769735 0
M  V30 3084 O 306.106 1.72641 0.756799 0
M  V30 3085 C 303.233 3.23758 0.994899 0
M  V30 3086 C 302.279 4.25391 0.3074 0
M  V30 3087 S 303.112 5.26765 -0.963247 0
M  V30 3088 C 304.268 6.25888 0.0384143 0
M  V30 3089 H 304.501 2.87622 -0.752407 0
M  V30 3090 H 302.034 1.45925 -0.504502 0
M  V30 3091 H 303.992 3.79341 1.56879 0
M  V30 3092 H 302.653 2.63396 1.71118 0
M  V30 3093 H 301.846 4.92596 1.0661 0
M  V30 3094 H 301.448 3.73497 -0.193879 0
M  V30 3095 H 303.74 6.71683 0.885912 0
M  V30 3096 H 304.683 7.05552 -0.60019 0
M  V30 3097 H 305.091 5.63072 0.401233 0
M  V30 3098 N 304.489 0.459591 1.5075 0
M  V30 3099 C 305.419 -0.330644 2.31147 0
M  V30 3100 C 306.4 -1.00087 1.37538 0
M  V30 3101 O 307.585 -1.00025 1.66459 0
M  V30 3102 C 304.715 -1.41958 3.16962 0
M  V30 3103 C 303.669 -0.871608 4.19031 0
M  V30 3104 C 302.995 -2.05797 4.9351 0
M  V30 3105 C 304.295 0.109251 5.22186 0
M  V30 3106 H 305.989 0.340336 2.97459 0
M  V30 3107 H 303.535 0.165119 1.4305 0
M  V30 3108 H 305.488 -1.9798 3.71997 0
M  V30 3109 H 304.212 -2.11917 2.48513 0
M  V30 3110 H 302.871 -0.333442 3.6508 0
M  V30 3111 H 302.519 -2.74427 4.21544 0
M  V30 3112 H 302.219 -1.6976 5.62544 0
M  V30 3113 H 303.743 -2.62331 5.51375 0
M  V30 3114 H 305.157 -0.361405 5.7216 0
M  V30 3115 H 303.554 0.383316 5.98875 0
M  V30 3116 H 304.624 1.03887 4.73641 0
M  V30 3117 N 305.967 -1.56429 0.191757 0
M  V30 3118 C 306.93 -2.17707 -0.716688 0
M  V30 3119 C 307.93 -1.13061 -1.14341 0
M  V30 3120 O 309.12 -1.38464 -1.05704 0
M  V30 3121 C 306.252 -2.77644 -1.97804 0
M  V30 3122 H 307.445 -2.99342 -0.1829 0
M  V30 3123 H 304.998 -1.56193 -0.0578566 0
M  V30 3124 H 305.733 -1.99799 -2.55443 0
M  V30 3125 H 305.518 -3.54246 -1.68083 0
M  V30 3126 H 307.008 -3.24708 -2.62592 0
M  V30 3127 N 307.445 0.0818655 -1.57387 0
M  V30 3128 C 308.395 1.10501 -1.99433 0
M  V30 3129 C 309.379 1.35041 -0.874798 0
M  V30 3130 O 310.571 1.35511 -1.13868 0
M  V30 3131 C 307.7 2.42159 -2.43339 0
M  V30 3132 C 306.786 2.20937 -3.62005 0
M  V30 3133 N 307.177 1.69616 -4.76512 0
M  V30 3134 C 305.475 2.51451 -3.68359 0
M  V30 3135 C 306.176 1.62973 -5.58404 0
M  V30 3136 N 305.152 2.08664 -5.01956 0
M  V30 3137 H 308.954 0.701373 -2.85408 0
M  V30 3138 H 306.468 0.289096 -1.59806 0
M  V30 3139 H 308.465 3.16208 -2.71695 0
M  V30 3140 H 307.125 2.83249 -1.58746 0
M  V30 3141 H 308.136 1.38624 -4.99003 0
M  V30 3142 H 304.813 2.95975 -2.94457 0
M  V30 3143 H 306.203 1.24233 -6.60315 0
M  V30 3144 N 308.923 1.53595 0.353017 0
M  V30 3145 C 310.163 1.72094 1.10286 0
M  V30 3146 C 310.527 0.469217 1.86178 0
M  V30 3147 O 311.728 0.531083 2.63501 0
M  V30 3148 C 309.999 2.94386 2.02661 0
M  V30 3149 S 311.558 3.33651 2.84996 0
M  V30 3150 H 308.376 0.605433 0.372789 0
M  V30 3151 H 310.978 1.91722 0.38248 0
M  V30 3152 H 309.682 3.83669 1.45691 0
M  V30 3153 H 309.213 2.77197 2.79152 0
M  V30 3154 H 311.228 2.86645 4.0503 0
M  V30 3155 N 310.401 -0.613514 1.45168 0
M  V30 3156 C 311.311 -1.75296 1.55912 0
M  V30 3157 C 312.327 -1.68244 0.443856 0
M  V30 3158 O 313.503 -1.88706 0.70371 0
M  V30 3159 C 310.568 -3.1174 1.5172 0
M  V30 3160 C 309.629 -3.30291 2.74238 0
M  V30 3161 C 308.862 -4.60226 2.70236 0
M  V30 3162 O 309.085 -5.42168 1.77229 0
M  V30 3163 O 308.019 -4.81361 3.61352 0
M  V30 3164 H 311.845 -1.69183 2.52212 0
M  V30 3165 H 309.43 -0.776886 1.27612 0
M  V30 3166 H 311.312 -3.93044 1.51968 0
M  V30 3167 H 309.987 -3.18357 0.585697 0
M  V30 3168 H 308.894 -2.48598 2.79553 0
M  V30 3169 H 310.227 -3.28547 3.66494 0
M  V30 3170 N 311.879 -1.3236 -0.855495 0
M  V30 3171 C 312.842 -1.21164 -1.94556 0
M  V30 3172 C 313.842 -0.134908 -1.60233 0
M  V30 3173 O 315.032 -0.385249 -1.69887 0
M  V30 3174 C 312.164 -0.863192 -3.29791 0
M  V30 3175 H 313.357 -2.18038 -2.05911 0
M  V30 3176 H 310.91 -1.16179 -1.04557 0
M  V30 3177 H 311.645 0.103769 -3.24134 0
M  V30 3178 H 311.43 -1.64166 -3.56078 0
M  V30 3179 H 312.92 -0.809156 -4.09686 0
M  V30 3180 N 313.357 1.07166 -1.15556 0
M  V30 3181 C 314.603 1.80065 -0.932984 0
M  V30 3182 C 314.936 1.86586 0.53845 0
M  V30 3183 O 314.211 1.35098 1.39924 0
M  V30 3184 C 314.494 3.25022 -1.55025 0
M  V30 3185 C 314.347 3.26634 -3.09242 0
M  V30 3186 C 315.666 4.22341 -1.2376 0
M  V30 3187 H 312.785 0.653697 -0.340366 0
M  V30 3188 H 315.427 1.25389 -1.4275 0
M  V30 3189 H 313.577 3.71712 -1.12972 0
M  V30 3190 H 315.249 2.88173 -3.60214 0
M  V30 3191 H 313.492 2.65539 -3.43033 0
M  V30 3192 H 314.163 4.28854 -3.47546 0
M  V30 3193 H 316.639 3.8405 -1.60139 0
M  V30 3194 H 315.515 5.22053 -1.69564 0
M  V30 3195 H 315.776 4.41828 -0.154938 0
M  V30 3196 N 314.835 0.952656 1.25548 0
M  V30 3197 C 316.063 0.623496 1.97282 0
M  V30 3198 C 316.478 -0.803987 1.70826 0
M  V30 3199 O 315.835 -1.53755 0.983147 0
M  V30 3200 C 315.886 0.870209 3.5087 0
M  V30 3201 O 315.607 2.24156 3.76412 0
M  V30 3202 C 317.108 0.553164 4.39835 0
M  V30 3203 H 314.328 0.233931 0.628902 0
M  V30 3204 H 316.872 1.27649 1.59768 0
M  V30 3205 H 315.027 0.263652 3.86502 0
M  V30 3206 H 315.441 2.31021 4.70882 0
M  V30 3207 H 316.915 0.776342 5.46513 0
M  V30 3208 H 317.392 -0.512215 4.36203 0
M  V30 3209 H 317.998 1.13896 4.09766 0
M  V30 3210 N 316.313 -1.40141 0.720998 0
M  V30 3211 C 317.724 -1.83678 0.334553 0
M  V30 3212 C 318.075 -1.6027 -1.13173 0
M  V30 3213 O 317.2 -1.08643 -1.87152 0
M  V30 3214 C 317.795 -3.33437 0.600437 0
M  V30 3215 C 316.354 -3.75447 0.267642 0
M  V30 3216 C 315.501 -2.63296 0.870097 0
M  V30 3217 H 318.452 -1.29331 0.919732 0
M  V30 3218 H 318.473 -3.80269 -0.132517 0
M  V30 3219 H 317.985 -3.50442 1.66768 0
M  V30 3220 H 316.086 -3.64035 -0.794329 0
M  V30 3221 H 316.199 -4.73344 0.74042 0
M  V30 3222 H 314.563 -2.52954 0.297739 0
M  V30 3223 H 315.346 -2.83112 1.94172 0
M  V30 3224 N 317.792 -0.46758 -1.50504 0
M  V30 3225 C 319.041 0.0902868 -2.01498 0
M  V30 3226 C 319.354 1.411 -1.35463 0
M  V30 3227 O 320.56 2.0536 -1.77594 0
M  V30 3228 C 319.016 0.21142 -3.59278 0
M  V30 3229 C 318.624 -1.10065 -4.34269 0
M  V30 3230 C 320.368 0.721433 -4.18325 0
M  V30 3231 C 318.275 -0.943505 -5.83825 0
M  V30 3232 H 317.205 0.037517 -0.753066 0
M  V30 3233 H 319.856 -0.601943 -1.73346 0
M  V30 3234 H 318.238 0.967352 -3.84003 0
M  V30 3235 H 319.412 -1.86726 -4.21272 0
M  V30 3236 H 317.727 -1.5415 -3.86816 0
M  V30 3237 H 320.324 0.85598 -5.27804 0
M  V30 3238 H 320.667 1.71186 -3.79475 0
M  V30 3239 H 321.2 0.0229843 -3.97793 0
M  V30 3240 H 317.939 -1.90719 -6.27141 0
M  V30 3241 H 317.459 -0.217213 -5.99407 0
M  V30 3242 H 319.138 -0.608715 -6.4413 0
M  V30 3243 N 319.27 1.56325 -0.20005 0
M  V30 3244 C 320.686 1.58839 0.155716 0
M  V30 3245 C 320.886 1.21636 1.60645 0
M  V30 3246 O 319.942 0.941437 2.34293 0
M  V30 3247 C 321.255 3.0032 -0.151124 0
M  V30 3248 C 322.803 3.12866 -0.0916284 0
M  V30 3249 C 323.278 4.56488 -0.371845 0
M  V30 3250 N 324.769 4.62089 -0.320641 0
M  V30 3251 C 325.504 5.71116 -0.511243 0
M  V30 3252 N 325 6.88592 -0.762461 0
M  V30 3253 N 326.793 5.60335 -0.445157 0
M  V30 3254 H 318.944 1.78788 -1.14668 0
M  V30 3255 H 321.207 0.829996 -0.458051 0
M  V30 3256 H 320.913 3.32117 -1.15721 0
M  V30 3257 H 320.787 3.73257 0.543986 0
M  V30 3258 H 323.174 2.80878 0.905065 0
M  V30 3259 H 323.255 2.42304 -0.81989 0
M  V30 3260 H 322.899 4.89189 -1.36588 0
M  V30 3261 H 322.829 5.25246 0.377362 0
M  V30 3262 H 325.32 3.77665 -0.13329 0
M  V30 3263 H 325.633 7.67581 -0.896576 0
M  V30 3264 H 323.978 6.90387 -0.799412 0
M  V30 3265 H 327.169 4.67436 -0.249278 0
M  V30 3266 H 327.342 6.45243 -0.597116 0
M  V30 3267 N 320.748 -0.0735177 1.57428 0
M  V30 3268 C 322.164 -0.428264 1.53747 0
M  V30 3269 C 322.364 -1.79272 0.91998 0
M  V30 3270 O 321.42 -2.47051 0.521745 0
M  V30 3271 C 322.733 -0.370914 2.98404 0
M  V30 3272 C 324.281 -0.451224 3.0973 0
M  V30 3273 C 324.756 -0.4238 4.56035 0
M  V30 3274 N 326.247 -0.483925 4.60665 0
M  V30 3275 C 326.982 -0.484891 5.71346 0
M  V30 3276 N 326.478 -0.440775 6.91396 0
M  V30 3277 N 328.271 -0.531319 5.59583 0
M  V30 3278 H 320.422 0.819949 1.95935 0
M  V30 3279 H 322.685 0.307493 0.896745 0
M  V30 3280 H 322.391 0.564956 3.47133 0
M  V30 3281 H 322.265 -1.18176 3.5821 0
M  V30 3282 H 324.652 -1.37752 2.60976 0
M  V30 3283 H 324.733 0.388167 2.52838 0
M  V30 3284 H 324.377 0.498638 5.05446 0
M  V30 3285 H 324.307 -1.2807 5.10789 0
M  V30 3286 H 326.798 -0.522338 3.74273 0
M  V30 3287 H 327.111 -0.44539 7.71515 0
M  V30 3288 H 325.456 -0.40749 6.93804 0
M  V30 3289 H 328.647 -0.563464 4.64696 0
M  V30 3290 H 328.82 -0.528603 6.4584 0
M  V30 3291 N 322.226 -1.5378 -0.344866 0
M  V30 3292 C 323.454 -1.74899 -1.10534 0
M  V30 3293 C 323.869 -0.487534 -1.82397 0
M  V30 3294 O 323.226 0.540741 -1.74305 0
M  V30 3295 C 323.277 -2.92822 -2.11984 0
M  V30 3296 O 322.998 -4.14089 -1.43044 0
M  V30 3297 C 324.499 -3.25982 -3.00417 0
M  V30 3298 H 321.719 -0.584426 -0.329678 0
M  V30 3299 H 324.263 -2.006 -0.397474 0
M  V30 3300 H 322.418 -2.69457 -2.78338 0
M  V30 3301 H 322.832 -4.80272 -2.10805 0
M  V30 3302 H 324.306 -4.11848 -3.67539 0
M  V30 3303 H 324.783 -2.42228 -3.66363 0
M  V30 3304 H 325.389 -3.51349 -2.39654 0
M  V30 3305 N 323.704 0.605807 -1.45491 0
M  V30 3306 C 324.95 1.36679 -1.49823 0
M  V30 3307 C 325.283 1.93693 -0.140175 0
M  V30 3308 O 324.558 1.75158 0.845581 0
M  V30 3309 C 324.841 2.51337 -2.57879 0
M  V30 3310 C 324.694 1.99508 -4.03134 0
M  V30 3311 C 326.013 3.53463 -2.62205 0
M  V30 3312 H 323.132 0.495617 -0.545466 0
M  V30 3313 H 325.774 0.682732 -1.7731 0
M  V30 3314 H 323.924 3.09691 -2.34571 0
M  V30 3315 H 325.596 1.45789 -4.37656 0
M  V30 3316 H 323.839 1.30496 -4.13707 0
M  V30 3317 H 324.51 2.82169 -4.74431 0
M  V30 3318 H 326.986 3.04953 -2.83095 0
M  V30 3319 H 325.862 4.31178 -3.39672 0
M  V30 3320 H 326.123 4.09197 -1.67363 0
M  V30 3321 N 325.182 1.32811 0.848464 0
M  V30 3322 C 326.41 1.26739 1.63538 0
M  V30 3323 C 326.825 -0.163484 1.88091 0
M  V30 3324 O 326.182 -1.10258 1.45429 0
M  V30 3325 C 326.233 2.03013 2.99112 0
M  V30 3326 O 325.954 3.40518 2.75643 0
M  V30 3327 C 327.455 2.04038 3.93552 0
M  V30 3328 H 324.675 0.437024 0.509167 0
M  V30 3329 H 327.219 1.75033 1.05753 0
M  V30 3330 H 325.374 1.58426 3.53525 0
M  V30 3331 H 325.788 3.79635 3.61908 0
M  V30 3332 H 327.262 2.61877 4.85926 0
M  V30 3333 H 327.739 1.0282 4.26995 0
M  V30 3334 H 328.345 2.486 3.45077 0
M  V30 3335 N 326.66 -1.06551 1.16123 0
M  V30 3336 C 327.909 -1.78687 0.935622 0
M  V30 3337 C 328.222 -1.88056 -0.538001 0
M  V30 3338 O 329.428 -2.56794 -0.88143 0
M  V30 3339 C 327.884 -3.21143 1.62466 0
M  V30 3340 C 327.492 -3.19949 3.13587 0
M  V30 3341 C 329.236 -3.9783 1.48092 0
M  V30 3342 C 327.143 -4.57108 3.75241 0
M  V30 3343 H 326.073 -0.669712 0.346412 0
M  V30 3344 H 328.724 -1.19534 1.39226 0
M  V30 3345 H 327.106 -3.80539 1.09572 0
M  V30 3346 H 328.28 -2.70151 3.73303 0
M  V30 3347 H 326.595 -2.5676 3.27816 0
M  V30 3348 H 329.192 -4.99217 1.91538 0
M  V30 3349 H 329.535 -4.14078 0.429507 0
M  V30 3350 H 330.068 -3.4495 1.98127 0
M  V30 3351 H 326.807 -4.46065 4.80319 0
M  V30 3352 H 326.327 -5.07111 3.20309 0
M  V30 3353 H 328.006 -5.26069 3.76644 0
M  V30 3354 N 328.138 -0.959301 -1.25041 0
M  V30 3355 C 329.048 -0.489994 -2.29426 0
M  V30 3356 C 330.064 0.444944 -1.68215 0
M  V30 3357 O 331.24 0.320046 -1.98841 0
M  V30 3358 C 328.305 0.220309 -3.45999 0
M  V30 3359 C 327.366 -0.753418 -4.22637 0
M  V30 3360 C 326.599 -0.076918 -5.33645 0
M  V30 3361 O 326.822 1.13649 -5.58963 0
M  V30 3362 O 325.756 -0.764824 -5.97021 0
M  V30 3363 H 329.582 -1.35755 -2.71669 0
M  V30 3364 H 327.167 -0.725961 -1.30576 0
M  V30 3365 H 329.049 0.619677 -4.16819 0
M  V30 3366 H 327.724 1.06296 -3.0575 0
M  V30 3367 H 326.631 -1.20308 -3.54227 0
M  V30 3368 H 327.964 -1.56423 -4.66683 0
M  V30 3369 N 329.616 1.39756 -0.72842 0
M  V30 3370 C 330.893 1.94574 -0.200079 0
M  V30 3371 C 331.273 1.66569 1.29684 0
M  V30 3372 O 330.621 0.990326 2.05924 0
M  V30 3373 C 330.831 3.45004 -0.526608 0
M  V30 3374 C 332.179 4.21965 -0.472318 0
M  V30 3375 O 333.203 3.53173 -0.463413 0
M  V30 3376 O 332.062 5.44552 -0.461075 0
M  V30 3377 H 329.156 0.826289 -0.0342851 0
M  V30 3378 H 331.702 1.49293 -0.806829 0
M  V30 3379 H 330.474 3.58796 -1.56144 0
M  V30 3380 H 330.097 3.97449 0.109449 0
M  V30 3381 N 331.094 0.475555 1.50254 0
M  V30 3382 C 332.34 -0.0780073 2.0265 0
M  V30 3383 C 332.673 -1.38968 1.35652 0
M  V30 3384 O 331.948 -1.8839 0.483691 0
M  V30 3385 C 332.231 -0.257161 3.59181 0
M  V30 3386 C 332.084 1.07585 4.36744 0
M  V30 3387 C 333.403 -1.00965 4.28362 0
M  V30 3388 H 330.522 -0.0268758 0.73651 0
M  V30 3389 H 333.164 0.622015 1.7953 0
M  V30 3390 H 331.314 -0.853412 3.79011 0
M  V30 3391 H 332.986 1.70902 4.28474 0
M  V30 3392 H 331.229 1.6714 4.00308 0
M  V30 3393 H 331.9 0.904088 5.44546 0
M  V30 3394 H 334.376 -0.504214 4.13034 0
M  V30 3395 H 333.252 -1.10381 5.37687 0
M  V30 3396 H 333.513 -2.04731 3.91839 0
M  V30 3397 N 332.573 -1.56217 0.208337 0
M  V30 3398 C 333.821 -1.97558 -0.426076 0
M  V30 3399 C 334.142 -1.09683 -1.61229 0
M  V30 3400 O 333.412 -0.170956 -1.95153 0
M  V30 3401 H 331.992 -0.729575 -0.160405 0
M  V30 3402 H 334.654 -1.92606 0.298155 0
M  V30 3403 H 333.75 -3.02672 -0.761312 0
M  V30 3404 N 334.051 0.0651679 -1.57465 0
M  V30 3405 C 334.999 1.09542 -2.05191 0
M  V30 3406 C 335.993 1.39675 -0.958509 0
M  V30 3407 O 337.199 1.39003 -1.14359 0
M  V30 3408 H 333.574 0.370623 -0.654326 0
M  V30 3409 H 335.545 0.666802 -2.90854 0
M  V30 3410 C 334.294 2.39881 -2.51699 0
M  V30 3411 H 333.617 2.17547 -3.3543 0
M  V30 3412 H 335.057 3.104 -2.88839 0
M  V30 3413 C 333.516 3.0631 -1.40271 0
M  V30 3414 O 334.046 3.94664 -0.748523 0
M  V30 3415 N 332.252 2.67041 -1.14618 0
M  V30 3416 H 331.799 1.95281 -1.67997 0
M  V30 3417 H 331.757 3.1181 -0.402688 0
M  V30 3418 N 335.529 1.53961 0.336706 0
M  V30 3419 C 336.754 1.75797 1.10046 0
M  V30 3420 C 337.179 0.498985 1.81361 0
M  V30 3421 O 336.537 -0.548769 1.72795 0
M  V30 3422 C 336.585 2.94257 2.08436 0
M  V30 3423 O 335.689 2.64883 3.16087 0
M  V30 3424 H 335.03 0.582936 0.317934 0
M  V30 3425 H 337.56 2.00945 0.38501 0
M  V30 3426 H 337.57 3.21237 2.51537 0
M  V30 3427 H 336.245 3.85564 1.55927 0
M  V30 3428 H 334.822 2.48812 2.77753 0
M  V30 3429 N 337.007 -0.598083 1.45811 0
M  V30 3430 C 337.97 -1.69018 1.54808 0
M  V30 3431 C 338.97 -1.55037 0.426652 0
M  V30 3432 O 340.16 -1.59932 0.690456 0
M  V30 3433 C 337.292 -3.0835 1.45371 0
M  V30 3434 H 338.485 -1.62403 2.52121 0
M  V30 3435 H 336.038 -0.814626 1.33392 0
M  V30 3436 H 336.773 -3.20534 0.492793 0
M  V30 3437 H 336.558 -3.19907 2.26721 0
M  V30 3438 H 338.048 -3.8788 1.54721 0
M  V30 3439 N 338.485 -1.33259 -0.841409 0
M  V30 3440 C 339.448 -1.23221 -1.9326 0
M  V30 3441 C 340.448 -0.151895 -1.60081 0
M  V30 3442 O 341.638 -0.403246 -1.69468 0
M  V30 3443 C 338.77 -0.898123 -3.28856 0
M  V30 3444 H 339.963 -2.2021 -2.03587 0
M  V30 3445 H 337.516 -1.17281 -1.03319 0
M  V30 3446 H 338.251 0.0693841 -3.24226 0
M  V30 3447 H 338.036 -1.67934 -3.54317 0
M  V30 3448 H 339.526 -0.852563 -4.08805 0
M  V30 3449 N 339.963 1.05934 -1.16686 0
M  V30 3450 C 341.21 1.788 -0.950622 0
M  V30 3451 C 341.538 1.87384 0.521305 0
M  V30 3452 O 340.793 1.36438 1.40297 0
M  V30 3453 C 341.092 3.23105 -1.52767 0
M  V30 3454 C 340.758 3.34594 -3.02254 0
M  V30 3455 C 339.42 3.37437 -3.43059 0
M  V30 3456 C 341.772 3.36219 -3.98254 0
M  V30 3457 C 339.1 3.39525 -4.78477 0
M  V30 3458 C 341.452 3.39845 -5.33562 0
M  V30 3459 C 340.116 3.40971 -5.73842 0
M  V30 3460 H 339.386 0.654275 -0.347857 0
M  V30 3461 H 342.033 1.24555 -1.45459 0
M  V30 3462 H 340.338 3.80227 -0.94524 0
M  V30 3463 H 342.035 3.7809 -1.336 0
M  V30 3464 H 338.625 3.3309 -2.6972 0
M  V30 3465 H 342.809 3.33231 -3.67792 0
M  V30 3466 H 338.065 3.38703 -5.09009 0
M  V30 3467 H 342.239 3.4005 -6.07733 0
M  V30 3468 H 339.866 3.42342 -6.78753 0
M  V30 3469 N 341.441 0.965919 1.2453 0
M  V30 3470 C 342.371 0.513476 2.27784 0
M  V30 3471 C 343.352 -0.445974 1.6415 0
M  V30 3472 O 344.537 -0.342485 1.91156 0
M  V30 3473 C 341.667 -0.198839 3.4673 0
M  V30 3474 C 340.621 0.676456 4.2262 0
M  V30 3475 C 339.947 -0.167248 5.34438 0
M  V30 3476 C 341.247 1.96017 4.84123 0
M  V30 3477 H 342.941 1.3765 2.65881 0
M  V30 3478 H 340.487 0.663321 1.27813 0
M  V30 3479 H 342.44 -0.526567 4.18097 0
M  V30 3480 H 341.164 -1.0962 3.07654 0
M  V30 3481 H 339.823 0.98743 3.53052 0
M  V30 3482 H 339.471 -1.0647 4.91603 0
M  V30 3483 H 339.171 0.415181 5.86131 0
M  V30 3484 H 340.695 -0.489688 6.08633 0
M  V30 3485 H 342.109 1.69814 5.47573 0
M  V30 3486 H 340.506 2.48918 5.4604 0
M  V30 3487 H 341.576 2.65622 4.05676 0
M  V30 3488 N 342.919 -1.39368 0.735821 0
M  V30 3489 C 344.159 -2.02349 0.288813 0
M  V30 3490 C 344.523 -1.57127 -1.10341 0
M  V30 3491 O 345.724 -2.12312 -1.64854 0
M  V30 3492 C 343.995 -3.55288 0.387986 0
M  V30 3493 S 345.554 -4.38795 0.0209408 0
M  V30 3494 H 342.372 -0.701944 0.113115 0
M  V30 3495 H 344.974 -1.70164 0.962518 0
M  V30 3496 H 343.678 -3.85691 1.40252 0
M  V30 3497 H 343.209 -3.92227 -0.303512 0
M  V30 3498 H 345.224 -4.81595 -1.19503 0
M  V30 3499 N 344.397 -0.483516 -1.5 0
M  V30 3500 C 345.622 0.0667119 -2.07293 0
M  V30 3501 C 346.047 1.3164 -1.3436 0
M  V30 3502 O 345.405 1.76945 -0.394987 0
M  V30 3503 C 345.453 0.321126 -3.59167 0
M  V30 3504 O 344.557 1.39927 -3.87936 0
M  V30 3505 H 343.898 -0.0184758 -0.663743 0
M  V30 3506 H 346.428 -0.678125 -1.93035 0
M  V30 3507 H 346.438 0.557906 -4.04168 0
M  V30 3508 H 345.113 -0.592007 -4.11665 0
M  V30 3509 H 343.69 1.14882 -3.54763 0
M  V30 3510 N 345.875 1.56104 -0.216619 0
M  V30 3511 C 347.152 1.89988 0.465165 0
M  V30 3512 C 347.532 1.13326 1.78102 0
M  V30 3513 O 346.88 0.241033 2.27225 0
M  V30 3514 C 347.09 3.42646 0.662939 0
M  V30 3515 C 348.438 4.13311 0.972602 0
M  V30 3516 O 349.462 3.48217 0.749901 0
M  V30 3517 O 348.321 5.28396 1.39499 0
M  V30 3518 H 345.415 0.78979 0.245276 0
M  V30 3519 H 347.961 1.67721 -0.258436 0
M  V30 3520 H 346.733 3.90399 -0.26543 0
M  V30 3521 H 346.356 3.70677 1.43821 0
M  V30 3522 N 347.353 -0.0568162 1.57498 0
M  V30 3523 C 348.283 -1.06593 2.0775 0
M  V30 3524 C 349.264 -1.39448 0.974082 0
M  V30 3525 O 350.449 -1.48815 1.24771 0
M  V30 3526 C 347.579 -2.37509 2.5339 0
M  V30 3527 C 346.533 -2.1897 3.67745 0
M  V30 3528 C 345.859 -3.55402 3.99492 0
M  V30 3529 C 347.159 -1.59859 4.97235 0
M  V30 3530 H 348.853 -0.647706 2.9231 0
M  V30 3531 H 346.399 -0.310116 1.40621 0
M  V30 3532 H 348.352 -3.08409 2.87162 0
M  V30 3533 H 347.076 -2.8134 1.65878 0
M  V30 3534 H 345.735 -1.50508 3.3428 0
M  V30 3535 H 345.383 -3.9683 3.09088 0
M  V30 3536 H 345.083 -3.43831 4.76502 0
M  V30 3537 H 346.607 -4.27708 4.35773 0
M  V30 3538 H 348.021 -2.20642 5.29141 0
M  V30 3539 H 346.418 -1.58942 5.78669 0
M  V30 3540 H 347.488 -0.561506 4.81638 0
M  V30 3541 N 348.832 -1.54138 -0.328536 0
M  V30 3542 C 350.057 -1.76378 -1.09112 0
M  V30 3543 C 350.482 -0.508596 -1.81094 0
M  V30 3544 O 349.84 0.539598 -1.73084 0
M  V30 3545 C 349.888 -2.95358 -2.06872 0
M  V30 3546 O 348.992 -2.66556 -3.14677 0
M  V30 3547 H 348.333 -0.584614 -0.314838 0
M  V30 3548 H 350.863 -2.01146 -0.374348 0
M  V30 3549 H 350.873 -3.22566 -2.4983 0
M  V30 3550 H 349.548 -3.86385 -1.5388 0
M  V30 3551 H 348.125 -2.50282 -2.7643 0
M  V30 3552 N 350.31 0.590341 -1.46126 0
M  V30 3553 C 351.273 1.68194 -1.55703 0
M  V30 3554 C 352.273 1.54808 -0.434868 0
M  V30 3555 O 353.463 1.59564 -0.698928 0
M  V30 3556 C 350.595 3.07575 -1.47005 0
M  V30 3557 H 351.788 1.61064 -2.52979 0
M  V30 3558 H 349.341 0.807541 -1.33823 0
M  V30 3559 H 350.076 3.20268 -0.509785 0
M  V30 3560 H 349.861 3.187 -2.28414 0
M  V30 3561 H 351.351 3.87055 -1.56776 0
M  V30 3562 N 351.788 1.33704 0.83433 0
M  V30 3563 C 353.036 1.25169 1.58673 0
M  V30 3564 C 353.357 -0.18127 1.94156 0
M  V30 3565 O 352.627 -1.11113 1.6134 0
M  V30 3566 H 351.207 0.4603 0.58833 0
M  V30 3567 H 353.869 1.67478 0.996847 0
M  V30 3568 H 352.965 1.84856 2.51465 0
M  V30 3569 N 353.266 -1.05314 1.17247 0
M  V30 3570 C 354.515 -1.77685 0.954521 0
M  V30 3571 C 354.828 -1.88616 -0.518025 0
M  V30 3572 O 356.034 -2.57714 -0.854144 0
M  V30 3573 C 354.49 -3.19402 1.65863 0
M  V30 3574 C 354.098 -3.16605 3.16963 0
M  V30 3575 C 355.842 -3.96237 1.52303 0
M  V30 3576 C 353.749 -4.53103 3.80068 0
M  V30 3577 H 352.679 -0.666 0.353496 0
M  V30 3578 H 355.33 -1.1805 1.40486 0
M  V30 3579 H 353.712 -3.79355 1.13602 0
M  V30 3580 H 354.886 -2.66176 3.76148 0
M  V30 3581 H 353.201 -2.53268 3.30521 0
M  V30 3582 H 355.798 -4.97157 1.96822 0
M  V30 3583 H 356.141 -4.136 0.473401 0
M  V30 3584 H 356.674 -3.42829 2.01775 0
M  V30 3585 H 353.413 -4.40946 4.85023 0
M  V30 3586 H 352.933 -5.03686 3.2567 0
M  V30 3587 H 354.612 -5.22045 3.82202 0
M  V30 3588 N 354.744 -0.972509 -1.24016 0
M  V30 3589 C 355.969 -0.654417 -1.96805 0
M  V30 3590 C 356.394 0.770398 -1.716 0
M  V30 3591 O 355.752 1.52361 -0.982647 0
M  V30 3592 C 355.8 -0.941031 -3.48105 0
M  V30 3593 O 354.904 -0.0289472 -4.1239 0
M  V30 3594 H 354.245 -0.24692 -0.616382 0
M  V30 3595 H 356.775 -1.30396 -1.57664 0
M  V30 3596 H 356.785 -0.87452 -3.98517 0
M  V30 3597 H 355.46 -1.97939 -3.65777 0
M  V30 3598 H 354.037 -0.149192 -3.72601 0
M  V30 3599 N 356.222 1.38976 -0.743202 0
M  V30 3600 C 357.47 1.99948 -0.29417 0
M  V30 3601 C 357.791 1.59279 1.12495 0
M  V30 3602 O 357.061 0.844808 1.76748 0
M  V30 3603 H 355.641 0.739473 -0.105774 0
M  V30 3604 H 358.303 1.699 -0.954986 0
M  V30 3605 H 357.399 3.10142 -0.349056 0
M  V30 3606 N 357.7 0.491464 1.49741 0
M  V30 3607 C 358.61 -0.296835 2.32715 0
M  V30 3608 C 359.626 -0.976536 1.44013 0
M  V30 3609 O 360.802 -0.960023 1.77047 0
M  V30 3610 C 357.867 -1.35288 3.19215 0
M  V30 3611 C 356.928 -0.687632 4.23757 0
M  V30 3612 C 356.161 -1.69336 5.06123 0
M  V30 3613 O 356.384 -2.92219 4.89861 0
M  V30 3614 O 355.318 -1.25394 5.88693 0
M  V30 3615 H 359.144 0.382048 3.01287 0
M  V30 3616 H 356.729 0.252953 1.47243 0
M  V30 3617 H 358.611 -1.96411 3.72828 0
M  V30 3618 H 357.286 -2.01487 2.53347 0
M  V30 3619 H 356.193 -0.0369159 3.74082 0
M  V30 3620 H 357.526 -0.0682566 4.92153 0
M  V30 3621 N 359.178 -1.55987 0.224894 0
M  V30 3622 C 360.424 -1.98684 -0.406502 0
M  V30 3623 C 360.757 -1.11248 -1.59177 0
M  V30 3624 O 360.032 -0.170909 -1.93748 0
M  V30 3625 C 360.315 -3.50218 -0.837808 0
M  V30 3626 C 360.168 -4.48426 0.351332 0
M  V30 3627 C 361.487 -4.06243 -1.69278 0
M  V30 3628 H 358.606 -0.722337 -0.146283 0
M  V30 3629 H 361.248 -1.87255 0.321799 0
M  V30 3630 H 359.398 -3.60089 -1.45837 0
M  V30 3631 H 361.07 -4.50562 0.989526 0
M  V30 3632 H 359.313 -4.22159 0.998207 0
M  V30 3633 H 359.984 -5.52 0.00655905 0
M  V30 3634 H 362.46 -3.99337 -1.16914 0
M  V30 3635 H 361.336 -5.12581 -1.96346 0
M  V30 3636 H 361.597 -3.53332 -2.65723 0
M  V30 3637 N 360.656 0.0484629 -1.57525 0
M  V30 3638 C 361.902 0.744226 -1.88651 0
M  V30 3639 C 362.235 1.76029 -0.820212 0
M  V30 3640 O 361.51 1.93782 0.166985 0
M  V30 3641 C 361.793 1.43128 -3.30434 0
M  V30 3642 C 361.646 0.43005 -4.47739 0
M  V30 3643 C 362.965 2.37031 -3.70816 0
M  V30 3644 H 360.084 0.269089 -0.68612 0
M  V30 3645 H 362.726 0.00713532 -1.89999 0
M  V30 3646 H 360.876 2.05956 -3.29415 0
M  V30 3647 H 362.548 -0.194816 -4.60888 0
M  V30 3648 H 360.791 -0.252522 -4.33064 0
M  V30 3649 H 361.462 0.948874 -5.43783 0
M  V30 3650 H 363.938 1.84263 -3.73077 0
M  V30 3651 H 362.814 2.82094 -4.70865 0
M  V30 3652 H 363.075 3.22864 -3.02012 0
M  V30 3653 N 362.134 1.5431 0.320358 0
M  V30 3654 C 363.084 1.803 1.39556 0
M  V30 3655 C 364.068 0.659166 1.46778 0
M  V30 3656 O 365.26 0.91926 1.51257 0
M  V30 3657 C 362.389 2.03665 2.76361 0
M  V30 3658 C 361.475 3.24178 2.73439 0
M  V30 3659 N 361.866 4.4516 2.40137 0
M  V30 3660 C 360.164 3.25816 3.04565 0
M  V30 3661 C 360.865 5.27109 2.4603 0
M  V30 3662 N 359.841 4.64368 2.82601 0
M  V30 3663 H 363.643 2.71416 1.12742 0
M  V30 3664 H 361.157 1.53548 0.528856 0
M  V30 3665 H 363.154 2.20425 3.53862 0
M  V30 3666 H 361.814 1.13805 3.04103 0
M  V30 3667 H 362.825 4.72104 2.12927 0
M  V30 3668 H 359.502 2.46001 3.37328 0
M  V30 3669 H 360.892 6.33728 2.23246 0
M  V30 3670 N 363.613 -0.582584 1.46437 0
M  V30 3671 C 364.859 -1.34278 1.51978 0
M  V30 3672 C 365.192 -1.93446 0.170973 0
M  V30 3673 O 364.467 -1.76481 -0.817608 0
M  V30 3674 C 364.75 -2.47203 2.61845 0
M  V30 3675 C 364.603 -1.93069 4.06257 0
M  V30 3676 C 365.922 -3.49247 2.67795 0
M  V30 3677 H 363.041 -0.486876 0.553282 0
M  V30 3678 H 365.683 -0.654437 1.78374 0
M  V30 3679 H 363.833 -3.0592 2.39469 0
M  V30 3680 H 365.505 -1.38808 4.3992 0
M  V30 3681 H 363.748 -1.23898 4.1573 0
M  V30 3682 H 364.419 -2.74586 4.7886 0
M  V30 3683 H 366.895 -3.00411 2.8791 0
M  V30 3684 H 365.771 -4.25719 3.46489 0
M  V30 3685 H 366.032 -4.06482 1.73852 0
M  V30 3686 N 365.091 -1.34144 -0.827227 0
M  V30 3687 C 366.368 -1.16844 -1.56865 0
M  V30 3688 C 366.748 0.260654 -2.09485 0
M  V30 3689 O 366.096 1.26138 -1.9053 0
M  V30 3690 C 366.306 -2.21939 -2.6934 0
M  V30 3691 C 367.654 -2.56695 -3.3822 0
M  V30 3692 O 368.678 -2.20695 -2.79593 0
M  V30 3693 O 367.537 -3.18518 -4.44082 0
M  V30 3694 H 364.631 -0.452669 -0.692112 0
M  V30 3695 H 367.177 -1.45763 -0.868973 0
M  V30 3696 H 365.949 -3.17882 -2.28182 0
M  V30 3697 H 365.572 -1.94172 -3.46962 0
M  V30 3698 N 366.569 1.04691 -1.17803 0
M  V30 3699 C 367.817 1.7743 -0.967617 0
M  V30 3700 C 368.138 1.88359 0.504574 0
M  V30 3701 O 367.408 1.40402 1.36617 0
M  V30 3702 H 365.988 0.657242 -0.355024 0
M  V30 3703 H 368.65 1.2638 -1.48371 0
M  V30 3704 H 367.746 2.78924 -1.40027 0
M  V30 3705 N 368.047 0.979072 1.23499 0
M  V30 3706 C 369.295 0.645941 1.91499 0
M  V30 3707 C 369.616 -0.822948 1.76784 0
M  V30 3708 O 368.886 -1.58854 1.14639 0
M  V30 3709 H 367.466 0.235919 0.708767 0
M  V30 3710 H 370.128 1.2426 1.50152 0
M  V30 3711 H 369.224 0.896411 2.9895 0
M  V30 3712 N 369.525 -1.3858 0.750561 0
M  V30 3713 C 370.772 -2.00184 0.305373 0
M  V30 3714 C 371.1 -1.59575 -1.11203 0
M  V30 3715 O 370.355 -0.823236 -1.77542 0
M  V30 3716 C 370.654 -3.55455 0.372373 0
M  V30 3717 C 370.32 -4.15765 1.745 0
M  V30 3718 C 368.982 -4.31951 2.12065 0
M  V30 3719 C 371.334 -4.49067 2.64553 0
M  V30 3720 C 368.662 -4.78734 3.39162 0
M  V30 3721 C 371.014 -4.97265 3.91038 0
M  V30 3722 C 369.678 -5.11658 4.28676 0
M  V30 3723 H 368.948 -0.732526 0.111744 0
M  V30 3724 H 371.595 -1.65673 0.960451 0
M  V30 3725 H 369.9 -3.90084 -0.366272 0
M  V30 3726 H 371.597 -4.00999 0.00953918 0
M  V30 3727 H 368.187 -4.03579 1.44297 0
M  V30 3728 H 372.371 -4.36166 2.36796 0
M  V30 3729 H 367.627 -4.88062 3.68246 0
M  V30 3730 H 371.801 -5.22003 4.60962 0
M  V30 3731 H 369.428 -5.47668 5.27222 0
M  V30 3732 N 371.003 -0.499398 -1.49478 0
M  V30 3733 C 372.228 0.044722 -2.07352 0
M  V30 3734 C 372.653 1.30207 -1.35749 0
M  V30 3735 O 372.011 1.76516 -0.413732 0
M  V30 3736 C 372.059 0.283013 -3.59488 0
M  V30 3737 O 371.163 1.35804 -3.89398 0
M  V30 3738 H 370.504 -0.0255147 -0.66351 0
M  V30 3739 H 373.034 -0.698561 -1.92305 0
M  V30 3740 H 373.044 0.515007 -4.04737 0
M  V30 3741 H 371.719 -0.635636 -4.11014 0
M  V30 3742 H 370.296 1.11113 -3.55961 0
M  V30 3743 N 372.481 1.55866 -0.233164 0
M  V30 3744 C 373.73 1.97779 0.39579 0
M  V30 3745 C 374.043 1.12419 1.60066 0
M  V30 3746 O 375.249 1.44283 2.29988 0
M  V30 3747 C 373.705 3.5188 0.755556 0
M  V30 3748 C 373.313 4.45959 -0.427152 0
M  V30 3749 C 375.057 4.02479 1.34946 0
M  V30 3750 C 372.964 5.91383 -0.0443043 0
M  V30 3751 H 371.894 0.738592 0.15165 0
M  V30 3752 H 374.545 1.80486 -0.331212 0
M  V30 3753 H 372.927 3.64816 1.5403 0
M  V30 3754 H 374.101 4.44776 -1.20462 0
M  V30 3755 H 372.416 4.05765 -0.935068 0
M  V30 3756 H 375.013 5.08637 1.649 0
M  V30 3757 H 375.356 3.49014 2.26925 0
M  V30 3758 H 375.889 3.92813 0.62791 0
M  V30 3759 H 372.628 6.48857 -0.930874 0
M  V30 3760 H 372.148 5.95734 0.697238 0
M  V30 3761 H 373.827 6.45893 0.378334 0
M  V30 3762 N 373.959 -0.0401083 1.57549 0
M  V30 3763 C 374.922 -1.02871 2.04817 0
M  V30 3764 C 375.922 -1.29708 0.950388 0
M  V30 3765 O 377.112 -1.24897 1.21435 0
M  V30 3766 C 374.244 -2.36443 2.45576 0
M  V30 3767 H 375.437 -0.620631 2.93408 0
M  V30 3768 H 372.99 -0.286667 1.53649 0
M  V30 3769 H 373.725 -2.82021 1.60108 0
M  V30 3770 H 373.51 -2.18296 3.25713 0
M  V30 3771 H 375 -3.07441 2.82612 0
M  V30 3772 N 375.437 -1.54477 -0.31217 0
M  V30 3773 C 376.4 -1.83923 -1.36766 0
M  V30 3774 C 377.4 -0.711563 -1.44199 0
M  V30 3775 O 378.59 -0.979866 -1.44029 0
M  V30 3776 C 375.722 -2.0095 -2.75376 0
M  V30 3777 H 376.915 -2.78239 -1.11906 0
M  V30 3778 H 374.468 -1.46369 -0.548257 0
M  V30 3779 H 375.203 -1.08883 -3.05475 0
M  V30 3780 H 374.988 -2.83018 -2.71373 0
M  V30 3781 H 376.478 -2.2514 -3.51713 0
M  V30 3782 N 376.915 0.57481 -1.46744 0
M  V30 3783 C 377.848 1.69827 -1.52427 0
M  V30 3784 C 378.826 1.58151 -0.377744 0
M  V30 3785 O 380.01 1.79257 -0.58303 0
M  V30 3786 C 377.137 3.07943 -1.41027 0
M  V30 3787 C 376.183 3.38116 -2.59961 0
M  V30 3788 S 377.016 3.29313 -4.22272 0
M  V30 3789 C 378.172 4.69953 -4.13394 0
M  V30 3790 H 378.405 1.64748 -2.47478 0
M  V30 3791 H 375.938 0.754203 -1.34726 0
M  V30 3792 H 377.896 3.87619 -1.35137 0
M  V30 3793 H 376.557 3.10504 -0.473909 0
M  V30 3794 H 375.75 4.38762 -2.47999 0
M  V30 3795 H 375.352 2.66024 -2.62882 0
M  V30 3796 H 377.644 5.60517 -3.80562 0
M  V30 3797 H 378.587 4.86972 -5.14066 0
M  V30 3798 H 378.995 4.47174 -3.44522 0
M  V30 3799 N 378.394 1.34581 0.820102 0
M  V30 3800 C 379.342 1.26401 1.95258 0
M  V30 3801 C 380.336 0.161553 1.68628 0
M  V30 3802 O 381.542 0.326703 1.7701 0
M  V30 3803 H 377.917 0.392749 0.64129 0
M  V30 3804 H 379.888 2.22105 1.99279 0
M  V30 3805 C 378.637 1.03919 3.31807 0
M  V30 3806 H 377.96 1.87984 3.52848 0
M  V30 3807 H 379.4 1.02232 4.11491 0
M  V30 3808 C 377.859 -0.257433 3.35915 0
M  V30 3809 O 378.389 -1.25784 3.81499 0
M  V30 3810 N 376.595 -0.291524 2.89134 0
M  V30 3811 H 376.142 0.523161 2.52232 0
M  V30 3812 H 376.1 -1.15883 2.92264 0
M  V30 3813 N 379.872 -1.04064 1.18357 0
M  V30 3814 C 380.782 -2.15569 0.925596 0
M  V30 3815 C 381.798 -1.7365 -0.110295 0
M  V30 3816 O 382.974 -2.01273 0.0716218 0
M  V30 3817 C 380.039 -3.43704 0.454836 0
M  V30 3818 C 379.1 -4.00004 1.55869 0
M  V30 3819 C 378.333 -5.22023 1.1103 0
M  V30 3820 O 378.556 -5.70392 -0.0309756 0
M  V30 3821 O 377.49 -5.70856 1.90805 0
M  V30 3822 H 381.316 -2.40187 1.8586 0
M  V30 3823 H 378.901 -1.1402 0.965394 0
M  V30 3824 H 380.783 -4.20923 0.200382 0
M  V30 3825 H 379.458 -3.20559 -0.449876 0
M  V30 3826 H 378.365 -3.24172 1.86716 0
M  V30 3827 H 379.698 -4.2749 2.43953 0
M  V30 3828 N 381.35 -0.985608 -1.22978 0
M  V30 3829 C 382.28 -0.549649 -2.26939 0
M  V30 3830 C 383.261 0.419803 -1.64838 0
M  V30 3831 O 384.446 0.31203 -1.91677 0
M  V30 3832 C 381.576 0.143652 -3.47003 0
M  V30 3833 C 380.53 -0.743606 -4.21491 0
M  V30 3834 C 379.856 0.0822027 -5.34637 0
M  V30 3835 C 381.156 -2.03694 -4.80943 0
M  V30 3836 H 382.85 -1.41862 -2.63658 0
M  V30 3837 H 380.396 -0.683571 -1.26741 0
M  V30 3838 H 382.349 0.459985 -4.18882 0
M  V30 3839 H 381.073 1.04711 -3.09359 0
M  V30 3840 H 379.732 -1.04347 -3.51436 0
M  V30 3841 H 379.38 0.986359 -4.93234 0
M  V30 3842 H 379.08 -0.508377 -5.85397 0
M  V30 3843 H 380.604 0.392797 -6.09335 0
M  V30 3844 H 382.018 -1.78504 -5.44802 0
M  V30 3845 H 380.415 -2.57573 -5.42011 0
M  V30 3846 H 381.485 -2.72042 -4.01399 0
M  V30 3847 N 382.828 1.3818 -0.7579 0
M  V30 3848 C 383.738 2.3421 -0.135247 0
M  V30 3849 C 384.754 1.59487 0.695683 0
M  V30 3850 O 385.93 1.91657 0.618832 0
M  V30 3851 C 382.995 3.3862 0.744139 0
M  V30 3852 C 382.056 4.2918 -0.101658 0
M  V30 3853 C 381.289 5.28603 0.735851 0
M  V30 3854 O 381.512 5.35166 1.97366 0
M  V30 3855 O 380.446 6.01707 0.152372 0
M  V30 3856 H 384.272 2.8916 -0.928436 0
M  V30 3857 H 381.857 1.40101 -0.518855 0
M  V30 3858 H 383.739 4.02539 1.2466 0
M  V30 3859 H 382.414 2.86019 1.51575 0
M  V30 3860 H 381.321 3.68407 -0.650167 0
M  V30 3861 H 382.654 4.85048 -0.836024 0
M  V30 3862 N 384.306 0.507319 1.49211 0
M  V30 3863 C 385.236 -0.256939 2.32082 0
M  V30 3864 C 386.217 -0.956609 1.40652 0
M  V30 3865 O 387.402 -0.946788 1.69557 0
M  V30 3866 C 384.532 -1.31802 3.21318 0
M  V30 3867 C 383.486 -0.737855 4.21592 0
M  V30 3868 C 382.812 -1.89992 4.99807 0
M  V30 3869 C 384.112 0.275325 5.21574 0
M  V30 3870 H 385.806 0.434798 2.96226 0
M  V30 3871 H 383.352 0.210546 1.42452 0
M  V30 3872 H 385.305 -1.86045 3.78107 0
M  V30 3873 H 384.029 -2.03903 2.5513 0
M  V30 3874 H 382.688 -0.217126 3.65956 0
M  V30 3875 H 382.336 -2.60877 4.30061 0
M  V30 3876 H 382.036 -1.51777 5.6766 0
M  V30 3877 H 383.56 -2.44657 5.59442 0
M  V30 3878 H 384.974 -0.179193 5.7302 0
M  V30 3879 H 383.371 0.573649 5.97352 0
M  V30 3880 H 384.441 1.18903 4.70096 0
M  V30 3881 N 385.784 -1.5574 0.241426 0
M  V30 3882 C 386.731 -2.21149 -0.660432 0
M  V30 3883 C 387.701 -1.17356 -1.17545 0
M  V30 3884 O 388.886 -1.45784 -1.23093 0
M  V30 3885 C 386.026 -2.91059 -1.85414 0
M  V30 3886 C 385.139 -4.09495 -1.37616 0
M  V30 3887 C 384.274 -4.67135 -2.529 0
M  V30 3888 C 383.313 -5.77831 -2.01936 0
M  V30 3889 N 382.45 -6.29677 -3.10566 0
M  V30 3890 H 387.29 -2.97845 -0.095955 0
M  V30 3891 H 384.827 -1.47057 -0.0356024 0
M  V30 3892 H 386.785 -3.29788 -2.5553 0
M  V30 3893 H 385.415 -2.16846 -2.39118 0
M  V30 3894 H 384.467 -3.76117 -0.569235 0
M  V30 3895 H 385.779 -4.89423 -0.962618 0
M  V30 3896 H 384.933 -5.08409 -3.31067 0
M  V30 3897 H 383.672 -3.86411 -2.97553 0
M  V30 3898 H 382.677 -5.36039 -1.22238 0
M  V30 3899 H 383.902 -6.60402 -1.58259 0
M  V30 3900 H 381.848 -5.5186 -3.54664 0
M  V30 3901 H 381.765 -7.04783 -2.73526 0
M  V30 3902 H 383.033 -6.75609 -3.88809 0
M  V30 3903 O 387.301 -0.105854 -1.61153 0
M  V30 3904 H 387.992 0.494986 -1.87269 0
M  V30 END ATOM
M  V30 BEGIN BOND
M  V30 END BOND
M  V30 END CTAB
M  END
$$$$
