drugbank_target|P08506 D-alanyl-D-alanine carboxypeptidase DacC (DB00274; DB00303; DB00430; DB01329; DB01331; DB01332)
 OpenBabel12092120363D

  0  0  0     0  0            999 V3000
M  V30 BEGIN CTAB
M  V30 COUNTS 6147 6211 0 0 0
M  V30 BEGIN ATOM
M  V30 1 H -0.908 1.98254 -0.117106 0
M  V30 2 N 0 1.576 0 0
M  V30 3 C 0.933 2.03868 1.02534 0
M  V30 4 C 1.911 0.928543 1.3348 0
M  V30 5 O 3.095 1.19667 1.45644 0
M  V30 6 C 0.222 2.43627 2.35294 0
M  V30 7 C -0.732 3.65373 2.2001 0
M  V30 8 S 0.101 5.13292 1.52614 0
M  V30 9 C 1.257 5.56322 2.86805 0
M  V30 10 H 1.49 2.90518 0.631377 0
M  V30 11 H -0.977 1.52953 0.210867 0
M  V30 12 H 0.981 2.67203 3.11629 0
M  V30 13 H -0.358 1.57376 2.7183 0
M  V30 14 H -1.165 3.90944 3.18086 0
M  V30 15 H -1.563 3.418 1.51819 0
M  V30 16 H 0.729 5.58782 3.83104 0
M  V30 17 H 1.672 6.56266 2.65933 0
M  V30 18 H 2.08 4.83886 2.90714 0
M  V30 19 N 1.4781 -0.272755 1.55222 0
M  V30 20 C 2.7061 -1.02255 1.79865 0
M  V30 21 C 3.1211 -1.79924 0.572088 0
M  V30 22 O 2.4781 -1.76638 -0.458842 0
M  V30 23 C 2.5291 -1.98094 3.02392 0
M  V30 24 O 2.2501 -1.23572 4.20311 0
M  V30 25 C 3.7511 -2.84884 3.39641 0
M  V30 26 H 0.9711 -0.302057 0.599168 0
M  V30 27 H 3.5151 -0.303465 2.02236 0
M  V30 28 H 1.6701 -2.65465 2.82147 0
M  V30 29 H 2.0841 -1.88172 4.89583 0
M  V30 30 H 3.5581 -3.47927 4.28545 0
M  V30 31 H 4.0351 -3.54665 2.59055 0
M  V30 32 H 4.6411 -2.23003 3.62146 0
M  V30 33 N 2.9562 -1.48159 -0.537278 0
M  V30 34 C 3.8882 -1.58218 -1.65831 0
M  V30 35 C 4.9012 -0.466948 -1.5596 0
M  V30 36 O 6.0902 -0.73747 -1.62553 0
M  V30 37 C 3.1902 -1.48906 -3.04434 0
M  V30 38 C 2.3632 -2.75343 -3.3986 0
M  V30 39 C 1.4222 -2.59588 -4.57712 0
M  V30 40 O 0.4482 -3.33457 -4.61297 0
M  V30 41 N 1.6502 -1.68724 -5.55439 0
M  V30 42 H 4.4152 -2.54891 -1.57641 0
M  V30 43 H 1.9762 -1.4479 -0.724386 0
M  V30 44 H 3.9682 -1.36072 -3.81139 0
M  V30 45 H 2.5382 -0.602368 -3.06741 0
M  V30 46 H 1.7582 -3.02795 -2.52406 0
M  V30 47 H 3.0462 -3.5924 -3.60311 0
M  V30 48 H 2.4442 -1.07898 -5.55315 0
M  V30 49 H 1.0012 -1.61832 -6.3139 0
M  V30 50 N 4.4343 0.785586 -1.36625 0
M  V30 51 C 5.6643 1.5722 -1.34036 0
M  V30 52 C 6.0723 1.89033 0.0795062 0
M  V30 53 O 5.4153 1.50881 1.04789 0
M  V30 54 C 5.4773 2.91759 -2.10041 0
M  V30 55 C 5.1413 2.82654 -3.59104 0
M  V30 56 C 6.1383 2.54634 -4.53274 0
M  V30 57 C 3.8233 3.01111 -4.02042 0
M  V30 58 C 5.8173 2.45177 -5.88359 0
M  V30 59 C 3.5043 2.91276 -5.37216 0
M  V30 60 C 4.5023 2.63348 -6.30188 0
M  V30 61 O 4.1903 2.53514 -7.6288 0
M  V30 62 H 3.9223 0.494177 -0.461265 0
M  V30 63 H 6.4763 0.982632 -1.8037 0
M  V30 64 H 4.7063 3.52781 -1.58375 0
M  V30 65 H 6.3953 3.53059 -2.00261 0
M  V30 66 H 7.1613 2.40073 -4.21414 0
M  V30 67 H 3.0403 3.21854 -3.30047 0
M  V30 68 H 6.5843 2.23299 -6.60896 0
M  V30 69 H 2.4813 3.054 -5.68684 0
M  V30 70 H 3.2493 2.68967 -7.73045 0
M  V30 71 N 5.9124 1.20967 1.01018 0
M  V30 72 C 7.1374 1.0503 1.78839 0
M  V30 73 C 7.5624 -0.395752 1.8389 0
M  V30 74 O 6.9204 -1.28529 1.27867 0
M  V30 75 C 6.9684 1.64602 3.2084 0
M  V30 76 O 6.0724 0.887988 4.02726 0
M  V30 77 H 5.4134 0.369987 0.551367 0
M  V30 78 H 7.9434 1.60399 1.27018 0
M  V30 79 H 7.9534 1.68607 3.71532 0
M  V30 80 H 6.6284 2.69841 3.16479 0
M  V30 81 H 5.2054 0.922648 3.61305 0
M  V30 82 N 7.3905 -1.2043 1.01659 0
M  V30 83 C 8.6155 -1.94318 0.724942 0
M  V30 84 C 9.0405 -1.74266 -0.708034 0
M  V30 85 O 8.3985 -1.03694 -1.48719 0
M  V30 86 C 8.4465 -3.44486 1.06591 0
M  V30 87 O 7.5505 -4.12017 0.177599 0
M  V30 88 H 6.8915 -0.60708 0.26898 0
M  V30 89 H 9.4215 -1.52861 1.35995 0
M  V30 90 H 9.4315 -3.95106 1.01762 0
M  V30 91 H 8.1065 -3.58404 2.10997 0
M  V30 92 H 6.6835 -3.71821 0.283421 0
M  V30 93 N 8.8686 -0.792821 -1.36206 0
M  V30 94 C 9.7986 -0.207853 -2.32573 0
M  V30 95 C 10.7796 0.659055 -1.56813 0
M  V30 96 O 11.9646 0.592176 -1.84951 0
M  V30 97 C 9.0946 0.655449 -3.41059 0
M  V30 98 C 8.0486 -0.111842 -4.27854 0
M  V30 99 C 7.3746 0.872274 -5.27537 0
M  V30 100 C 8.6746 -1.30299 -5.05786 0
M  V30 101 H 10.3686 -1.01294 -2.81744 0
M  V30 102 H 7.9146 -0.48854 -1.3546 0
M  V30 103 H 9.8676 1.07464 -4.07467 0
M  V30 104 H 8.5916 1.49328 -2.90463 0
M  V30 105 H 7.2506 -0.512053 -3.63006 0
M  V30 106 H 6.8986 1.70523 -4.73214 0
M  V30 107 H 6.5986 0.363291 -5.86476 0
M  V30 108 H 8.1226 1.28996 -5.96818 0
M  V30 109 H 9.5366 -0.959379 -5.65216 0
M  V30 110 H 7.9336 -1.7455 -5.74154 0
M  V30 111 H 9.0036 -2.09663 -4.37229 0
M  V30 112 N 10.3467 1.47872 -0.545128 0
M  V30 113 C 11.2767 2.32661 0.197793 0
M  V30 114 C 12.2577 1.43041 0.920504 0
M  V30 115 O 13.4427 1.71912 0.90333 0
M  V30 116 C 10.5727 3.24569 1.23582 0
M  V30 117 C 9.5267 4.23333 0.630323 0
M  V30 118 C 8.8527 5.0448 1.77211 0
M  V30 119 C 10.1527 5.20704 -0.407974 0
M  V30 120 H 11.8467 2.95024 -0.510045 0
M  V30 121 H 9.3927 1.4187 -0.246731 0
M  V30 122 H 11.3457 3.8272 1.76362 0
M  V30 123 H 10.0697 2.60236 1.97344 0
M  V30 124 H 8.7287 3.6639 0.123922 0
M  V30 125 H 8.3767 4.36561 2.49847 0
M  V30 126 H 8.0767 5.71339 1.37281 0
M  V30 127 H 9.6007 5.65487 2.3034 0
M  V30 128 H 11.0147 5.7329 0.033305 0
M  V30 129 H 9.4117 5.95699 -0.725486 0
M  V30 130 H 10.4817 4.66917 -1.30828 0
M  V30 131 N 11.8248 0.280983 1.55075 0
M  V30 132 C 13.2408 -0.0729964 1.59433 0
M  V30 133 C 13.4408 -1.5411 1.29817 0
M  V30 134 O 12.4968 -2.29086 1.06187 0
M  V30 135 C 13.8098 0.306921 2.9913 0
M  V30 136 C 15.3578 0.254023 3.11968 0
M  V30 137 C 15.8328 0.608467 4.5394 0
M  V30 138 N 17.3238 0.560241 4.59799 0
M  V30 139 C 18.0588 0.80722 5.6769 0
M  V30 140 N 17.5548 1.11912 6.83701 0
M  V30 141 N 19.3478 0.735623 5.57266 0
M  V30 142 H 11.4988 1.238 1.7259 0
M  V30 143 H 13.7618 0.500547 0.805082 0
M  V30 144 H 13.4678 1.32816 3.25657 0
M  V30 145 H 13.3418 -0.349363 3.75579 0
M  V30 146 H 15.7288 -0.75794 2.852 0
M  V30 147 H 15.8098 0.944649 2.37718 0
M  V30 148 H 15.4538 1.61814 4.81434 0
M  V30 149 H 15.3838 -0.104013 5.26497 0
M  V30 150 H 17.8748 0.329288 3.76463 0
M  V30 151 H 18.1878 1.29409 7.61888 0
M  V30 152 H 16.5328 1.15695 6.85303 0
M  V30 153 H 19.7238 0.491752 4.6551 0
M  V30 154 H 19.8968 0.931482 6.4127 0
M  V30 155 N 13.3029 -1.57598 0.00835791 0
M  V30 156 C 14.5509 -1.90551 -0.6734 0
M  V30 157 C 14.8719 -0.883301 -1.73847 0
M  V30 158 O 14.1419 0.0781442 -1.95744 0
M  V30 159 H 12.7219 -0.703312 -0.251717 0
M  V30 160 H 15.3839 -1.94833 0.0512592 0
M  V30 161 H 14.4799 -2.9056 -1.13935 0
M  V30 162 N 14.781 0.264519 -1.55364 0
M  V30 163 C 15.711 1.33121 -1.91836 0
M  V30 164 C 16.692 1.51101 -0.781192 0
M  V30 165 O 17.877 1.64003 -1.04003 0
M  V30 166 C 15.007 2.68921 -2.19769 0
M  V30 167 C 13.961 2.65661 -3.35571 0
M  V30 168 C 13.287 4.05093 -3.49004 0
M  V30 169 C 14.587 2.24187 -4.71739 0
M  V30 170 H 16.281 1.02844 -2.81182 0
M  V30 171 H 13.827 0.493286 -1.35287 0
M  V30 172 H 15.78 3.43663 -2.43872 0
M  V30 173 H 14.504 3.00799 -1.27231 0
M  V30 174 H 13.163 1.93377 -3.1145 0
M  V30 175 H 12.811 4.34206 -2.53917 0
M  V30 176 H 12.511 4.03804 -4.26868 0
M  V30 177 H 14.035 4.81561 -3.75408 0
M  V30 178 H 15.449 2.88654 -4.9533 0
M  V30 179 H 13.846 2.34044 -5.52579 0
M  V30 180 H 14.916 1.19327 -4.69988 0
M  V30 181 N 16.2591 1.48442 0.529413 0
M  V30 182 C 17.2221 1.62524 1.61612 0
M  V30 183 C 18.2221 0.498509 1.52877 0
M  V30 184 O 19.4121 0.76431 1.56537 0
M  V30 185 C 16.5441 1.59597 3.01233 0
M  V30 186 H 17.7371 2.59423 1.50465 0
M  V30 187 H 15.2901 1.37047 0.751514 0
M  V30 188 H 16.0251 0.641781 3.17886 0
M  V30 189 H 15.8101 2.41397 3.08982 0
M  V30 190 H 17.3001 1.72646 3.80241 0
M  V30 191 N 17.7372 -0.778329 1.37039 0
M  V30 192 C 18.7002 -1.87301 1.32102 0
M  V30 193 C 19.7002 -1.59198 0.226405 0
M  V30 194 O 20.8902 -1.67403 0.481861 0
M  V30 195 C 18.0222 -3.24309 1.05055 0
M  V30 196 H 19.2152 -1.93093 2.29467 0
M  V30 197 H 16.7682 -0.977358 1.21973 0
M  V30 198 H 17.5032 -3.24196 0.0819373 0
M  V30 199 H 17.2882 -3.46098 1.84279 0
M  V30 200 H 18.7782 -4.04382 1.04234 0
M  V30 201 N 19.2153 -1.21501 -1.00376 0
M  V30 202 C 20.4633 -1.03095 -1.73827 0
M  V30 203 C 20.7843 0.436341 -1.90055 0
M  V30 204 O 20.0543 1.31466 -1.45236 0
M  V30 205 H 18.6343 -0.378487 -0.644016 0
M  V30 206 H 21.2963 -1.52831 -1.20949 0
M  V30 207 H 20.3923 -1.49991 -2.73695 0
M  V30 208 N 20.6934 1.19889 -1.02296 0
M  V30 209 C 21.9184 1.9393 -0.735237 0
M  V30 210 C 22.3434 1.74639 0.698782 0
M  V30 211 O 21.7014 1.04481 1.48167 0
M  V30 212 C 21.7494 3.43916 -1.08417 0
M  V30 213 O 20.8534 4.11917 -0.199446 0
M  V30 214 H 20.1944 0.605645 -0.272196 0
M  V30 215 H 22.7244 1.52137 -1.36804 0
M  V30 216 H 22.7344 3.9456 -1.03856 0
M  V30 217 H 21.4094 3.5728 -2.12894 0
M  V30 218 H 19.9864 3.71666 -0.303136 0
M  V30 219 N 22.1715 0.800033 1.35784 0
M  V30 220 C 23.1345 0.211565 2.28221 0
M  V30 221 C 24.1345 -0.59728 1.49296 0
M  V30 222 O 25.3245 -0.416721 1.69142 0
M  V30 223 C 22.4565 -0.705846 3.33513 0
M  V30 224 H 23.6495 1.02677 2.81776 0
M  V30 225 H 21.2025 0.570211 1.45528 0
M  V30 226 H 21.9375 -1.54498 2.85133 0
M  V30 227 H 21.7225 -0.127655 3.91892 0
M  V30 228 H 23.2125 -1.11211 4.02519 0
M  V30 229 N 23.6496 -1.47581 0.552962 0
M  V30 230 C 24.8966 -2.02482 0.0273243 0
M  V30 231 C 25.2246 -1.42776 -1.32081 0
M  V30 232 O 24.4796 -0.571393 -1.87173 0
M  V30 233 C 24.7786 -3.57199 -0.119728 0
M  V30 234 C 24.4446 -4.35804 1.15697 0
M  V30 235 C 23.1066 -4.57 1.50681 0
M  V30 236 C 25.4586 -4.81167 2.00319 0
M  V30 237 C 22.7866 -5.20807 2.70142 0
M  V30 238 C 25.1386 -5.46293 3.18978 0
M  V30 239 C 23.8026 -5.65722 3.54281 0
M  V30 240 H 23.0726 -0.740933 0.00999866 0
M  V30 241 H 25.7196 -1.77302 0.72362 0
M  V30 242 H 24.0246 -3.81348 -0.89896 0
M  V30 243 H 25.7216 -3.97324 -0.541718 0
M  V30 244 H 22.3116 -4.19582 0.874561 0
M  V30 245 H 26.4956 -4.64574 1.74599 0
M  V30 246 H 21.7516 -5.34045 2.97668 0
M  V30 247 H 25.9256 -5.80407 3.84838 0
M  V30 248 H 23.5526 -6.14936 4.46942 0
M  V30 249 N 25.1277 -0.289203 -1.54924 0
M  V30 250 C 26.0577 0.58549 -2.2604 0
M  V30 251 C 27.0387 1.14753 -1.25562 0
M  V30 252 O 28.2237 1.17906 -1.54311 0
M  V30 253 C 25.3537 1.76305 -2.99222 0
M  V30 254 C 24.3077 1.33191 -4.06748 0
M  V30 255 C 23.6337 2.5937 -4.6758 0
M  V30 256 C 24.9337 0.471775 -5.20165 0
M  V30 257 H 26.6277 -0.00763532 -2.99399 0
M  V30 258 H 24.1737 -0.00511229 -1.43999 0
M  V30 259 H 26.1267 2.38097 -3.47689 0
M  V30 260 H 24.8507 2.38223 -2.23422 0
M  V30 261 H 23.5097 0.737121 -3.59113 0
M  V30 262 H 23.1577 3.19576 -3.88433 0
M  V30 263 H 22.8577 2.31228 -5.40192 0
M  V30 264 H 24.3817 3.21985 -5.18804 0
M  V30 265 H 25.7957 0.995056 -5.64599 0
M  V30 266 H 24.1927 0.284639 -5.99425 0
M  V30 267 H 25.2627 -0.506041 -4.82252 0
M  V30 268 N 26.6058 1.57591 -0.0167156 0
M  V30 269 C 27.8528 1.91283 0.664597 0
M  V30 270 C 28.1808 0.891949 1.72842 0
M  V30 271 O 27.4358 -0.100931 1.9544 0
M  V30 272 C 27.7348 3.3172 1.33029 0
M  V30 273 C 27.4008 4.4914 0.398047 0
M  V30 274 C 26.0628 4.80992 0.141421 0
M  V30 275 C 28.4148 5.20634 -0.242825 0
M  V30 276 C 25.7428 5.81703 -0.764092 0
M  V30 277 C 28.0948 6.22311 -1.13632 0
M  V30 278 C 26.7588 6.52611 -1.40196 0
M  V30 279 H 26.0288 0.699956 0.243193 0
M  V30 280 H 28.6758 1.9135 -0.0758267 0
M  V30 281 H 26.9808 3.27856 2.14517 0
M  V30 282 H 28.6778 3.55055 1.86379 0
M  V30 283 H 25.2678 4.24262 0.608238 0
M  V30 284 H 29.4518 4.96267 -0.0576019 0
M  V30 285 H 24.7078 6.03532 -0.977732 0
M  V30 286 H 28.8818 6.76834 -1.63917 0
M  V30 287 H 26.5088 7.30467 -2.10529 0
M  V30 288 N 28.0839 -0.256276 1.55502 0
M  V30 289 C 29.0139 -1.32102 1.92539 0
M  V30 290 C 29.9949 -1.50684 0.789194 0
M  V30 291 O 31.1799 -1.63449 1.04872 0
M  V30 292 C 28.3099 -2.67752 2.21192 0
M  V30 293 C 27.2639 -2.63878 3.36975 0
M  V30 294 C 26.5899 -4.03236 3.51147 0
M  V30 295 C 27.8899 -2.21682 4.72921 0
M  V30 296 H 29.5839 -1.01351 2.81724 0
M  V30 297 H 27.1299 -0.486105 1.35547 0
M  V30 298 H 29.0829 -3.42365 2.45691 0
M  V30 299 H 27.8069 -3.0012 1.28824 0
M  V30 300 H 26.4659 -1.91722 3.12471 0
M  V30 301 H 26.1139 -4.32854 2.56216 0
M  V30 302 H 25.8139 -4.01535 4.29003 0
M  V30 303 H 27.3379 -4.79563 3.77957 0
M  V30 304 H 28.7519 -2.86023 4.96854 0
M  V30 305 H 27.1489 -2.3111 5.53812 0
M  V30 306 H 28.2189 -1.16833 4.70615 0
M  V30 307 N 29.562 -1.4872 -0.521534 0
M  V30 308 C 30.809 -1.57168 -1.27689 0
M  V30 309 C 31.137 -0.249275 -1.92896 0
M  V30 310 O 30.392 0.761162 -1.80291 0
M  V30 311 C 30.691 -2.66497 -2.38148 0
M  V30 312 C 30.357 -4.08664 -1.90538 0
M  V30 313 C 29.019 -4.47357 -1.77271 0
M  V30 314 C 31.371 -4.97724 -1.54663 0
M  V30 315 C 28.699 -5.72905 -1.26478 0
M  V30 316 C 31.051 -6.2377 -1.05329 0
M  V30 317 C 29.715 -6.61311 -0.906861 0
M  V30 318 H 28.985 -0.575117 -0.467249 0
M  V30 319 H 31.632 -1.82472 -0.581051 0
M  V30 320 H 29.937 -2.35085 -3.13437 0
M  V30 321 H 31.634 -2.70246 -2.96257 0
M  V30 322 H 28.224 -3.78111 -2.01816 0
M  V30 323 H 32.408 -4.68501 -1.63768 0
M  V30 324 H 27.664 -6.00709 -1.13835 0
M  V30 325 H 31.838 -6.9217 -0.76644 0
M  V30 326 H 29.465 -7.5848 -0.511083 0
M  V30 327 N 31.0401 0.771051 -1.3745 0
M  V30 328 C 32.0031 1.86598 -1.33093 0
M  V30 329 C 33.0031 1.59076 -0.234845 0
M  V30 330 O 34.1931 1.67145 -0.490732 0
M  V30 331 C 31.3251 3.23747 -1.06773 0
M  V30 332 H 32.5181 1.91873 -2.30488 0
M  V30 333 H 30.0711 0.970876 -1.2249 0
M  V30 334 H 30.8061 3.24148 -0.099129 0
M  V30 335 H 30.5911 3.45115 -1.86112 0
M  V30 336 H 32.0811 4.03824 -1.06377 0
M  V30 337 N 32.5182 1.22032 0.997298 0
M  V30 338 C 33.9292 1.0397 1.55071 0
M  V30 339 C 34.2802 -0.398192 1.92117 0
M  V30 340 O 33.4052 -1.28254 1.74298 0
M  V30 341 C 34.0002 1.88109 2.81781 0
M  V30 342 C 32.5592 1.74357 3.33581 0
M  V30 343 C 31.7062 1.84846 2.06706 0
M  V30 344 H 34.6572 1.35941 0.818883 0
M  V30 345 H 34.6782 1.39589 3.53971 0
M  V30 346 H 34.1902 2.92754 2.54787 0
M  V30 347 H 32.2912 0.72427 3.65493 0
M  V30 348 H 32.4042 2.56772 4.04481 0
M  V30 349 H 30.7682 1.28238 2.20062 0
M  V30 350 H 31.5512 2.91014 1.82114 0
M  V30 351 N 33.9963 -1.19345 1.0293 0
M  V30 352 C 35.2243 -1.92997 0.745644 0
M  V30 353 C 35.6393 -1.75519 -0.695589 0
M  V30 354 O 34.9963 -1.07737 -1.47306 0
M  V30 355 C 35.0473 -3.44741 1.08792 0
M  V30 356 O 34.7683 -3.61658 2.47256 0
M  V30 357 C 36.2693 -4.35515 0.827129 0
M  V30 358 H 33.4893 -0.613042 0.272801 0
M  V30 359 H 36.0333 -1.51473 1.3739 0
M  V30 360 H 34.1883 -3.84097 0.504832 0
M  V30 361 H 34.6023 -4.55514 2.60015 0
M  V30 362 H 36.0763 -5.40589 1.11658 0
M  V30 363 H 36.5533 -4.38552 -0.238436 0
M  V30 364 H 37.1593 -4.01841 1.39297 0
M  V30 365 N 35.4744 -0.807222 -1.35358 0
M  V30 366 C 36.4374 -0.223665 -2.28106 0
M  V30 367 C 37.4374 0.589354 -1.4961 0
M  V30 368 O 38.6274 0.407745 -1.69361 0
M  V30 369 C 35.7594 0.688149 -3.33882 0
M  V30 370 H 36.9524 -1.04169 -2.81227 0
M  V30 371 H 34.5054 -0.577921 -1.45223 0
M  V30 372 H 35.2404 1.52984 -2.85948 0
M  V30 373 H 35.0254 0.10687 -3.91954 0
M  V30 374 H 36.5154 1.09075 -4.03104 0
M  V30 375 N 36.9525 1.47285 -0.560781 0
M  V30 376 C 38.1995 2.02464 -0.038062 0
M  V30 377 C 38.5275 1.43474 1.31322 0
M  V30 378 O 37.7825 0.581311 1.86867 0
M  V30 379 C 38.0815 3.57258 0.100784 0
M  V30 380 C 37.7475 4.35184 -1.18007 0
M  V30 381 C 36.4095 4.56194 -1.53103 0
M  V30 382 C 38.7615 4.80098 -2.02867 0
M  V30 383 C 36.0895 5.19367 -2.729 0
M  V30 384 C 38.4415 5.44593 -3.21871 0
M  V30 385 C 37.1055 5.63835 -3.57276 0
M  V30 386 H 36.3755 0.740869 -0.0139279 0
M  V30 387 H 39.0225 1.76916 -0.733012 0
M  V30 388 H 37.3275 3.81819 0.878724 0
M  V30 389 H 39.0245 3.97606 0.520639 0
M  V30 390 H 35.6145 4.19113 -0.8968 0
M  V30 391 H 39.7985 4.63642 -1.7706 0
M  V30 392 H 35.0545 5.32459 -3.00496 0
M  V30 393 H 39.2285 5.78358 -3.87911 0
M  V30 394 H 36.8555 6.12557 -4.50197 0
M  V30 395 N 38.4306 0.297415 1.54768 0
M  V30 396 C 39.3936 -0.567375 2.22066 0
M  V30 397 C 40.3936 -1.06409 1.20556 0
M  V30 398 O 41.5836 -0.960691 1.45315 0
M  V30 399 C 38.7156 -1.78517 2.90421 0
M  V30 400 H 39.9086 0.0205534 2.99893 0
M  V30 401 H 37.4616 0.0482163 1.56226 0
M  V30 402 H 38.1966 -2.41303 2.16664 0
M  V30 403 H 37.9816 -1.43669 3.64831 0
M  V30 404 H 39.4716 -2.39964 3.41771 0
M  V30 405 N 39.9087 -1.5758 0.0250728 0
M  V30 406 C 40.8717 -2.08896 -0.943139 0
M  V30 407 C 41.8717 -1.00321 -1.25668 0
M  V30 408 O 43.0617 -1.26495 -1.19769 0
M  V30 409 C 40.1937 -2.55143 -2.26086 0
M  V30 410 H 41.3867 -2.95723 -0.498775 0
M  V30 411 H 38.9397 -1.54703 -0.222888 0
M  V30 412 H 39.6747 -1.71633 -2.75159 0
M  V30 413 H 39.4597 -3.34461 -2.04641 0
M  V30 414 H 40.9497 -2.95083 -2.95492 0
M  V30 415 N 41.3868 0.248026 -1.55636 0
M  V30 416 C 42.2968 1.32859 -1.93354 0
M  V30 417 C 43.3128 1.52719 -0.833838 0
M  V30 418 O 44.4888 1.66363 -1.13513 0
M  V30 419 C 41.5538 2.66337 -2.21958 0
M  V30 420 C 40.6148 2.55008 -3.45354 0
M  V30 421 C 39.8478 3.82121 -3.72584 0
M  V30 422 O 40.0708 4.83951 -3.01907 0
M  V30 423 O 39.0048 3.80822 -4.6611 0
M  V30 424 H 42.8308 1.03862 -2.85388 0
M  V30 425 H 40.4158 0.448686 -1.42503 0
M  V30 426 H 42.2978 3.45216 -2.4167 0
M  V30 427 H 40.9728 2.95068 -1.33103 0
M  V30 428 H 39.8798 1.7442 -3.30951 0
M  V30 429 H 41.2128 2.31222 -4.34508 0
M  V30 430 N 42.8649 1.48995 0.513639 0
M  V30 431 C 43.7969 1.60836 1.63293 0
M  V30 432 C 44.8099 0.491701 1.55197 0
M  V30 433 O 45.9989 0.763238 1.6136 0
M  V30 434 C 43.0989 1.53731 3.02027 0
M  V30 435 C 42.2719 2.80715 3.35437 0
M  V30 436 C 41.3309 2.66837 4.53525 0
M  V30 437 O 40.3569 3.40753 4.55934 0
M  V30 438 N 41.5589 1.77539 5.52684 0
M  V30 439 H 44.3239 2.57366 1.53566 0
M  V30 440 H 41.8849 1.45925 0.701259 0
M  V30 441 H 43.8769 1.42118 3.78926 0
M  V30 442 H 42.4469 0.651092 3.05744 0
M  V30 443 H 41.6669 3.06772 2.47557 0
M  V30 444 H 42.9549 3.64927 3.54551 0
M  V30 445 H 42.3529 1.16719 5.53528 0
M  V30 446 H 40.9099 1.71856 6.28736 0
M  V30 447 N 44.343 -0.763751 1.37857 0
M  V30 448 C 45.571 -1.55293 1.36718 0
M  V30 449 C 45.986 -1.88745 -0.0455434 0
M  V30 450 O 45.343 -1.52039 -1.00947 0
M  V30 451 C 45.394 -2.85831 2.2132 0
M  V30 452 O 45.115 -2.5381 3.57089 0
M  V30 453 C 46.616 -3.80023 2.28249 0
M  V30 454 H 43.836 -0.480841 0.468009 0
M  V30 455 H 46.38 -0.946009 1.81303 0
M  V30 456 H 44.535 -3.42926 1.80223 0
M  V30 457 H 44.949 -3.37459 4.01524 0
M  V30 458 H 46.423 -4.68599 2.91752 0
M  V30 459 H 46.9 -4.1973 1.2932 0
M  V30 460 H 47.506 -3.28855 2.69693 0
M  V30 461 N 45.8211 -1.22559 -0.990812 0
M  V30 462 C 47.0671 -1.05297 -1.73322 0
M  V30 463 C 47.4001 0.410655 -1.89808 0
M  V30 464 O 46.6751 1.30439 -1.44277 0
M  V30 465 C 46.9581 -1.76713 -3.13759 0
M  V30 466 C 46.8111 -3.30684 -3.04907 0
M  V30 467 C 48.1301 -1.52121 -4.12974 0
M  V30 468 H 45.2491 -0.38392 -0.629106 0
M  V30 469 H 47.8911 -1.50926 -1.15418 0
M  V30 470 H 46.0411 -1.37924 -3.63193 0
M  V30 471 H 47.7131 -3.7893 -2.63077 0
M  V30 472 H 45.9561 -3.60253 -2.41661 0
M  V30 473 H 46.6271 -3.75833 -4.04294 0
M  V30 474 H 49.1031 -1.85819 -3.72304 0
M  V30 475 H 47.9791 -2.04582 -5.0935 0
M  V30 476 H 48.2401 -0.454257 -4.3976 0
M  V30 477 N 47.2992 1.18797 -1.03562 0
M  V30 478 C 48.2092 2.25913 -0.632505 0
M  V30 479 C 49.2252 1.70668 0.338882 0
M  V30 480 O 50.4012 2.00453 0.195076 0
M  V30 481 C 47.4662 3.467 0.00350942 0
M  V30 482 C 46.5272 4.17098 -1.01624 0
M  V30 483 C 45.7602 5.32119 -0.410478 0
M  V30 484 O 45.9832 5.64976 0.784725 0
M  V30 485 O 44.9172 5.9107 -1.13667 0
M  V30 486 H 48.7432 2.62648 -1.52478 0
M  V30 487 H 46.3282 1.25781 -0.806195 0
M  V30 488 H 48.2102 4.19878 0.35781 0
M  V30 489 H 46.8852 3.11798 0.869686 0
M  V30 490 H 45.7922 3.4601 -1.42224 0
M  V30 491 H 47.1252 4.55987 -1.85301 0
M  V30 492 N 48.7773 0.814389 1.34928 0
M  V30 493 C 49.7403 0.235759 2.27984 0
M  V30 494 C 50.7403 -0.581412 1.49921 0
M  V30 495 O 51.9303 -0.398758 1.69575 0
M  V30 496 C 49.0623 -0.670433 3.34242 0
M  V30 497 H 50.2553 1.05659 2.80671 0
M  V30 498 H 47.8083 0.585614 1.44915 0
M  V30 499 H 48.5433 -1.51466 2.86755 0
M  V30 500 H 48.3283 -0.0860822 3.92005 0
M  V30 501 H 49.8183 -1.06935 4.03676 0
M  V30 502 N 50.2554 -1.46986 0.568584 0
M  V30 503 C 51.6664 -1.86188 0.138219 0
M  V30 504 C 52.0174 -1.47388 -1.29504 0
M  V30 505 O 51.1424 -0.88219 -1.97602 0
M  V30 506 C 51.7374 -3.3792 0.244065 0
M  V30 507 C 50.2964 -3.76171 -0.131335 0
M  V30 508 C 49.4434 -2.71027 0.586465 0
M  V30 509 H 52.3944 -1.38342 0.777645 0
M  V30 510 H 52.4154 -3.76729 -0.534351 0
M  V30 511 H 51.9274 -3.66128 1.28731 0
M  V30 512 H 50.0284 -3.5358 -1.17526 0
M  V30 513 H 50.1414 -4.78523 0.235146 0
M  V30 514 H 48.5054 -2.54684 0.0282722 0
M  V30 515 H 49.2884 -3.02077 1.63109 0
M  V30 516 N 51.7335 -0.305618 -1.54608 0
M  V30 517 C 52.9585 0.307562 -2.05107 0
M  V30 518 C 53.3835 1.46385 -1.18123 0
M  V30 519 O 52.7415 1.8034 -0.186324 0
M  V30 520 C 52.7895 0.73704 -3.52987 0
M  V30 521 O 51.8935 1.84134 -3.6901 0
M  V30 522 H 51.2345 0.0589143 -0.661381 0
M  V30 523 H 53.7645 -0.448807 -1.99617 0
M  V30 524 H 53.7745 1.02459 -3.94925 0
M  V30 525 H 52.4495 -0.108773 -4.15758 0
M  V30 526 H 51.0265 1.55398 -3.38978 0
M  V30 527 N 53.2116 1.57565 -0.0334293 0
M  V30 528 C 54.4576 1.92262 0.645226 0
M  V30 529 C 54.7906 0.910543 1.71531 0
M  V30 530 O 54.0656 -0.066099 1.94388 0
M  V30 531 C 54.3486 3.37422 1.2577 0
M  V30 532 C 54.2016 4.49369 0.196891 0
M  V30 533 C 55.5206 3.82628 2.17449 0
M  V30 534 H 52.6396 0.699171 0.233085 0
M  V30 535 H 55.2816 1.89779 -0.0915694 0
M  V30 536 H 53.4316 3.39669 1.88566 0
M  V30 537 H 55.1036 4.59254 -0.433962 0
M  V30 538 H 53.3466 4.31168 -0.477137 0
M  V30 539 H 54.0176 5.47978 0.665124 0
M  V30 540 H 56.4936 3.82145 1.64634 0
M  V30 541 H 55.3696 4.84883 2.57254 0
M  V30 542 H 55.6306 3.18376 3.0674 0
M  V30 543 N 54.6897 -0.239769 1.55765 0
M  V30 544 C 55.9667 -0.990056 1.68693 0
M  V30 545 C 56.3467 -2.03107 0.5754 0
M  V30 546 O 55.6947 -2.24604 -0.42017 0
M  V30 547 C 55.9047 -1.61696 3.09282 0
M  V30 548 C 57.2527 -2.11613 3.6811 0
M  V30 549 O 58.2767 -1.71624 3.12127 0
M  V30 550 O 57.1357 -2.85057 4.66267 0
M  V30 551 H 54.2297 -0.461299 0.686391 0
M  V30 552 H 56.7757 -0.232991 1.68093 0
M  V30 553 H 55.5477 -0.864357 3.81634 0
M  V30 554 H 55.1707 -2.44005 3.13923 0
M  V30 555 N 56.1678 -1.49265 -0.50573 0
M  V30 556 C 57.1308 -1.65075 -1.59006 0
M  V30 557 C 58.1308 -0.522768 -1.52065 0
M  V30 558 O 59.3208 -0.789117 -1.55302 0
M  V30 559 C 56.4528 -1.64369 -2.98656 0
M  V30 560 H 57.6458 -2.61784 -1.46319 0
M  V30 561 H 55.1988 -1.38226 -0.729616 0
M  V30 562 H 55.9338 -0.692272 -3.16825 0
M  V30 563 H 55.7188 -2.46282 -3.05103 0
M  V30 564 H 57.2088 -1.78674 -3.77446 0
M  V30 565 N 57.6459 0.756429 -1.3826 0
M  V30 566 C 59.0619 1.0591 -1.19395 0
M  V30 567 C 59.2619 2.01459 -0.0406567 0
M  V30 568 O 58.3179 2.44909 0.614467 0
M  V30 569 C 59.6309 1.64191 -2.51916 0
M  V30 570 C 61.1789 1.76376 -2.58574 0
M  V30 571 C 61.6539 2.38069 -3.91264 0
M  V30 572 N 63.1449 2.45503 -3.92788 0
M  V30 573 C 63.8799 2.94126 -4.92217 0
M  V30 574 N 63.3759 3.42805 -6.02043 0
M  V30 575 N 65.1689 2.9314 -4.7961 0
M  V30 576 H 57.3199 0.122313 -2.12048 0
M  V30 577 H 59.5829 0.116892 -0.940766 0
M  V30 578 H 59.2889 1.01451 -3.3675 0
M  V30 579 H 59.1629 2.6329 -2.70108 0
M  V30 580 H 61.5499 2.38244 -1.74137 0
M  V30 581 H 61.6309 0.759894 -2.44252 0
M  V30 582 H 61.2749 1.76835 -4.76121 0
M  V30 583 H 61.2049 3.39091 -4.02895 0
M  V30 584 H 63.6959 2.1107 -3.13461 0
M  V30 585 H 64.0089 3.78354 -6.73846 0
M  V30 586 H 62.3539 3.4087 -6.05667 0
M  V30 587 H 65.5449 2.54419 -3.92923 0
M  V30 588 H 65.7179 3.30721 -5.5725 0
M  V30 589 N 59.124 1.23083 0.984299 0
M  V30 590 C 60.087 1.00979 2.05757 0
M  V30 591 C 61.087 -0.0269573 1.60777 0
M  V30 592 O 62.277 0.212403 1.729 0
M  V30 593 C 59.409 0.527072 3.36801 0
M  V30 594 H 60.602 1.9622 2.26799 0
M  V30 595 H 58.155 1.05072 1.15714 0
M  V30 596 H 58.89 -0.429294 3.21446 0
M  V30 597 H 58.675 1.27515 3.70786 0
M  V30 598 H 60.165 0.392942 4.15747 0
M  V30 599 N 60.6021 -1.18246 1.0419 0
M  V30 600 C 61.8481 -1.88793 0.75689 0
M  V30 601 C 62.2031 -1.78909 -0.707767 0
M  V30 602 O 61.4961 -1.1794 -1.50999 0
M  V30 603 C 61.6901 -3.38082 1.15911 0
M  V30 604 C 61.5191 -3.62496 2.66133 0
M  V30 605 C 60.2891 -3.7979 3.33298 0
M  V30 606 C 62.4871 -3.62976 3.64353 0
M  V30 607 N 60.4691 -3.91955 4.72487 0
M  V30 608 C 61.8401 -3.80869 4.89222 0
M  V30 609 C 63.8951 -3.46071 3.57965 0
M  V30 610 C 62.5981 -3.83608 6.08471 0
M  V30 611 C 64.6241 -3.50093 4.76643 0
M  V30 612 C 63.9861 -3.68484 6.00332 0
M  V30 613 H 60.0851 -0.709406 0.32904 0
M  V30 614 H 62.6691 -1.42022 1.33183 0
M  V30 615 H 60.8401 -3.83544 0.612238 0
M  V30 616 H 62.5721 -3.96202 0.824989 0
M  V30 617 H 59.3271 -3.79224 2.83701 0
M  V30 618 H 59.7511 -4.01857 5.44831 0
M  V30 619 H 64.3931 -3.30797 2.63311 0
M  V30 620 H 62.1111 -3.97669 7.0348 0
M  V30 621 H 65.6971 -3.38285 4.73344 0
M  V30 622 H 64.5771 -3.71488 6.90627 0
M  V30 623 N 62.0802 -0.821533 -1.34494 0
M  V30 624 C 63.3292 -0.405355 -1.97585 0
M  V30 625 C 63.6422 1.03677 -1.65863 0
M  V30 626 O 64.8482 1.55679 -2.22433 0
M  V30 627 C 63.3042 -0.673861 -3.53535 0
M  V30 628 C 62.9122 -2.12951 -3.94152 0
M  V30 629 C 64.6562 -0.32378 -4.23263 0
M  V30 630 C 62.5632 -2.34298 -5.43009 0
M  V30 631 H 61.4932 -0.147836 -0.739365 0
M  V30 632 H 64.1442 -1.00769 -1.53355 0
M  V30 633 H 62.5262 -0.00137554 -3.96 0
M  V30 634 H 63.7002 -2.84104 -3.62797 0
M  V30 635 H 62.0152 -2.44089 -3.37356 0
M  V30 636 H 64.6122 -0.461126 -5.32708 0
M  V30 637 H 64.9552 0.731586 -4.09821 0
M  V30 638 H 65.4882 -0.950786 -3.8627 0
M  V30 639 H 62.2272 -3.38335 -5.61435 0
M  V30 640 H 61.7472 -1.67687 -5.75883 0
M  V30 641 H 63.4262 -2.16588 -6.09671 0
M  V30 642 N 63.5583 1.46682 -0.576371 0
M  V30 643 C 64.4883 2.33028 0.148397 0
M  V30 644 C 65.4693 1.44961 0.889956 0
M  V30 645 O 66.6543 1.73789 0.866662 0
M  V30 646 C 63.7843 3.27117 1.1667 0
M  V30 647 C 62.7383 4.24575 0.540386 0
M  V30 648 C 62.0643 5.08126 1.6647 0
M  V30 649 C 63.3643 5.19722 -0.518331 0
M  V30 650 H 65.0583 2.93875 -0.572509 0
M  V30 651 H 62.6043 1.41315 -0.276768 0
M  V30 652 H 64.5573 3.86374 1.68204 0
M  V30 653 H 63.2813 2.64364 1.9178 0
M  V30 654 H 61.9403 3.66571 0.0461769 0
M  V30 655 H 61.5883 4.41762 2.40531 0
M  V30 656 H 61.2883 5.74122 1.25131 0
M  V30 657 H 62.8123 5.70246 2.18293 0
M  V30 658 H 64.2263 5.73232 -0.0883058 0
M  V30 659 H 62.6233 5.94026 -0.851679 0
M  V30 660 H 63.6933 4.64037 -1.40703 0
M  V30 661 N 65.0364 0.313813 1.54444 0
M  V30 662 C 65.9694 -0.598866 2.20202 0
M  V30 663 C 66.9474 -1.12318 1.17573 0
M  V30 664 O 68.1314 -1.18899 1.46271 0
M  V30 665 C 65.2584 -1.82071 2.85601 0
M  V30 666 C 64.3044 -1.42851 4.01865 0
M  V30 667 S 65.1374 -0.473512 5.33402 0
M  V30 668 C 66.2934 -1.70286 6.0229 0
M  V30 669 H 66.5264 -0.0402532 2.97273 0
M  V30 670 H 64.0594 0.0979165 1.54089 0
M  V30 671 H 66.0174 -2.52184 3.23904 0
M  V30 672 H 64.6784 -2.3505 2.08351 0
M  V30 673 H 63.8714 -2.33871 4.46453 0
M  V30 674 H 63.4734 -0.807198 3.65185 0
M  V30 675 H 65.7654 -2.64168 6.23876 0
M  V30 676 H 66.7084 -1.29932 6.96077 0
M  V30 677 H 67.1164 -1.88541 5.32083 0
M  V30 678 N 66.5145 -1.57545 0.0417849 0
M  V30 679 C 67.7915 -1.83642 -0.673433 0
M  V30 680 C 68.1715 -0.928298 -1.89594 0
M  V30 681 O 67.5195 0.0129955 -2.28496 0
M  V30 682 C 67.7295 -3.33155 -1.03964 0
M  V30 683 C 69.0775 -3.99941 -1.42592 0
M  V30 684 O 70.1015 -3.37725 -1.13226 0
M  V30 685 O 68.9605 -5.09619 -1.9736 0
M  V30 686 H 66.0545 -0.757638 -0.331533 0
M  V30 687 H 68.6005 -1.69554 0.070433 0
M  V30 688 H 67.3725 -3.9093 -0.170098 0
M  V30 689 H 66.9955 -3.52396 -1.84126 0
M  V30 690 N 67.9926 0.231505 -1.5589 0
M  V30 691 C 69.2226 0.973092 -1.82248 0
M  V30 692 C 69.6306 1.78845 -0.617328 0
M  V30 693 O 68.9736 1.78752 0.423499 0
M  V30 694 C 69.0356 1.94732 -3.02192 0
M  V30 695 C 68.6996 1.31743 -4.37599 0
M  V30 696 C 69.6966 0.712238 -5.14998 0
M  V30 697 C 67.3816 1.33218 -4.84312 0
M  V30 698 C 69.3756 0.130195 -6.37267 0
M  V30 699 C 67.0626 0.746286 -6.06526 0
M  V30 700 C 68.0606 0.146337 -6.82843 0
M  V30 701 O 67.7486 -0.430465 -8.02747 0
M  V30 702 H 67.4806 0.29125 -0.61004 0
M  V30 703 H 70.0346 0.254915 -2.03812 0
M  V30 704 H 68.2646 2.70422 -2.76422 0
M  V30 705 H 69.9536 2.55362 -3.15508 0
M  V30 706 H 70.7196 0.69324 -4.8002 0
M  V30 707 H 66.5986 1.78854 -4.24891 0
M  V30 708 H 70.1426 -0.33871 -6.96777 0
M  V30 709 H 66.0396 0.762663 -6.40979 0
M  V30 710 H 66.8076 -0.323818 -8.17859 0
M  V30 711 N 69.4707 1.49531 0.497807 0
M  V30 712 C 70.4337 1.65916 1.58128 0
M  V30 713 C 71.4337 0.530825 1.51786 0
M  V30 714 O 72.6237 0.797342 1.54881 0
M  V30 715 C 69.7557 1.65951 2.9778 0
M  V30 716 H 70.9487 2.62556 1.44929 0
M  V30 717 H 68.5017 1.38611 0.722275 0
M  V30 718 H 69.2367 0.709065 3.16453 0
M  V30 719 H 69.0217 2.47897 3.03792 0
M  V30 720 H 70.5117 1.80673 3.76493 0
M  V30 721 N 70.9488 -0.749086 1.3866 0
M  V30 722 C 72.1738 -1.54344 1.38538 0
M  V30 723 C 72.5988 -1.88088 -0.0216655 0
M  V30 724 O 71.9568 -1.50899 -1.00494 0
M  V30 725 C 72.0048 -2.8164 2.25192 0
M  V30 726 O 71.1088 -3.7698 1.67212 0
M  V30 727 H 70.4498 -0.466654 0.472367 0
M  V30 728 H 72.9798 -0.925355 1.82478 0
M  V30 729 H 72.9898 -3.30519 2.3921 0
M  V30 730 H 71.6648 -2.56411 3.27454 0
M  V30 731 H 70.2418 -3.35699 1.6236 0
M  V30 732 N 72.4269 -1.23603 -0.977757 0
M  V30 733 C 73.6749 -1.06759 -1.71601 0
M  V30 734 C 73.9959 0.395929 -1.90938 0
M  V30 735 O 73.2659 1.28356 -1.47992 0
M  V30 736 H 71.8459 -0.392062 -0.635843 0
M  V30 737 H 74.5079 -1.55362 -1.1768 0
M  V30 738 H 73.6039 -1.55763 -2.70452 0
M  V30 739 N 73.905 1.17692 -1.04816 0
M  V30 740 C 74.852 2.21581 -0.645797 0
M  V30 741 C 75.822 1.62367 0.350159 0
M  V30 742 O 77.007 1.89254 0.242433 0
M  V30 743 C 74.147 3.45092 -0.0227568 0
M  V30 744 C 73.26 4.18613 -1.06709 0
M  V30 745 C 72.395 5.29602 -0.411767 0
M  V30 746 C 71.434 5.94904 -1.44067 0
M  V30 747 N 70.571 6.97414 -0.809781 0
M  V30 748 H 75.411 2.55353 -1.5362 0
M  V30 749 H 72.948 1.25438 -0.768364 0
M  V30 750 H 74.906 4.15679 0.35588 0
M  V30 751 H 73.536 3.11917 0.831122 0
M  V30 752 H 72.588 3.46779 -1.5636 0
M  V30 753 H 73.9 4.63293 -1.84827 0
M  V30 754 H 73.054 6.06696 0.0206623 0
M  V30 755 H 71.793 4.86045 0.401438 0
M  V30 756 H 70.798 5.16544 -1.88316 0
M  V30 757 H 72.023 6.40542 -2.25571 0
M  V30 758 H 69.969 6.55998 -0.0170186 0
M  V30 759 H 69.886 7.40386 -1.52856 0
M  V30 760 H 71.154 7.78463 -0.401999 0
M  V30 761 N 75.3831 0.828654 1.34056 0
M  V30 762 C 76.6291 0.42008 1.98402 0
M  V30 763 C 76.9621 -1.01564 1.65525 0
M  V30 764 O 76.2371 -1.70834 0.929831 0
M  V30 765 C 76.5201 0.62927 3.54559 0
M  V30 766 C 76.3731 2.11152 3.97159 0
M  V30 767 C 77.6921 0.0688756 4.40046 0
M  V30 768 H 74.8111 0.154104 0.720709 0
M  V30 769 H 77.4531 1.04228 1.5886 0
M  V30 770 H 75.6031 0.0996418 3.88372 0
M  V30 771 H 77.2751 2.70522 3.73651 0
M  V30 772 H 75.5181 2.59985 3.47261 0
M  V30 773 H 76.1891 2.20868 5.05887 0
M  V30 774 H 78.6651 0.521458 4.1282 0
M  V30 775 H 77.5411 0.245006 5.48353 0
M  V30 776 H 77.8021 -1.0266 4.30015 0
M  V30 777 N 76.8612 -1.46375 0.584142 0
M  V30 778 C 77.7912 -2.33103 -0.136037 0
M  V30 779 C 78.7722 -1.45431 -0.882255 0
M  V30 780 O 79.9572 -1.74246 -0.857434 0
M  V30 781 C 77.0872 -3.27731 -1.14933 0
M  V30 782 C 76.0412 -4.24855 -0.517862 0
M  V30 783 C 75.3672 -5.09001 -1.63773 0
M  V30 784 C 76.6672 -5.19439 0.545886 0
M  V30 785 H 78.3612 -2.93568 0.588086 0
M  V30 786 H 75.9072 -1.41166 0.284259 0
M  V30 787 H 77.8602 -3.87261 -1.66153 0
M  V30 788 H 76.5842 -2.65377 -1.90375 0
M  V30 789 H 75.2432 -3.6659 -0.0267361 0
M  V30 790 H 74.8912 -4.43031 -2.38185 0
M  V30 791 H 74.5912 -5.74777 -1.22085 0
M  V30 792 H 76.1152 -5.71396 -2.15266 0
M  V30 793 H 77.5292 -5.73177 0.118704 0
M  V30 794 H 75.9262 -5.93566 0.88317 0
M  V30 795 H 76.9962 -4.63285 1.43162 0
M  V30 796 N 78.3393 -0.321999 -1.54275 0
M  V30 797 C 79.3023 0.531975 -2.22941 0
M  V30 798 C 80.3023 1.04478 -1.22234 0
M  V30 799 O 81.4923 0.937452 -1.46825 0
M  V30 800 C 78.6243 1.73874 -2.93224 0
M  V30 801 H 79.8173 -0.0682612 -2.99822 0
M  V30 802 H 77.3703 -0.0730644 -1.56129 0
M  V30 803 H 78.1053 2.37825 -2.20476 0
M  V30 804 H 77.8903 1.37847 -3.6707 0
M  V30 805 H 79.3803 2.34496 -3.45545 0
M  V30 806 N 79.8174 1.5752 -0.0501392 0
M  V30 807 C 80.7274 2.14952 0.939827 0
M  V30 808 C 81.7434 1.10706 1.34239 0
M  V30 809 O 82.9194 1.42869 1.41952 0
M  V30 810 C 79.9844 2.68232 2.19665 0
M  V30 811 C 79.0454 3.87272 1.85253 0
M  V30 812 C 78.2784 4.38002 3.04943 0
M  V30 813 O 78.5014 3.87811 4.18281 0
M  V30 814 O 77.4354 5.29602 2.86017 0
M  V30 815 H 81.2614 2.9986 0.481392 0
M  V30 816 H 78.8464 1.4841 0.171699 0
M  V30 817 H 80.7284 3.02475 2.93406 0
M  V30 818 H 79.4034 1.86395 2.64648 0
M  V30 819 H 78.3104 3.5792 1.0883 0
M  V30 820 H 79.6434 4.70336 1.4507 0
M  V30 821 N 81.2955 -0.223234 1.56011 0
M  V30 822 C 82.5435 -0.946003 1.78592 0
M  V30 823 C 82.8645 -1.84936 0.618349 0
M  V30 824 O 82.1345 -1.92473 -0.364833 0
M  V30 825 H 80.7145 -0.352298 0.658707 0
M  V30 826 H 83.3765 -0.235494 1.93472 0
M  V30 827 H 82.4725 -1.55381 2.70672 0
M  V30 828 N 82.7736 -1.49793 -0.48987 0
M  V30 829 C 83.7216 -1.67783 -1.61095 0
M  V30 830 C 84.7156 -0.543683 -1.60438 0
M  V30 831 O 85.9216 -0.723647 -1.64813 0
M  V30 832 H 82.2966 -0.529255 -0.534222 0
M  V30 833 H 84.2676 -2.61861 -1.43078 0
M  V30 834 C 83.0166 -1.77191 -2.99164 0
M  V30 835 H 82.3396 -2.63841 -3.0038 0
M  V30 836 H 83.7796 -1.93809 -3.77113 0
M  V30 837 C 82.2386 -0.519203 -3.32875 0
M  V30 838 O 82.7686 0.350124 -4.00171 0
M  V30 839 N 80.9746 -0.378816 -2.8812 0
M  V30 840 H 80.5216 -1.08725 -2.33531 0
M  V30 841 H 80.4796 0.458239 -3.11043 0
M  V30 842 N 84.2517 0.741722 -1.39055 0
M  V30 843 C 85.2147 1.83733 -1.37021 0
M  V30 844 C 86.2147 1.58542 -0.268534 0
M  V30 845 O 87.4047 1.66067 -0.526076 0
M  V30 846 C 84.5367 3.2141 -1.13617 0
M  V30 847 H 85.7297 1.86941 -2.34506 0
M  V30 848 H 83.2827 0.944676 -1.24521 0
M  V30 849 H 84.0177 3.23865 -0.167863 0
M  V30 850 H 83.8027 3.4109 -1.93391 0
M  V30 851 H 85.2927 4.01477 -1.14918 0
M  V30 852 N 85.7298 1.2412 0.971189 0
M  V30 853 C 87.0068 0.986867 1.6888 0
M  V30 854 C 87.3868 -0.491857 2.0529 0
M  V30 855 O 86.7348 -1.46531 1.75331 0
M  V30 856 C 86.9448 1.9063 2.92338 0
M  V30 857 C 88.2928 2.17515 3.64654 0
M  V30 858 O 89.3168 1.88254 3.02388 0
M  V30 859 O 88.1758 2.6719 4.7673 0
M  V30 860 H 85.2698 0.372944 0.738134 0
M  V30 861 H 87.8158 1.35203 1.02559 0
M  V30 862 H 86.5878 2.90552 2.62097 0
M  V30 863 H 86.2108 1.54408 3.66393 0
M  V30 864 N 87.2079 -1.17134 1.05439 0
M  V30 865 C 88.1179 -2.24878 0.668365 0
M  V30 866 C 89.1339 -1.71186 -0.311687 0
M  V30 867 O 90.3099 -2.00738 -0.163161 0
M  V30 868 C 87.3749 -3.46662 0.051648 0
M  V30 869 C 86.4359 -4.15429 1.08246 0
M  V30 870 C 85.6689 -5.31399 0.495082 0
M  V30 871 O 85.8919 -5.66153 -0.694743 0
M  V30 872 O 84.8259 -5.89187 1.23056 0
M  V30 873 H 88.6519 -2.60189 1.56637 0
M  V30 874 H 86.2369 -1.24482 0.826104 0
M  V30 875 H 88.1189 -4.20394 -0.290966 0
M  V30 876 H 86.7939 -3.13142 -0.819971 0
M  V30 877 H 85.7009 -3.43704 1.47711 0
M  V30 878 H 87.0339 -4.52982 1.92532 0
M  V30 879 N 88.686 -0.835752 -1.33615 0
M  V30 880 C 89.633 -0.26473 -2.29277 0
M  V30 881 C 90.603 0.617712 -1.54187 0
M  V30 882 O 91.788 0.556641 -1.825 0
M  V30 883 C 88.928 0.556777 -3.40579 0
M  V30 884 C 88.041 -0.349339 -4.30585 0
M  V30 885 C 87.176 0.482969 -5.29 0
M  V30 886 C 86.215 -0.421732 -6.10645 0
M  V30 887 N 85.352 0.372262 -7.01112 0
M  V30 888 H 90.192 -1.08582 -2.77514 0
M  V30 889 H 87.729 -0.546927 -1.36554 0
M  V30 890 H 89.687 1.04852 -4.03809 0
M  V30 891 H 88.317 1.34286 -2.93542 0
M  V30 892 H 87.369 -0.959372 -3.68104 0
M  V30 893 H 88.681 -1.04445 -4.87742 0
M  V30 894 H 87.835 1.03866 -5.97743 0
M  V30 895 H 86.574 1.21153 -4.72412 0
M  V30 896 H 85.579 -0.989464 -5.40823 0
M  V30 897 H 86.804 -1.14861 -6.69316 0
M  V30 898 H 84.75 1.08426 -6.46977 0
M  V30 899 H 84.667 -0.264198 -7.55538 0
M  V30 900 H 85.935 0.910293 -7.74167 0
M  V30 901 N 90.1641 1.46063 -0.591896 0
M  V30 902 C 91.0941 2.33172 0.123673 0
M  V30 903 C 92.0751 1.45897 0.87453 0
M  V30 904 O 93.2601 1.74698 0.848181 0
M  V30 905 C 90.3901 3.28336 1.13194 0
M  V30 906 C 89.3441 4.25124 0.495324 0
M  V30 907 C 88.6701 5.09863 1.61071 0
M  V30 908 C 89.9701 5.19143 -0.573425 0
M  V30 909 H 91.6641 2.93252 -0.603646 0
M  V30 910 H 89.2101 1.41014 -0.291741 0
M  V30 911 H 91.1631 3.88137 1.64097 0
M  V30 912 H 89.8871 2.66383 1.88965 0
M  V30 913 H 88.5461 3.66599 0.00729452 0
M  V30 914 H 88.1941 4.44288 2.35832 0
M  V30 915 H 87.8941 5.75417 1.19035 0
M  V30 916 H 89.4181 5.72529 2.12233 0
M  V30 917 H 90.8321 5.73106 -0.1491 0
M  V30 918 H 89.2291 5.93089 -0.914636 0
M  V30 919 H 90.2991 4.62519 -1.45617 0
M  V30 920 N 91.6422 0.330177 1.54103 0
M  V30 921 C 92.9192 -0.325007 1.92881 0
M  V30 922 C 93.2992 -1.6934 1.26045 0
M  V30 923 O 92.6472 -2.24855 0.406526 0
M  V30 924 C 92.8572 -0.410634 3.46576 0
M  V30 925 C 94.2052 -0.667801 4.19316 0
M  V30 926 O 95.2292 -0.49329 3.52768 0
M  V30 927 O 94.0882 -1.00491 5.37181 0
M  V30 928 H 91.1822 -0.186873 0.80561 0
M  V30 929 H 93.7282 0.380376 1.65382 0
M  V30 930 H 92.5002 0.550164 3.87413 0
M  V30 931 H 92.1232 -1.16333 3.802 0
M  V30 932 N 93.1203 -1.57491 0.0584922 0
M  V30 933 C 94.5313 -1.80526 -0.476138 0
M  V30 934 C 94.8823 -0.971334 -1.70469 0
M  V30 935 O 94.0073 -0.190012 -2.15564 0
M  V30 936 C 94.6023 -3.27424 -0.870587 0
M  V30 937 C 93.1613 -3.51351 -1.35015 0
M  V30 938 C 92.3083 -2.75343 -0.32887 0
M  V30 939 H 95.2593 -1.56133 0.284312 0
M  V30 940 H 95.2803 -3.38745 -1.73299 0
M  V30 941 H 94.7923 -3.88093 0.0237627 0
M  V30 942 H 92.8933 -2.95971 -2.26345 0
M  V30 943 H 93.0063 -4.60059 -1.33726 0
M  V30 944 H 91.3703 -2.417 -0.803321 0
M  V30 945 H 92.1533 -3.38743 0.557521 0
M  V30 946 N 94.5984 0.214957 -1.56127 0
M  V30 947 C 95.5614 1.24997 -1.92116 0
M  V30 948 C 96.5614 1.39467 -0.800344 0
M  V30 949 O 97.7514 1.37619 -1.06802 0
M  V30 950 C 94.8834 2.62271 -2.17777 0
M  V30 951 H 96.0764 0.942875 -2.84693 0
M  V30 952 H 93.6294 0.455654 -1.49511 0
M  V30 953 H 94.3644 2.98068 -1.27773 0
M  V30 954 H 94.1494 2.53143 -2.99434 0
M  V30 955 H 95.6394 3.36946 -2.46693 0
M  V30 956 N 96.0765 1.50051 0.48192 0
M  V30 957 C 97.3015 1.64508 1.26301 0
M  V30 958 C 97.7265 0.323851 1.85291 0
M  V30 959 O 97.0845 -0.710969 1.66778 0
M  V30 960 C 97.1325 2.7305 2.35533 0
M  V30 961 O 96.2365 2.3355 3.39895 0
M  V30 962 H 95.5775 0.549978 0.372048 0
M  V30 963 H 98.1075 1.9636 0.574786 0
M  V30 964 H 98.1175 2.95799 2.8101 0
M  V30 965 H 96.7925 3.68946 1.91967 0
M  V30 966 H 95.3695 2.21205 3.00204 0
M  V30 967 N 97.5546 -0.734337 1.39446 0
M  V30 968 C 98.4846 -1.86155 1.40955 0
M  V30 969 C 99.4656 -1.67898 0.272827 0
M  V30 970 O 100.651 -1.88207 0.478743 0
M  V30 971 C 97.7806 -3.23912 1.25294 0
M  V30 972 C 96.7346 -3.56808 2.36373 0
M  V30 973 C 96.0606 -4.93508 2.058 0
M  V30 974 C 97.3606 -3.59713 3.78687 0
M  V30 975 H 99.0546 -1.8515 2.35287 0
M  V30 976 H 96.6006 -0.889367 1.13253 0
M  V30 977 H 98.5536 -4.02443 1.2497 0
M  V30 978 H 97.2776 -3.25446 0.274308 0
M  V30 979 H 95.9366 -2.80606 2.35914 0
M  V30 980 H 95.5846 -4.91623 1.06374 0
M  V30 981 H 95.2846 -5.16486 2.80208 0
M  V30 982 H 96.8086 -5.74396 2.07128 0
M  V30 983 H 98.2226 -4.2832 3.81071 0
M  V30 984 H 96.6196 -3.94209 4.52459 0
M  V30 985 H 97.6896 -2.59504 4.09617 0
M  V30 986 N 99.0327 -1.24633 -0.964593 0
M  V30 987 C 100.261 -1.11501 -1.74285 0
M  V30 988 C 100.676 0.332165 -1.85855 0
M  V30 989 O 100.033 1.22903 -1.34911 0
M  V30 990 C 100.084 -1.75258 -3.16175 0
M  V30 991 O 99.8047 -3.14318 -3.05182 0
M  V30 992 C 101.306 -1.67776 -4.10324 0
M  V30 993 H 98.5257 -0.389407 -0.546446 0
M  V30 994 H 101.07 -1.64801 -1.21083 0
M  V30 995 H 99.2247 -1.25954 -3.66353 0
M  V30 996 H 99.6387 -3.4551 -3.94618 0
M  V30 997 H 101.113 -2.17064 -5.0753 0
M  V30 998 H 101.59 -0.639584 -4.34518 0
M  V30 999 H 102.196 -2.16522 -3.66058 0
M  V30 1000 N 100.511 1.16574 -1.06058 0
M  V30 1001 C 101.458 2.20883 -0.669263 0
M  V30 1002 C 102.428 1.62729 0.332918 0
M  V30 1003 O 103.613 1.895 0.222346 0
M  V30 1004 C 100.753 3.45049 -0.0593572 0
M  V30 1005 C 99.8658 4.17458 -1.11143 0
M  V30 1006 C 99.0008 5.29135 -0.467916 0
M  V30 1007 C 98.0398 5.93343 -1.50369 0
M  V30 1008 N 97.1768 6.96516 -0.883706 0
M  V30 1009 H 102.017 2.53709 -1.5632 0
M  V30 1010 H 99.5538 1.24616 -0.781625 0
M  V30 1011 H 101.512 4.16033 0.311771 0
M  V30 1012 H 100.142 3.12781 0.797992 0
M  V30 1013 H 99.1938 3.45101 -1.60029 0
M  V30 1014 H 100.506 4.61307 -1.89731 0
M  V30 1015 H 99.6598 6.06684 -0.0436871 0
M  V30 1016 H 98.3988 4.86443 0.349864 0
M  V30 1017 H 97.4038 5.14517 -1.93784 0
M  V30 1018 H 98.6288 6.38114 -2.32352 0
M  V30 1019 H 96.5748 6.55943 -0.086595 0
M  V30 1020 H 96.4918 7.38723 -1.607 0
M  V30 1021 H 97.7598 7.77993 -0.484543 0
M  V30 1022 N 101.989 0.842826 1.3317 0
M  V30 1023 C 103.238 0.436738 1.96915 0
M  V30 1024 C 103.551 -1.01025 1.67491 0
M  V30 1025 O 104.757 -1.5212 2.24881 0
M  V30 1026 C 103.213 0.730021 3.52418 0
M  V30 1027 C 102.821 2.19195 3.90714 0
M  V30 1028 C 104.565 0.391076 4.22695 0
M  V30 1029 C 102.472 2.42907 5.39212 0
M  V30 1030 H 101.402 0.15958 0.736919 0
M  V30 1031 H 104.053 1.03196 1.51733 0
M  V30 1032 H 102.435 0.0643755 3.95948 0
M  V30 1033 H 103.609 2.8984 3.58231 0
M  V30 1034 H 101.924 2.49425 3.33431 0
M  V30 1035 H 104.521 0.545817 5.31907 0
M  V30 1036 H 104.864 -0.666294 4.10933 0
M  V30 1037 H 105.397 1.01212 3.84709 0
M  V30 1038 H 102.136 3.47224 5.55982 0
M  V30 1039 H 101.656 1.76827 5.73142 0
M  V30 1040 H 103.335 2.2626 6.06148 0
M  V30 1041 N 103.467 -1.45747 0.599634 0
M  V30 1042 C 104.4 -2.27547 -0.172552 0
M  V30 1043 C 105.378 -1.36657 -0.881116 0
M  V30 1044 O 106.562 -1.66081 -0.891595 0
M  V30 1045 C 103.689 -3.14829 -1.24903 0
M  V30 1046 C 102.735 -4.21603 -0.644465 0
M  V30 1047 S 103.568 -5.32754 0.541606 0
M  V30 1048 C 104.724 -6.23604 -0.535656 0
M  V30 1049 H 104.957 -2.92691 0.521468 0
M  V30 1050 H 102.49 -1.49473 0.386947 0
M  V30 1051 H 104.448 -3.65675 -1.86527 0
M  V30 1052 H 103.109 -2.48965 -1.91508 0
M  V30 1053 H 102.302 -4.82566 -1.45417 0
M  V30 1054 H 101.904 -3.73857 -0.103534 0
M  V30 1055 H 104.196 -6.62519 -1.41686 0
M  V30 1056 H 105.139 -7.0809 0.0376246 0
M  V30 1057 H 105.547 -5.58103 -0.84741 0
M  V30 1058 N 104.945 -0.338344 -1.53925 0
M  V30 1059 C 106.173 0.261298 -2.05243 0
M  V30 1060 C 106.588 1.44625 -1.21363 0
M  V30 1061 O 105.945 1.80811 -0.247736 0
M  V30 1062 C 105.996 0.681412 -3.5502 0
M  V30 1063 O 105.717 -0.456414 -4.35716 0
M  V30 1064 C 107.218 1.34232 -4.22489 0
M  V30 1065 H 104.438 0.0513685 -0.669031 0
M  V30 1066 H 106.982 -0.488822 -1.98572 0
M  V30 1067 H 105.137 1.38148 -3.61931 0
M  V30 1068 H 105.551 -0.122564 -5.24357 0
M  V30 1069 H 107.025 1.58708 -5.28693 0
M  V30 1070 H 107.502 2.29426 -3.74514 0
M  V30 1071 H 108.108 0.684424 -4.19757 0
M  V30 1072 N 106.423 1.57458 -0.0668435 0
M  V30 1073 C 107.648 1.9804 0.616027 0
M  V30 1074 C 108.073 0.944771 1.62652 0
M  V30 1075 O 107.431 -0.0902094 1.81075 0
M  V30 1076 C 107.479 3.37665 1.26549 0
M  V30 1077 O 106.583 3.36701 2.38131 0
M  V30 1078 H 105.924 0.644719 0.158849 0
M  V30 1079 H 108.454 2.04121 -0.139891 0
M  V30 1080 H 108.464 3.7474 1.6135 0
M  V30 1081 H 107.139 4.12573 0.525016 0
M  V30 1082 H 105.716 3.1139 2.0516 0
M  V30 1083 N 107.901 -0.206675 1.56239 0
M  V30 1084 C 109.131 -0.943975 1.83773 0
M  V30 1085 C 109.539 -1.77841 0.645703 0
M  V30 1086 O 108.882 -1.79403 -0.395008 0
M  V30 1087 C 108.944 -1.899 3.05251 0
M  V30 1088 C 108.608 -1.24764 4.39639 0
M  V30 1089 C 109.605 -0.630216 5.16066 0
M  V30 1090 C 107.29 -1.25496 4.8637 0
M  V30 1091 C 109.284 -0.0287946 6.37393 0
M  V30 1092 C 106.971 -0.649698 6.07637 0
M  V30 1093 C 107.969 -0.0376845 6.8299 0
M  V30 1094 O 107.657 0.55812 8.0196 0
M  V30 1095 H 107.389 -0.281508 0.614597 0
M  V30 1096 H 109.943 -0.222458 2.04192 0
M  V30 1097 H 108.173 -2.6599 2.80689 0
M  V30 1098 H 109.862 -2.5031 3.1953 0
M  V30 1099 H 110.628 -0.616785 4.81062 0
M  V30 1100 H 106.507 -1.72072 4.27683 0
M  V30 1101 H 110.051 0.449518 6.9615 0
M  V30 1102 H 105.948 -0.660592 6.42111 0
M  V30 1103 H 106.716 0.453891 8.17241 0
M  V30 1104 N 109.379 -1.50304 -0.473955 0
M  V30 1105 C 110.625 -1.61389 -1.22806 0
M  V30 1106 C 110.958 -0.311955 -1.91678 0
M  V30 1107 O 110.233 0.686384 -1.81986 0
M  V30 1108 C 110.516 -2.79219 -2.27396 0
M  V30 1109 C 110.369 -4.19286 -1.62848 0
M  V30 1110 C 111.688 -2.92614 -3.28732 0
M  V30 1111 H 108.807 -0.587399 -0.445119 0
M  V30 1112 H 111.449 -1.82681 -0.522265 0
M  V30 1113 H 109.599 -2.61195 -2.87592 0
M  V30 1114 H 111.271 -4.48892 -1.06271 0
M  V30 1115 H 109.514 -4.23677 -0.931693 0
M  V30 1116 H 110.185 -4.97655 -2.38838 0
M  V30 1117 H 112.661 -3.09105 -2.78556 0
M  V30 1118 H 111.537 -3.76688 -3.99246 0
M  V30 1119 H 111.798 -2.03107 -3.92683 0
M  V30 1120 N 110.857 0.726932 -1.39834 0
M  V30 1121 C 112.103 1.48884 -1.377 0
M  V30 1122 C 112.436 1.94185 0.0244852 0
M  V30 1123 O 111.711 1.67361 0.990986 0
M  V30 1124 C 111.994 2.72288 -2.3565 0
M  V30 1125 C 111.847 2.32956 -3.84775 0
M  V30 1126 C 113.166 3.74414 -2.31306 0
M  V30 1127 H 110.285 0.540062 -0.5015 0
M  V30 1128 H 112.927 0.830547 -1.70886 0
M  V30 1129 H 111.077 3.28457 -2.07481 0
M  V30 1130 H 112.749 1.82356 -4.23726 0
M  V30 1131 H 110.992 1.65088 -4.01159 0
M  V30 1132 H 111.663 3.21362 -4.4881 0
M  V30 1133 H 114.139 3.27849 -2.56231 0
M  V30 1134 H 113.015 4.58414 -3.01907 0
M  V30 1135 H 113.276 4.21909 -1.32081 0
M  V30 1136 N 112.336 1.25143 0.95797 0
M  V30 1137 C 113.584 1.09476 1.69881 0
M  V30 1138 C 113.905 -0.365502 1.91544 0
M  V30 1139 O 113.175 -1.25985 1.50015 0
M  V30 1140 H 111.755 0.402128 0.629525 0
M  V30 1141 H 114.417 1.57214 1.15194 0
M  V30 1142 H 113.513 1.60046 2.6794 0
M  V30 1143 N 113.814 -1.1601 1.06675 0
M  V30 1144 C 114.746 -2.20115 0.638921 0
M  V30 1145 C 115.759 -1.59916 -0.305057 0
M  V30 1146 O 116.948 -1.78245 -0.0954446 0
M  V30 1147 C 114.048 -3.38798 -0.0830083 0
M  V30 1148 C 113.221 -4.2855 0.875426 0
M  V30 1149 C 112.28 -5.25849 0.192042 0
M  V30 1150 O 111.306 -5.63102 0.830921 0
M  V30 1151 N 112.508 -5.70648 -1.06493 0
M  V30 1152 H 115.273 -2.57439 1.53444 0
M  V30 1153 H 112.834 -1.31057 0.950557 0
M  V30 1154 H 114.826 -4.00936 -0.550685 0
M  V30 1155 H 113.396 -2.99947 -0.880386 0
M  V30 1156 H 112.616 -3.63617 1.52238 0
M  V30 1157 H 113.904 -4.85393 1.52548 0
M  V30 1158 H 113.302 -5.42482 -1.60405 0
M  V30 1159 H 111.859 -6.34859 -1.47641 0
M  V30 1160 N 115.292 -0.849877 -1.32721 0
M  V30 1161 C 116.255 -0.296122 -2.27279 0
M  V30 1162 C 117.255 0.541458 -1.5141 0
M  V30 1163 O 118.445 0.353658 -1.70572 0
M  V30 1164 C 115.577 0.581579 -3.35902 0
M  V30 1165 H 116.77 -1.13064 -2.77771 0
M  V30 1166 H 114.323 -0.62383 -1.43311 0
M  V30 1167 H 115.058 1.43809 -2.9067 0
M  V30 1168 H 114.843 -0.0178814 -3.92096 0
M  V30 1169 H 116.333 0.961951 -4.0637 0
M  V30 1170 N 116.77 1.45427 -0.607355 0
M  V30 1171 C 117.7 2.3329 0.0989352 0
M  V30 1172 C 118.681 1.46816 0.859007 0
M  V30 1173 O 119.866 1.75588 0.829604 0
M  V30 1174 C 116.996 3.29518 1.09705 0
M  V30 1175 C 115.95 4.25626 0.450206 0
M  V30 1176 C 115.276 5.11542 1.55655 0
M  V30 1177 C 116.576 5.18505 -0.628455 0
M  V30 1178 H 118.27 2.92595 -0.634716 0
M  V30 1179 H 115.816 1.40696 -0.306681 0
M  V30 1180 H 117.769 3.89855 1.59971 0
M  V30 1181 H 116.493 2.68372 1.86129 0
M  V30 1182 H 115.152 3.66586 -0.0315886 0
M  V30 1183 H 114.8 4.46765 2.31107 0
M  V30 1184 H 114.5 5.76647 1.12925 0
M  V30 1185 H 116.024 5.74748 2.06148 0
M  V30 1186 H 117.438 5.72916 -0.209877 0
M  V30 1187 H 115.835 5.92085 -0.977489 0
M  V30 1188 H 116.905 4.60948 -1.50514 0
M  V30 1189 N 118.248 0.346503 1.53744 0
M  V30 1190 C 119.195 -0.508914 2.25119 0
M  V30 1191 C 120.165 -1.09315 1.25058 0
M  V30 1192 O 121.35 -1.12921 1.53797 0
M  V30 1193 C 118.49 -1.65246 3.02965 0
M  V30 1194 C 117.603 -1.09525 4.17886 0
M  V30 1195 C 116.738 -2.20634 4.83212 0
M  V30 1196 C 115.777 -1.62279 5.90196 0
M  V30 1197 N 114.914 -2.67143 6.49291 0
M  V30 1198 H 119.754 0.106283 2.9781 0
M  V30 1199 H 117.291 0.0642227 1.4696 0
M  V30 1200 H 119.249 -2.32574 3.4636 0
M  V30 1201 H 117.879 -2.2386 2.32565 0
M  V30 1202 H 116.931 -0.312818 3.79112 0
M  V30 1203 H 118.243 -0.628444 4.94825 0
M  V30 1204 H 117.397 -2.95821 5.29693 0
M  V30 1205 H 116.136 -2.70659 4.05703 0
M  V30 1206 H 115.141 -0.855989 5.43096 0
M  V30 1207 H 116.366 -1.13102 6.69615 0
M  V30 1208 H 114.312 -3.16417 5.74645 0
M  V30 1209 H 114.229 -2.25093 7.21713 0
M  V30 1210 H 115.497 -3.4209 7.00425 0
M  V30 1211 N 119.726 -1.57421 0.075193 0
M  V30 1212 C 120.689 -2.11791 -0.876203 0
M  V30 1213 C 121.689 -1.04268 -1.22412 0
M  V30 1214 O 122.879 -1.30242 -1.15684 0
M  V30 1215 C 120.011 -2.62207 -2.17854 0
M  V30 1216 H 121.204 -2.9716 -0.40444 0
M  V30 1217 H 118.757 -1.55333 -0.173557 0
M  V30 1218 H 119.492 -1.803 -2.6956 0
M  V30 1219 H 119.277 -3.40802 -1.93897 0
M  V30 1220 H 120.767 -3.04335 -2.85955 0
M  V30 1221 N 121.204 0.198386 -1.56346 0
M  V30 1222 C 122.481 0.944982 -1.71258 0
M  V30 1223 C 122.861 2.0151 -0.629048 0
M  V30 1224 O 122.209 2.25639 0.360473 0
M  V30 1225 C 122.419 1.5344 -3.1346 0
M  V30 1226 C 123.767 2.01778 -3.73591 0
M  V30 1227 O 124.791 1.63288 -3.16568 0
M  V30 1228 O 123.65 2.72594 -4.73661 0
M  V30 1229 H 120.744 0.442939 -0.69838 0
M  V30 1230 H 123.29 0.188342 -1.68652 0
M  V30 1231 H 122.062 0.762869 -3.83792 0
M  V30 1232 H 121.685 2.35596 -3.20282 0
M  V30 1233 N 122.682 1.50554 0.465978 0
M  V30 1234 C 123.629 1.6979 1.56333 0
M  V30 1235 C 124.599 0.539239 1.57103 0
M  V30 1236 O 125.784 0.770401 1.74555 0
M  V30 1237 C 122.924 1.80273 2.94271 0
M  V30 1238 C 122.037 3.07674 3.0325 0
M  V30 1239 C 121.172 3.08922 4.32135 0
M  V30 1240 C 120.211 4.30755 4.34875 0
M  V30 1241 N 119.348 4.29714 5.55239 0
M  V30 1242 H 124.188 2.63472 1.39235 0
M  V30 1243 H 121.725 1.30602 0.676873 0
M  V30 1244 H 123.683 1.84332 3.74269 0
M  V30 1245 H 122.313 0.900258 3.09992 0
M  V30 1246 H 121.365 3.13062 2.16094 0
M  V30 1247 H 122.677 3.97642 3.01135 0
M  V30 1248 H 121.831 3.11738 5.20485 0
M  V30 1249 H 120.57 2.16792 4.36866 0
M  V30 1250 H 119.575 4.28146 3.44922 0
M  V30 1251 H 120.8 5.24117 4.31831 0
M  V30 1252 H 118.746 3.4044 5.60746 0
M  V30 1253 H 118.663 5.13456 5.54886 0
M  V30 1254 H 119.931 4.36683 6.457 0
M  V30 1255 N 124.16 -0.719506 1.40217 0
M  V30 1256 C 125.409 -1.47486 1.37589 0
M  V30 1257 C 125.722 -1.9559 -0.0201568 0
M  V30 1258 O 126.928 -2.70973 -0.169049 0
M  V30 1259 C 125.384 -2.66575 2.41796 0
M  V30 1260 C 124.992 -2.25358 3.87192 0
M  V30 1261 C 126.736 -3.4433 2.48269 0
M  V30 1262 C 124.643 -3.41262 4.83005 0
M  V30 1263 H 123.573 -0.553901 0.511576 0
M  V30 1264 H 126.224 -0.783427 1.65936 0
M  V30 1265 H 124.606 -3.3787 2.06543 0
M  V30 1266 H 125.78 -1.61509 4.31569 0
M  V30 1267 H 124.095 -1.60657 3.84159 0
M  V30 1268 H 126.692 -4.30569 3.17041 0
M  V30 1269 H 127.035 -3.87872 1.51198 0
M  V30 1270 H 127.568 -2.80076 2.82493 0
M  V30 1271 H 124.307 -3.02755 5.81394 0
M  V30 1272 H 123.827 -4.0404 4.43297 0
M  V30 1273 H 125.506 -4.07383 5.02641 0
M  V30 1274 N 125.638 -1.25649 -0.95132 0
M  V30 1275 C 126.585 -1.06323 -2.04851 0
M  V30 1276 C 127.555 0.0286491 -1.66075 0
M  V30 1277 O 128.74 -0.12917 -1.90362 0
M  V30 1278 C 125.88 -0.691529 -3.381 0
M  V30 1279 C 124.993 -1.85861 -3.89974 0
M  V30 1280 C 124.128 -1.43096 -5.11563 0
M  V30 1281 C 123.167 -2.56696 -5.55674 0
M  V30 1282 N 122.304 -2.14684 -6.68472 0
M  V30 1283 H 127.144 -2.00222 -2.20715 0
M  V30 1284 H 124.681 -0.997027 -1.08156 0
M  V30 1285 H 126.639 -0.456963 -4.1469 0
M  V30 1286 H 125.269 0.210474 -3.22113 0
M  V30 1287 H 124.321 -2.20639 -3.09875 0
M  V30 1288 H 125.633 -2.71161 -4.18657 0
M  V30 1289 H 124.787 -1.15624 -5.9558 0
M  V30 1290 H 123.526 -0.548722 -4.84603 0
M  V30 1291 H 122.531 -2.84909 -4.7022 0
M  V30 1292 H 123.756 -3.45503 -5.8464 0
M  V30 1293 H 121.702 -1.28881 -6.43215 0
M  V30 1294 H 121.619 -2.9353 -6.96689 0
M  V30 1295 H 122.887 -1.90397 -7.5589 0
M  V30 1296 N 127.117 1.15442 -1.07289 0
M  V30 1297 C 128.047 2.22312 -0.714107 0
M  V30 1298 C 129.028 1.67467 0.298155 0
M  V30 1299 O 130.213 1.93445 0.171048 0
M  V30 1300 C 127.343 3.47124 -0.110448 0
M  V30 1301 C 126.297 4.14926 -1.04979 0
M  V30 1302 C 125.623 5.33807 -0.308924 0
M  V30 1303 C 126.923 4.64762 -2.38314 0
M  V30 1304 H 128.617 2.5258 -1.6076 0
M  V30 1305 H 126.163 1.21404 -0.77441 0
M  V30 1306 H 128.116 4.21124 0.152482 0
M  V30 1307 H 126.84 3.16187 0.81812 0
M  V30 1308 H 125.499 3.42866 -1.29764 0
M  V30 1309 H 125.147 4.99126 0.623084 0
M  V30 1310 H 124.847 5.80113 -0.935036 0
M  V30 1311 H 126.371 6.10576 -0.0537771 0
M  V30 1312 H 127.785 5.30292 -2.1786 0
M  V30 1313 H 126.182 5.21728 -2.96514 0
M  V30 1314 H 127.252 3.80434 -3.00663 0
M  V30 1315 N 128.595 0.856903 1.32268 0
M  V30 1316 C 129.823 0.475439 2.01363 0
M  V30 1317 C 130.238 -0.928486 1.64392 0
M  V30 1318 O 129.595 -1.60624 0.866387 0
M  V30 1319 C 129.646 0.607545 3.56358 0
M  V30 1320 O 129.367 1.95617 3.92002 0
M  V30 1321 C 130.868 0.225382 4.42727 0
M  V30 1322 H 128.088 0.186636 0.644521 0
M  V30 1323 H 130.632 1.15446 1.68797 0
M  V30 1324 H 128.787 -0.0237719 3.87393 0
M  V30 1325 H 129.201 1.95455 4.86721 0
M  V30 1326 H 130.675 0.368813 5.50767 0
M  V30 1327 H 131.152 -0.834369 4.31202 0
M  V30 1328 H 131.758 0.831864 4.17085 0
M  V30 1329 N 130.073 -1.45103 0.615059 0
M  V30 1330 C 131.35 -1.95549 0.0448276 0
M  V30 1331 C 131.73 -1.55737 -1.4251 0
M  V30 1332 O 131.078 -0.823556 -2.13143 0
M  V30 1333 C 131.288 -3.48098 0.250785 0
M  V30 1334 C 132.636 -4.24384 0.135509 0
M  V30 1335 O 133.66 -3.55738 0.181299 0
M  V30 1336 O 132.519 -5.46493 0.0268878 0
M  V30 1337 H 129.613 -0.8264 -0.0314845 0
M  V30 1338 H 132.159 -1.55232 0.685642 0
M  V30 1339 H 130.931 -3.7007 1.27139 0
M  V30 1340 H 130.554 -3.95323 -0.424937 0
M  V30 1341 N 131.551 -0.354651 -1.53558 0
M  V30 1342 C 132.484 0.540273 -2.21712 0
M  V30 1343 C 133.462 1.09161 -1.2051 0
M  V30 1344 O 134.646 1.14979 -1.49372 0
M  V30 1345 C 131.773 1.74435 -2.90328 0
M  V30 1346 C 130.819 1.32146 -4.05512 0
M  V30 1347 S 131.652 0.331924 -5.3447 0
M  V30 1348 C 132.808 1.54258 -6.06593 0
M  V30 1349 H 133.041 -0.0385776 -2.97275 0
M  V30 1350 H 130.574 -0.138736 -1.53775 0
M  V30 1351 H 132.532 2.43507 -3.30476 0
M  V30 1352 H 131.193 2.29444 -2.1451 0
M  V30 1353 H 130.386 2.21952 -4.52497 0
M  V30 1354 H 129.988 0.710091 -3.67197 0
M  V30 1355 H 132.28 2.47534 -6.30661 0
M  V30 1356 H 133.223 1.11431 -6.99277 0
M  V30 1357 H 133.631 1.74367 -5.36895 0
M  V30 1358 N 133.029 1.57378 -0.0835403 0
M  V30 1359 C 134.275 1.94217 0.583733 0
M  V30 1360 C 134.608 0.964653 1.68547 0
M  V30 1361 O 133.883 -0.00422258 1.945 0
M  V30 1362 C 134.166 3.41253 1.14972 0
M  V30 1363 C 134.019 4.49768 0.0538277 0
M  V30 1364 C 135.338 3.89352 2.05166 0
M  V30 1365 H 132.457 0.706233 0.210724 0
M  V30 1366 H 135.099 1.89392 -0.1519 0
M  V30 1367 H 133.249 3.45496 1.77665 0
M  V30 1368 H 134.921 4.57641 -0.579851 0
M  V30 1369 H 133.164 4.29432 -0.614068 0
M  V30 1370 H 133.835 5.49817 0.490452 0
M  V30 1371 H 136.311 3.87189 1.52393 0
M  V30 1372 H 135.187 4.92822 2.41698 0
M  V30 1373 H 135.448 3.27973 2.96456 0
M  V30 1374 N 134.507 -0.190092 1.56449 0
M  V30 1375 C 135.735 -0.925772 1.85033 0
M  V30 1376 C 136.15 -1.76638 0.666658 0
M  V30 1377 O 135.507 -1.78822 -0.364565 0
M  V30 1378 C 135.558 -1.81786 3.12468 0
M  V30 1379 O 135.279 -1.01118 4.26271 0
M  V30 1380 C 136.78 -2.6648 3.54265 0
M  V30 1381 H 134 -0.269872 0.614337 0
M  V30 1382 H 136.544 -0.195837 2.0356 0
M  V30 1383 H 134.699 -2.50136 2.95822 0
M  V30 1384 H 135.113 -1.61956 4.98869 0
M  V30 1385 H 136.587 -3.24722 4.46385 0
M  V30 1386 H 137.064 -3.40434 2.77491 0
M  V30 1387 H 137.67 -2.03493 3.73458 0
M  V30 1388 N 135.985 -1.50799 -0.457987 0
M  V30 1389 C 137.231 -1.62683 -1.21088 0
M  V30 1390 C 137.564 -0.332268 -1.91336 0
M  V30 1391 O 136.839 0.667043 -1.82704 0
M  V30 1392 C 137.122 -2.81615 -2.24422 0
M  V30 1393 C 136.975 -4.20989 -1.58392 0
M  V30 1394 C 138.294 -2.96085 -3.2561 0
M  V30 1395 H 135.413 -0.592087 -0.438864 0
M  V30 1396 H 138.055 -1.83225 -0.50286 0
M  V30 1397 H 136.205 -2.64231 -2.84806 0
M  V30 1398 H 137.877 -4.49994 -1.01504 0
M  V30 1399 H 136.12 -4.24641 -0.886704 0
M  V30 1400 H 136.791 -5.0016 -2.33547 0
M  V30 1401 H 139.267 -3.12042 -2.75262 0
M  V30 1402 H 138.143 -3.80902 -3.95228 0
M  V30 1403 H 138.404 -2.0726 -3.90507 0
M  V30 1404 N 137.463 0.71206 -1.40597 0
M  V30 1405 C 138.711 1.46907 -1.38791 0
M  V30 1406 C 139.032 1.94998 0.00780391 0
M  V30 1407 O 138.302 1.70587 0.963174 0
M  V30 1408 H 136.882 0.545043 -0.51082 0
M  V30 1409 H 139.544 0.843882 -1.75683 0
M  V30 1410 H 138.64 2.34021 -2.06496 0
M  V30 1411 N 138.941 1.26152 0.944643 0
M  V30 1412 C 139.888 1.07408 2.04285 0
M  V30 1413 C 140.858 -0.0198413 1.66088 0
M  V30 1414 O 142.043 0.139264 1.90291 0
M  V30 1415 C 139.183 0.70945 3.37729 0
M  V30 1416 C 138.296 1.87926 3.88983 0
M  V30 1417 C 137.431 1.45807 5.10797 0
M  V30 1418 C 136.47 2.5964 5.54305 0
M  V30 1419 N 135.607 2.18226 6.67324 0
M  V30 1420 H 140.447 2.01389 2.1965 0
M  V30 1421 H 137.984 1.00275 1.07626 0
M  V30 1422 H 139.942 0.478948 4.14442 0
M  V30 1423 H 138.572 -0.193389 3.2222 0
M  V30 1424 H 137.624 2.22279 3.08701 0
M  V30 1425 H 138.936 2.73377 4.17213 0
M  V30 1426 H 138.09 1.18781 5.94959 0
M  V30 1427 H 136.829 0.574414 4.84305 0
M  V30 1428 H 135.834 2.87399 4.68702 0
M  V30 1429 H 137.059 3.48599 5.828 0
M  V30 1430 H 135.005 1.3229 6.42523 0
M  V30 1431 H 134.922 2.97221 6.95123 0
M  V30 1432 H 136.19 1.94403 7.54869 0
M  V30 1433 N 140.419 -1.14872 1.07899 0
M  V30 1434 C 141.696 -1.81928 0.71845 0
M  V30 1435 C 142.076 -1.95417 -0.798455 0
M  V30 1436 O 141.424 -1.50997 -1.715 0
M  V30 1437 C 141.634 -3.17937 1.43935 0
M  V30 1438 C 142.982 -3.93501 1.59506 0
M  V30 1439 O 144.006 -3.27509 1.40058 0
M  V30 1440 O 142.865 -5.1183 1.91551 0
M  V30 1441 H 139.959 -0.78628 0.256305 0
M  V30 1442 H 142.505 -1.21934 1.18026 0
M  V30 1443 H 141.277 -3.0325 2.47295 0
M  V30 1444 H 140.9 -3.85619 0.968687 0
M  V30 1445 N 141.898 -0.863906 -1.31812 0
M  V30 1446 C 142.861 -0.320212 -2.26952 0
M  V30 1447 C 143.861 0.525369 -1.51975 0
M  V30 1448 O 145.051 0.335547 -1.70938 0
M  V30 1449 C 142.183 0.545919 -3.365 0
M  V30 1450 H 143.376 -1.16004 -2.76556 0
M  V30 1451 H 140.929 -0.638995 -1.42641 0
M  V30 1452 H 141.664 1.40718 -2.92179 0
M  V30 1453 H 141.449 -0.0594674 -3.92055 0
M  V30 1454 H 142.939 0.918796 -4.07367 0
M  V30 1455 N 143.376 1.44774 -0.622745 0
M  V30 1456 C 144.622 2.02968 -0.13257 0
M  V30 1457 C 144.977 1.48047 1.22881 0
M  V30 1458 O 144.27 0.651625 1.80179 0
M  V30 1459 C 144.464 3.57364 -0.0508323 0
M  V30 1460 C 144.293 4.27262 -1.40275 0
M  V30 1461 C 143.063 4.64577 -1.98737 0
M  V30 1462 C 145.261 4.58248 -2.3348 0
M  V30 1463 N 143.243 5.19404 -3.27251 0
M  V30 1464 C 144.614 5.14069 -3.46603 0
M  V30 1465 C 146.669 4.40195 -2.32664 0
M  V30 1466 C 145.372 5.53738 -4.59093 0
M  V30 1467 C 147.398 4.80907 -3.44213 0
M  V30 1468 C 146.76 5.36834 -4.56058 0
M  V30 1469 H 142.859 0.776541 -0.0922354 0
M  V30 1470 H 145.443 1.76385 -0.82441 0
M  V30 1471 H 143.614 3.83576 0.610265 0
M  V30 1472 H 145.346 4.02219 0.447397 0
M  V30 1473 H 142.101 4.48622 -1.51774 0
M  V30 1474 H 142.525 5.51301 -3.92933 0
M  V30 1475 H 147.167 3.96257 -1.47446 0
M  V30 1476 H 144.885 5.96635 -5.45025 0
M  V30 1477 H 148.471 4.68659 -3.44747 0
M  V30 1478 H 147.351 5.67755 -5.40947 0
M  V30 1479 N 144.854 0.36279 1.53368 0
M  V30 1480 C 145.817 -0.472679 2.24273 0
M  V30 1481 C 146.817 -1.012 1.24961 0
M  V30 1482 O 148.007 -0.898194 1.49259 0
M  V30 1483 C 145.139 -1.66039 2.97731 0
M  V30 1484 H 146.332 0.14773 2.99536 0
M  V30 1485 H 143.885 0.114434 1.55881 0
M  V30 1486 H 144.62 -2.31896 2.26704 0
M  V30 1487 H 144.405 -1.28066 3.70596 0
M  V30 1488 H 145.895 -2.25252 3.51641 0
M  V30 1489 N 146.332 -1.57332 0.0918853 0
M  V30 1490 C 147.56 -1.98574 -0.581048 0
M  V30 1491 C 147.975 -0.970903 -1.61923 0
M  V30 1492 O 147.332 0.0399054 -1.82456 0
M  V30 1493 C 147.383 -3.39872 -1.23164 0
M  V30 1494 O 147.104 -4.37469 -0.234989 0
M  V30 1495 C 148.605 -3.96099 -1.99049 0
M  V30 1496 H 145.825 -0.65261 -0.156018 0
M  V30 1497 H 148.369 -2.0379 0.170225 0
M  V30 1498 H 146.524 -3.35679 -1.93386 0
M  V30 1499 H 146.938 -5.19751 -0.70418 0
M  V30 1500 H 148.412 -4.97127 -2.39934 0
M  V30 1501 H 148.889 -3.3374 -2.85507 0
M  V30 1502 H 149.495 -4.03755 -1.3365 0
M  V30 1503 N 147.81 0.181792 -1.56548 0
M  V30 1504 C 149.058 0.89832 -1.81038 0
M  V30 1505 C 149.379 1.83232 -0.667164 0
M  V30 1506 O 148.649 1.93372 0.313673 0
M  V30 1507 H 147.229 0.33471 -0.667816 0
M  V30 1508 H 149.891 0.184116 -1.94028 0
M  V30 1509 H 148.987 1.4815 -2.74696 0
M  V30 1510 N 149.288 1.51039 0.449983 0
M  V30 1511 C 150.236 1.71995 1.5659 0
M  V30 1512 C 151.23 0.586029 1.5894 0
M  V30 1513 O 152.436 0.76709 1.62837 0
M  V30 1514 H 148.811 0.543233 0.520001 0
M  V30 1515 H 150.782 2.65562 1.36085 0
M  V30 1516 C 149.531 1.8506 2.9436 0
M  V30 1517 H 148.854 2.71712 2.93279 0
M  V30 1518 H 150.294 2.0374 3.71842 0
M  V30 1519 C 148.753 0.607277 3.31382 0
M  V30 1520 O 149.283 -0.243903 4.00959 0
M  V30 1521 N 147.489 0.455073 2.87015 0
M  V30 1522 H 147.036 1.14879 2.30566 0
M  V30 1523 H 146.994 -0.375611 3.12148 0
M  V30 1524 N 150.766 -0.704594 1.40972 0
M  V30 1525 C 152.177 -1.28418 1.3552 0
M  V30 1526 C 152.528 -1.96171 0.0339434 0
M  V30 1527 O 151.653 -1.98231 -0.867944 0
M  V30 1528 C 152.248 -2.33528 2.45459 0
M  V30 1529 C 150.807 -2.87085 2.43433 0
M  V30 1530 C 149.954 -1.61007 2.2577 0
M  V30 1531 H 152.905 -0.499963 1.50619 0
M  V30 1532 H 152.926 -3.14619 2.13998 0
M  V30 1533 H 152.438 -1.84187 3.41609 0
M  V30 1534 H 150.539 -3.40626 1.51013 0
M  V30 1535 H 150.652 -3.3813 3.39419 0
M  V30 1536 H 149.016 -1.86482 1.73483 0
M  V30 1537 H 149.799 -1.13675 3.23933 0
M  V30 1538 N 152.244 -1.26651 -0.937939 0
M  V30 1539 C 153.207 -1.08546 -2.01867 0
M  V30 1540 C 154.207 -0.0327327 -1.60767 0
M  V30 1541 O 155.397 -0.276427 -1.71993 0
M  V30 1542 C 152.529 -0.651711 -3.34613 0
M  V30 1543 H 153.722 -2.04502 -2.1936 0
M  V30 1544 H 151.275 -1.09294 -1.11734 0
M  V30 1545 H 152.01 0.309696 -3.22818 0
M  V30 1546 H 151.795 -1.41189 -3.65798 0
M  V30 1547 H 153.285 -0.546973 -4.14002 0
M  V30 1548 N 153.722 1.14298 -1.08507 0
M  V30 1549 C 154.652 2.21542 -0.737646 0
M  V30 1550 C 155.633 1.67773 0.280377 0
M  V30 1551 O 156.818 1.93616 0.150521 0
M  V30 1552 C 153.948 3.46988 -0.147259 0
M  V30 1553 C 152.902 4.13789 -1.09374 0
M  V30 1554 C 152.228 5.33449 -0.365524 0
M  V30 1555 C 153.528 4.62208 -2.4323 0
M  V30 1556 H 155.222 2.5086 -1.6343 0
M  V30 1557 H 152.768 1.20576 -0.787243 0
M  V30 1558 H 154.721 4.21262 0.107808 0
M  V30 1559 H 153.445 3.17037 0.784538 0
M  V30 1560 H 152.104 3.4147 -1.33393 0
M  V30 1561 H 151.752 4.99759 0.57011 0
M  V30 1562 H 151.452 5.79088 -0.996512 0
M  V30 1563 H 152.976 6.10485 -0.118534 0
M  V30 1564 H 154.39 5.27952 -2.23472 0
M  V30 1565 H 152.787 5.18553 -3.02031 0
M  V30 1566 H 153.857 3.77224 -3.04681 0
M  V30 1567 N 155.201 0.870884 1.31352 0
M  V30 1568 C 156.617 0.562932 1.49343 0
M  V30 1569 C 156.817 -0.902725 1.80148 0
M  V30 1570 O 155.873 -1.68484 1.88067 0
M  V30 1571 C 157.186 1.46393 2.62659 0
M  V30 1572 C 158.734 1.46607 2.76542 0
M  V30 1573 C 159.209 2.35266 3.92955 0
M  V30 1574 N 160.7 2.33151 4.00243 0
M  V30 1575 C 161.435 2.98471 4.89594 0
M  V30 1576 N 160.931 3.72964 5.8384 0
M  V30 1577 N 162.724 2.87775 4.82848 0
M  V30 1578 H 154.875 1.81923 1.09626 0
M  V30 1579 H 157.138 0.777934 0.541777 0
M  V30 1580 H 156.844 2.50689 2.46674 0
M  V30 1581 H 156.718 1.16314 3.58819 0
M  V30 1582 H 159.105 0.43069 2.9194 0
M  V30 1583 H 159.186 1.8071 1.81046 0
M  V30 1584 H 158.83 3.38881 3.78315 0
M  V30 1585 H 158.76 1.98487 4.87761 0
M  V30 1586 H 161.251 1.79006 3.32814 0
M  V30 1587 H 161.564 4.19932 6.4875 0
M  V30 1588 H 159.909 3.77073 5.83816 0
M  V30 1589 H 163.1 2.29116 4.08195 0
M  V30 1590 H 163.273 3.38961 5.52277 0
M  V30 1591 N 156.679 -1.44442 0.630414 0
M  V30 1592 C 157.927 -2.01653 0.134351 0
M  V30 1593 C 158.248 -1.49836 -1.24796 0
M  V30 1594 O 157.518 -0.701684 -1.82902 0
M  V30 1595 H 156.098 -0.74554 0.0466769 0
M  V30 1596 H 158.76 -1.76952 0.816955 0
M  V30 1597 H 157.856 -3.11935 0.101498 0
M  V30 1598 N 158.157 -0.370918 -1.53173 0
M  V30 1599 C 159.382 0.220293 -2.06227 0
M  V30 1600 C 159.807 1.41243 -1.24225 0
M  V30 1601 O 159.165 1.79387 -0.262645 0
M  V30 1602 C 159.213 0.586663 -3.55796 0
M  V30 1603 O 158.317 1.68317 -3.76488 0
M  V30 1604 H 157.658 0.0308099 -0.663285 0
M  V30 1605 H 160.188 -0.533068 -1.97534 0
M  V30 1606 H 160.198 0.85617 -3.98916 0
M  V30 1607 H 158.873 -0.285013 -4.14922 0
M  V30 1608 H 157.45 1.40881 -3.45264 0
M  V30 1609 N 159.635 1.57281 -0.100228 0
M  V30 1610 C 160.86 1.99302 0.573881 0
M  V30 1611 C 161.285 0.979059 1.60611 0
M  V30 1612 O 160.643 -0.0517803 1.81226 0
M  V30 1613 C 160.691 3.40274 1.19358 0
M  V30 1614 O 159.795 3.41676 2.30935 0
M  V30 1615 H 159.136 0.647944 0.145138 0
M  V30 1616 H 161.666 2.03779 -0.183156 0
M  V30 1617 H 161.676 3.78078 1.53365 0
M  V30 1618 H 160.351 4.13594 0.437385 0
M  V30 1619 H 158.928 3.15672 1.98509 0
M  V30 1620 N 161.113 -0.173488 1.56642 0
M  V30 1621 C 162.359 -0.891784 1.8214 0
M  V30 1622 C 162.692 -1.8199 0.677736 0
M  V30 1623 O 161.967 -1.91842 -0.320446 0
M  V30 1624 C 162.25 -1.68933 3.18015 0
M  V30 1625 C 162.103 -0.784487 4.42906 0
M  V30 1626 C 163.422 -2.65748 3.50808 0
M  V30 1627 H 160.541 -0.322761 0.662567 0
M  V30 1628 H 163.183 -0.158095 1.89341 0
M  V30 1629 H 161.333 -2.31482 3.12007 0
M  V30 1630 H 163.005 -0.172046 4.60979 0
M  V30 1631 H 161.248 -0.0924117 4.33702 0
M  V30 1632 H 161.919 -1.37799 5.34524 0
M  V30 1633 H 164.395 -2.13327 3.57255 0
M  V30 1634 H 163.271 -3.18619 4.4696 0
M  V30 1635 H 163.532 -3.45842 2.75401 0
M  V30 1636 N 162.591 -1.51276 -0.441967 0
M  V30 1637 C 163.524 -1.66933 -1.55591 0
M  V30 1638 C 164.502 -0.516958 -1.54163 0
M  V30 1639 O 165.686 -0.740209 -1.73358 0
M  V30 1640 C 162.813 -1.67866 -2.94174 0
M  V30 1641 C 161.859 -2.89013 -3.13646 0
M  V30 1642 S 162.692 -4.49897 -2.90436 0
M  V30 1643 C 163.848 -4.53568 -4.31308 0
M  V30 1644 H 164.081 -2.61155 -1.42076 0
M  V30 1645 H 161.614 -1.40902 -0.631341 0
M  V30 1646 H 163.572 -1.69089 -3.74058 0
M  V30 1647 H 162.233 -0.748296 -3.05056 0
M  V30 1648 H 161.426 -2.86054 -4.14957 0
M  V30 1649 H 161.028 -2.85509 -2.4158 0
M  V30 1650 H 163.32 -4.28924 -5.24434 0
M  V30 1651 H 164.263 -5.55355 -4.39303 0
M  V30 1652 H 164.671 -3.82943 -4.14747 0
M  V30 1653 N 164.069 0.697108 -1.41344 0
M  V30 1654 C 165.316 1.45714 -1.40619 0
M  V30 1655 C 165.644 1.94494 -0.0147907 0
M  V30 1656 O 164.899 1.69794 0.973066 0
M  V30 1657 C 165.198 2.68553 -2.35826 0
M  V30 1658 C 164.864 2.38438 -3.82698 0
M  V30 1659 C 163.526 2.29936 -4.22709 0
M  V30 1660 C 165.878 2.13567 -4.75435 0
M  V30 1661 C 163.206 1.94656 -5.53467 0
M  V30 1662 C 165.558 1.79797 -6.06511 0
M  V30 1663 C 164.222 1.69789 -6.45545 0
M  V30 1664 H 163.492 0.533206 -0.51456 0
M  V30 1665 H 166.139 0.796901 -1.74131 0
M  V30 1666 H 164.444 3.39503 -1.95563 0
M  V30 1667 H 166.141 3.2669 -2.32539 0
M  V30 1668 H 162.731 2.4595 -3.51008 0
M  V30 1669 H 166.915 2.19082 -4.45328 0
M  V30 1670 H 162.171 1.8546 -5.82593 0
M  V30 1671 H 166.345 1.59572 -6.77872 0
M  V30 1672 H 163.972 1.4222 -7.46778 0
M  V30 1673 N 165.547 1.27147 0.931209 0
M  V30 1674 C 166.477 1.12081 2.04842 0
M  V30 1675 C 167.458 0.0232364 1.70084 0
M  V30 1676 O 168.643 0.197085 1.93197 0
M  V30 1677 C 165.773 0.76354 3.38803 0
M  V30 1678 C 164.727 1.81396 3.87659 0
M  V30 1679 C 164.053 1.31075 5.18385 0
M  V30 1680 C 165.353 3.21739 4.11438 0
M  V30 1681 H 167.047 2.05537 2.17703 0
M  V30 1682 H 164.593 0.989603 1.04608 0
M  V30 1683 H 166.546 0.644982 4.16435 0
M  V30 1684 H 165.27 -0.206727 3.25945 0
M  V30 1685 H 163.929 1.92136 3.12217 0
M  V30 1686 H 163.577 0.330037 5.01916 0
M  V30 1687 H 163.277 2.013 5.52044 0
M  V30 1688 H 164.801 1.20506 5.98591 0
M  V30 1689 H 166.215 3.14019 4.79651 0
M  V30 1690 H 164.612 3.89644 4.56397 0
M  V30 1691 H 165.682 3.67054 3.16859 0
M  V30 1692 N 167.025 -1.13721 1.09112 0
M  V30 1693 C 167.972 -2.19031 0.727591 0
M  V30 1694 C 168.942 -1.63555 -0.289656 0
M  V30 1695 O 170.127 -1.90023 -0.172026 0
M  V30 1696 C 167.267 -3.4477 0.15082 0
M  V30 1697 C 166.38 -4.14365 1.22172 0
M  V30 1698 C 165.515 -5.27709 0.608042 0
M  V30 1699 C 164.554 -5.89147 1.66047 0
M  V30 1700 N 163.691 -6.93929 1.06806 0
M  V30 1701 H 168.531 -2.49475 1.62991 0
M  V30 1702 H 166.068 -1.22499 0.81439 0
M  V30 1703 H 168.026 -4.16714 -0.201358 0
M  V30 1704 H 166.656 -3.14787 -0.714783 0
M  V30 1705 H 165.708 -3.40737 1.69122 0
M  V30 1706 H 167.02 -4.56114 2.01895 0
M  V30 1707 H 166.174 -6.06355 0.204523 0
M  V30 1708 H 164.913 -4.872 -0.220769 0
M  V30 1709 H 163.918 -5.09198 2.07357 0
M  V30 1710 H 165.143 -6.31729 2.49189 0
M  V30 1711 H 163.089 -6.55483 0.260476 0
M  V30 1712 H 163.006 -7.34202 1.8023 0
M  V30 1713 H 164.274 -7.76434 0.690644 0
M  V30 1714 N 168.503 -0.877838 -1.30888 0
M  V30 1715 C 169.914 -0.544193 -1.78593 0
M  V30 1716 C 170.265 0.939301 -1.72254 0
M  V30 1717 O 169.39 1.7337 -1.29505 0
M  V30 1718 C 169.985 -0.98105 -3.24285 0
M  V30 1719 C 168.544 -0.698935 -3.69854 0
M  V30 1720 C 167.691 -1.168 -2.51502 0
M  V30 1721 H 170.642 -1.06278 -1.17859 0
M  V30 1722 H 170.663 -0.307009 -3.79259 0
M  V30 1723 H 170.175 -2.06079 -3.28866 0
M  V30 1724 H 168.276 0.369112 -3.70767 0
M  V30 1725 H 168.389 -1.28148 -4.61644 0
M  V30 1726 H 166.753 -0.587535 -2.47831 0
M  V30 1727 H 167.536 -2.25533 -2.58824 0
M  V30 1728 N 169.982 1.44106 -0.638065 0
M  V30 1729 C 171.23 2.01579 -0.145043 0
M  V30 1730 C 171.551 1.50496 1.24 0
M  V30 1731 O 170.821 0.711374 1.82527 0
M  V30 1732 H 169.401 0.745282 -0.05063 0
M  V30 1733 H 172.063 1.76516 -0.826327 0
M  V30 1734 H 171.159 3.11877 -0.118039 0
M  V30 1735 N 171.46 0.379036 1.52974 0
M  V30 1736 C 172.737 -0.263479 1.93817 0
M  V30 1737 C 173.117 -1.65244 1.31368 0
M  V30 1738 O 172.465 -2.23448 0.477856 0
M  V30 1739 C 172.675 -0.300166 3.47707 0
M  V30 1740 C 174.023 -0.534061 4.21228 0
M  V30 1741 O 175.047 -0.38081 3.54159 0
M  V30 1742 O 173.906 -0.833501 5.40106 0
M  V30 1743 H 171 -0.161149 0.811147 0
M  V30 1744 H 173.546 0.432798 1.64088 0
M  V30 1745 H 172.318 0.673138 3.85467 0
M  V30 1746 H 171.941 -1.04179 3.83709 0
M  V30 1747 N 172.938 -1.57226 0.108567 0
M  V30 1748 C 173.87 -2.11809 -0.875752 0
M  V30 1749 C 174.883 -1.05839 -1.23701 0
M  V30 1750 O 176.072 -1.33245 -1.18778 0
M  V30 1751 C 173.172 -2.59411 -2.18081 0
M  V30 1752 C 172.345 -3.89364 -1.99284 0
M  V30 1753 C 171.404 -4.22672 -3.13424 0
M  V30 1754 O 170.43 -4.91668 -2.86795 0
M  V30 1755 N 171.632 -3.79154 -4.3957 0
M  V30 1756 H 174.397 -2.9689 -0.409477 0
M  V30 1757 H 171.958 -1.61721 -0.076158 0
M  V30 1758 H 173.95 -2.7873 -2.93414 0
M  V30 1759 H 172.52 -1.79268 -2.5609 0
M  V30 1760 H 171.74 -3.79059 -1.08203 0
M  V30 1761 H 173.028 -4.74358 -1.84017 0
M  V30 1762 H 172.426 -3.23486 -4.64083 0
M  V30 1763 H 170.983 -4.03602 -5.11809 0
M  V30 1764 N 174.416 0.165178 -1.56732 0
M  V30 1765 C 175.662 0.882112 -1.82611 0
M  V30 1766 C 175.995 1.81628 -0.687378 0
M  V30 1767 O 175.27 1.92009 0.310267 0
M  V30 1768 C 175.553 1.67245 -3.18906 0
M  V30 1769 C 175.406 0.760987 -4.43316 0
M  V30 1770 C 176.725 2.63884 -3.52212 0
M  V30 1771 H 173.844 0.319242 -0.664269 0
M  V30 1772 H 176.486 0.148052 -1.89422 0
M  V30 1773 H 174.636 2.29824 -3.1323 0
M  V30 1774 H 176.308 0.147596 -4.61064 0
M  V30 1775 H 174.551 0.0694102 -4.33744 0
M  V30 1776 H 175.222 1.34962 -5.35247 0
M  V30 1777 H 177.698 2.11429 -3.58381 0
M  V30 1778 H 176.574 3.16245 -4.48643 0
M  V30 1779 H 176.835 3.44377 -2.77231 0
M  V30 1780 N 175.894 1.51508 0.433938 0
M  V30 1781 C 177.119 1.68443 1.21003 0
M  V30 1782 C 177.544 0.382636 1.84167 0
M  V30 1783 O 176.902 -0.65755 1.68956 0
M  V30 1784 C 176.95 2.80405 2.26727 0
M  V30 1785 O 176.054 2.44245 3.32292 0
M  V30 1786 H 175.395 0.561536 0.354363 0
M  V30 1787 H 177.925 1.9809 0.512024 0
M  V30 1788 H 177.935 3.0459 2.71457 0
M  V30 1789 H 176.61 3.74867 1.80132 0
M  V30 1790 H 175.187 2.30644 2.93015 0
M  V30 1791 N 177.372 -0.689602 1.41712 0
M  V30 1792 C 178.618 -1.45181 1.41599 0
M  V30 1793 C 178.951 -1.94181 0.0270081 0
M  V30 1794 O 178.226 -1.6993 -0.946265 0
M  V30 1795 C 178.509 -2.65945 2.42787 0
M  V30 1796 C 178.362 -2.22672 3.90816 0
M  V30 1797 C 179.681 -3.68149 2.41151 0
M  V30 1798 H 176.8 -0.526576 0.515642 0
M  V30 1799 H 179.442 -0.784947 1.73028 0
M  V30 1800 H 177.592 -3.2284 2.16116 0
M  V30 1801 H 179.264 -1.71058 4.28412 0
M  V30 1802 H 177.507 -1.54394 4.05395 0
M  V30 1803 H 178.178 -3.0935 4.57172 0
M  V30 1804 H 180.654 -3.2094 2.64834 0
M  V30 1805 H 179.53 -4.50248 3.13955 0
M  V30 1806 H 179.791 -4.18259 1.43221 0
M  V30 1807 N 178.85 -1.27639 -0.924453 0
M  V30 1808 C 179.813 -1.10681 -2.00705 0
M  V30 1809 C 180.813 -0.0497823 -1.60723 0
M  V30 1810 O 182.003 -0.294654 -1.7169 0
M  V30 1811 C 179.135 -0.687164 -3.33902 0
M  V30 1812 H 180.328 -2.06817 -2.17179 0
M  V30 1813 H 177.881 -1.10473 -1.10569 0
M  V30 1814 H 178.616 0.275439 -3.23128 0
M  V30 1815 H 178.401 -1.45061 -3.6428 0
M  V30 1816 H 179.891 -0.590853 -4.13399 0
M  V30 1817 N 180.328 1.1314 -1.09713 0
M  V30 1818 C 181.605 1.80762 -0.747302 0
M  V30 1819 C 181.985 1.96663 0.767265 0
M  V30 1820 O 181.333 1.53706 1.69076 0
M  V30 1821 C 181.543 3.15606 -1.48975 0
M  V30 1822 C 182.891 3.90914 -1.65746 0
M  V30 1823 O 183.915 3.25239 -1.45251 0
M  V30 1824 O 182.774 5.08718 -1.9967 0
M  V30 1825 H 179.868 0.782103 -0.268782 0
M  V30 1826 H 182.414 1.20041 -1.19951 0
M  V30 1827 H 181.186 2.99278 -2.52088 0
M  V30 1828 H 180.809 3.84029 -1.02991 0
M  V30 1829 N 181.806 0.884767 1.30421 0
M  V30 1830 C 182.736 0.367574 2.30589 0
M  V30 1831 C 183.717 -0.549464 1.60981 0
M  V30 1832 O 184.902 -0.46336 1.88591 0
M  V30 1833 C 182.032 -0.418944 3.44764 0
M  V30 1834 C 180.986 0.406316 4.26067 0
M  V30 1835 C 180.312 -0.506793 5.32293 0
M  V30 1836 C 181.612 1.64832 4.95608 0
M  V30 1837 H 183.306 1.20462 2.74097 0
M  V30 1838 H 180.852 0.580695 1.31772 0
M  V30 1839 H 182.805 -0.791395 4.13902 0
M  V30 1840 H 181.529 -1.28964 3.0006 0
M  V30 1841 H 180.188 0.760903 3.58617 0
M  V30 1842 H 179.836 -1.37519 4.83836 0
M  V30 1843 H 179.536 0.0415828 5.87585 0
M  V30 1844 H 181.06 -0.875764 6.04287 0
M  V30 1845 H 182.474 1.34646 5.57264 0
M  V30 1846 H 180.871 2.13688 5.60765 0
M  V30 1847 H 181.941 2.39284 4.21748 0
M  V30 1848 N 183.284 -1.43765 0.645699 0
M  V30 1849 C 184.232 -2.32516 -0.0624849 0
M  V30 1850 C 185.226 -1.48183 -0.820855 0
M  V30 1851 O 186.432 -1.64439 -0.732106 0
M  V30 1852 H 182.807 -0.750989 -0.0389864 0
M  V30 1853 H 184.778 -2.89979 0.703892 0
M  V30 1854 C 183.527 -3.32389 -1.02044 0
M  V30 1855 H 182.85 -3.97301 -0.446312 0
M  V30 1856 H 184.29 -3.97138 -1.48517 0
M  V30 1857 C 182.749 -2.62416 -2.11281 0
M  V30 1858 O 183.279 -2.434 -3.19561 0
M  V30 1859 N 181.485 -2.21913 -1.87624 0
M  V30 1860 H 181.032 -2.37578 -0.995703 0
M  V30 1861 H 180.99 -1.75424 -2.6091 0
M  V30 1862 N 184.763 -0.387143 -1.52771 0
M  V30 1863 C 185.71 0.449048 -2.26389 0
M  V30 1864 C 186.68 1.05961 -1.27912 0
M  V30 1865 O 187.865 1.08804 -1.56737 0
M  V30 1866 C 185.005 1.57155 -3.0724 0
M  V30 1867 C 184.118 0.984066 -4.20643 0
M  V30 1868 C 183.253 2.07745 -4.88892 0
M  V30 1869 C 182.292 1.46574 -5.94292 0
M  V30 1870 N 181.429 2.49834 -6.56146 0
M  V30 1871 H 186.269 -0.185205 -2.97424 0
M  V30 1872 H 183.806 -0.103164 -1.46738 0
M  V30 1873 H 185.764 2.23309 -3.52405 0
M  V30 1874 H 184.394 2.17615 -2.38419 0
M  V30 1875 H 183.446 0.212193 -3.79808 0
M  V30 1876 H 184.758 0.497029 -4.96318 0
M  V30 1877 H 183.912 2.81673 -5.3735 0
M  V30 1878 H 182.651 2.59807 -4.12737 0
M  V30 1879 H 181.656 0.711696 -5.45174 0
M  V30 1880 H 182.881 0.953088 -6.72379 0
M  V30 1881 H 180.827 3.0107 -5.82832 0
M  V30 1882 H 180.744 2.05879 -7.27427 0
M  V30 1883 H 182.012 3.23399 -7.09249 0
M  V30 1884 N 186.241 1.57166 -0.116904 0
M  V30 1885 C 187.489 1.94737 0.540533 0
M  V30 1886 C 187.81 1.00096 1.67349 0
M  V30 1887 O 187.08 0.0568854 1.95817 0
M  V30 1888 H 185.66 0.718981 0.202669 0
M  V30 1889 H 188.322 1.94017 -0.185353 0
M  V30 1890 H 187.418 2.97719 0.936483 0
M  V30 1891 N 187.719 -0.156864 1.56817 0
M  V30 1892 C 188.965 -0.872416 1.83076 0
M  V30 1893 C 189.298 -1.81261 0.697001 0
M  V30 1894 O 188.573 -1.92171 -0.30008 0
M  V30 1895 C 188.856 -1.65551 3.19789 0
M  V30 1896 C 188.709 -0.737467 4.43713 0
M  V30 1897 C 190.028 -2.62012 3.53606 0
M  V30 1898 H 187.147 -0.315715 0.665953 0
M  V30 1899 H 189.789 -0.138004 1.89498 0
M  V30 1900 H 187.939 -2.28159 3.14445 0
M  V30 1901 H 189.611 -0.123143 4.61136 0
M  V30 1902 H 187.854 -0.0464067 4.33775 0
M  V30 1903 H 188.525 -1.32122 5.35955 0
M  V30 1904 H 191.001 -2.09525 3.59497 0
M  V30 1905 H 189.877 -3.13861 4.50314 0
M  V30 1906 H 190.138 -3.42902 2.79053 0
M  V30 1907 N 189.197 -1.51736 -0.425897 0
M  V30 1908 C 190.446 -1.64201 -1.17136 0
M  V30 1909 C 190.759 -0.369705 -1.92074 0
M  V30 1910 O 191.965 -0.373898 -2.68913 0
M  V30 1911 C 190.421 -2.90035 -2.13091 0
M  V30 1912 C 190.029 -4.24312 -1.43747 0
M  V30 1913 C 191.773 -3.1186 -2.87999 0
M  V30 1914 C 189.68 -5.41285 -2.38253 0
M  V30 1915 H 188.61 -0.611624 -0.440944 0
M  V30 1916 H 191.261 -1.78212 -0.437328 0
M  V30 1917 H 189.643 -2.69684 -2.89977 0
M  V30 1918 H 190.817 -4.55086 -0.723408 0
M  V30 1919 H 189.132 -4.08456 -0.809465 0
M  V30 1920 H 191.729 -3.96427 -3.58817 0
M  V30 1921 H 192.072 -2.25403 -3.49999 0
M  V30 1922 H 192.605 -3.32605 -2.18217 0
M  V30 1923 H 189.344 -6.30037 -1.80925 0
M  V30 1924 H 188.864 -5.14872 -3.0768 0
M  V30 1925 H 190.543 -5.73694 -2.99139 0
M  V30 1926 N 190.675 0.682077 -1.42076 0
M  V30 1927 C 191.924 1.43786 -1.41451 0
M  V30 1928 C 192.237 1.95574 -0.0317074 0
M  V30 1929 O 193.443 2.71326 0.0971462 0
M  V30 1930 C 191.899 2.60071 -2.48779 0
M  V30 1931 C 191.507 2.15013 -3.93031 0
M  V30 1932 C 193.251 3.37626 -2.57311 0
M  V30 1933 C 191.158 3.28336 -4.91883 0
M  V30 1934 H 190.088 0.540143 -0.526082 0
M  V30 1935 H 192.739 0.739157 -1.67955 0
M  V30 1936 H 191.121 3.32275 -2.15429 0
M  V30 1937 H 192.295 1.5001 -4.35699 0
M  V30 1938 H 190.61 1.50416 -3.88284 0
M  V30 1939 H 193.207 4.22012 -3.28345 0
M  V30 1940 H 193.55 3.83727 -1.61429 0
M  V30 1941 H 194.083 2.72488 -2.89819 0
M  V30 1942 H 190.822 2.87234 -5.89217 0
M  V30 1943 H 190.342 3.92145 -4.53853 0
M  V30 1944 H 192.021 3.93913 -5.13265 0
M  V30 1945 N 192.153 1.28127 0.917671 0
M  V30 1946 C 193.085 1.07517 2.02417 0
M  V30 1947 C 194.098 0.0281099 1.62776 0
M  V30 1948 O 195.287 0.270748 1.76435 0
M  V30 1949 C 192.387 0.610957 3.33347 0
M  V30 1950 C 191.56 1.73255 4.01624 0
M  V30 1951 C 190.619 1.26238 5.10833 0
M  V30 1952 O 189.645 1.96389 5.34247 0
M  V30 1953 N 190.847 0.123448 5.80369 0
M  V30 1954 H 193.612 2.02806 2.20658 0
M  V30 1955 H 191.173 1.19827 1.08871 0
M  V30 1956 H 193.165 0.280101 4.0373 0
M  V30 1957 H 191.735 -0.24898 3.11607 0
M  V30 1958 H 190.955 2.23319 3.24842 0
M  V30 1959 H 192.243 2.48503 4.43986 0
M  V30 1960 H 191.641 -0.461847 5.63812 0
M  V30 1961 H 190.198 -0.148158 6.51632 0
M  V30 1962 N 193.631 -1.12557 1.10312 0
M  V30 1963 C 194.856 -1.88405 0.867085 0
M  V30 1964 C 195.281 -1.79038 -0.576817 0
M  V30 1965 O 194.639 -1.14439 -1.40618 0
M  V30 1966 C 194.687 -3.3563 1.31851 0
M  V30 1967 O 193.791 -4.09565 0.482734 0
M  V30 1968 H 193.132 -0.585455 0.313271 0
M  V30 1969 H 195.662 -1.42352 1.4696 0
M  V30 1970 H 195.672 -3.86469 1.3079 0
M  V30 1971 H 194.347 -3.41765 2.37001 0
M  V30 1972 H 192.924 -3.68695 0.558448 0
M  V30 1973 N 195.109 -0.891671 -1.2995 0
M  V30 1974 C 196.357 -0.512486 -1.95494 0
M  V30 1975 C 196.678 0.942776 -1.70695 0
M  V30 1976 O 195.948 1.66374 -1.03424 0
M  V30 1977 H 194.528 -0.186533 -0.723336 0
M  V30 1978 H 197.19 -1.13621 -1.58355 0
M  V30 1979 H 196.286 -0.688342 -3.04415 0
M  V30 1980 N 196.587 1.43421 -0.653314 0
M  V30 1981 C 197.535 2.32546 0.0501531 0
M  V30 1982 C 198.529 1.48617 0.812985 0
M  V30 1983 O 199.735 1.64825 0.723375 0
M  V30 1984 H 196.11 0.751185 0.0350032 0
M  V30 1985 H 198.081 2.89602 -0.719261 0
M  V30 1986 C 196.83 3.32925 1.00279 0
M  V30 1987 H 196.153 3.97532 0.425236 0
M  V30 1988 H 197.593 3.9792 1.46409 0
M  V30 1989 C 196.052 2.63532 2.09886 0
M  V30 1990 O 196.582 2.45092 3.18265 0
M  V30 1991 N 194.788 2.22905 1.86445 0
M  V30 1992 H 194.335 2.38103 0.98309 0
M  V30 1993 H 194.293 1.76805 2.59976 0
M  V30 1994 N 198.065 0.39524 1.52563 0
M  V30 1995 C 199.342 -0.242908 1.94086 0
M  V30 1996 C 199.722 -1.63841 1.33114 0
M  V30 1997 O 199.07 -2.22928 0.501529 0
M  V30 1998 C 199.28 -0.26327 3.48006 0
M  V30 1999 C 200.628 -0.489354 4.21771 0
M  V30 2000 O 201.652 -0.343226 3.54543 0
M  V30 2001 O 200.511 -0.776169 5.4096 0
M  V30 2002 H 197.605 -0.152536 0.812811 0
M  V30 2003 H 200.151 0.450178 1.6362 0
M  V30 2004 H 198.923 0.713985 3.84731 0
M  V30 2005 H 198.546 -1.00103 3.84792 0
M  V30 2006 N 199.544 -1.57102 0.125237 0
M  V30 2007 C 200.507 -2.14471 -0.80838 0
M  V30 2008 C 201.507 -1.0811 -1.19033 0
M  V30 2009 O 202.697 -1.33856 -1.11482 0
M  V30 2010 C 199.829 -2.69005 -2.09402 0
M  V30 2011 H 201.022 -2.98297 -0.309696 0
M  V30 2012 H 198.575 -1.55807 -0.124051 0
M  V30 2013 H 199.31 -1.88785 -2.63687 0
M  V30 2014 H 199.095 -3.46799 -1.82957 0
M  V30 2015 H 200.585 -3.13278 -2.76128 0
M  V30 2016 N 201.022 0.148545 -1.56898 0
M  V30 2017 C 202.262 0.86765 -1.85071 0
M  V30 2018 C 202.626 1.78417 -0.709317 0
M  V30 2019 O 203.827 2.54261 -0.872049 0
M  V30 2020 C 202.098 1.62306 -3.1842 0
M  V30 2021 S 203.657 2.3878 -3.68143 0
M  V30 2022 H 200.475 0.290174 -0.649092 0
M  V30 2023 H 203.077 0.127755 -1.95082 0
M  V30 2024 H 201.781 0.941192 -3.99462 0
M  V30 2025 H 201.312 2.4039 -3.1141 0
M  V30 2026 H 203.327 3.63942 -3.37285 0
M  V30 2027 N 202.5 1.5196 0.417844 0
M  V30 2028 C 203.749 1.6482 1.16264 0
M  V30 2029 C 204.062 0.379886 1.91876 0
M  V30 2030 O 205.268 0.388154 2.68711 0
M  V30 2031 C 203.724 2.91161 2.1155 0
M  V30 2032 C 203.332 4.25068 1.41495 0
M  V30 2033 C 205.076 3.13383 2.86341 0
M  V30 2034 C 202.983 5.42541 2.35379 0
M  V30 2035 H 201.913 0.613954 0.437694 0
M  V30 2036 H 204.564 1.78442 0.427871 0
M  V30 2037 H 202.946 2.71218 2.88543 0
M  V30 2038 H 204.12 4.55463 0.699263 0
M  V30 2039 H 202.435 4.0888 0.787792 0
M  V30 2040 H 205.032 3.98324 3.5671 0
M  V30 2041 H 205.375 2.27256 3.48798 0
M  V30 2042 H 205.908 3.33757 2.1645 0
M  V30 2043 H 202.647 6.30987 1.77582 0
M  V30 2044 H 202.167 5.16497 3.04945 0
M  V30 2045 H 203.846 5.75272 2.96093 0
M  V30 2046 N 203.978 -0.674533 1.42435 0
M  V30 2047 C 204.941 -1.76986 1.45632 0
M  V30 2048 C 205.941 -1.5708 0.343871 0
M  V30 2049 O 207.131 -1.63367 0.604709 0
M  V30 2050 C 204.263 -3.15623 1.28822 0
M  V30 2051 H 205.456 -1.75539 2.43158 0
M  V30 2052 H 203.009 -0.884189 1.28887 0
M  V30 2053 H 203.744 -3.22696 0.322193 0
M  V30 2054 H 203.529 -3.31475 2.09444 0
M  V30 2055 H 205.019 -3.95537 1.33942 0
M  V30 2056 N 205.456 -1.28612 -0.910864 0
M  V30 2057 C 206.386 -1.15326 -2.03032 0
M  V30 2058 C 207.367 -0.0502924 -1.70026 0
M  V30 2059 O 208.552 -0.227797 -1.92859 0
M  V30 2060 C 205.682 -0.817343 -3.37545 0
M  V30 2061 C 204.636 -1.8754 -3.84724 0
M  V30 2062 C 203.962 -1.39305 -5.16235 0
M  V30 2063 C 205.262 -3.28244 -4.06267 0
M  V30 2064 H 206.956 -2.08975 -2.14406 0
M  V30 2065 H 204.502 -1.00612 -1.03021 0
M  V30 2066 H 206.455 -0.711151 -4.15356 0
M  V30 2067 H 205.179 0.154846 -3.26233 0
M  V30 2068 H 203.838 -1.97079 -3.09121 0
M  V30 2069 H 203.486 -0.409846 -5.01328 0
M  V30 2070 H 203.186 -2.10057 -5.48771 0
M  V30 2071 H 204.71 -1.30014 -5.96598 0
M  V30 2072 H 206.124 -3.21611 -4.74594 0
M  V30 2073 H 204.521 -3.96855 -4.5014 0
M  V30 2074 H 205.591 -3.72048 -3.10979 0
M  V30 2075 N 206.934 1.1197 -1.10907 0
M  V30 2076 C 207.897 2.16031 -0.765707 0
M  V30 2077 C 208.897 1.59393 0.212235 0
M  V30 2078 O 210.087 1.74196 -0.0115441 0
M  V30 2079 C 207.219 3.40632 -0.135053 0
M  V30 2080 H 208.412 2.47919 -1.68748 0
M  V30 2081 H 205.965 1.27061 -0.910226 0
M  V30 2082 H 206.7 3.14348 0.797218 0
M  V30 2083 H 206.485 3.8302 -0.838937 0
M  V30 2084 H 207.975 4.17505 0.0892469 0
M  V30 2085 N 208.412 0.89855 1.29475 0
M  V30 2086 C 209.689 0.443416 1.90508 0
M  V30 2087 C 210.069 -1.07685 1.81569 0
M  V30 2088 O 209.417 -1.9182 1.24166 0
M  V30 2089 C 209.627 0.956708 3.35631 0
M  V30 2090 C 210.975 0.999728 4.12663 0
M  V30 2091 O 211.999 0.904299 3.4453 0
M  V30 2092 O 210.858 1.14289 5.34416 0
M  V30 2093 H 207.952 0.138025 0.815401 0
M  V30 2094 H 210.498 0.98834 1.37949 0
M  V30 2095 H 209.27 2.00067 3.36287 0
M  V30 2096 H 208.893 0.391728 3.95666 0
M  V30 2097 N 209.89 -1.43072 0.660911 0
M  V30 2098 C 211.12 -2.05769 0.185153 0
M  V30 2099 C 211.528 -1.49668 -1.15742 0
M  V30 2100 O 210.871 -0.625649 -1.72717 0
M  V30 2101 C 210.933 -3.59489 0.0278237 0
M  V30 2102 C 210.597 -4.38212 1.2969 0
M  V30 2103 C 211.594 -4.69772 2.22734 0
M  V30 2104 C 209.279 -4.7809 1.54063 0
M  V30 2105 C 211.273 -5.40129 3.38437 0
M  V30 2106 C 208.96 -5.4819 2.70058 0
M  V30 2107 C 209.958 -5.79132 3.62071 0
M  V30 2108 O 209.646 -6.47798 4.76039 0
M  V30 2109 H 209.378 -0.669873 0.0908086 0
M  V30 2110 H 211.932 -1.84436 0.90402 0
M  V30 2111 H 210.162 -3.79426 -0.746489 0
M  V30 2112 H 211.851 -4.03862 -0.406275 0
M  V30 2113 H 212.617 -4.39476 2.05149 0
M  V30 2114 H 208.496 -4.53408 0.833215 0
M  V30 2115 H 212.04 -5.64198 4.10277 0
M  V30 2116 H 207.937 -5.77902 2.87574 0
M  V30 2117 H 208.705 -6.66283 4.75404 0
M  V30 2118 N 211.368 -0.403325 -1.52352 0
M  V30 2119 C 212.614 0.174605 -2.02047 0
M  V30 2120 C 212.947 1.45282 -1.28867 0
M  V30 2121 O 212.222 1.90483 -0.393257 0
M  V30 2122 C 212.505 0.428238 -3.57545 0
M  V30 2123 C 212.358 -0.866248 -4.4138 0
M  V30 2124 C 213.677 1.21287 -4.23057 0
M  V30 2125 H 210.796 0.0619851 -0.734389 0
M  V30 2126 H 213.438 -0.53565 -1.82293 0
M  V30 2127 H 211.588 1.03327 -3.74507 0
M  V30 2128 H 213.26 -1.50265 -4.3614 0
M  V30 2129 H 211.503 -1.47851 -4.07827 0
M  V30 2130 H 212.174 -0.643249 -5.48239 0
M  V30 2131 H 214.65 0.700703 -4.10158 0
M  V30 2132 H 213.526 1.35909 -5.31808 0
M  V30 2133 H 213.787 2.23193 -3.81625 0
M  V30 2134 N 212.846 1.57033 -0.133567 0
M  V30 2135 C 213.809 2.14897 0.796995 0
M  V30 2136 C 214.809 1.0874 1.18458 0
M  V30 2137 O 215.999 1.34446 1.1077 0
M  V30 2138 C 213.131 2.70112 2.07973 0
M  V30 2139 H 214.324 2.98457 0.293873 0
M  V30 2140 H 211.877 1.55871 0.115787 0
M  V30 2141 H 212.612 1.9018 2.62682 0
M  V30 2142 H 212.397 3.47764 1.81115 0
M  V30 2143 H 213.887 3.14738 2.74462 0
M  V30 2144 N 214.325 -0.140222 1.56975 0
M  V30 2145 C 215.573 -0.850005 1.83356 0
M  V30 2146 C 215.894 -1.81399 0.71551 0
M  V30 2147 O 215.164 -1.94136 -0.262294 0
M  V30 2148 H 213.744 -0.316886 0.676456 0
M  V30 2149 H 216.406 -0.132608 1.94448 0
M  V30 2150 H 215.502 -1.40814 2.78528 0
M  V30 2151 N 215.803 -1.52179 -0.40978 0
M  V30 2152 C 217.028 -1.70347 -1.18308 0
M  V30 2153 C 217.453 -0.411887 -1.83535 0
M  V30 2154 O 216.811 0.630587 -1.6998 0
M  V30 2155 C 216.859 -2.83977 -2.22238 0
M  V30 2156 O 215.963 -2.495 -3.28365 0
M  V30 2157 H 215.304 -0.567103 -0.345384 0
M  V30 2158 H 217.834 -1.98879 -0.480445 0
M  V30 2159 H 217.844 -3.0887 -2.66577 0
M  V30 2160 H 216.519 -3.77685 -1.74146 0
M  V30 2161 H 215.096 -2.35277 -2.89308 0
M  V30 2162 N 217.281 0.66697 -1.42791 0
M  V30 2163 C 218.213 1.7925 -1.42836 0
M  V30 2164 C 219.226 1.59496 -0.326333 0
M  V30 2165 O 220.415 1.6847 -0.589916 0
M  V30 2166 C 217.515 3.16476 -1.21229 0
M  V30 2167 C 216.688 3.63011 -2.44013 0
M  V30 2168 C 215.747 4.78993 -2.17834 0
M  V30 2169 O 214.773 4.89137 -2.91091 0
M  V30 2170 N 215.975 5.68248 -1.18635 0
M  V30 2171 H 218.74 1.79695 -2.39854 0
M  V30 2172 H 216.301 0.850338 -1.37771 0
M  V30 2173 H 218.293 3.91734 -1.01621 0
M  V30 2174 H 216.863 3.10884 -0.32706 0
M  V30 2175 H 216.083 2.78346 -2.79137 0
M  V30 2176 H 217.371 3.90845 -3.25757 0
M  V30 2177 H 216.769 5.62712 -0.580615 0
M  V30 2178 H 215.326 6.43285 -1.05013 0
M  V30 2179 N 218.759 1.29093 0.90403 0
M  V30 2180 C 219.669 1.15727 2.0407 0
M  V30 2181 C 220.685 0.0815308 1.73809 0
M  V30 2182 O 221.861 0.292749 1.99261 0
M  V30 2183 C 218.926 0.830424 3.36608 0
M  V30 2184 C 217.987 1.98955 3.80415 0
M  V30 2185 C 217.22 1.6782 5.06628 0
M  V30 2186 O 217.443 0.597105 5.67266 0
M  V30 2187 O 216.377 2.52486 5.46383 0
M  V30 2188 H 220.203 2.11171 2.18267 0
M  V30 2189 H 217.788 1.08504 1.027 0
M  V30 2190 H 219.67 0.662521 4.16159 0
M  V30 2191 H 218.345 -0.0942678 3.23563 0
M  V30 2192 H 217.252 2.21267 3.01648 0
M  V30 2193 H 218.585 2.89529 3.98037 0
M  V30 2194 N 220.237 -1.11381 1.11499 0
M  V30 2195 C 221.462 -1.87475 0.887019 0
M  V30 2196 C 221.887 -1.79639 -0.557796 0
M  V30 2197 O 221.245 -1.15924 -1.39396 0
M  V30 2198 C 221.293 -3.34213 1.35403 0
M  V30 2199 O 220.397 -4.0903 0.526146 0
M  V30 2200 H 219.738 -0.582099 0.319463 0
M  V30 2201 H 222.268 -1.40785 1.48461 0
M  V30 2202 H 222.278 -3.8506 1.34881 0
M  V30 2203 H 220.953 -3.39232 2.40612 0
M  V30 2204 H 219.53 -3.68082 0.597522 0
M  V30 2205 N 221.715 -0.905404 -1.28997 0
M  V30 2206 C 222.962 -0.534248 -1.95325 0
M  V30 2207 C 223.29 0.920535 -1.71337 0
M  V30 2208 O 222.545 1.66861 -1.02254 0
M  V30 2209 C 222.844 -0.779906 -3.48787 0
M  V30 2210 C 222.51 -2.21293 -3.92861 0
M  V30 2211 C 221.172 -2.60475 -4.04606 0
M  V30 2212 C 223.524 -3.14587 -4.15553 0
M  V30 2213 C 220.852 -3.9212 -4.36416 0
M  V30 2214 C 223.204 -4.45787 -4.48839 0
M  V30 2215 C 221.868 -4.84834 -4.58794 0
M  V30 2216 H 221.138 -0.195495 -0.714747 0
M  V30 2217 H 223.785 -1.14514 -1.53488 0
M  V30 2218 H 222.09 -0.0861365 -3.91705 0
M  V30 2219 H 223.787 -0.472029 -3.98212 0
M  V30 2220 H 220.377 -1.89887 -3.84241 0
M  V30 2221 H 224.561 -2.85528 -4.0594 0
M  V30 2222 H 219.817 -4.22086 -4.42327 0
M  V30 2223 H 223.991 -5.18098 -4.65346 0
M  V30 2224 H 221.618 -5.86877 -4.83197 0
M  V30 2225 N 223.193 1.4272 -0.668489 0
M  V30 2226 C 224.442 2.00846 -0.185389 0
M  V30 2227 C 224.755 1.53442 1.21305 0
M  V30 2228 O 225.961 2.03944 1.79218 0
M  V30 2229 C 224.417 3.58805 -0.280591 0
M  V30 2230 C 224.025 4.15198 -1.68268 0
M  V30 2231 C 225.769 4.24255 0.14412 0
M  V30 2232 C 223.676 5.655 -1.73099 0
M  V30 2233 H 222.606 0.751145 -0.0655475 0
M  V30 2234 H 225.257 1.63516 -0.832752 0
M  V30 2235 H 223.639 3.93608 0.434553 0
M  V30 2236 H 224.813 3.91866 -2.42441 0
M  V30 2237 H 223.128 3.62176 -2.05469 0
M  V30 2238 H 225.725 5.34547 0.128086 0
M  V30 2239 H 226.068 3.99277 1.17827 0
M  V30 2240 H 226.601 3.94389 -0.519798 0
M  V30 2241 H 223.34 5.95268 -2.74475 0
M  V30 2242 H 222.86 5.90842 -1.03274 0
M  V30 2243 H 224.539 6.29808 -1.48158 0
M  V30 2244 N 224.671 0.411399 1.52136 0
M  V30 2245 C 225.919 -0.163322 2.01439 0
M  V30 2246 C 226.24 -1.45453 1.29879 0
M  V30 2247 O 225.51 -1.91225 0.4254 0
M  V30 2248 H 224.09 -0.0633447 0.744309 0
M  V30 2249 H 226.752 0.548161 1.87033 0
M  V30 2250 H 225.848 -0.357817 3.10042 0
M  V30 2251 N 226.149 -1.5696 0.141893 0
M  V30 2252 C 227.079 -2.19516 -0.795936 0
M  V30 2253 C 228.06 -1.14187 -1.26077 0
M  V30 2254 O 229.245 -1.42511 -1.31925 0
M  V30 2255 C 226.375 -2.81272 -2.03723 0
M  V30 2256 C 225.329 -3.92384 -1.70936 0
M  V30 2257 C 224.655 -4.41052 -3.02287 0
M  V30 2258 C 225.955 -5.13403 -0.959954 0
M  V30 2259 H 227.649 -2.98138 -0.274596 0
M  V30 2260 H 225.195 -1.43406 -0.130636 0
M  V30 2261 H 227.148 -3.237 -2.69808 0
M  V30 2262 H 225.872 -1.99973 -2.58221 0
M  V30 2263 H 224.531 -3.50566 -1.07232 0
M  V30 2264 H 224.179 -3.56582 -3.54765 0
M  V30 2265 H 223.879 -5.15993 -2.81114 0
M  V30 2266 H 225.403 -4.86146 -3.69451 0
M  V30 2267 H 226.817 -5.52706 -1.52279 0
M  V30 2268 H 225.214 -5.94073 -0.848357 0
M  V30 2269 H 226.284 -4.84875 0.0492434 0
M  V30 2270 N 227.627 0.131896 -1.57047 0
M  V30 2271 C 228.56 1.19236 -1.94571 0
M  V30 2272 C 229.538 1.40782 -0.813576 0
M  V30 2273 O 230.722 1.55148 -1.07058 0
M  V30 2274 C 227.849 2.54858 -2.23081 0
M  V30 2275 C 226.895 2.49817 -3.45679 0
M  V30 2276 S 227.728 1.95036 -4.98719 0
M  V30 2277 C 228.884 3.32357 -5.30367 0
M  V30 2278 H 229.117 0.872297 -2.84215 0
M  V30 2279 H 226.65 0.338134 -1.50652 0
M  V30 2280 H 228.608 3.32898 -2.40185 0
M  V30 2281 H 227.269 2.84047 -1.34074 0
M  V30 2282 H 226.462 3.49688 -3.62952 0
M  V30 2283 H 226.064 1.79892 -3.27895 0
M  V30 2284 H 228.356 4.28525 -5.2476 0
M  V30 2285 H 229.299 3.19923 -6.31708 0
M  V30 2286 H 229.707 3.3019 -4.57859 0
M  V30 2287 N 229.106 1.52395 0.401703 0
M  V30 2288 C 230.054 1.7689 1.51039 0
M  V30 2289 C 231.048 0.636298 1.56996 0
M  V30 2290 O 232.254 0.818507 1.60314 0
M  V30 2291 H 228.629 0.559502 0.502456 0
M  V30 2292 H 230.6 2.69757 1.27568 0
M  V30 2293 C 229.349 1.94331 2.88324 0
M  V30 2294 H 228.672 2.80905 2.84486 0
M  V30 2295 H 230.112 2.15466 3.65172 0
M  V30 2296 C 228.571 0.712396 3.29282 0
M  V30 2297 O 229.101 -0.116218 4.01532 0
M  V30 2298 N 227.307 0.546154 2.85422 0
M  V30 2299 H 226.854 1.22156 2.26794 0
M  V30 2300 H 226.812 -0.276113 3.13185 0
M  V30 2301 N 230.584 -0.659388 1.43143 0
M  V30 2302 C 231.832 -1.41654 1.44147 0
M  V30 2303 C 232.153 -1.94893 0.0645739 0
M  V30 2304 O 231.423 -1.74044 -0.899198 0
M  V30 2305 H 230.003 -0.525708 0.530697 0
M  V30 2306 H 232.665 -0.778097 1.78694 0
M  V30 2307 H 231.761 -2.26195 2.1504 0
M  V30 2308 N 232.062 -1.29571 -0.897171 0
M  V30 2309 C 233.292 -1.20408 -1.67886 0
M  V30 2310 C 233.7 0.237429 -1.87704 0
M  V30 2311 O 233.043 1.17048 -1.41582 0
M  V30 2312 C 233.105 -1.84887 -3.08314 0
M  V30 2313 C 232.769 -3.34189 -3.11716 0
M  V30 2314 C 233.766 -4.30374 -2.91675 0
M  V30 2315 C 231.451 -3.75431 -3.33701 0
M  V30 2316 C 233.445 -5.65776 -2.93557 0
M  V30 2317 C 231.132 -5.10955 -3.35214 0
M  V30 2318 C 232.13 -6.05938 -3.15164 0
M  V30 2319 O 231.818 -7.38987 -3.1647 0
M  V30 2320 H 231.55 -0.418289 -0.531046 0
M  V30 2321 H 234.104 -1.71514 -1.13014 0
M  V30 2322 H 232.334 -1.28295 -3.64798 0
M  V30 2323 H 234.023 -1.70011 -3.6858 0
M  V30 2324 H 234.789 -3.99844 -2.74499 0
M  V30 2325 H 230.668 -3.01953 -3.48347 0
M  V30 2326 H 234.212 -6.39889 -2.77826 0
M  V30 2327 H 230.109 -5.4113 -3.51922 0
M  V30 2328 H 230.877 -7.47823 -3.3272 0
M  V30 2329 N 233.54 1.10788 -1.12088 0
M  V30 2330 C 234.503 2.15207 -0.788577 0
M  V30 2331 C 235.503 1.59609 0.195317 0
M  V30 2332 O 236.693 1.74174 -0.0300193 0
M  V30 2333 C 233.825 3.4047 -0.171174 0
M  V30 2334 H 235.018 2.46116 -1.71368 0
M  V30 2335 H 232.571 1.26089 -0.923652 0
M  V30 2336 H 233.306 3.15176 0.763832 0
M  V30 2337 H 233.091 3.82109 -0.879514 0
M  V30 2338 H 234.581 4.17576 0.04496 0
M  V30 2339 N 235.018 0.912232 1.28515 0
M  V30 2340 C 235.965 0.397954 2.27343 0
M  V30 2341 C 236.935 -0.526766 1.57526 0
M  V30 2342 O 238.12 -0.449292 1.85435 0
M  V30 2343 C 235.26 -0.357263 3.43246 0
M  V30 2344 C 234.373 0.599788 4.27816 0
M  V30 2345 C 233.508 -0.173725 5.30916 0
M  V30 2346 C 232.547 0.777039 6.07148 0
M  V30 2347 N 231.684 0.0371398 7.0209 0
M  V30 2348 H 236.524 1.24577 2.70711 0
M  V30 2349 H 234.061 0.625612 1.33133 0
M  V30 2350 H 236.019 -0.8113 4.09236 0
M  V30 2351 H 234.649 -1.16943 3.00872 0
M  V30 2352 H 233.701 1.17235 3.61884 0
M  V30 2353 H 235.013 1.32704 4.80823 0
M  V30 2354 H 234.167 -0.688394 6.02782 0
M  V30 2355 H 232.906 -0.934041 4.78672 0
M  V30 2356 H 231.911 1.3031 5.34134 0
M  V30 2357 H 233.136 1.53689 6.61481 0
M  V30 2358 H 231.082 -0.705213 6.52198 0
M  V30 2359 H 230.999 0.704249 7.52713 0
M  V30 2360 H 232.267 -0.457383 7.78157 0
M  V30 2361 N 236.496 -1.42363 0.676048 0
M  V30 2362 C 237.443 -2.308 -0.00150904 0
M  V30 2363 C 238.413 -1.46032 -0.791444 0
M  V30 2364 O 239.598 -1.74861 -0.76344 0
M  V30 2365 C 236.738 -3.31883 -0.945919 0
M  V30 2366 C 235.851 -4.31741 -0.149675 0
M  V30 2367 C 234.986 -5.19898 -1.08995 0
M  V30 2368 C 234.025 -6.11434 -0.285465 0
M  V30 2369 N 233.162 -6.92138 -1.17851 0
M  V30 2370 H 238.002 -2.88187 0.758455 0
M  V30 2371 H 235.539 -1.41952 0.38576 0
M  V30 2372 H 237.497 -3.89019 -1.50731 0
M  V30 2373 H 236.127 -2.76093 -1.6725 0
M  V30 2374 H 235.179 -3.76713 0.528359 0
M  V30 2375 H 236.491 -4.96534 0.474866 0
M  V30 2376 H 235.645 -5.81772 -1.72123 0
M  V30 2377 H 234.384 -4.55284 -1.74837 0
M  V30 2378 H 233.389 -5.48627 0.359018 0
M  V30 2379 H 234.614 -6.78097 0.368883 0
M  V30 2380 H 232.56 -6.30152 -1.82332 0
M  V30 2381 H 232.477 -7.53542 -0.609082 0
M  V30 2382 H 233.745 -7.58499 -1.79722 0
M  V30 2383 N 237.974 -0.419461 -1.51915 0
M  V30 2384 C 238.904 0.391813 -2.30189 0
M  V30 2385 C 239.885 1.03699 -1.34836 0
M  V30 2386 O 241.07 1.04403 -1.63748 0
M  V30 2387 C 238.2 1.50312 -3.13087 0
M  V30 2388 C 237.154 0.9824 -4.16573 0
M  V30 2389 C 236.48 2.18809 -4.8788 0
M  V30 2390 C 237.78 0.0292356 -5.22292 0
M  V30 2391 H 239.474 -0.26135 -2.98257 0
M  V30 2392 H 237.02 -0.127134 -1.43438 0
M  V30 2393 H 238.973 2.07773 -3.66617 0
M  V30 2394 H 237.697 2.18431 -2.42807 0
M  V30 2395 H 236.356 0.430119 -3.64068 0
M  V30 2396 H 236.004 2.85507 -4.14119 0
M  V30 2397 H 235.704 1.84615 -5.57845 0
M  V30 2398 H 237.228 2.76858 -5.44226 0
M  V30 2399 H 238.642 0.512976 -5.71 0
M  V30 2400 H 237.039 -0.2244 -5.9968 0
M  V30 2401 H 238.109 -0.912931 -4.76228 0
M  V30 2402 N 239.452 1.56882 -0.150215 0
M  V30 2403 C 240.7 1.9584 0.499105 0
M  V30 2404 C 241.021 1.03623 1.65188 0
M  V30 2405 O 240.291 0.0984084 1.95653 0
M  V30 2406 H 238.871 0.723119 0.187373 0
M  V30 2407 H 241.533 1.9358 -0.226466 0
M  V30 2408 H 240.629 2.99638 0.873122 0
M  V30 2409 N 240.93 -0.123565 1.57115 0
M  V30 2410 C 241.86 -1.15309 2.03042 0
M  V30 2411 C 242.841 -1.43454 0.914061 0
M  V30 2412 O 244.026 -1.53973 1.18347 0
M  V30 2413 C 241.156 -2.48043 2.43089 0
M  V30 2414 C 240.11 -2.3437 3.58127 0
M  V30 2415 C 239.436 -3.72026 3.84059 0
M  V30 2416 C 240.736 -1.80804 4.90007 0
M  V30 2417 H 242.43 -0.771102 2.893 0
M  V30 2418 H 239.976 -0.369479 1.39179 0
M  V30 2419 H 241.929 -3.20311 2.73823 0
M  V30 2420 H 240.653 -2.88122 1.53796 0
M  V30 2421 H 239.312 -1.64551 3.27595 0
M  V30 2422 H 238.96 -4.09582 2.91979 0
M  V30 2423 H 238.66 -3.63732 4.6149 0
M  V30 2424 H 240.184 -4.45806 4.1724 0
M  V30 2425 H 241.598 -2.42886 5.19307 0
M  V30 2426 H 239.995 -1.83343 5.71407 0
M  V30 2427 H 241.065 -0.76528 4.78823 0
M  V30 2428 N 242.408 -1.52605 -0.393616 0
M  V30 2429 C 243.636 -1.71294 -1.16043 0
M  V30 2430 C 244.051 -0.429259 -1.83855 0
M  V30 2431 O 243.408 0.595921 -1.72496 0
M  V30 2432 C 243.459 -2.8593 -2.21193 0
M  V30 2433 O 243.18 -4.09329 -1.56146 0
M  V30 2434 C 244.681 -3.16259 -3.10636 0
M  V30 2435 H 241.901 -0.573641 -0.348104 0
M  V30 2436 H 244.445 -1.99234 -0.461092 0
M  V30 2437 H 242.6 -2.60465 -2.86769 0
M  V30 2438 H 243.014 -4.73323 -2.25978 0
M  V30 2439 H 244.488 -3.99946 -3.80456 0
M  V30 2440 H 244.965 -2.3045 -3.73884 0
M  V30 2441 H 245.571 -3.43547 -2.50711 0
M  V30 2442 N 243.887 0.651787 -1.4349 0
M  V30 2443 C 244.835 1.78586 -1.49029 0
M  V30 2444 C 245.829 1.65448 -0.363767 0
M  V30 2445 O 247.035 1.71777 -0.537821 0
M  V30 2446 H 243.41 0.589236 -0.467231 0
M  V30 2447 H 245.381 1.71035 -2.44519 0
M  V30 2448 C 244.13 3.16851 -1.43181 0
M  V30 2449 H 243.453 3.27598 -2.29171 0
M  V30 2450 H 244.893 3.96156 -1.51118 0
M  V30 2451 C 243.352 3.36568 -0.149616 0
M  V30 2452 O 243.882 3.93885 0.788509 0
M  V30 2453 N 242.088 2.90539 -0.0593484 0
M  V30 2454 H 241.635 2.4408 -0.823575 0
M  V30 2455 H 241.593 3.04108 0.797853 0
M  V30 2456 N 245.365 1.30045 0.890287 0
M  V30 2457 C 246.593 1.21472 1.67487 0
M  V30 2458 C 247.008 -0.223241 1.87476 0
M  V30 2459 O 246.365 -1.14828 1.41847 0
M  V30 2460 C 246.416 1.93394 3.05419 0
M  V30 2461 O 246.137 3.31576 2.86337 0
M  V30 2462 C 247.638 1.91414 3.99844 0
M  V30 2463 H 244.858 0.420604 0.522813 0
M  V30 2464 H 247.402 1.7158 1.11268 0
M  V30 2465 H 245.557 1.47099 3.58386 0
M  V30 2466 H 245.971 3.67929 3.73802 0
M  V30 2467 H 247.445 2.46285 4.94012 0
M  V30 2468 H 247.922 0.891833 4.3005 0
M  V30 2469 H 248.528 2.37496 3.52811 0
M  V30 2470 N 246.843 -1.10192 1.12674 0
M  V30 2471 C 248.071 -1.85983 0.906527 0
M  V30 2472 C 248.486 -1.80783 -0.544333 0
M  V30 2473 O 247.843 -1.19834 -1.37645 0
M  V30 2474 C 247.894 -3.34281 1.37618 0
M  V30 2475 O 247.615 -3.39401 2.77017 0
M  V30 2476 C 249.116 -4.26938 1.19325 0
M  V30 2477 H 246.336 -0.587716 0.323775 0
M  V30 2478 H 248.88 -1.39284 1.49734 0
M  V30 2479 H 247.035 -3.78436 0.828539 0
M  V30 2480 H 247.449 -4.31838 2.97684 0
M  V30 2481 H 248.923 -5.29181 1.57071 0
M  V30 2482 H 249.4 -4.38995 0.134097 0
M  V30 2483 H 250.006 -3.8859 1.72852 0
M  V30 2484 N 248.321 -0.919034 -1.28029 0
M  V30 2485 C 249.568 -0.554934 -1.94748 0
M  V30 2486 C 249.896 0.90231 -1.72304 0
M  V30 2487 O 249.151 1.65767 -1.04018 0
M  V30 2488 C 249.45 -0.816855 -3.4794 0
M  V30 2489 C 249.116 -2.25448 -3.90492 0
M  V30 2490 C 247.778 -2.64752 -4.01821 0
M  V30 2491 C 250.13 -3.18977 -4.12193 0
M  V30 2492 C 247.458 -3.96727 -4.32232 0
M  V30 2493 C 249.81 -4.50523 -4.44086 0
M  V30 2494 C 248.474 -4.89673 -4.53626 0
M  V30 2495 H 247.744 -0.203065 -0.712633 0
M  V30 2496 H 250.391 -1.16136 -1.52265 0
M  V30 2497 H 248.696 -0.127677 -3.91592 0
M  V30 2498 H 250.393 -0.514238 -3.97689 0
M  V30 2499 H 246.983 -1.93952 -3.82205 0
M  V30 2500 H 251.167 -2.89817 -4.02889 0
M  V30 2501 H 246.423 -4.26754 -4.37825 0
M  V30 2502 H 250.597 -5.23005 -4.59825 0
M  V30 2503 H 248.224 -5.91969 -4.76946 0
M  V30 2504 N 249.799 1.42003 -0.683588 0
M  V30 2505 C 250.731 2.29183 0.0283068 0
M  V30 2506 C 251.744 1.4415 0.756611 0
M  V30 2507 O 252.933 1.67779 0.609306 0
M  V30 2508 C 250.033 3.21765 1.06398 0
M  V30 2509 C 249.206 4.35496 0.407723 0
M  V30 2510 C 248.265 5.08737 1.34437 0
M  V30 2511 O 247.291 5.62948 0.841318 0
M  V30 2512 N 248.493 5.15075 2.67728 0
M  V30 2513 H 251.258 2.9092 -0.720105 0
M  V30 2514 H 248.819 1.53025 -0.528682 0
M  V30 2515 H 250.811 3.6763 1.69204 0
M  V30 2516 H 249.381 2.61418 1.71404 0
M  V30 2517 H 248.601 3.92165 -0.400012 0
M  V30 2518 H 249.889 5.08776 -0.0490956 0
M  V30 2519 H 249.287 4.72457 3.11129 0
M  V30 2520 H 247.844 5.64556 3.2576 0
M  V30 2521 N 251.277 0.427512 1.51691 0
M  V30 2522 C 252.505 -0.141191 2.06418 0
M  V30 2523 C 252.92 -1.37303 1.29589 0
M  V30 2524 O 252.277 -1.79059 0.352732 0
M  V30 2525 C 252.328 -0.473266 3.58389 0
M  V30 2526 O 252.049 0.709673 4.32314 0
M  V30 2527 C 253.55 -1.09371 4.29596 0
M  V30 2528 H 250.77 -0.0122747 0.670888 0
M  V30 2529 H 253.314 0.603764 1.95384 0
M  V30 2530 H 251.469 -1.16812 3.69369 0
M  V30 2531 H 251.883 0.42807 5.2275 0
M  V30 2532 H 253.357 -1.27613 5.37046 0
M  V30 2533 H 253.834 -2.072 3.87253 0
M  V30 2534 H 254.44 -0.43853 4.23033 0
M  V30 2535 N 252.755 -1.56801 0.158532 0
M  V30 2536 C 254.001 -1.96781 -0.490405 0
M  V30 2537 C 254.334 -1.04397 -1.63753 0
M  V30 2538 O 253.609 -0.0885805 -1.94298 0
M  V30 2539 C 253.892 -3.4635 -0.985594 0
M  V30 2540 C 253.745 -4.49512 0.160824 0
M  V30 2541 C 255.064 -3.98697 -1.86355 0
M  V30 2542 H 252.183 -0.715482 -0.176788 0
M  V30 2543 H 254.825 -1.88451 0.242088 0
M  V30 2544 H 252.975 -3.53579 -1.60978 0
M  V30 2545 H 254.647 -4.54353 0.797537 0
M  V30 2546 H 252.89 -4.26013 0.818256 0
M  V30 2547 H 253.561 -5.51531 -0.227569 0
M  V30 2548 H 256.037 -3.94019 -1.33746 0
M  V30 2549 H 254.913 -5.03792 -2.17909 0
M  V30 2550 H 255.174 -3.41744 -2.8047 0
M  V30 2551 N 254.233 0.115231 -1.57178 0
M  V30 2552 C 255.183 1.14707 -1.97044 0
M  V30 2553 C 256.167 1.36866 -0.845957 0
M  V30 2554 O 257.359 1.37895 -1.10968 0
M  V30 2555 C 254.488 2.47266 -2.38148 0
M  V30 2556 C 253.574 2.28566 -3.57237 0
M  V30 2557 N 253.965 1.79685 -4.72807 0
M  V30 2558 C 252.263 2.59208 -3.62943 0
M  V30 2559 C 252.964 1.74781 -5.54821 0
M  V30 2560 N 251.94 2.19264 -4.97417 0
M  V30 2561 H 255.742 0.761754 -2.83857 0
M  V30 2562 H 253.256 0.322928 -1.59157 0
M  V30 2563 H 255.253 3.219 -2.64927 0
M  V30 2564 H 253.913 2.86552 -1.52702 0
M  V30 2565 H 254.924 1.49177 -4.9595 0
M  V30 2566 H 251.601 3.02154 -2.88113 0
M  V30 2567 H 252.991 1.38212 -6.57531 0
M  V30 2568 N 255.711 1.52812 0.385517 0
M  V30 2569 C 256.959 1.67694 1.12797 0
M  V30 2570 C 257.28 0.421115 1.90399 0
M  V30 2571 O 256.55 -0.564551 1.87589 0
M  V30 2572 H 255.13 0.618155 0.419396 0
M  V30 2573 H 257.792 1.89938 0.436972 0
M  V30 2574 H 256.888 2.52896 1.82894 0
M  V30 2575 N 257.189 -0.644168 1.43834 0
M  V30 2576 C 258.119 -1.76814 1.52509 0
M  V30 2577 C 259.1 -1.65823 0.379052 0
M  V30 2578 O 260.285 -1.84781 0.597466 0
M  V30 2579 C 257.415 -3.15288 1.4564 0
M  V30 2580 C 256.369 -3.41053 2.58586 0
M  V30 2581 C 255.695 -4.79421 2.36769 0
M  V30 2582 C 256.995 -3.34902 4.00797 0
M  V30 2583 H 258.689 -1.69812 2.46586 0
M  V30 2584 H 256.235 -0.815542 1.1868 0
M  V30 2585 H 258.188 -3.93681 1.50311 0
M  V30 2586 H 256.912 -3.23043 0.480725 0
M  V30 2587 H 255.571 -2.65035 2.53282 0
M  V30 2588 H 255.219 -4.83863 1.37424 0
M  V30 2589 H 254.919 -4.9762 3.12487 0
M  V30 2590 H 256.443 -5.6006 2.43238 0
M  V30 2591 H 257.857 -4.03218 4.07539 0
M  V30 2592 H 256.254 -3.64637 4.76613 0
M  V30 2593 H 257.324 -2.32928 4.25291 0
M  V30 2594 N 258.668 -1.30515 -0.883378 0
M  V30 2595 C 259.945 -1.10086 -1.6168 0
M  V30 2596 C 260.325 0.349269 -2.08191 0
M  V30 2597 O 259.673 1.34105 -1.85008 0
M  V30 2598 C 259.883 -2.10315 -2.78511 0
M  V30 2599 C 261.231 -2.42119 -3.48803 0
M  V30 2600 O 262.255 -2.08638 -2.88702 0
M  V30 2601 O 261.114 -2.99396 -4.57192 0
M  V30 2602 H 258.208 -0.422907 -0.710689 0
M  V30 2603 H 260.754 -1.41947 -0.930015 0
M  V30 2604 H 259.526 -3.07917 -2.41459 0
M  V30 2605 H 259.149 -1.79282 -3.54886 0
M  V30 2606 N 260.146 1.09593 -1.13257 0
M  V30 2607 C 261.109 2.14359 -0.811358 0
M  V30 2608 C 262.109 1.59808 0.178377 0
M  V30 2609 O 263.299 1.74132 -0.0484911 0
M  V30 2610 C 260.431 3.40269 -0.207276 0
M  V30 2611 H 261.624 2.44284 -1.73969 0
M  V30 2612 H 259.177 1.25102 -0.936973 0
M  V30 2613 H 259.912 3.15969 0.73036 0
M  V30 2614 H 259.697 3.81154 -0.919992 0
M  V30 2615 H 261.187 4.176 0.000667944 0
M  V30 2616 N 261.624 0.925811 1.2754 0
M  V30 2617 C 263.035 0.610102 1.7645 0
M  V30 2618 C 263.386 -0.874723 1.75622 0
M  V30 2619 O 262.511 -1.68444 1.35851 0
M  V30 2620 C 263.106 1.10073 3.20421 0
M  V30 2621 C 261.665 0.835723 3.67005 0
M  V30 2622 C 260.812 1.26054 2.46993 0
M  V30 2623 H 263.763 1.10579 1.13833 0
M  V30 2624 H 263.784 0.447557 3.77859 0
M  V30 2625 H 263.296 2.18143 3.20991 0
M  V30 2626 H 261.397 -0.231249 3.71882 0
M  V30 2627 H 261.51 1.45193 4.56569 0
M  V30 2628 H 259.874 0.679111 2.45479 0
M  V30 2629 H 260.657 2.34984 2.50275 0
M  V30 2630 N 263.102 -1.41638 0.69111 0
M  V30 2631 C 264.35 -2.00902 0.219758 0
M  V30 2632 C 264.671 -1.54994 -1.18329 0
M  V30 2633 O 263.941 -0.778628 -1.79762 0
M  V30 2634 H 262.521 -0.74289 0.0782558 0
M  V30 2635 H 265.183 -1.73327 0.891271 0
M  V30 2636 H 264.279 -3.11224 0.233708 0
M  V30 2637 N 264.58 -0.43555 -1.51462 0
M  V30 2638 C 265.512 0.41257 -2.25456 0
M  V30 2639 C 266.525 0.987822 -1.29406 0
M  V30 2640 O 267.714 0.882266 -1.55172 0
M  V30 2641 C 264.814 1.58894 -2.99342 0
M  V30 2642 C 263.987 1.13288 -4.22474 0
M  V30 2643 C 263.046 2.17917 -4.78956 0
M  V30 2644 O 262.072 1.77425 -5.40841 0
M  V30 2645 N 263.274 3.50382 -4.62832 0
M  V30 2646 H 266.039 -0.221603 -2.9888 0
M  V30 2647 H 263.6 -0.264342 -1.59727 0
M  V30 2648 H 265.592 2.28508 -3.34015 0
M  V30 2649 H 264.162 2.12849 -2.28941 0
M  V30 2650 H 263.382 0.263881 -3.93316 0
M  V30 2651 H 264.67 0.805542 -5.02383 0
M  V30 2652 H 264.068 3.86013 -4.13534 0
M  V30 2653 H 262.625 4.15895 -5.01871 0
M  V30 2654 N 266.058 1.56714 -0.166846 0
M  V30 2655 C 267.305 1.96747 0.479252 0
M  V30 2656 C 267.633 1.05263 1.63554 0
M  V30 2657 O 266.888 0.0858098 1.95512 0
M  V30 2658 C 267.187 3.42889 1.00806 0
M  V30 2659 C 266.853 4.50889 -0.0318574 0
M  V30 2660 C 265.515 4.8015 -0.317675 0
M  V30 2661 C 267.867 5.15949 -0.737956 0
M  V30 2662 C 265.195 5.71772 -1.31506 0
M  V30 2663 C 267.547 6.08647 -1.72429 0
M  V30 2664 C 266.211 6.36277 -2.0176 0
M  V30 2665 H 265.481 0.719949 0.175371 0
M  V30 2666 H 268.128 1.89756 -0.257864 0
M  V30 2667 H 266.433 3.4681 1.82291 0
M  V30 2668 H 268.13 3.71203 1.51689 0
M  V30 2669 H 264.72 4.28128 0.201088 0
M  V30 2670 H 268.904 4.93458 -0.530351 0
M  V30 2671 H 264.16 5.91465 -1.54853 0
M  V30 2672 H 268.334 6.58129 -2.27682 0
M  V30 2673 H 265.961 7.07075 -2.79194 0
M  V30 2674 N 267.536 -0.106894 1.57237 0
M  V30 2675 C 268.761 -0.830287 1.90055 0
M  V30 2676 C 269.186 -1.72064 0.75998 0
M  V30 2677 O 268.544 -1.78982 -0.288991 0
M  V30 2678 C 268.592 -1.6295 3.21683 0
M  V30 2679 O 267.696 -2.73748 3.08441 0
M  V30 2680 H 267.037 -0.228855 0.623315 0
M  V30 2681 H 269.567 -0.085658 2.04421 0
M  V30 2682 H 269.577 -2.01621 3.54701 0
M  V30 2683 H 268.252 -0.975989 4.04286 0
M  V30 2684 H 266.829 -2.38192 2.86913 0
M  V30 2685 N 269.014 -1.53014 -0.377408 0
M  V30 2686 C 270.242 -1.72515 -1.14219 0
M  V30 2687 C 270.657 -0.448735 -1.8339 0
M  V30 2688 O 270.014 0.577592 -1.73119 0
M  V30 2689 C 270.065 -2.8826 -2.18148 0
M  V30 2690 O 269.786 -4.10962 -1.51795 0
M  V30 2691 C 271.287 -3.19536 -3.07264 0
M  V30 2692 H 268.507 -0.577301 -0.342001 0
M  V30 2693 H 271.051 -1.99712 -0.439935 0
M  V30 2694 H 269.206 -2.63492 -2.83991 0
M  V30 2695 H 269.62 -4.75693 -2.20945 0
M  V30 2696 H 271.094 -4.03959 -3.76193 0
M  V30 2697 H 271.571 -2.34403 -3.71419 0
M  V30 2698 H 272.177 -3.46186 -2.47053 0
M  V30 2699 N 270.492 0.636531 -1.44174 0
M  V30 2700 C 271.455 1.73063 -1.50273 0
M  V30 2701 C 272.455 1.56113 -0.385397 0
M  V30 2702 O 273.645 1.61707 -0.64781 0
M  V30 2703 C 270.777 3.12096 -1.37145 0
M  V30 2704 H 271.97 1.69031 -2.47727 0
M  V30 2705 H 269.523 0.849706 -1.31186 0
M  V30 2706 H 270.258 3.21728 -0.407636 0
M  V30 2707 H 270.043 3.25805 -2.18159 0
M  V30 2708 H 271.533 3.91846 -1.44382 0
M  V30 2709 N 271.97 1.30982 0.876444 0
M  V30 2710 C 273.386 1.09498 1.16113 0
M  V30 2711 C 273.586 -0.13875 2.01022 0
M  V30 2712 O 272.642 -0.829935 2.38471 0
M  V30 2713 C 273.955 2.36308 1.85954 0
M  V30 2714 C 275.503 2.41856 1.98683 0
M  V30 2715 C 275.978 3.6853 2.71937 0
M  V30 2716 N 277.469 3.69387 2.79477 0
M  V30 2717 C 278.204 4.64096 3.36753 0
M  V30 2718 N 277.7 5.69155 3.95012 0
M  V30 2719 N 279.493 4.51626 3.3465 0
M  V30 2720 H 271.644 2.10118 0.310494 0
M  V30 2721 H 273.907 0.926634 0.200131 0
M  V30 2722 H 273.613 3.26388 1.31011 0
M  V30 2723 H 273.487 2.4561 2.86278 0
M  V30 2724 H 275.874 1.52249 2.52793 0
M  V30 2725 H 275.955 2.36523 0.9742 0
M  V30 2726 H 275.599 4.58499 2.18496 0
M  V30 2727 H 275.529 3.71127 3.73593 0
M  V30 2728 H 278.02 2.93438 2.38123 0
M  V30 2729 H 278.333 6.3751 4.36808 0
M  V30 2730 H 276.678 5.72937 3.93406 0
M  V30 2731 H 279.869 3.68728 2.8837 0
M  V30 2732 H 280.042 5.25614 3.7899 0
M  V30 2733 N 273.449 -1.08991 1.13837 0
M  V30 2734 C 274.726 -1.77863 0.813876 0
M  V30 2735 C 275.106 -1.99375 -0.693746 0
M  V30 2736 O 274.454 -1.59875 -1.63255 0
M  V30 2737 C 274.664 -3.0986 1.60586 0
M  V30 2738 C 276.012 -3.84493 1.8014 0
M  V30 2739 O 277.036 -3.19624 1.57222 0
M  V30 2740 O 275.895 -5.00957 2.18413 0
M  V30 2741 H 272.989 -0.771589 0.297624 0
M  V30 2742 H 275.535 -1.15507 1.24323 0
M  V30 2743 H 274.307 -2.89715 2.63022 0
M  V30 2744 H 273.93 -3.79942 1.17173 0
M  V30 2745 N 274.927 -0.932562 -1.27047 0
M  V30 2746 C 275.86 -0.379774 -2.25018 0
M  V30 2747 C 276.838 0.526587 -1.53837 0
M  V30 2748 O 278.022 0.465992 -1.82649 0
M  V30 2749 C 275.149 0.455187 -3.35627 0
M  V30 2750 C 274.195 -0.388428 -4.24728 0
M  V30 2751 S 275.028 -1.80701 -5.04091 0
M  V30 2752 C 276.184 -0.979865 -6.18182 0
M  V30 2753 H 276.417 -1.2101 -2.71558 0
M  V30 2754 H 273.95 -0.735078 -1.35779 0
M  V30 2755 H 275.908 0.931052 -3.99802 0
M  V30 2756 H 274.569 1.26009 -2.87716 0
M  V30 2757 H 273.762 0.25089 -5.03375 0
M  V30 2758 H 273.364 -0.798649 -3.65373 0
M  V30 2759 H 275.656 -0.218115 -6.77149 0
M  V30 2760 H 276.599 -1.73951 -6.86401 0
M  V30 2761 H 277.007 -0.51973 -5.62102 0
M  V30 2762 N 276.405 1.4127 -0.698611 0
M  V30 2763 C 277.368 2.29158 -0.044132 0
M  V30 2764 C 278.368 1.44529 0.704841 0
M  V30 2765 O 279.558 1.65643 0.539276 0
M  V30 2766 C 276.69 3.27459 0.947809 0
M  V30 2767 H 277.883 2.88529 -0.817994 0
M  V30 2768 H 275.436 1.49307 -0.46228 0
M  V30 2769 H 276.171 2.73073 1.74933 0
M  V30 2770 H 275.956 3.8991 0.41385 0
M  V30 2771 H 277.446 3.93311 1.40344 0
M  V30 2772 N 277.883 0.443576 1.51229 0
M  V30 2773 C 278.813 -0.355142 2.30783 0
M  V30 2774 C 279.794 -1.0154 1.36468 0
M  V30 2775 O 280.979 -1.01785 1.65389 0
M  V30 2776 C 278.109 -1.45312 3.15439 0
M  V30 2777 C 277.063 -0.916002 4.18083 0
M  V30 2778 C 276.389 -2.1102 4.91299 0
M  V30 2779 C 277.689 0.0538602 5.22272 0
M  V30 2780 H 279.383 0.308767 2.97804 0
M  V30 2781 H 276.929 0.149937 1.43217 0
M  V30 2782 H 278.882 -2.01914 3.69876 0
M  V30 2783 H 277.606 -2.14541 2.46252 0
M  V30 2784 H 276.265 -0.372145 3.64706 0
M  V30 2785 H 275.913 -2.78882 4.18609 0
M  V30 2786 H 275.613 -1.75717 5.60712 0
M  V30 2787 H 277.137 -2.68164 5.48562 0
M  V30 2788 H 278.551 -0.422069 5.71744 0
M  V30 2789 H 276.948 0.319776 5.99247 0
M  V30 2790 H 278.018 0.98858 4.74716 0
M  V30 2791 N 279.361 -1.56624 0.175154 0
M  V30 2792 C 280.291 -2.21155 -0.749195 0
M  V30 2793 C 281.272 -1.16836 -1.23626 0
M  V30 2794 O 282.457 -1.45277 -1.28873 0
M  V30 2795 C 279.587 -2.8553 -1.97711 0
M  V30 2796 C 278.541 -3.95921 -1.62575 0
M  V30 2797 C 277.867 -4.47365 -2.92864 0
M  V30 2798 C 279.167 -5.15323 -0.850838 0
M  V30 2799 H 280.861 -2.98653 -0.211295 0
M  V30 2800 H 278.407 -1.43651 -0.100188 0
M  V30 2801 H 280.36 -3.2935 -2.62881 0
M  V30 2802 H 279.084 -2.05406 -2.53921 0
M  V30 2803 H 277.743 -3.52762 -0.997719 0
M  V30 2804 H 277.391 -3.64027 -3.47122 0
M  V30 2805 H 277.091 -5.21839 -2.70106 0
M  V30 2806 H 278.615 -4.93873 -3.59056 0
M  V30 2807 H 280.029 -5.55812 -1.40521 0
M  V30 2808 H 278.426 -5.95739 -0.722154 0
M  V30 2809 H 279.496 -4.84661 0.152082 0
M  V30 2810 N 280.839 0.0985539 -1.57292 0
M  V30 2811 C 282.087 0.801092 -1.85545 0
M  V30 2812 C 282.408 1.79438 -0.763353 0
M  V30 2813 O 281.678 1.94763 0.21073 0
M  V30 2814 H 280.258 0.29884 -0.684619 0
M  V30 2815 H 282.92 0.0810064 -1.94732 0
M  V30 2816 H 282.016 1.3338 -2.82163 0
M  V30 2817 N 282.317 1.53212 0.369288 0
M  V30 2818 C 283.264 1.79388 1.45219 0
M  V30 2819 C 284.234 0.638059 1.53356 0
M  V30 2820 O 285.419 0.879852 1.69302 0
M  V30 2821 C 282.559 1.98623 2.82211 0
M  V30 2822 C 281.672 3.26337 2.8307 0
M  V30 2823 C 280.807 3.35779 4.11614 0
M  V30 2824 C 279.846 4.5754 4.06601 0
M  V30 2825 N 278.983 4.64155 5.26787 0
M  V30 2826 H 283.823 2.71794 1.22198 0
M  V30 2827 H 281.36 1.34642 0.592444 0
M  V30 2828 H 283.318 2.07761 3.61789 0
M  V30 2829 H 281.948 1.09558 3.03639 0
M  V30 2830 H 281 3.26171 1.95747 0
M  V30 2831 H 282.312 4.15988 2.75237 0
M  V30 2832 H 281.466 3.44208 4.99606 0
M  V30 2833 H 280.205 2.44137 4.22195 0
M  V30 2834 H 279.21 4.49215 3.16996 0
M  V30 2835 H 280.435 5.50519 3.97625 0
M  V30 2836 H 278.381 3.75413 5.3796 0
M  V30 2837 H 278.298 5.47706 5.21109 0
M  V30 2838 H 279.566 4.76863 6.16621 0
M  V30 2839 N 283.795 -0.628877 1.44509 0
M  V30 2840 C 284.758 -1.72263 1.51188 0
M  V30 2841 C 285.758 -1.55907 0.39367 0
M  V30 2842 O 286.948 -1.61361 0.656377 0
M  V30 2843 C 284.08 -3.11365 1.38798 0
M  V30 2844 H 285.273 -1.67714 2.4862 0
M  V30 2845 H 282.826 -0.842737 1.31634 0
M  V30 2846 H 283.561 -3.21507 0.424693 0
M  V30 2847 H 283.346 -3.24644 2.19884 0
M  V30 2848 H 284.836 -3.91075 1.46458 0
M  V30 2849 N 285.273 -1.31445 -0.869486 0
M  V30 2850 C 286.203 -1.21727 -1.99261 0
M  V30 2851 C 287.184 -0.104359 -1.6978 0
M  V30 2852 O 288.369 -0.289038 -1.92037 0
M  V30 2853 C 285.499 -0.924317 -3.34774 0
M  V30 2854 C 284.453 -1.99685 -3.78563 0
M  V30 2855 C 283.779 -1.55658 -5.11541 0
M  V30 2856 C 285.079 -3.41003 -3.95619 0
M  V30 2857 H 286.773 -2.1569 -2.07649 0
M  V30 2858 H 284.319 -1.03839 -0.997675 0
M  V30 2859 H 286.272 -0.842934 -4.12883 0
M  V30 2860 H 284.996 0.0509793 -3.2656 0
M  V30 2861 H 283.655 -2.06813 -3.02694 0
M  V30 2862 H 283.303 -0.569132 -4.9977 0
M  V30 2863 H 283.003 -2.27409 -5.41811 0
M  V30 2864 H 284.527 -1.48928 -5.92159 0
M  V30 2865 H 285.941 -3.36547 -4.64122 0
M  V30 2866 H 284.338 -4.10975 -4.37286 0
M  V30 2867 H 285.408 -3.81754 -2.98985 0
M  V30 2868 N 286.751 1.08385 -1.14413 0
M  V30 2869 C 288 1.80153 -0.907076 0
M  V30 2870 C 288.313 1.87176 0.567851 0
M  V30 2871 O 289.519 2.55359 0.922172 0
M  V30 2872 C 287.975 3.23687 -1.57336 0
M  V30 2873 C 287.583 3.24897 -3.08457 0
M  V30 2874 C 289.327 4.00136 -1.41744 0
M  V30 2875 C 287.234 4.6302 -3.67921 0
M  V30 2876 H 286.164 0.675139 -0.335714 0
M  V30 2877 H 288.815 1.21733 -1.37307 0
M  V30 2878 H 287.197 3.82234 -1.03505 0
M  V30 2879 H 288.371 2.76055 -3.68958 0
M  V30 2880 H 286.686 2.61943 -3.2369 0
M  V30 2881 H 289.283 5.02201 -1.83572 0
M  V30 2882 H 289.626 4.14709 -0.363576 0
M  V30 2883 H 290.159 3.48058 -1.92614 0
M  V30 2884 H 286.898 4.5365 -4.73161 0
M  V30 2885 H 286.418 5.12143 -3.12201 0
M  V30 2886 H 288.097 5.31994 -3.68227 0
M  V30 2887 N 288.23 0.939286 1.26551 0
M  V30 2888 C 289.18 0.418284 2.2413 0
M  V30 2889 C 290.164 -0.483935 1.5345 0
M  V30 2890 O 291.356 -0.319489 1.74093 0
M  V30 2891 C 288.485 -0.31709 3.41832 0
M  V30 2892 C 287.571 0.602311 4.19801 0
M  V30 2893 N 287.962 1.72726 4.75394 0
M  V30 2894 C 286.26 0.407534 4.44134 0
M  V30 2895 C 286.961 2.30004 5.34297 0
M  V30 2896 N 285.937 1.58828 5.1988 0
M  V30 2897 H 289.739 1.27705 2.64705 0
M  V30 2898 H 287.253 0.794929 1.41614 0
M  V30 2899 H 289.25 -0.707364 4.10855 0
M  V30 2900 H 287.91 -1.17264 3.02786 0
M  V30 2901 H 288.921 2.10944 4.72994 0
M  V30 2902 H 285.598 -0.406406 4.15517 0
M  V30 2903 H 286.988 3.24778 5.88191 0
M  V30 2904 N 289.708 -1.40897 0.706093 0
M  V30 2905 C 290.985 -1.94868 0.169099 0
M  V30 2906 C 291.365 -1.64485 -1.32318 0
M  V30 2907 O 290.713 -0.95744 -2.07474 0
M  V30 2908 C 290.923 -3.45798 0.471654 0
M  V30 2909 C 292.271 -4.22663 0.405127 0
M  V30 2910 O 293.295 -3.53865 0.407168 0
M  V30 2911 O 292.154 -5.45216 0.374383 0
M  V30 2912 H 289.248 -0.82673 0.0211352 0
M  V30 2913 H 291.794 -1.50558 0.782976 0
M  V30 2914 H 290.566 -3.61235 1.50416 0
M  V30 2915 H 290.189 -3.97225 -0.172666 0
M  V30 2916 N 291.186 -0.45159 -1.50991 0
M  V30 2917 C 292.432 0.110237 -2.025 0
M  V30 2918 C 292.765 1.41109 -1.33424 0
M  V30 2919 O 292.04 1.89135 -0.453659 0
M  V30 2920 C 292.323 0.314271 -3.58726 0
M  V30 2921 C 292.176 -1.00623 -4.38401 0
M  V30 2922 C 293.495 1.07767 -4.26702 0
M  V30 2923 H 290.614 0.0385897 -0.735989 0
M  V30 2924 H 293.256 -0.593374 -1.80497 0
M  V30 2925 H 291.406 0.913601 -3.77605 0
M  V30 2926 H 293.078 -1.64064 -4.31139 0
M  V30 2927 H 291.321 -1.6075 -4.02917 0
M  V30 2928 H 291.992 -0.817341 -5.45915 0
M  V30 2929 H 294.468 0.56986 -4.12179 0
M  V30 2930 H 293.344 1.18921 -5.35863 0
M  V30 2931 H 293.605 2.10939 -3.88532 0
M  V30 2932 N 292.664 1.56529 -0.183458 0
M  V30 2933 C 294.075 1.83739 0.331177 0
M  V30 2934 C 294.426 1.10373 1.62211 0
M  V30 2935 O 293.551 0.36071 2.13373 0
M  V30 2936 C 294.146 3.33306 0.607646 0
M  V30 2937 C 292.705 3.60969 1.06668 0
M  V30 2938 C 291.852 2.77086 0.109029 0
M  V30 2939 H 294.803 1.53379 -0.407484 0
M  V30 2940 H 294.824 3.51444 1.45832 0
M  V30 2941 H 294.336 3.86677 -0.332086 0
M  V30 2942 H 292.437 3.13021 2.0211 0
M  V30 2943 H 292.55 4.69231 0.967447 0
M  V30 2944 H 290.914 2.47319 0.608714 0
M  V30 2945 H 291.697 3.33241 -0.82494 0
M  V30 2946 N 294.142 -0.090211 1.57342 0
M  V30 2947 C 295.052 -1.12735 2.05738 0
M  V30 2948 C 296.068 -1.43557 0.983231 0
M  V30 2949 O 297.244 -1.54101 1.29672 0
M  V30 2950 C 294.309 -2.42659 2.47624 0
M  V30 2951 C 293.37 -2.18975 3.69254 0
M  V30 2952 C 292.603 -3.42704 4.09133 0
M  V30 2953 O 292.826 -4.51127 3.49057 0
M  V30 2954 O 291.76 -3.32003 5.02053 0
M  V30 2955 H 295.586 -0.746279 2.94388 0
M  V30 2956 H 293.171 -0.303064 1.46294 0
M  V30 2957 H 295.053 -3.19155 2.7517 0
M  V30 2958 H 293.728 -2.80182 1.62109 0
M  V30 2959 H 292.635 -1.40244 3.46818 0
M  V30 2960 H 293.968 -1.86342 4.55563 0
M  V30 2961 N 295.62 -1.53406 -0.361157 0
M  V30 2962 C 296.53 -1.83122 -1.4664 0
M  V30 2963 C 297.546 -0.719943 -1.58407 0
M  V30 2964 O 298.722 -1.01046 -1.74218 0
M  V30 2965 C 295.787 -2.01891 -2.81853 0
M  V30 2966 C 294.848 -3.25784 -2.79577 0
M  V30 2967 C 294.081 -3.43648 -4.0834 0
M  V30 2968 O 294.304 -2.65714 -5.0473 0
M  V30 2969 O 293.238 -4.37018 -4.13883 0
M  V30 2970 H 297.064 -2.7703 -1.24451 0
M  V30 2971 H 294.649 -1.38841 -0.551678 0
M  V30 2972 H 296.531 -2.15782 -3.61962 0
M  V30 2973 H 295.206 -1.11173 -3.0401 0
M  V30 2974 H 294.113 -3.17312 -1.98151 0
M  V30 2975 H 295.446 -4.16439 -2.62373 0
M  V30 2976 N 297.098 0.621204 -1.44841 0
M  V30 2977 C 298.328 1.40548 -1.51426 0
M  V30 2978 C 298.736 1.88673 -0.141083 0
M  V30 2979 O 298.079 1.62053 0.865128 0
M  V30 2980 C 298.141 2.65325 -2.42576 0
M  V30 2981 C 297.805 2.3893 -3.89566 0
M  V30 2982 C 298.802 2.00138 -4.79834 0
M  V30 2983 C 296.487 2.52263 -4.3436 0
M  V30 2984 C 298.481 1.75021 -6.129 0
M  V30 2985 C 296.168 2.2676 -5.67471 0
M  V30 2986 C 297.166 1.88199 -6.56559 0
M  V30 2987 O 296.854 1.62986 -7.87204 0
M  V30 2988 H 296.586 0.437122 -0.515655 0
M  V30 2989 H 299.14 0.765987 -1.90583 0
M  V30 2990 H 297.37 3.31947 -1.98364 0
M  V30 2991 H 299.059 3.27347 -2.39998 0
M  V30 2992 H 299.825 1.89386 -4.46495 0
M  V30 2993 H 295.704 2.81246 -3.65269 0
M  V30 2994 H 299.248 1.44848 -6.82396 0
M  V30 2995 H 295.145 2.37125 -6.00368 0
M  V30 2996 H 295.913 1.7715 -7.991 0
M  V30 2997 N 298.576 1.31904 0.862503 0
M  V30 2998 C 299.539 1.20131 1.95195 0
M  V30 2999 C 300.539 0.126409 1.60302 0
M  V30 3000 O 301.729 0.376234 1.70089 0
M  V30 3001 C 298.861 0.845691 3.30244 0
M  V30 3002 H 300.054 2.16943 2.07064 0
M  V30 3003 H 297.607 1.15622 1.05172 0
M  V30 3004 H 298.342 -0.120957 3.24074 0
M  V30 3005 H 298.127 1.62276 3.56944 0
M  V30 3006 H 299.617 0.787418 4.10109 0
M  V30 3007 N 300.054 -1.07777 1.14986 0
M  V30 3008 C 301.303 -1.79669 0.916617 0
M  V30 3009 C 301.616 -1.87474 -0.557917 0
M  V30 3010 O 302.822 -2.55845 -0.908617 0
M  V30 3011 C 301.278 -3.22848 1.59051 0
M  V30 3012 C 300.886 -3.23257 3.10176 0
M  V30 3013 C 302.63 -3.99379 1.43864 0
M  V30 3014 C 300.537 -4.61063 3.70372 0
M  V30 3015 H 299.467 -0.673349 0.33929 0
M  V30 3016 H 302.118 -1.21003 1.37951 0
M  V30 3017 H 300.5 -3.8168 1.0553 0
M  V30 3018 H 301.674 -2.74095 3.70417 0
M  V30 3019 H 299.989 -2.60222 3.25074 0
M  V30 3020 H 302.586 -5.0122 1.86232 0
M  V30 3021 H 302.929 -4.14511 0.385564 0
M  V30 3022 H 303.462 -3.47032 1.94457 0
M  V30 3023 H 300.201 -4.51135 4.7556 0
M  V30 3024 H 299.721 -5.1048 3.14913 0
M  V30 3025 H 301.4 -5.30034 3.71043 0
M  V30 3026 N 301.532 -0.945985 -1.26051 0
M  V30 3027 C 302.482 -0.430164 -2.23905 0
M  V30 3028 C 303.466 0.47579 -1.53704 0
M  V30 3029 O 304.658 0.310252 -1.7426 0
M  V30 3030 C 301.787 0.298957 -3.41996 0
M  V30 3031 C 300.873 -0.624566 -4.19476 0
M  V30 3032 N 301.264 -1.75245 -4.74471 0
M  V30 3033 C 299.562 -0.431082 -4.43912 0
M  V30 3034 C 300.263 -2.32834 -5.3307 0
M  V30 3035 N 299.239 -1.61583 -5.1903 0
M  V30 3036 H 303.041 -1.29107 -2.64024 0
M  V30 3037 H 300.555 -0.802428 -1.41191 0
M  V30 3038 H 302.552 0.685565 -4.11225 0
M  V30 3039 H 301.212 1.15657 -3.03403 0
M  V30 3040 H 302.223 -2.13449 -4.71868 0
M  V30 3041 H 298.9 0.384364 -4.15727 0
M  V30 3042 H 300.29 -3.27893 -5.86461 0
M  V30 3043 N 303.011 1.40521 -0.713556 0
M  V30 3044 C 303.958 2.30723 -0.059684 0
M  V30 3045 C 304.928 1.48079 0.752448 0
M  V30 3046 O 306.113 1.76823 0.71681 0
M  V30 3047 C 303.253 3.34274 0.857594 0
M  V30 3048 C 302.366 4.31986 0.0351536 0
M  V30 3049 C 301.501 5.22605 0.951724 0
M  V30 3050 C 300.54 6.11976 0.123253 0
M  V30 3051 N 299.677 6.9502 0.99459 0
M  V30 3052 H 304.517 2.86074 -0.834596 0
M  V30 3053 H 302.054 1.40879 -0.42326 0
M  V30 3054 H 304.012 3.92879 1.40364 0
M  V30 3055 H 302.642 2.8043 1.59871 0
M  V30 3056 H 301.694 3.7518 -0.628052 0
M  V30 3057 H 303.006 4.95101 -0.606347 0
M  V30 3058 H 302.16 5.86131 1.56638 0
M  V30 3059 H 300.899 4.59759 1.62705 0
M  V30 3060 H 299.904 5.47482 -0.50435 0
M  V30 3061 H 301.129 6.76881 -0.548539 0
M  V30 3062 H 299.075 6.34764 1.6556 0
M  V30 3063 H 298.992 7.54892 0.40908 0
M  V30 3064 H 300.26 7.62997 1.59549 0
M  V30 3065 N 304.489 0.459591 1.5075 0
M  V30 3066 C 305.399 -0.34613 2.32033 0
M  V30 3067 C 306.415 -1.00686 1.41909 0
M  V30 3068 O 307.591 -0.997361 1.7497 0
M  V30 3069 C 304.656 -1.42029 3.16273 0
M  V30 3070 C 303.717 -0.777362 4.22203 0
M  V30 3071 C 302.95 -1.80034 5.02418 0
M  V30 3072 O 303.173 -3.02544 4.83553 0
M  V30 3073 O 302.107 -1.37853 5.85901 0
M  V30 3074 H 305.933 0.318054 3.0203 0
M  V30 3075 H 303.518 0.221663 1.47746 0
M  V30 3076 H 305.4 -2.04275 3.68578 0
M  V30 3077 H 304.075 -2.06815 2.49016 0
M  V30 3078 H 302.982 -0.116256 3.73919 0
M  V30 3079 H 304.315 -0.172634 4.91897 0
M  V30 3080 N 305.967 -1.56429 0.191757 0
M  V30 3081 C 306.914 -2.18936 -0.730454 0
M  V30 3082 C 307.884 -1.13557 -1.21219 0
M  V30 3083 O 309.069 -1.41794 -1.27668 0
M  V30 3084 C 306.209 -2.85013 -1.9458 0
M  V30 3085 C 305.322 -4.04909 -1.50574 0
M  V30 3086 C 304.457 -4.58853 -2.67634 0
M  V30 3087 C 303.496 -5.71114 -2.20217 0
M  V30 3088 N 302.633 -6.19478 -3.30442 0
M  V30 3089 H 307.473 -2.97389 -0.190664 0
M  V30 3090 H 305.01 -1.46869 -0.0823694 0
M  V30 3091 H 306.968 -3.21492 -2.65893 0
M  V30 3092 H 305.598 -2.09129 -2.45896 0
M  V30 3093 H 304.65 -3.74115 -0.688605 0
M  V30 3094 H 305.962 -4.86113 -1.11784 0
M  V30 3095 H 305.116 -4.97619 -3.47074 0
M  V30 3096 H 303.855 -3.76749 -3.09696 0
M  V30 3097 H 302.86 -5.31879 -1.3923 0
M  V30 3098 H 304.085 -6.55033 -1.79189 0
M  V30 3099 H 302.031 -5.40297 -3.72041 0
M  V30 3100 H 301.948 -6.95725 -2.9581 0
M  V30 3101 H 303.216 -6.62898 -4.10106 0
M  V30 3102 N 307.445 0.0818655 -1.57387 0
M  V30 3103 C 308.355 1.11642 -2.06333 0
M  V30 3104 C 309.371 1.43033 -0.99083 0
M  V30 3105 O 310.547 1.53411 -1.30488 0
M  V30 3106 C 307.612 2.41342 -2.48907 0
M  V30 3107 C 306.673 2.17014 -3.7041 0
M  V30 3108 C 305.906 3.4053 -4.10944 0
M  V30 3109 O 306.129 4.4927 -3.51444 0
M  V30 3110 O 305.063 3.29336 -5.03807 0
M  V30 3111 H 308.889 0.730657 -2.9478 0
M  V30 3112 H 306.474 0.295301 -1.46452 0
M  V30 3113 H 308.356 3.17691 -2.76858 0
M  V30 3114 H 307.031 2.79319 -1.63593 0
M  V30 3115 H 305.938 1.38403 -3.47556 0
M  V30 3116 H 307.271 1.83923 -4.56545 0
M  V30 3117 N 308.923 1.53595 0.353017 0
M  V30 3118 C 310.17 1.70385 1.09431 0
M  V30 3119 C 310.498 0.462113 1.88931 0
M  V30 3120 O 309.753 -0.556074 1.87633 0
M  V30 3121 C 310.052 2.91313 2.07054 0
M  V30 3122 C 309.718 4.27308 1.43939 0
M  V30 3123 C 308.38 4.64287 1.26454 0
M  V30 3124 C 310.732 5.11829 0.983883 0
M  V30 3125 C 308.06 5.83412 0.620226 0
M  V30 3126 C 310.412 6.31611 0.353516 0
M  V30 3127 C 309.076 6.67293 0.166272 0
M  V30 3128 H 308.346 0.623484 0.400436 0
M  V30 3129 H 310.993 1.87799 0.374655 0
M  V30 3130 H 309.298 2.68463 2.85368 0
M  V30 3131 H 310.995 3.01497 2.64387 0
M  V30 3132 H 307.585 3.98198 1.58543 0
M  V30 3133 H 311.769 4.838 1.10685 0
M  V30 3134 H 307.025 6.09639 0.463681 0
M  V30 3135 H 311.199 6.964 -0.00757555 0
M  V30 3136 H 308.826 7.59461 -0.335047 0
M  V30 3137 N 310.401 -0.613514 1.45168 0
M  V30 3138 C 311.629 -1.39946 1.5239 0
M  V30 3139 C 312.044 -1.88167 0.154531 0
M  V30 3140 O 311.401 -1.61872 -0.842843 0
M  V30 3141 C 311.452 -2.60795 2.50337 0
M  V30 3142 O 311.173 -2.1458 3.81952 0
M  V30 3143 C 312.674 -3.53723 2.67198 0
M  V30 3144 H 309.894 -0.428593 0.516284 0
M  V30 3145 H 312.438 -0.748753 1.903 0
M  V30 3146 H 310.593 -3.21919 2.15515 0
M  V30 3147 H 311.007 -2.93055 4.34993 0
M  V30 3148 H 312.481 -4.35079 3.39721 0
M  V30 3149 H 312.958 -4.0368 1.73029 0
M  V30 3150 H 313.564 -2.98456 3.02992 0
M  V30 3151 N 311.879 -1.3236 -0.855495 0
M  V30 3152 C 313.126 -1.22872 -1.60962 0
M  V30 3153 C 313.454 0.209658 -1.93367 0
M  V30 3154 O 312.709 1.16243 -1.57436 0
M  V30 3155 C 313.008 -2.03275 -2.93963 0
M  V30 3156 C 312.674 -3.5264 -2.80991 0
M  V30 3157 C 311.336 -3.93364 -2.7716 0
M  V30 3158 C 313.688 -4.47626 -2.66983 0
M  V30 3159 C 311.016 -5.27319 -2.572 0
M  V30 3160 C 313.368 -5.81723 -2.48558 0
M  V30 3161 C 312.032 -6.2165 -2.4312 0
M  V30 3162 H 311.302 -0.44962 -0.589001 0
M  V30 3163 H 313.949 -1.63777 -0.992442 0
M  V30 3164 H 312.254 -1.55095 -3.59795 0
M  V30 3165 H 313.951 -1.93303 -3.51333 0
M  V30 3166 H 310.541 -3.20295 -2.84797 0
M  V30 3167 H 314.725 -4.17084 -2.68988 0
M  V30 3168 H 309.981 -5.57311 -2.51424 0
M  V30 3169 H 314.155 -6.5494 -2.36699 0
M  V30 3170 H 311.782 -7.25388 -2.27412 0
M  V30 3171 N 313.357 1.07166 -1.15556 0
M  V30 3172 C 314.305 2.16517 -0.8499 0
M  V30 3173 C 315.299 1.68468 0.177454 0
M  V30 3174 O 316.505 1.79971 0.0323026 0
M  V30 3175 H 312.88 0.706652 -0.25719 0
M  V30 3176 H 314.851 2.39514 -1.77976 0
M  V30 3177 C 313.6 3.45855 -0.357682 0
M  V30 3178 H 312.923 3.83214 -1.13961 0
M  V30 3179 H 314.363 4.23607 -0.182489 0
M  V30 3180 C 312.822 3.24062 0.921152 0
M  V30 3181 O 313.352 3.48813 1.9923 0
M  V30 3182 N 311.558 2.77539 0.86141 0
M  V30 3183 H 311.105 2.57598 -0.0104408 0
M  V30 3184 H 311.063 2.63337 1.71758 0
M  V30 3185 N 314.835 0.952656 1.25548 0
M  V30 3186 C 315.782 0.47008 2.25962 0
M  V30 3187 C 316.752 -0.476384 1.59122 0
M  V30 3188 O 317.937 -0.39007 1.8677 0
M  V30 3189 C 315.077 -0.247881 3.44209 0
M  V30 3190 C 314.19 0.735591 4.25691 0
M  V30 3191 C 313.325 -0.0047306 5.312 0
M  V30 3192 C 312.364 0.969805 6.04368 0
M  V30 3193 N 311.501 0.260486 7.01617 0
M  V30 3194 H 316.341 1.33126 2.66611 0
M  V30 3195 H 313.878 0.66765 1.31076 0
M  V30 3196 H 315.836 -0.680695 4.1161 0
M  V30 3197 H 314.466 -1.07312 3.0444 0
M  V30 3198 H 313.518 1.28689 3.57971 0
M  V30 3199 H 314.83 1.47934 4.76358 0
M  V30 3200 H 313.984 -0.496275 6.04667 0
M  V30 3201 H 312.723 -0.781282 4.81401 0
M  V30 3202 H 311.728 1.47237 5.29718 0
M  V30 3203 H 312.953 1.74655 6.56256 0
M  V30 3204 H 310.899 -0.497364 6.54112 0
M  V30 3205 H 310.816 0.943362 7.50091 0
M  V30 3206 H 312.084 -0.209587 7.79218 0
M  V30 3207 N 316.313 -1.40141 0.720998 0
M  V30 3208 C 317.562 -2.0002 0.259804 0
M  V30 3209 C 317.875 -1.57839 -1.15526 0
M  V30 3210 O 319.081 -2.10455 -1.71525 0
M  V30 3211 C 317.537 -3.57516 0.413566 0
M  V30 3212 C 317.145 -4.08667 1.83562 0
M  V30 3213 C 318.889 -4.24498 0.0134387 0
M  V30 3214 C 316.796 -5.58686 1.93968 0
M  V30 3215 H 315.726 -0.748195 0.0933806 0
M  V30 3216 H 318.377 -1.60313 0.892866 0
M  V30 3217 H 316.759 -3.9495 -0.288169 0
M  V30 3218 H 317.933 -3.82598 2.56817 0
M  V30 3219 H 316.248 -3.543 2.1877 0
M  V30 3220 H 318.845 -5.34654 0.0703954 0
M  V30 3221 H 319.188 -4.03375 -1.02927 0
M  V30 3222 H 319.721 -3.92188 0.665815 0
M  V30 3223 H 316.46 -5.8467 2.96379 0
M  V30 3224 H 315.98 -5.86602 1.25131 0
M  V30 3225 H 317.659 -6.23875 1.71431 0
M  V30 3226 N 317.792 -0.46758 -1.50504 0
M  V30 3227 C 319.208 -0.121533 -1.59137 0
M  V30 3228 C 319.408 1.3717 -1.47603 0
M  V30 3229 O 318.464 2.14464 -1.33272 0
M  V30 3230 C 319.777 -0.6686 -2.93173 0
M  V30 3231 C 321.325 -0.631716 -3.06559 0
M  V30 3232 C 321.8 -1.15627 -4.43164 0
M  V30 3233 N 323.291 -1.11553 -4.49567 0
M  V30 3234 C 324.026 -1.49195 -5.5365 0
M  V30 3235 N 323.522 -1.94269 -6.65005 0
M  V30 3236 N 325.315 -1.4082 -5.44175 0
M  V30 3237 H 317.466 -1.4388 -1.56245 0
M  V30 3238 H 319.729 -0.594784 -0.738198 0
M  V30 3239 H 319.435 -1.71453 -3.07078 0
M  V30 3240 H 319.309 -0.11021 -3.77039 0
M  V30 3241 H 321.696 0.405297 -2.92304 0
M  V30 3242 H 321.777 -1.22687 -2.24458 0
M  V30 3243 H 321.421 -2.1919 -4.58168 0
M  V30 3244 H 321.351 -0.537365 -5.23851 0
M  V30 3245 H 323.842 -0.784895 -3.69659 0
M  V30 3246 H 324.155 -2.21148 -7.40482 0
M  V30 3247 H 322.5 -1.98219 -6.66134 0
M  V30 3248 H 325.691 -1.0545 -4.56068 0
M  V30 3249 H 325.864 -1.70481 -6.25172 0
M  V30 3250 N 319.27 1.56325 -0.20005 0
M  V30 3251 C 320.202 2.16555 0.750771 0
M  V30 3252 C 321.215 1.12871 1.1732 0
M  V30 3253 O 322.404 1.39943 1.10807 0
M  V30 3254 C 319.504 2.71684 2.02586 0
M  V30 3255 C 318.677 4.00321 1.76244 0
M  V30 3256 C 317.736 4.40227 2.88248 0
M  V30 3257 O 316.762 5.07552 2.57642 0
M  V30 3258 N 317.964 4.04138 4.16717 0
M  V30 3259 H 320.729 2.98772 0.235685 0
M  V30 3260 H 318.29 1.6189 -0.0182594 0
M  V30 3261 H 320.282 2.95363 2.76664 0
M  V30 3262 H 318.852 1.93893 2.45202 0
M  V30 3263 H 318.072 3.84723 0.85919 0
M  V30 3264 H 319.36 4.84279 1.56048 0
M  V30 3265 H 318.758 3.49993 4.44434 0
M  V30 3266 H 317.315 4.32756 4.87407 0
M  V30 3267 N 320.748 -0.0735177 1.57428 0
M  V30 3268 C 322.159 -0.625551 1.75908 0
M  V30 3269 C 322.51 -1.78 0.825261 0
M  V30 3270 O 321.635 -2.16398 0.00893964 0
M  V30 3271 C 322.23 -1.14155 3.18989 0
M  V30 3272 C 320.789 -1.63946 3.38819 0
M  V30 3273 C 319.936 -0.558151 2.71625 0
M  V30 3274 H 322.887 0.152647 1.57964 0
M  V30 3275 H 322.908 -2.0104 3.23053 0
M  V30 3276 H 322.42 -0.301116 3.8693 0
M  V30 3277 H 320.521 -2.50321 2.7599 0
M  V30 3278 H 320.634 -1.71759 4.47253 0
M  V30 3279 H 318.998 -1.00278 2.34129 0
M  V30 3280 H 319.781 0.272071 3.4222 0
M  V30 3281 N 322.226 -1.5378 -0.344866 0
M  V30 3282 C 323.174 -1.82373 -1.4437 0
M  V30 3283 C 324.168 -0.694128 -1.54526 0
M  V30 3284 O 325.374 -0.877442 -1.57165 0
M  V30 3285 H 321.749 -0.577765 -0.481344 0
M  V30 3286 H 323.72 -2.74306 -1.17468 0
M  V30 3287 C 322.469 -2.04898 -2.80913 0
M  V30 3288 H 321.792 -2.9127 -2.73865 0
M  V30 3289 H 323.232 -2.28871 -3.56923 0
M  V30 3290 C 321.691 -0.834116 -3.26411 0
M  V30 3291 O 322.221 -0.0328885 -4.01687 0
M  V30 3292 N 320.427 -0.65171 -2.83198 0
M  V30 3293 H 319.974 -1.30489 -2.22104 0
M  V30 3294 H 319.932 0.159686 -3.13994 0
M  V30 3295 N 323.704 0.605807 -1.45491 0
M  V30 3296 C 325.12 0.926751 -1.29936 0
M  V30 3297 C 325.32 1.99896 -0.253706 0
M  V30 3298 O 324.376 2.50038 0.351737 0
M  V30 3299 C 325.689 1.36599 -2.67883 0
M  V30 3300 C 327.237 1.4801 -2.75793 0
M  V30 3301 C 327.712 1.95309 -4.14268 0
M  V30 3302 N 329.203 2.0254 -4.16571 0
M  V30 3303 C 329.938 2.40363 -5.20589 0
M  V30 3304 N 329.434 2.77143 -6.34952 0
M  V30 3305 N 331.227 2.40718 -5.07948 0
M  V30 3306 H 323.378 -0.102862 -2.12151 0
M  V30 3307 H 325.641 0.016639 -0.947854 0
M  V30 3308 H 325.347 0.652306 -3.45598 0
M  V30 3309 H 325.221 2.33215 -2.96463 0
M  V30 3310 H 327.608 2.1847 -1.98381 0
M  V30 3311 H 327.689 0.497041 -2.50925 0
M  V30 3312 H 327.333 1.25436 -4.92167 0
M  V30 3313 H 327.263 2.94532 -4.3653 0
M  V30 3314 H 329.754 1.76699 -3.34045 0
M  V30 3315 H 330.067 3.0489 -7.10114 0
M  V30 3316 H 328.412 2.74834 -6.3835 0
M  V30 3317 H 331.603 2.11392 -4.1765 0
M  V30 3318 H 331.776 2.69869 -5.89131 0
M  V30 3319 N 325.182 1.32811 0.848464 0
M  V30 3320 C 326.13 1.22231 1.97895 0
M  V30 3321 C 327.124 0.125749 1.68933 0
M  V30 3322 O 328.33 0.289083 1.77663 0
M  V30 3323 H 324.705 0.379058 0.649476 0
M  V30 3324 H 326.676 2.17828 2.03945 0
M  V30 3325 C 325.425 0.968572 3.33937 0
M  V30 3326 H 324.748 1.80458 3.56756 0
M  V30 3327 H 326.188 0.934808 4.13567 0
M  V30 3328 C 324.647 -0.328628 3.35293 0
M  V30 3329 O 325.177 -1.33848 3.78745 0
M  V30 3330 N 323.383 -0.352788 2.88451 0
M  V30 3331 H 322.93 0.469541 2.53285 0
M  V30 3332 H 322.888 -1.22057 2.89741 0
M  V30 3333 N 326.66 -1.06551 1.16123 0
M  V30 3334 C 328.076 -1.3142 0.905585 0
M  V30 3335 C 328.276 -1.96571 -0.442964 0
M  V30 3336 O 327.332 -2.23068 -1.18308 0
M  V30 3337 C 328.645 -2.19741 2.05267 0
M  V30 3338 C 330.193 -2.33165 2.08813 0
M  V30 3339 C 330.668 -3.24838 3.22868 0
M  V30 3340 N 332.159 -3.32421 3.22568 0
M  V30 3341 C 332.894 -4.0344 4.0746 0
M  V30 3342 N 332.39 -4.77003 5.02434 0
M  V30 3343 N 334.183 -3.99464 3.95456 0
M  V30 3344 H 326.334 -0.626548 2.02949 0
M  V30 3345 H 328.597 -0.338777 0.8854 0
M  V30 3346 H 328.303 -1.79142 3.02657 0
M  V30 3347 H 328.177 -3.20313 1.99198 0
M  V30 3348 H 330.564 -2.73013 1.12018 0
M  V30 3349 H 330.645 -1.3227 2.18948 0
M  V30 3350 H 330.289 -2.85708 4.19921 0
M  V30 3351 H 330.219 -4.25707 3.0997 0
M  V30 3352 H 332.71 -2.79994 2.53795 0
M  V30 3353 H 333.023 -5.28712 5.63634 0
M  V30 3354 H 331.368 -4.75992 5.06415 0
M  V30 3355 H 334.559 -3.4111 3.20564 0
M  V30 3356 H 334.732 -4.54544 4.61837 0
M  V30 3357 N 328.138 -0.959301 -1.25041 0
M  V30 3358 C 329.068 -0.501388 -2.28053 0
M  V30 3359 C 330.049 0.454673 -1.63911 0
M  V30 3360 O 331.234 0.352618 -1.90972 0
M  V30 3361 C 328.364 0.217224 -3.4662 0
M  V30 3362 C 327.318 -0.654034 -4.22973 0
M  V30 3363 C 326.644 0.195589 -5.34342 0
M  V30 3364 C 327.944 -1.93447 -4.85155 0
M  V30 3365 H 329.638 -1.36238 -2.66608 0
M  V30 3366 H 327.184 -0.656534 -1.28163 0
M  V30 3367 H 329.137 0.548732 -4.17812 0
M  V30 3368 H 327.861 1.1125 -3.07068 0
M  V30 3369 H 326.52 -0.968693 -3.5357 0
M  V30 3370 H 326.168 1.09076 -4.91031 0
M  V30 3371 H 325.868 -0.384091 -5.86343 0
M  V30 3372 H 327.392 0.521958 -6.08365 0
M  V30 3373 H 328.806 -1.66908 -5.48466 0
M  V30 3374 H 327.203 -2.46018 -5.47353 0
M  V30 3375 H 328.273 -2.63466 -4.07079 0
M  V30 3376 N 329.616 1.39756 -0.72842 0
M  V30 3377 C 330.546 2.33289 -0.0991354 0
M  V30 3378 C 331.527 1.53568 0.731489 0
M  V30 3379 O 332.712 1.81987 0.677807 0
M  V30 3380 C 329.842 3.3763 0.813834 0
M  V30 3381 C 328.796 4.2791 0.0878663 0
M  V30 3382 C 328.122 5.22894 1.11741 0
M  V30 3383 C 329.422 5.11314 -1.06563 0
M  V30 3384 H 331.116 2.86163 -0.880408 0
M  V30 3385 H 328.662 1.37591 -0.424819 0
M  V30 3386 H 330.615 4.0201 1.26355 0
M  V30 3387 H 329.339 2.83181 1.62715 0
M  V30 3388 H 327.998 3.65 -0.342159 0
M  V30 3389 H 327.646 4.64744 1.92412 0
M  V30 3390 H 327.346 5.84143 0.636477 0
M  V30 3391 H 328.87 5.90151 1.56697 0
M  V30 3392 H 330.284 5.69076 -0.694671 0
M  V30 3393 H 328.681 5.81671 -1.47577 0
M  V30 3394 H 329.751 4.46534 -1.89038 0
M  V30 3395 N 331.094 0.475555 1.50254 0
M  V30 3396 C 332.34 -0.0701075 2.03279 0
M  V30 3397 C 332.695 -1.37007 1.35081 0
M  V30 3398 O 331.988 -1.8577 0.469052 0
M  V30 3399 C 332.182 -0.305114 3.56095 0
M  V30 3400 C 332.011 0.970515 4.39103 0
M  V30 3401 C 330.781 1.51509 4.82051 0
M  V30 3402 C 332.979 1.8671 4.79212 0
M  V30 3403 N 330.961 2.73928 5.49397 0
M  V30 3404 C 332.332 2.93715 5.46014 0
M  V30 3405 C 334.387 1.87695 4.61167 0
M  V30 3406 C 333.09 4.01699 5.96683 0
M  V30 3407 C 335.116 2.94637 5.12779 0
M  V30 3408 C 334.478 4.00361 5.79561 0
M  V30 3409 H 330.577 0.014486 0.781866 0
M  V30 3410 H 333.161 0.644755 1.83714 0
M  V30 3411 H 331.332 -0.989019 3.75597 0
M  V30 3412 H 333.064 -0.845516 3.95769 0
M  V30 3413 H 329.819 1.06367 4.61501 0
M  V30 3414 H 330.243 3.36109 5.87673 0
M  V30 3415 H 334.885 1.07273 4.08965 0
M  V30 3416 H 332.603 4.82934 6.4792 0
M  V30 3417 H 336.189 2.96388 5.00645 0
M  V30 3418 H 335.069 4.81751 6.18778 0
M  V30 3419 N 332.573 -1.56217 0.208337 0
M  V30 3420 C 333.798 -2.02782 -0.435222 0
M  V30 3421 C 334.223 -1.08738 -1.53485 0
M  V30 3422 O 333.581 -0.0731855 -1.81152 0
M  V30 3423 C 333.629 -3.47687 -0.956335 0
M  V30 3424 O 332.733 -3.56773 -2.06849 0
M  V30 3425 H 332.074 -0.656403 -0.100158 0
M  V30 3426 H 334.604 -2.02033 0.3231 0
M  V30 3427 H 334.614 -3.87745 -1.26955 0
M  V30 3428 H 333.289 -4.15624 -0.15143 0
M  V30 3429 H 331.866 -3.28597 -1.76292 0
M  V30 3430 N 334.051 0.0651679 -1.57465 0
M  V30 3431 C 335.276 0.779605 -1.9219 0
M  V30 3432 C 335.701 1.69988 -0.805333 0
M  V30 3433 O 335.059 1.79685 0.241435 0
M  V30 3434 C 335.107 1.54364 -3.2589 0
M  V30 3435 O 334.211 2.65474 -3.1559 0
M  V30 3436 H 333.552 0.212249 -0.629163 0
M  V30 3437 H 336.082 0.0314294 -2.04576 0
M  V30 3438 H 336.092 1.92146 -3.59922 0
M  V30 3439 H 334.767 0.868457 -4.06732 0
M  V30 3440 H 333.344 2.30501 -2.93128 0
M  V30 3441 N 335.529 1.53961 0.336706 0
M  V30 3442 C 336.477 1.83136 1.43401 0
M  V30 3443 C 337.471 0.702313 1.54156 0
M  V30 3444 O 338.677 0.885765 1.56698 0
M  V30 3445 H 335.052 0.580309 0.478273 0
M  V30 3446 H 337.023 2.74925 1.16012 0
M  V30 3447 C 335.772 2.06385 2.79822 0
M  V30 3448 H 335.095 2.92718 2.72316 0
M  V30 3449 H 336.535 2.30761 3.55704 0
M  V30 3450 C 334.994 0.851414 3.25964 0
M  V30 3451 O 335.524 0.0541904 4.01663 0
M  V30 3452 N 333.73 0.66672 2.82848 0
M  V30 3453 H 333.277 1.31665 2.21409 0
M  V30 3454 H 333.235 -0.143032 3.14074 0
M  V30 3455 N 337.007 -0.598083 1.45811 0
M  V30 3456 C 337.937 -1.71873 1.58057 0
M  V30 3457 C 338.918 -1.64533 0.431615 0
M  V30 3458 O 340.103 -1.82787 0.65595 0
M  V30 3459 C 337.233 -3.10495 1.55597 0
M  V30 3460 C 336.187 -3.32654 2.69305 0
M  V30 3461 C 335.513 -4.71646 2.51902 0
M  V30 3462 C 336.813 -3.21981 4.11248 0
M  V30 3463 H 338.507 -1.61881 2.51863 0
M  V30 3464 H 336.053 -0.777372 1.21214 0
M  V30 3465 H 338.006 -3.88699 1.6276 0
M  V30 3466 H 336.73 -3.2135 0.583255 0
M  V30 3467 H 335.389 -2.56843 2.61586 0
M  V30 3468 H 335.037 -4.79246 1.52748 0
M  V30 3469 H 334.737 -4.87426 3.2816 0
M  V30 3470 H 336.261 -5.52038 2.60933 0
M  V30 3471 H 337.675 -3.90049 4.20161 0
M  V30 3472 H 336.072 -3.49289 4.87972 0
M  V30 3473 H 337.142 -2.1928 4.32486 0
M  V30 3474 N 338.485 -1.33259 -0.841409 0
M  V30 3475 C 339.433 -1.23279 -1.97244 0
M  V30 3476 C 340.427 -0.134706 -1.68864 0
M  V30 3477 O 341.633 -0.298501 -1.77508 0
M  V30 3478 H 338.008 -0.382497 -0.647457 0
M  V30 3479 H 339.979 -2.18906 -2.02787 0
M  V30 3480 C 338.728 -0.986268 -3.33419 0
M  V30 3481 H 338.051 -1.82347 -3.55794 0
M  V30 3482 H 339.491 -0.956728 -4.13065 0
M  V30 3483 C 337.95 0.310842 -3.35463 0
M  V30 3484 O 338.48 1.31838 -3.79449 0
M  V30 3485 N 336.686 0.337485 -2.88634 0
M  V30 3486 H 336.233 -0.482967 -2.53032 0
M  V30 3487 H 336.191 1.20518 -2.90384 0
M  V30 3488 N 339.963 1.05934 -1.16686 0
M  V30 3489 C 341.209 1.79065 -0.95203 0
M  V30 3490 C 341.542 1.87147 0.518629 0
M  V30 3491 O 340.817 1.36574 1.38484 0
M  V30 3492 C 341.1 3.23359 -1.58464 0
M  V30 3493 C 340.953 3.23336 -3.12689 0
M  V30 3494 C 342.272 4.21004 -1.28232 0
M  V30 3495 H 339.391 0.65005 -0.34728 0
M  V30 3496 H 342.033 1.23868 -1.44072 0
M  V30 3497 H 340.183 3.70493 -1.16908 0
M  V30 3498 H 341.855 2.84336 -3.6325 0
M  V30 3499 H 340.098 2.61886 -3.4583 0
M  V30 3500 H 340.769 4.25144 -3.52075 0
M  V30 3501 H 343.245 3.8233 -1.64203 0
M  V30 3502 H 342.121 5.20225 -1.75092 0
M  V30 3503 H 342.382 4.41639 -0.201791 0
M  V30 3504 N 341.441 0.965919 1.2453 0
M  V30 3505 C 342.718 0.543777 1.87889 0
M  V30 3506 C 343.098 -0.97909 1.87021 0
M  V30 3507 O 342.446 -1.84969 1.3416 0
M  V30 3508 C 342.656 1.13327 3.30088 0
M  V30 3509 C 344.004 1.21707 4.06783 0
M  V30 3510 O 345.028 1.08566 3.39252 0
M  V30 3511 O 343.887 1.42456 5.27606 0
M  V30 3512 H 340.981 0.181054 0.806938 0
M  V30 3513 H 343.527 1.06007 1.32516 0
M  V30 3514 H 342.299 2.17612 3.25209 0
M  V30 3515 H 341.922 0.600911 3.93033 0
M  V30 3516 N 342.919 -1.39368 0.735821 0
M  V30 3517 C 344.167 -2.00101 0.283562 0
M  V30 3518 C 344.488 -1.5868 -1.13338 0
M  V30 3519 O 343.758 -0.835423 -1.77193 0
M  V30 3520 H 342.338 -0.740024 0.101851 0
M  V30 3521 H 345 -1.70404 0.945962 0
M  V30 3522 H 344.096 -3.10323 0.332604 0
M  V30 3523 N 344.397 -0.483516 -1.5 0
M  V30 3524 C 345.33 0.350427 -2.25493 0
M  V30 3525 C 346.308 0.985549 -1.29328 0
M  V30 3526 O 347.492 1.01906 -1.58579 0
M  V30 3527 C 344.619 1.49202 -3.04066 0
M  V30 3528 C 343.665 0.973036 -4.15252 0
M  V30 3529 S 344.498 -0.122237 -5.3536 0
M  V30 3530 C 345.654 1.02294 -6.17484 0
M  V30 3531 H 345.887 -0.290381 -2.95878 0
M  V30 3532 H 343.42 -0.268562 -1.52046 0
M  V30 3533 H 345.378 2.14623 -3.49925 0
M  V30 3534 H 344.039 2.10438 -2.33183 0
M  V30 3535 H 343.232 1.82804 -4.69679 0
M  V30 3536 H 342.834 0.396335 -3.71894 0
M  V30 3537 H 345.126 1.93195 -6.49371 0
M  V30 3538 H 346.069 0.517664 -7.06205 0
M  V30 3539 H 346.477 1.28238 -5.49741 0
M  V30 3540 N 345.875 1.56104 -0.216619 0
M  V30 3541 C 346.822 2.2007 0.695531 0
M  V30 3542 C 347.792 1.15471 1.19397 0
M  V30 3543 O 348.977 1.43807 1.25396 0
M  V30 3544 C 346.117 2.88073 1.90021 0
M  V30 3545 C 345.23 4.07253 1.44113 0
M  V30 3546 C 344.365 4.63052 2.603 0
M  V30 3547 C 343.404 5.74545 2.11103 0
M  V30 3548 N 342.541 6.24656 3.20545 0
M  V30 3549 H 347.381 2.97655 0.143327 0
M  V30 3550 H 344.918 1.46982 0.0589934 0
M  V30 3551 H 346.876 3.25681 2.60745 0
M  V30 3552 H 345.506 2.13015 2.42538 0
M  V30 3553 H 344.558 3.75164 0.628999 0
M  V30 3554 H 345.87 4.8783 1.04036 0
M  V30 3555 H 345.024 5.03078 3.39113 0
M  V30 3556 H 343.763 3.81628 3.03663 0
M  V30 3557 H 342.768 5.34027 1.3075 0
M  V30 3558 H 343.993 6.57801 1.68746 0
M  V30 3559 H 341.939 5.46148 3.63399 0
M  V30 3560 H 341.856 7.00343 2.84704 0
M  V30 3561 H 343.124 6.69338 3.99508 0
M  V30 3562 N 347.353 -0.0568162 1.57498 0
M  V30 3563 C 348.581 -0.765626 1.92213 0
M  V30 3564 C 348.996 -1.70353 0.813961 0
M  V30 3565 O 348.353 -1.81268 -0.211701 0
M  V30 3566 C 348.404 -1.5465 3.2675 0
M  V30 3567 O 348.125 -0.646278 4.33307 0
M  V30 3568 C 349.626 -2.35497 3.75574 0
M  V30 3569 H 346.846 -0.216835 0.634999 0
M  V30 3570 H 349.39 -0.0226146 2.04487 0
M  V30 3571 H 347.545 -2.24165 3.15957 0
M  V30 3572 H 347.959 -1.19093 5.108 0
M  V30 3573 H 349.433 -2.85722 4.72299 0
M  V30 3574 H 349.91 -3.15692 3.05344 0
M  V30 3575 H 350.516 -1.7111 3.8936 0
M  V30 3576 N 348.832 -1.54138 -0.328536 0
M  V30 3577 C 350.08 -1.71765 -1.06496 0
M  V30 3578 C 350.401 -0.49149 -1.88704 0
M  V30 3579 O 349.671 0.494539 -1.89555 0
M  V30 3580 H 348.251 -0.633295 -0.396164 0
M  V30 3581 H 350.913 -1.91429 -0.366176 0
M  V30 3582 H 350.009 -2.5951 -1.73381 0
M  V30 3583 N 350.31 0.590341 -1.46126 0
M  V30 3584 C 351.538 1.37504 -1.54597 0
M  V30 3585 C 351.953 1.87897 -0.184447 0
M  V30 3586 O 351.31 1.63192 0.816984 0
M  V30 3587 C 351.361 2.56779 -2.54454 0
M  V30 3588 O 351.082 2.08476 -3.85317 0
M  V30 3589 C 352.583 3.49427 -2.72792 0
M  V30 3590 H 349.803 0.420325 -0.523037 0
M  V30 3591 H 352.347 0.718383 -1.91467 0
M  V30 3592 H 350.502 3.1845 -2.20609 0
M  V30 3593 H 350.916 2.86097 -4.396 0
M  V30 3594 H 352.39 4.29619 -3.466 0
M  V30 3595 H 352.867 4.00876 -1.79429 0
M  V30 3596 H 353.473 2.93598 -3.07702 0
M  V30 3597 N 351.788 1.33704 0.83433 0
M  V30 3598 C 353.016 1.28467 1.62185 0
M  V30 3599 C 353.431 -0.143526 1.88254 0
M  V30 3600 O 352.788 -1.08709 1.4659 0
M  V30 3601 C 352.839 2.06174 2.96942 0
M  V30 3602 O 352.56 3.43422 2.72016 0
M  V30 3603 C 354.061 2.08201 3.91366 0
M  V30 3604 H 351.281 0.4424 0.504503 0
M  V30 3605 H 353.825 1.76145 1.03891 0
M  V30 3606 H 351.98 1.62167 3.51825 0
M  V30 3607 H 352.394 3.83453 3.57861 0
M  V30 3608 H 353.868 2.67017 4.83121 0
M  V30 3609 H 354.345 1.07343 4.2588 0
M  V30 3610 H 354.951 2.52246 3.42421 0
M  V30 3611 N 353.266 -1.05314 1.17247 0
M  V30 3612 C 354.229 -2.112 0.890357 0
M  V30 3613 C 355.229 -1.60359 -0.118943 0
M  V30 3614 O 356.419 -1.73833 0.113086 0
M  V30 3615 C 353.551 -3.39266 0.333422 0
M  V30 3616 H 354.744 -2.37659 1.82916 0
M  V30 3617 H 352.297 -1.21538 0.982758 0
M  V30 3618 H 353.032 -3.18462 -0.612587 0
M  V30 3619 H 352.817 -3.77477 1.06082 0
M  V30 3620 H 354.307 -4.17315 0.154322 0
M  V30 3621 N 354.744 -0.972509 -1.24016 0
M  V30 3622 C 355.992 -0.635776 -1.91839 0
M  V30 3623 C 356.313 0.832312 -1.76345 0
M  V30 3624 O 355.583 1.5946 -1.13795 0
M  V30 3625 H 354.163 -0.232157 -0.710009 0
M  V30 3626 H 356.825 -1.23462 -1.50809 0
M  V30 3627 H 355.921 -0.880545 -2.99421 0
M  V30 3628 N 356.222 1.38976 -0.743202 0
M  V30 3629 C 357.185 2.28901 -0.117014 0
M  V30 3630 C 358.185 1.46698 0.658503 0
M  V30 3631 O 359.375 1.67274 0.486305 0
M  V30 3632 C 356.507 3.30309 0.84315 0
M  V30 3633 H 357.7 2.8578 -0.909373 0
M  V30 3634 H 355.253 1.47761 -0.509547 0
M  V30 3635 H 355.988 2.785 1.66157 0
M  V30 3636 H 355.773 3.91029 0.289594 0
M  V30 3637 H 357.263 3.97577 1.2776 0
M  V30 3638 N 357.7 0.491464 1.49741 0
M  V30 3639 C 358.948 -0.0563141 2.02022 0
M  V30 3640 C 359.269 -1.38363 1.37407 0
M  V30 3641 O 358.539 -1.88702 0.526166 0
M  V30 3642 H 357.119 -0.0238014 0.746621 0
M  V30 3643 H 359.781 0.646533 1.83864 0
M  V30 3644 H 358.877 -0.192967 3.11503 0
M  V30 3645 N 359.178 -1.55987 0.224894 0
M  V30 3646 C 360.408 -2.02489 -0.41007 0
M  V30 3647 C 360.816 -1.10391 -1.53657 0
M  V30 3648 O 360.159 -0.106458 -1.83391 0
M  V30 3649 C 360.221 -3.45319 -0.999757 0
M  V30 3650 C 359.885 -4.56999 -0.00827976 0
M  V30 3651 C 360.882 -5.13812 0.793314 0
M  V30 3652 C 358.567 -5.02176 0.111442 0
M  V30 3653 C 360.561 -6.14276 1.7013 0
M  V30 3654 C 358.248 -6.02477 1.02296 0
M  V30 3655 C 359.246 -6.58403 1.81643 0
M  V30 3656 O 358.934 -7.56751 2.71262 0
M  V30 3657 H 358.666 -0.667915 -0.104235 0
M  V30 3658 H 361.22 -2.0257 0.339782 0
M  V30 3659 H 359.45 -3.42318 -1.79876 0
M  V30 3660 H 361.139 -3.7545 -1.54248 0
M  V30 3661 H 361.905 -4.79756 0.711288 0
M  V30 3662 H 357.784 -4.58323 -0.49605 0
M  V30 3663 H 361.328 -6.57854 2.32107 0
M  V30 3664 H 357.225 -6.35954 1.10599 0
M  V30 3665 H 357.993 -7.74286 2.65375 0
M  V30 3666 N 360.656 0.0484629 -1.57525 0
M  V30 3667 C 361.604 1.07359 -2.06341 0
M  V30 3668 C 362.598 1.3865 -0.973269 0
M  V30 3669 O 363.804 1.37783 -1.15827 0
M  V30 3670 H 360.179 0.363662 -0.65822 0
M  V30 3671 H 362.15 0.635916 -2.91545 0
M  V30 3672 C 360.899 2.37198 -2.54229 0
M  V30 3673 H 360.222 2.13977 -3.37719 0
M  V30 3674 H 361.662 3.07319 -2.92115 0
M  V30 3675 C 360.121 3.04805 -1.43511 0
M  V30 3676 O 360.651 3.93848 -0.79034 0
M  V30 3677 N 358.857 2.65811 -1.17444 0
M  V30 3678 H 358.404 1.93488 -1.70059 0
M  V30 3679 H 358.362 3.11366 -0.435737 0
M  V30 3680 N 362.134 1.5431 0.320358 0
M  V30 3681 C 363.064 1.86912 1.3995 0
M  V30 3682 C 364.045 0.726211 1.53819 0
M  V30 3683 O 365.23 0.980233 1.67646 0
M  V30 3684 C 362.36 2.09932 2.7667 0
M  V30 3685 C 361.314 3.25776 2.77586 0
M  V30 3686 C 360.64 3.34173 4.17412 0
M  V30 3687 C 361.94 4.6335 2.41048 0
M  V30 3688 H 363.634 2.77292 1.12914 0
M  V30 3689 H 361.18 1.33421 0.541738 0
M  V30 3690 H 363.133 2.31324 3.52232 0
M  V30 3691 H 361.857 1.16304 3.0519 0
M  V30 3692 H 360.516 3.04276 2.04479 0
M  V30 3693 H 360.164 2.38098 4.43078 0
M  V30 3694 H 359.864 4.12033 4.18931 0
M  V30 3695 H 361.388 3.57803 4.94782 0
M  V30 3696 H 362.802 4.84602 3.06324 0
M  V30 3697 H 361.199 5.43782 2.53813 0
M  V30 3698 H 362.269 4.65381 1.36193 0
M  V30 3699 N 363.613 -0.582584 1.46437 0
M  V30 3700 C 364.859 -1.34278 1.51978 0
M  V30 3701 C 365.192 -1.93446 0.170973 0
M  V30 3702 O 364.467 -1.76481 -0.817608 0
M  V30 3703 C 364.75 -2.47203 2.61845 0
M  V30 3704 C 364.603 -1.93069 4.06257 0
M  V30 3705 C 365.922 -3.49247 2.67795 0
M  V30 3706 H 363.041 -0.486876 0.553282 0
M  V30 3707 H 365.683 -0.654437 1.78374 0
M  V30 3708 H 363.833 -3.0592 2.39469 0
M  V30 3709 H 365.505 -1.38808 4.3992 0
M  V30 3710 H 363.748 -1.23898 4.1573 0
M  V30 3711 H 364.419 -2.74586 4.7886 0
M  V30 3712 H 366.895 -3.00411 2.8791 0
M  V30 3713 H 365.771 -4.25719 3.46489 0
M  V30 3714 H 366.032 -4.06482 1.73852 0
M  V30 3715 N 365.091 -1.34144 -0.827227 0
M  V30 3716 C 366.054 -1.25264 -1.91942 0
M  V30 3717 C 367.054 -0.168866 -1.59911 0
M  V30 3718 O 368.244 -0.421198 -1.69031 0
M  V30 3719 C 365.376 -0.932952 -3.27885 0
M  V30 3720 H 366.569 -2.22357 -2.0124 0
M  V30 3721 H 364.122 -1.1837 -1.0207 0
M  V30 3722 H 364.857 0.0349917 -3.24281 0
M  V30 3723 H 364.642 -1.71682 -3.52516 0
M  V30 3724 H 366.132 -0.895874 -4.07877 0
M  V30 3725 N 366.569 1.04691 -1.17803 0
M  V30 3726 C 367.794 1.81984 -0.994813 0
M  V30 3727 C 368.219 1.82586 0.452112 0
M  V30 3728 O 367.577 1.23854 1.324 0
M  V30 3729 C 367.625 3.2575 -1.54659 0
M  V30 3730 O 366.729 4.05267 -0.763728 0
M  V30 3731 H 366.07 0.562483 -0.352857 0
M  V30 3732 H 368.6 1.3189 -1.56417 0
M  V30 3733 H 368.61 3.76541 -1.57102 0
M  V30 3734 H 367.285 3.24627 -2.59981 0
M  V30 3735 H 365.862 3.63972 -0.811108 0
M  V30 3736 N 368.047 0.979072 1.23499 0
M  V30 3737 C 369.01 0.523244 2.23147 0
M  V30 3738 C 370.01 -0.386406 1.56088 0
M  V30 3739 O 371.2 -0.180283 1.73265 0
M  V30 3740 C 368.332 -0.240739 3.40049 0
M  V30 3741 H 369.525 1.40432 2.64989 0
M  V30 3742 H 367.078 0.764824 1.36309 0
M  V30 3743 H 367.813 -1.13841 3.03662 0
M  V30 3744 H 367.598 0.412207 3.89927 0
M  V30 3745 H 369.088 -0.548297 4.13985 0
M  V30 3746 N 369.525 -1.3858 0.750561 0
M  V30 3747 C 370.753 -2.04471 0.316098 0
M  V30 3748 C 371.168 -1.56606 -1.05452 0
M  V30 3749 O 370.525 -0.737784 -1.66922 0
M  V30 3750 C 370.576 -3.60025 0.326275 0
M  V30 3751 O 370.297 -4.06133 1.6428 0
M  V30 3752 C 371.798 -4.43131 -0.122429 0
M  V30 3753 H 369.018 -0.65717 0.135528 0
M  V30 3754 H 371.562 -1.77329 1.01857 0
M  V30 3755 H 369.717 -3.86014 -0.327431 0
M  V30 3756 H 370.131 -5.00547 1.56693 0
M  V30 3757 H 371.605 -5.51963 -0.0641473 0
M  V30 3758 H 372.082 -4.23333 -1.16988 0
M  V30 3759 H 372.688 -4.22323 0.50229 0
M  V30 3760 N 371.003 -0.499398 -1.49478 0
M  V30 3761 C 371.935 0.316575 -2.27003 0
M  V30 3762 C 372.948 0.932047 -1.33479 0
M  V30 3763 O 374.137 0.815658 -1.58774 0
M  V30 3764 C 371.237 1.46055 -3.05812 0
M  V30 3765 C 370.41 0.952679 -4.26899 0
M  V30 3766 C 369.469 1.97407 -4.87767 0
M  V30 3767 O 368.495 1.54326 -5.4788 0
M  V30 3768 N 369.697 3.30436 -4.77276 0
M  V30 3769 H 372.462 -0.348168 -2.97671 0
M  V30 3770 H 370.023 -0.33185 -1.58463 0
M  V30 3771 H 372.015 2.14135 -3.43407 0
M  V30 3772 H 370.585 2.02948 -2.37762 0
M  V30 3773 H 369.805 0.0968248 -3.94081 0
M  V30 3774 H 371.093 0.59174 -5.05347 0
M  V30 3775 H 370.491 3.68126 -4.29534 0
M  V30 3776 H 369.048 3.94235 -5.19059 0
M  V30 3777 N 372.481 1.55866 -0.233164 0
M  V30 3778 C 373.729 1.9821 0.394593 0
M  V30 3779 C 374.05 1.12234 1.59463 0
M  V30 3780 O 373.32 0.201981 1.94856 0
M  V30 3781 H 371.9 0.732034 0.148778 0
M  V30 3782 H 374.562 1.92107 -0.32876 0
M  V30 3783 H 373.658 3.03845 0.713063 0
M  V30 3784 N 373.959 -0.0401083 1.57549 0
M  V30 3785 C 375.236 -0.767917 1.79896 0
M  V30 3786 C 375.616 -1.9416 0.82856 0
M  V30 3787 O 374.964 -2.2812 -0.131671 0
M  V30 3788 C 375.174 -1.2113 3.27305 0
M  V30 3789 C 376.522 -1.63175 3.91994 0
M  V30 3790 O 377.546 -1.30616 3.31388 0
M  V30 3791 O 376.405 -2.23565 4.98679 0
M  V30 3792 H 373.499 -0.370441 0.739393 0
M  V30 3793 H 376.045 -0.017737 1.69691 0
M  V30 3794 H 374.817 -0.372937 3.89519 0
M  V30 3795 H 374.44 -2.02183 3.42356 0
M  V30 3796 N 375.437 -1.54477 -0.31217 0
M  V30 3797 C 376.37 -1.79519 -1.40884 0
M  V30 3798 C 377.348 -0.645753 -1.49227 0
M  V30 3799 O 378.532 -0.884468 -1.66461 0
M  V30 3800 C 375.659 -1.92194 -2.78889 0
M  V30 3801 C 374.705 -3.14555 -2.88023 0
M  V30 3802 S 375.538 -4.72893 -2.51262 0
M  V30 3803 C 376.694 -4.8849 -3.91317 0
M  V30 3804 H 376.927 -2.72256 -1.19432 0
M  V30 3805 H 374.46 -1.45746 -0.509654 0
M  V30 3806 H 376.418 -2.00182 -3.58382 0
M  V30 3807 H 375.079 -1.00414 -2.97617 0
M  V30 3808 H 374.272 -3.20193 -3.89221 0
M  V30 3809 H 373.874 -3.04955 -2.16514 0
M  V30 3810 H 376.166 -4.71826 -4.86196 0
M  V30 3811 H 377.109 -5.90588 -3.90656 0
M  V30 3812 H 377.517 -4.16715 -3.80801 0
M  V30 3813 N 376.915 0.57481 -1.46744 0
M  V30 3814 C 378.331 0.898981 -1.31873 0
M  V30 3815 C 378.531 1.99313 -0.29605 0
M  V30 3816 O 377.587 2.50728 0.298621 0
M  V30 3817 C 378.9 1.30886 -2.7072 0
M  V30 3818 C 380.448 1.42127 -2.78871 0
M  V30 3819 C 380.923 1.86478 -4.18318 0
M  V30 3820 N 382.414 1.93658 -4.20774 0
M  V30 3821 C 383.149 2.29267 -5.2557 0
M  V30 3822 N 382.645 2.63612 -6.40688 0
M  V30 3823 N 384.438 2.29889 -5.1294 0
M  V30 3824 H 376.589 -0.147839 -2.11885 0
M  V30 3825 H 378.852 -0.00347013 -0.947994 0
M  V30 3826 H 378.558 0.578853 -3.46904 0
M  V30 3827 H 378.432 2.26874 -3.01343 0
M  V30 3828 H 380.819 2.14213 -2.0297 0
M  V30 3829 H 380.9 0.443705 -2.51922 0
M  V30 3830 H 380.544 1.14968 -4.94717 0
M  V30 3831 H 380.474 2.85207 -4.42679 0
M  V30 3832 H 382.965 1.69574 -3.37718 0
M  V30 3833 H 383.278 2.89759 -7.16421 0
M  V30 3834 H 381.623 2.61232 -6.44036 0
M  V30 3835 H 384.814 2.02485 -4.22039 0
M  V30 3836 H 384.987 2.57312 -5.94722 0
M  V30 3837 N 378.394 1.34581 0.820102 0
M  V30 3838 C 379.324 1.29038 1.94606 0
M  V30 3839 C 380.305 0.1673 1.69275 0
M  V30 3840 O 381.49 0.360112 1.90832 0
M  V30 3841 C 378.62 1.04793 3.31113 0
M  V30 3842 C 377.574 2.13597 3.70891 0
M  V30 3843 C 376.9 1.74537 5.05412 0
M  V30 3844 C 378.2 3.55451 3.8269 0
M  V30 3845 H 379.894 2.23248 1.99501 0
M  V30 3846 H 377.44 1.0747 0.958449 0
M  V30 3847 H 379.393 0.995592 4.0947 0
M  V30 3848 H 378.117 0.0702565 3.26524 0
M  V30 3849 H 376.776 2.17905 2.9481 0
M  V30 3850 H 376.424 0.754226 4.97313 0
M  V30 3851 H 376.124 2.47361 5.32997 0
M  V30 3852 H 377.648 1.70803 5.86224 0
M  V30 3853 H 379.062 3.5354 4.51312 0
M  V30 3854 H 377.459 4.26922 4.21732 0
M  V30 3855 H 378.529 3.92587 2.84611 0
M  V30 3856 N 379.872 -1.04064 1.18357 0
M  V30 3857 C 381.121 -1.76662 0.973313 0
M  V30 3858 C 381.434 -1.89154 -0.497991 0
M  V30 3859 O 382.64 -2.58606 -0.826762 0
M  V30 3860 C 381.096 -3.17624 1.69242 0
M  V30 3861 C 380.704 -3.13225 3.20303 0
M  V30 3862 C 382.448 -3.946 1.56497 0
M  V30 3863 C 380.355 -4.49046 3.84853 0
M  V30 3864 H 379.285 -0.662214 0.36054 0
M  V30 3865 H 381.936 -1.16553 1.41731 0
M  V30 3866 H 380.318 -3.78129 1.1762 0
M  V30 3867 H 381.492 -2.62172 3.78949 0
M  V30 3868 H 379.807 -2.49749 3.33189 0
M  V30 3869 H 382.404 -4.95042 2.02084 0
M  V30 3870 H 382.747 -4.13074 0.517243 0
M  V30 3871 H 383.28 -3.4067 2.05399 0
M  V30 3872 H 380.019 -4.35777 4.89672 0
M  V30 3873 H 379.539 -5.00203 3.30994 0
M  V30 3874 H 381.218 -5.17961 3.87718 0
M  V30 3875 N 381.35 -0.985608 -1.22978 0
M  V30 3876 C 382.575 -0.675254 -1.961 0
M  V30 3877 C 383 0.752154 -1.72407 0
M  V30 3878 O 382.358 1.5131 -0.998751 0
M  V30 3879 C 382.406 -0.977899 -3.47087 0
M  V30 3880 O 381.51 -0.072685 -4.12336 0
M  V30 3881 H 380.851 -0.253443 -0.613728 0
M  V30 3882 H 383.381 -1.32061 -1.56272 0
M  V30 3883 H 383.391 -0.916739 -3.97567 0
M  V30 3884 H 382.066 -2.01807 -3.63657 0
M  V30 3885 H 380.643 -0.188703 -3.72422 0
M  V30 3886 N 382.828 1.3818 -0.7579 0
M  V30 3887 C 384.074 2.00316 -0.316453 0
M  V30 3888 C 384.407 1.60026 1.10025 0
M  V30 3889 O 383.682 0.839835 1.75434 0
M  V30 3890 C 383.965 3.57349 -0.444245 0
M  V30 3891 C 383.818 4.07591 -1.90236 0
M  V30 3892 C 385.137 4.3981 0.1598 0
M  V30 3893 H 382.256 0.727741 -0.116459 0
M  V30 3894 H 384.898 1.6406 -0.958352 0
M  V30 3895 H 383.048 3.88365 0.102233 0
M  V30 3896 H 384.72 3.87199 -2.50748 0
M  V30 3897 H 382.963 3.60297 -2.41595 0
M  V30 3898 H 383.634 5.16677 -1.94291 0
M  V30 3899 H 386.11 4.14971 -0.306314 0
M  V30 3900 H 384.986 5.48885 0.0401675 0
M  V30 3901 H 385.247 4.24102 1.24859 0
M  V30 3902 N 384.306 0.507319 1.49211 0
M  V30 3903 C 385.552 -0.0350047 2.0277 0
M  V30 3904 C 385.885 -1.3606 1.38569 0
M  V30 3905 O 385.16 -1.87321 0.523542 0
M  V30 3906 C 385.443 -0.180916 3.59645 0
M  V30 3907 C 385.296 1.16825 4.34364 0
M  V30 3908 C 386.615 -0.918558 4.30407 0
M  V30 3909 H 383.734 -0.0112473 0.736914 0
M  V30 3910 H 386.376 0.659956 1.7817 0
M  V30 3911 H 384.526 -0.772826 3.80736 0
M  V30 3912 H 386.198 1.79952 4.24753 0
M  V30 3913 H 384.441 1.75594 3.96673 0
M  V30 3914 H 385.112 1.01939 5.42506 0
M  V30 3915 H 387.588 -0.41649 4.1401 0
M  V30 3916 H 386.464 -0.989505 5.39907 0
M  V30 3917 H 386.725 -1.96373 3.96093 0
M  V30 3918 N 385.784 -1.5574 0.241426 0
M  V30 3919 C 386.714 -2.24133 -0.654722 0
M  V30 3920 C 387.695 -1.21974 -1.1856 0
M  V30 3921 O 388.88 -1.50612 -1.22595 0
M  V30 3922 C 386.01 -2.93659 -1.85423 0
M  V30 3923 C 384.964 -4.0246 -1.45636 0
M  V30 3924 C 384.29 -4.59383 -2.73626 0
M  V30 3925 C 385.59 -5.18468 -0.631506 0
M  V30 3926 H 387.284 -2.99281 -0.0844353 0
M  V30 3927 H 384.83 -1.43947 -0.0391707 0
M  V30 3928 H 386.783 -3.40203 -2.48676 0
M  V30 3929 H 385.507 -2.15991 -2.44981 0
M  V30 3930 H 384.166 -3.56676 -0.847202 0
M  V30 3931 H 383.814 -3.78422 -3.3137 0
M  V30 3932 H 383.514 -5.32826 -2.4773 0
M  V30 3933 H 385.038 -5.08658 -3.37786 0
M  V30 3934 H 386.452 -5.61272 -1.1682 0
M  V30 3935 H 384.849 -5.98266 -0.468831 0
M  V30 3936 H 385.919 -4.8358 0.357506 0
M  V30 3937 N 387.262 0.0317525 -1.57568 0
M  V30 3938 C 388.51 0.721676 -1.88776 0
M  V30 3939 C 388.831 1.76039 -0.838772 0
M  V30 3940 O 388.101 1.95482 0.127935 0
M  V30 3941 H 386.681 0.269534 -0.696678 0
M  V30 3942 H 389.343 -0.00165879 -1.949 0
M  V30 3943 H 388.439 1.21293 -2.87566 0
M  V30 3944 N 388.74 1.54641 0.303973 0
M  V30 3945 C 389.703 1.84646 1.35789 0
M  V30 3946 C 390.703 0.7192 1.4382 0
M  V30 3947 O 391.893 0.987491 1.43507 0
M  V30 3948 C 389.025 2.02407 2.74307 0
M  V30 3949 H 390.218 2.78829 1.10429 0
M  V30 3950 H 387.771 1.46658 0.540487 0
M  V30 3951 H 388.506 1.10502 3.04893 0
M  V30 3952 H 388.291 2.84453 2.69868 0
M  V30 3953 H 389.781 2.27002 3.50514 0
M  V30 3954 N 390.218 -0.567019 1.47046 0
M  V30 3955 C 391.165 -1.67489 1.58796 0
M  V30 3956 C 392.135 -1.60399 0.43144 0
M  V30 3957 O 393.32 -1.79378 0.650233 0
M  V30 3958 C 390.46 -3.05821 1.59899 0
M  V30 3959 C 389.573 -3.2342 2.86397 0
M  V30 3960 C 388.708 -4.52093 2.789 0
M  V30 3961 C 387.747 -4.6309 4.00267 0
M  V30 3962 N 386.884 -5.83106 3.91064 0
M  V30 3963 H 391.724 -1.56785 2.53422 0
M  V30 3964 H 389.261 -0.763896 1.2571 0
M  V30 3965 H 391.219 -3.8591 1.58522 0
M  V30 3966 H 389.849 -3.15384 0.687929 0
M  V30 3967 H 388.901 -2.3683 2.97684 0
M  V30 3968 H 390.213 -3.27412 3.76301 0
M  V30 3969 H 389.367 -5.4043 2.75718 0
M  V30 3970 H 388.106 -4.50565 1.86662 0
M  V30 3971 H 387.111 -3.73168 4.03765 0
M  V30 3972 H 388.336 -4.66386 4.93621 0
M  V30 3973 H 386.282 -5.82546 3.01623 0
M  V30 3974 H 386.199 -5.88434 4.74638 0
M  V30 3975 H 387.467 -6.73831 3.91882 0
M  V30 3976 N 391.696 -1.35014 -0.812953 0
M  V30 3977 C 392.924 -1.31031 -1.6012 0
M  V30 3978 C 393.339 0.113558 -1.88458 0
M  V30 3979 O 392.696 1.06363 -1.48301 0
M  V30 3980 C 392.747 -2.10872 -2.93624 0
M  V30 3981 O 392.468 -3.47706 -2.66518 0
M  V30 3982 C 393.969 -2.14401 -3.88004 0
M  V30 3983 H 391.189 -0.45037 -0.497401 0
M  V30 3984 H 393.733 -1.77775 -1.01076 0
M  V30 3985 H 391.888 -1.67744 -3.492 0
M  V30 3986 H 392.302 -3.89097 -3.51715 0
M  V30 3987 H 393.776 -2.74669 -4.78812 0
M  V30 3988 H 394.253 -1.14105 -4.24119 0
M  V30 3989 H 394.859 -2.57662 -3.38364 0
M  V30 3990 N 393.175 1.03435 -1.18907 0
M  V30 3991 C 394.452 1.73778 -0.89781 0
M  V30 3992 C 394.832 2.02458 0.597832 0
M  V30 3993 O 394.18 1.67482 1.55441 0
M  V30 3994 C 394.39 3.01845 -1.75187 0
M  V30 3995 C 395.738 3.7546 -1.9828 0
M  V30 3996 O 396.762 3.11759 -1.72293 0
M  V30 3997 O 395.621 4.89966 -2.42065 0
M  V30 3998 H 392.715 0.75651 -0.334098 0
M  V30 3999 H 395.261 1.09444 -1.29693 0
M  V30 4000 H 394.033 2.76836 -2.76545 0
M  V30 4001 H 393.656 3.73919 -1.35167 0
M  V30 4002 N 394.653 0.992116 1.22453 0
M  V30 4003 C 396.069 0.702713 1.43297 0
M  V30 4004 C 396.269 -0.726909 1.87932 0
M  V30 4005 O 395.325 -1.49792 2.0327 0
M  V30 4006 C 396.638 1.70762 2.47509 0
M  V30 4007 C 398.186 1.72298 2.61309 0
M  V30 4008 C 398.661 2.71649 3.68742 0
M  V30 4009 N 400.152 2.70239 3.76199 0
M  V30 4010 C 400.887 3.43778 4.58917 0
M  V30 4011 N 400.383 4.26914 5.45633 0
M  V30 4012 N 402.176 3.32487 4.5322 0
M  V30 4013 H 394.327 1.91543 0.917871 0
M  V30 4014 H 396.59 0.826031 0.465162 0
M  V30 4015 H 396.296 2.73059 2.21657 0
M  V30 4016 H 396.17 1.49985 3.46099 0
M  V30 4017 H 398.557 0.706989 2.86506 0
M  V30 4018 H 398.638 1.97143 1.62997 0
M  V30 4019 H 398.282 3.73397 3.44292 0
M  V30 4020 H 398.212 2.44074 4.66622 0
M  V30 4021 H 400.703 2.09912 3.14237 0
M  V30 4022 H 401.016 4.79855 6.05771 0
M  V30 4023 H 399.361 4.31002 5.45218 0
M  V30 4024 H 402.552 2.6698 3.84499 0
M  V30 4025 H 402.725 3.90058 5.17454 0
M  V30 4026 N 396.131 -1.37776 0.765217 0
M  V30 4027 C 397.38 -1.99092 0.323307 0
M  V30 4028 C 397.693 -1.61434 -1.10446 0
M  V30 4029 O 398.899 -2.15805 -1.64743 0
M  V30 4030 C 397.355 -3.56019 0.527098 0
M  V30 4031 C 396.963 -4.0262 1.96471 0
M  V30 4032 C 398.707 -4.2424 0.148483 0
M  V30 4033 C 396.614 -5.52233 2.11644 0
M  V30 4034 H 395.544 -0.744846 0.117137 0
M  V30 4035 H 398.195 -1.57391 0.943417 0
M  V30 4036 H 396.577 -3.95667 -0.162372 0
M  V30 4037 H 397.751 -3.74234 2.68859 0
M  V30 4038 H 396.066 -3.47161 2.29931 0
M  V30 4039 H 398.663 -5.34159 0.240456 0
M  V30 4040 H 399.006 -4.06446 -0.900422 0
M  V30 4041 H 399.539 -3.89872 0.79025 0
M  V30 4042 H 396.278 -5.74945 3.1483 0
M  V30 4043 H 395.798 -5.82324 1.4373 0
M  V30 4044 H 397.477 -6.18106 1.91193 0
M  V30 4045 N 397.609 -0.515225 -1.4894 0
M  V30 4046 C 399.025 -0.172099 -1.58669 0
M  V30 4047 C 399.225 1.32405 -1.51892 0
M  V30 4048 O 398.281 2.10116 -1.40027 0
M  V30 4049 C 399.594 -0.761533 -2.90897 0
M  V30 4050 C 401.142 -0.728926 -3.04394 0
M  V30 4051 C 401.617 -1.29667 -4.39261 0
M  V30 4052 N 403.108 -1.25799 -4.4579 0
M  V30 4053 C 403.843 -1.66733 -5.48623 0
M  V30 4054 N 403.339 -2.15327 -6.58488 0
M  V30 4055 N 405.132 -1.58061 -5.39419 0
M  V30 4056 H 397.283 -1.48778 -1.51588 0
M  V30 4057 H 399.546 -0.617968 -0.718901 0
M  V30 4058 H 399.252 -1.81136 -3.01468 0
M  V30 4059 H 399.126 -0.230106 -3.76497 0
M  V30 4060 H 401.513 0.312098 -2.93445 0
M  V30 4061 H 401.594 -1.29766 -2.20442 0
M  V30 4062 H 401.238 -2.33655 -4.50963 0
M  V30 4063 H 401.168 -0.703752 -5.21876 0
M  V30 4064 H 403.659 -0.902102 -3.66975 0
M  V30 4065 H 403.972 -2.44594 -7.33071 0
M  V30 4066 H 402.317 -2.19311 -6.59491 0
M  V30 4067 H 405.508 -1.19906 -4.52482 0
M  V30 4068 H 405.681 -1.90284 -6.19432 0
M  V30 4069 N 399.087 1.5561 -0.249682 0
M  V30 4070 C 400.334 1.99011 0.374287 0
M  V30 4071 C 400.662 1.13785 1.57744 0
M  V30 4072 O 399.917 0.189326 1.94782 0
M  V30 4073 C 400.216 3.4775 0.824887 0
M  V30 4074 C 399.882 4.50086 -0.270819 0
M  V30 4075 C 398.544 4.77791 -0.571746 0
M  V30 4076 C 400.896 5.11312 -1.01041 0
M  V30 4077 C 398.224 5.63997 -1.61629 0
M  V30 4078 C 400.576 5.98651 -2.0445 0
M  V30 4079 C 399.24 6.24688 -2.35204 0
M  V30 4080 H 398.51 0.728233 0.136961 0
M  V30 4081 H 401.157 1.88122 -0.358087 0
M  V30 4082 H 399.462 3.55985 1.63651 0
M  V30 4083 H 401.159 3.78721 1.31799 0
M  V30 4084 H 397.749 4.28592 -0.026136 0
M  V30 4085 H 401.933 4.89953 -0.791177 0
M  V30 4086 H 397.189 5.82425 -1.85988 0
M  V30 4087 H 401.363 6.45135 -2.62248 0
M  V30 4088 H 398.99 6.91281 -3.16282 0
M  V30 4089 N 400.565 -0.0233959 1.57583 0
M  V30 4090 C 401.513 -1.04063 2.08023 0
M  V30 4091 C 402.507 -1.37084 0.995204 0
M  V30 4092 O 403.713 -1.35923 1.18004 0
M  V30 4093 H 400.088 -0.353144 0.663922 0
M  V30 4094 H 402.059 -0.589453 2.9252 0
M  V30 4095 C 400.808 -2.33123 2.57971 0
M  V30 4096 H 400.131 -2.08577 3.4108 0
M  V30 4097 H 401.571 -3.02632 2.96967 0
M  V30 4098 C 400.03 -3.02483 1.48342 0
M  V30 4099 O 400.56 -3.92541 0.852898 0
M  V30 4100 N 398.766 -2.63909 1.21658 0
M  V30 4101 H 398.313 -1.90758 1.73116 0
M  V30 4102 H 398.271 -3.10633 0.485218 0
M  V30 4103 N 402.043 -1.548 -0.295768 0
M  V30 4104 C 402.953 -1.89177 -1.38742 0
M  V30 4105 C 403.969 -0.786481 -1.55211 0
M  V30 4106 O 405.145 -1.08344 -1.69775 0
M  V30 4107 C 402.21 -2.13663 -2.73036 0
M  V30 4108 C 401.271 -3.37349 -2.65508 0
M  V30 4109 C 400.504 -3.60658 -3.93398 0
M  V30 4110 O 400.727 -2.86882 -4.93006 0
M  V30 4111 O 399.661 -4.54179 -3.94975 0
M  V30 4112 H 403.487 -2.82059 -1.12589 0
M  V30 4113 H 401.072 -1.41056 -0.492295 0
M  V30 4114 H 402.954 -2.3094 -3.52484 0
M  V30 4115 H 401.629 -1.23967 -2.99022 0
M  V30 4116 H 400.536 -3.25431 -1.84514 0
M  V30 4117 H 401.869 -4.27192 -2.44474 0
M  V30 4118 N 403.521 0.559213 -1.47345 0
M  V30 4119 C 404.746 1.34676 -1.57725 0
M  V30 4120 C 405.171 1.86723 -0.227164 0
M  V30 4121 O 404.529 1.6286 0.796642 0
M  V30 4122 C 404.577 2.49399 -2.60447 0
M  V30 4123 O 403.681 3.51567 -2.15578 0
M  V30 4124 H 403.022 0.400115 -0.52991 0
M  V30 4125 H 405.552 0.676009 -1.93109 0
M  V30 4126 H 405.562 2.95996 -2.80803 0
M  V30 4127 H 404.237 2.10873 -3.58477 0
M  V30 4128 H 402.814 3.11289 -2.05313 0
M  V30 4129 N 404.999 1.35443 0.805782 0
M  V30 4130 C 405.909 1.30546 1.94923 0
M  V30 4131 C 406.925 0.210233 1.72725 0
M  V30 4132 O 408.101 0.43975 1.9654 0
M  V30 4133 C 405.166 1.07782 3.29521 0
M  V30 4134 C 404.227 2.26625 3.64609 0
M  V30 4135 C 403.46 2.04938 4.92784 0
M  V30 4136 O 403.683 1.01624 5.61274 0
M  V30 4137 O 402.617 2.9232 5.26149 0
M  V30 4138 H 406.443 2.26779 2.02002 0
M  V30 4139 H 404.028 1.15823 0.943682 0
M  V30 4140 H 405.91 0.969392 4.10098 0
M  V30 4141 H 404.585 0.146003 3.23371 0
M  V30 4142 H 403.492 2.43033 2.84404 0
M  V30 4143 H 404.825 3.18257 3.75464 0
M  V30 4144 N 406.477 -1.02803 1.19454 0
M  V30 4145 C 407.424 -2.11099 0.933046 0
M  V30 4146 C 408.394 -1.65571 -0.132447 0
M  V30 4147 O 409.579 -1.90797 0.00987576 0
M  V30 4148 C 406.719 -3.41763 0.478747 0
M  V30 4149 C 405.832 -4.00833 1.6111 0
M  V30 4150 C 404.967 -5.19511 1.10825 0
M  V30 4151 C 404.006 -5.70639 2.21445 0
M  V30 4152 N 403.143 -6.80589 1.72461 0
M  V30 4153 H 407.983 -2.32804 1.86028 0
M  V30 4154 H 405.52 -1.14179 0.927441 0
M  V30 4155 H 407.478 -4.16736 0.196745 0
M  V30 4156 H 406.108 -3.20166 -0.411493 0
M  V30 4157 H 405.16 -3.23066 2.00829 0
M  V30 4158 H 406.472 -4.34794 2.4445 0
M  V30 4159 H 405.626 -6.01645 0.781533 0
M  V30 4160 H 404.365 -4.87086 0.244606 0
M  V30 4161 H 403.37 -4.87116 2.54947 0
M  V30 4162 H 404.595 -6.05102 3.08267 0
M  V30 4163 H 402.541 -6.50016 0.884056 0
M  V30 4164 H 402.458 -7.13681 2.49389 0
M  V30 4165 H 403.726 -7.66317 1.42755 0
M  V30 4166 N 407.956 -0.998596 -1.21925 0
M  V30 4167 C 408.886 -0.573688 -2.26343 0
M  V30 4168 C 409.867 0.402296 -1.65274 0
M  V30 4169 O 411.052 0.291683 -1.91997 0
M  V30 4170 C 408.182 0.106839 -3.47136 0
M  V30 4171 C 407.136 -0.788269 -4.20678 0
M  V30 4172 C 406.462 0.0254927 -5.34694 0
M  V30 4173 C 407.762 -2.08784 -4.78755 0
M  V30 4174 H 409.456 -1.44651 -2.62138 0
M  V30 4175 H 407.002 -0.696975 -1.26009 0
M  V30 4176 H 408.955 0.415531 -4.19346 0
M  V30 4177 H 407.679 1.01424 -3.10452 0
M  V30 4178 H 406.338 -1.08069 -3.50309 0
M  V30 4179 H 405.986 0.933989 -4.94253 0
M  V30 4180 H 405.686 -0.570437 -5.84825 0
M  V30 4181 H 407.21 0.328147 -6.09718 0
M  V30 4182 H 408.624 -1.84272 -5.42878 0
M  V30 4183 H 407.021 -2.63307 -5.39249 0
M  V30 4184 H 408.091 -2.76284 -3.98491 0
M  V30 4185 N 409.434 1.37368 -0.772513 0
M  V30 4186 C 410.364 2.32856 -0.173304 0
M  V30 4187 C 411.345 1.55818 0.682262 0
M  V30 4188 O 412.53 1.84052 0.619566 0
M  V30 4189 C 409.66 3.40048 0.706007 0
M  V30 4190 C 408.614 4.27973 -0.0483144 0
M  V30 4191 C 407.94 5.26184 0.950491 0
M  V30 4192 C 409.24 5.07665 -1.22776 0
M  V30 4193 H 410.934 2.83217 -0.971002 0
M  V30 4194 H 408.48 1.3617 -0.468377 0
M  V30 4195 H 410.433 4.05827 1.13501 0
M  V30 4196 H 409.157 2.88214 1.53623 0
M  V30 4197 H 407.816 3.63726 -0.458107 0
M  V30 4198 H 407.464 4.7063 1.77529 0
M  V30 4199 H 407.164 5.85872 0.450314 0
M  V30 4200 H 408.688 5.94838 1.37842 0
M  V30 4201 H 410.102 5.66578 -0.875366 0
M  V30 4202 H 408.499 5.76681 -1.66007 0
M  V30 4203 H 409.569 4.40294 -2.03149 0
M  V30 4204 N 410.912 0.523116 1.48665 0
M  V30 4205 C 412.14 -0.0096312 2.06898 0
M  V30 4206 C 412.555 -1.28784 1.38059 0
M  V30 4207 O 411.912 -1.76453 0.465893 0
M  V30 4208 C 411.963 -0.244386 3.60673 0
M  V30 4209 O 411.684 0.983172 4.26925 0
M  V30 4210 C 413.185 -0.818289 4.35682 0
M  V30 4211 H 410.405 0.0304161 0.67031 0
M  V30 4212 H 412.949 0.726799 1.91149 0
M  V30 4213 H 411.104 -0.930847 3.76051 0
M  V30 4214 H 411.518 0.759653 5.1897 0
M  V30 4215 H 412.992 -0.93201 5.44075 0
M  V30 4216 H 413.469 -1.82153 3.99646 0
M  V30 4217 H 414.075 -0.168609 4.24966 0
M  V30 4218 N 412.39 -1.55475 0.257931 0
M  V30 4219 C 413.636 -2.00237 -0.357338 0
M  V30 4220 C 413.991 -1.14313 -1.54759 0
M  V30 4221 O 413.284 -0.201187 -1.90541 0
M  V30 4222 C 413.478 -3.48183 -0.806433 0
M  V30 4223 C 413.307 -4.48422 0.338758 0
M  V30 4224 C 412.077 -4.98651 0.817011 0
M  V30 4225 C 414.275 -5.00827 1.16949 0
M  V30 4226 N 412.257 -5.82658 1.93346 0
M  V30 4227 C 413.628 -5.82113 2.13413 0
M  V30 4228 C 415.683 -4.83104 1.2048 0
M  V30 4229 C 414.386 -6.47566 3.13131 0
M  V30 4230 C 416.412 -5.49343 2.19034 0
M  V30 4231 C 415.774 -6.30427 3.14232 0
M  V30 4232 H 411.873 -0.776034 -0.0964083 0
M  V30 4233 H 414.457 -1.90995 0.37803 0
M  V30 4234 H 412.628 -3.57801 -1.51107 0
M  V30 4235 H 414.36 -3.79802 -1.39758 0
M  V30 4236 H 411.115 -4.71914 0.39925 0
M  V30 4237 H 411.539 -6.29356 2.49478 0
M  V30 4238 H 416.181 -4.20036 0.482634 0
M  V30 4239 H 413.899 -7.09793 3.8629 0
M  V30 4240 H 417.485 -5.37579 2.22485 0
M  V30 4241 H 416.365 -6.80777 3.89246 0
M  V30 4242 N 413.868 0.0150385 -1.57593 0
M  V30 4243 C 415.116 0.701613 -1.8953 0
M  V30 4244 C 415.437 1.75139 -0.857396 0
M  V30 4245 O 414.707 1.95607 0.107194 0
M  V30 4246 H 413.287 0.26213 -0.699498 0
M  V30 4247 H 415.949 -0.0223304 -1.94887 0
M  V30 4248 H 415.045 1.18236 -2.88837 0
M  V30 4249 N 415.346 1.54954 0.287554 0
M  V30 4250 C 416.593 1.74873 1.02106 0
M  V30 4251 C 416.921 0.541829 1.86801 0
M  V30 4252 O 416.176 -0.475992 1.89823 0
M  V30 4253 C 416.475 2.99833 1.94512 0
M  V30 4254 C 416.141 4.33029 1.25686 0
M  V30 4255 C 414.803 4.69233 1.06649 0
M  V30 4256 C 417.155 5.15542 0.765913 0
M  V30 4257 C 414.483 5.85518 0.372222 0
M  V30 4258 C 416.835 6.32542 0.0853101 0
M  V30 4259 C 415.499 6.67398 -0.1169 0
M  V30 4260 H 414.769 0.639906 0.373632 0
M  V30 4261 H 417.416 1.89219 0.294665 0
M  V30 4262 H 415.721 2.80325 2.73725 0
M  V30 4263 H 417.418 3.1244 2.51361 0
M  V30 4264 H 414.008 4.04564 1.41512 0
M  V30 4265 H 418.192 4.88059 0.90066 0
M  V30 4266 H 413.448 6.11057 0.204695 0
M  V30 4267 H 417.622 6.95741 -0.302936 0
M  V30 4268 H 415.249 7.57357 -0.656859 0
M  V30 4269 N 416.824 -0.551391 1.4764 0
M  V30 4270 C 418.24 -0.877887 1.33287 0
M  V30 4271 C 418.44 -1.98817 0.327721 0
M  V30 4272 O 417.496 -2.51171 -0.258695 0
M  V30 4273 C 418.809 -1.26563 2.72768 0
M  V30 4274 C 420.357 -1.37673 2.81097 0
M  V30 4275 C 420.832 -1.79799 4.21232 0
M  V30 4276 N 422.323 -1.8694 4.23802 0
M  V30 4277 C 423.058 -2.20876 5.29151 0
M  V30 4278 N 422.554 -2.53386 6.448 0
M  V30 4279 N 424.347 -2.217 5.16532 0
M  V30 4280 H 416.498 0.18153 2.11623 0
M  V30 4281 H 418.761 0.0185514 0.947818 0
M  V30 4282 H 418.467 -0.523591 3.47781 0
M  V30 4283 H 418.341 -2.22052 3.04915 0
M  V30 4284 H 420.728 -2.10956 2.06353 0
M  V30 4285 H 420.809 -0.40357 2.52596 0
M  V30 4286 H 420.453 -1.07083 4.96483 0
M  V30 4287 H 420.383 -2.78128 4.4716 0
M  V30 4288 H 422.874 -1.64179 3.40373 0
M  V30 4289 H 423.187 -2.78325 7.20941 0
M  V30 4290 H 421.532 -2.50953 6.48111 0
M  V30 4291 H 424.723 -1.95745 4.25207 0
M  V30 4292 H 424.896 -2.47818 5.98741 0
M  V30 4293 N 418.302 -1.35869 -0.798587 0
M  V30 4294 C 419.549 -1.29588 -1.55606 0
M  V30 4295 C 419.877 0.127456 -1.94082 0
M  V30 4296 O 419.132 1.09461 -1.62225 0
M  V30 4297 C 419.431 -2.1556 -2.85077 0
M  V30 4298 C 419.097 -3.6424 -2.65781 0
M  V30 4299 C 417.759 -4.04766 -2.60227 0
M  V30 4300 C 420.111 -4.58547 -2.47758 0
M  V30 4301 C 417.439 -5.37753 -2.34603 0
M  V30 4302 C 419.791 -5.91742 -2.23662 0
M  V30 4303 C 418.455 -6.31402 -2.16534 0
M  V30 4304 H 417.725 -0.474197 -0.569402 0
M  V30 4305 H 420.372 -1.67839 -0.922086 0
M  V30 4306 H 418.677 -1.70216 -3.52893 0
M  V30 4307 H 420.374 -2.08031 -3.42818 0
M  V30 4308 H 416.964 -3.32086 -2.70956 0
M  V30 4309 H 421.148 -4.28117 -2.51056 0
M  V30 4310 H 416.404 -5.67474 -2.2756 0
M  V30 4311 H 420.578 -6.6439 -2.08708 0
M  V30 4312 H 418.205 -7.34381 -1.96441 0
M  V30 4313 N 419.78 1.02168 -1.19998 0
M  V30 4314 C 421.027 1.75685 -1.00702 0
M  V30 4315 C 421.355 1.88947 0.461426 0
M  V30 4316 O 420.61 1.40832 1.35885 0
M  V30 4317 C 420.909 3.18081 -1.62969 0
M  V30 4318 C 420.575 3.24809 -3.12746 0
M  V30 4319 C 419.237 3.26352 -3.53621 0
M  V30 4320 C 421.589 3.23379 -4.08749 0
M  V30 4321 C 418.917 3.2413 -4.89036 0
M  V30 4322 C 421.269 3.22698 -5.44104 0
M  V30 4323 C 419.933 3.22542 -5.84399 0
M  V30 4324 H 419.203 0.642877 -0.368496 0
M  V30 4325 H 421.85 1.19865 -1.49348 0
M  V30 4326 H 420.155 3.77027 -1.06573 0
M  V30 4327 H 421.852 3.73648 -1.45561 0
M  V30 4328 H 418.442 3.2434 -2.80181 0
M  V30 4329 H 422.626 3.21361 -3.78207 0
M  V30 4330 H 417.882 3.22338 -5.19527 0
M  V30 4331 H 422.056 3.20543 -6.18244 0
M  V30 4332 H 419.683 3.20575 -6.89301 0
M  V30 4333 N 421.258 1.00505 1.21394 0
M  V30 4334 C 422.168 0.574806 2.27449 0
M  V30 4335 C 423.184 -0.382206 1.6975 0
M  V30 4336 O 424.36 -0.246027 1.99892 0
M  V30 4337 C 421.425 -0.0917414 3.46579 0
M  V30 4338 C 420.486 0.909758 4.1955 0
M  V30 4339 C 419.719 0.274924 5.32991 0
M  V30 4340 O 419.942 -0.928254 5.62796 0
M  V30 4341 O 418.876 0.985877 5.93771 0
M  V30 4342 H 422.702 1.45744 2.66444 0
M  V30 4343 H 420.287 0.773923 1.27792 0
M  V30 4344 H 422.169 -0.464551 4.18832 0
M  V30 4345 H 420.844 -0.948755 3.09484 0
M  V30 4346 H 419.751 1.33372 3.49518 0
M  V30 4347 H 421.084 1.73636 4.60555 0
M  V30 4348 N 422.737 -1.36956 0.779787 0
M  V30 4349 C 423.965 -2.03755 0.359398 0
M  V30 4350 C 424.38 -1.58807 -1.02106 0
M  V30 4351 O 423.737 -0.773024 -1.6532 0
M  V30 4352 C 423.788 -3.59251 0.402568 0
M  V30 4353 O 423.509 -4.02557 1.72858 0
M  V30 4354 C 425.01 -4.43291 -0.0284068 0
M  V30 4355 H 422.23 -0.654148 0.149437 0
M  V30 4356 H 424.774 -1.75128 1.05595 0
M  V30 4357 H 422.929 -3.86621 -0.245478 0
M  V30 4358 H 423.343 -4.97111 1.67275 0
M  V30 4359 H 424.817 -5.51975 0.0529466 0
M  V30 4360 H 425.294 -4.25719 -1.07982 0
M  V30 4361 H 425.9 -4.21163 0.591758 0
M  V30 4362 N 424.215 -0.530993 -1.48385 0
M  V30 4363 C 425.461 0.00274135 -2.028 0
M  V30 4364 C 425.794 1.33838 -1.40716 0
M  V30 4365 O 425.069 1.86465 -0.553277 0
M  V30 4366 C 425.352 0.123676 -3.59888 0
M  V30 4367 C 425.205 -1.2372 -4.3245 0
M  V30 4368 C 426.524 0.849967 -4.31814 0
M  V30 4369 H 423.643 -0.000477758 -0.737 0
M  V30 4370 H 426.285 -0.688217 -1.77098 0
M  V30 4371 H 424.435 0.712157 -3.81917 0
M  V30 4372 H 426.107 -1.86687 -4.21836 0
M  V30 4373 H 424.35 -1.81882 -3.93829 0
M  V30 4374 H 425.021 -1.10557 -5.40815 0
M  V30 4375 H 427.497 0.350572 -4.14621 0
M  V30 4376 H 426.373 0.903486 -5.41413 0
M  V30 4377 H 426.634 1.90047 -3.99167 0
M  V30 4378 N 425.693 1.55336 -0.266172 0
M  V30 4379 C 426.921 2.03801 0.356756 0
M  V30 4380 C 427.336 1.14485 1.50129 0
M  V30 4381 O 426.693 0.163121 1.8177 0
M  V30 4382 C 426.744 3.51455 0.846281 0
M  V30 4383 O 426.465 4.37371 -0.252663 0
M  V30 4384 C 427.966 4.15767 1.53794 0
M  V30 4385 H 425.186 0.665906 0.0825218 0
M  V30 4386 H 427.73 2.00636 -0.39566 0
M  V30 4387 H 425.885 3.55092 1.54881 0
M  V30 4388 H 426.299 5.24358 0.122173 0
M  V30 4389 H 427.773 5.20714 1.83198 0
M  V30 4390 H 428.25 3.63404 2.46646 0
M  V30 4391 H 428.856 4.16107 0.879488 0
M  V30 4392 N 427.171 -0.0066808 1.57599 0
M  V30 4393 C 428.582 -0.550379 1.78403 0
M  V30 4394 C 428.933 -1.74339 0.900014 0
M  V30 4395 O 428.058 -2.16166 0.100713 0
M  V30 4396 C 428.653 -1.00523 3.23544 0
M  V30 4397 C 427.212 -1.49428 3.45468 0
M  V30 4398 C 426.359 -0.442444 2.73748 0
M  V30 4399 H 429.31 0.219508 1.57175 0
M  V30 4400 H 429.331 -1.87157 3.31289 0
M  V30 4401 H 428.843 -0.136735 3.87859 0
M  V30 4402 H 426.944 -2.3839 2.86358 0
M  V30 4403 H 427.057 -1.52635 4.54136 0
M  V30 4404 H 425.421 -0.902578 2.38171 0
M  V30 4405 H 426.204 0.416973 3.40758 0
M  V30 4406 N 428.649 -1.55105 -0.279332 0
M  V30 4407 C 429.898 -1.74618 -1.00952 0
M  V30 4408 C 430.211 -0.551096 -1.87676 0
M  V30 4409 O 431.417 -0.628507 -2.64125 0
M  V30 4410 C 429.873 -3.09025 -1.84476 0
M  V30 4411 C 429.481 -4.36081 -1.0265 0
M  V30 4412 C 431.225 -3.37891 -2.56963 0
M  V30 4413 C 429.132 -5.6153 -1.85576 0
M  V30 4414 H 428.062 -0.650868 -0.38064 0
M  V30 4415 H 430.713 -1.81569 -0.265475 0
M  V30 4416 H 429.095 -2.96095 -2.62952 0
M  V30 4417 H 430.269 -4.59909 -0.286354 0
M  V30 4418 H 428.584 -4.14312 -0.416464 0
M  V30 4419 H 431.181 -4.28822 -3.19399 0
M  V30 4420 H 431.524 -2.57737 -3.26921 0
M  V30 4421 H 432.057 -3.5189 -1.85522 0
M  V30 4422 H 428.796 -6.44413 -1.2005 0
M  V30 4423 H 428.316 -5.41854 -2.57204 0
M  V30 4424 H 429.995 -5.99594 -2.43096 0
M  V30 4425 N 430.127 0.543554 -1.4793 0
M  V30 4426 C 431.074 1.64942 -1.6144 0
M  V30 4427 C 432.044 1.59692 -0.456903 0
M  V30 4428 O 433.229 1.78321 -0.678688 0
M  V30 4429 C 430.369 3.03238 -1.64744 0
M  V30 4430 C 429.482 3.18823 -2.91506 0
M  V30 4431 C 428.617 4.47599 -2.86057 0
M  V30 4432 C 427.656 4.56664 -4.07584 0
M  V30 4433 N 426.793 5.76811 -4.00292 0
M  V30 4434 H 431.633 1.52733 -2.55884 0
M  V30 4435 H 429.17 0.7438 -1.2691 0
M  V30 4436 H 431.128 3.83339 -1.64641 0
M  V30 4437 H 429.758 3.1425 -0.738017 0
M  V30 4438 H 428.81 2.32064 -3.01414 0
M  V30 4439 H 430.122 3.21384 -3.81463 0
M  V30 4440 H 429.276 5.35975 -2.84281 0
M  V30 4441 H 428.015 4.47538 -1.93807 0
M  V30 4442 H 427.02 3.66697 -4.09651 0
M  V30 4443 H 428.245 4.58474 -5.00978 0
M  V30 4444 H 426.191 5.77673 -3.10853 0
M  V30 4445 H 426.108 5.80808 -4.8394 0
M  V30 4446 H 427.376 6.67512 -4.02553 0
M  V30 4447 N 431.605 1.3629 0.791371 0
M  V30 4448 C 433.016 1.27225 1.36641 0
M  V30 4449 C 433.367 -0.0887968 1.95999 0
M  V30 4450 O 432.492 -0.990207 1.92416 0
M  V30 4451 C 433.087 2.30375 2.48421 0
M  V30 4452 C 431.646 2.25004 3.01746 0
M  V30 4453 C 430.793 2.15259 1.7481 0
M  V30 4454 H 433.744 1.47198 0.593173 0
M  V30 4455 H 433.765 1.93905 3.27385 0
M  V30 4456 H 433.277 3.29422 2.05189 0
M  V30 4457 H 431.378 1.29417 3.49403 0
M  V30 4458 H 431.491 3.1761 3.58693 0
M  V30 4459 H 429.855 1.61482 1.96966 0
M  V30 4460 H 430.638 3.16191 1.33709 0
M  V30 4461 N 433.083 -1.0153 1.20538 0
M  V30 4462 C 434.36 -1.72327 0.925343 0
M  V30 4463 C 434.74 -2.03383 -0.565547 0
M  V30 4464 O 434.088 -1.69934 -1.52757 0
M  V30 4465 C 434.298 -2.9902 1.79967 0
M  V30 4466 C 435.646 -3.72258 2.04228 0
M  V30 4467 O 436.67 -3.08979 1.77231 0
M  V30 4468 O 435.529 -4.86053 2.4983 0
M  V30 4469 H 432.623 -0.751099 0.346092 0
M  V30 4470 H 435.169 -1.07366 1.31417 0
M  V30 4471 H 433.941 -2.72402 2.80915 0
M  V30 4472 H 433.564 -3.71721 1.41099 0
M  V30 4473 N 434.561 -1.01147 -1.20859 0
M  V30 4474 C 435.524 -0.582224 -2.21682 0
M  V30 4475 C 436.524 0.344887 -1.57058 0
M  V30 4476 O 437.714 0.134281 -1.73682 0
M  V30 4477 C 434.846 0.150496 -3.40568 0
M  V30 4478 H 436.039 -1.47408 -2.61172 0
M  V30 4479 H 433.592 -0.800695 -1.34233 0
M  V30 4480 H 434.327 1.0575 -3.06574 0
M  V30 4481 H 434.112 -0.515444 -3.88697 0
M  V30 4482 H 435.602 0.438344 -4.15293 0
M  V30 4483 N 436.039 1.36541 -0.78704 0
M  V30 4484 C 437.267 2.03561 -0.370199 0
M  V30 4485 C 437.682 1.59347 1.01263 0
M  V30 4486 O 437.039 0.781781 1.64907 0
M  V30 4487 C 437.09 3.59033 -0.421614 0
M  V30 4488 O 436.811 4.01634 -1.7499 0
M  V30 4489 C 438.312 4.433 0.00489763 0
M  V30 4490 H 435.532 0.653346 -0.152904 0
M  V30 4491 H 438.076 1.74566 -1.06522 0
M  V30 4492 H 436.231 3.86746 0.224971 0
M  V30 4493 H 436.645 4.96217 -1.69909 0
M  V30 4494 H 438.119 5.51939 -0.0822184 0
M  V30 4495 H 438.596 4.26285 1.05723 0
M  V30 4496 H 439.202 4.20843 -0.614085 0
M  V30 4497 N 437.518 0.538854 1.48102 0
M  V30 4498 C 438.765 0.0080018 2.02498 0
M  V30 4499 C 439.093 -1.33437 1.41509 0
M  V30 4500 O 438.348 -1.87709 0.553507 0
M  V30 4501 C 438.647 -0.153808 3.57069 0
M  V30 4502 C 438.313 1.11533 4.36888 0
M  V30 4503 C 436.975 1.46314 4.58417 0
M  V30 4504 C 439.327 1.95718 4.83057 0
M  V30 4505 C 436.655 2.6516 5.23361 0
M  V30 4506 C 439.007 3.13751 5.49312 0
M  V30 4507 C 437.671 3.48866 5.69077 0
M  V30 4508 H 436.941 0.00292807 0.740994 0
M  V30 4509 H 439.588 0.706668 1.77984 0
M  V30 4510 H 437.893 -0.935309 3.80472 0
M  V30 4511 H 439.59 -0.579607 3.96789 0
M  V30 4512 H 436.18 0.834484 4.20398 0
M  V30 4513 H 440.364 1.70158 4.66219 0
M  V30 4514 H 435.62 2.92558 5.36861 0
M  V30 4515 H 439.794 3.79282 5.84053 0
M  V30 4516 H 437.421 4.41054 6.19173 0
M  V30 4517 N 438.996 -1.55193 0.274407 0
M  V30 4518 C 440.242 -1.99877 -0.343086 0
M  V30 4519 C 440.575 -1.16256 -1.55558 0
M  V30 4520 O 439.85 -0.232462 -1.93106 0
M  V30 4521 C 440.133 -3.52706 -0.725965 0
M  V30 4522 C 439.986 -4.47081 0.493818 0
M  V30 4523 C 441.305 -4.11422 -1.56268 0
M  V30 4524 H 438.424 -0.726625 -0.123229 0
M  V30 4525 H 441.066 -1.86136 0.38121 0
M  V30 4526 H 439.216 -3.64546 -1.34307 0
M  V30 4527 H 440.888 -4.47186 1.13237 0
M  V30 4528 H 439.131 -4.1877 1.13201 0
M  V30 4529 H 439.802 -5.51699 0.18217 0
M  V30 4530 H 442.278 -4.02855 -1.04151 0
M  V30 4531 H 441.154 -5.18568 -1.79939 0
M  V30 4532 H 441.415 -3.61607 -2.54348 0
M  V30 4533 N 440.474 -0.00167713 -1.576 0
M  V30 4534 C 441.702 0.693759 -1.94922 0
M  V30 4535 C 442.117 1.67215 -0.876626 0
M  V30 4536 O 441.474 1.81929 0.144279 0
M  V30 4537 C 441.525 1.42416 -3.32265 0
M  V30 4538 O 441.246 0.485014 -4.35407 0
M  V30 4539 C 442.747 2.21395 -3.84056 0
M  V30 4540 H 439.967 0.193118 -0.642609 0
M  V30 4541 H 442.511 -0.0532952 -2.04431 0
M  V30 4542 H 440.666 2.12284 -3.24059 0
M  V30 4543 H 441.08 1.00053 -5.14868 0
M  V30 4544 H 442.554 2.67996 -4.82578 0
M  V30 4545 H 443.031 3.04142 -3.16851 0
M  V30 4546 H 443.637 1.56542 -3.95443 0
M  V30 4547 N 441.952 1.55251 0.271103 0
M  V30 4548 C 442.884 1.84675 1.35749 0
M  V30 4549 C 443.897 0.731366 1.45447 0
M  V30 4550 O 445.086 1.00924 1.4723 0
M  V30 4551 C 442.186 1.99638 2.73857 0
M  V30 4552 C 441.359 3.30312 2.86727 0
M  V30 4553 C 440.418 3.35318 4.05522 0
M  V30 4554 O 439.444 4.08682 3.96191 0
M  V30 4555 N 440.646 2.62857 5.17577 0
M  V30 4556 H 443.411 2.78445 1.10853 0
M  V30 4557 H 440.972 1.55191 0.461218 0
M  V30 4558 H 442.964 2.00355 3.51625 0
M  V30 4559 H 441.534 1.12725 2.91568 0
M  V30 4560 H 440.754 3.42118 1.95829 0
M  V30 4561 H 442.042 4.16488 2.92258 0
M  V30 4562 H 441.44 2.02939 5.28046 0
M  V30 4563 H 439.997 2.69295 5.93568 0
M  V30 4564 N 443.43 -0.535701 1.48216 0
M  V30 4565 C 444.846 -0.863701 1.3421 0
M  V30 4566 C 445.046 -1.98458 0.34879 0
M  V30 4567 O 444.102 -2.51432 -0.23204 0
M  V30 4568 C 445.415 -1.23662 2.74095 0
M  V30 4569 C 446.963 -1.34683 2.82541 0
M  V30 4570 C 447.438 -1.75322 4.23115 0
M  V30 4571 N 448.929 -1.82434 4.2576 0
M  V30 4572 C 449.664 -2.15252 5.31464 0
M  V30 4573 N 449.16 -2.46533 6.47452 0
M  V30 4574 N 450.953 -2.16209 5.18855 0
M  V30 4575 H 443.104 0.203965 2.11418 0
M  V30 4576 H 445.367 0.0286033 0.947568 0
M  V30 4577 H 445.073 -0.486674 3.48316 0
M  V30 4578 H 444.947 -2.18805 3.07253 0
M  V30 4579 H 447.334 -2.08756 2.08579 0
M  V30 4580 H 447.415 -0.376756 2.5301 0
M  V30 4581 H 447.059 -1.01812 4.97591 0
M  V30 4582 H 446.989 -2.7337 4.50085 0
M  V30 4583 H 449.48 -1.6056 3.42095 0
M  V30 4584 H 449.793 -2.70662 7.23852 0
M  V30 4585 H 448.138 -2.44065 6.50736 0
M  V30 4586 H 451.329 -1.91224 4.2726 0
M  V30 4587 H 451.502 -2.41453 6.01335 0
M  V30 4588 N 444.908 -1.36708 -0.784132 0
M  V30 4589 C 446.154 -1.31426 -1.54451 0
M  V30 4590 C 446.487 0.10476 -1.93917 0
M  V30 4591 O 445.762 1.05934 -1.6312 0
M  V30 4592 C 446.045 -2.24189 -2.818 0
M  V30 4593 C 445.898 -3.74813 -2.48667 0
M  V30 4594 C 447.217 -2.15626 -3.83658 0
M  V30 4595 H 444.336 -0.478739 -0.560337 0
M  V30 4596 H 446.978 -1.67305 -0.900498 0
M  V30 4597 H 445.128 -1.93722 -3.36755 0
M  V30 4598 H 446.8 -4.15823 -1.99722 0
M  V30 4599 H 445.043 -3.93989 -1.81535 0
M  V30 4600 H 445.714 -4.35138 -3.39646 0
M  V30 4601 H 448.19 -2.42456 -3.38163 0
M  V30 4602 H 447.066 -2.82694 -4.70506 0
M  V30 4603 H 447.327 -1.14522 -4.27009 0
M  V30 4604 N 446.386 1.0089 -1.21074 0
M  V30 4605 C 447.632 1.7497 -1.03717 0
M  V30 4606 C 447.987 1.8764 0.425344 0
M  V30 4607 O 447.28 1.39679 1.3115 0
M  V30 4608 C 447.474 3.16335 -1.66334 0
M  V30 4609 C 447.303 3.17449 -3.18522 0
M  V30 4610 C 446.073 3.2425 -3.87543 0
M  V30 4611 C 448.271 3.02877 -4.15656 0
M  V30 4612 N 446.253 3.14949 -5.26954 0
M  V30 4613 C 447.624 3.0143 -5.41793 0
M  V30 4614 C 449.679 2.8715 -4.06755 0
M  V30 4615 C 448.382 2.85869 -6.60054 0
M  V30 4616 C 450.408 2.72944 -5.24648 0
M  V30 4617 C 449.77 2.72171 -6.49694 0
M  V30 4618 H 445.869 0.650627 -0.43383 0
M  V30 4619 H 448.453 1.19944 -1.53367 0
M  V30 4620 H 446.624 3.69638 -1.19256 0
M  V30 4621 H 448.356 3.78888 -1.42219 0
M  V30 4622 H 445.111 3.31288 -3.38446 0
M  V30 4623 H 445.535 3.13651 -5.9996 0
M  V30 4624 H 450.177 2.86557 -3.10878 0
M  V30 4625 H 447.895 2.8521 -7.56096 0
M  V30 4626 H 451.481 2.61782 -5.19578 0
M  V30 4627 H 450.361 2.61307 -7.39384 0
M  V30 4628 N 447.864 1.01787 1.20321 0
M  V30 4629 C 449.111 0.707936 1.89722 0
M  V30 4630 C 449.439 -0.762535 1.78929 0
M  V30 4631 O 448.694 -1.56977 1.16861 0
M  V30 4632 C 448.993 1.09076 3.40349 0
M  V30 4633 C 448.659 2.55765 3.71342 0
M  V30 4634 C 447.321 2.95845 3.79511 0
M  V30 4635 C 449.673 3.50723 3.85542 0
M  V30 4636 C 447.001 4.2982 3.99339 0
M  V30 4637 C 449.353 4.84387 4.06881 0
M  V30 4638 C 448.017 5.24172 4.1328 0
M  V30 4639 H 447.287 0.259052 0.694243 0
M  V30 4640 H 449.934 1.27868 1.42555 0
M  V30 4641 H 448.239 0.438453 3.89339 0
M  V30 4642 H 449.936 0.828636 3.92345 0
M  V30 4643 H 446.526 2.2371 3.65584 0
M  V30 4644 H 450.71 3.20916 3.78585 0
M  V30 4645 H 445.966 4.60196 4.02529 0
M  V30 4646 H 450.14 5.57891 4.1681 0
M  V30 4647 H 447.767 6.27997 4.28396 0
M  V30 4648 N 449.342 -1.36122 0.79427 0
M  V30 4649 C 450.59 -1.98718 0.368177 0
M  V30 4650 C 450.911 -1.63345 -1.06506 0
M  V30 4651 O 450.181 -0.909825 -1.73491 0
M  V30 4652 H 448.761 -0.735038 0.133146 0
M  V30 4653 H 451.423 -1.66239 1.01739 0
M  V30 4654 H 450.519 -3.08633 0.463923 0
M  V30 4655 N 450.82 -0.546701 -1.47814 0
M  V30 4656 C 452.097 0.0464413 -1.95545 0
M  V30 4657 C 452.477 1.4962 -1.48919 0
M  V30 4658 O 451.825 2.16752 -0.723232 0
M  V30 4659 C 452.035 -0.0881298 -3.48889 0
M  V30 4660 C 453.383 0.0626059 -4.24554 0
M  V30 4661 O 454.407 -0.0151555 -3.56197 0
M  V30 4662 O 453.266 0.228071 -5.46024 0
M  V30 4663 H 450.36 0.0700004 -0.824032 0
M  V30 4664 H 452.906 -0.612482 -1.58262 0
M  V30 4665 H 451.678 -1.09737 -3.75597 0
M  V30 4666 H 451.301 0.608886 -3.9291 0
M  V30 4667 N 452.299 1.55045 -0.282633 0
M  V30 4668 C 453.246 2.22822 0.601566 0
M  V30 4669 C 454.216 1.20431 1.14392 0
M  V30 4670 O 455.401 1.48996 1.19184 0
M  V30 4671 C 452.541 2.95873 1.77632 0
M  V30 4672 C 451.654 4.12999 1.26711 0
M  V30 4673 C 450.789 4.73676 2.40426 0
M  V30 4674 C 449.828 5.82981 1.86545 0
M  V30 4675 N 448.965 6.3769 2.93762 0
M  V30 4676 H 453.805 2.97995 0.0169528 0
M  V30 4677 H 451.342 1.471 -0.00339964 0
M  V30 4678 H 453.3 3.36447 2.46697 0
M  V30 4679 H 451.93 2.2311 2.33285 0
M  V30 4680 H 450.982 3.77494 0.469314 0
M  V30 4681 H 452.294 4.91803 0.832518 0
M  V30 4682 H 451.448 5.17008 3.17471 0
M  V30 4683 H 450.187 3.94164 2.87203 0
M  V30 4684 H 449.192 5.39092 1.07983 0
M  V30 4685 H 450.417 6.64366 1.40694 0
M  V30 4686 H 448.363 5.61069 3.39908 0
M  V30 4687 H 448.28 7.11788 2.54744 0
M  V30 4688 H 449.548 6.8568 3.7076 0
M  V30 4689 N 453.777 0.010035 1.57597 0
M  V30 4690 C 455.002 -0.687021 1.95691 0
M  V30 4691 C 455.427 -1.65952 0.885519 0
M  V30 4692 O 454.785 -1.80633 -0.15543 0
M  V30 4693 C 454.833 -1.3864 3.32884 0
M  V30 4694 O 453.937 -2.50115 3.27897 0
M  V30 4695 H 453.278 -0.181989 0.638573 0
M  V30 4696 H 455.808 0.0662122 2.04493 0
M  V30 4697 H 455.818 -1.74754 3.6868 0
M  V30 4698 H 454.493 -0.673411 4.10412 0
M  V30 4699 H 453.07 -2.16253 3.03791 0
M  V30 4700 N 455.255 -1.55392 -0.262866 0
M  V30 4701 C 456.165 -1.92077 -1.34698 0
M  V30 4702 C 457.181 -0.819227 -1.53508 0
M  V30 4703 O 458.357 -1.11921 -1.67439 0
M  V30 4704 C 455.422 -2.19407 -2.68443 0
M  V30 4705 C 454.483 -3.42905 -2.58292 0
M  V30 4706 C 453.716 -3.68921 -3.85659 0
M  V30 4707 O 453.939 -2.97275 -4.8681 0
M  V30 4708 O 452.873 -4.62455 -3.85252 0
M  V30 4709 H 456.699 -2.84384 -1.06581 0
M  V30 4710 H 454.284 -1.42069 -0.462264 0
M  V30 4711 H 456.166 -2.38365 -3.47506 0
M  V30 4712 H 454.841 -1.30282 -2.96325 0
M  V30 4713 H 453.748 -3.29272 -1.7757 0
M  V30 4714 H 455.081 -4.32282 -2.35358 0
M  V30 4715 N 456.733 0.527833 -1.48498 0
M  V30 4716 C 457.979 1.28545 -1.56857 0
M  V30 4717 C 458.312 1.92678 -0.242651 0
M  V30 4718 O 457.587 1.79394 0.751545 0
M  V30 4719 C 457.87 2.37314 -2.70839 0
M  V30 4720 C 457.723 1.77858 -4.13142 0
M  V30 4721 C 459.042 3.39068 -2.80573 0
M  V30 4722 H 456.161 0.466006 -0.570971 0
M  V30 4723 H 458.803 0.587784 -1.8068 0
M  V30 4724 H 456.953 2.96821 -2.50658 0
M  V30 4725 H 458.625 1.22385 -4.44769 0
M  V30 4726 H 456.868 1.08383 -4.20042 0
M  V30 4727 H 457.539 2.56624 -4.88721 0
M  V30 4728 H 460.015 2.89518 -2.98862 0
M  V30 4729 H 458.891 4.12566 -3.6205 0
M  V30 4730 H 459.152 3.9975 -1.88818 0
M  V30 4731 N 458.211 1.37122 0.776871 0
M  V30 4732 C 459.159 1.32549 1.91138 0
M  V30 4733 C 460.153 0.215119 1.68029 0
M  V30 4734 O 461.359 0.382852 1.75881 0
M  V30 4735 H 457.734 0.412952 0.62847 0
M  V30 4736 H 459.705 2.28332 1.92112 0
M  V30 4737 C 458.454 1.14422 3.28333 0
M  V30 4738 H 457.777 1.99115 3.46689 0
M  V30 4739 H 459.217 1.15272 4.0803 0
M  V30 4740 C 457.676 -0.150434 3.36564 0
M  V30 4741 O 458.206 -1.13584 3.85307 0
M  V30 4742 N 456.412 -0.19939 2.89915 0
M  V30 4743 H 455.959 0.603142 2.5044 0
M  V30 4744 H 455.917 -1.06526 2.95803 0
M  V30 4745 N 459.689 -1.00246 1.21608 0
M  V30 4746 C 460.619 -2.10921 1.00172 0
M  V30 4747 C 461.6 -1.69938 -0.0741587 0
M  V30 4748 O 462.785 -1.94009 0.0861753 0
M  V30 4749 C 459.915 -3.42618 0.568355 0
M  V30 4750 C 458.869 -3.97407 1.58909 0
M  V30 4751 C 458.195 -5.25038 1.01187 0
M  V30 4752 C 459.495 -4.2918 2.97661 0
M  V30 4753 H 461.189 -2.29112 1.92739 0
M  V30 4754 H 458.735 -1.10101 0.928102 0
M  V30 4755 H 460.688 -4.19444 0.405555 0
M  V30 4756 H 459.412 -3.24227 -0.392961 0
M  V30 4757 H 458.071 -3.22703 1.73949 0
M  V30 4758 H 457.719 -5.02982 0.0421965 0
M  V30 4759 H 457.419 -5.62661 1.6937 0
M  V30 4760 H 458.943 -6.04507 0.860448 0
M  V30 4761 H 460.357 -4.96839 2.86049 0
M  V30 4762 H 458.754 -4.77952 3.6288 0
M  V30 4763 H 459.824 -3.3735 3.48315 0
M  V30 4764 N 461.167 -1.02423 -1.1978 0
M  V30 4765 C 462.415 -0.716569 -1.8897 0
M  V30 4766 C 462.736 0.756769 -1.79716 0
M  V30 4767 O 462.006 1.5449 -1.20456 0
M  V30 4768 H 460.586 -0.262062 -0.699523 0
M  V30 4769 H 463.248 -1.29747 -1.45436 0
M  V30 4770 H 462.344 -1.00675 -2.95417 0
M  V30 4771 N 462.645 1.35699 -0.801477 0
M  V30 4772 C 463.608 2.28199 -0.213994 0
M  V30 4773 C 464.608 1.49359 0.595691 0
M  V30 4774 O 465.798 1.69186 0.414921 0
M  V30 4775 C 462.93 3.33587 0.702297 0
M  V30 4776 H 464.123 2.81666 -1.02976 0
M  V30 4777 H 461.676 1.45467 -0.571759 0
M  V30 4778 H 462.411 2.85297 1.54195 0
M  V30 4779 H 462.196 3.91906 0.123484 0
M  V30 4780 H 463.686 4.02638 1.10783 0
M  V30 4781 N 464.123 0.554532 1.47522 0
M  V30 4782 C 465.371 0.0294208 2.02079 0
M  V30 4783 C 465.692 -1.32411 1.43151 0
M  V30 4784 O 464.962 -1.863 0.605728 0
M  V30 4785 H 463.542 0.00788672 0.746958 0
M  V30 4786 H 466.204 0.723934 1.80956 0
M  V30 4787 H 465.3 -0.0606745 3.12041 0
M  V30 4788 N 465.601 -1.54893 0.290851 0
M  V30 4789 C 466.511 -2.26812 -0.59945 0
M  V30 4790 C 467.527 -1.29963 -1.15696 0
M  V30 4791 O 468.703 -1.62928 -1.18391 0
M  V30 4792 C 465.768 -2.98716 -1.75982 0
M  V30 4793 C 464.829 -4.1108 -1.2374 0
M  V30 4794 C 464.062 -4.79546 -2.34246 0
M  V30 4795 O 464.285 -4.47309 -3.53936 0
M  V30 4796 O 463.219 -5.67165 -2.01512 0
M  V30 4797 H 467.045 -3.03696 -0.0163561 0
M  V30 4798 H 464.63 -1.49289 0.0576755 0
M  V30 4799 H 466.512 -3.43851 -2.43607 0
M  V30 4800 H 465.187 -2.24737 -2.3297 0
M  V30 4801 H 464.094 -3.70367 -0.527163 0
M  V30 4802 H 465.427 -4.87007 -0.71307 0
M  V30 4803 N 467.08 -0.0183926 -1.57589 0
M  V30 4804 C 468.043 0.951986 -2.08494 0
M  V30 4805 C 469.043 1.26092 -0.997874 0
M  V30 4806 O 470.233 1.20304 -1.25987 0
M  V30 4807 C 467.365 2.27165 -2.54182 0
M  V30 4808 H 468.558 0.511307 -2.95509 0
M  V30 4809 H 466.111 0.229444 -1.54607 0
M  V30 4810 H 466.846 2.75884 -1.70465 0
M  V30 4811 H 466.631 2.06057 -3.33591 0
M  V30 4812 H 468.121 2.9674 -2.93828 0
M  V30 4813 N 468.558 1.5553 0.254621 0
M  V30 4814 C 469.806 1.7665 0.981793 0
M  V30 4815 C 470.127 0.580963 1.86145 0
M  V30 4816 O 469.397 -0.403537 1.91699 0
M  V30 4817 H 467.977 0.651475 0.365498 0
M  V30 4818 H 470.639 1.92958 0.274426 0
M  V30 4819 H 469.735 2.67486 1.60802 0
M  V30 4820 N 470.036 -0.519951 1.48776 0
M  V30 4821 C 471.261 -1.30447 1.6124 0
M  V30 4822 C 471.686 -1.86055 0.276591 0
M  V30 4823 O 471.044 -1.64915 -0.753183 0
M  V30 4824 C 471.092 -2.42406 2.66967 0
M  V30 4825 O 470.196 -3.45728 2.24824 0
M  V30 4826 H 469.537 -0.385924 0.540332 0
M  V30 4827 H 472.067 -0.624572 1.94834 0
M  V30 4828 H 472.077 -2.88447 2.88552 0
M  V30 4829 H 470.752 -2.01294 3.63941 0
M  V30 4830 H 469.329 -3.05737 2.13494 0
M  V30 4831 N 471.514 -1.37532 -0.769588 0
M  V30 4832 C 472.76 -1.33057 -1.53048 0
M  V30 4833 C 473.093 0.0841865 -1.94017 0
M  V30 4834 O 472.368 1.04198 -1.64235 0
M  V30 4835 C 472.651 -2.27166 -2.79406 0
M  V30 4836 C 472.504 -3.77429 -2.44677 0
M  V30 4837 C 473.823 -2.19683 -3.81349 0
M  V30 4838 H 470.942 -0.484655 -0.555228 0
M  V30 4839 H 473.584 -1.68251 -0.882702 0
M  V30 4840 H 471.734 -1.97283 -3.34682 0
M  V30 4841 H 473.406 -4.17918 -1.953 0
M  V30 4842 H 471.649 -3.95892 -1.77346 0
M  V30 4843 H 472.32 -4.38716 -3.35011 0
M  V30 4844 H 474.796 -2.46029 -3.35573 0
M  V30 4845 H 473.672 -2.87668 -4.67481 0
M  V30 4846 H 473.933 -1.19045 -4.25771 0
M  V30 4847 N 472.992 0.995999 -1.22138 0
M  V30 4848 C 474.22 1.77066 -1.07029 0
M  V30 4849 C 474.635 1.8495 0.379357 0
M  V30 4850 O 473.992 1.3174 1.26297 0
M  V30 4851 C 474.043 3.20533 -1.67155 0
M  V30 4852 O 473.764 3.13082 -3.06449 0
M  V30 4853 C 475.265 4.14461 -1.5728 0
M  V30 4854 H 472.485 0.556179 -0.375374 0
M  V30 4855 H 475.029 1.25238 -1.61666 0
M  V30 4856 H 473.184 3.6944 -1.16589 0
M  V30 4857 H 473.598 4.03283 -3.35355 0
M  V30 4858 H 475.072 5.1289 -2.04078 0
M  V30 4859 H 475.549 4.36005 -0.528795 0
M  V30 4860 H 476.155 3.71449 -2.07136 0
M  V30 4861 N 474.47 1.03057 1.19235 0
M  V30 4862 C 475.719 0.72326 1.88287 0
M  V30 4863 C 476.032 -0.751333 1.80594 0
M  V30 4864 O 477.238 -1.17176 2.44912 0
M  V30 4865 C 475.694 1.24338 3.3774 0
M  V30 4866 C 475.302 2.74587 3.53986 0
M  V30 4867 C 477.046 1.01213 4.12257 0
M  V30 4868 C 474.953 3.20009 4.97341 0
M  V30 4869 H 473.883 0.266848 0.705201 0
M  V30 4870 H 476.534 1.24509 1.34795 0
M  V30 4871 H 474.916 0.649457 3.90638 0
M  V30 4872 H 476.09 3.39649 3.11408 0
M  V30 4873 H 474.405 2.9601 2.9286 0
M  V30 4874 H 477.002 1.32675 5.17978 0
M  V30 4875 H 477.345 -0.051001 4.16269 0
M  V30 4876 H 477.878 1.57014 3.65501 0
M  V30 4877 H 474.617 4.25659 4.98493 0
M  V30 4878 H 474.137 2.59676 5.40674 0
M  V30 4879 H 475.816 3.13447 5.66003 0
M  V30 4880 N 475.948 -1.35272 0.808662 0
M  V30 4881 C 477.359 -1.81179 0.450688 0
M  V30 4882 C 477.71 -1.67143 -1.02751 0
M  V30 4883 O 476.835 -1.20325 -1.79864 0
M  V30 4884 C 477.43 -3.28943 0.811275 0
M  V30 4885 C 475.989 -3.72985 0.505871 0
M  V30 4886 C 475.136 -2.57229 1.03578 0
M  V30 4887 H 478.087 -1.2322 1.00012 0
M  V30 4888 H 478.108 -3.80342 0.109588 0
M  V30 4889 H 477.62 -3.39127 1.88718 0
M  V30 4890 H 475.721 -3.68349 -0.561209 0
M  V30 4891 H 475.834 -4.67677 1.03995 0
M  V30 4892 H 474.198 -2.50548 0.458005 0
M  V30 4893 H 474.981 -2.7019 2.11784 0
M  V30 4894 N 477.426 -0.562348 -1.47226 0
M  V30 4895 C 478.842 -0.222492 -1.58042 0
M  V30 4896 C 479.042 1.27505 -1.56028 0
M  V30 4897 O 478.098 2.05555 -1.46641 0
M  V30 4898 C 479.411 -0.853694 -2.88327 0
M  V30 4899 C 480.959 -0.825397 -3.01921 0
M  V30 4900 C 481.434 -1.43576 -4.34914 0
M  V30 4901 N 482.925 -1.39918 -4.41562 0
M  V30 4902 C 483.66 -1.84103 -5.43041 0
M  V30 4903 N 483.156 -2.36167 -6.51304 0
M  V30 4904 N 484.949 -1.75142 -5.34118 0
M  V30 4905 H 477.1 -1.53525 -1.46778 0
M  V30 4906 H 479.363 -0.640527 -0.698877 0
M  V30 4907 H 479.069 -1.90635 -2.95552 0
M  V30 4908 H 478.943 -0.34977 -3.75575 0
M  V30 4909 H 481.33 0.218583 -2.94289 0
M  V30 4910 H 481.411 -1.36713 -2.16202 0
M  V30 4911 H 481.055 -2.47884 -4.43301 0
M  V30 4912 H 480.985 -0.869427 -5.19373 0
M  V30 4913 H 483.476 -1.0184 -3.63919 0
M  V30 4914 H 483.789 -2.67793 -7.24919 0
M  V30 4915 H 482.134 -2.40181 -6.52179 0
M  V30 4916 H 485.325 -1.34241 -4.48439 0
M  V30 4917 H 485.498 -2.09895 -6.13065 0
M  V30 4918 N 478.904 1.54736 -0.299062 0
M  V30 4919 C 480.152 1.99706 0.31017 0
M  V30 4920 C 480.473 1.18896 1.54559 0
M  V30 4921 O 479.743 0.284445 1.93824 0
M  V30 4922 H 478.323 0.737686 0.117596 0
M  V30 4923 H 480.985 1.9054 -0.409943 0
M  V30 4924 H 480.081 3.06596 0.58355 0
M  V30 4925 N 480.382 0.0267497 1.57577 0
M  V30 4926 C 481.314 -0.984594 2.06974 0
M  V30 4927 C 482.327 -1.29032 0.992705 0
M  V30 4928 O 483.516 -1.25539 1.26895 0
M  V30 4929 C 480.616 -2.31262 2.47732 0
M  V30 4930 C 479.789 -2.1924 3.78487 0
M  V30 4931 C 478.848 -3.34956 4.05821 0
M  V30 4932 O 477.874 -3.11948 4.76106 0
M  V30 4933 N 479.076 -4.58672 3.55809 0
M  V30 4934 H 481.841 -0.563143 2.94362 0
M  V30 4935 H 479.402 -0.160061 1.61107 0
M  V30 4936 H 481.394 -3.07496 2.63112 0
M  V30 4937 H 479.964 -2.65056 1.65723 0
M  V30 4938 H 479.184 -1.27747 3.72927 0
M  V30 4939 H 480.472 -2.08409 4.64158 0
M  V30 4940 H 479.87 -4.8026 2.98942 0
M  V30 4941 H 478.427 -5.32083 3.76472 0
M  V30 4942 N 481.861 -1.55662 -0.24637 0
M  V30 4943 C 482.791 -1.93377 -1.30873 0
M  V30 4944 C 483.772 -0.798773 -1.50179 0
M  V30 4945 O 484.957 -1.0591 -1.62778 0
M  V30 4946 C 482.087 -2.22893 -2.66338 0
M  V30 4947 C 481.041 -3.38649 -2.61727 0
M  V30 4948 C 480.367 -3.53708 -4.00992 0
M  V30 4949 C 481.667 -4.74323 -2.18666 0
M  V30 4950 H 483.361 -2.82363 -0.995552 0
M  V30 4951 H 480.907 -1.35854 -0.477464 0
M  V30 4952 H 482.86 -2.47866 -3.40794 0
M  V30 4953 H 481.584 -1.30733 -2.99293 0
M  V30 4954 H 480.243 -3.13685 -1.89729 0
M  V30 4955 H 479.891 -2.58967 -4.31214 0
M  V30 4956 H 479.591 -4.31551 -3.98795 0
M  V30 4957 H 481.115 -3.81003 -4.77147 0
M  V30 4958 H 482.529 -4.98665 -2.82854 0
M  V30 4959 H 480.926 -5.55273 -2.27579 0
M  V30 4960 H 481.996 -4.71349 -1.13834 0
M  V30 4961 N 483.339 0.512053 -1.4905 0
M  V30 4962 C 484.286 1.6148 -1.64902 0
M  V30 4963 C 485.256 1.58687 -0.490673 0
M  V30 4964 O 486.441 1.76842 -0.71636 0
M  V30 4965 C 483.581 2.99676 -1.71139 0
M  V30 4966 C 482.694 3.12568 -2.98203 0
M  V30 4967 C 481.829 4.4143 -2.95487 0
M  V30 4968 C 480.868 4.47916 -4.17179 0
M  V30 4969 N 480.005 5.68191 -4.12437 0
M  V30 4970 H 484.845 1.47271 -2.59066 0
M  V30 4971 H 482.382 0.716713 -1.28459 0
M  V30 4972 H 484.34 3.79761 -1.72736 0
M  V30 4973 H 482.97 3.12614 -0.804508 0
M  V30 4974 H 482.022 2.25618 -3.06269 0
M  V30 4975 H 483.334 3.1322 -3.88194 0
M  V30 4976 H 482.488 5.29825 -2.95585 0
M  V30 4977 H 481.227 4.43326 -2.03256 0
M  V30 4978 H 480.232 3.57925 -4.17337 0
M  V30 4979 H 481.457 4.47744 -5.1059 0
M  V30 4980 H 479.403 5.7095 -3.23036 0
M  V30 4981 H 479.32 5.70413 -4.96151 0
M  V30 4982 H 480.588 6.58823 -4.16621 0
M  V30 4983 N 484.817 1.37938 0.762283 0
M  V30 4984 C 485.765 1.34569 1.89721 0
M  V30 4985 C 486.759 0.232929 1.67791 0
M  V30 4986 O 487.965 0.401485 1.75465 0
M  V30 4987 H 484.34 0.419594 0.624055 0
M  V30 4988 H 486.311 2.30357 1.8968 0
M  V30 4989 C 485.06 1.17898 3.27101 0
M  V30 4990 H 484.383 2.02781 3.44558 0
M  V30 4991 H 485.823 1.19593 4.06784 0
M  V30 4992 C 484.282 -0.114728 3.36705 0
M  V30 4993 O 484.812 -1.0949 3.8649 0
M  V30 4994 N 483.018 -0.16863 2.9011 0
M  V30 4995 H 482.565 0.62967 2.49786 0
M  V30 4996 H 482.523 -1.03383 2.96916 0
M  V30 4997 N 486.295 -0.989507 1.22664 0
M  V30 4998 C 487.225 -2.09847 1.02404 0
M  V30 4999 C 488.206 -1.70007 -0.0561303 0
M  V30 5000 O 489.391 -1.93906 0.106748 0
M  V30 5001 C 486.521 -3.41996 0.604663 0
M  V30 5002 C 485.475 -3.95699 1.63115 0
M  V30 5003 C 484.801 -5.23936 1.0675 0
M  V30 5004 C 486.101 -4.25999 3.02196 0
M  V30 5005 H 487.795 -2.27054 1.95158 0
M  V30 5006 H 485.341 -1.09111 0.939727 0
M  V30 5007 H 487.294 -4.1899 0.45002 0
M  V30 5008 H 486.018 -3.24626 -0.35855 0
M  V30 5009 H 484.677 -3.2084 1.77362 0
M  V30 5010 H 484.325 -5.02909 0.0955422 0
M  V30 5011 H 484.025 -5.60833 1.75328 0
M  V30 5012 H 485.549 -6.0356 0.924516 0
M  V30 5013 H 486.963 -4.93777 2.91303 0
M  V30 5014 H 485.36 -4.74076 3.67929 0
M  V30 5015 H 486.43 -3.33636 3.51873 0
M  V30 5016 N 487.773 -1.03688 -1.18687 0
M  V30 5017 C 488.72 -0.624624 -2.22187 0
M  V30 5018 C 489.69 0.365636 -1.62026 0
M  V30 5019 O 490.875 0.260481 -1.89014 0
M  V30 5020 C 488.015 0.0101738 -3.45099 0
M  V30 5021 C 487.128 -1.02709 -4.19613 0
M  V30 5022 C 486.263 -0.361213 -5.2997 0
M  V30 5023 C 485.302 -1.38384 -5.96252 0
M  V30 5024 N 484.439 -0.743196 -6.98155 0
M  V30 5025 H 489.279 -1.51176 -2.56807 0
M  V30 5026 H 486.816 -0.75636 -1.26165 0
M  V30 5027 H 488.774 0.395528 -4.15321 0
M  V30 5028 H 487.404 0.860848 -3.1111 0
M  V30 5029 H 486.456 -1.53043 -3.48256 0
M  V30 5030 H 487.768 -1.80398 -4.65036 0
M  V30 5031 H 486.922 0.0785537 -6.06649 0
M  V30 5032 H 485.661 0.447799 -4.8564 0
M  V30 5033 H 484.666 -1.83378 -5.18317 0
M  V30 5034 H 485.891 -2.19448 -6.42666 0
M  V30 5035 H 483.837 0.0455789 -6.55984 0
M  V30 5036 H 483.754 -1.45784 -7.41811 0
M  V30 5037 H 485.022 -0.327698 -7.78811 0
M  V30 5038 N 489.251 1.34841 -0.815825 0
M  V30 5039 C 490.214 2.27959 -0.238185 0
M  V30 5040 C 491.214 1.49983 0.579816 0
M  V30 5041 O 492.404 1.69617 0.396953 0
M  V30 5042 C 489.536 3.34314 0.666876 0
M  V30 5043 H 490.729 2.80558 -1.05958 0
M  V30 5044 H 488.282 1.44852 -0.587156 0
M  V30 5045 H 489.017 2.86916 1.5116 0
M  V30 5046 H 488.802 3.92014 0.0819106 0
M  V30 5047 H 490.292 4.0379 1.06506 0
M  V30 5048 N 490.729 0.570148 1.46925 0
M  V30 5049 C 491.954 0.0542592 2.07329 0
M  V30 5050 C 492.379 -1.23582 1.41806 0
M  V30 5051 O 491.737 -1.74341 0.497479 0
M  V30 5052 C 491.785 -0.111175 3.60429 0
M  V30 5053 O 490.889 -1.17071 3.95434 0
M  V30 5054 H 490.23 0.0571425 0.661537 0
M  V30 5055 H 492.76 0.789516 1.88753 0
M  V30 5056 H 492.77 -0.321315 4.06733 0
M  V30 5057 H 491.445 0.831012 4.07513 0
M  V30 5058 H 490.022 -0.940029 3.60857 0
M  V30 5059 N 492.207 -1.54576 0.307264 0
M  V30 5060 C 493.437 -2.04378 -0.302158 0
M  V30 5061 C 493.845 -1.18381 -1.47589 0
M  V30 5062 O 493.188 -0.20352 -1.82569 0
M  V30 5063 C 493.25 -3.50133 -0.815305 0
M  V30 5064 C 492.914 -4.56401 0.233977 0
M  V30 5065 C 493.911 -5.08884 1.06456 0
M  V30 5066 C 491.596 -5.0088 0.377478 0
M  V30 5067 C 493.59 -6.04394 2.02452 0
M  V30 5068 C 491.277 -5.96208 1.34088 0
M  V30 5069 C 492.275 -6.47849 2.16288 0
M  V30 5070 O 491.963 -7.41308 3.10994 0
M  V30 5071 H 491.695 -0.672502 -0.0686839 0
M  V30 5072 H 494.249 -2.00484 0.446682 0
M  V30 5073 H 492.479 -3.51371 -1.61478 0
M  V30 5074 H 494.168 -3.83098 -1.34129 0
M  V30 5075 H 494.934 -4.75311 0.964596 0
M  V30 5076 H 490.813 -4.60309 -0.252405 0
M  V30 5077 H 494.357 -6.44626 2.66652 0
M  V30 5078 H 490.254 -6.29198 1.44154 0
M  V30 5079 H 491.022 -7.5913 3.06045 0
M  V30 5080 N 493.685 -0.035106 -1.57561 0
M  V30 5081 C 494.913 0.652258 -1.9635 0
M  V30 5082 C 495.328 1.65317 -0.911897 0
M  V30 5083 O 494.685 1.82194 0.105657 0
M  V30 5084 C 494.736 1.35337 -3.35211 0
M  V30 5085 O 494.457 0.392548 -4.36338 0
M  V30 5086 C 495.958 2.13199 -3.88666 0
M  V30 5087 H 493.178 0.179444 -0.646561 0
M  V30 5088 H 495.722 -0.0966459 -2.04271 0
M  V30 5089 H 493.877 2.05362 -3.28489 0
M  V30 5090 H 494.291 0.891097 -5.16875 0
M  V30 5091 H 495.765 2.577 -4.88154 0
M  V30 5092 H 496.242 2.97353 -3.23231 0
M  V30 5093 H 496.848 1.48118 -3.98674 0
M  V30 5094 N 495.163 1.55791 0.238111 0
M  V30 5095 C 496.093 1.94068 1.29846 0
M  V30 5096 C 497.074 0.806726 1.49753 0
M  V30 5097 O 498.259 1.06772 1.62214 0
M  V30 5098 C 495.389 2.24302 2.65153 0
M  V30 5099 C 494.343 3.40032 2.59927 0
M  V30 5100 C 493.669 3.55829 3.99111 0
M  V30 5101 C 494.969 4.75476 2.16148 0
M  V30 5102 H 496.663 2.82887 0.980563 0
M  V30 5103 H 494.209 1.36105 0.470253 0
M  V30 5104 H 496.162 2.4967 3.39475 0
M  V30 5105 H 494.886 1.32318 2.98596 0
M  V30 5106 H 493.545 3.14687 1.88063 0
M  V30 5107 H 493.193 2.6125 4.29834 0
M  V30 5108 H 492.893 4.3366 3.96501 0
M  V30 5109 H 494.417 3.83528 4.7512 0
M  V30 5110 H 495.831 5.00158 2.80205 0
M  V30 5111 H 494.228 5.56472 2.24631 0
M  V30 5112 H 495.298 4.71946 1.11333 0
M  V30 5113 N 496.642 -0.504142 1.49319 0
M  V30 5114 C 497.87 -1.28256 1.62351 0
M  V30 5115 C 498.285 -1.86502 0.293682 0
M  V30 5116 O 497.642 -1.67678 -0.720449 0
M  V30 5117 C 497.693 -2.41507 2.68992 0
M  V30 5118 O 497.414 -1.85656 3.96817 0
M  V30 5119 C 498.915 -3.32929 2.927 0
M  V30 5120 H 496.135 -0.389115 0.546654 0
M  V30 5121 H 498.679 -0.605531 1.95329 0
M  V30 5122 H 496.834 -3.05046 2.38801 0
M  V30 5123 H 497.248 -2.59981 4.55533 0
M  V30 5124 H 498.722 -4.0868 3.71058 0
M  V30 5125 H 499.199 -3.89733 2.02496 0
M  V30 5126 H 499.805 -2.75158 3.24296 0
M  V30 5127 N 498.12 -1.38341 -0.754957 0
M  V30 5128 C 499.03 -1.3769 -1.89944 0
M  V30 5129 C 500.046 -0.274194 -1.71826 0
M  V30 5130 O 501.222 -0.512391 -1.94773 0
M  V30 5131 C 498.287 -1.19938 -3.25293 0
M  V30 5132 C 497.348 -2.40001 -3.55946 0
M  V30 5133 C 496.581 -2.23087 -4.84838 0
M  V30 5134 O 496.804 -1.22386 -5.57116 0
M  V30 5135 O 495.738 -3.11646 -5.14937 0
M  V30 5136 H 499.564 -2.3412 -1.93446 0
M  V30 5137 H 497.149 -1.19246 -0.900044 0
M  V30 5138 H 499.031 -1.12093 -4.06218 0
M  V30 5139 H 497.706 -0.265919 -3.22606 0
M  V30 5140 H 496.613 -2.53421 -2.75188 0
M  V30 5141 H 497.946 -3.31973 -3.63394 0
M  V30 5142 N 499.598 0.982988 -1.23187 0
M  V30 5143 C 501.009 1.53847 -1.05773 0
M  V30 5144 C 501.36 1.92568 0.375744 0
M  V30 5145 O 500.485 1.75783 1.26211 0
M  V30 5146 C 501.08 2.79567 -1.91384 0
M  V30 5147 C 499.639 3.31524 -1.78238 0
M  V30 5148 C 498.786 2.04534 -1.87246 0
M  V30 5149 H 501.737 0.802962 -1.36888 0
M  V30 5150 H 501.758 3.52317 -1.43711 0
M  V30 5151 H 501.27 2.51353 -2.95708 0
M  V30 5152 H 499.371 3.64623 -0.766875 0
M  V30 5153 H 499.484 4.01457 -2.61475 0
M  V30 5154 H 497.848 2.1855 -1.30797 0
M  V30 5155 H 498.631 1.78706 -2.9312 0
M  V30 5156 N 501.076 1.04316 1.18135 0
M  V30 5157 C 502.008 0.594444 2.21357 0
M  V30 5158 C 503.021 -0.337215 1.59269 0
M  V30 5159 O 504.21 -0.131337 1.78016 0
M  V30 5160 C 501.31 -0.151251 3.38562 0
M  V30 5161 C 500.483 0.788907 4.30227 0
M  V30 5162 C 499.542 0.0860572 5.2613 0
M  V30 5163 O 498.568 0.717302 5.64662 0
M  V30 5164 N 499.77 -1.17969 5.68387 0
M  V30 5165 H 502.535 1.48227 2.60478 0
M  V30 5166 H 500.096 0.92396 1.32946 0
M  V30 5167 H 502.088 -0.631352 3.99745 0
M  V30 5168 H 500.658 -0.940639 2.98112 0
M  V30 5169 H 499.878 1.44882 3.6661 0
M  V30 5170 H 501.166 1.42738 4.88368 0
M  V30 5171 H 500.564 -1.71302 5.3914 0
M  V30 5172 H 499.121 -1.60402 6.31755 0
M  V30 5173 N 502.554 -1.34406 0.822964 0
M  V30 5174 C 503.484 -2.32052 0.259608 0
M  V30 5175 C 504.465 -1.58243 -0.623961 0
M  V30 5176 O 505.65 -1.86224 -0.55083 0
M  V30 5177 C 502.78 -3.42434 -0.579314 0
M  V30 5178 C 501.734 -4.27499 0.20712 0
M  V30 5179 C 501.06 -5.29349 -0.754547 0
M  V30 5180 C 502.36 -5.02758 1.41533 0
M  V30 5181 H 504.054 -2.79418 1.07545 0
M  V30 5182 H 501.6 -1.34338 0.518593 0
M  V30 5183 H 503.553 -4.0976 -0.983612 0
M  V30 5184 H 502.277 -2.93717 -1.4282 0
M  V30 5185 H 500.936 -3.61776 0.592787 0
M  V30 5186 H 500.584 -4.76895 -1.59939 0
M  V30 5187 H 500.284 -5.8714 -0.232561 0
M  V30 5188 H 501.808 -5.99544 -1.1567 0
M  V30 5189 H 503.222 -5.62938 1.08504 0
M  V30 5190 H 501.619 -5.70123 1.87296 0
M  V30 5191 H 502.689 -4.32451 2.1935 0
M  V30 5192 N 504.032 -0.577932 -1.46621 0
M  V30 5193 C 505.26 -0.0671642 -2.06791 0
M  V30 5194 C 505.675 1.23571 -1.42743 0
M  V30 5195 O 505.032 1.74602 -0.531062 0
M  V30 5196 C 505.083 0.110357 -3.61332 0
M  V30 5197 O 504.804 -1.14095 -4.22982 0
M  V30 5198 C 506.305 0.656025 -4.38419 0
M  V30 5199 H 503.525 -0.0552732 -0.66872 0
M  V30 5200 H 506.069 -0.797242 -1.8832 0
M  V30 5201 H 504.224 0.790637 -3.79246 0
M  V30 5202 H 504.638 -0.951742 -5.15793 0
M  V30 5203 H 506.112 0.729438 -5.47159 0
M  V30 5204 H 506.589 1.67195 -4.06131 0
M  V30 5205 H 507.195 0.0107692 -4.25299 0
M  V30 5206 N 505.51 1.54411 -0.315457 0
M  V30 5207 C 506.473 2.22713 0.54142 0
M  V30 5208 C 507.473 1.2179 1.04995 0
M  V30 5209 O 508.663 1.46426 0.943667 0
M  V30 5210 C 505.795 2.92485 1.75116 0
M  V30 5211 H 506.988 2.99849 -0.0555508 0
M  V30 5212 H 504.541 1.56159 -0.0664453 0
M  V30 5213 H 505.276 2.19466 2.38758 0
M  V30 5214 H 505.061 3.66483 1.39401 0
M  V30 5215 H 506.551 3.44548 2.35959 0
M  V30 5216 N 506.988 0.0434614 1.5754 0
M  V30 5217 C 508.399 -0.493343 1.80064 0
M  V30 5218 C 508.75 -1.71388 0.955023 0
M  V30 5219 O 507.875 -2.15736 0.169434 0
M  V30 5220 C 508.47 -0.90179 3.26578 0
M  V30 5221 C 507.029 -1.38362 3.50047 0
M  V30 5222 C 506.176 -0.355129 2.75017 0
M  V30 5223 H 509.127 0.2694 1.56397 0
M  V30 5224 H 509.148 -1.76523 3.37075 0
M  V30 5225 H 508.66 -0.013271 3.88098 0
M  V30 5226 H 506.761 -2.29159 2.93798 0
M  V30 5227 H 506.874 -1.3811 4.58762 0
M  V30 5228 H 505.238 -0.826348 2.40922 0
M  V30 5229 H 506.021 0.525172 3.39259 0
M  V30 5230 N 508.466 -1.55915 -0.229846 0
M  V30 5231 C 509.396 -1.94754 -1.28815 0
M  V30 5232 C 510.377 -0.814657 -1.49323 0
M  V30 5233 O 511.562 -1.07631 -1.61645 0
M  V30 5234 C 508.692 -2.25705 -2.63959 0
M  V30 5235 C 507.646 -3.41406 -2.5812 0
M  V30 5236 C 506.972 -3.57941 -3.97218 0
M  V30 5237 C 508.272 -4.76616 -2.13623 0
M  V30 5238 H 509.966 -2.83404 -0.965547 0
M  V30 5239 H 507.512 -1.36353 -0.463028 0
M  V30 5240 H 509.465 -2.51467 -3.38146 0
M  V30 5241 H 508.189 -1.339 -2.9789 0
M  V30 5242 H 506.848 -3.1568 -1.86391 0
M  V30 5243 H 506.496 -2.63526 -4.28443 0
M  V30 5244 H 506.196 -4.35757 -3.94195 0
M  V30 5245 H 507.72 -3.86042 -4.73079 0
M  V30 5246 H 509.134 -5.01637 -2.77549 0
M  V30 5247 H 507.531 -5.57655 -2.21677 0
M  V30 5248 H 508.601 -4.7253 -1.08829 0
M  V30 5249 N 509.944 0.496216 -1.49584 0
M  V30 5250 C 510.891 1.59722 -1.66606 0
M  V30 5251 C 511.861 1.58158 -0.507477 0
M  V30 5252 O 513.046 1.76072 -0.735076 0
M  V30 5253 C 510.186 2.97844 -1.74308 0
M  V30 5254 C 509.299 3.09388 -3.01502 0
M  V30 5255 C 508.434 4.38271 -3.00153 0
M  V30 5256 C 507.473 4.43466 -4.21906 0
M  V30 5257 N 506.61 5.63784 -4.1844 0
M  V30 5258 H 511.45 1.44515 -2.60613 0
M  V30 5259 H 508.987 0.703048 -1.29212 0
M  V30 5260 H 510.945 3.77907 -1.76754 0
M  V30 5261 H 509.575 3.11743 -0.837619 0
M  V30 5262 H 508.627 2.22357 -3.08645 0
M  V30 5263 H 509.939 3.09085 -3.91494 0
M  V30 5264 H 509.093 5.2666 -3.01188 0
M  V30 5265 H 507.832 4.41146 -2.07947 0
M  V30 5266 H 506.837 3.53478 -4.21109 0
M  V30 5267 H 508.062 4.42303 -5.1531 0
M  V30 5268 H 506.008 5.67491 -3.29074 0
M  V30 5269 H 505.925 5.65118 -5.02173 0
M  V30 5270 H 507.193 6.54367 -4.23585 0
M  V30 5271 N 511.423 1.38739 0.74761 0
M  V30 5272 C 512.37 1.36449 1.86146 0
M  V30 5273 C 513.34 0.226098 1.64554 0
M  V30 5274 O 514.525 0.41926 1.86137 0
M  V30 5275 C 511.665 1.2013 3.23516 0
M  V30 5276 C 510.778 2.43407 3.56899 0
M  V30 5277 C 509.913 2.19773 4.83605 0
M  V30 5278 C 508.952 3.3879 5.09792 0
M  V30 5279 N 508.089 3.14553 6.27695 0
M  V30 5280 H 512.929 2.3167 1.87438 0
M  V30 5281 H 510.466 1.15094 0.916063 0
M  V30 5282 H 512.424 1.08683 4.02795 0
M  V30 5283 H 511.054 0.285453 3.21535 0
M  V30 5284 H 510.106 2.65504 2.72418 0
M  V30 5285 H 511.418 3.32094 3.72176 0
M  V30 5286 H 510.572 2.05496 5.70838 0
M  V30 5287 H 509.311 1.28461 4.70478 0
M  V30 5288 H 508.316 3.53579 4.21025 0
M  V30 5289 H 509.541 4.30986 5.24812 0
M  V30 5290 H 507.487 2.25893 6.1588 0
M  V30 5291 H 507.404 3.96791 6.435 0
M  V30 5292 H 508.672 3.03943 7.17801 0
M  V30 5293 N 512.901 -0.976442 1.23707 0
M  V30 5294 C 514.149 -1.71487 1.06942 0
M  V30 5295 C 514.47 -1.9098 -0.393897 0
M  V30 5296 O 513.74 -1.48128 -1.28198 0
M  V30 5297 H 512.32 -0.635425 0.392739 0
M  V30 5298 H 514.982 -1.17515 1.55487 0
M  V30 5299 H 514.078 -2.70286 1.56051 0
M  V30 5300 N 514.379 -1.04941 -1.1758 0
M  V30 5301 C 515.311 -0.606174 -2.21039 0
M  V30 5302 C 516.324 0.328763 -1.59446 0
M  V30 5303 O 517.513 0.121895 -1.78083 0
M  V30 5304 C 514.613 0.133294 -3.38638 0
M  V30 5305 C 513.786 -0.811711 -4.29802 0
M  V30 5306 C 512.845 -0.113958 -5.26077 0
M  V30 5307 O 511.871 -0.747237 -5.64274 0
M  V30 5308 N 513.073 1.14953 -5.69004 0
M  V30 5309 H 515.838 -1.49606 -2.59689 0
M  V30 5310 H 513.399 -0.930997 -1.32454 0
M  V30 5311 H 515.391 0.610144 -4.00074 0
M  V30 5312 H 513.961 0.924816 -2.98607 0
M  V30 5313 H 513.181 -1.46824 -3.65837 0
M  V30 5314 H 514.469 -1.45326 -4.87604 0
M  V30 5315 H 513.867 1.68441 -5.40041 0
M  V30 5316 H 512.424 1.57049 -6.32597 0
M  V30 5317 N 515.857 1.33968 -0.830081 0
M  V30 5318 C 517.103 1.98357 -0.422191 0
M  V30 5319 C 517.436 1.65633 1.01387 0
M  V30 5320 O 516.711 0.931648 1.70735 0
M  V30 5321 C 516.994 3.54492 -0.633043 0
M  V30 5322 C 516.847 3.96934 -2.11574 0
M  V30 5323 C 518.166 4.40039 -0.0735584 0
M  V30 5324 H 515.285 0.720544 -0.154871 0
M  V30 5325 H 517.927 1.58749 -1.04397 0
M  V30 5326 H 516.077 3.88361 -0.103775 0
M  V30 5327 H 517.749 3.73363 -2.7092 0
M  V30 5328 H 515.992 3.46984 -2.60354 0
M  V30 5329 H 516.663 5.05651 -2.21406 0
M  V30 5330 H 519.139 4.12764 -0.52585 0
M  V30 5331 H 518.015 5.48327 -0.250841 0
M  V30 5332 H 518.276 4.30124 1.02202 0
M  V30 5333 N 517.335 0.585699 1.46312 0
M  V30 5334 C 518.581 0.0725284 2.0267 0
M  V30 5335 C 518.914 -1.28523 1.45586 0
M  V30 5336 O 518.189 -1.84283 0.622101 0
M  V30 5337 C 518.472 0.0099788 3.60099 0
M  V30 5338 C 518.325 1.39685 4.27561 0
M  V30 5339 C 519.644 -0.689117 4.34671 0
M  V30 5340 H 516.763 0.0278307 0.736474 0
M  V30 5341 H 519.405 0.753472 1.74421 0
M  V30 5342 H 517.555 -0.56992 3.84297 0
M  V30 5343 H 519.227 2.02215 4.14617 0
M  V30 5344 H 517.47 1.96374 3.86807 0
M  V30 5345 H 518.141 1.30553 5.36339 0
M  V30 5346 H 520.617 -0.196446 4.15636 0
M  V30 5347 H 519.493 -0.701921 5.44393 0
M  V30 5348 H 519.754 -1.75101 4.05946 0
M  V30 5349 N 518.813 -1.54241 0.323641 0
M  V30 5350 C 520.061 -2.00174 -0.278359 0
M  V30 5351 C 520.382 -1.2134 -1.52648 0
M  V30 5352 O 519.652 -0.315244 -1.93347 0
M  V30 5353 H 518.232 -0.739463 -0.105845 0
M  V30 5354 H 520.894 -1.89864 0.440204 0
M  V30 5355 H 519.99 -3.07486 -0.5347 0
M  V30 5356 N 520.291 -0.0518155 -1.57515 0
M  V30 5357 C 521.519 0.631395 -1.9703 0
M  V30 5358 C 521.934 1.64341 -0.92938 0
M  V30 5359 O 521.291 1.82296 0.0863266 0
M  V30 5360 C 521.342 1.31774 -3.36627 0
M  V30 5361 O 521.063 0.346247 -4.3673 0
M  V30 5362 C 522.564 2.09065 -3.90905 0
M  V30 5363 H 519.784 0.172576 -0.648428 0
M  V30 5364 H 522.328 -0.118306 -2.04158 0
M  V30 5365 H 520.483 2.01867 -3.30649 0
M  V30 5366 H 520.897 0.836226 -5.17791 0
M  V30 5367 H 522.371 2.52508 -4.9086 0
M  V30 5368 H 522.848 2.93908 -3.26366 0
M  V30 5369 H 523.454 1.43882 -4.00223 0
M  V30 5370 N 521.769 1.56035 0.221574 0
M  V30 5371 C 523.018 1.78245 0.944016 0
M  V30 5372 C 523.331 0.620371 1.85501 0
M  V30 5373 O 524.537 0.726103 2.6161 0
M  V30 5374 C 522.993 3.15659 1.7288 0
M  V30 5375 C 522.601 4.39591 0.863942 0
M  V30 5376 C 524.345 3.47195 2.44246 0
M  V30 5377 C 522.252 5.6803 1.64607 0
M  V30 5378 H 521.182 0.664547 0.356222 0
M  V30 5379 H 523.833 1.8243 0.197904 0
M  V30 5380 H 522.215 3.0565 2.51781 0
M  V30 5381 H 523.389 4.60655 0.115464 0
M  V30 5382 H 521.704 4.15572 0.262407 0
M  V30 5383 H 524.301 4.40381 3.03263 0
M  V30 5384 H 524.644 2.69693 3.1713 0
M  V30 5385 H 525.177 3.58533 1.72334 0
M  V30 5386 H 521.916 6.48425 0.960507 0
M  V30 5387 H 521.436 5.51027 2.36917 0
M  V30 5388 H 523.115 6.08203 2.20675 0
M  V30 5389 N 523.247 -0.488276 1.49845 0
M  V30 5390 C 524.524 -1.24959 1.50481 0
M  V30 5391 C 524.904 -2.09735 0.239698 0
M  V30 5392 O 524.252 -2.14865 -0.777524 0
M  V30 5393 C 524.462 -2.0954 2.79095 0
M  V30 5394 C 525.81 -2.68305 3.29086 0
M  V30 5395 O 526.834 -2.19797 2.80299 0
M  V30 5396 O 525.693 -3.56643 4.14087 0
M  V30 5397 H 522.787 -0.566133 0.602845 0
M  V30 5398 H 525.333 -0.501504 1.6212 0
M  V30 5399 H 524.105 -1.46958 3.62656 0
M  V30 5400 H 523.728 -2.91517 2.70377 0
M  V30 5401 N 524.725 -1.39134 -0.740242 0
M  V30 5402 C 525.972 -1.36071 -1.49969 0
M  V30 5403 C 526.3 0.0450245 -1.94448 0
M  V30 5404 O 525.555 1.02482 -1.66721 0
M  V30 5405 C 525.854 -2.27457 -2.75678 0
M  V30 5406 C 525.52 -3.75185 -2.50094 0
M  V30 5407 C 524.182 -4.15439 -2.42825 0
M  V30 5408 C 526.534 -4.68643 -2.28086 0
M  V30 5409 C 523.862 -5.4722 -2.11584 0
M  V30 5410 C 526.214 -6.00695 -1.98363 0
M  V30 5411 C 524.878 -6.40018 -1.8956 0
M  V30 5412 H 524.148 -0.497921 -0.548777 0
M  V30 5413 H 526.795 -1.71599 -0.85007 0
M  V30 5414 H 525.1 -1.8503 -3.45356 0
M  V30 5415 H 526.797 -2.22384 -3.33686 0
M  V30 5416 H 523.387 -3.43279 -2.56627 0
M  V30 5417 H 527.571 -4.3838 -2.32672 0
M  V30 5418 H 522.827 -5.76615 -2.03287 0
M  V30 5419 H 527.001 -6.72644 -1.80341 0
M  V30 5420 H 524.628 -7.42051 -1.65117 0
M  V30 5421 N 526.204 0.969867 -1.24223 0
M  V30 5422 C 527.136 2.0669 -0.99055 0
M  V30 5423 C 528.149 1.62753 0.0392222 0
M  V30 5424 O 529.338 1.77403 -0.197561 0
M  V30 5425 C 526.438 3.35589 -0.472594 0
M  V30 5426 C 525.611 4.08444 -1.56499 0
M  V30 5427 C 524.67 5.15616 -1.05007 0
M  V30 5428 O 523.696 5.41911 -1.7413 0
M  V30 5429 N 524.898 5.80383 0.116641 0
M  V30 5430 H 527.663 2.28855 -1.93508 0
M  V30 5431 H 525.224 1.13733 -1.15223 0
M  V30 5432 H 527.216 4.04542 -0.112919 0
M  V30 5433 H 525.786 3.10311 0.377617 0
M  V30 5434 H 525.006 3.33798 -2.09696 0
M  V30 5435 H 526.294 4.53882 -2.29932 0
M  V30 5436 H 525.692 5.6142 0.694589 0
M  V30 5437 H 524.249 6.50462 0.417483 0
M  V30 5438 N 527.682 1.05563 1.17022 0
M  V30 5439 C 528.612 0.681026 2.23348 0
M  V30 5440 C 529.593 -0.322983 1.67005 0
M  V30 5441 O 530.778 -0.199746 1.9317 0
M  V30 5442 C 527.908 0.0589053 3.4725 0
M  V30 5443 C 526.862 0.988082 4.16438 0
M  V30 5444 C 526.188 0.229646 5.34207 0
M  V30 5445 C 527.488 2.31388 4.68249 0
M  V30 5446 H 529.182 1.56993 2.54938 0
M  V30 5447 H 526.728 0.756302 1.2254 0
M  V30 5448 H 528.681 -0.214982 4.20851 0
M  V30 5449 H 527.405 -0.864968 3.14938 0
M  V30 5450 H 526.064 1.24659 3.44754 0
M  V30 5451 H 525.712 -0.697111 4.98146 0
M  V30 5452 H 525.412 0.848815 5.81437 0
M  V30 5453 H 526.936 -0.0368694 6.10589 0
M  V30 5454 H 528.35 2.09964 5.33468 0
M  V30 5455 H 526.747 2.88736 5.26072 0
M  V30 5456 H 527.817 2.94982 3.84855 0
M  V30 5457 N 529.16 -1.33526 0.837174 0
M  V30 5458 C 530.108 -2.31168 0.257698 0
M  V30 5459 C 531.102 -1.5806 -0.609388 0
M  V30 5460 O 532.308 -1.72941 -0.499139 0
M  V30 5461 H 528.683 -0.74922 0.0646058 0
M  V30 5462 H 530.654 -2.77552 1.09578 0
M  V30 5463 C 529.403 -3.4326 -0.553887 0
M  V30 5464 H 528.726 -3.99665 0.104008 0
M  V30 5465 H 530.166 -4.13782 -0.925219 0
M  V30 5466 C 528.625 -2.88965 -1.73207 0
M  V30 5467 O 529.155 -2.85013 -2.83073 0
M  V30 5468 N 527.361 -2.45596 -1.55342 0
M  V30 5469 H 526.908 -2.49009 -0.659705 0
M  V30 5470 H 526.866 -2.0962 -2.34322 0
M  V30 5471 N 530.638 -0.59345 -1.46 0
M  V30 5472 C 531.886 -0.082988 -2.0193 0
M  V30 5473 C 532.207 1.28569 -1.46612 0
M  V30 5474 O 531.477 1.84629 -0.654909 0
M  V30 5475 H 530.057 -0.0276882 -0.746487 0
M  V30 5476 H 532.719 -0.771657 -1.78973 0
M  V30 5477 H 531.815 -0.022079 -3.12092 0
M  V30 5478 N 532.116 1.54067 -0.331816 0
M  V30 5479 C 533.063 2.24623 0.530372 0
M  V30 5480 C 534.033 1.24009 1.10503 0
M  V30 5481 O 535.218 1.52712 1.14384 0
M  V30 5482 C 532.358 3.01374 1.68129 0
M  V30 5483 C 531.471 4.16821 1.13507 0
M  V30 5484 C 530.606 4.81085 2.25234 0
M  V30 5485 C 529.645 5.88621 1.67903 0
M  V30 5486 N 528.782 6.46713 2.73326 0
M  V30 5487 H 533.622 2.97898 -0.0778607 0
M  V30 5488 H 531.159 1.47014 -0.0501965 0
M  V30 5489 H 533.117 3.44125 2.35868 0
M  V30 5490 H 531.747 2.30419 2.26069 0
M  V30 5491 H 530.799 3.78796 0.348979 0
M  V30 5492 H 532.111 4.94203 0.675633 0
M  V30 5493 H 531.265 5.26846 3.00862 0
M  V30 5494 H 530.004 4.03102 2.74518 0
M  V30 5495 H 529.009 5.42254 0.907773 0
M  V30 5496 H 530.234 6.68506 1.19487 0
M  V30 5497 H 528.18 5.71599 3.21886 0
M  V30 5498 H 528.097 7.19532 2.3197 0
M  V30 5499 H 529.365 6.97129 3.48758 0
M  V30 5500 N 533.594 0.0601682 1.57485 0
M  V30 5501 C 534.819 -0.624416 1.97777 0
M  V30 5502 C 535.244 -1.63051 0.937867 0
M  V30 5503 O 534.602 -1.81036 -0.0978845 0
M  V30 5504 C 534.65 -1.27979 3.37126 0
M  V30 5505 O 533.754 -2.39556 3.35688 0
M  V30 5506 H 533.095 -0.161581 0.64404 0
M  V30 5507 H 535.625 0.131237 2.04179 0
M  V30 5508 H 535.635 -1.62937 3.74053 0
M  V30 5509 H 534.31 -0.542501 4.12347 0
M  V30 5510 H 532.887 -2.06478 3.10517 0
M  V30 5511 N 535.072 -1.5615 -0.213296 0
M  V30 5512 C 536.321 -1.78743 -0.93455 0
M  V30 5513 C 536.634 -0.630199 -1.8517 0
M  V30 5514 O 537.84 -0.739966 -2.61222 0
M  V30 5515 C 536.296 -3.16571 -1.71203 0
M  V30 5516 C 535.904 -4.40043 -0.840617 0
M  V30 5517 C 537.648 -3.48485 -2.42401 0
M  V30 5518 C 535.555 -5.68895 -1.61592 0
M  V30 5519 H 534.485 -0.666426 -0.352692 0
M  V30 5520 H 537.136 -1.82532 -0.188227 0
M  V30 5521 H 535.518 -3.06981 -2.50157 0
M  V30 5522 H 536.692 -4.6071 -0.0910326 0
M  V30 5523 H 535.007 -4.15706 -0.240365 0
M  V30 5524 H 537.604 -4.41983 -3.00924 0
M  V30 5525 H 537.947 -2.71371 -3.15695 0
M  V30 5526 H 538.48 -3.59442 -1.7043 0
M  V30 5527 H 535.219 -6.48925 -0.926106 0
M  V30 5528 H 534.739 -5.52275 -2.33991 0
M  V30 5529 H 536.418 -6.09365 -2.17447 0
M  V30 5530 N 536.55 0.480323 -1.50102 0
M  V30 5531 C 537.46 1.60547 -1.71061 0
M  V30 5532 C 538.476 1.63564 -0.593529 0
M  V30 5533 O 539.652 1.81604 -0.870751 0
M  V30 5534 C 536.717 2.96814 -1.79171 0
M  V30 5535 C 535.778 3.04259 -3.02861 0
M  V30 5536 C 535.011 4.34027 -3.10574 0
M  V30 5537 O 535.234 5.24009 -2.25323 0
M  V30 5538 O 534.168 4.46873 -4.03223 0
M  V30 5539 H 537.994 1.45788 -2.6642 0
M  V30 5540 H 535.579 0.658838 -1.34088 0
M  V30 5541 H 537.461 3.77765 -1.86738 0
M  V30 5542 H 536.136 3.11791 -0.869947 0
M  V30 5543 H 535.043 2.22419 -3.008 0
M  V30 5544 H 536.376 2.94216 -3.94586 0
M  V30 5545 N 538.028 1.39524 0.732853 0
M  V30 5546 C 538.96 1.34318 1.85718 0
M  V30 5547 C 539.973 0.251576 1.60844 0
M  V30 5548 O 541.162 0.510685 1.71039 0
M  V30 5549 C 538.262 1.06334 3.21786 0
M  V30 5550 C 537.435 2.26813 3.73998 0
M  V30 5551 C 536.494 1.95253 4.88634 0
M  V30 5552 O 535.52 2.67957 5.02183 0
M  V30 5553 N 536.722 0.919984 5.73164 0
M  V30 5554 H 539.487 2.3121 1.90688 0
M  V30 5555 H 537.048 1.33654 0.91368 0
M  V30 5556 H 539.04 0.832363 3.96048 0
M  V30 5557 H 537.61 0.181682 3.12072 0
M  V30 5558 H 536.83 2.65849 2.91064 0
M  V30 5559 H 538.118 3.0717 4.05616 0
M  V30 5560 H 537.516 0.317487 5.64808 0
M  V30 5561 H 536.073 0.748905 6.47483 0
M  V30 5562 N 539.506 -0.963266 1.24736 0
M  V30 5563 C 540.922 -1.23273 1.01371 0
M  V30 5564 C 541.122 -1.99618 -0.274776 0
M  V30 5565 O 540.178 -2.32293 -0.989769 0
M  V30 5566 C 541.491 -2.01554 2.23152 0
M  V30 5567 C 543.039 -2.14629 2.27823 0
M  V30 5568 C 543.514 -2.96307 3.49237 0
M  V30 5569 N 545.005 -3.03887 3.49581 0
M  V30 5570 C 545.74 -3.67456 4.40186 0
M  V30 5571 N 545.236 -4.32706 5.41052 0
M  V30 5572 N 547.029 -3.64511 4.27888 0
M  V30 5573 H 539.18 -0.452294 2.07528 0
M  V30 5574 H 541.443 -0.262521 0.910926 0
M  V30 5575 H 541.149 -1.52847 3.1675 0
M  V30 5576 H 541.023 -3.02278 2.25628 0
M  V30 5577 H 543.41 -2.62537 1.34753 0
M  V30 5578 H 543.491 -1.13238 2.2937 0
M  V30 5579 H 543.135 -2.49091 4.42624 0
M  V30 5580 H 543.065 -3.97905 3.44933 0
M  V30 5581 H 545.556 -2.57477 2.76611 0
M  V30 5582 H 545.869 -4.79042 6.06415 0
M  V30 5583 H 544.214 -4.31361 5.44934 0
M  V30 5584 H 547.405 -3.12715 3.4832 0
M  V30 5585 H 547.578 -4.13768 4.98698 0
M  V30 5586 N 540.985 -1.06182 -1.16461 0
M  V30 5587 C 542.396 -0.802426 -1.68576 0
M  V30 5588 C 542.747 0.67412 -1.84255 0
M  V30 5589 O 541.872 1.52303 -1.5373 0
M  V30 5590 C 542.467 -1.45002 -3.06202 0
M  V30 5591 C 541.026 -1.23843 -3.55443 0
M  V30 5592 C 540.173 -1.52724 -2.31454 0
M  V30 5593 H 543.124 -1.22545 -1.00839 0
M  V30 5594 H 543.145 -0.864731 -3.70544 0
M  V30 5595 H 542.657 -2.52466 -2.94759 0
M  V30 5596 H 540.758 -0.183487 -3.72148 0
M  V30 5597 H 540.871 -1.95036 -4.37604 0
M  V30 5598 H 539.235 -0.947726 -2.36411 0
M  V30 5599 H 540.018 -2.61343 -2.22609 0
M  V30 5600 N 542.463 1.3308 -0.844243 0
M  V30 5601 C 543.393 2.3161 -0.296493 0
M  V30 5602 C 544.374 1.59215 0.598707 0
M  V30 5603 O 545.559 1.87077 0.521134 0
M  V30 5604 C 542.689 3.43313 0.524762 0
M  V30 5605 C 541.643 4.27115 -0.275106 0
M  V30 5606 C 540.969 5.30483 0.670236 0
M  V30 5607 C 542.269 5.00443 -1.49514 0
M  V30 5608 H 543.963 2.77672 -1.11976 0
M  V30 5609 H 541.509 1.33496 -0.539899 0
M  V30 5610 H 543.462 4.11273 0.918298 0
M  V30 5611 H 542.186 2.95952 1.3813 0
M  V30 5612 H 540.845 3.60787 -0.650267 0
M  V30 5613 H 540.493 4.79379 1.52332 0
M  V30 5614 H 540.193 5.87435 0.139123 0
M  V30 5615 H 541.717 6.01308 1.06117 0
M  V30 5616 H 543.131 5.61141 -1.17447 0
M  V30 5617 H 541.528 5.67071 -1.96343 0
M  V30 5618 H 542.598 4.28906 -2.26202 0
M  V30 5619 N 543.941 0.601185 1.45683 0
M  V30 5620 C 545.19 0.0914953 2.01492 0
M  V30 5621 C 545.503 -1.28331 1.47616 0
M  V30 5622 O 546.709 -1.88537 1.95362 0
M  V30 5623 C 545.165 0.11291 3.59723 0
M  V30 5624 C 544.773 1.48717 4.22596 0
M  V30 5625 C 546.517 -0.341871 4.23121 0
M  V30 5626 C 544.424 1.46531 5.7296 0
M  V30 5627 H 543.354 0.0304365 0.753385 0
M  V30 5628 H 546.005 0.755568 1.67223 0
M  V30 5629 H 544.387 -0.617692 3.91153 0
M  V30 5630 H 545.561 2.23897 4.02749 0
M  V30 5631 H 543.876 1.88351 3.71366 0
M  V30 5632 H 546.473 -0.377304 5.33367 0
M  V30 5633 H 546.816 -1.36325 3.93346 0
M  V30 5634 H 547.349 0.335256 3.96385 0
M  V30 5635 H 544.088 2.46408 6.07423 0
M  V30 5636 H 543.608 0.755997 5.95017 0
M  V30 5637 H 545.287 1.18618 6.36034 0
M  V30 5638 N 545.419 -1.53889 0.339982 0
M  V30 5639 C 546.665 -2.01152 -0.258003 0
M  V30 5640 C 546.998 -1.22749 -1.50487 0
M  V30 5641 O 546.273 -0.314156 -1.91946 0
M  V30 5642 C 546.556 -3.55468 -0.575717 0
M  V30 5643 C 546.409 -4.44584 0.682996 0
M  V30 5644 C 547.728 -4.1768 -1.38677 0
M  V30 5645 H 544.847 -0.731198 -0.0922992 0
M  V30 5646 H 547.489 -1.84352 0.459814 0
M  V30 5647 H 545.639 -3.69914 -1.18725 0
M  V30 5648 H 547.311 -4.41981 1.32102 0
M  V30 5649 H 545.554 -4.13592 1.3086 0
M  V30 5650 H 546.225 -5.5043 0.416001 0
M  V30 5651 H 548.701 -4.0691 -0.869705 0
M  V30 5652 H 547.577 -5.25734 -1.57783 0
M  V30 5653 H 547.838 -3.72069 -2.38782 0
M  V30 5654 N 546.897 -0.0685191 -1.57451 0
M  V30 5655 C 547.83 0.935736 -2.08133 0
M  V30 5656 C 548.808 1.29317 -0.985698 0
M  V30 5657 O 549.992 1.40304 -1.25886 0
M  V30 5658 C 547.119 2.2448 -2.53627 0
M  V30 5659 C 546.165 2.03917 -3.74593 0
M  V30 5660 S 546.998 1.30154 -5.19442 0
M  V30 5661 C 548.154 2.62346 -5.68265 0
M  V30 5662 H 548.387 0.504473 -2.92989 0
M  V30 5663 H 545.92 0.144169 -1.53725 0
M  V30 5664 H 547.878 2.99718 -2.80499 0
M  V30 5665 H 546.539 2.64731 -1.69045 0
M  V30 5666 H 545.732 3.00788 -4.04404 0
M  V30 5667 H 545.334 1.36815 -3.48077 0
M  V30 5668 H 547.626 3.58448 -5.7491 0
M  V30 5669 H 548.569 2.3715 -6.67207 0
M  V30 5670 H 548.977 2.69401 -4.96068 0
M  V30 5671 N 548.375 1.56261 0.205012 0
M  V30 5672 C 549.285 1.96944 1.27476 0
M  V30 5673 C 550.301 0.875636 1.50362 0
M  V30 5674 O 551.477 1.18058 1.6317 0
M  V30 5675 C 548.542 2.29219 2.60115 0
M  V30 5676 C 547.603 3.52255 2.45387 0
M  V30 5677 C 546.836 3.8298 3.71701 0
M  V30 5678 O 547.059 3.15138 4.75441 0
M  V30 5679 O 545.993 4.76435 3.67823 0
M  V30 5680 H 549.819 2.88144 0.959527 0
M  V30 5681 H 547.404 1.43686 0.409217 0
M  V30 5682 H 549.286 2.51098 3.3842 0
M  V30 5683 H 547.961 1.4119 2.91285 0
M  V30 5684 H 546.868 3.35635 1.65227 0
M  V30 5685 H 548.201 4.40719 2.19152 0
M  V30 5686 N 549.853 -0.472356 1.50355 0
M  V30 5687 C 550.801 -1.59126 1.69651 0
M  V30 5688 C 551.795 -1.59793 0.56237 0
M  V30 5689 O 553.001 -1.63957 0.742832 0
M  V30 5690 H 549.376 -0.528008 0.535454 0
M  V30 5691 H 551.347 -1.40013 2.63513 0
M  V30 5692 C 550.096 -2.97075 1.8067 0
M  V30 5693 H 549.419 -2.9728 2.67329 0
M  V30 5694 H 550.859 -3.74825 1.98197 0
M  V30 5695 C 549.318 -3.32247 0.558016 0
M  V30 5696 O 549.848 -4.00553 -0.303399 0
M  V30 5697 N 548.054 -2.87659 0.412415 0
M  V30 5698 H 547.601 -2.32246 1.11443 0
M  V30 5699 H 547.559 -3.11556 -0.421908 0
M  V30 5700 N 551.331 -1.39911 -0.725443 0
M  V30 5701 C 552.577 -1.37858 -1.48738 0
M  V30 5702 C 552.91 0.0224187 -1.94187 0
M  V30 5703 O 552.185 0.989204 -1.67466 0
M  V30 5704 C 552.468 -2.3594 -2.72038 0
M  V30 5705 C 552.321 -3.85023 -2.32546 0
M  V30 5706 C 553.64 -2.31704 -3.74167 0
M  V30 5707 H 550.759 -0.502074 -0.539528 0
M  V30 5708 H 553.401 -1.70974 -0.828728 0
M  V30 5709 H 551.551 -2.0783 -3.28236 0
M  V30 5710 H 553.223 -4.2392 -1.81905 0
M  V30 5711 H 551.466 -4.01334 -1.64661 0
M  V30 5712 H 552.137 -4.49152 -3.20884 0
M  V30 5713 H 554.613 -2.5658 -3.27576 0
M  V30 5714 H 553.489 -3.02395 -4.58092 0
M  V30 5715 H 553.75 -1.3253 -4.21768 0
M  V30 5716 N 552.809 0.956637 -1.25245 0
M  V30 5717 C 553.719 2.0868 -1.0719 0
M  V30 5718 C 554.735 1.73997 -0.00959074 0
M  V30 5719 O 555.911 2.00301 -0.210104 0
M  V30 5720 C 552.976 3.39754 -0.690526 0
M  V30 5721 C 552.037 3.88316 -1.83055 0
M  V30 5722 C 551.27 5.13134 -1.46728 0
M  V30 5723 O 551.493 5.6925 -0.362029 0
M  V30 5724 O 550.427 5.56356 -2.29677 0
M  V30 5725 H 554.253 2.26813 -2.01965 0
M  V30 5726 H 551.838 1.07098 -1.04165 0
M  V30 5727 H 553.72 4.18543 -0.489871 0
M  V30 5728 H 552.395 3.22896 0.227981 0
M  V30 5729 H 551.302 3.1054 -2.08604 0
M  V30 5730 H 552.635 4.09669 -2.72822 0
M  V30 5731 N 554.287 1.06798 1.15896 0
M  V30 5732 C 555.197 0.694564 2.24083 0
M  V30 5733 C 556.213 -0.291687 1.71538 0
M  V30 5734 O 557.389 -0.139723 2.00915 0
M  V30 5735 C 554.454 0.0921014 3.46578 0
M  V30 5736 C 553.515 1.13087 4.14137 0
M  V30 5737 C 552.748 0.557064 5.30785 0
M  V30 5738 O 552.971 -0.628623 5.66925 0
M  V30 5739 O 551.905 1.29924 5.8771 0
M  V30 5740 H 555.731 1.59663 2.58344 0
M  V30 5741 H 553.316 0.840575 1.2351 0
M  V30 5742 H 555.198 -0.241884 4.20705 0
M  V30 5743 H 553.873 -0.78337 3.14078 0
M  V30 5744 H 552.78 1.51712 3.41957 0
M  V30 5745 H 554.113 1.97805 4.50704 0
M  V30 5746 N 555.766 -1.3263 0.851289 0
M  V30 5747 C 557.014 -1.96978 0.452128 0
M  V30 5748 C 557.335 -1.67715 -0.99482 0
M  V30 5749 O 556.605 -0.98259 -1.69476 0
M  V30 5750 H 555.185 -0.72873 0.164202 0
M  V30 5751 H 557.847 -1.61774 1.08698 0
M  V30 5752 H 556.943 -3.06387 0.594407 0
M  V30 5753 N 557.244 -0.608902 -1.45362 0
M  V30 5754 C 558.492 -0.104401 -2.0183 0
M  V30 5755 C 558.813 1.27007 -1.47967 0
M  V30 5756 O 558.083 1.83924 -0.674455 0
M  V30 5757 H 556.663 -0.0356042 -0.746151 0
M  V30 5758 H 559.325 -0.790596 -1.78145 0
M  V30 5759 H 558.421 -0.0551793 -3.12051 0
M  V30 5760 N 558.722 1.53707 -0.348139 0
M  V30 5761 C 559.969 2.00988 0.246966 0
M  V30 5762 C 560.297 1.23586 1.50189 0
M  V30 5763 O 559.552 0.312817 1.93184 0
M  V30 5764 C 559.851 3.52292 0.602061 0
M  V30 5765 C 559.517 4.47453 -0.556509 0
M  V30 5766 C 558.179 4.73188 -0.874446 0
M  V30 5767 C 560.531 5.03851 -1.33354 0
M  V30 5768 C 557.859 5.52577 -1.9717 0
M  V30 5769 C 560.211 5.84437 -2.42108 0
M  V30 5770 C 558.875 6.08465 -2.74456 0
M  V30 5771 H 558.145 0.735469 0.0903712 0
M  V30 5772 H 560.792 1.85464 -0.477001 0
M  V30 5773 H 559.097 3.65672 1.40681 0
M  V30 5774 H 560.794 3.86337 1.07447 0
M  V30 5775 H 557.384 4.27558 -0.298652 0
M  V30 5776 H 561.568 4.8393 -1.10117 0
M  V30 5777 H 556.824 5.69418 -2.22651 0
M  V30 5778 H 560.998 6.27151 -3.02745 0
M  V30 5779 H 558.625 6.69768 -3.59604 0
M  V30 5780 N 560.2 0.0768682 1.57412 0
M  V30 5781 C 561.447 -0.591085 1.93681 0
M  V30 5782 C 561.775 -1.69311 0.957286 0
M  V30 5783 O 561.03 -1.95682 -0.0262428 0
M  V30 5784 C 561.329 -1.20268 3.36557 0
M  V30 5785 C 560.995 -0.226286 4.50332 0
M  V30 5786 C 559.657 0.0423142 4.81181 0
M  V30 5787 C 562.009 0.441415 5.19327 0
M  V30 5788 C 559.337 0.985616 5.78362 0
M  V30 5789 C 561.689 1.37307 6.17519 0
M  V30 5790 C 560.353 1.65009 6.46783 0
M  V30 5791 H 559.623 -0.216293 0.70873 0
M  V30 5792 H 562.27 0.148824 1.90921 0
M  V30 5793 H 560.575 -2.01844 3.35807 0
M  V30 5794 H 562.272 -1.72688 3.61911 0
M  V30 5795 H 558.862 -0.445821 4.26275 0
M  V30 5796 H 563.046 0.247023 4.95685 0
M  V30 5797 H 558.302 1.20743 5.99359 0
M  V30 5798 H 562.476 1.89637 6.70083 0
M  V30 5799 H 560.103 2.38263 7.21897 0
M  V30 5800 N 561.678 -1.56367 -0.196722 0
M  V30 5801 C 562.926 -1.80172 -0.915554 0
M  V30 5802 C 563.247 -0.649649 -1.8386 0
M  V30 5803 O 562.517 0.332111 -1.93064 0
M  V30 5804 H 561.097 -0.664592 -0.341067 0
M  V30 5805 H 563.759 -1.93844 -0.202622 0
M  V30 5806 H 562.855 -2.7327 -1.50764 0
M  V30 5807 N 563.156 0.464375 -1.50603 0
M  V30 5808 C 564.572 0.798684 -1.38178 0
M  V30 5809 C 564.772 1.96568 -0.44308 0
M  V30 5810 O 563.828 2.52252 0.111814 0
M  V30 5811 C 565.141 1.10444 -2.79683 0
M  V30 5812 C 566.689 1.2105 -2.88645 0
M  V30 5813 C 567.164 1.54934 -4.30998 0
M  V30 5814 N 568.655 1.61913 -4.3398 0
M  V30 5815 C 569.39 1.8965 -5.41129 0
M  V30 5816 N 568.886 2.15361 -6.58477 0
M  V30 5817 N 570.679 1.91207 -5.28579 0
M  V30 5818 H 562.83 -0.304603 -2.10204 0
M  V30 5819 H 565.093 -0.0737804 -0.945125 0
M  V30 5820 H 564.799 0.319934 -3.50242 0
M  V30 5821 H 564.673 2.03896 -3.17342 0
M  V30 5822 H 567.06 1.98567 -2.18301 0
M  V30 5823 H 567.141 0.255613 -2.5452 0
M  V30 5824 H 566.785 0.779549 -5.01882 0
M  V30 5825 H 566.715 2.51584 -4.62615 0
M  V30 5826 H 569.206 1.44055 -3.49366 0
M  V30 5827 H 569.519 2.35818 -7.35941 0
M  V30 5828 H 567.864 2.1274 -6.6164 0
M  V30 5829 H 571.055 1.70622 -4.35897 0
M  V30 5830 H 571.228 2.12488 -6.12171 0
M  V30 5831 N 564.634 1.40294 0.718013 0
M  V30 5832 C 565.88 1.38645 1.48005 0
M  V30 5833 C 566.213 -0.0121202 1.94196 0
M  V30 5834 O 565.488 -0.980309 1.67989 0
M  V30 5835 C 565.771 2.37379 2.70782 0
M  V30 5836 C 565.624 3.8625 2.30501 0
M  V30 5837 C 566.943 2.33685 3.72933 0
M  V30 5838 H 564.062 0.504928 0.536858 0
M  V30 5839 H 566.704 1.71411 0.819649 0
M  V30 5840 H 564.854 2.09568 3.27129 0
M  V30 5841 H 566.526 4.24879 1.79655 0
M  V30 5842 H 564.769 4.02202 1.6253 0
M  V30 5843 H 565.44 4.50847 3.18498 0
M  V30 5844 H 567.916 2.58314 3.2621 0
M  V30 5845 H 566.792 3.0482 4.56482 0
M  V30 5846 H 567.053 1.34765 4.21059 0
M  V30 5847 N 566.112 -0.949982 1.2575 0
M  V30 5848 C 567.358 -1.69822 1.11947 0
M  V30 5849 C 567.713 -1.89455 -0.335334 0
M  V30 5850 O 567.006 -1.45778 -1.24336 0
M  V30 5851 C 567.2 -3.08039 1.81237 0
M  V30 5852 C 567.029 -3.0189 3.33305 0
M  V30 5853 C 565.799 -3.05391 4.02573 0
M  V30 5854 C 567.997 -2.827 4.29634 0
M  V30 5855 N 565.979 -2.89449 5.4138 0
M  V30 5856 C 567.35 -2.75237 5.55558 0
M  V30 5857 C 569.405 -2.67416 4.19992 0
M  V30 5858 C 568.108 -2.54051 6.72942 0
M  V30 5859 C 570.134 -2.47602 5.37073 0
M  V30 5860 C 569.496 -2.40863 6.6194 0
M  V30 5861 H 565.595 -0.629188 0.464378 0
M  V30 5862 H 568.179 -1.1249 1.58916 0
M  V30 5863 H 566.35 -3.63528 1.36756 0
M  V30 5864 H 568.082 -3.71671 1.60134 0
M  V30 5865 H 564.837 -3.14763 3.53866 0
M  V30 5866 H 565.261 -2.84669 6.14241 0
M  V30 5867 H 569.903 -2.71398 3.24196 0
M  V30 5868 H 567.621 -2.48811 7.68842 0
M  V30 5869 H 571.207 -2.36694 5.31477 0
M  V30 5870 H 570.087 -2.25732 7.51009 0
M  V30 5871 N 567.59 -1.07411 -1.15328 0
M  V30 5872 C 568.867 -0.710732 -1.82231 0
M  V30 5873 C 569.247 0.806732 -1.95077 0
M  V30 5874 O 568.595 1.72139 -1.50268 0
M  V30 5875 C 568.805 -1.42586 -3.18544 0
M  V30 5876 C 570.153 -1.57836 -3.94174 0
M  V30 5877 O 571.177 -1.38669 -3.281 0
M  V30 5878 O 570.036 -1.8938 -5.12638 0
M  V30 5879 H 567.13 -0.25297 -0.78736 0
M  V30 5880 H 569.676 -1.17508 -1.22434 0
M  V30 5881 H 568.448 -2.46008 -3.04296 0
M  V30 5882 H 568.071 -0.952332 -3.86026 0
M  V30 5883 N 569.068 1.32177 -0.85831 0
M  V30 5884 C 570.315 1.97125 -0.463484 0
M  V30 5885 C 570.643 1.67907 0.981705 0
M  V30 5886 O 569.898 0.961717 1.70439 0
M  V30 5887 C 570.197 3.51372 -0.653658 0
M  V30 5888 C 569.863 4.00584 -2.06987 0
M  V30 5889 C 568.525 4.13733 -2.4572 0
M  V30 5890 C 570.877 4.26624 -2.99402 0
M  V30 5891 C 568.205 4.50268 -3.76132 0
M  V30 5892 C 570.557 4.64618 -4.29316 0
M  V30 5893 C 569.221 4.75975 -4.67979 0
M  V30 5894 H 568.491 0.72133 -0.169601 0
M  V30 5895 H 571.138 1.57517 -1.08907 0
M  V30 5896 H 569.443 3.91761 0.0551328 0
M  V30 5897 H 571.14 3.99655 -0.328163 0
M  V30 5898 H 567.73 3.90837 -1.75911 0
M  V30 5899 H 571.914 4.1597 -2.70708 0
M  V30 5900 H 567.17 4.57256 -4.05865 0
M  V30 5901 H 571.344 4.83722 -5.00985 0
M  V30 5902 H 568.971 5.04041 -5.69076 0
M  V30 5903 N 570.547 0.616602 1.45037 0
M  V30 5904 C 571.793 0.115501 2.02471 0
M  V30 5905 C 572.126 -1.25406 1.4828 0
M  V30 5906 O 571.401 -1.82922 0.661051 0
M  V30 5907 C 571.684 0.0863588 3.59996 0
M  V30 5908 C 571.537 1.48723 4.24501 0
M  V30 5909 C 572.856 -0.596762 4.36035 0
M  V30 5910 H 569.975 0.0434461 0.735718 0
M  V30 5911 H 572.617 0.7903 1.72784 0
M  V30 5912 H 570.767 -0.488277 3.85419 0
M  V30 5913 H 572.439 2.10964 4.10234 0
M  V30 5914 H 570.682 2.04534 3.82555 0
M  V30 5915 H 571.353 1.419 5.3345 0
M  V30 5916 H 573.829 -0.10824 4.15959 0
M  V30 5917 H 572.705 -0.586289 5.4576 0
M  V30 5918 H 572.966 -1.66451 4.09569 0
M  V30 5919 N 572.025 -1.5352 0.356285 0
M  V30 5920 C 572.958 -2.2177 -0.537913 0
M  V30 5921 C 573.936 -1.20626 -1.09033 0
M  V30 5922 O 575.12 -1.49494 -1.1482 0
M  V30 5923 C 572.247 -2.90513 -1.74126 0
M  V30 5924 C 571.293 -4.05652 -1.31715 0
M  V30 5925 S 572.126 -5.34505 -0.326236 0
M  V30 5926 C 573.282 -6.06757 -1.53612 0
M  V30 5927 H 573.515 -2.97271 0.0417411 0
M  V30 5928 H 571.048 -1.53761 0.140372 0
M  V30 5929 H 573.006 -3.30735 -2.43155 0
M  V30 5930 H 571.667 -2.14754 -2.29215 0
M  V30 5931 H 570.86 -4.52733 -2.21471 0
M  V30 5932 H 570.462 -3.67272 -0.706183 0
M  V30 5933 H 572.754 -6.30924 -2.46863 0
M  V30 5934 H 573.697 -6.99395 -1.10687 0
M  V30 5935 H 574.105 -5.3708 -1.73796 0
M  V30 5936 N 573.503 -0.0852151 -1.57369 0
M  V30 5937 C 574.436 0.913608 -2.09113 0
M  V30 5938 C 575.414 1.28264 -0.999358 0
M  V30 5939 O 576.598 1.3896 -1.27367 0
M  V30 5940 C 573.725 2.21777 -2.55993 0
M  V30 5941 C 572.771 1.99932 -3.76735 0
M  V30 5942 S 573.604 1.24637 -5.20794 0
M  V30 5943 C 574.76 2.56304 -5.71016 0
M  V30 5944 H 574.993 0.473369 -2.93507 0
M  V30 5945 H 572.526 0.127856 -1.5387 0
M  V30 5946 H 574.484 2.96726 -2.83662 0
M  V30 5947 H 573.145 2.62923 -1.71843 0
M  V30 5948 H 572.338 2.96482 -4.07571 0
M  V30 5949 H 571.94 1.33116 -3.49509 0
M  V30 5950 H 574.232 3.5233 -5.78679 0
M  V30 5951 H 575.175 2.3006 -6.69685 0
M  V30 5952 H 575.583 2.64125 -4.98897 0
M  V30 5953 N 574.981 1.5647 0.188427 0
M  V30 5954 C 575.928 1.95073 1.23349 0
M  V30 5955 C 576.898 0.812238 1.44886 0
M  V30 5956 O 578.083 1.07095 1.57909 0
M  V30 5957 C 575.223 2.30124 2.57171 0
M  V30 5958 C 574.336 3.57069 2.43157 0
M  V30 5959 C 573.471 3.81411 3.69729 0
M  V30 5960 C 572.51 5.0176 3.50575 0
M  V30 5961 N 571.647 5.22321 4.69175 0
M  V30 5962 H 576.487 2.84171 0.89728 0
M  V30 5963 H 574.024 1.40623 0.431683 0
M  V30 5964 H 575.982 2.48463 3.35145 0
M  V30 5965 H 574.612 1.44159 2.88822 0
M  V30 5966 H 573.664 3.4674 1.56447 0
M  V30 5967 H 574.976 4.452 2.24942 0
M  V30 5968 H 574.13 4.00026 4.56141 0
M  V30 5969 H 572.869 2.91624 3.90905 0
M  V30 5970 H 571.874 4.83061 2.62549 0
M  V30 5971 H 573.099 5.93063 3.30837 0
M  V30 5972 H 571.045 4.35483 4.90602 0
M  V30 5973 H 570.962 6.04643 4.53809 0
M  V30 5974 H 572.23 5.45401 5.56919 0
M  V30 5975 N 576.459 -0.456382 1.50847 0
M  V30 5976 C 577.706 -1.20736 1.62571 0
M  V30 5977 C 578.034 -1.9163 0.332904 0
M  V30 5978 O 577.289 -1.8343 -0.682058 0
M  V30 5979 C 577.588 -2.26336 2.76599 0
M  V30 5980 C 577.254 -1.7259 4.16562 0
M  V30 5981 C 575.916 -1.57654 4.54641 0
M  V30 5982 C 578.268 -1.32877 5.03977 0
M  V30 5983 C 575.596 -1.0145 5.77862 0
M  V30 5984 C 577.948 -0.7811 6.27759 0
M  V30 5985 C 576.612 -0.618488 6.64628 0
M  V30 5986 H 575.882 -0.441803 0.594888 0
M  V30 5987 H 578.529 -0.501169 1.84826 0
M  V30 5988 H 576.834 -3.0292 2.48489 0
M  V30 5989 H 578.531 -2.84227 2.82871 0
M  V30 5990 H 575.121 -1.85187 3.86528 0
M  V30 5991 H 579.305 -1.43245 4.75179 0
M  V30 5992 H 574.561 -0.876109 6.0509 0
M  V30 5993 H 578.735 -0.464783 6.94847 0
M  V30 5994 H 576.362 -0.180838 7.59985 0
M  V30 5995 N 577.937 -1.40673 -0.710563 0
M  V30 5996 C 578.887 -1.37812 -1.81636 0
M  V30 5997 C 579.871 -0.254853 -1.58869 0
M  V30 5998 O 581.063 -0.494356 -1.69956 0
M  V30 5999 C 578.192 -1.24802 -3.19811 0
M  V30 6000 C 577.278 -2.41931 -3.48325 0
M  V30 6001 N 577.669 -3.67411 -3.47625 0
M  V30 6002 C 575.967 -2.35419 -3.78806 0
M  V30 6003 C 576.668 -4.45008 -3.74623 0
M  V30 6004 N 575.644 -3.74916 -3.93623 0
M  V30 6005 H 579.446 -2.32766 -1.79436 0
M  V30 6006 H 576.96 -1.34516 -0.909909 0
M  V30 6007 H 578.957 -1.20835 -3.99004 0
M  V30 6008 H 577.617 -0.308202 -3.23234 0
M  V30 6009 H 578.628 -4.00503 -3.28356 0
M  V30 6010 H 575.305 -1.4983 -3.89689 0
M  V30 6011 H 576.695 -5.53884 -3.80344 0
M  V30 6012 N 579.415 0.9433 -1.26252 0
M  V30 6013 C 580.347 2.04542 -1.03417 0
M  V30 6014 C 581.36 1.62799 0.0046911 0
M  V30 6015 O 582.549 1.76944 -0.235146 0
M  V30 6016 C 579.649 3.34511 -0.543671 0
M  V30 6017 C 578.822 4.05033 -1.65128 0
M  V30 6018 C 577.881 5.13273 -1.1592 0
M  V30 6019 O 576.907 5.38095 -1.85586 0
M  V30 6020 N 578.109 5.805 -0.00649279 0
M  V30 6021 H 580.874 2.24699 -1.98319 0
M  V30 6022 H 578.435 1.11264 -1.1761 0
M  V30 6023 H 580.427 4.04212 -0.198703 0
M  V30 6024 H 578.997 3.11042 0.311711 0
M  V30 6025 H 578.217 3.29275 -2.16729 0
M  V30 6026 H 579.505 4.48903 -2.39508 0
M  V30 6027 H 578.903 5.62767 0.575347 0
M  V30 6028 H 577.46 6.51201 0.279416 0
M  V30 6029 N 580.893 1.08022 1.14757 0
M  V30 6030 C 582.139 0.818552 1.86202 0
M  V30 6031 C 582.494 -0.648563 1.81139 0
M  V30 6032 O 581.787 -1.4704 1.22841 0
M  V30 6033 C 581.981 1.26964 3.34088 0
M  V30 6034 C 581.81 2.77907 3.5355 0
M  V30 6035 C 580.58 3.45604 3.68627 0
M  V30 6036 C 582.778 3.7609 3.50801 0
M  V30 6037 N 580.76 4.85119 3.76209 0
M  V30 6038 C 582.131 5.0148 3.64579 0
M  V30 6039 C 584.186 3.6915 3.34115 0
M  V30 6040 C 582.889 6.20755 3.63395 0
M  V30 6041 C 584.915 4.87896 3.34233 0
M  V30 6042 C 584.277 6.12123 3.48547 0
M  V30 6043 H 580.376 0.352186 0.698204 0
M  V30 6044 H 582.96 1.37781 1.37567 0
M  V30 6045 H 581.131 0.738008 3.81324 0
M  V30 6046 H 582.863 0.954806 3.93275 0
M  V30 6047 H 579.618 2.96016 3.69691 0
M  V30 6048 H 580.042 5.57748 3.83726 0
M  V30 6049 H 584.684 2.74045 3.21961 0
M  V30 6050 H 582.402 7.16175 3.74326 0
M  V30 6051 H 585.988 4.8421 3.2254 0
M  V30 6052 H 584.868 7.02468 3.48581 0
M  V30 6053 N 582.371 -1.3172 0.865308 0
M  V30 6054 C 583.618 -1.96876 0.473931 0
M  V30 6055 C 583.946 -1.68425 -0.972786 0
M  V30 6056 O 583.201 -0.970742 -1.69927 0
M  V30 6057 C 583.5 -3.5102 0.672283 0
M  V30 6058 C 583.166 -3.9948 2.09108 0
M  V30 6059 C 581.828 -4.12425 2.4791 0
M  V30 6060 C 584.18 -4.2503 3.0166 0
M  V30 6061 C 581.508 -4.48267 3.78515 0
M  V30 6062 C 583.86 -4.62335 4.31774 0
M  V30 6063 C 582.524 -4.73486 4.70497 0
M  V30 6064 H 581.794 -0.72042 0.173424 0
M  V30 6065 H 584.441 -1.56937 1.0974 0
M  V30 6066 H 582.746 -3.91785 -0.034356 0
M  V30 6067 H 584.443 -3.99475 0.349353 0
M  V30 6068 H 581.033 -3.89898 1.77981 0
M  V30 6069 H 585.217 -4.14529 2.7291 0
M  V30 6070 H 580.473 -4.55097 4.08285 0
M  V30 6071 H 584.647 -4.81058 5.03543 0
M  V30 6072 H 582.274 -5.01016 5.71741 0
M  V30 6073 N 583.85 -0.624285 -1.44708 0
M  V30 6074 C 585.098 -0.125802 -2.01708 0
M  V30 6075 C 585.418 1.2543 -1.49306 0
M  V30 6076 O 584.689 1.83198 -0.693924 0
M  V30 6077 H 583.269 -0.0435161 -0.745731 0
M  V30 6078 H 585.931 -0.809446 -1.77296 0
M  V30 6079 H 585.027 -0.0882734 -3.11975 0
M  V30 6080 N 585.328 1.53329 -0.364422 0
M  V30 6081 C 586.553 2.06132 0.229033 0
M  V30 6082 C 586.978 1.23625 1.41769 0
M  V30 6083 O 586.336 0.255038 1.79497 0
M  V30 6084 C 586.384 3.55544 0.60174 0
M  V30 6085 O 585.488 3.75771 1.69912 0
M  V30 6086 H 584.829 0.663148 0.0336213 0
M  V30 6087 H 587.359 1.97758 -0.524689 0
M  V30 6088 H 587.369 3.98549 0.873073 0
M  V30 6089 H 586.044 4.15039 -0.267421 0
M  V30 6090 H 584.621 3.44663 1.42343 0
M  V30 6091 N 586.806 0.0935595 1.57322 0
M  V30 6092 C 588.052 -0.565234 1.95388 0
M  V30 6093 C 588.407 -1.65888 0.974632 0
M  V30 6094 O 587.7 -1.916 0.000376385 0
M  V30 6095 C 587.894 -1.16692 3.37813 0
M  V30 6096 C 587.723 -0.133091 4.49503 0
M  V30 6097 C 586.493 0.289884 5.04468 0
M  V30 6098 C 588.691 0.638141 5.10326 0
M  V30 6099 N 586.673 1.31214 5.99713 0
M  V30 6100 C 588.044 1.51227 6.01274 0
M  V30 6101 C 590.099 0.691827 4.9307 0
M  V30 6102 C 588.802 2.43536 6.76818 0
M  V30 6103 C 590.828 1.60251 5.69274 0
M  V30 6104 C 590.19 2.46427 6.59889 0
M  V30 6105 H 586.289 -0.177212 0.761656 0
M  V30 6106 H 588.873 0.175769 1.93905 0
M  V30 6107 H 587.044 -1.87775 3.39993 0
M  V30 6108 H 588.776 -1.78795 3.63063 0
M  V30 6109 H 585.531 -0.0975541 4.735 0
M  V30 6110 H 585.955 1.82143 6.52038 0
M  V30 6111 H 590.597 0.0397431 4.22781 0
M  V30 6112 H 588.315 3.0977 7.4637 0
M  V30 6113 H 591.901 1.64917 5.57937 0
M  V30 6114 H 590.781 3.15751 7.17824 0
M  V30 6115 N 588.284 -1.56567 -0.180126 0
M  V30 6116 C 589.531 -1.81492 -0.898167 0
M  V30 6117 C 589.859 -0.669225 -1.82624 0
M  V30 6118 O 589.114 0.344096 -1.92651 0
M  V30 6119 C 589.413 -3.1252 -1.73395 0
M  V30 6120 C 589.079 -4.40658 -0.955567 0
M  V30 6121 C 587.741 -4.75465 -0.740707 0
M  V30 6122 C 590.093 -5.19593 -0.408948 0
M  V30 6123 C 587.421 -5.86691 0.0320128 0
M  V30 6124 C 589.773 -6.31627 0.350638 0
M  V30 6125 C 588.437 -6.65007 0.576378 0
M  V30 6126 H 587.707 -0.664125 -0.328662 0
M  V30 6127 H 590.354 -1.908 -0.163616 0
M  V30 6128 H 588.659 -2.98515 -2.53763 0
M  V30 6129 H 590.356 -3.29013 -2.29241 0
M  V30 6130 H 586.946 -4.13352 -1.13306 0
M  V30 6131 H 591.13 -4.93104 -0.562307 0
M  V30 6132 H 586.386 -6.11016 0.216735 0
M  V30 6133 H 590.56 -6.92001 0.781497 0
M  V30 6134 H 588.187 -7.51033 1.17703 0
M  V30 6135 N 589.762 0.448376 -1.51087 0
M  V30 6136 C 590.987 1.22605 -1.6728 0
M  V30 6137 C 591.412 1.84524 -0.365045 0
M  V30 6138 O 590.77 1.6832 0.673642 0
M  V30 6139 C 590.818 2.29393 -2.78229 0
M  V30 6140 O 589.922 3.34608 -2.41063 0
M  V30 6141 H 589.263 0.359705 -0.558129 0
M  V30 6142 H 591.793 0.530903 -1.97592 0
M  V30 6143 H 591.803 2.74352 -3.01986 0
M  V30 6144 H 590.478 1.83701 -3.73131 0
M  V30 6145 H 589.055 2.95202 -2.27838 0
M  V30 6146 O 591.279 1.50177 0.59407 0
M  V30 6147 H 591.97 1.48064 1.24887 0
M  V30 END ATOM
M  V30 BEGIN BOND
M  V30 END BOND
M  V30 END CTAB
M  END
$$$$
