drugbank_target|Q9UBM7 7-dehydrocholesterol reductase (DB00157)
 OpenBabel12092119223D

  0  0  0     0  0            999 V3000
M  V30 BEGIN CTAB
M  V30 COUNTS 7662 7800 0 0 0
M  V30 BEGIN ATOM
M  V30 1 H -0.908 1.98254 -0.117106 0
M  V30 2 N 0 1.576 0 0
M  V30 3 C 0.933 2.03868 1.02534 0
M  V30 4 C 1.911 0.928543 1.3348 0
M  V30 5 O 3.095 1.19667 1.45644 0
M  V30 6 C 0.222 2.43627 2.35294 0
M  V30 7 C -0.732 3.65373 2.2001 0
M  V30 8 S 0.101 5.13292 1.52614 0
M  V30 9 C 1.257 5.56322 2.86805 0
M  V30 10 H 1.49 2.90518 0.631377 0
M  V30 11 H -0.977 1.52953 0.210867 0
M  V30 12 H 0.981 2.67203 3.11629 0
M  V30 13 H -0.358 1.57376 2.7183 0
M  V30 14 H -1.165 3.90944 3.18086 0
M  V30 15 H -1.563 3.418 1.51819 0
M  V30 16 H 0.729 5.58782 3.83104 0
M  V30 17 H 1.672 6.56266 2.65933 0
M  V30 18 H 2.08 4.83886 2.90714 0
M  V30 19 N 1.4781 -0.272755 1.55222 0
M  V30 20 C 2.4411 -1.32041 1.87344 0
M  V30 21 C 3.4411 -1.42342 0.74803 0
M  V30 22 O 4.6311 -1.41488 1.0162 0
M  V30 23 C 1.7631 -2.70173 2.07893 0
M  V30 24 H 2.9561 -1.04789 2.80997 0
M  V30 25 H 0.5091 -0.51083 1.47717 0
M  V30 26 H 1.2441 -3.02605 1.16622 0
M  V30 27 H 1.0291 -2.64082 2.89833 0
M  V30 28 H 2.5191 -3.45869 2.34017 0
M  V30 29 N 2.9562 -1.48159 -0.537278 0
M  V30 30 C 3.9192 -1.61665 -1.62472 0
M  V30 31 C 4.9192 -0.490395 -1.5314 0
M  V30 32 O 6.1092 -0.755998 -1.5694 0
M  V30 33 C 3.2412 -1.57997 -3.02076 0
M  V30 34 H 4.4342 -2.58621 -1.51839 0
M  V30 35 H 1.9872 -1.36647 -0.758771 0
M  V30 36 H 2.7222 -0.624913 -3.18222 0
M  V30 37 H 2.5072 -2.39755 -3.10258 0
M  V30 38 H 3.9972 -1.70627 -3.81151 0
M  V30 39 N 4.4343 0.785586 -1.36625 0
M  V30 40 C 5.3813 1.89838 -1.31264 0
M  V30 41 C 6.3513 1.65115 -0.180633 0
M  V30 42 O 7.5363 1.87222 -0.36777 0
M  V30 43 C 4.6763 3.26706 -1.11163 0
M  V30 44 C 3.7893 3.63476 -2.33472 0
M  V30 45 C 2.9243 4.89481 -2.06353 0
M  V30 46 C 1.9633 5.18941 -3.24602 0
M  V30 47 N 1.1003 6.36131 -2.97123 0
M  V30 48 H 5.9403 1.93756 -2.26413 0
M  V30 49 H 3.4773 0.947454 -1.12524 0
M  V30 50 H 5.4353 4.05639 -0.975337 0
M  V30 51 H 4.0653 3.222 -0.196674 0
M  V30 52 H 3.1173 2.79636 -2.57891 0
M  V30 53 H 4.4293 3.81193 -3.21704 0
M  V30 54 H 3.5833 5.76288 -1.89675 0
M  V30 55 H 2.3223 4.73841 -1.15437 0
M  V30 56 H 1.3273 4.30615 -3.41834 0
M  V30 57 H 2.5523 5.36498 -4.16349 0
M  V30 58 H 0.4983 6.21875 -2.08823 0
M  V30 59 H 0.4153 6.54198 -3.78894 0
M  V30 60 H 1.6833 7.2591 -2.84033 0
M  V30 61 N 5.9124 1.20967 1.01018 0
M  V30 62 C 7.1374 1.0503 1.78839 0
M  V30 63 C 7.5624 -0.395752 1.8389 0
M  V30 64 O 6.9204 -1.28529 1.27867 0
M  V30 65 C 6.9684 1.64602 3.2084 0
M  V30 66 O 6.0724 0.887988 4.02726 0
M  V30 67 H 5.4134 0.369987 0.551367 0
M  V30 68 H 7.9434 1.60399 1.27018 0
M  V30 69 H 7.9534 1.68607 3.71532 0
M  V30 70 H 6.6284 2.69841 3.16479 0
M  V30 71 H 5.2054 0.922648 3.61305 0
M  V30 72 N 7.3905 -1.2043 1.01659 0
M  V30 73 C 8.3225 -2.22626 0.544988 0
M  V30 74 C 9.3355 -1.58479 -0.372609 0
M  V30 75 O 10.5245 -1.77679 -0.170958 0
M  V30 76 C 7.6245 -3.38141 -0.22663 0
M  V30 77 C 6.7975 -4.31877 0.692876 0
M  V30 78 C 5.8565 -5.26191 -0.0311616 0
M  V30 79 O 4.8825 -5.6612 0.591343 0
M  V30 80 N 6.0845 -5.65618 -1.30601 0
M  V30 81 H 8.8495 -2.63716 1.42388 0
M  V30 82 H 6.4105 -1.34971 0.894116 0
M  V30 83 H 8.4025 -3.98239 -0.72024 0
M  V30 84 H 6.9725 -2.95943 -1.00681 0
M  V30 85 H 6.1925 -3.69746 1.36679 0
M  V30 86 H 7.4805 -4.91426 1.31824 0
M  V30 87 H 6.8785 -5.3519 -1.83269 0
M  V30 88 H 5.4355 -6.28025 -1.74435 0
M  V30 89 N 8.8686 -0.792821 -1.36206 0
M  V30 90 C 10.2796 -0.429513 -1.81692 0
M  V30 91 C 10.6306 1.04695 -1.65932 0
M  V30 92 O 9.7556 1.81256 -1.18218 0
M  V30 93 C 10.3506 -0.772831 -3.29868 0
M  V30 94 C 8.9096 -0.462307 -3.7355 0
M  V30 95 C 8.0566 -1.00569 -2.5842 0
M  V30 96 H 11.0076 -0.985672 -1.24379 0
M  V30 97 H 11.0286 -0.0651928 -3.80444 0
M  V30 98 H 10.5406 -1.84747 -3.41307 0
M  V30 99 H 8.6416 0.604158 -3.67669 0
M  V30 100 H 8.7546 -0.985299 -4.68859 0
M  V30 101 H 7.1186 -0.428734 -2.51066 0
M  V30 102 H 7.9016 -2.08616 -2.72643 0
M  V30 103 N 10.3467 1.47872 -0.545128 0
M  V30 104 C 11.2947 2.31533 0.222512 0
M  V30 105 C 12.2887 1.42177 0.920985 0
M  V30 106 O 13.4947 1.59005 0.843645 0
M  V30 107 H 9.8697 0.746519 0.0906278 0
M  V30 108 H 11.8407 2.94139 -0.50246 0
M  V30 109 C 10.5897 3.2457 1.24699 0
M  V30 110 H 9.9127 3.93283 0.718944 0
M  V30 111 H 11.3527 3.85963 1.75523 0
M  V30 112 C 9.8117 2.47237 2.28856 0
M  V30 113 O 10.3417 2.20808 3.35569 0
M  V30 114 N 8.5477 2.08461 2.02466 0
M  V30 115 H 8.0947 2.30155 1.157 0
M  V30 116 H 8.0527 1.57033 2.72375 0
M  V30 117 N 11.8248 0.280983 1.55075 0
M  V30 118 C 13.0738 -0.334784 1.98902 0
M  V30 119 C 13.3868 -1.56534 1.17288 0
M  V30 120 O 14.5928 -2.25443 1.51287 0
M  V30 121 C 13.0488 -0.646994 3.54037 0
M  V30 122 C 12.6568 0.564085 4.44435 0
M  V30 123 C 14.4008 -1.22506 4.06439 0
M  V30 124 C 12.3078 0.226137 5.90967 0
M  V30 125 H 11.2378 -0.128866 0.742906 0
M  V30 126 H 13.8888 0.386556 1.79382 0
M  V30 127 H 12.2708 -1.42739 3.6938 0
M  V30 128 H 13.4448 1.34082 4.40861 0
M  V30 129 H 11.7598 1.0594 4.02698 0
M  V30 130 H 14.3568 -1.49182 5.13468 0
M  V30 131 H 14.6998 -2.16085 3.55827 0
M  V30 132 H 15.2328 -0.50682 3.94558 0
M  V30 133 H 11.9718 1.12996 6.45687 0
M  V30 134 H 11.4918 -0.513717 5.97596 0
M  V30 135 H 13.1708 -0.179539 6.46751 0
M  V30 136 N 13.3029 -1.57598 0.00835791 0
M  V30 137 C 14.7139 -1.7892 -0.53333 0
M  V30 138 C 15.0649 -0.916609 -1.73473 0
M  V30 139 O 14.1899 -0.121336 -2.1606 0
M  V30 140 C 14.7849 -3.24488 -0.974313 0
M  V30 141 C 13.3439 -3.46878 -1.46125 0
M  V30 142 C 12.4909 -2.74157 -0.416302 0
M  V30 143 H 15.4419 -1.56958 0.234495 0
M  V30 144 H 15.4629 -3.3306 -1.83988 0
M  V30 145 H 14.9749 -3.87972 -0.099718 0
M  V30 146 H 13.0759 -2.8862 -2.35646 0
M  V30 147 H 13.1889 -4.55572 -1.48295 0
M  V30 148 H 11.5529 -2.39022 -0.87981 0
M  V30 149 H 12.3359 -3.40345 0.44947 0
M  V30 150 N 14.781 0.264519 -1.55364 0
M  V30 151 C 15.728 1.32717 -1.88825 0
M  V30 152 C 16.698 1.48675 -0.740605 0
M  V30 153 O 17.883 1.62945 -0.992657 0
M  V30 154 C 15.023 2.68089 -2.17307 0
M  V30 155 C 14.136 2.60284 -3.44785 0
M  V30 156 C 13.271 3.87892 -3.62924 0
M  V30 157 C 12.31 3.74631 -4.84064 0
M  V30 158 N 11.447 4.94092 -4.98816 0
M  V30 159 H 16.287 1.03481 -2.79456 0
M  V30 160 H 13.824 0.499757 -1.3835 0
M  V30 161 H 15.782 3.46864 -2.31821 0
M  V30 162 H 14.412 2.95509 -1.299 0
M  V30 163 H 13.464 1.73173 -3.38697 0
M  V30 164 H 14.776 2.46388 -4.33698 0
M  V30 165 H 13.93 4.75109 -3.77302 0
M  V30 166 H 12.669 4.04664 -2.7221 0
M  V30 167 H 11.674 2.85797 -4.69681 0
M  V30 168 H 12.899 3.5937 -5.76221 0
M  V30 169 H 10.845 5.11259 -4.11036 0
M  V30 170 H 10.762 4.8276 -5.81789 0
M  V30 171 H 12.03 5.82857 -5.17588 0
M  V30 172 N 16.2591 1.48442 0.529413 0
M  V30 173 C 17.2221 1.62524 1.61612 0
M  V30 174 C 18.2221 0.498509 1.52877 0
M  V30 175 O 19.4121 0.76431 1.56537 0
M  V30 176 C 16.5441 1.59597 3.01233 0
M  V30 177 H 17.7371 2.59423 1.50465 0
M  V30 178 H 15.2901 1.37047 0.751514 0
M  V30 179 H 16.0251 0.641781 3.17886 0
M  V30 180 H 15.8101 2.41397 3.08982 0
M  V30 181 H 17.3001 1.72646 3.80241 0
M  V30 182 N 17.7372 -0.778329 1.37039 0
M  V30 183 C 18.6842 -1.89139 1.32269 0
M  V30 184 C 19.6542 -1.65017 0.189387 0
M  V30 185 O 20.8392 -1.87024 0.377693 0
M  V30 186 C 17.9792 -3.26112 1.12894 0
M  V30 187 C 17.0922 -3.62233 2.35396 0
M  V30 188 C 16.2272 -4.8838 2.08946 0
M  V30 189 C 15.2662 -5.17212 3.2735 0
M  V30 190 N 14.4032 -6.34546 3.00492 0
M  V30 191 H 19.2432 -1.92552 2.27437 0
M  V30 192 H 16.7802 -0.941473 1.13025 0
M  V30 193 H 18.7382 -4.05116 0.996835 0
M  V30 194 H 17.3682 -3.22091 0.213758 0
M  V30 195 H 16.4202 -2.78265 2.5937 0
M  V30 196 H 17.7322 -3.79481 3.23721 0
M  V30 197 H 16.8862 -5.75274 1.92729 0
M  V30 198 H 15.6252 -4.73222 1.17949 0
M  V30 199 H 14.6302 -4.28796 3.44113 0
M  V30 200 H 15.8552 -5.34283 4.19188 0
M  V30 201 H 13.8012 -6.20759 2.12118 0
M  V30 202 H 13.7182 -6.52179 3.82358 0
M  V30 203 H 14.9862 -7.24394 2.87879 0
M  V30 204 N 19.2153 -1.21501 -1.00376 0
M  V30 205 C 20.4403 -1.05977 -1.78279 0
M  V30 206 C 20.8653 0.385994 -1.84097 0
M  V30 207 O 20.2233 1.27849 -1.28547 0
M  V30 208 C 20.2713 -1.66302 -3.19963 0
M  V30 209 O 19.3753 -0.909333 -4.0225 0
M  V30 210 H 18.7163 -0.372906 -0.549397 0
M  V30 211 H 21.2463 -1.6107 -1.26165 0
M  V30 212 H 21.2563 -1.70574 -3.70632 0
M  V30 213 H 19.9313 -2.71515 -3.15043 0
M  V30 214 H 18.5083 -0.941795 -3.60811 0
M  V30 215 N 20.6934 1.19889 -1.02296 0
M  V30 216 C 21.6234 2.25141 -0.619174 0
M  V30 217 C 22.6044 1.66051 0.368915 0
M  V30 218 O 23.7894 1.92546 0.252941 0
M  V30 219 C 20.9194 3.4728 0.0368783 0
M  V30 220 C 19.8734 4.19005 -0.872865 0
M  V30 221 C 19.1994 5.34637 -0.0822402 0
M  V30 222 C 20.4994 4.74452 -2.18387 0
M  V30 223 H 22.1934 2.59171 -1.49903 0
M  V30 224 H 19.7394 1.24579 -0.722222 0
M  V30 225 H 21.6924 4.20098 0.330958 0
M  V30 226 H 20.4164 3.12433 0.95149 0
M  V30 227 H 19.0754 3.48061 -1.15105 0
M  V30 228 H 18.7234 4.96034 0.83422 0
M  V30 229 H 18.4234 5.83557 -0.688149 0
M  V30 230 H 19.9474 6.10255 0.205238 0
M  V30 231 H 21.3614 5.39055 -1.95172 0
M  V30 232 H 19.7584 5.33834 -2.74119 0
M  V30 233 H 20.8284 3.92844 -2.84257 0
M  V30 234 N 22.1715 0.800033 1.35784 0
M  V30 235 C 23.4485 0.30088 1.93272 0
M  V30 236 C 23.8285 -1.20857 1.73081 0
M  V30 237 O 23.1765 -2.00502 1.09596 0
M  V30 238 C 23.3865 0.70511 3.41803 0
M  V30 239 C 24.7345 0.690871 4.18942 0
M  V30 240 O 25.7585 0.646244 3.50289 0
M  V30 241 O 24.6175 0.74332 5.41421 0
M  V30 242 H 21.7115 0.0771605 0.823393 0
M  V30 243 H 24.2575 0.88329 1.449 0
M  V30 244 H 23.0295 1.74571 3.50201 0
M  V30 245 H 22.6525 0.0971541 3.97481 0
M  V30 246 N 23.6496 -1.47581 0.552962 0
M  V30 247 C 24.8976 -2.02082 0.0272703 0
M  V30 248 C 25.2186 -1.4301 -1.32563 0
M  V30 249 O 24.4886 -0.603745 -1.86365 0
M  V30 250 H 23.0686 -0.746966 0.00709182 0
M  V30 251 H 25.7306 -1.81033 0.722008 0
M  V30 252 H 24.8266 -3.12034 -0.0639951 0
M  V30 253 N 25.1277 -0.289203 -1.54924 0
M  V30 254 C 26.3737 0.323998 -2.00195 0
M  V30 255 C 26.7067 1.54441 -1.17735 0
M  V30 256 O 25.9817 1.92875 -0.250878 0
M  V30 257 C 26.2647 0.692276 -3.53383 0
M  V30 258 C 26.1177 -0.536457 -4.46589 0
M  V30 259 C 27.4367 1.52335 -4.12895 0
M  V30 260 H 24.5557 0.116289 -0.727768 0
M  V30 261 H 27.1977 -0.398954 -1.85764 0
M  V30 262 H 25.3477 1.30822 -3.65811 0
M  V30 263 H 27.0197 -1.17499 -4.46085 0
M  V30 264 H 25.2627 -1.17192 -4.1767 0
M  V30 265 H 25.9337 -0.234806 -5.515 0
M  V30 266 H 28.4097 1.00302 -4.0383 0
M  V30 267 H 27.2857 1.74982 -5.20262 0
M  V30 268 H 27.5467 2.50886 -3.64018 0
M  V30 269 N 26.6058 1.57591 -0.0167156 0
M  V30 270 C 27.8338 1.95575 0.675128 0
M  V30 271 C 28.2488 0.892542 1.6637 0
M  V30 272 O 27.6058 -0.126912 1.82058 0
M  V30 273 C 27.6568 3.33608 1.39239 0
M  V30 274 O 27.3778 4.3585 0.443444 0
M  V30 275 C 28.8788 3.86151 2.17721 0
M  V30 276 H 26.0988 0.644423 0.186978 0
M  V30 277 H 28.6428 2.0437 -0.0728 0
M  V30 278 H 26.7978 3.2607 2.09182 0
M  V30 279 H 27.2118 5.158 0.951358 0
M  V30 280 H 28.6858 4.85114 2.63379 0
M  V30 281 H 29.1628 3.19738 3.01105 0
M  V30 282 H 29.7688 3.96918 1.52761 0
M  V30 283 N 28.0839 -0.256276 1.55502 0
M  V30 284 C 29.0319 -1.33694 1.90338 0
M  V30 285 C 30.0259 -1.50299 0.781441 0
M  V30 286 O 31.2319 -1.51885 0.965966 0
M  V30 287 H 27.6069 -0.447483 0.60437 0
M  V30 288 H 29.5779 -1.01574 2.8058 0
M  V30 289 C 28.3269 -2.68724 2.20642 0
M  V30 290 H 27.6499 -2.56743 3.06469 0
M  V30 291 H 29.0899 -3.43237 2.48926 0
M  V30 292 C 27.5489 -3.21101 1.01959 0
M  V30 293 O 28.0789 -4.0084 0.262762 0
M  V30 294 N 26.2849 -2.79003 0.812746 0
M  V30 295 H 25.8319 -2.14271 1.42989 0
M  V30 296 H 25.7899 -3.14393 0.0203076 0
M  V30 297 N 29.562 -1.4872 -0.521534 0
M  V30 298 C 30.839 -1.4766 -1.2828 0
M  V30 299 C 31.219 -0.19292 -2.10217 0
M  V30 300 O 30.567 0.825193 -2.13079 0
M  V30 301 C 30.777 -2.74358 -2.15705 0
M  V30 302 C 32.125 -3.23028 -2.75569 0
M  V30 303 O 33.149 -2.75333 -2.25987 0
M  V30 304 O 32.008 -4.0604 -3.65778 0
M  V30 305 H 29.102 -0.590085 -0.579421 0
M  V30 306 H 31.648 -1.60963 -0.537492 0
M  V30 307 H 30.42 -3.59292 -1.54999 0
M  V30 308 H 30.043 -2.63816 -2.97467 0
M  V30 309 N 31.0401 0.771051 -1.3745 0
M  V30 310 C 32.4561 1.07171 -1.18265 0
M  V30 311 C 32.6561 2.01491 -0.019287 0
M  V30 312 O 31.7121 2.44244 0.640408 0
M  V30 313 C 33.0251 1.66854 -2.50161 0
M  V30 314 C 34.5731 1.79109 -2.56689 0
M  V30 315 C 35.0481 2.42205 -3.88717 0
M  V30 316 N 36.5391 2.49655 -3.90162 0
M  V30 317 C 37.2741 2.9933 -4.8907 0
M  V30 318 N 36.7701 3.49172 -5.98374 0
M  V30 319 N 38.5631 2.9821 -4.76474 0
M  V30 320 H 30.7141 0.144796 -2.11906 0
M  V30 321 H 32.9771 0.126863 -0.939473 0
M  V30 322 H 32.6831 1.05017 -3.35655 0
M  V30 323 H 32.5571 2.6614 -2.673 0
M  V30 324 H 34.9441 2.40077 -1.71601 0
M  V30 325 H 35.0251 0.785757 -2.43433 0
M  V30 326 H 34.6691 1.81875 -4.74219 0
M  V30 327 H 34.5991 3.43345 -3.99276 0
M  V30 328 H 37.0901 2.14383 -3.11205 0
M  V30 329 H 37.4031 3.8548 -6.69795 0
M  V30 330 H 35.7481 3.47275 -6.02018 0
M  V30 331 H 38.9391 2.58572 -3.90203 0
M  V30 332 H 39.1121 3.36613 -5.53711 0
M  V30 333 N 32.5182 1.22032 0.997298 0
M  V30 334 C 33.7462 1.06841 1.7718 0
M  V30 335 C 34.1612 -0.381325 1.84909 0
M  V30 336 O 33.5182 -1.26437 1.31605 0
M  V30 337 C 33.5692 1.66814 3.20711 0
M  V30 338 O 33.2902 3.06116 3.13408 0
M  V30 339 C 34.7912 1.56838 4.14628 0
M  V30 340 H 32.0112 0.374782 0.556578 0
M  V30 341 H 34.5552 1.61532 1.2541 0
M  V30 342 H 32.7102 1.16196 3.69564 0
M  V30 343 H 33.1242 3.34926 4.0364 0
M  V30 344 H 34.5982 2.03532 5.13107 0
M  V30 345 H 35.0752 0.524155 4.36061 0
M  V30 346 H 35.6812 2.06741 3.7167 0
M  V30 347 N 33.9963 -1.19345 1.0293 0
M  V30 348 C 34.9593 -2.20793 0.615069 0
M  V30 349 C 35.9593 -1.57553 -0.321533 0
M  V30 350 O 37.1493 -1.73862 -0.108483 0
M  V30 351 C 34.2813 -3.40754 -0.0999222 0
M  V30 352 H 35.4743 -2.58955 1.51269 0
M  V30 353 H 33.0273 -1.3303 0.820534 0
M  V30 354 H 33.7623 -3.0811 -1.01187 0
M  V30 355 H 33.5473 -3.87889 0.57309 0
M  V30 356 H 35.0373 -4.15898 -0.376645 0
M  V30 357 N 35.4744 -0.807222 -1.35358 0
M  V30 358 C 36.6994 -0.399309 -2.0352 0
M  V30 359 C 37.1244 0.981986 -1.60433 0
M  V30 360 O 36.4824 1.63601 -0.781299 0
M  V30 361 C 36.5304 -0.491552 -3.57234 0
M  V30 362 O 35.6344 0.494754 -4.09421 0
M  V30 363 H 34.9754 -0.166682 -0.642739 0
M  V30 364 H 37.5054 -1.09328 -1.72941 0
M  V30 365 H 37.5154 -0.361588 -4.06395 0
M  V30 366 H 36.1904 -1.49907 -3.87944 0
M  V30 367 H 34.7674 0.324977 -3.71481 0
M  V30 368 N 36.9525 1.47285 -0.560781 0
M  V30 369 C 37.8845 2.28118 0.222438 0
M  V30 370 C 38.8975 1.37219 0.876056 0
M  V30 371 O 40.0865 1.62011 0.749307 0
M  V30 372 C 37.1865 3.1159 1.33285 0
M  V30 373 C 36.3595 4.30473 0.77534 0
M  V30 374 C 35.4185 4.95513 1.77069 0
M  V30 375 O 34.4445 5.53792 1.31539 0
M  V30 376 N 35.6465 4.90531 3.10418 0
M  V30 377 H 38.4115 2.95976 -0.470958 0
M  V30 378 H 35.9725 1.56955 -0.39709 0
M  V30 379 H 37.9645 3.51967 1.99752 0
M  V30 380 H 36.5345 2.45951 1.92943 0
M  V30 381 H 35.7545 3.94144 -0.0662113 0
M  V30 382 H 37.0425 5.07362 0.382272 0
M  V30 383 H 36.4405 4.44389 3.5005 0
M  V30 384 H 34.9975 5.34917 3.72434 0
M  V30 385 N 38.4306 0.297415 1.54768 0
M  V30 386 C 39.6786 -0.312295 1.99673 0
M  V30 387 C 39.9996 -1.54686 1.18732 0
M  V30 388 O 39.2696 -1.93854 0.282382 0
M  V30 389 H 37.8496 -0.118381 0.73756 0
M  V30 390 H 40.5116 0.407915 1.90583 0
M  V30 391 H 39.6076 -0.586813 3.06534 0
M  V30 392 N 39.9087 -1.5758 0.0250728 0
M  V30 393 C 40.8407 -2.06869 -0.986796 0
M  V30 394 C 41.8537 -0.991332 -1.29137 0
M  V30 395 O 43.0427 -1.26761 -1.25674 0
M  V30 396 C 40.1427 -2.47486 -2.31525 0
M  V30 397 C 39.3157 -3.78253 -2.19643 0
M  V30 398 C 38.3747 -4.05464 -3.35388 0
M  V30 399 O 37.4007 -4.75774 -3.12454 0
M  V30 400 N 38.6027 -3.55321 -4.59051 0
M  V30 401 H 41.3677 -2.94302 -0.566276 0
M  V30 402 H 38.9287 -1.6109 -0.161776 0
M  V30 403 H 40.9207 -2.62785 -3.07776 0
M  V30 404 H 39.4907 -1.65441 -2.65232 0
M  V30 405 H 38.7107 -3.7279 -1.28144 0
M  V30 406 H 39.9987 -4.63936 -2.08903 0
M  V30 407 H 39.3967 -2.98431 -4.80578 0
M  V30 408 H 37.9537 -3.75905 -5.32483 0
M  V30 409 N 41.3868 0.248026 -1.55636 0
M  V30 410 C 42.6328 0.973427 -1.78594 0
M  V30 411 C 42.9878 1.83007 -0.593823 0
M  V30 412 O 42.2808 1.87097 0.412961 0
M  V30 413 C 42.4748 1.86819 -3.04686 0
M  V30 414 C 42.3038 1.09965 -4.36048 0
M  V30 415 C 41.0738 0.805204 -4.98843 0
M  V30 416 C 43.2718 0.477783 -5.12076 0
M  V30 417 N 41.2538 0.0124859 -6.13899 0
M  V30 418 C 42.6248 -0.179565 -6.1974 0
M  V30 419 C 44.6798 0.388136 -4.96385 0
M  V30 420 C 43.3828 -0.91795 -7.13419 0
M  V30 421 C 45.4088 -0.336716 -5.90441 0
M  V30 422 C 44.7708 -0.982705 -6.97511 0
M  V30 423 H 40.8698 0.337348 -0.705493 0
M  V30 424 H 43.4538 0.24667 -1.93131 0
M  V30 425 H 41.6248 2.56698 -2.9148 0
M  V30 426 H 43.3568 2.52907 -3.15944 0
M  V30 427 H 40.1118 1.11671 -4.60246 0
M  V30 428 H 40.5358 -0.371933 -6.75978 0
M  V30 429 H 45.1778 0.873237 -4.13684 0
M  V30 430 H 42.8958 -1.41466 -7.95621 0
M  V30 431 H 46.4818 -0.406731 -5.80377 0
M  V30 432 H 45.3618 -1.53464 -7.69037 0
M  V30 433 N 42.8649 1.48995 0.513639 0
M  V30 434 C 44.1129 1.57531 1.26604 0
M  V30 435 C 44.4339 0.258236 1.93283 0
M  V30 436 O 43.7039 -0.721502 1.8213 0
M  V30 437 H 42.2839 0.580387 0.470276 0
M  V30 438 H 44.9459 1.85552 0.596373 0
M  V30 439 H 44.0419 2.36486 2.03669 0
M  V30 440 N 44.343 -0.763751 1.37857 0
M  V30 441 C 45.759 -1.06542 1.18832 0
M  V30 442 C 45.959 -2.01478 0.0299722 0
M  V30 443 O 45.015 -2.4458 -0.627447 0
M  V30 444 C 46.328 -1.65525 2.51042 0
M  V30 445 C 47.876 -1.77745 2.57635 0
M  V30 446 C 48.351 -2.4014 3.89996 0
M  V30 447 N 49.842 -2.47582 3.91481 0
M  V30 448 C 50.577 -2.96732 4.9065 0
M  V30 449 N 50.073 -3.45993 6.00217 0
M  V30 450 N 51.866 -2.95679 4.78048 0
M  V30 451 H 44.017 -0.133556 2.1198 0
M  V30 452 H 46.28 -0.121879 0.940133 0
M  V30 453 H 45.986 -1.03236 3.36207 0
M  V30 454 H 45.86 -2.64719 2.68707 0
M  V30 455 H 48.247 -2.39164 1.72872 0
M  V30 456 H 48.328 -0.772836 2.43846 0
M  V30 457 H 47.972 -1.79358 4.75177 0
M  V30 458 H 47.902 -3.41223 4.01092 0
M  V30 459 H 50.393 -2.1273 3.12337 0
M  V30 460 H 50.706 -3.81922 6.7183 0
M  V30 461 H 49.051 -3.44077 6.03851 0
M  V30 462 H 52.242 -2.56499 3.91568 0
M  V30 463 H 52.415 -3.33672 5.55488 0
M  V30 464 N 45.8211 -1.22559 -0.990812 0
M  V30 465 C 46.7841 -0.998863 -2.0629 0
M  V30 466 C 47.7841 0.0354834 -1.60761 0
M  V30 467 O 48.9741 -0.203231 -1.7301 0
M  V30 468 C 46.1061 -0.509203 -3.37076 0
M  V30 469 H 47.2991 -1.95014 -2.27837 0
M  V30 470 H 44.8521 -1.04456 -1.16269 0
M  V30 471 H 45.5871 0.446335 -3.21214 0
M  V30 472 H 45.3721 -1.25547 -3.71457 0
M  V30 473 H 46.8621 -0.370888 -4.1595 0
M  V30 474 N 47.2992 1.18797 -1.03562 0
M  V30 475 C 48.5452 1.89192 -0.746867 0
M  V30 476 C 48.9002 1.78531 0.717245 0
M  V30 477 O 48.1932 1.17137 1.51622 0
M  V30 478 C 48.3872 3.38692 -1.14117 0
M  V30 479 C 48.2162 3.63902 -2.64207 0
M  V30 480 C 46.9862 3.81553 -3.31279 0
M  V30 481 C 49.1842 3.64903 -3.62423 0
M  V30 482 N 47.1662 3.94455 -4.70402 0
M  V30 483 C 48.5372 3.83458 -4.87196 0
M  V30 484 C 50.5922 3.47965 -3.56125 0
M  V30 485 C 49.2952 3.86829 -6.06429 0
M  V30 486 C 51.3212 3.52616 -4.7478 0
M  V30 487 C 50.6832 3.71663 -5.9837 0
M  V30 488 H 46.7822 0.711141 -0.325273 0
M  V30 489 H 49.3662 1.42727 -1.32428 0
M  V30 490 H 47.5372 3.83864 -0.591889 0
M  V30 491 H 49.2692 3.96634 -0.803966 0
M  V30 492 H 46.0242 3.80723 -2.81686 0
M  V30 493 H 46.4482 4.0474 -5.42692 0
M  V30 494 H 51.0902 3.32189 -2.61553 0
M  V30 495 H 48.8082 4.01395 -7.01362 0
M  V30 496 H 52.3942 3.40791 -4.71543 0
M  V30 497 H 51.2742 3.75145 -6.88648 0
M  V30 498 N 48.7773 0.814389 1.34928 0
M  V30 499 C 49.6873 0.231978 2.3345 0
M  V30 500 C 50.7033 -0.629139 1.62228 0
M  V30 501 O 51.8793 -0.539052 1.94052 0
M  V30 502 C 48.9443 -0.603482 3.41407 0
M  V30 503 C 48.0053 0.279037 4.28392 0
M  V30 504 C 47.2383 -0.516643 5.31193 0
M  V30 505 O 47.4613 -1.75068 5.4287 0
M  V30 506 O 46.3953 0.0965652 6.01823 0
M  V30 507 H 50.2213 1.04721 2.85074 0
M  V30 508 H 47.8063 0.576343 1.37836 0
M  V30 509 H 49.6883 -1.07908 4.0735 0
M  V30 510 H 48.3633 -1.39618 2.92042 0
M  V30 511 H 47.2703 0.801948 3.65403 0
M  V30 512 H 48.6033 1.03588 4.81176 0
M  V30 513 N 50.2554 -1.46986 0.568584 0
M  V30 514 C 51.5014 -2.02741 0.0488709 0
M  V30 515 C 51.8344 -1.44077 -1.30214 0
M  V30 516 O 51.1094 -0.600552 -1.84996 0
M  V30 517 C 51.3924 -3.60086 -0.032047 0
M  V30 518 C 51.2454 -4.29162 1.34686 0
M  V30 519 C 52.5644 -4.33838 -0.739798 0
M  V30 520 H 49.6834 -0.736749 0.0192338 0
M  V30 521 H 52.3254 -1.75289 0.733065 0
M  V30 522 H 50.4754 -3.83606 -0.61473 0
M  V30 523 H 52.1474 -4.16948 1.97362 0
M  V30 524 H 50.3904 -3.89073 1.91846 0
M  V30 525 H 51.0614 -5.37826 1.24285 0
M  V30 526 H 53.5374 -4.15378 -0.244939 0
M  V30 527 H 52.4134 -5.43537 -0.765406 0
M  V30 528 H 52.6744 -4.03875 -1.79827 0
M  V30 529 N 51.7335 -0.305618 -1.54608 0
M  V30 530 C 53.0105 0.355652 -1.92339 0
M  V30 531 C 53.3905 1.71324 -1.23335 0
M  V30 532 O 52.7385 2.25473 -0.370702 0
M  V30 533 C 52.9485 0.46572 -3.45879 0
M  V30 534 C 54.2965 0.734426 -4.182 0
M  V30 535 O 55.3205 0.54935 -3.51938 0
M  V30 536 O 54.1795 1.09024 -5.35515 0
M  V30 537 H 51.2735 0.199666 -0.802535 0
M  V30 538 H 53.8195 -0.354017 -1.65966 0
M  V30 539 H 52.5915 -0.488461 -3.88239 0
M  V30 540 H 52.2145 1.22367 -3.78301 0
M  V30 541 N 53.2116 1.57565 -0.0334293 0
M  V30 542 C 54.4576 1.93088 0.639417 0
M  V30 543 C 54.8126 0.910589 1.69488 0
M  V30 544 O 54.1056 -0.0727725 1.91462 0
M  V30 545 C 54.2996 3.33112 1.29504 0
M  V30 546 C 54.1286 4.48667 0.304604 0
M  V30 547 C 52.8986 5.05207 -0.0970777 0
M  V30 548 C 55.0966 5.1239 -0.442845 0
M  V30 549 N 53.0786 6.04286 -1.08223 0
M  V30 550 C 54.4496 6.06609 -1.28161 0
M  V30 551 C 56.5046 4.95352 -0.50308 0
M  V30 552 C 55.2076 6.85622 -2.17519 0
M  V30 553 C 57.2336 5.74978 -1.38401 0
M  V30 554 C 56.5956 6.68816 -2.21054 0
M  V30 555 H 52.6946 0.754335 0.206161 0
M  V30 556 H 55.2786 1.94435 -0.101613 0
M  V30 557 H 53.4496 3.32576 2.00618 0
M  V30 558 H 55.1816 3.55972 1.92525 0
M  V30 559 H 51.9366 4.72782 0.278255 0
M  V30 560 H 52.3606 6.58516 -1.57117 0
M  V30 561 H 57.0026 4.22625 0.121694 0
M  V30 562 H 54.7206 7.57652 -2.81049 0
M  V30 563 H 58.3066 5.63826 -1.43496 0
M  V30 564 H 57.1866 7.29355 -2.88116 0
M  V30 565 N 54.6897 -0.239769 1.55765 0
M  V30 566 C 55.9367 -0.966801 1.7793 0
M  V30 567 C 56.2647 -1.85046 0.599015 0
M  V30 568 O 55.5197 -1.91197 -0.417395 0
M  V30 569 C 55.8187 -1.852 3.05672 0
M  V30 570 C 55.4847 -1.1231 4.36689 0
M  V30 571 C 54.1467 -0.921689 4.72291 0
M  V30 572 C 56.4987 -0.607019 5.17653 0
M  V30 573 C 53.8267 -0.191996 5.86386 0
M  V30 574 C 56.1787 0.109241 6.32506 0
M  V30 575 C 54.8427 0.322073 6.66723 0
M  V30 576 H 54.1127 -0.353778 0.651093 0
M  V30 577 H 56.7597 -0.23634 1.90036 0
M  V30 578 H 55.0647 -2.64975 2.8861 0
M  V30 579 H 56.7617 -2.41635 3.20021 0
M  V30 580 H 53.3517 -1.29004 4.08725 0
M  V30 581 H 57.5357 -0.750153 4.90598 0
M  V30 582 H 52.7917 -0.0166949 6.11398 0
M  V30 583 H 56.9657 0.516737 6.9448 0
M  V30 584 H 54.5927 0.88944 7.54979 0
M  V30 585 N 56.1678 -1.49265 -0.50573 0
M  V30 586 C 57.3928 -1.62478 -1.28902 0
M  V30 587 C 57.8178 -0.294332 -1.85783 0
M  V30 588 O 57.1758 0.737412 -1.65626 0
M  V30 589 C 57.2238 -2.69268 -2.39848 0
M  V30 590 O 56.3278 -2.28113 -3.43567 0
M  V30 591 H 55.6688 -0.54399 -0.380751 0
M  V30 592 H 58.1988 -1.95421 -0.605952 0
M  V30 593 H 58.2088 -2.91291 -2.85681 0
M  V30 594 H 56.8838 -3.65846 -1.97812 0
M  V30 595 H 55.4608 -2.16401 -3.03685 0
M  V30 596 N 57.6459 0.756429 -1.3826 0
M  V30 597 C 58.5759 1.88374 -1.37976 0
M  V30 598 C 59.5569 1.68311 -0.246082 0
M  V30 599 O 60.7419 1.88944 -0.44874 0
M  V30 600 C 57.8719 3.25864 -1.20125 0
M  V30 601 C 56.8259 3.60523 -2.30666 0
M  V30 602 C 56.1519 4.9672 -1.97923 0
M  V30 603 C 57.4519 3.65692 -3.72916 0
M  V30 604 H 59.1459 1.88869 -2.32312 0
M  V30 605 H 56.6919 0.907272 -1.11824 0
M  V30 606 H 58.6449 4.0438 -1.18552 0
M  V30 607 H 57.3689 3.25841 -0.222498 0
M  V30 608 H 56.0279 2.84324 -2.3142 0
M  V30 609 H 55.6759 4.93253 -0.985393 0
M  V30 610 H 55.3759 5.20878 -2.71955 0
M  V30 611 H 56.8999 5.77618 -1.97964 0
M  V30 612 H 58.3139 4.34328 -3.74208 0
M  V30 613 H 56.7109 4.01358 -4.4613 0
M  V30 614 H 57.7809 2.65987 -4.05436 0
M  V30 615 N 59.124 1.23083 0.984299 0
M  V30 616 C 60.087 1.00979 2.05757 0
M  V30 617 C 61.087 -0.0269573 1.60777 0
M  V30 618 O 62.277 0.212403 1.729 0
M  V30 619 C 59.409 0.527072 3.36801 0
M  V30 620 H 60.602 1.9622 2.26799 0
M  V30 621 H 58.155 1.05072 1.15714 0
M  V30 622 H 58.89 -0.429294 3.21446 0
M  V30 623 H 58.675 1.27515 3.70786 0
M  V30 624 H 60.165 0.392942 4.15747 0
M  V30 625 N 60.6021 -1.18246 1.0419 0
M  V30 626 C 61.8271 -1.92736 0.765996 0
M  V30 627 C 62.2521 -1.75728 -0.67091 0
M  V30 628 O 61.6101 -1.06825 -1.46486 0
M  V30 629 C 61.6581 -3.42148 1.13875 0
M  V30 630 O 60.7621 -4.11548 0.264954 0
M  V30 631 H 60.1031 -0.601238 0.281797 0
M  V30 632 H 62.6331 -1.49942 1.39207 0
M  V30 633 H 62.6431 -3.92858 1.1012 0
M  V30 634 H 61.3181 -3.53848 2.18551 0
M  V30 635 H 59.8951 -3.71137 0.362226 0
M  V30 636 N 62.0802 -0.821533 -1.34494 0
M  V30 637 C 63.3262 -0.409552 -1.98622 0
M  V30 638 C 63.6592 1.0244 -1.64984 0
M  V30 639 O 62.9342 1.71325 -0.920758 0
M  V30 640 C 63.2172 -0.610458 -3.54888 0
M  V30 641 C 63.0702 -2.09043 -3.98273 0
M  V30 642 C 64.3892 -0.0455379 -4.40076 0
M  V30 643 H 61.5082 -0.15028 -0.721516 0
M  V30 644 H 64.1502 -1.03384 -1.59411 0
M  V30 645 H 62.3002 -0.079044 -3.8842 0
M  V30 646 H 63.9722 -2.68537 -3.75081 0
M  V30 647 H 62.2152 -2.58139 -3.48635 0
M  V30 648 H 62.8862 -2.18182 -5.07051 0
M  V30 649 H 65.3622 -0.499557 -4.1309 0
M  V30 650 H 64.2382 -0.215922 -5.48475 0
M  V30 651 H 64.4992 1.04939 -4.29465 0
M  V30 652 N 63.5583 1.46682 -0.576371 0
M  V30 653 C 64.8073 2.01619 -0.0572825 0
M  V30 654 C 65.1203 1.45417 1.30818 0
M  V30 655 O 66.3263 1.92133 1.91825 0
M  V30 656 C 64.7823 3.59863 -0.0518371 0
M  V30 657 C 64.3903 4.25059 -1.41523 0
M  V30 658 C 66.1343 4.2248 0.413639 0
M  V30 659 C 64.0413 5.75364 -1.36785 0
M  V30 660 H 62.9713 0.753794 -0.0176448 0
M  V30 661 H 65.6223 1.68481 -0.727076 0
M  V30 662 H 64.0043 3.90048 0.683994 0
M  V30 663 H 65.1783 4.06491 -2.17029 0
M  V30 664 H 63.4933 3.7451 -1.8202 0
M  V30 665 H 66.0903 5.3265 0.467779 0
M  V30 666 H 66.4333 3.90976 1.42982 0
M  V30 667 H 66.9663 3.96897 -0.267929 0
M  V30 668 H 63.7053 6.11518 -2.36063 0
M  V30 669 H 63.2253 5.96214 -0.654895 0
M  V30 670 H 64.9043 6.37955 -1.07805 0
M  V30 671 N 65.0364 0.313813 1.54444 0
M  V30 672 C 66.2834 -0.291675 2.00388 0
M  V30 673 C 66.6114 -1.52904 1.2021 0
M  V30 674 O 65.8664 -1.93833 0.269707 0
M  V30 675 C 66.1654 -0.680386 3.50864 0
M  V30 676 C 65.8314 0.456699 4.48581 0
M  V30 677 C 64.4934 0.768824 4.75018 0
M  V30 678 C 66.8454 1.22098 5.06697 0
M  V30 679 C 64.1734 1.84812 5.56831 0
M  V30 680 C 66.5254 2.29029 5.89685 0
M  V30 681 C 65.1894 2.60834 6.14428 0
M  V30 682 H 64.4594 -0.106732 0.733273 0
M  V30 683 H 67.1064 0.43557 1.86481 0
M  V30 684 H 65.4114 -1.48791 3.62448 0
M  V30 685 H 67.1084 -1.16026 3.83847 0
M  V30 686 H 63.6984 0.203337 4.28117 0
M  V30 687 H 67.8824 0.993096 4.86263 0
M  V30 688 H 63.1384 2.09912 5.74236 0
M  V30 689 H 67.3124 2.887 6.33739 0
M  V30 690 H 64.9394 3.44596 6.77612 0
M  V30 691 N 66.5145 -1.57545 0.0417849 0
M  V30 692 C 67.4445 -2.14009 -0.933929 0
M  V30 693 C 68.4255 -1.05938 -1.33083 0
M  V30 694 O 69.6105 -1.33833 -1.40721 0
M  V30 695 C 66.7405 -2.67747 -2.21199 0
M  V30 696 C 65.6945 -3.80718 -1.95544 0
M  V30 697 C 65.0205 -4.20935 -3.29724 0
M  V30 698 C 66.3205 -5.06258 -1.28452 0
M  V30 699 H 68.0145 -2.95788 -0.463645 0
M  V30 700 H 65.5605 -1.42285 -0.221573 0
M  V30 701 H 67.5135 -3.05886 -2.89848 0
M  V30 702 H 66.2375 -1.83147 -2.70416 0
M  V30 703 H 64.8965 -3.43037 -1.2931 0
M  V30 704 H 64.5445 -3.33298 -3.76724 0
M  V30 705 H 64.2445 -4.9707 -3.13361 0
M  V30 706 H 65.7685 -4.61666 -3.9962 0
M  V30 707 H 67.1825 -5.41903 -1.8712 0
M  V30 708 H 65.5795 -5.87475 -1.22445 0
M  V30 709 H 66.6495 -4.84207 -0.259219 0
M  V30 710 N 67.9926 0.231505 -1.5589 0
M  V30 711 C 68.9226 1.29022 -1.94617 0
M  V30 712 C 69.9036 1.4941 -0.813067 0
M  V30 713 O 71.0886 1.6176 -1.07459 0
M  V30 714 C 68.2186 2.64199 -2.25424 0
M  V30 715 C 67.1726 2.58484 -3.41131 0
M  V30 716 C 66.4986 3.97599 -3.57518 0
M  V30 717 C 67.7986 2.1413 -4.76388 0
M  V30 718 H 69.4926 0.968563 -2.83301 0
M  V30 719 H 67.0386 0.464479 -1.36303 0
M  V30 720 H 68.9916 3.38413 -2.51107 0
M  V30 721 H 67.7156 2.98032 -1.33583 0
M  V30 722 H 66.3746 1.86727 -3.15481 0
M  V30 723 H 66.0226 4.28723 -2.6307 0
M  V30 724 H 65.7226 3.94659 -4.35337 0
M  V30 725 H 67.2466 4.7349 -3.85538 0
M  V30 726 H 68.6606 2.78083 -5.01341 0
M  V30 727 H 67.0576 2.2227 -5.57419 0
M  V30 728 H 68.1276 1.09331 -4.72414 0
M  V30 729 N 69.4707 1.49531 0.497807 0
M  V30 730 C 70.4007 1.6935 1.60757 0
M  V30 731 C 71.3817 0.542218 1.61227 0
M  V30 732 O 72.5667 0.778417 1.77917 0
M  V30 733 C 69.6967 1.76298 2.99226 0
M  V30 734 C 68.6507 2.91248 3.13622 0
M  V30 735 C 67.9767 2.83312 4.53474 0
M  V30 736 C 69.2767 4.3214 2.93346 0
M  V30 737 H 70.9707 2.62263 1.44425 0
M  V30 738 H 68.5167 1.26208 0.693367 0
M  V30 739 H 70.4697 1.88749 3.76765 0
M  V30 740 H 69.1937 0.799871 3.16654 0
M  V30 741 H 67.8527 2.78404 2.38509 0
M  V30 742 H 67.5007 1.84902 4.67782 0
M  V30 743 H 67.2007 3.60465 4.64046 0
M  V30 744 H 68.7247 2.97775 5.33069 0
M  V30 745 H 70.1387 4.45649 3.60652 0
M  V30 746 H 68.5357 5.1054 3.15387 0
M  V30 747 H 69.6057 4.46363 1.89441 0
M  V30 748 N 70.9488 -0.749086 1.3866 0
M  V30 749 C 72.1958 -1.50833 1.35114 0
M  V30 750 C 72.5238 -1.94415 -0.0574049 0
M  V30 751 O 71.7788 -1.66065 -1.03541 0
M  V30 752 C 72.0778 -2.7712 2.25697 0
M  V30 753 C 71.7438 -2.52477 3.73585 0
M  V30 754 C 70.4058 -2.45466 4.13884 0
M  V30 755 C 72.7578 -2.31066 4.67181 0
M  V30 756 C 70.0858 -2.15064 5.45861 0
M  V30 757 C 72.4378 -2.02183 5.9942 0
M  V30 758 C 71.1018 -1.93631 6.38798 0
M  V30 759 H 70.3718 -0.551936 0.494416 0
M  V30 760 H 73.0188 -0.860979 1.71054 0
M  V30 761 H 71.3238 -3.46528 1.82827 0
M  V30 762 H 73.0208 -3.35096 2.20254 0
M  V30 763 H 69.6108 -2.58807 3.41638 0
M  V30 764 H 73.7948 -2.35459 4.3689 0
M  V30 765 H 69.0508 -2.06954 5.75308 0
M  V30 766 H 73.2248 -1.8462 6.71482 0
M  V30 767 H 70.8518 -1.69839 7.40985 0
M  V30 768 N 72.4269 -1.23603 -0.977757 0
M  V30 769 C 73.3899 -1.02069 -2.05218 0
M  V30 770 C 74.3899 0.0184305 -1.60789 0
M  V30 771 O 75.5799 -0.221569 -1.72785 0
M  V30 772 C 72.7119 -0.544926 -3.36517 0
M  V30 773 H 73.9049 -1.9742 -2.25755 0
M  V30 774 H 71.4579 -1.05684 -1.15155 0
M  V30 775 H 72.1929 0.412241 -3.21669 0
M  V30 776 H 71.9779 -1.2948 -3.70105 0
M  V30 777 H 73.4679 -0.414985 -4.15533 0
M  V30 778 N 73.905 1.17692 -1.04816 0
M  V30 779 C 75.316 1.69501 -0.782698 0
M  V30 780 C 75.667 1.83456 0.695577 0
M  V30 781 O 74.792 1.51942 1.54086 0
M  V30 782 C 75.387 3.07874 -1.41419 0
M  V30 783 C 73.946 3.56864 -1.19686 0
M  V30 784 C 73.093 2.3322 -1.50012 0
M  V30 785 H 76.044 1.02262 -1.2136 0
M  V30 786 H 76.065 3.71528 -0.821428 0
M  V30 787 H 75.577 2.97685 -2.49009 0
M  V30 788 H 73.678 3.72337 -0.140043 0
M  V30 789 H 73.791 4.39851 -1.89916 0
M  V30 790 H 72.155 2.37501 -0.920071 0
M  V30 791 H 72.938 2.25644 -2.58727 0
M  V30 792 N 75.3831 0.828654 1.34056 0
M  V30 793 C 76.6301 0.419458 1.98108 0
M  V30 794 C 76.9581 -1.01886 1.65679 0
M  V30 795 O 76.2131 -1.72539 0.923512 0
M  V30 796 C 76.5121 0.575226 3.52741 0
M  V30 797 C 76.1781 1.98012 4.05095 0
M  V30 798 C 74.8401 2.36442 4.19104 0
M  V30 799 C 77.1921 2.89824 4.33188 0
M  V30 800 C 74.5201 3.66009 4.58535 0
M  V30 801 C 76.8721 4.1886 4.74066 0
M  V30 802 C 75.5361 4.5726 4.86281 0
M  V30 803 H 74.8061 0.153491 0.724929 0
M  V30 804 H 77.4531 1.05371 1.59904 0
M  V30 805 H 75.7581 -0.142385 3.91541 0
M  V30 806 H 77.4551 0.239057 4.00287 0
M  V30 807 H 74.0451 1.67162 3.94658 0
M  V30 808 H 78.2291 2.61375 4.21897 0
M  V30 809 H 73.4851 3.95579 4.66184 0
M  V30 810 H 77.6591 4.90086 4.94761 0
M  V30 811 H 75.2861 5.57707 5.16592 0
M  V30 812 N 76.8612 -1.46375 0.584142 0
M  V30 813 C 78.1102 -2.01585 0.0679741 0
M  V30 814 C 78.4232 -1.46109 -1.30045 0
M  V30 815 O 79.6292 -1.93148 -1.90804 0
M  V30 816 C 78.0852 -3.5983 0.0709207 0
M  V30 817 C 77.6932 -4.24303 1.43775 0
M  V30 818 C 79.4372 -4.22693 -0.391228 0
M  V30 819 C 77.3442 -5.74631 1.39834 0
M  V30 820 H 76.2742 -0.753689 0.0216421 0
M  V30 821 H 78.9252 -1.68093 0.736001 0
M  V30 822 H 77.3072 -3.90405 -0.663299 0
M  V30 823 H 78.4812 -4.05335 2.19181 0
M  V30 824 H 76.7962 -3.73539 1.84004 0
M  V30 825 H 79.3932 -5.3289 -0.439524 0
M  V30 826 H 79.7362 -3.91728 -1.40906 0
M  V30 827 H 80.2692 -3.96749 0.288974 0
M  V30 828 H 77.0082 -6.10258 2.39303 0
M  V30 829 H 76.5282 -5.95858 0.686505 0
M  V30 830 H 78.2072 -6.37375 1.11187 0
M  V30 831 N 78.3393 -0.321999 -1.54275 0
M  V30 832 C 79.5853 0.281461 -2.00837 0
M  V30 833 C 79.9183 1.51909 -1.20985 0
M  V30 834 O 79.1933 1.923 -0.291733 0
M  V30 835 C 79.4763 0.617162 -3.54772 0
M  V30 836 C 79.3293 -0.631064 -4.45351 0
M  V30 837 C 80.6483 1.43542 -4.16033 0
M  V30 838 H 77.7673 0.100826 -0.730071 0
M  V30 839 H 80.4093 -0.438268 -1.84876 0
M  V30 840 H 78.5593 1.23034 -3.68504 0
M  V30 841 H 80.2313 -1.26934 -4.43492 0
M  V30 842 H 78.4743 -1.26025 -4.15091 0
M  V30 843 H 79.1453 -0.351735 -5.50878 0
M  V30 844 H 81.6213 0.917134 -4.05867 0
M  V30 845 H 80.4973 1.63907 -5.23856 0
M  V30 846 H 80.7583 2.43108 -3.69257 0
M  V30 847 N 79.8174 1.5752 -0.0501392 0
M  V30 848 C 81.0474 1.96678 0.632573 0
M  V30 849 C 81.4554 0.926298 1.64974 0
M  V30 850 O 80.7984 -0.09802 1.83438 0
M  V30 851 C 80.8604 3.32068 1.37735 0
M  V30 852 C 80.5244 4.54076 0.516131 0
M  V30 853 C 81.5214 5.19445 -0.217357 0
M  V30 854 C 79.2064 5.00304 0.44736 0
M  V30 855 C 81.2004 6.29378 -1.00807 0
M  V30 856 C 78.8874 6.10114 -0.347038 0
M  V30 857 C 79.8854 6.74512 -1.07344 0
M  V30 858 O 79.5734 7.82211 -1.85477 0
M  V30 859 H 79.3054 0.652193 0.177821 0
M  V30 860 H 81.8594 2.05091 -0.112543 0
M  V30 861 H 80.0894 3.20206 2.16807 0
M  V30 862 H 81.7784 3.55981 1.95019 0
M  V30 863 H 82.5444 4.84689 -0.173688 0
M  V30 864 H 78.4234 4.49971 1.00235 0
M  V30 865 H 81.9674 6.79575 -1.57556 0
M  V30 866 H 77.8644 6.44307 -0.392349 0
M  V30 867 H 78.6324 7.98982 -1.77678 0
M  V30 868 N 81.2955 -0.223234 1.56011 0
M  V30 869 C 82.5255 -0.963413 1.82762 0
M  V30 870 C 82.9335 -1.78516 0.626804 0
M  V30 871 O 82.2765 -1.78974 -0.414014 0
M  V30 872 C 82.3385 -1.93126 3.0322 0
M  V30 873 C 82.0025 -1.2942 4.38291 0
M  V30 874 C 82.9995 -0.684916 5.15369 0
M  V30 875 C 80.6845 -1.30647 4.85012 0
M  V30 876 C 82.6785 -0.0963971 6.37327 0
M  V30 877 C 80.3655 -0.71411 6.06913 0
M  V30 878 C 81.3635 -0.110123 6.82911 0
M  V30 879 O 81.0515 0.47303 8.02507 0
M  V30 880 H 80.7835 -0.288011 0.611576 0
M  V30 881 H 83.3375 -0.244103 2.03944 0
M  V30 882 H 81.5675 -2.68952 2.77852 0
M  V30 883 H 83.2565 -2.53685 3.16857 0
M  V30 884 H 84.0225 -0.667774 4.80381 0
M  V30 885 H 79.9015 -1.76598 4.25833 0
M  V30 886 H 83.4455 0.375657 6.96588 0
M  V30 887 H 79.3425 -0.728659 6.41374 0
M  V30 888 H 80.1105 0.367186 8.17676 0
M  V30 889 N 82.7736 -1.49793 -0.48987 0
M  V30 890 C 84.0206 -1.59841 -1.24327 0
M  V30 891 C 84.3486 -0.290135 -1.92324 0
M  V30 892 O 83.6036 0.722749 -1.81865 0
M  V30 893 C 83.9026 -2.71488 -2.32441 0
M  V30 894 C 83.5686 -4.12614 -1.81826 0
M  V30 895 C 82.2306 -4.51017 -1.67742 0
M  V30 896 C 84.5826 -5.00892 -1.4407 0
M  V30 897 C 81.9106 -5.75459 -1.14297 0
M  V30 898 C 84.2626 -6.25863 -0.920742 0
M  V30 899 C 82.9266 -6.63086 -0.766383 0
M  V30 900 H 82.1966 -0.584899 -0.454944 0
M  V30 901 H 84.8436 -1.83663 -0.542215 0
M  V30 902 H 83.1486 -2.4168 -3.0838 0
M  V30 903 H 84.8456 -2.76469 -2.90458 0
M  V30 904 H 81.4356 -3.82307 -1.93751 0
M  V30 905 H 85.6196 -4.7187 -1.53794 0
M  V30 906 H 80.8756 -6.02989 -1.01068 0
M  V30 907 H 85.0496 -6.9364 -0.619448 0
M  V30 908 H 82.6766 -7.59393 -0.350083 0
M  V30 909 N 84.2517 0.741722 -1.39055 0
M  V30 910 C 85.5007 1.49656 -1.35225 0
M  V30 911 C 85.8137 1.95533 0.0512708 0
M  V30 912 O 87.0197 2.7067 0.212138 0
M  V30 913 C 85.4757 2.70389 -2.37525 0
M  V30 914 C 85.0837 2.31489 -3.83558 0
M  V30 915 C 86.8277 3.48236 -2.42759 0
M  V30 916 C 84.7347 3.48903 -4.77515 0
M  V30 917 H 83.6647 0.56197 -0.502699 0
M  V30 918 H 86.3157 0.809727 -1.64668 0
M  V30 919 H 84.6977 3.41113 -2.01142 0
M  V30 920 H 85.8717 1.68354 -4.28945 0
M  V30 921 H 84.1867 1.66749 -3.81554 0
M  V30 922 H 86.7837 4.35558 -3.1015 0
M  V30 923 H 87.1267 3.90229 -1.45008 0
M  V30 924 H 87.6597 2.84535 -2.78002 0
M  V30 925 H 84.3987 3.11966 -5.76504 0
M  V30 926 H 83.9187 4.11041 -4.36813 0
M  V30 927 H 85.5977 4.15328 -4.96096 0
M  V30 928 N 85.7298 1.2412 0.971189 0
M  V30 929 C 86.6628 0.97373 2.06382 0
M  V30 930 C 87.6408 -0.0912662 1.62344 0
M  V30 931 O 88.8248 0.0449365 1.88446 0
M  V30 932 C 85.9518 0.468746 3.35441 0
M  V30 933 C 84.9978 1.52176 3.98428 0
M  V30 934 S 85.8308 3.10203 4.36503 0
M  V30 935 C 86.9868 2.61398 5.68702 0
M  V30 936 H 87.2198 1.89893 2.28753 0
M  V30 937 H 84.7528 1.07466 1.10862 0
M  V30 938 H 86.7108 0.184012 4.10087 0
M  V30 939 H 85.3718 -0.435688 3.11064 0
M  V30 940 H 84.5648 1.11876 4.91426 0
M  V30 941 H 84.1668 1.75632 3.30196 0
M  V30 942 H 86.4588 2.03992 6.4606 0
M  V30 943 H 87.4018 3.52972 6.13854 0
M  V30 944 H 87.8098 2.01941 5.27143 0
M  V30 945 N 87.2079 -1.17134 1.05439 0
M  V30 946 C 88.1709 -2.19439 0.661764 0
M  V30 947 C 89.1709 -1.58199 -0.288042 0
M  V30 948 O 90.3609 -1.74053 -0.0715803 0
M  V30 949 C 87.4929 -3.40889 -0.0276209 0
M  V30 950 H 88.6859 -2.55688 1.56728 0
M  V30 951 H 86.2389 -1.31259 0.848567 0
M  V30 952 H 86.9739 -3.10187 -0.94629 0
M  V30 953 H 86.7589 -3.86586 0.655238 0
M  V30 954 H 88.2489 -4.16603 -0.288342 0
M  V30 955 N 88.686 -0.835752 -1.33615 0
M  V30 956 C 89.926 -0.43599 -1.99696 0
M  V30 957 C 90.29 0.98557 -1.64774 0
M  V30 958 O 91.491 1.48889 -2.23798 0
M  V30 959 C 89.762 -0.646721 -3.515 0
M  V30 960 S 91.321 -0.341715 -4.37467 0
M  V30 961 H 88.139 -0.164136 -0.691795 0
M  V30 962 H 90.741 -1.08436 -1.62671 0
M  V30 963 H 89.445 -1.68077 -3.74404 0
M  V30 964 H 88.976 0.0159173 -3.93397 0
M  V30 965 H 90.991 0.839708 -4.89043 0
M  V30 966 N 90.1641 1.46063 -0.591896 0
M  V30 967 C 91.4411 1.95595 -0.0137119 0
M  V30 968 C 91.8211 1.5345 1.4497 0
M  V30 969 O 91.1691 0.789543 2.14426 0
M  V30 970 C 91.3791 3.48453 -0.195373 0
M  V30 971 C 92.7271 4.24546 -0.0679765 0
M  V30 972 O 93.7511 3.55982 -0.124681 0
M  V30 973 O 92.6101 5.46467 0.0600579 0
M  V30 974 H 89.7041 0.825795 0.0446279 0
M  V30 975 H 92.2501 1.56303 -0.660859 0
M  V30 976 H 91.0221 3.72045 -1.21235 0
M  V30 977 H 90.6451 3.94597 0.487775 0
M  V30 978 N 91.6422 0.330177 1.54103 0
M  V30 979 C 92.5742 -0.566902 2.22079 0
M  V30 980 C 93.5872 -1.07462 1.22294 0
M  V30 981 O 94.7762 -0.987065 1.48726 0
M  V30 982 C 91.8762 -1.79138 2.87685 0
M  V30 983 C 91.0492 -1.42123 4.13666 0
M  V30 984 C 90.1082 -2.50394 4.62806 0
M  V30 985 O 89.1342 -2.14261 5.27334 0
M  V30 986 N 90.3362 -3.81433 4.37595 0
M  V30 987 H 93.1012 0.0151844 2.99696 0
M  V30 988 H 90.6622 0.153681 1.61169 0
M  V30 989 H 92.6542 -2.50975 3.1748 0
M  V30 990 H 91.2242 -2.28115 2.13734 0
M  V30 991 H 90.4442 -0.534201 3.90564 0
M  V30 992 H 91.7322 -1.14971 4.9564 0
M  V30 993 H 91.1302 -4.13584 3.8596 0
M  V30 994 H 89.6872 -4.4948 4.72029 0
M  V30 995 N 93.1203 -1.57491 0.0584922 0
M  V30 996 C 94.3503 -1.9701 -0.622134 0
M  V30 997 C 94.7583 -0.935034 -1.6448 0
M  V30 998 O 94.1013 0.0882904 -1.83488 0
M  V30 999 C 94.1633 -3.32794 -1.35972 0
M  V30 1000 C 93.8273 -4.54343 -0.492043 0
M  V30 1001 C 94.8243 -5.19323 0.244901 0
M  V30 1002 C 92.5093 -5.00534 -0.420821 0
M  V30 1003 C 94.5033 -6.28835 1.04143 0
M  V30 1004 C 92.1903 -6.09921 0.379389 0
M  V30 1005 C 93.1883 -6.73933 1.10919 0
M  V30 1006 O 92.8763 -7.81216 1.89623 0
M  V30 1007 H 92.6083 -0.653127 -0.174359 0
M  V30 1008 H 95.1623 -2.05029 0.123418 0
M  V30 1009 H 93.3923 -3.21351 -2.15105 0
M  V30 1010 H 95.0813 -3.5701 -1.93129 0
M  V30 1011 H 95.8473 -4.8459 0.19939 0
M  V30 1012 H 91.7263 -4.50496 -0.978474 0
M  V30 1013 H 95.2703 -6.7873 1.61157 0
M  V30 1014 H 91.1673 -6.44089 0.426512 0
M  V30 1015 H 91.9353 -7.98029 1.81913 0
M  V30 1016 N 94.5984 0.214957 -1.56127 0
M  V30 1017 C 95.8234 0.95924 -1.83884 0
M  V30 1018 C 96.2484 1.7689 -0.639644 0
M  V30 1019 O 95.6064 1.76566 0.411601 0
M  V30 1020 C 95.6544 1.84723 -3.09693 0
M  V30 1021 O 94.7584 2.94346 -2.8885 0
M  V30 1022 H 94.0994 0.27125 -0.606069 0
M  V30 1023 H 96.6294 0.226276 -2.03345 0
M  V30 1024 H 96.6394 2.25576 -3.39969 0
M  V30 1025 H 95.3144 1.25218 -3.96602 0
M  V30 1026 H 93.8914 2.57391 -2.69823 0
M  V30 1027 N 96.0765 1.50051 0.48192 0
M  V30 1028 C 97.3165 1.62128 1.24474 0
M  V30 1029 C 97.6805 0.309742 1.89485 0
M  V30 1030 O 98.8815 0.305854 2.67054 0
M  V30 1031 C 97.1525 2.76151 2.26882 0
M  V30 1032 S 98.7115 3.08297 3.12247 0
M  V30 1033 H 95.5295 0.571661 0.422759 0
M  V30 1034 H 98.1315 1.87791 0.54359 0
M  V30 1035 H 96.8355 3.69942 1.77683 0
M  V30 1036 H 96.3665 2.52541 3.0164 0
M  V30 1037 H 98.3815 2.51287 4.27866 0
M  V30 1038 N 97.5546 -0.734337 1.39446 0
M  V30 1039 C 98.5176 -1.83004 1.37994 0
M  V30 1040 C 99.5176 -1.58397 0.276938 0
M  V30 1041 O 100.708 -1.65785 0.534875 0
M  V30 1042 C 97.8396 -3.20802 1.1532 0
M  V30 1043 H 99.0326 -1.85694 2.35494 0
M  V30 1044 H 96.5856 -0.938059 1.25021 0
M  V30 1045 H 97.3206 -3.23772 0.185036 0
M  V30 1046 H 97.1056 -3.4006 1.95197 0
M  V30 1047 H 98.5956 -4.00862 1.17046 0
M  V30 1048 N 99.0327 -1.24633 -0.964593 0
M  V30 1049 C 99.9627 -1.06611 -2.07741 0
M  V30 1050 C 100.944 0.0218666 -1.70086 0
M  V30 1051 O 102.129 -0.145793 -1.93652 0
M  V30 1052 C 99.2587 -0.673444 -3.40708 0
M  V30 1053 C 98.2127 -1.71054 -3.92332 0
M  V30 1054 C 97.5387 -1.17285 -5.21678 0
M  V30 1055 C 98.8387 -3.10718 -4.19824 0
M  V30 1056 H 100.533 -1.99693 -2.23076 0
M  V30 1057 H 98.0787 -0.96152 -1.07195 0
M  V30 1058 H 100.032 -0.534345 -4.17998 0
M  V30 1059 H 98.7557 0.293073 -3.25282 0
M  V30 1060 H 97.4147 -1.83791 -3.17201 0
M  V30 1061 H 97.0627 -0.196847 -5.02615 0
M  V30 1062 H 96.7627 -1.86592 -5.57187 0
M  V30 1063 H 98.2867 -1.04593 -6.01575 0
M  V30 1064 H 99.7007 -3.01192 -4.87808 0
M  V30 1065 H 98.0977 -3.77406 -4.66567 0
M  V30 1066 H 99.1677 -3.58524 -3.26479 0
M  V30 1067 N 100.511 1.16574 -1.06058 0
M  V30 1068 C 101.739 1.90952 -0.796552 0
M  V30 1069 C 102.154 1.77302 0.648808 0
M  V30 1070 O 101.511 1.11605 1.44397 0
M  V30 1071 C 101.562 3.41736 -1.17894 0
M  V30 1072 O 101.283 3.54975 -2.56758 0
M  V30 1073 C 102.784 4.33169 -0.942308 0
M  V30 1074 H 100.004 0.605594 -0.288959 0
M  V30 1075 H 102.548 1.47777 -1.41358 0
M  V30 1076 H 100.703 3.82623 -0.606491 0
M  V30 1077 H 101.117 4.4846 -2.72 0
M  V30 1078 H 102.591 5.37439 -1.25952 0
M  V30 1079 H 103.068 4.3903 0.122078 0
M  V30 1080 H 103.674 3.98007 -1.49902 0
M  V30 1081 N 101.989 0.842826 1.3317 0
M  V30 1082 C 103.237 0.439577 1.97262 0
M  V30 1083 C 103.558 -1.00548 1.67078 0
M  V30 1084 O 102.828 -1.70098 0.971779 0
M  V30 1085 H 101.408 0.159558 0.72976 0
M  V30 1086 H 104.07 1.07665 1.62463 0
M  V30 1087 H 103.166 0.574886 3.0676 0
M  V30 1088 N 103.467 -1.45747 0.599634 0
M  V30 1089 C 104.878 -1.85853 0.177681 0
M  V30 1090 C 105.229 -1.50102 -1.26348 0
M  V30 1091 O 104.354 -0.923905 -1.95686 0
M  V30 1092 C 104.949 -3.37326 0.315688 0
M  V30 1093 C 103.508 -3.76365 -0.0515144 0
M  V30 1094 C 102.655 -2.69722 0.643822 0
M  V30 1095 H 105.606 -1.36661 0.806814 0
M  V30 1096 H 105.627 -3.77778 -0.454321 0
M  V30 1097 H 105.139 -3.63315 1.36468 0
M  V30 1098 H 103.24 -3.55993 -1.09999 0
M  V30 1099 H 103.353 -4.77916 0.336594 0
M  V30 1100 H 101.717 -2.54567 0.0822881 0
M  V30 1101 H 102.5 -2.98549 1.6948 0
M  V30 1102 N 104.945 -0.338344 -1.53925 0
M  V30 1103 C 106.191 0.260143 -2.01125 0
M  V30 1104 C 106.524 1.50617 -1.22589 0
M  V30 1105 O 105.799 1.91979 -0.312113 0
M  V30 1106 C 106.082 0.579499 -3.55407 0
M  V30 1107 C 105.935 -0.678264 -4.44657 0
M  V30 1108 C 107.254 1.39122 -4.17532 0
M  V30 1109 H 104.373 0.0930772 -0.731099 0
M  V30 1110 H 107.015 -0.457852 -1.84401 0
M  V30 1111 H 105.165 1.19118 -3.69788 0
M  V30 1112 H 106.837 -1.31631 -4.42121 0
M  V30 1113 H 105.08 -1.3042 -4.13731 0
M  V30 1114 H 105.751 -0.410143 -5.50474 0
M  V30 1115 H 108.227 0.874035 -4.06817 0
M  V30 1116 H 107.103 1.58342 -5.25565 0
M  V30 1117 H 107.364 2.39178 -3.71815 0
M  V30 1118 N 106.423 1.57458 -0.0668435 0
M  V30 1119 C 107.669 1.93587 0.6043 0
M  V30 1120 C 108.002 0.946722 1.69561 0
M  V30 1121 O 107.277 -0.0248516 1.94484 0
M  V30 1122 C 107.56 3.40014 1.18585 0
M  V30 1123 C 107.413 4.49685 0.101529 0
M  V30 1124 C 108.732 3.87154 2.09284 0
M  V30 1125 H 105.851 0.703958 0.218202 0
M  V30 1126 H 108.493 1.89542 -0.131804 0
M  V30 1127 H 106.643 3.43592 1.81319 0
M  V30 1128 H 108.315 4.5823 -0.531279 0
M  V30 1129 H 106.558 4.30059 -0.568487 0
M  V30 1130 H 107.229 5.49266 0.54874 0
M  V30 1131 H 109.705 3.85551 1.56491 0
M  V30 1132 H 108.581 4.90231 2.46911 0
M  V30 1133 H 108.842 3.2481 2.99918 0
M  V30 1134 N 107.901 -0.206675 1.56239 0
M  V30 1135 C 109.178 -0.954051 1.70755 0
M  V30 1136 C 109.558 -2.01841 0.618353 0
M  V30 1137 O 108.906 -2.25444 -0.372434 0
M  V30 1138 C 109.116 -1.551 3.12642 0
M  V30 1139 C 110.464 -2.03757 3.72516 0
M  V30 1140 O 111.488 -1.64965 3.15698 0
M  V30 1141 O 110.347 -2.75103 4.72208 0
M  V30 1142 H 107.441 -0.446636 0.696021 0
M  V30 1143 H 109.987 -0.197283 1.68549 0
M  V30 1144 H 108.759 -0.783212 3.83382 0
M  V30 1145 H 108.382 -2.37291 3.19028 0
M  V30 1146 N 109.379 -1.50304 -0.473955 0
M  V30 1147 C 110.628 -1.60392 -1.22301 0
M  V30 1148 C 110.941 -0.308411 -1.93153 0
M  V30 1149 O 112.147 -0.288156 -2.69966 0
M  V30 1150 C 110.603 -2.83109 -2.2221 0
M  V30 1151 C 110.211 -4.19524 -1.57173 0
M  V30 1152 C 111.955 -3.0254 -2.97775 0
M  V30 1153 C 109.862 -5.33431 -2.55353 0
M  V30 1154 H 108.792 -0.597286 -0.460179 0
M  V30 1155 H 111.443 -1.76731 -0.493803 0
M  V30 1156 H 109.825 -2.60322 -2.9841 0
M  V30 1157 H 110.999 -4.52554 -0.867824 0
M  V30 1158 H 109.314 -4.05674 -0.939002 0
M  V30 1159 H 111.911 -3.84811 -3.71248 0
M  V30 1160 H 112.254 -2.14154 -3.56992 0
M  V30 1161 H 112.787 -3.25494 -2.28688 0
M  V30 1162 H 109.526 -6.23962 -2.00878 0
M  V30 1163 H 109.046 -5.04823 -3.23904 0
M  V30 1164 H 110.725 -5.63887 -3.17239 0
M  V30 1165 N 110.857 0.726932 -1.39834 0
M  V30 1166 C 112.103 1.48884 -1.377 0
M  V30 1167 C 112.436 1.94185 0.0244852 0
M  V30 1168 O 111.711 1.67361 0.990986 0
M  V30 1169 C 111.994 2.72288 -2.3565 0
M  V30 1170 C 111.847 2.32956 -3.84775 0
M  V30 1171 C 113.166 3.74414 -2.31306 0
M  V30 1172 H 110.285 0.540062 -0.5015 0
M  V30 1173 H 112.927 0.830547 -1.70886 0
M  V30 1174 H 111.077 3.28457 -2.07481 0
M  V30 1175 H 112.749 1.82356 -4.23726 0
M  V30 1176 H 110.992 1.65088 -4.01159 0
M  V30 1177 H 111.663 3.21362 -4.4881 0
M  V30 1178 H 114.139 3.27849 -2.56231 0
M  V30 1179 H 113.015 4.58414 -3.01907 0
M  V30 1180 H 113.276 4.21909 -1.32081 0
M  V30 1181 N 112.336 1.25143 0.95797 0
M  V30 1182 C 113.564 1.12424 1.73691 0
M  V30 1183 C 113.979 -0.322304 1.86029 0
M  V30 1184 O 113.336 -1.22186 1.35561 0
M  V30 1185 C 113.387 1.76933 3.15241 0
M  V30 1186 O 113.108 3.15932 3.03511 0
M  V30 1187 C 114.609 1.6995 4.09429 0
M  V30 1188 H 111.829 0.3923 0.544373 0
M  V30 1189 H 114.373 1.6544 1.20207 0
M  V30 1190 H 112.528 1.27895 3.6568 0
M  V30 1191 H 112.942 3.47598 3.9278 0
M  V30 1192 H 114.416 2.19753 5.06372 0
M  V30 1193 H 114.893 0.662619 4.34173 0
M  V30 1194 H 115.499 2.18461 3.64904 0
M  V30 1195 N 113.814 -1.1601 1.06675 0
M  V30 1196 C 115.062 -1.86264 0.784229 0
M  V30 1197 C 115.383 -1.82328 -0.691488 0
M  V30 1198 O 114.653 -1.25947 -1.50047 0
M  V30 1199 H 113.233 -0.689621 0.28711 0
M  V30 1200 H 115.895 -1.40664 1.34906 0
M  V30 1201 H 114.991 -2.91595 1.11259 0
M  V30 1202 N 115.292 -0.849877 -1.32721 0
M  V30 1203 C 116.242 -0.262892 -2.26479 0
M  V30 1204 C 117.226 0.588493 -1.49752 0
M  V30 1205 O 118.418 0.438659 -1.71478 0
M  V30 1206 C 115.547 0.551818 -3.38836 0
M  V30 1207 C 114.633 -0.311689 -4.22953 0
M  V30 1208 N 115.024 -1.39567 -4.86163 0
M  V30 1209 C 113.322 -0.100611 -4.45887 0
M  V30 1210 C 114.023 -1.92651 -5.48872 0
M  V30 1211 N 112.999 -1.22637 -5.29586 0
M  V30 1212 H 116.801 -1.09166 -2.72873 0
M  V30 1213 H 114.315 -0.695486 -1.46754 0
M  V30 1214 H 116.312 0.988713 -4.05006 0
M  V30 1215 H 114.972 1.37844 -2.93988 0
M  V30 1216 H 115.983 -1.77859 -4.86402 0
M  V30 1217 H 112.66 0.691681 -4.11731 0
M  V30 1218 H 114.05 -2.83487 -6.09167 0
M  V30 1219 N 116.77 1.45427 -0.607355 0
M  V30 1220 C 117.733 2.28974 0.101693 0
M  V30 1221 C 118.733 1.39754 0.795329 0
M  V30 1222 O 119.923 1.61878 0.643527 0
M  V30 1223 C 117.055 3.20768 1.15414 0
M  V30 1224 H 118.248 2.93147 -0.632844 0
M  V30 1225 H 115.801 1.51945 -0.366391 0
M  V30 1226 H 116.536 2.61395 1.91945 0
M  V30 1227 H 116.321 3.86489 0.66098 0
M  V30 1228 H 117.811 3.83589 1.65073 0
M  V30 1229 N 118.248 0.346503 1.53744 0
M  V30 1230 C 119.664 -0.00530975 1.59599 0
M  V30 1231 C 119.864 -1.48465 1.36236 0
M  V30 1232 O 118.92 -2.24376 1.15808 0
M  V30 1233 C 120.233 0.433516 2.97559 0
M  V30 1234 C 121.781 0.386111 3.10609 0
M  V30 1235 C 122.256 0.800451 4.50951 0
M  V30 1236 N 123.747 0.754753 4.5701 0
M  V30 1237 C 124.482 1.04727 5.63755 0
M  V30 1238 N 123.978 1.4081 6.7834 0
M  V30 1239 N 125.771 0.971316 5.53644 0
M  V30 1240 H 117.922 1.31009 1.67184 0
M  V30 1241 H 120.185 0.534242 0.783128 0
M  V30 1242 H 119.891 1.46509 3.19731 0
M  V30 1243 H 119.765 -0.189753 3.76722 0
M  V30 1244 H 122.152 -0.636295 2.88158 0
M  V30 1245 H 122.233 1.04462 2.33498 0
M  V30 1246 H 121.877 1.82088 4.74137 0
M  V30 1247 H 121.807 0.119386 5.26465 0
M  V30 1248 H 124.298 0.488662 3.74727 0
M  V30 1249 H 124.611 1.61607 7.55714 0
M  V30 1250 H 122.956 1.44657 6.79779 0
M  V30 1251 H 126.147 0.688748 4.63005 0
M  V30 1252 H 126.32 1.20263 6.36742 0
M  V30 1253 N 119.726 -1.57421 0.075193 0
M  V30 1254 C 120.656 -2.15942 -0.888324 0
M  V30 1255 C 121.637 -1.08737 -1.30806 0
M  V30 1256 O 122.822 -1.36787 -1.37851 0
M  V30 1257 C 119.952 -2.72379 -2.1547 0
M  V30 1258 C 118.906 -3.8478 -1.87425 0
M  V30 1259 C 118.232 -4.27834 -3.20721 0
M  V30 1260 C 119.532 -5.08869 -1.17684 0
M  V30 1261 H 121.226 -2.96705 -0.400799 0
M  V30 1262 H 118.772 -1.42723 -0.191342 0
M  V30 1263 H 120.725 -3.11965 -2.83295 0
M  V30 1264 H 119.449 -1.88841 -2.6647 0
M  V30 1265 H 118.108 -3.45703 -1.22004 0
M  V30 1266 H 117.756 -3.41214 -3.6957 0
M  V30 1267 H 117.456 -5.03605 -3.02746 0
M  V30 1268 H 118.98 -4.70039 -3.89738 0
M  V30 1269 H 120.394 -5.4575 -1.75584 0
M  V30 1270 H 118.791 -5.8994 -1.09956 0
M  V30 1271 H 119.861 -4.84648 -0.156453 0
M  V30 1272 N 121.204 0.198386 -1.56346 0
M  V30 1273 C 122.429 0.939682 -1.84891 0
M  V30 1274 C 122.854 1.76202 -0.658369 0
M  V30 1275 O 122.212 1.76993 0.392851 0
M  V30 1276 C 122.26 1.81428 -3.11635 0
M  V30 1277 O 121.364 2.91265 -2.91956 0
M  V30 1278 H 120.705 0.264807 -0.608912 0
M  V30 1279 H 123.235 0.204695 -2.03573 0
M  V30 1280 H 123.245 2.21958 -3.42343 0
M  V30 1281 H 121.92 1.21004 -3.97908 0
M  V30 1282 H 120.497 2.54514 -2.72538 0
M  V30 1283 N 122.682 1.50554 0.465978 0
M  V30 1284 C 123.959 1.5232 1.22712 0
M  V30 1285 C 124.339 0.270807 2.09356 0
M  V30 1286 O 123.687 -0.745541 2.15995 0
M  V30 1287 C 123.897 2.82175 2.05374 0
M  V30 1288 C 125.245 3.33033 2.6339 0
M  V30 1289 O 126.269 2.83531 2.15612 0
M  V30 1290 O 125.128 4.19336 3.50456 0
M  V30 1291 H 122.222 0.611183 0.557122 0
M  V30 1292 H 124.768 1.62847 0.477381 0
M  V30 1293 H 123.54 3.64797 1.41558 0
M  V30 1294 H 123.163 2.74675 2.87471 0
M  V30 1295 N 124.16 -0.719506 1.40217 0
M  V30 1296 C 125.409 -1.47486 1.37589 0
M  V30 1297 C 125.722 -1.9559 -0.0201568 0
M  V30 1298 O 126.928 -2.70973 -0.169049 0
M  V30 1299 C 125.384 -2.66575 2.41796 0
M  V30 1300 C 124.992 -2.25358 3.87192 0
M  V30 1301 C 126.736 -3.4433 2.48269 0
M  V30 1302 C 124.643 -3.41262 4.83005 0
M  V30 1303 H 123.573 -0.553901 0.511576 0
M  V30 1304 H 126.224 -0.783427 1.65936 0
M  V30 1305 H 124.606 -3.3787 2.06543 0
M  V30 1306 H 125.78 -1.61509 4.31569 0
M  V30 1307 H 124.095 -1.60657 3.84159 0
M  V30 1308 H 126.692 -4.30569 3.17041 0
M  V30 1309 H 127.035 -3.87872 1.51198 0
M  V30 1310 H 127.568 -2.80076 2.82493 0
M  V30 1311 H 124.307 -3.02755 5.81394 0
M  V30 1312 H 123.827 -4.0404 4.43297 0
M  V30 1313 H 125.506 -4.07383 5.02641 0
M  V30 1314 N 125.638 -1.25649 -0.95132 0
M  V30 1315 C 126.884 -1.11766 -1.69941 0
M  V30 1316 C 127.239 0.33735 -1.89419 0
M  V30 1317 O 126.532 1.24491 -1.45645 0
M  V30 1318 C 126.726 -1.80909 -3.08231 0
M  V30 1319 C 126.555 -3.32984 -3.02245 0
M  V30 1320 C 125.325 -4.02247 -3.05819 0
M  V30 1321 C 127.523 -4.29332 -2.83157 0
M  V30 1322 N 125.505 -5.41072 -2.90024 0
M  V30 1323 C 126.876 -5.55265 -2.75828 0
M  V30 1324 C 128.931 -4.19707 -2.67863 0
M  V30 1325 C 127.634 -6.72671 -2.54767 0
M  V30 1326 C 129.66 -5.36809 -2.48173 0
M  V30 1327 C 129.022 -6.61683 -2.41567 0
M  V30 1328 H 125.121 -0.463708 -0.629682 0
M  V30 1329 H 127.705 -1.58796 -1.12659 0
M  V30 1330 H 125.876 -1.36369 -3.63673 0
M  V30 1331 H 127.608 -1.59739 -3.71841 0
M  V30 1332 H 124.363 -3.53531 -3.15139 0
M  V30 1333 H 124.787 -6.13938 -2.85323 0
M  V30 1334 H 129.429 -3.23907 -2.71743 0
M  V30 1335 H 127.147 -7.68577 -2.49629 0
M  V30 1336 H 130.733 -5.31224 -2.37259 0
M  V30 1337 H 129.613 -7.50768 -2.26531 0
M  V30 1338 N 127.117 1.15442 -1.07289 0
M  V30 1339 C 128.08 2.18358 -0.696591 0
M  V30 1340 C 129.08 1.58637 0.262837 0
M  V30 1341 O 130.27 1.74145 0.0438809 0
M  V30 1342 C 127.402 3.4089 -0.0266151 0
M  V30 1343 H 128.595 2.53162 -1.60776 0
M  V30 1344 H 126.148 1.29893 -0.869342 0
M  V30 1345 H 126.883 3.11653 0.896822 0
M  V30 1346 H 126.668 3.85495 -0.716657 0
M  V30 1347 H 128.158 4.17009 0.222028 0
M  V30 1348 N 128.595 0.856903 1.32268 0
M  V30 1349 C 129.542 0.301172 2.28827 0
M  V30 1350 C 130.512 -0.593104 1.5515 0
M  V30 1351 O 131.697 -0.527537 1.83362 0
M  V30 1352 C 128.837 -0.502523 3.41422 0
M  V30 1353 C 127.95 0.417797 4.29975 0
M  V30 1354 C 127.085 -0.398749 5.29701 0
M  V30 1355 C 126.124 0.518827 6.09897 0
M  V30 1356 N 125.261 -0.260674 7.01616 0
M  V30 1357 H 130.101 1.12983 2.75751 0
M  V30 1358 H 127.638 0.568582 1.35667 0
M  V30 1359 H 129.596 -0.984141 4.05426 0
M  V30 1360 H 128.226 -1.29599 2.95642 0
M  V30 1361 H 127.278 1.01781 3.66531 0
M  V30 1362 H 128.59 1.12191 4.86019 0
M  V30 1363 H 127.744 -0.943435 5.9932 0
M  V30 1364 H 126.483 -1.13622 4.7428 0
M  V30 1365 H 125.488 1.07538 5.39181 0
M  V30 1366 H 126.713 1.25495 6.67404 0
M  V30 1367 H 124.659 -0.981198 6.4862 0
M  V30 1368 H 124.576 0.384364 7.55022 0
M  V30 1369 H 125.844 -0.787014 7.75517 0
M  V30 1370 N 130.073 -1.45103 0.615059 0
M  V30 1371 C 131.301 -2.06553 0.11977 0
M  V30 1372 C 131.716 -1.45842 -1.19898 0
M  V30 1373 O 131.073 -0.575325 -1.73194 0
M  V30 1374 C 131.124 -3.61495 -0.018364 0
M  V30 1375 O 130.845 -4.19942 1.24822 0
M  V30 1376 C 132.346 -4.39947 -0.544237 0
M  V30 1377 H 129.566 -0.667096 0.0722739 0
M  V30 1378 H 132.11 -1.8623 0.84491 0
M  V30 1379 H 130.265 -3.81135 -0.693865 0
M  V30 1380 H 130.679 -5.13204 1.0827 0
M  V30 1381 H 132.153 -5.48838 -0.589953 0
M  V30 1382 H 132.63 -4.10255 -1.56805 0
M  V30 1383 H 133.236 -4.25188 0.0974703 0
M  V30 1384 N 131.551 -0.354651 -1.53558 0
M  V30 1385 C 132.962 0.126902 -1.86268 0
M  V30 1386 C 133.313 1.49075 -1.27558 0
M  V30 1387 O 132.438 2.08105 -0.5934 0
M  V30 1388 C 133.033 0.237046 -3.3797 0
M  V30 1389 C 131.592 0.662842 -3.70518 0
M  V30 1390 C 130.739 -0.196652 -2.76602 0
M  V30 1391 H 133.69 -0.573849 -1.47962 0
M  V30 1392 H 133.711 1.06259 -3.65362 0
M  V30 1393 H 133.223 -0.755725 -3.80671 0
M  V30 1394 H 131.324 1.66424 -3.33367 0
M  V30 1395 H 131.437 0.445034 -4.77029 0
M  V30 1396 H 129.801 0.332763 -2.52517 0
M  V30 1397 H 130.584 -1.18676 -3.22135 0
M  V30 1398 N 133.029 1.57378 -0.0835403 0
M  V30 1399 C 134.44 1.81261 0.447358 0
M  V30 1400 C 134.791 0.998331 1.68902 0
M  V30 1401 O 133.916 0.224282 2.15235 0
M  V30 1402 C 134.511 3.28767 0.818386 0
M  V30 1403 C 133.07 3.53455 1.29409 0
M  V30 1404 C 132.217 2.75831 0.285024 0
M  V30 1405 H 135.168 1.5566 -0.309115 0
M  V30 1406 H 135.189 3.41459 1.67887 0
M  V30 1407 H 134.701 3.88006 -0.0855019 0
M  V30 1408 H 132.802 2.99534 2.21608 0
M  V30 1409 H 132.915 4.62128 1.2639 0
M  V30 1410 H 131.279 2.42947 0.764767 0
M  V30 1411 H 132.062 3.37813 -0.611341 0
M  V30 1412 N 134.507 -0.190092 1.56449 0
M  V30 1413 C 135.756 -0.907912 1.80111 0
M  V30 1414 C 136.069 -1.84214 0.657619 0
M  V30 1415 O 137.275 -2.60094 0.778663 0
M  V30 1416 C 135.731 -1.66485 3.19078 0
M  V30 1417 C 135.339 -0.7752 4.41242 0
M  V30 1418 C 137.083 -2.37201 3.52045 0
M  V30 1419 C 134.99 -1.53129 5.71231 0
M  V30 1420 H 133.92 -0.34276 0.671589 0
M  V30 1421 H 136.571 -0.161109 1.82791 0
M  V30 1422 H 134.953 -2.45572 3.10661 0
M  V30 1423 H 136.127 -0.0226298 4.60794 0
M  V30 1424 H 134.442 -0.178627 4.16017 0
M  V30 1425 H 137.039 -2.94329 4.46402 0
M  V30 1426 H 137.382 -3.11632 2.76028 0
M  V30 1427 H 137.915 -1.65075 3.61932 0
M  V30 1428 H 134.654 -0.82967 6.50228 0
M  V30 1429 H 134.174 -2.25767 5.55688 0
M  V30 1430 H 135.853 -2.08377 6.12526 0
M  V30 1431 N 135.985 -1.50799 -0.457987 0
M  V30 1432 C 137.213 -1.66218 -1.23203 0
M  V30 1433 C 137.628 -0.350894 -1.85511 0
M  V30 1434 O 136.985 0.668546 -1.69814 0
M  V30 1435 C 137.036 -2.76291 -2.33121 0
M  V30 1436 O 136.757 -4.02338 -1.73366 0
M  V30 1437 C 138.258 -3.028 -3.2377 0
M  V30 1438 H 135.478 -0.558361 -0.372121 0
M  V30 1439 H 138.022 -1.97099 -0.545179 0
M  V30 1440 H 136.177 -2.48068 -2.97558 0
M  V30 1441 H 136.591 -4.63312 -2.4585 0
M  V30 1442 H 138.065 -3.8345 -3.97077 0
M  V30 1443 H 138.542 -2.14385 -3.83322 0
M  V30 1444 H 139.148 -3.32604 -2.65056 0
M  V30 1445 N 137.463 0.71206 -1.40597 0
M  V30 1446 C 138.879 1.02058 -1.22704 0
M  V30 1447 C 139.079 2.01228 -0.104729 0
M  V30 1448 O 138.135 2.4674 0.53624 0
M  V30 1449 C 139.448 1.56094 -2.57012 0
M  V30 1450 C 140.996 1.6806 -2.64054 0
M  V30 1451 C 141.471 2.25501 -3.9864 0
M  V30 1452 N 142.962 2.32882 -4.004 0
M  V30 1453 C 143.697 2.78317 -5.01325 0
M  V30 1454 N 143.193 3.23478 -6.12645 0
M  V30 1455 N 144.986 2.77733 -4.88693 0
M  V30 1456 H 137.137 0.0547896 -2.12329 0
M  V30 1457 H 139.4 0.0869027 -0.944008 0
M  V30 1458 H 139.106 0.906865 -3.39807 0
M  V30 1459 H 138.98 2.54564 -2.78347 0
M  V30 1460 H 141.367 2.32583 -1.81629 0
M  V30 1461 H 141.448 0.681802 -2.46546 0
M  V30 1462 H 141.092 1.61598 -4.81506 0
M  V30 1463 H 141.022 3.26102 -4.13479 0
M  V30 1464 H 143.513 2.00991 -3.20017 0
M  V30 1465 H 143.826 3.56725 -6.85542 0
M  V30 1466 H 142.171 3.21429 -6.16205 0
M  V30 1467 H 145.362 2.4179 -4.00818 0
M  V30 1468 H 145.535 3.12826 -5.67489 0
M  V30 1469 N 138.941 1.26152 0.944643 0
M  V30 1470 C 139.888 1.07408 2.04285 0
M  V30 1471 C 140.858 -0.0198413 1.66088 0
M  V30 1472 O 142.043 0.139264 1.90291 0
M  V30 1473 C 139.183 0.70945 3.37729 0
M  V30 1474 C 138.296 1.87926 3.88983 0
M  V30 1475 C 137.431 1.45807 5.10797 0
M  V30 1476 C 136.47 2.5964 5.54305 0
M  V30 1477 N 135.607 2.18226 6.67324 0
M  V30 1478 H 140.447 2.01389 2.1965 0
M  V30 1479 H 137.984 1.00275 1.07626 0
M  V30 1480 H 139.942 0.478948 4.14442 0
M  V30 1481 H 138.572 -0.193389 3.2222 0
M  V30 1482 H 137.624 2.22279 3.08701 0
M  V30 1483 H 138.936 2.73377 4.17213 0
M  V30 1484 H 138.09 1.18781 5.94959 0
M  V30 1485 H 136.829 0.574414 4.84305 0
M  V30 1486 H 135.834 2.87399 4.68702 0
M  V30 1487 H 137.059 3.48599 5.828 0
M  V30 1488 H 135.005 1.3229 6.42523 0
M  V30 1489 H 134.922 2.97221 6.95123 0
M  V30 1490 H 136.19 1.94403 7.54869 0
M  V30 1491 N 140.419 -1.14872 1.07899 0
M  V30 1492 C 141.382 -2.17986 0.708161 0
M  V30 1493 C 142.382 -1.58775 -0.25442 0
M  V30 1494 O 143.572 -1.74166 -0.034645 0
M  V30 1495 C 140.704 -3.40871 0.0446929 0
M  V30 1496 H 141.897 -2.52306 1.62116 0
M  V30 1497 H 139.45 -1.2943 0.876218 0
M  V30 1498 H 140.185 -3.12124 -0.880281 0
M  V30 1499 H 139.97 -3.8511 0.737091 0
M  V30 1500 H 141.46 -4.17121 -0.19991 0
M  V30 1501 N 141.898 -0.863906 -1.31812 0
M  V30 1502 C 142.861 -0.320212 -2.26952 0
M  V30 1503 C 143.861 0.525369 -1.51975 0
M  V30 1504 O 145.051 0.335547 -1.70938 0
M  V30 1505 C 142.183 0.545919 -3.365 0
M  V30 1506 H 143.376 -1.16004 -2.76556 0
M  V30 1507 H 140.929 -0.638995 -1.42641 0
M  V30 1508 H 141.664 1.40718 -2.92179 0
M  V30 1509 H 141.449 -0.0594674 -3.92055 0
M  V30 1510 H 142.939 0.918796 -4.07367 0
M  V30 1511 N 143.376 1.44774 -0.622745 0
M  V30 1512 C 144.308 2.28856 0.125485 0
M  V30 1513 C 145.321 1.40811 0.817069 0
M  V30 1514 O 146.51 1.65044 0.679918 0
M  V30 1515 C 143.61 3.16963 1.19949 0
M  V30 1516 C 142.783 4.33374 0.592064 0
M  V30 1517 C 141.842 5.02577 1.55893 0
M  V30 1518 O 140.868 5.58873 1.07933 0
M  V30 1519 N 142.07 5.03256 2.89334 0
M  V30 1520 H 144.835 2.93713 -0.596068 0
M  V30 1521 H 142.396 1.55129 -0.463303 0
M  V30 1522 H 144.388 3.60123 1.84644 0
M  V30 1523 H 142.958 2.53913 1.82337 0
M  V30 1524 H 142.178 3.93509 -0.233322 0
M  V30 1525 H 143.466 5.08527 0.166738 0
M  V30 1526 H 142.864 4.58836 3.30887 0
M  V30 1527 H 141.421 5.50232 3.49412 0
M  V30 1528 N 144.854 0.36279 1.53368 0
M  V30 1529 C 145.784 -0.476976 2.28576 0
M  V30 1530 C 146.765 -1.08631 1.30894 0
M  V30 1531 O 147.95 -1.10409 1.59761 0
M  V30 1532 C 145.08 -1.61828 3.07293 0
M  V30 1533 C 144.034 -1.13633 4.1264 0
M  V30 1534 C 143.36 -2.36766 4.79423 0
M  V30 1535 C 144.66 -0.223061 5.21823 0
M  V30 1536 H 146.354 0.150474 2.99022 0
M  V30 1537 H 143.9 0.0738103 1.43811 0
M  V30 1538 H 145.853 -2.21237 3.58653 0
M  V30 1539 H 144.577 -2.27292 2.34533 0
M  V30 1540 H 143.236 -0.564945 3.62221 0
M  V30 1541 H 142.884 -3.0068 4.03238 0
M  V30 1542 H 142.584 -2.05192 5.50609 0
M  V30 1543 H 144.108 -2.96865 5.33576 0
M  V30 1544 H 145.522 -0.724545 5.68703 0
M  V30 1545 H 143.919 0.001678 6.001 0
M  V30 1546 H 144.989 0.735553 4.79289 0
M  V30 1547 N 146.332 -1.57332 0.0918853 0
M  V30 1548 C 147.562 -1.98286 -0.580205 0
M  V30 1549 C 147.97 -0.969713 -1.6246 0
M  V30 1550 O 147.313 0.0493501 -1.83634 0
M  V30 1551 C 147.375 -3.35603 -1.28882 0
M  V30 1552 C 147.039 -4.55285 -0.395559 0
M  V30 1553 C 148.036 -5.18687 0.355002 0
M  V30 1554 C 145.721 -5.01314 -0.314556 0
M  V30 1555 C 147.715 -6.26484 1.17458 0
M  V30 1556 C 145.402 -6.08979 0.508677 0
M  V30 1557 C 146.4 -6.71429 1.2519 0
M  V30 1558 O 146.088 -7.77018 2.06151 0
M  V30 1559 H 145.82 -0.656678 -0.160466 0
M  V30 1560 H 148.374 -2.04721 0.16688 0
M  V30 1561 H 146.604 -3.25842 -2.08241 0
M  V30 1562 H 148.293 -3.61026 -1.85512 0
M  V30 1563 H 149.059 -4.84058 0.302134 0
M  V30 1564 H 144.938 -4.5247 -0.882697 0
M  V30 1565 H 148.482 -6.75159 1.75518 0
M  V30 1566 H 144.379 -6.4304 0.563037 0
M  V30 1567 H 145.147 -7.93991 1.98799 0
M  V30 1568 N 147.81 0.181792 -1.56548 0
M  V30 1569 C 149.038 0.915947 -1.85521 0
M  V30 1570 C 149.453 1.76282 -0.676016 0
M  V30 1571 O 148.81 1.79012 0.355077 0
M  V30 1572 C 148.861 1.80126 -3.13427 0
M  V30 1573 O 148.582 0.988562 -4.26801 0
M  V30 1574 C 150.083 2.64597 -3.55673 0
M  V30 1575 H 147.303 0.26661 -0.61576 0
M  V30 1576 H 149.847 0.185039 -2.03661 0
M  V30 1577 H 148.002 2.48563 -2.97145 0
M  V30 1578 H 148.416 1.59308 -4.99721 0
M  V30 1579 H 149.89 3.2235 -4.48101 0
M  V30 1580 H 150.367 3.38958 -2.79292 0
M  V30 1581 H 150.973 2.0151 -3.74532 0
M  V30 1582 N 149.288 1.51039 0.449983 0
M  V30 1583 C 150.218 1.74379 1.55288 0
M  V30 1584 C 151.199 0.593236 1.5942 0
M  V30 1585 O 152.384 0.834625 1.7535 0
M  V30 1586 C 149.514 1.85728 2.93466 0
M  V30 1587 C 148.468 3.01078 3.04197 0
M  V30 1588 C 147.794 2.97595 4.44231 0
M  V30 1589 C 149.094 4.41254 2.7945 0
M  V30 1590 H 150.788 2.66725 1.36008 0
M  V30 1591 H 148.334 1.2835 0.652864 0
M  V30 1592 H 150.287 2.0064 3.70569 0
M  V30 1593 H 149.011 0.900207 3.13949 0
M  V30 1594 H 147.67 2.85851 2.29531 0
M  V30 1595 H 147.318 1.99691 4.61663 0
M  V30 1596 H 147.018 3.75046 4.52343 0
M  V30 1597 H 148.542 3.14583 5.23326 0
M  V30 1598 H 149.956 4.56897 3.46292 0
M  V30 1599 H 148.353 5.20315 2.98985 0
M  V30 1600 H 149.423 4.52164 1.75144 0
M  V30 1601 N 150.766 -0.704594 1.40972 0
M  V30 1602 C 152.012 -1.46546 1.41053 0
M  V30 1603 C 152.367 -1.92393 0.0159714 0
M  V30 1604 O 151.66 -1.66017 -0.956506 0
M  V30 1605 C 151.854 -2.698 2.34399 0
M  V30 1606 C 151.683 -2.36008 3.82793 0
M  V30 1607 C 150.453 -2.26812 4.51536 0
M  V30 1608 C 152.651 -1.99565 4.74003 0
M  V30 1609 N 150.633 -1.8581 5.85105 0
M  V30 1610 C 152.004 -1.69251 5.96451 0
M  V30 1611 C 154.059 -1.86296 4.61734 0
M  V30 1612 C 152.762 -1.27003 7.07999 0
M  V30 1613 C 154.788 -1.45452 5.73234 0
M  V30 1614 C 154.15 -1.16043 6.94776 0
M  V30 1615 H 150.249 -0.533896 0.571383 0
M  V30 1616 H 152.833 -0.816061 1.76773 0
M  V30 1617 H 151.004 -3.32473 2.00789 0
M  V30 1618 H 152.736 -3.36214 2.25261 0
M  V30 1619 H 149.491 -2.44913 4.05357 0
M  V30 1620 H 149.915 -1.67817 6.55871 0
M  V30 1621 H 154.557 -2.0769 3.68273 0
M  V30 1622 H 152.275 -1.04353 8.01334 0
M  V30 1623 H 155.861 -1.35748 5.65742 0
M  V30 1624 H 154.741 -0.84915 7.79589 0
M  V30 1625 N 152.244 -1.26651 -0.937939 0
M  V30 1626 C 153.49 -1.12553 -1.687 0
M  V30 1627 C 153.823 0.329782 -1.91379 0
M  V30 1628 O 153.098 1.24202 -1.4968 0
M  V30 1629 C 153.381 -1.89862 -3.05981 0
M  V30 1630 C 153.234 -3.43318 -2.90607 0
M  V30 1631 C 154.553 -1.69499 -4.0615 0
M  V30 1632 H 151.672 -0.410257 -0.612257 0
M  V30 1633 H 154.314 -1.55685 -1.08913 0
M  V30 1634 H 152.464 -1.53204 -3.57017 0
M  V30 1635 H 154.136 -3.89747 -2.46769 0
M  V30 1636 H 152.379 -3.70179 -2.26164 0
M  V30 1637 H 153.05 -3.92642 -3.8799 0
M  V30 1638 H 155.526 -2.01442 -3.64088 0
M  V30 1639 H 154.402 -2.26002 -5.00214 0
M  V30 1640 H 154.663 -0.640365 -4.37438 0
M  V30 1641 N 153.722 1.14298 -1.08507 0
M  V30 1642 C 154.95 1.89219 -0.836876 0
M  V30 1643 C 155.365 1.78638 0.611054 0
M  V30 1644 O 154.722 1.14643 1.41998 0
M  V30 1645 C 154.773 3.39158 -1.25116 0
M  V30 1646 O 154.494 3.49449 -2.64229 0
M  V30 1647 C 155.995 4.31073 -1.03398 0
M  V30 1648 H 153.215 0.599328 -0.301739 0
M  V30 1649 H 155.759 1.44746 -1.44461 0
M  V30 1650 H 153.914 3.81251 -0.687514 0
M  V30 1651 H 154.328 4.42589 -2.81452 0
M  V30 1652 H 155.802 5.34646 -1.37323 0
M  V30 1653 H 156.279 4.3919 0.0289259 0
M  V30 1654 H 156.885 3.94738 -1.58311 0
M  V30 1655 N 155.201 0.870884 1.31352 0
M  V30 1656 C 156.448 0.482273 1.96673 0
M  V30 1657 C 156.776 -0.965638 1.68836 0
M  V30 1658 O 156.031 -1.69514 0.977937 0
M  V30 1659 C 156.33 0.687157 3.50732 0
M  V30 1660 C 155.996 2.108 3.9859 0
M  V30 1661 C 154.658 2.49656 4.1137 0
M  V30 1662 C 157.01 3.03459 4.23748 0
M  V30 1663 C 154.338 3.80412 4.46659 0
M  V30 1664 C 156.69 4.3373 4.60501 0
M  V30 1665 C 155.354 4.725 4.71487 0
M  V30 1666 H 154.624 0.176476 0.719679 0
M  V30 1667 H 157.271 1.10405 1.56471 0
M  V30 1668 H 155.576 -0.0177476 3.91796 0
M  V30 1669 H 157.273 0.366284 3.99324 0
M  V30 1670 H 153.863 1.79633 3.8914 0
M  V30 1671 H 158.047 2.74665 4.13368 0
M  V30 1672 H 153.303 4.1021 4.53362 0
M  V30 1673 H 157.477 5.05578 4.78919 0
M  V30 1674 H 155.104 5.73859 4.98588 0
M  V30 1675 N 156.679 -1.44442 0.630414 0
M  V30 1676 C 157.611 -2.2892 -0.113347 0
M  V30 1677 C 158.624 -1.41243 -0.80959 0
M  V30 1678 O 159.813 -1.65402 -0.671156 0
M  V30 1679 C 156.913 -3.17594 -1.18266 0
M  V30 1680 C 156.086 -4.33682 -0.569073 0
M  V30 1681 C 155.145 -5.03397 -1.53226 0
M  V30 1682 O 154.171 -5.59438 -1.04967 0
M  V30 1683 N 155.373 -5.04783 -2.86661 0
M  V30 1684 H 158.138 -2.93392 0.611636 0
M  V30 1685 H 155.699 -1.54881 0.471523 0
M  V30 1686 H 157.691 -3.61097 -1.82732 0
M  V30 1687 H 156.261 -2.54876 -1.80988 0
M  V30 1688 H 155.481 -3.9338 0.254187 0
M  V30 1689 H 156.769 -5.08608 -0.139767 0
M  V30 1690 H 156.167 -4.60584 -3.28449 0
M  V30 1691 H 154.724 -5.52077 -3.46489 0
M  V30 1692 N 158.157 -0.370918 -1.53173 0
M  V30 1693 C 159.403 0.217423 -2.01631 0
M  V30 1694 C 159.736 1.47983 -1.25756 0
M  V30 1695 O 159.011 1.91274 -0.352764 0
M  V30 1696 C 159.294 0.503982 -3.56556 0
M  V30 1697 C 159.147 -0.77243 -4.43118 0
M  V30 1698 C 160.466 1.30234 -4.20389 0
M  V30 1699 H 157.585 0.0775486 -0.732909 0
M  V30 1700 H 160.227 -0.496863 -1.83388 0
M  V30 1701 H 158.377 1.11248 -3.72231 0
M  V30 1702 H 160.049 -1.4098 -4.39229 0
M  V30 1703 H 158.292 -1.39167 -4.10871 0
M  V30 1704 H 158.963 -0.526815 -5.4948 0
M  V30 1705 H 161.439 0.787546 -4.08579 0
M  V30 1706 H 160.315 1.47158 -5.28806 0
M  V30 1707 H 160.576 2.31237 -3.76805 0
M  V30 1708 N 159.635 1.57281 -0.100228 0
M  V30 1709 C 160.565 2.17328 0.853857 0
M  V30 1710 C 161.546 1.10804 1.2906 0
M  V30 1711 O 162.731 1.38963 1.35657 0
M  V30 1712 C 159.861 2.75772 2.11109 0
M  V30 1713 C 158.815 3.87713 1.81279 0
M  V30 1714 C 158.141 4.32882 3.13874 0
M  V30 1715 C 159.441 5.10677 1.09574 0
M  V30 1716 H 161.135 2.97305 0.353545 0
M  V30 1717 H 158.681 1.43009 0.168612 0
M  V30 1718 H 160.634 3.16433 2.78296 0
M  V30 1719 H 159.358 1.93057 2.63432 0
M  V30 1720 H 158.017 3.476 1.16489 0
M  V30 1721 H 157.665 3.47051 3.64095 0
M  V30 1722 H 157.365 5.08358 2.94696 0
M  V30 1723 H 158.889 4.7618 3.82211 0
M  V30 1724 H 160.303 5.48474 1.66879 0
M  V30 1725 H 158.7 5.91615 1.00557 0
M  V30 1726 H 159.77 4.84835 0.0793299 0
M  V30 1727 N 161.113 -0.173488 1.56642 0
M  V30 1728 C 162.043 -1.2171 1.99271 0
M  V30 1729 C 163.024 -1.46289 0.867959 0
M  V30 1730 O 164.209 -1.5766 1.13388 0
M  V30 1731 C 161.339 -2.55651 2.35074 0
M  V30 1732 C 160.293 -2.45645 3.50489 0
M  V30 1733 C 159.619 -3.84056 3.72028 0
M  V30 1734 C 160.919 -1.96302 4.84007 0
M  V30 1735 H 162.613 -0.86275 2.867 0
M  V30 1736 H 160.159 -0.413571 1.37933 0
M  V30 1737 H 162.112 -3.2886 2.63494 0
M  V30 1738 H 160.836 -2.92869 1.44552 0
M  V30 1739 H 159.495 -1.7489 3.22194 0
M  V30 1740 H 159.143 -4.18664 2.788 0
M  V30 1741 H 158.843 -3.7823 4.49684 0
M  V30 1742 H 160.367 -4.58854 4.02846 0
M  V30 1743 H 161.781 -2.59284 5.11317 0
M  V30 1744 H 160.178 -2.01429 5.65284 0
M  V30 1745 H 161.248 -0.917226 4.76146 0
M  V30 1746 N 162.591 -1.51276 -0.441967 0
M  V30 1747 C 163.821 -1.67273 -1.21257 0
M  V30 1748 C 164.229 -0.367624 -1.85594 0
M  V30 1749 O 163.572 0.663349 -1.71305 0
M  V30 1750 C 163.634 -2.72807 -2.34129 0
M  V30 1751 C 163.298 -4.1554 -1.90198 0
M  V30 1752 C 164.295 -5.00471 -1.40801 0
M  V30 1753 C 161.98 -4.61616 -1.9803 0
M  V30 1754 C 163.974 -6.29536 -0.998174 0
M  V30 1755 C 161.661 -5.90679 -1.56658 0
M  V30 1756 C 162.659 -6.74466 -1.07633 0
M  V30 1757 O 162.347 -8.01116 -0.668459 0
M  V30 1758 H 162.079 -0.564614 -0.371734 0
M  V30 1759 H 164.633 -1.9843 -0.530521 0
M  V30 1760 H 162.863 -2.36954 -3.05597 0
M  V30 1761 H 164.552 -2.77729 -2.96009 0
M  V30 1762 H 165.318 -4.66079 -1.34148 0
M  V30 1763 H 161.197 -3.96526 -2.35135 0
M  V30 1764 H 164.741 -6.94885 -0.61482 0
M  V30 1765 H 160.638 -6.24586 -1.62979 0
M  V30 1766 H 161.406 -8.14633 -0.794722 0
M  V30 1767 N 164.069 0.697108 -1.41344 0
M  V30 1768 C 165.297 1.48593 -1.43972 0
M  V30 1769 C 165.712 1.88747 -0.0445612 0
M  V30 1770 O 165.069 1.56682 0.935785 0
M  V30 1771 C 165.12 2.74946 -2.34706 0
M  V30 1772 O 164.841 2.36484 -3.68791 0
M  V30 1773 C 166.342 3.687 -2.46121 0
M  V30 1774 H 163.562 0.457964 -0.490418 0
M  V30 1775 H 166.106 0.858429 -1.8561 0
M  V30 1776 H 164.261 3.33937 -1.9638 0
M  V30 1777 H 164.675 3.17918 -4.17167 0
M  V30 1778 H 166.149 4.54145 -3.13777 0
M  V30 1779 H 166.626 4.13081 -1.49199 0
M  V30 1780 H 167.232 3.15613 -2.85076 0
M  V30 1781 N 165.547 1.27147 0.931209 0
M  V30 1782 C 166.772 1.16191 1.71797 0
M  V30 1783 C 167.197 -0.278004 1.86034 0
M  V30 1784 O 166.555 -1.20137 1.35782 0
M  V30 1785 C 166.603 1.84673 3.09723 0
M  V30 1786 O 165.707 1.14231 3.96264 0
M  V30 1787 H 165.048 0.404303 0.526721 0
M  V30 1788 H 167.578 1.68152 1.1656 0
M  V30 1789 H 167.588 1.91893 3.60057 0
M  V30 1790 H 166.263 2.89421 2.98677 0
M  V30 1791 H 164.84 1.15056 3.54706 0
M  V30 1792 N 167.025 -1.13721 1.09112 0
M  V30 1793 C 167.955 -2.21148 0.749385 0
M  V30 1794 C 168.936 -1.6792 -0.271475 0
M  V30 1795 O 170.121 -1.93693 -0.140251 0
M  V30 1796 C 167.251 -3.46905 0.165659 0
M  V30 1797 C 166.205 -4.13203 1.11567 0
M  V30 1798 C 165.531 -5.33248 0.393809 0
M  V30 1799 C 166.831 -4.60912 2.45678 0
M  V30 1800 H 168.525 -2.4999 1.64758 0
M  V30 1801 H 166.071 -1.20156 0.793626 0
M  V30 1802 H 168.024 -4.21313 -0.085466 0
M  V30 1803 H 166.748 -3.17449 -0.767714 0
M  V30 1804 H 165.407 -3.40758 1.35202 0
M  V30 1805 H 165.055 -5.00054 -0.543599 0
M  V30 1806 H 164.755 -5.78552 1.02721 0
M  V30 1807 H 166.279 -6.10413 0.150908 0
M  V30 1808 H 167.693 -5.26759 2.26269 0
M  V30 1809 H 166.09 -5.16944 3.04776 0
M  V30 1810 H 167.16 -3.75603 3.06677 0
M  V30 1811 N 168.503 -0.877838 -1.30888 0
M  V30 1812 C 169.914 -0.544193 -1.78593 0
M  V30 1813 C 170.265 0.939301 -1.72254 0
M  V30 1814 O 169.39 1.7337 -1.29505 0
M  V30 1815 C 169.985 -0.98105 -3.24285 0
M  V30 1816 C 168.544 -0.698935 -3.69854 0
M  V30 1817 C 167.691 -1.168 -2.51502 0
M  V30 1818 H 170.642 -1.06278 -1.17859 0
M  V30 1819 H 170.663 -0.307009 -3.79259 0
M  V30 1820 H 170.175 -2.06079 -3.28866 0
M  V30 1821 H 168.276 0.369112 -3.70767 0
M  V30 1822 H 168.389 -1.28148 -4.61644 0
M  V30 1823 H 166.753 -0.587535 -2.47831 0
M  V30 1824 H 167.536 -2.25533 -2.58824 0
M  V30 1825 N 169.982 1.44106 -0.638065 0
M  V30 1826 C 171.259 1.95453 -0.0759321 0
M  V30 1827 C 171.639 1.57984 1.40015 0
M  V30 1828 O 170.987 0.857361 2.11806 0
M  V30 1829 C 171.197 3.47655 -0.306132 0
M  V30 1830 C 172.545 4.24114 -0.203008 0
M  V30 1831 O 173.569 3.55405 -0.237871 0
M  V30 1832 O 172.428 5.46381 -0.113827 0
M  V30 1833 H 169.522 0.826797 0.0183332 0
M  V30 1834 H 172.068 1.54122 -0.710251 0
M  V30 1835 H 170.84 3.68 -1.3301 0
M  V30 1836 H 170.463 3.95949 0.361991 0
M  V30 1837 N 171.46 0.379036 1.52974 0
M  V30 1838 C 172.707 -0.206421 2.01445 0
M  V30 1839 C 173.035 -1.47668 1.26587 0
M  V30 1840 O 172.29 -1.92514 0.351675 0
M  V30 1841 C 172.589 -0.53096 3.53434 0
M  V30 1842 C 172.255 0.646546 4.46241 0
M  V30 1843 C 170.917 0.969604 4.7133 0
M  V30 1844 C 173.269 1.43479 5.01062 0
M  V30 1845 C 170.597 2.08263 5.48492 0
M  V30 1846 C 172.949 2.53834 5.7944 0
M  V30 1847 C 171.613 2.86659 6.02812 0
M  V30 1848 H 170.883 -0.0755349 0.73714 0
M  V30 1849 H 173.53 0.514271 1.84465 0
M  V30 1850 H 171.835 -1.33285 3.68432 0
M  V30 1851 H 173.532 -0.996417 3.88423 0
M  V30 1852 H 170.122 0.384734 4.2687 0
M  V30 1853 H 174.306 1.19844 4.81613 0
M  V30 1854 H 169.562 2.34078 5.64816 0
M  V30 1855 H 173.736 3.15319 6.20924 0
M  V30 1856 H 171.363 3.73026 6.62387 0
M  V30 1857 N 172.938 -1.57226 0.108567 0
M  V30 1858 C 174.178 -1.96717 -0.555155 0
M  V30 1859 C 174.542 -0.990003 -1.64508 0
M  V30 1860 O 175.743 -1.2739 -2.36696 0
M  V30 1861 C 174.014 -3.40575 -1.08367 0
M  V30 1862 S 175.573 -4.02072 -1.75737 0
M  V30 1863 H 172.391 -0.687638 -0.180762 0
M  V30 1864 H 174.993 -1.94563 0.191172 0
M  V30 1865 H 173.697 -4.0945 -0.279092 0
M  V30 1866 H 173.228 -3.46356 -1.86551 0
M  V30 1867 H 175.243 -3.91977 -3.04251 0
M  V30 1868 N 174.416 0.165178 -1.56732 0
M  V30 1869 C 175.366 1.20917 -1.93295 0
M  V30 1870 C 176.35 1.39488 -0.801985 0
M  V30 1871 O 177.542 1.41356 -1.06525 0
M  V30 1872 C 174.671 2.54718 -2.3016 0
M  V30 1873 C 173.757 2.39815 -3.49785 0
M  V30 1874 N 174.148 1.94637 -4.66851 0
M  V30 1875 C 172.446 2.70623 -3.54513 0
M  V30 1876 C 173.147 1.92344 -5.4898 0
M  V30 1877 N 172.123 2.34978 -4.9019 0
M  V30 1878 H 175.925 0.851675 -2.81289 0
M  V30 1879 H 173.439 0.373399 -1.58049 0
M  V30 1880 H 175.436 3.30165 -2.54552 0
M  V30 1881 H 174.096 2.91265 -1.43508 0
M  V30 1882 H 175.107 1.6488 -4.90953 0
M  V30 1883 H 171.784 3.11167 -2.78354 0
M  V30 1884 H 173.174 1.5906 -6.52801 0
M  V30 1885 N 175.894 1.51508 0.433938 0
M  V30 1886 C 176.841 1.73068 1.52696 0
M  V30 1887 C 177.811 0.572441 1.55924 0
M  V30 1888 O 178.996 0.807253 1.72882 0
M  V30 1889 C 176.136 1.86474 2.90381 0
M  V30 1890 C 175.249 3.14037 2.96656 0
M  V30 1891 C 174.384 3.18019 4.25485 0
M  V30 1892 C 173.423 4.39882 4.2564 0
M  V30 1893 N 172.56 4.41394 5.45999 0
M  V30 1894 H 177.4 2.66366 1.33615 0
M  V30 1895 H 174.937 1.32008 0.649018 0
M  V30 1896 H 176.895 1.92229 3.70275 0
M  V30 1897 H 175.525 0.965809 3.08013 0
M  V30 1898 H 174.577 3.17575 2.09404 0
M  V30 1899 H 175.889 4.0394 2.92633 0
M  V30 1900 H 175.043 3.22708 5.13755 0
M  V30 1901 H 173.782 2.2601 4.3217 0
M  V30 1902 H 172.787 4.35366 3.35763 0
M  V30 1903 H 174.012 5.33159 4.20617 0
M  V30 1904 H 171.958 3.52258 5.53399 0
M  V30 1905 H 171.875 5.25111 5.4387 0
M  V30 1906 H 173.143 4.50281 6.36292 0
M  V30 1907 N 177.372 -0.689602 1.41712 0
M  V30 1908 C 178.619 -1.44966 1.4139 0
M  V30 1909 C 178.947 -1.94484 0.025105 0
M  V30 1910 O 178.202 -1.70307 -0.964048 0
M  V30 1911 C 178.501 -2.67298 2.37247 0
M  V30 1912 C 178.167 -2.36405 3.83958 0
M  V30 1913 C 176.829 -2.27691 4.23923 0
M  V30 1914 C 179.181 -2.11043 4.76561 0
M  V30 1915 C 176.509 -1.91719 5.54492 0
M  V30 1916 C 178.861 -1.76578 6.07456 0
M  V30 1917 C 177.525 -1.66363 6.46436 0
M  V30 1918 H 176.795 -0.53047 0.517381 0
M  V30 1919 H 179.442 -0.787655 1.74552 0
M  V30 1920 H 177.747 -3.38461 1.9736 0
M  V30 1921 H 179.444 -3.25452 2.34269 0
M  V30 1922 H 176.034 -2.44085 3.52308 0
M  V30 1923 H 180.218 -2.16717 4.46483 0
M  V30 1924 H 175.474 -1.82367 5.83568 0
M  V30 1925 H 179.648 -1.55974 6.78708 0
M  V30 1926 H 177.275 -1.38258 7.47522 0
M  V30 1927 N 178.85 -1.27639 -0.924453 0
M  V30 1928 C 179.78 -1.13166 -2.04244 0
M  V30 1929 C 180.761 -0.032256 -1.70069 0
M  V30 1930 O 181.946 -0.207328 -1.9309 0
M  V30 1931 C 179.076 -0.781496 -3.38393 0
M  V30 1932 C 178.03 -1.83449 -3.86692 0
M  V30 1933 C 177.356 -1.33822 -5.17683 0
M  V30 1934 C 178.656 -3.23917 -4.09726 0
M  V30 1935 H 180.35 -2.06689 -2.1661 0
M  V30 1936 H 177.896 -0.995136 -1.04082 0
M  V30 1937 H 179.849 -0.667057 -4.16087 0
M  V30 1938 H 178.573 0.189439 -3.2605 0
M  V30 1939 H 177.232 -1.93789 -3.11193 0
M  V30 1940 H 176.88 -0.35665 -5.01734 0
M  V30 1941 H 176.58 -2.04224 -5.50968 0
M  V30 1942 H 178.104 -1.23679 -5.97943 0
M  V30 1943 H 179.518 -3.16559 -4.77978 0
M  V30 1944 H 177.915 -3.92059 -4.54324 0
M  V30 1945 H 178.985 -3.68729 -3.14908 0
M  V30 1946 N 180.328 1.1314 -1.09713 0
M  V30 1947 C 181.739 1.66029 -0.853885 0
M  V30 1948 C 182.09 1.86241 0.617142 0
M  V30 1949 O 181.215 1.5834 1.47503 0
M  V30 1950 C 181.81 3.01599 -1.5435 0
M  V30 1951 C 180.369 3.51467 -1.34714 0
M  V30 1952 C 179.516 2.26648 -1.59769 0
M  V30 1953 H 182.467 0.970226 -1.25588 0
M  V30 1954 H 182.488 3.67709 -0.978267 0
M  V30 1955 H 182 2.86856 -2.6141 0
M  V30 1956 H 180.101 3.71408 -0.297838 0
M  V30 1957 H 180.214 4.314 -2.08401 0
M  V30 1958 H 178.578 2.33385 -1.01998 0
M  V30 1959 H 179.361 2.14467 -2.68065 0
M  V30 1960 N 181.806 0.884767 1.30421 0
M  V30 1961 C 183.054 0.502112 1.95763 0
M  V30 1962 C 183.375 -0.951815 1.70192 0
M  V30 1963 O 182.645 -1.6692 1.0254 0
M  V30 1964 H 181.225 0.182694 0.724315 0
M  V30 1965 H 183.887 1.1278 1.58955 0
M  V30 1966 H 182.983 0.672188 3.04775 0
M  V30 1967 N 183.284 -1.43765 0.645699 0
M  V30 1968 C 184.514 -2.05953 0.163318 0
M  V30 1969 C 184.922 -1.48432 -1.17322 0
M  V30 1970 O 184.265 -0.607295 -1.73371 0
M  V30 1971 C 184.327 -3.59499 -0.0103065 0
M  V30 1972 C 183.991 -4.39563 1.25035 0
M  V30 1973 C 184.988 -4.72108 2.17739 0
M  V30 1974 C 182.673 -4.79697 1.48983 0
M  V30 1975 C 184.667 -5.43688 3.3269 0
M  V30 1976 C 182.354 -5.51023 2.64229 0
M  V30 1977 C 183.352 -5.8294 3.55908 0
M  V30 1978 O 183.04 -6.5281 4.69142 0
M  V30 1979 H 182.772 -0.670798 0.0836986 0
M  V30 1980 H 185.326 -1.85384 0.884407 0
M  V30 1981 H 183.556 -3.78613 -0.78669 0
M  V30 1982 H 185.245 -4.03408 -0.449087 0
M  V30 1983 H 186.011 -4.41627 2.00476 0
M  V30 1984 H 181.89 -4.54266 0.785078 0
M  V30 1985 H 185.434 -5.68517 4.04269 0
M  V30 1986 H 181.331 -5.8092 2.81429 0
M  V30 1987 H 182.099 -6.71288 4.6831 0
M  V30 1988 N 184.763 -0.387143 -1.52771 0
M  V30 1989 C 186.009 0.196025 -2.0185 0
M  V30 1990 C 186.342 1.46641 -1.27319 0
M  V30 1991 O 185.617 1.90889 -0.373032 0
M  V30 1992 C 185.9 0.466136 -3.5707 0
M  V30 1993 C 185.753 -0.819385 -4.42274 0
M  V30 1994 C 187.072 1.25768 -4.21747 0
M  V30 1995 H 184.191 0.0697708 -0.73369 0
M  V30 1996 H 186.833 -0.516286 -1.82851 0
M  V30 1997 H 184.983 1.07293 -3.7339 0
M  V30 1998 H 186.655 -1.4563 -4.37709 0
M  V30 1999 H 184.898 -1.43517 -4.09372 0
M  V30 2000 H 185.569 -0.585065 -5.48891 0
M  V30 2001 H 188.045 0.744167 -4.09391 0
M  V30 2002 H 186.921 1.41541 -5.30337 0
M  V30 2003 H 187.182 2.27228 -3.79236 0
M  V30 2004 N 186.241 1.57166 -0.116904 0
M  V30 2005 C 187.489 1.94737 0.540533 0
M  V30 2006 C 187.81 1.00096 1.67349 0
M  V30 2007 O 187.08 0.0568854 1.95817 0
M  V30 2008 H 185.66 0.718981 0.202669 0
M  V30 2009 H 188.322 1.94017 -0.185353 0
M  V30 2010 H 187.418 2.97719 0.936483 0
M  V30 2011 N 187.719 -0.156864 1.56817 0
M  V30 2012 C 188.967 -0.869404 1.82444 0
M  V30 2013 C 189.288 -1.82147 0.69623 0
M  V30 2014 O 188.558 -1.93847 -0.28287 0
M  V30 2015 H 187.138 -0.324043 0.673056 0
M  V30 2016 H 189.8 -0.153224 1.94297 0
M  V30 2017 H 188.896 -1.43761 2.77019 0
M  V30 2018 N 189.197 -1.51736 -0.425897 0
M  V30 2019 C 190.446 -1.64201 -1.17136 0
M  V30 2020 C 190.759 -0.369705 -1.92074 0
M  V30 2021 O 191.965 -0.373898 -2.68913 0
M  V30 2022 C 190.421 -2.90035 -2.13091 0
M  V30 2023 C 190.029 -4.24312 -1.43747 0
M  V30 2024 C 191.773 -3.1186 -2.87999 0
M  V30 2025 C 189.68 -5.41285 -2.38253 0
M  V30 2026 H 188.61 -0.611624 -0.440944 0
M  V30 2027 H 191.261 -1.78212 -0.437328 0
M  V30 2028 H 189.643 -2.69684 -2.89977 0
M  V30 2029 H 190.817 -4.55086 -0.723408 0
M  V30 2030 H 189.132 -4.08456 -0.809465 0
M  V30 2031 H 191.729 -3.96427 -3.58817 0
M  V30 2032 H 192.072 -2.25403 -3.49999 0
M  V30 2033 H 192.605 -3.32605 -2.18217 0
M  V30 2034 H 189.344 -6.30037 -1.80925 0
M  V30 2035 H 188.864 -5.14872 -3.0768 0
M  V30 2036 H 190.543 -5.73694 -2.99139 0
M  V30 2037 N 190.675 0.682077 -1.42076 0
M  V30 2038 C 191.607 1.80755 -1.40926 0
M  V30 2039 C 192.62 1.59833 -0.309398 0
M  V30 2040 O 193.809 1.69087 -0.572014 0
M  V30 2041 C 190.909 3.17744 -1.17865 0
M  V30 2042 C 190.082 3.65578 -2.40149 0
M  V30 2043 C 189.141 4.81277 -2.12742 0
M  V30 2044 O 188.167 4.92197 -2.85887 0
M  V30 2045 N 189.369 5.69474 -1.12602 0
M  V30 2046 H 192.134 1.82229 -2.37935 0
M  V30 2047 H 189.695 0.864903 -1.36861 0
M  V30 2048 H 191.687 3.9279 -0.9746 0
M  V30 2049 H 190.257 3.11214 -0.294068 0
M  V30 2050 H 189.477 2.81291 -2.76169 0
M  V30 2051 H 190.765 3.94278 -3.21593 0
M  V30 2052 H 190.163 5.63297 -0.520899 0
M  V30 2053 H 188.72 6.44363 -0.981842 0
M  V30 2054 N 192.153 1.28127 0.917671 0
M  V30 2055 C 193.063 1.13556 2.05286 0
M  V30 2056 C 194.079 0.0630914 1.73886 0
M  V30 2057 O 195.255 0.271598 1.9956 0
M  V30 2058 C 192.32 0.794676 3.3747 0
M  V30 2059 C 191.381 1.94909 3.82504 0
M  V30 2060 C 190.614 1.62437 5.0838 0
M  V30 2061 O 190.837 0.536905 5.67867 0
M  V30 2062 O 189.771 2.46677 5.4903 0
M  V30 2063 H 193.597 2.08844 2.20495 0
M  V30 2064 H 191.182 1.07409 1.03845 0
M  V30 2065 H 193.064 0.618344 4.16839 0
M  V30 2066 H 191.739 -0.128581 3.23445 0
M  V30 2067 H 190.646 2.18055 3.03978 0
M  V30 2068 H 191.979 2.85291 4.01086 0
M  V30 2069 N 193.631 -1.12557 1.10312 0
M  V30 2070 C 194.879 -1.83675 0.843091 0
M  V30 2071 C 195.2 -1.84435 -0.633131 0
M  V30 2072 O 194.47 -1.30657 -1.45964 0
M  V30 2073 H 193.05 -0.680138 0.308904 0
M  V30 2074 H 195.712 -1.36301 1.39313 0
M  V30 2075 H 194.808 -2.87908 1.2048 0
M  V30 2076 N 195.109 -0.891671 -1.2995 0
M  V30 2077 C 196.072 -0.36828 -2.26222 0
M  V30 2078 C 197.072 0.493014 -1.53056 0
M  V30 2079 O 198.262 0.299213 -1.71611 0
M  V30 2080 C 195.394 0.47442 -3.37583 0
M  V30 2081 H 196.587 -1.21844 -2.74033 0
M  V30 2082 H 194.14 -0.669107 -1.41254 0
M  V30 2083 H 194.875 1.34489 -2.95099 0
M  V30 2084 H 194.66 -0.142615 -3.91841 0
M  V30 2085 H 196.15 0.83218 -4.09224 0
M  V30 2086 N 196.587 1.43421 -0.653314 0
M  V30 2087 C 197.833 2.02111 -0.166992 0
M  V30 2088 C 198.166 1.51423 1.21592 0
M  V30 2089 O 197.441 0.707389 1.8118 0
M  V30 2090 C 197.724 3.5966 -0.177948 0
M  V30 2091 C 197.577 4.20579 -1.59478 0
M  V30 2092 C 198.896 4.37413 0.4856 0
M  V30 2093 H 196.015 0.734374 -0.0621557 0
M  V30 2094 H 198.657 1.70717 -0.834016 0
M  V30 2095 H 196.807 3.86537 0.390032 0
M  V30 2096 H 198.479 4.04732 -2.21336 0
M  V30 2097 H 196.722 3.77226 -2.14204 0
M  V30 2098 H 197.393 5.29665 -1.5543 0
M  V30 2099 H 199.869 4.161 0.00234528 0
M  V30 2100 H 198.745 5.47075 0.447207 0
M  V30 2101 H 199.006 4.13672 1.55974 0
M  V30 2102 N 198.065 0.39524 1.52563 0
M  V30 2103 C 199.293 -0.184943 2.06072 0
M  V30 2104 C 199.708 -1.40021 1.26647 0
M  V30 2105 O 199.065 -1.79767 0.314672 0
M  V30 2106 C 199.116 -0.549179 3.57304 0
M  V30 2107 O 198.837 0.617813 4.33722 0
M  V30 2108 C 200.338 -1.18459 4.2718 0
M  V30 2109 H 197.558 -0.0265025 0.670476 0
M  V30 2110 H 200.102 0.562184 1.96621 0
M  V30 2111 H 198.257 -1.2462 3.66809 0
M  V30 2112 H 198.671 0.317091 5.23541 0
M  V30 2113 H 200.145 -1.38976 5.34219 0
M  V30 2114 H 200.622 -2.15368 3.82771 0
M  V30 2115 H 201.228 -0.528163 4.22008 0
M  V30 2116 N 199.544 -1.57102 0.125237 0
M  V30 2117 C 200.955 -1.82384 -0.399142 0
M  V30 2118 C 201.306 -1.04276 -1.66195 0
M  V30 2119 O 200.431 -0.281269 -2.14564 0
M  V30 2120 C 201.026 -3.30821 -0.730932 0
M  V30 2121 C 199.585 -3.56762 -1.19992 0
M  V30 2122 C 198.732 -2.7649 -0.211792 0
M  V30 2123 H 201.683 -1.54786 0.350277 0
M  V30 2124 H 201.704 -3.4579 -1.58775 0
M  V30 2125 H 201.216 -3.87643 0.188345 0
M  V30 2126 H 199.317 -3.05305 -2.13588 0
M  V30 2127 H 199.43 -4.65317 -1.14093 0
M  V30 2128 H 197.794 -2.4489 -0.700085 0
M  V30 2129 H 198.577 -3.36073 0.700691 0
M  V30 2130 N 201.022 0.148545 -1.56898 0
M  V30 2131 C 201.985 1.16736 -1.97244 0
M  V30 2132 C 202.985 1.35947 -0.858777 0
M  V30 2133 O 204.175 1.32966 -1.12542 0
M  V30 2134 C 201.307 2.52798 -2.28705 0
M  V30 2135 H 202.5 0.821279 -2.88435 0
M  V30 2136 H 200.053 0.391831 -1.51309 0
M  V30 2137 H 200.788 2.92381 -1.403 0
M  V30 2138 H 200.573 2.40216 -3.09901 0
M  V30 2139 H 202.063 3.26179 -2.60762 0
M  V30 2140 N 202.5 1.5196 0.417844 0
M  V30 2141 C 203.748 1.65263 1.16329 0
M  V30 2142 C 204.069 0.380634 1.91249 0
M  V30 2143 O 203.339 -0.604214 1.86349 0
M  V30 2144 H 201.919 0.60912 0.432414 0
M  V30 2145 H 204.581 1.88969 0.477162 0
M  V30 2146 H 203.677 2.4896 1.88217 0
M  V30 2147 N 203.978 -0.674533 1.42435 0
M  V30 2148 C 205.224 -1.43671 1.43131 0
M  V30 2149 C 205.557 -1.94142 0.0476021 0
M  V30 2150 O 204.832 -1.70924 -0.928188 0
M  V30 2151 C 205.115 -2.63355 2.45594 0
M  V30 2152 C 204.968 -2.18514 3.93156 0
M  V30 2153 C 206.287 -3.65571 2.45043 0
M  V30 2154 H 203.406 -0.521077 0.521198 0
M  V30 2155 H 206.048 -0.766551 1.7385 0
M  V30 2156 H 204.198 -3.2053 2.19528 0
M  V30 2157 H 205.87 -1.66504 4.30202 0
M  V30 2158 H 204.113 -1.50086 4.07009 0
M  V30 2159 H 204.784 -3.04484 4.60428 0
M  V30 2160 H 207.26 -3.18113 2.68223 0
M  V30 2161 H 206.136 -4.46893 3.18713 0
M  V30 2162 H 206.397 -4.16716 1.47649 0
M  V30 2163 N 205.456 -1.28612 -0.910864 0
M  V30 2164 C 206.702 -1.16106 -1.66274 0
M  V30 2165 C 207.035 0.289113 -1.92036 0
M  V30 2166 O 206.31 1.21 -1.52281 0
M  V30 2167 C 206.593 -1.96309 -3.01885 0
M  V30 2168 C 206.446 -3.49405 -2.8326 0
M  V30 2169 C 207.765 -1.78076 -4.02463 0
M  V30 2170 H 204.884 -0.423152 -0.603417 0
M  V30 2171 H 207.526 -1.57961 -1.05586 0
M  V30 2172 H 205.676 -1.60742 -3.53687 0
M  V30 2173 H 207.348 -3.94894 -2.38446 0
M  V30 2174 H 205.591 -3.74893 -2.18261 0
M  V30 2175 H 206.262 -4.00784 -3.79574 0
M  V30 2176 H 208.738 -2.0912 -3.59733 0
M  V30 2177 H 207.614 -2.36561 -4.95308 0
M  V30 2178 H 207.875 -0.733008 -4.35981 0
M  V30 2179 N 206.934 1.1197 -1.10907 0
M  V30 2180 C 207.882 2.19927 -0.757303 0
M  V30 2181 C 208.876 1.67564 0.248747 0
M  V30 2182 O 210.082 1.79672 0.108605 0
M  V30 2183 H 206.457 0.716925 -0.226987 0
M  V30 2184 H 208.428 2.46847 -1.67658 0
M  V30 2185 C 207.177 3.47061 -0.210671 0
M  V30 2186 H 206.5 3.87703 -0.976049 0
M  V30 2187 H 207.94 4.24 -0.0026584 0
M  V30 2188 C 206.399 3.19864 1.05777 0
M  V30 2189 O 206.929 3.40049 2.13845 0
M  V30 2190 N 205.135 2.73636 0.978349 0
M  V30 2191 H 204.682 2.5741 0.0988246 0
M  V30 2192 H 204.64 2.55815 1.82773 0
M  V30 2193 N 208.412 0.89855 1.29475 0
M  V30 2194 C 209.359 0.373819 2.27753 0
M  V30 2195 C 210.329 -0.543444 1.56958 0
M  V30 2196 O 211.514 -0.468934 1.84948 0
M  V30 2197 C 208.654 -0.393648 3.42848 0
M  V30 2198 C 207.767 0.554379 4.28428 0
M  V30 2199 C 206.902 -0.230026 5.30702 0
M  V30 2200 C 205.941 0.712599 6.07938 0
M  V30 2201 N 205.078 -0.0373283 7.0209 0
M  V30 2202 H 209.918 1.21699 2.72017 0
M  V30 2203 H 207.455 0.611456 1.33789 0
M  V30 2204 H 209.413 -0.85466 4.08352 0
M  V30 2205 H 208.043 -1.20128 2.99615 0
M  V30 2206 H 207.095 1.13391 3.63107 0
M  V30 2207 H 208.407 1.27597 4.82204 0
M  V30 2208 H 207.561 -0.752288 6.02018 0
M  V30 2209 H 206.3 -0.984758 4.77654 0
M  V30 2210 H 205.305 1.24637 5.35486 0
M  V30 2211 H 206.53 1.46664 6.63074 0
M  V30 2212 H 204.476 -0.774348 6.51414 0
M  V30 2213 H 204.393 0.624374 7.53417 0
M  V30 2214 H 205.661 -0.539891 7.77628 0
M  V30 2215 N 209.89 -1.43072 0.660911 0
M  V30 2216 C 211.12 -2.05769 0.185153 0
M  V30 2217 C 211.528 -1.49668 -1.15742 0
M  V30 2218 O 210.871 -0.625649 -1.72717 0
M  V30 2219 C 210.933 -3.59489 0.0278237 0
M  V30 2220 C 210.597 -4.38212 1.2969 0
M  V30 2221 C 211.594 -4.69772 2.22734 0
M  V30 2222 C 209.279 -4.7809 1.54063 0
M  V30 2223 C 211.273 -5.40129 3.38437 0
M  V30 2224 C 208.96 -5.4819 2.70058 0
M  V30 2225 C 209.958 -5.79132 3.62071 0
M  V30 2226 O 209.646 -6.47798 4.76039 0
M  V30 2227 H 209.378 -0.669873 0.0908086 0
M  V30 2228 H 211.932 -1.84436 0.90402 0
M  V30 2229 H 210.162 -3.79426 -0.746489 0
M  V30 2230 H 211.851 -4.03862 -0.406275 0
M  V30 2231 H 212.617 -4.39476 2.05149 0
M  V30 2232 H 208.496 -4.53408 0.833215 0
M  V30 2233 H 212.04 -5.64198 4.10277 0
M  V30 2234 H 207.937 -5.77902 2.87574 0
M  V30 2235 H 208.705 -6.66283 4.75404 0
M  V30 2236 N 211.368 -0.403325 -1.52352 0
M  V30 2237 C 212.3 0.4603 -2.2453 0
M  V30 2238 C 213.313 1.01505 -1.27282 0
M  V30 2239 O 214.502 0.914982 -1.53266 0
M  V30 2240 C 211.602 1.65208 -2.95905 0
M  V30 2241 C 210.775 1.22224 -4.19976 0
M  V30 2242 C 209.834 2.28028 -4.74226 0
M  V30 2243 O 208.86 1.88857 -5.36956 0
M  V30 2244 N 210.062 3.6012 -4.55295 0
M  V30 2245 H 212.827 -0.158156 -2.99282 0
M  V30 2246 H 210.388 -0.230402 -1.60252 0
M  V30 2247 H 212.38 2.35541 -3.29093 0
M  V30 2248 H 210.95 2.17658 -2.24374 0
M  V30 2249 H 210.17 0.34725 -3.92668 0
M  V30 2250 H 211.458 0.911924 -5.00561 0
M  V30 2251 H 210.856 3.94698 -4.05253 0
M  V30 2252 H 209.413 4.26447 -4.92936 0
M  V30 2253 N 212.846 1.57033 -0.133567 0
M  V30 2254 C 214.095 1.94861 0.520768 0
M  V30 2255 C 214.408 1.02012 1.66892 0
M  V30 2256 O 215.614 1.29365 2.38699 0
M  V30 2257 C 214.07 3.46362 0.977809 0
M  V30 2258 C 213.678 4.47773 -0.142674 0
M  V30 2259 C 215.422 3.93083 1.60269 0
M  V30 2260 C 213.329 5.90468 0.331883 0
M  V30 2261 H 212.259 0.727453 0.198315 0
M  V30 2262 H 214.91 1.82227 -0.215759 0
M  V30 2263 H 213.292 3.54282 1.7692 0
M  V30 2264 H 214.466 4.51536 -0.919317 0
M  V30 2265 H 212.781 4.10891 -0.675124 0
M  V30 2266 H 215.378 4.97121 1.96914 0
M  V30 2267 H 215.721 3.33876 2.48662 0
M  V30 2268 H 216.254 3.88025 0.876453 0
M  V30 2269 H 212.993 6.53463 -0.516341 0
M  V30 2270 H 212.513 5.90094 1.07469 0
M  V30 2271 H 214.192 6.42179 0.788332 0
M  V30 2272 N 214.325 -0.140222 1.56975 0
M  V30 2273 C 215.273 -1.19207 1.99731 0
M  V30 2274 C 216.267 -1.44089 0.890777 0
M  V30 2275 O 217.473 -1.44301 1.07597 0
M  V30 2276 H 213.848 -0.40142 0.635898 0
M  V30 2277 H 215.819 -0.804813 2.87342 0
M  V30 2278 C 214.568 -2.51617 2.39967 0
M  V30 2279 H 213.891 -2.33303 3.24669 0
M  V30 2280 H 215.331 -3.23827 2.73701 0
M  V30 2281 C 213.79 -3.12654 1.25496 0
M  V30 2282 O 214.32 -3.97786 0.559371 0
M  V30 2283 N 212.526 -2.72206 1.01746 0
M  V30 2284 H 212.073 -2.03074 1.58489 0
M  V30 2285 H 212.031 -3.13377 0.253461 0
M  V30 2286 N 215.803 -1.52179 -0.40978 0
M  V30 2287 C 217.051 -1.65878 -1.15451 0
M  V30 2288 C 217.372 -0.390771 -1.91044 0
M  V30 2289 O 216.642 0.594323 -1.86667 0
M  V30 2290 H 215.222 -0.611405 -0.429177 0
M  V30 2291 H 217.884 -1.89219 -0.467134 0
M  V30 2292 H 216.98 -2.49954 -1.86894 0
M  V30 2293 N 217.281 0.66697 -1.42791 0
M  V30 2294 C 218.211 1.79218 -1.49677 0
M  V30 2295 C 219.192 1.66405 -0.352623 0
M  V30 2296 O 220.377 1.85708 -0.567993 0
M  V30 2297 C 217.507 3.17565 -1.40605 0
M  V30 2298 C 216.461 3.45124 -2.53127 0
M  V30 2299 C 215.787 4.83127 -2.29112 0
M  V30 2300 C 217.087 3.41236 -3.95418 0
M  V30 2301 H 218.781 1.73713 -2.43853 0
M  V30 2302 H 216.327 0.83432 -1.17367 0
M  V30 2303 H 218.28 3.96022 -1.44029 0
M  V30 2304 H 217.004 3.23767 -0.429271 0
M  V30 2305 H 215.663 2.69031 -2.49034 0
M  V30 2306 H 215.311 4.85988 -1.29709 0
M  V30 2307 H 215.011 5.02528 -3.04531 0
M  V30 2308 H 216.535 5.63859 -2.34297 0
M  V30 2309 H 217.949 4.09651 -4.01073 0
M  V30 2310 H 216.346 3.72173 -4.70752 0
M  V30 2311 H 217.416 2.39665 -4.21532 0
M  V30 2312 N 218.759 1.29093 0.90403 0
M  V30 2313 C 219.691 1.09658 2.01266 0
M  V30 2314 C 220.704 0.0453729 1.62737 0
M  V30 2315 O 221.893 0.289446 1.76138 0
M  V30 2316 C 218.993 0.646278 3.32681 0
M  V30 2317 C 218.166 1.77505 3.99763 0
M  V30 2318 C 217.225 1.31649 5.09465 0
M  V30 2319 O 216.251 2.02045 5.32134 0
M  V30 2320 N 217.453 0.184997 5.80205 0
M  V30 2321 H 220.218 2.05135 2.18494 0
M  V30 2322 H 217.779 1.20975 1.07594 0
M  V30 2323 H 219.771 0.322906 4.0341 0
M  V30 2324 H 218.341 -0.215916 3.11853 0
M  V30 2325 H 217.561 2.26752 3.22455 0
M  V30 2326 H 218.849 2.53198 4.41325 0
M  V30 2327 H 218.247 -0.402021 5.6427 0
M  V30 2328 H 216.804 -0.0790358 6.51752 0
M  V30 2329 N 220.237 -1.11381 1.11499 0
M  V30 2330 C 221.2 -2.15622 0.777153 0
M  V30 2331 C 222.2 -1.59504 -0.203779 0
M  V30 2332 O 223.39 -1.74188 0.020782 0
M  V30 2333 C 220.522 -3.40556 0.153116 0
M  V30 2334 H 221.715 -2.47021 1.70061 0
M  V30 2335 H 219.268 -1.26577 0.916952 0
M  V30 2336 H 220.003 -3.14767 -0.780536 0
M  V30 2337 H 219.788 -3.8257 0.859238 0
M  V30 2338 H 221.278 -4.17546 -0.0671044 0
M  V30 2339 N 221.715 -0.905404 -1.28997 0
M  V30 2340 C 222.961 -0.544465 -1.95977 0
M  V30 2341 C 223.316 0.90041 -1.70031 0
M  V30 2342 O 222.609 1.63064 -1.00601 0
M  V30 2343 C 222.803 -0.779906 -3.48787 0
M  V30 2344 C 222.632 -2.24612 -3.89589 0
M  V30 2345 C 221.402 -2.89464 -4.14172 0
M  V30 2346 C 223.6 -3.22182 -4.00878 0
M  V30 2347 N 221.582 -4.26469 -4.41585 0
M  V30 2348 C 222.953 -4.44323 -4.32409 0
M  V30 2349 C 225.008 -3.17694 -3.83373 0
M  V30 2350 C 223.711 -5.62546 -4.48258 0
M  V30 2351 C 225.737 -4.35208 -4.00435 0
M  V30 2352 C 225.099 -5.56121 -4.3233 0
M  V30 2353 H 221.198 -0.248948 -0.741316 0
M  V30 2354 H 223.782 -1.1674 -1.5582 0
M  V30 2355 H 221.953 -0.186308 -3.87953 0
M  V30 2356 H 223.685 -0.383833 -4.02876 0
M  V30 2357 H 220.44 -2.40232 -4.08149 0
M  V30 2358 H 220.864 -4.97283 -4.5939 0
M  V30 2359 H 225.506 -2.25297 -3.57773 0
M  V30 2360 H 223.224 -6.55429 -4.72692 0
M  V30 2361 H 226.81 -4.33228 -3.88336 0
M  V30 2362 H 225.69 -6.45537 -4.45255 0
M  V30 2363 N 223.193 1.4272 -0.668489 0
M  V30 2364 C 224.123 2.335 -0.000100175 0
M  V30 2365 C 225.104 1.50328 0.795964 0
M  V30 2366 O 226.289 1.78949 0.754385 0
M  V30 2367 C 223.419 3.33874 0.956302 0
M  V30 2368 C 222.373 4.27152 0.269278 0
M  V30 2369 C 221.699 5.17684 1.33818 0
M  V30 2370 C 222.999 5.15373 -0.847805 0
M  V30 2371 H 224.693 2.89639 -0.758244 0
M  V30 2372 H 222.239 1.39269 -0.366079 0
M  V30 2373 H 224.192 3.9629 1.43292 0
M  V30 2374 H 222.916 2.76025 1.74579 0
M  V30 2375 H 221.575 3.66123 -0.187042 0
M  V30 2376 H 221.223 4.56165 2.1195 0
M  V30 2377 H 220.923 5.80918 0.883659 0
M  V30 2378 H 222.447 5.82974 1.81586 0
M  V30 2379 H 223.861 5.7151 -0.452681 0
M  V30 2380 H 222.258 5.87407 -1.22773 0
M  V30 2381 H 223.328 4.5415 -1.69929 0
M  V30 2382 N 224.671 0.411399 1.52136 0
M  V30 2383 C 225.601 -0.404015 2.29978 0
M  V30 2384 C 226.582 -1.04412 1.34284 0
M  V30 2385 O 227.767 -1.0527 1.63192 0
M  V30 2386 C 224.897 -1.5197 3.12286 0
M  V30 2387 C 223.851 -1.00448 4.16046 0
M  V30 2388 C 223.177 -2.21393 4.86712 0
M  V30 2389 C 224.477 -0.0569336 5.22269 0
M  V30 2390 H 226.171 0.245529 2.98392 0
M  V30 2391 H 223.717 0.119525 1.43503 0
M  V30 2392 H 225.67 -2.09715 3.6551 0
M  V30 2393 H 224.394 -2.19716 2.41646 0
M  V30 2394 H 223.053 -0.449421 3.63835 0
M  V30 2395 H 222.701 -2.87699 4.12599 0
M  V30 2396 H 222.401 -1.87571 5.56858 0
M  V30 2397 H 223.925 -2.7974 5.4275 0
M  V30 2398 H 225.339 -0.54325 5.7072 0
M  V30 2399 H 223.736 0.192594 5.99791 0
M  V30 2400 H 224.806 0.887663 4.76706 0
M  V30 2401 N 226.149 -1.5696 0.141893 0
M  V30 2402 C 227.377 -2.00322 -0.517579 0
M  V30 2403 C 227.792 -1.02193 -1.58752 0
M  V30 2404 O 227.149 -0.0181619 -1.82491 0
M  V30 2405 C 227.2 -3.43618 -1.12289 0
M  V30 2406 O 226.921 -4.37995 -0.0956929 0
M  V30 2407 C 228.422 -4.02231 -1.86347 0
M  V30 2408 H 225.642 -0.657243 -0.135177 0
M  V30 2409 H 228.186 -2.03146 0.234973 0
M  V30 2410 H 226.341 -3.41662 -1.82609 0
M  V30 2411 H 226.755 -5.21729 -0.538469 0
M  V30 2412 H 228.229 -5.04509 -2.23997 0
M  V30 2413 H 228.706 -3.42655 -2.74744 0
M  V30 2414 H 229.312 -4.07802 -1.20737 0
M  V30 2415 N 227.627 0.131896 -1.57047 0
M  V30 2416 C 228.577 1.1679 -1.95816 0
M  V30 2417 C 229.561 1.37756 -0.831393 0
M  V30 2418 O 230.753 1.39065 -1.09499 0
M  V30 2419 C 227.882 2.49778 -2.35512 0
M  V30 2420 C 226.968 2.32342 -3.54793 0
M  V30 2421 N 227.359 1.8469 -4.70875 0
M  V30 2422 C 225.657 2.63043 -3.60173 0
M  V30 2423 C 226.358 1.80656 -5.52936 0
M  V30 2424 N 225.334 2.24528 -4.95064 0
M  V30 2425 H 229.136 0.791818 -2.83033 0
M  V30 2426 H 226.65 0.339791 -1.58805 0
M  V30 2427 H 228.647 3.24692 -2.61498 0
M  V30 2428 H 227.307 2.88156 -1.49654 0
M  V30 2429 H 228.318 1.54429 -4.9434 0
M  V30 2430 H 224.995 3.05193 -2.84892 0
M  V30 2431 H 226.385 1.45178 -6.56028 0
M  V30 2432 N 229.106 1.52395 0.401703 0
M  V30 2433 C 230.036 1.79231 1.49661 0
M  V30 2434 C 231.017 0.643654 1.57452 0
M  V30 2435 O 232.202 0.889989 1.72606 0
M  V30 2436 C 229.332 1.94971 2.87409 0
M  V30 2437 C 228.286 3.10604 2.94465 0
M  V30 2438 C 227.612 3.11577 4.34538 0
M  V30 2439 C 228.912 4.49921 2.6527 0
M  V30 2440 H 230.606 2.70917 1.27454 0
M  V30 2441 H 228.152 1.30362 0.6117 0
M  V30 2442 H 230.105 2.12328 3.63999 0
M  V30 2443 H 228.829 0.999632 3.10926 0
M  V30 2444 H 227.488 2.93009 2.20321 0
M  V30 2445 H 227.136 2.14277 4.55076 0
M  V30 2446 H 226.836 3.89247 4.40183 0
M  V30 2447 H 228.36 3.31073 5.13053 0
M  V30 2448 H 229.774 4.67683 3.31581 0
M  V30 2449 H 228.171 5.29564 2.82281 0
M  V30 2450 H 229.241 4.57507 1.60671 0
M  V30 2451 N 230.584 -0.659388 1.43143 0
M  V30 2452 C 231.514 -1.78422 1.50625 0
M  V30 2453 C 232.495 -1.66216 0.361443 0
M  V30 2454 O 233.68 -1.85404 0.577834 0
M  V30 2455 C 230.81 -3.16815 1.42287 0
M  V30 2456 C 229.764 -3.43777 2.54954 0
M  V30 2457 C 229.09 -4.81905 2.31671 0
M  V30 2458 C 230.39 -3.39134 3.97222 0
M  V30 2459 H 232.084 -1.72417 2.44771 0
M  V30 2460 H 229.63 -0.828084 1.17808 0
M  V30 2461 H 231.583 -3.95253 1.46127 0
M  V30 2462 H 230.307 -3.23534 0.446435 0
M  V30 2463 H 228.966 -2.67707 2.50457 0
M  V30 2464 H 228.614 -4.85294 1.32284 0
M  V30 2465 H 228.314 -5.00906 3.07192 0
M  V30 2466 H 229.838 -5.62609 2.37284 0
M  V30 2467 H 231.252 -4.07518 4.03239 0
M  V30 2468 H 229.649 -3.69671 4.72719 0
M  V30 2469 H 230.719 -2.37426 4.22797 0
M  V30 2470 N 232.062 -1.29571 -0.897171 0
M  V30 2471 C 233.308 -1.18873 -1.65048 0
M  V30 2472 C 233.663 0.256707 -1.9068 0
M  V30 2473 O 232.956 1.18202 -1.50794 0
M  V30 2474 C 233.15 -1.9382 -3.00281 0
M  V30 2475 C 232.979 -3.45503 -2.8785 0
M  V30 2476 C 231.749 -4.14856 -2.88483 0
M  V30 2477 C 233.947 -4.40956 -2.64693 0
M  V30 2478 N 231.929 -5.52886 -2.66815 0
M  V30 2479 C 233.3 -5.66464 -2.5203 0
M  V30 2480 C 235.355 -4.3069 -2.49821 0
M  V30 2481 C 234.058 -6.82871 -2.26008 0
M  V30 2482 C 236.084 -5.46852 -2.25182 0
M  V30 2483 C 235.446 -6.71333 -2.13286 0
M  V30 2484 H 231.545 -0.489998 -0.609447 0
M  V30 2485 H 234.129 -1.63431 -1.05822 0
M  V30 2486 H 232.3 -1.51671 -3.57562 0
M  V30 2487 H 234.032 -1.75366 -3.64731 0
M  V30 2488 H 230.787 -3.66579 -2.99861 0
M  V30 2489 H 231.211 -6.25487 -2.59027 0
M  V30 2490 H 235.853 -3.35141 -2.5776 0
M  V30 2491 H 233.571 -7.78473 -2.16806 0
M  V30 2492 H 237.157 -5.40809 -2.14515 0
M  V30 2493 H 236.037 -7.59701 -1.94485 0
M  V30 2494 N 233.54 1.10788 -1.12088 0
M  V30 2495 C 234.787 1.82671 -0.873931 0
M  V30 2496 C 235.115 1.85004 0.600311 0
M  V30 2497 O 234.37 1.30365 1.45957 0
M  V30 2498 C 234.669 3.29294 -1.38926 0
M  V30 2499 C 234.335 3.47113 -2.87791 0
M  V30 2500 C 232.997 3.51684 -3.28439 0
M  V30 2501 C 235.349 3.52808 -3.83635 0
M  V30 2502 C 232.677 3.59513 -4.63646 0
M  V30 2503 C 235.029 3.62169 -5.18668 0
M  V30 2504 C 233.693 3.65003 -5.58864 0
M  V30 2505 H 232.963 0.668441 -0.319794 0
M  V30 2506 H 235.61 1.30613 -1.40045 0
M  V30 2507 H 233.915 3.83894 -0.783122 0
M  V30 2508 H 235.612 3.83416 -1.17443 0
M  V30 2509 H 232.202 3.4423 -2.5535 0
M  V30 2510 H 236.386 3.4853 -3.53328 0
M  V30 2511 H 231.642 3.59987 -4.94185 0
M  V30 2512 H 235.816 3.6552 -5.92763 0
M  V30 2513 H 233.443 3.70822 -6.63623 0
M  V30 2514 N 235.018 0.912232 1.28515 0
M  V30 2515 C 235.981 0.404223 2.25607 0
M  V30 2516 C 236.981 -0.468602 1.53821 0
M  V30 2517 O 238.171 -0.271873 1.72065 0
M  V30 2518 C 235.303 -0.420653 3.38295 0
M  V30 2519 H 236.496 1.26188 2.7206 0
M  V30 2520 H 234.049 0.691495 1.40171 0
M  V30 2521 H 234.784 -1.29777 2.97201 0
M  V30 2522 H 234.569 0.204935 3.91564 0
M  V30 2523 H 236.059 -0.766971 4.10496 0
M  V30 2524 N 236.496 -1.42363 0.676048 0
M  V30 2525 C 237.444 -2.32596 -0.0131507 0
M  V30 2526 C 238.438 -1.49891 -0.789238 0
M  V30 2527 O 239.644 -1.65955 -0.697061 0
M  V30 2528 H 236.019 -0.751647 -0.0230481 0
M  V30 2529 H 237.99 -2.88421 0.765243 0
M  V30 2530 C 236.739 -3.34479 -0.949702 0
M  V30 2531 H 236.062 -3.98158 -0.361938 0
M  V30 2532 H 237.502 -4.00199 -1.4006 0
M  V30 2533 C 235.961 -2.66838 -2.05667 0
M  V30 2534 O 236.491 -2.50124 -3.14326 0
M  V30 2535 N 234.697 -2.25843 -1.82875 0
M  V30 2536 H 234.244 -2.39637 -0.945085 0
M  V30 2537 H 234.202 -1.80918 -2.5713 0
M  V30 2538 N 237.974 -0.419461 -1.51915 0
M  V30 2539 C 238.937 0.389116 -2.25873 0
M  V30 2540 C 239.937 0.964924 -1.28631 0
M  V30 2541 O 241.127 0.842179 -1.52489 0
M  V30 2542 C 238.259 1.54874 -3.03689 0
M  V30 2543 H 239.452 -0.258799 -2.98781 0
M  V30 2544 H 237.005 -0.172209 -1.55348 0
M  V30 2545 H 237.74 2.23323 -2.35154 0
M  V30 2546 H 237.525 1.14223 -3.75094 0
M  V30 2547 H 239.015 2.12046 -3.59759 0
M  V30 2548 N 239.452 1.56882 -0.150215 0
M  V30 2549 C 240.402 2.13501 0.800071 0
M  V30 2550 C 241.386 1.06368 1.20726 0
M  V30 2551 O 242.578 1.32538 1.17314 0
M  V30 2552 C 239.707 2.76271 2.03787 0
M  V30 2553 C 238.793 3.90533 1.65364 0
M  V30 2554 N 239.184 4.96259 0.977794 0
M  V30 2555 C 237.482 4.013 1.94613 0
M  V30 2556 C 238.183 5.76286 0.791794 0
M  V30 2557 N 237.159 5.27163 1.32666 0
M  V30 2558 H 240.961 2.92615 0.274517 0
M  V30 2559 H 238.475 1.62319 0.0512144 0
M  V30 2560 H 240.472 3.15197 2.72867 0
M  V30 2561 H 239.132 1.98631 2.56857 0
M  V30 2562 H 240.143 5.13953 0.638193 0
M  V30 2563 H 236.82 3.3474 2.4951 0
M  V30 2564 H 238.21 6.71401 0.258894 0
M  V30 2565 N 240.93 -0.123565 1.57115 0
M  V30 2566 C 241.86 -1.15309 2.03042 0
M  V30 2567 C 242.841 -1.43454 0.914061 0
M  V30 2568 O 244.026 -1.53973 1.18347 0
M  V30 2569 C 241.156 -2.48043 2.43089 0
M  V30 2570 C 240.11 -2.3437 3.58127 0
M  V30 2571 C 239.436 -3.72026 3.84059 0
M  V30 2572 C 240.736 -1.80804 4.90007 0
M  V30 2573 H 242.43 -0.771102 2.893 0
M  V30 2574 H 239.976 -0.369479 1.39179 0
M  V30 2575 H 241.929 -3.20311 2.73823 0
M  V30 2576 H 240.653 -2.88122 1.53796 0
M  V30 2577 H 239.312 -1.64551 3.27595 0
M  V30 2578 H 238.96 -4.09582 2.91979 0
M  V30 2579 H 238.66 -3.63732 4.6149 0
M  V30 2580 H 240.184 -4.45806 4.1724 0
M  V30 2581 H 241.598 -2.42886 5.19307 0
M  V30 2582 H 239.995 -1.83343 5.71407 0
M  V30 2583 H 241.065 -0.76528 4.78823 0
M  V30 2584 N 242.408 -1.52605 -0.393616 0
M  V30 2585 C 243.338 -1.80022 -1.48709 0
M  V30 2586 C 244.319 -0.651995 -1.57108 0
M  V30 2587 O 245.504 -0.89913 -1.72132 0
M  V30 2588 C 242.634 -1.96492 -2.86371 0
M  V30 2589 C 241.588 -3.12161 -2.92813 0
M  V30 2590 C 240.914 -3.13877 -4.3288 0
M  V30 2591 C 242.214 -4.51322 -2.6288 0
M  V30 2592 H 243.908 -2.71589 -1.26015 0
M  V30 2593 H 241.454 -1.30684 -0.604778 0
M  V30 2594 H 243.407 -2.14255 -3.62867 0
M  V30 2595 H 242.131 -1.01611 -3.10391 0
M  V30 2596 H 240.79 -2.94173 -2.18764 0
M  V30 2597 H 240.438 -2.16687 -4.53933 0
M  V30 2598 H 240.138 -3.91576 -4.38112 0
M  V30 2599 H 241.662 -3.33789 -5.1129 0
M  V30 2600 H 243.076 -4.69435 -3.29096 0
M  V30 2601 H 241.473 -5.31053 -2.79468 0
M  V30 2602 H 242.543 -4.58353 -1.58242 0
M  V30 2603 N 243.887 0.651787 -1.4349 0
M  V30 2604 C 245.112 1.44434 -1.48841 0
M  V30 2605 C 245.537 1.8779 -0.107955 0
M  V30 2606 O 244.895 1.57464 0.898602 0
M  V30 2607 C 244.943 2.65458 -2.44059 0
M  V30 2608 O 244.047 3.64566 -1.92784 0
M  V30 2609 H 243.388 0.433005 -0.503391 0
M  V30 2610 H 245.918 0.797451 -1.88419 0
M  V30 2611 H 245.928 3.13255 -2.6141 0
M  V30 2612 H 244.603 2.33244 -3.4434 0
M  V30 2613 H 243.18 3.23716 -1.851 0
M  V30 2614 N 245.365 1.30045 0.890287 0
M  V30 2615 C 246.611 1.19747 1.64415 0
M  V30 2616 C 246.966 -0.246591 1.90813 0
M  V30 2617 O 246.259 -1.174 1.51419 0
M  V30 2618 C 246.453 1.95409 2.99249 0
M  V30 2619 C 246.282 3.47025 2.86013 0
M  V30 2620 C 245.052 4.1638 2.86279 0
M  V30 2621 C 247.25 4.42353 2.62351 0
M  V30 2622 N 245.232 5.54293 2.63879 0
M  V30 2623 C 246.603 5.67792 2.49022 0
M  V30 2624 C 248.658 4.32009 2.47533 0
M  V30 2625 C 247.361 6.8406 2.22383 0
M  V30 2626 C 249.387 5.48038 2.22279 0
M  V30 2627 C 248.749 6.72455 2.09722 0
M  V30 2628 H 244.848 0.493223 0.60684 0
M  V30 2629 H 247.432 1.6399 1.04954 0
M  V30 2630 H 245.603 1.53565 3.56752 0
M  V30 2631 H 247.335 1.77298 3.63796 0
M  V30 2632 H 244.09 3.68164 2.97913 0
M  V30 2633 H 244.514 6.26852 2.55706 0
M  V30 2634 H 249.156 3.36503 2.55979 0
M  V30 2635 H 246.874 7.79612 2.12675 0
M  V30 2636 H 250.46 5.41939 2.11643 0
M  V30 2637 H 249.34 7.60722 1.90453 0
M  V30 2638 N 246.843 -1.10192 1.12674 0
M  V30 2639 C 248.09 -1.82205 0.883606 0
M  V30 2640 C 248.418 -1.8532 -0.590492 0
M  V30 2641 O 247.673 -1.31137 -1.45264 0
M  V30 2642 C 247.972 -3.28552 1.4067 0
M  V30 2643 C 247.638 -3.45582 2.89627 0
M  V30 2644 C 246.3 -3.49937 3.30299 0
M  V30 2645 C 248.652 -3.50768 3.85501 0
M  V30 2646 C 245.98 -3.57049 4.65546 0
M  V30 2647 C 248.332 -3.59414 5.20581 0
M  V30 2648 C 246.996 -3.62034 5.60792 0
M  V30 2649 H 246.266 -0.666735 0.323334 0
M  V30 2650 H 248.913 -1.29868 1.40736 0
M  V30 2651 H 247.218 -3.83473 0.80347 0
M  V30 2652 H 248.915 -3.82788 1.19475 0
M  V30 2653 H 245.505 -3.42871 2.57172 0
M  V30 2654 H 249.689 -3.46651 3.55171 0
M  V30 2655 H 244.945 -3.57361 4.96088 0
M  V30 2656 H 249.119 -3.62371 5.94693 0
M  V30 2657 H 246.746 -3.67298 6.6558 0
M  V30 2658 N 248.321 -0.919034 -1.28029 0
M  V30 2659 C 249.546 -0.570357 -1.99403 0
M  V30 2660 C 249.971 0.842486 -1.68178 0
M  V30 2661 O 249.329 1.56391 -0.917141 0
M  V30 2662 C 249.377 -0.792541 -3.51783 0
M  V30 2663 O 248.481 0.145988 -4.12142 0
M  V30 2664 H 247.822 -0.220555 -0.6263 0
M  V30 2665 H 250.352 -1.23592 -1.63053 0
M  V30 2666 H 250.362 -0.704708 -4.01868 0
M  V30 2667 H 249.037 -1.82247 -3.73844 0
M  V30 2668 H 247.614 0.00897528 -3.72899 0
M  V30 2669 N 249.799 1.42003 -0.683588 0
M  V30 2670 C 251.21 1.84501 -0.285736 0
M  V30 2671 C 251.561 1.57213 1.17382 0
M  V30 2672 O 250.686 1.03642 1.89966 0
M  V30 2673 C 251.281 3.34912 -0.511821 0
M  V30 2674 C 249.84 3.76025 -0.168005 0
M  V30 2675 C 248.987 2.6551 -0.799983 0
M  V30 2676 H 251.938 1.31724 -0.885119 0
M  V30 2677 H 251.959 3.79784 0.233292 0
M  V30 2678 H 251.471 3.54741 -1.57418 0
M  V30 2679 H 249.572 3.61801 0.890567 0
M  V30 2680 H 249.685 4.75141 -0.614661 0
M  V30 2681 H 248.049 2.53654 -0.230568 0
M  V30 2682 H 248.832 2.8816 -1.86597 0
M  V30 2683 N 251.277 0.427512 1.51691 0
M  V30 2684 C 252.505 -0.141191 2.06418 0
M  V30 2685 C 252.92 -1.37303 1.29589 0
M  V30 2686 O 252.277 -1.79059 0.352732 0
M  V30 2687 C 252.328 -0.473266 3.58389 0
M  V30 2688 O 252.049 0.709673 4.32314 0
M  V30 2689 C 253.55 -1.09371 4.29596 0
M  V30 2690 H 250.77 -0.0122747 0.670888 0
M  V30 2691 H 253.314 0.603764 1.95384 0
M  V30 2692 H 251.469 -1.16812 3.69369 0
M  V30 2693 H 251.883 0.42807 5.2275 0
M  V30 2694 H 253.357 -1.27613 5.37046 0
M  V30 2695 H 253.834 -2.072 3.87253 0
M  V30 2696 H 254.44 -0.43853 4.23033 0
M  V30 2697 N 252.755 -1.56801 0.158532 0
M  V30 2698 C 254.004 -1.95665 -0.489702 0
M  V30 2699 C 254.317 -1.04654 -1.65248 0
M  V30 2700 O 255.523 -1.33146 -2.3661 0
M  V30 2701 C 253.979 -3.47874 -0.922582 0
M  V30 2702 C 253.587 -4.47489 0.213893 0
M  V30 2703 C 255.331 -3.95583 -1.53996 0
M  V30 2704 C 253.238 -5.90921 -0.237903 0
M  V30 2705 H 252.168 -0.730516 -0.186716 0
M  V30 2706 H 254.819 -1.81861 0.244722 0
M  V30 2707 H 253.201 -3.57051 -1.71261 0
M  V30 2708 H 254.375 -4.50017 0.991036 0
M  V30 2709 H 252.69 -4.09764 0.740407 0
M  V30 2710 H 255.287 -5.0019 -1.8898 0
M  V30 2711 H 255.63 -3.37789 -2.43319 0
M  V30 2712 H 256.163 -3.8937 -0.814611 0
M  V30 2713 H 252.902 -6.52559 0.620236 0
M  V30 2714 H 252.422 -5.91729 -0.980676 0
M  V30 2715 H 254.101 -6.43352 -0.686067 0
M  V30 2716 N 254.233 0.115231 -1.57178 0
M  V30 2717 C 255.482 0.820945 -1.84237 0
M  V30 2718 C 255.795 1.80866 -0.744761 0
M  V30 2719 O 257.001 2.56083 -0.901871 0
M  V30 2720 C 255.457 1.51072 -3.26658 0
M  V30 2721 C 255.065 0.563795 -4.44438 0
M  V30 2722 C 256.809 2.20134 -3.62962 0
M  V30 2723 C 254.716 1.25701 -5.77887 0
M  V30 2724 H 253.646 0.310328 -0.687177 0
M  V30 2725 H 256.297 0.0737134 -1.83352 0
M  V30 2726 H 254.679 2.30471 -3.22024 0
M  V30 2727 H 255.853 -0.197247 -4.60378 0
M  V30 2728 H 254.168 -0.0200638 -4.16395 0
M  V30 2729 H 256.765 2.72696 -4.59936 0
M  V30 2730 H 257.108 2.98107 -2.90582 0
M  V30 2731 H 257.641 1.47619 -3.69396 0
M  V30 2732 H 254.38 0.518493 -6.53446 0
M  V30 2733 H 253.9 1.98997 -5.65827 0
M  V30 2734 H 255.579 1.78915 -6.2177 0
M  V30 2735 N 255.711 1.52812 0.385517 0
M  V30 2736 C 256.958 1.68026 1.1302 0
M  V30 2737 C 257.286 0.421934 1.89868 0
M  V30 2738 O 256.541 -0.595749 1.86412 0
M  V30 2739 C 256.84 2.86856 2.13187 0
M  V30 2740 C 256.506 4.24159 1.5297 0
M  V30 2741 C 255.168 4.61501 1.36274 0
M  V30 2742 C 257.52 5.09627 1.09223 0
M  V30 2743 C 254.848 5.81966 0.743837 0
M  V30 2744 C 257.2 6.30719 0.487411 0
M  V30 2745 C 255.864 6.6679 0.307777 0
M  V30 2746 H 255.134 0.614849 0.413571 0
M  V30 2747 H 257.781 1.86962 0.414405 0
M  V30 2748 H 256.086 2.6235 2.90998 0
M  V30 2749 H 257.783 2.95821 2.70722 0
M  V30 2750 H 254.373 3.94746 1.66954 0
M  V30 2751 H 258.557 4.81343 1.20922 0
M  V30 2752 H 253.813 6.08519 0.592891 0
M  V30 2753 H 257.987 6.96259 0.140143 0
M  V30 2754 H 255.614 7.60001 -0.173879 0
M  V30 2755 N 257.189 -0.644168 1.43834 0
M  V30 2756 C 258.466 -1.40188 1.36406 0
M  V30 2757 C 258.846 -2.11094 0.0163124 0
M  V30 2758 O 258.194 -2.05426 -1.00062 0
M  V30 2759 C 258.404 -2.3791 2.55343 0
M  V30 2760 C 259.752 -3.01637 2.98832 0
M  V30 2761 O 260.776 -2.48237 2.55455 0
M  V30 2762 O 259.635 -3.98477 3.74003 0
M  V30 2763 H 256.729 -0.626773 0.539523 0
M  V30 2764 H 259.275 -0.670317 1.559 0
M  V30 2765 H 258.047 -1.84525 3.4506 0
M  V30 2766 H 257.67 -3.18503 2.37995 0
M  V30 2767 N 258.668 -1.30515 -0.883378 0
M  V30 2768 C 259.616 -1.16941 -2.01066 0
M  V30 2769 C 260.61 -0.0809148 -1.69207 0
M  V30 2770 O 261.816 -0.241877 -1.78367 0
M  V30 2771 H 258.191 -0.361705 -0.659298 0
M  V30 2772 H 260.162 -2.12344 -2.09649 0
M  V30 2773 C 258.911 -0.879694 -3.36388 0
M  V30 2774 H 258.234 -1.70936 -3.61415 0
M  V30 2775 H 259.674 -0.82483 -4.159 0
M  V30 2776 C 258.133 0.417409 -3.34304 0
M  V30 2777 O 258.663 1.43843 -3.75063 0
M  V30 2778 N 256.869 0.429141 -2.87414 0
M  V30 2779 H 256.416 -0.402222 -2.5444 0
M  V30 2780 H 256.374 1.29696 -2.86403 0
M  V30 2781 N 260.146 1.09593 -1.13257 0
M  V30 2782 C 261.392 1.82181 -0.904521 0
M  V30 2783 C 261.747 1.83967 0.563358 0
M  V30 2784 O 261.04 1.29566 1.41149 0
M  V30 2785 C 261.234 3.27802 -1.42411 0
M  V30 2786 C 261.063 3.40201 -2.94097 0
M  V30 2787 C 259.833 3.52104 -3.62424 0
M  V30 2788 C 262.031 3.32875 -3.92044 0
M  V30 2789 N 260.013 3.53169 -5.0214 0
M  V30 2790 C 261.384 3.40789 -5.17941 0
M  V30 2791 C 263.439 3.16531 -3.84334 0
M  V30 2792 C 262.142 3.34042 -6.37031 0
M  V30 2793 C 264.168 3.11109 -5.02956 0
M  V30 2794 C 263.53 3.19614 -6.27715 0
M  V30 2795 H 259.629 0.681015 -0.384373 0
M  V30 2796 H 262.213 1.3099 -1.44048 0
M  V30 2797 H 260.384 3.77466 -0.915086 0
M  V30 2798 H 262.116 3.88393 -1.13722 0
M  V30 2799 H 258.871 3.5548 -3.12939 0
M  V30 2800 H 259.295 3.57291 -5.75041 0
M  V30 2801 H 263.937 3.08827 -2.88766 0
M  V30 2802 H 261.655 3.4051 -7.32857 0
M  V30 2803 H 265.241 2.99601 -4.98729 0
M  V30 2804 H 264.121 3.15432 -7.17964 0
M  V30 2805 N 261.624 0.925811 1.2754 0
M  V30 2806 C 262.873 0.561084 1.93739 0
M  V30 2807 C 263.186 -0.901685 1.73577 0
M  V30 2808 O 264.392 -1.37511 2.34101 0
M  V30 2809 C 262.848 0.952668 3.47062 0
M  V30 2810 C 262.456 2.43599 3.75983 0
M  V30 2811 C 264.2 0.659103 4.19352 0
M  V30 2812 C 262.107 2.76707 5.22673 0
M  V30 2813 H 261.037 0.206122 0.725279 0
M  V30 2814 H 263.688 1.12637 1.44863 0
M  V30 2815 H 262.07 0.316053 3.94737 0
M  V30 2816 H 263.244 3.12035 3.39073 0
M  V30 2817 H 261.559 2.70125 3.16893 0
M  V30 2818 H 264.156 0.882985 5.27359 0
M  V30 2819 H 264.499 -0.403607 4.14339 0
M  V30 2820 H 265.032 1.25473 3.77494 0
M  V30 2821 H 261.771 3.8188 5.32774 0
M  V30 2822 H 261.291 2.12919 5.60737 0
M  V30 2823 H 262.97 2.6435 5.90532 0
M  V30 2824 N 263.102 -1.41638 0.69111 0
M  V30 2825 C 264.513 -1.84346 0.295517 0
M  V30 2826 C 264.864 -1.57833 -1.16547 0
M  V30 2827 O 263.989 -1.04648 -1.89414 0
M  V30 2828 C 264.584 -3.34636 0.529575 0
M  V30 2829 C 263.143 -3.7593 0.187944 0
M  V30 2830 C 262.29 -2.65082 0.814052 0
M  V30 2831 H 265.241 -1.31253 0.892092 0
M  V30 2832 H 265.262 -3.79903 -0.213148 0
M  V30 2833 H 264.774 -3.53901 1.59297 0
M  V30 2834 H 262.875 -3.62268 -0.871367 0
M  V30 2835 H 262.988 -4.74808 0.63985 0
M  V30 2836 H 261.352 -2.53528 0.244017 0
M  V30 2837 H 262.135 -2.87167 1.88123 0
M  V30 2838 N 264.58 -0.43555 -1.51462 0
M  V30 2839 C 265.51 0.367376 -2.30592 0
M  V30 2840 C 266.491 1.02263 -1.35928 0
M  V30 2841 O 267.676 1.02661 -1.64847 0
M  V30 2842 C 264.806 1.46983 -3.14664 0
M  V30 2843 C 263.76 0.938161 -4.17591 0
M  V30 2844 C 263.086 2.13622 -4.90173 0
M  V30 2845 C 264.386 -0.0261621 -5.22293 0
M  V30 2846 H 266.08 -0.292969 -2.97963 0
M  V30 2847 H 263.626 -0.14234 -1.43295 0
M  V30 2848 H 265.579 2.03873 -3.688 0
M  V30 2849 H 264.303 2.15843 -2.4511 0
M  V30 2850 H 262.962 0.391481 -3.64504 0
M  V30 2851 H 262.61 2.81098 -4.17124 0
M  V30 2852 H 262.31 1.78688 -5.59772 0
M  V30 2853 H 263.834 2.7107 -5.47132 0
M  V30 2854 H 265.248 0.452384 -5.71512 0
M  V30 2855 H 263.645 -0.287992 -5.99409 0
M  V30 2856 H 264.715 -0.963391 -4.75233 0
M  V30 2857 N 266.058 1.56714 -0.166846 0
M  V30 2858 C 266.988 2.20754 0.760913 0
M  V30 2859 C 267.969 1.16178 1.24244 0
M  V30 2860 O 269.154 1.44592 1.29641 0
M  V30 2861 C 266.284 2.84478 1.99223 0
M  V30 2862 C 265.238 3.95053 1.64672 0
M  V30 2863 C 264.564 4.45805 2.95232 0
M  V30 2864 C 265.864 5.14865 0.878155 0
M  V30 2865 H 267.558 2.98537 0.22713 0
M  V30 2866 H 265.104 1.43596 0.107805 0
M  V30 2867 H 267.057 3.27951 2.64624 0
M  V30 2868 H 265.781 2.04056 2.55007 0
M  V30 2869 H 264.44 3.52228 1.01641 0
M  V30 2870 H 264.088 3.62181 3.49047 0
M  V30 2871 H 263.788 5.204 2.7287 0
M  V30 2872 H 265.312 4.91962 3.6167 0
M  V30 2873 H 266.726 5.55059 1.43466 0
M  V30 2874 H 265.123 5.95348 0.753738 0
M  V30 2875 H 266.193 4.84735 -0.126377 0
M  V30 2876 N 267.536 -0.106894 1.57237 0
M  V30 2877 C 268.782 -0.808678 1.86633 0
M  V30 2878 C 269.137 -1.76917 0.756178 0
M  V30 2879 O 268.43 -1.90055 -0.242834 0
M  V30 2880 C 268.624 -1.58628 3.20268 0
M  V30 2881 C 268.453 -0.702592 4.44178 0
M  V30 2882 C 267.223 -0.352808 5.04067 0
M  V30 2883 C 269.421 -0.0148031 5.14298 0
M  V30 2884 N 267.403 0.540279 6.11518 0
M  V30 2885 C 268.774 0.736809 6.15606 0
M  V30 2886 C 270.829 0.0603524 4.97863 0
M  V30 2887 C 269.532 1.55654 7.02257 0
M  V30 2888 C 271.558 0.866942 5.85011 0
M  V30 2889 C 270.92 1.60671 6.85831 0
M  V30 2890 H 267.019 -0.27246 0.733001 0
M  V30 2891 H 269.603 -0.0717858 1.94568 0
M  V30 2892 H 267.774 -2.29413 3.13408 0
M  V30 2893 H 269.506 -2.23434 3.3743 0
M  V30 2894 H 266.261 -0.697802 4.68431 0
M  V30 2895 H 266.685 0.979029 6.69884 0
M  V30 2896 H 271.327 -0.497236 4.19866 0
M  V30 2897 H 269.045 2.12524 7.79653 0
M  V30 2898 H 272.631 0.927612 5.74358 0
M  V30 2899 H 271.511 2.2208 7.52097 0
M  V30 2900 N 269.014 -1.53014 -0.377408 0
M  V30 2901 C 270.254 -1.70318 -1.1301 0
M  V30 2902 C 270.618 -0.439538 -1.86901 0
M  V30 2903 O 271.819 -0.489095 -2.64313 0
M  V30 2904 C 270.09 -2.91125 -2.07319 0
M  V30 2905 S 271.649 -3.29075 -2.90268 0
M  V30 2906 H 268.467 -0.599426 -0.382374 0
M  V30 2907 H 271.069 -1.91089 -0.412933 0
M  V30 2908 H 269.773 -3.81303 -1.51777 0
M  V30 2909 H 269.304 -2.7272 -2.83526 0
M  V30 2910 H 271.319 -2.80165 -4.09539 0
M  V30 2911 N 270.492 0.636531 -1.44174 0
M  V30 2912 C 271.455 1.73063 -1.50273 0
M  V30 2913 C 272.455 1.56113 -0.385397 0
M  V30 2914 O 273.645 1.61707 -0.64781 0
M  V30 2915 C 270.777 3.12096 -1.37145 0
M  V30 2916 H 271.97 1.69031 -2.47727 0
M  V30 2917 H 269.523 0.849706 -1.31186 0
M  V30 2918 H 270.258 3.21728 -0.407636 0
M  V30 2919 H 270.043 3.25805 -2.18159 0
M  V30 2920 H 271.533 3.91846 -1.44382 0
M  V30 2921 N 271.97 1.30982 0.876444 0
M  V30 2922 C 272.918 1.18006 2.00443 0
M  V30 2923 C 273.912 0.0898871 1.69161 0
M  V30 2924 O 275.118 0.251333 1.78237 0
M  V30 2925 H 271.493 0.365196 0.65737 0
M  V30 2926 H 273.464 2.13453 2.0852 0
M  V30 2927 C 272.213 0.897521 3.35916 0
M  V30 2928 H 271.536 1.7285 3.60504 0
M  V30 2929 H 272.976 0.846874 4.15456 0
M  V30 2930 C 271.435 -0.399674 3.34521 0
M  V30 2931 O 271.965 -1.41852 3.7582 0
M  V30 2932 N 270.171 -0.413893 2.87637 0
M  V30 2933 H 269.718 0.41571 2.54224 0
M  V30 2934 H 269.676 -1.28175 2.87086 0
M  V30 2935 N 273.449 -1.08991 1.13837 0
M  V30 2936 C 274.698 -1.80631 0.897509 0
M  V30 2937 C 275.011 -1.86872 -0.57777 0
M  V30 2938 O 276.217 -2.54866 -0.935701 0
M  V30 2939 C 274.673 -3.24517 1.55618 0
M  V30 2940 C 274.281 -3.26529 3.0673 0
M  V30 2941 C 276.025 -4.00882 1.3962 0
M  V30 2942 C 273.932 -4.64965 3.65461 0
M  V30 2943 H 272.862 -0.67691 0.332129 0
M  V30 2944 H 275.513 -1.2246 1.3666 0
M  V30 2945 H 273.895 -3.82778 1.01476 0
M  V30 2946 H 275.069 -2.78008 3.67489 0
M  V30 2947 H 273.384 -2.63656 3.22296 0
M  V30 2948 H 275.981 -5.03167 1.80906 0
M  V30 2949 H 276.324 -4.14896 0.341578 0
M  V30 2950 H 276.857 -3.49075 1.90766 0
M  V30 2951 H 273.596 -4.56153 4.70749 0
M  V30 2952 H 273.116 -5.13792 3.09481 0
M  V30 2953 H 274.795 -5.3394 3.654 0
M  V30 2954 N 274.927 -0.932562 -1.27047 0
M  V30 2955 C 275.857 -0.452902 -2.29066 0
M  V30 2956 C 276.838 0.489338 -1.62909 0
M  V30 2957 O 278.023 0.393046 -1.90181 0
M  V30 2958 C 275.153 0.290698 -3.46081 0
M  V30 2959 C 274.107 -0.564168 -4.24265 0
M  V30 2960 C 273.433 0.308886 -5.33807 0
M  V30 2961 C 274.733 -1.83112 -4.89149 0
M  V30 2962 H 276.427 -1.30552 -2.69437 0
M  V30 2963 H 273.973 -0.629201 -1.29526 0
M  V30 2964 H 275.926 0.637233 -4.16554 0
M  V30 2965 H 274.65 1.17738 -3.0464 0
M  V30 2966 H 273.309 -0.893477 -3.55545 0
M  V30 2967 H 272.957 1.19467 -4.88607 0
M  V30 2968 H 272.657 -0.259633 -5.87026 0
M  V30 2969 H 274.181 0.650884 -6.07121 0
M  V30 2970 H 275.595 -1.55236 -5.51883 0
M  V30 2971 H 273.992 -2.34353 -5.52448 0
M  V30 2972 H 275.062 -2.54772 -4.12576 0
M  V30 2973 N 276.405 1.4127 -0.698611 0
M  V30 2974 C 277.653 2.00782 -0.230409 0
M  V30 2975 C 277.974 1.5562 1.17505 0
M  V30 2976 O 277.244 0.78815 1.79346 0
M  V30 2977 H 275.824 0.742464 -0.0821944 0
M  V30 2978 H 278.486 1.72852 -0.90045 0
M  V30 2979 H 277.582 3.11095 -0.25021 0
M  V30 2980 N 277.883 0.443576 1.51229 0
M  V30 2981 C 279.113 -0.119117 2.06256 0
M  V30 2982 C 279.521 -1.36471 1.31043 0
M  V30 2983 O 278.864 -1.80034 0.365151 0
M  V30 2984 C 278.926 -0.500546 3.55998 0
M  V30 2985 C 278.59 0.639125 4.52509 0
M  V30 2986 C 279.587 1.51311 4.97394 0
M  V30 2987 C 277.272 0.821632 4.95535 0
M  V30 2988 C 279.266 2.55425 5.83984 0
M  V30 2989 C 276.953 1.86603 5.81913 0
M  V30 2990 C 277.951 2.73072 6.26036 0
M  V30 2991 O 277.639 3.75718 7.10698 0
M  V30 2992 H 277.371 -0.00857665 0.675946 0
M  V30 2993 H 279.925 0.623288 1.95715 0
M  V30 2994 H 278.155 -1.29575 3.64345 0
M  V30 2995 H 279.844 -0.995116 3.93513 0
M  V30 2996 H 280.61 1.38367 4.64844 0
M  V30 2997 H 276.489 0.158149 4.60729 0
M  V30 2998 H 280.033 3.22949 6.18344 0
M  V30 2999 H 275.93 1.99564 6.13876 0
M  V30 3000 H 276.698 3.72374 7.2889 0
M  V30 3001 N 279.361 -1.56624 0.175154 0
M  V30 3002 C 280.324 -2.16934 -0.739738 0
M  V30 3003 C 281.324 -1.11842 -1.15533 0
M  V30 3004 O 282.514 -1.37335 -1.07167 0
M  V30 3005 C 279.646 -2.75531 -2.00738 0
M  V30 3006 H 280.839 -2.99131 -0.214639 0
M  V30 3007 H 278.392 -1.56123 -0.0744197 0
M  V30 3008 H 279.127 -1.97078 -2.57548 0
M  V30 3009 H 278.912 -3.52444 -1.71831 0
M  V30 3010 H 280.402 -3.21904 -2.66021 0
M  V30 3011 N 280.839 0.0985539 -1.57292 0
M  V30 3012 C 282.085 0.803867 -1.86188 0
M  V30 3013 C 282.418 1.78549 -0.763794 0
M  V30 3014 O 281.693 1.93153 0.22855 0
M  V30 3015 C 281.976 1.53568 -3.25713 0
M  V30 3016 C 281.829 0.572277 -4.46145 0
M  V30 3017 C 283.148 2.48708 -3.63087 0
M  V30 3018 H 280.267 0.290781 -0.677211 0
M  V30 3019 H 282.909 0.0675783 -1.8988 0
M  V30 3020 H 281.059 2.16332 -3.22696 0
M  V30 3021 H 282.731 -0.0480894 -4.61275 0
M  V30 3022 H 280.974 -0.114618 -4.33649 0
M  V30 3023 H 281.645 1.12139 -5.40489 0
M  V30 3024 H 284.121 1.96039 -3.67026 0
M  V30 3025 H 282.997 2.96932 -4.61652 0
M  V30 3026 H 283.258 3.32309 -2.91588 0
M  V30 3027 N 282.317 1.53212 0.369288 0
M  V30 3028 C 283.542 1.73423 1.1375 0
M  V30 3029 C 283.967 0.460404 1.82378 0
M  V30 3030 O 283.325 -0.585298 1.71592 0
M  V30 3031 C 283.373 2.89769 2.1463 0
M  V30 3032 O 282.477 2.58119 3.21634 0
M  V30 3033 H 281.818 0.576061 0.330227 0
M  V30 3034 H 284.348 2.00083 0.427547 0
M  V30 3035 H 284.358 3.15829 2.58294 0
M  V30 3036 H 283.033 3.8217 1.64071 0
M  V30 3037 H 281.61 2.42864 2.82969 0
M  V30 3038 N 283.795 -0.628877 1.44509 0
M  V30 3039 C 285.023 -1.41554 1.50897 0
M  V30 3040 C 285.438 -1.8832 0.134564 0
M  V30 3041 O 284.795 -1.60969 -0.859965 0
M  V30 3042 C 284.846 -2.63435 2.47556 0
M  V30 3043 O 284.567 -2.18619 3.79654 0
M  V30 3044 C 286.068 -3.56537 2.63431 0
M  V30 3045 H 283.288 -0.434044 0.511709 0
M  V30 3046 H 285.832 -0.768895 1.89495 0
M  V30 3047 H 283.987 -3.24187 2.12089 0
M  V30 3048 H 284.401 -2.97652 4.31861 0
M  V30 3049 H 285.875 -4.38657 3.35088 0
M  V30 3050 H 286.352 -4.05493 1.68738 0
M  V30 3051 H 286.958 -3.01653 2.9981 0
M  V30 3052 N 285.273 -1.31445 -0.869486 0
M  V30 3053 C 286.52 -1.21158 -1.62256 0
M  V30 3054 C 286.848 0.230155 -1.93133 0
M  V30 3055 O 286.103 1.17906 -1.56194 0
M  V30 3056 C 286.402 -2.00145 -2.96102 0
M  V30 3057 C 286.068 -3.4964 -2.84715 0
M  V30 3058 C 284.73 -3.90403 -2.81317 0
M  V30 3059 C 287.082 -4.44769 -2.71716 0
M  V30 3060 C 284.41 -5.24561 -2.62778 0
M  V30 3061 C 286.762 -5.79054 -2.54714 0
M  V30 3062 C 285.426 -6.19037 -2.49699 0
M  V30 3063 H 284.696 -0.443348 -0.593737 0
M  V30 3064 H 287.343 -1.62715 -1.00976 0
M  V30 3065 H 285.648 -1.5127 -3.6142 0
M  V30 3066 H 287.345 -1.89566 -3.53363 0
M  V30 3067 H 283.935 -3.17256 -2.88178 0
M  V30 3068 H 288.119 -4.14208 -2.73397 0
M  V30 3069 H 283.375 -5.54613 -2.57321 0
M  V30 3070 H 287.549 -6.52393 -2.43632 0
M  V30 3071 H 285.176 -7.22935 -2.35093 0
M  V30 3072 N 286.751 1.08385 -1.14413 0
M  V30 3073 C 287.714 2.13486 -0.834048 0
M  V30 3074 C 288.714 1.59988 0.161418 0
M  V30 3075 O 289.904 1.74071 -0.0669575 0
M  V30 3076 C 287.036 3.4003 -0.243354 0
M  V30 3077 H 288.229 2.42425 -1.7655 0
M  V30 3078 H 285.782 1.24101 -0.950189 0
M  V30 3079 H 286.517 3.16726 0.696807 0
M  V30 3080 H 286.302 3.80157 -0.960367 0
M  V30 3081 H 287.792 4.17577 -0.0436242 0
M  V30 3082 N 288.23 0.939286 1.26551 0
M  V30 3083 C 289.163 0.391702 2.24813 0
M  V30 3084 C 290.141 -0.518421 1.54114 0
M  V30 3085 O 291.325 -0.456299 1.82894 0
M  V30 3086 C 288.452 -0.437382 3.35864 0
M  V30 3087 C 287.498 0.410946 4.24516 0
M  V30 3088 S 288.331 1.83372 5.03125 0
M  V30 3089 C 289.487 1.01264 6.17654 0
M  V30 3090 H 289.72 1.22448 2.70913 0
M  V30 3091 H 287.253 0.742269 1.35387 0
M  V30 3092 H 289.211 -0.909837 4.0029 0
M  V30 3093 H 287.872 -1.24482 2.8838 0
M  V30 3094 H 287.065 -0.224191 5.03501 0
M  V30 3095 H 286.667 0.818014 3.64945 0
M  V30 3096 H 288.959 0.254023 6.77024 0
M  V30 3097 H 289.902 1.77589 6.85469 0
M  V30 3098 H 290.31 0.549532 5.61819 0
M  V30 3099 N 289.708 -1.40897 0.706093 0
M  V30 3100 C 290.954 -2.01352 0.241889 0
M  V30 3101 C 291.287 -1.55832 -1.15888 0
M  V30 3102 O 290.562 -0.774145 -1.7843 0
M  V30 3103 C 290.845 -3.58752 0.311311 0
M  V30 3104 C 290.698 -4.1437 1.74978 0
M  V30 3105 C 292.017 -4.38914 -0.322922 0
M  V30 3106 H 289.136 -0.731562 0.0893687 0
M  V30 3107 H 291.778 -1.67504 0.896802 0
M  V30 3108 H 289.928 -3.87718 -0.246302 0
M  V30 3109 H 291.6 -3.96239 2.36205 0
M  V30 3110 H 289.843 -3.69016 2.28057 0
M  V30 3111 H 290.514 -5.23532 1.74981 0
M  V30 3112 H 292.99 -4.15822 0.152089 0
M  V30 3113 H 291.866 -5.48358 -0.243855 0
M  V30 3114 H 292.127 -4.19176 -1.40513 0
M  V30 3115 N 291.186 -0.45159 -1.50991 0
M  V30 3116 C 292.133 0.352625 -2.2809 0
M  V30 3117 C 293.103 1.0044 -1.32291 0
M  V30 3118 O 294.288 1.02058 -1.6121 0
M  V30 3119 C 291.428 1.43983 -3.13629 0
M  V30 3120 C 290.541 0.804772 -4.24438 0
M  V30 3121 C 289.676 1.86822 -4.97263 0
M  V30 3122 C 288.715 1.21236 -5.99973 0
M  V30 3123 N 287.852 2.2178 -6.66152 0
M  V30 3124 H 292.692 -0.311186 -2.96371 0
M  V30 3125 H 290.229 -0.165308 -1.46168 0
M  V30 3126 H 292.187 2.08161 -3.61559 0
M  V30 3127 H 290.817 2.07307 -2.47434 0
M  V30 3128 H 289.869 0.0509129 -3.80366 0
M  V30 3129 H 291.181 0.286076 -4.97979 0
M  V30 3130 H 290.335 2.58628 -5.48813 0
M  V30 3131 H 289.074 2.42068 -4.23385 0
M  V30 3132 H 288.079 0.479828 -5.47702 0
M  V30 3133 H 289.304 0.667051 -6.75816 0
M  V30 3134 H 287.25 2.76079 -5.95077 0
M  V30 3135 H 287.167 1.74841 -7.35504 0
M  V30 3136 H 288.435 2.93026 -7.22327 0
M  V30 3137 N 292.664 1.56529 -0.183458 0
M  V30 3138 C 293.912 1.96855 0.457452 0
M  V30 3139 C 294.233 1.07104 1.62953 0
M  V30 3140 O 293.503 0.139887 1.954 0
M  V30 3141 H 292.083 0.72693 0.171992 0
M  V30 3142 H 294.745 1.93056 -0.267476 0
M  V30 3143 H 293.841 3.01423 0.809368 0
M  V30 3144 N 294.142 -0.090211 1.57342 0
M  V30 3145 C 295.372 -0.805055 1.90269 0
M  V30 3146 C 295.78 -1.72561 0.775842 0
M  V30 3147 O 295.123 -1.81839 -0.260843 0
M  V30 3148 C 295.185 -1.66734 3.18497 0
M  V30 3149 C 294.849 -0.918092 4.47683 0
M  V30 3150 C 295.846 -0.245674 5.19319 0
M  V30 3151 C 293.531 -0.890724 4.94339 0
M  V30 3152 C 295.525 0.444088 6.35851 0
M  V30 3153 C 293.212 -0.197179 6.10782 0
M  V30 3154 C 294.21 0.469044 6.81388 0
M  V30 3155 O 293.898 1.15146 7.95611 0
M  V30 3156 H 293.63 -0.235143 0.633785 0
M  V30 3157 H 296.184 -0.0703805 2.05279 0
M  V30 3158 H 294.414 -2.44437 2.99646 0
M  V30 3159 H 296.103 -2.25919 3.37217 0
M  V30 3160 H 296.869 -0.258246 4.84312 0
M  V30 3161 H 292.748 -1.39873 4.39268 0
M  V30 3162 H 296.292 0.964667 6.90898 0
M  V30 3163 H 292.189 -0.18247 6.45242 0
M  V30 3164 H 292.957 1.05885 8.11622 0
M  V30 3165 N 295.62 -1.53406 -0.361157 0
M  V30 3166 C 296.867 -1.69802 -1.10333 0
M  V30 3167 C 297.195 -0.452087 -1.89173 0
M  V30 3168 O 296.45 0.566017 -1.87336 0
M  V30 3169 C 296.749 -2.90211 -2.08596 0
M  V30 3170 C 296.415 -4.26539 -1.46203 0
M  V30 3171 C 295.077 -4.6361 -1.28915 0
M  V30 3172 C 297.429 -5.113 -1.01101 0
M  V30 3173 C 294.757 -5.83075 -0.651157 0
M  V30 3174 C 297.109 -6.31415 -0.387007 0
M  V30 3175 C 295.773 -6.67195 -0.201657 0
M  V30 3176 H 295.043 -0.621351 -0.403737 0
M  V30 3177 H 297.69 -1.87598 -0.384609 0
M  V30 3178 H 295.995 -2.66946 -2.86788 0
M  V30 3179 H 297.692 -3.00091 -2.65982 0
M  V30 3180 H 294.282 -3.97352 -1.60653 0
M  V30 3181 H 298.466 -4.83206 -1.13249 0
M  V30 3182 H 293.722 -6.09385 -0.496006 0
M  V30 3183 H 297.896 -6.96394 -0.0293563 0
M  V30 3184 H 295.523 -7.59628 0.294766 0
M  V30 3185 N 297.098 0.621204 -1.44841 0
M  V30 3186 C 298.345 1.38055 -1.48145 0
M  V30 3187 C 298.673 1.94143 -0.117867 0
M  V30 3188 O 297.928 1.74713 0.881694 0
M  V30 3189 C 298.227 2.55675 -2.4973 0
M  V30 3190 C 297.893 2.17817 -3.94799 0
M  V30 3191 C 296.555 2.07205 -4.34303 0
M  V30 3192 C 298.907 1.88065 -4.86087 0
M  V30 3193 C 296.235 1.65045 -5.63007 0
M  V30 3194 C 298.587 1.47394 -6.15189 0
M  V30 3195 C 297.251 1.35331 -6.53637 0
M  V30 3196 H 296.521 0.505181 -0.542101 0
M  V30 3197 H 299.168 0.703477 -1.78111 0
M  V30 3198 H 297.473 3.2866 -2.13284 0
M  V30 3199 H 299.17 3.13904 -2.4953 0
M  V30 3200 H 295.76 2.26998 -3.63552 0
M  V30 3201 H 299.944 1.95168 -4.56315 0
M  V30 3202 H 295.2 1.54317 -5.91605 0
M  V30 3203 H 299.374 1.23415 -6.85377 0
M  V30 3204 H 297.001 1.02435 -7.53267 0
M  V30 3205 N 298.576 1.31904 0.862503 0
M  V30 3206 C 299.987 1.19803 1.43193 0
M  V30 3207 C 300.338 -0.192567 1.95253 0
M  V30 3208 O 299.463 -1.09081 1.86896 0
M  V30 3209 C 300.058 2.16883 2.60283 0
M  V30 3210 C 298.617 2.08692 3.13248 0
M  V30 3211 C 297.764 2.05691 1.85975 0
M  V30 3212 H 300.715 1.43846 0.670365 0
M  V30 3213 H 300.736 1.76278 3.37204 0
M  V30 3214 H 300.248 3.18083 2.22363 0
M  V30 3215 H 298.349 1.10713 3.55771 0
M  V30 3216 H 298.462 2.9815 3.75025 0
M  V30 3217 H 296.826 1.50814 2.05249 0
M  V30 3218 H 297.609 3.08659 1.50282 0
M  V30 3219 N 300.054 -1.07777 1.14986 0
M  V30 3220 C 301.282 -1.84018 0.945773 0
M  V30 3221 C 301.697 -1.81897 -0.505863 0
M  V30 3222 O 301.054 -1.22726 -1.35072 0
M  V30 3223 C 301.105 -3.31287 1.44677 0
M  V30 3224 O 300.826 -3.33449 2.84154 0
M  V30 3225 C 302.327 -4.24311 1.28355 0
M  V30 3226 H 299.547 -0.580716 0.336169 0
M  V30 3227 H 302.091 -1.36077 1.52654 0
M  V30 3228 H 300.246 -3.76594 0.908625 0
M  V30 3229 H 300.66 -4.25427 3.06777 0
M  V30 3230 H 302.134 -5.2573 1.68261 0
M  V30 3231 H 302.611 -4.38612 0.227184 0
M  V30 3232 H 303.217 -3.84836 1.81056 0
M  V30 3233 N 301.532 -0.945985 -1.26051 0
M  V30 3234 C 302.757 -0.612525 -1.98149 0
M  V30 3235 C 303.182 0.806623 -1.69927 0
M  V30 3236 O 302.54 1.54411 -0.950108 0
M  V30 3237 C 302.588 -0.866981 -3.50023 0
M  V30 3238 O 301.692 0.0585333 -4.12358 0
M  V30 3239 H 301.033 -0.23379 -0.621481 0
M  V30 3240 H 303.563 -1.27023 -1.60395 0
M  V30 3241 H 303.573 -0.789792 -4.00283 0
M  V30 3242 H 302.248 -1.90135 -3.69894 0
M  V30 3243 H 300.825 -0.0701241 -3.72834 0
M  V30 3244 N 303.011 1.40521 -0.713556 0
M  V30 3245 C 303.974 2.29098 -0.0684347 0
M  V30 3246 C 304.974 1.45268 0.689472 0
M  V30 3247 O 306.164 1.66205 0.521677 0
M  V30 3248 C 303.296 3.28446 0.913024 0
M  V30 3249 H 304.489 2.87645 -0.84855 0
M  V30 3250 H 302.042 1.48809 -0.47809 0
M  V30 3251 H 302.777 2.74913 1.72027 0
M  V30 3252 H 302.562 3.90327 0.372472 0
M  V30 3253 H 304.052 3.94777 1.36165 0
M  V30 3254 N 304.489 0.459591 1.5075 0
M  V30 3255 C 305.905 0.113092 1.59199 0
M  V30 3256 C 306.105 -1.37951 1.46874 0
M  V30 3257 O 305.161 -2.15168 1.32132 0
M  V30 3258 C 306.474 0.653043 2.93523 0
M  V30 3259 C 308.022 0.615449 3.0689 0
M  V30 3260 C 308.497 1.13275 4.43771 0
M  V30 3261 N 309.988 1.09167 4.50152 0
M  V30 3262 C 310.723 1.46256 5.54434 0
M  V30 3263 N 310.219 1.90739 6.66026 0
M  V30 3264 N 312.012 1.37932 5.44914 0
M  V30 3265 H 304.163 1.43049 1.57005 0
M  V30 3266 H 306.426 0.590861 0.741341 0
M  V30 3267 H 306.132 1.69822 3.07983 0
M  V30 3268 H 306.006 0.0902132 3.77092 0
M  V30 3269 H 308.393 -0.420793 2.92084 0
M  V30 3270 H 308.474 1.21495 2.25106 0
M  V30 3271 H 308.118 2.16757 4.59324 0
M  V30 3272 H 308.048 0.509576 5.24129 0
M  V30 3273 H 310.539 0.76528 3.7007 0
M  V30 3274 H 310.852 2.17218 7.41644 0
M  V30 3275 H 309.197 1.94683 6.67176 0
M  V30 3276 H 312.388 1.0303 4.56621 0
M  V30 3277 H 312.561 1.67164 6.26067 0
M  V30 3278 N 305.967 -1.56429 0.191757 0
M  V30 3279 C 307.244 -1.89224 -0.495332 0
M  V30 3280 C 307.624 -1.10478 -1.79883 0
M  V30 3281 O 306.972 -0.204852 -2.2758 0
M  V30 3282 C 307.182 -3.41548 -0.717367 0
M  V30 3283 C 308.53 -4.11711 -1.03823 0
M  V30 3284 O 309.554 -3.4698 -0.805204 0
M  V30 3285 O 308.413 -5.2611 -1.47887 0
M  V30 3286 H 305.507 -0.785788 -0.25781 0
M  V30 3287 H 308.053 -1.68111 0.231721 0
M  V30 3288 H 306.825 -3.90772 0.203287 0
M  V30 3289 H 306.448 -3.68342 -1.497 0
M  V30 3290 N 307.445 0.0818655 -1.57387 0
M  V30 3291 C 308.685 0.788375 -1.88584 0
M  V30 3292 C 309.049 1.75248 -0.784351 0
M  V30 3293 O 310.25 2.50334 -0.979105 0
M  V30 3294 C 308.521 1.48654 -3.25018 0
M  V30 3295 S 310.08 2.22951 -3.7794 0
M  V30 3296 H 306.898 0.262383 -0.660815 0
M  V30 3297 H 309.5 0.0448995 -1.95448 0
M  V30 3298 H 308.204 0.770919 -4.03094 0
M  V30 3299 H 307.735 2.26965 -3.21326 0
M  V30 3300 H 309.75 3.49309 -3.52417 0
M  V30 3301 N 308.923 1.53595 0.353017 0
M  V30 3302 C 309.87 1.80919 1.43308 0
M  V30 3303 C 310.84 0.654288 1.5267 0
M  V30 3304 O 312.025 0.897759 1.6836 0
M  V30 3305 C 309.165 2.01605 2.80089 0
M  V30 3306 C 308.278 3.29321 2.79593 0
M  V30 3307 C 307.413 3.40125 4.0803 0
M  V30 3308 C 306.452 4.61826 4.01725 0
M  V30 3309 N 305.589 4.69716 5.21834 0
M  V30 3310 H 310.429 2.73074 1.19308 0
M  V30 3311 H 307.966 1.35263 0.578131 0
M  V30 3312 H 309.924 2.11586 3.59565 0
M  V30 3313 H 308.554 1.12772 3.0246 0
M  V30 3314 H 307.606 3.28229 1.92276 0
M  V30 3315 H 308.918 4.18884 2.70809 0
M  V30 3316 H 308.072 3.49488 4.95927 0
M  V30 3317 H 306.811 2.48601 4.19582 0
M  V30 3318 H 305.816 4.52552 3.12213 0
M  V30 3319 H 307.041 5.54705 3.91764 0
M  V30 3320 H 304.987 3.81097 5.33948 0
M  V30 3321 H 304.904 5.53202 5.1527 0
M  V30 3322 H 306.172 4.83376 6.11529 0
M  V30 3323 N 310.401 -0.613514 1.45168 0
M  V30 3324 C 311.648 -1.37268 1.48875 0
M  V30 3325 C 311.976 -1.94077 0.128161 0
M  V30 3326 O 311.231 -1.75178 -0.872416 0
M  V30 3327 C 311.53 -2.54347 2.51083 0
M  V30 3328 C 311.196 -2.1572 3.95949 0
M  V30 3329 C 309.858 -2.04899 4.35396 0
M  V30 3330 C 312.21 -1.85485 4.87078 0
M  V30 3331 C 309.538 -1.62057 5.63875 0
M  V30 3332 C 311.89 -1.4413 6.15962 0
M  V30 3333 C 310.554 -1.31863 6.54346 0
M  V30 3334 H 309.824 -0.502299 0.544773 0
M  V30 3335 H 312.471 -0.694021 1.78481 0
M  V30 3336 H 310.776 -3.27524 2.15024 0
M  V30 3337 H 312.473 -3.12577 2.51191 0
M  V30 3338 H 309.063 -2.25066 3.64751 0
M  V30 3339 H 313.247 -1.92745 4.57343 0
M  V30 3340 H 308.503 -1.51177 5.92415 0
M  V30 3341 H 312.677 -1.19778 6.86022 0
M  V30 3342 H 310.304 -0.984392 7.538 0
M  V30 3343 N 311.879 -1.3236 -0.855495 0
M  V30 3344 C 313.107 -1.2587 -1.64208 0
M  V30 3345 C 313.522 0.173457 -1.88002 0
M  V30 3346 O 312.879 1.11027 -1.44842 0
M  V30 3347 C 312.93 -2.01424 -3.00184 0
M  V30 3348 O 312.651 -3.39051 -2.77445 0
M  V30 3349 C 314.152 -2.01948 -3.94629 0
M  V30 3350 H 311.372 -0.434318 -0.511477 0
M  V30 3351 H 313.916 -1.74469 -1.0668 0
M  V30 3352 H 312.071 -1.56549 -3.5436 0
M  V30 3353 H 312.485 -3.77711 -3.63916 0
M  V30 3354 H 313.959 -2.59297 -4.87308 0
M  V30 3355 H 314.436 -1.00554 -4.27534 0
M  V30 3356 H 315.042 -2.46767 -3.4639 0
M  V30 3357 N 313.357 1.07166 -1.15556 0
M  V30 3358 C 314.605 1.79443 -0.929764 0
M  V30 3359 C 314.926 1.87246 0.544414 0
M  V30 3360 O 314.196 1.37473 1.39564 0
M  V30 3361 H 312.776 0.664625 -0.341003 0
M  V30 3362 H 315.438 1.29499 -1.45657 0
M  V30 3363 H 314.534 2.81832 -1.34079 0
M  V30 3364 N 314.835 0.952656 1.25548 0
M  V30 3365 C 315.783 0.462354 2.27958 0
M  V30 3366 C 316.777 -0.46634 1.62855 0
M  V30 3367 O 317.983 -0.343287 1.76696 0
M  V30 3368 H 314.358 0.13101 0.7405 0
M  V30 3369 H 316.329 1.33839 2.66702 0
M  V30 3370 C 315.078 -0.24628 3.46827 0
M  V30 3371 H 314.401 0.459192 3.97154 0
M  V30 3372 H 315.841 -0.553393 4.20373 0
M  V30 3373 C 314.3 -1.4681 3.0323 0
M  V30 3374 O 314.83 -2.56591 3.09069 0
M  V30 3375 N 313.036 -1.32874 2.58443 0
M  V30 3376 H 312.583 -0.435536 2.53891 0
M  V30 3377 H 312.541 -2.14742 2.29637 0
M  V30 3378 N 316.313 -1.40141 0.720998 0
M  V30 3379 C 317.56 -2.00787 0.262842 0
M  V30 3380 C 317.888 -1.5718 -1.14563 0
M  V30 3381 O 317.143 -0.785391 -1.79249 0
M  V30 3382 C 317.442 -3.56165 0.296892 0
M  V30 3383 C 317.108 -4.19373 1.65641 0
M  V30 3384 C 315.77 -4.36352 2.02855 0
M  V30 3385 C 318.122 -4.54578 2.54968 0
M  V30 3386 C 315.45 -4.8582 3.28931 0
M  V30 3387 C 317.802 -5.05447 3.80402 0
M  V30 3388 C 316.466 -5.20635 4.17726 0
M  V30 3389 H 315.736 -0.734731 0.0961807 0
M  V30 3390 H 318.383 -1.67673 0.925093 0
M  V30 3391 H 316.688 -3.8922 -0.448932 0
M  V30 3392 H 318.385 -4.00929 -0.0755208 0
M  V30 3393 H 314.975 -4.06549 1.35704 0
M  V30 3394 H 319.159 -4.41091 2.27491 0
M  V30 3395 H 314.415 -4.95764 3.57811 0
M  V30 3396 H 318.589 -5.31663 4.49786 0
M  V30 3397 H 316.216 -5.58728 5.15487 0
M  V30 3398 N 317.792 -0.46758 -1.50504 0
M  V30 3399 C 319.039 0.0886219 -2.02306 0
M  V30 3400 C 319.367 1.40037 -1.34981 0
M  V30 3401 O 318.622 1.90136 -0.463318 0
M  V30 3402 C 318.921 0.323995 -3.55928 0
M  V30 3403 C 318.587 -0.905618 -4.41712 0
M  V30 3404 C 317.249 -1.24275 -4.64875 0
M  V30 3405 C 319.601 -1.72448 -4.91845 0
M  V30 3406 C 316.929 -2.39888 -5.35417 0
M  V30 3407 C 319.281 -2.87185 -5.63656 0
M  V30 3408 C 317.945 -3.21317 -5.85074 0
M  V30 3409 H 317.215 0.0324291 -0.74029 0
M  V30 3410 H 319.862 -0.620945 -1.81153 0
M  V30 3411 H 318.167 1.11577 -3.75577 0
M  V30 3412 H 319.864 0.76826 -3.93572 0
M  V30 3413 H 316.454 -0.632956 -4.239 0
M  V30 3414 H 320.638 -1.4772 -4.73806 0
M  V30 3415 H 315.894 -2.66611 -5.50208 0
M  V30 3416 H 320.068 -3.50985 -6.01484 0
M  V30 3417 H 317.695 -4.1101 -6.39511 0
M  V30 3418 N 319.27 1.56325 -0.20005 0
M  V30 3419 C 320.5 2.01811 0.442232 0
M  V30 3420 C 320.908 1.07932 1.55394 0
M  V30 3421 O 320.251 0.0772685 1.83537 0
M  V30 3422 C 320.313 3.43685 1.05457 0
M  V30 3423 C 319.977 4.56928 0.0809833 0
M  V30 3424 C 320.974 5.15009 -0.711471 0
M  V30 3425 C 318.659 5.0229 -0.0315364 0
M  V30 3426 C 320.653 6.16904 -1.60336 0
M  V30 3427 C 318.34 6.04028 -0.926981 0
M  V30 3428 C 319.338 6.6121 -1.71146 0
M  V30 3429 O 319.026 7.60971 -2.59189 0
M  V30 3430 H 318.758 0.666173 0.114848 0
M  V30 3431 H 321.312 2.03085 -0.307511 0
M  V30 3432 H 319.542 3.39413 1.85299 0
M  V30 3433 H 321.231 3.72948 1.60201 0
M  V30 3434 H 321.997 4.80827 -0.634873 0
M  V30 3435 H 317.876 4.57476 0.568902 0
M  V30 3436 H 321.42 6.61464 -2.21611 0
M  V30 3437 H 317.317 6.37634 -1.00468 0
M  V30 3438 H 318.085 7.7841 -2.53023 0
M  V30 3439 N 320.748 -0.0735177 1.57428 0
M  V30 3440 C 321.696 -1.10628 2.04607 0
M  V30 3441 C 322.69 -1.40181 0.951088 0
M  V30 3442 O 323.896 -1.39608 1.1362 0
M  V30 3443 H 320.271 -0.374088 0.652351 0
M  V30 3444 H 322.242 -0.682218 2.90497 0
M  V30 3445 C 320.991 -2.41212 2.50423 0
M  V30 3446 H 320.314 -2.19322 3.34272 0
M  V30 3447 H 321.754 -3.11927 2.87189 0
M  V30 3448 C 320.213 -3.0705 1.38644 0
M  V30 3449 O 320.743 -3.95056 0.727582 0
M  V30 3450 N 318.949 -2.67645 1.132 0
M  V30 3451 H 318.496 -1.96169 1.66959 0
M  V30 3452 H 318.454 -3.1202 0.386147 0
M  V30 3453 N 322.226 -1.5378 -0.344866 0
M  V30 3454 C 323.456 -1.74646 -1.10374 0
M  V30 3455 C 323.864 -0.48491 -1.8288 0
M  V30 3456 O 323.207 0.553062 -1.75177 0
M  V30 3457 C 323.269 -2.87145 -2.16306 0
M  V30 3458 C 322.933 -4.26795 -1.63386 0
M  V30 3459 C 323.93 -5.08412 -1.08688 0
M  V30 3460 C 321.615 -4.73276 -1.68272 0
M  V30 3461 C 323.609 -6.34609 -0.595792 0
M  V30 3462 C 321.296 -5.99446 -1.18776 0
M  V30 3463 C 322.294 -6.79946 -0.645215 0
M  V30 3464 O 321.982 -8.03745 -0.157626 0
M  V30 3465 H 321.714 -0.587112 -0.335075 0
M  V30 3466 H 324.268 -2.01403 -0.403252 0
M  V30 3467 H 322.498 -2.55909 -2.89909 0
M  V30 3468 H 324.187 -2.95992 -2.77747 0
M  V30 3469 H 324.953 -4.73666 -1.04236 0
M  V30 3470 H 320.832 -4.10677 -2.09442 0
M  V30 3471 H 324.376 -6.97389 -0.171654 0
M  V30 3472 H 320.273 -6.33687 -1.22928 0
M  V30 3473 H 321.041 -8.18038 -0.275037 0
M  V30 3474 N 323.704 0.605807 -1.45491 0
M  V30 3475 C 324.637 1.73022 -1.48791 0
M  V30 3476 C 325.615 1.58917 -0.344112 0
M  V30 3477 O 326.799 1.80453 -0.544876 0
M  V30 3478 C 323.926 3.10865 -1.34463 0
M  V30 3479 C 322.972 3.43554 -2.5273 0
M  V30 3480 S 323.805 3.38196 -4.15191 0
M  V30 3481 C 324.961 4.78616 -4.03333 0
M  V30 3482 H 325.194 1.69961 -2.43928 0
M  V30 3483 H 322.727 0.782611 -1.33096 0
M  V30 3484 H 324.685 3.90398 -1.26884 0
M  V30 3485 H 323.346 3.1144 -0.40794 0
M  V30 3486 H 322.539 4.43924 -2.38637 0
M  V30 3487 H 322.141 2.71541 -2.5718 0
M  V30 3488 H 324.433 5.68463 -3.68587 0
M  V30 3489 H 325.376 4.97767 -5.03621 0
M  V30 3490 H 325.784 4.54381 -3.34959 0
M  V30 3491 N 325.182 1.32811 0.848464 0
M  V30 3492 C 326.115 1.16601 1.96162 0
M  V30 3493 C 327.093 0.0638855 1.62474 0
M  V30 3494 O 328.277 0.224348 1.8716 0
M  V30 3495 C 325.404 0.786333 3.29446 0
M  V30 3496 C 324.45 1.89459 3.8211 0
M  V30 3497 S 325.283 3.50395 4.04949 0
M  V30 3498 C 326.439 3.14413 5.41198 0
M  V30 3499 H 326.672 2.10832 2.09612 0
M  V30 3500 H 324.205 1.17543 1.00115 0
M  V30 3501 H 326.163 0.574044 4.06466 0
M  V30 3502 H 324.824 -0.137218 3.138 0
M  V30 3503 H 324.017 1.58207 4.78526 0
M  V30 3504 H 323.619 2.06304 3.11953 0
M  V30 3505 H 325.911 2.64642 6.23675 0
M  V30 3506 H 326.854 4.09874 5.77416 0
M  V30 3507 H 327.262 2.51266 5.05495 0
M  V30 3508 N 326.66 -1.06551 1.16123 0
M  V30 3509 C 327.908 -1.78947 0.939267 0
M  V30 3510 C 328.229 -1.87532 -0.534476 0
M  V30 3511 O 327.499 -1.38211 -1.38833 0
M  V30 3512 H 326.079 -0.662807 0.344523 0
M  V30 3513 H 328.741 -1.28725 1.46342 0
M  V30 3514 H 327.837 -2.81117 1.35572 0
M  V30 3515 N 328.138 -0.959301 -1.25041 0
M  V30 3516 C 329.387 -0.612254 -1.92183 0
M  V30 3517 C 329.7 0.855347 -1.75907 0
M  V30 3518 O 330.906 1.31256 -2.37664 0
M  V30 3519 C 329.362 -1.04435 -3.44414 0
M  V30 3520 C 328.97 -2.53482 -3.69393 0
M  V30 3521 C 330.714 -0.770055 -4.17457 0
M  V30 3522 C 328.621 -2.90468 -5.15153 0
M  V30 3523 H 327.551 -0.225279 -0.719559 0
M  V30 3524 H 330.202 -1.16438 -1.41825 0
M  V30 3525 H 328.584 -0.4206 -3.9376 0
M  V30 3526 H 329.758 -3.20916 -3.30681 0
M  V30 3527 H 328.073 -2.78432 -3.0962 0
M  V30 3528 H 330.67 -1.02249 -5.24832 0
M  V30 3529 H 331.013 0.293611 -4.15263 0
M  V30 3530 H 331.546 -1.35437 -3.74034 0
M  V30 3531 H 328.285 -3.95871 -5.22462 0
M  V30 3532 H 327.805 -2.27711 -5.54894 0
M  V30 3533 H 329.484 -2.79914 -5.83315 0
M  V30 3534 N 329.616 1.39756 -0.72842 0
M  V30 3535 C 330.526 2.34444 -0.0855374 0
M  V30 3536 C 331.542 1.57976 0.729356 0
M  V30 3537 O 332.718 1.90301 0.659346 0
M  V30 3538 C 329.783 3.36965 0.815798 0
M  V30 3539 C 328.844 4.29299 -0.0105996 0
M  V30 3540 C 328.077 5.26923 0.84781 0
M  V30 3541 O 328.3 5.30859 2.08673 0
M  V30 3542 O 327.234 6.01249 0.279969 0
M  V30 3543 H 331.06 2.91065 -0.866892 0
M  V30 3544 H 328.645 1.4117 -0.48902 0
M  V30 3545 H 330.527 3.99804 1.33171 0
M  V30 3546 H 329.202 2.82739 1.57608 0
M  V30 3547 H 328.109 3.69703 -0.571877 0
M  V30 3548 H 329.442 4.86712 -0.73295 0
M  V30 3549 N 331.094 0.475555 1.50254 0
M  V30 3550 C 332.341 -0.0778919 2.0235 0
M  V30 3551 C 332.669 -1.39319 1.35722 0
M  V30 3552 O 331.924 -1.89888 0.473395 0
M  V30 3553 C 332.223 -0.305114 3.56095 0
M  V30 3554 C 331.889 0.92903 4.41225 0
M  V30 3555 C 330.551 1.26739 4.6421 0
M  V30 3556 C 332.903 1.75054 4.90923 0
M  V30 3557 C 330.231 2.42724 5.34137 0
M  V30 3558 C 332.583 2.9017 5.62125 0
M  V30 3559 C 331.247 3.24416 5.83362 0
M  V30 3560 H 330.517 -0.0285027 0.740452 0
M  V30 3561 H 333.164 0.630543 1.80821 0
M  V30 3562 H 331.469 -1.09584 3.76163 0
M  V30 3563 H 333.166 -0.747377 3.93974 0
M  V30 3564 H 329.756 0.655428 4.23559 0
M  V30 3565 H 333.94 1.50231 4.73016 0
M  V30 3566 H 329.196 2.69525 5.48786 0
M  V30 3567 H 333.37 3.54169 5.99614 0
M  V30 3568 H 330.997 4.14396 6.37323 0
M  V30 3569 N 332.573 -1.56217 0.208337 0
M  V30 3570 C 333.521 -2.21053 -0.723769 0
M  V30 3571 C 334.515 -1.18578 -1.20978 0
M  V30 3572 O 335.721 -1.36691 -1.17114 0
M  V30 3573 H 332.096 -0.708595 -0.251788 0
M  V30 3574 H 334.067 -2.98006 -0.153365 0
M  V30 3575 C 332.816 -2.89417 -1.927 0
M  V30 3576 H 332.139 -3.68019 -1.56212 0
M  V30 3577 H 333.579 -3.38201 -2.55727 0
M  V30 3578 C 332.038 -1.91166 -2.77411 0
M  V30 3579 O 332.568 -1.42026 -3.75754 0
M  V30 3580 N 330.774 -1.59105 -2.43175 0
M  V30 3581 H 330.321 -1.99259 -1.63259 0
M  V30 3582 H 330.279 -0.936255 -3.00136 0
M  V30 3583 N 334.051 0.0651679 -1.57465 0
M  V30 3584 C 335.462 0.616213 -1.76238 0
M  V30 3585 C 335.813 1.7756 -0.834689 0
M  V30 3586 O 334.938 2.1639 -0.0204156 0
M  V30 3587 C 335.533 1.12462 -3.1959 0
M  V30 3588 C 334.092 1.62147 -3.39684 0
M  V30 3589 C 333.239 0.543739 -2.71917 0
M  V30 3590 H 336.19 -0.161022 -1.57881 0
M  V30 3591 H 336.211 1.99324 -3.24114 0
M  V30 3592 H 335.723 0.280592 -3.87084 0
M  V30 3593 H 333.824 2.48854 -2.77313 0
M  V30 3594 H 333.937 1.69385 -4.48158 0
M  V30 3595 H 332.301 0.990352 -2.34657 0
M  V30 3596 H 333.084 -0.290216 -3.42071 0
M  V30 3597 N 335.529 1.53961 0.336706 0
M  V30 3598 C 336.945 1.44378 0.680241 0
M  V30 3599 C 337.145 0.606034 1.9217 0
M  V30 3600 O 336.201 0.099688 2.52303 0
M  V30 3601 C 337.514 2.87945 0.8665 0
M  V30 3602 C 339.062 2.97763 0.964682 0
M  V30 3603 C 339.537 4.42453 1.18321 0
M  V30 3604 N 341.028 4.46008 1.25025 0
M  V30 3605 C 341.763 5.55102 1.43697 0
M  V30 3606 N 341.259 6.7419 1.59498 0
M  V30 3607 N 343.052 5.42727 1.463 0
M  V30 3608 H 335.203 2.06918 -0.479455 0
M  V30 3609 H 337.466 0.935634 -0.152619 0
M  V30 3610 H 337.172 3.51691 0.0256937 0
M  V30 3611 H 337.046 3.33293 1.76623 0
M  V30 3612 H 339.433 2.34153 1.796 0
M  V30 3613 H 339.514 2.55766 0.041708 0
M  V30 3614 H 339.158 5.06645 0.356788 0
M  V30 3615 H 339.088 4.82048 2.11985 0
M  V30 3616 H 341.579 3.60196 1.14312 0
M  V30 3617 H 341.892 7.53095 1.734 0
M  V30 3618 H 340.237 6.77123 1.56621 0
M  V30 3619 H 343.428 4.48647 1.33543 0
M  V30 3620 H 343.601 6.27806 1.6051 0
M  V30 3621 N 337.007 -0.598083 1.45811 0
M  V30 3622 C 338.256 -1.35295 1.49594 0
M  V30 3623 C 338.569 -1.95057 0.145679 0
M  V30 3624 O 339.775 -2.71431 0.0612099 0
M  V30 3625 C 338.231 -2.45124 2.63519 0
M  V30 3626 C 337.839 -1.91732 4.04899 0
M  V30 3627 C 339.583 -3.2205 2.76558 0
M  V30 3628 C 337.49 -2.991 5.1019 0
M  V30 3629 H 336.42 -0.508552 0.556679 0
M  V30 3630 H 339.071 -0.639977 1.71978 0
M  V30 3631 H 337.453 -3.19149 2.34435 0
M  V30 3632 H 338.627 -1.24352 4.43704 0
M  V30 3633 H 336.942 -1.27522 3.96393 0
M  V30 3634 H 339.539 -4.0215 3.52391 0
M  V30 3635 H 339.882 -3.73663 1.83526 0
M  V30 3636 H 340.415 -2.55127 3.05213 0
M  V30 3637 H 337.154 -2.52393 6.04961 0
M  V30 3638 H 336.674 -3.65017 4.75944 0
M  V30 3639 H 338.353 -3.63318 5.35359 0
M  V30 3640 N 338.485 -1.33259 -0.841409 0
M  V30 3641 C 339.733 -1.24326 -1.59334 0
M  V30 3642 C 340.054 0.191564 -1.94057 0
M  V30 3643 O 339.324 1.11967 -1.60749 0
M  V30 3644 H 337.904 -0.457174 -0.590763 0
M  V30 3645 H 340.566 -1.66947 -1.00571 0
M  V30 3646 H 339.662 -1.8352 -2.52442 0
M  V30 3647 N 339.963 1.05934 -1.16686 0
M  V30 3648 C 340.91 2.13499 -0.876748 0
M  V30 3649 C 341.88 1.65162 0.176299 0
M  V30 3650 O 343.065 1.90757 0.0407143 0
M  V30 3651 C 340.205 3.42912 -0.387967 0
M  V30 3652 C 339.318 4.04964 -1.50426 0
M  V30 3653 C 338.453 5.22266 -0.970125 0
M  V30 3654 C 337.492 5.76309 -2.06238 0
M  V30 3655 N 336.629 6.84922 -1.54356 0
M  V30 3656 H 341.469 2.37654 -1.7979 0
M  V30 3657 H 339.006 1.16598 -0.896843 0
M  V30 3658 H 340.964 4.17111 -0.086186 0
M  V30 3659 H 339.594 3.18963 0.496235 0
M  V30 3660 H 338.646 3.28277 -1.92193 0
M  V30 3661 H 339.958 4.41122 -2.32836 0
M  V30 3662 H 339.112 6.03506 -0.621743 0
M  V30 3663 H 337.851 4.87564 -0.115377 0
M  V30 3664 H 336.856 4.93704 -2.41942 0
M  V30 3665 H 338.081 6.13062 -2.92115 0
M  V30 3666 H 336.027 6.52131 -0.711406 0
M  V30 3667 H 335.944 7.20043 -2.30379 0
M  V30 3668 H 337.212 7.69832 -1.22387 0
M  V30 3669 N 341.441 0.965919 1.2453 0
M  V30 3670 C 342.687 0.637349 1.93156 0
M  V30 3671 C 343.042 -0.818261 1.74133 0
M  V30 3672 O 342.335 -1.58079 1.08266 0
M  V30 3673 C 342.529 0.945428 3.44669 0
M  V30 3674 C 342.358 2.42944 3.78429 0
M  V30 3675 C 341.128 3.08895 3.9989 0
M  V30 3676 C 343.326 3.40941 3.8505 0
M  V30 3677 N 341.308 4.47052 4.20735 0
M  V30 3678 C 342.679 4.64448 4.10717 0
M  V30 3679 C 344.734 3.35624 3.67779 0
M  V30 3680 C 343.437 5.83292 4.20907 0
M  V30 3681 C 345.463 4.53818 3.79214 0
M  V30 3682 C 344.825 5.76114 4.05304 0
M  V30 3683 H 340.924 0.284034 0.728594 0
M  V30 3684 H 343.508 1.24041 1.50073 0
M  V30 3685 H 341.679 0.371193 3.86622 0
M  V30 3686 H 343.411 0.575613 4.00586 0
M  V30 3687 H 340.166 2.59432 3.96222 0
M  V30 3688 H 340.59 5.18634 4.35141 0
M  V30 3689 H 345.232 2.4211 3.46616 0
M  V30 3690 H 342.95 6.77236 4.40883 0
M  V30 3691 H 346.536 4.51263 3.67224 0
M  V30 3692 H 345.416 6.66045 4.13949 0
M  V30 3693 N 342.919 -1.39368 0.735821 0
M  V30 3694 C 344.166 -2.00497 0.284123 0
M  V30 3695 C 344.494 -1.58387 -1.12889 0
M  V30 3696 O 343.749 -0.804359 -1.78406 0
M  V30 3697 C 344.048 -3.5583 0.334651 0
M  V30 3698 C 343.714 -4.17593 1.7008 0
M  V30 3699 C 342.376 -4.34176 2.07472 0
M  V30 3700 C 344.728 -4.51848 2.59775 0
M  V30 3701 C 342.056 -4.82304 3.34065 0
M  V30 3702 C 344.408 -5.01384 3.85741 0
M  V30 3703 C 343.072 -5.16175 4.23225 0
M  V30 3704 H 342.342 -0.73367 0.103968 0
M  V30 3705 H 344.989 -1.66683 0.942825 0
M  V30 3706 H 343.294 -3.89674 -0.407625 0
M  V30 3707 H 344.991 -4.00986 -0.0329927 0
M  V30 3708 H 341.581 -4.05087 1.40008 0
M  V30 3709 H 345.765 -4.38653 2.32157 0
M  V30 3710 H 341.021 -4.91941 3.63049 0
M  V30 3711 H 345.195 -5.26863 4.55399 0
M  V30 3712 H 342.822 -5.5323 5.21384 0
M  V30 3713 N 344.397 -0.483516 -1.5 0
M  V30 3714 C 345.674 0.129337 -1.95172 0
M  V30 3715 C 346.054 1.55802 -1.4244 0
M  V30 3716 O 345.402 2.19625 -0.630649 0
M  V30 3717 C 345.612 0.0599251 -3.48949 0
M  V30 3718 C 346.96 0.242617 -4.23906 0
M  V30 3719 O 347.984 0.135933 -3.55941 0
M  V30 3720 O 346.843 0.459454 -5.44565 0
M  V30 3721 H 343.937 0.104887 -0.820322 0
M  V30 3722 H 346.483 -0.544807 -1.60717 0
M  V30 3723 H 345.255 -0.937079 -3.79914 0
M  V30 3724 H 344.878 0.774984 -3.89974 0
M  V30 3725 N 345.875 1.56104 -0.216619 0
M  V30 3726 C 347.122 1.98172 0.416416 0
M  V30 3727 C 347.45 1.10413 1.60122 0
M  V30 3728 O 346.705 0.147967 1.9514 0
M  V30 3729 C 347.004 3.45923 0.898464 0
M  V30 3730 C 346.67 4.50559 -0.175288 0
M  V30 3731 C 345.332 4.78897 -0.470271 0
M  V30 3732 C 347.684 5.1334 -0.901728 0
M  V30 3733 C 345.012 5.67299 -1.4963 0
M  V30 3734 C 347.364 6.02853 -1.91705 0
M  V30 3735 C 346.028 6.29537 -2.21901 0
M  V30 3736 H 345.298 0.725164 0.152377 0
M  V30 3737 H 347.945 1.88839 -0.318103 0
M  V30 3738 H 346.25 3.52434 1.71165 0
M  V30 3739 H 347.947 3.75841 1.39803 0
M  V30 3740 H 344.537 4.28551 0.0647806 0
M  V30 3741 H 348.721 4.91521 -0.687072 0
M  V30 3742 H 343.977 5.86239 -1.73592 0
M  V30 3743 H 348.151 6.50552 -2.48505 0
M  V30 3744 H 345.778 6.97835 -3.01548 0
M  V30 3745 N 347.353 -0.0568162 1.57498 0
M  V30 3746 C 348.3 -1.06591 2.04712 0
M  V30 3747 C 349.27 -1.3758 0.930644 0
M  V30 3748 O 350.455 -1.48392 1.19935 0
M  V30 3749 C 347.595 -2.3701 2.50839 0
M  V30 3750 C 346.708 -2.12421 3.76167 0
M  V30 3751 C 345.843 -3.36511 4.11015 0
M  V30 3752 C 344.882 -3.07353 5.2934 0
M  V30 3753 N 344.019 -4.23816 5.59754 0
M  V30 3754 H 348.859 -0.65631 2.90683 0
M  V30 3755 H 346.396 -0.312481 1.43743 0
M  V30 3756 H 348.354 -3.13175 2.7564 0
M  V30 3757 H 346.984 -2.75744 1.67825 0
M  V30 3758 H 346.036 -1.2688 3.58616 0
M  V30 3759 H 347.348 -1.86894 4.62463 0
M  V30 3760 H 346.502 -4.21062 4.36797 0
M  V30 3761 H 345.241 -3.65128 3.23315 0
M  V30 3762 H 344.246 -2.212 5.03339 0
M  V30 3763 H 345.471 -2.80043 6.1867 0
M  V30 3764 H 343.417 -4.52436 4.75014 0
M  V30 3765 H 343.334 -4.01614 6.40501 0
M  V30 3766 H 344.602 -5.0932 5.90096 0
M  V30 3767 N 348.832 -1.54138 -0.328536 0
M  V30 3768 C 349.762 -1.86167 -1.40939 0
M  V30 3769 C 350.743 -0.718044 -1.54202 0
M  V30 3770 O 351.928 -0.971328 -1.68163 0
M  V30 3771 C 349.058 -2.08461 -2.77779 0
M  V30 3772 C 348.012 -3.24299 -2.7931 0
M  V30 3773 C 347.338 -3.31955 -4.19178 0
M  V30 3774 C 348.638 -4.62065 -2.43502 0
M  V30 3775 H 350.332 -2.76689 -1.14383 0
M  V30 3776 H 347.878 -1.33132 -0.548806 0
M  V30 3777 H 349.831 -2.29453 -3.53454 0
M  V30 3778 H 348.555 -1.14684 -3.05802 0
M  V30 3779 H 347.214 -3.03187 -2.0609 0
M  V30 3780 H 346.862 -2.35745 -4.44335 0
M  V30 3781 H 346.562 -4.09805 -4.2111 0
M  V30 3782 H 348.086 -3.55175 -4.96672 0
M  V30 3783 H 349.5 -4.8297 -3.08889 0
M  V30 3784 H 347.897 -5.42429 -2.56693 0
M  V30 3785 H 348.967 -4.64652 -1.38659 0
M  V30 3786 N 350.31 0.590341 -1.46126 0
M  V30 3787 C 351.557 1.34882 -1.5104 0
M  V30 3788 C 351.885 1.93849 -0.159021 0
M  V30 3789 O 351.14 1.76544 0.844436 0
M  V30 3790 C 351.439 2.5032 -2.55097 0
M  V30 3791 C 351.105 2.09394 -3.99331 0
M  V30 3792 C 349.767 1.97947 -4.38601 0
M  V30 3793 C 352.119 1.77712 -4.89967 0
M  V30 3794 C 349.447 1.53065 -5.66381 0
M  V30 3795 C 351.799 1.34312 -6.18177 0
M  V30 3796 C 350.463 1.21436 -6.56361 0
M  V30 3797 H 349.733 0.493568 -0.552695 0
M  V30 3798 H 352.38 0.665539 -1.79563 0
M  V30 3799 H 350.685 3.24062 -2.20207 0
M  V30 3800 H 352.382 3.08541 -2.56132 0
M  V30 3801 H 348.972 2.19235 -3.68285 0
M  V30 3802 H 353.156 1.85445 -4.60352 0
M  V30 3803 H 348.412 1.41733 -5.94745 0
M  V30 3804 H 352.586 1.08849 -6.87841 0
M  V30 3805 H 350.213 0.864345 -7.5527 0
M  V30 3806 N 351.788 1.33704 0.83433 0
M  V30 3807 C 353.035 1.25417 1.58987 0
M  V30 3808 C 353.363 -0.178869 1.93676 0
M  V30 3809 O 352.618 -1.13723 1.59265 0
M  V30 3810 C 352.917 2.07926 2.90692 0
M  V30 3811 C 352.583 3.57066 2.75345 0
M  V30 3812 C 351.245 3.97724 2.70867 0
M  V30 3813 C 353.597 4.51817 2.59828 0
M  V30 3814 C 350.925 5.31344 2.48778 0
M  V30 3815 C 353.277 5.85604 2.39272 0
M  V30 3816 C 351.941 6.25439 2.33199 0
M  V30 3817 H 351.211 0.458934 0.581774 0
M  V30 3818 H 353.858 1.65335 0.966261 0
M  V30 3819 H 352.163 1.608 3.57282 0
M  V30 3820 H 353.86 1.98868 3.48213 0
M  V30 3821 H 350.45 3.24785 2.79665 0
M  V30 3822 H 354.634 4.21311 2.62319 0
M  V30 3823 H 349.89 5.61241 2.42526 0
M  V30 3824 H 354.064 6.58623 2.2625 0
M  V30 3825 H 351.691 7.28914 2.15843 0
M  V30 3826 N 353.266 -1.05314 1.17247 0
M  V30 3827 C 354.214 -2.15137 0.884238 0
M  V30 3828 C 355.208 -1.68729 -0.15063 0
M  V30 3829 O 356.414 -1.8 -0.00366673 0
M  V30 3830 H 352.789 -0.702471 0.2684 0
M  V30 3831 H 354.76 -2.36652 1.81764 0
M  V30 3832 C 353.509 -3.45243 0.412659 0
M  V30 3833 H 352.832 -3.81352 1.20043 0
M  V30 3834 H 354.272 -4.23263 0.249858 0
M  V30 3835 C 352.731 -3.25487 -0.86948 0
M  V30 3836 O 353.261 -3.51938 -1.93655 0
M  V30 3837 N 351.467 -2.78875 -0.817147 0
M  V30 3838 H 351.014 -2.57549 0.0514211 0
M  V30 3839 H 350.972 -2.66036 -1.67547 0
M  V30 3840 N 354.744 -0.972509 -1.24016 0
M  V30 3841 C 355.992 -0.635776 -1.91839 0
M  V30 3842 C 356.313 0.832312 -1.76345 0
M  V30 3843 O 355.583 1.5946 -1.13795 0
M  V30 3844 H 354.163 -0.232157 -0.710009 0
M  V30 3845 H 356.825 -1.23462 -1.50809 0
M  V30 3846 H 355.921 -0.880545 -2.99421 0
M  V30 3847 N 356.222 1.38976 -0.743202 0
M  V30 3848 C 357.638 1.53984 -0.419664 0
M  V30 3849 C 357.838 1.70837 1.0685 0
M  V30 3850 O 356.894 1.7135 1.8546 0
M  V30 3851 C 358.207 2.75287 -1.20985 0
M  V30 3852 C 359.755 2.89129 -1.19889 0
M  V30 3853 C 360.23 4.13381 -1.97181 0
M  V30 3854 N 361.721 4.20437 -1.94389 0
M  V30 3855 C 362.456 5.15547 -2.50996 0
M  V30 3856 N 361.952 6.16395 -3.16274 0
M  V30 3857 N 363.745 5.07822 -2.40984 0
M  V30 3858 H 355.896 1.26285 -1.7078 0
M  V30 3859 H 358.159 0.612689 -0.723406 0
M  V30 3860 H 357.865 2.69204 -2.26323 0
M  V30 3861 H 357.739 3.68184 -0.819759 0
M  V30 3862 H 360.126 2.947 -0.153606 0
M  V30 3863 H 360.207 1.97272 -1.62841 0
M  V30 3864 H 359.851 4.08572 -3.01714 0
M  V30 3865 H 359.781 5.04298 -1.51629 0
M  V30 3866 H 362.272 3.48205 -1.46839 0
M  V30 3867 H 362.585 6.85443 -3.56915 0
M  V30 3868 H 360.93 6.16758 -3.20367 0
M  V30 3869 H 364.121 4.27973 -1.89622 0
M  V30 3870 H 364.294 5.81767 -2.85397 0
M  V30 3871 N 357.7 0.491464 1.49741 0
M  V30 3872 C 359.111 0.0413169 1.86654 0
M  V30 3873 C 359.462 -1.36985 1.40462 0
M  V30 3874 O 358.587 -2.01917 0.778354 0
M  V30 3875 C 359.182 0.0682023 3.38731 0
M  V30 3876 C 357.741 -0.32656 3.74981 0
M  V30 3877 C 356.888 0.444888 2.73708 0
M  V30 3878 H 359.839 0.704733 1.42194 0
M  V30 3879 H 359.86 -0.729322 3.73445 0
M  V30 3880 H 359.372 1.09539 3.72321 0
M  V30 3881 H 357.473 -1.35734 3.46997 0
M  V30 3882 H 357.586 -0.013741 4.79098 0
M  V30 3883 H 355.95 -0.104062 2.54487 0
M  V30 3884 H 356.733 1.47197 3.10142 0
M  V30 3885 N 359.178 -1.55987 0.224894 0
M  V30 3886 C 360.426 -1.97998 -0.405099 0
M  V30 3887 C 360.747 -1.11387 -1.60056 0
M  V30 3888 O 360.017 -0.191645 -1.9496 0
M  V30 3889 H 358.597 -0.731235 -0.152658 0
M  V30 3890 H 361.259 -1.92279 0.318567 0
M  V30 3891 H 360.355 -3.03463 -0.729167 0
M  V30 3892 N 360.656 0.0484629 -1.57525 0
M  V30 3893 C 361.905 0.742065 -1.87553 0
M  V30 3894 C 362.218 1.77545 -0.820802 0
M  V30 3895 O 363.424 2.52027 -1.00967 0
M  V30 3896 C 361.88 1.37081 -3.32771 0
M  V30 3897 C 361.488 0.374786 -4.4643 0
M  V30 3898 C 363.232 2.04542 -3.71972 0
M  V30 3899 C 361.139 1.01077 -5.82698 0
M  V30 3900 H 360.069 0.280903 -0.699721 0
M  V30 3901 H 362.72 -0.00411877 -1.835 0
M  V30 3902 H 361.102 2.16605 -3.31509 0
M  V30 3903 H 362.276 -0.392331 -4.59127 0
M  V30 3904 H 360.591 -0.196653 -4.15935 0
M  V30 3905 H 363.188 2.52943 -4.71088 0
M  V30 3906 H 363.531 2.85515 -3.02964 0
M  V30 3907 H 364.064 1.31819 -3.75325 0
M  V30 3908 H 360.803 0.240878 -6.55057 0
M  V30 3909 H 360.323 1.74819 -5.73758 0
M  V30 3910 H 362.002 1.52383 -6.28799 0
M  V30 3911 N 362.134 1.5431 0.320358 0
M  V30 3912 C 363.38 1.72924 1.05949 0
M  V30 3913 C 363.713 0.503185 1.87568 0
M  V30 3914 O 362.988 -0.499839 1.87968 0
M  V30 3915 C 363.271 3.00676 1.98156 0
M  V30 3916 C 363.124 4.3354 1.19845 0
M  V30 3917 C 364.443 3.24198 2.9763 0
M  V30 3918 H 361.562 0.629195 0.383774 0
M  V30 3919 H 364.204 1.87008 0.335854 0
M  V30 3920 H 362.354 2.888 2.59859 0
M  V30 3921 H 364.026 4.57305 0.605773 0
M  V30 3922 H 362.269 4.309 0.500784 0
M  V30 3923 H 362.94 5.19156 1.87567 0
M  V30 3924 H 365.416 3.35557 2.4605 0
M  V30 3925 H 364.292 4.14938 3.59329 0
M  V30 3926 H 364.553 2.41577 3.7026 0
M  V30 3927 N 363.613 -0.582584 1.46437 0
M  V30 3928 C 364.576 -1.67366 1.56592 0
M  V30 3929 C 365.576 -1.54575 0.443072 0
M  V30 3930 O 366.766 -1.59191 0.707381 0
M  V30 3931 C 363.898 -3.06791 1.48634 0
M  V30 3932 H 365.091 -1.5972 2.5383 0
M  V30 3933 H 362.644 -0.800432 1.34249 0
M  V30 3934 H 363.379 -3.19993 0.526763 0
M  V30 3935 H 363.164 -3.17484 2.30101 0
M  V30 3936 H 364.654 -3.86218 1.58826 0
M  V30 3937 N 365.091 -1.34144 -0.827227 0
M  V30 3938 C 366.337 -1.27455 -1.58515 0
M  V30 3939 C 366.692 0.155271 -1.91772 0
M  V30 3940 O 365.985 1.10042 -1.56848 0
M  V30 3941 C 366.179 -2.09464 -2.89585 0
M  V30 3942 C 366.008 -3.60276 -2.69131 0
M  V30 3943 C 364.778 -4.29565 -2.66087 0
M  V30 3944 C 366.976 -4.54367 -2.40947 0
M  V30 3945 N 364.958 -5.66252 -2.37132 0
M  V30 3946 C 366.329 -5.79027 -2.21648 0
M  V30 3947 C 368.384 -4.43327 -2.26639 0
M  V30 3948 C 367.087 -6.93891 -1.89492 0
M  V30 3949 C 369.113 -5.58019 -1.95878 0
M  V30 3950 C 368.475 -6.81695 -1.774 0
M  V30 3951 H 364.574 -0.521614 -0.582617 0
M  V30 3952 H 367.158 -1.68811 -0.970105 0
M  V30 3953 H 365.329 -1.70411 -3.49019 0
M  V30 3954 H 367.061 -1.94453 -3.54923 0
M  V30 3955 H 363.816 -3.81959 -2.80008 0
M  V30 3956 H 364.24 -6.38338 -2.25507 0
M  V30 3957 H 368.882 -3.48333 -2.39633 0
M  V30 3958 H 366.6 -7.88871 -1.75236 0
M  V30 3959 H 370.186 -5.5142 -1.85546 0
M  V30 3960 H 369.066 -7.68942 -1.53941 0
M  V30 3961 N 366.569 1.04691 -1.17803 0
M  V30 3962 C 367.797 1.81446 -0.99423 0
M  V30 3963 C 368.212 1.83174 0.457459 0
M  V30 3964 O 367.569 1.26265 1.31771 0
M  V30 3965 C 367.62 3.27334 -1.5341 0
M  V30 3966 O 367.341 3.25798 -2.92895 0
M  V30 3967 C 368.842 4.20759 -1.39559 0
M  V30 3968 H 366.062 0.571599 -0.351447 0
M  V30 3969 H 368.606 1.31982 -1.56208 0
M  V30 3970 H 366.761 3.74052 -1.00815 0
M  V30 3971 H 367.175 4.17144 -3.17949 0
M  V30 3972 H 368.649 5.21084 -1.82141 0
M  V30 3973 H 369.126 4.37856 -0.343394 0
M  V30 3974 H 369.732 3.79901 -1.91195 0
M  V30 3975 N 368.047 0.979072 1.23499 0
M  V30 3976 C 368.977 0.537606 2.27227 0
M  V30 3977 C 369.958 -0.428539 1.64613 0
M  V30 3978 O 371.143 -0.322191 1.91509 0
M  V30 3979 C 368.273 -0.162052 3.46922 0
M  V30 3980 C 367.227 0.721242 4.21879 0
M  V30 3981 C 366.553 -0.110555 5.34586 0
M  V30 3982 C 367.853 2.01141 4.82016 0
M  V30 3983 H 369.547 1.40462 2.64406 0
M  V30 3984 H 367.093 0.67684 1.27102 0
M  V30 3985 H 369.046 -0.482192 4.18632 0
M  V30 3986 H 367.77 -1.06351 3.08799 0
M  V30 3987 H 366.429 1.02482 3.51984 0
M  V30 3988 H 366.077 -1.0125 4.92704 0
M  V30 3989 H 365.777 0.477325 5.85658 0
M  V30 3990 H 367.301 -0.425107 6.09118 0
M  V30 3991 H 368.715 1.75612 5.45741 0
M  V30 3992 H 367.112 2.54695 5.43369 0
M  V30 3993 H 368.182 2.69909 4.02836 0
M  V30 3994 N 369.525 -1.3858 0.750561 0
M  V30 3995 C 370.774 -1.99424 0.302172 0
M  V30 3996 C 371.087 -1.60254 -1.12152 0
M  V30 3997 O 372.293 -2.14046 -1.67023 0
M  V30 3998 C 370.749 -3.56558 0.489307 0
M  V30 3999 C 370.357 -4.04682 1.92189 0
M  V30 4000 C 372.101 -4.24374 0.103478 0
M  V30 4001 C 370.008 -5.54446 2.05775 0
M  V30 4002 H 368.938 -0.746046 0.10923 0
M  V30 4003 H 371.589 -1.58383 0.92667 0
M  V30 4004 H 369.971 -3.95472 -0.204329 0
M  V30 4005 H 371.145 -3.77065 2.64875 0
M  V30 4006 H 369.46 -3.4958 2.26236 0
M  V30 4007 H 372.057 -5.34384 0.183787 0
M  V30 4008 H 372.4 -4.05468 -0.943481 0
M  V30 4009 H 372.933 -3.90688 0.748854 0
M  V30 4010 H 369.672 -5.78252 3.08714 0
M  V30 4011 H 369.192 -5.83816 1.37546 0
M  V30 4012 H 370.871 -6.20099 1.84626 0
M  V30 4013 N 371.003 -0.499398 -1.49478 0
M  V30 4014 C 371.951 0.293604 -2.3074 0
M  V30 4015 C 372.945 0.96427 -1.39277 0
M  V30 4016 O 374.151 0.892141 -1.56336 0
M  V30 4017 H 370.526 0.113541 -0.743379 0
M  V30 4018 H 372.497 -0.411772 -2.95545 0
M  V30 4019 C 371.246 1.3462 -3.20582 0
M  V30 4020 H 370.569 0.83954 -3.90886 0
M  V30 4021 H 372.009 1.87308 -3.80384 0
M  V30 4022 C 370.468 2.36351 -2.40083 0
M  V30 4023 O 370.998 3.422 -2.10385 0
M  V30 4024 N 369.204 2.0878 -2.02137 0
M  V30 4025 H 368.751 1.22723 -2.26488 0
M  V30 4026 H 368.709 2.77075 -1.48583 0
M  V30 4027 N 372.481 1.55866 -0.233164 0
M  V30 4028 C 373.411 2.23783 0.666599 0
M  V30 4029 C 374.392 1.21343 1.19205 0
M  V30 4030 O 375.577 1.4996 1.23392 0
M  V30 4031 C 372.707 2.92671 1.86978 0
M  V30 4032 C 371.661 4.01682 1.47768 0
M  V30 4033 C 370.987 4.57926 2.76058 0
M  V30 4034 C 372.287 5.18126 0.658993 0
M  V30 4035 H 373.981 2.99232 0.100306 0
M  V30 4036 H 371.527 1.43924 0.046804 0
M  V30 4037 H 373.48 3.3888 2.50476 0
M  V30 4038 H 372.204 2.14688 2.46123 0
M  V30 4039 H 370.863 3.56222 0.866106 0
M  V30 4040 H 370.511 3.76659 3.33372 0
M  V30 4041 H 370.211 5.31505 2.50552 0
M  V30 4042 H 371.735 5.06859 3.40479 0
M  V30 4043 H 373.149 5.60644 1.19795 0
M  V30 4044 H 371.546 5.98009 0.500552 0
M  V30 4045 H 372.616 4.83763 -0.331856 0
M  V30 4046 N 373.959 -0.0401083 1.57549 0
M  V30 4047 C 375.184 -0.748931 1.93406 0
M  V30 4048 C 375.609 -1.68686 0.832274 0
M  V30 4049 O 374.967 -1.80047 -0.212818 0
M  V30 4050 C 375.015 -1.4916 3.28304 0
M  V30 4051 O 374.119 -2.6042 3.19774 0
M  V30 4052 H 373.46 -0.202212 0.63246 0
M  V30 4053 H 375.99 0.00112086 2.046 0
M  V30 4054 H 376 -1.86395 3.62934 0
M  V30 4055 H 374.675 -0.80364 4.08062 0
M  V30 4056 H 373.252 -2.25808 2.96758 0
M  V30 4057 N 375.437 -1.54477 -0.31217 0
M  V30 4058 C 376.684 -1.73227 -1.04875 0
M  V30 4059 C 377.012 -0.512042 -1.87639 0
M  V30 4060 O 376.267 0.506131 -1.89042 0
M  V30 4061 C 376.566 -2.967 -1.99258 0
M  V30 4062 C 376.232 -4.30974 -1.32559 0
M  V30 4063 C 374.894 -4.67477 -1.141 0
M  V30 4064 C 377.246 -5.14258 -0.847835 0
M  V30 4065 C 374.574 -5.84852 -0.465326 0
M  V30 4066 C 376.926 -6.32327 -0.185931 0
M  V30 4067 C 375.59 -6.67499 0.0107077 0
M  V30 4068 H 374.86 -0.633881 -0.383765 0
M  V30 4069 H 377.507 -1.88727 -0.324731 0
M  V30 4070 H 375.812 -2.75935 -2.7815 0
M  V30 4071 H 377.509 -3.08401 -2.563 0
M  V30 4072 H 374.099 -4.02262 -1.4793 0
M  V30 4073 H 378.283 -4.86565 -0.978192 0
M  V30 4074 H 373.539 -6.10654 -0.301883 0
M  V30 4075 H 377.713 -6.96135 0.192211 0
M  V30 4076 H 375.34 -7.58306 0.536287 0
M  V30 4077 N 376.915 0.57481 -1.46744 0
M  V30 4078 C 377.878 1.66533 -1.57478 0
M  V30 4079 C 378.878 1.54338 -0.451263 0
M  V30 4080 O 380.068 1.58814 -0.715813 0
M  V30 4081 C 377.2 3.05999 -1.50259 0
M  V30 4082 H 378.393 1.58372 -2.54673 0
M  V30 4083 H 375.946 0.793301 -1.34672 0
M  V30 4084 H 376.681 3.19709 -0.543725 0
M  V30 4085 H 376.466 3.16259 -2.31781 0
M  V30 4086 H 377.956 3.8537 -1.60872 0
M  V30 4087 N 378.394 1.34581 0.820102 0
M  V30 4088 C 379.357 1.2628 1.91275 0
M  V30 4089 C 380.357 0.177344 1.59819 0
M  V30 4090 O 381.547 0.430156 1.68806 0
M  V30 4091 C 378.679 0.950327 3.27386 0
M  V30 4092 H 379.872 2.23421 2.00057 0
M  V30 4093 H 377.425 1.1891 1.0144 0
M  V30 4094 H 378.16 -0.0177938 3.24295 0
M  V30 4095 H 377.945 1.73549 3.51601 0
M  V30 4096 H 379.435 0.917492 4.07396 0
M  V30 4097 N 379.872 -1.04064 1.18357 0
M  V30 4098 C 380.819 -2.12077 0.910603 0
M  V30 4099 C 381.789 -1.65421 -0.15 0
M  V30 4100 O 382.974 -1.90797 -0.0103614 0
M  V30 4101 C 380.114 -3.42252 0.442472 0
M  V30 4102 C 379.227 -4.0252 1.5685 0
M  V30 4103 C 378.362 -5.20657 1.05309 0
M  V30 4104 C 377.401 -5.72955 2.1538 0
M  V30 4105 N 376.538 -6.8238 1.65233 0
M  V30 4106 H 381.378 -2.34764 1.83548 0
M  V30 4107 H 378.915 -1.15157 0.915279 0
M  V30 4108 H 380.873 -4.16921 0.152534 0
M  V30 4109 H 379.503 -3.19712 -0.445428 0
M  V30 4110 H 378.555 -3.25178 1.97391 0
M  V30 4111 H 379.867 -4.37362 2.39824 0
M  V30 4112 H 379.021 -6.0244 0.717677 0
M  V30 4113 H 377.76 -4.87318 0.19293 0
M  V30 4114 H 376.765 -4.89793 2.49766 0
M  V30 4115 H 377.99 -6.08337 3.01832 0
M  V30 4116 H 375.936 -6.50917 0.815064 0
M  V30 4117 H 375.853 -7.16286 2.41805 0
M  V30 4118 H 377.121 -7.67788 1.34619 0
M  V30 4119 N 381.35 -0.985608 -1.22978 0
M  V30 4120 C 382.282 -0.488154 -2.23941 0
M  V30 4121 C 383.295 0.41282 -1.57479 0
M  V30 4122 O 384.484 0.216121 -1.77187 0
M  V30 4123 C 381.584 0.312611 -3.37455 0
M  V30 4124 C 380.757 -0.582741 -4.33501 0
M  V30 4125 C 379.816 0.165064 -5.25941 0
M  V30 4126 O 378.842 -0.447077 -5.67442 0
M  V30 4127 N 380.044 1.44953 -5.62111 0
M  V30 4128 H 382.809 -1.3563 -2.67254 0
M  V30 4129 H 380.37 -0.859477 -1.37203 0
M  V30 4130 H 382.362 0.821357 -3.96277 0
M  V30 4131 H 380.932 1.0818 -2.93285 0
M  V30 4132 H 380.152 -1.27225 -3.73105 0
M  V30 4133 H 381.44 -1.19275 -4.94622 0
M  V30 4134 H 380.838 1.9683 -5.30353 0
M  V30 4135 H 379.395 1.90361 -6.23383 0
M  V30 4136 N 382.828 1.3818 -0.7579 0
M  V30 4137 C 384.244 1.5353 -0.435972 0
M  V30 4138 C 384.444 1.71961 1.05032 0
M  V30 4139 O 383.5 1.73307 1.83633 0
M  V30 4140 C 384.813 2.73989 -1.23898 0
M  V30 4141 C 386.361 2.87841 -1.22949 0
M  V30 4142 C 386.836 4.11266 -2.01554 0
M  V30 4143 N 388.327 4.18352 -1.98837 0
M  V30 4144 C 389.062 5.12856 -2.5645 0
M  V30 4145 N 388.558 6.13005 -3.22794 0
M  V30 4146 N 390.351 5.05238 -2.46356 0
M  V30 4147 H 382.502 1.24467 -1.7211 0
M  V30 4148 H 384.765 0.604982 -0.729864 0
M  V30 4149 H 384.471 2.66789 -2.29165 0
M  V30 4150 H 384.345 3.67294 -0.858764 0
M  V30 4151 H 386.732 2.9452 -0.184854 0
M  V30 4152 H 386.813 1.95534 -1.64924 0
M  V30 4153 H 386.457 4.05349 -3.06031 0
M  V30 4154 H 386.387 5.02661 -1.5697 0
M  V30 4155 H 388.878 3.46628 -1.50524 0
M  V30 4156 H 389.191 6.81619 -3.64165 0
M  V30 4157 H 387.536 6.13325 -3.2689 0
M  V30 4158 H 390.727 4.25938 -1.9415 0
M  V30 4159 H 390.9 5.78707 -2.91552 0
M  V30 4160 N 384.306 0.507319 1.49211 0
M  V30 4161 C 385.216 -0.272136 2.33016 0
M  V30 4162 C 386.232 -0.961206 1.45041 0
M  V30 4163 O 387.408 -0.941191 1.78055 0
M  V30 4164 C 384.473 -1.31895 3.20631 0
M  V30 4165 C 383.534 -0.642648 4.24463 0
M  V30 4166 C 382.767 -1.63959 5.07891 0
M  V30 4167 O 382.99 -2.87007 4.92933 0
M  V30 4168 O 381.924 -1.19143 5.8999 0
M  V30 4169 H 385.75 0.413982 3.00865 0
M  V30 4170 H 383.335 0.268556 1.46966 0
M  V30 4171 H 385.217 -1.92446 3.7489 0
M  V30 4172 H 383.892 -1.98788 2.5547 0
M  V30 4173 H 382.799 0.00276252 3.741 0
M  V30 4174 H 384.132 -0.0160534 4.92197 0
M  V30 4175 N 385.784 -1.5574 0.241426 0
M  V30 4176 C 386.714 -2.24133 -0.654722 0
M  V30 4177 C 387.695 -1.21974 -1.1856 0
M  V30 4178 O 388.88 -1.50612 -1.22595 0
M  V30 4179 C 386.01 -2.93659 -1.85423 0
M  V30 4180 C 384.964 -4.0246 -1.45636 0
M  V30 4181 C 384.29 -4.59383 -2.73626 0
M  V30 4182 C 385.59 -5.18468 -0.631506 0
M  V30 4183 H 387.284 -2.99281 -0.0844353 0
M  V30 4184 H 384.83 -1.43947 -0.0391707 0
M  V30 4185 H 386.783 -3.40203 -2.48676 0
M  V30 4186 H 385.507 -2.15991 -2.44981 0
M  V30 4187 H 384.166 -3.56676 -0.847202 0
M  V30 4188 H 383.814 -3.78422 -3.3137 0
M  V30 4189 H 383.514 -5.32826 -2.4773 0
M  V30 4190 H 385.038 -5.08658 -3.37786 0
M  V30 4191 H 386.452 -5.61272 -1.1682 0
M  V30 4192 H 384.849 -5.98266 -0.468831 0
M  V30 4193 H 385.919 -4.8358 0.357506 0
M  V30 4194 N 387.262 0.0317525 -1.57568 0
M  V30 4195 C 388.212 1.04101 -2.02847 0
M  V30 4196 C 389.196 1.3219 -0.917317 0
M  V30 4197 O 390.388 1.31819 -1.18121 0
M  V30 4198 C 387.517 2.34295 -2.5092 0
M  V30 4199 C 386.603 2.09308 -3.68851 0
M  V30 4200 N 386.994 1.5437 -4.81667 0
M  V30 4201 C 385.292 2.39604 -3.76172 0
M  V30 4202 C 385.993 1.45126 -5.63306 0
M  V30 4203 N 384.969 1.92589 -5.08341 0
M  V30 4204 H 388.771 0.610217 -2.87495 0
M  V30 4205 H 386.285 0.238108 -1.60645 0
M  V30 4206 H 388.282 3.07404 -2.81617 0
M  V30 4207 H 386.942 2.78055 -1.67677 0
M  V30 4208 H 387.953 1.22678 -5.03161 0
M  V30 4209 H 384.63 2.86457 -3.03724 0
M  V30 4210 H 386.02 1.03163 -6.63933 0
M  V30 4211 N 388.74 1.54641 0.303973 0
M  V30 4212 C 389.965 1.78092 1.06292 0
M  V30 4213 C 390.39 0.537342 1.80262 0
M  V30 4214 O 389.748 -0.511993 1.7392 0
M  V30 4215 C 389.796 2.98612 2.02147 0
M  V30 4216 O 388.9 2.71528 3.10397 0
M  V30 4217 H 388.241 0.589548 0.305497 0
M  V30 4218 H 390.771 2.01716 0.3423 0
M  V30 4219 H 390.781 3.265 2.44667 0
M  V30 4220 H 389.456 3.88785 1.47714 0
M  V30 4221 H 388.033 2.54648 2.72413 0
M  V30 4222 N 390.218 -0.567019 1.47046 0
M  V30 4223 C 391.168 -1.67018 1.55207 0
M  V30 4224 C 392.152 -1.55543 0.411714 0
M  V30 4225 O 393.344 -1.64192 0.661064 0
M  V30 4226 C 390.473 -3.05801 1.56014 0
M  V30 4227 C 389.559 -3.22515 2.75399 0
M  V30 4228 N 389.95 -3.09329 4.00186 0
M  V30 4229 C 388.248 -3.53493 2.71954 0
M  V30 4230 C 388.949 -3.2847 4.80086 0
M  V30 4231 N 387.925 -3.54352 4.12233 0
M  V30 4232 H 391.727 -1.55377 2.4947 0
M  V30 4233 H 389.241 -0.771503 1.42904 0
M  V30 4234 H 391.238 -3.84996 1.59949 0
M  V30 4235 H 389.898 -3.18561 0.628396 0
M  V30 4236 H 390.909 -2.86863 4.31196 0
M  V30 4237 H 387.586 -3.7284 1.87873 0
M  V30 4238 H 388.976 -3.23326 5.88991 0
M  V30 4239 N 391.696 -1.35014 -0.812953 0
M  V30 4240 C 392.942 -1.2812 -1.57204 0
M  V30 4241 C 393.275 0.145869 -1.93651 0
M  V30 4242 O 392.55 1.0937 -1.60836 0
M  V30 4243 C 392.833 -2.18162 -2.86492 0
M  V30 4244 C 392.686 -3.69454 -2.56561 0
M  V30 4245 C 394.005 -2.07439 -3.88145 0
M  V30 4246 H 391.124 -0.466746 -0.570366 0
M  V30 4247 H 393.766 -1.65357 -0.935783 0
M  V30 4248 H 391.916 -1.86535 -3.40789 0
M  V30 4249 H 393.588 -4.11493 -2.08497 0
M  V30 4250 H 391.831 -3.9005 -1.89851 0
M  V30 4251 H 392.502 -4.27835 -3.48799 0
M  V30 4252 H 394.978 -2.35228 -3.4323 0
M  V30 4253 H 393.854 -2.7265 -4.76396 0
M  V30 4254 H 394.115 -1.05439 -4.29343 0
M  V30 4255 N 393.175 1.03435 -1.18907 0
M  V30 4256 C 394.403 1.80381 -1.01342 0
M  V30 4257 C 394.818 1.83649 0.438005 0
M  V30 4258 O 394.175 1.27655 1.30424 0
M  V30 4259 C 394.226 3.25689 -1.56873 0
M  V30 4260 O 393.947 3.22673 -2.96334 0
M  V30 4261 C 395.448 4.19255 -1.44014 0
M  V30 4262 H 392.668 0.56784 -0.35749 0
M  V30 4263 H 395.212 1.30317 -1.576 0
M  V30 4264 H 393.367 3.72962 -1.04777 0
M  V30 4265 H 393.781 4.13748 -3.22355 0
M  V30 4266 H 395.255 5.19123 -1.87657 0
M  V30 4267 H 395.732 4.37467 -0.389815 0
M  V30 4268 H 396.338 3.77851 -1.95214 0
M  V30 4269 N 394.653 0.992116 1.22453 0
M  V30 4270 C 395.601 0.534644 2.26372 0
M  V30 4271 C 396.595 -0.414293 1.64256 0
M  V30 4272 O 397.801 -0.286899 1.77699 0
M  V30 4273 H 394.176 0.154502 0.735957 0
M  V30 4274 H 396.147 1.42256 2.62309 0
M  V30 4275 C 394.896 -0.135815 3.47435 0
M  V30 4276 H 394.219 0.585311 3.95492 0
M  V30 4277 H 395.659 -0.419374 4.21921 0
M  V30 4278 C 394.118 -1.37089 3.07747 0
M  V30 4279 O 394.648 -2.46629 3.17076 0
M  V30 4280 N 392.854 -1.24585 2.62539 0
M  V30 4281 H 392.401 -0.354542 2.55149 0
M  V30 4282 H 392.359 -2.07327 2.36353 0
M  V30 4283 N 396.131 -1.37776 0.765217 0
M  V30 4284 C 397.094 -2.28686 0.153416 0
M  V30 4285 C 398.094 -1.47727 -0.635081 0
M  V30 4286 O 399.284 -1.68027 -0.459632 0
M  V30 4287 C 396.416 -3.31608 -0.790495 0
M  V30 4288 H 397.609 -2.84297 0.954723 0
M  V30 4289 H 395.162 -1.46932 0.53299 0
M  V30 4290 H 395.897 -2.81109 -1.61705 0
M  V30 4291 H 395.682 -3.9144 -0.227348 0
M  V30 4292 H 397.172 -3.99559 -1.21419 0
M  V30 4293 N 397.609 -0.515225 -1.4894 0
M  V30 4294 C 398.542 0.302518 -2.26186 0
M  V30 4295 C 399.52 0.957895 -1.31389 0
M  V30 4296 O 400.704 0.985198 -1.60705 0
M  V30 4297 C 397.831 1.42719 -3.07163 0
M  V30 4298 C 396.877 0.884736 -4.17223 0
M  V30 4299 S 397.71 -0.235767 -5.34981 0
M  V30 4300 C 398.866 0.891731 -6.19515 0
M  V30 4301 H 399.099 -0.353076 -2.95196 0
M  V30 4302 H 396.632 -0.300753 -1.51443 0
M  V30 4303 H 398.59 2.07152 -3.54398 0
M  V30 4304 H 397.251 2.05445 -2.37595 0
M  V30 4305 H 396.444 1.72801 -4.73451 0
M  V30 4306 H 396.046 0.317362 -3.72651 0
M  V30 4307 H 398.338 1.79377 -6.53322 0
M  V30 4308 H 399.281 0.367751 -7.07144 0
M  V30 4309 H 399.689 1.16548 -5.52338 0
M  V30 4310 N 399.087 1.5561 -0.249682 0
M  V30 4311 C 400.333 1.99306 0.374841 0
M  V30 4312 C 400.666 1.13767 1.57387 0
M  V30 4313 O 399.941 0.201711 1.93451 0
M  V30 4314 C 400.224 3.51507 0.781986 0
M  V30 4315 C 400.077 4.4781 -0.422629 0
M  V30 4316 C 401.396 4.08884 1.62793 0
M  V30 4317 H 398.515 0.724572 0.134773 0
M  V30 4318 H 401.157 1.86719 -0.351549 0
M  V30 4319 H 399.307 3.62363 1.4009 0
M  V30 4320 H 400.979 4.48931 -1.06108 0
M  V30 4321 H 399.222 4.20518 -1.06524 0
M  V30 4322 H 399.893 5.51919 -0.0943766 0
M  V30 4323 H 402.369 4.01147 1.10547 0
M  V30 4324 H 401.245 5.1564 1.88166 0
M  V30 4325 H 401.506 3.57515 2.60068 0
M  V30 4326 N 400.565 -0.0233959 1.57583 0
M  V30 4327 C 401.495 -1.02162 2.09965 0
M  V30 4328 C 402.476 -1.3735 1.00344 0
M  V30 4329 O 403.661 -1.46135 1.27899 0
M  V30 4330 C 400.791 -2.32081 2.58371 0
M  V30 4331 C 399.745 -2.1112 3.72307 0
M  V30 4332 C 399.071 -3.46848 4.06941 0
M  V30 4333 C 400.371 -1.49276 5.00514 0
M  V30 4334 H 402.065 -0.585557 2.93618 0
M  V30 4335 H 399.611 -0.280218 1.41247 0
M  V30 4336 H 401.564 -3.02249 2.93639 0
M  V30 4337 H 400.288 -2.77758 1.71808 0
M  V30 4338 H 398.947 -1.43384 3.37397 0
M  V30 4339 H 398.595 -3.90184 3.17436 0
M  V30 4340 H 398.295 -3.33646 4.83688 0
M  V30 4341 H 399.819 -4.18369 4.44747 0
M  V30 4342 H 401.233 -2.09368 5.33702 0
M  V30 4343 H 399.63 -1.46632 5.8191 0
M  V30 4344 H 400.7 -0.459217 4.82721 0
M  V30 4345 N 402.043 -1.548 -0.295768 0
M  V30 4346 C 403.289 -1.74588 -1.03184 0
M  V30 4347 C 403.622 -0.532962 -1.86744 0
M  V30 4348 O 402.897 0.469872 -1.88739 0
M  V30 4349 C 403.18 -3.03791 -1.93347 0
M  V30 4350 C 403.033 -4.35392 -1.12933 0
M  V30 4351 C 404.352 -3.28892 -2.92435 0
M  V30 4352 H 401.471 -0.635221 -0.373715 0
M  V30 4353 H 404.113 -1.87519 -0.30606 0
M  V30 4354 H 402.263 -2.92898 -2.55232 0
M  V30 4355 H 403.935 -4.58211 -0.532943 0
M  V30 4356 H 402.178 -4.31642 -0.432168 0
M  V30 4357 H 402.849 -5.22074 -1.79284 0
M  V30 4358 H 405.325 -3.39429 -2.4068 0
M  V30 4359 H 404.201 -4.20603 -3.52682 0
M  V30 4360 H 404.462 -2.47437 -3.6637 0
M  V30 4361 N 403.521 0.559213 -1.47345 0
M  V30 4362 C 404.469 1.68747 -1.60085 0
M  V30 4363 C 405.463 1.628 -0.46825 0
M  V30 4364 O 406.669 1.68009 -0.645977 0
M  V30 4365 H 403.044 0.558329 -0.503759 0
M  V30 4366 H 405.015 1.55138 -2.54902 0
M  V30 4367 C 403.764 3.07103 -1.63042 0
M  V30 4368 H 403.087 3.12361 -2.49541 0
M  V30 4369 H 404.527 3.85743 -1.76006 0
M  V30 4370 C 402.986 3.34935 -0.363357 0
M  V30 4371 O 403.516 3.98102 0.536416 0
M  V30 4372 N 401.722 2.89574 -0.244 0
M  V30 4373 H 401.269 2.38348 -0.977133 0
M  V30 4374 H 401.227 3.08566 0.602836 0
M  V30 4375 N 404.999 1.35443 0.805782 0
M  V30 4376 C 406.245 1.28952 1.56522 0
M  V30 4377 C 406.578 -0.135597 1.93726 0
M  V30 4378 O 405.853 -1.08516 1.61414 0
M  V30 4379 C 406.136 2.19678 2.85331 0
M  V30 4380 C 405.989 3.7081 2.54598 0
M  V30 4381 C 407.308 2.09495 3.8704 0
M  V30 4382 H 404.427 0.469764 0.567883 0
M  V30 4383 H 407.069 1.65851 0.927001 0
M  V30 4384 H 405.219 1.8834 3.39795 0
M  V30 4385 H 406.891 4.12593 2.06312 0
M  V30 4386 H 405.134 3.91051 1.8778 0
M  V30 4387 H 405.805 4.29679 3.46525 0
M  V30 4388 H 408.281 2.37045 3.41978 0
M  V30 4389 H 407.157 2.75173 4.74943 0
M  V30 4390 H 407.418 1.07714 4.28777 0
M  V30 4391 N 406.477 -1.02803 1.19454 0
M  V30 4392 C 407.407 -2.12999 0.956758 0
M  V30 4393 C 408.388 -1.69743 -0.110188 0
M  V30 4394 O 409.573 -1.94148 0.0450038 0
M  V30 4395 C 406.703 -3.43746 0.495553 0
M  V30 4396 C 405.657 -4.00688 1.50443 0
M  V30 4397 C 404.983 -5.27067 0.900275 0
M  V30 4398 C 406.283 -4.35397 2.8849 0
M  V30 4399 H 407.977 -2.33148 1.87836 0
M  V30 4400 H 405.523 -1.12045 0.904539 0
M  V30 4401 H 407.476 -4.2021 0.316493 0
M  V30 4402 H 406.2 -3.23321 -0.461646 0
M  V30 4403 H 404.859 -3.2632 1.67065 0
M  V30 4404 H 404.507 -5.02959 -0.064503 0
M  V30 4405 H 404.207 -5.66127 1.57397 0
M  V30 4406 H 405.731 -6.06196 0.73203 0
M  V30 4407 H 407.145 -5.02795 2.75446 0
M  V30 4408 H 405.542 -4.85541 3.52661 0
M  V30 4409 H 406.612 -3.44662 3.41081 0
M  V30 4410 N 407.956 -0.998596 -1.21925 0
M  V30 4411 C 408.888 -0.511879 -2.23411 0
M  V30 4412 C 409.901 0.396094 -1.57908 0
M  V30 4413 O 411.09 0.197316 -1.77406 0
M  V30 4414 C 408.19 0.276802 -3.37768 0
M  V30 4415 C 407.363 -0.628687 -4.32858 0
M  V30 4416 C 406.422 0.109272 -5.26087 0
M  V30 4417 O 405.448 -0.507237 -5.66935 0
M  V30 4418 N 406.65 1.38983 -5.63617 0
M  V30 4419 H 409.415 -1.38457 -2.658 0
M  V30 4420 H 406.976 -0.873981 -1.36283 0
M  V30 4421 H 408.968 0.77928 -3.97126 0
M  V30 4422 H 407.538 1.05063 -2.94415 0
M  V30 4423 H 406.758 -1.31175 -3.71735 0
M  V30 4424 H 408.046 -1.24514 -4.93329 0
M  V30 4425 H 407.444 1.91194 -5.32411 0
M  V30 4426 H 406.001 1.83739 -6.25367 0
M  V30 4427 N 409.434 1.37368 -0.772513 0
M  V30 4428 C 410.397 2.28601 -0.165541 0
M  V30 4429 C 411.397 1.48062 0.627238 0
M  V30 4430 O 412.587 1.68268 0.450715 0
M  V30 4431 C 409.719 3.32023 0.772897 0
M  V30 4432 H 410.912 2.83787 -0.969787 0
M  V30 4433 H 408.465 1.46647 -0.540775 0
M  V30 4434 H 409.2 2.81962 1.60212 0
M  V30 4435 H 408.985 3.91555 0.206585 0
M  V30 4436 H 410.475 4.00197 1.19298 0
M  V30 4437 N 410.912 0.523116 1.48665 0
M  V30 4438 C 412.161 -0.01544 2.01694 0
M  V30 4439 C 412.474 -1.35975 1.40606 0
M  V30 4440 O 413.68 -1.98627 1.85093 0
M  V30 4441 C 412.136 -0.0779303 3.59816 0
M  V30 4442 C 411.744 1.26107 4.29885 0
M  V30 4443 C 413.488 -0.565678 4.20714 0
M  V30 4444 C 411.395 1.15954 5.79921 0
M  V30 4445 H 410.325 -0.00954163 0.75394 0
M  V30 4446 H 412.976 0.665865 1.70993 0
M  V30 4447 H 411.358 -0.824165 3.87329 0
M  V30 4448 H 412.532 2.02233 4.14051 0
M  V30 4449 H 410.847 1.68401 3.80828 0
M  V30 4450 H 413.444 -0.6595 5.30617 0
M  V30 4451 H 413.787 -1.56984 3.85567 0
M  V30 4452 H 414.32 0.12467 3.97605 0
M  V30 4453 H 411.059 2.13864 6.19631 0
M  V30 4454 H 410.579 0.439529 5.98187 0
M  V30 4455 H 412.258 0.847361 6.41427 0
M  V30 4456 N 412.39 -1.55475 0.257931 0
M  V30 4457 C 413.62 -2.03314 -0.367026 0
M  V30 4458 C 414.028 -1.13625 -1.51281 0
M  V30 4459 O 413.371 -0.145334 -1.83124 0
M  V30 4460 C 413.433 -3.47362 -0.926284 0
M  V30 4461 C 413.097 -4.56914 0.0886584 0
M  V30 4462 C 414.094 -5.12013 0.902123 0
M  V30 4463 C 411.779 -5.01827 0.217936 0
M  V30 4464 C 413.773 -6.10529 1.83122 0
M  V30 4465 C 411.46 -6.00172 1.15052 0
M  V30 4466 C 412.458 -6.54402 1.95568 0
M  V30 4467 O 412.146 -7.50827 2.87253 0
M  V30 4468 H 411.878 -0.669976 -0.0900443 0
M  V30 4469 H 414.432 -2.01804 0.382673 0
M  V30 4470 H 412.662 -3.46056 -1.72575 0
M  V30 4471 H 414.351 -3.78637 -1.46249 0
M  V30 4472 H 415.117 -4.78139 0.812891 0
M  V30 4473 H 410.996 -4.59272 -0.398721 0
M  V30 4474 H 414.54 -6.52783 2.46008 0
M  V30 4475 H 410.437 -6.33465 1.24064 0
M  V30 4476 H 411.205 -7.68483 2.81739 0
M  V30 4477 N 413.868 0.0150385 -1.57593 0
M  V30 4478 C 415.114 0.704043 -1.90187 0
M  V30 4479 C 415.447 1.74249 -0.857366 0
M  V30 4480 O 414.722 1.94092 0.125843 0
M  V30 4481 C 415.005 1.36087 -3.33395 0
M  V30 4482 C 414.858 0.334981 -4.48551 0
M  V30 4483 C 416.177 2.29112 -3.7576 0
M  V30 4484 H 413.296 0.254475 -0.691673 0
M  V30 4485 H 415.938 -0.0331678 -1.89971 0
M  V30 4486 H 414.088 1.98922 -3.3371 0
M  V30 4487 H 415.76 -0.292534 -4.60372 0
M  V30 4488 H 414.003 -0.344325 -4.32431 0
M  V30 4489 H 414.674 0.833316 -5.45674 0
M  V30 4490 H 417.15 1.76308 -3.76902 0
M  V30 4491 H 416.026 2.72043 -4.76743 0
M  V30 4492 H 416.287 3.16385 -3.08793 0
M  V30 4493 N 415.346 1.54954 0.287554 0
M  V30 4494 C 416.595 1.74081 1.01877 0
M  V30 4495 C 416.908 0.541135 1.87966 0
M  V30 4496 O 418.114 0.614491 2.64455 0
M  V30 4497 C 416.57 3.08042 1.86113 0
M  V30 4498 C 416.178 4.35531 1.04961 0
M  V30 4499 C 417.922 3.36523 2.58752 0
M  V30 4500 C 415.829 5.60538 1.88551 0
M  V30 4501 H 414.759 0.64884 0.384087 0
M  V30 4502 H 417.41 1.81426 0.275101 0
M  V30 4503 H 415.792 2.94696 2.64519 0
M  V30 4504 H 416.966 4.59751 0.31074 0
M  V30 4505 H 415.281 4.14085 0.43843 0
M  V30 4506 H 417.878 4.27122 3.21668 0
M  V30 4507 H 418.221 2.56 3.28283 0
M  V30 4508 H 418.754 3.50901 1.87386 0
M  V30 4509 H 415.493 6.43767 1.23466 0
M  V30 4510 H 415.013 5.40483 2.60074 0
M  V30 4511 H 416.692 5.98297 2.46273 0
M  V30 4512 N 416.824 -0.551391 1.4764 0
M  V30 4513 C 418.101 -1.31229 1.45046 0
M  V30 4514 C 418.481 -2.10563 0.150527 0
M  V30 4515 O 417.829 -2.11374 -0.867956 0
M  V30 4516 C 418.039 -2.21189 2.69956 0
M  V30 4517 C 419.387 -2.82021 3.1741 0
M  V30 4518 O 420.411 -2.31488 2.70724 0
M  V30 4519 O 419.27 -3.73885 3.98588 0
M  V30 4520 H 416.364 -0.591193 0.578291 0
M  V30 4521 H 418.91 -0.569813 1.59847 0
M  V30 4522 H 417.682 -1.62207 3.56096 0
M  V30 4523 H 417.305 -3.02722 2.57769 0
M  V30 4524 N 418.302 -1.35869 -0.798587 0
M  V30 4525 C 419.549 -1.29588 -1.55606 0
M  V30 4526 C 419.877 0.127456 -1.94082 0
M  V30 4527 O 419.132 1.09461 -1.62225 0
M  V30 4528 C 419.431 -2.1556 -2.85077 0
M  V30 4529 C 419.097 -3.6424 -2.65781 0
M  V30 4530 C 417.759 -4.04766 -2.60227 0
M  V30 4531 C 420.111 -4.58547 -2.47758 0
M  V30 4532 C 417.439 -5.37753 -2.34603 0
M  V30 4533 C 419.791 -5.91742 -2.23662 0
M  V30 4534 C 418.455 -6.31402 -2.16534 0
M  V30 4535 H 417.725 -0.474197 -0.569402 0
M  V30 4536 H 420.372 -1.67839 -0.922086 0
M  V30 4537 H 418.677 -1.70216 -3.52893 0
M  V30 4538 H 420.374 -2.08031 -3.42818 0
M  V30 4539 H 416.964 -3.32086 -2.70956 0
M  V30 4540 H 421.148 -4.28117 -2.51056 0
M  V30 4541 H 416.404 -5.67474 -2.2756 0
M  V30 4542 H 420.578 -6.6439 -2.08708 0
M  V30 4543 H 418.205 -7.34381 -1.96441 0
M  V30 4544 N 419.78 1.02168 -1.19998 0
M  V30 4545 C 421.027 1.75685 -1.00702 0
M  V30 4546 C 421.355 1.88947 0.461426 0
M  V30 4547 O 420.61 1.40832 1.35885 0
M  V30 4548 C 420.909 3.18081 -1.62969 0
M  V30 4549 C 420.575 3.24809 -3.12746 0
M  V30 4550 C 419.237 3.26352 -3.53621 0
M  V30 4551 C 421.589 3.23379 -4.08749 0
M  V30 4552 C 418.917 3.2413 -4.89036 0
M  V30 4553 C 421.269 3.22698 -5.44104 0
M  V30 4554 C 419.933 3.22542 -5.84399 0
M  V30 4555 H 419.203 0.642877 -0.368496 0
M  V30 4556 H 421.85 1.19865 -1.49348 0
M  V30 4557 H 420.155 3.77027 -1.06573 0
M  V30 4558 H 421.852 3.73648 -1.45561 0
M  V30 4559 H 418.442 3.2434 -2.80181 0
M  V30 4560 H 422.626 3.21361 -3.78207 0
M  V30 4561 H 417.882 3.22338 -5.19527 0
M  V30 4562 H 422.056 3.20543 -6.18244 0
M  V30 4563 H 419.683 3.20575 -6.89301 0
M  V30 4564 N 421.258 1.00505 1.21394 0
M  V30 4565 C 422.504 0.698477 1.91031 0
M  V30 4566 C 422.859 -0.762448 1.76648 0
M  V30 4567 O 422.152 -1.54554 1.13241 0
M  V30 4568 C 422.346 1.0546 3.41486 0
M  V30 4569 C 422.175 2.5486 3.70508 0
M  V30 4570 C 420.945 3.21461 3.8986 0
M  V30 4571 C 423.143 3.53019 3.74008 0
M  V30 4572 N 421.125 4.60211 4.06299 0
M  V30 4573 C 422.496 4.77279 3.95733 0
M  V30 4574 C 424.551 3.47154 3.56915 0
M  V30 4575 C 423.254 5.96388 4.02137 0
M  V30 4576 C 425.28 4.65652 3.64585 0
M  V30 4577 C 424.642 5.88717 3.86771 0
M  V30 4578 H 420.741 0.30707 0.719189 0
M  V30 4579 H 423.325 1.28753 1.46051 0
M  V30 4580 H 421.496 0.494007 3.85246 0
M  V30 4581 H 423.228 0.702765 3.98552 0
M  V30 4582 H 419.983 2.71906 3.87768 0
M  V30 4583 H 420.407 5.32216 4.1842 0
M  V30 4584 H 425.049 2.53015 3.38738 0
M  V30 4585 H 422.767 6.90919 4.19114 0
M  V30 4586 H 426.353 4.62717 3.52681 0
M  V30 4587 H 425.233 6.78877 3.92549 0
M  V30 4588 N 422.737 -1.36956 0.779787 0
M  V30 4589 C 423.685 -2.32053 0.15942 0
M  V30 4590 C 424.679 -1.55333 -0.675878 0
M  V30 4591 O 425.885 -1.70668 -0.57204 0
M  V30 4592 H 422.26 -0.751286 0.0327707 0
M  V30 4593 H 424.231 -2.8195 0.977078 0
M  V30 4594 C 422.98 -3.40602 -0.698977 0
M  V30 4595 H 422.303 -3.99746 -0.0655966 0
M  V30 4596 H 423.743 -4.09486 -1.09989 0
M  V30 4597 C 422.202 -2.81359 -1.85307 0
M  V30 4598 O 422.732 -2.72751 -2.94906 0
M  V30 4599 N 420.938 -2.38786 -1.65619 0
M  V30 4600 H 420.485 -2.45987 -0.764725 0
M  V30 4601 H 420.443 -1.99493 -2.43002 0
M  V30 4602 N 424.215 -0.530993 -1.48385 0
M  V30 4603 C 425.125 0.23503 -2.3342 0
M  V30 4604 C 426.141 0.93801 -1.46552 0
M  V30 4605 O 427.317 0.912745 -1.7953 0
M  V30 4606 C 424.382 1.26778 -3.22689 0
M  V30 4607 C 423.443 0.575038 -4.25431 0
M  V30 4608 C 422.676 1.55858 -5.10435 0
M  V30 4609 O 422.899 2.79129 -4.97437 0
M  V30 4610 O 421.833 1.09742 -5.91811 0
M  V30 4611 H 425.659 -0.461794 -3.00169 0
M  V30 4612 H 423.244 -0.291903 -1.46521 0
M  V30 4613 H 425.126 1.86457 -3.77904 0
M  V30 4614 H 423.801 1.94699 -2.586 0
M  V30 4615 H 422.708 -0.0622782 -3.74048 0
M  V30 4616 H 424.041 -0.062253 -4.92161 0
M  V30 4617 N 425.693 1.55336 -0.266172 0
M  V30 4618 C 426.921 2.03801 0.356756 0
M  V30 4619 C 427.336 1.14485 1.50129 0
M  V30 4620 O 426.693 0.163121 1.8177 0
M  V30 4621 C 426.744 3.51455 0.846281 0
M  V30 4622 O 426.465 4.37371 -0.252663 0
M  V30 4623 C 427.966 4.15767 1.53794 0
M  V30 4624 H 425.186 0.665906 0.0825218 0
M  V30 4625 H 427.73 2.00636 -0.39566 0
M  V30 4626 H 425.885 3.55092 1.54881 0
M  V30 4627 H 426.299 5.24358 0.122173 0
M  V30 4628 H 427.773 5.20714 1.83198 0
M  V30 4629 H 428.25 3.63404 2.46646 0
M  V30 4630 H 428.856 4.16107 0.879488 0
M  V30 4631 N 427.171 -0.0066808 1.57599 0
M  V30 4632 C 428.417 -0.68835 1.91398 0
M  V30 4633 C 428.772 -1.7175 0.86716 0
M  V30 4634 O 428.065 -1.91215 -0.121475 0
M  V30 4635 C 428.259 -1.37939 3.29708 0
M  V30 4636 C 428.088 -0.418689 4.47747 0
M  V30 4637 C 426.858 -0.031526 5.0529 0
M  V30 4638 C 429.056 0.312301 5.13351 0
M  V30 4639 N 427.038 0.928088 6.06844 0
M  V30 4640 C 428.409 1.12682 6.09674 0
M  V30 4641 C 430.464 0.376853 4.96472 0
M  V30 4642 C 429.167 2 6.90936 0
M  V30 4643 C 431.193 1.23723 5.78314 0
M  V30 4644 C 430.555 2.03962 6.74225 0
M  V30 4645 H 426.654 -0.225292 0.748844 0
M  V30 4646 H 429.238 0.0520973 1.9463 0
M  V30 4647 H 427.409 -2.09017 3.27363 0
M  V30 4648 H 429.141 -2.01522 3.50957 0
M  V30 4649 H 425.896 -0.398485 4.71921 0
M  V30 4650 H 426.32 1.40307 6.62301 0
M  V30 4651 H 430.962 -0.22921 4.22178 0
M  V30 4652 H 428.68 2.61676 7.64559 0
M  V30 4653 H 432.266 1.291 5.67296 0
M  V30 4654 H 431.146 2.69461 7.36451 0
M  V30 4655 N 428.649 -1.55105 -0.279332 0
M  V30 4656 C 429.879 -1.7917 -1.02867 0
M  V30 4657 C 430.287 -0.56204 -1.80659 0
M  V30 4658 O 429.63 0.478266 -1.77365 0
M  V30 4659 C 429.692 -2.96061 -2.03932 0
M  V30 4660 C 429.356 -4.33341 -1.45137 0
M  V30 4661 C 430.353 -5.12565 -0.870266 0
M  V30 4662 C 428.038 -4.79987 -1.48048 0
M  V30 4663 C 430.032 -6.36565 -0.326097 0
M  V30 4664 C 427.719 -6.03944 -0.932443 0
M  V30 4665 C 428.717 -6.8207 -0.356247 0
M  V30 4666 O 428.405 -8.03691 0.183412 0
M  V30 4667 H 428.137 -0.600796 -0.309872 0
M  V30 4668 H 430.691 -2.02932 -0.317468 0
M  V30 4669 H 428.921 -2.67975 -2.78794 0
M  V30 4670 H 430.61 -3.07506 -2.64943 0
M  V30 4671 H 431.376 -4.77661 -0.840521 0
M  V30 4672 H 427.255 -4.1919 -1.91835 0
M  V30 4673 H 430.799 -6.97489 0.124286 0
M  V30 4674 H 426.696 -6.3833 -0.959407 0
M  V30 4675 H 427.464 -8.18468 0.0721681 0
M  V30 4676 N 430.127 0.543554 -1.4793 0
M  V30 4677 C 431.057 1.65888 -1.64327 0
M  V30 4678 C 432.038 1.62818 -0.492383 0
M  V30 4679 O 433.223 1.80226 -0.723338 0
M  V30 4680 C 430.353 3.04506 -1.67013 0
M  V30 4681 C 429.307 3.2243 -2.81466 0
M  V30 4682 C 428.633 4.61972 -2.69233 0
M  V30 4683 C 429.933 3.06496 -4.22915 0
M  V30 4684 H 431.627 1.52421 -2.57698 0
M  V30 4685 H 429.173 0.731849 -1.24016 0
M  V30 4686 H 431.126 3.82391 -1.77074 0
M  V30 4687 H 429.85 3.18964 -0.70212 0
M  V30 4688 H 428.509 2.46957 -2.70938 0
M  V30 4689 H 428.157 4.73247 -1.7043 0
M  V30 4690 H 427.857 4.74911 -3.46025 0
M  V30 4691 H 429.381 5.41974 -2.81242 0
M  V30 4692 H 430.795 3.74186 -4.34348 0
M  V30 4693 H 429.192 3.30938 -5.006 0
M  V30 4694 H 430.262 2.03077 -4.40327 0
M  V30 4695 N 431.605 1.3629 0.791371 0
M  V30 4696 C 432.552 1.30458 1.90393 0
M  V30 4697 C 433.522 0.173632 1.6519 0
M  V30 4698 O 434.707 0.35983 1.87376 0
M  V30 4699 C 431.847 1.09777 3.27174 0
M  V30 4700 C 430.96 2.31929 3.64462 0
M  V30 4701 C 430.095 2.04276 4.90352 0
M  V30 4702 C 429.134 3.224 5.20312 0
M  V30 4703 N 428.271 2.94424 6.37385 0
M  V30 4704 H 433.111 2.25589 1.94714 0
M  V30 4705 H 430.648 1.12122 0.952216 0
M  V30 4706 H 432.606 0.958133 4.06049 0
M  V30 4707 H 431.236 0.183014 3.22281 0
M  V30 4708 H 430.288 2.56703 2.80727 0
M  V30 4709 H 431.6 3.20085 3.82553 0
M  V30 4710 H 430.754 1.87231 5.77087 0
M  V30 4711 H 429.493 1.13428 4.74326 0
M  V30 4712 H 428.498 3.40005 4.32061 0
M  V30 4713 H 429.723 4.14071 5.38258 0
M  V30 4714 H 427.669 2.06185 6.22755 0
M  V30 4715 H 427.586 3.76118 6.55798 0
M  V30 4716 H 428.854 2.80953 7.27108 0
M  V30 4717 N 433.083 -1.0153 1.20538 0
M  V30 4718 C 434.311 -1.78746 1.04199 0
M  V30 4719 C 434.726 -1.84323 -0.408733 0
M  V30 4720 O 434.083 -1.29714 -1.28377 0
M  V30 4721 C 434.134 -3.23152 1.62035 0
M  V30 4722 O 433.855 -3.17918 3.0143 0
M  V30 4723 C 435.356 -4.16911 1.50666 0
M  V30 4724 H 432.576 -0.56208 0.366479 0
M  V30 4725 H 435.12 -1.27794 1.59653 0
M  V30 4726 H 433.275 -3.71248 1.10697 0
M  V30 4727 H 433.689 -4.08567 3.28897 0
M  V30 4728 H 435.163 -5.16072 1.95892 0
M  V30 4729 H 435.64 -4.36791 0.459363 0
M  V30 4730 H 436.246 -3.74698 2.01201 0
M  V30 4731 N 434.561 -1.01147 -1.20859 0
M  V30 4732 C 435.81 -0.693214 -1.89413 0
M  V30 4733 C 436.123 0.779969 -1.79376 0
M  V30 4734 O 437.329 1.21057 -2.43017 0
M  V30 4735 C 435.785 -1.18949 -3.39675 0
M  V30 4736 C 435.393 -2.68921 -3.58309 0
M  V30 4737 C 437.137 -0.94642 -4.13815 0
M  V30 4738 C 435.044 -3.12056 -5.0237 0
M  V30 4739 H 433.974 -0.255595 -0.709357 0
M  V30 4740 H 436.625 -1.22349 -1.36759 0
M  V30 4741 H 435.007 -0.587228 -3.91622 0
M  V30 4742 H 436.181 -3.34652 -3.16772 0
M  V30 4743 H 434.496 -2.91314 -2.97532 0
M  V30 4744 H 437.093 -1.24417 -5.20023 0
M  V30 4745 H 437.436 0.117219 -4.16135 0
M  V30 4746 H 437.969 -1.5118 -3.67953 0
M  V30 4747 H 434.708 -4.17674 -5.05202 0
M  V30 4748 H 434.228 -2.51041 -5.44737 0
M  V30 4749 H 435.907 -3.04403 -5.70918 0
M  V30 4750 N 436.039 1.36541 -0.78704 0
M  V30 4751 C 437.316 1.9355 -0.282424 0
M  V30 4752 C 437.696 1.71919 1.22503 0
M  V30 4753 O 437.044 1.07677 2.01539 0
M  V30 4754 C 437.254 3.4246 -0.672462 0
M  V30 4755 C 438.602 4.19582 -0.650863 0
M  V30 4756 O 439.626 3.50889 -0.612789 0
M  V30 4757 O 438.485 5.42106 -0.691623 0
M  V30 4758 H 435.579 0.824091 -0.0693 0
M  V30 4759 H 438.125 1.45736 -0.869423 0
M  V30 4760 H 436.897 3.51851 -1.71221 0
M  V30 4761 H 436.52 3.97556 -0.0592211 0
M  V30 4762 N 437.518 0.538854 1.48102 0
M  V30 4763 C 438.767 0.0059532 2.01699 0
M  V30 4764 C 439.08 -1.34476 1.42041 0
M  V30 4765 O 440.286 -1.96653 1.87189 0
M  V30 4766 C 438.742 -0.0397627 3.59878 0
M  V30 4767 C 438.35 1.30659 4.28523 0
M  V30 4768 C 440.094 -0.521024 4.2129 0
M  V30 4769 C 438.001 1.22098 5.78659 0
M  V30 4770 H 436.931 -0.00154456 0.753998 0
M  V30 4771 H 439.582 0.683963 1.70277 0
M  V30 4772 H 437.964 -0.783037 3.88181 0
M  V30 4773 H 439.138 2.06613 4.11883 0
M  V30 4774 H 437.453 1.7243 3.79021 0
M  V30 4775 H 440.05 -0.603184 5.31287 0
M  V30 4776 H 440.393 -1.52885 3.8721 0
M  V30 4777 H 440.926 0.166834 3.9745 0
M  V30 4778 H 437.665 2.20424 6.17328 0
M  V30 4779 H 437.185 0.50295 5.97688 0
M  V30 4780 H 438.864 0.915345 6.40492 0
M  V30 4781 N 438.996 -1.55193 0.274407 0
M  V30 4782 C 440.236 -2.01488 -0.343778 0
M  V30 4783 C 440.6 -1.1586 -1.53103 0
M  V30 4784 O 441.801 -1.51732 -2.2188 0
M  V30 4785 C 440.072 -3.50134 -0.717021 0
M  V30 4786 S 441.631 -4.18417 -1.32184 0
M  V30 4787 H 438.449 -0.70291 -0.106948 0
M  V30 4788 H 441.051 -1.91446 0.396075 0
M  V30 4789 H 439.755 -4.10104 0.155947 0
M  V30 4790 H 439.286 -3.64159 -1.48835 0
M  V30 4791 H 441.301 -4.21984 -2.61044 0
M  V30 4792 N 440.474 -0.00167713 -1.576 0
M  V30 4793 C 441.424 0.997744 -2.0501 0
M  V30 4794 C 442.408 1.30214 -0.94515 0
M  V30 4795 O 443.6 1.29284 -1.20891 0
M  V30 4796 C 440.729 2.2892 -2.55833 0
M  V30 4797 C 439.815 2.01437 -3.73208 0
M  V30 4798 N 440.206 1.44119 -4.84833 0
M  V30 4799 C 438.504 2.31571 -3.8117 0
M  V30 4800 C 439.205 1.33145 -5.66257 0
M  V30 4801 N 438.181 1.81763 -5.12312 0
M  V30 4802 H 441.983 0.549098 -2.88725 0
M  V30 4803 H 439.497 0.20398 -1.61114 0
M  V30 4804 H 441.494 3.01361 -2.88075 0
M  V30 4805 H 440.154 2.74436 -1.73537 0
M  V30 4806 H 441.165 1.11978 -5.0565 0
M  V30 4807 H 437.842 2.7995 -3.09732 0
M  V30 4808 H 439.232 0.890567 -6.65972 0
M  V30 4809 N 441.952 1.55251 0.271103 0
M  V30 4810 C 443.229 1.66664 1.02384 0
M  V30 4811 C 443.609 0.534363 2.04225 0
M  V30 4812 O 442.957 -0.465337 2.23712 0
M  V30 4813 C 443.167 3.05961 1.67895 0
M  V30 4814 C 444.515 3.63772 2.18986 0
M  V30 4815 O 445.539 3.08606 1.77878 0
M  V30 4816 O 444.398 4.60429 2.94393 0
M  V30 4817 H 441.492 0.676957 0.475035 0
M  V30 4818 H 444.038 1.67589 0.26681 0
M  V30 4819 H 442.81 3.79815 0.941071 0
M  V30 4820 H 442.433 3.08943 2.5028 0
M  V30 4821 N 443.43 -0.535701 1.48216 0
M  V30 4822 C 444.38 -1.63688 1.58714 0
M  V30 4823 C 445.364 -1.54635 0.444615 0
M  V30 4824 O 446.556 -1.62753 0.695742 0
M  V30 4825 C 443.685 -3.02423 1.62466 0
M  V30 4826 C 442.771 -3.16601 2.82178 0
M  V30 4827 N 443.162 -3.00771 4.06658 0
M  V30 4828 C 441.46 -3.47645 2.79391 0
M  V30 4829 C 442.161 -3.18213 4.86945 0
M  V30 4830 N 441.137 -3.45528 4.19656 0
M  V30 4831 H 444.939 -1.5005 2.5271 0
M  V30 4832 H 442.453 -0.741018 1.44508 0
M  V30 4833 H 444.45 -3.81517 1.6808 0
M  V30 4834 H 443.11 -3.17157 0.695826 0
M  V30 4835 H 444.121 -2.77652 4.37184 0
M  V30 4836 H 440.798 -3.68771 1.95739 0
M  V30 4837 H 442.188 -3.1076 5.95716 0
M  V30 4838 N 444.908 -1.36708 -0.784132 0
M  V30 4839 C 446.155 -1.31231 -1.54222 0
M  V30 4840 C 446.483 0.106864 -1.94206 0
M  V30 4841 O 445.738 1.07734 -1.63376 0
M  V30 4842 C 446.037 -2.18571 -2.82774 0
M  V30 4843 C 445.703 -3.67039 -2.61903 0
M  V30 4844 C 444.365 -4.07503 -2.55919 0
M  V30 4845 C 446.717 -4.61149 -2.4288 0
M  V30 4846 C 444.045 -5.40211 -2.28886 0
M  V30 4847 C 446.397 -5.94081 -2.17373 0
M  V30 4848 C 445.061 -6.33664 -2.09825 0
M  V30 4849 H 444.331 -0.48021 -0.56434 0
M  V30 4850 H 446.978 -1.68807 -0.904233 0
M  V30 4851 H 445.283 -1.73949 -3.51068 0
M  V30 4852 H 446.98 -2.11655 -3.40592 0
M  V30 4853 H 443.57 -3.34941 -2.67418 0
M  V30 4854 H 447.754 -4.30756 -2.46501 0
M  V30 4855 H 443.01 -5.69855 -2.21529 0
M  V30 4856 H 447.184 -6.66566 -2.01649 0
M  V30 4857 H 444.811 -7.36423 -1.88641 0
M  V30 4858 N 446.386 1.0089 -1.21074 0
M  V30 4859 C 447.634 1.74262 -1.02358 0
M  V30 4860 C 447.955 1.89869 0.444393 0
M  V30 4861 O 447.225 1.44677 1.32081 0
M  V30 4862 H 445.805 0.645615 -0.375754 0
M  V30 4863 H 448.467 1.21596 -1.52317 0
M  V30 4864 H 447.563 2.74328 -1.4883 0
M  V30 4865 N 447.864 1.01787 1.20321 0
M  V30 4866 C 449.11 0.718699 1.90279 0
M  V30 4867 C 449.465 -0.743669 1.77447 0
M  V30 4868 O 448.758 -1.53345 1.14874 0
M  V30 4869 C 448.952 1.09076 3.40349 0
M  V30 4870 C 448.781 2.58775 3.67784 0
M  V30 4871 C 447.551 3.25578 3.86428 0
M  V30 4872 C 449.749 3.56966 3.70243 0
M  V30 4873 N 447.731 4.64495 4.01395 0
M  V30 4874 C 449.102 4.8145 3.90649 0
M  V30 4875 C 451.157 3.5092 3.53213 0
M  V30 4876 C 449.86 6.00619 3.95789 0
M  V30 4877 C 451.886 4.69493 3.59625 0
M  V30 4878 C 451.248 5.92786 3.80505 0
M  V30 4879 H 447.347 0.31468 0.715891 0
M  V30 4880 H 449.931 1.30295 1.44677 0
M  V30 4881 H 448.102 0.534839 3.847 0
M  V30 4882 H 449.834 0.744997 3.97784 0
M  V30 4883 H 446.589 2.76003 3.84862 0
M  V30 4884 H 447.013 5.36624 4.12752 0
M  V30 4885 H 451.655 2.56593 3.36035 0
M  V30 4886 H 449.373 6.95326 4.11762 0
M  V30 4887 H 452.959 4.66432 3.47754 0
M  V30 4888 H 451.839 6.83003 3.85327 0
M  V30 4889 N 449.342 -1.36122 0.79427 0
M  V30 4890 C 450.572 -2.03067 0.380437 0
M  V30 4891 C 450.98 -1.60018 -1.00949 0
M  V30 4892 O 450.323 -0.787425 -1.65968 0
M  V30 4893 C 450.385 -3.57587 0.37034 0
M  V30 4894 C 450.049 -4.23855 1.70867 0
M  V30 4895 C 451.046 -4.46404 2.66496 0
M  V30 4896 C 448.731 -4.61229 1.9893 0
M  V30 4897 C 450.725 -5.05412 3.88378 0
M  V30 4898 C 448.412 -5.19953 3.21079 0
M  V30 4899 C 449.41 -5.41985 4.15621 0
M  V30 4900 O 449.098 -5.99475 5.35616 0
M  V30 4901 H 448.83 -0.658168 0.154243 0
M  V30 4902 H 451.384 -1.7498 1.0757 0
M  V30 4903 H 449.614 -3.84814 -0.381444 0
M  V30 4904 H 451.303 -4.05895 -0.0194894 0
M  V30 4905 H 452.069 -4.17921 2.46103 0
M  V30 4906 H 447.948 -4.43402 1.26158 0
M  V30 4907 H 451.492 -5.22524 4.62185 0
M  V30 4908 H 447.389 -5.47862 3.41347 0
M  V30 4909 H 448.157 -6.17937 5.36745 0
M  V30 4910 N 450.82 -0.546701 -1.47814 0
M  V30 4911 C 451.75 0.195317 -2.32682 0
M  V30 4912 C 452.731 0.918981 -1.43139 0
M  V30 4913 O 453.916 0.901501 -1.72008 0
M  V30 4914 C 451.046 1.23237 -3.247 0
M  V30 4915 C 450 0.625818 -4.234 0
M  V30 4916 C 449.326 1.76674 -5.04669 0
M  V30 4917 C 450.626 -0.413515 -5.2066 0
M  V30 4918 H 452.32 -0.513184 -2.94969 0
M  V30 4919 H 449.866 -0.248241 -1.41844 0
M  V30 4920 H 451.819 1.75955 -3.82907 0
M  V30 4921 H 450.543 1.97067 -2.60446 0
M  V30 4922 H 449.202 0.120023 -3.66403 0
M  V30 4923 H 448.85 2.49383 -4.36826 0
M  V30 4924 H 448.55 1.36673 -5.71484 0
M  V30 4925 H 450.074 2.29738 -5.65732 0
M  V30 4926 H 451.488 0.0272042 -5.73294 0
M  V30 4927 H 449.885 -0.731825 -5.95621 0
M  V30 4928 H 450.955 -1.31325 -4.66778 0
M  V30 4929 N 452.299 1.55045 -0.282633 0
M  V30 4930 C 453.547 1.99365 0.331334 0
M  V30 4931 C 453.868 1.1725 1.55812 0
M  V30 4932 O 453.138 0.263871 1.94115 0
M  V30 4933 H 451.718 0.736397 0.125414 0
M  V30 4934 H 454.38 1.90964 -0.389711 0
M  V30 4935 H 453.476 3.0596 0.616036 0
M  V30 4936 N 453.777 0.010035 1.57597 0
M  V30 4937 C 455.023 -0.668011 1.92118 0
M  V30 4938 C 455.378 -1.70821 0.885328 0
M  V30 4939 O 454.671 -1.91333 -0.101187 0
M  V30 4940 C 454.865 -1.34434 3.31153 0
M  V30 4941 C 454.694 -0.371176 4.48166 0
M  V30 4942 C 453.464 0.0220686 5.05295 0
M  V30 4943 C 455.662 0.366731 5.12991 0
M  V30 4944 N 453.644 0.9924 6.05826 0
M  V30 4945 C 455.015 1.19142 6.08445 0
M  V30 4946 C 457.07 0.429489 4.96044 0
M  V30 4947 C 455.773 2.07317 6.88776 0
M  V30 4948 C 457.799 1.2985 5.76969 0
M  V30 4949 C 457.161 2.11101 6.72023 0
M  V30 4950 H 453.26 -0.217337 0.751192 0
M  V30 4951 H 455.844 0.0727375 1.94564 0
M  V30 4952 H 454.015 -2.05533 3.29561 0
M  V30 4953 H 455.747 -1.97789 3.53075 0
M  V30 4954 H 452.502 -0.348409 4.72317 0
M  V30 4955 H 452.926 1.47324 6.60776 0
M  V30 4956 H 457.568 -0.18442 4.22398 0
M  V30 4957 H 455.286 2.69771 7.61741 0
M  V30 4958 H 458.872 1.3511 5.65894 0
M  V30 4959 H 457.752 2.77257 7.33552 0
M  V30 4960 N 455.255 -1.55392 -0.262866 0
M  V30 4961 C 456.503 -1.76127 -0.991147 0
M  V30 4962 C 456.824 -0.571083 -1.8645 0
M  V30 4963 O 456.094 0.413698 -1.91482 0
M  V30 4964 H 454.674 -0.649528 -0.368948 0
M  V30 4965 H 457.336 -1.9281 -0.284655 0
M  V30 4966 H 456.432 -2.6663 -1.62219 0
M  V30 4967 N 456.733 0.527833 -1.48498 0
M  V30 4968 C 458.01 1.28905 -1.47115 0
M  V30 4969 C 458.39 2.10297 -0.184007 0
M  V30 4970 O 457.738 2.12728 0.834218 0
M  V30 4971 C 457.948 2.16866 -2.73441 0
M  V30 4972 C 459.296 2.76936 -3.21857 0
M  V30 4973 O 460.32 2.27152 -2.74373 0
M  V30 4974 O 459.179 3.67496 -4.04486 0
M  V30 4975 H 456.273 0.581918 -0.587623 0
M  V30 4976 H 458.819 0.544311 -1.60734 0
M  V30 4977 H 457.591 1.56521 -3.58632 0
M  V30 4978 H 457.214 2.98583 -2.62553 0
M  V30 4979 N 458.211 1.37122 0.776871 0
M  V30 4980 C 459.451 1.33441 1.54831 0
M  V30 4981 C 459.815 -0.0818963 1.91825 0
M  V30 4982 O 461.016 -0.24338 2.67696 0
M  V30 4983 C 459.287 2.24267 2.78279 0
M  V30 4984 S 460.846 2.38389 3.68397 0
M  V30 4985 H 457.664 0.473791 0.530135 0
M  V30 4986 H 460.266 1.7282 0.913968 0
M  V30 4987 H 458.97 3.261 2.49173 0
M  V30 4988 H 458.501 1.85953 3.46677 0
M  V30 4989 H 460.516 1.59068 4.70013 0
M  V30 4990 N 459.689 -1.00246 1.21608 0
M  V30 4991 C 460.935 -1.74319 1.03638 0
M  V30 4992 C 461.268 -1.89408 -0.428749 0
M  V30 4993 O 460.543 -1.43026 -1.3181 0
M  V30 4994 C 460.826 -3.15431 1.73711 0
M  V30 4995 C 460.679 -3.08049 3.27759 0
M  V30 4996 C 461.998 -4.14407 1.48173 0
M  V30 4997 H 459.117 -0.632741 0.377899 0
M  V30 4998 H 461.759 -1.16853 1.49818 0
M  V30 4999 H 459.909 -3.64493 1.34452 0
M  V30 5000 H 461.581 -2.66681 3.76403 0
M  V30 5001 H 459.824 -2.45088 3.57931 0
M  V30 5002 H 460.495 -4.07862 3.71958 0
M  V30 5003 H 462.971 -3.74061 1.82258 0
M  V30 5004 H 461.847 -5.11279 1.99713 0
M  V30 5005 H 462.108 -4.40174 0.412273 0
M  V30 5006 N 461.167 -1.02423 -1.1978 0
M  V30 5007 C 462.413 -0.72878 -1.89896 0
M  V30 5008 C 462.768 0.734248 -1.77839 0
M  V30 5009 O 462.061 1.52733 -1.15685 0
M  V30 5010 C 462.255 -1.1088 -3.39765 0
M  V30 5011 C 462.084 -2.60722 -3.66407 0
M  V30 5012 C 460.854 -3.27623 -3.84696 0
M  V30 5013 C 463.052 -3.58924 -3.68345 0
M  V30 5014 N 461.034 -4.66617 -3.98926 0
M  V30 5015 C 462.405 -4.83514 -3.8809 0
M  V30 5016 C 464.46 -3.52788 -3.51347 0
M  V30 5017 C 463.163 -6.0271 -3.92598 0
M  V30 5018 C 465.189 -4.71394 -3.5713 0
M  V30 5019 C 464.551 -5.94796 -3.77356 0
M  V30 5020 H 460.65 -0.318473 -0.714212 0
M  V30 5021 H 463.234 -1.3106 -1.43984 0
M  V30 5022 H 461.405 -0.555233 -3.84411 0
M  V30 5023 H 463.137 -0.766082 -3.97383 0
M  V30 5024 H 459.892 -2.7804 -3.83393 0
M  V30 5025 H 460.316 -5.38805 -4.099 0
M  V30 5026 H 464.958 -2.58372 -3.3467 0
M  V30 5027 H 462.676 -6.97499 -4.08069 0
M  V30 5028 H 466.262 -4.6827 -3.45275 0
M  V30 5029 H 465.142 -6.85037 -3.81699 0
M  V30 5030 N 462.645 1.35699 -0.801477 0
M  V30 5031 C 463.575 2.32436 -0.222658 0
M  V30 5032 C 464.556 1.5723 0.649057 0
M  V30 5033 O 465.741 1.85324 0.580387 0
M  V30 5034 C 462.871 3.41469 0.633719 0
M  V30 5035 C 461.825 4.27774 -0.139083 0
M  V30 5036 C 461.151 5.28082 0.838666 0
M  V30 5037 C 462.451 5.04946 -1.33517 0
M  V30 5038 H 464.145 2.81094 -1.03086 0
M  V30 5039 H 461.691 1.35146 -0.497155 0
M  V30 5040 H 463.644 4.08143 1.04868 0
M  V30 5041 H 462.368 2.91408 1.47475 0
M  V30 5042 H 461.027 3.62673 -0.535156 0
M  V30 5043 H 460.675 4.7429 1.67506 0
M  V30 5044 H 460.375 5.86695 0.32594 0
M  V30 5045 H 461.899 5.97628 1.25194 0
M  V30 5046 H 463.313 5.64593 -0.995349 0
M  V30 5047 H 461.71 5.7303 -1.78202 0
M  V30 5048 H 462.78 4.35886 -2.12442 0
M  V30 5049 N 464.123 0.554532 1.47522 0
M  V30 5050 C 465.534 0.120446 1.86311 0
M  V30 5051 C 465.885 -1.30904 1.46145 0
M  V30 5052 O 465.01 -1.98434 0.863294 0
M  V30 5053 C 465.605 0.211808 3.38137 0
M  V30 5054 C 464.164 -0.167224 3.76028 0
M  V30 5055 C 463.311 0.560576 2.71575 0
M  V30 5056 H 466.262 0.764408 1.39077 0
M  V30 5057 H 466.283 -0.570275 3.76202 0
M  V30 5058 H 465.795 1.25232 3.6734 0
M  V30 5059 H 463.896 -1.20894 3.52442 0
M  V30 5060 H 464.009 0.189473 4.78725 0
M  V30 5061 H 462.373 0.00396836 2.547 0
M  V30 5062 H 463.156 1.60219 3.0362 0
M  V30 5063 N 465.601 -1.54893 0.290851 0
M  V30 5064 C 466.831 -2.04047 -0.323818 0
M  V30 5065 C 467.239 -1.16809 -1.48837 0
M  V30 5066 O 466.582 -0.184145 -1.82775 0
M  V30 5067 C 466.644 -3.49248 -0.852395 0
M  V30 5068 C 466.308 -4.56623 0.185557 0
M  V30 5069 C 467.305 -5.09985 1.01053 0
M  V30 5070 C 464.99 -5.01252 0.324332 0
M  V30 5071 C 466.984 -6.06507 1.96031 0
M  V30 5072 C 464.671 -5.97596 1.27757 0
M  V30 5073 C 465.669 -6.50107 2.09405 0
M  V30 5074 O 465.357 -7.44565 3.03114 0
M  V30 5075 H 465.089 -0.671735 -0.0758129 0
M  V30 5076 H 467.643 -2.00947 0.425393 0
M  V30 5077 H 465.873 -3.49639 -1.65195 0
M  V30 5078 H 467.562 -3.81654 -1.38185 0
M  V30 5079 H 468.328 -4.76307 0.914129 0
M  V30 5080 H 464.207 -4.60015 -0.301213 0
M  V30 5081 H 467.751 -6.47418 2.598 0
M  V30 5082 H 463.648 -6.30691 1.37473 0
M  V30 5083 H 464.416 -7.62334 2.97976 0
M  V30 5084 N 467.08 -0.0183926 -1.57589 0
M  V30 5085 C 468.01 0.965596 -2.12599 0
M  V30 5086 C 468.991 1.34641 -1.0395 0
M  V30 5087 O 470.176 1.42693 -1.31729 0
M  V30 5088 C 467.306 2.25149 -2.64434 0
M  V30 5089 C 466.26 2.01175 -3.77773 0
M  V30 5090 C 465.586 3.35937 -4.15994 0
M  V30 5091 C 466.886 1.35953 -5.04296 0
M  V30 5092 H 468.58 0.507504 -2.95067 0
M  V30 5093 H 466.126 0.242671 -1.41941 0
M  V30 5094 H 468.079 2.94357 -3.01549 0
M  V30 5095 H 466.803 2.73105 -1.79112 0
M  V30 5096 H 465.462 1.34388 -3.4108 0
M  V30 5097 H 465.11 3.81631 -3.27669 0
M  V30 5098 H 464.81 3.20705 -4.92364 0
M  V30 5099 H 466.334 4.0643 -4.55683 0
M  V30 5100 H 467.748 1.95144 -5.39065 0
M  V30 5101 H 466.145 1.31152 -5.85593 0
M  V30 5102 H 467.215 0.331071 -4.83768 0
M  V30 5103 N 468.558 1.5553 0.254621 0
M  V30 5104 C 469.788 1.80784 1.00004 0
M  V30 5105 C 470.196 0.59071 1.79742 0
M  V30 5106 O 469.539 -0.449988 1.78103 0
M  V30 5107 C 469.601 2.99268 1.99196 0
M  V30 5108 C 469.265 4.35595 1.38224 0
M  V30 5109 C 470.262 5.13884 0.788611 0
M  V30 5110 C 467.947 4.82281 1.40393 0
M  V30 5111 C 469.941 6.37004 0.224783 0
M  V30 5112 C 467.628 6.05351 0.836243 0
M  V30 5113 C 468.626 6.82551 0.24769 0
M  V30 5114 O 468.314 8.03297 -0.311249 0
M  V30 5115 H 468.046 0.60565 0.300274 0
M  V30 5116 H 470.6 2.03411 0.285143 0
M  V30 5117 H 468.83 2.72377 2.74496 0
M  V30 5118 H 470.519 3.11682 2.60018 0
M  V30 5119 H 471.285 4.78938 0.764423 0
M  V30 5120 H 467.164 4.22189 1.85142 0
M  V30 5121 H 470.708 6.97203 -0.235235 0
M  V30 5122 H 466.605 6.39776 0.857733 0
M  V30 5123 H 467.373 8.1825 -0.20237 0
M  V30 5124 N 470.036 -0.519951 1.48776 0
M  V30 5125 C 471.264 -1.29971 1.60982 0
M  V30 5126 C 471.679 -1.86803 0.273885 0
M  V30 5127 O 471.036 -1.66904 -0.738193 0
M  V30 5128 C 471.087 -2.44346 2.66415 0
M  V30 5129 O 470.808 -1.89855 3.94825 0
M  V30 5130 C 472.309 -3.36014 2.89153 0
M  V30 5131 H 469.529 -0.394891 0.542496 0
M  V30 5132 H 472.073 -0.626214 1.94676 0
M  V30 5133 H 470.228 -3.07562 2.35552 0
M  V30 5134 H 470.642 -2.64798 4.5275 0
M  V30 5135 H 472.116 -4.12593 3.66703 0
M  V30 5136 H 472.593 -3.91859 1.98351 0
M  V30 5137 H 473.199 -2.78582 3.21359 0
M  V30 5138 N 471.514 -1.37532 -0.769588 0
M  V30 5139 C 472.444 -1.36172 -1.89682 0
M  V30 5140 C 473.425 -0.23001 -1.68538 0
M  V30 5141 O 474.61 -0.43069 -1.89364 0
M  V30 5142 C 471.74 -1.1701 -3.26995 0
M  V30 5143 C 470.694 -2.27216 -3.62708 0
M  V30 5144 C 470.02 -1.93174 -4.98586 0
M  V30 5145 C 471.32 -3.6941 -3.69234 0
M  V30 5146 H 473.014 -2.30499 -1.91078 0
M  V30 5147 H 470.56 -1.10953 -0.917902 0
M  V30 5148 H 472.513 -1.14688 -4.05493 0
M  V30 5149 H 471.237 -0.191395 -3.26039 0
M  V30 5150 H 469.896 -2.28697 -2.86519 0
M  V30 5151 H 469.544 -0.938281 -4.94171 0
M  V30 5152 H 469.244 -2.66973 -5.23449 0
M  V30 5153 H 470.768 -1.92443 -5.79481 0
M  V30 5154 H 472.182 -3.70047 -4.37879 0
M  V30 5155 H 470.579 -4.4228 -4.05597 0
M  V30 5156 H 471.649 -4.0288 -2.69844 0
M  V30 5157 N 472.992 0.995999 -1.22138 0
M  V30 5158 C 473.924 2.08745 -0.946485 0
M  V30 5159 C 474.937 1.62633 0.0737356 0
M  V30 5160 O 476.126 1.77782 -0.159886 0
M  V30 5161 C 473.226 3.36516 -0.401305 0
M  V30 5162 C 472.399 4.11672 -1.47801 0
M  V30 5163 C 471.458 5.17728 -0.940461 0
M  V30 5164 O 470.484 5.45482 -1.62596 0
M  V30 5165 N 471.686 5.80005 0.239723 0
M  V30 5166 H 474.451 2.32908 -1.88611 0
M  V30 5167 H 472.012 1.16152 -1.12785 0
M  V30 5168 H 474.004 4.04691 -0.0270837 0
M  V30 5169 H 472.574 3.0944 0.443354 0
M  V30 5170 H 471.794 3.38171 -2.02568 0
M  V30 5171 H 473.082 4.58657 -2.20253 0
M  V30 5172 H 472.48 5.5982 0.813518 0
M  V30 5173 H 471.037 6.4943 0.555361 0
M  V30 5174 N 474.47 1.03057 1.19235 0
M  V30 5175 C 475.718 0.726581 1.88587 0
M  V30 5176 C 476.039 -0.747227 1.80115 0
M  V30 5177 O 475.309 -1.53849 1.21274 0
M  V30 5178 H 473.889 0.265768 0.698124 0
M  V30 5179 H 476.551 1.30516 1.44746 0
M  V30 5180 H 475.647 1.0224 2.94879 0
M  V30 5181 N 475.948 -1.35272 0.808662 0
M  V30 5182 C 476.878 -2.32315 0.234981 0
M  V30 5183 C 477.859 -1.57572 -0.64071 0
M  V30 5184 O 479.044 -1.8563 -0.570551 0
M  V30 5185 C 476.174 -3.41801 -0.615601 0
M  V30 5186 C 475.128 -4.27694 0.161767 0
M  V30 5187 C 474.454 -5.28519 -0.810649 0
M  V30 5188 C 475.754 -5.04231 1.36193 0
M  V30 5189 H 477.448 -2.80543 1.04575 0
M  V30 5190 H 474.994 -1.3488 0.504315 0
M  V30 5191 H 476.947 -4.08693 -1.02702 0
M  V30 5192 H 475.671 -2.92186 -1.45928 0
M  V30 5193 H 474.33 -3.62384 0.554382 0
M  V30 5194 H 473.978 -4.75171 -1.64988 0
M  V30 5195 H 473.678 -5.8686 -0.294822 0
M  V30 5196 H 475.202 -5.98283 -1.22023 0
M  V30 5197 H 476.616 -5.64058 1.02528 0
M  V30 5198 H 475.013 -5.72077 1.81239 0
M  V30 5199 H 476.083 -4.34753 2.14751 0
M  V30 5200 N 477.426 -0.562348 -1.47226 0
M  V30 5201 C 478.656 -0.0451619 -2.06551 0
M  V30 5202 C 479.064 1.25626 -1.41473 0
M  V30 5203 O 478.407 1.76563 -0.507061 0
M  V30 5204 C 478.469 0.216068 -3.5885 0
M  V30 5205 C 478.133 -0.996691 -4.45999 0
M  V30 5206 C 479.13 -1.90358 -4.83797 0
M  V30 5207 C 476.815 -1.21281 -4.87438 0
M  V30 5208 C 478.809 -3.01023 -5.6184 0
M  V30 5209 C 476.496 -2.32255 -5.65244 0
M  V30 5210 C 477.494 -3.21956 -6.02356 0
M  V30 5211 O 477.182 -4.31005 -6.78594 0
M  V30 5212 H 476.914 -0.0451646 -0.67449 0
M  V30 5213 H 479.468 -0.776842 -1.90143 0
M  V30 5214 H 477.698 1.00212 -3.7349 0
M  V30 5215 H 479.387 0.679264 -4.00176 0
M  V30 5216 H 480.153 -1.74868 -4.52378 0
M  V30 5217 H 476.032 -0.523767 -4.58015 0
M  V30 5218 H 479.576 -3.71064 -5.90726 0
M  V30 5219 H 475.473 -2.47715 -5.96077 0
M  V30 5220 H 476.241 -4.29118 -6.96994 0
M  V30 5221 N 478.904 1.54736 -0.299062 0
M  V30 5222 C 479.834 2.26409 0.571085 0
M  V30 5223 C 480.815 1.2629 1.13951 0
M  V30 5224 O 482 1.55059 1.16921 0
M  V30 5225 C 479.13 3.00338 1.74396 0
M  V30 5226 C 478.084 4.07588 1.30599 0
M  V30 5227 C 477.41 4.69222 2.56387 0
M  V30 5228 C 478.71 5.20455 0.438645 0
M  V30 5229 H 480.404 2.99388 -0.0266991 0
M  V30 5230 H 477.95 1.43993 -0.0142812 0
M  V30 5231 H 479.903 3.49198 2.35878 0
M  V30 5232 H 478.627 2.24934 2.36796 0
M  V30 5233 H 477.286 3.59575 0.71424 0
M  V30 5234 H 476.934 3.9046 3.17097 0
M  V30 5235 H 476.634 5.41653 2.27784 0
M  V30 5236 H 478.158 5.20844 3.18675 0
M  V30 5237 H 479.572 5.65221 0.959085 0
M  V30 5238 H 477.969 5.99594 0.246466 0
M  V30 5239 H 479.039 4.8192 -0.536738 0
M  V30 5240 N 480.382 0.0267497 1.57577 0
M  V30 5241 C 481.628 -0.653371 1.91987 0
M  V30 5242 C 481.961 -1.71915 0.903263 0
M  V30 5243 O 481.236 -1.94358 -0.0743387 0
M  V30 5244 C 481.519 -1.272 3.36886 0
M  V30 5245 C 481.372 -0.215938 4.49281 0
M  V30 5246 C 482.691 -2.19069 3.81703 0
M  V30 5247 H 479.81 -0.236047 0.698177 0
M  V30 5248 H 482.452 0.0835236 1.89816 0
M  V30 5249 H 480.602 -1.90005 3.38866 0
M  V30 5250 H 482.274 0.41449 4.59434 0
M  V30 5251 H 480.517 0.458855 4.31366 0
M  V30 5252 H 481.188 -0.688347 5.47691 0
M  V30 5253 H 483.664 -1.66253 3.81444 0
M  V30 5254 H 482.54 -2.59307 4.83788 0
M  V30 5255 H 482.801 -3.08087 3.17072 0
M  V30 5256 N 481.861 -1.55662 -0.24637 0
M  V30 5257 C 483.091 -1.81312 -0.990438 0
M  V30 5258 C 483.499 -0.600234 -1.79426 0
M  V30 5259 O 482.842 0.440537 -1.78339 0
M  V30 5260 C 482.904 -3.0032 -1.97607 0
M  V30 5261 C 482.568 -4.36322 -1.35912 0
M  V30 5262 C 483.565 -5.14295 -0.761348 0
M  V30 5263 C 481.25 -4.83019 -1.37833 0
M  V30 5264 C 483.244 -6.37114 -0.190998 0
M  V30 5265 C 480.931 -6.05786 -0.804128 0
M  V30 5266 C 481.929 -6.82672 -0.211489 0
M  V30 5267 O 481.617 -8.03121 0.353845 0
M  V30 5268 H 481.349 -0.607233 -0.297058 0
M  V30 5269 H 483.903 -2.0356 -0.274351 0
M  V30 5270 H 482.133 -2.73829 -2.73047 0
M  V30 5271 H 483.822 -3.13057 -2.58361 0
M  V30 5272 H 484.588 -4.79337 -0.739013 0
M  V30 5273 H 480.467 -4.23165 -1.829 0
M  V30 5274 H 484.011 -6.97069 0.272206 0
M  V30 5275 H 479.908 -6.40222 -0.823792 0
M  V30 5276 H 480.676 -8.18131 0.245761 0
M  V30 5277 N 483.339 0.512053 -1.4905 0
M  V30 5278 C 484.289 1.61142 -1.61298 0
M  V30 5279 C 485.273 1.53908 -0.46916 0
M  V30 5280 O 486.465 1.61625 -0.721547 0
M  V30 5281 C 483.594 2.998 -1.67256 0
M  V30 5282 C 482.68 3.12072 -2.87179 0
M  V30 5283 N 483.071 2.94263 -4.11391 0
M  V30 5284 C 481.369 3.43156 -2.84886 0
M  V30 5285 C 482.07 3.10426 -4.91946 0
M  V30 5286 N 481.046 3.38808 -4.251 0
M  V30 5287 H 484.848 1.46011 -2.55065 0
M  V30 5288 H 482.362 0.717934 -1.45669 0
M  V30 5289 H 484.359 3.78794 -1.74128 0
M  V30 5290 H 483.019 3.1601 -0.746195 0
M  V30 5291 H 484.03 2.70661 -4.41546 0
M  V30 5292 H 480.707 3.65611 -2.01581 0
M  V30 5293 H 482.097 3.01243 -6.00585 0
M  V30 5294 N 484.817 1.37938 0.762283 0
M  V30 5295 C 486.228 1.30094 1.33912 0
M  V30 5296 C 486.579 -0.0472026 1.96143 0
M  V30 5297 O 485.704 -0.94917 1.94473 0
M  V30 5298 C 486.299 2.35592 2.43478 0
M  V30 5299 C 484.858 2.31353 2.96905 0
M  V30 5300 C 484.005 2.18919 1.70205 0
M  V30 5301 H 486.956 1.48423 0.561816 0
M  V30 5302 H 486.977 2.00806 3.23199 0
M  V30 5303 H 486.489 3.33701 1.98155 0
M  V30 5304 H 484.59 1.36799 3.46579 0
M  V30 5305 H 484.703 3.25147 3.51875 0
M  V30 5306 H 483.067 1.65624 1.93496 0
M  V30 5307 H 483.85 3.18956 1.26973 0
M  V30 5308 N 486.295 -0.989507 1.22664 0
M  V30 5309 C 487.541 -1.7321 1.05481 0
M  V30 5310 C 487.874 -1.89852 -0.408635 0
M  V30 5311 O 487.149 -1.44416 -1.30285 0
M  V30 5312 C 487.432 -3.1357 1.77047 0
M  V30 5313 C 487.285 -3.04555 3.31008 0
M  V30 5314 C 488.604 -4.12812 1.5256 0
M  V30 5315 H 485.723 -0.628697 0.384589 0
M  V30 5316 H 488.365 -1.15258 1.51049 0
M  V30 5317 H 486.515 -3.63046 1.3831 0
M  V30 5318 H 488.187 -2.62674 3.7921 0
M  V30 5319 H 486.43 -2.41278 3.6051 0
M  V30 5320 H 487.101 -4.03894 3.76263 0
M  V30 5321 H 489.577 -3.72106 1.86215 0
M  V30 5322 H 488.453 -5.09132 2.05124 0
M  V30 5323 H 488.714 -4.39711 0.458936 0
M  V30 5324 N 487.773 -1.03688 -1.18687 0
M  V30 5325 C 488.705 -0.582696 -2.21669 0
M  V30 5326 C 489.718 0.345656 -1.59088 0
M  V30 5327 O 490.907 0.140776 -1.77944 0
M  V30 5328 C 488.007 0.169204 -3.38477 0
M  V30 5329 C 487.18 -0.766079 -4.30639 0
M  V30 5330 C 486.239 -0.0581541 -5.26168 0
M  V30 5331 O 485.265 -0.687346 -5.65035 0
M  V30 5332 N 486.467 1.20981 -5.67753 0
M  V30 5333 H 489.232 -1.46843 -2.61261 0
M  V30 5334 H 486.793 -0.916896 -1.33434 0
M  V30 5335 H 488.785 0.652543 -3.99405 0
M  V30 5336 H 487.355 0.956435 -2.97609 0
M  V30 5337 H 486.575 -1.42935 -3.67373 0
M  V30 5338 H 487.863 -1.40146 -4.89118 0
M  V30 5339 H 487.261 1.74159 -5.38224 0
M  V30 5340 H 485.818 1.6375 -6.30896 0
M  V30 5341 N 489.251 1.34841 -0.815825 0
M  V30 5342 C 490.181 2.32187 -0.247298 0
M  V30 5343 C 491.162 1.5791 0.632344 0
M  V30 5344 O 492.347 1.8593 0.560698 0
M  V30 5345 C 489.477 3.42122 0.597466 0
M  V30 5346 C 488.431 4.27602 -0.184446 0
M  V30 5347 C 487.757 5.28942 0.782609 0
M  V30 5348 C 489.057 5.03502 -1.38865 0
M  V30 5349 H 490.751 2.79985 -1.06061 0
M  V30 5350 H 488.297 1.34611 -0.511461 0
M  V30 5351 H 490.25 4.09232 1.00533 0
M  V30 5352 H 488.974 2.92956 1.44376 0
M  V30 5353 H 487.633 3.62085 -0.573592 0
M  V30 5354 H 487.281 4.7604 1.62466 0
M  V30 5355 H 486.981 5.87008 0.263695 0
M  V30 5356 H 488.505 5.98922 1.18848 0
M  V30 5357 H 489.919 5.63506 -1.05518 0
M  V30 5358 H 488.316 5.71108 -1.8427 0
M  V30 5359 H 489.386 4.33608 -2.17054 0
M  V30 5360 N 490.729 0.570148 1.46925 0
M  V30 5361 C 491.954 0.0542592 2.07329 0
M  V30 5362 C 492.379 -1.23582 1.41806 0
M  V30 5363 O 491.737 -1.74341 0.497479 0
M  V30 5364 C 491.785 -0.111175 3.60429 0
M  V30 5365 O 490.889 -1.17071 3.95434 0
M  V30 5366 H 490.23 0.0571425 0.661537 0
M  V30 5367 H 492.76 0.789516 1.88753 0
M  V30 5368 H 492.77 -0.321315 4.06733 0
M  V30 5369 H 491.445 0.831012 4.07513 0
M  V30 5370 H 490.022 -0.940029 3.60857 0
M  V30 5371 N 492.207 -1.54576 0.307264 0
M  V30 5372 C 493.435 -2.04675 -0.302597 0
M  V30 5373 C 493.85 -1.18425 -1.47041 0
M  V30 5374 O 493.207 -0.211257 -1.81273 0
M  V30 5375 C 493.258 -3.53575 -0.752801 0
M  V30 5376 O 492.979 -4.36547 0.368536 0
M  V30 5377 C 494.48 -4.19699 -1.42717 0
M  V30 5378 H 491.7 -0.66786 -0.0648374 0
M  V30 5379 H 494.244 -1.99516 0.448716 0
M  V30 5380 H 492.399 -3.59074 -1.45412 0
M  V30 5381 H 492.813 -5.24497 0.0168937 0
M  V30 5382 H 494.287 -5.25388 -1.69327 0
M  V30 5383 H 494.764 -3.69815 -2.36925 0
M  V30 5384 H 495.37 -4.18293 -0.768856 0
M  V30 5385 N 493.685 -0.035106 -1.57561 0
M  V30 5386 C 495.096 0.502885 -1.798 0
M  V30 5387 C 495.447 1.71892 -0.945921 0
M  V30 5388 O 494.572 2.15822 -0.157991 0
M  V30 5389 C 495.167 0.919097 -3.26095 0
M  V30 5390 C 493.726 1.40216 -3.49308 0
M  V30 5391 C 492.873 0.369709 -2.74824 0
M  V30 5392 H 495.824 -0.261102 -1.56537 0
M  V30 5393 H 495.845 1.78308 -3.36135 0
M  V30 5394 H 495.357 0.0338526 -3.88085 0
M  V30 5395 H 493.458 2.30714 -2.92578 0
M  V30 5396 H 493.571 1.40541 -4.58023 0
M  V30 5397 H 491.935 0.839113 -2.40481 0
M  V30 5398 H 492.718 -0.507173 -3.39533 0
M  V30 5399 N 495.163 1.55791 0.238111 0
M  V30 5400 C 496.113 1.87444 1.29803 0
M  V30 5401 C 497.097 0.736043 1.43078 0
M  V30 5402 O 498.289 0.998146 1.46171 0
M  V30 5403 C 495.418 2.18028 2.65177 0
M  V30 5404 C 494.504 3.38217 2.55871 0
M  V30 5405 N 494.895 4.57264 2.16202 0
M  V30 5406 C 493.193 3.41502 2.86866 0
M  V30 5407 C 493.894 5.3941 2.17744 0
M  V30 5408 N 492.87 4.78695 2.57589 0
M  V30 5409 H 496.672 2.7701 0.981965 0
M  V30 5410 H 494.186 1.56135 0.44672 0
M  V30 5411 H 496.183 2.38873 3.4168 0
M  V30 5412 H 494.843 1.29765 2.97643 0
M  V30 5413 H 495.854 4.82727 1.87602 0
M  V30 5414 H 492.531 2.63536 3.23813 0
M  V30 5415 H 493.921 6.44671 1.89339 0
M  V30 5416 N 496.642 -0.504142 1.49319 0
M  V30 5417 C 497.605 -1.5883 1.65244 0
M  V30 5418 C 498.605 -1.52009 0.524386 0
M  V30 5419 O 499.795 -1.55218 0.79077 0
M  V30 5420 C 496.927 -2.98481 1.64687 0
M  V30 5421 H 498.12 -1.4604 2.61939 0
M  V30 5422 H 495.673 -0.728144 1.38303 0
M  V30 5423 H 496.408 -3.16751 0.695644 0
M  V30 5424 H 496.193 -3.0484 2.46607 0
M  V30 5425 H 497.683 -3.77256 1.79075 0
M  V30 5426 N 498.12 -1.38341 -0.754957 0
M  V30 5427 C 499.366 -1.34672 -1.51628 0
M  V30 5428 C 499.699 0.0636036 -1.94096 0
M  V30 5429 O 498.974 1.0245 -1.6533 0
M  V30 5430 C 499.257 -2.30116 -2.76981 0
M  V30 5431 C 499.11 -3.80003 -2.4066 0
M  V30 5432 C 500.429 -2.23715 -3.78998 0
M  V30 5433 H 497.548 -0.490517 -0.550056 0
M  V30 5434 H 500.19 -1.69178 -0.864807 0
M  V30 5435 H 498.34 -2.00821 -3.3257 0
M  V30 5436 H 500.012 -4.19966 -1.90856 0
M  V30 5437 H 498.255 -3.97751 -1.73137 0
M  V30 5438 H 498.926 -4.42244 -3.30339 0
M  V30 5439 H 501.402 -2.49574 -3.32945 0
M  V30 5440 H 500.278 -2.9261 -4.64403 0
M  V30 5441 H 500.539 -1.23554 -4.24484 0
M  V30 5442 N 499.598 0.982988 -1.23187 0
M  V30 5443 C 500.846 1.72052 -1.06031 0
M  V30 5444 C 501.167 1.90769 0.404019 0
M  V30 5445 O 500.437 1.47446 1.28982 0
M  V30 5446 H 499.017 0.637499 -0.389363 0
M  V30 5447 H 501.679 1.18338 -1.54862 0
M  V30 5448 H 500.775 2.7111 -1.54615 0
M  V30 5449 N 501.076 1.04316 1.18135 0
M  V30 5450 C 502.322 0.749128 1.88457 0
M  V30 5451 C 502.655 -0.72149 1.803 0
M  V30 5452 O 501.93 -1.52676 1.205 0
M  V30 5453 C 502.213 1.21905 3.38838 0
M  V30 5454 C 502.066 2.75195 3.55792 0
M  V30 5455 C 503.385 0.811085 4.32561 0
M  V30 5456 H 500.504 0.273611 0.684329 0
M  V30 5457 H 503.146 1.29561 1.38975 0
M  V30 5458 H 501.296 0.754137 3.8111 0
M  V30 5459 H 502.968 3.29743 3.22595 0
M  V30 5460 H 501.211 3.14899 2.98364 0
M  V30 5461 H 501.882 3.03135 4.61317 0
M  V30 5462 H 504.358 1.21118 3.98082 0
M  V30 5463 H 503.234 1.16761 5.36338 0
M  V30 5464 H 503.495 -0.285596 4.41177 0
M  V30 5465 N 502.554 -1.34406 0.822964 0
M  V30 5466 C 503.484 -2.32052 0.259608 0
M  V30 5467 C 504.465 -1.58243 -0.623961 0
M  V30 5468 O 505.65 -1.86224 -0.55083 0
M  V30 5469 C 502.78 -3.42434 -0.579314 0
M  V30 5470 C 501.734 -4.27499 0.20712 0
M  V30 5471 C 501.06 -5.29349 -0.754547 0
M  V30 5472 C 502.36 -5.02758 1.41533 0
M  V30 5473 H 504.054 -2.79418 1.07545 0
M  V30 5474 H 501.6 -1.34338 0.518593 0
M  V30 5475 H 503.553 -4.0976 -0.983612 0
M  V30 5476 H 502.277 -2.93717 -1.4282 0
M  V30 5477 H 500.936 -3.61776 0.592787 0
M  V30 5478 H 500.584 -4.76895 -1.59939 0
M  V30 5479 H 500.284 -5.8714 -0.232561 0
M  V30 5480 H 501.808 -5.99544 -1.1567 0
M  V30 5481 H 503.222 -5.62938 1.08504 0
M  V30 5482 H 501.619 -5.70123 1.87296 0
M  V30 5483 H 502.689 -4.32451 2.1935 0
M  V30 5484 N 504.032 -0.577932 -1.46621 0
M  V30 5485 C 504.962 0.145917 -2.33044 0
M  V30 5486 C 505.943 0.888412 -1.45056 0
M  V30 5487 O 507.128 0.864812 -1.73881 0
M  V30 5488 C 504.258 1.16322 -3.27241 0
M  V30 5489 C 503.212 0.535868 -4.24632 0
M  V30 5490 C 502.538 1.65929 -5.08303 0
M  V30 5491 C 503.838 -0.523861 -5.19666 0
M  V30 5492 H 505.532 -0.575636 -2.93814 0
M  V30 5493 H 503.078 -0.278272 -1.41286 0
M  V30 5494 H 505.031 1.67793 -3.86553 0
M  V30 5495 H 503.755 1.91498 -2.64567 0
M  V30 5496 H 502.414 0.0422759 -3.66576 0
M  V30 5497 H 502.062 2.40061 -4.42018 0
M  V30 5498 H 501.762 1.2452 -5.74255 0
M  V30 5499 H 503.286 2.17686 -5.70478 0
M  V30 5500 H 504.7 -0.0944059 -5.73222 0
M  V30 5501 H 503.097 -0.858 -5.93935 0
M  V30 5502 H 504.167 -1.41197 -4.63887 0
M  V30 5503 N 505.51 1.54411 -0.315457 0
M  V30 5504 C 506.44 2.27002 0.547039 0
M  V30 5505 C 507.421 1.27492 1.12605 0
M  V30 5506 O 508.606 1.5629 1.15269 0
M  V30 5507 C 505.736 3.02171 1.71201 0
M  V30 5508 C 504.69 4.0895 1.26268 0
M  V30 5509 C 504.016 4.71915 2.51396 0
M  V30 5510 C 505.316 5.20891 0.383419 0
M  V30 5511 H 507.01 2.99343 -0.0584517 0
M  V30 5512 H 504.556 1.4397 -0.0295527 0
M  V30 5513 H 506.509 3.51681 2.32161 0
M  V30 5514 H 505.233 2.27433 2.34397 0
M  V30 5515 H 503.892 3.60312 0.676062 0
M  V30 5516 H 503.54 3.93801 3.12937 0
M  V30 5517 H 503.24 5.44039 2.22026 0
M  V30 5518 H 504.764 5.24195 3.13133 0
M  V30 5519 H 506.178 5.66206 0.899082 0
M  V30 5520 H 504.575 5.99821 0.182857 0
M  V30 5521 H 505.645 4.81324 -0.587821 0
M  V30 5522 N 506.988 0.0434614 1.5754 0
M  V30 5523 C 508.236 -0.630786 1.92004 0
M  V30 5524 C 508.557 -1.71836 0.921807 0
M  V30 5525 O 507.827 -1.9587 -0.034522 0
M  V30 5526 H 506.407 -0.235988 0.708745 0
M  V30 5527 H 509.069 0.0946462 1.9467 0
M  V30 5528 H 508.165 -1.07434 2.93026 0
M  V30 5529 N 508.466 -1.55915 -0.229846 0
M  V30 5530 C 509.396 -1.94754 -1.28815 0
M  V30 5531 C 510.377 -0.814657 -1.49323 0
M  V30 5532 O 511.562 -1.07631 -1.61645 0
M  V30 5533 C 508.692 -2.25705 -2.63959 0
M  V30 5534 C 507.646 -3.41406 -2.5812 0
M  V30 5535 C 506.972 -3.57941 -3.97218 0
M  V30 5536 C 508.272 -4.76616 -2.13623 0
M  V30 5537 H 509.966 -2.83404 -0.965547 0
M  V30 5538 H 507.512 -1.36353 -0.463028 0
M  V30 5539 H 509.465 -2.51467 -3.38146 0
M  V30 5540 H 508.189 -1.339 -2.9789 0
M  V30 5541 H 506.848 -3.1568 -1.86391 0
M  V30 5542 H 506.496 -2.63526 -4.28443 0
M  V30 5543 H 506.196 -4.35757 -3.94195 0
M  V30 5544 H 507.72 -3.86042 -4.73079 0
M  V30 5545 H 509.134 -5.01637 -2.77549 0
M  V30 5546 H 507.531 -5.57655 -2.21677 0
M  V30 5547 H 508.601 -4.7253 -1.08829 0
M  V30 5548 N 509.944 0.496216 -1.49584 0
M  V30 5549 C 511.19 1.25189 -1.59548 0
M  V30 5550 C 511.523 1.9212 -0.283466 0
M  V30 5551 O 510.798 1.80947 0.713324 0
M  V30 5552 C 511.081 2.31516 -2.75812 0
M  V30 5553 C 510.934 1.69054 -4.16822 0
M  V30 5554 C 512.253 3.3304 -2.87702 0
M  V30 5555 H 509.372 0.45379 -0.580727 0
M  V30 5556 H 512.014 0.549327 -1.81886 0
M  V30 5557 H 510.164 2.91438 -2.56897 0
M  V30 5558 H 511.836 1.12923 -4.47265 0
M  V30 5559 H 510.079 0.994485 -4.22247 0
M  V30 5560 H 510.75 2.462 -4.94054 0
M  V30 5561 H 513.226 2.83114 -3.04936 0
M  V30 5562 H 512.102 4.04794 -3.7072 0
M  V30 5563 H 512.363 3.95655 -1.97255 0
M  V30 5564 N 511.423 1.38739 0.74761 0
M  V30 5565 C 512.671 1.35007 1.50391 0
M  V30 5566 C 512.992 -0.0574274 1.94915 0
M  V30 5567 O 512.262 -1.00628 1.6808 0
M  V30 5568 H 510.842 0.496784 0.557866 0
M  V30 5569 H 513.504 1.73479 0.888319 0
M  V30 5570 H 512.6 2.00474 2.392 0
M  V30 5571 N 512.901 -0.976442 1.23707 0
M  V30 5572 C 514.131 -1.75087 1.09673 0
M  V30 5573 C 514.539 -1.85852 -0.354344 0
M  V30 5574 O 513.882 -1.33985 -1.25673 0
M  V30 5575 C 513.944 -3.19272 1.65245 0
M  V30 5576 C 513.608 -3.32004 3.14042 0
M  V30 5577 C 514.605 -3.18017 4.11292 0
M  V30 5578 C 512.29 -3.56525 3.53829 0
M  V30 5579 C 514.284 -3.28363 5.46312 0
M  V30 5580 C 511.971 -3.6651 4.88993 0
M  V30 5581 C 512.969 -3.52439 5.85043 0
M  V30 5582 O 512.657 -3.62063 7.1775 0
M  V30 5583 H 512.389 -0.556164 0.384262 0
M  V30 5584 H 514.943 -1.23518 1.64111 0
M  V30 5585 H 513.173 -3.72107 1.05231 0
M  V30 5586 H 514.862 -3.7849 1.46629 0
M  V30 5587 H 515.628 -2.98966 3.81896 0
M  V30 5588 H 511.507 -3.66547 2.79579 0
M  V30 5589 H 515.051 -3.17297 6.21263 0
M  V30 5590 H 510.948 -3.85072 5.18063 0
M  V30 5591 H 511.716 -3.78833 7.25553 0
M  V30 5592 N 514.379 -1.04941 -1.1758 0
M  V30 5593 C 515.609 -0.777166 -1.91425 0
M  V30 5594 C 516.017 0.670647 -1.76915 0
M  V30 5595 O 515.36 1.46965 -1.10213 0
M  V30 5596 C 515.422 -1.07495 -3.43052 0
M  V30 5597 C 515.086 -2.51844 -3.81345 0
M  V30 5598 C 516.083 -3.50047 -3.844 0
M  V30 5599 C 513.768 -2.86787 -4.12382 0
M  V30 5600 C 515.762 -4.81239 -4.17957 0
M  V30 5601 C 513.449 -4.18182 -4.45608 0
M  V30 5602 C 514.447 -5.15219 -4.48373 0
M  V30 5603 O 514.135 -6.44258 -4.80819 0
M  V30 5604 H 513.867 -0.282209 -0.614275 0
M  V30 5605 H 516.421 -1.40258 -1.50056 0
M  V30 5606 H 514.651 -0.392437 -3.84704 0
M  V30 5607 H 516.34 -0.78912 -3.98155 0
M  V30 5608 H 517.106 -3.24391 -3.60548 0
M  V30 5609 H 512.985 -2.11922 -4.09402 0
M  V30 5610 H 516.529 -5.56974 -4.2003 0
M  V30 5611 H 512.426 -4.43602 -4.68922 0
M  V30 5612 H 513.194 -6.49041 -4.98686 0
M  V30 5613 N 515.857 1.33968 -0.830081 0
M  V30 5614 C 517.106 1.97323 -0.417928 0
M  V30 5615 C 517.419 1.6652 1.02618 0
M  V30 5616 O 518.625 2.2342 1.54259 0
M  V30 5617 C 517.081 3.53099 -0.696359 0
M  V30 5618 C 516.689 3.92788 -2.15457 0
M  V30 5619 C 518.433 4.23049 -0.350724 0
M  V30 5620 C 516.34 5.41506 -2.37751 0
M  V30 5621 H 515.27 0.738409 -0.152541 0
M  V30 5622 H 517.921 1.52711 -1.01744 0
M  V30 5623 H 516.303 3.95991 -0.0265904 0
M  V30 5624 H 517.477 3.6098 -2.86408 0
M  V30 5625 H 515.792 3.35795 -2.46232 0
M  V30 5626 H 518.389 5.32403 -0.495036 0
M  V30 5627 H 518.732 4.10279 0.705476 0
M  V30 5628 H 519.265 3.85657 -0.975362 0
M  V30 5629 H 516.004 5.5927 -3.41903 0
M  V30 5630 H 515.524 5.74804 -1.7135 0
M  V30 5631 H 517.203 6.0828 -2.20465 0
M  V30 5632 N 517.335 0.585699 1.46312 0
M  V30 5633 C 518.582 0.0724211 2.0237 0
M  V30 5634 C 518.91 -1.28868 1.45683 0
M  V30 5635 O 518.165 -1.85853 0.612945 0
M  V30 5636 C 518.464 -0.0401312 3.57377 0
M  V30 5637 C 518.13 1.25376 4.33119 0
M  V30 5638 C 516.792 1.60824 4.5353 0
M  V30 5639 C 519.144 2.10987 4.76586 0
M  V30 5640 C 516.472 2.81676 5.14661 0
M  V30 5641 C 518.824 3.31068 5.39052 0
M  V30 5642 C 517.488 3.66794 5.5769 0
M  V30 5643 H 516.758 0.0265007 0.740526 0
M  V30 5644 H 519.405 0.762935 1.75646 0
M  V30 5645 H 517.71 -0.813791 3.83255 0
M  V30 5646 H 519.407 -0.453078 3.98432 0
M  V30 5647 H 515.997 0.967808 4.1753 0
M  V30 5648 H 520.181 1.84904 4.60569 0
M  V30 5649 H 515.437 3.0949 5.27282 0
M  V30 5650 H 519.611 3.97672 5.71691 0
M  V30 5651 H 517.238 4.60529 6.04828 0
M  V30 5652 N 518.813 -1.54241 0.323641 0
M  V30 5653 C 520.229 -1.59574 -0.0290018 0
M  V30 5654 C 520.429 -1.34017 -1.50472 0
M  V30 5655 O 519.485 -1.12464 -2.26071 0
M  V30 5656 C 520.798 -2.98169 0.389295 0
M  V30 5657 C 522.346 -3.11148 0.339958 0
M  V30 5658 C 522.821 -4.5209 0.733418 0
M  V30 5659 N 524.312 -4.5808 0.686827 0
M  V30 5660 C 525.047 -5.65248 0.963464 0
M  V30 5661 N 524.543 -6.80355 1.30724 0
M  V30 5662 N 526.336 -5.55025 0.88902 0
M  V30 5663 H 518.487 -1.6911 1.28512 0
M  V30 5664 H 520.75 -0.790972 0.522558 0
M  V30 5665 H 520.456 -3.21871 1.41746 0
M  V30 5666 H 520.33 -3.76399 -0.245657 0
M  V30 5667 H 522.717 -2.87182 -0.679002 0
M  V30 5668 H 522.798 -2.35023 1.00985 0
M  V30 5669 H 522.442 -4.76788 1.75029 0
M  V30 5670 H 522.372 -5.26584 0.0412189 0
M  V30 5671 H 524.863 -3.75411 0.43298 0
M  V30 5672 H 525.176 -7.58029 1.5037 0
M  V30 5673 H 523.521 -6.81851 1.3455 0
M  V30 5674 H 526.712 -4.63977 0.619939 0
M  V30 5675 H 526.885 -6.38458 1.10797 0
M  V30 5676 N 520.291 -0.0518155 -1.57515 0
M  V30 5677 C 521.537 0.622745 -1.93002 0
M  V30 5678 C 521.87 1.70456 -0.930499 0
M  V30 5679 O 521.145 1.94452 0.0434086 0
M  V30 5680 C 521.428 1.21824 -3.38867 0
M  V30 5681 C 521.281 0.144434 -4.49568 0
M  V30 5682 C 522.6 2.12968 -3.8514 0
M  V30 5683 H 519.719 0.22491 -0.701844 0
M  V30 5684 H 522.361 -0.113711 -1.89659 0
M  V30 5685 H 520.511 1.8459 -3.41846 0
M  V30 5686 H 522.183 -0.48753 -4.58717 0
M  V30 5687 H 520.426 -0.527424 -4.30582 0
M  V30 5688 H 521.097 0.601127 -5.48717 0
M  V30 5689 H 523.573 1.60163 -3.8404 0
M  V30 5690 H 522.449 2.51578 -4.87852 0
M  V30 5691 H 522.71 3.03004 -3.21934 0
M  V30 5692 N 521.769 1.56035 0.221574 0
M  V30 5693 C 522.732 1.91584 1.2581 0
M  V30 5694 C 523.732 0.794425 1.39805 0
M  V30 5695 O 524.922 1.06217 1.38071 0
M  V30 5696 C 522.054 2.16663 2.63192 0
M  V30 5697 H 523.247 2.8429 0.954935 0
M  V30 5698 H 520.8 1.49316 0.461988 0
M  V30 5699 H 521.535 1.26508 2.98607 0
M  V30 5700 H 521.32 2.98358 2.5441 0
M  V30 5701 H 522.81 2.45262 3.37988 0
M  V30 5702 N 523.247 -0.488276 1.49845 0
M  V30 5703 C 524.195 -1.60917 1.67954 0
M  V30 5704 C 525.189 -1.6038 0.54539 0
M  V30 5705 O 526.395 -1.64736 0.7254 0
M  V30 5706 H 522.77 -0.533658 0.529824 0
M  V30 5707 H 524.741 -1.428 2.62013 0
M  V30 5708 C 523.49 -2.98975 1.77509 0
M  V30 5709 H 522.813 -3.00099 2.6416 0
M  V30 5710 H 524.253 -3.76906 1.9421 0
M  V30 5711 C 522.712 -3.3282 0.522745 0
M  V30 5712 O 523.242 -4.00208 -0.345866 0
M  V30 5713 N 521.448 -2.8808 0.381882 0
M  V30 5714 H 520.995 -2.33415 1.08974 0
M  V30 5715 H 520.953 -3.11091 -0.454929 0
M  V30 5716 N 524.725 -1.39134 -0.740242 0
M  V30 5717 C 525.675 -1.33928 -1.84519 0
M  V30 5718 C 526.659 -0.221097 -1.59374 0
M  V30 5719 O 527.851 -0.458195 -1.70967 0
M  V30 5720 C 524.98 -1.17991 -3.22387 0
M  V30 5721 C 524.066 -2.34488 -3.53378 0
M  V30 5722 N 524.457 -3.59954 -3.5534 0
M  V30 5723 C 522.755 -2.27331 -3.83714 0
M  V30 5724 C 523.456 -4.36962 -3.83978 0
M  V30 5725 N 522.432 -3.66482 -4.01487 0
M  V30 5726 H 526.234 -2.28907 -1.84333 0
M  V30 5727 H 523.748 -1.32555 -0.938237 0
M  V30 5728 H 525.745 -1.12345 -4.01478 0
M  V30 5729 H 524.405 -0.23957 -3.23815 0
M  V30 5730 H 525.416 -3.93448 -3.36778 0
M  V30 5731 H 522.093 -1.41531 -3.92779 0
M  V30 5732 H 523.483 -5.45692 -3.92008 0
M  V30 5733 N 526.204 0.969867 -1.24223 0
M  V30 5734 C 527.136 2.0669 -0.99055 0
M  V30 5735 C 528.149 1.62753 0.0392222 0
M  V30 5736 O 529.338 1.77403 -0.197561 0
M  V30 5737 C 526.438 3.35589 -0.472594 0
M  V30 5738 C 525.611 4.08444 -1.56499 0
M  V30 5739 C 524.67 5.15616 -1.05007 0
M  V30 5740 O 523.696 5.41911 -1.7413 0
M  V30 5741 N 524.898 5.80383 0.116641 0
M  V30 5742 H 527.663 2.28855 -1.93508 0
M  V30 5743 H 525.224 1.13733 -1.15223 0
M  V30 5744 H 527.216 4.04542 -0.112919 0
M  V30 5745 H 525.786 3.10311 0.377617 0
M  V30 5746 H 525.006 3.33798 -2.09696 0
M  V30 5747 H 526.294 4.53882 -2.29932 0
M  V30 5748 H 525.692 5.6142 0.694589 0
M  V30 5749 H 524.249 6.50462 0.417483 0
M  V30 5750 N 527.682 1.05563 1.17022 0
M  V30 5751 C 528.629 0.659893 2.21165 0
M  V30 5752 C 529.599 -0.339813 1.62587 0
M  V30 5753 O 530.784 -0.230378 1.89404 0
M  V30 5754 C 527.924 0.0447297 3.45071 0
M  V30 5755 C 527.037 1.09372 4.17926 0
M  V30 5756 C 526.172 0.445481 5.29329 0
M  V30 5757 C 525.211 1.47852 5.93975 0
M  V30 5758 N 524.348 0.854172 6.96885 0
M  V30 5759 H 529.188 1.55243 2.54369 0
M  V30 5760 H 526.725 0.776336 1.24946 0
M  V30 5761 H 528.683 -0.329404 4.15898 0
M  V30 5762 H 527.313 -0.811244 3.1244 0
M  V30 5763 H 526.365 1.58564 3.45777 0
M  V30 5764 H 527.677 1.87773 4.62107 0
M  V30 5765 H 526.831 0.0179688 6.06697 0
M  V30 5766 H 525.57 -0.370481 4.86291 0
M  V30 5767 H 524.575 1.91601 5.15334 0
M  V30 5768 H 525.8 2.29645 6.39093 0
M  V30 5769 H 523.746 0.0587882 6.55974 0
M  V30 5770 H 523.663 1.57567 7.39397 0
M  V30 5771 H 524.931 0.451559 7.78191 0
M  V30 5772 N 529.16 -1.33526 0.837174 0
M  V30 5773 C 530.437 -1.92369 0.354065 0
M  V30 5774 C 530.817 -1.76348 -1.16038 0
M  V30 5775 O 530.165 -1.15083 -1.97403 0
M  V30 5776 C 530.375 -3.39728 0.799101 0
M  V30 5777 C 531.723 -4.16877 0.806139 0
M  V30 5778 O 532.747 -3.48373 0.742597 0
M  V30 5779 O 531.606 -5.39166 0.892345 0
M  V30 5780 H 528.7 -0.820952 0.0998378 0
M  V30 5781 H 531.246 -1.42409 0.922913 0
M  V30 5782 H 530.018 -3.45254 1.84162 0
M  V30 5783 H 529.641 -3.97062 0.206731 0
M  V30 5784 N 530.638 -0.59345 -1.46 0
M  V30 5785 C 531.568 0.121192 -2.33185 0
M  V30 5786 C 532.549 0.872977 -1.4599 0
M  V30 5787 O 533.734 0.846321 -1.74789 0
M  V30 5788 C 530.864 1.12844 -3.28456 0
M  V30 5789 C 529.818 0.4908 -4.25177 0
M  V30 5790 C 529.144 1.60529 -5.10034 0
M  V30 5791 C 530.444 -0.578949 -5.19081 0
M  V30 5792 H 532.138 -0.606767 -2.93187 0
M  V30 5793 H 529.684 -0.293242 -1.40983 0
M  V30 5794 H 531.637 1.63684 -3.88311 0
M  V30 5795 H 530.361 1.88681 -2.66584 0
M  V30 5796 H 529.02 0.00339328 -3.666 0
M  V30 5797 H 528.668 2.35359 -4.44539 0
M  V30 5798 H 528.368 1.18422 -5.75543 0
M  V30 5799 H 529.892 2.11623 -5.72755 0
M  V30 5800 H 531.306 -0.155199 -5.7309 0
M  V30 5801 H 529.703 -0.920947 -5.92991 0
M  V30 5802 H 530.773 -1.46109 -4.62364 0
M  V30 5803 N 532.116 1.54067 -0.331816 0
M  V30 5804 C 533.363 2.00715 0.268269 0
M  V30 5805 C 533.691 1.21986 1.51491 0
M  V30 5806 O 532.946 0.292309 1.93505 0
M  V30 5807 C 533.245 3.51634 0.639392 0
M  V30 5808 C 532.911 4.48018 -0.509019 0
M  V30 5809 C 531.573 4.74089 -0.824209 0
M  V30 5810 C 533.925 5.05237 -1.28003 0
M  V30 5811 C 531.253 5.54637 -1.91298 0
M  V30 5812 C 533.605 5.86972 -2.35895 0
M  V30 5813 C 532.269 6.11342 -2.67987 0
M  V30 5814 H 531.539 0.734469 0.0981667 0
M  V30 5815 H 534.186 1.8596 -0.457304 0
M  V30 5816 H 532.491 3.6416 1.44551 0
M  V30 5817 H 534.188 3.85175 1.11539 0
M  V30 5818 H 530.778 4.27851 -0.253287 0
M  V30 5819 H 534.962 4.8507 -1.04978 0
M  V30 5820 H 530.218 5.71747 -2.16599 0
M  V30 5821 H 534.392 6.30327 -2.96076 0
M  V30 5822 H 532.019 6.73544 -3.5248 0
M  V30 5823 N 533.594 0.0601682 1.57485 0
M  V30 5824 C 535.01 -0.296422 1.56823 0
M  V30 5825 C 535.21 -1.70831 1.0686 0
M  V30 5826 O 534.266 -2.4174 0.729245 0
M  V30 5827 C 535.579 -0.116681 3.00474 0
M  V30 5828 C 537.127 -0.187103 3.1244 0
M  V30 5829 C 537.602 -0.035783 4.57986 0
M  V30 5830 N 539.093 -0.0917676 4.63109 0
M  V30 5831 C 539.828 0.00107251 5.734 0
M  V30 5832 N 539.324 0.146773 6.92645 0
M  V30 5833 N 541.117 -0.0551577 5.62073 0
M  V30 5834 H 533.268 0.983055 1.88281 0
M  V30 5835 H 535.531 0.382386 0.867459 0
M  V30 5836 H 535.237 0.85712 3.41096 0
M  V30 5837 H 535.111 -0.873929 3.66936 0
M  V30 5838 H 537.498 -1.15138 2.71712 0
M  V30 5839 H 537.579 0.601052 2.48638 0
M  V30 5840 H 537.223 0.925212 4.99402 0
M  V30 5841 H 537.153 -0.843196 5.19806 0
M  V30 5842 H 539.644 -0.203261 3.77353 0
M  V30 5843 H 539.957 0.210076 7.72514 0
M  V30 5844 H 538.302 0.181979 6.94762 0
M  V30 5845 H 541.493 -0.167605 4.678 0
M  V30 5846 H 541.666 0.020652 6.47997 0
M  V30 5847 N 535.072 -1.5615 -0.213296 0
M  V30 5848 C 536.488 -1.49327 -0.56336 0
M  V30 5849 C 536.688 -0.756826 -1.86747 0
M  V30 5850 O 535.744 -0.299866 -2.50713 0
M  V30 5851 C 537.057 -2.9392 -0.634944 0
M  V30 5852 C 538.605 -3.04487 -0.725013 0
M  V30 5853 C 539.08 -4.50456 -0.82787 0
M  V30 5854 N 540.571 -4.54533 -0.891876 0
M  V30 5855 C 541.306 -5.64766 -0.991315 0
M  V30 5856 N 540.802 -6.84733 -1.05419 0
M  V30 5857 N 542.595 -5.52637 -1.02709 0
M  V30 5858 H 534.746 -2.02453 0.642366 0
M  V30 5859 H 537.009 -0.920548 0.226487 0
M  V30 5860 H 536.715 -3.50783 0.253859 0
M  V30 5861 H 536.589 -3.46274 -1.49579 0
M  V30 5862 H 538.976 -2.47685 -1.60425 0
M  V30 5863 H 539.057 -2.55289 0.161669 0
M  V30 5864 H 538.701 -5.07878 0.0469464 0
M  V30 5865 H 538.631 -4.97369 -1.73009 0
M  V30 5866 H 541.122 -3.68141 -0.85327 0
M  V30 5867 H 541.435 -7.64493 -1.13007 0
M  V30 5868 H 539.78 -6.87427 -1.02318 0
M  V30 5869 H 542.971 -4.5784 -0.974687 0
M  V30 5870 H 543.144 -6.38576 -1.10113 0
M  V30 5871 N 536.55 0.480323 -1.50102 0
M  V30 5872 C 537.778 1.25657 -1.64371 0
M  V30 5873 C 538.193 1.86011 -0.323316 0
M  V30 5874 O 537.55 1.68803 0.693682 0
M  V30 5875 C 537.601 2.37197 -2.728 0
M  V30 5876 O 537.322 1.7932 -3.9972 0
M  V30 5877 C 538.823 3.2823 -2.9796 0
M  V30 5878 H 536.043 0.380369 -0.552775 0
M  V30 5879 H 538.587 0.574379 -1.96268 0
M  V30 5880 H 536.742 3.01208 -2.43623 0
M  V30 5881 H 537.156 2.52701 -4.59611 0
M  V30 5882 H 538.63 4.02725 -3.77513 0
M  V30 5883 H 539.107 3.86462 -2.08671 0
M  V30 5884 H 539.713 2.69964 -3.28633 0
M  V30 5885 N 538.028 1.39524 0.732853 0
M  V30 5886 C 539.305 1.27373 1.48444 0
M  V30 5887 C 539.685 -0.115725 2.10783 0
M  V30 5888 O 539.033 -1.12713 1.98766 0
M  V30 5889 C 539.243 2.39966 2.53412 0
M  V30 5890 C 540.591 2.79384 3.19733 0
M  V30 5891 O 541.615 2.39431 2.63725 0
M  V30 5892 O 540.474 3.48353 4.21085 0
M  V30 5893 H 537.568 0.499272 0.659285 0
M  V30 5894 H 540.114 1.51403 0.766496 0
M  V30 5895 H 538.886 3.32845 2.05742 0
M  V30 5896 H 538.509 2.17612 3.32762 0
M  V30 5897 N 539.506 -0.963266 1.24736 0
M  V30 5898 C 540.754 -1.70343 1.08755 0
M  V30 5899 C 541.075 -1.91387 -0.373619 0
M  V30 5900 O 540.345 -1.4948 -1.2662 0
M  V30 5901 H 538.925 -0.631224 0.399456 0
M  V30 5902 H 541.587 -1.15859 1.56725 0
M  V30 5903 H 540.683 -2.68616 1.58909 0
M  V30 5904 N 540.985 -1.06182 -1.16461 0
M  V30 5905 C 542.401 -0.785065 -1.38956 0
M  V30 5906 C 542.601 0.616103 -1.9185 0
M  V30 5907 O 541.657 1.37686 -2.11657 0
M  V30 5908 C 542.97 -1.84902 -2.37132 0
M  V30 5909 C 544.518 -1.8724 -2.50819 0
M  V30 5910 C 544.993 -2.92686 -3.52277 0
M  V30 5911 N 546.484 -2.91712 -3.59803 0
M  V30 5912 C 547.219 -3.69949 -4.38093 0
M  V30 5913 N 546.715 -4.58 -5.19815 0
M  V30 5914 N 548.508 -3.58346 -4.33064 0
M  V30 5915 H 540.659 -1.96569 -0.804634 0
M  V30 5916 H 542.922 -0.851747 -0.416211 0
M  V30 5917 H 542.628 -2.85518 -2.0536 0
M  V30 5918 H 542.502 -1.69908 -3.36766 0
M  V30 5919 H 544.889 -0.872827 -2.81897 0
M  V30 5920 H 544.97 -2.06311 -1.51226 0
M  V30 5921 H 544.614 -3.92835 -3.21937 0
M  V30 5922 H 544.544 -2.70864 -4.51598 0
M  V30 5923 H 547.035 -2.27876 -3.01464 0
M  V30 5924 H 547.348 -5.14357 -5.76764 0
M  V30 5925 H 545.693 -4.62056 -5.19162 0
M  V30 5926 H 548.884 -2.88943 -3.68279 0
M  V30 5927 H 549.057 -4.19563 -4.93833 0
M  V30 5928 N 542.463 1.3308 -0.844243 0
M  V30 5929 C 543.703 1.99414 -0.448697 0
M  V30 5930 C 544.067 1.65398 0.975058 0
M  V30 5931 O 545.268 2.24741 1.47461 0
M  V30 5932 C 543.539 3.51081 -0.669089 0
M  V30 5933 S 545.098 4.37241 -0.369564 0
M  V30 5934 H 541.916 0.690736 -0.168538 0
M  V30 5935 H 544.518 1.61977 -1.0947 0
M  V30 5936 H 543.222 3.73326 -1.70457 0
M  V30 5937 H 542.753 3.93399 -0.00913211 0
M  V30 5938 H 544.768 4.89568 0.808552 0
M  V30 5939 N 543.941 0.601185 1.45683 0
M  V30 5940 C 544.871 -0.108824 2.33246 0
M  V30 5941 C 545.852 -0.865223 1.46451 0
M  V30 5942 O 547.037 -0.83704 1.75235 0
M  V30 5943 C 544.167 -1.11101 3.2905 0
M  V30 5944 C 543.121 -0.468244 4.25431 0
M  V30 5945 C 542.447 -1.57822 5.10878 0
M  V30 5946 C 543.747 0.606469 5.18767 0
M  V30 5947 H 545.441 0.622306 2.92861 0
M  V30 5948 H 542.987 0.300714 1.40825 0
M  V30 5949 H 544.94 -1.61622 3.89174 0
M  V30 5950 H 543.664 -1.87265 2.67581 0
M  V30 5951 H 542.323 0.0160484 3.66596 0
M  V30 5952 H 541.971 -2.32998 4.45781 0
M  V30 5953 H 541.671 -1.15369 5.76163 0
M  V30 5954 H 543.195 -2.08583 5.73869 0
M  V30 5955 H 544.609 0.185589 5.73 0
M  V30 5956 H 543.006 0.952381 5.92494 0
M  V30 5957 H 544.076 1.48559 4.61582 0
M  V30 5958 N 545.419 -1.53889 0.339982 0
M  V30 5959 C 546.668 -2.00035 -0.258604 0
M  V30 5960 C 546.981 -1.23179 -1.51942 0
M  V30 5961 O 548.187 -1.59784 -2.19503 0
M  V30 5962 C 546.643 -3.56249 -0.511359 0
M  V30 5963 C 546.251 -4.41957 0.733349 0
M  V30 5964 C 547.995 -4.1082 -1.069 0
M  V30 5965 C 545.902 -5.89673 0.451591 0
M  V30 5966 H 544.832 -0.747284 -0.10041 0
M  V30 5967 H 547.483 -1.77776 0.454758 0
M  V30 5968 H 545.865 -3.7456 -1.28533 0
M  V30 5969 H 547.039 -4.35421 1.50815 0
M  V30 5970 H 545.354 -3.9836 1.21237 0
M  V30 5971 H 547.951 -5.18789 -1.2947 0
M  V30 5972 H 548.294 -3.63817 -2.02343 0
M  V30 5973 H 548.827 -3.96205 -0.355817 0
M  V30 5974 H 545.566 -6.40903 1.37565 0
M  V30 5975 H 545.086 -5.99122 -0.285193 0
M  V30 5976 H 546.765 -6.46965 0.0675067 0
M  V30 5977 N 546.897 -0.0685191 -1.57451 0
M  V30 5978 C 548.143 0.596247 -1.94465 0
M  V30 5979 C 548.498 1.67417 -0.948117 0
M  V30 5980 O 547.791 1.91576 0.0301056 0
M  V30 5981 C 547.985 1.22051 -3.35914 0
M  V30 5982 C 547.814 0.204586 -4.49234 0
M  V30 5983 C 546.584 -0.20959 -5.04865 0
M  V30 5984 C 548.782 -0.556872 -5.11276 0
M  V30 5985 N 546.764 -1.21656 -6.01725 0
M  V30 5986 C 548.135 -1.41642 -6.03604 0
M  V30 5987 C 550.19 -0.613297 -4.94108 0
M  V30 5988 C 548.893 -2.32737 -6.80607 0
M  V30 5989 C 550.919 -1.51174 -5.71752 0
M  V30 5990 C 550.281 -2.35898 -6.63726 0
M  V30 5991 H 546.38 0.189307 -0.75874 0
M  V30 5992 H 548.964 -0.144899 -1.9416 0
M  V30 5993 H 547.135 1.9316 -3.36963 0
M  V30 5994 H 548.867 1.84548 -3.60172 0
M  V30 5995 H 545.622 0.172871 -4.73284 0
M  V30 5996 H 546.046 -1.71746 -6.54853 0
M  V30 5997 H 550.688 0.0275228 -4.22791 0
M  V30 5998 H 548.406 -2.97856 -7.51204 0
M  V30 5999 H 551.992 -1.5602 -5.6049 0
M  V30 6000 H 550.872 -3.04291 -7.22756 0
M  V30 6001 N 548.375 1.56261 0.205012 0
M  V30 6002 C 549.623 1.79684 0.925096 0
M  V30 6003 C 549.944 0.63989 1.84202 0
M  V30 6004 O 549.214 -0.342345 1.92885 0
M  V30 6005 H 547.794 0.662774 0.344587 0
M  V30 6006 H 550.456 1.93734 0.212899 0
M  V30 6007 H 549.552 2.72467 1.52211 0
M  V30 6008 N 549.853 -0.472356 1.50355 0
M  V30 6009 C 551.269 -0.806001 1.37753 0
M  V30 6010 C 551.469 -1.968 0.432649 0
M  V30 6011 O 550.525 -2.52189 -0.12519 0
M  V30 6012 C 551.838 -1.11926 2.79093 0
M  V30 6013 C 553.386 -1.22579 2.87999 0
M  V30 6014 C 553.861 -1.57218 4.3017 0
M  V30 6015 N 555.352 -1.64212 4.33115 0
M  V30 6016 C 556.087 -1.92517 5.40116 0
M  V30 6017 N 555.583 -2.1885 6.57325 0
M  V30 6018 N 557.376 -1.94008 5.27558 0
M  V30 6019 H 549.527 0.293451 2.10363 0
M  V30 6020 H 551.79 0.0687672 0.945503 0
M  V30 6021 H 551.496 -0.338504 3.50067 0
M  V30 6022 H 551.37 -2.05577 3.16256 0
M  V30 6023 H 553.757 -1.99722 2.17245 0
M  V30 6024 H 553.838 -0.269107 2.54381 0
M  V30 6025 H 553.482 -0.806154 5.01461 0
M  V30 6026 H 553.412 -2.54034 4.61275 0
M  V30 6027 H 555.903 -1.45906 3.48597 0
M  V30 6028 H 556.216 -2.39718 7.3468 0
M  V30 6029 H 554.561 -2.16245 6.60502 0
M  V30 6030 H 557.752 -1.72931 4.34986 0
M  V30 6031 H 557.925 -2.15731 6.11035 0
M  V30 6032 N 551.331 -1.39911 -0.725443 0
M  V30 6033 C 552.278 -1.39393 -1.83952 0
M  V30 6034 C 553.248 -0.252249 -1.64173 0
M  V30 6035 O 554.433 -0.44882 -1.85446 0
M  V30 6036 C 551.573 -1.25262 -3.21564 0
M  V30 6037 C 550.686 -2.49054 -3.52982 0
M  V30 6038 C 549.821 -2.27439 -4.80047 0
M  V30 6039 C 548.86 -3.46857 -5.04338 0
M  V30 6040 N 547.997 -3.24499 -6.22611 0
M  V30 6041 H 552.837 -2.34622 -1.83729 0
M  V30 6042 H 550.374 -1.16537 -0.897636 0
M  V30 6043 H 552.332 -1.15077 -4.01015 0
M  V30 6044 H 550.962 -0.33657 -3.21041 0
M  V30 6045 H 550.014 -2.69805 -2.6816 0
M  V30 6046 H 551.326 -3.37973 -3.66846 0
M  V30 6047 H 550.48 -2.14551 -5.67497 0
M  V30 6048 H 549.219 -1.35929 -4.68374 0
M  V30 6049 H 548.224 -3.60232 -4.15346 0
M  V30 6050 H 549.449 -4.3928 -5.17889 0
M  V30 6051 H 547.395 -2.35663 -6.12208 0
M  V30 6052 H 547.312 -4.06978 -6.37106 0
M  V30 6053 H 548.58 -3.15325 -7.12875 0
M  V30 6054 N 552.809 0.956637 -1.25245 0
M  V30 6055 C 554.22 1.51569 -1.09012 0
M  V30 6056 C 554.571 1.93322 0.334813 0
M  V30 6057 O 553.696 1.78421 1.22454 0
M  V30 6058 C 554.291 2.75444 -1.97271 0
M  V30 6059 C 552.85 3.27669 -1.8523 0
M  V30 6060 C 551.997 2.00517 -1.91542 0
M  V30 6061 H 554.948 0.773746 -1.3856 0
M  V30 6062 H 554.969 3.4919 -1.51151 0
M  V30 6063 H 554.481 2.45024 -3.00973 0
M  V30 6064 H 552.582 3.62914 -0.844045 0
M  V30 6065 H 552.695 3.9582 -2.69932 0
M  V30 6066 H 551.059 2.15727 -1.35404 0
M  V30 6067 H 551.842 1.72448 -2.96844 0
M  V30 6068 N 554.287 1.06798 1.15896 0
M  V30 6069 C 555.234 0.683314 2.20453 0
M  V30 6070 C 556.204 -0.32255 1.62938 0
M  V30 6071 O 557.389 -0.210276 1.89638 0
M  V30 6072 C 554.529 0.0813266 3.45004 0
M  V30 6073 C 553.642 1.13799 4.16742 0
M  V30 6074 C 552.777 0.501598 5.28826 0
M  V30 6075 C 551.816 1.54144 5.92373 0
M  V30 6076 N 550.953 0.928038 6.9594 0
M  V30 6077 H 555.793 1.57932 2.52708 0
M  V30 6078 H 553.33 0.789544 1.24115 0
M  V30 6079 H 555.288 -0.285274 4.16224 0
M  V30 6080 H 553.918 -0.77806 3.13283 0
M  V30 6081 H 552.97 1.62223 3.44075 0
M  V30 6082 H 554.282 1.92664 4.60089 0
M  V30 6083 H 553.436 0.0823162 6.06644 0
M  V30 6084 H 552.175 -0.318883 4.86656 0
M  V30 6085 H 551.18 1.97056 5.13273 0
M  V30 6086 H 552.405 2.3641 6.36621 0
M  V30 6087 H 550.351 0.12836 6.55874 0
M  V30 6088 H 550.268 1.65401 7.37685 0
M  V30 6089 H 551.536 0.534071 7.77668 0
M  V30 6090 N 555.766 -1.3263 0.851289 0
M  V30 6091 C 557.012 -1.9766 0.453694 0
M  V30 6092 C 557.345 -1.67225 -0.987396 0
M  V30 6093 O 556.62 -0.958693 -1.69232 0
M  V30 6094 C 556.903 -3.5344 0.68936 0
M  V30 6095 C 556.756 -3.93517 2.17862 0
M  V30 6096 C 558.075 -4.39866 0.143555 0
M  V30 6097 H 555.194 -0.717989 0.166314 0
M  V30 6098 H 557.836 -1.57068 1.06909 0
M  V30 6099 H 555.986 -3.88147 0.165546 0
M  V30 6100 H 557.658 -3.69006 2.76826 0
M  V30 6101 H 555.901 -3.42798 2.65841 0
M  V30 6102 H 556.572 -5.02065 2.29422 0
M  V30 6103 H 559.048 -4.11875 0.591451 0
M  V30 6104 H 557.924 -5.47858 0.338043 0
M  V30 6105 H 558.185 -4.31696 -0.953466 0
M  V30 6106 N 557.244 -0.608902 -1.45362 0
M  V30 6107 C 558.493 -0.10218 -2.01441 0
M  V30 6108 C 558.806 1.27546 -1.48295 0
M  V30 6109 O 560.012 1.87498 -1.96359 0
M  V30 6110 C 558.468 -0.131985 -3.59658 0
M  V30 6111 C 558.076 -1.50956 -4.21801 0
M  V30 6112 C 559.82 0.319427 -4.23296 0
M  V30 6113 C 557.727 -1.49568 -5.72174 0
M  V30 6114 H 556.657 -0.0344314 -0.753213 0
M  V30 6115 H 559.308 -0.764426 -1.6682 0
M  V30 6116 H 557.69 0.596939 -3.91475 0
M  V30 6117 H 558.864 -2.26029 -4.01556 0
M  V30 6118 H 557.179 -1.90318 -3.70362 0
M  V30 6119 H 559.776 0.349013 -5.3356 0
M  V30 6120 H 560.119 1.34237 -3.94064 0
M  V30 6121 H 560.652 -0.356273 -3.96201 0
M  V30 6122 H 557.391 -2.49626 -6.06108 0
M  V30 6123 H 556.911 -0.787542 -5.94607 0
M  V30 6124 H 558.59 -1.21989 -6.35396 0
M  V30 6125 N 558.722 1.53707 -0.348139 0
M  V30 6126 C 559.632 2.28881 0.514857 0
M  V30 6127 C 560.648 1.34168 1.10793 0
M  V30 6128 O 561.824 1.6721 1.12262 0
M  V30 6129 C 558.889 3.05042 1.64774 0
M  V30 6130 C 557.95 4.15389 1.08398 0
M  V30 6131 C 557.183 4.87909 2.16287 0
M  V30 6132 O 557.406 4.60137 3.3709 0
M  V30 6133 O 556.34 5.74254 1.80323 0
M  V30 6134 H 560.166 3.03547 -0.0963699 0
M  V30 6135 H 557.751 1.48972 -0.113043 0
M  V30 6136 H 559.633 3.52656 2.30677 0
M  V30 6137 H 558.308 2.33228 2.24469 0
M  V30 6138 H 557.215 3.72068 0.389341 0
M  V30 6139 H 558.548 4.89318 0.531829 0
M  V30 6140 N 560.2 0.0768682 1.57412 0
M  V30 6141 C 561.44 -0.594676 1.95558 0
M  V30 6142 C 561.804 -1.66469 0.956658 0
M  V30 6143 O 563.005 -2.39215 1.22595 0
M  V30 6144 C 561.276 -1.15206 3.38323 0
M  V30 6145 S 562.835 -1.83803 3.9845 0
M  V30 6146 H 559.653 -0.194579 0.683857 0
M  V30 6147 H 562.255 0.151933 1.94909 0
M  V30 6148 H 560.959 -0.36153 4.08805 0
M  V30 6149 H 560.49 -1.93491 3.42527 0
M  V30 6150 H 562.505 -3.12087 3.85767 0
M  V30 6151 N 561.678 -1.56367 -0.196722 0
M  V30 6152 C 562.903 -1.84991 -0.937714 0
M  V30 6153 C 563.328 -0.660244 -1.76132 0
M  V30 6154 O 562.686 0.390967 -1.77034 0
M  V30 6155 C 562.734 -3.11828 -1.81096 0
M  V30 6156 O 561.838 -2.92266 -2.90955 0
M  V30 6157 H 561.179 -0.609193 -0.264159 0
M  V30 6158 H 563.709 -2.03595 -0.202529 0
M  V30 6159 H 563.719 -3.42579 -2.21594 0
M  V30 6160 H 562.394 -3.98037 -1.2058 0
M  V30 6161 H 560.971 -2.72809 -2.54224 0
M  V30 6162 N 563.156 0.464375 -1.50603 0
M  V30 6163 C 564.386 1.23727 -1.65454 0
M  V30 6164 C 564.794 1.86119 -0.340032 0
M  V30 6165 O 564.137 1.70301 0.688706 0
M  V30 6166 C 564.199 2.38153 -2.69301 0
M  V30 6167 C 563.863 1.96345 -4.12671 0
M  V30 6168 C 564.86 1.48215 -4.98326 0
M  V30 6169 C 562.545 2.04861 -4.58625 0
M  V30 6170 C 564.539 1.09152 -6.27985 0
M  V30 6171 C 562.226 1.65409 -5.88288 0
M  V30 6172 C 563.224 1.17634 -6.72794 0
M  V30 6173 O 562.912 0.787312 -8.00035 0
M  V30 6174 H 562.644 0.380075 -0.559034 0
M  V30 6175 H 565.198 0.559919 -1.97621 0
M  V30 6176 H 563.428 3.09081 -2.32392 0
M  V30 6177 H 565.117 3.00099 -2.73304 0
M  V30 6178 H 565.883 1.41052 -4.64036 0
M  V30 6179 H 561.762 2.40996 -3.92991 0
M  V30 6180 H 565.306 0.717909 -6.93896 0
M  V30 6181 H 561.203 1.72233 -6.22098 0
M  V30 6182 H 561.971 0.915567 -8.13363 0
M  V30 6183 N 564.634 1.40294 0.718013 0
M  V30 6184 C 565.862 1.4175 1.50714 0
M  V30 6185 C 566.277 0.0165366 1.88793 0
M  V30 6186 O 565.634 -0.958942 1.55276 0
M  V30 6187 C 565.685 2.30598 2.784 0
M  V30 6188 O 565.406 3.6524 2.41932 0
M  V30 6189 C 566.907 2.4062 3.72313 0
M  V30 6190 H 564.127 0.483565 0.465194 0
M  V30 6191 H 566.671 1.84316 0.885889 0
M  V30 6192 H 564.826 1.91401 3.36815 0
M  V30 6193 H 565.24 4.12402 3.24076 0
M  V30 6194 H 566.714 3.07001 4.58753 0
M  V30 6195 H 567.191 1.4305 4.15251 0
M  V30 6196 H 567.797 2.80359 3.19811 0
M  V30 6197 N 566.112 -0.949982 1.2575 0
M  V30 6198 C 567.337 -1.73503 1.13628 0
M  V30 6199 C 567.762 -1.85601 -0.30559 0
M  V30 6200 O 567.12 -1.33984 -1.22139 0
M  V30 6201 C 567.168 -3.1243 1.80055 0
M  V30 6202 O 566.272 -3.97916 1.08336 0
M  V30 6203 H 565.613 -0.532665 0.396439 0
M  V30 6204 H 568.143 -1.19043 1.66403 0
M  V30 6205 H 568.153 -3.62866 1.86527 0
M  V30 6206 H 566.828 -3.02941 2.84956 0
M  V30 6207 H 565.405 -3.56375 1.09777 0
M  V30 6208 N 567.59 -1.07411 -1.15328 0
M  V30 6209 C 568.553 -0.698914 -2.18284 0
M  V30 6210 C 569.553 0.261149 -1.58665 0
M  V30 6211 O 570.743 0.0420277 -1.74149 0
M  V30 6212 C 567.875 -0.0302427 -3.40887 0
M  V30 6213 H 569.068 -1.61045 -2.52991 0
M  V30 6214 H 566.621 -0.870724 -1.298 0
M  V30 6215 H 567.356 0.893505 -3.11748 0
M  V30 6216 H 567.141 -0.720759 -3.85419 0
M  V30 6217 H 568.631 0.21759 -4.17033 0
M  V30 6218 N 569.068 1.32177 -0.85831 0
M  V30 6219 C 570.345 1.91781 -0.384624 0
M  V30 6220 C 570.725 1.78171 1.13217 0
M  V30 6221 O 570.073 1.18209 1.95548 0
M  V30 6222 C 570.283 3.38414 -0.853047 0
M  V30 6223 C 571.631 4.15542 -0.872359 0
M  V30 6224 O 572.655 3.47148 -0.797926 0
M  V30 6225 O 571.514 5.37678 -0.978009 0
M  V30 6226 H 568.608 0.819259 -0.112886 0
M  V30 6227 H 571.154 1.40923 -0.945453 0
M  V30 6228 H 569.926 3.4228 -1.89632 0
M  V30 6229 H 569.549 3.96683 -0.269874 0
M  V30 6230 N 570.547 0.616602 1.45037 0
M  V30 6231 C 571.795 0.115103 2.01772 0
M  V30 6232 C 572.116 -1.2622 1.48639 0
M  V30 6233 O 571.386 -1.83563 0.684199 0
M  V30 6234 H 569.966 0.0395607 0.745952 0
M  V30 6235 H 572.628 0.800032 1.77723 0
M  V30 6236 H 571.724 0.0717274 3.12018 0
M  V30 6237 N 572.025 -1.5352 0.356285 0
M  V30 6238 C 572.957 -2.23009 -0.529127 0
M  V30 6239 C 573.97 -1.241 -1.05371 0
M  V30 6240 O 575.159 -1.50379 -0.961679 0
M  V30 6241 C 572.259 -2.90685 -1.74229 0
M  V30 6242 C 571.432 -4.16019 -1.35081 0
M  V30 6243 C 570.491 -4.66989 -2.42502 0
M  V30 6244 O 569.517 -5.30895 -2.05279 0
M  V30 6245 N 570.719 -4.44006 -3.7395 0
M  V30 6246 H 573.484 -2.99627 0.0660501 0
M  V30 6247 H 571.045 -1.60885 0.181014 0
M  V30 6248 H 573.037 -3.21695 -2.4555 0
M  V30 6249 H 571.607 -2.17575 -2.24454 0
M  V30 6250 H 570.827 -3.91414 -0.467833 0
M  V30 6251 H 572.115 -4.9752 -1.06542 0
M  V30 6252 H 571.513 -3.92924 -4.06973 0
M  V30 6253 H 570.07 -4.7959 -4.41403 0
M  V30 6254 N 573.503 -0.0852151 -1.57369 0
M  V30 6255 C 574.919 0.271436 -1.57275 0
M  V30 6256 C 575.119 1.69109 -1.09565 0
M  V30 6257 O 574.175 2.40549 -0.767611 0
M  V30 6258 C 575.488 0.0688638 -3.00621 0
M  V30 6259 C 577.036 0.137373 -3.12698 0
M  V30 6260 C 577.511 -0.0370832 -4.57985 0
M  V30 6261 N 579.002 0.0180794 -4.63196 0
M  V30 6262 C 579.737 -0.0922953 -5.73326 0
M  V30 6263 N 579.233 -0.256948 -6.92323 0
M  V30 6264 N 581.026 -0.0342702 -5.6209 0
M  V30 6265 H 573.177 -1.01288 -1.86693 0
M  V30 6266 H 575.44 -0.396138 -0.861266 0
M  V30 6267 H 575.146 -0.911277 -3.39689 0
M  V30 6268 H 575.02 0.815442 -3.6828 0
M  V30 6269 H 577.407 1.10801 -2.73509 0
M  V30 6270 H 577.488 -0.640532 -2.47651 0
M  V30 6271 H 577.132 -1.00455 -4.97867 0
M  V30 6272 H 577.062 0.760392 -5.21081 0
M  V30 6273 H 579.553 0.143202 -3.77629 0
M  V30 6274 H 579.866 -0.332949 -7.72082 0
M  V30 6275 H 578.211 -0.292487 -6.94384 0
M  V30 6276 H 581.402 0.0931605 -4.68007 0
M  V30 6277 H 581.575 -0.12374 -6.47882 0
M  V30 6278 N 574.981 1.5647 0.188427 0
M  V30 6279 C 575.931 1.91479 1.23774 0
M  V30 6280 C 576.915 0.78119 1.40664 0
M  V30 6281 O 578.107 1.04414 1.42922 0
M  V30 6282 C 575.236 2.26354 2.58106 0
M  V30 6283 C 574.322 3.46186 2.44981 0
M  V30 6284 N 574.713 4.63911 2.01546 0
M  V30 6285 C 573.011 3.50456 2.75856 0
M  V30 6286 C 573.712 5.46064 2.00472 0
M  V30 6287 N 572.688 4.86648 2.42229 0
M  V30 6288 H 576.49 2.79994 0.893339 0
M  V30 6289 H 574.004 1.57477 0.39682 0
M  V30 6290 H 576.001 2.49622 3.33908 0
M  V30 6291 H 574.661 1.39168 2.93364 0
M  V30 6292 H 575.672 4.88451 1.7215 0
M  V30 6293 H 572.349 2.73704 3.15265 0
M  V30 6294 H 573.739 6.50368 1.68734 0
M  V30 6295 N 576.459 -0.456382 1.50847 0
M  V30 6296 C 577.409 -1.55045 1.67168 0
M  V30 6297 C 578.393 -1.52061 0.525958 0
M  V30 6298 O 579.585 -1.58836 0.781036 0
M  V30 6299 C 576.714 -2.93386 1.78268 0
M  V30 6300 C 575.8 -3.01198 2.98564 0
M  V30 6301 N 576.191 -2.78792 4.22029 0
M  V30 6302 C 574.489 -3.32346 2.97426 0
M  V30 6303 C 575.19 -2.91953 5.03128 0
M  V30 6304 N 574.166 -3.22797 4.37382 0
M  V30 6305 H 577.968 -1.36444 2.60308 0
M  V30 6306 H 575.482 -0.663375 1.48233 0
M  V30 6307 H 577.479 -3.72071 1.88067 0
M  V30 6308 H 576.139 -3.13022 0.862965 0
M  V30 6309 H 577.15 -2.54087 4.51287 0
M  V30 6310 H 573.827 -3.57877 2.15012 0
M  V30 6311 H 575.217 -2.78745 6.11351 0
M  V30 6312 N 577.937 -1.40673 -0.710563 0
M  V30 6313 C 579.162 -1.42741 -1.50465 0
M  V30 6314 C 579.587 -0.0302116 -1.88076 0
M  V30 6315 O 578.945 0.962945 -1.53613 0
M  V30 6316 C 578.993 -2.32873 -2.75322 0
M  V30 6317 O 578.097 -1.77544 -3.72226 0
M  V30 6318 H 577.438 -0.485056 -0.45345 0
M  V30 6319 H 579.968 -1.84961 -0.874681 0
M  V30 6320 H 579.978 -2.48233 -3.23797 0
M  V30 6321 H 578.653 -3.34401 -2.47283 0
M  V30 6322 H 577.23 -1.71556 -3.31093 0
M  V30 6323 N 579.415 0.9433 -1.26252 0
M  V30 6324 C 580.362 2.0417 -1.07625 0
M  V30 6325 C 581.332 1.6609 0.0180738 0
M  V30 6326 O 582.517 1.90276 -0.141289 0
M  V30 6327 C 579.657 3.37653 -0.713043 0
M  V30 6328 C 578.77 3.88783 -1.8834 0
M  V30 6329 C 577.905 5.10642 -1.4635 0
M  V30 6330 C 576.944 5.54028 -2.60229 0
M  V30 6331 N 576.081 6.67092 -2.18936 0
M  V30 6332 H 580.921 2.19436 -2.01623 0
M  V30 6333 H 578.458 1.07519 -1.00389 0
M  V30 6334 H 580.416 4.14391 -0.483358 0
M  V30 6335 H 579.046 3.22241 0.18996 0
M  V30 6336 H 578.098 3.08464 -2.22608 0
M  V30 6337 H 579.41 4.16922 -2.73821 0
M  V30 6338 H 578.564 5.94832 -1.19414 0
M  V30 6339 H 577.303 4.84244 -0.579568 0
M  V30 6340 H 576.308 4.68396 -2.87898 0
M  V30 6341 H 577.533 5.82429 -3.49219 0
M  V30 6342 H 575.479 6.42381 -1.32974 0
M  V30 6343 H 575.396 6.94806 -2.97961 0
M  V30 6344 H 576.664 7.54662 -1.95206 0
M  V30 6345 N 580.893 1.08022 1.14757 0
M  V30 6346 C 581.823 0.728248 2.21853 0
M  V30 6347 C 582.804 -0.287486 1.67653 0
M  V30 6348 O 583.989 -0.158727 1.9355 0
M  V30 6349 C 581.119 0.132549 3.47047 0
M  V30 6350 C 580.073 1.07619 4.14249 0
M  V30 6351 C 579.399 0.342907 5.33599 0
M  V30 6352 C 580.699 2.41268 4.63235 0
M  V30 6353 H 582.393 1.62365 2.51551 0
M  V30 6354 H 579.939 0.782125 1.20908 0
M  V30 6355 H 581.892 -0.125665 4.21213 0
M  V30 6356 H 580.616 -0.797971 3.16702 0
M  V30 6357 H 579.275 1.31944 3.42033 0
M  V30 6358 H 578.923 -0.59129 4.99513 0
M  V30 6359 H 578.623 0.971955 5.79506 0
M  V30 6360 H 580.147 0.0926538 6.1053 0
M  V30 6361 H 581.561 2.21232 5.28894 0
M  V30 6362 H 579.958 2.9983 5.19829 0
M  V30 6363 H 581.028 3.03079 3.78512 0
M  V30 6364 N 582.371 -1.3172 0.865308 0
M  V30 6365 C 583.301 -2.31109 0.333302 0
M  V30 6366 C 584.282 -1.60148 -0.573301 0
M  V30 6367 O 585.467 -1.87882 -0.491305 0
M  V30 6368 C 582.597 -3.44104 -0.470078 0
M  V30 6369 C 581.551 -4.26623 0.343021 0
M  V30 6370 C 580.877 -5.31482 -0.585756 0
M  V30 6371 C 582.177 -4.98001 1.57456 0
M  V30 6372 H 583.871 -2.75855 1.1638 0
M  V30 6373 H 581.417 -1.3262 0.561069 0
M  V30 6374 H 583.37 -4.12682 -0.852752 0
M  V30 6375 H 582.094 -2.98112 -1.33404 0
M  V30 6376 H 580.753 -3.59707 0.707583 0
M  V30 6377 H 580.401 -4.81741 -1.44686 0
M  V30 6378 H 580.101 -5.87582 -0.0456494 0
M  V30 6379 H 581.625 -6.0292 -0.965375 0
M  V30 6380 H 583.039 -5.59201 1.26359 0
M  V30 6381 H 581.436 -5.63876 2.05339 0
M  V30 6382 H 582.506 -4.25253 2.32997 0
M  V30 6383 N 583.85 -0.624285 -1.44708 0
M  V30 6384 C 585.096 -0.126237 -2.02407 0
M  V30 6385 C 585.428 1.24618 -1.48943 0
M  V30 6386 O 584.704 1.82569 -0.670742 0
M  V30 6387 C 584.986 -0.105449 -3.59946 0
M  V30 6388 C 584.84 -1.50972 -4.23707 0
M  V30 6389 C 586.159 0.573629 -4.36346 0
M  V30 6390 H 583.278 -0.0473472 -0.735478 0
M  V30 6391 H 585.92 -0.799452 -1.72362 0
M  V30 6392 H 584.07 0.46783 -3.85673 0
M  V30 6393 H 585.742 -2.13136 -4.0911 0
M  V30 6394 H 583.985 -2.0656 -3.81465 0
M  V30 6395 H 584.656 -1.44727 -5.32689 0
M  V30 6396 H 587.132 0.0861787 -4.16011 0
M  V30 6397 H 586.008 0.557338 -5.46063 0
M  V30 6398 H 586.269 1.64276 -4.10446 0
M  V30 6399 N 585.328 1.53329 -0.364422 0
M  V30 6400 C 586.553 2.06132 0.229033 0
M  V30 6401 C 586.978 1.23625 1.41769 0
M  V30 6402 O 586.336 0.255038 1.79497 0
M  V30 6403 C 586.384 3.55544 0.60174 0
M  V30 6404 O 585.488 3.75771 1.69912 0
M  V30 6405 H 584.829 0.663148 0.0336213 0
M  V30 6406 H 587.359 1.97758 -0.524689 0
M  V30 6407 H 587.369 3.98549 0.873073 0
M  V30 6408 H 586.044 4.15039 -0.267421 0
M  V30 6409 H 584.621 3.44663 1.42343 0
M  V30 6410 N 586.806 0.0935595 1.57322 0
M  V30 6411 C 588.054 -0.569383 1.93913 0
M  V30 6412 C 588.375 -1.68817 0.976009 0
M  V30 6413 O 587.645 -1.9588 0.0278099 0
M  V30 6414 H 586.225 -0.21332 0.715894 0
M  V30 6415 H 588.887 0.156531 1.9427 0
M  V30 6416 H 587.983 -0.980577 2.96296 0
M  V30 6417 N 588.284 -1.56567 -0.180126 0
M  V30 6418 C 589.531 -1.81492 -0.898167 0
M  V30 6419 C 589.859 -0.669225 -1.82624 0
M  V30 6420 O 589.114 0.344096 -1.92651 0
M  V30 6421 C 589.413 -3.1252 -1.73395 0
M  V30 6422 C 589.079 -4.40658 -0.955567 0
M  V30 6423 C 587.741 -4.75465 -0.740707 0
M  V30 6424 C 590.093 -5.19593 -0.408948 0
M  V30 6425 C 587.421 -5.86691 0.0320128 0
M  V30 6426 C 589.773 -6.31627 0.350638 0
M  V30 6427 C 588.437 -6.65007 0.576378 0
M  V30 6428 H 587.707 -0.664125 -0.328662 0
M  V30 6429 H 590.354 -1.908 -0.163616 0
M  V30 6430 H 588.659 -2.98515 -2.53763 0
M  V30 6431 H 590.356 -3.29013 -2.29241 0
M  V30 6432 H 586.946 -4.13352 -1.13306 0
M  V30 6433 H 591.13 -4.93104 -0.562307 0
M  V30 6434 H 586.386 -6.11016 0.216735 0
M  V30 6435 H 590.56 -6.92001 0.781497 0
M  V30 6436 H 588.187 -7.51033 1.17703 0
M  V30 6437 N 589.762 0.448376 -1.51087 0
M  V30 6438 C 591.008 1.19748 -1.64414 0
M  V30 6439 C 591.363 1.89177 -0.350715 0
M  V30 6440 O 590.656 1.80135 0.652834 0
M  V30 6441 C 590.85 2.24866 -2.77795 0
M  V30 6442 C 590.679 1.65753 -4.18038 0
M  V30 6443 C 589.449 1.44728 -4.8413 0
M  V30 6444 C 591.647 1.13985 -5.0151 0
M  V30 6445 N 589.629 0.810962 -6.0852 0
M  V30 6446 C 591 0.628141 -6.1681 0
M  V30 6447 C 593.055 1.03055 -4.87118 0
M  V30 6448 C 591.758 0.0178906 -7.19298 0
M  V30 6449 C 593.784 0.434212 -5.89804 0
M  V30 6450 C 593.146 -0.0670069 -7.04368 0
M  V30 6451 H 589.245 0.426254 -0.655615 0
M  V30 6452 H 591.829 0.495806 -1.88281 0
M  V30 6453 H 590 2.92434 -2.55611 0
M  V30 6454 H 591.732 2.91857 -2.8036 0
M  V30 6455 H 588.487 1.70593 -4.41809 0
M  V30 6456 H 588.911 0.510563 -6.75072 0
M  V30 6457 H 593.553 1.40395 -3.9881 0
M  V30 6458 H 591.271 -0.367662 -8.07263 0
M  V30 6459 H 594.857 0.3517 -5.80736 0
M  V30 6460 H 593.737 -0.521209 -7.82466 0
M  V30 6461 N 591.24 1.41047 0.703093 0
M  V30 6462 C 592.488 1.39723 1.4602 0
M  V30 6463 C 592.809 0.00461257 1.94999 0
M  V30 6464 O 592.079 -0.952292 1.71196 0
M  V30 6465 H 590.659 0.514281 0.541779 0
M  V30 6466 H 593.321 1.76217 0.832678 0
M  V30 6467 H 592.417 2.07982 2.32701 0
M  V30 6468 N 592.718 -0.936591 1.26751 0
M  V30 6469 C 593.964 -1.6858 1.12733 0
M  V30 6470 C 594.297 -1.91414 -0.327745 0
M  V30 6471 O 593.572 -1.49812 -1.24043 0
M  V30 6472 C 593.855 -3.05779 1.90187 0
M  V30 6473 C 593.708 -2.90242 3.43627 0
M  V30 6474 C 595.027 -4.0597 1.69931 0
M  V30 6475 H 592.146 -0.61182 0.410908 0
M  V30 6476 H 594.788 -1.08747 1.55801 0
M  V30 6477 H 592.938 -3.56853 1.53584 0
M  V30 6478 H 594.61 -2.46354 3.9001 0
M  V30 6479 H 592.853 -2.2577 3.70419 0
M  V30 6480 H 593.524 -3.87572 3.93055 0
M  V30 6481 H 596 -3.63874 2.0183 0
M  V30 6482 H 594.876 -4.99974 2.26534 0
M  V30 6483 H 595.137 -4.37369 0.64502 0
M  V30 6484 N 594.196 -1.08629 -1.14182 0
M  V30 6485 C 595.159 -0.722027 -2.1753 0
M  V30 6486 C 596.159 0.244305 -1.58933 0
M  V30 6487 O 597.349 0.0235545 -1.74184 0
M  V30 6488 C 594.481 -0.0663966 -3.40835 0
M  V30 6489 H 595.674 -1.63719 -2.51269 0
M  V30 6490 H 593.227 -0.884442 -1.28869 0
M  V30 6491 H 593.962 0.860389 -3.12678 0
M  V30 6492 H 593.747 -0.761598 -3.84632 0
M  V30 6493 H 595.237 0.173346 -4.1724 0
M  V30 6494 N 595.674 1.31259 -0.872281 0
M  V30 6495 C 597.09 1.49283 -0.564521 0
M  V30 6496 C 597.29 1.80243 0.900807 0
M  V30 6497 O 596.346 1.88246 1.68284 0
M  V30 6498 C 597.659 2.62503 -1.46673 0
M  V30 6499 C 599.207 2.76386 -1.46901 0
M  V30 6500 C 599.682 3.92705 -2.35684 0
M  V30 6501 N 601.173 3.99995 -2.33577 0
M  V30 6502 C 601.908 4.89276 -2.98992 0
M  V30 6503 N 601.404 5.83443 -3.73585 0
M  V30 6504 N 603.197 4.82541 -2.88289 0
M  V30 6505 H 595.348 1.09432 -1.82039 0
M  V30 6506 H 597.611 0.540949 -0.77851 0
M  V30 6507 H 597.317 2.46407 -2.50951 0
M  V30 6508 H 597.191 3.58695 -1.16696 0
M  V30 6509 H 599.578 2.91894 -0.433796 0
M  V30 6510 H 599.659 1.80853 -1.80903 0
M  V30 6511 H 599.303 3.77954 -3.39283 0
M  V30 6512 H 599.233 4.87549 -1.99006 0
M  V30 6513 H 601.724 3.32624 -1.7936 0
M  V30 6514 H 602.037 6.48303 -4.20622 0
M  V30 6515 H 600.382 5.83415 -3.77694 0
M  V30 6516 H 603.573 4.07951 -2.2955 0
M  V30 6517 H 603.746 5.51916 -3.39549 0
M  V30 6518 N 597.152 0.631951 1.44375 0
M  V30 6519 C 598.102 -0.0943862 2.27805 0
M  V30 6520 C 599.086 -0.815359 1.38711 0
M  V30 6521 O 600.278 -0.701331 1.62513 0
M  V30 6522 C 597.407 -1.07472 3.26044 0
M  V30 6523 C 596.493 -0.353329 4.22626 0
M  V30 6524 N 596.884 0.618512 5.02004 0
M  V30 6525 C 595.182 -0.597662 4.41977 0
M  V30 6526 C 595.883 1.0448 5.7224 0
M  V30 6527 N 594.859 0.383413 5.42246 0
M  V30 6528 H 598.661 0.651672 2.86584 0
M  V30 6529 H 596.175 0.45752 1.55822 0
M  V30 6530 H 598.172 -1.60969 3.84571 0
M  V30 6531 H 596.832 -1.82107 2.68825 0
M  V30 6532 H 597.843 0.996356 5.08226 0
M  V30 6533 H 594.52 -1.32682 3.95856 0
M  V30 6534 H 595.91 1.84773 6.45994 0
M  V30 6535 N 598.631 -1.53133 0.372548 0
M  V30 6536 C 599.878 -2.01356 -0.214959 0
M  V30 6537 C 600.206 -1.2596 -1.48204 0
M  V30 6538 O 599.461 -0.343511 -1.92662 0
M  V30 6539 C 599.76 -3.53206 -0.545938 0
M  V30 6540 C 599.426 -4.46511 0.627624 0
M  V30 6541 C 598.088 -4.71737 0.949615 0
M  V30 6542 C 600.44 -5.01666 1.41353 0
M  V30 6543 C 597.768 -5.4937 2.05936 0
M  V30 6544 C 600.12 -5.80511 2.51375 0
M  V30 6545 C 598.784 -6.04022 2.84101 0
M  V30 6546 H 598.054 -0.736813 -0.078659 0
M  V30 6547 H 600.701 -1.84682 0.506447 0
M  V30 6548 H 599.006 -3.67864 -1.34845 0
M  V30 6549 H 600.703 -3.87997 -1.01287 0
M  V30 6550 H 597.293 -4.27029 0.366635 0
M  V30 6551 H 601.477 -4.82117 1.17802 0
M  V30 6552 H 596.733 -5.65803 2.31682 0
M  V30 6553 H 600.907 -6.22255 3.12684 0
M  V30 6554 H 598.534 -6.63962 3.70214 0
M  V30 6555 N 600.109 -0.101901 -1.5727 0
M  V30 6556 C 601.057 0.872034 -2.15635 0
M  V30 6557 C 602.051 1.28742 -1.10099 0
M  V30 6558 O 603.257 1.26116 -1.28432 0
M  V30 6559 H 599.632 0.299269 -0.689886 0
M  V30 6560 H 601.603 0.355137 -2.96279 0
M  V30 6561 C 600.352 2.11886 -2.7568 0
M  V30 6562 H 599.675 1.80813 -3.56576 0
M  V30 6563 H 601.115 2.78077 -3.20077 0
M  V30 6564 C 599.574 2.89739 -1.7191 0
M  V30 6565 O 600.104 3.84522 -1.16213 0
M  V30 6566 N 598.31 2.53407 -1.42245 0
M  V30 6567 H 597.857 1.76398 -1.87727 0
M  V30 6568 H 597.815 3.05795 -0.730529 0
M  V30 6569 N 601.587 1.56661 0.17182 0
M  V30 6570 C 602.817 1.85831 0.902804 0
M  V30 6571 C 603.225 0.685157 1.76358 0
M  V30 6572 O 602.568 -0.354947 1.80238 0
M  V30 6573 C 602.63 3.09406 1.83053 0
M  V30 6574 C 602.294 4.4231 1.1494 0
M  V30 6575 C 603.291 5.17342 0.515104 0
M  V30 6576 C 600.976 4.89045 1.14631 0
M  V30 6577 C 602.97 6.37299 -0.113194 0
M  V30 6578 C 600.657 6.08933 0.514184 0
M  V30 6579 C 601.655 6.82904 -0.114463 0
M  V30 6580 O 601.343 8.00518 -0.736622 0
M  V30 6581 H 601.075 0.620715 0.267748 0
M  V30 6582 H 603.629 2.04637 0.176918 0
M  V30 6583 H 601.859 2.86544 2.59672 0
M  V30 6584 H 603.548 3.25027 2.4313 0
M  V30 6585 H 604.314 4.82317 0.509474 0
M  V30 6586 H 600.193 4.31409 1.62502 0
M  V30 6587 H 603.737 6.94976 -0.604477 0
M  V30 6588 H 599.634 6.43423 0.517395 0
M  V30 6589 H 600.402 8.16027 -0.635822 0
M  V30 6590 N 603.065 -0.440357 1.51323 0
M  V30 6591 C 604.311 -1.19181 1.64085 0
M  V30 6592 C 604.644 -1.90936 0.354575 0
M  V30 6593 O 603.919 -1.8347 -0.645675 0
M  V30 6594 C 604.202 -2.2112 2.84215 0
M  V30 6595 C 604.055 -1.53468 4.22809 0
M  V30 6596 C 605.374 -3.22133 2.99864 0
M  V30 6597 H 602.493 -0.431924 0.597169 0
M  V30 6598 H 605.135 -0.481443 1.83799 0
M  V30 6599 H 603.285 -2.81703 2.67537 0
M  V30 6600 H 604.957 -0.962455 4.51148 0
M  V30 6601 H 603.2 -0.837086 4.25647 0
M  V30 6602 H 603.871 -2.27694 5.02852 0
M  V30 6603 H 606.347 -2.71601 3.15233 0
M  V30 6604 H 605.223 -3.90756 3.85488 0
M  V30 6605 H 605.484 -3.88061 2.11804 0
M  V30 6606 N 604.543 -1.41418 -0.695603 0
M  V30 6607 C 605.791 -1.40496 -1.45277 0
M  V30 6608 C 606.112 -0.0149538 -1.94994 0
M  V30 6609 O 605.382 0.9432 -1.71699 0
M  V30 6610 H 603.962 -0.517147 -0.539044 0
M  V30 6611 H 606.624 -1.76656 -0.823321 0
M  V30 6612 H 605.72 -2.09214 -2.31595 0
M  V30 6613 N 606.021 0.929856 -1.27246 0
M  V30 6614 C 607.298 1.65544 -1.04186 0
M  V30 6615 C 607.678 2.06796 0.424097 0
M  V30 6616 O 607.026 1.80053 1.40688 0
M  V30 6617 C 607.236 2.85912 -2.00138 0
M  V30 6618 C 608.584 3.57305 -2.29387 0
M  V30 6619 O 609.608 2.96036 -1.98094 0
M  V30 6620 O 608.467 4.67688 -2.82719 0
M  V30 6621 H 605.561 0.725473 -0.397011 0
M  V30 6622 H 608.107 0.980583 -1.38501 0
M  V30 6623 H 606.879 2.52403 -2.99013 0
M  V30 6624 H 606.502 3.61118 -1.66371 0
M  V30 6625 N 607.499 1.09233 1.13605 0
M  V30 6626 C 608.429 0.751738 2.21068 0
M  V30 6627 C 609.41 -0.269688 1.67948 0
M  V30 6628 O 610.595 -0.13819 1.93708 0
M  V30 6629 C 607.725 0.16935 3.46887 0
M  V30 6630 C 606.679 1.12007 4.13084 0
M  V30 6631 C 606.005 0.399483 5.33206 0
M  V30 6632 C 607.305 2.46168 4.6065 0
M  V30 6633 H 608.999 1.65024 2.49815 0
M  V30 6634 H 606.545 0.794905 1.20072 0
M  V30 6635 H 608.498 -0.0809824 4.21322 0
M  V30 6636 H 607.222 -0.764335 3.1753 0
M  V30 6637 H 605.881 1.35564 3.40614 0
M  V30 6638 H 605.529 -0.538277 5.00112 0
M  V30 6639 H 605.229 1.03337 5.78442 0
M  V30 6640 H 606.753 0.157403 6.10397 0
M  V30 6641 H 608.167 2.26829 5.26518 0
M  V30 6642 H 606.564 3.05326 5.1662 0
M  V30 6643 H 607.634 3.07076 3.75276 0
M  V30 6644 N 608.977 -1.30795 0.87923 0
M  V30 6645 C 609.91 -2.26396 0.286404 0
M  V30 6646 C 610.888 -1.51528 -0.589748 0
M  V30 6647 O 612.072 -1.80566 -0.541119 0
M  V30 6648 C 609.199 -3.33458 -0.593581 0
M  V30 6649 C 608.245 -4.2597 0.21247 0
M  V30 6650 S 609.078 -5.11132 1.59702 0
M  V30 6651 C 610.234 -6.21705 0.723408 0
M  V30 6652 H 610.467 -2.7633 1.09677 0
M  V30 6653 H 608 -1.38703 0.678305 0
M  V30 6654 H 609.958 -3.9561 -1.09557 0
M  V30 6655 H 608.619 -2.82259 -1.37799 0
M  V30 6656 H 607.812 -5.01907 -0.458822 0
M  V30 6657 H 607.414 -3.68363 0.646883 0
M  V30 6658 H 609.706 -6.77472 -0.0620739 0
M  V30 6659 H 610.649 -6.93007 1.4542 0
M  V30 6660 H 611.057 -5.63771 0.286855 0
M  V30 6661 N 610.455 -0.639598 -1.44038 0
M  V30 6662 C 611.703 -0.147188 -2.01563 0
M  V30 6663 C 612.024 1.2384 -1.50628 0
M  V30 6664 O 611.294 1.82452 -0.713316 0
M  V30 6665 H 609.874 -0.0514231 -0.745228 0
M  V30 6666 H 612.536 -0.828205 -1.76428 0
M  V30 6667 H 611.632 -0.121358 -3.11864 0
M  V30 6668 N 611.933 1.52934 -0.380664 0
M  V30 6669 C 613.158 2.06363 0.207157 0
M  V30 6670 C 613.583 1.25122 1.4045 0
M  V30 6671 O 612.941 0.274062 1.79217 0
M  V30 6672 C 612.989 3.56162 0.563996 0
M  V30 6673 O 612.093 3.77552 1.65917 0
M  V30 6674 H 611.434 0.663468 0.0265859 0
M  V30 6675 H 613.964 1.9719 -0.545635 0
M  V30 6676 H 613.974 3.99453 0.830752 0
M  V30 6677 H 612.649 4.14732 -0.311427 0
M  V30 6678 H 611.226 3.46154 1.3868 0
M  V30 6679 N 613.412 0.11024 1.57214 0
M  V30 6680 C 614.342 -0.840002 2.17867 0
M  V30 6681 C 615.323 -1.28352 1.11624 0
M  V30 6682 O 616.508 -1.3477 1.39824 0
M  V30 6683 C 613.638 -2.09349 2.77111 0
M  V30 6684 C 612.592 -1.78807 3.8886 0
M  V30 6685 C 611.918 -3.11112 4.34872 0
M  V30 6686 C 613.218 -1.0632 5.11364 0
M  V30 6687 H 614.912 -0.334608 2.97524 0
M  V30 6688 H 612.458 -0.159502 1.43114 0
M  V30 6689 H 614.411 -2.76275 3.18198 0
M  V30 6690 H 613.135 -2.62198 1.9473 0
M  V30 6691 H 611.794 -1.14273 3.48335 0
M  V30 6692 H 611.442 -3.61877 3.49362 0
M  V30 6693 H 611.142 -2.91453 5.10224 0
M  V30 6694 H 612.666 -3.79171 4.78604 0
M  V30 6695 H 614.08 -1.63383 5.49526 0
M  V30 6696 H 612.477 -0.967876 5.92243 0
M  V30 6697 H 613.547 -0.0484569 4.84876 0
M  V30 6698 N 614.89 -1.56749 -0.16351 0
M  V30 6699 C 615.853 -1.96121 -1.18613 0
M  V30 6700 C 616.853 -0.845765 -1.36761 0
M  V30 6701 O 618.043 -1.11268 -1.34033 0
M  V30 6702 C 615.175 -2.26282 -2.54969 0
M  V30 6703 H 616.368 -2.87639 -0.848764 0
M  V30 6704 H 613.921 -1.50928 -0.406251 0
M  V30 6705 H 614.656 -1.37504 -2.93706 0
M  V30 6706 H 614.441 -3.07595 -2.43162 0
M  V30 6707 H 615.931 -2.57638 -3.28653 0
M  V30 6708 N 616.368 0.432326 -1.51554 0
M  V30 6709 C 617.598 1.2019 -1.68042 0
M  V30 6710 C 618.006 1.85356 -0.379434 0
M  V30 6711 O 617.349 1.71724 0.652427 0
M  V30 6712 C 617.411 2.32387 -2.74292 0
M  V30 6713 C 617.075 1.87548 -4.16743 0
M  V30 6714 C 618.072 1.37611 -5.01357 0
M  V30 6715 C 615.757 1.95087 -4.62868 0
M  V30 6716 C 617.751 0.958069 -6.30159 0
M  V30 6717 C 615.438 1.52894 -5.91664 0
M  V30 6718 C 616.436 1.03336 -6.75137 0
M  V30 6719 O 616.124 0.617435 -8.01525 0
M  V30 6720 H 615.856 0.368132 -0.56697 0
M  V30 6721 H 618.41 0.517875 -1.98764 0
M  V30 6722 H 616.64 3.04082 -2.38895 0
M  V30 6723 H 618.329 2.94235 -2.79608 0
M  V30 6724 H 619.095 1.31178 -4.66923 0
M  V30 6725 H 614.974 2.32606 -3.98015 0
M  V30 6726 H 618.518 0.570562 -6.95263 0
M  V30 6727 H 614.415 1.58999 -6.25611 0
M  V30 6728 H 615.183 0.742835 -8.15122 0
M  V30 6729 N 617.846 1.41785 0.688094 0
M  V30 6730 C 619.086 1.43018 1.46032 0
M  V30 6731 C 619.45 0.0402632 1.91958 0
M  V30 6732 O 620.651 -0.0726425 2.68702 0
M  V30 6733 C 618.922 2.4151 2.63453 0
M  V30 6734 S 620.481 2.61335 3.5249 0
M  V30 6735 H 617.299 0.506546 0.498931 0
M  V30 6736 H 619.901 1.78283 0.80221 0
M  V30 6737 H 618.605 3.41286 2.27929 0
M  V30 6738 H 618.136 2.07624 3.34149 0
M  V30 6739 H 620.151 1.88637 4.58945 0
M  V30 6740 N 619.324 -0.923095 1.27737 0
M  V30 6741 C 620.254 -2.04124 1.13383 0
M  V30 6742 C 621.235 -1.70066 0.0340658 0
M  V30 6743 O 622.42 -1.93068 0.209383 0
M  V30 6744 C 619.55 -3.3831 0.785097 0
M  V30 6745 C 618.504 -3.86496 1.8386 0
M  V30 6746 C 617.83 -5.1754 1.34373 0
M  V30 6747 C 619.13 -4.09381 3.24353 0
M  V30 6748 H 620.824 -2.1639 2.06919 0
M  V30 6749 H 618.37 -1.03976 0.996243 0
M  V30 6750 H 620.323 -4.16016 0.671485 0
M  V30 6751 H 619.047 -3.2607 -0.185969 0
M  V30 6752 H 617.706 -3.10987 1.9412 0
M  V30 6753 H 617.354 -5.01696 0.361989 0
M  V30 6754 H 617.054 -5.50751 2.04811 0
M  V30 6755 H 618.578 -5.97811 1.24315 0
M  V30 6756 H 619.992 -4.77641 3.17067 0
M  V30 6757 H 618.389 -4.53906 3.92542 0
M  V30 6758 H 619.459 -3.14515 3.69064 0
M  V30 6759 N 620.802 -1.09834 -1.13024 0
M  V30 6760 C 621.765 -0.745058 -2.16752 0
M  V30 6761 C 622.765 0.227435 -1.59183 0
M  V30 6762 O 623.955 0.0050786 -1.74199 0
M  V30 6763 C 621.087 -0.102543 -3.40746 0
M  V30 6764 H 622.28 -1.66375 -2.49518 0
M  V30 6765 H 619.833 -0.898061 -1.27924 0
M  V30 6766 H 620.568 0.827177 -3.13573 0
M  V30 6767 H 620.353 -0.80235 -3.83803 0
M  V30 6768 H 621.843 0.129082 -4.174 0
M  V30 6769 N 622.28 1.30327 -0.886154 0
M  V30 6770 C 623.52 1.97886 -0.511912 0
M  V30 6771 C 623.884 1.68417 0.921944 0
M  V30 6772 O 625.085 2.29319 1.40237 0
M  V30 6773 C 623.356 3.48775 -0.780444 0
M  V30 6774 S 624.915 4.35844 -0.508482 0
M  V30 6775 H 621.733 0.685024 -0.190428 0
M  V30 6776 H 624.335 1.58413 -1.14567 0
M  V30 6777 H 623.039 3.67714 -1.82248 0
M  V30 6778 H 622.57 3.93171 -0.134284 0
M  V30 6779 H 624.585 4.91893 0.65239 0
M  V30 6780 N 623.758 0.647228 1.43697 0
M  V30 6781 C 625.006 0.157876 2.01482 0
M  V30 6782 C 625.327 -1.23039 1.51282 0
M  V30 6783 O 624.597 -1.82071 0.722982 0
M  V30 6784 H 623.177 0.0553745 0.744945 0
M  V30 6785 H 625.839 0.83755 1.75986 0
M  V30 6786 H 624.935 0.137895 3.11795 0
M  V30 6787 N 625.236 -1.5273 0.388769 0
M  V30 6788 C 626.484 -2.01174 -0.193208 0
M  V30 6789 C 626.805 -1.27705 -1.47365 0
M  V30 6790 O 626.075 -0.396966 -1.91836 0
M  V30 6791 H 624.655 -0.743287 -0.0743871 0
M  V30 6792 H 627.317 -1.87826 0.520336 0
M  V30 6793 H 626.413 -3.09477 -0.403803 0
M  V30 6794 N 626.714 -0.118576 -1.57153 0
M  V30 6795 C 627.962 0.538461 -1.94795 0
M  V30 6796 C 628.283 1.67243 -1.00274 0
M  V30 6797 O 627.553 1.95811 -0.0589692 0
M  V30 6798 H 626.133 0.201904 -0.719197 0
M  V30 6799 H 628.795 -0.187418 -1.93997 0
M  V30 6800 H 627.891 0.933315 -2.97818 0
M  V30 6801 N 628.193 1.56834 0.155195 0
M  V30 6802 C 629.143 1.94061 1.19684 0
M  V30 6803 C 630.127 0.810851 1.38975 0
M  V30 6804 O 631.319 1.07422 1.40675 0
M  V30 6805 C 628.448 2.31778 2.53247 0
M  V30 6806 C 627.534 3.51305 2.37583 0
M  V30 6807 N 627.925 4.68081 1.9166 0
M  V30 6808 C 626.223 3.56228 2.6836 0
M  V30 6809 C 626.924 5.50193 1.88845 0
M  V30 6810 N 625.9 4.91676 2.31852 0
M  V30 6811 H 629.702 2.81826 0.833747 0
M  V30 6812 H 627.216 1.58284 0.363328 0
M  V30 6813 H 629.213 2.56649 3.28538 0
M  V30 6814 H 627.873 1.4536 2.90346 0
M  V30 6815 H 628.884 4.91993 1.6175 0
M  V30 6816 H 625.561 2.8033 3.09389 0
M  V30 6817 H 626.951 6.53801 1.54901 0
M  V30 6818 N 629.671 -0.424282 1.51781 0
M  V30 6819 C 630.601 -1.52305 1.7699 0
M  V30 6820 C 631.582 -1.5839 0.620209 0
M  V30 6821 O 632.767 -1.73908 0.864268 0
M  V30 6822 C 629.897 -2.90271 1.90683 0
M  V30 6823 C 628.851 -2.99043 3.06198 0
M  V30 6824 C 628.177 -4.39116 3.05092 0
M  V30 6825 C 629.477 -2.7192 4.45934 0
M  V30 6826 H 631.171 -1.31461 2.68995 0
M  V30 6827 H 628.717 -0.630985 1.29439 0
M  V30 6828 H 630.67 -3.6711 2.06901 0
M  V30 6829 H 629.394 -3.12376 0.953365 0
M  V30 6830 H 628.053 -2.24646 2.89706 0
M  V30 6831 H 627.701 -4.58207 2.07498 0
M  V30 6832 H 627.401 -4.45912 3.82669 0
M  V30 6833 H 628.925 -5.17911 3.2342 0
M  V30 6834 H 630.339 -3.38487 4.62709 0
M  V30 6835 H 628.736 -2.90111 5.25315 0
M  V30 6836 H 629.806 -1.67445 4.55072 0
M  V30 6837 N 631.149 -1.42148 -0.680565 0
M  V30 6838 C 632.079 -1.4796 -1.80638 0
M  V30 6839 C 633.06 -0.336728 -1.66734 0
M  V30 6840 O 634.245 -0.550247 -1.86242 0
M  V30 6841 C 631.375 -1.37569 -3.18892 0
M  V30 6842 C 630.329 -2.49823 -3.47524 0
M  V30 6843 C 629.655 -2.24491 -4.85291 0
M  V30 6844 C 630.955 -3.92144 -3.44994 0
M  V30 6845 H 632.649 -2.42184 -1.76032 0
M  V30 6846 H 630.195 -1.16566 -0.845481 0
M  V30 6847 H 632.148 -1.40243 -3.97379 0
M  V30 6848 H 630.872 -0.398357 -3.24162 0
M  V30 6849 H 629.531 -2.46455 -2.71395 0
M  V30 6850 H 629.179 -1.25066 -4.87204 0
M  V30 6851 H 628.879 -2.99722 -5.05411 0
M  V30 6852 H 630.403 -2.28906 -5.66069 0
M  V30 6853 H 631.817 -3.97145 -4.13459 0
M  V30 6854 H 630.214 -4.67179 -3.76648 0
M  V30 6855 H 631.284 -4.19225 -2.43676 0
M  V30 6856 N 632.627 0.916307 -1.28225 0
M  V30 6857 C 634.038 1.48024 -1.13779 0
M  V30 6858 C 634.389 1.94289 0.273139 0
M  V30 6859 O 633.514 1.82226 1.16716 0
M  V30 6860 C 634.109 2.69029 -2.05935 0
M  V30 6861 C 632.668 3.2161 -1.95561 0
M  V30 6862 C 631.815 1.94321 -1.97825 0
M  V30 6863 H 634.766 0.729272 -1.40951 0
M  V30 6864 H 634.787 3.44204 -1.62184 0
M  V30 6865 H 634.299 2.35325 -3.08616 0
M  V30 6866 H 632.4 3.60045 -0.959076 0
M  V30 6867 H 632.513 3.87032 -2.82388 0
M  V30 6868 H 630.877 2.1131 -1.42198 0
M  V30 6869 H 631.66 1.62917 -3.0218 0
M  V30 6870 N 634.105 1.10431 1.1244 0
M  V30 6871 C 635.335 0.867612 1.87499 0
M  V30 6872 C 635.743 -0.585475 1.79913 0
M  V30 6873 O 635.086 -1.41539 1.171 0
M  V30 6874 C 635.148 1.2374 3.37533 0
M  V30 6875 C 634.812 2.69751 3.68895 0
M  V30 6876 C 635.809 3.67988 3.67261 0
M  V30 6877 C 633.494 3.06135 3.98229 0
M  V30 6878 C 635.488 5.00632 3.9452 0
M  V30 6879 C 633.175 4.38967 4.25149 0
M  V30 6880 C 634.173 5.36025 4.23281 0
M  V30 6881 O 633.861 6.66465 4.49533 0
M  V30 6882 H 633.593 0.311196 0.600111 0
M  V30 6883 H 636.147 1.47257 1.43194 0
M  V30 6884 H 634.377 0.575537 3.82393 0
M  V30 6885 H 636.066 0.978187 3.93937 0
M  V30 6886 H 636.832 3.41224 3.44661 0
M  V30 6887 H 632.711 2.31214 3.98825 0
M  V30 6888 H 636.255 5.7638 3.92978 0
M  V30 6889 H 632.152 4.6547 4.47223 0
M  V30 6890 H 632.92 6.72095 4.67152 0
M  V30 6891 N 635.583 -1.29855 0.893053 0
M  V30 6892 C 636.83 -1.95826 0.515585 0
M  V30 6893 C 637.158 -1.70451 -0.936842 0
M  V30 6894 O 636.413 -1.00657 -1.67829 0
M  V30 6895 C 636.712 -3.49515 0.746588 0
M  V30 6896 C 636.378 -3.94955 2.17535 0
M  V30 6897 C 635.04 -4.07073 2.56603 0
M  V30 6898 C 637.392 -4.18536 3.10607 0
M  V30 6899 C 634.72 -4.40138 3.87938 0
M  V30 6900 C 637.072 -4.53073 4.41484 0
M  V30 6901 C 635.736 -4.634 4.80434 0
M  V30 6902 H 635.006 -0.71658 0.188666 0
M  V30 6903 H 637.653 -1.54574 1.13045 0
M  V30 6904 H 635.958 -3.9177 0.0487551 0
M  V30 6905 H 637.655 -3.98644 0.434009 0
M  V30 6906 H 634.245 -3.86035 1.86212 0
M  V30 6907 H 638.429 -4.08646 2.81641 0
M  V30 6908 H 633.685 -4.46335 4.17846 0
M  V30 6909 H 637.859 -4.70269 5.13634 0
M  V30 6910 H 635.486 -4.88775 5.82239 0
M  V30 6911 N 637.061 -0.65484 -1.43351 0
M  V30 6912 C 638.291 -0.176429 -2.05845 0
M  V30 6913 C 638.699 1.16375 -1.49176 0
M  V30 6914 O 638.042 1.72981 -0.618322 0
M  V30 6915 C 638.104 -0.0125844 -3.59498 0
M  V30 6916 C 637.768 -1.27831 -4.38758 0
M  V30 6917 C 638.765 -2.2074 -4.70712 0
M  V30 6918 C 636.45 -1.52035 -4.78739 0
M  V30 6919 C 638.444 -3.36145 -5.41558 0
M  V30 6920 C 636.131 -2.67732 -5.49329 0
M  V30 6921 C 637.129 -3.59612 -5.80662 0
M  V30 6922 O 636.817 -4.73289 -6.4981 0
M  V30 6923 H 636.549 -0.0879682 -0.670252 0
M  V30 6924 H 639.103 -0.896193 -1.84818 0
M  V30 6925 H 637.333 0.762567 -3.79107 0
M  V30 6926 H 639.022 0.423392 -4.03686 0
M  V30 6927 H 639.788 -2.03284 -4.40341 0
M  V30 6928 H 635.667 -0.813987 -4.53757 0
M  V30 6929 H 639.211 -4.07881 -5.65932 0
M  V30 6930 H 635.108 -2.85122 -5.79116 0
M  V30 6931 H 635.876 -4.72575 -6.68293 0
M  V30 6932 N 638.539 1.52521 -0.396863 0
M  V30 6933 C 639.788 2.00857 0.184184 0
M  V30 6934 C 640.101 1.28733 1.47265 0
M  V30 6935 O 641.307 1.67821 2.13421 0
M  V30 6936 C 639.763 3.57901 0.378787 0
M  V30 6937 C 639.371 4.38931 -0.896873 0
M  V30 6938 C 641.115 4.14504 0.915789 0
M  V30 6939 C 639.022 5.87591 -0.670133 0
M  V30 6940 H 637.952 0.750496 0.0726055 0
M  V30 6941 H 640.603 1.75965 -0.520425 0
M  V30 6942 H 638.985 3.79072 1.14543 0
M  V30 6943 H 640.159 4.29524 -1.66872 0
M  V30 6944 H 638.474 3.93586 -1.35938 0
M  V30 6945 H 641.071 5.23236 1.10126 0
M  V30 6946 H 641.414 3.71076 1.88701 0
M  V30 6947 H 641.947 3.97253 0.208523 0
M  V30 6948 H 638.686 6.35355 -1.61257 0
M  V30 6949 H 638.206 5.99767 0.0626368 0
M  V30 6950 H 639.885 6.46268 -0.307577 0
M  V30 6951 N 640.017 0.126909 1.57088 0
M  V30 6952 C 641.266 -0.529024 1.94639 0
M  V30 6953 C 641.579 -1.67323 1.01304 0
M  V30 6954 O 642.785 -2.39245 1.28352 0
M  V30 6955 C 641.241 -0.992483 3.45945 0
M  V30 6956 C 640.849 0.123691 4.47829 0
M  V30 6957 C 642.593 -1.61934 3.924 0
M  V30 6958 C 640.5 -0.356911 5.90322 0
M  V30 6959 H 639.43 -0.201397 0.726605 0
M  V30 6960 H 642.081 0.208032 1.82317 0
M  V30 6961 H 640.463 -1.7842 3.53528 0
M  V30 6962 H 641.637 0.900168 4.51922 0
M  V30 6963 H 639.952 0.657699 4.11173 0
M  V30 6964 H 642.549 -1.9902 4.96281 0
M  V30 6965 H 642.892 -2.50075 3.32819 0
M  V30 6966 H 643.425 -0.892894 3.8765 0
M  V30 6967 H 640.164 0.488636 6.53676 0
M  V30 6968 H 639.684 -1.0997 5.89633 0
M  V30 6969 H 641.363 -0.815547 6.41839 0
M  V30 6970 N 641.495 -1.56914 -0.146875 0
M  V30 6971 C 642.725 -1.87243 -0.873126 0
M  V30 6972 C 643.133 -0.713127 -1.75246 0
M  V30 6973 O 642.476 0.326228 -1.8078 0
M  V30 6974 C 642.538 -3.12279 -1.78107 0
M  V30 6975 C 642.202 -4.44082 -1.07889 0
M  V30 6976 C 643.199 -5.18096 -0.432734 0
M  V30 6977 C 640.884 -4.90807 -1.06836 0
M  V30 6978 C 642.878 -6.37039 0.214569 0
M  V30 6979 C 640.565 -6.09674 -0.417243 0
M  V30 6980 C 641.563 -6.82636 0.223093 0
M  V30 6981 O 641.251 -7.99245 0.863884 0
M  V30 6982 H 640.983 -0.624896 -0.257839 0
M  V30 6983 H 643.537 -2.04892 -0.14434 0
M  V30 6984 H 641.767 -2.90639 -2.5508 0
M  V30 6985 H 643.456 -3.28854 -2.37929 0
M  V30 6986 H 644.222 -4.83066 -0.432677 0
M  V30 6987 H 640.101 -4.3394 -1.55618 0
M  V30 6988 H 643.645 -6.93927 0.714965 0
M  V30 6989 H 639.542 -6.44165 -0.414967 0
M  V30 6990 H 640.31 -8.14912 0.765564 0
M  V30 6991 N 642.974 0.416227 -1.52004 0
M  V30 6992 C 643.907 1.52736 -1.6955 0
M  V30 6993 C 644.885 1.53264 -0.54305 0
M  V30 6994 O 646.069 1.72077 -0.769527 0
M  V30 6995 C 643.196 2.91283 -1.72835 0
M  V30 6996 C 642.242 3.08695 -2.94295 0
M  V30 6997 S 643.075 2.82758 -4.54762 0
M  V30 6998 C 644.231 4.23548 -4.60823 0
M  V30 6999 H 644.464 1.37623 -2.63528 0
M  V30 7000 H 641.997 0.607335 -1.41954 0
M  V30 7001 H 643.955 3.71134 -1.75413 0
M  V30 7002 H 642.616 3.03742 -0.799966 0
M  V30 7003 H 641.809 4.10042 -2.93056 0
M  V30 7004 H 641.411 2.36699 -2.89568 0
M  V30 7005 H 643.703 5.17078 -4.37763 0
M  V30 7006 H 644.646 4.29813 -5.62731 0
M  V30 7007 H 645.054 4.08188 -3.89927 0
M  V30 7008 N 644.452 1.42507 0.673017 0
M  V30 7009 C 645.415 1.4582 1.76831 0
M  V30 7010 C 646.415 0.345542 1.57043 0
M  V30 7011 O 647.605 0.606447 1.63303 0
M  V30 7012 C 644.737 1.29158 3.15485 0
M  V30 7013 H 645.93 2.43345 1.7528 0
M  V30 7014 H 643.483 1.28981 0.882817 0
M  V30 7015 H 644.218 0.325626 3.22661 0
M  V30 7016 H 644.003 2.09797 3.31252 0
M  V30 7017 H 645.493 1.34363 3.95394 0
M  V30 7018 N 645.93 -0.909495 1.28709 0
M  V30 7019 C 647.179 -1.65365 1.15487 0
M  V30 7020 C 647.492 -1.93364 -0.294941 0
M  V30 7021 O 648.698 -2.65905 -0.548338 0
M  V30 7022 C 647.154 -2.97923 2.01916 0
M  V30 7023 C 646.762 -2.77556 3.51663 0
M  V30 7024 C 648.506 -3.75814 1.97393 0
M  V30 7025 C 646.413 -4.0578 4.30229 0
M  V30 7026 H 645.343 -0.620323 0.42862 0
M  V30 7027 H 647.994 -1.00894 1.53273 0
M  V30 7028 H 646.376 -3.63552 1.5699 0
M  V30 7029 H 647.55 -2.2058 4.04575 0
M  V30 7030 H 645.865 -2.13072 3.57756 0
M  V30 7031 H 648.462 -4.70866 2.53357 0
M  V30 7032 H 648.805 -4.05277 0.951643 0
M  V30 7033 H 649.338 -3.1701 2.40311 0
M  V30 7034 H 646.077 -3.81488 5.33055 0
M  V30 7035 H 645.597 -4.62351 3.82089 0
M  V30 7036 H 647.276 -4.74004 4.40374 0
M  V30 7037 N 647.408 -1.11026 -1.11852 0
M  V30 7038 C 648.338 -0.786812 -2.19844 0
M  V30 7039 C 649.319 0.242935 -1.68356 0
M  V30 7040 O 650.504 0.107355 -1.93903 0
M  V30 7041 C 647.634 -0.224516 -3.46574 0
M  V30 7042 C 646.588 -1.18564 -4.1125 0
M  V30 7043 C 645.914 -0.484261 -5.32503 0
M  V30 7044 C 647.214 -2.53465 -4.56676 0
M  V30 7045 H 648.908 -1.68978 -2.47158 0
M  V30 7046 H 646.454 -0.813906 -1.18792 0
M  V30 7047 H 648.407 0.0139435 -4.21398 0
M  V30 7048 H 647.131 0.713722 -3.18706 0
M  V30 7049 H 645.79 -1.40966 -3.38414 0
M  V30 7050 H 645.438 0.458646 -5.00905 0
M  V30 7051 H 645.138 -1.12526 -5.76725 0
M  V30 7052 H 646.662 -0.254492 -6.10069 0
M  V30 7053 H 648.076 -2.35177 -5.22843 0
M  V30 7054 H 646.473 -3.13507 -5.11697 0
M  V30 7055 H 647.543 -3.13008 -3.70343 0
M  V30 7056 N 648.886 1.2938 -0.899927 0
M  V30 7057 C 649.816 2.30144 -0.39446 0
M  V30 7058 C 650.797 1.61611 0.530639 0
M  V30 7059 O 651.982 1.89119 0.441319 0
M  V30 7060 C 649.112 3.45229 0.37868 0
M  V30 7061 C 648.066 4.25564 -0.456012 0
M  V30 7062 C 647.392 5.32848 0.444637 0
M  V30 7063 C 648.692 4.93651 -1.70605 0
M  V30 7064 H 650.386 2.72673 -1.23653 0
M  V30 7065 H 647.932 1.31086 -0.596034 0
M  V30 7066 H 649.885 4.14797 0.743037 0
M  V30 7067 H 648.609 3.01545 1.25453 0
M  V30 7068 H 647.268 3.57704 -0.802704 0
M  V30 7069 H 646.916 4.85408 1.31863 0
M  V30 7070 H 646.616 5.87497 -0.110154 0
M  V30 7071 H 648.14 6.05268 0.805182 0
M  V30 7072 H 649.554 5.55655 -1.41141 0
M  V30 7073 H 647.951 5.58233 -2.20217 0
M  V30 7074 H 649.021 4.18926 -2.4419 0
M  V30 7075 N 650.364 0.662433 1.43002 0
M  V30 7076 C 651.592 0.187615 2.06048 0
M  V30 7077 C 652.007 -1.15039 1.49705 0
M  V30 7078 O 651.364 -1.71209 0.631956 0
M  V30 7079 C 651.415 0.100498 3.6136 0
M  V30 7080 O 651.136 1.38562 4.15611 0
M  V30 7081 C 652.637 -0.399298 4.41498 0
M  V30 7082 H 649.857 0.0941675 0.664359 0
M  V30 7083 H 652.401 0.905681 1.83351 0
M  V30 7084 H 650.556 -0.568181 3.83211 0
M  V30 7085 H 650.97 1.25084 5.09366 0
M  V30 7086 H 652.444 -0.409187 5.50481 0
M  V30 7087 H 652.921 -1.43232 4.15188 0
M  V30 7088 H 653.527 0.23721 4.24638 0
M  V30 7089 N 651.842 -1.52309 0.404946 0
M  V30 7090 C 652.792 -2.23717 -0.439864 0
M  V30 7091 C 653.776 -1.24692 -1.0169 0
M  V30 7092 O 654.968 -1.49951 -0.940409 0
M  V30 7093 C 652.097 -3.05898 -1.55825 0
M  V30 7094 C 651.183 -4.12331 -0.992188 0
M  V30 7095 N 651.574 -5.0557 -0.152424 0
M  V30 7096 C 649.872 -4.2774 -1.26312 0
M  V30 7097 C 650.573 -5.81474 0.162041 0
M  V30 7098 N 649.549 -5.41767 -0.44601 0
M  V30 7099 H 653.351 -2.93162 0.208084 0
M  V30 7100 H 650.865 -1.60969 0.215131 0
M  V30 7101 H 652.862 -3.55605 -2.17603 0
M  V30 7102 H 651.522 -2.37991 -2.20886 0
M  V30 7103 H 652.533 -5.17468 0.211556 0
M  V30 7104 H 649.21 -3.71062 -1.91362 0
M  V30 7105 H 650.6 -6.66585 0.843423 0
M  V30 7106 N 653.32 -0.135238 -1.57019 0
M  V30 7107 C 654.736 0.221262 -1.58059 0
M  V30 7108 C 654.936 1.65538 -1.14889 0
M  V30 7109 O 653.992 2.37985 -0.843751 0
M  V30 7110 C 655.305 -0.0268114 -3.00688 0
M  V30 7111 C 656.853 0.0378206 -3.12977 0
M  V30 7112 C 657.328 -0.182769 -4.57635 0
M  V30 7113 N 658.819 -0.129292 -4.6302 0
M  V30 7114 C 659.554 -0.274648 -5.72742 0
M  V30 7115 N 659.05 -0.477075 -6.91155 0
M  V30 7116 N 660.843 -0.213077 -5.61696 0
M  V30 7117 H 652.994 -1.07177 -1.83376 0
M  V30 7118 H 655.257 -0.423338 -0.848227 0
M  V30 7119 H 654.963 -1.01889 -3.36618 0
M  V30 7120 H 654.837 0.697863 -3.70688 0
M  V30 7121 H 657.224 1.02043 -2.76896 0
M  V30 7122 H 657.305 -0.718996 -2.45487 0
M  V30 7123 H 656.949 -1.16243 -4.94419 0
M  V30 7124 H 656.879 0.59423 -5.23237 0
M  V30 7125 H 659.37 0.0229896 -3.77893 0
M  V30 7126 H 659.683 -0.578413 -7.70632 0
M  V30 7127 H 658.028 -0.513252 -6.93102 0
M  V30 7128 H 661.219 -0.0557796 -4.68067 0
M  V30 7129 H 661.392 -0.329796 -6.4716 0
M  V30 7130 N 654.798 1.5699 0.138552 0
M  V30 7131 C 656.038 1.85619 0.855849 0
M  V30 7132 C 656.402 0.720663 1.77962 0
M  V30 7133 O 657.603 0.888221 2.53701 0
M  V30 7134 C 655.874 3.19447 1.60275 0
M  V30 7135 S 657.433 3.69656 2.36431 0
M  V30 7136 H 654.251 0.650926 0.286035 0
M  V30 7137 H 656.853 1.9516 0.115331 0
M  V30 7138 H 655.557 4.00053 0.915737 0
M  V30 7139 H 655.088 3.12935 2.38402 0
M  V30 7140 H 657.103 3.39595 3.61787 0
M  V30 7141 N 656.276 -0.40816 1.52223 0
M  V30 7142 C 657.206 -1.5042 1.78595 0
M  V30 7143 C 658.187 -1.57723 0.636974 0
M  V30 7144 O 659.372 -1.72982 0.882664 0
M  V30 7145 C 656.502 -2.88232 1.93751 0
M  V30 7146 C 655.456 -2.95779 3.09352 0
M  V30 7147 C 654.782 -4.35855 3.09732 0
M  V30 7148 C 656.082 -2.67175 4.48793 0
M  V30 7149 H 657.776 -1.28601 2.70374 0
M  V30 7150 H 655.322 -0.617221 1.30101 0
M  V30 7151 H 657.275 -3.64895 2.10783 0
M  V30 7152 H 655.999 -3.11347 0.986443 0
M  V30 7153 H 654.658 -2.21561 2.92072 0
M  V30 7154 H 654.306 -4.55981 2.12346 0
M  V30 7155 H 654.006 -4.41829 3.87377 0
M  V30 7156 H 655.53 -5.14451 3.28895 0
M  V30 7157 H 656.944 -3.3356 4.66273 0
M  V30 7158 H 655.341 -2.84523 5.28362 0
M  V30 7159 H 656.411 -1.62609 4.56822 0
M  V30 7160 N 657.755 -1.42862 -0.66545 0
M  V30 7161 C 659.171 -1.25993 -0.979687 0
M  V30 7162 C 659.371 -0.170831 -2.00775 0
M  V30 7163 O 658.427 0.454827 -2.4837 0
M  V30 7164 C 659.74 -2.62005 -1.47559 0
M  V30 7165 C 661.288 -2.69437 -1.59288 0
M  V30 7166 C 661.763 -4.05838 -2.12272 0
M  V30 7167 N 663.254 -4.0784 -2.19592 0
M  V30 7168 C 663.989 -5.10205 -2.61684 0
M  V30 7169 N 663.485 -6.22949 -3.03161 0
M  V30 7170 N 665.278 -4.9756 -2.61516 0
M  V30 7171 H 657.429 -2.12395 0.0150493 0
M  V30 7172 H 659.692 -0.946355 -0.0558187 0
M  V30 7173 H 659.398 -3.42605 -0.794654 0
M  V30 7174 H 659.272 -2.86566 -2.45275 0
M  V30 7175 H 661.659 -1.89178 -2.26486 0
M  V30 7176 H 661.74 -2.48655 -0.600374 0
M  V30 7177 H 661.384 -4.86559 -1.4568 0
M  V30 7178 H 661.314 -4.23977 -3.12331 0
M  V30 7179 H 663.805 -3.26452 -1.90361 0
M  V30 7180 H 664.118 -6.96899 -3.33993 0
M  V30 7181 H 662.463 -6.2644 -3.00995 0
M  V30 7182 H 665.654 -4.08551 -2.28481 0
M  V30 7183 H 665.827 -5.77468 -2.93999 0
M  V30 7184 N 659.233 0.902656 -1.29189 0
M  V30 7185 C 660.51 1.63296 -1.07674 0
M  V30 7186 C 660.89 2.07649 0.380137 0
M  V30 7187 O 660.238 1.82997 1.36837 0
M  V30 7188 C 660.448 2.81603 -2.06158 0
M  V30 7189 C 661.796 3.52359 -2.36914 0
M  V30 7190 O 662.82 2.91767 -2.04329 0
M  V30 7191 O 661.679 4.61586 -2.92576 0
M  V30 7192 H 658.773 0.716889 -0.41231 0
M  V30 7193 H 661.319 0.950984 -1.4055 0
M  V30 7194 H 660.091 2.46004 -3.04299 0
M  V30 7195 H 659.714 3.57508 -1.73993 0
M  V30 7196 N 660.711 1.11618 1.11262 0
M  V30 7197 C 661.621 0.78898 2.20935 0
M  V30 7198 C 662.637 -0.21867 1.7262 0
M  V30 7199 O 663.813 -0.0543826 2.01327 0
M  V30 7200 C 660.878 0.239014 3.45875 0
M  V30 7201 C 659.939 1.3055 4.08968 0
M  V30 7202 C 659.172 0.781687 5.27944 0
M  V30 7203 O 659.395 -0.387605 5.69082 0
M  V30 7204 O 658.329 1.54734 5.81671 0
M  V30 7205 H 662.155 1.70477 2.51339 0
M  V30 7206 H 659.74 0.892203 1.19834 0
M  V30 7207 H 661.622 -0.0632312 4.21353 0
M  V30 7208 H 660.297 -0.649454 3.17118 0
M  V30 7209 H 659.204 1.66079 3.35214 0
M  V30 7210 H 660.537 2.16743 4.41909 0
M  V30 7211 N 662.189 -1.289 0.906776 0
M  V30 7212 C 663.139 -2.25122 0.361109 0
M  V30 7213 C 664.123 -1.52169 -0.52283 0
M  V30 7214 O 665.315 -1.73223 -0.363691 0
M  V30 7215 C 662.444 -3.40915 -0.403982 0
M  V30 7216 C 661.53 -4.21198 0.495279 0
M  V30 7217 N 661.921 -4.79636 1.60572 0
M  V30 7218 C 660.219 -4.45027 0.294372 0
M  V30 7219 C 660.92 -5.39977 2.16332 0
M  V30 7220 N 659.896 -5.23753 1.45546 0
M  V30 7221 H 663.698 -2.67869 1.20927 0
M  V30 7222 H 661.212 -1.43592 0.758632 0
M  V30 7223 H 663.209 -4.08922 -0.811695 0
M  V30 7224 H 661.869 -2.99703 -1.24932 0
M  V30 7225 H 662.88 -4.78209 1.98838 0
M  V30 7226 H 659.557 -4.14348 -0.512021 0
M  V30 7227 H 660.947 -5.96266 3.09704 0
M  V30 7228 N 663.667 -0.670007 -1.42649 0
M  V30 7229 C 665.083 -0.33911 -1.55956 0
M  V30 7230 C 665.283 1.1558 -1.65056 0
M  V30 7231 O 664.339 1.94111 -1.61485 0
M  V30 7232 C 665.652 -1.06522 -2.812 0
M  V30 7233 C 667.2 -1.04708 -2.94966 0
M  V30 7234 C 667.675 -1.75442 -4.23065 0
M  V30 7235 N 669.166 -1.72286 -4.29967 0
M  V30 7236 C 669.901 -2.23877 -5.27889 0
M  V30 7237 N 669.397 -2.83829 -6.31991 0
M  V30 7238 N 671.19 -2.14279 -5.19654 0
M  V30 7239 H 663.341 -1.6399 -1.34986 0
M  V30 7240 H 665.604 -0.690603 -0.649439 0
M  V30 7241 H 665.31 -2.12033 -2.80597 0
M  V30 7242 H 665.184 -0.627398 -3.71946 0
M  V30 7243 H 667.571 -0.000315966 -2.951 0
M  V30 7244 H 667.652 -1.52374 -2.05465 0
M  V30 7245 H 667.296 -2.80084 -4.23693 0
M  V30 7246 H 667.226 -1.25229 -5.11493 0
M  V30 7247 H 669.717 -1.28554 -3.55362 0
M  V30 7248 H 670.03 -3.20827 -7.03057 0
M  V30 7249 H 668.375 -2.87896 -6.32567 0
M  V30 7250 H 671.566 -1.67135 -4.37245 0
M  V30 7251 H 671.739 -2.54792 -5.95806 0
M  V30 7252 N 665.145 1.52092 -0.413018 0
M  V30 7253 C 666.385 2.03765 0.160975 0
M  V30 7254 C 666.749 1.29174 1.4205 0
M  V30 7255 O 667.95 1.71093 2.07318 0
M  V30 7256 C 666.221 3.55167 0.398871 0
M  V30 7257 S 667.78 4.28619 0.939755 0
M  V30 7258 H 664.598 0.709685 0.0432281 0
M  V30 7259 H 667.2 1.87102 -0.566831 0
M  V30 7260 H 665.904 4.07034 -0.524544 0
M  V30 7261 H 665.435 3.7608 1.15444 0
M  V30 7262 H 667.45 4.43773 2.21991 0
M  V30 7263 N 666.623 0.143563 1.56945 0
M  V30 7264 C 667.586 -0.783295 2.154 0
M  V30 7265 C 668.586 -1.17763 1.09492 0
M  V30 7266 O 669.776 -1.09912 1.35148 0
M  V30 7267 C 666.908 -2.06248 2.7143 0
M  V30 7268 H 668.101 -0.274863 2.98638 0
M  V30 7269 H 665.654 -0.105859 1.55941 0
M  V30 7270 H 666.389 -2.61466 1.91849 0
M  V30 7271 H 666.174 -1.78897 3.4891 0
M  V30 7272 H 667.664 -2.72453 3.16479 0
M  V30 7273 N 668.101 -1.57061 -0.130224 0
M  V30 7274 C 669.326 -1.88802 -0.858409 0
M  V30 7275 C 669.751 -0.734353 -1.73173 0
M  V30 7276 O 669.109 0.315529 -1.78533 0
M  V30 7277 C 669.157 -3.19228 -1.67708 0
M  V30 7278 O 668.261 -3.04343 -2.78297 0
M  V30 7279 H 667.602 -0.619849 -0.238083 0
M  V30 7280 H 670.132 -2.04271 -0.115995 0
M  V30 7281 H 670.142 -3.51669 -2.06864 0
M  V30 7282 H 668.817 -4.02793 -1.0359 0
M  V30 7283 H 667.394 -2.83346 -2.42425 0
M  V30 7284 N 669.579 0.400081 -1.52437 0
M  V30 7285 C 670.526 1.48803 -1.76426 0
M  V30 7286 C 671.496 1.5461 -0.607032 0
M  V30 7287 O 672.681 1.71041 -0.845563 0
M  V30 7288 C 669.821 2.86156 -1.92896 0
M  V30 7289 C 668.934 2.89587 -3.20567 0
M  V30 7290 C 668.069 4.18296 -3.27417 0
M  V30 7291 C 667.108 4.15736 -4.49255 0
M  V30 7292 N 666.245 5.36032 -4.53447 0
M  V30 7293 H 671.085 1.27649 -2.69276 0
M  V30 7294 H 668.622 0.619451 -1.33421 0
M  V30 7295 H 670.58 3.65901 -2.00429 0
M  V30 7296 H 669.21 3.05785 -1.03418 0
M  V30 7297 H 668.262 2.02278 -3.22161 0
M  V30 7298 H 669.574 2.83562 -4.10358 0
M  V30 7299 H 668.728 5.06439 -3.34072 0
M  V30 7300 H 667.467 4.27028 -2.35581 0
M  V30 7301 H 666.472 3.25982 -4.42737 0
M  V30 7302 H 667.697 4.08636 -5.42396 0
M  V30 7303 H 665.643 5.45415 -3.64498 0
M  V30 7304 H 665.56 5.32038 -5.37096 0
M  V30 7305 H 666.828 6.26104 -4.64343 0
M  V30 7306 N 671.057 1.43213 0.657864 0
M  V30 7307 C 672.287 1.478 1.44356 0
M  V30 7308 C 672.695 0.0930206 1.88971 0
M  V30 7309 O 672.038 -0.906089 1.59799 0
M  V30 7310 C 672.1 2.35745 2.71412 0
M  V30 7311 C 671.764 3.83359 2.48767 0
M  V30 7312 C 672.761 4.74585 2.12285 0
M  V30 7313 C 670.446 4.27799 2.63235 0
M  V30 7314 C 672.44 6.08247 1.90562 0
M  V30 7315 C 670.127 5.61516 2.41128 0
M  V30 7316 C 671.125 6.51557 2.04847 0
M  V30 7317 O 670.813 7.82802 1.82967 0
M  V30 7318 H 670.545 0.504363 0.450104 0
M  V30 7319 H 673.099 1.88572 0.814241 0
M  V30 7320 H 671.329 1.89852 3.36887 0
M  V30 7321 H 673.018 2.31589 3.33348 0
M  V30 7322 H 673.784 4.41531 2.00687 0
M  V30 7323 H 669.663 3.57993 2.90451 0
M  V30 7324 H 673.207 6.78489 1.62168 0
M  V30 7325 H 669.104 5.94139 2.52327 0
M  V30 7326 H 669.872 7.94332 1.97429 0
M  V30 7327 N 672.536 -0.895792 1.29666 0
M  V30 7328 C 673.784 -1.64339 1.17631 0
M  V30 7329 C 674.105 -1.93099 -0.271643 0
M  V30 7330 O 673.375 -1.55981 -1.18518 0
M  V30 7331 H 671.955 -0.609162 0.432354 0
M  V30 7332 H 674.617 -1.07389 1.62646 0
M  V30 7333 H 673.713 -2.59815 1.72924 0
M  V30 7334 N 674.014 -1.12206 -1.10668 0
M  V30 7335 C 675.43 -0.857619 -1.346 0
M  V30 7336 C 675.63 0.513542 -1.94846 0
M  V30 7337 O 674.686 1.26273 -2.18658 0
M  V30 7338 C 675.999 -1.97212 -2.26998 0
M  V30 7339 C 677.547 -2.00272 -2.40542 0
M  V30 7340 C 678.022 -3.10948 -3.36267 0
M  V30 7341 N 679.513 -3.10375 -3.43834 0
M  V30 7342 C 680.248 -3.92651 -4.17867 0
M  V30 7343 N 679.744 -4.84911 -4.94807 0
M  V30 7344 N 681.537 -3.80798 -4.1346 0
M  V30 7345 H 673.688 -2.00558 -0.699306 0
M  V30 7346 H 675.951 -0.872612 -0.370477 0
M  V30 7347 H 675.657 -2.96002 -1.89936 0
M  V30 7348 H 675.531 -1.87521 -3.27286 0
M  V30 7349 H 677.918 -1.02103 -2.76874 0
M  V30 7350 H 677.999 -2.14037 -1.40077 0
M  V30 7351 H 677.643 -4.09348 -3.00661 0
M  V30 7352 H 677.573 -2.94421 -4.36605 0
M  V30 7353 H 680.064 -2.43536 -2.88961 0
M  V30 7354 H 680.377 -5.44207 -5.48688 0
M  V30 7355 H 678.722 -4.88926 -4.93939 0
M  V30 7356 H 681.913 -3.08058 -3.52445 0
M  V30 7357 H 682.086 -4.4515 -4.70898 0
M  V30 7358 N 675.492 1.28418 -0.913599 0
M  V30 7359 C 676.769 1.89977 -0.465619 0
M  V30 7360 C 677.149 1.82813 1.05559 0
M  V30 7361 O 676.497 1.26397 1.90358 0
M  V30 7362 C 676.707 3.34492 -0.995813 0
M  V30 7363 C 678.055 4.11468 -1.04782 0
M  V30 7364 O 679.079 3.43451 -0.944445 0
M  V30 7365 O 677.938 5.33046 -1.20518 0
M  V30 7366 H 675.032 0.813734 -0.147532 0
M  V30 7367 H 677.578 1.36786 -1.00437 0
M  V30 7368 H 676.35 3.33929 -2.03978 0
M  V30 7369 H 675.973 3.95181 -0.437878 0
M  V30 7370 N 676.97 0.677563 1.42291 0
M  V30 7371 C 678.216 0.209962 2.02313 0
M  V30 7372 C 678.571 -1.1714 1.52631 0
M  V30 7373 O 677.864 -1.7756 0.719938 0
M  V30 7374 C 678.058 0.187229 3.56909 0
M  V30 7375 C 677.887 1.56484 4.21595 0
M  V30 7376 C 676.657 2.16329 4.56651 0
M  V30 7377 C 678.855 2.50805 4.49 0
M  V30 7378 N 676.837 3.46842 5.06531 0
M  V30 7379 C 678.208 3.65976 5.00461 0
M  V30 7380 C 680.263 2.493 4.30992 0
M  V30 7381 C 678.966 4.79899 5.35807 0
M  V30 7382 C 680.992 3.62322 4.67415 0
M  V30 7383 C 680.354 4.76221 5.19031 0
M  V30 7384 H 676.453 0.121815 0.772454 0
M  V30 7385 H 679.037 0.891148 1.73109 0
M  V30 7386 H 677.208 -0.46338 3.85626 0
M  V30 7387 H 678.94 -0.293512 4.03634 0
M  V30 7388 H 675.695 1.6879 4.42501 0
M  V30 7389 H 676.119 4.13694 5.35898 0
M  V30 7390 H 680.761 1.62467 3.90339 0
M  V30 7391 H 678.479 5.67406 5.75392 0
M  V30 7392 H 682.065 3.62388 4.55155 0
M  V30 7393 H 680.945 5.62228 5.46689 0
M  V30 7394 N 678.448 -1.51871 0.421078 0
M  V30 7395 C 679.358 -2.31077 -0.405069 0
M  V30 7396 C 680.374 -1.39301 -1.04265 0
M  V30 7397 O 681.55 -1.72376 -1.04157 0
M  V30 7398 C 678.615 -3.12556 -1.50032 0
M  V30 7399 C 677.676 -4.20088 -0.884559 0
M  V30 7400 C 676.909 -4.97673 -1.92762 0
M  V30 7401 O 677.132 -4.75696 -3.14753 0
M  V30 7402 O 676.066 -5.82203 -1.52719 0
M  V30 7403 H 679.892 -3.02742 0.241086 0
M  V30 7404 H 677.477 -1.48263 0.183991 0
M  V30 7405 H 679.359 -3.6326 -2.13589 0
M  V30 7406 H 678.034 -2.43672 -2.13086 0
M  V30 7407 H 676.941 -3.73502 -0.211379 0
M  V30 7408 H 678.274 -4.91298 -0.297763 0
M  V30 7409 N 679.926 -0.151884 -1.56866 0
M  V30 7410 C 681.342 0.204486 -1.58285 0
M  V30 7411 C 681.542 1.6431 -1.16639 0
M  V30 7412 O 680.598 2.37077 -0.868946 0
M  V30 7413 C 681.911 -0.0587019 -3.00643 0
M  V30 7414 C 683.459 0.00462303 -3.13 0
M  V30 7415 C 683.934 -0.231297 -4.57416 0
M  V30 7416 N 685.425 -0.178394 -4.62856 0
M  V30 7417 C 686.16 -0.335379 -5.72418 0
M  V30 7418 N 685.656 -0.550355 -6.90611 0
M  V30 7419 N 687.449 -0.272641 -5.61438 0
M  V30 7420 H 679.6 -1.09116 -1.82229 0
M  V30 7421 H 681.863 -0.432311 -0.843689 0
M  V30 7422 H 681.569 -1.05453 -3.35518 0
M  V30 7423 H 681.443 0.658508 -3.71407 0
M  V30 7424 H 683.83 0.991009 -2.77962 0
M  V30 7425 H 683.911 -0.744992 -2.44711 0
M  V30 7426 H 683.555 -1.2148 -4.93158 0
M  V30 7427 H 683.485 0.5387 -5.23837 0
M  V30 7428 H 685.976 -0.0170923 -3.77896 0
M  V30 7429 H 686.289 -0.660116 -7.69976 0
M  V30 7430 H 684.634 -0.586736 -6.92519 0
M  V30 7431 H 687.825 -0.105421 -4.67981 0
M  V30 7432 H 687.998 -0.398418 -6.46774 0
M  V30 7433 N 681.404 1.57128 0.121893 0
M  V30 7434 C 682.634 1.88609 0.843227 0
M  V30 7435 C 683.042 0.740917 1.74089 0
M  V30 7436 O 682.385 -0.297426 1.81276 0
M  V30 7437 C 682.447 3.15073 1.73117 0
M  V30 7438 C 682.111 4.45742 1.0081 0
M  V30 7439 C 683.108 5.18719 0.350255 0
M  V30 7440 C 680.793 4.92444 0.99014 0
M  V30 7441 C 682.787 6.36617 -0.315889 0
M  V30 7442 C 680.474 6.10261 0.320196 0
M  V30 7443 C 681.472 6.82194 -0.331666 0
M  V30 7444 O 681.16 7.97769 -0.990927 0
M  V30 7445 H 680.892 0.628919 0.247865 0
M  V30 7446 H 683.446 2.05096 0.111725 0
M  V30 7447 H 681.676 2.9466 2.50424 0
M  V30 7448 H 683.365 3.32597 2.32667 0
M  V30 7449 H 684.131 4.83693 0.35577 0
M  V30 7450 H 680.01 4.36361 1.48695 0
M  V30 7451 H 683.554 6.92701 -0.825272 0
M  V30 7452 H 679.451 6.44743 0.312433 0
M  V30 7453 H 680.219 8.13591 -0.895113 0
M  V30 7454 N 682.882 -0.391992 1.52647 0
M  V30 7455 C 684.11 -1.1586 1.71418 0
M  V30 7456 C 684.525 -1.8381 0.431216 0
M  V30 7457 O 683.882 -1.7256 -0.594085 0
M  V30 7458 C 683.933 -2.20888 2.86165 0
M  V30 7459 O 683.654 -1.5571 4.09495 0
M  V30 7460 C 685.155 -3.103 3.1659 0
M  V30 7461 H 682.375 -0.347494 0.574011 0
M  V30 7462 H 684.919 -0.458972 1.99283 0
M  V30 7463 H 683.074 -2.86492 2.6077 0
M  V30 7464 H 683.488 -2.25474 4.73563 0
M  V30 7465 H 684.962 -3.8003 4.00351 0
M  V30 7466 H 685.439 -3.73639 2.30848 0
M  V30 7467 H 686.045 -2.50345 3.43813 0
M  V30 7468 N 684.36 -1.4356 -0.65026 0
M  V30 7469 C 685.323 -1.48615 -1.74489 0
M  V30 7470 C 686.323 -0.370483 -1.56474 0
M  V30 7471 O 687.513 -0.632351 -1.62317 0
M  V30 7472 C 684.645 -1.34161 -3.13391 0
M  V30 7473 H 685.838 -2.46103 -1.71387 0
M  V30 7474 H 683.391 -1.30369 -0.862186 0
M  V30 7475 H 684.126 -0.376918 -3.22102 0
M  V30 7476 H 683.911 -2.1504 -3.27872 0
M  V30 7477 H 685.401 -1.40637 -3.93206 0
M  V30 7478 N 685.838 0.888903 -1.30139 0
M  V30 7479 C 686.801 1.97576 -1.16174 0
M  V30 7480 C 687.801 1.60525 -0.094086 0
M  V30 7481 O 688.991 1.70812 -0.341889 0
M  V30 7482 C 686.123 3.3188 -0.778983 0
M  V30 7483 H 687.316 2.11393 -2.12728 0
M  V30 7484 H 684.869 1.0748 -1.1348 0
M  V30 7485 H 685.604 3.23765 0.186225 0
M  V30 7486 H 685.389 3.60141 -1.55051 0
M  V30 7487 H 686.879 4.11612 -0.704631 0
M  V30 7488 N 687.317 1.12792 1.10072 0
M  V30 7489 C 688.563 0.886857 1.82381 0
M  V30 7490 C 688.896 -0.58576 1.85155 0
M  V30 7491 O 688.171 -1.43317 1.31493 0
M  V30 7492 C 688.454 1.46703 3.28862 0
M  V30 7493 C 688.307 3.00829 3.34398 0
M  V30 7494 C 689.626 1.12971 4.25353 0
M  V30 7495 H 686.745 0.32362 0.662148 0
M  V30 7496 H 689.387 1.39513 1.28982 0
M  V30 7497 H 687.537 1.03476 3.74466 0
M  V30 7498 H 689.209 3.52764 2.97247 0
M  V30 7499 H 687.452 3.36164 2.74183 0
M  V30 7500 H 688.123 3.36519 4.3756 0
M  V30 7501 H 690.599 1.50313 3.88001 0
M  V30 7502 H 689.475 1.56223 5.26199 0
M  V30 7503 H 689.736 0.0424452 4.4208 0
M  V30 7504 N 688.795 -1.27931 0.920396 0
M  V30 7505 C 690.206 -1.76707 0.602616 0
M  V30 7506 C 690.557 -1.75249 -0.882159 0
M  V30 7507 O 689.682 -1.35135 -1.69019 0
M  V30 7508 C 690.277 -3.20884 1.08714 0
M  V30 7509 C 688.836 -3.67356 0.820157 0
M  V30 7510 C 687.983 -2.47525 1.25006 0
M  V30 7511 H 690.934 -1.14301 1.10095 0
M  V30 7512 H 690.955 -3.78045 0.431535 0
M  V30 7513 H 690.467 -3.21913 2.1678 0
M  V30 7514 H 688.568 -3.7178 -0.247012 0
M  V30 7515 H 688.681 -4.57181 1.43257 0
M  V30 7516 H 687.045 -2.45765 0.668698 0
M  V30 7517 H 687.828 -2.51269 2.3392 0
M  V30 7518 N 690.273 -0.685099 -1.4193 0
M  V30 7519 C 691.503 -0.220052 -2.05425 0
M  V30 7520 C 691.911 1.13185 -1.51611 0
M  V30 7521 O 691.254 1.71631 -0.654875 0
M  V30 7522 C 691.316 -0.0888364 -3.5939 0
M  V30 7523 C 690.98 -1.37109 -4.35947 0
M  V30 7524 C 691.977 -2.30675 -4.65924 0
M  V30 7525 C 689.662 -1.62155 -4.75406 0
M  V30 7526 C 691.656 -3.47556 -5.34306 0
M  V30 7527 C 689.343 -2.79324 -5.43527 0
M  V30 7528 C 690.341 -3.71848 -5.72903 0
M  V30 7529 O 690.029 -4.86966 -6.39624 0
M  V30 7530 H 689.761 -0.102165 -0.668235 0
M  V30 7531 H 692.315 -0.935194 -1.82875 0
M  V30 7532 H 690.545 0.681981 -3.80639 0
M  V30 7533 H 692.234 0.337669 -4.04493 0
M  V30 7534 H 693 -2.12579 -4.3593 0
M  V30 7535 H 688.879 -0.910053 -4.51928 0
M  V30 7536 H 692.423 -4.19794 -5.57153 0
M  V30 7537 H 688.32 -2.97342 -5.72938 0
M  V30 7538 H 689.088 -4.86644 -6.58118 0
M  V30 7539 N 691.751 1.51645 -0.429126 0
M  V30 7540 C 693.167 1.59394 -0.080994 0
M  V30 7541 C 693.367 1.44064 1.40882 0
M  V30 7542 O 692.423 1.27771 2.17786 0
M  V30 7543 C 693.736 2.94779 -0.593773 0
M  V30 7544 C 695.284 3.08067 -0.553494 0
M  V30 7545 C 695.759 4.45963 -1.04311 0
M  V30 7546 N 697.25 4.5226 -1.00076 0
M  V30 7547 C 697.985 5.57268 -1.35056 0
M  V30 7548 N 697.481 6.69734 -1.77282 0
M  V30 7549 N 699.274 5.47582 -1.26925 0
M  V30 7550 H 691.425 1.59856 -1.39857 0
M  V30 7551 H 693.688 0.753095 -0.575805 0
M  V30 7552 H 693.394 3.11342 -1.63583 0
M  V30 7553 H 693.268 3.77197 -0.0142202 0
M  V30 7554 H 695.655 2.91177 0.479556 0
M  V30 7555 H 695.736 2.27508 -1.16935 0
M  V30 7556 H 695.38 4.63598 -2.07459 0
M  V30 7557 H 695.31 5.25049 -0.403873 0
M  V30 7558 H 697.801 3.71537 -0.690564 0
M  V30 7559 H 698.114 7.4587 -2.02232 0
M  V30 7560 H 696.459 6.70963 -1.81202 0
M  V30 7561 H 699.65 4.58604 -0.93809 0
M  V30 7562 H 699.823 6.29308 -1.54516 0
M  V30 7563 N 693.229 0.160201 1.56784 0
M  V30 7564 C 694.159 -0.770264 2.2043 0
M  V30 7565 C 695.14 -1.24736 1.15651 0
M  V30 7566 O 696.325 -1.30253 1.44041 0
M  V30 7567 C 693.455 -2.00427 2.83631 0
M  V30 7568 C 692.409 -1.66345 3.94352 0
M  V30 7569 C 691.735 -2.97119 4.4455 0
M  V30 7570 C 693.035 -0.899972 5.14488 0
M  V30 7571 H 694.729 -0.239783 2.98438 0
M  V30 7572 H 692.275 -0.113891 1.43549 0
M  V30 7573 H 694.228 -2.66012 3.26827 0
M  V30 7574 H 692.952 -2.5587 2.02973 0
M  V30 7575 H 691.611 -1.03133 3.51794 0
M  V30 7576 H 691.259 -3.5058 3.60698 0
M  V30 7577 H 690.959 -2.75073 5.19238 0
M  V30 7578 H 692.483 -3.63753 4.90425 0
M  V30 7579 H 693.897 -1.45818 5.54446 0
M  V30 7580 H 692.294 -0.778968 5.95023 0
M  V30 7581 H 693.364 0.105827 4.84785 0
M  V30 7582 N 694.707 -1.5719 -0.113559 0
M  V30 7583 C 695.637 -2.03772 -1.14013 0
M  V30 7584 C 696.618 -0.923176 -1.42869 0
M  V30 7585 O 697.803 -1.19325 -1.53216 0
M  V30 7586 C 694.933 -2.44663 -2.4649 0
M  V30 7587 C 693.887 -3.59612 -2.32085 0
M  V30 7588 C 693.213 -3.8642 -3.69573 0
M  V30 7589 C 694.513 -4.91149 -1.7768 0
M  V30 7590 H 696.207 -2.89785 -0.752665 0
M  V30 7591 H 693.753 -1.39412 -0.360609 0
M  V30 7592 H 695.706 -2.75857 -3.18561 0
M  V30 7593 H 694.43 -1.55628 -2.87137 0
M  V30 7594 H 693.089 -3.28636 -1.62461 0
M  V30 7595 H 692.737 -2.94581 -4.07715 0
M  V30 7596 H 692.437 -4.63797 -3.60786 0
M  V30 7597 H 693.961 -4.2007 -4.4314 0
M  V30 7598 H 695.375 -5.20843 -2.39574 0
M  V30 7599 H 693.772 -5.72562 -1.79701 0
M  V30 7600 H 694.842 -4.79301 -0.734776 0
M  V30 7601 N 696.185 0.383891 -1.52853 0
M  V30 7602 C 697.596 0.961591 -1.60032 0
M  V30 7603 C 697.947 1.90819 -0.456333 0
M  V30 7604 O 697.072 2.12288 0.419873 0
M  V30 7605 C 697.667 1.75078 -2.90057 0
M  V30 7606 C 696.226 2.2781 -2.99632 0
M  V30 7607 C 695.373 1.08512 -2.55187 0
M  V30 7608 H 698.324 0.163269 -1.57858 0
M  V30 7609 H 698.345 2.61046 -2.7683 0
M  V30 7610 H 697.857 1.06157 -3.73299 0
M  V30 7611 H 695.958 3.00028 -2.20939 0
M  V30 7612 H 696.071 2.56947 -4.0437 0
M  V30 7613 H 694.435 1.44667 -2.09627 0
M  V30 7614 H 695.218 0.41118 -3.40829 0
M  V30 7615 N 697.663 1.43903 0.642637 0
M  V30 7616 C 698.911 1.45791 1.39962 0
M  V30 7617 C 699.232 0.0873144 1.94804 0
M  V30 7618 O 698.502 -0.878825 1.75081 0
M  V30 7619 H 697.082 0.536797 0.519479 0
M  V30 7620 H 699.744 1.7959 0.757189 0
M  V30 7621 H 698.84 2.17665 2.2367 0
M  V30 7622 N 699.141 -0.881989 1.30609 0
M  V30 7623 C 700.39 -1.62878 1.18969 0
M  V30 7624 C 700.703 -1.93946 -0.253859 0
M  V30 7625 O 701.909 -2.67008 -0.491813 0
M  V30 7626 C 700.365 -2.93573 2.0819 0
M  V30 7627 C 699.973 -2.70034 3.57471 0
M  V30 7628 C 701.717 -3.71543 2.0532 0
M  V30 7629 C 699.624 -3.96563 4.38739 0
M  V30 7630 H 698.554 -0.611092 0.441682 0
M  V30 7631 H 701.205 -0.976201 1.55379 0
M  V30 7632 H 699.587 -3.6014 1.64666 0
M  V30 7633 H 700.761 -2.11949 4.09163 0
M  V30 7634 H 699.076 -2.05435 3.62195 0
M  V30 7635 H 701.673 -4.65386 2.63288 0
M  V30 7636 H 702.016 -4.03167 1.03739 0
M  V30 7637 H 702.549 -3.11842 2.46981 0
M  V30 7638 H 699.288 -3.70095 5.41027 0
M  V30 7639 H 698.808 -4.54142 3.9181 0
M  V30 7640 H 700.487 -4.64557 4.50329 0
M  V30 7641 N 700.619 -1.13374 -1.09472 0
M  V30 7642 C 701.866 -0.89519 -1.81639 0
M  V30 7643 C 702.194 0.57868 -1.85692 0
M  V30 7644 O 701.449 1.44426 -1.32059 0
M  V30 7645 C 701.748 -1.42759 -3.2765 0
M  V30 7646 C 701.414 -2.91822 -3.43731 0
M  V30 7647 C 700.076 -3.32521 -3.47827 0
M  V30 7648 C 702.428 -3.87727 -3.48307 0
M  V30 7649 C 699.756 -4.6781 -3.54078 0
M  V30 7650 C 702.108 -5.22859 -3.56091 0
M  V30 7651 C 700.772 -5.63086 -3.58456 0
M  V30 7652 H 700.042 -0.327573 -0.664663 0
M  V30 7653 H 702.689 -1.4156 -1.28969 0
M  V30 7654 H 700.994 -0.827871 -3.82954 0
M  V30 7655 H 702.691 -1.2191 -3.8202 0
M  V30 7656 H 699.281 -2.5935 -3.41226 0
M  V30 7657 H 703.465 -3.57371 -3.44383 0
M  V30 7658 H 698.721 -4.98353 -3.54195 0
M  V30 7659 H 702.895 -5.96989 -3.58577 0
M  V30 7660 H 700.522 -6.67905 -3.63052 0
M  V30 7661 O 702.136 1.21979 -1.05846 0
M  V30 7662 H 702.827 1.79103 -0.73768 0
M  V30 END ATOM
M  V30 BEGIN BOND
M  V30 END BOND
M  V30 END CTAB
M  END
$$$$
