drugbank_target|Q9UBN7 Histone deacetylase 6 (DB02546; DB05223; DB06176; DB13346)
 OpenBabel12092120103D

  0  0  0     0  0            999 V3000
M  V30 BEGIN CTAB
M  V30 COUNTS 18168 18375 0 0 0
M  V30 BEGIN ATOM
M  V30 1 H -0.908 1.98254 -0.117106 0
M  V30 2 N 0 1.576 0 0
M  V30 3 C 0.933 2.03868 1.02534 0
M  V30 4 C 1.911 0.928543 1.3348 0
M  V30 5 O 3.095 1.19667 1.45644 0
M  V30 6 C 0.222 2.43627 2.35294 0
M  V30 7 C -0.732 3.65373 2.2001 0
M  V30 8 S 0.101 5.13292 1.52614 0
M  V30 9 C 1.257 5.56322 2.86805 0
M  V30 10 H 1.49 2.90518 0.631377 0
M  V30 11 H -0.977 1.52953 0.210867 0
M  V30 12 H 0.981 2.67203 3.11629 0
M  V30 13 H -0.358 1.57376 2.7183 0
M  V30 14 H -1.165 3.90944 3.18086 0
M  V30 15 H -1.563 3.418 1.51819 0
M  V30 16 H 0.729 5.58782 3.83104 0
M  V30 17 H 1.672 6.56266 2.65933 0
M  V30 18 H 2.08 4.83886 2.90714 0
M  V30 19 N 1.4781 -0.272755 1.55222 0
M  V30 20 C 2.7061 -1.02255 1.79865 0
M  V30 21 C 3.1211 -1.79924 0.572088 0
M  V30 22 O 2.4781 -1.76638 -0.458842 0
M  V30 23 C 2.5291 -1.98094 3.02392 0
M  V30 24 O 2.2501 -1.23572 4.20311 0
M  V30 25 C 3.7511 -2.84884 3.39641 0
M  V30 26 H 0.9711 -0.302057 0.599168 0
M  V30 27 H 3.5151 -0.303465 2.02236 0
M  V30 28 H 1.6701 -2.65465 2.82147 0
M  V30 29 H 2.0841 -1.88172 4.89583 0
M  V30 30 H 3.5581 -3.47927 4.28545 0
M  V30 31 H 4.0351 -3.54665 2.59055 0
M  V30 32 H 4.6411 -2.23003 3.62146 0
M  V30 33 N 2.9562 -1.48159 -0.537278 0
M  V30 34 C 4.1812 -1.59707 -1.32319 0
M  V30 35 C 4.6062 -0.254859 -1.86365 0
M  V30 36 O 3.9642 0.772378 -1.64024 0
M  V30 37 C 4.0122 -2.6412 -2.45505 0
M  V30 38 O 3.1162 -2.20774 -3.48328 0
M  V30 39 H 2.4572 -0.535791 -0.392204 0
M  V30 40 H 4.9872 -1.94092 -0.647268 0
M  V30 41 H 4.9972 -2.85166 -2.91795 0
M  V30 42 H 3.6722 -3.61567 -2.05528 0
M  V30 43 H 2.2492 -2.09911 -3.08207 0
M  V30 44 N 4.4343 0.785586 -1.36625 0
M  V30 45 C 5.6623 1.57448 -1.3423 0
M  V30 46 C 6.0773 1.88649 0.0755653 0
M  V30 47 O 5.4343 1.50414 1.03354 0
M  V30 48 C 5.4853 2.89316 -2.16745 0
M  V30 49 O 5.2063 2.59459 -3.53005 0
M  V30 50 C 6.7073 3.83606 -2.22174 0
M  V30 51 H 3.9273 0.488226 -0.4603 0
M  V30 52 H 6.4713 0.974733 -1.79775 0
M  V30 53 H 4.6263 3.4575 -1.74745 0
M  V30 54 H 5.0403 3.43804 -3.96105 0
M  V30 55 H 6.5143 4.73181 -2.8426 0
M  V30 56 H 6.9913 4.21734 -1.22627 0
M  V30 57 H 7.5973 3.33104 -2.64427 0
M  V30 58 N 5.9124 1.20967 1.01018 0
M  V30 59 C 7.1604 1.02172 1.74371 0
M  V30 60 C 7.4814 -0.446414 1.89821 0
M  V30 61 O 6.7514 -1.32234 1.44537 0
M  V30 62 H 5.3314 0.375066 0.646014 0
M  V30 63 H 7.9934 1.52187 1.21758 0
M  V30 64 H 7.0894 1.48538 2.74487 0
M  V30 65 N 7.3905 -1.2043 1.01659 0
M  V30 66 C 8.3225 -2.22626 0.544988 0
M  V30 67 C 9.3355 -1.58479 -0.372609 0
M  V30 68 O 10.5245 -1.77679 -0.170958 0
M  V30 69 C 7.6245 -3.38141 -0.22663 0
M  V30 70 C 6.7975 -4.31877 0.692876 0
M  V30 71 C 5.8565 -5.26191 -0.0311616 0
M  V30 72 O 4.8825 -5.6612 0.591343 0
M  V30 73 N 6.0845 -5.65618 -1.30601 0
M  V30 74 H 8.8495 -2.63716 1.42388 0
M  V30 75 H 6.4105 -1.34971 0.894116 0
M  V30 76 H 8.4025 -3.98239 -0.72024 0
M  V30 77 H 6.9725 -2.95943 -1.00681 0
M  V30 78 H 6.1925 -3.69746 1.36679 0
M  V30 79 H 7.4805 -4.91426 1.31824 0
M  V30 80 H 6.8785 -5.3519 -1.83269 0
M  V30 81 H 5.4355 -6.28025 -1.74435 0
M  V30 82 N 8.8686 -0.792821 -1.36206 0
M  V30 83 C 10.1456 -0.290627 -1.93429 0
M  V30 84 C 10.5256 1.21773 -1.72437 0
M  V30 85 O 9.8736 2.0108 -1.08531 0
M  V30 86 C 10.0836 -0.686973 -3.42172 0
M  V30 87 C 11.4316 -0.668643 -4.19302 0
M  V30 88 O 12.4556 -0.627658 -3.50626 0
M  V30 89 O 11.3146 -0.714597 -5.41808 0
M  V30 90 H 8.4086 -0.0727927 -0.82379 0
M  V30 91 H 10.9546 -0.875593 -1.45367 0
M  V30 92 H 9.7266 -1.72711 -3.51122 0
M  V30 93 H 9.3496 -0.0760733 -3.97527 0
M  V30 94 N 10.3467 1.47872 -0.545128 0
M  V30 95 C 11.5717 2.07391 -0.0190611 0
M  V30 96 C 11.9967 1.39688 1.25971 0
M  V30 97 O 11.3547 0.467816 1.7516 0
M  V30 98 C 11.4027 3.60188 0.172335 0
M  V30 99 O 10.5067 3.9339 1.23766 0
M  V30 100 H 9.8477 0.662411 -0.0459059 0
M  V30 101 H 12.3777 1.90066 -0.757365 0
M  V30 102 H 12.3877 4.06129 0.390305 0
M  V30 103 H 11.0627 4.08865 -0.761725 0
M  V30 104 H 9.6397 3.5921 1.00114 0
M  V30 105 N 11.8248 0.280983 1.55075 0
M  V30 106 C 13.0528 -0.337293 2.04132 0
M  V30 107 C 13.4678 -1.4903 1.15912 0
M  V30 108 O 12.8248 -1.81606 0.180459 0
M  V30 109 C 12.8758 -0.812706 3.52246 0
M  V30 110 O 12.5968 0.294387 4.3711 0
M  V30 111 C 14.0978 -1.4982 4.17216 0
M  V30 112 H 11.3178 -0.0761638 0.666663 0
M  V30 113 H 13.8618 0.414787 2.00249 0
M  V30 114 H 12.0168 -1.51486 3.56554 0
M  V30 115 H 12.4308 -0.0721325 5.2445 0
M  V30 116 H 13.9048 -1.7822 5.22438 0
M  V30 117 H 14.3818 -2.43168 3.65741 0
M  V30 118 H 14.9878 -0.839742 4.16927 0
M  V30 119 N 13.3029 -1.57598 0.00835791 0
M  V30 120 C 14.5309 -1.95214 -0.68549 0
M  V30 121 C 14.9459 -0.883706 -1.66841 0
M  V30 122 O 14.3029 0.136565 -1.81988 0
M  V30 123 C 14.3539 -3.32865 -1.41007 0
M  V30 124 O 14.0749 -4.35609 -0.466552 0
M  V30 125 C 15.5759 -3.84991 -2.19765 0
M  V30 126 H 12.7959 -0.643422 -0.190392 0
M  V30 127 H 15.3399 -2.04406 0.0619607 0
M  V30 128 H 13.4949 -3.24956 -2.10908 0
M  V30 129 H 13.9089 -5.15288 -0.978699 0
M  V30 130 H 15.3829 -4.8371 -2.65948 0
M  V30 131 H 15.8599 -3.18137 -3.02796 0
M  V30 132 H 16.4659 -3.96103 -1.54864 0
M  V30 133 N 14.781 0.264519 -1.55364 0
M  V30 134 C 16.009 1.013 -1.80405 0
M  V30 135 C 16.424 1.79618 -0.581622 0
M  V30 136 O 15.781 1.76879 0.449468 0
M  V30 137 C 15.832 1.96487 -3.03439 0
M  V30 138 O 15.553 1.21341 -4.20961 0
M  V30 139 C 17.054 2.83079 -3.41147 0
M  V30 140 H 14.274 0.298875 -0.600762 0
M  V30 141 H 16.818 0.292736 -2.02394 0
M  V30 142 H 14.973 2.63965 -2.83551 0
M  V30 143 H 15.387 1.85573 -4.90574 0
M  V30 144 H 16.861 3.4565 -4.30384 0
M  V30 145 H 17.338 3.53286 -2.60932 0
M  V30 146 H 17.944 2.2108 -3.63323 0
M  V30 147 N 16.2591 1.48442 0.529413 0
M  V30 148 C 17.6751 1.34575 0.858004 0
M  V30 149 C 17.8751 0.3572 1.98309 0
M  V30 150 O 16.9311 -0.221379 2.51528 0
M  V30 151 C 18.2441 2.74617 1.22499 0
M  V30 152 C 19.7921 2.83109 1.33484 0
M  V30 153 C 20.2671 4.23854 1.73526 0
M  V30 154 N 21.7581 4.2653 1.80628 0
M  V30 155 C 22.4931 5.32372 2.12997 0
M  V30 156 N 21.9891 6.48491 2.43786 0
M  V30 157 N 23.7821 5.19766 2.14008 0
M  V30 158 H 15.9331 2.1133 -0.212925 0
M  V30 159 H 18.1961 0.947439 -0.0326199 0
M  V30 160 H 17.9021 3.4852 0.471905 0
M  V30 161 H 17.7761 3.08177 2.17501 0
M  V30 162 H 20.1631 2.09462 2.0787 0
M  V30 163 H 20.2441 2.53168 0.366027 0
M  V30 164 H 19.8881 4.98018 0.997013 0
M  V30 165 H 19.8181 4.5124 2.71459 0
M  V30 166 H 22.3091 3.42772 1.59108 0
M  V30 167 H 22.6221 7.24993 2.67592 0
M  V30 168 H 20.9671 6.51765 2.41304 0
M  V30 169 H 24.1581 4.28066 1.89412 0
M  V30 170 H 24.3311 6.02354 2.38902 0
M  V30 171 N 17.7372 -0.778329 1.37039 0
M  V30 172 C 18.6692 -1.90034 1.2814 0
M  V30 173 C 19.6822 -1.61585 0.198558 0
M  V30 174 O 20.8712 -1.72625 0.454175 0
M  V30 175 C 17.9712 -3.25108 0.956968 0
M  V30 176 C 17.1442 -3.81253 2.14394 0
M  V30 177 C 16.2032 -4.94789 1.79082 0
M  V30 178 O 15.2292 -5.10721 2.51301 0
M  V30 179 N 16.4312 -5.75878 0.731043 0
M  V30 180 H 19.1962 -1.98186 2.24816 0
M  V30 181 H 16.7572 -0.957129 1.30578 0
M  V30 182 H 18.7492 -3.9857 0.701701 0
M  V30 183 H 17.3192 -3.125 0.0789812 0
M  V30 184 H 16.5392 -2.99647 2.56135 0
M  V30 185 H 17.8272 -4.15495 2.93668 0
M  V30 186 H 17.2252 -5.65547 0.131618 0
M  V30 187 H 15.7822 -6.49596 0.535622 0
M  V30 188 N 19.2153 -1.21501 -1.00376 0
M  V30 189 C 20.6313 -0.972629 -1.26539 0
M  V30 190 C 20.8313 0.340257 -1.98606 0
M  V30 191 O 19.8873 1.06561 -2.28913 0
M  V30 192 C 21.2003 -2.16404 -2.08781 0
M  V30 193 C 22.7483 -2.20643 -2.22004 0
M  V30 194 C 23.2233 -3.39306 -3.07629 0
M  V30 195 N 24.7143 -3.39401 -3.15217 0
M  V30 196 C 25.4493 -4.27867 -3.81729 0
M  V30 197 N 24.9453 -5.26533 -4.5026 0
M  V30 198 N 26.7383 -4.15672 -3.78382 0
M  V30 199 H 18.8893 -2.05929 -0.520281 0
M  V30 200 H 21.1523 -0.901803 -0.292328 0
M  V30 201 H 20.8583 -3.11554 -1.63178 0
M  V30 202 H 20.7323 -2.15567 -3.09533 0
M  V30 203 H 23.1193 -1.26048 -2.66825 0
M  V30 204 H 23.2003 -2.25523 -1.20718 0
M  V30 205 H 22.8443 -4.34195 -2.63509 0
M  V30 206 H 22.7743 -3.31665 -4.09031 0
M  V30 207 H 25.2653 -2.67997 -2.66432 0
M  V30 208 H 25.5783 -5.90337 -4.98721 0
M  V30 209 H 23.9233 -5.30457 -4.49044 0
M  V30 210 H 27.1143 -3.3785 -3.23998 0
M  V30 211 H 27.2873 -4.84825 -4.2994 0
M  V30 212 N 20.6934 1.19889 -1.02296 0
M  V30 213 C 22.1094 1.41462 -0.738954 0
M  V30 214 C 22.3094 1.89721 0.678846 0
M  V30 215 O 21.3654 2.07016 1.4457 0
M  V30 216 C 22.6784 2.43083 -1.77005 0
M  V30 217 C 24.2264 2.5684 -1.78892 0
M  V30 218 C 24.7014 3.61709 -2.80945 0
M  V30 219 N 26.1924 3.69199 -2.79725 0
M  V30 220 C 26.9274 4.50019 -3.55345 0
M  V30 221 N 26.4234 5.34592 -4.40662 0
M  V30 222 N 28.2164 4.44612 -3.43914 0
M  V30 223 H 20.3674 0.868827 -1.93817 0
M  V30 224 H 22.6304 0.44399 -0.837602 0
M  V30 225 H 22.3364 2.14636 -2.78612 0
M  V30 226 H 22.2104 3.4217 -1.58744 0
M  V30 227 H 24.5974 2.84614 -0.779674 0
M  V30 228 H 24.6784 1.57927 -2.01228 0
M  V30 229 H 24.3224 3.34678 -3.82038 0
M  V30 230 H 24.2524 4.60259 -2.5587 0
M  V30 231 H 26.7434 3.08794 -2.17842 0
M  V30 232 H 27.0564 5.93363 -4.95116 0
M  V30 233 H 25.4014 5.34073 -4.44737 0
M  V30 234 H 28.5924 3.7758 -2.76679 0
M  V30 235 H 28.7654 5.0736 -4.031 0
M  V30 236 N 22.1715 0.800033 1.35784 0
M  V30 237 C 23.3965 0.388511 2.03729 0
M  V30 238 C 23.8215 -0.990481 1.5991 0
M  V30 239 O 23.1795 -1.64013 0.772612 0
M  V30 240 C 23.2275 0.4726 3.5749 0
M  V30 241 O 22.3315 -0.51646 4.09153 0
M  V30 242 H 21.6725 0.163271 0.643614 0
M  V30 243 H 24.2025 1.0841 1.73518 0
M  V30 244 H 24.2125 0.34003 4.06581 0
M  V30 245 H 22.8875 1.47848 3.88734 0
M  V30 246 H 21.4645 -0.344673 3.71304 0
M  V30 247 N 23.6496 -1.47581 0.552962 0
M  V30 248 C 25.0656 -1.5818 0.212424 0
M  V30 249 C 25.2656 -1.55213 -1.28496 0
M  V30 250 O 24.3216 -1.45329 -2.06484 0
M  V30 251 C 25.6346 -2.88865 0.835318 0
M  V30 252 C 27.1826 -3.0244 0.806156 0
M  V30 253 C 27.6576 -4.35819 1.40804 0
M  V30 254 N 29.1486 -4.42444 1.37103 0
M  V30 255 C 29.8836 -5.44202 1.80641 0
M  V30 256 N 29.3796 -6.52795 2.32015 0
M  V30 257 N 31.1726 -5.35222 1.71738 0
M  V30 258 H 23.3236 -1.47753 1.52587 0
M  V30 259 H 25.5866 -0.702941 0.636064 0
M  V30 260 H 25.2926 -2.9676 1.88749 0
M  V30 261 H 25.1666 -3.7579 0.325848 0
M  V30 262 H 27.5536 -2.94144 -0.237317 0
M  V30 263 H 27.6346 -2.17068 1.35334 0
M  V30 264 H 27.2786 -4.44871 2.45056 0
M  V30 265 H 27.2086 -5.19916 0.836338 0
M  V30 266 H 29.6996 -3.6456 0.995202 0
M  V30 267 H 30.0126 -7.26609 2.63171 0
M  V30 268 H 28.3576 -6.53696 2.36023 0
M  V30 269 H 31.5486 -4.49284 1.31382 0
M  V30 270 H 31.7216 -6.14389 2.05987 0
M  V30 271 N 25.1277 -0.289203 -1.54924 0
M  V30 272 C 26.0597 0.625583 -2.20497 0
M  V30 273 C 27.0727 1.10667 -1.19402 0
M  V30 274 O 28.2617 1.02615 -1.46056 0
M  V30 275 C 25.3617 1.86702 -2.82835 0
M  V30 276 C 24.5347 1.5304 -4.09753 0
M  V30 277 C 23.5937 2.62576 -4.56005 0
M  V30 278 O 22.6197 2.28167 -5.21468 0
M  V30 279 N 23.8217 3.92901 -4.27328 0
M  V30 280 H 26.5867 0.0642801 -2.99631 0
M  V30 281 H 24.1477 -0.110896 -1.6152 0
M  V30 282 H 26.1397 2.59304 -3.10715 0
M  V30 283 H 24.7097 2.33702 -2.07611 0
M  V30 284 H 23.9297 0.637564 -3.8901 0
M  V30 285 H 25.2177 1.28072 -4.92418 0
M  V30 286 H 24.6157 4.23671 -3.74859 0
M  V30 287 H 23.1727 4.61837 -4.59946 0
M  V30 288 N 26.6058 1.57591 -0.0167156 0
M  V30 289 C 27.5538 2.10604 0.987353 0
M  V30 290 C 28.5478 1.02977 1.34507 0
M  V30 291 O 29.7538 1.21425 1.32875 0
M  V30 292 H 26.1288 0.672695 0.336134 0
M  V30 293 H 28.0998 2.93925 0.514817 0
M  V30 294 C 26.8488 2.6382 2.26483 0
M  V30 295 H 26.1718 3.46278 1.99829 0
M  V30 296 H 27.6118 3.04573 2.94977 0
M  V30 297 C 26.0708 1.55992 2.9861 0
M  V30 298 O 26.6008 0.952521 3.90243 0
M  V30 299 N 24.8068 1.28335 2.60727 0
M  V30 300 H 24.3538 1.77914 1.86291 0
M  V30 301 H 24.3118 0.564115 3.09298 0
M  V30 302 N 28.0839 -0.256276 1.55502 0
M  V30 303 C 29.4949 -0.826068 1.67431 0
M  V30 304 C 29.8459 -1.86396 0.612446 0
M  V30 305 O 28.9709 -2.15031 -0.243025 0
M  V30 306 C 29.5659 -1.50512 3.03532 0
M  V30 307 C 28.1249 -2.02273 3.17431 0
M  V30 308 C 27.2719 -0.870548 2.63281 0
M  V30 309 H 30.2229 -0.0322728 1.58667 0
M  V30 310 H 30.2439 -2.37279 2.97454 0
M  V30 311 H 29.7559 -0.749484 3.80794 0
M  V30 312 H 27.8569 -2.80746 2.44974 0
M  V30 313 H 27.9699 -2.22655 4.24219 0
M  V30 314 H 26.3339 -1.26851 2.20864 0
M  V30 315 H 27.1169 -0.128149 3.43061 0
M  V30 316 N 29.562 -1.4872 -0.521534 0
M  V30 317 C 30.494 -1.59968 -1.64143 0
M  V30 318 C 31.507 -0.483463 -1.55456 0
M  V30 319 O 32.696 -0.75467 -1.61762 0
M  V30 320 C 29.796 -1.52127 -3.02838 0
M  V30 321 C 28.969 -2.78932 -3.36921 0
M  V30 322 C 28.028 -2.64428 -4.54933 0
M  V30 323 O 27.054 -3.38331 -4.57735 0
M  V30 324 N 28.256 -1.74606 -5.53618 0
M  V30 325 H 31.021 -2.56548 -1.54929 0
M  V30 326 H 28.582 -1.45551 -0.708988 0
M  V30 327 H 30.574 -1.40106 -3.79674 0
M  V30 328 H 29.144 -0.634868 -3.06085 0
M  V30 329 H 28.364 -3.05455 -2.4918 0
M  V30 330 H 29.652 -3.63041 -3.56481 0
M  V30 331 H 29.05 -1.13782 -5.54139 0
M  V30 332 H 27.607 -1.6852 -6.29638 0
M  V30 333 N 31.0401 0.771051 -1.3745 0
M  V30 334 C 32.2651 1.56529 -1.36065 0
M  V30 335 C 32.6901 1.88029 0.0515859 0
M  V30 336 O 32.0481 1.49282 1.02882 0
M  V30 337 C 32.0961 2.85187 -2.20683 0
M  V30 338 O 31.2001 3.79593 -1.61193 0
M  V30 339 H 30.5411 0.47411 -0.464883 0
M  V30 340 H 33.0711 0.954269 -1.80983 0
M  V30 341 H 33.0811 3.34283 -2.33921 0
M  V30 342 H 31.7561 2.61588 -3.23334 0
M  V30 343 H 30.3331 3.38239 -1.56999 0
M  V30 344 N 32.5182 1.22032 0.997298 0
M  V30 345 C 33.9292 1.0397 1.55071 0
M  V30 346 C 34.2802 -0.398192 1.92117 0
M  V30 347 O 33.4052 -1.28254 1.74298 0
M  V30 348 C 34.0002 1.88109 2.81781 0
M  V30 349 C 32.5592 1.74357 3.33581 0
M  V30 350 C 31.7062 1.84846 2.06706 0
M  V30 351 H 34.6572 1.35941 0.818883 0
M  V30 352 H 34.6782 1.39589 3.53971 0
M  V30 353 H 34.1902 2.92754 2.54787 0
M  V30 354 H 32.2912 0.72427 3.65493 0
M  V30 355 H 32.4042 2.56772 4.04481 0
M  V30 356 H 30.7682 1.28238 2.20062 0
M  V30 357 H 31.5512 2.91014 1.82114 0
M  V30 358 N 33.9963 -1.19345 1.0293 0
M  V30 359 C 35.4073 -1.70725 0.755633 0
M  V30 360 C 35.7583 -1.82326 -0.724676 0
M  V30 361 O 34.8833 -1.49471 -1.56484 0
M  V30 362 C 35.4783 -3.10084 1.36503 0
M  V30 363 C 34.0373 -3.58723 1.13994 0
M  V30 364 C 33.1843 -2.35577 1.46283 0
M  V30 365 H 36.1353 -1.0418 1.19718 0
M  V30 366 H 36.1563 -3.72787 0.762217 0
M  V30 367 H 35.6683 -3.01609 2.44241 0
M  V30 368 H 33.7693 -3.72512 0.0807901 0
M  V30 369 H 33.8823 -4.42816 1.82894 0
M  V30 370 H 32.2463 -2.38935 0.88217 0
M  V30 371 H 33.0293 -2.29731 2.55105 0
M  V30 372 N 35.4744 -0.807222 -1.35358 0
M  V30 373 C 36.4064 -0.175717 -2.28525 0
M  V30 374 C 37.4194 0.625354 -1.5031 0
M  V30 375 O 38.6084 0.457611 -1.72535 0
M  V30 376 C 35.7084 0.773471 -3.29956 0
M  V30 377 C 34.8814 0.0186296 -4.37396 0
M  V30 378 C 33.9404 0.886395 -5.18681 0
M  V30 379 O 32.9664 0.337106 -5.68201 0
M  V30 380 N 34.1684 2.20839 -5.36852 0
M  V30 381 H 36.9334 -0.976091 -2.83359 0
M  V30 382 H 34.4944 -0.662737 -1.47714 0
M  V30 383 H 36.4864 1.35824 -3.81227 0
M  V30 384 H 35.0564 1.47465 -2.75632 0
M  V30 385 H 34.2764 -0.747349 -3.87051 0
M  V30 386 H 35.5644 -0.501577 -5.06322 0
M  V30 387 H 34.9624 2.67858 -4.98265 0
M  V30 388 H 33.5194 2.74237 -5.91301 0
M  V30 389 N 36.9525 1.47285 -0.560781 0
M  V30 390 C 38.2295 1.9558 0.0277798 0
M  V30 391 C 38.6095 1.5034 1.48192 0
M  V30 392 O 37.9575 0.743882 2.16052 0
M  V30 393 C 38.1675 3.48789 -0.121418 0
M  V30 394 C 39.5155 4.24594 0.0220912 0
M  V30 395 O 40.5395 3.56166 -0.0491439 0
M  V30 396 O 39.3985 5.46217 0.175958 0
M  V30 397 H 36.4925 0.824663 0.0621342 0
M  V30 398 H 39.0385 1.5767 -0.627556 0
M  V30 399 H 37.8105 3.74533 -1.13316 0
M  V30 400 H 37.4335 3.93473 0.571366 0
M  V30 401 N 38.4306 0.297415 1.54768 0
M  V30 402 C 39.6556 -0.318435 2.04941 0
M  V30 403 C 40.0806 -1.4701 1.17345 0
M  V30 404 O 39.4386 -1.80436 0.176758 0
M  V30 405 C 39.4866 -0.755749 3.52592 0
M  V30 406 O 38.5906 -1.86088 3.68028 0
M  V30 407 H 37.9316 -0.062421 0.661059 0
M  V30 408 H 40.4616 0.438215 1.99852 0
M  V30 409 H 40.4716 -1.04552 3.94376 0
M  V30 410 H 39.1466 0.0867233 4.1581 0
M  V30 411 H 37.7236 -1.57193 3.38149 0
M  V30 412 N 39.9087 -1.5758 0.0250728 0
M  V30 413 C 41.1337 -1.96337 -0.668317 0
M  V30 414 C 41.5587 -0.901314 -1.651 0
M  V30 415 O 40.9167 0.138187 -1.80773 0
M  V30 416 C 40.9647 -3.34191 -1.35457 0
M  V30 417 O 40.0687 -3.30269 -2.46974 0
M  V30 418 H 39.4097 -0.640281 -0.175887 0
M  V30 419 H 41.9397 -2.0442 0.0857224 0
M  V30 420 H 41.9497 -3.70331 -1.71228 0
M  V30 421 H 40.6247 -4.11036 -0.634218 0
M  V30 422 H 39.2017 -3.05841 -2.13344 0
M  V30 423 N 41.3868 0.248026 -1.55636 0
M  V30 424 C 42.6328 0.97767 -1.77678 0
M  V30 425 C 42.9658 1.85016 -0.590135 0
M  V30 426 O 42.2408 1.90095 0.411611 0
M  V30 427 C 42.5238 1.83914 -3.09593 0
M  V30 428 C 42.3768 0.99491 -4.38659 0
M  V30 429 C 43.6958 2.82183 -3.37729 0
M  V30 430 H 40.8148 0.354005 -0.646413 0
M  V30 431 H 43.4568 0.248253 -1.88371 0
M  V30 432 H 41.6068 2.46104 -3.00608 0
M  V30 433 H 43.2788 0.391789 -4.59633 0
M  V30 434 H 41.5218 0.299231 -4.32767 0
M  V30 435 H 42.1928 1.63145 -5.2734 0
M  V30 436 H 44.6688 2.30129 -3.4667 0
M  V30 437 H 43.5448 3.39582 -4.31249 0
M  V30 438 H 43.8058 3.58588 -2.58586 0
M  V30 439 N 42.8649 1.48995 0.513639 0
M  V30 440 C 44.0929 1.61531 1.29288 0
M  V30 441 C 44.5079 0.281801 1.86685 0
M  V30 442 O 43.8649 -0.731111 1.67215 0
M  V30 443 C 43.9159 2.67449 2.43215 0
M  V30 444 O 43.6369 3.95626 1.88179 0
M  V30 445 C 45.1379 2.90575 3.34785 0
M  V30 446 H 42.3579 0.544165 0.392588 0
M  V30 447 H 44.9019 1.9494 0.617956 0
M  V30 448 H 43.0569 2.36853 3.0656 0
M  V30 449 H 43.4709 4.53868 2.62876 0
M  V30 450 H 44.9449 3.68449 4.11035 0
M  V30 451 H 45.4219 2.00011 3.91015 0
M  V30 452 H 46.0279 3.22538 2.77218 0
M  V30 453 N 44.343 -0.763751 1.37857 0
M  V30 454 C 45.568 -1.55805 1.36893 0
M  V30 455 C 45.993 -1.88054 -0.0416135 0
M  V30 456 O 45.351 -1.49825 -1.02089 0
M  V30 457 C 45.399 -2.84012 2.22192 0
M  V30 458 O 44.503 -3.78732 1.63204 0
M  V30 459 H 43.844 -0.471638 0.46739 0
M  V30 460 H 46.374 -0.944657 1.81487 0
M  V30 461 H 46.384 -3.33037 2.35691 0
M  V30 462 H 45.059 -2.59869 3.24716 0
M  V30 463 H 43.636 -3.37402 1.58791 0
M  V30 464 N 45.8211 -1.22559 -0.990812 0
M  V30 465 C 46.7681 -0.997519 -2.0813 0
M  V30 466 C 47.7381 0.0814702 -1.659 0
M  V30 467 O 48.9231 -0.0685424 -1.90677 0
M  V30 468 C 46.0631 -0.583615 -3.40129 0
M  V30 469 C 45.1761 -1.7336 -3.9569 0
M  V30 470 C 44.3111 -1.26748 -5.15857 0
M  V30 471 C 43.3501 -2.38888 -5.63559 0
M  V30 472 N 42.4871 -1.93308 -6.74964 0
M  V30 473 H 47.3271 -1.93099 -2.26973 0
M  V30 474 H 44.8641 -0.962114 -1.11273 0
M  V30 475 H 46.8221 -0.324801 -4.15934 0
M  V30 476 H 45.4521 0.312845 -3.2128 0
M  V30 477 H 44.5041 -2.10669 -3.16738 0
M  V30 478 H 45.8161 -2.57704 -4.27071 0
M  V30 479 H 44.9701 -0.966173 -5.98957 0
M  V30 480 H 43.7091 -0.394272 -4.86104 0
M  V30 481 H 42.7141 -2.69805 -4.79046 0
M  V30 482 H 43.9391 -3.26728 -5.95336 0
M  V30 483 H 41.8851 -1.08352 -6.4699 0
M  V30 484 H 41.8021 -2.71217 -7.05675 0
M  V30 485 H 43.0701 -1.66252 -7.61564 0
M  V30 486 N 47.2992 1.18797 -1.03562 0
M  V30 487 C 48.7152 1.40671 -0.753917 0
M  V30 488 C 48.9152 1.9043 0.658686 0
M  V30 489 O 47.9712 2.08538 1.42366 0
M  V30 490 C 49.2842 2.41192 -1.79574 0
M  V30 491 C 50.8322 2.54928 -1.81606 0
M  V30 492 C 51.3072 3.58709 -2.84766 0
M  V30 493 N 52.7982 3.66212 -2.83625 0
M  V30 494 C 53.5332 4.46225 -3.60098 0
M  V30 495 N 53.0292 5.29888 -4.46308 0
M  V30 496 N 54.8222 4.40939 -3.4861 0
M  V30 497 H 46.9732 0.848221 -1.94728 0
M  V30 498 H 49.2362 0.435081 -0.842264 0
M  V30 499 H 48.9422 2.11669 -2.80872 0
M  V30 500 H 48.8162 3.40467 -1.62365 0
M  V30 501 H 51.2032 2.83771 -0.809817 0
M  V30 502 H 51.2842 1.55784 -2.02891 0
M  V30 503 H 50.9282 3.30607 -3.85566 0
M  V30 504 H 50.8582 4.57519 -2.60737 0
M  V30 505 H 53.3492 3.06466 -2.21105 0
M  V30 506 H 53.6622 5.88078 -5.01382 0
M  V30 507 H 52.0072 5.29326 -4.50377 0
M  V30 508 H 55.1982 3.74624 -2.80668 0
M  V30 509 H 55.3712 5.03056 -4.08459 0
M  V30 510 N 48.7773 0.814389 1.34928 0
M  V30 511 C 49.7253 0.218424 2.31572 0
M  V30 512 C 50.7193 -0.636128 1.57002 0
M  V30 513 O 51.9253 -0.52842 1.72069 0
M  V30 514 H 48.3003 0.0518799 0.750208 0
M  V30 515 H 50.2713 1.04852 2.79372 0
M  V30 516 C 49.0203 -0.61207 3.4227 0
M  V30 517 H 48.3433 0.0361578 3.99784 0
M  V30 518 H 49.7833 -0.995317 4.12152 0
M  V30 519 C 48.2423 -1.78087 2.85984 0
M  V30 520 O 48.7723 -2.8787 2.80168 0
M  V30 521 N 46.9783 -1.59488 2.42924 0
M  V30 522 H 46.5253 -0.701874 2.47854 0
M  V30 523 H 46.4833 -2.37846 2.05613 0
M  V30 524 N 50.2554 -1.46986 0.568584 0
M  V30 525 C 51.5044 -2.01646 0.0465894 0
M  V30 526 C 51.8174 -1.44721 -1.31587 0
M  V30 527 O 53.0234 -1.91113 -1.92842 0
M  V30 528 C 51.4794 -3.59885 0.032752 0
M  V30 529 C 51.0874 -4.25804 1.39266 0
M  V30 530 C 52.8314 -4.22255 -0.436038 0
M  V30 531 C 50.7384 -5.76081 1.33732 0
M  V30 532 H 49.6684 -0.753876 0.013647 0
M  V30 533 H 52.3194 -1.68864 0.718131 0
M  V30 534 H 50.7014 -3.8968 -0.704669 0
M  V30 535 H 51.8754 -4.07637 2.1487 0
M  V30 536 H 50.1904 -3.7547 1.80032 0
M  V30 537 H 52.7874 -5.32394 -0.49602 0
M  V30 538 H 53.1304 -3.90212 -1.45053 0
M  V30 539 H 53.6634 -3.97033 0.246877 0
M  V30 540 H 50.4024 -6.12761 2.32817 0
M  V30 541 H 49.9224 -5.96553 0.623267 0
M  V30 542 H 51.6014 -6.38518 1.0442 0
M  V30 543 N 51.7335 -0.305618 -1.54608 0
M  V30 544 C 52.6805 0.568421 -2.23691 0
M  V30 545 C 53.6505 1.12592 -1.22116 0
M  V30 546 O 54.8355 1.16959 -1.50749 0
M  V30 547 C 51.9755 1.7322 -2.98477 0
M  V30 548 C 51.0885 1.20566 -4.14835 0
M  V30 549 C 50.2235 2.33368 -4.77193 0
M  V30 550 C 49.2625 1.7787 -5.85686 0
M  V30 551 N 48.3995 2.84263 -6.4198 0
M  V30 552 H 53.2395 -0.0272867 -2.97988 0
M  V30 553 H 50.7765 -0.0252363 -1.47078 0
M  V30 554 H 52.7345 2.41675 -3.40072 0
M  V30 555 H 51.3645 2.29947 -2.26548 0
M  V30 556 H 50.4165 0.413223 -3.78149 0
M  V30 557 H 51.7285 0.759417 -4.92985 0
M  V30 558 H 50.8825 3.09761 -5.21664 0
M  V30 559 H 49.6215 2.8132 -3.98385 0
M  V30 560 H 48.6265 0.99968 -5.40635 0
M  V30 561 H 49.8515 1.30816 -6.66381 0
M  V30 562 H 47.7975 3.31541 -5.66053 0
M  V30 563 H 47.7145 2.44149 -7.15491 0
M  V30 564 H 48.9825 3.6054 -6.91109 0
M  V30 565 N 53.2116 1.57565 -0.0334293 0
M  V30 566 C 54.1586 2.10478 0.946981 0
M  V30 567 C 55.1286 1.00787 1.32027 0
M  V30 568 O 56.3136 1.28232 1.41284 0
M  V30 569 C 53.4536 2.63994 2.22263 0
M  V30 570 C 52.5666 3.87709 1.90541 0
M  V30 571 C 51.7016 4.29604 3.12433 0
M  V30 572 C 50.7406 5.46065 2.76549 0
M  V30 573 N 49.8776 5.83096 3.9108 0
M  V30 574 H 54.7176 2.93963 0.488846 0
M  V30 575 H 52.2546 1.45296 0.22969 0
M  V30 576 H 54.2126 2.93114 2.96884 0
M  V30 577 H 52.8426 1.83333 2.65685 0
M  V30 578 H 51.8946 3.65291 1.06144 0
M  V30 579 H 53.2066 4.72403 1.60116 0
M  V30 580 H 52.3606 4.60182 3.9537 0
M  V30 581 H 51.0996 3.43685 3.46023 0
M  V30 582 H 50.1046 5.15176 1.92026 0
M  V30 583 H 51.3296 6.33685 2.44171 0
M  V30 584 H 49.2756 5.00132 4.24504 0
M  V30 585 H 49.1926 6.6244 3.64293 0
M  V30 586 H 50.4606 6.18282 4.74708 0
M  V30 587 N 54.6897 -0.239769 1.55765 0
M  V30 588 C 55.9377 -0.964892 1.77579 0
M  V30 589 C 56.2587 -1.85582 0.598699 0
M  V30 590 O 55.5287 -1.92075 -0.385226 0
M  V30 591 H 54.1087 -0.359265 0.654933 0
M  V30 592 H 56.7707 -0.256001 1.93211 0
M  V30 593 H 55.8667 -1.58243 2.69009 0
M  V30 594 N 56.1678 -1.49265 -0.50573 0
M  V30 595 C 57.1308 -1.65075 -1.59006 0
M  V30 596 C 58.1308 -0.522768 -1.52065 0
M  V30 597 O 59.3208 -0.789117 -1.55302 0
M  V30 598 C 56.4528 -1.64369 -2.98656 0
M  V30 599 H 57.6458 -2.61784 -1.46319 0
M  V30 600 H 55.1988 -1.38226 -0.729616 0
M  V30 601 H 55.9338 -0.692272 -3.16825 0
M  V30 602 H 55.7188 -2.46282 -3.05103 0
M  V30 603 H 57.2088 -1.78674 -3.77446 0
M  V30 604 N 57.6459 0.756429 -1.3826 0
M  V30 605 C 58.8919 1.51772 -1.34511 0
M  V30 606 C 59.2249 1.94089 0.0656691 0
M  V30 607 O 58.4999 1.65221 1.02626 0
M  V30 608 C 58.7829 2.77226 -2.29821 0
M  V30 609 C 58.6359 2.41065 -3.79747 0
M  V30 610 C 59.9549 3.79236 -2.23312 0
M  V30 611 H 57.0739 0.550578 -0.489931 0
M  V30 612 H 59.7159 0.866607 -1.69086 0
M  V30 613 H 57.8659 3.32784 -2.00467 0
M  V30 614 H 59.5379 1.91303 -4.19763 0
M  V30 615 H 57.7809 1.7356 -3.97567 0
M  V30 616 H 58.4519 3.3081 -4.41892 0
M  V30 617 H 60.9279 3.3321 -2.49219 0
M  V30 618 H 59.8039 4.64714 -2.92116 0
M  V30 619 H 60.0649 4.24615 -1.23102 0
M  V30 620 N 59.124 1.23083 0.984299 0
M  V30 621 C 60.535 1.05609 1.5396 0
M  V30 622 C 60.886 -0.377793 1.92528 0
M  V30 623 O 60.011 -1.26398 1.75649 0
M  V30 624 C 60.606 1.91087 2.7977 0
M  V30 625 C 59.165 1.77885 3.31713 0
M  V30 626 C 58.312 1.87028 2.04733 0
M  V30 627 H 61.263 1.36802 0.804419 0
M  V30 628 H 61.284 1.43336 3.5247 0
M  V30 629 H 60.796 2.9544 2.51668 0
M  V30 630 H 58.897 0.762995 3.64704 0
M  V30 631 H 59.01 2.61047 4.01735 0
M  V30 632 H 57.374 1.30565 2.18689 0
M  V30 633 H 58.157 2.92929 1.79017 0
M  V30 634 N 60.6021 -1.18246 1.0419 0
M  V30 635 C 62.0181 -1.40269 0.761366 0
M  V30 636 C 62.2181 -1.90777 -0.648578 0
M  V30 637 O 61.2741 -2.0929 -1.41258 0
M  V30 638 C 62.5871 -2.40237 1.8085 0
M  V30 639 C 64.1351 -2.53961 1.82955 0
M  V30 640 C 64.6101 -3.57194 2.86664 0
M  V30 641 N 66.1011 -3.64702 2.85563 0
M  V30 642 C 66.8361 -4.44309 3.6246 0
M  V30 643 N 66.3321 -5.27514 4.49111 0
M  V30 644 N 68.1251 -4.39084 3.50944 0
M  V30 645 H 60.2761 -0.837882 1.95175 0
M  V30 646 H 62.5391 -0.430608 0.84456 0
M  V30 647 H 62.2451 -2.10176 2.81991 0
M  V30 648 H 62.1191 -3.39601 1.64168 0
M  V30 649 H 64.5061 -2.83338 0.824855 0
M  V30 650 H 64.5871 -1.54706 2.03715 0
M  V30 651 H 64.2311 -3.28558 3.87314 0
M  V30 652 H 64.1611 -4.5613 2.6316 0
M  V30 653 H 66.6521 -3.05289 2.22727 0
M  V30 654 H 66.9651 -5.85411 5.04493 0
M  V30 655 H 65.3101 -5.2693 4.53178 0
M  V30 656 H 68.5011 -3.7313 2.82651 0
M  V30 657 H 68.6741 -5.00883 4.11121 0
M  V30 658 N 62.0802 -0.821533 -1.34494 0
M  V30 659 C 63.3052 -0.420873 -2.03085 0
M  V30 660 C 63.7302 0.964915 -1.61465 0
M  V30 661 O 63.0882 1.62763 -0.798607 0
M  V30 662 C 63.1362 -0.529414 -3.56693 0
M  V30 663 O 62.2402 0.451302 -4.09923 0
M  V30 664 H 61.5812 -0.173489 -0.640935 0
M  V30 665 H 64.1112 -1.11157 -1.71771 0
M  V30 666 H 64.1212 -0.404671 -4.05988 0
M  V30 667 H 62.7962 -1.54014 -3.86332 0
M  V30 668 H 61.3732 0.285558 -3.71805 0
M  V30 669 N 63.5583 1.46682 -0.576371 0
M  V30 670 C 64.8073 2.01619 -0.0572825 0
M  V30 671 C 65.1203 1.45417 1.30818 0
M  V30 672 O 66.3263 1.92133 1.91825 0
M  V30 673 C 64.7823 3.59863 -0.0518371 0
M  V30 674 C 64.3903 4.25059 -1.41523 0
M  V30 675 C 66.1343 4.2248 0.413639 0
M  V30 676 C 64.0413 5.75364 -1.36785 0
M  V30 677 H 62.9713 0.753794 -0.0176448 0
M  V30 678 H 65.6223 1.68481 -0.727076 0
M  V30 679 H 64.0043 3.90048 0.683994 0
M  V30 680 H 65.1783 4.06491 -2.17029 0
M  V30 681 H 63.4933 3.7451 -1.8202 0
M  V30 682 H 66.0903 5.3265 0.467779 0
M  V30 683 H 66.4333 3.90976 1.42982 0
M  V30 684 H 66.9663 3.96897 -0.267929 0
M  V30 685 H 63.7053 6.11518 -2.36063 0
M  V30 686 H 63.2253 5.96214 -0.654895 0
M  V30 687 H 64.9043 6.37955 -1.07805 0
M  V30 688 N 65.0364 0.313813 1.54444 0
M  V30 689 C 66.4474 -0.176243 1.85866 0
M  V30 690 C 66.7984 -1.52405 1.23561 0
M  V30 691 O 65.9234 -2.09605 0.538016 0
M  V30 692 C 66.5184 -0.32657 3.37222 0
M  V30 693 C 65.0774 -0.760846 3.6863 0
M  V30 694 C 64.2244 0.123247 2.77026 0
M  V30 695 H 67.1754 0.534418 1.49431 0
M  V30 696 H 67.1964 -1.15908 3.62416 0
M  V30 697 H 66.7084 0.654531 3.82541 0
M  V30 698 H 64.8094 -1.75204 3.28838 0
M  V30 699 H 64.9224 -0.571353 4.75681 0
M  V30 700 H 63.2864 -0.399597 2.51546 0
M  V30 701 H 64.0694 1.10094 3.25168 0
M  V30 702 N 66.5145 -1.57545 0.0417849 0
M  V30 703 C 67.4625 -2.12148 -0.953723 0
M  V30 704 C 68.4565 -1.05104 -1.32852 0
M  V30 705 O 69.6625 -1.23524 -1.30927 0
M  V30 706 H 66.0375 -0.677957 -0.325389 0
M  V30 707 H 68.0085 -2.94707 -0.467991 0
M  V30 708 C 66.7575 -2.6739 -2.22257 0
M  V30 709 H 66.0805 -3.49413 -1.94295 0
M  V30 710 H 67.5205 -3.09227 -2.90094 0
M  V30 711 C 65.9795 -1.60723 -2.96091 0
M  V30 712 O 66.5095 -1.01449 -3.88679 0
M  V30 713 N 64.7155 -1.32466 -2.58652 0
M  V30 714 H 64.2625 -1.80856 -1.83437 0
M  V30 715 H 64.2205 -0.61325 -3.08361 0
M  V30 716 N 67.9926 0.231505 -1.5589 0
M  V30 717 C 68.9226 1.29022 -1.94617 0
M  V30 718 C 69.9036 1.4941 -0.813067 0
M  V30 719 O 71.0886 1.6176 -1.07459 0
M  V30 720 C 68.2186 2.64199 -2.25424 0
M  V30 721 C 67.1726 2.58484 -3.41131 0
M  V30 722 C 66.4986 3.97599 -3.57518 0
M  V30 723 C 67.7986 2.1413 -4.76388 0
M  V30 724 H 69.4926 0.968563 -2.83301 0
M  V30 725 H 67.0386 0.464479 -1.36303 0
M  V30 726 H 68.9916 3.38413 -2.51107 0
M  V30 727 H 67.7156 2.98032 -1.33583 0
M  V30 728 H 66.3746 1.86727 -3.15481 0
M  V30 729 H 66.0226 4.28723 -2.6307 0
M  V30 730 H 65.7226 3.94659 -4.35337 0
M  V30 731 H 67.2466 4.7349 -3.85538 0
M  V30 732 H 68.6606 2.78083 -5.01341 0
M  V30 733 H 67.0576 2.2227 -5.57419 0
M  V30 734 H 68.1276 1.09331 -4.72414 0
M  V30 735 N 69.4707 1.49531 0.497807 0
M  V30 736 C 70.4337 1.65916 1.58128 0
M  V30 737 C 71.4337 0.530825 1.51786 0
M  V30 738 O 72.6237 0.797342 1.54881 0
M  V30 739 C 69.7557 1.65951 2.9778 0
M  V30 740 H 70.9487 2.62556 1.44929 0
M  V30 741 H 68.5017 1.38611 0.722275 0
M  V30 742 H 69.2367 0.709065 3.16453 0
M  V30 743 H 69.0217 2.47897 3.03792 0
M  V30 744 H 70.5117 1.80673 3.76493 0
M  V30 745 N 70.9488 -0.749086 1.3866 0
M  V30 746 C 71.8588 -1.89358 1.38494 0
M  V30 747 C 72.8748 -1.71708 0.281476 0
M  V30 748 O 74.0508 -1.94554 0.520643 0
M  V30 749 C 71.1158 -3.24782 1.21316 0
M  V30 750 C 70.1768 -3.54926 2.41508 0
M  V30 751 C 69.4098 -4.83888 2.2514 0
M  V30 752 O 69.6328 -5.56592 1.24746 0
M  V30 753 O 68.5668 -5.13612 3.13826 0
M  V30 754 H 72.3928 -1.92452 2.34938 0
M  V30 755 H 69.9778 -0.894981 1.19626 0
M  V30 756 H 71.8598 -4.05739 1.13814 0
M  V30 757 H 70.5348 -3.2249 0.279592 0
M  V30 758 H 69.4418 -2.74112 2.54585 0
M  V30 759 H 70.7748 -3.61983 3.3351 0
M  V30 760 N 72.4269 -1.23603 -0.977757 0
M  V30 761 C 73.6729 -1.07129 -1.72195 0
M  V30 762 C 74.0059 0.390501 -1.90233 0
M  V30 763 O 73.2809 1.28902 -1.45653 0
M  V30 764 C 73.5639 -1.80031 -3.11867 0
M  V30 765 C 73.4169 -3.33899 -3.01383 0
M  V30 766 C 74.7359 -1.56492 -4.11337 0
M  V30 767 H 71.8549 -0.390571 -0.624999 0
M  V30 768 H 74.4969 -1.52142 -1.13811 0
M  V30 769 H 72.6469 -1.41768 -3.6171 0
M  V30 770 H 74.3189 -3.81699 -2.59043 0
M  V30 771 H 72.5619 -3.62796 -2.37827 0
M  V30 772 H 73.2329 -3.801 -4.00285 0
M  V30 773 H 75.7089 -1.89757 -3.70313 0
M  V30 774 H 74.5849 -2.09973 -5.07151 0
M  V30 775 H 74.8459 -0.500874 -4.39254 0
M  V30 776 N 73.905 1.17692 -1.04816 0
M  V30 777 C 74.852 2.21581 -0.645797 0
M  V30 778 C 75.822 1.62367 0.350159 0
M  V30 779 O 77.007 1.89254 0.242433 0
M  V30 780 C 74.147 3.45092 -0.0227568 0
M  V30 781 C 73.26 4.18613 -1.06709 0
M  V30 782 C 72.395 5.29602 -0.411767 0
M  V30 783 C 71.434 5.94904 -1.44067 0
M  V30 784 N 70.571 6.97414 -0.809781 0
M  V30 785 H 75.411 2.55353 -1.5362 0
M  V30 786 H 72.948 1.25438 -0.768364 0
M  V30 787 H 74.906 4.15679 0.35588 0
M  V30 788 H 73.536 3.11917 0.831122 0
M  V30 789 H 72.588 3.46779 -1.5636 0
M  V30 790 H 73.9 4.63293 -1.84827 0
M  V30 791 H 73.054 6.06696 0.0206623 0
M  V30 792 H 71.793 4.86045 0.401438 0
M  V30 793 H 70.798 5.16544 -1.88316 0
M  V30 794 H 72.023 6.40542 -2.25571 0
M  V30 795 H 69.969 6.55998 -0.0170186 0
M  V30 796 H 69.886 7.40386 -1.52856 0
M  V30 797 H 71.154 7.78463 -0.401999 0
M  V30 798 N 75.3831 0.828654 1.34056 0
M  V30 799 C 76.3301 0.252567 2.29414 0
M  V30 800 C 77.3001 -0.62588 1.53857 0
M  V30 801 O 78.4851 -0.566312 1.82202 0
M  V30 802 C 75.6251 -0.574831 3.40279 0
M  V30 803 C 74.7381 0.326499 4.30764 0
M  V30 804 C 73.8731 -0.511016 5.28736 0
M  V30 805 C 72.9121 0.389342 6.1086 0
M  V30 806 N 72.0491 -0.409439 7.00905 0
M  V30 807 H 76.8891 1.07108 2.78086 0
M  V30 808 H 74.4261 0.539677 1.36843 0
M  V30 809 H 76.3841 -1.06992 4.03248 0
M  V30 810 H 75.0141 -1.35841 2.92826 0
M  V30 811 H 74.0661 0.939837 3.68607 0
M  V30 812 H 75.3781 1.01857 4.88289 0
M  V30 813 H 74.5321 -1.07035 5.97184 0
M  V30 814 H 73.2711 -1.23657 4.71763 0
M  V30 815 H 72.2761 0.960769 5.4134 0
M  V30 816 H 73.5011 1.1131 6.69916 0
M  V30 817 H 71.4471 -1.11856 6.46393 0
M  V30 818 H 71.3641 0.224126 7.55668 0
M  V30 819 H 72.6321 -0.951336 7.73673 0
M  V30 820 N 76.8612 -1.46375 0.584142 0
M  V30 821 C 77.8082 -2.30323 -0.148286 0
M  V30 822 C 78.7782 -1.40703 -0.882713 0
M  V30 823 O 79.9632 -1.69651 -0.873099 0
M  V30 824 C 77.1032 -3.25196 -1.15507 0
M  V30 825 C 76.2162 -4.29915 -0.423943 0
M  V30 826 C 75.3512 -5.11914 -1.41838 0
M  V30 827 C 74.3902 -6.08381 -0.673736 0
M  V30 828 N 73.5272 -6.83242 -1.6163 0
M  V30 829 H 78.3672 -2.92427 0.573644 0
M  V30 830 H 75.9042 -1.44118 0.294703 0
M  V30 831 H 77.8622 -3.78646 -1.75166 0
M  V30 832 H 76.4922 -2.64898 -1.8447 0
M  V30 833 H 75.5442 -3.7931 0.287714 0
M  V30 834 H 76.8562 -4.98549 0.158128 0
M  V30 835 H 76.0102 -5.69648 -2.08773 0
M  V30 836 H 74.7492 -4.43243 -2.03438 0
M  V30 837 H 73.7542 -5.49799 0.00938483 0
M  V30 838 H 74.9792 -6.79071 -0.0631082 0
M  V30 839 H 72.9252 -6.1728 -2.22038 0
M  V30 840 H 72.8422 -7.48144 -1.08707 0
M  V30 841 H 74.1102 -7.45534 -2.27596 0
M  V30 842 N 78.3393 -0.321999 -1.54275 0
M  V30 843 C 79.5873 0.280489 -2.00144 0
M  V30 844 C 79.9083 1.52777 -1.21178 0
M  V30 845 O 79.1783 1.9338 -0.313187 0
M  V30 846 H 77.7583 0.106632 -0.73935 0
M  V30 847 H 80.4203 -0.438184 -1.8991 0
M  V30 848 H 79.5163 0.537972 -3.07428 0
M  V30 849 N 79.8174 1.5752 -0.0501392 0
M  V30 850 C 80.7644 2.1147 0.924603 0
M  V30 851 C 81.7344 1.02182 1.30951 0
M  V30 852 O 82.9194 1.29723 1.39916 0
M  V30 853 C 80.0594 2.66337 2.19451 0
M  V30 854 C 79.1724 3.89708 1.86418 0
M  V30 855 C 78.3074 4.32893 3.07859 0
M  V30 856 C 77.3464 5.48967 2.70742 0
M  V30 857 N 76.4834 5.87211 3.84874 0
M  V30 858 H 81.3234 2.94465 0.457639 0
M  V30 859 H 78.8604 1.45531 0.214266 0
M  V30 860 H 80.8184 2.96247 2.93758 0
M  V30 861 H 79.4484 1.86141 2.63726 0
M  V30 862 H 78.5004 3.66396 1.02264 0
M  V30 863 H 79.8124 4.74074 1.55096 0
M  V30 864 H 78.9664 4.6435 3.90466 0
M  V30 865 H 77.7054 3.47336 3.42358 0
M  V30 866 H 76.7104 5.17183 1.86551 0
M  V30 867 H 77.9354 6.3624 2.37436 0
M  V30 868 H 75.8814 5.04607 4.19175 0
M  V30 869 H 75.7984 6.66266 3.57247 0
M  V30 870 H 77.0664 6.23282 4.68123 0
M  V30 871 N 81.2955 -0.223234 1.56011 0
M  V30 872 C 82.2285 -1.30377 1.87289 0
M  V30 873 C 83.2065 -1.45286 0.730112 0
M  V30 874 O 84.3905 -1.61126 0.978302 0
M  V30 875 C 81.5175 -2.67431 2.07843 0
M  V30 876 C 80.5635 -2.69546 3.30526 0
M  V30 877 S 81.3965 -2.23781 4.865 0
M  V30 878 C 82.5525 -3.62714 5.10088 0
M  V30 879 H 82.7855 -1.03652 2.78646 0
M  V30 880 H 80.3185 -0.425393 1.48424 0
M  V30 881 H 82.2765 -3.46336 2.20368 0
M  V30 882 H 80.9375 -2.91381 1.17285 0
M  V30 883 H 80.1305 -3.70255 3.41947 0
M  V30 884 H 79.7325 -1.98703 3.16849 0
M  V30 885 H 82.0245 -4.58391 4.98883 0
M  V30 886 H 82.9675 -3.5621 6.11981 0
M  V30 887 H 83.3755 -3.56323 4.37829 0
M  V30 888 N 82.7736 -1.49793 -0.48987 0
M  V30 889 C 83.7206 -1.67281 -1.59014 0
M  V30 890 C 84.6906 -0.514177 -1.57941 0
M  V30 891 O 85.8756 -0.742533 -1.75759 0
M  V30 892 C 83.0156 -1.75569 -2.97102 0
M  V30 893 C 82.1286 -3.0281 -3.08107 0
M  V30 894 C 81.2636 -3.02008 -4.36995 0
M  V30 895 C 80.3026 -4.23782 -4.41673 0
M  V30 896 N 79.4396 -4.20826 -5.62005 0
M  V30 897 H 84.2796 -2.61224 -1.43409 0
M  V30 898 H 81.8166 -1.29508 -0.697565 0
M  V30 899 H 83.7746 -1.78354 -3.77155 0
M  V30 900 H 82.4046 -0.850827 -3.11385 0
M  V30 901 H 81.4566 -3.09584 -2.21047 0
M  V30 902 H 82.7686 -3.92801 -3.07423 0
M  V30 903 H 81.9226 -3.03418 -5.25378 0
M  V30 904 H 80.6616 -2.09815 -4.4026 0
M  V30 905 H 79.6666 -4.22604 -3.5169 0
M  V30 906 H 80.8916 -5.17181 -4.40115 0
M  V30 907 H 78.8376 -3.31476 -5.66091 0
M  V30 908 H 78.7546 -5.04564 -5.62984 0
M  V30 909 H 80.0226 -4.26355 -6.52565 0
M  V30 910 N 84.2517 0.741722 -1.39055 0
M  V30 911 C 85.1987 1.85566 -1.37237 0
M  V30 912 C 86.1687 1.64457 -0.233072 0
M  V30 913 O 87.3537 1.85957 -0.427147 0
M  V30 914 C 84.4937 3.23004 -1.215 0
M  V30 915 C 83.6067 3.55864 -2.44918 0
M  V30 916 C 82.7417 4.82669 -2.21821 0
M  V30 917 C 81.7807 5.08351 -3.40948 0
M  V30 918 N 80.9177 6.26356 -3.17211 0
M  V30 919 H 85.7577 1.86455 -2.32462 0
M  V30 920 H 83.2947 0.911176 -1.15482 0
M  V30 921 H 85.2527 4.02331 -1.10389 0
M  V30 922 H 83.8827 3.21411 -0.29908 0
M  V30 923 H 82.9347 2.7129 -2.66657 0
M  V30 924 H 84.2467 3.70765 -3.33668 0
M  V30 925 H 83.4007 5.69962 -2.07914 0
M  V30 926 H 82.1397 4.69929 -1.30454 0
M  V30 927 H 81.1447 4.19522 -3.55361 0
M  V30 928 H 82.3697 5.22981 -4.33207 0
M  V30 929 H 80.3157 6.14917 -2.28502 0
M  V30 930 H 80.2327 6.41813 -3.99515 0
M  V30 931 H 81.5007 7.16506 -3.06984 0
M  V30 932 N 85.7298 1.2412 0.971189 0
M  V30 933 C 86.6598 1.05508 2.08304 0
M  V30 934 C 87.6408 -0.0308864 1.70072 0
M  V30 935 O 88.8258 0.135521 1.93727 0
M  V30 936 C 85.9558 0.655365 3.4106 0
M  V30 937 C 84.9098 1.68971 3.93234 0
M  V30 938 C 84.2358 1.14516 5.22293 0
M  V30 939 C 85.5358 3.08487 4.21465 0
M  V30 940 H 87.2298 1.98507 2.24132 0
M  V30 941 H 84.7758 0.955821 1.07704 0
M  V30 942 H 86.7288 0.51217 4.18276 0
M  V30 943 H 85.4528 -0.31032 3.25122 0
M  V30 944 H 84.1118 1.82106 3.18171 0
M  V30 945 H 83.7598 0.170189 5.02712 0
M  V30 946 H 83.4598 1.83635 5.58168 0
M  V30 947 H 84.9838 1.01401 6.02121 0
M  V30 948 H 86.3978 2.98601 4.89398 0
M  V30 949 H 84.7948 3.74926 4.68562 0
M  V30 950 H 85.8648 3.56787 3.28376 0
M  V30 951 N 87.2079 -1.17134 1.05439 0
M  V30 952 C 88.4559 -1.87085 0.764429 0
M  V30 953 C 88.7769 -1.81584 -0.710787 0
M  V30 954 O 88.0469 -1.24349 -1.51374 0
M  V30 955 H 86.6269 -0.692627 0.279779 0
M  V30 956 H 89.2889 -1.42087 1.33406 0
M  V30 957 H 88.3849 -2.92759 1.0816 0
M  V30 958 N 88.686 -0.835752 -1.33615 0
M  V30 959 C 89.618 -0.224151 -2.28101 0
M  V30 960 C 90.631 0.593331 -1.51603 0
M  V30 961 O 91.82 0.420911 -1.73466 0
M  V30 962 C 88.92 0.703309 -3.31522 0
M  V30 963 C 88.093 -0.0741528 -4.37337 0
M  V30 964 C 87.152 0.776176 -5.20444 0
M  V30 965 O 86.178 0.216506 -5.68788 0
M  V30 966 N 87.38 2.09401 -5.41416 0
M  V30 967 H 90.145 -1.03598 -2.81225 0
M  V30 968 H 87.706 -0.69392 -1.46275 0
M  V30 969 H 89.698 1.27707 -3.84022 0
M  V30 970 H 88.268 1.41585 -2.78698 0
M  V30 971 H 87.488 -0.82928 -3.85378 0
M  V30 972 H 88.776 -0.608863 -5.05144 0
M  V30 973 H 88.174 2.57229 -5.03835 0
M  V30 974 H 86.731 2.61633 -5.96985 0
M  V30 975 N 90.1641 1.46063 -0.591896 0
M  V30 976 C 91.1271 2.28854 0.125973 0
M  V30 977 C 92.1271 1.38903 0.810107 0
M  V30 978 O 93.3171 1.61186 0.66066 0
M  V30 979 C 90.4491 3.19526 1.1881 0
M  V30 980 H 91.6421 2.93802 -0.601717 0
M  V30 981 H 89.1951 1.52325 -0.350254 0
M  V30 982 H 89.9301 2.59345 1.94707 0
M  V30 983 H 89.7151 3.85766 0.701936 0
M  V30 984 H 91.2051 3.81817 1.69132 0
M  V30 985 N 91.6422 0.330177 1.54103 0
M  V30 986 C 92.5752 -0.575477 2.20825 0
M  V30 987 C 93.5532 -1.11064 1.18758 0
M  V30 988 O 94.7372 -1.17341 1.47524 0
M  V30 989 C 91.8642 -1.79032 2.87516 0
M  V30 990 C 90.9102 -1.38581 4.03358 0
M  V30 991 S 91.7432 -0.416911 5.33875 0
M  V30 992 C 92.8992 -1.63889 6.04062 0
M  V30 993 H 93.1322 -0.00872114 2.97299 0
M  V30 994 H 90.6652 0.114254 1.53977 0
M  V30 995 H 92.6232 -2.48734 3.2656 0
M  V30 996 H 91.2842 -2.32827 2.10832 0
M  V30 997 H 90.4772 -2.29123 4.48908 0
M  V30 998 H 90.0792 -0.768419 3.66021 0
M  V30 999 H 92.3712 -2.57536 6.26643 0
M  V30 1000 H 93.3142 -1.22542 6.97416 0
M  V30 1001 H 93.7222 -1.82887 5.34053 0
M  V30 1002 N 93.1203 -1.57491 0.0584922 0
M  V30 1003 C 94.0303 -2.15448 -0.928414 0
M  V30 1004 C 95.0463 -1.11416 -1.3365 0
M  V30 1005 O 96.2223 -1.4362 -1.41193 0
M  V30 1006 C 93.2873 -2.69393 -2.18239 0
M  V30 1007 C 92.3483 -3.88249 -1.83196 0
M  V30 1008 C 91.5813 -4.39613 -3.02616 0
M  V30 1009 O 91.8043 -3.90023 -4.16219 0
M  V30 1010 O 90.7383 -5.31111 -2.83204 0
M  V30 1011 H 94.5643 -3.00112 -0.465483 0
M  V30 1012 H 92.1493 -1.48499 -0.163826 0
M  V30 1013 H 94.0313 -3.04026 -2.91798 0
M  V30 1014 H 92.7063 -1.87796 -2.63656 0
M  V30 1015 H 91.6133 -3.58492 -1.06931 0
M  V30 1016 H 92.9463 -4.71098 -1.42573 0
M  V30 1017 N 94.5984 0.214957 -1.56127 0
M  V30 1018 C 95.5084 1.28727 -1.96129 0
M  V30 1019 C 96.5244 1.50916 -0.866044 0
M  V30 1020 O 97.7004 1.63918 -1.17016 0
M  V30 1021 C 94.7654 2.61569 -2.27558 0
M  V30 1022 C 93.8264 2.47625 -3.50685 0
M  V30 1023 C 93.0594 3.74132 -3.80606 0
M  V30 1024 O 93.2824 4.77438 -3.12104 0
M  V30 1025 O 92.2164 3.70849 -4.74083 0
M  V30 1026 H 96.0424 0.977855 -2.87527 0
M  V30 1027 H 93.6274 0.418358 -1.43423 0
M  V30 1028 H 95.5094 3.40012 -2.48938 0
M  V30 1029 H 94.1844 2.92178 -1.39332 0
M  V30 1030 H 93.0914 1.67361 -3.34576 0
M  V30 1031 H 94.4244 2.21954 -4.39315 0
M  V30 1032 N 96.0765 1.50051 0.48192 0
M  V30 1033 C 97.3535 1.51009 1.2432 0
M  V30 1034 C 97.7335 0.248587 2.09631 0
M  V30 1035 O 97.0815 -0.768409 2.15192 0
M  V30 1036 C 97.2915 2.79981 2.08355 0
M  V30 1037 C 98.6395 3.3022 2.66908 0
M  V30 1038 O 99.6635 2.81228 2.18607 0
M  V30 1039 O 98.5225 4.15595 3.54884 0
M  V30 1040 H 95.6165 0.605239 0.563573 0
M  V30 1041 H 98.1625 1.62332 0.494627 0
M  V30 1042 H 96.9345 3.63275 1.45419 0
M  V30 1043 H 96.5575 2.7161 2.90368 0
M  V30 1044 N 97.5546 -0.734337 1.39446 0
M  V30 1045 C 98.4846 -1.86155 1.40955 0
M  V30 1046 C 99.4656 -1.67898 0.272827 0
M  V30 1047 O 100.651 -1.88207 0.478743 0
M  V30 1048 C 97.7806 -3.23912 1.25294 0
M  V30 1049 C 96.7346 -3.56808 2.36373 0
M  V30 1050 C 96.0606 -4.93508 2.058 0
M  V30 1051 C 97.3606 -3.59713 3.78687 0
M  V30 1052 H 99.0546 -1.8515 2.35287 0
M  V30 1053 H 96.6006 -0.889367 1.13253 0
M  V30 1054 H 98.5536 -4.02443 1.2497 0
M  V30 1055 H 97.2776 -3.25446 0.274308 0
M  V30 1056 H 95.9366 -2.80606 2.35914 0
M  V30 1057 H 95.5846 -4.91623 1.06374 0
M  V30 1058 H 95.2846 -5.16486 2.80208 0
M  V30 1059 H 96.8086 -5.74396 2.07128 0
M  V30 1060 H 98.2226 -4.2832 3.81071 0
M  V30 1061 H 96.6196 -3.94209 4.52459 0
M  V30 1062 H 97.6896 -2.59504 4.09617 0
M  V30 1063 N 99.0327 -1.24633 -0.964593 0
M  V30 1064 C 100.282 -1.08188 -1.7023 0
M  V30 1065 C 100.595 0.37873 -1.91898 0
M  V30 1066 O 101.801 0.663427 -2.6327 0
M  V30 1067 C 100.257 -1.88773 -3.06419 0
M  V30 1068 C 99.8647 -3.39263 -2.92582 0
M  V30 1069 C 101.609 -1.80867 -3.84041 0
M  V30 1070 C 99.5157 -4.1218 -4.24101 0
M  V30 1071 H 98.4457 -0.401245 -0.638372 0
M  V30 1072 H 101.097 -1.48742 -1.07462 0
M  V30 1073 H 99.4787 -1.41035 -3.70034 0
M  V30 1074 H 100.653 -3.94603 -2.37961 0
M  V30 1075 H 98.9677 -3.48154 -2.28424 0
M  V30 1076 H 101.565 -2.32646 -4.81435 0
M  V30 1077 H 101.908 -0.774543 -4.09031 0
M  V30 1078 H 102.441 -2.26301 -3.27159 0
M  V30 1079 H 99.1797 -5.15965 -4.04303 0
M  V30 1080 H 98.6997 -3.61626 -4.78526 0
M  V30 1081 H 100.379 -4.19349 -4.92702 0
M  V30 1082 N 100.511 1.16574 -1.06058 0
M  V30 1083 C 101.757 1.87324 -0.777022 0
M  V30 1084 C 102.09 1.81351 0.694645 0
M  V30 1085 O 101.365 1.22753 1.50871 0
M  V30 1086 C 101.648 3.36991 -1.26922 0
M  V30 1087 C 101.501 3.51667 -2.80447 0
M  V30 1088 C 102.82 4.3131 -0.87521 0
M  V30 1089 H 99.9388 0.680191 -0.28374 0
M  V30 1090 H 102.581 1.37036 -1.3161 0
M  V30 1091 H 100.731 3.79949 -0.81063 0
M  V30 1092 H 102.403 3.17664 -3.34495 0
M  V30 1093 H 100.646 2.93656 -3.19294 0
M  V30 1094 H 101.317 4.56766 -3.0995 0
M  V30 1095 H 103.793 3.9624 -1.27014 0
M  V30 1096 H 102.669 5.34545 -1.2471 0
M  V30 1097 H 102.93 4.41552 0.220071 0
M  V30 1098 N 101.989 0.842826 1.3317 0
M  V30 1099 C 103.237 0.439577 1.97262 0
M  V30 1100 C 103.558 -1.00548 1.67078 0
M  V30 1101 O 102.828 -1.70098 0.971779 0
M  V30 1102 H 101.408 0.159558 0.72976 0
M  V30 1103 H 104.07 1.07665 1.62463 0
M  V30 1104 H 103.166 0.574886 3.0676 0
M  V30 1105 N 103.467 -1.45747 0.599634 0
M  V30 1106 C 104.397 -2.33235 -0.111306 0
M  V30 1107 C 105.378 -1.46359 -0.866781 0
M  V30 1108 O 106.563 -1.75146 -0.838904 0
M  V30 1109 C 103.693 -3.28932 -1.11451 0
M  V30 1110 C 102.647 -4.25381 -0.472772 0
M  V30 1111 C 101.973 -5.1071 -1.58365 0
M  V30 1112 C 103.273 -5.18831 0.600948 0
M  V30 1113 H 104.967 -2.92927 0.61919 0
M  V30 1114 H 102.513 -1.40857 0.299215 0
M  V30 1115 H 104.466 -3.89002 -1.62036 0
M  V30 1116 H 103.19 -2.67381 -1.8755 0
M  V30 1117 H 101.849 -3.66598 0.0121472 0
M  V30 1118 H 101.497 -4.45533 -2.33473 0
M  V30 1119 H 101.197 -5.7604 -1.15982 0
M  V30 1120 H 102.721 -5.73647 -2.09194 0
M  V30 1121 H 104.135 -5.73019 0.179491 0
M  V30 1122 H 102.532 -5.92595 0.946076 0
M  V30 1123 H 103.602 -4.6174 1.48068 0
M  V30 1124 N 104.945 -0.338344 -1.53925 0
M  V30 1125 C 105.877 0.555117 -2.22376 0
M  V30 1126 C 106.89 1.06812 -1.22862 0
M  V30 1127 O 108.079 0.979163 -1.49247 0
M  V30 1128 C 105.179 1.77609 -2.88631 0
M  V30 1129 C 104.352 1.39927 -4.14414 0
M  V30 1130 C 103.411 2.47936 -4.64127 0
M  V30 1131 O 102.437 2.11461 -5.28463 0
M  V30 1132 N 103.639 3.79107 -4.39612 0
M  V30 1133 H 106.404 -0.0310778 -2.99684 0
M  V30 1134 H 103.965 -0.162226 -1.61085 0
M  V30 1135 H 105.957 2.49287 -3.18807 0
M  V30 1136 H 104.527 2.26978 -2.14941 0
M  V30 1137 H 103.747 0.513481 -3.90841 0
M  V30 1138 H 105.035 1.12341 -4.96243 0
M  V30 1139 H 104.433 4.11531 -3.88148 0
M  V30 1140 H 102.99 4.4697 -4.74406 0
M  V30 1141 N 106.423 1.57458 -0.0668435 0
M  V30 1142 C 107.671 1.92919 0.602214 0
M  V30 1143 C 107.992 0.947215 1.70449 0
M  V30 1144 O 107.262 -0.00544117 1.95899 0
M  V30 1145 H 105.842 0.71217 0.22544 0
M  V30 1146 H 108.504 1.94508 -0.123535 0
M  V30 1147 H 107.6 2.94589 1.03073 0
M  V30 1148 N 107.901 -0.206675 1.56239 0
M  V30 1149 C 108.834 -1.28383 1.88661 0
M  V30 1150 C 109.812 -1.44504 0.745481 0
M  V30 1151 O 110.996 -1.60079 0.995336 0
M  V30 1152 C 108.123 -2.65211 2.10667 0
M  V30 1153 C 107.169 -2.66025 3.33366 0
M  V30 1154 S 108.002 -2.18609 4.88846 0
M  V30 1155 C 109.158 -3.57283 5.13906 0
M  V30 1156 H 109.391 -1.00691 2.7973 0
M  V30 1157 H 106.924 -0.409627 1.48867 0
M  V30 1158 H 108.882 -3.43979 2.24029 0
M  V30 1159 H 107.543 -2.90121 1.20369 0
M  V30 1160 H 106.736 -3.66607 3.45855 0
M  V30 1161 H 106.338 -1.95331 3.18938 0
M  V30 1162 H 108.63 -4.53074 5.03717 0
M  V30 1163 H 109.573 -3.49699 6.15724 0
M  V30 1164 H 109.981 -3.51659 4.41583 0
M  V30 1165 N 109.379 -1.50304 -0.473955 0
M  V30 1166 C 110.656 -1.51667 -1.23518 0
M  V30 1167 C 111.036 -0.259701 -2.09496 0
M  V30 1168 O 110.384 0.756986 -2.15597 0
M  V30 1169 C 110.594 -2.81082 -2.06868 0
M  V30 1170 C 111.942 -3.31631 -2.65153 0
M  V30 1171 O 112.966 -2.82384 -2.17113 0
M  V30 1172 O 111.825 -4.17471 -3.52675 0
M  V30 1173 H 108.919 -0.60822 -0.560355 0
M  V30 1174 H 111.465 -1.62592 -0.486011 0
M  V30 1175 H 110.237 -3.64041 -1.4349 0
M  V30 1176 H 109.86 -2.73146 -2.88924 0
M  V30 1177 N 110.857 0.726932 -1.39834 0
M  V30 1178 C 111.787 1.85405 -1.41941 0
M  V30 1179 C 112.768 1.67751 -0.281728 0
M  V30 1180 O 113.953 1.8795 -0.488717 0
M  V30 1181 C 111.083 3.23243 -1.2701 0
M  V30 1182 C 110.037 3.55549 -2.38262 0
M  V30 1183 C 109.363 4.9241 -2.08415 0
M  V30 1184 C 110.663 3.577 -3.80589 0
M  V30 1185 H 112.357 1.83899 -2.36266 0
M  V30 1186 H 109.903 0.883349 -1.13723 0
M  V30 1187 H 111.856 4.01775 -1.27103 0
M  V30 1188 H 110.58 3.25296 -0.291564 0
M  V30 1189 H 109.239 2.79351 -2.37399 0
M  V30 1190 H 108.887 4.91052 -1.0898 0
M  V30 1191 H 108.587 5.14992 -2.82943 0
M  V30 1192 H 110.111 5.73289 -2.10171 0
M  V30 1193 H 111.525 4.26293 -3.83337 0
M  V30 1194 H 109.922 3.91804 -4.54543 0
M  V30 1195 H 110.992 2.57328 -4.10987 0
M  V30 1196 N 112.336 1.25143 0.95797 0
M  V30 1197 C 113.284 1.05019 2.07542 0
M  V30 1198 C 114.278 -0.0178751 1.69391 0
M  V30 1199 O 115.484 0.137472 1.79474 0
M  V30 1200 H 111.859 0.32265 0.679265 0
M  V30 1201 H 113.83 1.99759 2.21673 0
M  V30 1202 C 112.579 0.682074 3.40944 0
M  V30 1203 H 111.902 1.49573 3.70767 0
M  V30 1204 H 113.342 0.580945 4.20001 0
M  V30 1205 C 111.801 -0.611608 3.31302 0
M  V30 1206 O 112.331 -1.65465 3.66038 0
M  V30 1207 N 110.537 -0.595982 2.84423 0
M  V30 1208 H 110.084 0.253192 2.56353 0
M  V30 1209 H 110.042 -1.46173 2.78354 0
M  V30 1210 N 113.814 -1.1601 1.06675 0
M  V30 1211 C 114.744 -2.22688 0.702307 0
M  V30 1212 C 115.725 -1.67306 -0.307032 0
M  V30 1213 O 116.91 -1.93352 -0.181305 0
M  V30 1214 C 114.04 -3.47178 0.092038 0
M  V30 1215 C 112.994 -4.15477 1.02777 0
M  V30 1216 C 112.32 -5.33963 0.28061 0
M  V30 1217 C 113.62 -4.66019 2.35846 0
M  V30 1218 H 115.314 -2.53429 1.59419 0
M  V30 1219 H 112.86 -1.21813 0.767961 0
M  V30 1220 H 114.813 -4.21037 -0.174814 0
M  V30 1221 H 113.537 -3.15749 -0.834877 0
M  V30 1222 H 112.196 -3.43549 1.27944 0
M  V30 1223 H 111.844 -4.98788 -0.649545 0
M  V30 1224 H 111.544 -5.806 0.904258 0
M  V30 1225 H 113.068 -6.10596 0.021396 0
M  V30 1226 H 114.482 -5.3144 2.15045 0
M  V30 1227 H 112.879 -5.23293 2.93743 0
M  V30 1228 H 113.949 -3.82023 2.98641 0
M  V30 1229 N 115.292 -0.849877 -1.32721 0
M  V30 1230 C 116.202 -0.293791 -2.32753 0
M  V30 1231 C 117.218 0.585906 -1.63839 0
M  V30 1232 O 118.394 0.487413 -1.95413 0
M  V30 1233 C 115.459 0.512752 -3.42887 0
M  V30 1234 C 114.52 -0.39252 -4.27502 0
M  V30 1235 C 113.753 0.375625 -5.32377 0
M  V30 1236 O 113.976 1.60613 -5.4732 0
M  V30 1237 O 112.91 -0.256094 -6.01355 0
M  V30 1238 H 116.736 -1.12242 -2.82197 0
M  V30 1239 H 114.321 -0.612685 -1.36259 0
M  V30 1240 H 116.203 0.970704 -4.10067 0
M  V30 1241 H 114.878 1.31826 -2.95641 0
M  V30 1242 H 113.785 -0.898547 -3.63149 0
M  V30 1243 H 115.118 -1.16309 -4.7826 0
M  V30 1244 N 116.77 1.45427 -0.607355 0
M  V30 1245 C 117.733 2.28974 0.101693 0
M  V30 1246 C 118.733 1.39754 0.795329 0
M  V30 1247 O 119.923 1.61878 0.643527 0
M  V30 1248 C 117.055 3.20768 1.15414 0
M  V30 1249 H 118.248 2.93147 -0.632844 0
M  V30 1250 H 115.801 1.51945 -0.366391 0
M  V30 1251 H 116.536 2.61395 1.91945 0
M  V30 1252 H 116.321 3.86489 0.66098 0
M  V30 1253 H 117.811 3.83589 1.65073 0
M  V30 1254 N 118.248 0.346503 1.53744 0
M  V30 1255 C 119.158 -0.517293 2.28826 0
M  V30 1256 C 120.174 -1.10935 1.3405 0
M  V30 1257 O 121.35 -1.1244 1.6709 0
M  V30 1258 C 118.415 -1.65098 3.04866 0
M  V30 1259 C 117.476 -1.0884 4.15274 0
M  V30 1260 C 116.709 -2.16806 4.87679 0
M  V30 1261 O 116.932 -3.3758 4.59778 0
M  V30 1262 O 115.866 -1.80934 5.74061 0
M  V30 1263 H 119.692 0.0931396 3.03557 0
M  V30 1264 H 117.277 0.111458 1.48984 0
M  V30 1265 H 119.159 -2.31053 3.5241 0
M  V30 1266 H 117.834 -2.24717 2.32989 0
M  V30 1267 H 116.741 -0.3933 3.72027 0
M  V30 1268 H 118.074 -0.537036 4.89261 0
M  V30 1269 N 119.726 -1.57421 0.075193 0
M  V30 1270 C 120.689 -2.11791 -0.876203 0
M  V30 1271 C 121.689 -1.04268 -1.22412 0
M  V30 1272 O 122.879 -1.30242 -1.15684 0
M  V30 1273 C 120.011 -2.62207 -2.17854 0
M  V30 1274 H 121.204 -2.9716 -0.40444 0
M  V30 1275 H 118.757 -1.55333 -0.173557 0
M  V30 1276 H 119.492 -1.803 -2.6956 0
M  V30 1277 H 119.277 -3.40802 -1.93897 0
M  V30 1278 H 120.767 -3.04335 -2.85955 0
M  V30 1279 N 121.204 0.198386 -1.56346 0
M  V30 1280 C 122.134 1.24865 -1.9731 0
M  V30 1281 C 123.115 1.47651 -0.844576 0
M  V30 1282 O 124.3 1.59444 -1.10866 0
M  V30 1283 C 121.43 2.59358 -2.30977 0
M  V30 1284 C 120.384 2.5119 -3.46537 0
M  V30 1285 C 119.71 3.89926 -3.65871 0
M  V30 1286 C 121.01 2.03977 -4.80823 0
M  V30 1287 H 122.704 0.908252 -2.85291 0
M  V30 1288 H 120.25 0.435462 -1.37258 0
M  V30 1289 H 122.203 3.33011 -2.58228 0
M  V30 1290 H 120.927 2.95132 -1.39874 0
M  V30 1291 H 119.586 1.79993 -3.19371 0
M  V30 1292 H 119.234 4.23046 -2.72105 0
M  V30 1293 H 118.934 3.85336 -4.4361 0
M  V30 1294 H 120.458 4.65205 -3.95495 0
M  V30 1295 H 121.872 2.67386 -5.07127 0
M  V30 1296 H 120.269 2.10397 -5.62008 0
M  V30 1297 H 121.339 0.992861 -4.74626 0
M  V30 1298 N 122.682 1.50554 0.465978 0
M  V30 1299 C 123.645 1.69233 1.54574 0
M  V30 1300 C 124.645 0.562901 1.50626 0
M  V30 1301 O 125.835 0.830016 1.53155 0
M  V30 1302 C 122.967 1.7223 2.94193 0
M  V30 1303 H 124.16 2.65571 1.39327 0
M  V30 1304 H 121.713 1.40111 0.692711 0
M  V30 1305 H 122.448 0.77603 3.14878 0
M  V30 1306 H 122.233 2.54285 2.98466 0
M  V30 1307 H 123.723 1.88618 3.72576 0
M  V30 1308 N 124.16 -0.719506 1.40217 0
M  V30 1309 C 125.408 -1.47641 1.3801 0
M  V30 1310 C 125.729 -1.94992 -0.018145 0
M  V30 1311 O 124.999 -1.70073 -0.972207 0
M  V30 1312 H 123.579 -0.547744 0.507923 0
M  V30 1313 H 126.241 -0.853187 1.75233 0
M  V30 1314 H 125.337 -2.35112 2.05253 0
M  V30 1315 N 125.638 -1.25649 -0.95132 0
M  V30 1316 C 126.866 -1.13343 -1.73092 0
M  V30 1317 C 127.281 0.312434 -1.86197 0
M  V30 1318 O 126.638 1.21465 -1.36207 0
M  V30 1319 C 126.689 -1.78602 -3.14299 0
M  V30 1320 O 126.41 -3.17537 -3.01831 0
M  V30 1321 C 127.911 -1.72119 -4.08522 0
M  V30 1322 H 125.131 -0.395181 -0.542285 0
M  V30 1323 H 127.675 -1.66076 -1.19328 0
M  V30 1324 H 125.83 -1.29832 -3.64996 0
M  V30 1325 H 126.244 -3.49676 -3.90931 0
M  V30 1326 H 127.718 -2.22435 -5.052 0
M  V30 1327 H 128.195 -0.685635 -4.33815 0
M  V30 1328 H 128.801 -2.20393 -3.63741 0
M  V30 1329 N 127.117 1.15442 -1.07289 0
M  V30 1330 C 128.365 1.85845 -0.794096 0
M  V30 1331 C 128.686 1.82692 0.681809 0
M  V30 1332 O 127.956 1.26741 1.49377 0
M  V30 1333 H 126.536 0.688089 -0.290763 0
M  V30 1334 H 129.198 1.39947 -1.3565 0
M  V30 1335 H 128.294 2.91001 -1.12804 0
M  V30 1336 N 128.595 0.856903 1.32268 0
M  V30 1337 C 129.525 0.31858 2.31316 0
M  V30 1338 C 130.506 -0.583487 1.59779 0
M  V30 1339 O 131.691 -0.503259 1.87566 0
M  V30 1340 C 128.821 -0.491979 3.43798 0
M  V30 1341 C 127.775 0.315849 4.26833 0
M  V30 1342 C 127.101 -0.619586 5.31098 0
M  V30 1343 C 128.401 1.54282 4.98993 0
M  V30 1344 H 130.095 1.14621 2.76591 0
M  V30 1345 H 127.641 0.552613 1.32974 0
M  V30 1346 H 129.594 -0.879012 4.1213 0
M  V30 1347 H 128.318 -1.35299 2.97257 0
M  V30 1348 H 126.977 0.684664 3.6015 0
M  V30 1349 H 126.625 -1.47751 4.8081 0
M  V30 1350 H 126.325 -0.0830621 5.87541 0
M  V30 1351 H 127.849 -1.00375 6.02293 0
M  V30 1352 H 129.263 1.22796 5.59995 0
M  V30 1353 H 127.66 2.01745 5.65172 0
M  V30 1354 H 128.73 2.30285 4.26728 0
M  V30 1355 N 130.073 -1.45103 0.615059 0
M  V30 1356 C 131.319 -2.02483 0.113347 0
M  V30 1357 C 131.652 -1.48146 -1.25564 0
M  V30 1358 O 130.927 -0.659104 -1.82992 0
M  V30 1359 C 131.21 -3.60005 0.0825278 0
M  V30 1360 C 131.063 -4.2466 1.48271 0
M  V30 1361 C 132.382 -4.35972 -0.601401 0
M  V30 1362 H 129.501 -0.735764 0.0426632 0
M  V30 1363 H 132.143 -1.72868 0.788461 0
M  V30 1364 H 130.293 -3.85367 -0.492378 0
M  V30 1365 H 131.965 -4.10458 2.10527 0
M  V30 1366 H 130.208 -3.82772 2.04127 0
M  V30 1367 H 130.879 -5.336 1.41332 0
M  V30 1368 H 133.355 -4.15947 -0.112666 0
M  V30 1369 H 132.231 -5.45697 -0.592097 0
M  V30 1370 H 132.492 -4.09391 -1.66887 0
M  V30 1371 N 131.551 -0.354651 -1.53558 0
M  V30 1372 C 132.481 0.489091 -2.2832 0
M  V30 1373 C 133.462 1.09324 -1.30316 0
M  V30 1374 O 134.647 1.11255 -1.59173 0
M  V30 1375 C 131.777 1.63456 -3.0643 0
M  V30 1376 C 130.731 1.1582 -4.12031 0
M  V30 1377 C 130.057 2.39305 -4.7816 0
M  V30 1378 C 131.357 0.250731 -5.21698 0
M  V30 1379 H 133.051 -0.134614 -2.99097 0
M  V30 1380 H 130.597 -0.0661826 -1.43848 0
M  V30 1381 H 132.55 2.23136 -3.57475 0
M  V30 1382 H 131.274 2.28533 -2.33325 0
M  V30 1383 H 129.933 0.584146 -3.61916 0
M  V30 1384 H 129.581 3.02814 -4.01637 0
M  V30 1385 H 129.281 2.08109 -5.49513 0
M  V30 1386 H 130.805 2.99691 -5.31994 0
M  V30 1387 H 132.219 0.754695 -5.68311 0
M  V30 1388 H 130.616 0.0301468 -6.00092 0
M  V30 1389 H 131.686 -0.710125 -4.79672 0
M  V30 1390 N 133.029 1.57378 -0.0835403 0
M  V30 1391 C 134.306 1.85363 0.624507 0
M  V30 1392 C 134.686 0.978239 1.87066 0
M  V30 1393 O 134.034 0.0475908 2.2845 0
M  V30 1394 C 134.244 3.35795 0.950947 0
M  V30 1395 C 135.592 4.03581 1.31939 0
M  V30 1396 O 136.616 3.40609 1.04232 0
M  V30 1397 O 135.475 5.14672 1.83779 0
M  V30 1398 H 132.569 0.766162 0.311329 0
M  V30 1399 H 135.115 1.69307 -0.115362 0
M  V30 1400 H 133.887 3.91244 0.0663899 0
M  V30 1401 H 133.51 3.57154 1.74719 0
M  V30 1402 N 134.507 -0.190092 1.56449 0
M  V30 1403 C 135.417 -1.25591 1.98152 0
M  V30 1404 C 136.433 -1.49519 0.889944 0
M  V30 1405 O 137.609 -1.62036 1.19609 0
M  V30 1406 C 134.674 -2.57916 2.3169 0
M  V30 1407 C 133.735 -2.42015 3.5458 0
M  V30 1408 C 132.968 -3.6803 3.8651 0
M  V30 1409 O 133.191 -4.72413 3.1966 0
M  V30 1410 O 132.125 -3.6326 4.79923 0
M  V30 1411 H 135.951 -0.931988 2.89046 0
M  V30 1412 H 133.536 -0.395488 1.4407 0
M  V30 1413 H 135.418 -3.36008 2.54316 0
M  V30 1414 H 134.093 -2.89925 1.43963 0
M  V30 1415 H 133 -1.62017 3.37196 0
M  V30 1416 H 134.333 -2.14937 4.4279 0
M  V30 1417 N 135.985 -1.50799 -0.457987 0
M  V30 1418 C 136.917 -1.66786 -1.57211 0
M  V30 1419 C 137.93 -0.548962 -1.53265 0
M  V30 1420 O 139.119 -0.8226 -1.58416 0
M  V30 1421 C 136.219 -1.64834 -2.96113 0
M  V30 1422 C 135.392 -2.92971 -3.24787 0
M  V30 1423 C 134.451 -2.83485 -4.43309 0
M  V30 1424 O 133.477 -3.5744 -4.42973 0
M  V30 1425 N 134.679 -1.97929 -5.45714 0
M  V30 1426 H 137.444 -2.62889 -1.43909 0
M  V30 1427 H 135.005 -1.48427 -0.646617 0
M  V30 1428 H 136.997 -1.56084 -3.7339 0
M  V30 1429 H 135.567 -0.764118 -3.03117 0
M  V30 1430 H 134.787 -3.15749 -2.36 0
M  V30 1431 H 136.075 -3.77834 -3.40762 0
M  V30 1432 H 135.473 -1.37182 -5.48815 0
M  V30 1433 H 134.03 -1.95073 -6.21924 0
M  V30 1434 N 137.463 0.71206 -1.40597 0
M  V30 1435 C 138.393 1.83889 -1.43899 0
M  V30 1436 C 139.374 1.67442 -0.299504 0
M  V30 1437 O 140.559 1.87421 -0.508624 0
M  V30 1438 C 137.689 3.21877 -1.30431 0
M  V30 1439 C 136.643 3.53002 -2.42019 0
M  V30 1440 C 135.969 4.90172 -2.13626 0
M  V30 1441 C 137.269 3.53643 -3.84362 0
M  V30 1442 H 138.963 1.81383 -2.38203 0
M  V30 1443 H 136.509 0.871237 -1.14654 0
M  V30 1444 H 138.462 4.00404 -1.31357 0
M  V30 1445 H 137.186 3.24968 -0.326049 0
M  V30 1446 H 135.845 2.76818 -2.40349 0
M  V30 1447 H 135.493 4.89869 -1.14182 0
M  V30 1448 H 135.193 5.11962 -2.88389 0
M  V30 1449 H 136.717 5.71028 -2.1624 0
M  V30 1450 H 138.131 4.22203 -3.87837 0
M  V30 1451 H 136.528 3.86961 -4.58673 0
M  V30 1452 H 137.598 2.52954 -4.13693 0
M  V30 1453 N 138.941 1.26152 0.944643 0
M  V30 1454 C 139.889 1.07215 2.06417 0
M  V30 1455 C 140.883 9.2007e-05 1.694 0
M  V30 1456 O 142.089 0.1565 1.79318 0
M  V30 1457 H 138.464 0.329837 0.675805 0
M  V30 1458 H 140.435 2.02099 2.19541 0
M  V30 1459 C 139.184 0.718197 3.40202 0
M  V30 1460 H 138.507 1.53497 3.69159 0
M  V30 1461 H 139.947 0.625459 4.19361 0
M  V30 1462 C 138.406 -0.576435 3.31932 0
M  V30 1463 O 138.936 -1.61574 3.67773 0
M  V30 1464 N 137.142 -0.565781 2.85039 0
M  V30 1465 H 136.689 0.280367 2.5607 0
M  V30 1466 H 136.647 -1.43213 2.79888 0
M  V30 1467 N 140.419 -1.14872 1.07899 0
M  V30 1468 C 141.329 -2.2341 0.715915 0
M  V30 1469 C 142.345 -1.71808 -0.275306 0
M  V30 1470 O 143.521 -2.01039 -0.120545 0
M  V30 1471 C 140.586 -3.46474 0.125168 0
M  V30 1472 C 139.647 -4.13039 1.17034 0
M  V30 1473 C 138.88 -5.30229 0.607688 0
M  V30 1474 O 139.103 -5.675 -0.574497 0
M  V30 1475 O 138.037 -5.86444 1.35526 0
M  V30 1476 H 141.863 -2.56808 1.62121 0
M  V30 1477 H 139.448 -1.22702 0.852322 0
M  V30 1478 H 141.33 -4.20917 -0.201729 0
M  V30 1479 H 140.005 -3.14811 -0.753364 0
M  V30 1480 H 138.912 -3.40493 1.54968 0
M  V30 1481 H 140.245 -4.48796 2.02097 0
M  V30 1482 N 141.898 -0.863906 -1.31812 0
M  V30 1483 C 143.145 -0.471836 -1.96926 0
M  V30 1484 C 143.473 0.974578 -1.68322 0
M  V30 1485 O 142.728 1.7003 -0.968933 0
M  V30 1486 C 143.027 -0.668547 -3.51091 0
M  V30 1487 C 142.693 -2.08683 -3.99703 0
M  V30 1488 C 141.355 -2.47471 -4.12688 0
M  V30 1489 C 143.707 -3.01207 -4.25351 0
M  V30 1490 C 141.035 -3.78037 -4.4867 0
M  V30 1491 C 143.387 -4.31282 -4.62794 0
M  V30 1492 C 142.051 -4.69992 -4.73987 0
M  V30 1493 H 141.321 -0.172657 -0.720604 0
M  V30 1494 H 143.968 -1.09573 -1.57054 0
M  V30 1495 H 142.273 0.0385252 -3.91781 0
M  V30 1496 H 143.97 -0.345102 -3.99512 0
M  V30 1497 H 140.56 -1.77566 -3.90087 0
M  V30 1498 H 144.744 -2.72469 -4.14819 0
M  V30 1499 H 140 -4.078 -4.55532 0
M  V30 1500 H 144.174 -5.03031 -4.81594 0
M  V30 1501 H 141.801 -5.71207 -5.01624 0
M  V30 1502 N 143.376 1.44774 -0.622745 0
M  V30 1503 C 144.326 2.2774 0.108889 0
M  V30 1504 C 145.31 1.38189 0.824175 0
M  V30 1505 O 146.502 1.62063 0.711664 0
M  V30 1506 C 143.631 3.25353 1.09546 0
M  V30 1507 C 142.717 4.22392 0.380232 0
M  V30 1508 N 143.108 5.02388 -0.586535 0
M  V30 1509 C 141.406 4.41588 0.625792 0
M  V30 1510 C 142.107 5.72894 -1.00834 0
M  V30 1511 N 141.083 5.42479 -0.348878 0
M  V30 1512 H 144.885 2.86993 -0.63341 0
M  V30 1513 H 142.399 1.5611 -0.447589 0
M  V30 1514 H 144.396 3.83538 1.63414 0
M  V30 1515 H 143.056 2.6766 1.83815 0
M  V30 1516 H 144.067 5.0885 -0.963975 0
M  V30 1517 H 140.744 3.95003 1.352 0
M  V30 1518 H 142.134 6.47158 -1.80656 0
M  V30 1519 N 144.854 0.36279 1.53368 0
M  V30 1520 C 146.094 -0.227882 2.03126 0
M  V30 1521 C 146.458 -1.4622 1.24434 0
M  V30 1522 O 147.659 -2.12831 1.64184 0
M  V30 1523 C 145.93 -0.515427 3.53664 0
M  V30 1524 S 147.489 -1.08017 4.25297 0
M  V30 1525 H 144.307 -0.0665377 0.70788 0
M  V30 1526 H 146.909 0.50501 1.88865 0
M  V30 1527 H 145.613 0.390436 4.08539 0
M  V30 1528 H 145.144 -1.27747 3.72081 0
M  V30 1529 H 147.159 -2.36462 4.36234 0
M  V30 1530 N 146.332 -1.57332 0.0918853 0
M  V30 1531 C 147.262 -2.16872 -0.865371 0
M  V30 1532 C 148.243 -1.10118 -1.29646 0
M  V30 1533 O 149.428 -1.38242 -1.36392 0
M  V30 1534 C 146.558 -2.74649 -2.12569 0
M  V30 1535 C 145.512 -3.86747 -1.83333 0
M  V30 1536 C 144.838 -4.31212 -3.16166 0
M  V30 1537 C 146.138 -5.10089 -1.1228 0
M  V30 1538 H 147.832 -2.97114 -0.369307 0
M  V30 1539 H 145.378 -1.42918 -0.176194 0
M  V30 1540 H 147.331 -3.14952 -2.7997 0
M  V30 1541 H 146.055 -1.91657 -2.64452 0
M  V30 1542 H 144.714 -3.46978 -1.18331 0
M  V30 1543 H 144.362 -3.45115 -3.6593 0
M  V30 1544 H 144.062 -5.06788 -2.97388 0
M  V30 1545 H 145.586 -4.74146 -3.84731 0
M  V30 1546 H 147 -5.47582 -1.69785 0
M  V30 1547 H 145.397 -5.91073 -1.03693 0
M  V30 1548 H 146.467 -4.84786 -0.105041 0
M  V30 1549 N 147.81 0.181792 -1.56548 0
M  V30 1550 C 149.056 0.896803 -1.82562 0
M  V30 1551 C 149.411 1.80324 -0.670908 0
M  V30 1552 O 148.704 1.8868 0.333235 0
M  V30 1553 C 148.898 1.73728 -3.12335 0
M  V30 1554 C 148.727 0.913714 -4.4032 0
M  V30 1555 C 147.497 0.592903 -5.01809 0
M  V30 1556 C 149.695 0.260164 -5.13642 0
M  V30 1557 N 147.677 -0.247901 -6.13399 0
M  V30 1558 C 149.048 -0.442256 -6.18421 0
M  V30 1559 C 151.103 0.177253 -4.97584 0
M  V30 1560 C 149.806 -1.21971 -7.08883 0
M  V30 1561 C 151.832 -0.586839 -5.88481 0
M  V30 1562 C 151.194 -1.27766 -6.92716 0
M  V30 1563 H 147.293 0.307122 -0.719166 0
M  V30 1564 H 149.877 0.164535 -1.94004 0
M  V30 1565 H 148.048 2.44105 -3.02105 0
M  V30 1566 H 149.78 2.39279 -3.26386 0
M  V30 1567 H 146.535 0.920502 -4.64568 0
M  V30 1568 H 146.959 -0.658304 -6.73792 0
M  V30 1569 H 151.601 0.696993 -4.17015 0
M  V30 1570 H 149.319 -1.75083 -7.88905 0
M  V30 1571 H 152.905 -0.652522 -5.78129 0
M  V30 1572 H 151.785 -1.85943 -7.61836 0
M  V30 1573 N 149.288 1.51039 0.449983 0
M  V30 1574 C 150.565 1.53612 1.21089 0
M  V30 1575 C 150.945 0.292997 2.09057 0
M  V30 1576 O 150.293 -0.72259 2.16774 0
M  V30 1577 C 150.503 2.84337 2.0237 0
M  V30 1578 C 151.851 3.35807 2.59843 0
M  V30 1579 O 152.875 2.85802 2.12593 0
M  V30 1580 O 151.734 4.23029 3.45989 0
M  V30 1581 H 148.828 0.617057 0.550608 0
M  V30 1582 H 151.374 1.63344 0.460082 0
M  V30 1583 H 150.146 3.66278 1.37681 0
M  V30 1584 H 149.769 2.77708 2.84542 0
M  V30 1585 N 150.766 -0.704594 1.40972 0
M  V30 1586 C 152.043 -1.45847 1.30338 0
M  V30 1587 C 152.423 -2.10973 -0.0732344 0
M  V30 1588 O 151.771 -2.00997 -1.08685 0
M  V30 1589 C 151.981 -2.48525 2.45023 0
M  V30 1590 C 153.329 -3.1404 2.8577 0
M  V30 1591 O 154.353 -2.58848 2.44696 0
M  V30 1592 O 153.212 -4.13981 3.56766 0
M  V30 1593 H 150.306 -0.649092 0.512454 0
M  V30 1594 H 152.852 -0.735836 1.52917 0
M  V30 1595 H 151.624 -1.98994 3.36923 0
M  V30 1596 H 151.247 -3.2831 2.24272 0
M  V30 1597 N 152.244 -1.26651 -0.937939 0
M  V30 1598 C 153.469 -1.15279 -1.72411 0
M  V30 1599 C 153.894 0.287866 -1.85884 0
M  V30 1600 O 153.252 1.20855 -1.35143 0
M  V30 1601 C 153.3 -1.83028 -3.10698 0
M  V30 1602 O 152.404 -1.12128 -3.96864 0
M  V30 1603 H 151.745 -0.401504 -0.528858 0
M  V30 1604 H 154.275 -1.67531 -1.1745 0
M  V30 1605 H 154.285 -1.89981 -3.6107 0
M  V30 1606 H 152.96 -2.87833 -3.00208 0
M  V30 1607 H 151.537 -1.13173 -3.55312 0
M  V30 1608 N 153.722 1.14298 -1.08507 0
M  V30 1609 C 154.969 1.85359 -0.815373 0
M  V30 1610 C 155.297 1.83001 0.658865 0
M  V30 1611 O 154.552 1.25655 1.50031 0
M  V30 1612 C 154.851 3.33547 -1.28379 0
M  V30 1613 C 154.517 3.56093 -2.76602 0
M  V30 1614 C 153.179 3.61955 -3.17084 0
M  V30 1615 C 155.531 3.64834 -3.72217 0
M  V30 1616 C 152.859 3.74082 -4.51973 0
M  V30 1617 C 155.211 3.78487 -5.06883 0
M  V30 1618 C 153.875 3.82598 -5.46969 0
M  V30 1619 H 153.145 0.678276 -0.298366 0
M  V30 1620 H 155.792 1.35002 -1.35819 0
M  V30 1621 H 154.097 3.86191 -0.660593 0
M  V30 1622 H 155.794 3.86959 -1.05186 0
M  V30 1623 H 152.384 3.52179 -2.4427 0
M  V30 1624 H 156.568 3.59595 -3.42061 0
M  V30 1625 H 151.824 3.75527 -4.82483 0
M  V30 1626 H 155.998 3.84193 -5.80834 0
M  V30 1627 H 153.625 3.91747 -6.51489 0
M  V30 1628 N 155.201 0.870884 1.31352 0
M  V30 1629 C 156.612 0.534714 1.78879 0
M  V30 1630 C 156.963 -0.948423 1.71754 0
M  V30 1631 O 156.088 -1.74055 1.28584 0
M  V30 1632 C 156.683 0.963839 3.24801 0
M  V30 1633 C 155.242 0.679311 3.70219 0
M  V30 1634 C 154.389 1.15465 2.52117 0
M  V30 1635 H 157.34 1.05651 1.18421 0
M  V30 1636 H 157.361 0.286892 3.79417 0
M  V30 1637 H 156.873 2.04332 3.29955 0
M  V30 1638 H 154.974 -0.388769 3.70566 0
M  V30 1639 H 155.087 1.25698 4.62317 0
M  V30 1640 H 153.451 0.574383 2.48139 0
M  V30 1641 H 154.234 2.24157 2.60016 0
M  V30 1642 N 156.679 -1.44442 0.630414 0
M  V30 1643 C 157.589 -2.34476 -0.0761693 0
M  V30 1644 C 158.605 -1.52576 -0.836449 0
M  V30 1645 O 159.781 -1.85307 -0.788874 0
M  V30 1646 C 156.846 -3.30545 -1.04599 0
M  V30 1647 C 155.907 -4.28352 -0.28516 0
M  V30 1648 C 155.14 -5.19831 -1.20878 0
M  V30 1649 O 155.363 -5.15223 -2.44747 0
M  V30 1650 O 154.297 -5.97892 -0.693491 0
M  V30 1651 H 158.123 -2.96345 0.664324 0
M  V30 1652 H 155.708 -1.44203 0.39061 0
M  V30 1653 H 157.59 -3.89681 -1.60396 0
M  V30 1654 H 156.265 -2.7121 -1.76711 0
M  V30 1655 H 155.172 -3.72764 0.315837 0
M  V30 1656 H 156.505 -4.90605 0.395924 0
M  V30 1657 N 158.157 -0.370918 -1.53173 0
M  V30 1658 C 159.405 0.216673 -2.00935 0
M  V30 1659 C 159.726 1.48845 -1.25977 0
M  V30 1660 O 158.996 1.92286 -0.374551 0
M  V30 1661 H 157.576 0.0830565 -0.742368 0
M  V30 1662 H 160.238 -0.49838 -1.8842 0
M  V30 1663 H 159.334 0.439893 -3.08984 0
M  V30 1664 N 159.635 1.57281 -0.100228 0
M  V30 1665 C 161.046 1.81725 0.428107 0
M  V30 1666 C 161.397 1.01619 1.67833 0
M  V30 1667 O 160.522 0.247098 2.14985 0
M  V30 1668 C 161.117 3.29617 0.78347 0
M  V30 1669 C 159.676 3.54808 1.25653 0
M  V30 1670 C 158.823 2.76118 0.255752 0
M  V30 1671 H 161.774 1.55324 -0.325608 0
M  V30 1672 H 161.795 3.4322 1.64256 0
M  V30 1673 H 161.307 3.87893 -0.12665 0
M  V30 1674 H 159.408 3.01868 2.18418 0
M  V30 1675 H 159.521 4.63443 1.21482 0
M  V30 1676 H 157.885 2.43745 0.738956 0
M  V30 1677 H 158.668 3.37145 -0.647136 0
M  V30 1678 N 161.113 -0.173488 1.56642 0
M  V30 1679 C 162.023 -1.23482 1.99473 0
M  V30 1680 C 163.039 -1.48567 0.905752 0
M  V30 1681 O 164.215 -1.60758 1.21321 0
M  V30 1682 C 161.28 -2.55444 2.34413 0
M  V30 1683 C 160.341 -2.38241 3.57127 0
M  V30 1684 C 159.574 -3.63909 3.90392 0
M  V30 1685 O 159.797 -4.68996 3.24653 0
M  V30 1686 O 158.731 -3.58149 4.83749 0
M  V30 1687 H 162.557 -0.901279 2.90018 0
M  V30 1688 H 160.142 -0.380185 1.44482 0
M  V30 1689 H 162.024 -3.33292 2.57865 0
M  V30 1690 H 160.699 -2.88382 1.4703 0
M  V30 1691 H 159.606 -1.58431 3.38896 0
M  V30 1692 H 160.939 -2.10228 4.45045 0
M  V30 1693 N 162.591 -1.51276 -0.441967 0
M  V30 1694 C 164.007 -1.39349 -0.778083 0
M  V30 1695 C 164.207 -0.472212 -1.95889 0
M  V30 1696 O 163.263 0.0743551 -2.5239 0
M  V30 1697 C 164.576 -2.81292 -1.0628 0
M  V30 1698 C 166.124 -2.9041 -1.16751 0
M  V30 1699 C 166.599 -4.33251 -1.48519 0
M  V30 1700 N 168.09 -4.36336 -1.55453 0
M  V30 1701 C 168.825 -5.43885 -1.81596 0
M  V30 1702 N 168.321 -6.61601 -2.05562 0
M  V30 1703 N 170.114 -5.3136 -1.8334 0
M  V30 1704 H 162.265 -2.09729 0.335774 0
M  V30 1705 H 164.528 -0.943925 0.0878028 0
M  V30 1706 H 164.234 -3.50678 -0.267905 0
M  V30 1707 H 164.108 -3.20334 -1.99163 0
M  V30 1708 H 166.495 -2.21225 -1.95304 0
M  V30 1709 H 166.576 -2.54871 -0.217801 0
M  V30 1710 H 166.22 -5.02984 -0.704958 0
M  V30 1711 H 166.15 -4.66299 -2.44689 0
M  V30 1712 H 168.641 -3.51466 -1.38853 0
M  V30 1713 H 168.954 -7.39361 -2.24867 0
M  V30 1714 H 167.299 -6.64725 -2.02894 0
M  V30 1715 H 170.49 -4.38382 -1.64132 0
M  V30 1716 H 170.663 -6.15258 -2.03377 0
M  V30 1717 N 164.069 0.697108 -1.41344 0
M  V30 1718 C 164.999 1.82353 -1.45841 0
M  V30 1719 C 165.98 1.67115 -0.317247 0
M  V30 1720 O 167.165 1.86871 -0.528474 0
M  V30 1721 C 164.295 3.20476 -1.33838 0
M  V30 1722 C 163.249 3.50415 -2.4575 0
M  V30 1723 C 162.575 4.87878 -2.18813 0
M  V30 1724 C 163.875 3.49546 -3.88091 0
M  V30 1725 H 165.569 1.78846 -2.40113 0
M  V30 1726 H 163.115 0.859028 -1.15571 0
M  V30 1727 H 165.068 3.98988 -1.35596 0
M  V30 1728 H 163.792 3.24604 -0.360498 0
M  V30 1729 H 162.451 2.74253 -2.43271 0
M  V30 1730 H 162.099 4.8863 -1.19371 0
M  V30 1731 H 161.799 5.08875 -2.93803 0
M  V30 1732 H 163.323 5.68702 -2.22284 0
M  V30 1733 H 164.737 4.18066 -3.92293 0
M  V30 1734 H 163.134 3.82075 -4.62751 0
M  V30 1735 H 164.204 2.48552 -4.16353 0
M  V30 1736 N 165.547 1.27147 0.931209 0
M  V30 1737 C 166.497 1.06227 2.01742 0
M  V30 1738 C 167.481 -0.00859065 1.60898 0
M  V30 1739 O 168.673 0.209537 1.75755 0
M  V30 1740 C 165.802 0.707787 3.35924 0
M  V30 1741 C 164.888 1.81661 3.83223 0
M  V30 1742 N 165.279 3.05564 4.03069 0
M  V30 1743 C 163.577 1.70249 4.12227 0
M  V30 1744 C 164.278 3.77697 4.42403 0
M  V30 1745 N 163.254 3.0544 4.49675 0
M  V30 1746 H 167.056 2.00261 2.15111 0
M  V30 1747 H 164.57 1.1781 1.11779 0
M  V30 1748 H 166.567 0.539043 4.134 0
M  V30 1749 H 165.227 -0.224964 3.2392 0
M  V30 1750 H 166.238 3.41363 3.89476 0
M  V30 1751 H 162.915 0.840329 4.08956 0
M  V30 1752 H 164.305 4.84168 4.65866 0
M  V30 1753 N 167.025 -1.13721 1.09112 0
M  V30 1754 C 167.988 -2.17222 0.731241 0
M  V30 1755 C 168.988 -1.59035 -0.237566 0
M  V30 1756 O 170.178 -1.74192 -0.0161704 0
M  V30 1757 C 167.31 -3.40804 0.0808443 0
M  V30 1758 H 168.503 -2.50573 1.64783 0
M  V30 1759 H 166.056 -1.28493 0.889897 0
M  V30 1760 H 166.791 -3.1304 -0.847127 0
M  V30 1761 H 166.576 -3.84306 0.777896 0
M  V30 1762 H 168.066 -4.1731 -0.155657 0
M  V30 1763 N 168.503 -0.877838 -1.30888 0
M  V30 1764 C 169.752 -0.488793 -1.95688 0
M  V30 1765 C 170.065 0.965485 -1.70111 0
M  V30 1766 O 171.271 1.46104 -2.28836 0
M  V30 1767 C 169.727 -0.823201 -3.50359 0
M  V30 1768 C 169.335 -2.29477 -3.84765 0
M  V30 1769 C 171.079 -0.503009 -4.21509 0
M  V30 1770 C 168.986 -2.57118 -5.32583 0
M  V30 1771 H 167.916 -0.179062 -0.732429 0
M  V30 1772 H 170.567 -1.07183 -1.48943 0
M  V30 1773 H 168.949 -0.169331 -3.95638 0
M  V30 1774 H 170.123 -2.99236 -3.5042 0
M  V30 1775 H 168.438 -2.58178 -3.267 0
M  V30 1776 H 171.035 -0.68665 -5.30273 0
M  V30 1777 H 171.378 0.557109 -4.12555 0
M  V30 1778 H 171.911 -1.11376 -3.8189 0
M  V30 1779 H 168.65 -3.61843 -5.4658 0
M  V30 1780 H 168.17 -1.91961 -5.68253 0
M  V30 1781 H 169.849 -2.42251 -5.99936 0
M  V30 1782 N 169.982 1.44106 -0.638065 0
M  V30 1783 C 170.929 2.30715 0.062701 0
M  V30 1784 C 171.899 1.43882 0.829883 0
M  V30 1785 O 173.084 1.72775 0.809532 0
M  V30 1786 C 170.224 3.29258 1.03358 0
M  V30 1787 C 169.337 4.31192 0.26409 0
M  V30 1788 C 168.472 5.16825 1.22741 0
M  V30 1789 C 167.511 6.10462 0.447475 0
M  V30 1790 N 166.648 6.8877 1.36161 0
M  V30 1791 H 171.488 2.90096 -0.681781 0
M  V30 1792 H 169.025 1.42925 -0.347988 0
M  V30 1793 H 170.983 3.84886 1.60992 0
M  V30 1794 H 169.613 2.71562 1.74511 0
M  V30 1795 H 168.665 3.77981 -0.428295 0
M  V30 1796 H 169.977 4.97619 -0.343052 0
M  V30 1797 H 169.131 5.77004 1.87487 0
M  V30 1798 H 167.87 4.50488 1.86847 0
M  V30 1799 H 166.875 5.49386 -0.213433 0
M  V30 1800 H 168.1 6.78837 -0.188968 0
M  V30 1801 H 166.046 6.25096 1.98975 0
M  V30 1802 H 165.963 7.51663 0.808656 0
M  V30 1803 H 167.231 7.53467 1.99769 0
M  V30 1804 N 171.46 0.379036 1.52974 0
M  V30 1805 C 172.37 -0.468639 2.29872 0
M  V30 1806 C 173.386 -1.08067 1.36373 0
M  V30 1807 O 174.562 -1.08871 1.69438 0
M  V30 1808 C 171.627 -1.58594 3.083 0
M  V30 1809 C 170.688 -1.00007 4.17489 0
M  V30 1810 C 169.921 -2.06413 4.92168 0
M  V30 1811 O 170.144 -3.27751 4.66835 0
M  V30 1812 O 169.078 -1.68717 5.7777 0
M  V30 1813 H 172.904 0.157508 3.03291 0
M  V30 1814 H 170.489 0.143035 1.48714 0
M  V30 1815 H 172.371 -2.23525 3.57232 0
M  V30 1816 H 171.046 -2.19724 2.37703 0
M  V30 1817 H 169.953 -0.314299 3.72777 0
M  V30 1818 H 171.286 -0.433135 4.90291 0
M  V30 1819 N 172.938 -1.57226 0.108567 0
M  V30 1820 C 173.87 -2.11809 -0.875752 0
M  V30 1821 C 174.883 -1.05839 -1.23701 0
M  V30 1822 O 176.072 -1.33245 -1.18778 0
M  V30 1823 C 173.172 -2.59411 -2.18081 0
M  V30 1824 C 172.345 -3.89364 -1.99284 0
M  V30 1825 C 171.404 -4.22672 -3.13424 0
M  V30 1826 O 170.43 -4.91668 -2.86795 0
M  V30 1827 N 171.632 -3.79154 -4.3957 0
M  V30 1828 H 174.397 -2.9689 -0.409477 0
M  V30 1829 H 171.958 -1.61721 -0.076158 0
M  V30 1830 H 173.95 -2.7873 -2.93414 0
M  V30 1831 H 172.52 -1.79268 -2.5609 0
M  V30 1832 H 171.74 -3.79059 -1.08203 0
M  V30 1833 H 173.028 -4.74358 -1.84017 0
M  V30 1834 H 172.426 -3.23486 -4.64083 0
M  V30 1835 H 170.983 -4.03602 -5.11809 0
M  V30 1836 N 174.416 0.165178 -1.56732 0
M  V30 1837 C 175.346 1.20651 -1.99914 0
M  V30 1838 C 176.327 1.45827 -0.875705 0
M  V30 1839 O 177.512 1.57057 -1.14223 0
M  V30 1840 C 174.642 2.54401 -2.36427 0
M  V30 1841 C 173.596 2.43782 -3.51787 0
M  V30 1842 C 172.922 3.82078 -3.7406 0
M  V30 1843 C 174.222 1.93732 -4.85041 0
M  V30 1844 H 175.916 0.847534 -2.87154 0
M  V30 1845 H 173.462 0.40625 -1.38151 0
M  V30 1846 H 175.415 3.27458 -2.65234 0
M  V30 1847 H 174.139 2.92098 -1.46103 0
M  V30 1848 H 172.798 1.73178 -3.23117 0
M  V30 1849 H 172.446 4.17179 -2.81017 0
M  V30 1850 H 172.146 3.7584 -4.51684 0
M  V30 1851 H 173.67 4.56712 -4.05274 0
M  V30 1852 H 175.084 2.56569 -5.12684 0
M  V30 1853 H 173.481 1.98428 -5.66345 0
M  V30 1854 H 174.551 0.891962 -4.76626 0
M  V30 1855 N 175.894 1.51508 0.433938 0
M  V30 1856 C 177.143 1.63578 1.18005 0
M  V30 1857 C 177.456 0.359514 1.92268 0
M  V30 1858 O 178.662 0.359632 2.69108 0
M  V30 1859 C 177.118 2.88901 2.14626 0
M  V30 1860 C 176.726 4.23544 1.45995 0
M  V30 1861 C 178.47 3.10328 2.89649 0
M  V30 1862 C 176.377 5.40014 2.4112 0
M  V30 1863 H 175.307 0.609277 0.444182 0
M  V30 1864 H 177.958 1.77978 0.446773 0
M  V30 1865 H 176.34 2.68142 2.91403 0
M  V30 1866 H 177.514 4.54696 0.747532 0
M  V30 1867 H 175.829 4.08021 0.831115 0
M  V30 1868 H 178.426 3.94518 3.60915 0
M  V30 1869 H 178.769 2.23544 3.51189 0
M  V30 1870 H 179.302 3.31443 2.19978 0
M  V30 1871 H 176.041 6.29068 1.84264 0
M  V30 1872 H 175.561 5.13233 3.10406 0
M  V30 1873 H 177.24 5.72099 3.02177 0
M  V30 1874 N 177.372 -0.689602 1.41712 0
M  V30 1875 C 178.304 -1.815 1.39966 0
M  V30 1876 C 179.317 -1.59995 0.300917 0
M  V30 1877 O 180.506 -1.69387 0.563039 0
M  V30 1878 C 177.606 -3.18364 1.16179 0
M  V30 1879 C 176.779 -3.66847 2.38206 0
M  V30 1880 C 175.838 -4.82398 2.10186 0
M  V30 1881 O 174.864 -4.93706 2.83272 0
M  V30 1882 N 176.066 -5.70064 1.0958 0
M  V30 1883 H 178.831 -1.83488 2.36965 0
M  V30 1884 H 176.392 -0.872149 1.36401 0
M  V30 1885 H 178.384 -3.93301 0.953756 0
M  V30 1886 H 176.954 -3.11365 0.27756 0
M  V30 1887 H 176.174 -2.82751 2.74673 0
M  V30 1888 H 177.462 -3.95978 3.19498 0
M  V30 1889 H 176.86 -5.63565 0.491019 0
M  V30 1890 H 175.417 -6.44874 0.947656 0
M  V30 1891 N 178.85 -1.27639 -0.924453 0
M  V30 1892 C 179.76 -1.12466 -2.05885 0
M  V30 1893 C 180.776 -0.053869 -1.73917 0
M  V30 1894 O 181.952 -0.261012 -1.99702 0
M  V30 1895 C 179.017 -0.776768 -3.37886 0
M  V30 1896 C 178.078 -1.92878 -3.83532 0
M  V30 1897 C 177.311 -1.59739 -5.09234 0
M  V30 1898 O 177.534 -0.506782 -5.68144 0
M  V30 1899 O 176.468 -2.43761 -5.50331 0
M  V30 1900 H 180.294 -2.07671 -2.21599 0
M  V30 1901 H 177.879 -1.06857 -1.04413 0
M  V30 1902 H 179.761 -0.596229 -4.17161 0
M  V30 1903 H 178.436 0.145732 -3.23372 0
M  V30 1904 H 177.343 -2.1644 -3.0513 0
M  V30 1905 H 178.676 -2.8316 -4.02593 0
M  V30 1906 N 180.328 1.1314 -1.09713 0
M  V30 1907 C 181.576 1.84119 -0.833338 0
M  V30 1908 C 181.897 1.84097 0.642904 0
M  V30 1909 O 181.167 1.29881 1.46655 0
M  V30 1910 H 179.747 0.681766 -0.305293 0
M  V30 1911 H 182.409 1.37038 -1.38588 0
M  V30 1912 H 181.505 2.88543 -1.18951 0
M  V30 1913 N 181.806 0.884767 1.30421 0
M  V30 1914 C 182.736 0.367574 2.30589 0
M  V30 1915 C 183.717 -0.549464 1.60981 0
M  V30 1916 O 184.902 -0.46336 1.88591 0
M  V30 1917 C 182.032 -0.418944 3.44764 0
M  V30 1918 C 180.986 0.406316 4.26067 0
M  V30 1919 C 180.312 -0.506793 5.32293 0
M  V30 1920 C 181.612 1.64832 4.95608 0
M  V30 1921 H 183.306 1.20462 2.74097 0
M  V30 1922 H 180.852 0.580695 1.31772 0
M  V30 1923 H 182.805 -0.791395 4.13902 0
M  V30 1924 H 181.529 -1.28964 3.0006 0
M  V30 1925 H 180.188 0.760903 3.58617 0
M  V30 1926 H 179.836 -1.37519 4.83836 0
M  V30 1927 H 179.536 0.0415828 5.87585 0
M  V30 1928 H 181.06 -0.875764 6.04287 0
M  V30 1929 H 182.474 1.34646 5.57264 0
M  V30 1930 H 180.871 2.13688 5.60765 0
M  V30 1931 H 181.941 2.39284 4.21748 0
M  V30 1932 N 183.284 -1.43765 0.645699 0
M  V30 1933 C 184.214 -2.33471 -0.0370477 0
M  V30 1934 C 185.195 -1.49042 -0.819779 0
M  V30 1935 O 186.38 -1.77726 -0.782758 0
M  V30 1936 C 183.51 -3.32311 -1.0093 0
M  V30 1937 C 182.464 -4.2667 -0.337201 0
M  V30 1938 C 181.79 -5.1549 -1.42037 0
M  V30 1939 C 183.09 -5.16657 0.765706 0
M  V30 1940 H 184.784 -2.90809 0.712069 0
M  V30 1941 H 182.33 -1.39834 0.343876 0
M  V30 1942 H 184.283 -3.9396 -1.49578 0
M  V30 1943 H 183.007 -2.73213 -1.78948 0
M  V30 1944 H 181.666 -3.66374 0.128771 0
M  V30 1945 H 181.314 -4.52735 -2.1918 0
M  V30 1946 H 181.014 -5.79438 -0.975966 0
M  V30 1947 H 182.538 -5.80012 -1.90838 0
M  V30 1948 H 183.952 -5.72158 0.361702 0
M  V30 1949 H 182.349 -5.89286 1.13413 0
M  V30 1950 H 183.419 -4.56796 1.62683 0
M  V30 1951 N 184.763 -0.387143 -1.52771 0
M  V30 1952 C 186.04 0.253197 -1.93954 0
M  V30 1953 C 186.42 1.64545 -1.32243 0
M  V30 1954 O 185.768 2.23191 -0.489699 0
M  V30 1955 C 185.978 0.281722 -3.47861 0
M  V30 1956 C 187.326 0.511715 -4.21505 0
M  V30 1957 O 188.35 0.362023 -3.54356 0
M  V30 1958 O 187.209 0.804847 -5.40541 0
M  V30 1959 H 184.303 0.156845 -0.811991 0
M  V30 1960 H 186.849 -0.441494 -1.63856 0
M  V30 1961 H 185.621 -0.693571 -3.85104 0
M  V30 1962 H 185.244 1.02142 -3.84256 0
M  V30 1963 N 186.241 1.57166 -0.116904 0
M  V30 1964 C 187.657 1.5779 0.239693 0
M  V30 1965 C 187.857 1.1295 1.66867 0
M  V30 1966 O 186.913 0.81592 2.38954 0
M  V30 1967 C 188.226 3.00699 0.00828202 0
M  V30 1968 C 189.774 3.12912 0.0743438 0
M  V30 1969 C 190.249 4.57817 -0.129348 0
M  V30 1970 N 191.74 4.63139 -0.075247 0
M  V30 1971 C 192.475 5.73023 -0.207788 0
M  V30 1972 N 191.971 6.91665 -0.396382 0
M  V30 1973 N 193.764 5.61906 -0.14751 0
M  V30 1974 H 185.915 1.84615 -1.05029 0
M  V30 1975 H 188.178 0.85311 -0.41341 0
M  V30 1976 H 187.884 3.37784 -0.979531 0
M  V30 1977 H 187.758 3.69848 0.741077 0
M  V30 1978 H 190.145 2.75686 1.05268 0
M  V30 1979 H 190.226 2.4631 -0.690297 0
M  V30 1980 H 189.87 4.95742 -1.10465 0
M  V30 1981 H 189.8 5.22507 0.655253 0
M  V30 1982 H 192.291 3.7784 0.0670898 0
M  V30 1983 H 192.604 7.71255 -0.488437 0
M  V30 1984 H 190.949 6.93654 -0.432329 0
M  V30 1985 H 194.14 4.681 -0.00115036 0
M  V30 1986 H 194.313 6.47501 -0.254247 0
M  V30 1987 N 187.719 -0.156864 1.56817 0
M  V30 1988 C 188.959 -0.877453 1.84608 0
M  V30 1989 C 189.323 -1.78791 0.699845 0
M  V30 1990 O 190.524 -2.5472 0.858553 0
M  V30 1991 C 188.795 -1.63992 3.17555 0
M  V30 1992 S 190.354 -2.40729 3.66872 0
M  V30 1993 H 187.172 -0.293612 0.647544 0
M  V30 1994 H 189.774 -0.138099 1.95012 0
M  V30 1995 H 188.478 -0.962363 3.98957 0
M  V30 1996 H 188.009 -2.42038 3.10131 0
M  V30 1997 H 190.024 -3.65725 3.3535 0
M  V30 1998 N 189.197 -1.51736 -0.425897 0
M  V30 1999 C 190.443 -1.65214 -1.1761 0
M  V30 2000 C 190.776 -0.372778 -1.90589 0
M  V30 2001 O 190.051 0.628139 -1.84078 0
M  V30 2002 C 190.334 -2.86312 -2.18398 0
M  V30 2003 C 190.187 -4.24254 -1.49426 0
M  V30 2004 C 191.506 -3.02925 -3.19256 0
M  V30 2005 H 188.625 -0.601263 -0.426206 0
M  V30 2006 H 191.267 -1.8425 -0.463882 0
M  V30 2007 H 189.417 -2.70213 -2.79137 0
M  V30 2008 H 191.089 -4.52046 -0.919362 0
M  V30 2009 H 189.332 -4.26426 -0.796432 0
M  V30 2010 H 190.003 -5.05001 -2.22885 0
M  V30 2011 H 192.479 -3.1781 -2.68581 0
M  V30 2012 H 191.355 -3.89199 -3.8706 0
M  V30 2013 H 191.616 -2.15497 -3.86023 0
M  V30 2014 N 190.675 0.682077 -1.42076 0
M  V30 2015 C 191.9 1.47558 -1.45744 0
M  V30 2016 C 192.325 1.87977 -0.0680981 0
M  V30 2017 O 191.683 1.55522 0.9318 0
M  V30 2018 C 191.731 2.70575 -2.38373 0
M  V30 2019 O 190.835 3.68573 -1.85007 0
M  V30 2020 H 190.176 0.443585 -0.494093 0
M  V30 2021 H 192.706 0.837238 -1.86686 0
M  V30 2022 H 192.716 3.18729 -2.54707 0
M  V30 2023 H 191.391 2.40495 -3.39315 0
M  V30 2024 H 189.968 3.2757 -1.78192 0
M  V30 2025 N 192.153 1.28127 0.917671 0
M  V30 2026 C 193.4 1.15052 1.66641 0
M  V30 2027 C 193.728 -0.301677 1.92146 0
M  V30 2028 O 192.983 -1.23622 1.51711 0
M  V30 2029 C 193.282 1.89018 3.03327 0
M  V30 2030 C 192.948 3.38832 2.97496 0
M  V30 2031 C 191.61 3.79693 2.95613 0
M  V30 2032 C 193.962 4.34378 2.88036 0
M  V30 2033 C 191.29 5.14447 2.82066 0
M  V30 2034 C 193.642 5.69201 2.7603 0
M  V30 2035 C 192.306 6.09343 2.72502 0
M  V30 2036 H 191.576 0.421006 0.609783 0
M  V30 2037 H 194.223 1.58855 1.06945 0
M  V30 2038 H 192.528 1.37752 3.66785 0
M  V30 2039 H 194.225 1.76321 3.60156 0
M  V30 2040 H 190.815 3.06342 2.99754 0
M  V30 2041 H 194.999 4.03775 2.88581 0
M  V30 2042 H 190.255 5.44681 2.77728 0
M  V30 2043 H 194.429 6.42901 2.67678 0
M  V30 2044 H 192.056 7.13712 2.61762 0
M  V30 2045 N 193.631 -1.12557 1.10312 0
M  V30 2046 C 194.563 -2.17971 0.708625 0
M  V30 2047 C 195.576 -1.60806 -0.254027 0
M  V30 2048 O 196.765 -1.78458 -0.0386891 0
M  V30 2049 C 193.865 -3.38891 0.0248198 0
M  V30 2050 C 193.038 -4.25548 1.01132 0
M  V30 2051 C 192.097 -5.24972 0.35924 0
M  V30 2052 O 191.123 -5.60174 1.00965 0
M  V30 2053 N 192.325 -5.73747 -0.882847 0
M  V30 2054 H 195.09 -2.52427 1.61557 0
M  V30 2055 H 192.651 -1.27967 0.991771 0
M  V30 2056 H 194.643 -4.02485 -0.422852 0
M  V30 2057 H 193.213 -3.02596 -0.784514 0
M  V30 2058 H 192.433 -3.58589 1.6373 0
M  V30 2059 H 193.721 -4.80294 1.67914 0
M  V30 2060 H 193.119 -5.4731 -1.43065 0
M  V30 2061 H 191.676 -6.39234 -1.27369 0
M  V30 2062 N 195.109 -0.891671 -1.2995 0
M  V30 2063 C 196.072 -0.36828 -2.26222 0
M  V30 2064 C 197.072 0.493014 -1.53056 0
M  V30 2065 O 198.262 0.299213 -1.71611 0
M  V30 2066 C 195.394 0.47442 -3.37583 0
M  V30 2067 H 196.587 -1.21844 -2.74033 0
M  V30 2068 H 194.14 -0.669107 -1.41254 0
M  V30 2069 H 194.875 1.34489 -2.95099 0
M  V30 2070 H 194.66 -0.142615 -3.91841 0
M  V30 2071 H 196.15 0.83218 -4.09224 0
M  V30 2072 N 196.587 1.43421 -0.653314 0
M  V30 2073 C 198.003 1.56341 -0.320886 0
M  V30 2074 C 198.203 1.63696 1.17499 0
M  V30 2075 O 197.259 1.59208 1.95982 0
M  V30 2076 C 198.572 2.82424 -1.03233 0
M  V30 2077 C 200.12 2.96168 -1.01259 0
M  V30 2078 C 200.595 4.25084 -1.70492 0
M  V30 2079 N 202.086 4.31948 -1.67257 0
M  V30 2080 C 202.821 5.30466 -2.17701 0
M  V30 2081 N 202.317 6.35261 -2.76434 0
M  V30 2082 N 204.11 5.2212 -2.082 0
M  V30 2083 H 196.261 1.3689 -1.62403 0
M  V30 2084 H 198.524 0.657455 -0.682977 0
M  V30 2085 H 198.23 2.83053 -2.08744 0
M  V30 2086 H 198.104 3.72653 -0.583948 0
M  V30 2087 H 200.491 2.9508 0.0341235 0
M  V30 2088 H 200.572 2.07229 -1.49966 0
M  V30 2089 H 200.216 4.26932 -2.7512 0
M  V30 2090 H 200.146 5.1292 -1.19251 0
M  V30 2091 H 202.637 3.56838 -1.24398 0
M  V30 2092 H 202.95 7.06754 -3.12601 0
M  V30 2093 H 201.295 6.35884 -2.80495 0
M  V30 2094 H 204.486 4.39166 -1.62021 0
M  V30 2095 H 204.659 5.98739 -2.47822 0
M  V30 2096 N 198.065 0.39524 1.52563 0
M  V30 2097 C 199.312 -0.185044 2.01653 0
M  V30 2098 C 199.64 -1.46317 1.28146 0
M  V30 2099 O 198.895 -1.9213 0.372074 0
M  V30 2100 C 199.194 -0.493444 3.53977 0
M  V30 2101 C 198.86 0.69384 4.4553 0
M  V30 2102 C 197.522 1.01954 4.70275 0
M  V30 2103 C 199.874 1.48785 4.99512 0
M  V30 2104 C 197.202 2.14069 5.46252 0
M  V30 2105 C 199.554 2.59965 5.76716 0
M  V30 2106 C 198.218 2.93037 5.99738 0
M  V30 2107 H 197.488 -0.0677123 0.7379 0
M  V30 2108 H 200.135 0.533807 1.8391 0
M  V30 2109 H 198.44 -1.29369 3.69825 0
M  V30 2110 H 200.137 -0.955163 3.89458 0
M  V30 2111 H 196.727 0.429987 4.26438 0
M  V30 2112 H 200.911 1.24946 4.80315 0
M  V30 2113 H 196.167 2.40056 5.62302 0
M  V30 2114 H 200.341 3.21887 6.17545 0
M  V30 2115 H 197.968 3.8003 6.58393 0
M  V30 2116 N 199.544 -1.57102 0.125237 0
M  V30 2117 C 200.507 -2.14471 -0.80838 0
M  V30 2118 C 201.507 -1.0811 -1.19033 0
M  V30 2119 O 202.697 -1.33856 -1.11482 0
M  V30 2120 C 199.829 -2.69005 -2.09402 0
M  V30 2121 H 201.022 -2.98297 -0.309696 0
M  V30 2122 H 198.575 -1.55807 -0.124051 0
M  V30 2123 H 199.31 -1.88785 -2.63687 0
M  V30 2124 H 199.095 -3.46799 -1.82957 0
M  V30 2125 H 200.585 -3.13278 -2.76128 0
M  V30 2126 N 201.022 0.148545 -1.56898 0
M  V30 2127 C 201.932 1.20293 -2.01412 0
M  V30 2128 C 202.948 1.47107 -0.929273 0
M  V30 2129 O 204.124 1.58807 -1.23863 0
M  V30 2130 C 201.189 2.51682 -2.38447 0
M  V30 2131 C 200.25 2.32529 -3.60872 0
M  V30 2132 C 199.483 3.57653 -3.96132 0
M  V30 2133 O 199.706 4.63771 -3.32073 0
M  V30 2134 O 198.64 3.50408 -4.89385 0
M  V30 2135 H 202.466 0.855025 -2.91416 0
M  V30 2136 H 200.051 0.357151 -1.45068 0
M  V30 2137 H 201.933 3.29147 -2.63135 0
M  V30 2138 H 200.608 2.86006 -1.51599 0
M  V30 2139 H 199.515 1.53019 -3.41373 0
M  V30 2140 H 200.848 2.03121 -4.48333 0
M  V30 2141 N 202.5 1.5196 0.417844 0
M  V30 2142 C 203.447 1.74678 1.50852 0
M  V30 2143 C 204.417 0.588947 1.55308 0
M  V30 2144 O 205.602 0.825544 1.72016 0
M  V30 2145 C 202.742 1.89544 2.88387 0
M  V30 2146 C 201.855 3.17166 2.93309 0
M  V30 2147 C 200.99 3.22513 4.22088 0
M  V30 2148 C 200.029 4.44372 4.20951 0
M  V30 2149 N 199.166 4.47161 5.41287 0
M  V30 2150 H 204.006 2.67768 1.30783 0
M  V30 2151 H 201.543 1.32689 0.63498 0
M  V30 2152 H 203.501 1.96146 3.68216 0
M  V30 2153 H 202.131 0.998424 3.06971 0
M  V30 2154 H 201.183 3.19778 2.06024 0
M  V30 2155 H 202.495 4.07021 2.88332 0
M  V30 2156 H 201.649 3.28139 5.10303 0
M  V30 2157 H 200.388 2.30581 4.29748 0
M  V30 2158 H 199.393 4.38902 3.31127 0
M  V30 2159 H 200.618 5.3759 4.14938 0
M  V30 2160 H 198.564 3.58108 5.49632 0
M  V30 2161 H 198.481 5.3085 5.3827 0
M  V30 2162 H 199.749 4.57005 6.3148 0
M  V30 2163 N 203.978 -0.674533 1.42435 0
M  V30 2164 C 204.888 -1.81751 1.48337 0
M  V30 2165 C 205.904 -1.69975 0.372099 0
M  V30 2166 O 207.08 -1.91521 0.62304 0
M  V30 2167 C 204.145 -3.17895 1.38361 0
M  V30 2168 C 203.206 -3.41625 2.59982 0
M  V30 2169 C 202.439 -4.71274 2.50473 0
M  V30 2170 O 202.662 -5.49197 1.54075 0
M  V30 2171 O 201.596 -4.96254 3.4061 0
M  V30 2172 H 205.422 -1.79728 2.44809 0
M  V30 2173 H 203.007 -0.830312 1.24202 0
M  V30 2174 H 204.889 -3.99136 1.35161 0
M  V30 2175 H 203.564 -3.20555 0.450144 0
M  V30 2176 H 202.471 -2.60231 2.68757 0
M  V30 2177 H 203.804 -3.43796 3.52229 0
M  V30 2178 N 205.456 -1.28612 -0.910864 0
M  V30 2179 C 206.366 -1.14643 -2.0468 0
M  V30 2180 C 207.382 -0.0723121 -1.7385 0
M  V30 2181 O 208.558 -0.282178 -1.99413 0
M  V30 2182 C 205.623 -0.812561 -3.37044 0
M  V30 2183 C 204.684 -1.96935 -3.81465 0
M  V30 2184 C 203.917 -1.65131 -5.07511 0
M  V30 2185 O 204.14 -0.567013 -5.67575 0
M  V30 2186 O 203.074 -2.49585 -5.47714 0
M  V30 2187 H 206.9 -2.1001 -2.19384 0
M  V30 2188 H 204.485 -1.07958 -1.03274 0
M  V30 2189 H 206.367 -0.640441 -4.16505 0
M  V30 2190 H 205.042 0.111426 -3.23508 0
M  V30 2191 H 203.949 -2.19664 -3.02818 0
M  V30 2192 H 205.282 -2.87414 -3.99567 0
M  V30 2193 N 206.934 1.1197 -1.10907 0
M  V30 2194 C 207.864 2.19928 -0.784473 0
M  V30 2195 C 208.845 1.6833 0.244726 0
M  V30 2196 O 210.03 1.93892 0.109418 0
M  V30 2197 C 207.16 3.46597 -0.220827 0
M  V30 2198 C 206.114 4.11376 -1.18127 0
M  V30 2199 C 205.44 5.32554 -0.478594 0
M  V30 2200 C 206.74 4.56945 -2.52979 0
M  V30 2201 H 208.434 2.47337 -1.68715 0
M  V30 2202 H 205.98 1.18879 -0.812642 0
M  V30 2203 H 207.933 4.21396 0.0184278 0
M  V30 2204 H 206.657 3.1863 0.717113 0
M  V30 2205 H 205.316 3.38564 -1.40606 0
M  V30 2206 H 204.964 5.00856 0.463976 0
M  V30 2207 H 204.664 5.76844 -1.11912 0
M  V30 2208 H 206.188 6.10096 -0.248 0
M  V30 2209 H 207.602 5.23093 -2.3462 0
M  V30 2210 H 205.999 5.1203 -3.12962 0
M  V30 2211 H 207.069 3.70676 -3.12614 0
M  V30 2212 N 208.412 0.89855 1.29475 0
M  V30 2213 C 209.345 0.319981 2.25945 0
M  V30 2214 C 210.323 -0.567189 1.52387 0
M  V30 2215 O 211.507 -0.514254 1.8135 0
M  V30 2216 C 208.634 -0.544013 3.34303 0
M  V30 2217 C 207.68 0.275682 4.25608 0
M  V30 2218 S 208.513 1.67272 5.08704 0
M  V30 2219 C 209.669 0.815621 6.20563 0
M  V30 2220 H 209.902 1.13767 2.74671 0
M  V30 2221 H 207.435 0.69882 1.3768 0
M  V30 2222 H 209.393 -1.03673 3.97193 0
M  V30 2223 H 208.054 -1.33593 2.84274 0
M  V30 2224 H 207.247 -0.384263 5.02533 0
M  V30 2225 H 206.849 0.701496 3.67362 0
M  V30 2226 H 209.141 0.0385042 6.77489 0
M  V30 2227 H 210.084 1.55691 6.90772 0
M  V30 2228 H 210.492 0.370516 5.63283 0
M  V30 2229 N 209.89 -1.43072 0.660911 0
M  V30 2230 C 210.82 -2.33497 -0.0122829 0
M  V30 2231 C 211.801 -1.49903 -0.803925 0
M  V30 2232 O 212.986 -1.78546 -0.763864 0
M  V30 2233 C 210.116 -3.33363 -0.973994 0
M  V30 2234 C 209.07 -4.27003 -0.291928 0
M  V30 2235 C 208.396 -5.16967 -1.36562 0
M  V30 2236 C 209.696 -5.15816 0.820462 0
M  V30 2237 H 211.39 -2.90038 0.742873 0
M  V30 2238 H 208.936 -1.39461 0.358688 0
M  V30 2239 H 210.889 -3.95524 -1.45392 0
M  V30 2240 H 209.613 -2.75095 -1.7604 0
M  V30 2241 H 208.272 -3.66217 0.167623 0
M  V30 2242 H 207.92 -4.55034 -2.14366 0
M  V30 2243 H 207.62 -5.80441 -0.914454 0
M  V30 2244 H 209.144 -5.82003 -1.84675 0
M  V30 2245 H 210.558 -5.71742 0.422366 0
M  V30 2246 H 208.955 -5.8805 1.19656 0
M  V30 2247 H 210.025 -4.55045 1.67518 0
M  V30 2248 N 211.368 -0.403325 -1.52352 0
M  V30 2249 C 212.614 0.174605 -2.02047 0
M  V30 2250 C 212.947 1.45282 -1.28867 0
M  V30 2251 O 212.222 1.90483 -0.393257 0
M  V30 2252 C 212.505 0.428238 -3.57545 0
M  V30 2253 C 212.358 -0.866248 -4.4138 0
M  V30 2254 C 213.677 1.21287 -4.23057 0
M  V30 2255 H 210.796 0.0619851 -0.734389 0
M  V30 2256 H 213.438 -0.53565 -1.82293 0
M  V30 2257 H 211.588 1.03327 -3.74507 0
M  V30 2258 H 213.26 -1.50265 -4.3614 0
M  V30 2259 H 211.503 -1.47851 -4.07827 0
M  V30 2260 H 212.174 -0.643249 -5.48239 0
M  V30 2261 H 214.65 0.700703 -4.10158 0
M  V30 2262 H 213.526 1.35909 -5.31808 0
M  V30 2263 H 213.787 2.23193 -3.81625 0
M  V30 2264 N 212.846 1.57033 -0.133567 0
M  V30 2265 C 213.796 2.12641 0.822671 0
M  V30 2266 C 214.78 1.05081 1.21847 0
M  V30 2267 O 215.972 1.31287 1.18713 0
M  V30 2268 C 213.101 2.74094 2.06706 0
M  V30 2269 C 212.187 3.88757 1.69497 0
M  V30 2270 N 212.578 4.95194 1.03037 0
M  V30 2271 C 210.876 3.99213 1.98859 0
M  V30 2272 C 211.577 5.75414 0.852873 0
M  V30 2273 N 210.553 5.25726 1.3825 0
M  V30 2274 H 214.355 2.92308 0.305537 0
M  V30 2275 H 211.869 1.62256 0.0684276 0
M  V30 2276 H 213.866 3.12285 2.76195 0
M  V30 2277 H 212.526 1.95896 2.5895 0
M  V30 2278 H 213.537 5.13247 0.692669 0
M  V30 2279 H 210.214 3.32075 2.53047 0
M  V30 2280 H 211.604 6.71089 0.330091 0
M  V30 2281 N 214.325 -0.140222 1.56975 0
M  V30 2282 C 215.55 -0.870414 1.88251 0
M  V30 2283 C 215.975 -1.73637 0.723312 0
M  V30 2284 O 215.333 -1.78329 -0.32689 0
M  V30 2285 C 215.381 -1.69737 3.18154 0
M  V30 2286 O 214.485 -2.80229 3.02565 0
M  V30 2287 H 213.826 -0.242025 0.61832 0
M  V30 2288 H 216.356 -0.128999 2.04193 0
M  V30 2289 H 216.366 -2.09099 3.50345 0
M  V30 2290 H 215.041 -1.06152 4.02125 0
M  V30 2291 H 213.618 -2.44224 2.81796 0
M  V30 2292 N 215.803 -1.52179 -0.40978 0
M  V30 2293 C 216.733 -1.78435 -1.5061 0
M  V30 2294 C 217.714 -0.635295 -1.57791 0
M  V30 2295 O 218.899 -0.880823 -1.73076 0
M  V30 2296 C 216.029 -1.93444 -2.88439 0
M  V30 2297 C 214.983 -3.09038 -2.96108 0
M  V30 2298 C 214.309 -3.09268 -4.36185 0
M  V30 2299 C 215.609 -4.48508 -2.67652 0
M  V30 2300 H 217.303 -2.70237 -1.28889 0
M  V30 2301 H 214.849 -1.30036 -0.618605 0
M  V30 2302 H 216.802 -2.10394 -3.65119 0
M  V30 2303 H 215.526 -0.983129 -3.11452 0
M  V30 2304 H 214.185 -2.91837 -2.21872 0
M  V30 2305 H 213.833 -2.11861 -4.56206 0
M  V30 2306 H 213.533 -3.86907 -4.42241 0
M  V30 2307 H 215.057 -3.28348 -5.14801 0
M  V30 2308 H 216.471 -4.65918 -3.34056 0
M  V30 2309 H 214.868 -5.28059 -2.85085 0
M  V30 2310 H 215.938 -4.56649 -1.63095 0
M  V30 2311 N 217.281 0.66697 -1.42791 0
M  V30 2312 C 218.191 1.80962 -1.49299 0
M  V30 2313 C 219.207 1.69775 -0.381108 0
M  V30 2314 O 220.383 1.91188 -0.633188 0
M  V30 2315 C 217.448 3.17156 -1.40045 0
M  V30 2316 C 216.509 3.40242 -2.6179 0
M  V30 2317 C 215.742 4.69939 -2.52969 0
M  V30 2318 O 215.965 5.48372 -1.56985 0
M  V30 2319 O 214.899 4.94441 -3.43237 0
M  V30 2320 H 218.725 1.78427 -2.45759 0
M  V30 2321 H 216.31 0.823713 -1.24641 0
M  V30 2322 H 218.192 3.98413 -1.37276 0
M  V30 2323 H 216.867 3.20312 -0.467138 0
M  V30 2324 H 215.774 2.58802 -2.70134 0
M  V30 2325 H 217.107 3.41923 -3.54047 0
M  V30 2326 N 218.759 1.29093 0.90403 0
M  V30 2327 C 219.989 1.19516 1.68522 0
M  V30 2328 C 220.397 -0.24738 1.87576 0
M  V30 2329 O 219.74 -1.17798 1.40959 0
M  V30 2330 C 219.802 1.83249 3.0929 0
M  V30 2331 C 219.466 3.32531 3.13484 0
M  V30 2332 C 220.463 4.28821 2.93953 0
M  V30 2333 C 218.148 3.73656 3.35688 0
M  V30 2334 C 220.142 5.64212 2.96553 0
M  V30 2335 C 217.829 5.0917 3.37919 0
M  V30 2336 C 218.827 6.04258 3.18373 0
M  V30 2337 O 218.515 7.37298 3.20385 0
M  V30 2338 H 218.247 0.415467 0.533257 0
M  V30 2339 H 220.801 1.70912 1.13922 0
M  V30 2340 H 219.031 1.26358 3.65473 0
M  V30 2341 H 220.72 1.68054 3.69476 0
M  V30 2342 H 221.486 3.98382 2.76616 0
M  V30 2343 H 217.365 3.00101 3.49943 0
M  V30 2344 H 220.909 6.38407 2.81216 0
M  V30 2345 H 216.806 5.39256 3.54787 0
M  V30 2346 H 217.574 7.46048 3.36681 0
M  V30 2347 N 220.237 -1.11381 1.11499 0
M  V30 2348 C 221.486 -1.82494 0.858993 0
M  V30 2349 C 221.799 -1.85605 -0.617278 0
M  V30 2350 O 223.005 -2.52824 -0.989552 0
M  V30 2351 C 221.461 -3.27745 1.48699 0
M  V30 2352 C 221.069 -3.32961 2.99735 0
M  V30 2353 C 222.813 -4.03754 1.31085 0
M  V30 2354 C 220.72 -4.72612 3.55516 0
M  V30 2355 H 219.65 -0.683802 0.317696 0
M  V30 2356 H 222.301 -1.25331 1.34031 0
M  V30 2357 H 220.683 -3.84844 0.933339 0
M  V30 2358 H 221.857 -2.85741 3.61509 0
M  V30 2359 H 220.172 -2.70433 3.16631 0
M  V30 2360 H 222.769 -5.06891 1.70192 0
M  V30 2361 H 223.112 -4.15527 0.253496 0
M  V30 2362 H 223.645 -3.53043 1.83318 0
M  V30 2363 H 220.384 -4.66036 4.60967 0
M  V30 2364 H 219.904 -5.2024 2.98513 0
M  V30 2365 H 221.583 -5.4157 3.53992 0
M  V30 2366 N 221.715 -0.905404 -1.28997 0
M  V30 2367 C 222.992 -0.453513 -1.9027 0
M  V30 2368 C 223.372 1.06721 -1.82137 0
M  V30 2369 O 222.72 1.91159 -1.25182 0
M  V30 2370 C 222.93 -0.974494 -3.35119 0
M  V30 2371 C 224.278 -1.0216 -4.12127 0
M  V30 2372 O 225.302 -0.922557 -3.44046 0
M  V30 2373 O 224.161 -1.17121 -5.33802 0
M  V30 2374 H 221.255 -0.142347 -0.814657 0
M  V30 2375 H 223.801 -0.995642 -1.37423 0
M  V30 2376 H 222.573 -2.01848 -3.35221 0
M  V30 2377 H 222.196 -0.412706 -3.95452 0
M  V30 2378 N 223.193 1.4272 -0.668489 0
M  V30 2379 C 224.123 2.335 -0.000100175 0
M  V30 2380 C 225.104 1.50328 0.795964 0
M  V30 2381 O 226.289 1.78949 0.754385 0
M  V30 2382 C 223.419 3.33874 0.956302 0
M  V30 2383 C 222.373 4.27152 0.269278 0
M  V30 2384 C 221.699 5.17684 1.33818 0
M  V30 2385 C 222.999 5.15373 -0.847805 0
M  V30 2386 H 224.693 2.89639 -0.758244 0
M  V30 2387 H 222.239 1.39269 -0.366079 0
M  V30 2388 H 224.192 3.9629 1.43292 0
M  V30 2389 H 222.916 2.76025 1.74579 0
M  V30 2390 H 221.575 3.66123 -0.187042 0
M  V30 2391 H 221.223 4.56165 2.1195 0
M  V30 2392 H 220.923 5.80918 0.883659 0
M  V30 2393 H 222.447 5.82974 1.81586 0
M  V30 2394 H 223.861 5.7151 -0.452681 0
M  V30 2395 H 222.258 5.87407 -1.22773 0
M  V30 2396 H 223.328 4.5415 -1.69929 0
M  V30 2397 N 224.671 0.411399 1.52136 0
M  V30 2398 C 225.604 -0.457614 2.23565 0
M  V30 2399 C 226.582 -1.04613 1.24478 0
M  V30 2400 O 227.766 -1.09356 1.53536 0
M  V30 2401 C 224.893 -1.6354 2.96602 0
M  V30 2402 C 223.939 -1.17005 4.10137 0
M  V30 2403 S 224.772 -0.13333 5.35334 0
M  V30 2404 C 225.928 -1.31638 6.119 0
M  V30 2405 H 226.161 0.148883 2.96927 0
M  V30 2406 H 223.694 0.195713 1.53155 0
M  V30 2407 H 225.652 -2.31074 3.39286 0
M  V30 2408 H 224.313 -2.21324 2.22878 0
M  V30 2409 H 223.506 -2.05005 4.60422 0
M  V30 2410 H 223.108 -0.573319 3.6958 0
M  V30 2411 H 225.4 -2.23957 6.39413 0
M  V30 2412 H 226.343 -0.854014 7.02931 0
M  V30 2413 H 226.751 -1.54321 5.42997 0
M  V30 2414 N 226.149 -1.5696 0.141893 0
M  V30 2415 C 227.059 -2.20066 -0.812905 0
M  V30 2416 C 228.075 -1.18344 -1.27557 0
M  V30 2417 O 229.251 -1.50902 -1.33381 0
M  V30 2418 C 226.316 -2.80583 -2.03652 0
M  V30 2419 C 225.377 -3.97414 -1.62359 0
M  V30 2420 C 224.61 -4.55036 -2.78887 0
M  V30 2421 O 224.833 -4.11538 -3.94959 0
M  V30 2422 O 223.767 -5.45376 -2.54653 0
M  V30 2423 H 227.593 -3.02157 -0.305746 0
M  V30 2424 H 225.178 -1.49159 -0.0848799 0
M  V30 2425 H 227.06 -3.19067 -2.75272 0
M  V30 2426 H 225.735 -2.01508 -2.5333 0
M  V30 2427 H 224.642 -3.63656 -0.877775 0
M  V30 2428 H 225.975 -4.77994 -1.17401 0
M  V30 2429 N 227.627 0.131896 -1.57047 0
M  V30 2430 C 228.855 0.856461 -1.88341 0
M  V30 2431 C 229.27 1.74042 -0.731757 0
M  V30 2432 O 228.627 1.80051 0.297945 0
M  V30 2433 C 228.678 1.70064 -3.18999 0
M  V30 2434 O 228.399 0.852278 -4.2973 0
M  V30 2435 C 229.9 2.53148 -3.63911 0
M  V30 2436 H 227.12 0.246885 -0.62393 0
M  V30 2437 H 229.664 0.120152 -2.04147 0
M  V30 2438 H 227.819 2.38984 -3.04902 0
M  V30 2439 H 228.233 1.43329 -5.04537 0
M  V30 2440 H 229.707 3.07931 -4.58129 0
M  V30 2441 H 230.184 3.29901 -2.89935 0
M  V30 2442 H 230.79 1.89492 -3.80753 0
M  V30 2443 N 229.106 1.52395 0.401703 0
M  V30 2444 C 230.334 1.70676 1.16949 0
M  V30 2445 C 230.749 0.419503 1.8408 0
M  V30 2446 O 230.106 -0.605061 1.72178 0
M  V30 2447 C 230.157 2.84753 2.22706 0
M  V30 2448 O 229.878 4.08495 1.58314 0
M  V30 2449 C 231.379 3.14608 3.12309 0
M  V30 2450 H 228.599 0.571787 0.351142 0
M  V30 2451 H 231.143 1.98987 0.471652 0
M  V30 2452 H 229.298 2.58941 2.88147 0
M  V30 2453 H 229.712 4.72117 2.28485 0
M  V30 2454 H 231.186 3.97923 3.82572 0
M  V30 2455 H 231.663 2.28464 3.75101 0
M  V30 2456 H 232.269 3.42212 2.52529 0
M  V30 2457 N 230.584 -0.659388 1.43143 0
M  V30 2458 C 231.516 -1.7849 1.43784 0
M  V30 2459 C 232.529 -1.5932 0.334787 0
M  V30 2460 O 233.718 -1.68155 0.598842 0
M  V30 2461 C 230.818 -3.15828 1.22906 0
M  V30 2462 C 229.991 -3.61711 2.45934 0
M  V30 2463 C 229.05 -4.77831 2.20371 0
M  V30 2464 O 228.076 -4.87586 2.93681 0
M  V30 2465 N 229.278 -5.67611 1.21647 0
M  V30 2466 H 232.043 -1.7842 2.40803 0
M  V30 2467 H 229.604 -0.84302 1.3822 0
M  V30 2468 H 231.596 -3.91189 1.03697 0
M  V30 2469 H 230.166 -3.10707 0.343542 0
M  V30 2470 H 229.386 -2.76861 2.80609 0
M  V30 2471 H 230.674 -3.89112 3.27825 0
M  V30 2472 H 230.072 -5.62397 0.610449 0
M  V30 2473 H 228.629 -6.42719 1.08423 0
M  V30 2474 N 232.062 -1.29571 -0.897171 0
M  V30 2475 C 233.292 -1.20408 -1.67886 0
M  V30 2476 C 233.7 0.237429 -1.87704 0
M  V30 2477 O 233.043 1.17048 -1.41582 0
M  V30 2478 C 233.105 -1.84887 -3.08314 0
M  V30 2479 C 232.769 -3.34189 -3.11716 0
M  V30 2480 C 233.766 -4.30374 -2.91675 0
M  V30 2481 C 231.451 -3.75431 -3.33701 0
M  V30 2482 C 233.445 -5.65776 -2.93557 0
M  V30 2483 C 231.132 -5.10955 -3.35214 0
M  V30 2484 C 232.13 -6.05938 -3.15164 0
M  V30 2485 O 231.818 -7.38987 -3.1647 0
M  V30 2486 H 231.55 -0.418289 -0.531046 0
M  V30 2487 H 234.104 -1.71514 -1.13014 0
M  V30 2488 H 232.334 -1.28295 -3.64798 0
M  V30 2489 H 234.023 -1.70011 -3.6858 0
M  V30 2490 H 234.789 -3.99844 -2.74499 0
M  V30 2491 H 230.668 -3.01953 -3.48347 0
M  V30 2492 H 234.212 -6.39889 -2.77826 0
M  V30 2493 H 230.109 -5.4113 -3.51922 0
M  V30 2494 H 230.877 -7.47823 -3.3272 0
M  V30 2495 N 233.54 1.10788 -1.12088 0
M  V30 2496 C 234.473 2.16237 -0.729168 0
M  V30 2497 C 235.451 1.60207 0.277921 0
M  V30 2498 O 236.635 1.87707 0.172737 0
M  V30 2499 C 233.762 3.38609 -0.0786848 0
M  V30 2500 C 232.808 4.13322 -1.05201 0
M  V30 2501 S 233.641 4.69371 -2.57781 0
M  V30 2502 C 234.797 5.95058 -1.94053 0
M  V30 2503 H 235.03 2.4913 -1.62239 0
M  V30 2504 H 232.563 1.22519 -0.939603 0
M  V30 2505 H 234.521 4.09473 0.290254 0
M  V30 2506 H 233.182 3.03962 0.791593 0
M  V30 2507 H 232.375 5.01051 -0.544433 0
M  V30 2508 H 231.977 3.48251 -1.36371 0
M  V30 2509 H 234.269 6.65278 -1.28107 0
M  V30 2510 H 235.212 6.50472 -2.79807 0
M  V30 2511 H 235.62 5.46918 -1.39787 0
M  V30 2512 N 235.018 0.912232 1.28515 0
M  V30 2513 C 235.966 0.389597 2.29314 0
M  V30 2514 C 236.96 -0.517915 1.61289 0
M  V30 2515 O 238.166 -0.399328 1.75515 0
M  V30 2516 H 234.541 0.107386 0.744293 0
M  V30 2517 H 236.512 1.25286 2.70825 0
M  V30 2518 C 235.261 -0.356496 3.45868 0
M  V30 2519 H 234.584 0.332608 3.98414 0
M  V30 2520 H 236.024 -0.686851 4.184 0
M  V30 2521 C 234.483 -1.56383 2.98406 0
M  V30 2522 O 235.013 -2.66294 3.00749 0
M  V30 2523 N 233.219 -1.41029 2.54085 0
M  V30 2524 H 232.766 -0.516089 2.52377 0
M  V30 2525 H 232.724 -2.21939 2.22689 0
M  V30 2526 N 236.496 -1.42363 0.676048 0
M  V30 2527 C 237.406 -2.346 -0.00153389 0
M  V30 2528 C 238.422 -1.5516 -0.787485 0
M  V30 2529 O 239.598 -1.87723 -0.729521 0
M  V30 2530 C 236.663 -3.33705 -0.940298 0
M  V30 2531 C 235.724 -4.29042 -0.148739 0
M  V30 2532 C 234.957 -5.23413 -1.04279 0
M  V30 2533 O 235.18 -5.22749 -2.28232 0
M  V30 2534 O 234.114 -5.99795 -0.502925 0
M  V30 2535 H 237.94 -2.94082 0.758268 0
M  V30 2536 H 235.525 -1.42888 0.436289 0
M  V30 2537 H 237.407 -3.94586 -1.47917 0
M  V30 2538 H 236.082 -2.76695 -1.67993 0
M  V30 2539 H 234.989 -3.71571 0.43427 0
M  V30 2540 H 236.322 -4.89097 0.551805 0
M  V30 2541 N 237.974 -0.419461 -1.51915 0
M  V30 2542 C 239.222 0.152637 -2.01523 0
M  V30 2543 C 239.543 1.44762 -1.30649 0
M  V30 2544 O 238.813 1.90997 -0.435535 0
M  V30 2545 H 237.393 0.0593966 -0.744635 0
M  V30 2546 H 240.055 -0.558073 -1.86739 0
M  V30 2547 H 239.151 0.341369 -3.10227 0
M  V30 2548 N 239.452 1.56882 -0.150215 0
M  V30 2549 C 240.362 2.20494 0.801222 0
M  V30 2550 C 241.378 1.19019 1.26927 0
M  V30 2551 O 242.554 1.51607 1.32579 0
M  V30 2552 C 239.619 2.81659 2.02161 0
M  V30 2553 C 238.68 3.9827 1.60249 0
M  V30 2554 C 237.913 4.56508 2.7647 0
M  V30 2555 O 238.136 4.13627 3.92771 0
M  V30 2556 O 237.07 5.46719 2.51757 0
M  V30 2557 H 240.896 3.02315 0.289717 0
M  V30 2558 H 238.481 1.49202 0.0769684 0
M  V30 2559 H 240.363 3.20522 2.73576 0
M  V30 2560 H 239.038 2.02849 2.52258 0
M  V30 2561 H 237.945 3.64117 0.858477 0
M  V30 2562 H 239.278 4.78609 1.14864 0
M  V30 2563 N 240.93 -0.123565 1.57115 0
M  V30 2564 C 241.86 -1.15309 2.03042 0
M  V30 2565 C 242.841 -1.43454 0.914061 0
M  V30 2566 O 244.026 -1.53973 1.18347 0
M  V30 2567 C 241.156 -2.48043 2.43089 0
M  V30 2568 C 240.11 -2.3437 3.58127 0
M  V30 2569 C 239.436 -3.72026 3.84059 0
M  V30 2570 C 240.736 -1.80804 4.90007 0
M  V30 2571 H 242.43 -0.771102 2.893 0
M  V30 2572 H 239.976 -0.369479 1.39179 0
M  V30 2573 H 241.929 -3.20311 2.73823 0
M  V30 2574 H 240.653 -2.88122 1.53796 0
M  V30 2575 H 239.312 -1.64551 3.27595 0
M  V30 2576 H 238.96 -4.09582 2.91979 0
M  V30 2577 H 238.66 -3.63732 4.6149 0
M  V30 2578 H 240.184 -4.45806 4.1724 0
M  V30 2579 H 241.598 -2.42886 5.19307 0
M  V30 2580 H 239.995 -1.83343 5.71407 0
M  V30 2581 H 241.065 -0.76528 4.78823 0
M  V30 2582 N 242.408 -1.52605 -0.393616 0
M  V30 2583 C 243.824 -1.41753 -0.733357 0
M  V30 2584 C 244.024 -0.534293 -1.94287 0
M  V30 2585 O 243.08 -0.0059787 -2.52499 0
M  V30 2586 C 244.393 -2.84531 -0.972772 0
M  V30 2587 C 245.941 -2.93978 -1.07453 0
M  V30 2588 C 246.416 -4.37756 -1.3466 0
M  V30 2589 N 247.907 -4.4106 -1.41492 0
M  V30 2590 C 248.642 -5.49387 -1.642 0
M  V30 2591 N 248.138 -6.67806 -1.8441 0
M  V30 2592 N 249.931 -5.36923 -1.66342 0
M  V30 2593 H 242.082 -2.08555 0.402328 0
M  V30 2594 H 244.345 -0.940654 0.117789 0
M  V30 2595 H 244.051 -3.51353 -0.156204 0
M  V30 2596 H 243.925 -3.26508 -1.88871 0
M  V30 2597 H 246.312 -2.27326 -1.88167 0
M  V30 2598 H 246.393 -2.55435 -0.136605 0
M  V30 2599 H 246.037 -5.04972 -0.544581 0
M  V30 2600 H 245.967 -4.73848 -2.2973 0
M  V30 2601 H 248.458 -3.55705 -1.27601 0
M  V30 2602 H 248.771 -7.46141 -2.01231 0
M  V30 2603 H 247.116 -6.70843 -1.81644 0
M  V30 2604 H 250.307 -4.43381 -1.50102 0
M  V30 2605 H 250.48 -6.21416 -1.837 0
M  V30 2606 N 243.887 0.651787 -1.4349 0
M  V30 2607 C 245.133 1.41376 -1.45398 0
M  V30 2608 C 245.466 1.94041 -0.0784823 0
M  V30 2609 O 244.741 1.72379 0.900878 0
M  V30 2610 C 245.024 2.59414 -2.49752 0
M  V30 2611 C 244.877 2.12232 -3.96582 0
M  V30 2612 C 246.196 3.61626 -2.50827 0
M  V30 2613 H 243.315 0.512719 -0.529422 0
M  V30 2614 H 245.957 0.738796 -1.75048 0
M  V30 2615 H 244.107 3.16997 -2.246 0
M  V30 2616 H 245.779 1.59639 -4.32797 0
M  V30 2617 H 244.022 1.43592 -4.09346 0
M  V30 2618 H 244.693 2.9712 -4.65214 0
M  V30 2619 H 247.169 3.13805 -2.7325 0
M  V30 2620 H 246.045 4.41766 -3.25783 0
M  V30 2621 H 246.306 4.14314 -1.5426 0
M  V30 2622 N 245.365 1.30045 0.890287 0
M  V30 2623 C 246.295 1.18541 2.01172 0
M  V30 2624 C 247.276 0.0773356 1.69924 0
M  V30 2625 O 248.461 0.25845 1.92473 0
M  V30 2626 C 245.591 0.870941 3.36202 0
M  V30 2627 C 244.545 1.93637 3.81692 0
M  V30 2628 C 243.871 1.475 5.13953 0
M  V30 2629 C 245.171 3.34666 4.00994 0
M  V30 2630 H 246.865 2.12359 2.11054 0
M  V30 2631 H 244.411 1.02238 1.01407 0
M  V30 2632 H 246.364 0.777141 4.14172 0
M  V30 2633 H 245.088 -0.102926 3.26438 0
M  V30 2634 H 243.747 2.01972 3.05946 0
M  V30 2635 H 243.395 0.489551 5.00612 0
M  V30 2636 H 243.095 2.1876 5.4536 0
M  V30 2637 H 244.619 1.39489 5.94454 0
M  V30 2638 H 246.033 3.2912 4.69417 0
M  V30 2639 H 244.43 4.03966 4.43769 0
M  V30 2640 H 245.5 3.76949 3.05021 0
M  V30 2641 N 246.843 -1.10192 1.12674 0
M  V30 2642 C 247.806 -2.14786 0.799979 0
M  V30 2643 C 248.806 -1.59711 -0.18685 0
M  V30 2644 O 249.996 -1.74156 0.0392558 0
M  V30 2645 C 247.128 -3.40374 0.189228 0
M  V30 2646 H 248.321 -2.45203 1.72671 0
M  V30 2647 H 245.874 -1.25597 0.930326 0
M  V30 2648 H 246.609 -3.15577 -0.747107 0
M  V30 2649 H 246.394 -3.81637 0.899766 0
M  V30 2650 H 247.884 -4.17594 -0.0228143 0
M  V30 2651 N 248.321 -0.919034 -1.28029 0
M  V30 2652 C 249.598 -0.473668 -1.89778 0
M  V30 2653 C 249.978 1.04783 -1.83259 0
M  V30 2654 O 249.326 1.8982 -1.27202 0
M  V30 2655 C 249.536 -1.00998 -3.34066 0
M  V30 2656 C 250.884 -1.06525 -4.1102 0
M  V30 2657 O 251.908 -0.958996 -3.43048 0
M  V30 2658 O 250.767 -1.22776 -5.3253 0
M  V30 2659 H 247.861 -0.15098 -0.813101 0
M  V30 2660 H 250.407 -1.01016 -1.36359 0
M  V30 2661 H 249.179 -2.05392 -3.33061 0
M  V30 2662 H 248.802 -0.454626 -3.94992 0
M  V30 2663 N 249.799 1.42003 -0.683588 0
M  V30 2664 C 251.027 2.05746 -0.218182 0
M  V30 2665 C 251.442 1.51396 1.12804 0
M  V30 2666 O 250.799 0.657303 1.70252 0
M  V30 2667 C 250.85 3.61171 -0.154131 0
M  V30 2668 O 250.571 4.13508 -1.44716 0
M  V30 2669 C 252.072 4.42042 0.333713 0
M  V30 2670 H 249.292 0.662888 -0.10402 0
M  V30 2671 H 251.836 1.81987 -0.9328 0
M  V30 2672 H 249.991 3.84012 0.511231 0
M  V30 2673 H 250.405 5.07453 -1.32632 0
M  V30 2674 H 251.879 5.51028 0.327423 0
M  V30 2675 H 252.356 4.17269 1.37053 0
M  V30 2676 H 252.962 4.24239 -0.300222 0
M  V30 2677 N 251.277 0.427512 1.51691 0
M  V30 2678 C 252.507 -0.140986 2.06118 0
M  V30 2679 C 252.915 -1.37854 1.29588 0
M  V30 2680 O 252.258 -1.80411 0.346036 0
M  V30 2681 C 252.32 -0.538276 3.55447 0
M  V30 2682 C 251.984 0.591095 4.53161 0
M  V30 2683 C 252.981 1.46027 4.98971 0
M  V30 2684 C 250.666 0.769028 4.96378 0
M  V30 2685 C 252.66 2.49216 5.8666 0
M  V30 2686 C 250.347 1.80421 5.83859 0
M  V30 2687 C 251.345 2.66417 6.28897 0
M  V30 2688 O 251.033 3.68159 7.14643 0
M  V30 2689 H 250.765 -0.0157455 0.675817 0
M  V30 2690 H 253.319 0.602495 1.96365 0
M  V30 2691 H 251.549 -1.33432 3.6295 0
M  V30 2692 H 253.238 -1.0368 3.92435 0
M  V30 2693 H 254.004 1.33429 4.66285 0
M  V30 2694 H 249.883 0.109273 4.6087 0
M  V30 2695 H 253.427 3.16372 6.21735 0
M  V30 2696 H 249.324 1.93042 6.15959 0
M  V30 2697 H 250.092 3.64622 7.32798 0
M  V30 2698 N 252.755 -1.56801 0.158532 0
M  V30 2699 C 254.032 -1.88131 -0.535357 0
M  V30 2700 C 254.412 -1.06638 -1.82186 0
M  V30 2701 O 253.76 -0.156533 -2.27963 0
M  V30 2702 C 253.97 -3.39949 -0.789653 0
M  V30 2703 C 255.318 -4.09416 -1.12533 0
M  V30 2704 O 256.342 -3.45194 -0.878622 0
M  V30 2705 O 255.201 -5.22855 -1.59014 0
M  V30 2706 H 252.295 -0.780143 -0.27442 0
M  V30 2707 H 254.841 -1.68564 0.19601 0
M  V30 2708 H 253.613 -3.91115 0.120353 0
M  V30 2709 H 253.236 -3.65084 -1.57479 0
M  V30 2710 N 254.233 0.115231 -1.57178 0
M  V30 2711 C 255.458 0.840354 -1.89612 0
M  V30 2712 C 255.883 1.72464 -0.750845 0
M  V30 2713 O 255.241 1.78826 0.298478 0
M  V30 2714 C 255.289 1.64654 -3.20814 0
M  V30 2715 O 254.393 2.7538 -3.06985 0
M  V30 2716 H 253.734 0.232158 -0.622092 0
M  V30 2717 H 256.264 0.0964977 -2.04372 0
M  V30 2718 H 256.274 2.03499 -3.53627 0
M  V30 2719 H 254.949 0.997416 -4.03763 0
M  V30 2720 H 253.526 2.3971 -2.85646 0
M  V30 2721 N 255.711 1.52812 0.385517 0
M  V30 2722 C 256.957 1.68275 1.13188 0
M  V30 2723 C 257.29 0.423179 1.89533 0
M  V30 2724 O 256.565 -0.579113 1.85679 0
M  V30 2725 C 256.848 2.92001 2.1073 0
M  V30 2726 C 256.701 4.28067 1.38125 0
M  V30 2727 C 258.02 3.11283 3.11113 0
M  V30 2728 H 255.139 0.612352 0.410115 0
M  V30 2729 H 257.781 1.85415 0.414869 0
M  V30 2730 H 255.931 2.77519 2.71874 0
M  V30 2731 H 257.603 4.54324 0.799187 0
M  V30 2732 H 255.846 4.28388 0.683092 0
M  V30 2733 H 256.517 5.10733 2.09417 0
M  V30 2734 H 258.993 3.2482 2.6006 0
M  V30 2735 H 257.869 3.99325 3.76605 0
M  V30 2736 H 258.13 2.25656 3.80173 0
M  V30 2737 N 257.189 -0.644168 1.43834 0
M  V30 2738 C 258.419 -1.42939 1.49171 0
M  V30 2739 C 258.827 -1.88874 0.111048 0
M  V30 2740 O 258.17 -1.60656 -0.8908 0
M  V30 2741 C 258.232 -2.69151 2.38324 0
M  V30 2742 C 257.896 -2.45097 3.85715 0
M  V30 2743 C 258.893 -2.07747 4.76589 0
M  V30 2744 C 256.578 -2.59141 4.30292 0
M  V30 2745 C 258.572 -1.8475 6.10038 0
M  V30 2746 C 256.259 -2.35759 5.63792 0
M  V30 2747 C 257.257 -1.9862 6.53482 0
M  V30 2748 O 256.945 -1.75489 7.84512 0
M  V30 2749 H 256.677 -0.445271 0.508635 0
M  V30 2750 H 259.231 -0.79621 1.8934 0
M  V30 2751 H 257.461 -3.3506 1.93058 0
M  V30 2752 H 259.15 -3.31123 2.3476 0
M  V30 2753 H 259.916 -1.96465 4.43426 0
M  V30 2754 H 255.795 -2.87022 3.60749 0
M  V30 2755 H 259.339 -1.55686 6.80006 0
M  V30 2756 H 255.236 -2.46646 5.9652 0
M  V30 2757 H 256.004 -1.89841 7.9618 0
M  V30 2758 N 258.668 -1.30515 -0.883378 0
M  V30 2759 C 259.598 -1.19607 -2.00541 0
M  V30 2760 C 260.579 -0.086346 -1.69881 0
M  V30 2761 O 261.764 -0.268654 -1.92333 0
M  V30 2762 C 258.894 -0.888758 -3.35736 0
M  V30 2763 C 257.848 -1.95659 -3.8066 0
M  V30 2764 C 257.174 -1.50224 -5.13164 0
M  V30 2765 C 258.474 -3.36788 -3.99213 0
M  V30 2766 H 260.168 -2.13476 -2.09925 0
M  V30 2767 H 257.714 -1.02775 -1.00863 0
M  V30 2768 H 259.667 -0.799094 -4.13754 0
M  V30 2769 H 258.391 0.0856125 -3.26488 0
M  V30 2770 H 257.05 -2.03591 -3.04871 0
M  V30 2771 H 256.698 -0.516092 -5.00345 0
M  V30 2772 H 256.398 -2.2165 -5.44192 0
M  V30 2773 H 257.922 -1.42639 -5.93706 0
M  V30 2774 H 259.336 -3.31605 -4.67665 0
M  V30 2775 H 257.733 -4.06314 -4.41621 0
M  V30 2776 H 258.803 -3.78561 -3.03017 0
M  V30 2777 N 260.146 1.09593 -1.13257 0
M  V30 2778 C 261.096 2.14345 -0.777179 0
M  V30 2779 C 262.08 1.59277 0.227966 0
M  V30 2780 O 263.272 1.76971 0.0321413 0
M  V30 2781 C 260.401 3.42439 -0.242991 0
M  V30 2782 C 259.487 4.04419 -1.27694 0
M  V30 2783 N 259.878 4.40979 -2.47732 0
M  V30 2784 C 258.176 4.31596 -1.12432 0
M  V30 2785 C 258.877 4.89784 -3.13826 0
M  V30 2786 N 257.853 4.87133 -2.41252 0
M  V30 2787 H 261.655 2.40415 -1.69049 0
M  V30 2788 H 259.169 1.26803 -1.01463 0
M  V30 2789 H 261.166 4.16889 0.0298496 0
M  V30 2790 H 259.826 3.17824 0.66467 0
M  V30 2791 H 260.837 4.32396 -2.85051 0
M  V30 2792 H 257.514 4.16595 -0.274684 0
M  V30 2793 H 258.904 5.2755 -4.16102 0
M  V30 2794 N 261.624 0.925811 1.2754 0
M  V30 2795 C 263.035 0.610102 1.7645 0
M  V30 2796 C 263.386 -0.874723 1.75622 0
M  V30 2797 O 262.511 -1.68444 1.35851 0
M  V30 2798 C 263.106 1.10073 3.20421 0
M  V30 2799 C 261.665 0.835723 3.67005 0
M  V30 2800 C 260.812 1.26054 2.46993 0
M  V30 2801 H 263.763 1.10579 1.13833 0
M  V30 2802 H 263.784 0.447557 3.77859 0
M  V30 2803 H 263.296 2.18143 3.20991 0
M  V30 2804 H 261.397 -0.231249 3.71882 0
M  V30 2805 H 261.51 1.45193 4.56569 0
M  V30 2806 H 259.874 0.679111 2.45479 0
M  V30 2807 H 260.657 2.34984 2.50275 0
M  V30 2808 N 263.102 -1.41638 0.69111 0
M  V30 2809 C 264.05 -2.32597 0.0115199 0
M  V30 2810 C 265.044 -1.5072 -0.773296 0
M  V30 2811 O 266.25 -1.66685 -0.67942 0
M  V30 2812 H 262.625 -0.751849 -0.0150746 0
M  V30 2813 H 264.596 -2.87593 0.795791 0
M  V30 2814 C 263.345 -3.35467 -0.914172 0
M  V30 2815 H 262.668 -3.9852 -0.319687 0
M  V30 2816 H 264.108 -4.01662 -1.35808 0
M  V30 2817 C 262.567 -2.69004 -2.02826 0
M  V30 2818 O 263.097 -2.53444 -3.11655 0
M  V30 2819 N 261.303 -2.2777 -1.80469 0
M  V30 2820 H 260.85 -2.40626 -0.919615 0
M  V30 2821 H 260.808 -1.83635 -2.55197 0
M  V30 2822 N 264.58 -0.43555 -1.51462 0
M  V30 2823 C 265.805 0.132627 -2.06976 0
M  V30 2824 C 266.23 1.35848 -1.30104 0
M  V30 2825 O 265.588 1.78112 -0.338493 0
M  V30 2826 C 265.636 0.43523 -3.57964 0
M  V30 2827 O 264.74 1.52198 -3.83288 0
M  V30 2828 H 264.081 0.00265 -0.663995 0
M  V30 2829 H 266.611 -0.616369 -1.95095 0
M  V30 2830 H 266.621 0.686206 -4.02188 0
M  V30 2831 H 265.296 -0.460739 -4.1334 0
M  V30 2832 H 263.873 1.2611 -3.50928 0
M  V30 2833 N 266.058 1.56714 -0.166846 0
M  V30 2834 C 267.288 2.00828 0.48494 0
M  V30 2835 C 267.696 1.04612 1.57648 0
M  V30 2836 O 267.039 0.0383201 1.8366 0
M  V30 2837 C 267.101 3.4137 1.12723 0
M  V30 2838 C 266.765 4.56654 0.177886 0
M  V30 2839 C 267.762 5.16402 -0.60207 0
M  V30 2840 C 265.447 5.02244 0.0750139 0
M  V30 2841 C 267.441 6.20167 -1.47215 0
M  V30 2842 C 265.128 6.05859 -0.798649 0
M  V30 2843 C 266.126 6.64691 -1.57082 0
M  V30 2844 O 265.814 7.66297 -2.42989 0
M  V30 2845 H 265.546 0.663587 0.128953 0
M  V30 2846 H 268.1 2.03692 -0.264365 0
M  V30 2847 H 266.33 3.35406 1.92457 0
M  V30 2848 H 268.019 3.69466 1.68076 0
M  V30 2849 H 268.785 4.82065 -0.53274 0
M  V30 2850 H 264.664 4.56167 0.665812 0
M  V30 2851 H 268.208 6.66016 -2.07531 0
M  V30 2852 H 264.105 6.39621 -0.869199 0
M  V30 2853 H 264.873 7.83601 -2.36455 0
M  V30 2854 N 267.536 -0.106894 1.57237 0
M  V30 2855 C 268.761 -0.830287 1.90055 0
M  V30 2856 C 269.186 -1.72064 0.75998 0
M  V30 2857 O 268.544 -1.78982 -0.288991 0
M  V30 2858 C 268.592 -1.6295 3.21683 0
M  V30 2859 O 267.696 -2.73748 3.08441 0
M  V30 2860 H 267.037 -0.228855 0.623315 0
M  V30 2861 H 269.567 -0.085658 2.04421 0
M  V30 2862 H 269.577 -2.01621 3.54701 0
M  V30 2863 H 268.252 -0.975989 4.04286 0
M  V30 2864 H 266.829 -2.38192 2.86913 0
M  V30 2865 N 269.014 -1.53014 -0.377408 0
M  V30 2866 C 270.254 -1.70318 -1.1301 0
M  V30 2867 C 270.618 -0.439538 -1.86901 0
M  V30 2868 O 271.819 -0.489095 -2.64313 0
M  V30 2869 C 270.09 -2.91125 -2.07319 0
M  V30 2870 S 271.649 -3.29075 -2.90268 0
M  V30 2871 H 268.467 -0.599426 -0.382374 0
M  V30 2872 H 271.069 -1.91089 -0.412933 0
M  V30 2873 H 269.773 -3.81303 -1.51777 0
M  V30 2874 H 269.304 -2.7272 -2.83526 0
M  V30 2875 H 271.319 -2.80165 -4.09539 0
M  V30 2876 N 270.492 0.636531 -1.44174 0
M  V30 2877 C 271.455 1.73063 -1.50273 0
M  V30 2878 C 272.455 1.56113 -0.385397 0
M  V30 2879 O 273.645 1.61707 -0.64781 0
M  V30 2880 C 270.777 3.12096 -1.37145 0
M  V30 2881 H 271.97 1.69031 -2.47727 0
M  V30 2882 H 269.523 0.849706 -1.31186 0
M  V30 2883 H 270.258 3.21728 -0.407636 0
M  V30 2884 H 270.043 3.25805 -2.18159 0
M  V30 2885 H 271.533 3.91846 -1.44382 0
M  V30 2886 N 271.97 1.30982 0.876444 0
M  V30 2887 C 273.21 1.21589 1.64303 0
M  V30 2888 C 273.574 -0.223962 1.90689 0
M  V30 2889 O 274.775 -0.44128 2.65153 0
M  V30 2890 C 273.046 2.03007 2.94148 0
M  V30 2891 S 274.605 2.10405 3.85065 0
M  V30 2892 H 271.423 0.433161 0.563819 0
M  V30 2893 H 274.025 1.65565 1.03964 0
M  V30 2894 H 272.729 3.06719 2.72675 0
M  V30 2895 H 272.26 1.59725 3.59515 0
M  V30 2896 H 274.275 1.23765 4.80517 0
M  V30 2897 N 273.449 -1.08991 1.13837 0
M  V30 2898 C 274.379 -2.17771 0.842507 0
M  V30 2899 C 275.36 -1.6892 -0.20001 0
M  V30 2900 O 276.545 -1.94113 -0.0579731 0
M  V30 2901 C 273.675 -3.4589 0.312644 0
M  V30 2902 C 272.629 -4.08099 1.28992 0
M  V30 2903 C 271.955 -5.31098 0.619623 0
M  V30 2904 C 273.255 -4.50077 2.65005 0
M  V30 2905 H 274.949 -2.42777 1.75213 0
M  V30 2906 H 272.495 -1.16682 0.843875 0
M  V30 2907 H 274.448 -4.21297 0.0933043 0
M  V30 2908 H 273.172 -3.20419 -0.632382 0
M  V30 2909 H 271.831 -3.34717 1.49533 0
M  V30 2910 H 271.479 -5.0191 -0.33102 0
M  V30 2911 H 271.179 -5.73674 1.27167 0
M  V30 2912 H 272.703 -6.09224 0.409669 0
M  V30 2913 H 274.117 -5.16688 2.48407 0
M  V30 2914 H 272.514 -5.03553 3.26427 0
M  V30 2915 H 273.584 -3.62257 3.22332 0
M  V30 2916 N 274.927 -0.932562 -1.27047 0
M  V30 2917 C 275.89 -0.440064 -2.24936 0
M  V30 2918 C 276.89 0.444071 -1.54547 0
M  V30 2919 O 278.08 0.244465 -1.72476 0
M  V30 2920 C 275.212 0.36678 -3.38921 0
M  V30 2921 H 276.405 -1.305 -2.70018 0
M  V30 2922 H 273.958 -0.713707 -1.39054 0
M  V30 2923 H 274.693 1.25033 -2.99228 0
M  V30 2924 H 274.478 -0.267204 -3.91188 0
M  V30 2925 H 275.968 0.701567 -4.11665 0
M  V30 2926 N 276.405 1.4127 -0.698611 0
M  V30 2927 C 277.63 2.06024 -0.238512 0
M  V30 2928 C 278.055 1.5224 1.10475 0
M  V30 2929 O 277.413 0.650623 1.69223 0
M  V30 2930 C 277.461 3.59988 -0.209952 0
M  V30 2931 O 276.565 4.04282 0.814235 0
M  V30 2932 H 275.906 0.653829 -0.115775 0
M  V30 2933 H 278.436 1.8098 -0.954326 0
M  V30 2934 H 278.446 4.07979 -0.0418436 0
M  V30 2935 H 277.121 3.98503 -1.1903 0
M  V30 2936 H 275.698 3.6779 0.615234 0
M  V30 2937 N 277.883 0.443576 1.51229 0
M  V30 2938 C 279.131 -0.120557 2.0174 0
M  V30 2939 C 279.452 -1.42665 1.32935 0
M  V30 2940 O 278.722 -1.9028 0.465866 0
M  V30 2941 H 277.302 -0.0475426 0.745486 0
M  V30 2942 H 279.964 0.587711 1.85828 0
M  V30 2943 H 279.06 -0.291972 3.10731 0
M  V30 2944 N 279.361 -1.56624 0.175154 0
M  V30 2945 C 280.586 -2.01813 -0.478137 0
M  V30 2946 C 281.011 -1.05457 -1.55757 0
M  V30 2947 O 280.369 -0.0347439 -1.81267 0
M  V30 2948 C 280.417 -3.45581 -1.02987 0
M  V30 2949 O 279.521 -3.52305 -2.14371 0
M  V30 2950 H 278.862 -0.65413 -0.114059 0
M  V30 2951 H 281.392 -2.02673 0.280173 0
M  V30 2952 H 281.402 -3.84965 -1.35151 0
M  V30 2953 H 280.077 -4.1521 -0.239556 0
M  V30 2954 H 278.654 -3.24783 -1.83222 0
M  V30 2955 N 280.839 0.0985539 -1.57292 0
M  V30 2956 C 282.085 0.803867 -1.86188 0
M  V30 2957 C 282.418 1.78549 -0.763794 0
M  V30 2958 O 281.693 1.93153 0.22855 0
M  V30 2959 C 281.976 1.53568 -3.25713 0
M  V30 2960 C 281.829 0.572277 -4.46145 0
M  V30 2961 C 283.148 2.48708 -3.63087 0
M  V30 2962 H 280.267 0.290781 -0.677211 0
M  V30 2963 H 282.909 0.0675783 -1.8988 0
M  V30 2964 H 281.059 2.16332 -3.22696 0
M  V30 2965 H 282.731 -0.0480894 -4.61275 0
M  V30 2966 H 280.974 -0.114618 -4.33649 0
M  V30 2967 H 281.645 1.12139 -5.40489 0
M  V30 2968 H 284.121 1.96039 -3.67026 0
M  V30 2969 H 282.997 2.96932 -4.61652 0
M  V30 2970 H 283.258 3.32309 -2.91588 0
M  V30 2971 N 282.317 1.53212 0.369288 0
M  V30 2972 C 283.247 1.82365 1.45826 0
M  V30 2973 C 284.228 0.676907 1.56051 0
M  V30 2974 O 285.413 0.926401 1.70679 0
M  V30 2975 C 282.543 2.01023 2.83208 0
M  V30 2976 C 281.497 3.1678 2.8781 0
M  V30 2977 C 280.823 3.20724 4.27832 0
M  V30 2978 C 282.123 4.55447 2.55667 0
M  V30 2979 H 283.817 2.73559 1.21678 0
M  V30 2980 H 281.363 1.3163 0.583911 0
M  V30 2981 H 283.316 2.20001 3.59413 0
M  V30 2982 H 282.04 1.06536 3.08736 0
M  V30 2983 H 280.699 2.97616 2.14056 0
M  V30 2984 H 280.347 2.23882 4.50429 0
M  V30 2985 H 280.047 3.98496 4.31827 0
M  V30 2986 H 281.571 3.41881 5.05915 0
M  V30 2987 H 282.985 4.74611 3.21586 0
M  V30 2988 H 281.382 5.35432 2.70984 0
M  V30 2989 H 282.452 4.60812 1.5093 0
M  V30 2990 N 283.795 -0.628877 1.44509 0
M  V30 2991 C 285.211 -0.947305 1.28446 0
M  V30 2992 C 285.411 -2.00275 0.221872 0
M  V30 2993 O 284.467 -2.49447 -0.391471 0
M  V30 2994 C 285.78 -1.40843 2.65676 0
M  V30 2995 C 287.328 -1.52379 2.73404 0
M  V30 2996 C 287.803 -2.01875 4.11109 0
M  V30 2997 N 289.294 -2.09142 4.13296 0
M  V30 2998 C 290.029 -2.48615 5.16699 0
M  V30 2999 N 289.525 -2.87209 6.30462 0
M  V30 3000 N 291.318 -2.48768 5.04054 0
M  V30 3001 H 283.469 0.0690977 2.12288 0
M  V30 3002 H 285.732 -0.0317164 0.947469 0
M  V30 3003 H 285.438 -0.707206 3.44516 0
M  V30 3004 H 285.312 -2.37902 2.92716 0
M  V30 3005 H 287.699 -2.21598 1.9488 0
M  V30 3006 H 287.78 -0.536898 2.50102 0
M  V30 3007 H 287.424 -1.3325 4.90109 0
M  V30 3008 H 287.354 -3.0144 4.31789 0
M  V30 3009 H 289.845 -1.81991 3.31191 0
M  V30 3010 H 290.158 -3.16149 7.05174 0
M  V30 3011 H 288.503 -2.84955 6.33897 0
M  V30 3012 H 291.694 -2.18009 4.14234 0
M  V30 3013 H 291.867 -2.79207 5.84763 0
M  V30 3014 N 285.273 -1.31445 -0.869486 0
M  V30 3015 C 286.203 -1.21727 -1.99261 0
M  V30 3016 C 287.184 -0.104359 -1.6978 0
M  V30 3017 O 288.369 -0.289038 -1.92037 0
M  V30 3018 C 285.499 -0.924317 -3.34774 0
M  V30 3019 C 284.453 -1.99685 -3.78563 0
M  V30 3020 C 283.779 -1.55658 -5.11541 0
M  V30 3021 C 285.079 -3.41003 -3.95619 0
M  V30 3022 H 286.773 -2.1569 -2.07649 0
M  V30 3023 H 284.319 -1.03839 -0.997675 0
M  V30 3024 H 286.272 -0.842934 -4.12883 0
M  V30 3025 H 284.996 0.0509793 -3.2656 0
M  V30 3026 H 283.655 -2.06813 -3.02694 0
M  V30 3027 H 283.303 -0.569132 -4.9977 0
M  V30 3028 H 283.003 -2.27409 -5.41811 0
M  V30 3029 H 284.527 -1.48928 -5.92159 0
M  V30 3030 H 285.941 -3.36547 -4.64122 0
M  V30 3031 H 284.338 -4.10975 -4.37286 0
M  V30 3032 H 285.408 -3.81754 -2.98985 0
M  V30 3033 N 286.751 1.08385 -1.14413 0
M  V30 3034 C 287.997 1.81044 -0.913834 0
M  V30 3035 C 288.33 1.86004 0.558209 0
M  V30 3036 O 287.605 1.33606 1.4135 0
M  V30 3037 C 287.888 3.26648 -1.51569 0
M  V30 3038 C 287.741 3.29895 -3.0576 0
M  V30 3039 C 289.06 4.23629 -1.19273 0
M  V30 3040 H 286.179 0.65727 -0.333414 0
M  V30 3041 H 288.821 1.26896 -1.41412 0
M  V30 3042 H 286.971 3.72889 -1.09023 0
M  V30 3043 H 288.643 2.91977 -3.57137 0
M  V30 3044 H 286.886 2.69163 -3.40197 0
M  V30 3045 H 287.557 4.32516 -3.42977 0
M  V30 3046 H 290.033 3.85727 -1.56057 0
M  V30 3047 H 288.909 5.23822 -1.64017 0
M  V30 3048 H 289.17 4.41968 -0.108068 0
M  V30 3049 N 288.23 0.939286 1.26551 0
M  V30 3050 C 289.507 0.5038 1.89001 0
M  V30 3051 C 289.887 -1.01854 1.84903 0
M  V30 3052 O 289.235 -1.87773 1.30206 0
M  V30 3053 C 289.445 1.063 3.32417 0
M  V30 3054 C 290.793 1.13051 4.09273 0
M  V30 3055 O 291.817 1.01345 3.41479 0
M  V30 3056 O 290.676 1.31233 5.30509 0
M  V30 3057 H 287.77 0.163897 0.810597 0
M  V30 3058 H 290.316 1.03173 1.34735 0
M  V30 3059 H 289.088 2.10665 3.29752 0
M  V30 3060 H 288.711 0.517408 3.94219 0
M  V30 3061 N 289.708 -1.40897 0.706093 0
M  V30 3062 C 290.671 -2.29131 0.0562841 0
M  V30 3063 C 291.671 -1.44901 -0.697166 0
M  V30 3064 O 292.861 -1.65926 -0.530484 0
M  V30 3065 C 289.993 -3.27957 -0.93043 0
M  V30 3066 H 291.186 -2.88091 0.833284 0
M  V30 3067 H 288.739 -1.4906 0.470192 0
M  V30 3068 H 289.474 -2.73997 -1.73482 0
M  V30 3069 H 289.259 -3.90124 -0.393166 0
M  V30 3070 H 290.749 -3.94049 -1.38256 0
M  V30 3071 N 291.186 -0.45159 -1.50991 0
M  V30 3072 C 292.432 0.110237 -2.025 0
M  V30 3073 C 292.765 1.41109 -1.33424 0
M  V30 3074 O 292.04 1.89135 -0.453659 0
M  V30 3075 C 292.323 0.314271 -3.58726 0
M  V30 3076 C 292.176 -1.00623 -4.38401 0
M  V30 3077 C 293.495 1.07767 -4.26702 0
M  V30 3078 H 290.614 0.0385897 -0.735989 0
M  V30 3079 H 293.256 -0.593374 -1.80497 0
M  V30 3080 H 291.406 0.913601 -3.77605 0
M  V30 3081 H 293.078 -1.64064 -4.31139 0
M  V30 3082 H 291.321 -1.6075 -4.02917 0
M  V30 3083 H 291.992 -0.817341 -5.45915 0
M  V30 3084 H 294.468 0.56986 -4.12179 0
M  V30 3085 H 293.344 1.18921 -5.35863 0
M  V30 3086 H 293.605 2.10939 -3.88532 0
M  V30 3087 N 292.664 1.56529 -0.183458 0
M  V30 3088 C 293.594 2.21549 0.737456 0
M  V30 3089 C 294.575 1.17489 1.23005 0
M  V30 3090 O 295.76 1.45959 1.281 0
M  V30 3091 C 292.89 2.86575 1.96194 0
M  V30 3092 C 291.844 3.96778 1.60473 0
M  V30 3093 C 291.17 4.48911 2.90487 0
M  V30 3094 C 292.47 5.15767 0.823497 0
M  V30 3095 H 294.164 2.98761 0.195453 0
M  V30 3096 H 291.71 1.43702 0.0925686 0
M  V30 3097 H 293.663 3.30739 2.61131 0
M  V30 3098 H 292.387 2.06749 2.52828 0
M  V30 3099 H 291.046 3.53286 0.978997 0
M  V30 3100 H 290.694 3.65862 3.45186 0
M  V30 3101 H 290.394 5.23265 2.67335 0
M  V30 3102 H 291.918 4.95771 3.56432 0
M  V30 3103 H 293.332 5.56549 1.37571 0
M  V30 3104 H 291.729 5.96114 0.690551 0
M  V30 3105 H 292.799 4.84574 -0.177782 0
M  V30 3106 N 294.142 -0.090211 1.57342 0
M  V30 3107 C 295.39 -0.791241 1.85967 0
M  V30 3108 C 295.711 -1.7903 0.772859 0
M  V30 3109 O 294.981 -1.94872 -0.200398 0
M  V30 3110 H 293.561 -0.295205 0.686195 0
M  V30 3111 H 296.223 -0.0706782 1.94772 0
M  V30 3112 H 295.319 -1.31882 2.82867 0
M  V30 3113 N 295.62 -1.53406 -0.361157 0
M  V30 3114 C 296.583 -1.79479 -1.42548 0
M  V30 3115 C 297.583 -0.665327 -1.4639 0
M  V30 3116 O 298.773 -0.933549 -1.47073 0
M  V30 3117 C 295.905 -1.92087 -2.8163 0
M  V30 3118 H 297.098 -2.74538 -1.20701 0
M  V30 3119 H 294.651 -1.4455 -0.594546 0
M  V30 3120 H 295.386 -0.991099 -3.08784 0
M  V30 3121 H 295.171 -2.74241 -2.80239 0
M  V30 3122 H 296.661 -2.13836 -3.58697 0
M  V30 3123 N 297.098 0.621204 -1.44841 0
M  V30 3124 C 298.008 1.7612 -1.5498 0
M  V30 3125 C 299.024 1.68477 -0.434927 0
M  V30 3126 O 300.2 1.89076 -0.693693 0
M  V30 3127 C 297.265 3.1254 -1.50065 0
M  V30 3128 C 296.326 3.31741 -2.72482 0
M  V30 3129 C 295.559 4.61653 -2.67792 0
M  V30 3130 O 295.782 5.431 -1.74352 0
M  V30 3131 O 294.716 4.83271 -3.58794 0
M  V30 3132 H 298.542 1.70518 -2.51311 0
M  V30 3133 H 296.127 0.783643 -1.27198 0
M  V30 3134 H 298.009 3.93844 -1.49882 0
M  V30 3135 H 296.684 3.18663 -0.568806 0
M  V30 3136 H 295.591 2.50077 -2.7823 0
M  V30 3137 H 296.924 3.30486 -3.64746 0
M  V30 3138 N 298.576 1.31904 0.862503 0
M  V30 3139 C 299.825 1.21373 1.61094 0
M  V30 3140 C 300.138 -0.22504 1.94301 0
M  V30 3141 O 301.344 -0.452121 2.67709 0
M  V30 3142 C 299.8 2.12525 2.9045 0
M  V30 3143 C 299.408 3.61441 2.64697 0
M  V30 3144 C 301.152 2.10813 3.68454 0
M  V30 3145 C 299.059 4.44578 3.90006 0
M  V30 3146 H 297.989 0.450705 0.604468 0
M  V30 3147 H 300.64 1.56811 0.953027 0
M  V30 3148 H 299.022 1.69994 3.57656 0
M  V30 3149 H 300.196 4.12264 2.05851 0
M  V30 3150 H 298.511 3.65205 2.00036 0
M  V30 3151 H 301.108 2.70167 4.61426 0
M  V30 3152 H 301.451 1.09713 4.01583 0
M  V30 3153 H 301.984 2.51583 3.08141 0
M  V30 3154 H 298.723 5.46461 3.62023 0
M  V30 3155 H 298.243 3.98508 4.48276 0
M  V30 3156 H 299.922 4.57176 4.5782 0
M  V30 3157 N 300.054 -1.07777 1.14986 0
M  V30 3158 C 301.47 -1.32373 0.891596 0
M  V30 3159 C 301.67 -1.9609 -0.463788 0
M  V30 3160 O 300.726 -2.21801 -1.20667 0
M  V30 3161 C 302.039 -2.21905 2.02925 0
M  V30 3162 C 303.587 -2.35367 2.06329 0
M  V30 3163 C 304.062 -3.28245 3.19405 0
M  V30 3164 N 305.553 -3.35824 3.19024 0
M  V30 3165 C 306.288 -4.07739 4.03158 0
M  V30 3166 N 305.784 -4.82306 4.97346 0
M  V30 3167 N 307.577 -4.03635 3.91197 0
M  V30 3168 H 299.728 -0.648039 2.02273 0
M  V30 3169 H 301.991 -0.348149 0.881757 0
M  V30 3170 H 301.697 -1.82342 3.0074 0
M  V30 3171 H 301.571 -3.22407 1.95789 0
M  V30 3172 H 303.958 -2.74186 1.09116 0
M  V30 3173 H 304.039 -1.34585 2.17533 0
M  V30 3174 H 303.683 -2.90146 4.16867 0
M  V30 3175 H 303.613 -4.28971 3.05437 0
M  V30 3176 H 306.104 -2.8267 2.50811 0
M  V30 3177 H 306.417 -5.34661 5.57994 0
M  V30 3178 H 304.762 -4.81337 5.01338 0
M  V30 3179 H 307.953 -3.44491 3.16928 0
M  V30 3180 H 308.126 -4.59417 4.5699 0
M  V30 3181 N 301.532 -0.945985 -1.26051 0
M  V30 3182 C 302.48 -0.450259 -2.282 0
M  V30 3183 C 303.474 0.47497 -1.62605 0
M  V30 3184 O 304.68 0.352653 -1.76512 0
M  V30 3185 H 301.055 -0.127081 -0.741184 0
M  V30 3186 H 303.026 -1.32422 -2.67408 0
M  V30 3187 C 301.775 0.26467 -3.46691 0
M  V30 3188 H 301.098 -0.438123 -3.97392 0
M  V30 3189 H 302.538 0.575678 -4.20074 0
M  V30 3190 C 300.997 1.48416 -3.02447 0
M  V30 3191 O 301.527 2.58227 -3.07704 0
M  V30 3192 N 299.733 1.34243 -2.57735 0
M  V30 3193 H 299.28 0.448994 -2.53657 0
M  V30 3194 H 299.238 2.15957 -2.28495 0
M  V30 3195 N 303.011 1.40521 -0.713556 0
M  V30 3196 C 304.259 2.00527 -0.251692 0
M  V30 3197 C 304.58 1.56857 1.15848 0
M  V30 3198 O 303.85 0.807127 1.785 0
M  V30 3199 H 302.43 0.741551 -0.0900646 0
M  V30 3200 H 305.092 1.71887 -0.918733 0
M  V30 3201 H 304.188 3.10813 -0.283192 0
M  V30 3202 N 304.489 0.459591 1.5075 0
M  V30 3203 C 305.422 -0.386257 2.24907 0
M  V30 3204 C 306.4 -1.006 1.27744 0
M  V30 3205 O 307.584 -1.04416 1.56938 0
M  V30 3206 C 304.711 -1.54021 3.01654 0
M  V30 3207 C 303.757 -1.03898 4.13651 0
M  V30 3208 S 304.59 0.0370501 5.35487 0
M  V30 3209 C 305.746 -1.12105 6.15779 0
M  V30 3210 H 305.979 0.243272 2.96303 0
M  V30 3211 H 303.512 0.244339 1.52454 0
M  V30 3212 H 305.47 -2.20163 3.46466 0
M  V30 3213 H 304.131 -2.14121 2.29806 0
M  V30 3214 H 303.324 -1.90254 4.66711 0
M  V30 3215 H 302.926 -0.45545 3.71216 0
M  V30 3216 H 305.218 -2.03501 6.46215 0
M  V30 3217 H 306.161 -0.62995 7.05292 0
M  V30 3218 H 306.569 -1.36967 5.47631 0
M  V30 3219 N 305.967 -1.56429 0.191757 0
M  V30 3220 C 306.93 -2.17707 -0.716688 0
M  V30 3221 C 307.93 -1.13061 -1.14341 0
M  V30 3222 O 309.12 -1.38464 -1.05704 0
M  V30 3223 C 306.252 -2.77644 -1.97804 0
M  V30 3224 H 307.445 -2.99342 -0.1829 0
M  V30 3225 H 304.998 -1.56193 -0.0578566 0
M  V30 3226 H 305.733 -1.99799 -2.55443 0
M  V30 3227 H 305.518 -3.54246 -1.68083 0
M  V30 3228 H 307.008 -3.24708 -2.62592 0
M  V30 3229 N 307.445 0.0818655 -1.57387 0
M  V30 3230 C 308.694 0.781681 -1.85937 0
M  V30 3231 C 309.007 1.79246 -0.782957 0
M  V30 3232 O 310.213 2.54112 -0.955987 0
M  V30 3233 C 308.669 1.44109 -3.29789 0
M  V30 3234 C 308.277 0.469396 -4.45534 0
M  V30 3235 C 310.021 2.12386 -3.67549 0
M  V30 3236 C 307.928 1.13415 -5.80423 0
M  V30 3237 H 306.858 0.295682 -0.693605 0
M  V30 3238 H 309.509 0.0348051 -1.83467 0
M  V30 3239 H 307.891 2.23588 -3.2684 0
M  V30 3240 H 309.065 -0.294856 -4.59856 0
M  V30 3241 H 307.38 -0.108383 -4.16259 0
M  V30 3242 H 309.977 2.62878 -4.65617 0
M  V30 3243 H 310.32 2.91877 -2.96839 0
M  V30 3244 H 310.853 1.39751 -3.72444 0
M  V30 3245 H 307.592 0.379771 -6.54399 0
M  V30 3246 H 307.112 1.8695 -5.69921 0
M  V30 3247 H 308.791 1.65686 -6.25426 0
M  V30 3248 N 308.923 1.53595 0.353017 0
M  V30 3249 C 310.172 1.69603 1.09168 0
M  V30 3250 C 310.485 0.460925 1.90092 0
M  V30 3251 O 311.691 0.501774 2.66823 0
M  V30 3252 C 310.147 2.99872 1.9901 0
M  V30 3253 C 309.755 4.30687 1.23339 0
M  V30 3254 C 311.499 3.25246 2.72792 0
M  V30 3255 C 309.406 5.52036 2.12156 0
M  V30 3256 H 308.336 0.631966 0.411261 0
M  V30 3257 H 310.987 1.80096 0.351802 0
M  V30 3258 H 309.369 2.83212 2.7678 0
M  V30 3259 H 310.543 4.58019 0.505456 0
M  V30 3260 H 308.858 4.11853 0.613663 0
M  V30 3261 H 311.455 4.13095 3.39495 0
M  V30 3262 H 311.798 2.41846 3.38846 0
M  V30 3263 H 312.331 3.42638 2.021 0
M  V30 3264 H 309.07 6.37951 1.50659 0
M  V30 3265 H 308.59 5.28966 2.82764 0
M  V30 3266 H 310.269 5.87313 2.71427 0
M  V30 3267 N 310.401 -0.613514 1.45168 0
M  V30 3268 C 311.817 -0.933629 1.29443 0
M  V30 3269 C 312.017 -2.00028 0.243101 0
M  V30 3270 O 311.073 -2.49848 -0.364992 0
M  V30 3271 C 312.386 -1.38018 2.67155 0
M  V30 3272 C 313.934 -1.49471 2.75004 0
M  V30 3273 C 314.409 -1.97503 4.13227 0
M  V30 3274 N 315.9 -2.04746 4.15491 0
M  V30 3275 C 316.635 -2.43121 5.19307 0
M  V30 3276 N 316.131 -2.80506 6.33473 0
M  V30 3277 N 317.924 -2.43408 5.06664 0
M  V30 3278 H 310.075 0.0916097 2.12202 0
M  V30 3279 H 312.338 -0.0216655 0.947752 0
M  V30 3280 H 312.044 -0.670625 3.45247 0
M  V30 3281 H 311.918 -2.34784 2.95222 0
M  V30 3282 H 314.305 -2.19519 1.9722 0
M  V30 3283 H 314.386 -0.510342 2.50657 0
M  V30 3284 H 314.03 -1.28045 4.91495 0
M  V30 3285 H 313.96 -2.96843 4.34962 0
M  V30 3286 H 316.451 -1.78468 3.33103 0
M  V30 3287 H 316.764 -3.08652 7.08487 0
M  V30 3288 H 315.109 -2.78216 6.36884 0
M  V30 3289 H 318.3 -2.13604 4.16523 0
M  V30 3290 H 318.473 -2.72989 5.87691 0
M  V30 3291 N 311.879 -1.3236 -0.855495 0
M  V30 3292 C 313.29 -1.2056 -1.42556 0
M  V30 3293 C 313.641 0.182209 -1.95352 0
M  V30 3294 O 312.766 1.08088 -1.87472 0
M  V30 3295 C 313.361 -2.1826 -2.59129 0
M  V30 3296 C 311.92 -2.10351 -3.12137 0
M  V30 3297 C 311.067 -2.06674 -1.84882 0
M  V30 3298 H 314.018 -1.442 -0.662727 0
M  V30 3299 H 314.039 -1.78064 -3.36264 0
M  V30 3300 H 313.551 -3.19257 -2.20673 0
M  V30 3301 H 311.652 -1.12599 -3.55179 0
M  V30 3302 H 311.765 -3.00135 -3.73438 0
M  V30 3303 H 310.129 -1.51901 -2.04446 0
M  V30 3304 H 310.912 -3.09451 -1.48643 0
M  V30 3305 N 313.357 1.07166 -1.15556 0
M  V30 3306 C 314.768 1.6127 -0.940693 0
M  V30 3307 C 315.119 1.89251 0.517551 0
M  V30 3308 O 314.244 1.65937 1.38903 0
M  V30 3309 C 314.839 2.92993 -1.7012 0
M  V30 3310 C 313.398 3.43832 -1.53156 0
M  V30 3311 C 312.545 2.1786 -1.71558 0
M  V30 3312 H 315.496 0.90229 -1.30554 0
M  V30 3313 H 315.517 3.62007 -1.17181 0
M  V30 3314 H 315.029 2.72596 -2.76248 0
M  V30 3315 H 313.13 3.69307 -0.494294 0
M  V30 3316 H 313.243 4.19747 -2.30975 0
M  V30 3317 H 311.607 2.2765 -1.14225 0
M  V30 3318 H 312.39 1.99956 -2.79056 0
M  V30 3319 N 314.835 0.952656 1.25548 0
M  V30 3320 C 316.083 0.605176 1.92826 0
M  V30 3321 C 316.404 -0.860261 1.74999 0
M  V30 3322 O 315.674 -1.6125 1.11244 0
M  V30 3323 H 314.254 0.220832 0.713612 0
M  V30 3324 H 316.916 1.21047 1.52754 0
M  V30 3325 H 316.012 0.832798 3.00784 0
M  V30 3326 N 316.313 -1.40141 0.720998 0
M  V30 3327 C 317.263 -2.27949 0.0482544 0
M  V30 3328 C 318.247 -1.43538 -0.727021 0
M  V30 3329 O 319.439 -1.6658 -0.598332 0
M  V30 3330 C 316.568 -3.32126 -0.868729 0
M  V30 3331 C 315.654 -4.24008 -0.0883515 0
M  V30 3332 N 316.045 -4.97154 0.931226 0
M  V30 3333 C 314.343 -4.4485 -0.320105 0
M  V30 3334 C 315.044 -5.64587 1.4006 0
M  V30 3335 N 314.02 -5.38787 0.721752 0
M  V30 3336 H 317.822 -2.81948 0.829609 0
M  V30 3337 H 315.336 -1.52656 0.554067 0
M  V30 3338 H 317.333 -3.93884 -1.36605 0
M  V30 3339 H 315.993 -2.79687 -1.6494 0
M  V30 3340 H 317.004 -5.01 1.31222 0
M  V30 3341 H 313.681 -4.03378 -1.07668 0
M  V30 3342 H 315.071 -6.33175 2.24808 0
M  V30 3343 N 317.792 -0.46758 -1.50504 0
M  V30 3344 C 318.742 0.34698 -2.25344 0
M  V30 3345 C 319.726 0.964469 -1.2879 0
M  V30 3346 O 320.918 0.8776 -1.53711 0
M  V30 3347 C 318.047 1.43042 -3.1208 0
M  V30 3348 C 317.133 0.82084 -4.16081 0
M  V30 3349 N 317.524 -0.0567602 -5.05768 0
M  V30 3350 C 315.822 1.08517 -4.32597 0
M  V30 3351 C 316.523 -0.402343 -5.80307 0
M  V30 3352 N 315.499 0.221607 -5.43148 0
M  V30 3353 H 319.301 -0.329129 -2.92051 0
M  V30 3354 H 316.815 -0.281508 -1.59942 0
M  V30 3355 H 318.812 2.02712 -3.64299 0
M  V30 3356 H 317.472 2.10856 -2.46921 0
M  V30 3357 H 318.483 -0.425349 -5.1615 0
M  V30 3358 H 315.16 1.75855 -3.78657 0
M  V30 3359 H 316.55 -1.11834 -6.62528 0
M  V30 3360 N 319.27 1.56325 -0.20005 0
M  V30 3361 C 320.233 2.18084 0.705132 0
M  V30 3362 C 321.233 1.13666 1.1374 0
M  V30 3363 O 322.423 1.39023 1.04968 0
M  V30 3364 C 319.555 2.78689 1.96329 0
M  V30 3365 H 320.748 2.99435 0.167023 0
M  V30 3366 H 318.301 1.56221 0.0495725 0
M  V30 3367 H 319.036 2.0115 2.5438 0
M  V30 3368 H 318.821 3.55133 1.66202 0
M  V30 3369 H 320.311 3.26096 2.60866 0
M  V30 3370 N 320.748 -0.0735177 1.57428 0
M  V30 3371 C 321.68 -1.11423 2.00294 0
M  V30 3372 C 322.693 -1.35084 0.908637 0
M  V30 3373 O 323.882 -1.33355 1.18654 0
M  V30 3374 C 320.982 -2.46548 2.32523 0
M  V30 3375 C 320.155 -2.42867 3.63778 0
M  V30 3376 C 319.214 -3.60087 3.83697 0
M  V30 3377 O 318.24 -3.41595 4.55304 0
M  V30 3378 N 319.442 -4.80372 3.25919 0
M  V30 3379 H 322.207 -0.749206 2.90184 0
M  V30 3380 H 319.768 -0.262195 1.59763 0
M  V30 3381 H 321.76 -3.23607 2.43024 0
M  V30 3382 H 320.33 -2.75059 1.48531 0
M  V30 3383 H 319.55 -1.51206 3.64047 0
M  V30 3384 H 320.838 -2.37506 4.49965 0
M  V30 3385 H 320.236 -4.983 2.67795 0
M  V30 3386 H 318.793 -5.54948 3.41871 0
M  V30 3387 N 322.226 -1.5378 -0.344866 0
M  V30 3388 C 323.176 -1.78057 -1.42407 0
M  V30 3389 C 324.16 -0.635732 -1.47808 0
M  V30 3390 O 325.352 -0.89508 -1.527 0
M  V30 3391 C 322.481 -1.99242 -2.79566 0
M  V30 3392 C 321.567 -3.19787 -2.78562 0
M  V30 3393 N 321.958 -4.41284 -2.47189 0
M  V30 3394 C 320.256 -3.2093 -3.0971 0
M  V30 3395 C 320.957 -5.23128 -2.54385 0
M  V30 3396 N 319.933 -4.59813 -2.89953 0
M  V30 3397 H 323.735 -2.69588 -1.17046 0
M  V30 3398 H 321.249 -1.52687 -0.553217 0
M  V30 3399 H 323.246 -2.14768 -3.57324 0
M  V30 3400 H 321.906 -1.08953 -3.05875 0
M  V30 3401 H 322.917 -4.68657 -2.20411 0
M  V30 3402 H 319.594 -2.40603 -3.41199 0
M  V30 3403 H 320.984 -6.30096 -2.333 0
M  V30 3404 N 323.704 0.605807 -1.45491 0
M  V30 3405 C 324.929 1.39625 -1.53361 0
M  V30 3406 C 325.354 1.87351 -0.167645 0
M  V30 3407 O 324.712 1.60243 0.848051 0
M  V30 3408 C 324.76 2.57559 -2.5238 0
M  V30 3409 O 323.864 3.58248 -2.04285 0
M  V30 3410 H 323.205 0.416771 -0.516912 0
M  V30 3411 H 325.735 0.737103 -1.90861 0
M  V30 3412 H 325.745 3.0478 -2.71244 0
M  V30 3413 H 324.42 2.22171 -3.51586 0
M  V30 3414 H 322.997 3.17664 -1.95305 0
M  V30 3415 N 325.182 1.32811 0.848464 0
M  V30 3416 C 326.112 1.24882 1.97299 0
M  V30 3417 C 327.093 0.131357 1.69592 0
M  V30 3418 O 328.278 0.319553 1.91553 0
M  V30 3419 C 325.408 0.97746 3.33261 0
M  V30 3420 C 324.362 2.05682 3.75338 0
M  V30 3421 C 323.688 1.63777 5.09 0
M  V30 3422 C 324.988 3.47254 3.90144 0
M  V30 3423 H 326.682 2.18966 2.04191 0
M  V30 3424 H 324.228 1.05413 0.981029 0
M  V30 3425 H 326.181 0.908513 4.1149 0
M  V30 3426 H 324.905 0.000980011 3.266 0
M  V30 3427 H 323.564 2.11603 2.99366 0
M  V30 3428 H 323.212 0.648569 4.98801 0
M  V30 3429 H 322.912 2.36 5.38124 0
M  V30 3430 H 324.436 1.5833 5.89715 0
M  V30 3431 H 325.85 3.43888 4.58709 0
M  V30 3432 H 324.247 4.1788 4.30693 0
M  V30 3433 H 325.317 3.86462 2.92874 0
M  V30 3434 N 326.66 -1.06551 1.16123 0
M  V30 3435 C 327.593 -2.13382 0.80892 0
M  V30 3436 C 328.571 -1.61128 -0.21827 0
M  V30 3437 O 329.755 -1.88219 -0.102952 0
M  V30 3438 C 326.882 -3.38083 0.204303 0
M  V30 3439 C 325.928 -4.09133 1.20469 0
M  V30 3440 S 326.761 -4.5948 2.75024 0
M  V30 3441 C 327.917 -5.87446 2.16005 0
M  V30 3442 H 328.15 -2.42937 1.71373 0
M  V30 3443 H 325.683 -1.18947 0.984428 0
M  V30 3444 H 327.641 -4.10268 -0.138081 0
M  V30 3445 H 326.302 -3.0669 -0.678234 0
M  V30 3446 H 325.495 -4.98685 0.730019 0
M  V30 3447 H 325.097 -3.4295 1.49202 0
M  V30 3448 H 327.389 -6.60065 1.5271 0
M  V30 3449 H 328.332 -6.39639 3.03756 0
M  V30 3450 H 328.74 -5.41354 1.59989 0
M  V30 3451 N 328.138 -0.959301 -1.25041 0
M  V30 3452 C 329.415 -0.533805 -1.88175 0
M  V30 3453 C 329.795 0.988994 -1.865 0
M  V30 3454 O 329.143 1.85677 -1.33177 0
M  V30 3455 C 329.353 -1.11575 -3.30684 0
M  V30 3456 C 330.701 -1.19548 -4.07423 0
M  V30 3457 O 331.725 -1.06765 -3.39823 0
M  V30 3458 O 330.584 -1.39656 -5.28354 0
M  V30 3459 H 327.678 -0.176772 -0.807887 0
M  V30 3460 H 330.224 -1.05303 -1.33076 0
M  V30 3461 H 328.996 -2.15884 -3.26358 0
M  V30 3462 H 328.619 -0.580059 -3.93346 0
M  V30 3463 N 329.616 1.39756 -0.72842 0
M  V30 3464 C 330.864 2.00248 -0.272946 0
M  V30 3465 C 331.185 1.58077 1.14178 0
M  V30 3466 O 330.455 0.826014 1.77634 0
M  V30 3467 H 329.035 0.740554 -0.0979247 0
M  V30 3468 H 331.697 1.70903 -0.936912 0
M  V30 3469 H 330.793 3.10495 -0.316142 0
M  V30 3470 N 331.094 0.475555 1.50254 0
M  V30 3471 C 332.324 -0.0753399 2.06463 0
M  V30 3472 C 332.732 -1.33661 1.33908 0
M  V30 3473 O 332.075 -1.79219 0.403257 0
M  V30 3474 C 332.137 -0.424921 3.5698 0
M  V30 3475 C 331.801 0.734965 4.51051 0
M  V30 3476 C 332.798 1.61827 4.94073 0
M  V30 3477 C 330.483 0.926557 4.9368 0
M  V30 3478 C 332.477 2.67754 5.78434 0
M  V30 3479 C 330.164 1.98904 5.77824 0
M  V30 3480 C 331.162 2.8629 6.20103 0
M  V30 3481 O 330.85 3.90708 7.02568 0
M  V30 3482 H 330.582 0.00576308 0.675975 0
M  V30 3483 H 333.136 0.664662 1.94349 0
M  V30 3484 H 331.366 -1.21817 3.67012 0
M  V30 3485 H 333.055 -0.911422 3.95535 0
M  V30 3486 H 333.821 1.48196 4.61804 0
M  V30 3487 H 329.7 0.25584 4.6029 0
M  V30 3488 H 333.244 3.35992 6.11355 0
M  V30 3489 H 329.141 2.12541 6.09505 0
M  V30 3490 H 329.909 3.87751 7.20827 0
M  V30 3491 N 332.573 -1.56217 0.208337 0
M  V30 3492 C 333.813 -1.99849 -0.428927 0
M  V30 3493 C 334.177 -1.09262 -1.57879 0
M  V30 3494 O 335.378 -1.42185 -2.28116 0
M  V30 3495 C 333.649 -3.46777 -0.864879 0
M  V30 3496 S 335.208 -4.12434 -1.49811 0
M  V30 3497 H 332.026 -0.697742 -0.136665 0
M  V30 3498 H 334.628 -1.92953 0.314519 0
M  V30 3499 H 333.332 -4.10396 -0.0181326 0
M  V30 3500 H 332.863 -3.57518 -1.64147 0
M  V30 3501 H 334.878 -4.10532 -2.78707 0
M  V30 3502 N 334.051 0.0651679 -1.57465 0
M  V30 3503 C 334.984 1.10876 -1.99453 0
M  V30 3504 C 335.962 1.37205 -0.872555 0
M  V30 3505 O 337.146 1.50468 -1.13542 0
M  V30 3506 C 334.273 2.45167 -2.3369 0
M  V30 3507 C 333.319 2.3493 -3.55964 0
M  V30 3508 S 334.152 1.73708 -5.06543 0
M  V30 3509 C 335.308 3.09563 -5.43987 0
M  V30 3510 H 335.541 0.750967 -2.87659 0
M  V30 3511 H 333.074 0.273933 -1.51951 0
M  V30 3512 H 335.032 3.22412 -2.54088 0
M  V30 3513 H 333.693 2.78105 -1.46001 0
M  V30 3514 H 332.886 3.3398 -3.77457 0
M  V30 3515 H 332.488 1.65823 -3.3523 0
M  V30 3516 H 334.78 4.05882 -5.42463 0
M  V30 3517 H 335.723 2.92843 -6.44708 0
M  V30 3518 H 336.131 3.10474 -4.71451 0
M  V30 3519 N 335.529 1.53961 0.336706 0
M  V30 3520 C 336.776 1.71536 1.07618 0
M  V30 3521 C 337.104 0.482125 1.8843 0
M  V30 3522 O 336.359 -0.536142 1.88213 0
M  V30 3523 C 336.658 2.93493 2.03953 0
M  V30 3524 C 336.324 4.28811 1.39399 0
M  V30 3525 C 334.986 4.65602 1.21523 0
M  V30 3526 C 337.338 5.12844 0.929541 0
M  V30 3527 C 334.666 5.84037 0.558312 0
M  V30 3528 C 337.018 6.31951 0.286505 0
M  V30 3529 C 335.682 6.67432 0.0954869 0
M  V30 3530 H 334.952 0.627696 0.393801 0
M  V30 3531 H 337.599 1.88186 0.354715 0
M  V30 3532 H 335.904 2.71475 2.82504 0
M  V30 3533 H 337.601 3.04285 2.61174 0
M  V30 3534 H 334.191 3.99858 1.54311 0
M  V30 3535 H 338.375 4.84947 1.05548 0
M  V30 3536 H 333.631 6.10097 0.398995 0
M  V30 3537 H 337.805 6.96352 -0.0814376 0
M  V30 3538 H 335.432 7.59063 -0.415579 0
M  V30 3539 N 337.007 -0.598083 1.45811 0
M  V30 3540 C 337.955 -1.72932 1.55555 0
M  V30 3541 C 338.949 -1.63984 0.424921 0
M  V30 3542 O 340.155 -1.69663 0.601205 0
M  V30 3543 H 336.53 -0.571489 0.488779 0
M  V30 3544 H 338.501 -1.61842 2.50699 0
M  V30 3545 C 337.25 -3.11318 1.54843 0
M  V30 3546 H 336.573 -3.18867 2.41172 0
M  V30 3547 H 338.013 -3.90274 1.65717 0
M  V30 3548 C 336.472 -3.3578 0.274427 0
M  V30 3549 O 337.002 -3.9654 -0.641778 0
M  V30 3550 N 335.208 -2.90119 0.167139 0
M  V30 3551 H 334.755 -2.40855 0.913596 0
M  V30 3552 H 334.713 -3.0686 -0.684435 0
M  V30 3553 N 338.485 -1.33259 -0.841409 0
M  V30 3554 C 339.435 -1.19872 -1.93945 0
M  V30 3555 C 340.419 -0.102269 -1.60575 0
M  V30 3556 O 341.611 -0.330114 -1.73894 0
M  V30 3557 C 338.74 -0.937517 -3.30251 0
M  V30 3558 C 337.826 -2.07629 -3.69799 0
M  V30 3559 N 338.217 -3.32604 -3.81062 0
M  V30 3560 C 336.515 -1.98242 -3.9952 0
M  V30 3561 C 337.216 -4.07275 -4.15333 0
M  V30 3562 N 336.192 -3.35691 -4.27566 0
M  V30 3563 H 339.994 -2.14604 -2.00805 0
M  V30 3564 H 337.508 -1.2523 -1.03398 0
M  V30 3565 H 339.505 -0.822545 -4.08705 0
M  V30 3566 H 338.165 0.00128798 -3.247 0
M  V30 3567 H 339.176 -3.67382 -3.65035 0
M  V30 3568 H 335.853 -1.12005 -4.02195 0
M  V30 3569 H 337.243 -5.1511 -4.31406 0
M  V30 3570 N 339.963 1.05934 -1.16686 0
M  V30 3571 C 341.209 1.79065 -0.95203 0
M  V30 3572 C 341.542 1.87147 0.518629 0
M  V30 3573 O 340.817 1.36574 1.38484 0
M  V30 3574 C 341.1 3.23359 -1.58464 0
M  V30 3575 C 340.953 3.23336 -3.12689 0
M  V30 3576 C 342.272 4.21004 -1.28232 0
M  V30 3577 H 339.391 0.65005 -0.34728 0
M  V30 3578 H 342.033 1.23868 -1.44072 0
M  V30 3579 H 340.183 3.70493 -1.16908 0
M  V30 3580 H 341.855 2.84336 -3.6325 0
M  V30 3581 H 340.098 2.61886 -3.4583 0
M  V30 3582 H 340.769 4.25144 -3.52075 0
M  V30 3583 H 343.245 3.8233 -1.64203 0
M  V30 3584 H 342.121 5.20225 -1.75092 0
M  V30 3585 H 342.382 4.41639 -0.201791 0
M  V30 3586 N 341.441 0.965919 1.2453 0
M  V30 3587 C 342.404 0.499547 2.2369 0
M  V30 3588 C 343.404 -0.40294 1.5567 0
M  V30 3589 O 344.594 -0.19865 1.73064 0
M  V30 3590 C 341.726 -0.276792 3.39774 0
M  V30 3591 H 342.919 1.37613 2.66463 0
M  V30 3592 H 340.472 0.750324 1.37112 0
M  V30 3593 H 341.207 -1.17055 3.02438 0
M  V30 3594 H 340.992 0.370826 3.90343 0
M  V30 3595 H 342.482 -0.592175 4.1338 0
M  V30 3596 N 342.919 -1.39368 0.735821 0
M  V30 3597 C 344.165 -2.00794 0.284544 0
M  V30 3598 C 344.498 -1.58255 -1.12557 0
M  V30 3599 O 343.773 -0.811819 -1.76748 0
M  V30 3600 C 344.056 -3.58011 0.387337 0
M  V30 3601 C 343.909 -4.10566 1.83728 0
M  V30 3602 C 345.228 -4.395 -0.22975 0
M  V30 3603 H 342.347 -0.729501 0.104866 0
M  V30 3604 H 344.989 -1.65564 0.93213 0
M  V30 3605 H 343.139 -3.88154 -0.164006 0
M  V30 3606 H 344.811 -3.91139 2.44556 0
M  V30 3607 H 343.054 -3.64095 2.35833 0
M  V30 3608 H 343.725 -5.19702 1.86047 0
M  V30 3609 H 346.201 -4.15406 0.240257 0
M  V30 3610 H 345.077 -5.48752 -0.127485 0
M  V30 3611 H 345.338 -4.22062 -1.3159 0
M  V30 3612 N 344.397 -0.483516 -1.5 0
M  V30 3613 C 345.36 0.292965 -2.2732 0
M  V30 3614 C 346.36 0.909499 -1.32608 0
M  V30 3615 O 347.55 0.776745 -1.55924 0
M  V30 3616 C 344.682 1.41854 -3.09984 0
M  V30 3617 H 345.875 -0.385289 -2.97415 0
M  V30 3618 H 343.428 -0.237942 -1.54478 0
M  V30 3619 H 344.163 2.13148 -2.44414 0
M  V30 3620 H 343.948 0.982114 -3.79601 0
M  V30 3621 H 345.438 1.96597 -3.68429 0
M  V30 3622 N 345.875 1.56104 -0.216619 0
M  V30 3623 C 346.838 2.18819 0.681962 0
M  V30 3624 C 347.838 1.14866 1.12528 0
M  V30 3625 O 349.028 1.40128 1.03488 0
M  V30 3626 C 346.16 2.80756 1.93362 0
M  V30 3627 H 347.353 2.99595 0.135254 0
M  V30 3628 H 344.906 1.56265 0.0330003 0
M  V30 3629 H 345.641 2.03837 2.52232 0
M  V30 3630 H 345.426 3.56876 1.62426 0
M  V30 3631 H 346.916 3.28844 2.57393 0
M  V30 3632 N 347.353 -0.0568162 1.57498 0
M  V30 3633 C 348.769 -0.411933 1.54192 0
M  V30 3634 C 348.969 -1.78287 0.938942 0
M  V30 3635 O 348.025 -2.46483 0.547919 0
M  V30 3636 C 349.338 -0.339244 2.9878 0
M  V30 3637 C 350.886 -0.418348 3.10192 0
M  V30 3638 C 351.361 -0.375407 4.56459 0
M  V30 3639 N 352.852 -0.435038 4.61153 0
M  V30 3640 C 353.587 -0.424265 5.71828 0
M  V30 3641 N 353.083 -0.367418 6.91825 0
M  V30 3642 N 354.876 -0.471938 5.60115 0
M  V30 3643 H 347.027 0.840684 1.95055 0
M  V30 3644 H 349.29 0.316987 0.893433 0
M  V30 3645 H 348.996 0.601742 3.46514 0
M  V30 3646 H 348.87 -1.14371 3.59443 0
M  V30 3647 H 351.257 -1.34976 2.62422 0
M  V30 3648 H 351.338 0.414962 2.52412 0
M  V30 3649 H 350.982 0.552219 5.04889 0
M  V30 3650 H 350.912 -1.22645 5.12119 0
M  V30 3651 H 353.403 -0.482612 3.74806 0
M  V30 3652 H 353.716 -0.363535 7.71944 0
M  V30 3653 H 352.061 -0.333879 6.94198 0
M  V30 3654 H 355.252 -0.514145 4.65268 0
M  V30 3655 H 355.425 -0.460073 6.46365 0
M  V30 3656 N 348.832 -1.54138 -0.328536 0
M  V30 3657 C 350.062 -1.75807 -1.08516 0
M  V30 3658 C 350.47 -0.50428 -1.82356 0
M  V30 3659 O 349.813 0.534451 -1.75754 0
M  V30 3660 C 349.875 -2.89423 -2.13248 0
M  V30 3661 C 349.539 -4.28504 -1.5885 0
M  V30 3662 C 350.536 -5.09536 -1.03289 0
M  V30 3663 C 348.221 -4.75034 -1.63243 0
M  V30 3664 C 350.215 -6.35206 -0.52845 0
M  V30 3665 C 347.902 -6.00672 -1.12411 0
M  V30 3666 C 348.9 -6.80592 -0.573062 0
M  V30 3667 O 348.588 -8.03867 -0.0723692 0
M  V30 3668 H 348.32 -0.590633 -0.328829 0
M  V30 3669 H 350.874 -2.01819 -0.381868 0
M  V30 3670 H 349.104 -2.5897 -2.87178 0
M  V30 3671 H 350.793 -2.98921 -2.74592 0
M  V30 3672 H 351.559 -4.74745 -0.99206 0
M  V30 3673 H 347.438 -4.12875 -2.05074 0
M  V30 3674 H 350.982 -6.97532 -0.0976774 0
M  V30 3675 H 346.879 -6.34955 -1.162 0
M  V30 3676 H 347.647 -8.18283 -0.188258 0
M  V30 3677 N 350.31 0.590341 -1.46126 0
M  V30 3678 C 351.273 1.68194 -1.55703 0
M  V30 3679 C 352.273 1.54808 -0.434868 0
M  V30 3680 O 353.463 1.59564 -0.698928 0
M  V30 3681 C 350.595 3.07575 -1.47005 0
M  V30 3682 H 351.788 1.61064 -2.52979 0
M  V30 3683 H 349.341 0.807541 -1.33823 0
M  V30 3684 H 350.076 3.20268 -0.509785 0
M  V30 3685 H 349.861 3.187 -2.28414 0
M  V30 3686 H 351.351 3.87055 -1.56776 0
M  V30 3687 N 351.788 1.33704 0.83433 0
M  V30 3688 C 352.72 1.20172 1.9517 0
M  V30 3689 C 353.733 0.131572 1.62267 0
M  V30 3690 O 354.922 0.382406 1.74356 0
M  V30 3691 C 352.022 0.821716 3.28787 0
M  V30 3692 C 351.195 1.98446 3.89792 0
M  V30 3693 C 350.254 1.58469 5.01771 0
M  V30 3694 O 349.28 2.29968 5.20676 0
M  V30 3695 N 350.482 0.492291 5.78409 0
M  V30 3696 H 353.247 2.16429 2.07313 0
M  V30 3697 H 350.808 1.26509 1.0103 0
M  V30 3698 H 352.8 0.536291 4.01131 0
M  V30 3699 H 351.37 -0.0503058 3.1256 0
M  V30 3700 H 350.59 2.43526 3.09982 0
M  V30 3701 H 351.878 2.76236 4.27283 0
M  V30 3702 H 351.276 -0.102349 5.65607 0
M  V30 3703 H 349.833 0.266555 6.51255 0
M  V30 3704 N 353.266 -1.05314 1.17247 0
M  V30 3705 C 354.198 -2.13023 0.845812 0
M  V30 3706 C 355.211 -1.62096 -0.151246 0
M  V30 3707 O 356.4 -1.78343 0.0748818 0
M  V30 3708 C 353.5 -3.38047 0.240292 0
M  V30 3709 C 352.673 -4.18255 1.27991 0
M  V30 3710 C 351.732 -5.21625 0.692375 0
M  V30 3711 O 350.758 -5.52619 1.36385 0
M  V30 3712 N 351.96 -5.78201 -0.516178 0
M  V30 3713 H 354.725 -2.41642 1.77283 0
M  V30 3714 H 352.286 -1.21401 1.07115 0
M  V30 3715 H 354.278 -4.04359 -0.16603 0
M  V30 3716 H 352.848 -3.06972 -0.590487 0
M  V30 3717 H 352.068 -3.47451 1.86203 0
M  V30 3718 H 353.356 -4.68643 1.98119 0
M  V30 3719 H 352.754 -5.55301 -1.07969 0
M  V30 3720 H 351.311 -6.4604 -0.86458 0
M  V30 3721 N 354.744 -0.972509 -1.24016 0
M  V30 3722 C 355.691 -0.505969 -2.25186 0
M  V30 3723 C 356.661 0.451009 -1.5986 0
M  V30 3724 O 357.846 0.360307 -1.87367 0
M  V30 3725 C 354.986 0.193089 -3.44559 0
M  V30 3726 C 354.099 -0.803222 -4.24467 0
M  V30 3727 C 353.234 -0.0797793 -5.3114 0
M  V30 3728 C 352.273 -1.06583 -6.02749 0
M  V30 3729 N 351.41 -0.372074 -7.01113 0
M  V30 3730 H 356.25 -1.37351 -2.64459 0
M  V30 3731 H 353.787 -0.688419 -1.29997 0
M  V30 3732 H 355.745 0.615125 -4.1264 0
M  V30 3733 H 354.375 1.02455 -3.06109 0
M  V30 3734 H 353.427 -1.34368 -3.55878 0
M  V30 3735 H 354.739 -1.55494 -4.73944 0
M  V30 3736 H 353.893 0.400015 -6.0538 0
M  V30 3737 H 352.632 0.704597 -4.82583 0
M  V30 3738 H 351.637 -1.55645 -5.27309 0
M  V30 3739 H 352.862 -1.85074 -6.53395 0
M  V30 3740 H 350.808 0.393238 -6.5482 0
M  V30 3741 H 350.725 -1.06258 -7.48495 0
M  V30 3742 H 351.993 0.0855932 -7.79453 0
M  V30 3743 N 356.222 1.38976 -0.743202 0
M  V30 3744 C 357.172 2.27843 -0.084513 0
M  V30 3745 C 358.156 1.44677 0.704094 0
M  V30 3746 O 359.348 1.67511 0.571755 0
M  V30 3747 C 356.477 3.33466 0.815781 0
M  V30 3748 C 355.563 4.24095 0.0208844 0
M  V30 3749 N 355.954 4.95609 -1.0102 0
M  V30 3750 C 354.252 4.45303 0.249293 0
M  V30 3751 C 354.953 5.62287 -1.49024 0
M  V30 3752 N 353.929 5.37571 -0.807377 0
M  V30 3753 H 357.731 2.80593 -0.87436 0
M  V30 3754 H 355.245 1.51755 -0.578283 0
M  V30 3755 H 357.242 3.96008 1.30321 0
M  V30 3756 H 355.902 2.82276 1.6047 0
M  V30 3757 H 356.913 4.98849 -1.39176 0
M  V30 3758 H 353.59 4.0504 1.01237 0
M  V30 3759 H 354.98 6.29519 -2.34853 0
M  V30 3760 N 357.7 0.491464 1.49741 0
M  V30 3761 C 359.116 0.146835 1.58923 0
M  V30 3762 C 359.316 -1.34804 1.49767 0
M  V30 3763 O 358.372 -2.12317 1.36667 0
M  V30 3764 C 359.685 0.715157 2.92072 0
M  V30 3765 C 361.233 0.680407 3.05515 0
M  V30 3766 C 361.708 1.22663 4.41269 0
M  V30 3767 N 363.199 1.18691 4.47735 0
M  V30 3768 C 363.934 1.57984 5.51207 0
M  V30 3769 N 363.43 2.04824 6.6183 0
M  V30 3770 N 365.223 1.49459 5.41866 0
M  V30 3771 H 357.374 1.46347 1.53936 0
M  V30 3772 H 359.637 0.606453 0.728642 0
M  V30 3773 H 359.343 1.76317 3.04311 0
M  V30 3774 H 359.217 0.17018 3.76816 0
M  V30 3775 H 361.604 -0.358743 2.92911 0
M  V30 3776 H 361.685 1.26242 2.22478 0
M  V30 3777 H 361.329 2.26451 4.54623 0
M  V30 3778 H 361.259 0.620637 5.2293 0
M  V30 3779 H 363.75 0.843605 3.68364 0
M  V30 3780 H 364.063 2.32901 7.3687 0
M  V30 3781 H 362.408 2.08791 6.62896 0
M  V30 3782 H 365.599 1.12692 4.54333 0
M  V30 3783 H 365.772 1.80406 6.22381 0
M  V30 3784 N 359.178 -1.55987 0.224894 0
M  V30 3785 C 360.427 -1.97566 -0.406273 0
M  V30 3786 C 360.74 -1.11569 -1.6066 0
M  V30 3787 O 361.946 -1.43062 -2.3075 0
M  V30 3788 C 360.402 -3.51474 -0.774207 0
M  V30 3789 C 360.01 -4.46179 0.403496 0
M  V30 3790 C 361.754 -4.01758 -1.37079 0
M  V30 3791 C 359.661 -5.91399 0.0129412 0
M  V30 3792 H 358.591 -0.737777 -0.155565 0
M  V30 3793 H 361.242 -1.80659 0.321635 0
M  V30 3794 H 359.624 -3.63994 -1.55963 0
M  V30 3795 H 360.798 -4.45409 1.18101 0
M  V30 3796 H 359.113 -4.06255 0.913536 0
M  V30 3797 H 361.71 -5.07756 -1.67596 0
M  V30 3798 H 362.053 -3.47805 -2.28773 0
M  V30 3799 H 362.586 -3.92475 -0.648733 0
M  V30 3800 H 359.325 -6.49341 0.896451 0
M  V30 3801 H 358.845 -5.95356 -0.728821 0
M  V30 3802 H 360.524 -6.45683 -0.412582 0
M  V30 3803 N 360.656 0.0484629 -1.57525 0
M  V30 3804 C 362.072 0.40375 -1.54409 0
M  V30 3805 C 362.272 1.77786 -0.948384 0
M  V30 3806 O 361.328 2.46189 -0.560983 0
M  V30 3807 C 362.641 0.323394 -2.98956 0
M  V30 3808 C 364.189 0.401892 -3.10409 0
M  V30 3809 C 364.664 0.351195 -4.56652 0
M  V30 3810 N 366.155 0.410576 -4.61377 0
M  V30 3811 C 366.89 0.393933 -5.72045 0
M  V30 3812 N 366.386 0.330724 -6.9201 0
M  V30 3813 N 368.179 0.442227 -5.60358 0
M  V30 3814 H 360.33 -0.851016 -1.94606 0
M  V30 3815 H 362.593 -0.321721 -0.89174 0
M  V30 3816 H 362.299 -0.62011 -3.4619 0
M  V30 3817 H 362.173 1.12463 -3.60044 0
M  V30 3818 H 364.56 1.33582 -2.63134 0
M  V30 3819 H 364.641 -0.428342 -2.52188 0
M  V30 3820 H 364.285 -0.578987 -5.04589 0
M  V30 3821 H 364.215 1.19928 -5.12762 0
M  V30 3822 H 366.706 0.462729 -3.75056 0
M  V30 3823 H 367.019 0.322592 -7.72126 0
M  V30 3824 H 365.364 0.29706 -6.94365 0
M  V30 3825 H 368.555 0.489464 -4.65534 0
M  V30 3826 H 368.728 0.425788 -6.466 0
M  V30 3827 N 362.134 1.5431 0.320358 0
M  V30 3828 C 363.55 1.45091 0.664889 0
M  V30 3829 C 363.75 0.626382 1.91517 0
M  V30 3830 O 362.806 0.126443 2.52183 0
M  V30 3831 C 364.119 2.88848 0.83591 0
M  V30 3832 C 365.667 2.9877 0.933046 0
M  V30 3833 C 366.142 4.43683 1.13621 0
M  V30 3834 N 367.633 4.47309 1.20287 0
M  V30 3835 C 368.368 5.56595 1.37801 0
M  V30 3836 N 367.864 6.75844 1.52338 0
M  V30 3837 N 369.657 5.44248 1.40535 0
M  V30 3838 H 361.808 2.06398 -0.501374 0
M  V30 3839 H 364.071 0.933963 -0.162534 0
M  V30 3840 H 363.777 3.51698 -0.0116092 0
M  V30 3841 H 363.651 3.35148 1.73078 0
M  V30 3842 H 366.038 2.36045 1.77107 0
M  V30 3843 H 366.119 2.55796 0.0145782 0
M  V30 3844 H 365.763 5.06995 0.303032 0
M  V30 3845 H 365.693 4.84269 2.0686 0
M  V30 3846 H 368.184 3.61388 1.10485 0
M  V30 3847 H 368.497 7.54892 1.65403 0
M  V30 3848 H 366.842 6.78746 1.4943 0
M  V30 3849 H 370.033 4.50038 1.28777 0
M  V30 3850 H 370.206 6.29473 1.53842 0
M  V30 3851 N 363.613 -0.582584 1.46437 0
M  V30 3852 C 364.859 -1.34278 1.51978 0
M  V30 3853 C 365.192 -1.93446 0.170973 0
M  V30 3854 O 364.467 -1.76481 -0.817608 0
M  V30 3855 C 364.75 -2.47203 2.61845 0
M  V30 3856 C 364.603 -1.93069 4.06257 0
M  V30 3857 C 365.922 -3.49247 2.67795 0
M  V30 3858 H 363.041 -0.486876 0.553282 0
M  V30 3859 H 365.683 -0.654437 1.78374 0
M  V30 3860 H 363.833 -3.0592 2.39469 0
M  V30 3861 H 365.505 -1.38808 4.3992 0
M  V30 3862 H 363.748 -1.23898 4.1573 0
M  V30 3863 H 364.419 -2.74586 4.7886 0
M  V30 3864 H 366.895 -3.00411 2.8791 0
M  V30 3865 H 365.771 -4.25719 3.46489 0
M  V30 3866 H 366.032 -4.06482 1.73852 0
M  V30 3867 N 365.091 -1.34144 -0.827227 0
M  V30 3868 C 366.021 -1.28005 -1.95287 0
M  V30 3869 C 367.002 -0.158321 -1.69362 0
M  V30 3870 O 368.187 -0.349987 -1.9102 0
M  V30 3871 C 365.317 -1.03036 -3.31664 0
M  V30 3872 C 364.271 -2.11628 -3.72019 0
M  V30 3873 C 363.597 -1.71854 -5.0633 0
M  V30 3874 C 364.897 -3.53417 -3.8457 0
M  V30 3875 H 366.591 -2.22187 -2.00682 0
M  V30 3876 H 364.137 -1.0696 -0.964135 0
M  V30 3877 H 366.09 -0.973863 -4.09993 0
M  V30 3878 H 364.814 -0.0529391 -3.26557 0
M  V30 3879 H 363.473 -2.16339 -2.95961 0
M  V30 3880 H 363.121 -0.727841 -4.97706 0
M  V30 3881 H 362.821 -2.44531 -5.34302 0
M  V30 3882 H 364.345 -1.67692 -5.87122 0
M  V30 3883 H 365.759 -3.51142 -4.5318 0
M  V30 3884 H 364.156 -4.24679 -4.2399 0
M  V30 3885 H 365.226 -3.91072 -2.86689 0
M  V30 3886 N 366.569 1.04691 -1.17803 0
M  V30 3887 C 367.818 1.77176 -0.963931 0
M  V30 3888 C 368.131 1.88888 0.508015 0
M  V30 3889 O 369.337 2.58164 0.840465 0
M  V30 3890 C 367.793 3.18518 -1.67555 0
M  V30 3891 C 367.401 3.14919 -3.18637 0
M  V30 3892 C 369.145 3.95424 -1.54402 0
M  V30 3893 C 367.052 4.51081 -3.82466 0
M  V30 3894 H 365.982 0.664116 -0.357023 0
M  V30 3895 H 368.633 1.17303 -1.4111 0
M  V30 3896 H 367.015 3.78748 -1.15613 0
M  V30 3897 H 368.189 2.64178 -3.77554 0
M  V30 3898 H 366.504 2.51512 -3.31859 0
M  V30 3899 H 369.101 4.96106 -1.99456 0
M  V30 3900 H 369.444 4.13343 -0.495329 0
M  V30 3901 H 369.977 3.41754 -2.0359 0
M  V30 3902 H 366.716 4.38368 -4.87354 0
M  V30 3903 H 366.236 5.01951 -3.28337 0
M  V30 3904 H 367.915 5.2001 -3.84965 0
M  V30 3905 N 368.047 0.979072 1.23499 0
M  V30 3906 C 369.293 0.648178 1.92163 0
M  V30 3907 C 369.626 -0.816049 1.76222 0
M  V30 3908 O 368.901 -1.58849 1.12237 0
M  V30 3909 C 369.184 1.03773 3.44824 0
M  V30 3910 C 369.037 2.55948 3.69879 0
M  V30 3911 C 370.356 0.580653 4.36253 0
M  V30 3912 H 367.475 0.236952 0.69787 0
M  V30 3913 H 370.117 1.22012 1.45647 0
M  V30 3914 H 368.267 0.551058 3.84572 0
M  V30 3915 H 369.939 3.12179 3.3962 0
M  V30 3916 H 368.182 2.98641 3.14636 0
M  V30 3917 H 368.853 2.78255 4.76737 0
M  V30 3918 H 371.329 0.998465 4.03943 0
M  V30 3919 H 370.205 0.881663 5.41773 0
M  V30 3920 H 370.466 -0.519052 4.39042 0
M  V30 3921 N 369.525 -1.3858 0.750561 0
M  V30 3922 C 370.802 -1.94231 0.231009 0
M  V30 3923 C 371.182 -1.68611 -1.27018 0
M  V30 3924 O 370.53 -1.02296 -2.04323 0
M  V30 3925 C 370.74 -3.44123 0.581428 0
M  V30 3926 C 372.088 -4.2116 0.539389 0
M  V30 3927 O 373.112 -3.52391 0.519541 0
M  V30 3928 O 371.971 -5.43749 0.54765 0
M  V30 3929 H 369.065 -0.825639 0.0474263 0
M  V30 3930 H 371.611 -1.4799 0.830478 0
M  V30 3931 H 370.383 -3.56267 1.61833 0
M  V30 3932 H 370.006 -3.97573 -0.0462047 0
M  V30 3933 N 371.003 -0.499398 -1.49478 0
M  V30 3934 C 372.249 0.0377587 -2.03365 0
M  V30 3935 C 372.604 1.3484 -1.37244 0
M  V30 3936 O 371.897 1.85 -0.498547 0
M  V30 3937 C 372.091 0.248424 -3.56536 0
M  V30 3938 C 371.92 -1.04025 -4.37503 0
M  V30 3939 C 370.69 -1.59159 -4.79579 0
M  V30 3940 C 372.888 -1.9431 -4.76181 0
M  V30 3941 N 370.87 -2.82634 -5.44969 0
M  V30 3942 C 372.241 -3.02364 -5.41272 0
M  V30 3943 C 374.296 -1.95008 -4.58123 0
M  V30 3944 C 372.999 -4.1114 -5.90217 0
M  V30 3945 C 375.025 -3.02758 -5.08027 0
M  V30 3946 C 374.387 -4.09531 -5.73118 0
M  V30 3947 H 370.486 -0.026923 -0.781536 0
M  V30 3948 H 373.07 -0.673901 -1.82665 0
M  V30 3949 H 371.241 0.929139 -3.77123 0
M  V30 3950 H 372.973 0.782445 -3.97064 0
M  V30 3951 H 369.728 -1.13696 -4.5975 0
M  V30 3952 H 370.152 -3.45416 -5.82252 0
M  V30 3953 H 374.794 -1.13766 -4.07207 0
M  V30 3954 H 372.512 -4.93181 -6.40155 0
M  V30 3955 H 376.098 -3.04315 -4.95866 0
M  V30 3956 H 374.978 -4.91534 -6.11035 0
M  V30 3957 N 372.481 1.55866 -0.233164 0
M  V30 3958 C 373.758 1.90471 0.444988 0
M  V30 3959 C 374.138 1.15209 1.7689 0
M  V30 3960 O 373.486 0.265119 2.26957 0
M  V30 3961 C 373.696 3.4333 0.626559 0
M  V30 3962 C 375.044 4.14319 0.92871 0
M  V30 3963 O 376.068 3.48993 0.712926 0
M  V30 3964 O 374.927 5.29846 1.33887 0
M  V30 3965 H 372.021 0.792347 0.236885 0
M  V30 3966 H 374.567 1.67437 -0.276211 0
M  V30 3967 H 373.339 3.90095 -0.306822 0
M  V30 3968 H 372.962 3.72181 1.39881 0
M  V30 3969 N 373.959 -0.0401083 1.57549 0
M  V30 3970 C 375.205 -0.734211 1.89043 0
M  V30 3971 C 375.538 -1.75591 0.829535 0
M  V30 3972 O 374.813 -1.93868 -0.156706 0
M  V30 3973 C 375.096 -1.41374 3.31188 0
M  V30 3974 C 374.949 -0.406299 4.47961 0
M  V30 3975 C 376.268 -2.35061 3.72068 0
M  V30 3976 H 373.387 -0.265447 0.687537 0
M  V30 3977 H 376.029 0.00294087 1.9 0
M  V30 3978 H 374.179 -2.04206 3.30503 0
M  V30 3979 H 375.851 0.219255 4.60779 0
M  V30 3980 H 374.094 0.275485 4.32924 0
M  V30 3981 H 374.765 -0.920022 5.44279 0
M  V30 3982 H 377.241 -1.82282 3.74049 0
M  V30 3983 H 376.117 -2.79593 4.72355 0
M  V30 3984 H 376.378 -3.21258 3.0372 0
M  V30 3985 N 375.437 -1.54477 -0.31217 0
M  V30 3986 C 376.387 -1.81037 -1.38598 0
M  V30 3987 C 377.371 -0.666941 -1.46426 0
M  V30 3988 O 378.563 -0.927269 -1.50767 0
M  V30 3989 C 375.692 -2.05127 -2.75277 0
M  V30 3990 C 374.778 -3.25624 -2.71716 0
M  V30 3991 N 375.169 -4.46428 -2.37773 0
M  V30 3992 C 373.467 -3.27427 -3.02833 0
M  V30 3993 C 374.168 -5.28406 -2.43232 0
M  V30 3994 N 373.144 -4.6586 -2.80135 0
M  V30 3995 H 376.946 -2.7201 -1.11301 0
M  V30 3996 H 374.46 -1.53826 -0.520705 0
M  V30 3997 H 376.457 -2.22299 -3.52688 0
M  V30 3998 H 375.117 -1.15416 -3.03495 0
M  V30 3999 H 376.128 -4.73227 -2.1042 0
M  V30 4000 H 372.805 -2.47786 -3.36018 0
M  V30 4001 H 374.195 -6.34903 -2.19882 0
M  V30 4002 N 376.915 0.57481 -1.46744 0
M  V30 4003 C 377.865 1.67838 -1.54319 0
M  V30 4004 C 378.849 1.55759 -0.40346 0
M  V30 4005 O 380.041 1.6454 -0.652347 0
M  V30 4006 C 377.17 3.06624 -1.5439 0
M  V30 4007 C 376.256 3.23971 -2.73685 0
M  V30 4008 N 376.647 3.11447 -3.9854 0
M  V30 4009 C 374.945 3.5493 -2.70075 0
M  V30 4010 C 375.646 3.31011 -4.78337 0
M  V30 4011 N 374.622 3.56533 -4.10348 0
M  V30 4012 H 378.424 1.56698 -2.48642 0
M  V30 4013 H 375.938 0.779071 -1.42493 0
M  V30 4014 H 377.935 3.85839 -1.57905 0
M  V30 4015 H 376.595 3.1889 -0.611493 0
M  V30 4016 H 377.606 2.89145 -4.29669 0
M  V30 4017 H 374.283 3.73832 -1.85893 0
M  V30 4018 H 375.673 3.26445 -5.87268 0
M  V30 4019 N 378.394 1.34581 0.820102 0
M  V30 4020 C 379.642 1.26845 1.57336 0
M  V30 4021 C 379.963 -0.160667 1.94337 0
M  V30 4022 O 379.233 -1.09396 1.6251 0
M  V30 4023 H 377.813 0.466514 0.583415 0
M  V30 4024 H 380.475 1.68526 0.979027 0
M  V30 4025 H 379.571 1.87513 2.4949 0
M  V30 4026 N 379.872 -1.04064 1.18357 0
M  V30 4027 C 380.804 -2.12114 0.868358 0
M  V30 4028 C 381.817 -1.62247 -0.134045 0
M  V30 4029 O 383.006 -1.78253 0.0937933 0
M  V30 4030 C 380.106 -3.37773 0.276132 0
M  V30 4031 C 379.279 -4.16874 1.3242 0
M  V30 4032 C 378.338 -5.20861 0.747662 0
M  V30 4033 O 377.364 -5.51141 1.42239 0
M  V30 4034 N 378.566 -5.78715 -0.454823 0
M  V30 4035 H 381.331 -2.39748 1.79836 0
M  V30 4036 H 378.892 -1.20258 1.08396 0
M  V30 4037 H 380.884 -4.04513 -0.123133 0
M  V30 4038 H 379.454 -3.07581 -0.557895 0
M  V30 4039 H 378.674 -3.45456 1.89878 0
M  V30 4040 H 379.962 -4.66516 2.03078 0
M  V30 4041 H 379.36 -5.56415 -1.02073 0
M  V30 4042 H 377.917 -6.46921 -0.79601 0
M  V30 4043 N 381.35 -0.985608 -1.22978 0
M  V30 4044 C 382.598 -0.656087 -1.91154 0
M  V30 4045 C 382.919 0.813561 -1.77218 0
M  V30 4046 O 382.189 1.58244 -1.1548 0
M  V30 4047 H 380.769 -0.239674 -0.707506 0
M  V30 4048 H 383.431 -1.25054 -1.49491 0
M  V30 4049 H 382.527 -0.912253 -2.9847 0
M  V30 4050 N 382.828 1.3818 -0.7579 0
M  V30 4051 C 384.056 2.04301 -0.326937 0
M  V30 4052 C 384.471 1.57163 1.0462 0
M  V30 4053 O 383.828 0.746626 1.66529 0
M  V30 4054 C 383.879 3.59846 -0.345363 0
M  V30 4055 O 383.6 4.05256 -1.66432 0
M  V30 4056 C 385.101 4.4319 0.098927 0
M  V30 4057 H 382.321 0.656443 -0.139012 0
M  V30 4058 H 384.865 1.76786 -1.02796 0
M  V30 4059 H 383.02 3.86182 0.306955 0
M  V30 4060 H 383.434 4.99709 -1.59345 0
M  V30 4061 H 384.908 5.51989 0.0348745 0
M  V30 4062 H 385.385 4.23947 1.14741 0
M  V30 4063 H 385.991 4.22051 -0.52468 0
M  V30 4064 N 384.306 0.507319 1.49211 0
M  V30 4065 C 385.238 -0.304532 2.27168 0
M  V30 4066 C 386.251 -0.924956 1.33972 0
M  V30 4067 O 387.44 -0.807227 1.59205 0
M  V30 4068 C 384.54 -1.44431 3.06583 0
M  V30 4069 C 383.713 -0.930026 4.27398 0
M  V30 4070 C 382.772 -1.94817 4.88807 0
M  V30 4071 O 381.798 -1.51418 5.4869 0
M  V30 4072 N 383 -3.279 4.79022 0
M  V30 4073 H 385.765 0.36395 2.97482 0
M  V30 4074 H 383.326 0.340249 1.58284 0
M  V30 4075 H 385.318 -2.12311 3.44537 0
M  V30 4076 H 383.888 -2.01684 2.38835 0
M  V30 4077 H 383.108 -0.0759244 3.94127 0
M  V30 4078 H 384.396 -0.564932 5.05654 0
M  V30 4079 H 383.794 -3.65843 4.3148 0
M  V30 4080 H 382.351 -3.91476 5.21142 0
M  V30 4081 N 385.784 -1.5574 0.241426 0
M  V30 4082 C 387.031 -1.9881 -0.384836 0
M  V30 4083 C 387.359 -1.12947 -1.58346 0
M  V30 4084 O 386.614 -0.178993 -1.9488 0
M  V30 4085 C 386.913 -3.47308 -0.843317 0
M  V30 4086 C 386.579 -4.50223 0.246946 0
M  V30 4087 C 385.241 -4.78088 0.546399 0
M  V30 4088 C 387.593 -5.11841 0.983282 0
M  V30 4089 C 384.921 -5.64846 1.58636 0
M  V30 4090 C 387.273 -5.99727 2.01272 0
M  V30 4091 C 385.937 -6.25927 2.31888 0
M  V30 4092 H 385.207 -0.727496 -0.140821 0
M  V30 4093 H 387.854 -1.8831 0.348106 0
M  V30 4094 H 386.159 -3.55112 -1.65537 0
M  V30 4095 H 387.856 -3.78017 -1.33806 0
M  V30 4096 H 384.446 -4.286 0.00340639 0
M  V30 4097 H 388.63 -4.90366 0.765182 0
M  V30 4098 H 383.886 -5.83403 1.82896 0
M  V30 4099 H 388.06 -6.46517 2.58823 0
M  V30 4100 H 385.687 -6.92949 3.12611 0
M  V30 4101 N 387.262 0.0317525 -1.57568 0
M  V30 4102 C 388.49 0.734949 -1.93407 0
M  V30 4103 C 388.905 1.69036 -0.84096 0
M  V30 4104 O 388.262 1.81582 0.182836 0
M  V30 4105 C 388.313 1.49432 -3.29169 0
M  V30 4106 O 388.034 0.577261 -4.3428 0
M  V30 4107 C 389.535 2.29492 -3.79273 0
M  V30 4108 H 386.755 0.206706 -0.638368 0
M  V30 4109 H 389.299 -0.00992046 -2.04498 0
M  V30 4110 H 387.454 2.1911 -3.19483 0
M  V30 4111 H 387.868 1.10952 -5.1263 0
M  V30 4112 H 389.342 2.78172 -4.76785 0
M  V30 4113 H 389.819 3.10794 -3.10328 0
M  V30 4114 H 390.425 1.64894 -3.92033 0
M  V30 4115 N 388.74 1.54641 0.303973 0
M  V30 4116 C 389.987 1.7378 1.03955 0
M  V30 4117 C 390.315 0.521986 1.87365 0
M  V30 4118 O 389.57 -0.496099 1.89308 0
M  V30 4119 C 389.869 2.97753 1.97681 0
M  V30 4120 C 389.535 4.31671 1.30271 0
M  V30 4121 C 388.197 4.68075 1.11619 0
M  V30 4122 C 390.549 5.147 0.82055 0
M  V30 4123 C 387.877 5.8509 0.434304 0
M  V30 4124 C 390.229 6.32416 0.152395 0
M  V30 4125 C 388.893 6.67484 -0.0461067 0
M  V30 4126 H 388.163 0.635908 0.380398 0
M  V30 4127 H 390.81 1.88896 0.314718 0
M  V30 4128 H 389.115 2.77406 2.76682 0
M  V30 4129 H 390.812 3.09756 2.54661 0
M  V30 4130 H 387.402 4.03041 1.45795 0
M  V30 4131 H 391.586 4.87077 0.952374 0
M  V30 4132 H 386.842 6.10806 0.269495 0
M  V30 4133 H 391.016 6.96023 -0.229126 0
M  V30 4134 H 388.643 7.58011 -0.576494 0
M  V30 4135 N 390.218 -0.567019 1.47046 0
M  V30 4136 C 391.495 -1.3276 1.43646 0
M  V30 4137 C 391.875 -2.1071 0.128186 0
M  V30 4138 O 391.223 -2.10441 -0.890326 0
M  V30 4139 C 391.433 -2.2404 2.67595 0
M  V30 4140 C 392.781 -2.85372 3.14401 0
M  V30 4141 O 393.805 -2.34346 2.68254 0
M  V30 4142 O 392.664 -3.78091 3.946 0
M  V30 4143 H 389.758 -0.597293 0.571988 0
M  V30 4144 H 392.304 -0.586735 1.59234 0
M  V30 4145 H 391.076 -1.65975 3.54356 0
M  V30 4146 H 390.699 -3.05439 2.54544 0
M  V30 4147 N 391.696 -1.35014 -0.812953 0
M  V30 4148 C 392.628 -1.23262 -1.93233 0
M  V30 4149 C 393.641 -0.157371 -1.62038 0
M  V30 4150 O 394.83 -0.410096 -1.73725 0
M  V30 4151 C 391.93 -0.87392 -3.27438 0
M  V30 4152 C 391.103 -2.04622 -3.86586 0
M  V30 4153 C 390.162 -1.66432 -4.99186 0
M  V30 4154 O 389.188 -2.38222 -5.16951 0
M  V30 4155 N 390.39 -0.584248 -5.77552 0
M  V30 4156 H 393.155 -2.19699 -2.03844 0
M  V30 4157 H 390.716 -1.281 -0.99005 0
M  V30 4158 H 392.708 -0.600039 -4.00227 0
M  V30 4159 H 391.278 0.00057392 -3.126 0
M  V30 4160 H 390.498 -2.48427 -3.06068 0
M  V30 4161 H 391.786 -2.82999 -4.22835 0
M  V30 4162 H 391.184 0.0123526 -5.65699 0
M  V30 4163 H 389.741 -0.37013 -6.50748 0
M  V30 4164 N 393.175 1.03435 -1.18907 0
M  V30 4165 C 394.452 1.73778 -0.89781 0
M  V30 4166 C 394.832 2.02458 0.597832 0
M  V30 4167 O 394.18 1.67482 1.55441 0
M  V30 4168 C 394.39 3.01845 -1.75187 0
M  V30 4169 C 395.738 3.7546 -1.9828 0
M  V30 4170 O 396.762 3.11759 -1.72293 0
M  V30 4171 O 395.621 4.89966 -2.42065 0
M  V30 4172 H 392.715 0.75651 -0.334098 0
M  V30 4173 H 395.261 1.09444 -1.29693 0
M  V30 4174 H 394.033 2.76836 -2.76545 0
M  V30 4175 H 393.656 3.73919 -1.35167 0
M  V30 4176 N 394.653 0.992116 1.22453 0
M  V30 4177 C 396.064 0.702776 1.72968 0
M  V30 4178 C 396.415 -0.780399 1.80012 0
M  V30 4179 O 395.54 -1.61007 1.44589 0
M  V30 4180 C 396.135 1.26903 3.14135 0
M  V30 4181 C 394.694 1.02909 3.62059 0
M  V30 4182 C 393.841 1.38969 2.39964 0
M  V30 4183 H 396.792 1.16457 1.07812 0
M  V30 4184 H 396.813 0.647223 3.74955 0
M  V30 4185 H 396.325 2.34851 3.08977 0
M  V30 4186 H 394.426 -0.0337979 3.72585 0
M  V30 4187 H 394.539 1.69191 4.48231 0
M  V30 4188 H 392.903 0.808279 2.41535 0
M  V30 4189 H 393.686 2.4792 2.37467 0
M  V30 4190 N 396.131 -1.37776 0.765217 0
M  V30 4191 C 397.356 -2.04651 0.336537 0
M  V30 4192 C 397.781 -1.57337 -1.03086 0
M  V30 4193 O 397.139 -0.730621 -1.65927 0
M  V30 4194 C 397.187 -3.58577 0.381468 0
M  V30 4195 O 396.291 -4.07706 -0.62042 0
M  V30 4196 H 395.632 -0.64756 0.146838 0
M  V30 4197 H 398.162 -1.76221 1.03959 0
M  V30 4198 H 398.172 -4.07314 0.236448 0
M  V30 4199 H 396.847 -3.9237 1.37907 0
M  V30 4200 H 395.424 -3.70306 -0.439056 0
M  V30 4201 N 397.609 -0.515225 -1.4894 0
M  V30 4202 C 398.855 0.0242508 -2.02785 0
M  V30 4203 C 399.188 1.35323 -1.39289 0
M  V30 4204 O 398.463 1.87041 -0.533469 0
M  V30 4205 C 398.746 0.16184 -3.59736 0
M  V30 4206 C 398.599 -1.19127 -4.33738 0
M  V30 4207 C 399.918 0.895719 -4.30888 0
M  V30 4208 H 397.037 0.00733914 -0.736963 0
M  V30 4209 H 399.679 -0.669395 -1.77818 0
M  V30 4210 H 397.829 0.752624 -3.8114 0
M  V30 4211 H 399.501 -1.82202 -4.23792 0
M  V30 4212 H 397.744 -1.77695 -3.95736 0
M  V30 4213 H 398.415 -1.04815 -5.41957 0
M  V30 4214 H 400.891 0.394528 -4.14225 0
M  V30 4215 H 399.767 0.960859 -5.40425 0
M  V30 4216 H 400.028 1.9427 -3.97129 0
M  V30 4217 N 399.087 1.5561 -0.249682 0
M  V30 4218 C 400.017 2.24477 0.642826 0
M  V30 4219 C 400.998 1.22601 1.17911 0
M  V30 4220 O 402.183 1.5126 1.21795 0
M  V30 4221 C 399.313 2.94638 1.83863 0
M  V30 4222 C 398.267 4.03227 1.435 0
M  V30 4223 C 397.593 4.60828 2.71186 0
M  V30 4224 C 398.893 5.18796 0.604002 0
M  V30 4225 H 400.587 2.99321 0.0685625 0
M  V30 4226 H 398.133 1.43965 0.0315363 0
M  V30 4227 H 400.086 3.41517 2.46868 0
M  V30 4228 H 398.81 2.17287 2.43832 0
M  V30 4229 H 397.469 3.57121 0.828275 0
M  V30 4230 H 397.117 3.80174 3.29358 0
M  V30 4231 H 396.817 5.34132 2.44901 0
M  V30 4232 H 398.341 5.10442 3.35084 0
M  V30 4233 H 399.755 5.61883 1.13842 0
M  V30 4234 H 398.152 5.98506 0.437097 0
M  V30 4235 H 399.222 4.83384 -0.383147 0
M  V30 4236 N 400.565 -0.0233959 1.57583 0
M  V30 4237 C 401.795 -0.723631 1.93513 0
M  V30 4238 C 402.203 -1.69115 0.848333 0
M  V30 4239 O 401.546 -1.82781 -0.183484 0
M  V30 4240 C 401.608 -1.53075 3.25282 0
M  V30 4241 C 401.272 -0.727388 4.51174 0
M  V30 4242 C 402.269 -0.0251924 5.19894 0
M  V30 4243 C 399.954 -0.680256 4.97672 0
M  V30 4244 C 401.948 0.713374 6.33395 0
M  V30 4245 C 399.635 0.0620523 6.11068 0
M  V30 4246 C 400.633 0.757622 6.78785 0
M  V30 4247 O 400.321 1.48787 7.90011 0
M  V30 4248 H 400.053 -0.208051 0.643188 0
M  V30 4249 H 402.607 0.0167489 2.05393 0
M  V30 4250 H 400.837 -2.31508 3.09744 0
M  V30 4251 H 402.526 -2.11413 3.46496 0
M  V30 4252 H 403.292 -0.0526003 4.84971 0
M  V30 4253 H 399.171 -1.21116 4.44805 0
M  V30 4254 H 402.715 1.25683 6.86185 0
M  V30 4255 H 398.612 0.0913634 6.45435 0
M  V30 4256 H 399.38 1.40213 8.06401 0
M  V30 4257 N 402.043 -1.548 -0.295768 0
M  V30 4258 C 403.29 -1.74329 -1.03032 0
M  V30 4259 C 403.618 -0.531915 -1.87085 0
M  V30 4260 O 402.873 0.486052 -1.89568 0
M  V30 4261 C 403.172 -2.98797 -1.961 0
M  V30 4262 C 402.838 -4.32356 -1.2798 0
M  V30 4263 C 401.5 -4.68661 -1.09135 0
M  V30 4264 C 403.852 -5.15128 -0.793243 0
M  V30 4265 C 401.18 -5.85312 -0.403269 0
M  V30 4266 C 403.532 -6.32488 -0.118854 0
M  V30 4267 C 402.196 -6.6745 0.0815043 0
M  V30 4268 H 401.466 -0.637916 -0.37702 0
M  V30 4269 H 404.113 -1.8906 -0.304696 0
M  V30 4270 H 402.418 -2.78869 -2.75207 0
M  V30 4271 H 404.115 -3.11102 -2.53015 0
M  V30 4272 H 400.705 -4.03808 -1.43655 0
M  V30 4273 H 404.889 -4.87575 -0.92653 0
M  V30 4274 H 400.145 -6.1094 -0.237098 0
M  V30 4275 H 404.319 -6.95892 0.266035 0
M  V30 4276 H 401.946 -7.57695 0.616685 0
M  V30 4277 N 403.521 0.559213 -1.47345 0
M  V30 4278 C 404.746 1.34676 -1.57725 0
M  V30 4279 C 405.171 1.86723 -0.227164 0
M  V30 4280 O 404.529 1.6286 0.796642 0
M  V30 4281 C 404.577 2.49399 -2.60447 0
M  V30 4282 O 403.681 3.51567 -2.15578 0
M  V30 4283 H 403.022 0.400115 -0.52991 0
M  V30 4284 H 405.552 0.676009 -1.93109 0
M  V30 4285 H 405.562 2.95996 -2.80803 0
M  V30 4286 H 404.237 2.10873 -3.58477 0
M  V30 4287 H 402.814 3.11289 -2.05313 0
M  V30 4288 N 404.999 1.35443 0.805782 0
M  V30 4289 C 406.248 1.28097 1.55801 0
M  V30 4290 C 406.561 -0.142428 1.95081 0
M  V30 4291 O 407.767 -0.33817 2.69386 0
M  V30 4292 C 406.223 2.24653 2.81174 0
M  V30 4293 C 405.831 3.72342 2.49129 0
M  V30 4294 C 407.575 2.2625 3.59181 0
M  V30 4295 C 405.482 4.60719 3.70799 0
M  V30 4296 H 404.412 0.475937 0.584808 0
M  V30 4297 H 407.063 1.60712 0.885661 0
M  V30 4298 H 405.445 1.85011 3.50124 0
M  V30 4299 H 406.619 4.20624 1.88181 0
M  V30 4300 H 404.934 3.73361 1.84366 0
M  V30 4301 H 407.531 2.89495 4.49552 0
M  V30 4302 H 407.874 1.26647 3.96568 0
M  V30 4303 H 408.407 2.64426 2.97193 0
M  V30 4304 H 405.146 5.61324 3.3852 0
M  V30 4305 H 404.666 4.17163 4.3097 0
M  V30 4306 H 406.345 4.76182 4.38018 0
M  V30 4307 N 406.477 -1.02803 1.19454 0
M  V30 4308 C 407.427 -2.0945 0.900827 0
M  V30 4309 C 408.411 -1.60335 -0.134715 0
M  V30 4310 O 409.603 -1.76857 0.0710924 0
M  V30 4311 C 406.732 -3.4044 0.442229 0
M  V30 4312 C 405.818 -3.96286 1.51056 0
M  V30 4313 N 406.209 -4.25785 2.73021 0
M  V30 4314 C 404.507 -4.24307 1.37404 0
M  V30 4315 C 405.208 -4.70654 3.41848 0
M  V30 4316 N 404.184 -4.72238 2.69243 0
M  V30 4317 H 407.986 -2.3015 1.82779 0
M  V30 4318 H 405.5 -1.20672 1.08683 0
M  V30 4319 H 407.497 -4.16354 0.21326 0
M  V30 4320 H 406.157 -3.21159 -0.478238 0
M  V30 4321 H 407.168 -4.15041 3.09776 0
M  V30 4322 H 403.845 -4.14285 0.517103 0
M  V30 4323 H 405.235 -5.02392 4.46152 0
M  V30 4324 N 407.956 -0.998596 -1.21925 0
M  V30 4325 C 409.372 -0.710303 -1.42923 0
M  V30 4326 C 409.572 0.716933 -1.88314 0
M  V30 4327 O 408.628 1.48712 -2.04062 0
M  V30 4328 C 409.941 -1.72072 -2.466 0
M  V30 4329 C 411.489 -1.73681 -2.60392 0
M  V30 4330 C 411.964 -2.73601 -3.67296 0
M  V30 4331 N 413.455 -2.7223 -3.7476 0
M  V30 4332 C 414.19 -3.46206 -4.57087 0
M  V30 4333 N 413.686 -4.29802 -5.43362 0
M  V30 4334 N 415.479 -3.34886 -4.51451 0
M  V30 4335 H 407.63 -1.92028 -0.9077 0
M  V30 4336 H 409.893 -0.828487 -0.460775 0
M  V30 4337 H 409.599 -2.74231 -2.20206 0
M  V30 4338 H 409.473 -1.51818 -3.45299 0
M  V30 4339 H 411.86 -0.722173 -2.86127 0
M  V30 4340 H 411.941 -1.98005 -1.61949 0
M  V30 4341 H 411.585 -3.75217 -3.42307 0
M  V30 4342 H 411.515 -2.46545 -4.65321 0
M  V30 4343 H 414.006 -2.11576 -3.1312 0
M  V30 4344 H 414.319 -4.83061 -6.03218 0
M  V30 4345 H 412.664 -4.33887 -5.42925 0
M  V30 4346 H 415.855 -2.69015 -3.83078 0
M  V30 4347 H 416.028 -3.92796 -5.15379 0
M  V30 4348 N 409.434 1.37368 -0.772513 0
M  V30 4349 C 410.664 2.03647 -0.348082 0
M  V30 4350 C 411.072 1.58392 1.03482 0
M  V30 4351 O 410.415 0.760921 1.672 0
M  V30 4352 C 410.477 3.58131 -0.313404 0
M  V30 4353 C 410.141 4.2652 -1.64102 0
M  V30 4354 C 411.138 4.50587 -2.5936 0
M  V30 4355 C 408.823 4.64335 -1.91567 0
M  V30 4356 C 410.817 5.11526 -3.80289 0
M  V30 4357 C 408.504 5.24996 -3.12766 0
M  V30 4358 C 409.502 5.48529 -4.06946 0
M  V30 4359 O 409.19 6.07921 -5.26011 0
M  V30 4360 H 408.922 0.660538 -0.143753 0
M  V30 4361 H 411.476 1.76669 -1.04772 0
M  V30 4362 H 409.706 3.84159 0.442617 0
M  V30 4363 H 411.395 4.05813 0.0840613 0
M  V30 4364 H 412.161 4.21784 -2.39423 0
M  V30 4365 H 408.04 4.45353 -1.19088 0
M  V30 4366 H 411.584 5.29811 -4.53813 0
M  V30 4367 H 407.481 5.53223 -3.32588 0
M  V30 4368 H 408.249 6.26398 -5.26847 0
M  V30 4369 N 410.912 0.523116 1.48665 0
M  V30 4370 C 411.822 -0.247406 2.33292 0
M  V30 4371 C 412.838 -0.945769 1.46052 0
M  V30 4372 O 414.014 -0.922253 1.79043 0
M  V30 4373 C 411.079 -1.28487 3.22012 0
M  V30 4374 C 410.14 -0.597592 4.2512 0
M  V30 4375 C 409.373 -1.58563 5.09601 0
M  V30 4376 O 409.596 -2.81763 4.95949 0
M  V30 4377 O 408.53 -1.12879 5.91221 0
M  V30 4378 H 412.356 0.445869 3.00409 0
M  V30 4379 H 409.941 0.284128 1.46673 0
M  V30 4380 H 411.823 -1.88459 3.7691 0
M  V30 4381 H 410.498 -1.96068 2.57564 0
M  V30 4382 H 409.405 0.0424407 3.74076 0
M  V30 4383 H 410.738 0.0361517 4.92187 0
M  V30 4384 N 412.39 -1.55475 0.257931 0
M  V30 4385 C 413.322 -2.19192 -0.669881 0
M  V30 4386 C 414.335 -1.17148 -1.1305 0
M  V30 4387 O 415.524 -1.43959 -1.05537 0
M  V30 4388 C 412.624 -2.79016 -1.92363 0
M  V30 4389 C 411.797 -4.06586 -1.61265 0
M  V30 4390 C 410.856 -4.50622 -2.7171 0
M  V30 4391 O 409.882 -5.16765 -2.38627 0
M  V30 4392 N 411.084 -4.19325 -4.01431 0
M  V30 4393 H 413.849 -2.99441 -0.124635 0
M  V30 4394 H 411.41 -1.6171 0.0783311 0
M  V30 4395 H 413.402 -3.05427 -2.65511 0
M  V30 4396 H 411.972 -2.0286 -2.37837 0
M  V30 4397 H 411.192 -3.87646 -0.715811 0
M  V30 4398 H 412.48 -4.89737 -1.37967 0
M  V30 4399 H 411.878 -3.66247 -4.31138 0
M  V30 4400 H 410.435 -4.50547 -4.7101 0
M  V30 4401 N 413.868 0.0150385 -1.57593 0
M  V30 4402 C 415.116 0.701613 -1.8953 0
M  V30 4403 C 415.437 1.75139 -0.857396 0
M  V30 4404 O 414.707 1.95607 0.107194 0
M  V30 4405 H 413.287 0.26213 -0.699498 0
M  V30 4406 H 415.949 -0.0223304 -1.94887 0
M  V30 4407 H 415.045 1.18236 -2.88837 0
M  V30 4408 N 415.346 1.54954 0.287554 0
M  V30 4409 C 416.762 1.46469 0.633964 0
M  V30 4410 C 416.962 0.666865 1.90145 0
M  V30 4411 O 416.018 0.179906 2.51858 0
M  V30 4412 C 417.331 2.90556 0.774454 0
M  V30 4413 C 418.879 3.00681 0.869462 0
M  V30 4414 C 419.354 4.45993 1.04184 0
M  V30 4415 N 420.845 4.4976 1.10772 0
M  V30 4416 C 421.58 5.59393 1.25964 0
M  V30 4417 N 421.076 6.78923 1.37968 0
M  V30 4418 N 422.869 5.47107 1.28959 0
M  V30 4419 H 415.02 2.05288 -0.545041 0
M  V30 4420 H 417.283 0.930305 -0.182308 0
M  V30 4421 H 416.989 3.51594 -0.086207 0
M  V30 4422 H 416.863 3.38743 1.6593 0
M  V30 4423 H 419.25 2.39749 1.7206 0
M  V30 4424 H 419.331 2.55769 -0.0396831 0
M  V30 4425 H 418.975 5.07524 0.195422 0
M  V30 4426 H 418.905 4.88548 1.96542 0
M  V30 4427 H 421.396 3.63651 1.02794 0
M  V30 4428 H 421.709 7.58231 1.49353 0
M  V30 4429 H 420.054 6.81763 1.34999 0
M  V30 4430 H 423.245 4.52668 1.19202 0
M  V30 4431 H 423.418 6.32595 1.40455 0
M  V30 4432 N 416.824 -0.551391 1.4764 0
M  V30 4433 C 418.071 -1.3083 1.54563 0
M  V30 4434 C 418.399 -1.93359 0.210361 0
M  V30 4435 O 417.654 -1.78721 -0.797332 0
M  V30 4436 C 417.953 -2.43469 2.61644 0
M  V30 4437 C 417.619 -1.98732 4.04742 0
M  V30 4438 C 416.281 -1.86248 4.43695 0
M  V30 4439 C 418.633 -1.64659 4.94507 0
M  V30 4440 C 415.961 -1.37995 5.70241 0
M  V30 4441 C 418.313 -1.17875 6.21521 0
M  V30 4442 C 416.977 -1.03992 6.5935 0
M  V30 4443 H 416.247 -0.478741 0.565587 0
M  V30 4444 H 418.894 -0.617697 1.81264 0
M  V30 4445 H 417.199 -3.18109 2.28722 0
M  V30 4446 H 418.896 -3.01642 2.64222 0
M  V30 4447 H 415.486 -2.09393 3.73968 0
M  V30 4448 H 419.67 -1.73174 4.65107 0
M  V30 4449 H 414.926 -1.25915 5.98294 0
M  V30 4450 H 419.1 -0.905739 6.90485 0
M  V30 4451 H 416.727 -0.663794 7.57296 0
M  V30 4452 N 418.302 -1.35869 -0.798587 0
M  V30 4453 C 419.548 -1.30788 -1.55775 0
M  V30 4454 C 419.903 0.114558 -1.92059 0
M  V30 4455 O 419.196 1.06691 -1.59147 0
M  V30 4456 C 419.39 -2.1556 -2.85077 0
M  V30 4457 C 419.219 -3.65904 -2.61428 0
M  V30 4458 C 417.989 -4.35112 -2.56915 0
M  V30 4459 C 420.187 -4.59375 -2.31255 0
M  V30 4460 N 418.169 -5.71155 -2.25068 0
M  V30 4461 C 419.54 -5.83598 -2.09316 0
M  V30 4462 C 421.595 -4.48035 -2.17185 0
M  V30 4463 C 420.298 -6.97755 -1.74731 0
M  V30 4464 C 422.324 -5.62049 -1.83998 0
M  V30 4465 C 421.686 -6.85305 -1.629 0
M  V30 4466 H 417.785 -0.533855 -0.571422 0
M  V30 4467 H 420.369 -1.7083 -0.934079 0
M  V30 4468 H 418.54 -1.77776 -3.45326 0
M  V30 4469 H 420.272 -2.01938 -3.50718 0
M  V30 4470 H 417.027 -3.87812 -2.71843 0
M  V30 4471 H 417.451 -6.42978 -2.11916 0
M  V30 4472 H 422.093 -3.53338 -2.3219 0
M  V30 4473 H 419.811 -7.92411 -1.58464 0
M  V30 4474 H 423.397 -5.55232 -1.73808 0
M  V30 4475 H 422.277 -7.72034 -1.37596 0
M  V30 4476 N 419.78 1.02168 -1.19998 0
M  V30 4477 C 421.191 1.57135 -1.00825 0
M  V30 4478 C 421.542 1.91276 0.436818 0
M  V30 4479 O 420.667 1.71679 1.3174 0
M  V30 4480 C 421.262 2.85514 -1.82393 0
M  V30 4481 C 419.821 3.37027 -1.67601 0
M  V30 4482 C 418.968 2.10388 -1.80644 0
M  V30 4483 H 421.919 0.846106 -1.34264 0
M  V30 4484 H 421.94 3.56711 -1.32429 0
M  V30 4485 H 421.452 2.60634 -2.87561 0
M  V30 4486 H 419.553 3.66878 -0.650485 0
M  V30 4487 H 419.666 4.09572 -2.4857 0
M  V30 4488 H 418.03 2.22601 -1.23778 0
M  V30 4489 H 418.813 1.8794 -2.87286 0
M  V30 4490 N 421.258 1.00505 1.21394 0
M  V30 4491 C 422.208 0.536503 2.21598 0
M  V30 4492 C 423.192 -0.401914 1.55799 0
M  V30 4493 O 424.384 -0.226757 1.75541 0
M  V30 4494 C 421.513 -0.135446 3.43033 0
M  V30 4495 C 420.599 0.823992 4.16018 0
M  V30 4496 N 420.99 1.97683 4.6557 0
M  V30 4497 C 419.288 0.642387 4.4135 0
M  V30 4498 C 419.989 2.58003 5.21354 0
M  V30 4499 N 418.965 1.86162 5.1073 0
M  V30 4500 H 422.767 1.41557 2.57563 0
M  V30 4501 H 420.281 0.868878 1.37202 0
M  V30 4502 H 422.278 -0.488584 4.14027 0
M  V30 4503 H 420.938 -1.01049 3.08576 0
M  V30 4504 H 421.949 2.3572 4.61147 0
M  V30 4505 H 418.626 -0.185578 4.17087 0
M  V30 4506 H 420.016 3.555 5.70149 0
M  V30 4507 N 422.737 -1.36956 0.779787 0
M  V30 4508 C 423.667 -2.32761 0.185651 0
M  V30 4509 C 424.648 -1.56177 -0.673989 0
M  V30 4510 O 425.833 -1.84378 -0.609797 0
M  V30 4511 C 422.963 -3.40418 -0.687964 0
M  V30 4512 C 421.917 -4.27941 0.0710102 0
M  V30 4513 C 421.243 -5.26681 -0.922573 0
M  V30 4514 C 422.543 -5.07006 1.25467 0
M  V30 4515 H 424.237 -2.82698 0.986008 0
M  V30 4516 H 421.783 -1.3592 0.475592 0
M  V30 4517 H 423.736 -4.06423 -1.11348 0
M  V30 4518 H 422.46 -2.89025 -1.52093 0
M  V30 4519 H 421.119 -3.63478 0.47739 0
M  V30 4520 H 420.767 -4.71565 -1.7503 0
M  V30 4521 H 420.467 -5.86103 -0.419237 0
M  V30 4522 H 421.991 -5.9556 -1.34686 0
M  V30 4523 H 423.405 -5.66105 0.905401 0
M  V30 4524 H 421.802 -5.75793 1.69063 0
M  V30 4525 H 422.872 -4.3921 2.05481 0
M  V30 4526 N 424.215 -0.530993 -1.48385 0
M  V30 4527 C 425.162 0.231223 -2.29639 0
M  V30 4528 C 426.132 0.932864 -1.37429 0
M  V30 4529 O 427.317 0.933692 -1.66394 0
M  V30 4530 C 424.457 1.27155 -3.2082 0
M  V30 4531 C 423.57 0.578655 -4.28107 0
M  V30 4532 C 422.705 1.602 -5.06467 0
M  V30 4533 C 421.744 0.892625 -6.05556 0
M  V30 4534 N 420.881 1.86157 -6.76971 0
M  V30 4535 H 425.721 -0.467848 -2.94305 0
M  V30 4536 H 423.258 -0.242556 -1.45086 0
M  V30 4537 H 425.216 1.88703 -3.72085 0
M  V30 4538 H 423.846 1.939 -2.58075 0
M  V30 4539 H 422.898 -0.150782 -3.80101 0
M  V30 4540 H 424.21 0.0217065 -4.98795 0
M  V30 4541 H 423.364 2.29173 -5.61751 0
M  V30 4542 H 422.103 2.19285 -4.35621 0
M  V30 4543 H 421.108 0.188829 -5.49476 0
M  V30 4544 H 422.333 0.307878 -6.78402 0
M  V30 4545 H 420.279 2.44147 -6.08875 0
M  V30 4546 H 420.196 1.35608 -7.43738 0
M  V30 4547 H 421.464 2.54325 -7.36844 0
M  V30 4548 N 425.693 1.55336 -0.266172 0
M  V30 4549 C 426.656 2.20878 0.612001 0
M  V30 4550 C 427.656 1.18388 1.08816 0
M  V30 4551 O 428.846 1.4335 0.989774 0
M  V30 4552 C 425.978 2.86765 1.84332 0
M  V30 4553 H 427.171 2.99873 0.0398718 0
M  V30 4554 H 424.724 1.56291 -0.0167309 0
M  V30 4555 H 425.459 2.11759 2.45619 0
M  V30 4556 H 425.244 3.61862 1.5099 0
M  V30 4557 H 426.734 3.36867 2.46801 0
M  V30 4558 N 427.171 -0.0066808 1.57599 0
M  V30 4559 C 428.396 -0.707738 1.94951 0
M  V30 4560 C 428.821 -1.66882 0.867868 0
M  V30 4561 O 428.179 -1.80457 -0.17458 0
M  V30 4562 C 428.227 -1.42162 3.31394 0
M  V30 4563 O 427.331 -2.53578 3.25226 0
M  V30 4564 H 426.672 -0.188752 0.636607 0
M  V30 4565 H 429.202 0.0445193 2.04552 0
M  V30 4566 H 429.212 -1.78655 3.66806 0
M  V30 4567 H 427.887 -0.716903 4.09675 0
M  V30 4568 H 426.464 -2.19463 3.01481 0
M  V30 4569 N 428.649 -1.55105 -0.279332 0
M  V30 4570 C 429.597 -1.88333 -1.36505 0
M  V30 4571 C 430.591 -0.759043 -1.51443 0
M  V30 4572 O 431.797 -0.943312 -1.53302 0
M  V30 4573 H 428.172 -0.59766 -0.456406 0
M  V30 4574 H 430.143 -2.79041 -1.05728 0
M  V30 4575 C 428.892 -2.16628 -2.7197 0
M  V30 4576 H 428.215 -3.02624 -2.61264 0
M  V30 4577 H 429.655 -2.43803 -3.46895 0
M  V30 4578 C 428.114 -0.971807 -3.22579 0
M  V30 4579 O 428.644 -0.203228 -4.01186 0
M  V30 4580 N 426.85 -0.771238 -2.80179 0
M  V30 4581 H 426.397 -1.39792 -2.1637 0
M  V30 4582 H 426.355 0.0263667 -3.14389 0
M  V30 4583 N 430.127 0.543554 -1.4793 0
M  V30 4584 C 431.373 1.29961 -1.56466 0
M  V30 4585 C 431.728 1.91024 -0.229696 0
M  V30 4586 O 431.021 1.75619 0.766072 0
M  V30 4587 C 431.215 2.42078 -2.62932 0
M  V30 4588 C 431.044 1.92003 -4.06651 0
M  V30 4589 C 429.814 1.75223 -4.73946 0
M  V30 4590 C 432.012 1.45648 -4.93245 0
M  V30 4591 N 429.994 1.19632 -6.02131 0
M  V30 4592 C 431.365 1.01914 -6.11566 0
M  V30 4593 C 433.42 1.33826 -4.79578 0
M  V30 4594 C 432.123 0.475301 -7.17728 0
M  V30 4595 C 434.149 0.808427 -5.85848 0
M  V30 4596 C 433.511 0.381081 -7.03368 0
M  V30 4597 H 429.61 0.467086 -0.62718 0
M  V30 4598 H 432.194 0.614543 -1.84747 0
M  V30 4599 H 430.365 3.08098 -2.36496 0
M  V30 4600 H 432.097 3.09096 -2.61231 0
M  V30 4601 H 428.852 1.98345 -4.30065 0
M  V30 4602 H 429.276 0.93885 -6.70458 0
M  V30 4603 H 433.918 1.65474 -3.89074 0
M  V30 4604 H 431.636 0.146472 -8.07967 0
M  V30 4605 H 435.222 0.720315 -5.77324 0
M  V30 4606 H 434.102 -0.0225344 -7.84197 0
M  V30 4607 N 431.605 1.3629 0.791371 0
M  V30 4608 C 432.83 1.33726 1.58531 0
M  V30 4609 C 433.255 -0.0794933 1.87932 0
M  V30 4610 O 432.613 -1.05087 1.47738 0
M  V30 4611 C 432.661 2.16425 2.88431 0
M  V30 4612 O 431.765 1.5554 3.81944 0
M  V30 4613 H 431.106 0.457793 0.480959 0
M  V30 4614 H 433.636 1.79547 0.981031 0
M  V30 4615 H 433.646 2.28933 3.37718 0
M  V30 4616 H 432.321 3.19415 2.66359 0
M  V30 4617 H 430.898 1.51961 3.40532 0
M  V30 4618 N 433.083 -1.0153 1.20538 0
M  V30 4619 C 434.311 -1.78746 1.04199 0
M  V30 4620 C 434.726 -1.84323 -0.408733 0
M  V30 4621 O 434.083 -1.29714 -1.28377 0
M  V30 4622 C 434.134 -3.23152 1.62035 0
M  V30 4623 O 433.855 -3.17918 3.0143 0
M  V30 4624 C 435.356 -4.16911 1.50666 0
M  V30 4625 H 432.576 -0.56208 0.366479 0
M  V30 4626 H 435.12 -1.27794 1.59653 0
M  V30 4627 H 433.275 -3.71248 1.10697 0
M  V30 4628 H 433.689 -4.08567 3.28897 0
M  V30 4629 H 435.163 -5.16072 1.95892 0
M  V30 4630 H 435.64 -4.36791 0.459363 0
M  V30 4631 H 436.246 -3.74698 2.01201 0
M  V30 4632 N 434.561 -1.01147 -1.20859 0
M  V30 4633 C 435.789 -0.716911 -1.94082 0
M  V30 4634 C 436.204 0.721568 -1.74467 0
M  V30 4635 O 435.561 1.48889 -1.05539 0
M  V30 4636 C 435.612 -1.03662 -3.46318 0
M  V30 4637 O 435.333 -2.4186 -3.65288 0
M  V30 4638 C 436.834 -0.762386 -4.36695 0
M  V30 4639 H 434.054 -0.26367 -0.617024 0
M  V30 4640 H 436.598 -1.35127 -1.53496 0
M  V30 4641 H 434.753 -0.447757 -3.84804 0
M  V30 4642 H 435.167 -2.53224 -4.59323 0
M  V30 4643 H 436.641 -1.03621 -5.42187 0
M  V30 4644 H 437.118 0.303514 -4.3815 0
M  V30 4645 H 437.724 -1.33316 -4.03865 0
M  V30 4646 N 436.039 1.36541 -0.78704 0
M  V30 4647 C 437.287 1.98911 -0.357633 0
M  V30 4648 C 437.608 1.62778 1.07371 0
M  V30 4649 O 436.878 0.900612 1.73971 0
M  V30 4650 H 435.458 0.735734 -0.129246 0
M  V30 4651 H 438.12 1.66776 -1.00855 0
M  V30 4652 H 437.216 3.08874 -0.447549 0
M  V30 4653 N 437.518 0.538854 1.48102 0
M  V30 4654 C 438.765 0.0080018 2.02498 0
M  V30 4655 C 439.093 -1.33437 1.41509 0
M  V30 4656 O 438.348 -1.87709 0.553507 0
M  V30 4657 C 438.647 -0.153808 3.57069 0
M  V30 4658 C 438.313 1.11533 4.36888 0
M  V30 4659 C 436.975 1.46314 4.58417 0
M  V30 4660 C 439.327 1.95718 4.83057 0
M  V30 4661 C 436.655 2.6516 5.23361 0
M  V30 4662 C 439.007 3.13751 5.49312 0
M  V30 4663 C 437.671 3.48866 5.69077 0
M  V30 4664 H 436.941 0.00292807 0.740994 0
M  V30 4665 H 439.588 0.706668 1.77984 0
M  V30 4666 H 437.893 -0.935309 3.80472 0
M  V30 4667 H 439.59 -0.579607 3.96789 0
M  V30 4668 H 436.18 0.834484 4.20398 0
M  V30 4669 H 440.364 1.70158 4.66219 0
M  V30 4670 H 435.62 2.92558 5.36861 0
M  V30 4671 H 439.794 3.79282 5.84053 0
M  V30 4672 H 437.421 4.41054 6.19173 0
M  V30 4673 N 438.996 -1.55193 0.274407 0
M  V30 4674 C 440.244 -1.99187 -0.341902 0
M  V30 4675 C 440.565 -1.16422 -1.56431 0
M  V30 4676 O 439.835 -0.253573 -1.94252 0
M  V30 4677 H 438.415 -0.735721 -0.129317 0
M  V30 4678 H 441.077 -1.91168 0.379578 0
M  V30 4679 H 440.173 -3.05629 -0.632253 0
M  V30 4680 N 440.474 -0.00167713 -1.576 0
M  V30 4681 C 441.406 1.0174 -2.05382 0
M  V30 4682 C 442.419 1.30595 -0.972052 0
M  V30 4683 O 443.608 1.27542 -1.24882 0
M  V30 4684 C 440.708 2.35174 -2.44022 0
M  V30 4685 C 439.881 2.25234 -3.74951 0
M  V30 4686 C 438.94 3.4137 -4.00441 0
M  V30 4687 O 437.966 3.19483 -4.71083 0
M  V30 4688 N 439.168 4.64275 -3.48467 0
M  V30 4689 H 441.933 0.609902 -2.93428 0
M  V30 4690 H 439.494 0.185672 -1.60832 0
M  V30 4691 H 441.486 3.11643 -2.58187 0
M  V30 4692 H 440.056 2.67659 -1.61485 0
M  V30 4693 H 439.276 1.33664 -3.70847 0
M  V30 4694 H 440.564 2.15767 -4.60784 0
M  V30 4695 H 439.962 4.84955 -2.91264 0
M  V30 4696 H 438.519 5.38005 -3.67959 0
M  V30 4697 N 441.952 1.55251 0.271103 0
M  V30 4698 C 443.2 1.75599 1.00047 0
M  V30 4699 C 443.521 0.561188 1.8675 0
M  V30 4700 O 442.791 -0.423846 1.9126 0
M  V30 4701 H 441.371 0.647562 0.372387 0
M  V30 4702 H 444.033 1.92656 0.294876 0
M  V30 4703 H 443.129 2.65766 1.6363 0
M  V30 4704 N 443.43 -0.535701 1.48216 0
M  V30 4705 C 444.362 -1.65662 1.58394 0
M  V30 4706 C 445.375 -1.5591 0.468607 0
M  V30 4707 O 446.564 -1.62475 0.7392 0
M  V30 4708 C 443.664 -3.04276 1.4923 0
M  V30 4709 C 442.837 -3.39567 2.75705 0
M  V30 4710 C 441.896 -4.57436 2.60075 0
M  V30 4711 O 440.922 -4.60942 3.33948 0
M  V30 4712 N 442.124 -5.55259 1.69315 0
M  V30 4713 H 444.889 -1.5737 2.55058 0
M  V30 4714 H 442.45 -0.722845 1.44867 0
M  V30 4715 H 444.442 -3.80994 1.36477 0
M  V30 4716 H 443.012 -3.06677 0.605632 0
M  V30 4717 H 442.232 -2.52083 3.03064 0
M  V30 4718 H 443.52 -3.59929 3.59623 0
M  V30 4719 H 442.918 -5.552 1.08489 0
M  V30 4720 H 441.475 -6.31218 1.62504 0
M  V30 4721 N 444.908 -1.36708 -0.784132 0
M  V30 4722 C 446.156 -1.30972 -1.53918 0
M  V30 4723 C 446.477 0.109086 -1.94695 0
M  V30 4724 O 445.747 1.05048 -1.65353 0
M  V30 4725 H 444.327 -0.481819 -0.570841 0
M  V30 4726 H 446.989 -1.71063 -0.934002 0
M  V30 4727 H 446.085 -1.94061 -2.44431 0
M  V30 4728 N 446.386 1.0089 -1.21074 0
M  V30 4729 C 447.616 1.77933 -1.04993 0
M  V30 4730 C 448.024 1.84847 0.403495 0
M  V30 4731 O 447.367 1.30606 1.29181 0
M  V30 4732 C 447.429 3.23541 -1.56722 0
M  V30 4733 C 447.093 3.40214 -3.05129 0
M  V30 4734 C 448.09 3.2881 -4.02716 0
M  V30 4735 C 445.775 3.65781 -3.44252 0
M  V30 4736 C 447.769 3.42732 -5.37414 0
M  V30 4737 C 445.456 3.79346 -4.79103 0
M  V30 4738 C 446.454 3.67827 -5.75493 0
M  V30 4739 O 446.142 3.80965 -7.07899 0
M  V30 4740 H 445.874 0.566157 -0.369381 0
M  V30 4741 H 448.428 1.27826 -1.60779 0
M  V30 4742 H 446.658 3.74766 -0.953285 0
M  V30 4743 H 448.347 3.82245 -1.36543 0
M  V30 4744 H 449.113 3.08986 -3.73835 0
M  V30 4745 H 444.992 3.73831 -2.69762 0
M  V30 4746 H 448.536 3.33658 -6.12632 0
M  V30 4747 H 444.433 3.98672 -5.07672 0
M  V30 4748 H 445.201 3.97937 -7.15254 0
M  V30 4749 N 447.864 1.01787 1.20321 0
M  V30 4750 C 449.092 0.727194 1.937 0
M  V30 4751 C 449.507 -0.712305 1.74848 0
M  V30 4752 O 448.864 -1.48327 1.06327 0
M  V30 4753 C 448.915 1.05497 3.45764 0
M  V30 4754 O 448.636 2.43794 3.64 0
M  V30 4755 C 450.137 0.785534 4.36285 0
M  V30 4756 H 447.357 0.266939 0.615617 0
M  V30 4757 H 449.901 1.35939 1.52777 0
M  V30 4758 H 448.056 0.468158 3.84561 0
M  V30 4759 H 448.47 2.55656 4.57974 0
M  V30 4760 H 449.944 1.06495 5.4163 0
M  V30 4761 H 450.421 -0.280273 4.38305 0
M  V30 4762 H 451.027 1.35456 4.03152 0
M  V30 4763 N 449.342 -1.36122 0.79427 0
M  V30 4764 C 450.591 -1.98361 0.365464 0
M  V30 4765 C 450.904 -1.6374 -1.06997 0
M  V30 4766 O 452.11 -2.19251 -1.60129 0
M  V30 4767 C 450.566 -3.54821 0.602496 0
M  V30 4768 C 450.174 -3.98362 2.04967 0
M  V30 4769 C 451.918 -4.2383 0.238437 0
M  V30 4770 C 449.825 -5.47619 2.2331 0
M  V30 4771 H 448.755 -0.742193 0.13291 0
M  V30 4772 H 451.406 -1.55354 0.976589 0
M  V30 4773 H 449.788 -3.95922 -0.078409 0
M  V30 4774 H 450.962 -3.68447 2.76737 0
M  V30 4775 H 449.277 -3.42206 2.37243 0
M  V30 4776 H 451.874 -5.33529 0.353705 0
M  V30 4777 H 452.217 -4.08264 -0.814006 0
M  V30 4778 H 452.75 -3.88108 0.872769 0
M  V30 4779 H 449.489 -5.68138 3.26955 0
M  V30 4780 H 449.009 -5.79145 1.5605 0
M  V30 4781 H 450.688 -6.13911 2.0426 0
M  V30 4782 N 450.82 -0.546701 -1.47814 0
M  V30 4783 C 451.768 0.220048 -2.31557 0
M  V30 4784 C 452.762 0.919472 -1.42275 0
M  V30 4785 O 453.968 0.841953 -1.59095 0
M  V30 4786 H 450.343 0.0898334 -0.746615 0
M  V30 4787 H 452.314 -0.505589 -2.94086 0
M  V30 4788 C 451.063 1.24353 -3.24702 0
M  V30 4789 H 450.386 0.714758 -3.93359 0
M  V30 4790 H 451.826 1.75112 -3.8615 0
M  V30 4791 C 450.285 2.28593 -2.47481 0
M  V30 4792 O 450.815 3.35334 -2.21165 0
M  V30 4793 N 449.021 2.02244 -2.08676 0
M  V30 4794 H 448.568 1.15455 -2.30278 0
M  V30 4795 H 448.526 2.72207 -1.57323 0
M  V30 4796 N 452.299 1.55045 -0.282633 0
M  V30 4797 C 453.545 2.00056 0.332481 0
M  V30 4798 C 453.878 1.1708 1.54939 0
M  V30 4799 O 453.153 0.2427 1.9298 0
M  V30 4800 C 453.436 3.53086 0.70725 0
M  V30 4801 C 453.289 4.46813 -0.517521 0
M  V30 4802 C 454.608 4.12245 1.54084 0
M  V30 4803 H 451.727 0.727268 0.119373 0
M  V30 4804 H 454.369 1.85932 -0.391076 0
M  V30 4805 H 452.519 3.65253 1.32372 0
M  V30 4806 H 454.191 4.46579 -1.15607 0
M  V30 4807 H 452.434 4.18163 -1.1542 0
M  V30 4808 H 453.105 5.51595 -0.211426 0
M  V30 4809 H 455.581 4.03401 1.02013 0
M  V30 4810 H 454.457 5.19515 1.77186 0
M  V30 4811 H 454.718 3.62951 2.52427 0
M  V30 4812 N 453.777 0.010035 1.57597 0
M  V30 4813 C 455.188 -0.531426 1.78977 0
M  V30 4814 C 455.539 -1.73375 0.918454 0
M  V30 4815 O 454.664 -2.16047 0.123635 0
M  V30 4816 C 455.259 -0.97086 3.24592 0
M  V30 4817 C 453.818 -1.45756 3.47033 0
M  V30 4818 C 452.965 -0.413384 2.74201 0
M  V30 4819 H 455.916 0.236166 1.56933 0
M  V30 4820 H 455.937 -1.83633 3.33255 0
M  V30 4821 H 455.449 -0.0955893 3.87982 0
M  V30 4822 H 453.55 -2.35339 2.88871 0
M  V30 4823 H 453.663 -1.4781 4.55729 0
M  V30 4824 H 452.027 -0.877266 2.39115 0
M  V30 4825 H 452.81 0.453092 3.40297 0
M  V30 4826 N 455.255 -1.55392 -0.262866 0
M  V30 4827 C 456.501 -1.77657 -0.990424 0
M  V30 4828 C 456.856 -0.576333 -1.83565 0
M  V30 4829 O 456.149 0.430795 -1.86694 0
M  V30 4830 C 456.343 -3.02889 -1.89718 0
M  V30 4831 C 456.172 -4.34979 -1.14121 0
M  V30 4832 C 454.942 -4.98052 -0.852768 0
M  V30 4833 C 457.14 -5.11597 -0.526625 0
M  V30 4834 N 455.122 -6.13859 -0.0710649 0
M  V30 4835 C 456.493 -6.19883 0.12042 0
M  V30 4836 C 458.548 -4.95992 -0.435485 0
M  V30 4837 C 457.251 -7.14262 0.849833 0
M  V30 4838 C 459.277 -5.90735 0.280359 0
M  V30 4839 C 458.639 -6.98417 0.916103 0
M  V30 4840 H 454.738 -0.702242 -0.344064 0
M  V30 4841 H 457.322 -1.92887 -0.265088 0
M  V30 4842 H 455.493 -2.89017 -2.59468 0
M  V30 4843 H 457.225 -3.13516 -2.5591 0
M  V30 4844 H 453.98 -4.5916 -1.16058 0
M  V30 4845 H 454.404 -6.76302 0.307413 0
M  V30 4846 H 459.046 -4.12832 -0.912671 0
M  V30 4847 H 456.764 -7.96935 1.33867 0
M  V30 4848 H 460.35 -5.80738 0.351332 0
M  V30 4849 H 459.23 -7.70467 1.46119 0
M  V30 4850 N 456.733 0.527833 -1.48498 0
M  V30 4851 C 457.681 1.65313 -1.63628 0
M  V30 4852 C 458.675 1.6177 -0.502676 0
M  V30 4853 O 459.881 1.66601 -0.681469 0
M  V30 4854 H 456.256 0.547518 -0.515488 0
M  V30 4855 H 458.227 1.49696 -2.58135 0
M  V30 4856 C 456.976 3.03576 -1.6952 0
M  V30 4857 H 456.299 3.06997 -2.56111 0
M  V30 4858 H 457.739 3.81923 -1.84149 0
M  V30 4859 C 456.198 3.34089 -0.43432 0
M  V30 4860 O 456.728 3.99151 0.451852 0
M  V30 4861 N 454.934 2.88991 -0.305368 0
M  V30 4862 H 454.481 2.36222 -1.02747 0
M  V30 4863 H 454.439 3.09776 0.537249 0
M  V30 4864 N 458.211 1.37122 0.776871 0
M  V30 4865 C 459.143 1.28342 1.89897 0
M  V30 4866 C 460.156 0.200277 1.61563 0
M  V30 4867 O 461.345 0.456012 1.72577 0
M  V30 4868 C 458.445 0.960427 3.25006 0
M  V30 4869 C 457.618 2.148 3.81025 0
M  V30 4870 C 456.677 1.79608 4.94598 0
M  V30 4871 O 455.703 2.51845 5.10454 0
M  V30 4872 N 456.905 0.737171 5.758 0
M  V30 4873 H 459.67 2.25027 1.97947 0
M  V30 4874 H 457.231 1.3068 0.955739 0
M  V30 4875 H 459.223 0.705942 3.98495 0
M  V30 4876 H 457.793 0.0823066 3.12492 0
M  V30 4877 H 457.013 2.56454 2.99374 0
M  V30 4878 H 458.301 2.9411 4.15183 0
M  V30 4879 H 457.699 0.137637 5.65533 0
M  V30 4880 H 456.256 0.542534 6.49538 0
M  V30 4881 N 459.689 -1.00246 1.21608 0
M  V30 4882 C 460.935 -1.74319 1.03638 0
M  V30 4883 C 461.268 -1.89408 -0.428749 0
M  V30 4884 O 460.543 -1.43026 -1.3181 0
M  V30 4885 C 460.826 -3.15431 1.73711 0
M  V30 4886 C 460.679 -3.08049 3.27759 0
M  V30 4887 C 461.998 -4.14407 1.48173 0
M  V30 4888 H 459.117 -0.632741 0.377899 0
M  V30 4889 H 461.759 -1.16853 1.49818 0
M  V30 4890 H 459.909 -3.64493 1.34452 0
M  V30 4891 H 461.581 -2.66681 3.76403 0
M  V30 4892 H 459.824 -2.45088 3.57931 0
M  V30 4893 H 460.495 -4.07862 3.71958 0
M  V30 4894 H 462.971 -3.74061 1.82258 0
M  V30 4895 H 461.847 -5.11279 1.99713 0
M  V30 4896 H 462.108 -4.40174 0.412273 0
M  V30 4897 N 461.167 -1.02423 -1.1978 0
M  V30 4898 C 462.415 -0.716569 -1.8897 0
M  V30 4899 C 462.736 0.756769 -1.79716 0
M  V30 4900 O 462.006 1.5449 -1.20456 0
M  V30 4901 H 460.586 -0.262062 -0.699523 0
M  V30 4902 H 463.248 -1.29747 -1.45436 0
M  V30 4903 H 462.344 -1.00675 -2.95417 0
M  V30 4904 N 462.645 1.35699 -0.801477 0
M  V30 4905 C 463.578 2.2768 -0.153922 0
M  V30 4906 C 464.556 1.47832 0.67709 0
M  V30 4907 O 465.74 1.77104 0.645474 0
M  V30 4908 C 462.867 3.2943 0.786986 0
M  V30 4909 C 461.913 4.26485 0.0362447 0
M  V30 4910 S 462.746 5.19573 -1.2963 0
M  V30 4911 C 463.902 6.24866 -0.359705 0
M  V30 4912 H 464.135 2.82254 -0.9338 0
M  V30 4913 H 461.668 1.42421 -0.596283 0
M  V30 4914 H 463.626 3.8855 1.32436 0
M  V30 4915 H 462.287 2.73745 1.54021 0
M  V30 4916 H 461.48 4.98378 0.750668 0
M  V30 4917 H 461.082 3.71508 -0.431017 0
M  V30 4918 H 463.374 6.75957 0.456954 0
M  V30 4919 H 464.317 7.00307 -1.04768 0
M  V30 4920 H 464.725 5.64484 0.0423274 0
M  V30 4921 N 464.123 0.554532 1.47522 0
M  V30 4922 C 465.539 0.214107 1.58157 0
M  V30 4923 C 465.739 -1.28331 1.55349 0
M  V30 4924 O 464.795 -2.06329 1.45549 0
M  V30 4925 C 466.108 0.838391 2.88776 0
M  V30 4926 C 467.656 0.809374 3.02354 0
M  V30 4927 C 468.131 1.41268 4.35669 0
M  V30 4928 N 469.622 1.37574 4.42298 0
M  V30 4929 C 470.357 1.8122 5.4401 0
M  V30 4930 N 469.853 2.3271 6.52547 0
M  V30 4931 N 471.646 1.72307 5.35039 0
M  V30 4932 H 463.797 1.52744 1.4759 0
M  V30 4933 H 466.06 0.636812 0.702264 0
M  V30 4934 H 465.766 1.89065 2.96559 0
M  V30 4935 H 465.64 0.329847 3.75755 0
M  V30 4936 H 468.027 -0.234187 2.94169 0
M  V30 4937 H 468.108 1.35565 2.16924 0
M  V30 4938 H 467.752 2.45529 4.4461 0
M  V30 4939 H 467.682 0.841871 5.19827 0
M  V30 4940 H 470.173 0.999081 3.64454 0
M  V30 4941 H 470.486 2.63944 7.26329 0
M  V30 4942 H 468.831 2.36719 6.53444 0
M  V30 4943 H 472.022 1.3186 4.49144 0
M  V30 4944 H 472.195 2.06641 6.14169 0
M  V30 4945 N 465.601 -1.54893 0.290851 0
M  V30 4946 C 466.878 -1.91991 -0.373989 0
M  V30 4947 C 467.258 -1.21694 -1.72493 0
M  V30 4948 O 466.606 -0.34917 -2.25816 0
M  V30 4949 C 466.816 -3.45419 -0.498703 0
M  V30 4950 C 468.164 -4.1748 -0.774298 0
M  V30 4951 O 469.188 -3.51398 -0.582908 0
M  V30 4952 O 468.047 -5.3445 -1.14129 0
M  V30 4953 H 465.141 -0.800593 -0.207315 0
M  V30 4954 H 467.687 -1.66297 0.338164 0
M  V30 4955 H 466.459 -3.88688 0.451392 0
M  V30 4956 H 466.082 -3.77117 -1.25972 0
M  V30 4957 N 467.08 -0.0183926 -1.57589 0
M  V30 4958 C 468.043 0.951986 -2.08494 0
M  V30 4959 C 469.043 1.26092 -0.997874 0
M  V30 4960 O 470.233 1.20304 -1.25987 0
M  V30 4961 C 467.365 2.27165 -2.54182 0
M  V30 4962 H 468.558 0.511307 -2.95509 0
M  V30 4963 H 466.111 0.229444 -1.54607 0
M  V30 4964 H 466.846 2.75884 -1.70465 0
M  V30 4965 H 466.631 2.06057 -3.33591 0
M  V30 4966 H 468.121 2.9674 -2.93828 0
M  V30 4967 N 468.558 1.5553 0.254621 0
M  V30 4968 C 469.835 1.6774 1.00611 0
M  V30 4969 C 470.215 0.555993 2.03647 0
M  V30 4970 O 469.563 -0.441583 2.24193 0
M  V30 4971 C 469.773 3.07725 1.6464 0
M  V30 4972 C 471.121 3.66074 2.15116 0
M  V30 4973 O 472.145 3.10476 1.74595 0
M  V30 4974 O 471.004 4.63526 2.89493 0
M  V30 4975 H 468.098 0.681958 0.467828 0
M  V30 4976 H 470.644 1.67863 0.24902 0
M  V30 4977 H 469.416 3.80792 0.900734 0
M  V30 4978 H 469.039 3.1158 2.46989 0
M  V30 4979 N 470.036 -0.519951 1.48776 0
M  V30 4980 C 471.266 -1.29783 1.60748 0
M  V30 4981 C 471.674 -1.87253 0.27072 0
M  V30 4982 O 471.017 -1.67628 -0.751438 0
M  V30 4983 C 471.079 -2.47984 2.60277 0
M  V30 4984 C 470.743 -2.11526 4.051 0
M  V30 4985 C 471.74 -1.66608 4.92481 0
M  V30 4986 C 469.425 -2.21742 4.50706 0
M  V30 4987 C 471.419 -1.32384 6.23501 0
M  V30 4988 C 469.106 -1.87129 5.81744 0
M  V30 4989 C 470.104 -1.42523 6.67964 0
M  V30 4990 O 469.792 -1.0837 7.96562 0
M  V30 4991 H 469.524 -0.400562 0.544542 0
M  V30 4992 H 472.078 -0.632879 1.95407 0
M  V30 4993 H 470.308 -3.17493 2.2076 0
M  V30 4994 H 471.997 -3.10036 2.61978 0
M  V30 4995 H 472.763 -1.58178 4.58481 0
M  V30 4996 H 468.642 -2.55415 3.83776 0
M  V30 4997 H 472.186 -0.974949 6.90754 0
M  V30 4998 H 468.083 -1.95204 6.15277 0
M  V30 4999 H 468.851 -1.21681 8.09405 0
M  V30 5000 N 471.514 -1.37532 -0.769588 0
M  V30 5001 C 472.763 -1.32183 -1.5235 0
M  V30 5002 C 473.076 0.0906555 -1.9539 0
M  V30 5003 O 474.282 0.266628 -2.70188 0
M  V30 5004 C 472.738 -2.32029 -2.75119 0
M  V30 5005 C 472.346 -3.78816 -2.3917 0
M  V30 5006 C 474.09 -2.35694 -3.53056 0
M  V30 5007 C 471.997 -4.70388 -3.58453 0
M  V30 5008 H 470.927 -0.491275 -0.571984 0
M  V30 5009 H 473.578 -1.63004 -0.842739 0
M  V30 5010 H 471.96 -1.94229 -3.45096 0
M  V30 5011 H 473.134 -4.25466 -1.76962 0
M  V30 5012 H 471.449 -3.78117 -1.74402 0
M  V30 5013 H 474.046 -3.01312 -4.41718 0
M  V30 5014 H 474.389 -1.37117 -3.93071 0
M  V30 5015 H 474.922 -2.72212 -2.90078 0
M  V30 5016 H 471.661 -5.70102 -3.23518 0
M  V30 5017 H 471.181 -4.28442 -4.19758 0
M  V30 5018 H 472.86 -4.87628 -4.25239 0
M  V30 5019 N 472.992 0.995999 -1.22138 0
M  V30 5020 C 473.955 2.06711 -0.990109 0
M  V30 5021 C 474.955 1.60744 0.0422978 0
M  V30 5022 O 476.145 1.73095 -0.195895 0
M  V30 5023 C 473.277 3.37288 -0.49491 0
M  V30 5024 H 474.47 2.28661 -1.94047 0
M  V30 5025 H 472.023 1.16711 -1.03963 0
M  V30 5026 H 472.758 3.21022 0.459948 0
M  V30 5027 H 472.543 3.71986 -1.23971 0
M  V30 5028 H 474.033 4.16103 -0.353253 0
M  V30 5029 N 474.47 1.03057 1.19235 0
M  V30 5030 C 475.433 0.617418 2.20727 0
M  V30 5031 C 476.433 -0.319856 1.57587 0
M  V30 5032 O 477.623 -0.106633 1.73873 0
M  V30 5033 C 474.755 -0.096296 3.40764 0
M  V30 5034 H 475.948 1.51544 2.58794 0
M  V30 5035 H 473.501 0.821949 1.32942 0
M  V30 5036 H 474.236 -1.00859 3.08217 0
M  V30 5037 H 474.021 0.577217 3.87828 0
M  V30 5038 H 475.511 -0.372219 4.15938 0
M  V30 5039 N 475.948 -1.35272 0.808662 0
M  V30 5040 C 477.195 -1.98709 0.390003 0
M  V30 5041 C 477.523 -1.64148 -1.04335 0
M  V30 5042 O 476.778 -0.897797 -1.73891 0
M  V30 5043 C 477.077 -3.53556 0.522798 0
M  V30 5044 C 476.743 -4.0799 1.91977 0
M  V30 5045 C 475.405 -4.22568 2.30195 0
M  V30 5046 C 477.757 -4.37442 2.83361 0
M  V30 5047 C 475.085 -4.63918 3.59162 0
M  V30 5048 C 477.437 -4.80232 4.11776 0
M  V30 5049 C 476.101 -4.93016 4.49991 0
M  V30 5050 H 475.371 -0.727127 0.142712 0
M  V30 5051 H 478.018 -1.6145 1.02985 0
M  V30 5052 H 476.323 -3.91287 -0.200494 0
M  V30 5053 H 478.02 -4.00598 0.179608 0
M  V30 5054 H 474.61 -3.97096 1.61284 0
M  V30 5055 H 478.794 -4.25731 2.55083 0
M  V30 5056 H 474.05 -4.72005 3.88615 0
M  V30 5057 H 478.224 -5.01982 4.82687 0
M  V30 5058 H 475.851 -5.24814 5.49976 0
M  V30 5059 N 477.426 -0.562348 -1.47226 0
M  V30 5060 C 478.356 0.170627 -2.32876 0
M  V30 5061 C 479.337 0.903748 -1.44106 0
M  V30 5062 O 480.522 0.883206 -1.72954 0
M  V30 5063 C 477.652 1.19786 -3.25989 0
M  V30 5064 C 476.606 0.580875 -4.2404 0
M  V30 5065 C 475.932 1.71311 -5.06514 0
M  V30 5066 C 477.232 -0.468714 -5.20193 0
M  V30 5067 H 478.926 -0.544441 -2.94408 0
M  V30 5068 H 476.472 -0.263271 -1.41573 0
M  V30 5069 H 478.425 1.71884 -3.84752 0
M  V30 5070 H 477.149 1.94294 -2.62521 0
M  V30 5071 H 475.808 0.0811538 -3.6651 0
M  V30 5072 H 475.456 2.44736 -4.39447 0
M  V30 5073 H 475.156 1.30604 -5.72902 0
M  V30 5074 H 476.68 2.23725 -5.68137 0
M  V30 5075 H 478.094 -0.0336028 -5.7329 0
M  V30 5076 H 476.491 -0.794957 -5.94811 0
M  V30 5077 H 477.561 -1.36269 -4.65359 0
M  V30 5078 N 478.904 1.54736 -0.299062 0
M  V30 5079 C 479.854 2.20155 0.592932 0
M  V30 5080 C 480.838 1.1739 1.10038 0
M  V30 5081 O 482.03 1.43116 1.04147 0
M  V30 5082 C 479.159 2.94437 1.76527 0
M  V30 5083 C 478.245 4.04516 1.27388 0
M  V30 5084 N 478.636 5.03319 0.500339 0
M  V30 5085 C 476.934 4.18022 1.55478 0
M  V30 5086 C 477.635 5.81209 0.238909 0
M  V30 5087 N 476.611 5.37408 0.818163 0
M  V30 5088 H 480.413 2.93899 -0.00563596 0
M  V30 5089 H 477.927 1.62068 -0.103732 0
M  V30 5090 H 479.924 3.3977 2.41582 0
M  V30 5091 H 478.584 2.22209 2.36756 0
M  V30 5092 H 479.595 5.17696 0.145419 0
M  V30 5093 H 476.272 3.56998 2.16469 0
M  V30 5094 H 477.662 6.70812 -0.382223 0
M  V30 5095 N 480.382 0.0267497 1.57577 0
M  V30 5096 C 481.628 -0.653371 1.91987 0
M  V30 5097 C 481.961 -1.71915 0.903263 0
M  V30 5098 O 481.236 -1.94358 -0.0743387 0
M  V30 5099 C 481.519 -1.272 3.36886 0
M  V30 5100 C 481.372 -0.215938 4.49281 0
M  V30 5101 C 482.691 -2.19069 3.81703 0
M  V30 5102 H 479.81 -0.236047 0.698177 0
M  V30 5103 H 482.452 0.0835236 1.89816 0
M  V30 5104 H 480.602 -1.90005 3.38866 0
M  V30 5105 H 482.274 0.41449 4.59434 0
M  V30 5106 H 480.517 0.458855 4.31366 0
M  V30 5107 H 481.188 -0.688347 5.47691 0
M  V30 5108 H 483.664 -1.66253 3.81444 0
M  V30 5109 H 482.54 -2.59307 4.83788 0
M  V30 5110 H 482.801 -3.08087 3.17072 0
M  V30 5111 N 481.861 -1.55662 -0.24637 0
M  V30 5112 C 482.791 -1.93377 -1.30873 0
M  V30 5113 C 483.772 -0.798773 -1.50179 0
M  V30 5114 O 484.957 -1.0591 -1.62778 0
M  V30 5115 C 482.087 -2.22893 -2.66338 0
M  V30 5116 C 481.041 -3.38649 -2.61727 0
M  V30 5117 C 480.367 -3.53708 -4.00992 0
M  V30 5118 C 481.667 -4.74323 -2.18666 0
M  V30 5119 H 483.361 -2.82363 -0.995552 0
M  V30 5120 H 480.907 -1.35854 -0.477464 0
M  V30 5121 H 482.86 -2.47866 -3.40794 0
M  V30 5122 H 481.584 -1.30733 -2.99293 0
M  V30 5123 H 480.243 -3.13685 -1.89729 0
M  V30 5124 H 479.891 -2.58967 -4.31214 0
M  V30 5125 H 479.591 -4.31551 -3.98795 0
M  V30 5126 H 481.115 -3.81003 -4.77147 0
M  V30 5127 H 482.529 -4.98665 -2.82854 0
M  V30 5128 H 480.926 -5.55273 -2.27579 0
M  V30 5129 H 481.996 -4.71349 -1.13834 0
M  V30 5130 N 483.339 0.512053 -1.4905 0
M  V30 5131 C 484.269 1.62365 -1.67809 0
M  V30 5132 C 485.25 1.61737 -0.526809 0
M  V30 5133 O 486.435 1.78651 -0.761404 0
M  V30 5134 C 483.565 3.00895 -1.73435 0
M  V30 5135 C 482.519 3.16387 -2.88242 0
M  V30 5136 C 481.845 4.56157 -2.78971 0
M  V30 5137 C 483.145 2.97457 -4.29321 0
M  V30 5138 H 484.839 1.46921 -2.60873 0
M  V30 5139 H 482.385 0.705379 -1.2554 0
M  V30 5140 H 484.338 3.78549 -1.85145 0
M  V30 5141 H 483.062 3.17403 -0.769619 0
M  V30 5142 H 481.721 2.41155 -2.76116 0
M  V30 5143 H 481.369 4.69525 -1.8043 0
M  V30 5144 H 481.069 4.67465 -3.5602 0
M  V30 5145 H 482.593 5.35886 -2.92675 0
M  V30 5146 H 484.007 3.64888 -4.42187 0
M  V30 5147 H 482.404 3.20245 -5.07507 0
M  V30 5148 H 483.474 1.93692 -4.44535 0
M  V30 5149 N 484.817 1.37938 0.762283 0
M  V30 5150 C 486.228 1.30094 1.33912 0
M  V30 5151 C 486.579 -0.0472026 1.96143 0
M  V30 5152 O 485.704 -0.94917 1.94473 0
M  V30 5153 C 486.299 2.35592 2.43478 0
M  V30 5154 C 484.858 2.31353 2.96905 0
M  V30 5155 C 484.005 2.18919 1.70205 0
M  V30 5156 H 486.956 1.48423 0.561816 0
M  V30 5157 H 486.977 2.00806 3.23199 0
M  V30 5158 H 486.489 3.33701 1.98155 0
M  V30 5159 H 484.59 1.36799 3.46579 0
M  V30 5160 H 484.703 3.25147 3.51875 0
M  V30 5161 H 483.067 1.65624 1.93496 0
M  V30 5162 H 483.85 3.18956 1.26973 0
M  V30 5163 N 486.295 -0.989507 1.22664 0
M  V30 5164 C 487.541 -1.7321 1.05481 0
M  V30 5165 C 487.874 -1.89852 -0.408635 0
M  V30 5166 O 487.149 -1.44416 -1.30285 0
M  V30 5167 C 487.432 -3.1357 1.77047 0
M  V30 5168 C 487.285 -3.04555 3.31008 0
M  V30 5169 C 488.604 -4.12812 1.5256 0
M  V30 5170 H 485.723 -0.628697 0.384589 0
M  V30 5171 H 488.365 -1.15258 1.51049 0
M  V30 5172 H 486.515 -3.63046 1.3831 0
M  V30 5173 H 488.187 -2.62674 3.7921 0
M  V30 5174 H 486.43 -2.41278 3.6051 0
M  V30 5175 H 487.101 -4.03894 3.76263 0
M  V30 5176 H 489.577 -3.72106 1.86215 0
M  V30 5177 H 488.453 -5.09132 2.05124 0
M  V30 5178 H 488.714 -4.39711 0.458936 0
M  V30 5179 N 487.773 -1.03688 -1.18687 0
M  V30 5180 C 488.736 -0.629115 -2.20397 0
M  V30 5181 C 489.736 0.311495 -1.57754 0
M  V30 5182 O 490.926 0.0974107 -1.73927 0
M  V30 5183 C 488.058 0.0782231 -3.4081 0
M  V30 5184 H 489.251 -1.52915 -2.57987 0
M  V30 5185 H 486.804 -0.828988 -1.32505 0
M  V30 5186 H 487.539 0.992233 -3.08748 0
M  V30 5187 H 487.324 -0.597776 -3.87517 0
M  V30 5188 H 488.814 0.350156 -4.16129 0
M  V30 5189 N 489.251 1.34841 -0.815825 0
M  V30 5190 C 490.181 2.32187 -0.247298 0
M  V30 5191 C 491.162 1.5791 0.632344 0
M  V30 5192 O 492.347 1.8593 0.560698 0
M  V30 5193 C 489.477 3.42122 0.597466 0
M  V30 5194 C 488.431 4.27602 -0.184446 0
M  V30 5195 C 487.757 5.28942 0.782609 0
M  V30 5196 C 489.057 5.03502 -1.38865 0
M  V30 5197 H 490.751 2.79985 -1.06061 0
M  V30 5198 H 488.297 1.34611 -0.511461 0
M  V30 5199 H 490.25 4.09232 1.00533 0
M  V30 5200 H 488.974 2.92956 1.44376 0
M  V30 5201 H 487.633 3.62085 -0.573592 0
M  V30 5202 H 487.281 4.7604 1.62466 0
M  V30 5203 H 486.981 5.87008 0.263695 0
M  V30 5204 H 488.505 5.98922 1.18848 0
M  V30 5205 H 489.919 5.63506 -1.05518 0
M  V30 5206 H 488.316 5.71108 -1.8427 0
M  V30 5207 H 489.386 4.33608 -2.17054 0
M  V30 5208 N 490.729 0.570148 1.46925 0
M  V30 5209 C 491.639 -0.173061 2.33961 0
M  V30 5210 C 492.655 -0.898825 1.48987 0
M  V30 5211 O 493.831 -0.864825 1.81887 0
M  V30 5212 C 490.896 -1.18177 3.25937 0
M  V30 5213 C 489.957 -0.462041 4.26806 0
M  V30 5214 C 489.19 -1.4227 5.14388 0
M  V30 5215 O 489.413 -2.65842 5.04662 0
M  V30 5216 O 488.347 -0.940127 5.94513 0
M  V30 5217 H 492.173 0.541216 2.98839 0
M  V30 5218 H 489.758 0.330647 1.45695 0
M  V30 5219 H 491.64 -1.76372 3.82715 0
M  V30 5220 H 490.315 -1.87774 2.63671 0
M  V30 5221 H 489.222 0.161429 3.73752 0
M  V30 5222 H 490.555 0.192719 4.91823 0
M  V30 5223 N 492.207 -1.54576 0.307264 0
M  V30 5224 C 493.454 -2.00263 -0.300167 0
M  V30 5225 C 493.782 -1.19561 -1.53413 0
M  V30 5226 O 493.037 -0.261487 -1.93945 0
M  V30 5227 C 493.336 -3.50572 -0.695253 0
M  V30 5228 C 493.002 -4.48771 0.437679 0
M  V30 5229 C 491.664 -4.7534 0.748681 0
M  V30 5230 C 494.016 -5.0721 1.19949 0
M  V30 5231 C 491.344 -5.5761 1.8245 0
M  V30 5232 C 493.696 -5.90651 2.26527 0
M  V30 5233 C 492.36 -6.15528 2.58227 0
M  V30 5234 H 491.63 -0.732814 -0.109839 0
M  V30 5235 H 494.277 -1.86664 0.427661 0
M  V30 5236 H 492.582 -3.61814 -1.50326 0
M  V30 5237 H 494.279 -3.83352 -1.17653 0
M  V30 5238 H 490.869 -4.282 0.185187 0
M  V30 5239 H 495.053 -4.86679 0.972474 0
M  V30 5240 H 490.309 -5.75121 2.07476 0
M  V30 5241 H 494.483 -6.34957 2.86011 0
M  V30 5242 H 492.11 -6.79066 3.4172 0
M  V30 5243 N 493.685 -0.035106 -1.57561 0
M  V30 5244 C 494.617 0.973604 -2.07494 0
M  V30 5245 C 495.63 1.28504 -0.999534 0
M  V30 5246 O 496.819 1.24864 -1.27559 0
M  V30 5247 C 493.919 2.29945 -2.48955 0
M  V30 5248 C 493.092 2.1723 -3.79644 0
M  V30 5249 C 492.151 3.328 -4.07592 0
M  V30 5250 O 491.177 3.09418 -4.77754 0
M  V30 5251 N 492.379 4.56779 -3.58236 0
M  V30 5252 H 495.144 0.547525 -2.94656 0
M  V30 5253 H 492.705 0.151515 -1.61189 0
M  V30 5254 H 494.697 3.06097 -2.64739 0
M  V30 5255 H 493.267 2.64173 -1.67126 0
M  V30 5256 H 492.487 1.25768 -3.73599 0
M  V30 5257 H 493.775 2.05945 -4.65257 0
M  V30 5258 H 493.173 4.78668 -3.01485 0
M  V30 5259 H 491.73 5.30079 -3.79288 0
M  V30 5260 N 495.163 1.55791 0.238111 0
M  V30 5261 C 496.574 1.68383 0.806472 0
M  V30 5262 C 496.925 0.634157 1.85669 0
M  V30 5263 O 496.05 -0.217913 2.153 0
M  V30 5264 C 496.645 3.05268 1.46959 0
M  V30 5265 C 495.204 3.1977 1.98555 0
M  V30 5266 C 494.351 2.64279 0.839763 0
M  V30 5267 H 497.302 1.58694 0.0137535 0
M  V30 5268 H 497.323 3.00203 2.33792 0
M  V30 5269 H 496.835 3.81643 0.704993 0
M  V30 5270 H 494.936 2.48234 2.77868 0
M  V30 5271 H 495.049 4.26788 2.17689 0
M  V30 5272 H 493.413 2.22329 1.24265 0
M  V30 5273 H 494.196 3.43187 0.0881032 0
M  V30 5274 N 496.642 -0.504142 1.49319 0
M  V30 5275 C 497.574 -1.62265 1.61872 0
M  V30 5276 C 498.587 -1.54881 0.501573 0
M  V30 5277 O 499.776 -1.6087 0.773497 0
M  V30 5278 C 496.876 -3.01042 1.55651 0
M  V30 5279 C 496.049 -3.33642 2.82845 0
M  V30 5280 C 495.108 -4.51816 2.69719 0
M  V30 5281 O 494.134 -4.53755 3.4365 0
M  V30 5282 N 495.336 -5.51543 1.81055 0
M  V30 5283 H 498.101 -1.51924 2.58339 0
M  V30 5284 H 495.662 -0.691954 1.46368 0
M  V30 5285 H 497.654 -3.78013 1.44528 0
M  V30 5286 H 496.224 -3.05323 0.670546 0
M  V30 5287 H 495.444 -2.45598 3.08343 0
M  V30 5288 H 496.732 -3.5222 3.67177 0
M  V30 5289 H 496.13 -5.52774 1.20241 0
M  V30 5290 H 494.687 -6.27629 1.75856 0
M  V30 5291 N 498.12 -1.38341 -0.754957 0
M  V30 5292 C 499.05 -1.38176 -1.88227 0
M  V30 5293 C 500.031 -0.247873 -1.68284 0
M  V30 5294 O 501.216 -0.45075 -1.88896 0
M  V30 5295 C 498.346 -1.20471 -3.25736 0
M  V30 5296 C 497.3 -2.3105 -3.60278 0
M  V30 5297 C 496.626 -1.98452 -4.96509 0
M  V30 5298 C 497.926 -3.73305 -3.65295 0
M  V30 5299 H 499.62 -2.32512 -1.88622 0
M  V30 5300 H 497.166 -1.1192 -0.906082 0
M  V30 5301 H 499.119 -1.18982 -4.04254 0
M  V30 5302 H 497.843 -0.225965 -3.25817 0
M  V30 5303 H 496.502 -2.31723 -2.84078 0
M  V30 5304 H 496.15 -0.990641 -4.93148 0
M  V30 5305 H 495.85 -2.7251 -5.20588 0
M  V30 5306 H 497.374 -1.98578 -5.77407 0
M  V30 5307 H 498.788 -3.7467 -4.3393 0
M  V30 5308 H 497.185 -4.46557 -4.00883 0
M  V30 5309 H 498.255 -4.05719 -2.65556 0
M  V30 5310 N 499.598 0.982988 -1.23187 0
M  V30 5311 C 500.844 1.72648 -1.06398 0
M  V30 5312 C 501.177 1.90066 0.398561 0
M  V30 5313 O 500.452 1.45105 1.29518 0
M  V30 5314 C 500.735 3.12627 -1.78707 0
M  V30 5315 C 500.588 3.02795 -3.32618 0
M  V30 5316 C 501.907 4.11997 -1.54747 0
M  V30 5317 H 499.026 0.626649 -0.387918 0
M  V30 5318 H 501.668 1.14455 -1.51658 0
M  V30 5319 H 499.818 3.62308 -1.40234 0
M  V30 5320 H 501.49 2.60659 -3.80598 0
M  V30 5321 H 499.733 2.39362 -3.61785 0
M  V30 5322 H 500.404 4.01893 -3.78399 0
M  V30 5323 H 502.88 3.71114 -1.88186 0
M  V30 5324 H 501.756 5.08037 -2.07821 0
M  V30 5325 H 502.017 4.39462 -0.482249 0
M  V30 5326 N 501.076 1.04316 1.18135 0
M  V30 5327 C 502.006 0.657299 2.24058 0
M  V30 5328 C 502.987 -0.340678 1.66654 0
M  V30 5329 O 504.172 -0.220223 1.92947 0
M  V30 5330 C 501.302 0.0220715 3.47293 0
M  V30 5331 C 500.256 0.943857 4.17463 0
M  V30 5332 C 499.582 0.172973 5.3442 0
M  V30 5333 C 500.882 2.26409 4.70677 0
M  V30 5334 H 502.576 1.5428 2.56589 0
M  V30 5335 H 500.122 0.743263 1.23335 0
M  V30 5336 H 502.075 -0.259607 4.206 0
M  V30 5337 H 500.799 -0.898323 3.14003 0
M  V30 5338 H 499.458 1.20996 3.46057 0
M  V30 5339 H 499.106 -0.749907 4.97379 0
M  V30 5340 H 498.806 0.787098 5.82304 0
M  V30 5341 H 500.33 -0.101628 6.10515 0
M  V30 5342 H 501.744 2.04294 5.35665 0
M  V30 5343 H 500.141 2.8314 5.29105 0
M  V30 5344 H 501.211 2.90883 3.87962 0
M  V30 5345 N 502.554 -1.34406 0.822964 0
M  V30 5346 C 503.8 -1.98578 0.411666 0
M  V30 5347 C 504.133 -1.65093 -1.02264 0
M  V30 5348 O 503.408 -0.92258 -1.71227 0
M  V30 5349 C 503.691 -3.54823 0.614235 0
M  V30 5350 C 503.544 -3.9805 2.09466 0
M  V30 5351 C 504.863 -4.40071 0.050221 0
M  V30 5352 H 501.982 -0.721355 0.151047 0
M  V30 5353 H 504.624 -1.59301 1.03554 0
M  V30 5354 H 502.774 -3.88411 0.0831774 0
M  V30 5355 H 504.446 -3.74795 2.68936 0
M  V30 5356 H 502.689 -3.4836 2.5851 0
M  V30 5357 H 503.36 -5.06819 2.18721 0
M  V30 5358 H 505.836 -4.13037 0.503953 0
M  V30 5359 H 504.712 -5.48452 0.221759 0
M  V30 5360 H 504.973 -4.29576 -1.04482 0
M  V30 5361 N 504.032 -0.577932 -1.46621 0
M  V30 5362 C 504.995 0.147805 -2.28723 0
M  V30 5363 C 505.995 0.823325 -1.38123 0
M  V30 5364 O 507.185 0.676011 -1.60548 0
M  V30 5365 C 504.317 1.21853 -3.18378 0
M  V30 5366 H 505.51 -0.573654 -2.94362 0
M  V30 5367 H 503.063 -0.335703 -1.52652 0
M  V30 5368 H 503.798 1.97173 -2.57475 0
M  V30 5369 H 503.583 0.738714 -3.85078 0
M  V30 5370 H 505.073 1.72768 -3.80186 0
M  V30 5371 N 505.51 1.54411 -0.315457 0
M  V30 5372 C 506.473 2.22713 0.54142 0
M  V30 5373 C 507.473 1.2179 1.04995 0
M  V30 5374 O 508.663 1.46426 0.943667 0
M  V30 5375 C 505.795 2.92485 1.75116 0
M  V30 5376 H 506.988 2.99849 -0.0555508 0
M  V30 5377 H 504.541 1.56159 -0.0664453 0
M  V30 5378 H 505.276 2.19466 2.38758 0
M  V30 5379 H 505.061 3.66483 1.39401 0
M  V30 5380 H 506.551 3.44548 2.35959 0
M  V30 5381 N 506.988 0.0434614 1.5754 0
M  V30 5382 C 508.236 -0.630786 1.92004 0
M  V30 5383 C 508.557 -1.71836 0.921807 0
M  V30 5384 O 507.827 -1.9587 -0.034522 0
M  V30 5385 H 506.407 -0.235988 0.708745 0
M  V30 5386 H 509.069 0.0946462 1.9467 0
M  V30 5387 H 508.165 -1.07434 2.93026 0
M  V30 5388 N 508.466 -1.55915 -0.229846 0
M  V30 5389 C 509.713 -1.78542 -0.955452 0
M  V30 5390 C 510.041 -0.610785 -1.84661 0
M  V30 5391 O 509.296 0.405213 -1.91459 0
M  V30 5392 C 509.595 -3.06845 -1.8325 0
M  V30 5393 C 509.261 -4.37395 -1.09528 0
M  V30 5394 C 507.923 -4.72868 -0.891598 0
M  V30 5395 C 510.275 -5.18029 -0.574046 0
M  V30 5396 C 507.603 -5.86496 -0.154655 0
M  V30 5397 C 509.955 -6.32423 0.149513 0
M  V30 5398 C 508.619 -6.66504 0.364519 0
M  V30 5399 H 507.889 -0.653333 -0.349625 0
M  V30 5400 H 510.536 -1.90183 -0.224235 0
M  V30 5401 H 508.841 -2.90291 -2.63132 0
M  V30 5402 H 510.538 -3.21553 -2.39592 0
M  V30 5403 H 507.128 -4.09538 -1.26399 0
M  V30 5404 H 511.312 -4.91066 -0.718899 0
M  V30 5405 H 506.568 -6.11396 0.0222356 0
M  V30 5406 H 510.742 -6.94137 0.560947 0
M  V30 5407 H 508.369 -7.54397 0.937495 0
M  V30 5408 N 509.944 0.496216 -1.49584 0
M  V30 5409 C 511.221 1.25755 -1.49816 0
M  V30 5410 C 511.601 2.09859 -0.228572 0
M  V30 5411 O 510.949 2.14449 0.788908 0
M  V30 5412 C 511.159 2.11017 -2.7798 0
M  V30 5413 C 512.507 2.70047 -3.27658 0
M  V30 5414 O 513.531 2.21281 -2.79129 0
M  V30 5415 O 512.39 3.58834 -4.1219 0
M  V30 5416 H 509.484 0.569322 -0.599834 0
M  V30 5417 H 512.03 0.510094 -1.61852 0
M  V30 5418 H 510.802 1.48879 -3.61871 0
M  V30 5419 H 510.425 2.92947 -2.68827 0
M  V30 5420 N 511.423 1.38739 0.74761 0
M  V30 5421 C 512.386 1.36241 1.84312 0
M  V30 5422 C 513.386 0.261811 1.58654 0
M  V30 5423 O 514.576 0.519031 1.66288 0
M  V30 5424 C 511.708 1.12253 3.21888 0
M  V30 5425 H 512.901 2.33712 1.87933 0
M  V30 5426 H 510.454 1.2412 0.949946 0
M  V30 5427 H 511.189 0.154133 3.23934 0
M  V30 5428 H 510.974 1.91943 3.41907 0
M  V30 5429 H 512.464 1.13215 4.0196 0
M  V30 5430 N 512.901 -0.976442 1.23707 0
M  V30 5431 C 513.831 -2.08749 1.04624 0
M  V30 5432 C 514.812 -1.70057 -0.0380956 0
M  V30 5433 O 515.997 -1.93782 0.127308 0
M  V30 5434 C 513.127 -3.41335 0.640902 0
M  V30 5435 C 512.081 -3.93947 1.67302 0
M  V30 5436 C 511.407 -5.22774 1.12301 0
M  V30 5437 C 512.707 -4.22769 3.06697 0
M  V30 5438 H 514.401 -2.24972 1.97555 0
M  V30 5439 H 511.947 -1.08108 0.951247 0
M  V30 5440 H 513.9 -4.18489 0.494434 0
M  V30 5441 H 512.624 -3.24988 -0.324099 0
M  V30 5442 H 511.283 -3.18941 1.80755 0
M  V30 5443 H 510.931 -5.0278 0.148877 0
M  V30 5444 H 510.631 -5.58942 1.81267 0
M  V30 5445 H 512.155 -6.02546 0.988479 0
M  V30 5446 H 513.569 -4.90659 2.96524 0
M  V30 5447 H 511.966 -4.70147 3.72937 0
M  V30 5448 H 513.036 -3.29885 3.55392 0
M  V30 5449 N 514.379 -1.04941 -1.1758 0
M  V30 5450 C 515.311 -0.606174 -2.21039 0
M  V30 5451 C 516.324 0.328763 -1.59446 0
M  V30 5452 O 517.513 0.121895 -1.78083 0
M  V30 5453 C 514.613 0.133294 -3.38638 0
M  V30 5454 C 513.786 -0.811711 -4.29802 0
M  V30 5455 C 512.845 -0.113958 -5.26077 0
M  V30 5456 O 511.871 -0.747237 -5.64274 0
M  V30 5457 N 513.073 1.14953 -5.69004 0
M  V30 5458 H 515.838 -1.49606 -2.59689 0
M  V30 5459 H 513.399 -0.930997 -1.32454 0
M  V30 5460 H 515.391 0.610144 -4.00074 0
M  V30 5461 H 513.961 0.924816 -2.98607 0
M  V30 5462 H 513.181 -1.46824 -3.65837 0
M  V30 5463 H 514.469 -1.45326 -4.87604 0
M  V30 5464 H 513.867 1.68441 -5.40041 0
M  V30 5465 H 512.424 1.57049 -6.32597 0
M  V30 5466 N 515.857 1.33968 -0.830081 0
M  V30 5467 C 517.105 1.97672 -0.420734 0
M  V30 5468 C 517.426 1.66111 1.02138 0
M  V30 5469 O 516.696 0.955503 1.71017 0
M  V30 5470 H 515.276 0.73125 -0.152587 0
M  V30 5471 H 517.938 1.63483 -1.0611 0
M  V30 5472 H 517.034 3.07294 -0.545588 0
M  V30 5473 N 517.335 0.585699 1.46312 0
M  V30 5474 C 518.612 0.00542031 1.95599 0
M  V30 5475 C 518.992 -1.45619 1.52834 0
M  V30 5476 O 518.34 -2.14759 0.780446 0
M  V30 5477 C 518.55 0.180601 3.48532 0
M  V30 5478 C 519.898 0.049979 4.24571 0
M  V30 5479 O 520.922 0.109589 3.56031 0
M  V30 5480 O 519.781 -0.0832226 5.46437 0
M  V30 5481 H 516.875 -0.0481281 0.825598 0
M  V30 5482 H 519.421 0.654227 1.56582 0
M  V30 5483 H 518.193 1.19657 3.72556 0
M  V30 5484 H 517.816 -0.504498 3.94386 0
M  V30 5485 N 518.813 -1.54241 0.323641 0
M  V30 5486 C 520.224 -1.85975 -0.164405 0
M  V30 5487 C 520.575 -1.24529 -1.51615 0
M  V30 5488 O 519.7 -0.551351 -2.09258 0
M  V30 5489 C 520.295 -3.37424 -0.305091 0
M  V30 5490 C 518.854 -3.69107 -0.737358 0
M  V30 5491 C 518.001 -2.76942 0.140884 0
M  V30 5492 H 520.952 -1.49088 0.543922 0
M  V30 5493 H 520.973 -3.63147 -1.13598 0
M  V30 5494 H 520.485 -3.82116 0.678876 0
M  V30 5495 H 518.586 -3.29947 -1.73107 0
M  V30 5496 H 518.699 -4.76035 -0.541053 0
M  V30 5497 H 517.063 -2.51795 -0.383572 0
M  V30 5498 H 517.846 -3.24461 1.12162 0
M  V30 5499 N 520.291 -0.0518155 -1.57515 0
M  V30 5500 C 521.238 0.922352 -2.11569 0
M  V30 5501 C 522.208 1.30842 -1.02321 0
M  V30 5502 O 523.393 1.39778 -1.29872 0
M  V30 5503 C 520.533 2.19167 -2.6657 0
M  V30 5504 C 519.646 1.86003 -3.89906 0
M  V30 5505 C 518.781 3.07398 -4.33221 0
M  V30 5506 C 517.82 2.70158 -5.49255 0
M  V30 5507 N 516.957 3.84248 -5.8762 0
M  V30 5508 H 521.797 0.454506 -2.94514 0
M  V30 5509 H 519.334 0.212718 -1.45554 0
M  V30 5510 H 521.292 2.93443 -2.96559 0
M  V30 5511 H 519.922 2.63528 -1.86421 0
M  V30 5512 H 518.974 1.01874 -3.66505 0
M  V30 5513 H 520.286 1.54592 -4.74239 0
M  V30 5514 H 519.44 3.89972 -4.64765 0
M  V30 5515 H 518.179 3.41988 -3.477 0
M  V30 5516 H 517.184 1.86001 -5.17382 0
M  V30 5517 H 518.409 2.36759 -6.36492 0
M  V30 5518 H 516.355 4.18638 -5.05053 0
M  V30 5519 H 516.272 3.56538 -6.66646 0
M  V30 5520 H 517.54 4.6746 -6.2378 0
M  V30 5521 N 521.769 1.56035 0.221574 0
M  V30 5522 C 523.017 1.78693 0.944102 0
M  V30 5523 C 523.338 0.620317 1.8487 0
M  V30 5524 O 522.608 -0.362784 1.92512 0
M  V30 5525 H 521.188 0.659082 0.351597 0
M  V30 5526 H 523.85 1.93497 0.233435 0
M  V30 5527 H 522.946 2.70837 1.55093 0
M  V30 5528 N 523.247 -0.488276 1.49845 0
M  V30 5529 C 524.157 -1.61451 1.70207 0
M  V30 5530 C 525.173 -1.63877 0.584846 0
M  V30 5531 O 526.349 -1.82063 0.861107 0
M  V30 5532 C 523.414 -2.9776 1.77594 0
M  V30 5533 C 522.475 -3.05861 3.01243 0
M  V30 5534 C 521.708 -4.35668 3.08268 0
M  V30 5535 O 521.931 -5.25197 2.22541 0
M  V30 5536 O 520.865 -4.49005 4.00847 0
M  V30 5537 H 524.691 -1.47199 2.65643 0
M  V30 5538 H 522.276 -0.665939 1.33737 0
M  V30 5539 H 524.158 -3.7875 1.84732 0
M  V30 5540 H 522.833 -3.12248 0.8534 0
M  V30 5541 H 521.74 -2.24012 2.99616 0
M  V30 5542 H 523.073 -2.96304 3.9302 0
M  V30 5543 N 524.725 -1.39134 -0.740242 0
M  V30 5544 C 525.658 -1.3182 -1.86276 0
M  V30 5545 C 526.636 -0.192794 -1.61453 0
M  V30 5546 O 527.82 -0.372365 -1.84786 0
M  V30 5547 C 524.947 -1.04564 -3.22155 0
M  V30 5548 C 523.993 -2.19224 -3.65846 0
M  V30 5549 S 524.826 -3.81466 -3.75824 0
M  V30 5550 C 525.982 -3.56425 -5.14502 0
M  V30 5551 H 526.215 -2.26822 -1.92195 0
M  V30 5552 H 523.748 -1.25127 -0.904576 0
M  V30 5553 H 525.706 -0.895228 -4.00619 0
M  V30 5554 H 524.367 -0.112578 -3.13898 0
M  V30 5555 H 523.56 -1.95732 -4.6444 0
M  V30 5556 H 523.162 -2.30441 -2.94572 0
M  V30 5557 H 525.454 -3.13366 -6.00673 0
M  V30 5558 H 526.397 -4.54462 -5.43019 0
M  V30 5559 H 526.805 -2.90641 -4.8393 0
M  V30 5560 N 526.204 0.969867 -1.24223 0
M  V30 5561 C 527.167 2.04564 -1.03373 0
M  V30 5562 C 528.167 1.60798 0.00819206 0
M  V30 5563 O 529.357 1.72641 -0.232567 0
M  V30 5564 C 526.489 3.36163 -0.566343 0
M  V30 5565 H 527.682 2.24494 -1.98853 0
M  V30 5566 H 525.235 1.1448 -1.06415 0
M  V30 5567 H 525.97 3.21925 0.391751 0
M  V30 5568 H 525.755 3.69273 -1.31834 0
M  V30 5569 H 527.245 4.1526 -0.441435 0
M  V30 5570 N 527.682 1.05563 1.17022 0
M  V30 5571 C 528.645 0.664098 2.19368 0
M  V30 5572 C 529.645 -0.286358 1.5823 0
M  V30 5573 O 530.835 -0.069728 1.7406 0
M  V30 5574 C 527.967 -0.0239932 3.40892 0
M  V30 5575 H 529.16 1.57 2.55521 0
M  V30 5576 H 526.713 0.849964 1.31169 0
M  V30 5577 H 527.448 -0.942988 3.10287 0
M  V30 5578 H 527.233 0.659351 3.86516 0
M  V30 5579 H 528.723 -0.283909 4.16634 0
M  V30 5580 N 529.16 -1.33526 0.837174 0
M  V30 5581 C 530.388 -2.02047 0.445494 0
M  V30 5582 C 530.803 -1.62995 -0.952788 0
M  V30 5583 O 530.16 -0.842447 -1.61892 0
M  V30 5584 C 530.211 -3.57221 0.554577 0
M  V30 5585 O 529.932 -3.94863 1.89776 0
M  V30 5586 C 531.433 -4.43012 0.159634 0
M  V30 5587 H 528.653 -0.647221 0.177048 0
M  V30 5588 H 531.197 -1.70492 1.12928 0
M  V30 5589 H 529.352 -3.87315 -0.0812781 0
M  V30 5590 H 529.766 -4.89569 1.88208 0
M  V30 5591 H 531.24 -5.51253 0.28701 0
M  V30 5592 H 531.717 -4.29916 -0.898289 0
M  V30 5593 H 532.323 -4.18274 0.769855 0
M  V30 5594 N 530.638 -0.59345 -1.46 0
M  V30 5595 C 532.049 -0.169801 -1.85926 0
M  V30 5596 C 532.4 1.26984 -1.49565 0
M  V30 5597 O 531.525 1.96076 -0.915602 0
M  V30 5598 C 532.12 -0.301385 -3.37457 0
M  V30 5599 C 530.679 0.0674684 -3.7634 0
M  V30 5600 C 529.826 -0.632383 -2.69993 0
M  V30 5601 H 532.777 -0.801014 -1.37002 0
M  V30 5602 H 532.798 0.470331 -3.77582 0
M  V30 5603 H 532.31 -1.34927 -3.63891 0
M  V30 5604 H 530.411 1.11507 -3.55523 0
M  V30 5605 H 530.524 -0.316332 -4.78055 0
M  V30 5606 H 528.888 -0.0714961 -2.546 0
M  V30 5607 H 529.671 -1.68212 -2.99265 0
M  V30 5608 N 532.116 1.54067 -0.331816 0
M  V30 5609 C 533.079 2.23275 0.517768 0
M  V30 5610 C 534.079 1.22897 1.03697 0
M  V30 5611 O 535.269 1.47419 0.928084 0
M  V30 5612 C 532.401 2.94326 1.72004 0
M  V30 5613 H 533.594 2.99773 -0.0873507 0
M  V30 5614 H 531.147 1.56079 -0.0830042 0
M  V30 5615 H 531.882 2.21986 2.36417 0
M  V30 5616 H 531.667 3.67941 1.35507 0
M  V30 5617 H 533.157 3.47031 2.32291 0
M  V30 5618 N 533.594 0.0601682 1.57485 0
M  V30 5619 C 534.842 -0.610386 1.92662 0
M  V30 5620 C 535.163 -1.70849 0.939981 0
M  V30 5621 O 534.433 -1.95895 -0.0137455 0
M  V30 5622 H 533.013 -0.228457 0.711208 0
M  V30 5623 H 535.675 0.115288 1.94559 0
M  V30 5624 H 534.771 -1.0432 2.94149 0
M  V30 5625 N 535.072 -1.5615 -0.213296 0
M  V30 5626 C 536.319 -1.79546 -0.936462 0
M  V30 5627 C 536.647 -0.630337 -1.84003 0
M  V30 5628 O 535.902 0.384883 -1.91878 0
M  V30 5629 C 536.201 -3.08772 -1.79985 0
M  V30 5630 C 535.867 -4.38532 -1.04882 0
M  V30 5631 C 534.529 -4.73787 -0.841393 0
M  V30 5632 C 536.881 -5.18609 -0.51907 0
M  V30 5633 C 534.209 -5.86627 -0.0924403 0
M  V30 5634 C 536.561 -6.32229 0.216581 0
M  V30 5635 C 535.225 -6.6608 0.435191 0
M  V30 5636 H 534.495 -0.657004 -0.342676 0
M  V30 5637 H 537.142 -1.9041 -0.204051 0
M  V30 5638 H 535.447 -2.93065 -2.60038 0
M  V30 5639 H 537.144 -3.24077 -2.36168 0
M  V30 5640 H 533.734 -4.10855 -1.22048 0
M  V30 5641 H 537.918 -4.91801 -0.666775 0
M  V30 5642 H 533.174 -6.11338 0.087081 0
M  V30 5643 H 537.348 -6.93503 0.634538 0
M  V30 5644 H 534.975 -7.5336 1.01746 0
M  V30 5645 N 536.55 0.480323 -1.50102 0
M  V30 5646 C 537.513 1.56181 -1.6775 0
M  V30 5647 C 538.513 1.51156 -0.548503 0
M  V30 5648 O 539.703 1.5394 -0.815363 0
M  V30 5649 C 536.835 2.95823 -1.69415 0
M  V30 5650 H 538.028 1.41855 -2.6423 0
M  V30 5651 H 535.581 0.70605 -1.39444 0
M  V30 5652 H 536.316 3.15604 -0.745948 0
M  V30 5653 H 536.101 3.00878 -2.51425 0
M  V30 5654 H 537.591 3.74359 -1.85054 0
M  V30 5655 N 538.028 1.39524 0.732853 0
M  V30 5656 C 538.96 1.34318 1.85718 0
M  V30 5657 C 539.973 0.251576 1.60844 0
M  V30 5658 O 541.162 0.510685 1.71039 0
M  V30 5659 C 538.262 1.06334 3.21786 0
M  V30 5660 C 537.435 2.26813 3.73998 0
M  V30 5661 C 536.494 1.95253 4.88634 0
M  V30 5662 O 535.52 2.67957 5.02183 0
M  V30 5663 N 536.722 0.919984 5.73164 0
M  V30 5664 H 539.487 2.3121 1.90688 0
M  V30 5665 H 537.048 1.33654 0.91368 0
M  V30 5666 H 539.04 0.832363 3.96048 0
M  V30 5667 H 537.61 0.181682 3.12072 0
M  V30 5668 H 536.83 2.65849 2.91064 0
M  V30 5669 H 538.118 3.0717 4.05616 0
M  V30 5670 H 537.516 0.317487 5.64808 0
M  V30 5671 H 536.073 0.748905 6.47483 0
M  V30 5672 N 539.506 -0.963266 1.24736 0
M  V30 5673 C 540.436 -2.07628 1.06832 0
M  V30 5674 C 541.417 -1.70088 -0.0200566 0
M  V30 5675 O 542.602 -1.93636 0.147854 0
M  V30 5676 C 539.732 -3.40636 0.677069 0
M  V30 5677 C 538.686 -3.9215 1.71471 0
M  V30 5678 C 538.012 -5.21553 1.1784 0
M  V30 5679 C 539.312 -4.19493 3.11164 0
M  V30 5680 H 541.006 -2.22864 1.9993 0
M  V30 5681 H 538.552 -1.07093 0.96266 0
M  V30 5682 H 540.505 -4.17941 0.538792 0
M  V30 5683 H 539.229 -3.25313 -0.289612 0
M  V30 5684 H 537.888 -3.17005 1.84128 0
M  V30 5685 H 537.536 -5.02593 0.202195 0
M  V30 5686 H 537.236 -5.56988 1.87185 0
M  V30 5687 H 538.76 -6.01463 1.05233 0
M  V30 5688 H 540.174 -4.87487 3.01711 0
M  V30 5689 H 538.571 -4.66165 3.77902 0
M  V30 5690 H 539.641 -3.26097 3.58871 0
M  V30 5691 N 540.985 -1.06182 -1.16461 0
M  V30 5692 C 542.213 -0.798583 -1.90867 0
M  V30 5693 C 542.628 0.646921 -1.77371 0
M  V30 5694 O 541.985 1.44279 -1.11758 0
M  V30 5695 C 542.036 -1.18258 -3.4161 0
M  V30 5696 O 541.757 -2.57135 -3.54701 0
M  V30 5697 C 543.258 -0.946917 -4.33069 0
M  V30 5698 H 540.478 -0.289603 -0.605286 0
M  V30 5699 H 543.022 -1.41515 -1.47627 0
M  V30 5700 H 541.177 -0.610562 -3.82558 0
M  V30 5701 H 541.591 -2.72477 -4.4817 0
M  V30 5702 H 543.065 -1.26523 -5.37304 0
M  V30 5703 H 543.542 0.117406 -4.39043 0
M  V30 5704 H 544.148 -1.50326 -3.97847 0
M  V30 5705 N 542.463 1.3308 -0.844243 0
M  V30 5706 C 543.413 2.26589 -0.253289 0
M  V30 5707 C 544.397 1.49501 0.594836 0
M  V30 5708 O 545.589 1.71291 0.445924 0
M  V30 5709 C 542.718 3.38599 0.566176 0
M  V30 5710 C 541.804 4.23081 -0.293756 0
M  V30 5711 N 542.195 4.86751 -1.37505 0
M  V30 5712 C 540.493 4.45925 -0.0817086 0
M  V30 5713 C 541.194 5.49684 -1.90323 0
M  V30 5714 N 540.17 5.30101 -1.20391 0
M  V30 5715 H 543.972 2.73334 -1.08009 0
M  V30 5716 H 541.486 1.47048 -0.689258 0
M  V30 5717 H 543.483 4.04584 1.00587 0
M  V30 5718 H 542.143 2.93401 1.39089 0
M  V30 5719 H 543.154 4.87151 -1.75796 0
M  V30 5720 H 539.831 4.11434 0.709129 0
M  V30 5721 H 541.221 6.10363 -2.80902 0
M  V30 5722 N 543.941 0.601185 1.45683 0
M  V30 5723 C 544.871 -0.108824 2.33246 0
M  V30 5724 C 545.852 -0.865223 1.46451 0
M  V30 5725 O 547.037 -0.83704 1.75235 0
M  V30 5726 C 544.167 -1.11101 3.2905 0
M  V30 5727 C 543.121 -0.468244 4.25431 0
M  V30 5728 C 542.447 -1.57822 5.10878 0
M  V30 5729 C 543.747 0.606469 5.18767 0
M  V30 5730 H 545.441 0.622306 2.92861 0
M  V30 5731 H 542.987 0.300714 1.40825 0
M  V30 5732 H 544.94 -1.61622 3.89174 0
M  V30 5733 H 543.664 -1.87265 2.67581 0
M  V30 5734 H 542.323 0.0160484 3.66596 0
M  V30 5735 H 541.971 -2.32998 4.45781 0
M  V30 5736 H 541.671 -1.15369 5.76163 0
M  V30 5737 H 543.195 -2.08583 5.73869 0
M  V30 5738 H 544.609 0.185589 5.73 0
M  V30 5739 H 543.006 0.952381 5.92494 0
M  V30 5740 H 544.076 1.48559 4.61582 0
M  V30 5741 N 545.419 -1.53889 0.339982 0
M  V30 5742 C 546.349 -2.27843 -0.510856 0
M  V30 5743 C 547.33 -1.29267 -1.10563 0
M  V30 5744 O 548.515 -1.58104 -1.12768 0
M  V30 5745 C 545.645 -3.04857 -1.66372 0
M  V30 5746 C 544.599 -4.10907 -1.19746 0
M  V30 5747 C 543.925 -4.75855 -2.43857 0
M  V30 5748 C 545.225 -5.21435 -0.300501 0
M  V30 5749 H 546.919 -2.99212 0.106067 0
M  V30 5750 H 544.465 -1.43904 0.0524533 0
M  V30 5751 H 546.418 -3.5533 -2.26537 0
M  V30 5752 H 545.142 -2.31133 -2.30749 0
M  V30 5753 H 543.801 -3.61342 -0.618654 0
M  V30 5754 H 543.449 -3.9873 -3.06633 0
M  V30 5755 H 543.149 -5.47502 -2.13343 0
M  V30 5756 H 544.673 -5.2911 -3.04754 0
M  V30 5757 H 546.087 -5.67565 -0.80889 0
M  V30 5758 H 544.484 -6.00036 -0.0874076 0
M  V30 5759 H 545.554 -4.80328 0.664321 0
M  V30 5760 N 546.897 -0.0685191 -1.57451 0
M  V30 5761 C 547.83 0.935736 -2.08133 0
M  V30 5762 C 548.808 1.29317 -0.985698 0
M  V30 5763 O 549.992 1.40304 -1.25886 0
M  V30 5764 C 547.119 2.2448 -2.53627 0
M  V30 5765 C 546.165 2.03917 -3.74593 0
M  V30 5766 S 546.998 1.30154 -5.19442 0
M  V30 5767 C 548.154 2.62346 -5.68265 0
M  V30 5768 H 548.387 0.504473 -2.92989 0
M  V30 5769 H 545.92 0.144169 -1.53725 0
M  V30 5770 H 547.878 2.99718 -2.80499 0
M  V30 5771 H 546.539 2.64731 -1.69045 0
M  V30 5772 H 545.732 3.00788 -4.04404 0
M  V30 5773 H 545.334 1.36815 -3.48077 0
M  V30 5774 H 547.626 3.58448 -5.7491 0
M  V30 5775 H 548.569 2.3715 -6.67207 0
M  V30 5776 H 548.977 2.69401 -4.96068 0
M  V30 5777 N 548.375 1.56261 0.205012 0
M  V30 5778 C 549.623 1.79684 0.925096 0
M  V30 5779 C 549.944 0.63989 1.84202 0
M  V30 5780 O 549.214 -0.342345 1.92885 0
M  V30 5781 H 547.794 0.662774 0.344587 0
M  V30 5782 H 550.456 1.93734 0.212899 0
M  V30 5783 H 549.552 2.72467 1.52211 0
M  V30 5784 N 549.853 -0.472356 1.50355 0
M  V30 5785 C 550.783 -1.57859 1.72055 0
M  V30 5786 C 551.764 -1.60283 0.569505 0
M  V30 5787 O 552.949 -1.7657 0.808503 0
M  V30 5788 C 550.079 -2.96191 1.81351 0
M  V30 5789 C 549.033 -3.08633 2.96529 0
M  V30 5790 C 548.359 -4.486 2.90968 0
M  V30 5791 C 549.659 -2.85969 4.37057 0
M  V30 5792 H 551.353 -1.39953 2.64676 0
M  V30 5793 H 548.899 -0.671846 1.27367 0
M  V30 5794 H 550.852 -3.73507 1.95117 0
M  V30 5795 H 549.576 -3.15251 0.853502 0
M  V30 5796 H 548.235 -2.33749 2.82413 0
M  V30 5797 H 547.883 -4.64577 1.92815 0
M  V30 5798 H 547.583 -4.57861 3.68289 0
M  V30 5799 H 549.107 -5.27938 3.0678 0
M  V30 5800 H 550.521 -3.53036 4.51706 0
M  V30 5801 H 548.918 -3.06677 5.15819 0
M  V30 5802 H 549.988 -1.81838 4.49514 0
M  V30 5803 N 551.331 -1.39911 -0.725443 0
M  V30 5804 C 552.294 -1.39156 -1.82121 0
M  V30 5805 C 553.294 -0.287018 -1.58218 0
M  V30 5806 O 554.484 -0.545421 -1.65441 0
M  V30 5807 C 551.616 -1.1736 -3.20062 0
M  V30 5808 H 552.809 -2.36672 -1.84191 0
M  V30 5809 H 550.362 -1.25615 -0.930079 0
M  V30 5810 H 551.097 -0.205648 -3.23647 0
M  V30 5811 H 550.882 -1.97358 -3.3881 0
M  V30 5812 H 552.372 -1.19596 -4.00108 0
M  V30 5813 N 552.809 0.956637 -1.25245 0
M  V30 5814 C 554.057 1.69764 -1.09657 0
M  V30 5815 C 554.378 1.91583 0.363464 0
M  V30 5816 O 553.648 1.50149 1.25825 0
M  V30 5817 H 552.228 0.629097 -0.402798 0
M  V30 5818 H 554.89 1.15026 -1.57337 0
M  V30 5819 H 553.986 2.67769 -1.60331 0
M  V30 5820 N 554.287 1.06798 1.15896 0
M  V30 5821 C 555.535 0.786211 1.8618 0
M  V30 5822 C 555.856 -0.689547 1.82401 0
M  V30 5823 O 555.126 -1.49913 1.26107 0
M  V30 5824 H 553.706 0.287843 0.689315 0
M  V30 5825 H 556.368 1.35055 1.40521 0
M  V30 5826 H 555.464 1.1157 2.91477 0
M  V30 5827 N 555.766 -1.3263 0.851289 0
M  V30 5828 C 556.713 -2.28952 0.291469 0
M  V30 5829 C 557.683 -1.54897 -0.599676 0
M  V30 5830 O 558.868 -1.83137 -0.535305 0
M  V30 5831 C 556.008 -3.41206 -0.516992 0
M  V30 5832 C 555.121 -4.30148 0.399566 0
M  V30 5833 C 554.256 -5.29527 -0.4212 0
M  V30 5834 C 553.295 -6.10112 0.492969 0
M  V30 5835 N 552.432 -7.01499 -0.290414 0
M  V30 5836 H 557.272 -2.76228 1.11813 0
M  V30 5837 H 554.809 -1.35907 0.562826 0
M  V30 5838 H 556.767 -4.05005 -1.00132 0
M  V30 5839 H 555.397 -2.9509 -1.30851 0
M  V30 5840 H 554.449 -3.66959 1.00227 0
M  V30 5841 H 555.761 -4.8649 1.1013 0
M  V30 5842 H 554.915 -5.98914 -0.968832 0
M  V30 5843 H 553.654 -4.73794 -1.15632 0
M  V30 5844 H 552.659 -5.39632 1.05251 0
M  V30 5845 H 553.884 -6.6793 1.22664 0
M  V30 5846 H 551.83 -6.48199 -1.00868 0
M  V30 5847 H 551.747 -7.55178 0.352354 0
M  V30 5848 H 553.015 -7.75176 -0.819882 0
M  V30 5849 N 557.244 -0.608902 -1.45362 0
M  V30 5850 C 558.174 0.0964526 -2.33301 0
M  V30 5851 C 559.155 0.857444 -1.46908 0
M  V30 5852 O 560.34 0.827735 -1.75676 0
M  V30 5853 C 557.47 1.09354 -3.29635 0
M  V30 5854 C 556.424 0.445676 -4.25673 0
M  V30 5855 C 555.75 1.5511 -5.11708 0
M  V30 5856 C 557.05 -0.633972 -5.18438 0
M  V30 5857 H 558.744 -0.637829 -2.92527 0
M  V30 5858 H 556.29 -0.308178 -1.40664 0
M  V30 5859 H 558.243 1.59556 -3.90025 0
M  V30 5860 H 556.967 1.85843 -2.6857 0
M  V30 5861 H 555.626 -0.0354897 -3.66583 0
M  V30 5862 H 555.274 2.30631 -4.4701 0
M  V30 5863 H 554.974 1.12311 -5.76767 0
M  V30 5864 H 556.498 2.05537 -5.74967 0
M  V30 5865 H 557.912 -0.215974 -5.72893 0
M  V30 5866 H 556.309 -0.983789 -5.91981 0
M  V30 5867 H 557.379 -1.51005 -4.60788 0
M  V30 5868 N 558.722 1.53707 -0.348139 0
M  V30 5869 C 559.971 2.0017 0.247992 0
M  V30 5870 C 560.284 1.23983 1.51286 0
M  V30 5871 O 561.49 1.60946 2.18652 0
M  V30 5872 C 559.946 3.56515 0.492459 0
M  V30 5873 C 559.554 4.41562 -0.756777 0
M  V30 5874 C 561.298 4.11381 1.0472 0
M  V30 5875 C 559.205 5.89426 -0.482856 0
M  V30 5876 H 558.135 0.747806 0.0964452 0
M  V30 5877 H 560.786 1.77532 -0.464179 0
M  V30 5878 H 559.168 3.75236 1.26545 0
M  V30 5879 H 560.342 4.34615 -1.53122 0
M  V30 5880 H 558.657 3.97711 -1.23348 0
M  V30 5881 H 561.254 5.19468 1.26717 0
M  V30 5882 H 561.597 3.64885 2.00411 0
M  V30 5883 H 562.13 3.96389 0.334801 0
M  V30 5884 H 558.869 6.40164 -1.40962 0
M  V30 5885 H 558.389 5.99264 0.253416 0
M  V30 5886 H 560.068 6.4692 -0.101816 0
M  V30 5887 N 560.2 0.0768682 1.57412 0
M  V30 5888 C 561.13 -0.886026 2.16037 0
M  V30 5889 C 562.111 -1.30691 1.08876 0
M  V30 5890 O 563.296 -1.37705 1.36934 0
M  V30 5891 C 560.426 -2.1518 2.72608 0
M  V30 5892 C 559.38 -1.87015 3.8498 0
M  V30 5893 C 558.706 -3.20266 4.28175 0
M  V30 5894 C 560.006 -1.17143 5.08994 0
M  V30 5895 H 561.7 -0.397642 2.96748 0
M  V30 5896 H 559.246 -0.189823 1.42743 0
M  V30 5897 H 561.199 -2.82962 3.12266 0
M  V30 5898 H 559.923 -2.66269 1.89125 0
M  V30 5899 H 558.582 -1.21636 3.45833 0
M  V30 5900 H 558.23 -3.69207 3.41607 0
M  V30 5901 H 557.93 -3.0221 5.03927 0
M  V30 5902 H 559.454 -3.89237 4.70454 0
M  V30 5903 H 560.868 -1.75003 5.45937 0
M  V30 5904 H 559.265 -1.09328 5.90057 0
M  V30 5905 H 560.335 -0.151295 4.84664 0
M  V30 5906 N 561.678 -1.56367 -0.196722 0
M  V30 5907 C 562.903 -1.84991 -0.937714 0
M  V30 5908 C 563.328 -0.660244 -1.76132 0
M  V30 5909 O 562.686 0.390967 -1.77034 0
M  V30 5910 C 562.734 -3.11828 -1.81096 0
M  V30 5911 O 561.838 -2.92266 -2.90955 0
M  V30 5912 H 561.179 -0.609193 -0.264159 0
M  V30 5913 H 563.709 -2.03595 -0.202529 0
M  V30 5914 H 563.719 -3.42579 -2.21594 0
M  V30 5915 H 562.394 -3.98037 -1.2058 0
M  V30 5916 H 560.971 -2.72809 -2.54224 0
M  V30 5917 N 563.156 0.464375 -1.50603 0
M  V30 5918 C 564.086 1.56944 -1.72889 0
M  V30 5919 C 565.067 1.59979 -0.577997 0
M  V30 5920 O 566.252 1.76138 -0.817855 0
M  V30 5921 C 563.382 2.95225 -1.8292 0
M  V30 5922 C 562.336 3.07056 -2.98162 0
M  V30 5923 C 561.662 4.47051 -2.93343 0
M  V30 5924 C 562.962 2.83648 -4.38567 0
M  V30 5925 H 564.656 1.38547 -2.65415 0
M  V30 5926 H 562.202 0.665082 -1.27721 0
M  V30 5927 H 564.155 3.72467 -1.97095 0
M  V30 5928 H 562.879 3.14793 -0.870209 0
M  V30 5929 H 561.538 2.32248 -2.83648 0
M  V30 5930 H 561.186 4.63547 -1.95276 0
M  V30 5931 H 560.886 4.55902 -3.70712 0
M  V30 5932 H 562.41 5.26304 -3.09575 0
M  V30 5933 H 563.824 3.50636 -4.53572 0
M  V30 5934 H 562.221 3.03937 -5.17438 0
M  V30 5935 H 563.291 1.79451 -4.50472 0
M  V30 5936 N 564.634 1.40294 0.718013 0
M  V30 5937 C 565.544 1.42678 1.86226 0
M  V30 5938 C 566.56 0.319655 1.71039 0
M  V30 5939 O 567.736 0.563852 1.93346 0
M  V30 5940 C 564.801 1.2852 3.21999 0
M  V30 5941 C 563.862 2.49354 3.49458 0
M  V30 5942 C 563.095 2.35863 4.78753 0
M  V30 5943 O 563.318 1.37114 5.53675 0
M  V30 5944 O 562.252 3.25189 5.06494 0
M  V30 5945 H 566.078 2.39167 1.87171 0
M  V30 5946 H 563.663 1.2159 0.868112 0
M  V30 5947 H 565.545 1.22824 4.03103 0
M  V30 5948 H 564.22 0.351359 3.21787 0
M  V30 5949 H 563.127 2.60628 2.68373 0
M  V30 5950 H 564.46 3.41491 3.54464 0
M  V30 5951 N 566.112 -0.949982 1.2575 0
M  V30 5952 C 567.36 -1.6918 1.10555 0
M  V30 5953 C 567.681 -1.91773 -0.353298 0
M  V30 5954 O 566.951 -1.50814 -1.25027 0
M  V30 5955 H 565.531 -0.626952 0.406129 0
M  V30 5956 H 568.193 -1.1419 1.57945 0
M  V30 5957 H 567.289 -2.66915 1.61749 0
M  V30 5958 N 567.59 -1.07411 -1.15328 0
M  V30 5959 C 568.838 -0.796073 -1.85761 0
M  V30 5960 C 569.159 0.679864 -1.82764 0
M  V30 5961 O 568.429 1.49242 -1.269 0
M  V30 5962 H 567.009 -0.291495 -0.687779 0
M  V30 5963 H 569.671 -1.35799 -1.39802 0
M  V30 5964 H 568.767 -1.13114 -2.90881 0
M  V30 5965 N 569.068 1.32177 -0.85831 0
M  V30 5966 C 570.298 2.01021 -0.476889 0
M  V30 5967 C 570.706 1.64653 0.931995 0
M  V30 5968 O 570.049 0.865713 1.62022 0
M  V30 5969 C 570.111 3.55413 -0.540528 0
M  V30 5970 C 569.775 4.1522 -1.90895 0
M  V30 5971 C 570.772 4.3318 -2.87491 0
M  V30 5972 C 568.457 4.51212 -2.20709 0
M  V30 5973 C 570.451 4.86306 -4.1205 0
M  V30 5974 C 568.138 5.04042 -3.45521 0
M  V30 5975 C 569.136 5.21538 -4.41007 0
M  V30 5976 O 568.824 5.73238 -5.63608 0
M  V30 5977 H 568.556 0.650059 -0.18547 0
M  V30 5978 H 571.11 1.69648 -1.15796 0
M  V30 5979 H 569.34 3.86196 0.19741 0
M  V30 5980 H 571.029 4.05526 -0.174191 0
M  V30 5981 H 571.795 4.05704 -2.65762 0
M  V30 5982 H 567.674 4.36878 -1.4717 0
M  V30 5983 H 571.218 4.99877 -4.86589 0
M  V30 5984 H 567.115 5.30952 -3.67098 0
M  V30 5985 H 567.883 5.91625 -5.65617 0
M  V30 5986 N 570.547 0.616602 1.45037 0
M  V30 5987 C 571.495 -0.109318 2.32343 0
M  V30 5988 C 572.489 -0.850543 1.465 0
M  V30 5989 O 573.695 -0.765088 1.62931 0
M  V30 5990 H 570.07 -0.0541091 0.750051 0
M  V30 5991 H 572.041 0.645326 2.91338 0
M  V30 5992 C 570.79 -1.0872 3.30266 0
M  V30 5993 H 570.113 -0.526267 3.96321 0
M  V30 5994 H 571.553 -1.56489 3.94065 0
M  V30 5995 C 570.012 -2.16525 2.58105 0
M  V30 5996 O 570.542 -3.244 2.36913 0
M  V30 5997 N 568.748 -1.92057 2.18088 0
M  V30 5998 H 568.295 -1.04337 2.35524 0
M  V30 5999 H 568.253 -2.64391 1.70131 0
M  V30 6000 N 572.025 -1.5352 0.356285 0
M  V30 6001 C 572.955 -2.28372 -0.486661 0
M  V30 6002 C 573.936 -1.30432 -1.09185 0
M  V30 6003 O 575.121 -1.59291 -1.11085 0
M  V30 6004 C 572.251 -3.06604 -1.63129 0
M  V30 6005 C 571.205 -4.12154 -1.15381 0
M  V30 6006 C 570.531 -4.78415 -2.38796 0
M  V30 6007 C 571.831 -5.21724 -0.245179 0
M  V30 6008 H 573.525 -2.99083 0.137797 0
M  V30 6009 H 571.071 -1.43841 0.0677134 0
M  V30 6010 H 573.024 -3.57712 -2.22755 0
M  V30 6011 H 571.748 -2.33568 -2.28284 0
M  V30 6012 H 570.407 -3.61978 -0.580294 0
M  V30 6013 H 570.055 -4.01959 -3.02387 0
M  V30 6014 H 569.755 -5.49734 -2.07524 0
M  V30 6015 H 571.279 -5.32313 -2.99125 0
M  V30 6016 H 572.693 -5.68391 -0.748646 0
M  V30 6017 H 571.09 -6.00095 -0.0237608 0
M  V30 6018 H 572.16 -4.79596 0.715229 0
M  V30 6019 N 573.503 -0.0852151 -1.57369 0
M  V30 6020 C 574.919 0.271436 -1.57275 0
M  V30 6021 C 575.119 1.69109 -1.09565 0
M  V30 6022 O 574.175 2.40549 -0.767611 0
M  V30 6023 C 575.488 0.0688638 -3.00621 0
M  V30 6024 C 577.036 0.137373 -3.12698 0
M  V30 6025 C 577.511 -0.0370832 -4.57985 0
M  V30 6026 N 579.002 0.0180794 -4.63196 0
M  V30 6027 C 579.737 -0.0922953 -5.73326 0
M  V30 6028 N 579.233 -0.256948 -6.92323 0
M  V30 6029 N 581.026 -0.0342702 -5.6209 0
M  V30 6030 H 573.177 -1.01288 -1.86693 0
M  V30 6031 H 575.44 -0.396138 -0.861266 0
M  V30 6032 H 575.146 -0.911277 -3.39689 0
M  V30 6033 H 575.02 0.815442 -3.6828 0
M  V30 6034 H 577.407 1.10801 -2.73509 0
M  V30 6035 H 577.488 -0.640532 -2.47651 0
M  V30 6036 H 577.132 -1.00455 -4.97867 0
M  V30 6037 H 577.062 0.760392 -5.21081 0
M  V30 6038 H 579.553 0.143202 -3.77629 0
M  V30 6039 H 579.866 -0.332949 -7.72082 0
M  V30 6040 H 578.211 -0.292487 -6.94384 0
M  V30 6041 H 581.402 0.0931605 -4.68007 0
M  V30 6042 H 581.575 -0.12374 -6.47882 0
M  V30 6043 N 574.981 1.5647 0.188427 0
M  V30 6044 C 575.944 1.9421 1.21718 0
M  V30 6045 C 576.944 0.823901 1.38089 0
M  V30 6046 O 578.134 1.09122 1.35787 0
M  V30 6047 C 575.266 2.22197 2.58537 0
M  V30 6048 H 576.459 2.86252 0.894418 0
M  V30 6049 H 574.012 1.50263 0.430211 0
M  V30 6050 H 574.747 1.32814 2.95856 0
M  V30 6051 H 574.532 3.03688 2.48025 0
M  V30 6052 H 576.022 2.52376 3.3271 0
M  V30 6053 N 576.459 -0.456382 1.50847 0
M  V30 6054 C 577.389 -1.56025 1.73719 0
M  V30 6055 C 578.37 -1.5967 0.586473 0
M  V30 6056 O 579.555 -1.75702 0.827185 0
M  V30 6057 C 576.685 -2.94251 1.84483 0
M  V30 6058 C 575.639 -3.05471 2.99786 0
M  V30 6059 C 574.965 -4.45489 2.95709 0
M  V30 6060 C 576.265 -2.81318 4.40065 0
M  V30 6061 H 577.959 -1.37138 2.66146 0
M  V30 6062 H 575.505 -0.658299 1.28072 0
M  V30 6063 H 577.458 -3.71417 1.99067 0
M  V30 6064 H 576.182 -3.14328 0.886891 0
M  V30 6065 H 574.841 -2.30741 2.84876 0
M  V30 6066 H 574.489 -4.62505 1.97732 0
M  V30 6067 H 574.189 -4.53929 3.73125 0
M  V30 6068 H 575.713 -5.24655 3.12362 0
M  V30 6069 H 577.127 -3.48226 4.55425 0
M  V30 6070 H 575.524 -3.01188 5.19043 0
M  V30 6071 H 576.594 -1.7706 4.51418 0
M  V30 6072 N 577.937 -1.40673 -0.710563 0
M  V30 6073 C 578.9 -1.4108 -1.80635 0
M  V30 6074 C 579.9 -0.303783 -1.57904 0
M  V30 6075 O 581.09 -0.562937 -1.64853 0
M  V30 6076 C 578.222 -1.20748 -3.18799 0
M  V30 6077 H 579.415 -2.38612 -1.81671 0
M  V30 6078 H 576.968 -1.26595 -0.916704 0
M  V30 6079 H 577.703 -0.239964 -3.23411 0
M  V30 6080 H 577.488 -2.00941 -3.36698 0
M  V30 6081 H 578.978 -1.23833 -3.98817 0
M  V30 6082 N 579.415 0.9433 -1.26252 0
M  V30 6083 C 580.325 2.07532 -1.09397 0
M  V30 6084 C 581.341 1.73977 -0.0280449 0
M  V30 6085 O 582.517 2.00067 -0.231337 0
M  V30 6086 C 579.582 3.39002 -0.726523 0
M  V30 6087 C 578.643 3.86353 -1.87163 0
M  V30 6088 C 577.876 5.11549 -1.52162 0
M  V30 6089 O 578.099 5.68834 -0.422385 0
M  V30 6090 O 577.033 5.53889 -2.35565 0
M  V30 6091 H 580.859 2.24658 -2.04359 0
M  V30 6092 H 578.444 1.05988 -1.05295 0
M  V30 6093 H 580.326 4.18 -0.534236 0
M  V30 6094 H 579.001 3.2312 0.193721 0
M  V30 6095 H 577.908 3.0831 -2.11886 0
M  V30 6096 H 579.241 4.06752 -2.77152 0
M  V30 6097 N 580.893 1.08022 1.14757 0
M  V30 6098 C 582.141 0.805913 1.85336 0
M  V30 6099 C 582.462 -0.670162 1.83122 0
M  V30 6100 O 581.732 -1.48567 1.2769 0
M  V30 6101 H 580.312 0.295138 0.686223 0
M  V30 6102 H 582.974 1.36538 1.3908 0
M  V30 6103 H 582.07 1.14655 2.90277 0
M  V30 6104 N 582.371 -1.3172 0.865308 0
M  V30 6105 C 583.617 -1.97168 0.474633 0
M  V30 6106 C 583.95 -1.68263 -0.969604 0
M  V30 6107 O 583.225 -0.976588 -1.68205 0
M  V30 6108 C 583.508 -3.52689 0.726808 0
M  V30 6109 C 583.361 -3.91185 2.22024 0
M  V30 6110 C 584.68 -4.39689 0.190201 0
M  V30 6111 H 581.799 -0.716185 0.17392 0
M  V30 6112 H 584.441 -1.55925 1.08569 0
M  V30 6113 H 582.591 -3.8795 0.206705 0
M  V30 6114 H 584.263 -3.66049 2.80724 0
M  V30 6115 H 582.506 -3.3996 2.69462 0
M  V30 6116 H 583.177 -4.99604 2.34735 0
M  V30 6117 H 585.653 -4.11225 0.635103 0
M  V30 6118 H 584.529 -5.47469 0.396132 0
M  V30 6119 H 584.79 -4.32683 -0.907625 0
M  V30 6120 N 583.85 -0.624285 -1.44708 0
M  V30 6121 C 585.075 -0.131171 -2.06985 0
M  V30 6122 C 585.5 1.18234 -1.46295 0
M  V30 6123 O 584.858 1.72375 -0.561842 0
M  V30 6124 C 584.906 -0.0226724 -3.60593 0
M  V30 6125 O 584.01 1.02314 -3.99507 0
M  V30 6126 H 583.351 -0.0816556 -0.65896 0
M  V30 6127 H 585.88 -0.859027 -1.85693 0
M  V30 6128 H 585.891 0.170138 -4.07645 0
M  V30 6129 H 584.566 -0.981685 -4.04148 0
M  V30 6130 H 583.143 0.805452 -3.64097 0
M  V30 6131 N 585.328 1.53329 -0.364422 0
M  V30 6132 C 586.291 2.24323 0.470292 0
M  V30 6133 C 587.291 1.25068 1.01067 0
M  V30 6134 O 588.481 1.49354 0.896605 0
M  V30 6135 C 585.613 2.97908 1.65722 0
M  V30 6136 H 586.806 2.9952 -0.150917 0
M  V30 6137 H 584.359 1.55868 -0.116092 0
M  V30 6138 H 585.094 2.2695 2.31655 0
M  V30 6139 H 584.879 3.70732 1.27671 0
M  V30 6140 H 586.369 3.5188 2.24878 0
M  V30 6141 N 586.806 0.0935595 1.57322 0
M  V30 6142 C 588.031 -0.582324 1.99057 0
M  V30 6143 C 588.456 -1.61025 0.972242 0
M  V30 6144 O 587.814 -1.81202 -0.0594622 0
M  V30 6145 C 587.862 -1.20799 3.39765 0
M  V30 6146 O 586.966 -2.32382 3.40694 0
M  V30 6147 H 586.307 -0.147884 0.647323 0
M  V30 6148 H 588.837 0.174516 2.03854 0
M  V30 6149 H 588.847 -1.54966 3.77425 0
M  V30 6150 H 587.522 -0.454914 4.13405 0
M  V30 6151 H 586.099 -1.99845 3.14827 0
M  V30 6152 N 588.284 -1.56567 -0.180126 0
M  V30 6153 C 589.214 -1.98753 -1.22553 0
M  V30 6154 C 590.195 -0.86175 -1.46656 0
M  V30 6155 O 591.38 -1.12719 -1.58139 0
M  V30 6156 C 588.51 -2.33988 -2.56645 0
M  V30 6157 C 587.464 -3.49445 -2.47128 0
M  V30 6158 C 586.79 -3.70397 -3.8563 0
M  V30 6159 C 588.09 -4.83171 -1.98352 0
M  V30 6160 H 589.784 -2.86332 -0.874896 0
M  V30 6161 H 587.33 -1.37757 -0.419414 0
M  V30 6162 H 589.283 -2.62097 -3.29974 0
M  V30 6163 H 588.007 -1.43309 -2.93479 0
M  V30 6164 H 586.666 -3.2145 -1.76254 0
M  V30 6165 H 586.314 -2.77023 -4.19842 0
M  V30 6166 H 586.014 -4.48077 -3.80132 0
M  V30 6167 H 587.538 -4.00897 -4.60558 0
M  V30 6168 H 588.952 -5.10213 -2.61449 0
M  V30 6169 H 587.349 -5.64425 -2.03823 0
M  V30 6170 H 588.419 -4.75753 -0.937402 0
M  V30 6171 N 589.762 0.448376 -1.51087 0
M  V30 6172 C 590.712 1.54156 -1.67988 0
M  V30 6173 C 591.696 1.5178 -0.534015 0
M  V30 6174 O 592.888 1.58419 -0.789448 0
M  V30 6175 C 590.017 2.92437 -1.79822 0
M  V30 6176 C 589.103 2.99611 -3.00157 0
M  V30 6177 N 589.494 2.7655 -4.23502 0
M  V30 6178 C 587.792 3.30764 -2.99184 0
M  V30 6179 C 588.493 2.89281 -5.0467 0
M  V30 6180 N 587.469 3.20473 -4.39088 0
M  V30 6181 H 591.271 1.35061 -2.61028 0
M  V30 6182 H 588.785 0.655504 -1.48583 0
M  V30 6183 H 590.782 3.71068 -1.90037 0
M  V30 6184 H 589.442 3.1256 -0.879554 0
M  V30 6185 H 590.453 2.5169 -4.52628 0
M  V30 6186 H 587.13 3.56732 -2.16907 0
M  V30 6187 H 588.52 2.75499 -6.12821 0
M  V30 6188 N 591.24 1.41047 0.703093 0
M  V30 6189 C 592.468 1.4334 1.49202 0
M  V30 6190 C 592.883 0.0365596 1.88765 0
M  V30 6191 O 592.24 -0.942419 1.56284 0
M  V30 6192 C 592.291 2.33538 2.75939 0
M  V30 6193 O 592.012 3.67786 2.38045 0
M  V30 6194 C 593.513 2.44555 3.6974 0
M  V30 6195 H 590.733 0.488472 0.460039 0
M  V30 6196 H 593.277 1.85245 0.86629 0
M  V30 6197 H 591.432 1.94962 3.34766 0
M  V30 6198 H 591.846 4.15816 3.19683 0
M  V30 6199 H 593.32 3.11849 4.55471 0
M  V30 6200 H 593.797 1.47447 4.1371 0
M  V30 6201 H 594.403 2.83735 3.16819 0
M  V30 6202 N 592.718 -0.936591 1.26751 0
M  V30 6203 C 593.648 -2.05315 1.11212 0
M  V30 6204 C 594.629 -1.70092 0.0160262 0
M  V30 6205 O 595.814 -1.93279 0.188894 0
M  V30 6206 C 592.944 -3.39123 0.749171 0
M  V30 6207 C 591.898 -3.88425 1.79751 0
M  V30 6208 C 591.224 -5.18936 1.28876 0
M  V30 6209 C 592.524 -4.12798 3.19992 0
M  V30 6210 H 594.218 -2.18573 2.04613 0
M  V30 6211 H 591.764 -1.05027 0.985159 0
M  V30 6212 H 593.717 -4.16704 0.627323 0
M  V30 6213 H 592.441 -3.25855 -0.220543 0
M  V30 6214 H 591.1 -3.13028 1.90811 0
M  V30 6215 H 590.748 -5.02051 0.308757 0
M  V30 6216 H 590.448 -5.52892 1.98958 0
M  V30 6217 H 591.972 -5.99096 1.17967 0
M  V30 6218 H 593.386 -4.80977 3.11983 0
M  V30 6219 H 591.783 -4.58044 3.87705 0
M  V30 6220 H 592.853 -3.18412 3.65707 0
M  V30 6221 N 594.196 -1.08629 -1.14182 0
M  V30 6222 C 595.126 -0.740003 -2.21464 0
M  V30 6223 C 596.107 0.278591 -1.67803 0
M  V30 6224 O 597.292 0.148461 -1.93632 0
M  V30 6225 C 594.422 -0.150952 -3.46972 0
M  V30 6226 C 593.376 -1.09815 -4.13672 0
M  V30 6227 C 592.702 -0.3712 -5.3341 0
M  V30 6228 C 594.002 -2.43722 -4.61949 0
M  V30 6229 H 595.696 -1.63697 -2.50686 0
M  V30 6230 H 593.242 -0.788526 -1.20492 0
M  V30 6231 H 595.195 0.103325 -4.21273 0
M  V30 6232 H 593.919 0.781164 -3.1712 0
M  V30 6233 H 592.578 -1.33756 -3.41328 0
M  V30 6234 H 592.226 0.564792 -4.99819 0
M  V30 6235 H 591.926 -1.00267 -5.78982 0
M  V30 6236 H 593.45 -0.12503 -6.10472 0
M  V30 6237 H 594.864 -2.24034 -5.27714 0
M  V30 6238 H 593.261 -3.02582 -5.18232 0
M  V30 6239 H 594.331 -3.05082 -3.76899 0
M  V30 6240 N 595.674 1.31259 -0.872281 0
M  V30 6241 C 596.922 1.96233 -0.483409 0
M  V30 6242 C 597.243 1.69276 0.968012 0
M  V30 6243 O 596.513 1.00943 1.67891 0
M  V30 6244 H 595.093 0.726025 -0.175774 0
M  V30 6245 H 597.755 1.60024 -1.11258 0
M  V30 6246 H 596.851 3.05403 -0.643075 0
M  V30 6247 N 597.152 0.631951 1.44375 0
M  V30 6248 C 598.429 0.067646 1.95483 0
M  V30 6249 C 598.809 -1.40683 1.57389 0
M  V30 6250 O 598.157 -2.12167 0.848375 0
M  V30 6251 C 598.367 0.291392 3.47781 0
M  V30 6252 C 599.715 0.185028 4.24197 0
M  V30 6253 O 600.739 0.222803 3.55503 0
M  V30 6254 O 599.598 0.0906642 5.46425 0
M  V30 6255 H 596.692 -0.0218379 0.826712 0
M  V30 6256 H 599.238 0.703711 1.54421 0
M  V30 6257 H 598.01 1.31449 3.68561 0
M  V30 6258 H 597.633 -0.378772 3.95792 0
M  V30 6259 N 598.631 -1.53133 0.372548 0
M  V30 6260 C 600.042 -1.86404 -0.105155 0
M  V30 6261 C 600.393 -1.29289 -1.47576 0
M  V30 6262 O 599.518 -0.617646 -2.07398 0
M  V30 6263 C 600.113 -3.38223 -0.197588 0
M  V30 6264 C 598.672 -3.71266 -0.619556 0
M  V30 6265 C 597.819 -2.76353 0.228919 0
M  V30 6266 H 600.77 -1.47282 0.591077 0
M  V30 6267 H 600.791 -3.66577 -1.01987 0
M  V30 6268 H 600.303 -3.79763 0.800099 0
M  V30 6269 H 598.404 -3.35287 -1.62522 0
M  V30 6270 H 598.517 -4.77515 -0.389332 0
M  V30 6271 H 596.881 -2.52888 -0.303271 0
M  V30 6272 H 597.664 -3.20728 1.22428 0
M  V30 6273 N 600.109 -0.101901 -1.5727 0
M  V30 6274 C 601.349 0.563489 -1.96479 0
M  V30 6275 C 601.713 1.64926 -0.983021 0
M  V30 6276 O 602.914 2.37234 -1.26386 0
M  V30 6277 C 601.185 1.09809 -3.40113 0
M  V30 6278 S 602.744 1.7744 -4.01323 0
M  V30 6279 H 599.562 0.183675 -0.686866 0
M  V30 6280 H 602.164 -0.182922 -1.94642 0
M  V30 6281 H 600.868 0.296447 -4.09328 0
M  V30 6282 H 600.399 1.88018 -3.45562 0
M  V30 6283 H 602.414 3.0591 -3.90683 0
M  V30 6284 N 601.587 1.56661 0.17182 0
M  V30 6285 C 602.998 1.71652 0.734329 0
M  V30 6286 C 603.349 0.712335 1.82812 0
M  V30 6287 O 602.474 -0.126401 2.16031 0
M  V30 6288 C 603.069 3.11226 1.3388 0
M  V30 6289 C 601.628 3.27904 1.84813 0
M  V30 6290 C 600.775 2.67603 0.726917 0
M  V30 6291 H 603.726 1.5861 -0.0535665 0
M  V30 6292 H 603.747 3.09849 2.20849 0
M  V30 6293 H 603.259 3.8429 0.54249 0
M  V30 6294 H 601.36 2.59796 2.6709 0
M  V30 6295 H 601.473 4.35637 1.99392 0
M  V30 6296 H 599.837 2.274 1.14723 0
M  V30 6297 H 600.62 3.43252 -0.0575334 0
M  V30 6298 N 603.065 -0.440357 1.51323 0
M  V30 6299 C 603.998 -1.55414 1.67098 0
M  V30 6300 C 604.976 -1.54108 0.518599 0
M  V30 6301 O 606.16 -1.7328 0.742054 0
M  V30 6302 C 603.287 -2.93996 1.68179 0
M  V30 6303 C 602.333 -3.13338 2.89347 0
M  V30 6304 S 603.166 -2.89957 4.50206 0
M  V30 6305 C 604.322 -4.30826 4.54027 0
M  V30 6306 H 604.555 -1.41798 2.61306 0
M  V30 6307 H 602.088 -0.629841 1.40969 0
M  V30 6308 H 604.046 -3.73878 1.69487 0
M  V30 6309 H 602.707 -3.04976 0.751542 0
M  V30 6310 H 601.9 -4.14652 2.86495 0
M  V30 6311 H 601.502 -2.41276 2.85766 0
M  V30 6312 H 603.794 -5.23977 4.29481 0
M  V30 6313 H 604.737 -4.38712 5.55822 0
M  V30 6314 H 605.145 -4.1434 3.83384 0
M  V30 6315 N 604.543 -1.41418 -0.695603 0
M  V30 6316 C 605.473 -1.46035 -1.82197 0
M  V30 6317 C 606.454 -0.319025 -1.67082 0
M  V30 6318 O 607.639 -0.530462 -1.86815 0
M  V30 6319 C 604.769 -1.34179 -3.20333 0
M  V30 6320 C 603.723 -2.46123 -3.50154 0
M  V30 6321 C 603.049 -2.19332 -4.87645 0
M  V30 6322 C 604.349 -3.88463 -3.49133 0
M  V30 6323 H 606.043 -2.40303 -1.78591 0
M  V30 6324 H 603.589 -1.15663 -0.857797 0
M  V30 6325 H 605.542 -1.36021 -3.98844 0
M  V30 6326 H 604.266 -0.363952 -3.24566 0
M  V30 6327 H 602.925 -2.43563 -2.73994 0
M  V30 6328 H 602.573 -1.19891 -4.88503 0
M  V30 6329 H 602.273 -2.94344 -5.08562 0
M  V30 6330 H 603.797 -2.22889 -5.68465 0
M  V30 6331 H 605.211 -3.92738 -4.17648 0
M  V30 6332 H 603.608 -4.63158 -3.81582 0
M  V30 6333 H 604.678 -4.16617 -2.48109 0
M  V30 6334 N 606.021 0.929856 -1.27246 0
M  V30 6335 C 606.931 2.0636 -1.11592 0
M  V30 6336 C 607.947 1.73938 -0.046496 0
M  V30 6337 O 609.123 1.9981 -0.252544 0
M  V30 6338 C 606.188 3.38213 -0.762437 0
M  V30 6339 C 605.249 3.84346 -1.9125 0
M  V30 6340 C 604.482 5.09906 -1.57579 0
M  V30 6341 O 604.705 5.68354 -0.482694 0
M  V30 6342 O 603.639 5.51359 -2.41426 0
M  V30 6343 H 607.465 2.22478 -2.0673 0
M  V30 6344 H 605.05 1.04865 -1.06413 0
M  V30 6345 H 606.932 4.1741 -0.57854 0
M  V30 6346 H 605.607 3.23307 0.159439 0
M  V30 6347 H 604.514 3.06045 -2.15144 0
M  V30 6348 H 605.847 4.0379 -2.81451 0
M  V30 6349 N 607.499 1.09233 1.13605 0
M  V30 6350 C 608.724 0.849067 1.89224 0
M  V30 6351 C 609.149 -0.593875 1.78479 0
M  V30 6352 O 608.507 -1.41703 1.13092 0
M  V30 6353 C 608.555 1.28642 3.36873 0
M  V30 6354 O 607.659 0.44363 4.10007 0
M  V30 6355 H 607 0.30767 0.588417 0
M  V30 6356 H 609.53 1.45595 1.43748 0
M  V30 6357 H 609.54 1.27096 3.87699 0
M  V30 6358 H 608.215 2.33729 3.44011 0
M  V30 6359 H 606.792 0.523241 3.69211 0
M  V30 6360 N 608.977 -1.30795 0.87923 0
M  V30 6361 C 610.388 -1.78535 0.546093 0
M  V30 6362 C 610.739 -1.72354 -0.937467 0
M  V30 6363 O 609.864 -1.2969 -1.73233 0
M  V30 6364 C 610.459 -3.24181 0.9845 0
M  V30 6365 C 609.018 -3.69779 0.702871 0
M  V30 6366 C 608.165 -2.51377 1.17068 0
M  V30 6367 H 611.116 -1.17746 1.06403 0
M  V30 6368 H 611.137 -3.79227 0.311045 0
M  V30 6369 H 610.649 -3.28647 2.06429 0
M  V30 6370 H 608.75 -3.70806 -0.365166 0
M  V30 6371 H 608.863 -4.61507 1.28639 0
M  V30 6372 H 607.227 -2.47768 0.590172 0
M  V30 6373 H 608.01 -2.58584 2.25808 0
M  V30 6374 N 610.455 -0.639598 -1.44038 0
M  V30 6375 C 611.703 -0.147188 -2.01563 0
M  V30 6376 C 612.024 1.2384 -1.50628 0
M  V30 6377 O 611.294 1.82452 -0.713316 0
M  V30 6378 H 609.874 -0.0514231 -0.745228 0
M  V30 6379 H 612.536 -0.828205 -1.76428 0
M  V30 6380 H 611.632 -0.121358 -3.11864 0
M  V30 6381 N 611.933 1.52934 -0.380664 0
M  V30 6382 C 612.896 2.24809 0.446473 0
M  V30 6383 C 613.896 1.26133 0.997347 0
M  V30 6384 O 615.086 1.50297 0.880714 0
M  V30 6385 C 612.218 2.99649 1.62553 0
M  V30 6386 H 613.411 2.99343 -0.182677 0
M  V30 6387 H 610.964 1.55736 -0.132618 0
M  V30 6388 H 611.699 2.29395 2.29235 0
M  V30 6389 H 611.484 3.72066 1.23732 0
M  V30 6390 H 612.974 3.54246 2.21133 0
M  V30 6391 N 613.412 0.11024 1.57214 0
M  V30 6392 C 614.823 -0.416527 1.81994 0
M  V30 6393 C 615.174 -1.67183 1.02686 0
M  V30 6394 O 614.299 -2.14823 0.260782 0
M  V30 6395 C 614.894 -0.762466 3.30109 0
M  V30 6396 C 613.453 -1.23391 3.556 0
M  V30 6397 C 612.6 -0.238166 2.76275 0
M  V30 6398 H 615.551 0.335491 1.55113 0
M  V30 6399 H 615.572 -1.62068 3.44259 0
M  V30 6400 H 615.084 0.151346 3.87805 0
M  V30 6401 H 613.185 -2.16492 3.03253 0
M  V30 6402 H 613.298 -1.18528 4.64207 0
M  V30 6403 H 611.662 -0.723421 2.4421 0
M  V30 6404 H 612.445 0.668591 3.36727 0
M  V30 6405 N 614.89 -1.56749 -0.16351 0
M  V30 6406 C 616.13 -1.84234 -0.885271 0
M  V30 6407 C 616.494 -0.692259 -1.79086 0
M  V30 6408 O 617.695 -0.847747 -2.55082 0
M  V30 6409 C 615.966 -3.16857 -1.65337 0
M  V30 6410 S 617.525 -3.65848 -2.42282 0
M  V30 6411 H 614.343 -0.646293 -0.296354 0
M  V30 6412 H 616.945 -1.94951 -0.146365 0
M  V30 6413 H 615.649 -3.98546 -0.979266 0
M  V30 6414 H 615.18 -3.09102 -2.4335 0
M  V30 6415 H 617.195 -3.33796 -3.67143 0
M  V30 6416 N 616.368 0.432326 -1.51554 0
M  V30 6417 C 617.784 0.769195 -1.39841 0
M  V30 6418 C 617.984 1.95584 -0.484675 0
M  V30 6419 O 617.04 2.52433 0.0582829 0
M  V30 6420 C 618.353 1.04487 -2.81963 0
M  V30 6421 C 619.901 1.149 -2.91148 0
M  V30 6422 C 620.376 1.45758 -4.34187 0
M  V30 6423 N 621.867 1.52671 -4.37317 0
M  V30 6424 C 622.602 1.78129 -5.4503 0
M  V30 6425 N 622.098 2.01345 -6.62897 0
M  V30 6426 N 623.891 1.79953 -5.32516 0
M  V30 6427 H 616.042 -0.349122 -2.09511 0
M  V30 6428 H 618.305 -0.0938113 -0.943347 0
M  V30 6429 H 618.011 0.24557 -3.50842 0
M  V30 6430 H 617.885 1.97119 -3.21596 0
M  V30 6431 H 620.272 1.93891 -2.22464 0
M  V30 6432 H 620.353 0.201568 -2.55005 0
M  V30 6433 H 619.997 0.672917 -5.03423 0
M  V30 6434 H 619.927 2.41715 -4.67848 0
M  V30 6435 H 622.418 1.36612 -3.52343 0
M  V30 6436 H 622.731 2.20155 -7.40778 0
M  V30 6437 H 621.076 1.98657 -6.66003 0
M  V30 6438 H 624.267 1.61337 -4.39418 0
M  V30 6439 H 624.44 1.99455 -6.1654 0
M  V30 6440 N 617.846 1.41785 0.688094 0
M  V30 6441 C 619.071 1.45117 1.48175 0
M  V30 6442 C 619.496 0.060129 1.88004 0
M  V30 6443 O 618.854 -0.938385 1.55126 0
M  V30 6444 C 618.902 2.37224 2.71583 0
M  V30 6445 O 618.006 1.83443 3.69354 0
M  V30 6446 H 617.347 0.492208 0.445676 0
M  V30 6447 H 619.877 1.86329 0.845145 0
M  V30 6448 H 619.887 2.53353 3.19806 0
M  V30 6449 H 618.562 3.38293 2.41931 0
M  V30 6450 H 617.139 1.76802 3.28322 0
M  V30 6451 N 619.324 -0.923095 1.27737 0
M  V30 6452 C 620.287 -2.00587 1.10894 0
M  V30 6453 C 621.287 -1.60718 0.0514927 0
M  V30 6454 O 622.477 -1.71658 0.296481 0
M  V30 6455 C 619.609 -3.33829 0.690717 0
M  V30 6456 H 620.802 -2.16959 2.07048 0
M  V30 6457 H 618.355 -1.10451 1.1059 0
M  V30 6458 H 619.09 -3.23157 -0.272 0
M  V30 6459 H 618.875 -3.64125 1.45448 0
M  V30 6460 H 620.365 -4.13336 0.595252 0
M  V30 6461 N 620.802 -1.09834 -1.13024 0
M  V30 6462 C 621.734 -0.699379 -2.18269 0
M  V30 6463 C 622.747 0.260841 -1.60697 0
M  V30 6464 O 623.936 0.0462538 -1.7844 0
M  V30 6465 C 621.036 -0.0104537 -3.38898 0
M  V30 6466 C 620.209 -0.993275 -4.25973 0
M  V30 6467 C 619.268 -0.336982 -5.2512 0
M  V30 6468 O 618.294 -0.985892 -5.60597 0
M  V30 6469 N 619.496 0.90716 -5.73368 0
M  V30 6470 H 622.261 -1.60486 -2.5311 0
M  V30 6471 H 619.822 -0.986337 -1.28386 0
M  V30 6472 H 621.814 0.43991 -4.02302 0
M  V30 6473 H 620.384 0.797335 -3.0226 0
M  V30 6474 H 619.604 -1.62208 -3.5928 0
M  V30 6475 H 620.892 -1.65876 -4.81002 0
M  V30 6476 H 620.29 1.45384 -5.46699 0
M  V30 6477 H 618.847 1.30077 -6.38689 0
M  V30 6478 N 622.28 1.30327 -0.886154 0
M  V30 6479 C 623.243 2.26376 -0.358687 0
M  V30 6480 C 624.243 1.52845 0.499498 0
M  V30 6481 O 625.433 1.71483 0.306485 0
M  V30 6482 C 622.565 3.37379 0.488726 0
M  V30 6483 H 623.758 2.74547 -1.20681 0
M  V30 6484 H 621.311 1.41536 -0.663113 0
M  V30 6485 H 622.046 2.94526 1.35739 0
M  V30 6486 H 621.831 3.91897 -0.126003 0
M  V30 6487 H 623.321 4.08868 0.84952 0
M  V30 6488 N 623.758 0.647228 1.43697 0
M  V30 6489 C 624.983 0.164083 2.0675 0
M  V30 6490 C 625.408 -1.15892 1.48158 0
M  V30 6491 O 624.766 -1.71459 0.589194 0
M  V30 6492 C 624.814 0.0800368 3.60511 0
M  V30 6493 O 623.918 -0.959453 4.01084 0
M  V30 6494 H 623.259 0.0921288 0.657578 0
M  V30 6495 H 625.789 0.88846 1.84303 0
M  V30 6496 H 625.799 -0.105263 4.07864 0
M  V30 6497 H 624.474 1.04586 4.02535 0
M  V30 6498 H 623.051 -0.747425 3.65333 0
M  V30 6499 N 625.236 -1.5273 0.388769 0
M  V30 6500 C 626.482 -2.01871 -0.193877 0
M  V30 6501 C 626.815 -1.27475 -1.46505 0
M  V30 6502 O 626.09 -0.375063 -1.90849 0
M  V30 6503 C 626.373 -3.5712 -0.462336 0
M  V30 6504 C 626.226 -4.42186 0.824091 0
M  V30 6505 C 627.545 -4.21881 -1.25319 0
M  V30 6506 H 624.664 -0.733764 -0.0689899 0
M  V30 6507 H 627.306 -1.82796 0.518231 0
M  V30 6508 H 625.456 -3.73504 -1.06896 0
M  V30 6509 H 627.128 -4.37554 1.46096 0
M  V30 6510 H 625.371 -4.09219 1.43952 0
M  V30 6511 H 626.042 -5.48828 0.590905 0
M  V30 6512 H 628.518 -4.0947 -0.73981 0
M  V30 6513 H 627.394 -5.30487 -1.40977 0
M  V30 6514 H 627.655 -3.79478 -2.26824 0
M  V30 6515 N 626.714 -0.118576 -1.57153 0
M  V30 6516 C 627.939 0.550582 -1.99958 0
M  V30 6517 C 628.364 1.59458 -0.997736 0
M  V30 6518 O 627.722 1.81274 0.0306269 0
M  V30 6519 C 627.77 1.15379 -3.41643 0
M  V30 6520 O 626.874 2.26932 -3.44348 0
M  V30 6521 H 626.215 0.137567 -0.649593 0
M  V30 6522 H 628.745 -0.206926 -2.03551 0
M  V30 6523 H 628.755 1.48942 -3.79843 0
M  V30 6524 H 627.43 0.389087 -4.14076 0
M  V30 6525 H 626.007 1.94812 -3.17967 0
M  V30 6526 N 628.193 1.56834 0.155195 0
M  V30 6527 C 629.433 1.84701 0.875488 0
M  V30 6528 C 629.797 0.701747 1.78716 0
M  V30 6529 O 630.998 0.861263 2.54629 0
M  V30 6530 C 629.269 3.1773 1.63654 0
M  V30 6531 S 630.828 3.67128 2.40338 0
M  V30 6532 H 627.646 0.647856 0.292923 0
M  V30 6533 H 630.248 1.95026 0.136024 0
M  V30 6534 H 628.952 3.99059 0.958117 0
M  V30 6535 H 628.483 3.10388 2.41708 0
M  V30 6536 H 630.498 3.35739 3.65368 0
M  V30 6537 N 629.671 -0.424282 1.51781 0
M  V30 6538 C 630.634 -1.49848 1.73431 0
M  V30 6539 C 631.634 -1.49016 0.604225 0
M  V30 6540 O 632.824 -1.50808 0.871935 0
M  V30 6541 C 629.956 -2.89332 1.80277 0
M  V30 6542 H 631.149 -1.3195 2.69312 0
M  V30 6543 H 628.702 -0.653809 1.41968 0
M  V30 6544 H 629.437 -3.12618 0.862568 0
M  V30 6545 H 629.222 -2.9134 2.62419 0
M  V30 6546 H 630.712 -3.67233 1.98821 0
M  V30 6547 N 631.149 -1.42148 -0.680565 0
M  V30 6548 C 632.079 -1.4796 -1.80638 0
M  V30 6549 C 633.06 -0.336728 -1.66734 0
M  V30 6550 O 634.245 -0.550247 -1.86242 0
M  V30 6551 C 631.375 -1.37569 -3.18892 0
M  V30 6552 C 630.329 -2.49823 -3.47524 0
M  V30 6553 C 629.655 -2.24491 -4.85291 0
M  V30 6554 C 630.955 -3.92144 -3.44994 0
M  V30 6555 H 632.649 -2.42184 -1.76032 0
M  V30 6556 H 630.195 -1.16566 -0.845481 0
M  V30 6557 H 632.148 -1.40243 -3.97379 0
M  V30 6558 H 630.872 -0.398357 -3.24162 0
M  V30 6559 H 629.531 -2.46455 -2.71395 0
M  V30 6560 H 629.179 -1.25066 -4.87204 0
M  V30 6561 H 628.879 -2.99722 -5.05411 0
M  V30 6562 H 630.403 -2.28906 -5.66069 0
M  V30 6563 H 631.817 -3.97145 -4.13459 0
M  V30 6564 H 630.214 -4.67179 -3.76648 0
M  V30 6565 H 631.284 -4.19225 -2.43676 0
M  V30 6566 N 632.627 0.916307 -1.28225 0
M  V30 6567 C 633.537 2.05165 -1.13775 0
M  V30 6568 C 634.553 1.73879 -0.0649418 0
M  V30 6569 O 635.729 1.99531 -0.273722 0
M  V30 6570 C 632.794 3.37385 -0.798267 0
M  V30 6571 C 631.855 3.82296 -1.95316 0
M  V30 6572 C 631.088 5.08206 -1.62978 0
M  V30 6573 O 631.311 5.6781 -0.542948 0
M  V30 6574 O 630.245 5.48768 -2.47261 0
M  V30 6575 H 634.071 2.20273 -2.09078 0
M  V30 6576 H 631.656 1.0373 -1.07519 0
M  V30 6577 H 633.538 4.16773 -0.62278 0
M  V30 6578 H 632.213 3.23458 0.125139 0
M  V30 6579 H 631.12 3.03746 -2.18378 0
M  V30 6580 H 632.453 4.00782 -2.85718 0
M  V30 6581 N 634.105 1.10431 1.1244 0
M  V30 6582 C 635.068 0.756542 2.16354 0
M  V30 6583 C 636.068 -0.21899 1.59302 0
M  V30 6584 O 637.258 0.00415969 1.742 0
M  V30 6585 C 634.39 0.120612 3.40687 0
M  V30 6586 H 635.583 1.67696 2.48632 0
M  V30 6587 H 633.136 0.904832 1.27446 0
M  V30 6588 H 633.871 -0.810536 3.14008 0
M  V30 6589 H 633.656 0.822693 3.83372 0
M  V30 6590 H 635.146 -0.106945 4.17463 0
M  V30 6591 N 635.583 -1.29855 0.893053 0
M  V30 6592 C 636.513 -2.3035 0.382249 0
M  V30 6593 C 637.494 -1.61328 -0.539203 0
M  V30 6594 O 638.679 -1.88882 -0.451342 0
M  V30 6595 C 635.809 -3.45024 -0.396983 0
M  V30 6596 C 634.763 -4.258 0.433437 0
M  V30 6597 C 634.089 -5.32605 -0.472889 0
M  V30 6598 C 635.389 -4.94549 1.67984 0
M  V30 6599 H 637.083 -2.73325 1.22205 0
M  V30 6600 H 634.629 -1.314 0.589073 0
M  V30 6601 H 636.582 -4.14398 -0.765024 0
M  V30 6602 H 635.306 -3.00875 -1.2705 0
M  V30 6603 H 633.965 -3.58125 0.783723 0
M  V30 6604 H 633.613 -4.84702 -1.34435 0
M  V30 6605 H 633.313 -5.87547 0.0789958 0
M  V30 6606 H 634.837 -6.04832 -0.837269 0
M  V30 6607 H 636.251 -5.56395 1.38192 0
M  V30 6608 H 634.648 -5.59393 2.17254 0
M  V30 6609 H 635.718 -4.20215 2.41965 0
M  V30 6610 N 637.061 -0.65484 -1.43351 0
M  V30 6611 C 637.971 0.0363603 -2.34572 0
M  V30 6612 C 638.987 0.810432 -1.53974 0
M  V30 6613 O 640.163 0.757308 -1.86619 0
M  V30 6614 C 637.228 0.989733 -3.32273 0
M  V30 6615 C 636.289 0.212414 -4.28774 0
M  V30 6616 C 635.522 1.12038 -5.21808 0
M  V30 6617 O 635.745 2.35967 -5.19303 0
M  V30 6618 O 634.679 0.59191 -5.98982 0
M  V30 6619 H 638.505 -0.714527 -2.95175 0
M  V30 6620 H 636.09 -0.415029 -1.4352 0
M  V30 6621 H 637.972 1.53759 -3.92347 0
M  V30 6622 H 636.647 1.72082 -2.74171 0
M  V30 6623 H 635.554 -0.379062 -3.72175 0
M  V30 6624 H 636.887 -0.479138 -4.89862 0
M  V30 6625 N 638.539 1.52521 -0.396863 0
M  V30 6626 C 639.95 1.86547 0.0754868 0
M  V30 6627 C 640.301 1.31621 1.45501 0
M  V30 6628 O 639.426 0.650563 2.0639 0
M  V30 6629 C 640.021 3.38495 0.143754 0
M  V30 6630 C 638.58 3.72205 0.560413 0
M  V30 6631 C 637.727 2.75954 -0.272856 0
M  V30 6632 H 640.678 1.46323 -0.614434 0
M  V30 6633 H 640.699 3.68153 0.961425 0
M  V30 6634 H 640.211 3.78442 -0.860415 0
M  V30 6635 H 638.312 3.3783 1.57167 0
M  V30 6636 H 638.425 4.78074 0.313314 0
M  V30 6637 H 636.789 2.53339 0.263 0
M  V30 6638 H 637.572 3.1874 -1.27515 0
M  V30 6639 N 640.017 0.126909 1.57088 0
M  V30 6640 C 641.264 -0.529168 1.95464 0
M  V30 6641 C 641.592 -1.6618 1.01067 0
M  V30 6642 O 640.847 -1.95667 0.0360254 0
M  V30 6643 C 641.146 -1.095 3.40212 0
M  V30 6644 C 640.812 -0.0829015 4.50824 0
M  V30 6645 C 639.474 0.195377 4.80803 0
M  V30 6646 C 641.826 0.606411 5.1766 0
M  V30 6647 C 639.154 1.16912 5.74933 0
M  V30 6648 C 641.506 1.56884 6.12838 0
M  V30 6649 C 640.17 1.85502 6.41206 0
M  V30 6650 H 639.44 -0.193636 0.715252 0
M  V30 6651 H 642.087 0.209489 1.90351 0
M  V30 6652 H 640.392 -1.91058 3.42059 0
M  V30 6653 H 642.089 -1.61087 3.67222 0
M  V30 6654 H 638.679 -0.309979 4.27478 0
M  V30 6655 H 642.863 0.404597 4.94648 0
M  V30 6656 H 638.119 1.3975 5.95214 0
M  V30 6657 H 642.293 2.10859 6.6371 0
M  V30 6658 H 639.92 2.61109 7.13951 0
M  V30 6659 N 641.495 -1.56914 -0.146875 0
M  V30 6660 C 642.741 -1.84515 -0.855914 0
M  V30 6661 C 643.096 -0.710909 -1.78784 0
M  V30 6662 O 642.389 0.291123 -1.89375 0
M  V30 6663 C 642.583 -3.16128 -1.66727 0
M  V30 6664 C 642.412 -4.42246 -0.815405 0
M  V30 6665 C 641.182 -5.03006 -0.480976 0
M  V30 6666 C 643.38 -5.14094 -0.145684 0
M  V30 6667 N 641.362 -6.12695 0.384476 0
M  V30 6668 C 642.733 -6.17282 0.579902 0
M  V30 6669 C 644.788 -4.97856 -0.0663705 0
M  V30 6670 C 643.491 -7.0599 1.37731 0
M  V30 6671 C 645.517 -5.87028 0.71778 0
M  V30 6672 C 644.879 -6.89698 1.43165 0
M  V30 6673 H 640.978 -0.725829 -0.291026 0
M  V30 6674 H 643.562 -1.94322 -0.121279 0
M  V30 6675 H 641.733 -3.07468 -2.37315 0
M  V30 6676 H 643.465 -3.31635 -2.31949 0
M  V30 6677 H 640.22 -4.66504 -0.816789 0
M  V30 6678 H 640.644 -6.72158 0.80823 0
M  V30 6679 H 645.286 -4.18465 -0.603929 0
M  V30 6680 H 643.004 -7.84809 1.92613 0
M  V30 6681 H 646.59 -5.76532 0.781141 0
M  V30 6682 H 645.47 -7.57505 2.02868 0
M  V30 6683 N 642.974 0.416227 -1.52004 0
M  V30 6684 C 643.884 1.53147 -1.77717 0
M  V30 6685 C 644.9 1.609 -0.662368 0
M  V30 6686 O 646.076 1.77747 -0.946991 0
M  V30 6687 C 643.141 2.88948 -1.91598 0
M  V30 6688 C 642.202 2.9114 -3.15493 0
M  V30 6689 C 641.435 4.20464 -3.28703 0
M  V30 6690 O 641.658 5.13981 -2.47345 0
M  V30 6691 O 640.592 4.29368 -4.21813 0
M  V30 6692 H 644.418 1.34357 -2.72363 0
M  V30 6693 H 642.003 0.601373 -1.36762 0
M  V30 6694 H 643.885 3.69505 -2.02593 0
M  V30 6695 H 642.56 3.07821 -1.00141 0
M  V30 6696 H 641.467 2.09461 -3.09962 0
M  V30 6697 H 642.8 2.77216 -4.06709 0
M  V30 6698 N 644.452 1.42507 0.673017 0
M  V30 6699 C 645.698 1.43284 1.43519 0
M  V30 6700 C 646.031 0.049668 1.94136 0
M  V30 6701 O 645.306 -0.926369 1.71022 0
M  V30 6702 C 645.589 2.45874 2.63093 0
M  V30 6703 C 645.442 3.93388 2.18096 0
M  V30 6704 C 646.761 2.45431 3.6531 0
M  V30 6705 H 643.88 0.521752 0.520522 0
M  V30 6706 H 646.522 1.73932 0.764701 0
M  V30 6707 H 644.672 2.19869 3.20296 0
M  V30 6708 H 646.344 4.30379 1.66046 0
M  V30 6709 H 644.587 4.07169 1.49652 0
M  V30 6710 H 645.258 4.60752 3.03993 0
M  V30 6711 H 647.734 2.68561 3.17827 0
M  V30 6712 H 646.61 3.19189 4.46553 0
M  V30 6713 H 646.871 1.48092 4.16559 0
M  V30 6714 N 645.93 -0.909495 1.28709 0
M  V30 6715 C 646.86 -2.0291 1.15542 0
M  V30 6716 C 647.841 -1.7002 0.0521017 0
M  V30 6717 O 649.026 -1.92835 0.229849 0
M  V30 6718 C 646.156 -3.37458 0.820935 0
M  V30 6719 C 645.11 -3.84524 1.87949 0
M  V30 6720 C 644.436 -5.16086 1.39854 0
M  V30 6721 C 645.736 -4.05918 3.28676 0
M  V30 6722 H 647.43 -2.14183 2.09203 0
M  V30 6723 H 644.976 -1.02913 1.00722 0
M  V30 6724 H 646.929 -4.1528 0.715571 0
M  V30 6725 H 645.653 -3.26249 -0.151374 0
M  V30 6726 H 644.312 -3.08911 1.97408 0
M  V30 6727 H 643.96 -5.01284 0.41518 0
M  V30 6728 H 643.66 -5.48547 2.1064 0
M  V30 6729 H 645.184 -5.96459 1.30649 0
M  V30 6730 H 646.598 -4.74252 3.22115 0
M  V30 6731 H 644.995 -4.49717 3.97334 0
M  V30 6732 H 646.065 -3.10583 3.72379 0
M  V30 6733 N 647.408 -1.11026 -1.11852 0
M  V30 6734 C 648.654 -0.857729 -1.83768 0
M  V30 6735 C 648.987 0.615143 -1.842 0
M  V30 6736 O 648.262 1.45391 -1.29196 0
M  V30 6737 C 648.545 -1.41453 -3.31154 0
M  V30 6738 C 648.398 -2.95471 -3.39142 0
M  V30 6739 C 649.717 -1.0619 -4.27097 0
M  V30 6740 H 646.836 -0.313044 -0.667212 0
M  V30 6741 H 649.478 -1.37443 -1.31185 0
M  V30 6742 H 647.628 -0.975052 -3.76065 0
M  V30 6743 H 649.3 -3.4799 -3.02821 0
M  V30 6744 H 647.543 -3.31759 -2.79497 0
M  V30 6745 H 648.214 -3.29515 -4.42859 0
M  V30 6746 H 650.69 -1.44122 -3.90344 0
M  V30 6747 H 649.566 -1.47832 -5.28618 0
M  V30 6748 H 649.827 0.0278912 -4.42091 0
M  V30 6749 N 648.886 1.2938 -0.899927 0
M  V30 6750 C 650.302 1.48052 -0.596059 0
M  V30 6751 C 650.502 1.82114 0.862372 0
M  V30 6752 O 649.558 1.91774 1.64253 0
M  V30 6753 C 650.871 2.59332 -1.52208 0
M  V30 6754 C 652.419 2.73208 -1.5273 0
M  V30 6755 C 652.894 3.87617 -2.43961 0
M  V30 6756 N 654.385 3.9495 -2.42009 0
M  V30 6757 C 655.12 4.82824 -3.09303 0
M  V30 6758 N 654.616 5.75387 -3.85877 0
M  V30 6759 N 656.409 4.76317 -2.98459 0
M  V30 6760 H 648.56 1.05546 -1.8432 0
M  V30 6761 H 650.823 0.524314 -0.78981 0
M  V30 6762 H 650.529 2.41029 -2.56121 0
M  V30 6763 H 650.403 3.56139 -1.24278 0
M  V30 6764 H 652.79 2.90908 -0.495614 0
M  V30 6765 H 652.871 1.76975 -1.84698 0
M  V30 6766 H 652.515 3.70672 -3.47224 0
M  V30 6767 H 652.445 4.83218 -2.09303 0
M  V30 6768 H 654.936 3.28744 -1.86375 0
M  V30 6769 H 655.249 6.39235 -4.34279 0
M  V30 6770 H 653.594 5.75272 -3.89984 0
M  V30 6771 H 656.785 4.0299 -2.38152 0
M  V30 6772 H 656.958 5.44589 -3.51179 0
M  V30 6773 N 650.364 0.662433 1.43002 0
M  V30 6774 C 651.589 0.186003 2.06564 0
M  V30 6775 C 652.014 -1.14314 1.49379 0
M  V30 6776 O 651.372 -1.70824 0.607346 0
M  V30 6777 C 651.42 0.118269 3.60406 0
M  V30 6778 O 650.524 -0.916859 4.02079 0
M  V30 6779 H 649.865 0.0990981 0.656563 0
M  V30 6780 H 652.395 0.907958 1.8335 0
M  V30 6781 H 652.405 -0.0619981 4.07953 0
M  V30 6782 H 651.08 1.08849 4.01403 0
M  V30 6783 H 649.657 -0.708635 3.66105 0
M  V30 6784 N 651.842 -1.52309 0.404946 0
M  V30 6785 C 653.07 -2.06185 -0.171818 0
M  V30 6786 C 653.485 -1.27536 -1.39212 0
M  V30 6787 O 652.842 -0.326112 -1.79563 0
M  V30 6788 C 652.893 -3.57647 -0.526417 0
M  V30 6789 O 652.614 -4.3332 0.645417 0
M  V30 6790 C 654.115 -4.27925 -1.15736 0
M  V30 6791 H 651.335 -0.670632 -0.0222328 0
M  V30 6792 H 653.879 -1.96259 0.574692 0
M  V30 6793 H 652.034 -3.67595 -1.22282 0
M  V30 6794 H 652.448 -5.23328 0.35042 0
M  V30 6795 H 653.922 -5.35093 -1.35572 0
M  V30 6796 H 654.399 -3.84134 -2.12926 0
M  V30 6797 H 655.005 -4.22335 -0.501281 0
M  V30 6798 N 653.32 -0.135238 -1.57019 0
M  V30 6799 C 654.23 0.822226 -2.19719 0
M  V30 6800 C 655.246 1.28057 -1.17802 0
M  V30 6801 O 656.422 1.3402 -1.50335 0
M  V30 6802 C 653.487 2.0484 -2.79717 0
M  V30 6803 C 652.548 1.64042 -3.96723 0
M  V30 6804 C 651.781 2.80814 -4.53849 0
M  V30 6805 O 652.004 3.967 -4.0986 0
M  V30 6806 O 650.938 2.56963 -5.44292 0
M  V30 6807 H 654.764 0.318552 -3.02025 0
M  V30 6808 H 652.349 0.0912021 -1.49121 0
M  V30 6809 H 654.231 2.76622 -3.17897 0
M  V30 6810 H 652.906 2.54182 -2.00432 0
M  V30 6811 H 651.813 0.893182 -3.63281 0
M  V30 6812 H 653.146 1.19426 -4.77492 0
M  V30 6813 N 654.798 1.5699 0.138552 0
M  V30 6814 C 656.026 1.87976 0.864437 0
M  V30 6815 C 656.441 0.724372 1.74351 0
M  V30 6816 O 655.798 -0.305575 1.79924 0
M  V30 6817 C 655.849 3.18276 1.71414 0
M  V30 6818 O 655.57 4.29365 0.870487 0
M  V30 6819 C 657.071 3.62834 2.54688 0
M  V30 6820 H 654.291 0.622878 0.249528 0
M  V30 6821 H 656.835 2.04094 0.128805 0
M  V30 6822 H 654.99 3.03886 2.40274 0
M  V30 6823 H 655.404 5.03924 1.45466 0
M  V30 6824 H 656.878 4.5682 3.0987 0
M  V30 6825 H 657.355 2.88533 3.31127 0
M  V30 6826 H 657.961 3.79946 1.91105 0
M  V30 6827 N 656.276 -0.40816 1.52223 0
M  V30 6828 C 657.522 -1.15673 1.66576 0
M  V30 6829 C 657.855 -1.90141 0.394996 0
M  V30 6830 O 657.13 -1.84798 -0.606613 0
M  V30 6831 C 657.413 -2.15042 2.88841 0
M  V30 6832 C 657.266 -1.44465 4.25969 0
M  V30 6833 C 658.585 -3.15699 3.0663 0
M  V30 6834 H 655.704 -0.41916 0.606196 0
M  V30 6835 H 658.346 -0.442348 1.84779 0
M  V30 6836 H 656.496 -2.75964 2.73452 0
M  V30 6837 H 658.168 -0.866544 4.53088 0
M  V30 6838 H 656.411 -0.746612 4.27327 0
M  V30 6839 H 657.082 -2.16976 5.07568 0
M  V30 6840 H 659.558 -2.64854 3.20923 0
M  V30 6841 H 658.434 -3.82491 3.9369 0
M  V30 6842 H 658.695 -3.83481 2.19987 0
M  V30 6843 N 657.755 -1.42862 -0.66545 0
M  V30 6844 C 658.665 -1.49491 -1.80803 0
M  V30 6845 C 659.681 -0.382914 -1.69734 0
M  V30 6846 O 660.857 -0.635223 -1.9112 0
M  V30 6847 C 657.922 -1.40383 -3.17007 0
M  V30 6848 C 656.983 -2.62152 -3.39963 0
M  V30 6849 C 656.216 -2.53469 -4.69669 0
M  V30 6850 O 656.439 -1.57568 -5.48205 0
M  V30 6851 O 655.373 -3.43763 -4.94075 0
M  V30 6852 H 659.199 -2.45949 -1.78165 0
M  V30 6853 H 656.784 -1.24728 -0.822387 0
M  V30 6854 H 658.666 -1.377 -3.98267 0
M  V30 6855 H 657.341 -0.470546 -3.20262 0
M  V30 6856 H 656.248 -2.70409 -2.58515 0
M  V30 6857 H 657.581 -3.54411 -3.41546 0
M  V30 6858 N 659.233 0.902656 -1.29189 0
M  V30 6859 C 660.649 1.18296 -1.07137 0
M  V30 6860 C 660.849 2.00701 0.179223 0
M  V30 6861 O 659.905 2.3675 0.877812 0
M  V30 6862 C 661.218 1.90677 -2.32514 0
M  V30 6863 C 662.766 2.03515 -2.37804 0
M  V30 6864 C 663.241 2.79307 -3.62976 0
M  V30 6865 N 664.732 2.86862 -3.63681 0
M  V30 6866 C 665.467 3.46035 -4.57217 0
M  V30 6867 N 664.963 4.06399 -5.61081 0
M  V30 6868 N 666.756 3.43681 -4.44792 0
M  V30 6869 H 658.907 0.352765 -2.0945 0
M  V30 6870 H 661.17 0.21876 -0.922414 0
M  V30 6871 H 660.876 1.3756 -3.23682 0
M  V30 6872 H 660.75 2.91169 -2.39793 0
M  V30 6873 H 663.137 2.55809 -1.47125 0
M  V30 6874 H 663.218 1.02166 -2.34512 0
M  V30 6875 H 662.862 2.2769 -4.54004 0
M  V30 6876 H 662.792 3.80995 -3.63525 0
M  V30 6877 H 665.283 2.43987 -2.88581 0
M  V30 6878 H 665.596 4.49564 -6.2858 0
M  V30 6879 H 663.941 4.0487 -5.64894 0
M  V30 6880 H 667.132 2.9574 -3.62843 0
M  V30 6881 H 667.305 3.89503 -5.17872 0
M  V30 6882 N 660.711 1.11618 1.11262 0
M  V30 6883 C 661.988 0.777876 1.79467 0
M  V30 6884 C 662.368 -0.733774 1.97937 0
M  V30 6885 O 661.716 -1.66443 1.56554 0
M  V30 6886 C 661.926 1.5431 3.13032 0
M  V30 6887 C 663.274 1.72357 3.88044 0
M  V30 6888 O 664.298 1.5075 3.22727 0
M  V30 6889 O 663.157 2.08276 5.05256 0
M  V30 6890 H 660.251 0.282018 0.777428 0
M  V30 6891 H 662.797 1.21971 1.17988 0
M  V30 6892 H 661.569 2.57132 2.94956 0
M  V30 6893 H 661.192 1.09495 3.82226 0
M  V30 6894 N 662.189 -1.289 0.906776 0
M  V30 6895 C 663.137 -2.29477 0.379873 0
M  V30 6896 C 664.131 -1.61068 -0.524747 0
M  V30 6897 O 665.337 -1.75344 -0.406765 0
M  V30 6898 H 661.712 -0.744742 0.10423 0
M  V30 6899 H 663.683 -2.71353 1.24137 0
M  V30 6900 C 662.432 -3.45713 -0.371154 0
M  V30 6901 H 661.755 -3.98551 0.315716 0
M  V30 6902 H 663.195 -4.18105 -0.704581 0
M  V30 6903 C 661.654 -2.9774 -1.57646 0
M  V30 6904 O 662.184 -2.99618 -2.67567 0
M  V30 6905 N 660.39 -2.53485 -1.42105 0
M  V30 6906 H 659.937 -2.52156 -0.526783 0
M  V30 6907 H 659.895 -2.21747 -2.22881 0
M  V30 6908 N 663.667 -0.670007 -1.42649 0
M  V30 6909 C 664.6 0.0613623 -2.28117 0
M  V30 6910 C 665.578 0.813414 -1.40792 0
M  V30 6911 O 666.762 0.809529 -1.70232 0
M  V30 6912 C 663.889 1.09399 -3.20546 0
M  V30 6913 C 662.935 0.438064 -4.24244 0
M  V30 6914 S 663.768 -0.800808 -5.29478 0
M  V30 6915 C 664.924 0.23086 -6.25474 0
M  V30 6916 H 665.157 -0.663606 -2.89799 0
M  V30 6917 H 662.69 -0.45939 -1.47407 0
M  V30 6918 H 664.648 1.68469 -3.74337 0
M  V30 6919 H 663.309 1.79137 -2.58009 0
M  V30 6920 H 662.502 1.21707 -4.89084 0
M  V30 6921 H 662.104 -0.0789346 -3.73917 0
M  V30 6922 H 664.396 1.09204 -6.68641 0
M  V30 6923 H 665.339 -0.382945 -7.07064 0
M  V30 6924 H 665.747 0.574191 -5.61572 0
M  V30 6925 N 665.145 1.52092 -0.413018 0
M  V30 6926 C 666.055 2.30858 0.417318 0
M  V30 6927 C 667.071 1.38746 1.05003 0
M  V30 6928 O 668.247 1.71821 1.05069 0
M  V30 6929 C 665.312 3.11756 1.51687 0
M  V30 6930 C 664.373 4.19613 0.906825 0
M  V30 6931 C 663.606 4.96644 1.95399 0
M  V30 6932 O 663.829 4.7402 3.17271 0
M  V30 6933 O 662.763 5.81385 1.55805 0
M  V30 6934 H 666.589 3.02865 -0.225028 0
M  V30 6935 H 664.174 1.48358 -0.176126 0
M  V30 6936 H 666.056 3.62122 2.15512 0
M  V30 6937 H 664.731 2.42539 2.14375 0
M  V30 6938 H 663.638 3.73385 0.231183 0
M  V30 6939 H 664.971 4.91134 0.323814 0
M  V30 6940 N 666.623 0.143563 1.56945 0
M  V30 6941 C 667.533 -0.810562 2.20152 0
M  V30 6942 C 668.549 -1.27431 1.1848 0
M  V30 6943 O 669.725 -1.33221 1.51044 0
M  V30 6944 C 666.79 -2.03353 2.80799 0
M  V30 6945 C 665.851 -1.61936 3.97587 0
M  V30 6946 C 665.084 -2.78403 4.55332 0
M  V30 6947 O 665.307 -3.94521 4.11958 0
M  V30 6948 O 664.241 -2.54073 5.45647 0
M  V30 6949 H 668.067 -0.30253 3.02189 0
M  V30 6950 H 665.652 -0.0832925 1.49168 0
M  V30 6951 H 667.534 -2.74932 3.19359 0
M  V30 6952 H 666.209 -2.53116 2.01777 0
M  V30 6953 H 665.116 -0.873904 3.6375 0
M  V30 6954 H 666.449 -1.16892 4.78118 0
M  V30 6955 N 668.101 -1.57061 -0.130224 0
M  V30 6956 C 669.378 -1.75205 -0.869631 0
M  V30 6957 C 669.758 -0.716063 -1.98584 0
M  V30 6958 O 669.106 0.262032 -2.26993 0
M  V30 6959 C 669.316 -3.19835 -1.39666 0
M  V30 6960 C 670.664 -3.82011 -1.85345 0
M  V30 6961 O 671.688 -3.23368 -1.49371 0
M  V30 6962 O 670.547 -4.85064 -2.51744 0
M  V30 6963 H 667.641 -0.716977 -0.412157 0
M  V30 6964 H 670.187 -1.69311 -0.11484 0
M  V30 6965 H 668.959 -3.86745 -0.595288 0
M  V30 6966 H 668.582 -3.30222 -2.21448 0
M  V30 6967 N 669.579 0.400081 -1.52437 0
M  V30 6968 C 670.527 1.50851 -1.7705 0
M  V30 6969 C 671.521 1.56928 -0.637969 0
M  V30 6970 O 672.727 1.60226 -0.820212 0
M  V30 6971 H 669.102 0.50186 -0.560036 0
M  V30 6972 H 671.073 1.27281 -2.69893 0
M  V30 6973 C 669.822 2.88117 -1.94638 0
M  V30 6974 H 669.145 2.84187 -2.81208 0
M  V30 6975 H 670.585 3.64942 -2.15855 0
M  V30 6976 C 669.044 3.29206 -0.715899 0
M  V30 6977 O 669.574 4.01544 0.111944 0
M  V30 6978 N 667.78 2.85363 -0.549191 0
M  V30 6979 H 667.327 2.26664 -1.22397 0
M  V30 6980 H 667.285 3.13214 0.27278 0
M  V30 6981 N 671.057 1.43213 0.657864 0
M  V30 6982 C 672.303 1.44798 1.41991 0
M  V30 6983 C 672.636 0.070256 1.94073 0
M  V30 6984 O 671.911 -0.908177 1.71995 0
M  V30 6985 C 672.194 2.4865 2.60471 0
M  V30 6986 C 672.047 3.95679 2.13911 0
M  V30 6987 C 673.366 2.49292 3.62686 0
M  V30 6988 H 670.485 0.527244 0.514959 0
M  V30 6989 H 673.127 1.74733 0.74621 0
M  V30 6990 H 671.277 2.23254 3.17946 0
M  V30 6991 H 672.949 4.32116 1.61472 0
M  V30 6992 H 671.192 4.08733 1.45325 0
M  V30 6993 H 671.863 4.6395 2.99089 0
M  V30 6994 H 674.339 2.71917 3.14961 0
M  V30 6995 H 673.215 3.23907 4.43143 0
M  V30 6996 H 673.476 1.52502 4.14964 0
M  V30 6997 N 672.536 -0.895792 1.29666 0
M  V30 6998 C 673.446 -2.03329 1.17024 0
M  V30 6999 C 674.462 -1.73753 0.0925962 0
M  V30 7000 O 675.638 -1.99071 0.305431 0
M  V30 7001 C 672.703 -3.36072 0.851841 0
M  V30 7002 C 671.764 -3.7914 2.01373 0
M  V30 7003 C 670.997 -5.05549 1.71043 0
M  V30 7004 O 671.22 -5.66874 0.633213 0
M  V30 7005 O 670.154 -5.44764 2.5596 0
M  V30 7006 H 673.98 -2.16918 2.12556 0
M  V30 7007 H 671.565 -1.02007 1.09156 0
M  V30 7008 H 673.447 -4.15729 0.689006 0
M  V30 7009 H 672.122 -3.23616 -0.0736634 0
M  V30 7010 H 671.029 -3.00233 2.23183 0
M  V30 7011 H 672.362 -3.96186 2.92058 0
M  V30 7012 N 674.014 -1.12206 -1.10668 0
M  V30 7013 C 674.924 -0.800686 -2.20513 0
M  V30 7014 C 675.94 0.209512 -1.72734 0
M  V30 7015 O 677.116 0.043705 -2.01353 0
M  V30 7016 C 674.181 -0.257353 -3.45744 0
M  V30 7017 C 673.242 -1.32718 -4.0827 0
M  V30 7018 C 672.475 -0.809674 -5.27522 0
M  V30 7019 O 672.698 0.35742 -5.69279 0
M  V30 7020 O 671.632 -1.57816 -5.80842 0
M  V30 7021 H 675.458 -1.71807 -2.50432 0
M  V30 7022 H 673.043 -0.898546 -1.19359 0
M  V30 7023 H 674.925 0.0408849 -4.2138 0
M  V30 7024 H 673.6 0.632627 -3.17458 0
M  V30 7025 H 672.507 -1.67855 -3.34329 0
M  V30 7026 H 673.84 -2.19083 -4.40753 0
M  V30 7027 N 675.492 1.28418 -0.913599 0
M  V30 7028 C 676.717 1.99643 -0.561899 0
M  V30 7029 C 677.142 1.67819 0.849608 0
M  V30 7030 O 676.5 0.910503 1.56779 0
M  V30 7031 C 676.548 3.52116 -0.777622 0
M  V30 7032 O 675.652 4.12076 0.163457 0
M  V30 7033 H 674.993 0.627229 -0.217898 0
M  V30 7034 H 677.523 1.63575 -1.229 0
M  V30 7035 H 677.533 4.02163 -0.687666 0
M  V30 7036 H 676.208 3.74613 -1.8066 0
M  V30 7037 H 674.785 3.72892 0.0247827 0
M  V30 7038 N 676.97 0.677563 1.42291 0
M  V30 7039 C 677.88 0.000962654 2.346 0
M  V30 7040 C 678.896 -0.785833 1.55244 0
M  V30 7041 O 680.072 -0.727523 1.87801 0
M  V30 7042 C 677.137 -0.936746 3.33805 0
M  V30 7043 C 676.198 -0.144173 4.29058 0
M  V30 7044 C 675.431 -1.03722 5.23524 0
M  V30 7045 O 675.654 -2.27675 5.22992 0
M  V30 7046 O 674.588 -0.496542 5.99848 0
M  V30 7047 H 678.414 0.761397 2.94001 0
M  V30 7048 H 675.999 0.43781 1.42841 0
M  V30 7049 H 677.881 -1.47497 3.94744 0
M  V30 7050 H 676.556 -1.67698 2.76874 0
M  V30 7051 H 675.463 0.438224 3.71524 0
M  V30 7052 H 676.796 0.55701 4.89038 0
M  V30 7053 N 678.448 -1.51871 0.421078 0
M  V30 7054 C 679.358 -2.31077 -0.405069 0
M  V30 7055 C 680.374 -1.39301 -1.04265 0
M  V30 7056 O 681.55 -1.72376 -1.04157 0
M  V30 7057 C 678.615 -3.12556 -1.50032 0
M  V30 7058 C 677.676 -4.20088 -0.884559 0
M  V30 7059 C 676.909 -4.97673 -1.92762 0
M  V30 7060 O 677.132 -4.75696 -3.14753 0
M  V30 7061 O 676.066 -5.82203 -1.52719 0
M  V30 7062 H 679.892 -3.02742 0.241086 0
M  V30 7063 H 677.477 -1.48263 0.183991 0
M  V30 7064 H 679.359 -3.6326 -2.13589 0
M  V30 7065 H 678.034 -2.43672 -2.13086 0
M  V30 7066 H 676.941 -3.73502 -0.211379 0
M  V30 7067 H 678.274 -4.91298 -0.297763 0
M  V30 7068 N 679.926 -0.151884 -1.56866 0
M  V30 7069 C 680.836 0.798876 -2.20579 0
M  V30 7070 C 681.852 1.268 -1.19154 0
M  V30 7071 O 683.028 1.32418 -1.51748 0
M  V30 7072 C 680.093 2.01861 -2.81874 0
M  V30 7073 C 679.154 1.59825 -3.9844 0
M  V30 7074 C 678.387 2.75984 -4.56802 0
M  V30 7075 O 678.61 3.92331 -4.14044 0
M  V30 7076 O 677.544 2.51175 -5.46987 0
M  V30 7077 H 681.37 0.2865 -3.02346 0
M  V30 7078 H 678.955 0.0753806 -1.4921 0
M  V30 7079 H 680.837 2.73235 -3.20813 0
M  V30 7080 H 679.512 2.52042 -2.03117 0
M  V30 7081 H 678.419 0.854601 -3.64208 0
M  V30 7082 H 679.752 1.14355 -4.78731 0
M  V30 7083 N 681.404 1.57128 0.121893 0
M  V30 7084 C 682.652 1.84335 0.828548 0
M  V30 7085 C 682.973 0.736632 1.80551 0
M  V30 7086 O 682.243 -0.23962 1.94429 0
M  V30 7087 H 680.823 0.680108 0.30897 0
M  V30 7088 H 683.485 1.9459 0.109906 0
M  V30 7089 H 682.581 2.80152 1.37554 0
M  V30 7090 N 682.882 -0.391992 1.52647 0
M  V30 7091 C 684.293 -0.970064 1.5952 0
M  V30 7092 C 684.644 -1.91059 0.446207 0
M  V30 7093 O 683.769 -2.12062 -0.431125 0
M  V30 7094 C 684.364 -1.76614 2.89125 0
M  V30 7095 C 682.923 -2.29396 2.9842 0
M  V30 7096 C 682.07 -1.09864 2.54608 0
M  V30 7097 H 685.021 -0.171638 1.57769 0
M  V30 7098 H 685.042 -2.62511 2.75442 0
M  V30 7099 H 684.554 -1.08135 3.72731 0
M  V30 7100 H 682.655 -3.01196 2.19344 0
M  V30 7101 H 682.768 -2.59088 4.03002 0
M  V30 7102 H 681.132 -1.45777 2.08857 0
M  V30 7103 H 681.915 -0.429249 3.40606 0
M  V30 7104 N 684.36 -1.4356 -0.65026 0
M  V30 7105 C 685.606 -1.46545 -1.41054 0
M  V30 7106 C 685.961 -0.0894113 -1.92192 0
M  V30 7107 O 685.254 0.892427 -1.69547 0
M  V30 7108 C 685.448 -2.44528 -2.60654 0
M  V30 7109 C 685.277 -3.91524 -2.21222 0
M  V30 7110 C 684.047 -4.59866 -2.09408 0
M  V30 7111 C 686.245 -4.81276 -1.81323 0
M  V30 7112 N 684.227 -5.91772 -1.63337 0
M  V30 7113 C 685.598 -6.02478 -1.46356 0
M  V30 7114 C 687.653 -4.6851 -1.68532 0
M  V30 7115 C 686.356 -7.12332 -0.998805 0
M  V30 7116 C 688.382 -5.78369 -1.23461 0
M  V30 7117 C 687.744 -6.98699 -0.894337 0
M  V30 7118 H 683.843 -0.59135 -0.511693 0
M  V30 7119 H 686.427 -1.79759 -0.747978 0
M  V30 7120 H 684.598 -2.13336 -3.24565 0
M  V30 7121 H 686.33 -2.37932 -3.27369 0
M  V30 7122 H 683.085 -4.14412 -2.29259 0
M  V30 7123 H 683.509 -6.61799 -1.42655 0
M  V30 7124 H 688.151 -3.75933 -1.93479 0
M  V30 7125 H 685.869 -8.04734 -0.736835 0
M  V30 7126 H 689.455 -5.70512 -1.1405 0
M  V30 7127 H 688.335 -7.82263 -0.550901 0
M  V30 7128 N 685.838 0.888903 -1.30139 0
M  V30 7129 C 686.748 2.02705 -1.18101 0
M  V30 7130 C 687.764 1.73702 -0.101809 0
M  V30 7131 O 688.94 1.98906 -0.315984 0
M  V30 7132 C 686.005 3.35616 -0.869651 0
M  V30 7133 C 685.066 3.78067 -2.03381 0
M  V30 7134 C 684.299 5.04635 -1.73721 0
M  V30 7135 O 684.522 5.66531 -0.663267 0
M  V30 7136 O 683.456 5.43399 -2.58845 0
M  V30 7137 H 687.282 2.15788 -2.13704 0
M  V30 7138 H 684.867 1.01426 -1.09695 0
M  V30 7139 H 686.749 4.15358 -0.711043 0
M  V30 7140 H 685.424 3.23651 0.0565002 0
M  V30 7141 H 684.331 2.99046 -2.24772 0
M  V30 7142 H 685.664 3.94631 -2.94155 0
M  V30 7143 N 687.317 1.12792 1.10072 0
M  V30 7144 C 688.728 0.899346 1.63611 0
M  V30 7145 C 689.079 -0.565547 1.87872 0
M  V30 7146 O 688.204 -1.43081 1.62348 0
M  V30 7147 C 688.799 1.62608 2.97227 0
M  V30 7148 C 687.358 1.44356 3.47618 0
M  V30 7149 C 686.505 1.65958 2.22156 0
M  V30 7150 H 689.456 1.28216 0.935223 0
M  V30 7151 H 689.477 1.0793 3.64872 0
M  V30 7152 H 688.989 2.69221 2.79538 0
M  V30 7153 H 687.09 0.400148 3.70445 0
M  V30 7154 H 687.203 2.20218 4.25489 0
M  V30 7155 H 685.567 1.08395 2.30484 0
M  V30 7156 H 686.35 2.73877 2.06993 0
M  V30 7157 N 688.795 -1.27931 0.920396 0
M  V30 7158 C 690.206 -1.76707 0.602616 0
M  V30 7159 C 690.557 -1.75249 -0.882159 0
M  V30 7160 O 689.682 -1.35135 -1.69019 0
M  V30 7161 C 690.277 -3.20884 1.08714 0
M  V30 7162 C 688.836 -3.67356 0.820157 0
M  V30 7163 C 687.983 -2.47525 1.25006 0
M  V30 7164 H 690.934 -1.14301 1.10095 0
M  V30 7165 H 690.955 -3.78045 0.431535 0
M  V30 7166 H 690.467 -3.21913 2.1678 0
M  V30 7167 H 688.568 -3.7178 -0.247012 0
M  V30 7168 H 688.681 -4.57181 1.43257 0
M  V30 7169 H 687.045 -2.45765 0.668698 0
M  V30 7170 H 687.828 -2.51269 2.3392 0
M  V30 7171 N 690.273 -0.685099 -1.4193 0
M  V30 7172 C 691.519 -0.211971 -2.01689 0
M  V30 7173 C 691.852 1.18189 -1.54094 0
M  V30 7174 O 691.127 1.79559 -0.747572 0
M  V30 7175 C 691.41 -0.258019 -3.59174 0
M  V30 7176 C 691.263 -1.68807 -4.16922 0
M  V30 7177 C 692.582 0.388044 -4.38386 0
M  V30 7178 H 689.701 -0.0784987 -0.732808 0
M  V30 7179 H 692.343 -0.871837 -1.68816 0
M  V30 7180 H 690.493 0.303832 -3.8731 0
M  V30 7181 H 692.165 -2.30296 -3.99702 0
M  V30 7182 H 690.408 -2.22553 -3.72361 0
M  V30 7183 H 691.079 -1.6719 -5.26072 0
M  V30 7184 H 693.555 -0.0903432 -4.16002 0
M  V30 7185 H 692.431 0.325232 -5.47936 0
M  V30 7186 H 692.692 1.4672 -4.17044 0
M  V30 7187 N 691.751 1.51645 -0.429126 0
M  V30 7188 C 692.681 2.30434 0.377148 0
M  V30 7189 C 693.662 1.35493 1.02838 0
M  V30 7190 O 694.847 1.6441 1.03359 0
M  V30 7191 C 691.977 3.14038 1.48315 0
M  V30 7192 C 690.931 4.1719 0.955855 0
M  V30 7193 C 690.257 4.89263 2.15698 0
M  V30 7194 C 691.557 5.223 -0.00402136 0
M  V30 7195 H 693.251 2.98085 -0.280336 0
M  V30 7196 H 690.797 1.43354 -0.136265 0
M  V30 7197 H 692.75 3.67933 2.05435 0
M  V30 7198 H 691.474 2.44193 2.16881 0
M  V30 7199 H 690.133 3.64335 0.406929 0
M  V30 7200 H 689.781 4.15929 2.82864 0
M  V30 7201 H 689.481 5.59009 1.81059 0
M  V30 7202 H 691.005 5.45978 2.73387 0
M  V30 7203 H 692.419 5.71315 0.476607 0
M  V30 7204 H 690.816 5.99525 -0.26258 0
M  V30 7205 H 691.886 4.75638 -0.943236 0
M  V30 7206 N 693.229 0.160201 1.56784 0
M  V30 7207 C 694.64 -0.358417 1.83227 0
M  V30 7208 C 694.991 -1.63831 1.07952 0
M  V30 7209 O 694.116 -2.13885 0.328995 0
M  V30 7210 C 694.711 -0.657058 3.32368 0
M  V30 7211 C 693.27 -1.12015 3.59346 0
M  V30 7212 C 692.417 -0.15015 2.76893 0
M  V30 7213 H 695.368 0.384669 1.53967 0
M  V30 7214 H 695.389 -1.51033 3.49241 0
M  V30 7215 H 694.901 0.274647 3.87127 0
M  V30 7216 H 693.002 -2.06734 3.09987 0
M  V30 7217 H 693.115 -1.037 4.67743 0
M  V30 7218 H 691.479 -0.645361 2.46388 0
M  V30 7219 H 692.262 0.775379 3.34429 0
M  V30 7220 N 694.707 -1.5719 -0.113559 0
M  V30 7221 C 695.956 -1.84325 -0.818984 0
M  V30 7222 C 696.269 -0.746685 -1.80787 0
M  V30 7223 O 697.475 -0.904596 -2.55987 0
M  V30 7224 C 695.931 -3.26818 -1.50724 0
M  V30 7225 C 695.539 -4.44498 -0.559065 0
M  V30 7226 C 697.283 -3.63196 -2.19748 0
M  V30 7227 C 695.19 -5.7802 -1.25086 0
M  V30 7228 H 694.12 -0.687507 -0.309596 0
M  V30 7229 H 696.771 -1.8336 -0.0717621 0
M  V30 7230 H 695.153 -3.22269 -2.30128 0
M  V30 7231 H 696.327 -4.60356 0.202146 0
M  V30 7232 H 694.642 -4.16393 0.024495 0
M  V30 7233 H 697.239 -4.60226 -2.72206 0
M  V30 7234 H 697.582 -2.90899 -2.97798 0
M  V30 7235 H 698.115 -3.69553 -1.47226 0
M  V30 7236 H 694.854 -6.53501 -0.511539 0
M  V30 7237 H 694.374 -5.66038 -1.98395 0
M  V30 7238 H 696.053 -6.2196 -1.78253 0
M  V30 7239 N 696.185 0.383891 -1.52853 0
M  V30 7240 C 697.115 1.47559 -1.80965 0
M  V30 7241 C 698.096 1.5669 -0.661986 0
M  V30 7242 O 699.281 1.71556 -0.910072 0
M  V30 7243 C 696.411 2.85114 -1.98312 0
M  V30 7244 C 695.365 2.9082 -3.14019 0
M  V30 7245 C 694.691 4.30873 -3.16627 0
M  V30 7246 C 695.991 2.60001 -4.52986 0
M  V30 7247 H 697.685 1.24283 -2.72386 0
M  V30 7248 H 695.231 0.596445 -1.31067 0
M  V30 7249 H 697.184 3.61496 -2.16561 0
M  V30 7250 H 695.908 3.09738 -1.03585 0
M  V30 7251 H 694.567 2.16886 -2.9556 0
M  V30 7252 H 694.215 4.52545 -2.19573 0
M  V30 7253 H 693.915 4.3561 -3.94357 0
M  V30 7254 H 695.439 5.09154 -3.37038 0
M  V30 7255 H 696.853 3.261 -4.71521 0
M  V30 7256 H 695.25 2.76081 -5.32822 0
M  V30 7257 H 696.32 1.5532 -4.59351 0
M  V30 7258 N 697.663 1.43903 0.642637 0
M  V30 7259 C 698.891 1.4954 1.42988 0
M  V30 7260 C 699.306 0.116588 1.8844 0
M  V30 7261 O 698.663 -0.875285 1.60141 0
M  V30 7262 C 698.714 2.45031 2.65785 0
M  V30 7263 O 698.435 3.77551 2.22232 0
M  V30 7264 C 699.936 2.60017 3.59035 0
M  V30 7265 H 697.156 0.507544 0.438907 0
M  V30 7266 H 699.7 1.88752 0.786942 0
M  V30 7267 H 697.855 2.08985 3.26196 0
M  V30 7268 H 698.269 4.29001 3.01759 0
M  V30 7269 H 699.743 3.30887 4.41835 0
M  V30 7270 H 700.22 1.64861 4.07084 0
M  V30 7271 H 700.826 2.96918 3.045 0
M  V30 7272 N 699.141 -0.881989 1.30609 0
M  V30 7273 C 700.387 -1.63649 1.20791 0
M  V30 7274 C 700.742 -1.90966 -0.234437 0
M  V30 7275 O 700.035 -1.52163 -1.16434 0
M  V30 7276 C 700.229 -2.97999 1.97311 0
M  V30 7277 C 700.058 -2.83798 3.48839 0
M  V30 7278 C 698.828 -2.83622 4.18195 0
M  V30 7279 C 701.026 -2.59529 4.44015 0
M  V30 7280 N 699.008 -2.60344 5.55962 0
M  V30 7281 C 700.379 -2.45401 5.69366 0
M  V30 7282 C 702.434 -2.44777 4.33576 0
M  V30 7283 C 701.137 -2.18023 6.85462 0
M  V30 7284 C 703.163 -2.18785 5.49443 0
M  V30 7285 C 702.525 -2.05436 6.73777 0
M  V30 7286 H 698.624 -0.603687 0.497077 0
M  V30 7287 H 701.208 -1.03908 1.64655 0
M  V30 7288 H 699.379 -3.55767 1.55834 0
M  V30 7289 H 701.111 -3.6266 1.79611 0
M  V30 7290 H 697.866 -2.95562 3.70054 0
M  V30 7291 H 698.29 -2.51709 6.28468 0
M  V30 7292 H 702.932 -2.53831 3.38126 0
M  V30 7293 H 700.65 -2.07707 7.8095 0
M  V30 7294 H 704.236 -2.08188 5.43276 0
M  V30 7295 H 703.116 -1.85605 7.61919 0
M  V30 7296 N 700.619 -1.13374 -1.09472 0
M  V30 7297 C 702.03 -0.90801 -1.63132 0
M  V30 7298 C 702.381 0.555576 -1.8817 0
M  V30 7299 O 701.506 1.42218 -1.63104 0
M  V30 7300 C 702.101 -1.64182 -2.96361 0
M  V30 7301 C 700.66 -1.46197 -3.46848 0
M  V30 7302 C 699.807 -1.67134 -2.21273 0
M  V30 7303 H 702.758 -1.2871 -0.928411 0
M  V30 7304 H 702.779 -1.09863 -3.64294 0
M  V30 7305 H 702.291 -2.707 -2.78106 0
M  V30 7306 H 700.392 -0.419788 -3.70228 0
M  V30 7307 H 700.505 -2.22472 -4.24315 0
M  V30 7308 H 698.869 -1.09616 -2.29905 0
M  V30 7309 H 699.652 -2.74971 -2.05538 0
M  V30 7310 N 702.098 1.27442 -0.927168 0
M  V30 7311 C 703.344 1.94679 -0.568164 0
M  V30 7312 C 703.677 1.72697 0.888219 0
M  V30 7313 O 702.952 1.05573 1.63354 0
M  V30 7314 C 703.235 3.4882 -0.894253 0
M  V30 7315 C 703.088 3.80146 -2.40435 0
M  V30 7316 C 704.407 4.38281 -0.399766 0
M  V30 7317 H 701.526 0.707071 -0.207892 0
M  V30 7318 H 704.168 1.50568 -1.15885 0
M  V30 7319 H 702.318 3.86522 -0.391566 0
M  V30 7320 H 703.99 3.52238 -2.97869 0
M  V30 7321 H 702.233 3.26716 -2.85375 0
M  V30 7322 H 702.904 4.87835 -2.58304 0
M  V30 7323 H 705.38 4.07726 -0.83058 0
M  V30 7324 H 704.256 5.44955 -0.656885 0
M  V30 7325 H 704.517 4.36521 0.700153 0
M  V30 7326 N 703.576 0.692616 1.41565 0
M  V30 7327 C 704.506 0.0397325 2.33466 0
M  V30 7328 C 705.487 -0.770334 1.51657 0
M  V30 7329 O 706.672 -0.723903 1.80203 0
M  V30 7330 C 703.802 -0.899495 3.3545 0
M  V30 7331 C 702.756 -0.196738 4.27548 0
M  V30 7332 C 702.082 -1.25012 5.19881 0
M  V30 7333 C 703.382 0.935158 5.1386 0
M  V30 7334 H 705.076 0.807296 2.88311 0
M  V30 7335 H 702.622 0.389665 1.38628 0
M  V30 7336 H 704.575 -1.36545 3.98665 0
M  V30 7337 H 703.299 -1.69869 2.78948 0
M  V30 7338 H 701.958 0.249158 3.65752 0
M  V30 7339 H 701.606 -2.04177 4.59696 0
M  V30 7340 H 701.306 -0.784931 5.82334 0
M  V30 7341 H 702.83 -1.71665 5.85972 0
M  V30 7342 H 704.244 0.549619 5.70659 0
M  V30 7343 H 702.641 1.32726 5.85238 0
M  V30 7344 H 703.711 1.77613 4.512 0
M  V30 7345 N 705.054 -1.51416 0.437162 0
M  V30 7346 C 705.986 -2.255 -0.410171 0
M  V30 7347 C 706.999 -1.29511 -0.986444 0
M  V30 7348 O 708.188 -1.55266 -0.880614 0
M  V30 7349 C 705.288 -2.99511 -1.58575 0
M  V30 7350 C 704.461 -4.22595 -1.12839 0
M  V30 7351 C 703.52 -4.79187 -2.17407 0
M  V30 7352 O 702.546 -5.4103 -1.76849 0
M  V30 7353 N 703.748 -4.63204 -3.49889 0
M  V30 7354 H 706.513 -2.98856 0.224783 0
M  V30 7355 H 704.074 -1.59699 0.266041 0
M  V30 7356 H 706.066 -3.34258 -2.28152 0
M  V30 7357 H 704.636 -2.29167 -2.12606 0
M  V30 7358 H 703.856 -3.93344 -0.259695 0
M  V30 7359 H 705.144 -5.02468 -0.800196 0
M  V30 7360 H 704.542 -4.13945 -3.85573 0
M  V30 7361 H 703.099 -5.02313 -4.15361 0
M  V30 7362 N 706.532 -0.168513 -1.56696 0
M  V30 7363 C 707.757 0.486688 -2.01609 0
M  V30 7364 C 708.182 1.56203 -1.04796 0
M  V30 7365 O 707.54 1.8128 -0.0270596 0
M  V30 7366 C 707.588 1.04451 -3.45141 0
M  V30 7367 O 706.692 2.15862 -3.51393 0
M  V30 7368 H 706.033 0.116831 -0.653641 0
M  V30 7369 H 708.563 -0.271579 -2.0279 0
M  V30 7370 H 708.573 1.36782 -3.84389 0
M  V30 7371 H 707.248 0.257155 -4.15104 0
M  V30 7372 H 705.825 1.84597 -3.24004 0
M  V30 7373 N 708.01 1.57248 0.105221 0
M  V30 7374 C 709.426 1.52853 0.459153 0
M  V30 7375 C 709.626 0.883674 1.8109 0
M  V30 7376 O 708.682 0.471864 2.48052 0
M  V30 7377 C 709.995 2.97596 0.43096 0
M  V30 7378 C 711.543 3.08758 0.513536 0
M  V30 7379 C 712.018 4.55089 0.515593 0
M  V30 7380 N 713.509 4.59597 0.576639 0
M  V30 7381 C 714.244 5.70253 0.599904 0
M  V30 7382 N 713.74 6.90368 0.579985 0
M  V30 7383 N 715.533 5.58399 0.643953 0
M  V30 7384 H 707.684 1.97547 -0.780306 0
M  V30 7385 H 709.947 0.902758 -0.289363 0
M  V30 7386 H 709.653 3.48201 -0.494903 0
M  V30 7387 H 709.527 3.55756 1.2537 0
M  V30 7388 H 711.914 2.58148 1.42982 0
M  V30 7389 H 711.995 2.53568 -0.337148 0
M  V30 7390 H 711.639 5.06348 -0.396701 0
M  V30 7391 H 711.569 5.08105 1.38335 0
M  V30 7392 H 714.06 3.73144 0.597639 0
M  V30 7393 H 714.373 7.70462 0.600741 0
M  V30 7394 H 712.718 6.92843 0.547191 0
M  V30 7395 H 715.909 4.63467 0.656975 0
M  V30 7396 H 716.082 6.44644 0.658616 0
M  V30 7397 N 709.488 -0.375779 1.53054 0
M  V30 7398 C 710.716 -1.14036 1.72637 0
M  V30 7399 C 711.131 -1.83342 0.450687 0
M  V30 7400 O 710.488 -1.7318 -0.575749 0
M  V30 7401 C 710.539 -2.17841 2.88492 0
M  V30 7402 O 710.26 -1.51358 4.11123 0
M  V30 7403 C 711.761 -3.06924 3.19863 0
M  V30 7404 H 708.981 -0.341386 0.577665 0
M  V30 7405 H 711.525 -0.437809 1.99759 0
M  V30 7406 H 709.68 -2.8371 2.63794 0
M  V30 7407 H 710.094 -2.20439 4.75928 0
M  V30 7408 H 711.568 -3.75763 4.04359 0
M  V30 7409 H 712.045 -3.71169 2.34798 0
M  V30 7410 H 712.651 -2.46684 3.46449 0
M  V30 7411 N 710.966 -1.44241 -0.634997 0
M  V30 7412 C 712.214 -1.46531 -1.39187 0
M  V30 7413 C 712.535 -0.0976441 -1.94755 0
M  V30 7414 O 711.805 0.869528 -1.75545 0
M  V30 7415 H 710.385 -0.539544 -0.516625 0
M  V30 7416 H 713.047 -1.79989 -0.747655 0
M  V30 7417 H 712.143 -2.18848 -2.22513 0
M  V30 7418 N 712.444 0.87505 -1.31075 0
M  V30 7419 C 713.374 1.99775 -1.20881 0
M  V30 7420 C 714.355 1.69822 -0.0971612 0
M  V30 7421 O 715.54 1.92158 -0.280895 0
M  V30 7422 C 712.67 3.35163 -0.910118 0
M  V30 7423 C 711.624 3.79406 -1.98078 0
M  V30 7424 C 710.95 5.12197 -1.53488 0
M  V30 7425 C 712.25 3.97061 -3.39323 0
M  V30 7426 H 713.944 2.08562 -2.14808 0
M  V30 7427 H 711.49 1.00207 -1.03415 0
M  V30 7428 H 713.443 4.13237 -0.825423 0
M  V30 7429 H 712.167 3.26536 0.064822 0
M  V30 7430 H 710.826 3.03568 -2.05528 0
M  V30 7431 H 710.474 5.00007 -0.547941 0
M  V30 7432 H 710.174 5.4277 -2.2511 0
M  V30 7433 H 711.698 5.92785 -1.46417 0
M  V30 7434 H 713.112 4.65545 -3.34576 0
M  V30 7435 H 711.509 4.39025 -4.09118 0
M  V30 7436 H 712.579 3.00601 -3.80483 0
M  V30 7437 N 713.922 1.13953 1.08869 0
M  V30 7438 C 715.168 0.906151 1.8143 0
M  V30 7439 C 715.501 -0.566089 1.85766 0
M  V30 7440 O 714.776 -1.41915 1.33006 0
M  V30 7441 C 715.059 1.50183 3.27287 0
M  V30 7442 C 714.912 3.04359 3.31189 0
M  V30 7443 C 716.231 1.17477 4.24131 0
M  V30 7444 H 713.35 0.330624 0.658678 0
M  V30 7445 H 715.992 1.40873 1.27495 0
M  V30 7446 H 714.142 1.07442 3.73348 0
M  V30 7447 H 715.814 3.55896 2.93488 0
M  V30 7448 H 714.057 3.39053 2.70602 0
M  V30 7449 H 714.728 3.41141 4.33966 0
M  V30 7450 H 717.204 1.5442 3.86385 0
M  V30 7451 H 716.08 1.61795 5.24513 0
M  V30 7452 H 716.341 0.0893312 4.4201 0
M  V30 7453 N 715.4 -1.26948 0.933913 0
M  V30 7454 C 716.63 -1.97898 0.593279 0
M  V30 7455 C 717.038 -1.69806 -0.834412 0
M  V30 7456 O 716.381 -0.958704 -1.56699 0
M  V30 7457 C 716.443 -3.51657 0.746825 0
M  V30 7458 C 716.107 -4.03384 2.14779 0
M  V30 7459 C 717.104 -4.15682 3.12257 0
M  V30 7460 C 714.789 -4.37577 2.46641 0
M  V30 7461 C 716.783 -4.61455 4.39702 0
M  V30 7462 C 714.47 -4.8304 3.7432 0
M  V30 7463 C 715.468 -4.94939 4.70664 0
M  V30 7464 O 715.156 -5.39403 5.96071 0
M  V30 7465 H 714.888 -0.63814 0.223055 0
M  V30 7466 H 717.442 -1.62608 1.2549 0
M  V30 7467 H 715.672 -3.8669 0.0280889 0
M  V30 7468 H 717.361 -4.03821 0.410328 0
M  V30 7469 H 718.127 -3.89519 2.88964 0
M  V30 7470 H 714.006 -4.27554 1.72391 0
M  V30 7471 H 717.55 -4.70658 5.14905 0
M  V30 7472 H 713.447 -5.08646 3.97429 0
M  V30 7473 H 714.215 -5.57641 5.99148 0
M  V30 7474 N 716.879 -0.700114 -1.41195 0
M  V30 7475 C 718.156 -0.160836 -1.94938 0
M  V30 7476 C 718.536 1.33014 -1.63922 0
M  V30 7477 O 717.884 2.07878 -0.948636 0
M  V30 7478 C 718.094 -0.456991 -3.45995 0
M  V30 7479 C 719.442 -0.387207 -4.22831 0
M  V30 7480 O 720.466 -0.392164 -3.54035 0
M  V30 7481 O 719.325 -0.351267 -5.4537 0
M  V30 7482 H 716.419 -0.0176304 -0.826812 0
M  V30 7483 H 718.965 -0.776586 -1.50888 0
M  V30 7484 H 717.737 -1.48884 -3.61869 0
M  V30 7485 H 717.36 0.189503 -3.97148 0
M  V30 7486 N 718.357 1.51182 -0.445186 0
M  V30 7487 C 719.289 2.25714 0.398206 0
M  V30 7488 C 720.302 1.30032 0.979562 0
M  V30 7489 O 721.491 1.55731 0.872368 0
M  V30 7490 C 718.591 3.00348 1.56985 0
M  V30 7491 C 717.764 4.23187 1.10596 0
M  V30 7492 C 716.823 4.80334 2.14863 0
M  V30 7493 O 715.849 5.4196 1.73977 0
M  V30 7494 N 717.051 4.65053 3.47427 0
M  V30 7495 H 719.816 2.98732 -0.240629 0
M  V30 7496 H 717.377 1.59556 -0.274507 0
M  V30 7497 H 719.369 3.35464 2.26376 0
M  V30 7498 H 717.939 2.30291 2.11387 0
M  V30 7499 H 717.159 3.93476 0.238832 0
M  V30 7500 H 718.447 5.02886 0.773537 0
M  V30 7501 H 717.845 4.15984 3.83372 0
M  V30 7502 H 716.402 5.04509 4.12691 0
M  V30 7503 N 719.835 0.176821 1.56605 0
M  V30 7504 C 720.783 -0.768159 2.1955 0
M  V30 7505 C 721.777 -1.23343 1.16116 0
M  V30 7506 O 722.983 -1.19844 1.34303 0
M  V30 7507 H 719.358 -0.266013 0.703378 0
M  V30 7508 H 721.329 -0.213374 2.97636 0
M  V30 7509 C 720.078 -1.98492 2.85475 0
M  V30 7510 H 719.401 -1.63595 3.64797 0
M  V30 7511 H 720.841 -2.62489 3.3298 0
M  V30 7512 C 719.3 -2.81207 1.85538 0
M  V30 7513 O 719.83 -3.7854 1.34427 0
M  V30 7514 N 718.036 -2.46331 1.54173 0
M  V30 7515 H 717.583 -1.67241 1.95929 0
M  V30 7516 H 717.541 -3.01961 0.875595 0
M  V30 7517 N 721.313 -1.57302 -0.09688 0
M  V30 7518 C 722.246 -1.97179 -1.14872 0
M  V30 7519 C 723.224 -0.844734 -1.38935 0
M  V30 7520 O 724.408 -1.10487 -1.52725 0
M  V30 7521 C 721.535 -2.28703 -2.49826 0
M  V30 7522 C 720.581 -3.51158 -2.42054 0
M  V30 7523 S 721.414 -5.0294 -1.83879 0
M  V30 7524 C 722.57 -5.37639 -3.2046 0
M  V30 7525 H 722.803 -2.86088 -0.808771 0
M  V30 7526 H 720.336 -1.51368 -0.304492 0
M  V30 7527 H 722.294 -2.47541 -3.27466 0
M  V30 7528 H 720.955 -1.40368 -2.8099 0
M  V30 7529 H 720.148 -3.70651 -3.41517 0
M  V30 7530 H 719.75 -3.31821 -1.72543 0
M  V30 7531 H 722.042 -5.34175 -4.16729 0
M  V30 7532 H 722.985 -6.38677 -3.05773 0
M  V30 7533 H 723.393 -4.651 -3.19909 0
M  V30 7534 N 722.791 0.367657 -1.53252 0
M  V30 7535 C 723.724 1.47264 -1.74323 0
M  V30 7536 C 724.702 1.51458 -0.591535 0
M  V30 7537 O 725.886 1.69542 -0.823883 0
M  V30 7538 C 723.013 2.85637 -1.82015 0
M  V30 7539 C 722.059 2.99176 -3.03967 0
M  V30 7540 S 722.892 2.68147 -4.63527 0
M  V30 7541 C 724.048 4.08673 -4.74065 0
M  V30 7542 H 724.281 1.29169 -2.67773 0
M  V30 7543 H 721.814 0.561866 -1.43814 0
M  V30 7544 H 723.772 3.65365 -1.87132 0
M  V30 7545 H 722.433 3.01043 -0.896195 0
M  V30 7546 H 721.626 4.00511 -3.05953 0
M  V30 7547 H 721.228 2.27367 -2.96952 0
M  V30 7548 H 723.52 5.02889 -4.53992 0
M  V30 7549 H 724.463 4.11693 -5.7612 0
M  V30 7550 H 724.871 3.95576 -4.02716 0
M  V30 7551 N 724.269 1.44576 0.627338 0
M  V30 7552 C 725.217 1.52039 1.76031 0
M  V30 7553 C 726.211 0.391796 1.64807 0
M  V30 7554 O 727.417 0.5669 1.7084 0
M  V30 7555 H 723.792 0.477165 0.581221 0
M  V30 7556 H 725.763 2.47387 1.6686 0
M  V30 7557 C 724.512 1.48539 3.14375 0
M  V30 7558 H 723.835 2.34699 3.23661 0
M  V30 7559 H 725.275 1.57821 3.93534 0
M  V30 7560 C 723.734 0.20672 3.36265 0
M  V30 7561 O 724.264 -0.72154 3.95167 0
M  V30 7562 N 722.47 0.108654 2.90397 0
M  V30 7563 H 722.017 0.864884 2.42647 0
M  V30 7564 H 721.975 -0.746121 3.05418 0
M  V30 7565 N 725.747 -0.868086 1.31537 0
M  V30 7566 C 726.697 -1.96321 1.1594 0
M  V30 7567 C 727.681 -1.60748 0.0698962 0
M  V30 7568 O 728.873 -1.74524 0.295011 0
M  V30 7569 C 726.002 -3.32073 0.870789 0
M  V30 7570 C 725.088 -3.73907 2.00136 0
M  V30 7571 N 725.479 -3.87685 3.24859 0
M  V30 7572 C 723.777 -4.03433 1.90152 0
M  V30 7573 C 724.478 -4.23454 3.98825 0
M  V30 7574 N 723.454 -4.34242 3.27009 0
M  V30 7575 H 727.256 -2.05088 2.10514 0
M  V30 7576 H 724.77 -1.059 1.23122 0
M  V30 7577 H 726.767 -4.10279 0.740034 0
M  V30 7578 H 725.427 -3.24631 -0.0667068 0
M  V30 7579 H 726.438 -3.72363 3.59953 0
M  V30 7580 H 723.115 -4.0437 1.03879 0
M  V30 7581 H 724.505 -4.41696 5.06314 0
M  V30 7582 N 727.225 -1.14528 -1.08264 0
M  V30 7583 C 728.465 -0.924808 -1.82282 0
M  V30 7584 C 728.829 0.538881 -1.84283 0
M  V30 7585 O 730.03 0.877355 -2.54079 0
M  V30 7586 C 728.301 -1.51102 -3.23887 0
M  V30 7587 S 729.86 -1.43232 -4.14765 0
M  V30 7588 H 726.678 -0.333052 -0.62817 0
M  V30 7589 H 729.28 -1.45905 -1.30123 0
M  V30 7590 H 727.984 -2.56942 -3.20014 0
M  V30 7591 H 727.515 -0.975234 -3.8112 0
M  V30 7592 H 729.53 -0.418843 -4.94429 0
M  V30 7593 N 728.703 1.26451 -0.940633 0
M  V30 7594 C 729.651 2.28389 -0.440581 0
M  V30 7595 C 730.645 1.62402 0.481859 0
M  V30 7596 O 731.851 1.76361 0.360132 0
M  V30 7597 H 728.226 0.741716 -0.123938 0
M  V30 7598 H 730.197 2.67967 -1.31288 0
M  V30 7599 C 728.946 3.46576 0.279364 0
M  V30 7600 H 728.269 3.97574 -0.421274 0
M  V30 7601 H 729.709 4.19826 0.59348 0
M  V30 7602 C 728.168 3.01815 1.49697 0
M  V30 7603 O 728.698 3.06607 2.59529 0
M  V30 7604 N 726.904 2.57163 1.35334 0
M  V30 7605 H 726.451 2.53464 0.459743 0
M  V30 7606 H 726.409 2.27578 2.16923 0
M  V30 7607 N 730.181 0.707592 1.40822 0
M  V30 7608 C 731.111 0.0644925 2.33411 0
M  V30 7609 C 732.092 -0.754205 1.52466 0
M  V30 7610 O 733.277 -0.704749 1.80961 0
M  V30 7611 C 730.407 -0.863865 3.36385 0
M  V30 7612 C 729.361 -0.15138 4.27732 0
M  V30 7613 C 728.687 -1.19491 5.21177 0
M  V30 7614 C 729.987 0.989607 5.12839 0
M  V30 7615 H 731.681 0.837829 2.87438 0
M  V30 7616 H 729.227 0.404346 1.38207 0
M  V30 7617 H 731.18 -1.32309 4.0009 0
M  V30 7618 H 729.904 -1.66901 2.80734 0
M  V30 7619 H 728.563 0.287937 3.65467 0
M  V30 7620 H 728.211 -1.9929 4.61836 0
M  V30 7621 H 727.911 -0.723123 5.83134 0
M  V30 7622 H 729.435 -1.6544 5.8776 0
M  V30 7623 H 730.849 0.610114 5.70044 0
M  V30 7624 H 729.246 1.38926 5.83798 0
M  V30 7625 H 730.316 1.82389 4.49291 0
M  V30 7626 N 731.66 -1.50943 0.453197 0
M  V30 7627 C 732.906 -2.03153 -0.100277 0
M  V30 7628 C 733.261 -1.33032 -1.38997 0
M  V30 7629 O 732.554 -0.441423 -1.86446 0
M  V30 7630 C 732.748 -3.55603 -0.357944 0
M  V30 7631 C 732.577 -4.40495 0.905223 0
M  V30 7632 C 731.347 -4.84247 1.44337 0
M  V30 7633 C 733.545 -4.81931 1.79575 0
M  V30 7634 N 731.527 -5.53403 2.65742 0
M  V30 7635 C 732.898 -5.50314 2.85577 0
M  V30 7636 C 734.953 -4.63903 1.80828 0
M  V30 7637 C 733.656 -6.02581 3.92797 0
M  V30 7638 C 735.682 -5.17097 2.86993 0
M  V30 7639 C 735.044 -5.8544 3.91713 0
M  V30 7640 H 731.143 -0.781995 0.00287755 0
M  V30 7641 H 733.727 -1.84651 0.617411 0
M  V30 7642 H 731.898 -3.74087 -1.04467 0
M  V30 7643 H 733.63 -3.9447 -0.904175 0
M  V30 7644 H 730.385 -4.63029 0.995045 0
M  V30 7645 H 730.809 -5.92598 3.27348 0
M  V30 7646 H 735.451 -4.10512 1.0119 0
M  V30 7647 H 733.169 -6.55018 4.73262 0
M  V30 7648 H 736.755 -5.0499 2.88923 0
M  V30 7649 H 735.635 -6.25861 4.72512 0
M  V30 7650 N 733.138 -0.185124 -1.56509 0
M  V30 7651 C 734.415 0.503348 -1.89013 0
M  V30 7652 C 734.795 1.80349 -1.09715 0
M  V30 7653 O 734.143 2.27665 -0.195203 0
M  V30 7654 C 734.353 0.731839 -3.41241 0
M  V30 7655 C 735.701 1.05568 -4.11267 0
M  V30 7656 O 736.725 0.819906 -3.46635 0
M  V30 7657 O 735.584 1.50116 -5.25478 0
M  V30 7658 H 732.678 0.261139 -0.784688 0
M  V30 7659 H 735.224 -0.224592 -1.68207 0
M  V30 7660 H 733.996 -0.18672 -3.90854 0
M  V30 7661 H 733.619 1.5126 -3.67704 0
M  V30 7662 N 734.616 1.57351 0.0885366 0
M  V30 7663 C 735.841 1.91011 0.80805 0
M  V30 7664 C 736.266 0.780009 1.71165 0
M  V30 7665 O 735.624 -0.268083 1.79307 0
M  V30 7666 C 735.672 3.23562 1.59185 0
M  V30 7667 O 734.776 3.11615 2.7013 0
M  V30 7668 H 734.117 0.625943 0.221565 0
M  V30 7669 H 736.647 2.04507 0.0617954 0
M  V30 7670 H 736.657 3.5703 1.97468 0
M  V30 7671 H 735.332 4.05398 0.928741 0
M  V30 7672 H 733.909 2.89673 2.34827 0
M  V30 7673 N 736.094 -0.359525 1.53444 0
M  V30 7674 C 737.044 -1.441 1.7669 0
M  V30 7675 C 738.028 -1.48408 0.621599 0
M  V30 7676 O 739.22 -1.53547 0.880468 0
M  V30 7677 C 736.349 -2.81455 1.96566 0
M  V30 7678 C 735.435 -2.81601 3.17115 0
M  V30 7679 N 735.826 -2.51388 4.38905 0
M  V30 7680 C 734.124 -3.12758 3.1796 0
M  V30 7681 C 734.825 -2.59365 5.20677 0
M  V30 7682 N 733.801 -2.94328 4.57025 0
M  V30 7683 H 737.603 -1.19613 2.68458 0
M  V30 7684 H 735.117 -0.567761 1.52152 0
M  V30 7685 H 737.114 -3.59357 2.11348 0
M  V30 7686 H 735.774 -3.06901 1.06029 0
M  V30 7687 H 736.785 -2.24873 4.66533 0
M  V30 7688 H 733.462 -3.43479 2.37336 0
M  V30 7689 H 734.852 -2.39301 6.27841 0
M  V30 7690 N 737.572 -1.44907 -0.619662 0
M  V30 7691 C 738.522 -1.49085 -1.72504 0
M  V30 7692 C 739.506 -0.355372 -1.56926 0
M  V30 7693 O 740.698 -0.601441 -1.66468 0
M  V30 7694 C 737.827 -1.44889 -3.11227 0
M  V30 7695 C 736.913 -2.63593 -3.32234 0
M  V30 7696 N 737.304 -3.88775 -3.23555 0
M  V30 7697 C 735.602 -2.59033 -3.63067 0
M  V30 7698 C 736.303 -4.67932 -3.45564 0
M  V30 7699 N 735.279 -3.9919 -3.68983 0
M  V30 7700 H 739.081 -2.43706 -1.6427 0
M  V30 7701 H 736.595 -1.4003 -0.82252 0
M  V30 7702 H 738.592 -1.45966 -3.90512 0
M  V30 7703 H 737.252 -0.513143 -3.2062 0
M  V30 7704 H 738.263 -4.20574 -3.02221 0
M  V30 7705 H 734.94 -1.7431 -3.79371 0
M  V30 7706 H 736.33 -5.76952 -3.44349 0
M  V30 7707 N 739.05 0.861098 -1.31996 0
M  V30 7708 C 740.461 1.43065 -1.19955 0
M  V30 7709 C 740.812 1.95273 0.190489 0
M  V30 7710 O 739.937 1.87012 1.08882 0
M  V30 7711 C 740.532 2.60052 -2.1716 0
M  V30 7712 C 739.091 3.13026 -2.09026 0
M  V30 7713 C 738.238 1.85756 -2.05888 0
M  V30 7714 H 741.189 0.668834 -1.43918 0
M  V30 7715 H 741.21 3.37016 -1.76637 0
M  V30 7716 H 740.722 2.22024 -3.18319 0
M  V30 7717 H 738.823 3.55653 -1.11092 0
M  V30 7718 H 738.936 3.74707 -2.98549 0
M  V30 7719 H 737.3 2.05088 -1.51033 0
M  V30 7720 H 738.083 1.49954 -3.08818 0
M  V30 7721 N 740.528 1.15101 1.07655 0
M  V30 7722 C 741.438 0.858869 2.18313 0
M  V30 7723 C 742.454 -0.163641 1.73229 0
M  V30 7724 O 743.63 0.00969541 2.01398 0
M  V30 7725 C 740.695 0.34893 3.4494 0
M  V30 7726 C 739.756 1.43495 4.04608 0
M  V30 7727 C 738.989 0.949253 5.2519 0
M  V30 7728 O 739.212 -0.20636 5.70027 0
M  V30 7729 O 738.146 1.73161 5.76454 0
M  V30 7730 H 741.972 1.78386 2.45788 0
M  V30 7731 H 739.557 0.929876 1.16934 0
M  V30 7732 H 741.439 0.070851 4.2134 0
M  V30 7733 H 740.114 -0.548237 3.19024 0
M  V30 7734 H 739.021 1.7666 3.29761 0
M  V30 7735 H 740.354 2.30692 4.3479 0
M  V30 7736 N 742.006 -1.2595 0.947325 0
M  V30 7737 C 743.252 -1.9375 0.599064 0
M  V30 7738 C 743.585 -1.74088 -0.860632 0
M  V30 7739 O 742.86 -1.08158 -1.61654 0
M  V30 7740 C 743.143 -3.47353 0.949634 0
M  V30 7741 C 742.996 -3.76273 2.46452 0
M  V30 7742 C 744.315 -4.37589 0.469442 0
M  V30 7743 H 741.434 -0.703674 0.219115 0
M  V30 7744 H 744.076 -1.48705 1.18266 0
M  V30 7745 H 742.226 -3.8585 0.453008 0
M  V30 7746 H 743.898 -3.47455 3.03435 0
M  V30 7747 H 742.141 -3.22135 2.90537 0
M  V30 7748 H 742.812 -4.83664 2.66032 0
M  V30 7749 H 745.288 -4.06353 0.89534 0
M  V30 7750 H 744.164 -5.43841 0.7435 0
M  V30 7751 H 744.425 -4.37579 -0.630618 0
M  V30 7752 N 743.484 -0.715051 -1.40445 0
M  V30 7753 C 744.895 -0.326763 -1.83818 0
M  V30 7754 C 745.246 1.13851 -1.59789 0
M  V30 7755 O 744.371 1.87611 -1.07848 0
M  V30 7756 C 744.966 -0.586297 -3.33688 0
M  V30 7757 C 743.525 -0.251724 -3.75557 0
M  V30 7758 C 742.672 -0.858928 -2.63662 0
M  V30 7759 H 745.623 -0.914241 -1.2972 0
M  V30 7760 H 745.644 0.148636 -3.8021 0
M  V30 7761 H 745.156 -1.65281 -3.51146 0
M  V30 7762 H 743.257 0.809754 -3.63695 0
M  V30 7763 H 743.37 -0.720348 -4.73654 0
M  V30 7764 H 741.734 -0.287013 -2.53078 0
M  V30 7765 H 742.517 -1.9297 -2.83932 0
M  V30 7766 N 744.962 1.50701 -0.461195 0
M  V30 7767 C 745.894 2.26124 0.374244 0
M  V30 7768 C 746.907 1.31064 0.965715 0
M  V30 7769 O 748.096 1.56647 0.855801 0
M  V30 7770 C 745.196 3.01996 1.5379 0
M  V30 7771 C 744.369 4.24336 1.06101 0
M  V30 7772 C 743.428 4.82585 2.09756 0
M  V30 7773 O 742.454 5.43775 1.68219 0
M  V30 7774 N 743.656 4.68712 3.42475 0
M  V30 7775 H 746.421 2.9846 -0.2723 0
M  V30 7776 H 743.982 1.59256 -0.291415 0
M  V30 7777 H 745.974 3.37846 2.22806 0
M  V30 7778 H 744.544 2.32521 2.08933 0
M  V30 7779 H 743.764 3.93707 0.197085 0
M  V30 7780 H 745.052 5.03678 0.720156 0
M  V30 7781 H 744.45 4.20026 3.78938 0
M  V30 7782 H 743.007 5.08858 4.07317 0
M  V30 7783 N 746.441 0.193421 1.56409 0
M  V30 7784 C 747.857 -0.162447 1.58771 0
M  V30 7785 C 748.057 -1.6116 1.20954 0
M  V30 7786 O 747.113 -2.3469 0.931497 0
M  V30 7787 C 748.426 0.138391 3.00381 0
M  V30 7788 C 749.974 0.0783649 3.12902 0
M  V30 7789 C 750.449 0.352491 4.56642 0
M  V30 7790 N 751.94 0.30105 4.62221 0
M  V30 7791 C 752.675 0.487028 5.71328 0
M  V30 7792 N 752.171 0.733265 6.88909 0
M  V30 7793 N 753.964 0.4214 5.60518 0
M  V30 7794 H 746.115 1.13909 1.79272 0
M  V30 7795 H 748.378 0.454528 0.83193 0
M  V30 7796 H 748.084 1.14312 3.32604 0
M  V30 7797 H 747.958 -0.559804 3.73023 0
M  V30 7798 H 750.345 -0.916963 2.80492 0
M  V30 7799 H 750.426 0.809611 2.4265 0
M  V30 7800 H 750.07 1.34513 4.89764 0
M  V30 7801 H 750 -0.399624 5.25081 0
M  V30 7802 H 752.491 0.117279 3.77718 0
M  V30 7803 H 752.804 0.86403 7.67955 0
M  V30 7804 H 751.149 0.770138 6.9072 0
M  V30 7805 H 754.34 0.229461 4.67537 0
M  V30 7806 H 754.513 0.569758 6.4549 0
M  V30 7807 N 747.919 -1.57396 -0.0801906 0
M  V30 7808 C 749.168 -1.8602 -0.779702 0
M  V30 7809 C 749.481 -0.784864 -1.79163 0
M  V30 7810 O 750.687 -0.958691 -2.54011 0
M  V30 7811 C 749.143 -3.29942 -1.43758 0
M  V30 7812 C 748.751 -4.45584 -0.464654 0
M  V30 7813 C 750.495 -3.67775 -2.11995 0
M  V30 7814 C 748.402 -5.80544 -1.12797 0
M  V30 7815 H 747.332 -0.69392 -0.294943 0
M  V30 7816 H 749.983 -1.83471 -0.0328527 0
M  V30 7817 H 748.365 -3.27078 -2.2324 0
M  V30 7818 H 749.539 -4.59824 0.299749 0
M  V30 7819 H 747.854 -4.16247 0.112813 0
M  V30 7820 H 750.451 -4.65896 -2.62383 0
M  V30 7821 H 750.794 -2.9715 -2.91561 0
M  V30 7822 H 751.327 -3.72593 -1.39354 0
M  V30 7823 H 748.066 -6.54439 -0.372807 0
M  V30 7824 H 747.586 -5.70119 -1.86344 0
M  V30 7825 H 749.265 -6.25602 -1.6502 0
M  V30 7826 N 749.397 0.351382 -1.53633 0
M  V30 7827 C 750.327 1.43688 -1.84055 0
M  V30 7828 C 751.308 1.55251 -0.695073 0
M  V30 7829 O 752.493 1.69587 -0.946257 0
M  V30 7830 C 749.623 2.80843 -2.04315 0
M  V30 7831 C 748.577 2.84094 -3.20117 0
M  V30 7832 C 747.903 4.2406 -3.25696 0
M  V30 7833 C 749.203 2.50334 -4.58399 0
M  V30 7834 H 750.897 1.18478 -2.74961 0
M  V30 7835 H 748.443 0.568509 -1.32303 0
M  V30 7836 H 750.396 3.56821 -2.2418 0
M  V30 7837 H 749.12 3.07471 -1.10132 0
M  V30 7838 H 747.779 2.10568 -3.00094 0
M  V30 7839 H 747.427 4.47785 -2.29123 0
M  V30 7840 H 747.127 4.27147 -4.03509 0
M  V30 7841 H 748.651 5.0189 -3.47762 0
M  V30 7842 H 750.065 3.16025 -4.78332 0
M  V30 7843 H 748.462 2.64717 -5.38558 0
M  V30 7844 H 749.532 1.45542 -4.62543 0
M  V30 7845 N 750.875 1.45233 0.611969 0
M  V30 7846 C 752.291 1.29542 0.932251 0
M  V30 7847 C 752.491 0.24523 2.00002 0
M  V30 7848 O 751.547 -0.362333 2.49887 0
M  V30 7849 C 752.86 2.67301 1.37733 0
M  V30 7850 C 754.408 2.75163 1.49178 0
M  V30 7851 C 754.883 4.13437 1.97064 0
M  V30 7852 N 756.374 4.15709 2.04304 0
M  V30 7853 C 757.109 5.19566 2.42568 0
M  V30 7854 N 756.605 6.33771 2.79832 0
M  V30 7855 N 758.398 5.06923 2.42869 0
M  V30 7856 H 750.549 2.12192 -0.0938679 0
M  V30 7857 H 752.812 0.947775 0.0206569 0
M  V30 7858 H 752.518 3.45318 0.666951 0
M  V30 7859 H 752.392 2.95472 2.3447 0
M  V30 7860 H 754.779 1.97453 2.19309 0
M  V30 7861 H 754.86 2.50712 0.507674 0
M  V30 7862 H 754.504 4.91631 1.27521 0
M  V30 7863 H 754.434 4.35277 2.9638 0
M  V30 7864 H 756.925 3.33293 1.78113 0
M  V30 7865 H 757.238 7.08815 3.07898 0
M  V30 7866 H 755.583 6.37179 2.77538 0
M  V30 7867 H 758.774 4.1675 2.1316 0
M  V30 7868 H 758.947 5.87981 2.72364 0
M  V30 7869 N 752.353 -0.854086 1.3245 0
M  V30 7870 C 753.602 -1.60318 1.22397 0
M  V30 7871 C 753.915 -1.9444 -0.212664 0
M  V30 7872 O 755.121 -2.67991 -0.435066 0
M  V30 7873 C 753.577 -2.8909 2.1437 0
M  V30 7874 C 753.185 -2.62391 3.63119 0
M  V30 7875 C 754.929 -3.67104 2.13155 0
M  V30 7876 C 752.836 -3.87167 4.47052 0
M  V30 7877 H 751.766 -0.601586 0.454544 0
M  V30 7878 H 754.417 -0.943023 1.57415 0
M  V30 7879 H 752.799 -3.56567 1.72268 0
M  V30 7880 H 753.973 -2.03222 4.13567 0
M  V30 7881 H 752.288 -1.97706 3.66471 0
M  V30 7882 H 754.885 -4.59696 2.731 0
M  V30 7883 H 755.228 -4.00876 1.12268 0
M  V30 7884 H 755.761 -3.06533 2.5354 0
M  V30 7885 H 752.5 -3.58536 5.48755 0
M  V30 7886 H 752.02 -4.45729 4.01355 0
M  V30 7887 H 753.699 -4.549 4.60081 0
M  V30 7888 N 753.831 -1.1567 -1.07043 0
M  V30 7889 C 754.764 -0.799867 -2.13723 0
M  V30 7890 C 755.742 0.225098 -1.61034 0
M  V30 7891 O 756.926 0.11093 -1.88173 0
M  V30 7892 C 754.053 -0.18997 -3.38167 0
M  V30 7893 C 753.099 -1.18733 -4.0964 0
M  V30 7894 S 753.932 -2.73074 -4.60642 0
M  V30 7895 C 755.088 -2.13512 -5.88356 0
M  V30 7896 H 755.321 -1.70342 -2.43661 0
M  V30 7897 H 752.854 -0.979377 -1.19363 0
M  V30 7898 H 754.812 0.155471 -4.10205 0
M  V30 7899 H 753.473 0.691229 -3.064 0
M  V30 7900 H 752.666 -0.708873 -4.9899 0
M  V30 7901 H 752.268 -1.47747 -3.43579 0
M  V30 7902 H 754.56 -1.49911 -6.60706 0
M  V30 7903 H 755.503 -3.01042 -6.40921 0
M  V30 7904 H 755.911 -1.57693 -5.42027 0
M  V30 7905 N 755.309 1.25446 -0.953992 0
M  V30 7906 C 756.549 1.94894 -0.616087 0
M  V30 7907 C 756.913 1.73067 0.831374 0
M  V30 7908 O 758.114 2.3643 1.27884 0
M  V30 7909 C 756.385 3.44147 -0.964225 0
M  V30 7910 S 757.944 4.32536 -0.738798 0
M  V30 7911 H 754.762 0.673967 -0.226472 0
M  V30 7912 H 757.364 1.52117 -1.22803 0
M  V30 7913 H 756.068 3.57537 -2.01484 0
M  V30 7914 H 755.599 3.91906 -0.342507 0
M  V30 7915 H 757.614 4.94659 0.390732 0
M  V30 7916 N 756.787 0.722489 1.40064 0
M  V30 7917 C 758.203 0.396758 1.5459 0
M  V30 7918 C 758.403 -1.09375 1.69232 0
M  V30 7919 O 757.459 -1.87984 1.68578 0
M  V30 7920 C 758.772 1.16885 2.77053 0
M  V30 7921 C 760.32 1.15583 2.90877 0
M  V30 7922 C 760.795 1.91023 4.16262 0
M  V30 7923 N 762.286 1.88126 4.23276 0
M  V30 7924 C 763.021 2.43315 5.19216 0
M  V30 7925 N 762.517 3.07089 6.21022 0
M  V30 7926 N 764.31 2.33418 5.11344 0
M  V30 7927 H 756.461 1.68887 1.28806 0
M  V30 7928 H 758.724 0.714231 0.62336 0
M  V30 7929 H 758.43 2.22301 2.72534 0
M  V30 7930 H 758.304 0.765011 3.69361 0
M  V30 7931 H 760.691 0.10984 2.94896 0
M  V30 7932 H 760.772 1.59895 1.99668 0
M  V30 7933 H 760.416 2.95616 4.13006 0
M  V30 7934 H 760.346 1.44126 5.06493 0
M  V30 7935 H 762.837 1.41654 3.50346 0
M  V30 7936 H 763.15 3.467 6.90666 0
M  V30 7937 H 761.495 3.11175 6.21446 0
M  V30 7938 H 764.686 1.83248 4.30741 0
M  V30 7939 H 764.859 2.7673 5.85939 0
M  V30 7940 N 758.265 -1.50454 0.469181 0
M  V30 7941 C 759.195 -2.31353 -0.31592 0
M  V30 7942 C 760.176 -1.38172 -0.992094 0
M  V30 7943 O 761.361 -1.67093 -0.989633 0
M  V30 7944 C 758.491 -3.1786 -1.39937 0
M  V30 7945 C 757.445 -4.19578 -0.844909 0
M  V30 7946 C 756.771 -4.9481 -2.0265 0
M  V30 7947 C 758.071 -5.22106 0.142499 0
M  V30 7948 H 759.765 -2.97237 0.359269 0
M  V30 7949 H 757.311 -1.42942 0.174224 0
M  V30 7950 H 759.264 -3.7325 -1.95607 0
M  V30 7951 H 757.988 -2.49858 -2.1033 0
M  V30 7952 H 756.647 -3.65285 -0.310189 0
M  V30 7953 H 756.295 -4.23282 -2.71737 0
M  V30 7954 H 755.995 -5.63613 -1.66174 0
M  V30 7955 H 757.519 -5.53035 -2.58815 0
M  V30 7956 H 758.933 -5.72378 -0.324966 0
M  V30 7957 H 757.33 -5.98618 0.421441 0
M  V30 7958 H 758.4 -4.7297 1.06901 0
M  V30 7959 N 759.743 -0.201713 -1.56304 0
M  V30 7960 C 760.653 0.728296 -2.23009 0
M  V30 7961 C 761.669 1.22945 -1.23128 0
M  V30 7962 O 762.845 1.27523 -1.55884 0
M  V30 7963 C 759.91 1.92792 -2.88153 0
M  V30 7964 C 758.971 1.47068 -4.03323 0
M  V30 7965 C 758.204 2.61312 -4.65351 0
M  V30 7966 O 758.427 3.7896 -4.26317 0
M  V30 7967 O 757.361 2.33646 -5.54701 0
M  V30 7968 H 761.187 0.190166 -3.03104 0
M  V30 7969 H 758.772 0.0278725 -1.49374 0
M  V30 7970 H 760.654 2.6289 -3.29343 0
M  V30 7971 H 759.329 2.45452 -2.11033 0
M  V30 7972 H 758.236 0.738299 -3.66742 0
M  V30 7973 H 759.569 0.990666 -4.82127 0
M  V30 7974 N 761.222 1.57436 0.0718424 0
M  V30 7975 C 762.132 2.07039 1.10326 0
M  V30 7976 C 763.148 0.999918 1.424 0
M  V30 7977 O 764.324 1.31462 1.52577 0
M  V30 7978 C 761.389 2.50439 2.39752 0
M  V30 7979 C 760.45 3.71784 2.14651 0
M  V30 7980 C 759.683 4.13104 3.37906 0
M  V30 7981 O 759.906 3.54298 4.47023 0
M  V30 7982 O 758.84 5.05894 3.26121 0
M  V30 7983 H 762.666 2.95239 0.711872 0
M  V30 7984 H 760.251 1.46638 0.28597 0
M  V30 7985 H 762.133 2.78876 3.15921 0
M  V30 7986 H 760.808 1.65368 2.78271 0
M  V30 7987 H 759.715 3.48431 1.36187 0
M  V30 7988 H 761.048 4.57707 1.81012 0
M  V30 7989 N 762.7 -0.34323 1.53817 0
M  V30 7990 C 763.63 -1.42709 1.84814 0
M  V30 7991 C 764.611 -1.5488 0.703297 0
M  V30 7992 O 765.796 -1.69082 0.955237 0
M  V30 7993 C 762.926 -2.79756 2.05801 0
M  V30 7994 C 761.88 -2.82392 3.21619 0
M  V30 7995 C 761.206 -4.22326 3.2794 0
M  V30 7996 C 762.506 -2.479 4.59721 0
M  V30 7997 H 764.2 -1.17018 2.75585 0
M  V30 7998 H 761.746 -0.561485 1.32602 0
M  V30 7999 H 763.699 -3.55627 2.26069 0
M  V30 8000 H 762.423 -3.06883 1.11761 0
M  V30 8001 H 761.082 -2.08974 3.01207 0
M  V30 8002 H 760.73 -4.46564 2.31494 0
M  V30 8003 H 760.43 -4.25001 4.05768 0
M  V30 8004 H 761.954 -5.00039 3.50419 0
M  V30 8005 H 763.368 -3.13484 4.80001 0
M  V30 8006 H 761.765 -2.61857 5.39954 0
M  V30 8007 H 762.835 -1.43087 4.63308 0
M  V30 8008 N 764.178 -1.45556 -0.604258 0
M  V30 8009 C 765.426 -1.4945 -1.36048 0
M  V30 8010 C 765.747 -0.138933 -1.94504 0
M  V30 8011 O 765.017 0.832097 -1.7735 0
M  V30 8012 H 763.597 -0.550381 -0.505064 0
M  V30 8013 H 766.259 -1.81535 -0.709308 0
M  V30 8014 H 765.355 -2.23519 -2.17821 0
M  V30 8015 N 765.656 0.84705 -1.32902 0
M  V30 8016 C 766.586 1.97166 -1.25091 0
M  V30 8017 C 767.567 1.69578 -0.133161 0
M  V30 8018 O 768.752 1.91519 -0.321591 0
M  V30 8019 C 765.882 3.33157 -0.981006 0
M  V30 8020 C 764.836 3.75119 -2.06082 0
M  V30 8021 C 764.162 5.08826 -1.64318 0
M  V30 8022 C 765.462 3.89774 -3.47669 0
M  V30 8023 H 767.156 2.03958 -2.19184 0
M  V30 8024 H 764.702 0.979907 -1.05517 0
M  V30 8025 H 766.655 4.11393 -0.912891 0
M  V30 8026 H 765.379 3.266 -0.00445559 0
M  V30 8027 H 764.038 2.9914 -2.11921 0
M  V30 8028 H 763.686 4.98732 -0.653876 0
M  V30 8029 H 763.386 5.37873 -2.36572 0
M  V30 8030 H 764.91 5.89546 -1.58958 0
M  V30 8031 H 766.324 4.58343 -3.44376 0
M  V30 8032 H 764.721 4.30248 -4.18338 0
M  V30 8033 H 765.791 2.92463 -3.86773 0
M  V30 8034 N 767.134 1.16236 1.06428 0
M  V30 8035 C 768.097 0.870163 2.1204 0
M  V30 8036 C 769.097 -0.134239 1.60239 0
M  V30 8037 O 770.287 0.0964932 1.73933 0
M  V30 8038 C 767.419 0.301033 3.39568 0
M  V30 8039 H 768.612 1.8064 2.39394 0
M  V30 8040 H 766.165 0.971116 1.2247 0
M  V30 8041 H 766.9 -0.642948 3.17863 0
M  V30 8042 H 766.685 1.02475 3.78472 0
M  V30 8043 H 768.175 0.114494 4.17443 0
M  V30 8044 N 768.612 -1.24939 0.960631 0
M  V30 8045 C 769.86 -1.92437 0.617441 0
M  V30 8046 C 770.181 -1.75543 -0.849101 0
M  V30 8047 O 769.451 -1.12269 -1.60538 0
M  V30 8048 H 768.031 -0.712192 0.225371 0
M  V30 8049 H 770.693 -1.5198 1.22017 0
M  V30 8050 H 769.789 -3.00247 0.851933 0
M  V30 8051 N 770.09 -0.729906 -1.39679 0
M  V30 8052 C 771.506 -0.404951 -1.54377 0
M  V30 8053 C 771.706 1.08476 -1.6981 0
M  V30 8054 O 770.762 1.87087 -1.69572 0
M  V30 8055 C 772.075 -1.18352 -2.76429 0
M  V30 8056 C 773.623 -1.17124 -2.9026 0
M  V30 8057 C 774.098 -1.93227 -4.15244 0
M  V30 8058 N 775.589 -1.90368 -4.22273 0
M  V30 8059 C 776.324 -2.46065 -5.17918 0
M  V30 8060 N 775.82 -3.10378 -6.19385 0
M  V30 8061 N 777.613 -2.36127 -5.10099 0
M  V30 8062 H 769.764 -1.69567 -1.27909 0
M  V30 8063 H 772.027 -0.717527 -0.619564 0
M  V30 8064 H 771.733 -2.23743 -2.71352 0
M  V30 8065 H 771.607 -0.784589 -3.6895 0
M  V30 8066 H 773.994 -0.125478 -2.94833 0
M  V30 8067 H 774.075 -1.60951 -1.98817 0
M  V30 8068 H 773.719 -2.97802 -4.11432 0
M  V30 8069 H 773.649 -1.4681 -5.05722 0
M  V30 8070 H 776.14 -1.4351 -3.4959 0
M  V30 8071 H 776.453 -3.50358 -6.88817 0
M  V30 8072 H 774.798 -3.14467 -6.19787 0
M  V30 8073 H 777.989 -1.85529 -4.29763 0
M  V30 8074 H 778.162 -2.79833 -5.84463 0
M  V30 8075 N 771.568 1.50203 -0.477153 0
M  V30 8076 C 772.808 2.04265 0.0744065 0
M  V30 8077 C 773.172 1.35082 1.36443 0
M  V30 8078 O 774.373 1.79732 1.99875 0
M  V30 8079 C 772.644 3.56539 0.247874 0
M  V30 8080 S 774.203 4.32219 0.757117 0
M  V30 8081 H 771.021 0.71088 0.0130891 0
M  V30 8082 H 773.623 1.8453 -0.645678 0
M  V30 8083 H 772.327 4.04443 -0.696709 0
M  V30 8084 H 771.858 3.80638 0.993896 0
M  V30 8085 H 773.873 4.52789 2.0297 0
M  V30 8086 N 773.046 0.209999 1.56195 0
M  V30 8087 C 773.976 -0.699746 2.22769 0
M  V30 8088 C 774.957 -1.20993 1.1956 0
M  V30 8089 O 776.142 -1.25605 1.48112 0
M  V30 8090 C 773.272 -1.91302 2.89863 0
M  V30 8091 C 772.226 -1.53715 3.99444 0
M  V30 8092 C 771.552 -2.82826 4.53777 0
M  V30 8093 C 772.852 -0.735836 5.17091 0
M  V30 8094 H 774.546 -0.144716 2.9905 0
M  V30 8095 H 772.092 -0.0681645 1.43839 0
M  V30 8096 H 774.045 -2.5548 3.35124 0
M  V30 8097 H 772.769 -2.49283 2.11011 0
M  V30 8098 H 771.428 -0.918892 3.54897 0
M  V30 8099 H 771.076 -3.38927 3.71669 0
M  V30 8100 H 770.776 -2.58415 5.27727 0
M  V30 8101 H 772.3 -3.47966 5.01749 0
M  V30 8102 H 773.714 -1.28105 5.58804 0
M  V30 8103 H 772.111 -0.589272 5.972 0
M  V30 8104 H 773.181 0.260004 4.84202 0
M  V30 8105 N 774.524 -1.57472 -0.0634922 0
M  V30 8106 C 775.752 -1.91887 -0.773767 0
M  V30 8107 C 776.167 -0.806733 -1.70696 0
M  V30 8108 O 775.524 0.219383 -1.81177 0
M  V30 8109 C 775.575 -3.26092 -1.56034 0
M  V30 8110 O 775.296 -4.33029 -0.66464 0
M  V30 8111 C 776.797 -3.74573 -2.37087 0
M  V30 8112 H 774.017 -0.634074 -0.219525 0
M  V30 8113 H 776.561 -2.04476 -0.0312828 0
M  V30 8114 H 774.716 -3.15004 -2.25502 0
M  V30 8115 H 775.13 -5.10291 -1.21258 0
M  V30 8116 H 776.604 -4.71084 -2.87722 0
M  V30 8117 H 777.081 -3.04003 -3.16984 0
M  V30 8118 H 777.687 -3.88631 -1.72759 0
M  V30 8119 N 776.003 0.335068 -1.53997 0
M  V30 8120 C 776.933 1.41727 -1.85568 0
M  V30 8121 C 777.914 1.54505 -0.7115 0
M  V30 8122 O 779.099 1.68573 -0.964191 0
M  V30 8123 C 776.229 2.7866 -2.07282 0
M  V30 8124 C 775.183 2.80682 -3.23112 0
M  V30 8125 C 774.509 4.20581 -3.30175 0
M  V30 8126 C 775.809 2.45458 -4.61029 0
M  V30 8127 H 777.503 1.15555 -2.76202 0
M  V30 8128 H 775.049 0.554445 -1.32898 0
M  V30 8129 H 777.002 3.54423 -2.27952 0
M  V30 8130 H 775.726 3.06286 -1.13387 0
M  V30 8131 H 774.385 2.07373 -3.02311 0
M  V30 8132 H 774.033 4.4533 -2.33859 0
M  V30 8133 H 773.733 4.22843 -4.08016 0
M  V30 8134 H 775.257 4.98174 -3.53066 0
M  V30 8135 H 776.671 3.10934 -4.81656 0
M  V30 8136 H 775.068 2.5899 -5.41336 0
M  V30 8137 H 776.138 1.40628 -4.6406 0
M  V30 8138 N 777.481 1.45874 0.596531 0
M  V30 8139 C 778.709 1.54013 1.38158 0
M  V30 8140 C 779.124 0.17648 1.87973 0
M  V30 8141 O 778.481 -0.823895 1.62844 0
M  V30 8142 C 778.532 2.53363 2.57855 0
M  V30 8143 O 778.253 3.8443 2.10108 0
M  V30 8144 C 779.754 2.71308 3.50581 0
M  V30 8145 H 776.974 0.521251 0.422538 0
M  V30 8146 H 779.518 1.9116 0.726493 0
M  V30 8147 H 777.673 2.19257 3.19382 0
M  V30 8148 H 778.087 4.38384 2.87958 0
M  V30 8149 H 779.561 3.44776 4.31084 0
M  V30 8150 H 780.038 1.77728 4.01633 0
M  V30 8151 H 780.644 3.06455 2.94899 0
M  V30 8152 N 778.959 -0.83999 1.33349 0
M  V30 8153 C 780.37 -1.41139 1.22216 0
M  V30 8154 C 780.721 -1.95551 -0.159398 0
M  V30 8155 O 779.846 -1.88721 -1.05893 0
M  V30 8156 C 780.441 -2.56564 2.21269 0
M  V30 8157 C 779 -3.09661 2.13979 0
M  V30 8158 C 778.147 -1.82457 2.08818 0
M  V30 8159 H 781.098 -0.645853 1.44964 0
M  V30 8160 H 781.119 -3.34163 1.81976 0
M  V30 8161 H 780.631 -2.16932 3.21811 0
M  V30 8162 H 778.732 -3.53841 1.16736 0
M  V30 8163 H 778.845 -3.6991 3.04472 0
M  V30 8164 H 777.209 -2.0266 1.54276 0
M  V30 8165 H 777.992 -1.45022 3.11165 0
M  V30 8166 N 780.437 -1.16799 -1.0581 0
M  V30 8167 C 781.853 -0.913935 -1.30841 0
M  V30 8168 C 782.053 0.430439 -1.96849 0
M  V30 8169 O 781.109 1.16885 -2.23817 0
M  V30 8170 C 782.422 -2.06662 -2.18429 0
M  V30 8171 C 783.97 -2.10294 -2.31831 0
M  V30 8172 C 784.445 -3.2493 -3.22776 0
M  V30 8173 N 785.936 -3.24678 -3.30361 0
M  V30 8174 C 786.671 -4.10021 -4.00837 0
M  V30 8175 N 786.167 -5.05461 -4.73795 0
M  V30 8176 N 787.96 -3.97991 -3.96937 0
M  V30 8177 H 780.111 -2.03343 -0.613613 0
M  V30 8178 H 782.374 -0.88754 -0.333133 0
M  V30 8179 H 782.08 -3.03791 -1.77211 0
M  V30 8180 H 781.954 -2.01233 -3.19038 0
M  V30 8181 H 784.341 -1.13754 -2.72294 0
M  V30 8182 H 784.422 -2.19786 -1.30873 0
M  V30 8183 H 784.066 -4.21731 -2.83028 0
M  V30 8184 H 783.996 -3.12674 -4.23725 0
M  V30 8185 H 786.487 -2.55573 -2.78372 0
M  V30 8186 H 786.8 -5.66989 -5.25113 0
M  V30 8187 H 785.145 -5.09436 -4.72758 0
M  V30 8188 H 788.336 -3.2273 -3.39062 0
M  V30 8189 H 788.509 -4.64722 -4.51594 0
M  V30 8190 N 781.915 1.24427 -0.967243 0
M  V30 8191 C 783.326 1.74349 -0.667785 0
M  V30 8192 C 783.677 1.78403 0.816509 0
M  V30 8193 O 782.802 1.41315 1.63887 0
M  V30 8194 C 783.397 3.16628 -1.20548 0
M  V30 8195 C 781.956 3.64059 -0.955934 0
M  V30 8196 C 781.103 2.42715 -1.34106 0
M  V30 8197 H 784.054 1.10136 -1.14262 0
M  V30 8198 H 784.075 3.76183 -0.571547 0
M  V30 8199 H 783.587 3.13646 -2.28578 0
M  V30 8200 H 781.688 3.72441 0.108858 0
M  V30 8201 H 781.801 4.51549 -1.60126 0
M  V30 8202 H 780.165 2.43114 -0.759452 0
M  V30 8203 H 780.948 2.42414 -2.43085 0
M  V30 8204 N 783.393 0.737304 1.3929 0
M  V30 8205 C 784.356 0.10731 2.28949 0
M  V30 8206 C 785.356 -0.664716 1.46418 0
M  V30 8207 O 786.546 -0.493392 1.67067 0
M  V30 8208 C 783.678 -0.857145 3.29948 0
M  V30 8209 H 784.871 0.89725 2.86163 0
M  V30 8210 H 782.424 0.503279 1.47976 0
M  V30 8211 H 783.159 -1.67336 2.77794 0
M  V30 8212 H 782.944 -0.306167 3.90903 0
M  V30 8213 H 784.434 -1.29444 3.97031 0
M  V30 8214 N 784.871 -1.49948 0.485112 0
M  V30 8215 C 786.099 -2.06806 -0.0622824 0
M  V30 8216 C 786.514 -1.34736 -1.32256 0
M  V30 8217 O 785.871 -0.420836 -1.77582 0
M  V30 8218 C 785.922 -3.59934 -0.336096 0
M  V30 8219 O 785.643 -4.29289 0.874203 0
M  V30 8220 C 787.144 -4.33459 -0.928903 0
M  V30 8221 H 784.364 -0.670867 0.0133472 0
M  V30 8222 H 786.908 -1.92937 0.677917 0
M  V30 8223 H 785.063 -3.7356 -1.02625 0
M  V30 8224 H 785.477 -5.20735 0.627332 0
M  V30 8225 H 786.951 -5.41527 -1.07017 0
M  V30 8226 H 787.428 -3.94881 -1.92265 0
M  V30 8227 H 788.034 -4.24399 -0.276705 0
M  V30 8228 N 786.349 -0.21828 -1.56081 0
M  V30 8229 C 787.259 0.704602 -2.23769 0
M  V30 8230 C 788.275 1.21633 -1.24425 0
M  V30 8231 O 789.451 1.25862 -1.57228 0
M  V30 8232 C 786.516 1.89725 -2.90182 0
M  V30 8233 C 785.577 1.42782 -4.0486 0
M  V30 8234 C 784.81 2.56361 -4.68097 0
M  V30 8235 O 785.033 3.74417 -4.30312 0
M  V30 8236 O 783.967 2.2775 -5.57148 0
M  V30 8237 H 787.793 0.158007 -3.03289 0
M  V30 8238 H 785.378 0.0120279 -1.49395 0
M  V30 8239 H 787.26 2.59382 -3.32113 0
M  V30 8240 H 785.935 2.432 -2.13624 0
M  V30 8241 H 784.842 0.699359 -3.67505 0
M  V30 8242 H 786.175 0.939474 -4.83151 0
M  V30 8243 N 787.827 1.57504 0.0551401 0
M  V30 8244 C 788.79 2.03826 1.04821 0
M  V30 8245 C 789.79 0.937968 1.30609 0
M  V30 8246 O 790.98 1.20237 1.2605 0
M  V30 8247 C 788.112 2.43309 2.38775 0
M  V30 8248 H 789.305 2.92802 0.6486 0
M  V30 8249 H 786.858 1.53368 0.301315 0
M  V30 8250 H 787.593 1.5741 2.83536 0
M  V30 8251 H 787.378 3.23615 2.21395 0
M  V30 8252 H 788.868 2.79666 3.10124 0
M  V30 8253 N 789.305 -0.326896 1.54172 0
M  V30 8254 C 790.215 -1.42525 1.86343 0
M  V30 8255 C 791.231 -1.56764 0.75505 0
M  V30 8256 O 792.407 -1.71924 1.04901 0
M  V30 8257 C 789.472 -2.77286 2.08119 0
M  V30 8258 C 788.533 -2.7225 3.31931 0
M  V30 8259 C 787.766 -4.00584 3.52659 0
M  V30 8260 O 787.989 -4.98686 2.76891 0
M  V30 8261 O 786.923 -4.04045 4.46129 0
M  V30 8262 H 790.749 -1.18249 2.79734 0
M  V30 8263 H 788.334 -0.520614 1.40036 0
M  V30 8264 H 790.216 -3.57065 2.23791 0
M  V30 8265 H 788.891 -3.01459 1.17917 0
M  V30 8266 H 787.798 -1.91033 3.21647 0
M  V30 8267 H 789.131 -2.53032 4.2218 0
M  V30 8268 N 790.784 -1.46188 -0.588786 0
M  V30 8269 C 791.714 -1.59148 -1.70863 0
M  V30 8270 C 792.695 -0.442083 -1.64255 0
M  V30 8271 O 793.88 -0.667575 -1.82365 0
M  V30 8272 C 791.01 -1.5757 -3.09498 0
M  V30 8273 C 789.964 -2.71418 -3.30932 0
M  V30 8274 C 789.29 -2.549 -4.70032 0
M  V30 8275 C 790.59 -4.1329 -3.19356 0
M  V30 8276 H 792.284 -2.52889 -1.60274 0
M  V30 8277 H 789.83 -1.21707 -0.769638 0
M  V30 8278 H 791.783 -1.65231 -3.87655 0
M  V30 8279 H 790.507 -0.603705 -3.20972 0
M  V30 8280 H 789.166 -2.63216 -2.55172 0
M  V30 8281 H 788.814 -1.55797 -4.78264 0
M  V30 8282 H 788.514 -3.31257 -4.85327 0
M  V30 8283 H 790.038 -2.64443 -5.50366 0
M  V30 8284 H 791.452 -4.22636 -3.87365 0
M  V30 8285 H 789.849 -4.90187 -3.46175 0
M  V30 8286 H 790.919 -4.33874 -2.16522 0
M  V30 8287 N 792.262 0.832906 -1.33792 0
M  V30 8288 C 793.192 1.95828 -1.27176 0
M  V30 8289 C 794.173 1.69427 -0.15114 0
M  V30 8290 O 795.358 1.91167 -0.341886 0
M  V30 8291 C 792.488 3.32098 -1.01629 0
M  V30 8292 C 791.442 3.72912 -2.10049 0
M  V30 8293 C 790.768 5.07054 -1.69706 0
M  V30 8294 C 792.068 3.86064 -3.51783 0
M  V30 8295 H 793.762 2.01622 -2.21334 0
M  V30 8296 H 791.308 0.96866 -1.0655 0
M  V30 8297 H 793.261 4.10402 -0.956474 0
M  V30 8298 H 791.985 3.26577 -0.0390956 0
M  V30 8299 H 790.644 2.96876 -2.15082 0
M  V30 8300 H 790.292 4.9801 -0.706737 0
M  V30 8301 H 789.992 5.35333 -2.42264 0
M  V30 8302 H 791.516 5.87827 -1.65202 0
M  V30 8303 H 792.93 4.54665 -3.49218 0
M  V30 8304 H 791.327 4.25787 -4.22878 0
M  V30 8305 H 792.397 2.88344 -3.89854 0
M  V30 8306 N 793.74 1.17359 1.05189 0
M  V30 8307 C 794.968 0.986529 1.81866 0
M  V30 8308 C 795.383 -0.46522 1.82979 0
M  V30 8309 O 794.74 -1.32305 1.25705 0
M  V30 8310 C 794.791 1.52021 3.27982 0
M  V30 8311 O 794.512 2.91511 3.27037 0
M  V30 8312 C 796.013 1.37774 4.21347 0
M  V30 8313 H 793.233 0.349021 0.573084 0
M  V30 8314 H 795.777 1.55648 1.32643 0
M  V30 8315 H 793.932 0.992287 3.74476 0
M  V30 8316 H 794.346 3.16178 4.18488 0
M  V30 8317 H 795.82 1.7993 5.21852 0
M  V30 8318 H 796.297 0.32483 4.37997 0
M  V30 8319 H 796.903 1.89583 3.80708 0
M  V30 8320 N 795.218 -1.23913 0.973828 0
M  V30 8321 C 796.458 -1.93889 0.647015 0
M  V30 8322 C 796.822 -1.74368 -0.803735 0
M  V30 8323 O 798.023 -2.38435 -1.24106 0
M  V30 8324 C 796.294 -3.4257 1.01885 0
M  V30 8325 S 797.853 -4.31306 0.807517 0
M  V30 8326 H 794.671 -0.670279 0.237165 0
M  V30 8327 H 797.273 -1.50144 1.25208 0
M  V30 8328 H 795.977 -3.54286 2.07146 0
M  V30 8329 H 795.508 -3.91312 0.404812 0
M  V30 8330 H 797.523 -4.95218 -0.311986 0
M  V30 8331 N 796.696 -0.74468 -1.38897 0
M  V30 8332 C 797.646 -0.0869375 -2.27834 0
M  V30 8333 C 798.63 0.702553 -1.44751 0
M  V30 8334 O 799.822 0.569972 -1.67572 0
M  V30 8335 C 796.951 0.812232 -3.33553 0
M  V30 8336 C 796.037 0.0163713 -4.24097 0
M  V30 8337 N 796.428 -1.01547 -4.95502 0
M  V30 8338 C 794.726 0.244554 -4.45329 0
M  V30 8339 C 795.427 -1.49622 -5.62128 0
M  V30 8340 N 794.403 -0.813097 -5.37485 0
M  V30 8341 H 798.205 -0.877345 -2.80499 0
M  V30 8342 H 795.719 -0.579898 -1.51694 0
M  V30 8343 H 797.716 1.299 -3.96146 0
M  V30 8344 H 796.376 1.60169 -2.82446 0
M  V30 8345 H 797.387 -1.39707 -4.98701 0
M  V30 8346 H 794.064 1.00806 -4.05147 0
M  V30 8347 H 795.454 -2.35523 -6.29268 0
M  V30 8348 N 798.174 1.49689 -0.493057 0
M  V30 8349 C 799.399 2.07331 0.0535114 0
M  V30 8350 C 799.824 1.35196 1.30781 0
M  V30 8351 O 799.182 0.406246 1.7669 0
M  V30 8352 C 799.23 3.59364 0.29825 0
M  V30 8353 O 798.334 3.88819 1.37454 0
M  V30 8354 H 797.675 0.663612 -0.0227018 0
M  V30 8355 H 800.205 1.926 -0.690402 0
M  V30 8356 H 800.215 4.04515 0.532159 0
M  V30 8357 H 798.89 4.1128 -0.618207 0
M  V30 8358 H 797.467 3.55487 1.12621 0
M  V30 8359 N 799.652 0.226554 1.55963 0
M  V30 8360 C 800.615 -0.668015 2.19249 0
M  V30 8361 C 801.615 -1.11794 1.1558 0
M  V30 8362 O 802.805 -1.02593 1.40784 0
M  V30 8363 C 799.937 -1.91571 2.81981 0
M  V30 8364 H 801.13 -0.116175 2.99675 0
M  V30 8365 H 798.683 -0.0230497 1.56283 0
M  V30 8366 H 799.418 -2.50929 2.05439 0
M  V30 8367 H 799.203 -1.6015 3.57903 0
M  V30 8368 H 800.693 -2.55294 3.30477 0
M  V30 8369 N 801.13 -1.57531 -0.0467866 0
M  V30 8370 C 802.04 -2.08768 -1.07018 0
M  V30 8371 C 803.056 -1.02245 -1.40791 0
M  V30 8372 O 804.232 -1.33873 -1.50466 0
M  V30 8373 C 801.297 -2.54221 -2.35738 0
M  V30 8374 C 800.358 -3.75152 -2.08709 0
M  V30 8375 C 799.591 -4.18428 -3.31291 0
M  V30 8376 O 799.814 -3.61365 -4.4133 0
M  V30 8377 O 798.748 -5.11018 -3.18032 0
M  V30 8378 H 802.574 -2.96334 -0.664812 0
M  V30 8379 H 800.159 -1.47074 -0.262605 0
M  V30 8380 H 802.041 -2.83866 -3.11445 0
M  V30 8381 H 800.716 -1.69774 -2.75605 0
M  V30 8382 H 799.623 -3.50553 -1.30627 0
M  V30 8383 H 800.956 -4.60528 -1.73708 0
M  V30 8384 N 802.608 0.318715 -1.54344 0
M  V30 8385 C 803.838 1.07394 -1.76494 0
M  V30 8386 C 804.246 1.82031 -0.515881 0
M  V30 8387 O 803.589 1.7609 0.52325 0
M  V30 8388 C 803.651 2.11401 -2.90775 0
M  V30 8389 C 803.315 1.56118 -4.29507 0
M  V30 8390 C 804.312 1.00043 -5.10184 0
M  V30 8391 C 801.997 1.60215 -4.76063 0
M  V30 8392 C 803.991 0.487993 -6.35529 0
M  V30 8393 C 801.678 1.08584 -6.01376 0
M  V30 8394 C 802.676 0.529714 -6.80943 0
M  V30 8395 O 802.364 0.0211823 -8.03897 0
M  V30 8396 H 802.096 0.325061 -0.592715 0
M  V30 8397 H 804.65 0.36901 -2.02058 0
M  V30 8398 H 802.88 2.85524 -2.60793 0
M  V30 8399 H 804.569 2.72683 -3.00664 0
M  V30 8400 H 805.335 0.961811 -4.75367 0
M  V30 8401 H 801.214 2.02441 -4.14172 0
M  V30 8402 H 804.758 0.0532608 -6.9758 0
M  V30 8403 H 800.655 1.12155 -6.35682 0
M  V30 8404 H 801.423 0.136151 -8.18387 0
M  V30 8405 N 804.086 1.46499 0.581025 0
M  V30 8406 C 805.332 1.52121 1.34116 0
M  V30 8407 C 805.665 0.173031 1.93428 0
M  V30 8408 O 804.94 -0.815729 1.76568 0
M  V30 8409 C 805.223 2.62108 2.46924 0
M  V30 8410 C 805.076 4.06462 1.92636 0
M  V30 8411 C 806.395 2.68167 3.48962 0
M  V30 8412 H 803.514 0.5538 0.486287 0
M  V30 8413 H 806.156 1.78443 0.652538 0
M  V30 8414 H 804.306 2.39794 3.05665 0
M  V30 8415 H 805.978 4.40068 1.3834 0
M  V30 8416 H 804.221 4.15862 1.23455 0
M  V30 8417 H 804.892 4.79152 2.74076 0
M  V30 8418 H 807.368 2.8823 3.00104 0
M  V30 8419 H 806.244 3.46942 4.2535 0
M  V30 8420 H 806.505 1.74284 4.06297 0
M  V30 8421 N 805.565 -0.825799 1.34232 0
M  V30 8422 C 806.813 -1.57873 1.26177 0
M  V30 8423 C 807.134 -1.94267 -0.168904 0
M  V30 8424 O 806.404 -1.62045 -1.10084 0
M  V30 8425 H 804.984 -0.585388 0.464037 0
M  V30 8426 H 807.646 -0.986163 1.6811 0
M  V30 8427 H 806.742 -2.50283 1.86453 0
M  V30 8428 N 807.043 -1.17915 -1.04565 0
M  V30 8429 C 807.993 -0.869634 -2.10764 0
M  V30 8430 C 808.977 0.158502 -1.60117 0
M  V30 8431 O 810.169 -0.04483 -1.76943 0
M  V30 8432 C 807.298 -0.391642 -3.41059 0
M  V30 8433 C 806.384 -1.45156 -3.98485 0
M  V30 8434 N 806.775 -2.6667 -4.29792 0
M  V30 8435 C 805.073 -1.3109 -4.263 0
M  V30 8436 C 805.774 -3.34823 -4.75677 0
M  V30 8437 N 804.75 -2.62203 -4.76183 0
M  V30 8438 H 808.552 -1.79342 -2.32838 0
M  V30 8439 H 806.066 -1.0688 -1.22272 0
M  V30 8440 H 808.063 -0.151428 -4.16625 0
M  V30 8441 H 806.723 0.525862 -3.20413 0
M  V30 8442 H 807.734 -3.0358 -4.19594 0
M  V30 8443 H 804.411 -0.455545 -4.15007 0
M  V30 8444 H 805.801 -4.38645 -5.0896 0
M  V30 8445 N 808.521 1.23394 -0.980386 0
M  V30 8446 C 809.451 2.2717 -0.540024 0
M  V30 8447 C 810.432 1.64659 0.426787 0
M  V30 8448 O 811.617 1.91543 0.320153 0
M  V30 8449 C 808.747 3.46939 0.15836 0
M  V30 8450 C 807.701 4.21802 -0.725732 0
M  V30 8451 C 807.027 5.34597 0.104866 0
M  V30 8452 C 808.327 4.81802 -2.01654 0
M  V30 8453 H 810.021 2.64257 -1.40743 0
M  V30 8454 H 807.567 1.2703 -0.678193 0
M  V30 8455 H 809.52 4.18683 0.477737 0
M  V30 8456 H 808.244 3.08912 1.06022 0
M  V30 8457 H 806.903 3.51875 -1.02857 0
M  V30 8458 H 806.551 4.92812 1.00726 0
M  V30 8459 H 806.251 5.85607 -0.483557 0
M  V30 8460 H 807.775 6.09163 0.418624 0
M  V30 8461 H 809.189 5.45554 -1.76193 0
M  V30 8462 H 807.586 5.43098 -2.55273 0
M  V30 8463 H 808.656 4.02549 -2.70338 0
M  V30 8464 N 809.999 0.752036 1.385 0
M  V30 8465 C 811.415 0.42946 1.53713 0
M  V30 8466 C 811.615 -1.0576 1.71514 0
M  V30 8467 O 810.671 -1.84366 1.72527 0
M  V30 8468 C 811.984 1.22735 2.74511 0
M  V30 8469 C 813.532 1.21727 2.8836 0
M  V30 8470 C 814.007 1.99809 4.12117 0
M  V30 8471 N 815.498 1.97062 4.19191 0
M  V30 8472 C 816.233 2.54274 5.13938 0
M  V30 8473 N 815.729 3.20193 6.14368 0
M  V30 8474 N 817.522 2.44212 5.06277 0
M  V30 8475 H 809.673 1.71581 1.25195 0
M  V30 8476 H 811.936 0.727293 0.60807 0
M  V30 8477 H 811.642 2.28032 2.67758 0
M  V30 8478 H 811.516 0.843186 3.67655 0
M  V30 8479 H 813.903 0.172367 2.94596 0
M  V30 8480 H 813.984 1.64094 1.96232 0
M  V30 8481 H 813.628 3.0431 4.06642 0
M  V30 8482 H 813.558 1.54837 5.03322 0
M  V30 8483 H 816.049 1.49054 3.47263 0
M  V30 8484 H 816.362 3.61272 6.83156 0
M  V30 8485 H 814.707 3.24287 6.14705 0
M  V30 8486 H 817.898 1.92343 4.26757 0
M  V30 8487 H 818.071 2.89096 5.79937 0
M  V30 8488 N 811.477 -1.49425 0.500989 0
M  V30 8489 C 812.44 -2.27646 -0.266416 0
M  V30 8490 C 813.44 -1.3366 -0.893961 0
M  V30 8491 O 814.63 -1.5682 -0.758495 0
M  V30 8492 C 811.762 -3.11618 -1.38227 0
M  V30 8493 H 812.955 -2.96945 0.419973 0
M  V30 8494 H 810.508 -1.5419 0.255954 0
M  V30 8495 H 811.243 -2.46885 -2.10281 0
M  V30 8496 H 811.028 -3.80721 -0.937746 0
M  V30 8497 H 812.518 -3.70698 -1.92283 0
M  V30 8498 N 812.955 -0.234822 -1.55841 0
M  V30 8499 C 814.183 0.397745 -2.03041 0
M  V30 8500 C 814.598 1.52405 -1.11437 0
M  V30 8501 O 813.955 1.82061 -0.126466 0
M  V30 8502 C 814.006 0.916919 -3.49678 0
M  V30 8503 O 813.727 -0.164493 -4.37791 0
M  V30 8504 C 815.228 1.62139 -4.12584 0
M  V30 8505 H 812.448 0.0959214 -0.664108 0
M  V30 8506 H 814.992 -0.355156 -2.01392 0
M  V30 8507 H 813.147 1.62004 -3.519 0
M  V30 8508 H 813.561 0.227794 -5.24005 0
M  V30 8509 H 815.035 1.93651 -5.16917 0
M  V30 8510 H 815.512 2.53918 -3.58361 0
M  V30 8511 H 816.118 0.963145 -4.14251 0
M  V30 8512 N 814.433 1.57553 0.0384317 0
M  V30 8513 C 815.343 2.09333 1.0591 0
M  V30 8514 C 816.359 1.0299 1.40247 0
M  V30 8515 O 817.535 1.34669 1.49754 0
M  V30 8516 C 814.6 2.55468 2.34386 0
M  V30 8517 C 813.661 3.76254 2.06716 0
M  V30 8518 C 812.894 4.20179 3.29067 0
M  V30 8519 O 813.117 3.637 4.39407 0
M  V30 8520 O 812.051 5.12697 3.15317 0
M  V30 8521 H 815.877 2.96683 0.649087 0
M  V30 8522 H 813.462 1.47211 0.254802 0
M  V30 8523 H 815.344 2.85514 3.09935 0
M  V30 8524 H 814.019 1.71234 2.74701 0
M  V30 8525 H 812.926 3.51241 1.28766 0
M  V30 8526 H 814.259 4.61443 1.71263 0
M  V30 8527 N 815.911 -0.310526 1.54511 0
M  V30 8528 C 816.858 -1.38264 1.84802 0
M  V30 8529 C 817.828 -1.50808 0.696141 0
M  V30 8530 O 819.013 -1.6582 0.943846 0
M  V30 8531 C 816.153 -2.74422 2.09252 0
M  V30 8532 C 815.266 -2.70405 3.36906 0
M  V30 8533 C 814.401 -3.98495 3.51248 0
M  V30 8534 C 813.44 -3.88836 4.72729 0
M  V30 8535 N 812.577 -5.08683 4.83928 0
M  V30 8536 H 817.417 -1.11732 2.76261 0
M  V30 8537 H 814.954 -0.540609 1.36806 0
M  V30 8538 H 816.912 -3.53593 2.21422 0
M  V30 8539 H 815.542 -2.99235 1.2107 0
M  V30 8540 H 814.594 -1.83151 3.33406 0
M  V30 8541 H 815.906 -2.59155 4.26193 0
M  V30 8542 H 815.06 -4.861 3.63031 0
M  V30 8543 H 813.799 -4.12567 2.60077 0
M  V30 8544 H 812.804 -2.99615 4.60989 0
M  V30 8545 H 814.029 -3.76318 5.65298 0
M  V30 8546 H 811.975 -5.23236 3.95677 0
M  V30 8547 H 811.892 -4.99819 5.67201 0
M  V30 8548 H 813.16 -5.97966 5.00057 0
M  V30 8549 N 817.389 -1.46805 -0.573248 0
M  V30 8550 C 818.322 -1.52608 -1.69665 0
M  V30 8551 C 819.3 -0.379426 -1.58111 0
M  V30 8552 O 820.484 -0.584938 -1.79195 0
M  V30 8553 C 817.611 -1.41355 -3.07793 0
M  V30 8554 C 816.657 -2.60321 -3.37839 0
M  V30 8555 S 817.49 -4.22622 -3.28863 0
M  V30 8556 C 818.646 -4.13894 -4.69513 0
M  V30 8557 H 818.879 -2.47653 -1.64485 0
M  V30 8558 H 816.412 -1.34806 -0.752769 0
M  V30 8559 H 818.37 -1.35549 -3.87475 0
M  V30 8560 H 817.031 -0.477213 -3.10454 0
M  V30 8561 H 816.224 -2.48466 -4.38498 0
M  V30 8562 H 815.826 -2.63165 -2.65745 0
M  V30 8563 H 818.118 -3.81158 -5.60111 0
M  V30 8564 H 819.061 -5.14584 -4.86425 0
M  V30 8565 H 819.469 -3.44998 -4.46807 0
M  V30 8566 N 818.867 0.818669 -1.34668 0
M  V30 8567 C 819.814 1.92983 -1.26595 0
M  V30 8568 C 820.784 1.65506 -0.140315 0
M  V30 8569 O 821.969 1.88063 -0.322005 0
M  V30 8570 C 819.109 3.2932 -1.03163 0
M  V30 8571 C 818.222 3.69061 -2.24539 0
M  V30 8572 C 817.357 4.94368 -1.94355 0
M  V30 8573 C 816.396 5.26702 -3.11851 0
M  V30 8574 N 815.533 6.43187 -2.81522 0
M  V30 8575 H 820.373 1.99219 -2.2162 0
M  V30 8576 H 817.91 0.974612 -1.1018 0
M  V30 8577 H 819.868 4.07897 -0.87613 0
M  V30 8578 H 818.498 3.22584 -0.118045 0
M  V30 8579 H 817.55 2.85842 -2.50995 0
M  V30 8580 H 818.862 3.88924 -3.12313 0
M  V30 8581 H 818.016 5.80742 -1.75566 0
M  V30 8582 H 816.755 4.76515 -1.03848 0
M  V30 8583 H 815.76 4.38823 -3.31231 0
M  V30 8584 H 816.985 5.46492 -4.03142 0
M  V30 8585 H 814.931 6.26783 -1.93596 0
M  V30 8586 H 814.848 6.63243 -3.62829 0
M  V30 8587 H 816.116 7.32621 -2.66247 0
M  V30 8588 N 820.346 1.18468 1.03938 0
M  V30 8589 C 821.574 1.00576 1.80809 0
M  V30 8590 C 821.989 -0.445786 1.83462 0
M  V30 8591 O 821.346 -1.30964 1.27101 0
M  V30 8592 C 821.397 1.55491 3.26351 0
M  V30 8593 O 821.118 2.94963 3.23926 0
M  V30 8594 C 822.619 1.42236 4.19862 0
M  V30 8595 H 819.839 0.35508 0.56935 0
M  V30 8596 H 822.383 1.57046 1.30984 0
M  V30 8597 H 820.538 1.03195 3.73403 0
M  V30 8598 H 820.952 3.20598 4.15111 0
M  V30 8599 H 822.426 1.85455 5.19914 0
M  V30 8600 H 822.903 0.371267 4.37628 0
M  V30 8601 H 823.509 1.9361 3.78675 0
M  V30 8602 N 821.824 -1.22873 0.986916 0
M  V30 8603 C 823.24 -1.43594 0.696633 0
M  V30 8604 C 823.44 -1.87622 -0.734869 0
M  V30 8605 O 822.496 -2.02633 -1.50652 0
M  V30 8606 C 823.809 -2.48231 1.69711 0
M  V30 8607 C 825.357 -2.62037 1.71188 0
M  V30 8608 C 825.832 -3.6989 2.70084 0
M  V30 8609 N 827.323 -3.77341 2.68641 0
M  V30 8610 C 828.058 -4.6037 3.41829 0
M  V30 8611 N 827.554 -5.47438 4.24598 0
M  V30 8612 N 829.347 -4.54626 3.30563 0
M  V30 8613 H 821.498 -0.925982 1.91153 0
M  V30 8614 H 823.761 -0.46866 0.824052 0
M  V30 8615 H 823.467 -2.22812 2.72117 0
M  V30 8616 H 823.341 -3.46731 1.48516 0
M  V30 8617 H 825.728 -2.86803 0.694837 0
M  V30 8618 H 825.809 -1.63831 1.96451 0
M  V30 8619 H 825.453 -3.45872 3.71934 0
M  V30 8620 H 825.383 -4.67652 2.42093 0
M  V30 8621 H 827.874 -3.15124 2.08578 0
M  V30 8622 H 828.187 -6.078 4.77283 0
M  V30 8623 H 826.532 -5.4704 4.28687 0
M  V30 8624 H 829.723 -3.85627 2.65347 0
M  V30 8625 H 829.896 -5.19103 3.8786 0
M  V30 8626 N 823.302 -0.75937 -1.38099 0
M  V30 8627 C 824.212 -0.13774 -2.34195 0
M  V30 8628 C 825.228 0.693985 -1.59561 0
M  V30 8629 O 826.404 0.616792 -1.91723 0
M  V30 8630 C 823.469 0.740535 -3.38699 0
M  V30 8631 C 822.53 -0.106225 -4.29169 0
M  V30 8632 C 821.763 0.730225 -5.28681 0
M  V30 8633 O 821.986 1.96796 -5.35376 0
M  V30 8634 O 820.92 0.145969 -6.01723 0
M  V30 8635 H 824.746 -0.931512 -2.89061 0
M  V30 8636 H 822.331 -0.520345 -1.40046 0
M  V30 8637 H 824.213 1.24232 -4.02672 0
M  V30 8638 H 822.888 1.51271 -2.8618 0
M  V30 8639 H 821.795 -0.654088 -3.68337 0
M  V30 8640 H 823.128 -0.841186 -4.84959 0
M  V30 8641 N 824.78 1.49157 -0.508906 0
M  V30 8642 C 825.71 2.32109 0.254469 0
M  V30 8643 C 826.691 1.40754 0.955111 0
M  V30 8644 O 827.876 1.69658 0.944983 0
M  V30 8645 C 825.006 3.21458 1.3146 0
M  V30 8646 C 823.96 4.2167 0.733368 0
M  V30 8647 C 823.286 5.00009 1.8946 0
M  V30 8648 C 824.586 5.21544 -0.280875 0
M  V30 8649 H 826.28 2.9618 -0.43795 0
M  V30 8650 H 823.826 1.4243 -0.212062 0
M  V30 8651 H 825.779 3.78305 1.85643 0
M  V30 8652 H 824.503 2.55346 2.03632 0
M  V30 8653 H 823.162 3.65979 0.213231 0
M  V30 8654 H 822.81 4.30338 2.60419 0
M  V30 8655 H 822.51 5.67821 1.51173 0
M  V30 8656 H 824.034 5.59702 2.44061 0
M  V30 8657 H 825.448 5.73039 0.173095 0
M  V30 8658 H 823.845 5.97291 -0.580006 0
M  V30 8659 H 824.915 4.69969 -1.19404 0
M  V30 8660 N 826.258 0.243083 1.55714 0
M  V30 8661 C 827.208 -0.671915 2.17875 0
M  V30 8662 C 828.192 -1.14199 1.13347 0
M  V30 8663 O 829.384 -1.09239 1.39269 0
M  V30 8664 C 826.513 -1.87027 2.87881 0
M  V30 8665 C 825.599 -1.41888 3.99661 0
M  V30 8666 N 825.99 -0.681465 5.01188 0
M  V30 8667 C 824.288 -1.70447 4.12145 0
M  V30 8668 C 824.989 -0.448285 5.7997 0
M  V30 8669 N 823.965 -1.01137 5.34109 0
M  V30 8670 H 827.767 -0.100321 2.93729 0
M  V30 8671 H 825.281 0.0452371 1.62337 0
M  V30 8672 H 827.278 -2.53674 3.3084 0
M  V30 8673 H 825.938 -2.44613 2.13529 0
M  V30 8674 H 826.949 -0.331959 5.16835 0
M  V30 8675 H 823.626 -2.29198 3.48962 0
M  V30 8676 H 825.016 0.140141 6.71754 0
M  V30 8677 N 827.736 -1.57571 -0.0300757 0
M  V30 8678 C 829.152 -1.54869 -0.385703 0
M  V30 8679 C 829.352 -0.969068 -1.76667 0
M  V30 8680 O 828.408 -0.589676 -2.45518 0
M  V30 8681 C 829.721 -2.99313 -0.288482 0
M  V30 8682 C 831.269 -3.10857 -0.365638 0
M  V30 8683 C 831.744 -4.5703 -0.297878 0
M  V30 8684 N 833.235 -4.61825 -0.356703 0
M  V30 8685 C 833.97 -5.72466 -0.327146 0
M  V30 8686 N 833.466 -6.92349 -0.249941 0
M  V30 8687 N 835.259 -5.60836 -0.376801 0
M  V30 8688 H 827.41 -1.936 0.87367 0
M  V30 8689 H 829.673 -0.887924 0.332106 0
M  V30 8690 H 829.379 -3.45443 0.66047 0
M  V30 8691 H 829.253 -3.61332 -1.08253 0
M  V30 8692 H 831.64 -2.64676 -1.30502 0
M  V30 8693 H 831.721 -2.51671 0.457744 0
M  V30 8694 H 831.365 -5.03879 0.637835 0
M  V30 8695 H 831.295 -5.14127 -1.13935 0
M  V30 8696 H 833.786 -3.75571 -0.418926 0
M  V30 8697 H 834.099 -7.7245 -0.23246 0
M  V30 8698 H 832.444 -6.94664 -0.216004 0
M  V30 8699 H 835.635 -4.66073 -0.435101 0
M  V30 8700 H 835.808 -6.47052 -0.350298 0
M  V30 8701 N 829.214 0.302327 -1.54673 0
M  V30 8702 C 830.124 1.39542 -1.88587 0
M  V30 8703 C 831.14 1.55543 -0.779895 0
M  V30 8704 O 832.316 1.70233 -1.07623 0
M  V30 8705 C 829.381 2.7394 -2.12504 0
M  V30 8706 C 828.442 2.66935 -3.3622 0
M  V30 8707 C 827.675 3.94923 -3.58987 0
M  V30 8708 O 827.898 4.94218 -2.84789 0
M  V30 8709 O 826.832 3.96896 -4.52501 0
M  V30 8710 H 830.658 1.13784 -2.81579 0
M  V30 8711 H 828.243 0.49827 -1.40846 0
M  V30 8712 H 830.125 3.5346 -2.29443 0
M  V30 8713 H 828.8 2.99544 -1.22698 0
M  V30 8714 H 827.707 1.85892 -3.24646 0
M  V30 8715 H 829.04 2.46283 -4.26152 0
M  V30 8716 N 830.692 1.47107 0.565454 0
M  V30 8717 C 831.917 1.57153 1.35343 0
M  V30 8718 C 832.342 0.219247 1.86818 0
M  V30 8719 O 831.7 -0.803539 1.62521 0
M  V30 8720 C 831.748 2.59387 2.50501 0
M  V30 8721 O 830.852 2.14086 3.52478 0
M  V30 8722 H 830.193 0.528209 0.402357 0
M  V30 8723 H 832.723 1.92821 0.684189 0
M  V30 8724 H 832.733 2.79546 2.97184 0
M  V30 8725 H 831.408 3.57579 2.12391 0
M  V30 8726 H 829.985 2.03991 3.12157 0
M  V30 8727 N 832.17 -0.811516 1.35101 0
M  V30 8728 C 833.395 -1.60499 1.31358 0
M  V30 8729 C 833.82 -1.87793 -0.107383 0
M  V30 8730 O 833.178 -1.46161 -1.07268 0
M  V30 8731 C 833.226 -2.91612 2.12119 0
M  V30 8732 O 832.33 -3.84211 1.49853 0
M  V30 8733 H 831.671 -0.487702 0.450603 0
M  V30 8734 H 834.201 -1.00758 1.7807 0
M  V30 8735 H 834.211 -3.4108 2.23894 0
M  V30 8736 H 832.886 -2.71071 3.15426 0
M  V30 8737 H 831.463 -3.42751 1.46889 0
M  V30 8738 N 833.648 -1.19017 -1.03309 0
M  V30 8739 C 834.596 -0.920627 -2.13605 0
M  V30 8740 C 835.59 0.121969 -1.6896 0
M  V30 8741 O 836.796 -0.0268854 -1.7998 0
M  V30 8742 H 833.171 -0.280284 -0.697814 0
M  V30 8743 H 835.142 -1.85755 -2.33533 0
M  V30 8744 C 833.891 -0.471198 -3.44492 0
M  V30 8745 H 833.214 -1.26499 -3.7926 0
M  V30 8746 H 834.654 -0.321663 -4.22778 0
M  V30 8747 C 833.113 0.81411 -3.26916 0
M  V30 8748 O 833.643 1.87654 -3.55175 0
M  V30 8749 N 831.849 0.769695 -2.80221 0
M  V30 8750 H 831.396 -0.0951278 -2.57424 0
M  V30 8751 H 831.354 1.63008 -2.68842 0
M  V30 8752 N 835.127 1.22348 -0.993418 0
M  V30 8753 C 836.374 1.9111 -0.669568 0
M  V30 8754 C 836.702 1.77357 0.79843 0
M  V30 8755 O 835.957 1.13675 1.593 0
M  V30 8756 C 836.256 3.42477 -1.02197 0
M  V30 8757 C 835.922 3.7642 -2.48232 0
M  V30 8758 C 834.584 3.85395 -2.88139 0
M  V30 8759 C 836.936 3.9253 -3.42884 0
M  V30 8760 C 834.264 4.07918 -4.21687 0
M  V30 8761 C 836.616 4.16557 -4.76091 0
M  V30 8762 C 835.28 4.23757 -5.15739 0
M  V30 8763 H 834.55 0.699321 -0.245012 0
M  V30 8764 H 837.197 1.45102 -1.2497 0
M  V30 8765 H 835.502 3.90143 -0.359921 0
M  V30 8766 H 837.199 3.93935 -0.74942 0
M  V30 8767 H 833.789 3.70017 -2.16299 0
M  V30 8768 H 837.973 3.84974 -3.13224 0
M  V30 8769 H 833.229 4.11719 -4.51993 0
M  V30 8770 H 837.403 4.27966 -5.4938 0
M  V30 8771 H 835.03 4.40962 -6.19239 0
M  V30 8772 N 836.605 0.766683 1.37694 0
M  V30 8773 C 837.882 0.25366 1.93948 0
M  V30 8774 C 838.262 -1.25041 1.70082 0
M  V30 8775 O 837.61 -2.03115 1.04674 0
M  V30 8776 C 837.82 0.621549 3.43421 0
M  V30 8777 C 839.168 0.588504 4.20502 0
M  V30 8778 O 840.192 0.560632 3.5176 0
M  V30 8779 O 839.051 0.61107 5.43073 0
M  V30 8780 H 836.145 0.0570586 0.825029 0
M  V30 8781 H 838.691 0.847693 1.47011 0
M  V30 8782 H 837.463 1.65979 3.54354 0
M  V30 8783 H 837.086 0.000197027 3.976 0
M  V30 8784 N 838.083 -1.48885 0.516809 0
M  V30 8785 C 839.308 -2.0739 -0.0205201 0
M  V30 8786 C 839.733 -1.37259 -1.28614 0
M  V30 8787 O 839.091 -0.434304 -1.76021 0
M  V30 8788 C 839.139 -3.59793 -0.24104 0
M  V30 8789 O 838.243 -3.90957 -1.31251 0
M  V30 8790 H 837.584 -0.663167 0.0332564 0
M  V30 8791 H 840.114 -1.91477 0.720956 0
M  V30 8792 H 840.124 -4.0531 -0.467737 0
M  V30 8793 H 838.799 -4.10244 0.68356 0
M  V30 8794 H 837.376 -3.57234 -1.06951 0
M  V30 8795 N 839.561 -0.251338 -1.55583 0
M  V30 8796 C 840.81 0.372681 -1.98227 0
M  V30 8797 C 841.123 1.58743 -1.1428 0
M  V30 8798 O 842.329 2.28289 -1.46957 0
M  V30 8799 C 840.785 0.714439 -3.52738 0
M  V30 8800 C 840.393 -0.479168 -4.4543 0
M  V30 8801 C 842.137 1.3024 -4.04027 0
M  V30 8802 C 840.044 -0.113318 -5.91291 0
M  V30 8803 H 838.974 0.14302 -0.740312 0
M  V30 8804 H 841.625 -0.352253 -1.80087 0
M  V30 8805 H 840.007 1.49762 -3.66589 0
M  V30 8806 H 841.181 -1.25644 -4.4334 0
M  V30 8807 H 839.496 -0.982359 -4.04646 0
M  V30 8808 H 842.093 1.58953 -5.10527 0
M  V30 8809 H 842.436 2.22837 -3.51638 0
M  V30 8810 H 842.969 0.582024 -3.93519 0
M  V30 8811 H 839.708 -1.00654 -6.47726 0
M  V30 8812 H 839.228 0.627666 -5.96507 0
M  V30 8813 H 840.907 0.30293 -6.4629 0
M  V30 8814 N 841.039 1.57585 0.0217189 0
M  V30 8815 C 842.269 1.9359 0.721572 0
M  V30 8816 C 842.677 0.850132 1.69025 0
M  V30 8817 O 842.02 -0.181539 1.82801 0
M  V30 8818 C 842.082 3.25445 1.52729 0
M  V30 8819 C 841.746 4.51251 0.722586 0
M  V30 8820 C 842.743 5.19896 0.0196598 0
M  V30 8821 C 840.428 4.97745 0.674959 0
M  V30 8822 C 842.422 6.33319 -0.720114 0
M  V30 8823 C 840.109 6.11062 -0.068555 0
M  V30 8824 C 841.107 6.78704 -0.764845 0
M  V30 8825 O 840.795 7.89852 -1.49627 0
M  V30 8826 H 840.527 0.643409 0.207366 0
M  V30 8827 H 843.081 2.05391 -0.0189346 0
M  V30 8828 H 841.311 3.0999 2.31178 0
M  V30 8829 H 843 3.46721 2.11044 0
M  V30 8830 H 843.766 4.84977 0.0474394 0
M  V30 8831 H 839.645 4.44934 1.20643 0
M  V30 8832 H 843.189 6.86051 -1.26413 0
M  V30 8833 H 839.086 6.45425 -0.0982318 0
M  V30 8834 H 839.854 8.06251 -1.41071 0
M  V30 8835 N 842.517 -0.29412 1.54831 0
M  V30 8836 C 843.766 -1.02614 1.73647 0
M  V30 8837 C 844.079 -1.88193 0.533162 0
M  V30 8838 O 845.285 -2.64713 0.603275 0
M  V30 8839 C 843.741 -1.87417 3.07251 0
M  V30 8840 C 843.349 -1.06806 4.35082 0
M  V30 8841 C 845.093 -2.60176 3.35423 0
M  V30 8842 C 843 -1.90926 5.59733 0
M  V30 8843 H 841.93 -0.386834 0.647206 0
M  V30 8844 H 844.581 -0.282789 1.81308 0
M  V30 8845 H 842.963 -2.65765 2.93572 0
M  V30 8846 H 844.137 -0.330226 4.59615 0
M  V30 8847 H 842.452 -0.455979 4.13896 0
M  V30 8848 H 845.049 -3.23476 4.25755 0
M  V30 8849 H 845.392 -3.29365 2.54606 0
M  V30 8850 H 845.925 -1.88871 3.50103 0
M  V30 8851 H 842.664 -1.26194 6.43238 0
M  V30 8852 H 842.184 -2.62363 5.39375 0
M  V30 8853 H 843.863 -2.48807 5.97247 0
M  V30 8854 N 843.995 -1.47404 -0.557645 0
M  V30 8855 C 845.235 -1.55585 -1.32562 0
M  V30 8856 C 845.599 -0.212926 -1.90816 0
M  V30 8857 O 846.8 -0.169574 -2.68265 0
M  V30 8858 C 845.071 -2.64249 -2.40639 0
M  V30 8859 S 846.63 -2.9201 -3.2753 0
M  V30 8860 H 843.448 -0.549409 -0.451298 0
M  V30 8861 H 846.05 -1.84782 -0.638438 0
M  V30 8862 H 844.754 -3.60421 -1.96277 0
M  V30 8863 H 844.285 -2.36866 -3.14099 0
M  V30 8864 H 846.3 -2.29191 -4.40098 0
M  V30 8865 N 845.473 0.80434 -1.35529 0
M  V30 8866 C 846.884 1.37849 -1.25915 0
M  V30 8867 C 847.235 1.95905 0.107495 0
M  V30 8868 O 846.36 1.91462 1.00852 0
M  V30 8869 C 846.955 2.50608 -2.27994 0
M  V30 8870 C 845.514 3.03879 -2.22114 0
M  V30 8871 C 844.661 1.76856 -2.13582 0
M  V30 8872 H 847.612 0.607192 -1.46625 0
M  V30 8873 H 847.633 3.29221 -1.90772 0
M  V30 8874 H 847.145 2.08323 -3.27449 0
M  V30 8875 H 845.246 3.50622 -1.26077 0
M  V30 8876 H 845.359 3.61707 -3.14173 0
M  V30 8877 H 843.723 1.98498 -1.59595 0
M  V30 8878 H 844.506 1.36721 -3.14901 0
M  V30 8879 N 846.951 1.19563 1.02676 0
M  V30 8880 C 848.176 1.02556 1.80269 0
M  V30 8881 C 848.601 -0.421056 1.83327 0
M  V30 8882 O 847.959 -1.30279 1.26084 0
M  V30 8883 C 848.007 1.60165 3.23078 0
M  V30 8884 O 847.111 0.832404 4.03912 0
M  V30 8885 H 846.452 0.362354 0.556413 0
M  V30 8886 H 848.982 1.58633 1.29216 0
M  V30 8887 H 848.992 1.6347 3.7382 0
M  V30 8888 H 847.667 2.65454 3.20167 0
M  V30 8889 H 846.244 0.872768 3.62543 0
M  V30 8890 N 848.429 -1.21819 0.999893 0
M  V30 8891 C 849.657 -1.94758 0.698359 0
M  V30 8892 C 850.072 -1.73771 -0.738183 0
M  V30 8893 O 849.429 -1.04113 -1.49889 0
M  V30 8894 C 849.48 -3.47292 1.00353 0
M  V30 8895 O 849.201 -3.67579 2.38363 0
M  V30 8896 C 850.702 -4.37403 0.72068 0
M  V30 8897 H 847.922 -0.619512 0.257771 0
M  V30 8898 H 850.466 -1.54778 1.33656 0
M  V30 8899 H 848.621 -3.85213 0.411018 0
M  V30 8900 H 849.035 -4.61719 2.48829 0
M  V30 8901 H 850.509 -5.43151 0.984422 0
M  V30 8902 H 850.986 -4.3784 -0.345309 0
M  V30 8903 H 851.592 -4.05119 1.29456 0
M  V30 8904 N 849.908 -0.773975 -1.37286 0
M  V30 8905 C 851.155 -0.339306 -1.99637 0
M  V30 8906 C 851.483 1.08478 -1.61439 0
M  V30 8907 O 850.738 1.7612 -0.853252 0
M  V30 8908 C 851.037 -0.432651 -3.54772 0
M  V30 8909 C 850.703 -1.81531 -4.12744 0
M  V30 8910 C 849.365 -2.19366 -4.2829 0
M  V30 8911 C 851.717 -2.72137 -4.44512 0
M  V30 8912 C 849.045 -3.47239 -4.72908 0
M  V30 8913 C 851.397 -3.99421 -4.90556 0
M  V30 8914 C 850.061 -4.37298 -5.04308 0
M  V30 8915 H 849.331 -0.124161 -0.730524 0
M  V30 8916 H 851.978 -0.988432 -1.64019 0
M  V30 8917 H 850.283 0.30001 -3.9065 0
M  V30 8918 H 851.98 -0.0776 -4.00925 0
M  V30 8919 H 848.57 -1.51126 -4.01072 0
M  V30 8920 H 852.754 -2.44165 -4.32084 0
M  V30 8921 H 848.01 -3.76477 -4.81742 0
M  V30 8922 H 852.184 -4.69756 -5.14104 0
M  V30 8923 H 849.811 -5.36442 -5.38641 0
M  V30 8924 N 851.386 1.48609 -0.524698 0
M  V30 8925 C 852.349 2.28041 0.230166 0
M  V30 8926 C 853.349 1.35065 0.872584 0
M  V30 8927 O 854.539 1.58007 0.73345 0
M  V30 8928 C 851.671 3.13778 1.33252 0
M  V30 8929 H 852.864 2.96239 -0.467161 0
M  V30 8930 H 850.417 1.53763 -0.280452 0
M  V30 8931 H 851.152 2.502 2.06327 0
M  V30 8932 H 850.937 3.82165 0.877058 0
M  V30 8933 H 852.427 3.7371 1.86362 0
M  V30 8934 N 852.864 0.259585 1.55447 0
M  V30 8935 C 854.104 -0.362989 2.01151 0
M  V30 8936 C 854.468 -1.54201 1.14394 0
M  V30 8937 O 855.669 -2.23318 1.49608 0
M  V30 8938 C 853.94 -0.750399 3.49434 0
M  V30 8939 S 855.499 -1.3617 4.17137 0
M  V30 8940 H 852.317 -0.11365 0.701858 0
M  V30 8941 H 854.919 0.377788 1.91815 0
M  V30 8942 H 853.623 0.116807 4.10234 0
M  V30 8943 H 853.154 -1.52303 3.62722 0
M  V30 8944 H 855.169 -2.65059 4.19474 0
M  V30 8945 N 854.342 -1.57594 -0.0133615 0
M  V30 8946 C 855.305 -2.06534 -0.993799 0
M  V30 8947 C 856.305 -0.972267 -1.28077 0
M  V30 8948 O 857.495 -1.23537 -1.22818 0
M  V30 8949 C 854.627 -2.49554 -2.3224 0
M  V30 8950 H 855.82 -2.94419 -0.570741 0
M  V30 8951 H 853.373 -1.54113 -0.260546 0
M  V30 8952 H 854.108 -1.64872 -2.79263 0
M  V30 8953 H 853.893 -3.29371 -2.12737 0
M  V30 8954 H 855.383 -2.8779 -3.026 0
M  V30 8955 N 855.82 0.285905 -1.54985 0
M  V30 8956 C 856.752 1.37505 -1.83371 0
M  V30 8957 C 857.765 1.46138 -0.717454 0
M  V30 8958 O 858.954 1.48186 -0.995142 0
M  V30 8959 C 856.054 2.7575 -1.97016 0
M  V30 8960 C 855.227 2.89866 -3.27561 0
M  V30 8961 C 854.286 4.08704 -3.31433 0
M  V30 8962 O 853.312 4.00073 -4.04883 0
M  V30 8963 N 854.514 5.20062 -2.57907 0
M  V30 8964 H 857.279 1.13505 -2.77375 0
M  V30 8965 H 854.84 0.476006 -1.54744 0
M  V30 8966 H 856.832 3.5352 -1.96991 0
M  V30 8967 H 855.402 2.9263 -1.09938 0
M  V30 8968 H 854.622 1.99085 -3.40234 0
M  V30 8969 H 855.91 2.96219 -4.13681 0
M  V30 8970 H 855.308 5.29958 -1.97891 0
M  V30 8971 H 853.865 5.96111 -2.63619 0
M  V30 8972 N 857.298 1.47698 0.54982 0
M  V30 8973 C 858.228 1.63622 1.66583 0
M  V30 8974 C 859.209 0.485477 1.63025 0
M  V30 8975 O 860.394 0.715692 1.80531 0
M  V30 8976 C 857.524 1.65721 3.05211 0
M  V30 8977 C 856.478 2.80097 3.2362 0
M  V30 8978 C 855.804 2.67272 4.63109 0
M  V30 8979 C 857.104 4.21612 3.08286 0
M  V30 8980 H 858.798 2.57049 1.53512 0
M  V30 8981 H 856.344 1.23705 0.737099 0
M  V30 8982 H 858.297 1.75451 3.83138 0
M  V30 8983 H 857.021 0.688593 3.19258 0
M  V30 8984 H 855.68 2.69889 2.48104 0
M  V30 8985 H 855.328 1.68422 4.73965 0
M  V30 8986 H 855.028 3.44008 4.76374 0
M  V30 8987 H 856.552 2.78942 5.43161 0
M  V30 8988 H 857.966 4.32758 3.76024 0
M  V30 8989 H 856.363 4.99193 3.33057 0
M  V30 8990 H 857.433 4.39462 2.04942 0
M  V30 8991 N 858.776 -0.797141 1.35954 0
M  V30 8992 C 859.739 -1.89104 1.29508 0
M  V30 8993 C 860.739 -1.59495 0.204444 0
M  V30 8994 O 861.929 -1.68051 0.458746 0
M  V30 8995 C 859.061 -3.25726 1.00576 0
M  V30 8996 H 860.254 -1.96237 2.26785 0
M  V30 8997 H 857.807 -0.994075 1.20614 0
M  V30 8998 H 858.542 -3.24279 0.0372519 0
M  V30 8999 H 858.327 -3.48604 1.79492 0
M  V30 9000 H 859.817 -4.0578 0.986508 0
M  V30 9001 N 860.254 -1.20106 -1.0204 0
M  V30 9002 C 861.482 -1.0344 -1.79186 0
M  V30 9003 C 861.897 0.416542 -1.84148 0
M  V30 9004 O 861.254 1.28925 -1.29168 0
M  V30 9005 C 861.305 -1.60663 -3.23836 0
M  V30 9006 O 861.026 -3.00079 -3.19193 0
M  V30 9007 C 862.527 -1.48897 -4.17546 0
M  V30 9008 H 859.747 -0.364093 -0.563629 0
M  V30 9009 H 862.291 -1.5911 -1.28469 0
M  V30 9010 H 860.446 -1.09122 -3.71714 0
M  V30 9011 H 860.86 -3.27162 -4.09958 0
M  V30 9012 H 862.334 -1.93703 -5.16898 0
M  V30 9013 H 862.811 -0.440843 -4.36982 0
M  V30 9014 H 863.417 -1.9961 -3.75547 0
M  V30 9015 N 861.732 1.21287 -1.00634 0
M  V30 9016 C 862.98 1.90013 -0.688438 0
M  V30 9017 C 863.301 1.78573 0.783365 0
M  V30 9018 O 862.571 1.1815 1.56261 0
M  V30 9019 H 861.151 0.703336 -0.251648 0
M  V30 9020 H 863.813 1.47346 -1.27574 0
M  V30 9021 H 862.909 2.96879 -0.962781 0
M  V30 9022 N 863.21 0.781244 1.36873 0
M  V30 9023 C 864.173 0.180094 2.28491 0
M  V30 9024 C 865.173 -0.617798 1.48458 0
M  V30 9025 O 866.363 -0.439991 1.68552 0
M  V30 9026 C 863.495 -0.751741 3.32508 0
M  V30 9027 H 864.688 0.987837 2.83164 0
M  V30 9028 H 862.241 0.550102 1.463 0
M  V30 9029 H 862.976 -1.58413 2.82977 0
M  V30 9030 H 862.761 -0.181649 3.91679 0
M  V30 9031 H 864.251 -1.16748 4.00949 0
M  V30 9032 N 864.689 -1.48329 0.532571 0
M  V30 9033 C 865.652 -2.2816 -0.218069 0
M  V30 9034 C 866.652 -1.35526 -0.865409 0
M  V30 9035 O 867.842 -1.58394 -0.725061 0
M  V30 9036 C 864.974 -3.1448 -1.31586 0
M  V30 9037 H 866.167 -2.95987 0.482865 0
M  V30 9038 H 863.72 -1.53612 0.288603 0
M  V30 9039 H 864.455 -2.5129 -2.04997 0
M  V30 9040 H 864.24 -3.82625 -0.856779 0
M  V30 9041 H 865.73 -3.74693 -1.84377 0
M  V30 9042 N 866.167 -0.267825 -1.55308 0
M  V30 9043 C 867.407 0.352316 -2.01341 0
M  V30 9044 C 867.771 1.53593 -1.1521 0
M  V30 9045 O 868.972 2.22521 -1.50791 0
M  V30 9046 C 867.243 0.731857 -3.49827 0
M  V30 9047 S 868.802 1.33956 -4.17853 0
M  V30 9048 H 865.62 0.109927 -0.702451 0
M  V30 9049 H 868.222 -0.387955 -1.91612 0
M  V30 9050 H 866.926 -0.138561 -4.10166 0
M  V30 9051 H 866.457 1.50378 -3.63525 0
M  V30 9052 H 868.472 2.62831 -4.20874 0
M  V30 9053 N 867.645 1.57599 0.00500368 0
M  V30 9054 C 869.061 1.55463 0.361015 0
M  V30 9055 C 869.261 0.997051 1.75103 0
M  V30 9056 O 868.317 0.628661 2.44549 0
M  V30 9057 C 869.63 2.99734 0.240828 0
M  V30 9058 C 871.178 3.11399 0.316138 0
M  V30 9059 C 871.653 4.57446 0.22513 0
M  V30 9060 N 873.144 4.62334 0.283186 0
M  V30 9061 C 873.879 5.72914 0.23603 0
M  V30 9062 N 873.375 6.92659 0.139762 0
M  V30 9063 N 875.168 5.61364 0.287529 0
M  V30 9064 H 867.319 1.92185 -0.904359 0
M  V30 9065 H 869.582 0.882529 -0.34619 0
M  V30 9066 H 869.288 3.44348 -0.715343 0
M  V30 9067 H 869.162 3.63009 1.02491 0
M  V30 9068 H 871.549 2.66718 1.26275 0
M  V30 9069 H 871.63 2.50911 -0.497725 0
M  V30 9070 H 871.274 5.02801 -0.717917 0
M  V30 9071 H 871.204 5.15874 1.05742 0
M  V30 9072 H 873.695 3.7619 0.359123 0
M  V30 9073 H 874.008 7.72722 0.10954 0
M  V30 9074 H 872.353 6.9492 0.105462 0
M  V30 9075 H 875.544 4.66707 0.360897 0
M  V30 9076 H 875.717 6.47528 0.247313 0
M  V30 9077 N 869.123 -0.277682 1.55134 0
M  V30 9078 C 870.053 -1.34742 1.90701 0
M  V30 9079 C 871.034 -1.51757 0.768354 0
M  V30 9080 O 872.219 -1.64879 1.02609 0
M  V30 9081 C 869.349 -2.70775 2.17481 0
M  V30 9082 C 868.303 -2.68497 3.33307 0
M  V30 9083 C 867.629 -4.08037 3.45557 0
M  V30 9084 C 868.929 -2.28178 4.69821 0
M  V30 9085 H 870.623 -1.05224 2.803 0
M  V30 9086 H 868.169 -0.504738 1.34864 0
M  V30 9087 H 870.122 -3.45719 2.40949 0
M  V30 9088 H 868.846 -3.01867 1.24676 0
M  V30 9089 H 867.505 -1.9601 3.09799 0
M  V30 9090 H 867.153 -4.36344 2.50226 0
M  V30 9091 H 866.853 -4.07409 4.23429 0
M  V30 9092 H 868.377 -4.84726 3.71312 0
M  V30 9093 H 869.791 -2.92843 4.92865 0
M  V30 9094 H 868.188 -2.3872 5.50575 0
M  V30 9095 H 869.258 -1.23308 4.6896 0
M  V30 9096 N 870.601 -1.47988 -0.541979 0
M  V30 9097 C 871.847 -1.55623 -1.30036 0
M  V30 9098 C 872.18 -0.224254 -1.92901 0
M  V30 9099 O 871.455 0.768629 -1.78668 0
M  V30 9100 C 871.738 -2.68562 -2.39888 0
M  V30 9101 C 871.591 -4.11426 -1.81792 0
M  V30 9102 C 872.91 -2.77325 -3.41729 0
M  V30 9103 H 870.029 -0.566498 -0.471433 0
M  V30 9104 H 872.671 -1.8011 -0.604998 0
M  V30 9105 H 870.821 -2.47814 -2.992 0
M  V30 9106 H 872.493 -4.43581 -1.26624 0
M  V30 9107 H 870.736 -4.18989 -1.12386 0
M  V30 9108 H 871.407 -4.8625 -2.61276 0
M  V30 9109 H 873.883 -2.96085 -2.92357 0
M  V30 9110 H 872.759 -3.58097 -4.16002 0
M  V30 9111 H 873.02 -1.84995 -4.01534 0
M  V30 9112 N 872.079 0.78992 -1.36375 0
M  V30 9113 C 872.989 1.93386 -1.32812 0
M  V30 9114 C 874.005 1.72468 -0.230377 0
M  V30 9115 O 875.181 1.96014 -0.462657 0
M  V30 9116 C 872.246 3.2824 -1.11621 0
M  V30 9117 C 871.307 3.61939 -2.30865 0
M  V30 9118 C 870.54 4.90359 -2.10675 0
M  V30 9119 O 870.763 5.6005 -1.08168 0
M  V30 9120 O 869.697 5.22702 -2.9844 0
M  V30 9121 H 873.523 1.99342 -2.29121 0
M  V30 9122 H 871.108 0.9301 -1.16917 0
M  V30 9123 H 872.99 4.08939 -1.01719 0
M  V30 9124 H 871.665 3.23178 -0.183732 0
M  V30 9125 H 870.572 2.81549 -2.46335 0
M  V30 9126 H 871.905 3.71725 -3.22617 0
M  V30 9127 N 873.557 1.20646 1.01402 0
M  V30 9128 C 874.52 0.959314 2.08158 0
M  V30 9129 C 875.52 -0.0661558 1.60664 0
M  V30 9130 O 876.71 0.170177 1.73367 0
M  V30 9131 C 873.842 0.444785 3.37986 0
M  V30 9132 H 875.035 1.90631 2.31517 0
M  V30 9133 H 872.588 1.02219 1.18241 0
M  V30 9134 H 873.323 -0.507553 3.20304 0
M  V30 9135 H 873.108 1.18435 3.73785 0
M  V30 9136 H 874.598 0.291443 4.16582 0
M  V30 9137 N 875.035 -1.20752 1.01276 0
M  V30 9138 C 876.281 -1.90302 0.700924 0
M  V30 9139 C 876.614 -1.78406 -0.767142 0
M  V30 9140 O 875.889 -1.16575 -1.55694 0
M  V30 9141 C 876.172 -3.41831 1.13242 0
M  V30 9142 C 876.025 -3.6268 2.66051 0
M  V30 9143 C 877.344 -4.34486 0.700738 0
M  V30 9144 H 874.463 -0.69107 0.256107 0
M  V30 9145 H 877.105 -1.42227 1.25982 0
M  V30 9146 H 875.255 -3.82906 0.656902 0
M  V30 9147 H 876.927 -3.30882 3.21426 0
M  V30 9148 H 875.17 -3.06281 3.07204 0
M  V30 9149 H 875.841 -4.68882 2.91296 0
M  V30 9150 H 878.317 -4.01036 1.10948 0
M  V30 9151 H 877.193 -5.39136 1.03073 0
M  V30 9152 H 877.454 -4.40307 -0.39778 0
M  V30 9153 N 876.513 -0.788492 -1.36457 0
M  V30 9154 C 877.443 -0.200468 -2.32638 0
M  V30 9155 C 878.424 0.664031 -1.56603 0
M  V30 9156 O 879.609 0.598045 -1.84762 0
M  V30 9157 C 876.739 0.666274 -3.40849 0
M  V30 9158 C 875.693 -0.0982574 -4.27887 0
M  V30 9159 C 875.019 0.889018 -5.27258 0
M  V30 9160 C 876.319 -1.28692 -5.06197 0
M  V30 9161 H 878.013 -1.00399 -2.82065 0
M  V30 9162 H 875.559 -0.484237 -1.35614 0
M  V30 9163 H 877.512 1.08757 -4.07124 0
M  V30 9164 H 876.236 1.50249 -2.89987 0
M  V30 9165 H 874.895 -0.500525 -3.63167 0
M  V30 9166 H 874.543 1.72024 -4.7267 0
M  V30 9167 H 874.243 0.381909 -5.86358 0
M  V30 9168 H 875.767 1.30891 -5.96406 0
M  V30 9169 H 877.181 -0.941429 -5.65517 0
M  V30 9170 H 875.578 -1.72726 -5.74705 0
M  V30 9171 H 876.648 -2.08273 -4.37893 0
M  V30 9172 N 877.991 1.48044 -0.54043 0
M  V30 9173 C 879.216 2.07396 -0.0124765 0
M  V30 9174 C 879.641 1.39288 1.26414 0
M  V30 9175 O 878.999 0.462252 1.75308 0
M  V30 9176 C 879.047 3.60131 0.18377 0
M  V30 9177 O 878.151 3.92995 1.25014 0
M  V30 9178 H 877.492 0.662554 -0.0438026 0
M  V30 9179 H 880.022 1.90306 -0.751327 0
M  V30 9180 H 880.032 4.06003 0.403197 0
M  V30 9181 H 878.707 4.09105 -0.74874 0
M  V30 9182 H 877.284 3.5889 1.01254 0
M  V30 9183 N 879.47 0.276058 1.55163 0
M  V30 9184 C 880.718 -0.339782 1.99223 0
M  V30 9185 C 881.039 -1.56307 1.16589 0
M  V30 9186 O 880.309 -1.94225 0.25564 0
M  V30 9187 H 878.889 -0.128534 0.735859 0
M  V30 9188 H 881.551 0.381612 1.91128 0
M  V30 9189 H 880.647 -0.629 3.05696 0
M  V30 9190 N 880.948 -1.576 0.00335426 0
M  V30 9191 C 881.858 -2.12067 -1.00322 0
M  V30 9192 C 882.874 -1.06672 -1.37467 0
M  V30 9193 O 884.05 -1.38592 -1.46131 0
M  V30 9194 C 881.115 -2.61593 -2.27531 0
M  V30 9195 C 880.176 -3.81602 -1.96668 0
M  V30 9196 C 879.409 -4.28756 -3.17811 0
M  V30 9197 O 879.632 -3.75222 -4.2961 0
M  V30 9198 O 878.566 -5.20877 -3.01613 0
M  V30 9199 H 882.392 -2.98299 -0.570199 0
M  V30 9200 H 879.977 -1.47835 -0.215682 0
M  V30 9201 H 881.859 -2.93631 -3.02256 0
M  V30 9202 H 880.534 -1.78457 -2.70065 0
M  V30 9203 H 879.441 -3.54531 -1.19408 0
M  V30 9204 H 880.774 -4.65822 -1.58968 0
M  V30 9205 N 882.426 0.269451 -1.5528 0
M  V30 9206 C 883.672 1.00206 -1.76314 0
M  V30 9207 C 884.005 1.85812 -0.564581 0
M  V30 9208 O 883.28 1.89509 0.437769 0
M  V30 9209 C 883.563 1.88163 -3.07029 0
M  V30 9210 C 883.416 1.05527 -4.37246 0
M  V30 9211 C 884.735 2.8681 -3.33808 0
M  V30 9212 H 881.854 0.36288 -0.641473 0
M  V30 9213 H 884.496 0.274188 -1.88011 0
M  V30 9214 H 882.646 2.50224 -2.97187 0
M  V30 9215 H 884.318 0.455094 -4.5905 0
M  V30 9216 H 882.561 0.358842 -4.32313 0
M  V30 9217 H 883.232 1.70397 -5.25042 0
M  V30 9218 H 885.708 2.34884 -3.43466 0
M  V30 9219 H 884.584 3.45492 -4.26528 0
M  V30 9220 H 884.845 3.62118 -2.5362 0
M  V30 9221 N 883.904 1.48273 0.534124 0
M  V30 9222 C 884.834 1.6538 1.64839 0
M  V30 9223 C 885.815 0.502741 1.62501 0
M  V30 9224 O 887 0.734799 1.79762 0
M  V30 9225 C 884.13 1.68949 3.03436 0
M  V30 9226 C 883.084 2.83513 3.20631 0
M  V30 9227 C 882.41 2.72169 4.60248 0
M  V30 9228 C 883.71 4.24858 3.03797 0
M  V30 9229 H 885.404 2.58663 1.50777 0
M  V30 9230 H 882.95 1.24479 0.723937 0
M  V30 9231 H 884.903 1.79505 3.81256 0
M  V30 9232 H 883.627 0.722415 3.1851 0
M  V30 9233 H 882.286 2.72505 2.45227 0
M  V30 9234 H 881.934 1.7344 4.72152 0
M  V30 9235 H 881.634 3.49042 4.72698 0
M  V30 9236 H 883.158 2.84687 5.40172 0
M  V30 9237 H 884.572 4.36721 3.71413 0
M  V30 9238 H 882.969 5.02697 3.27743 0
M  V30 9239 H 884.039 4.41611 2.0027 0
M  V30 9240 N 885.382 -0.782676 1.36792 0
M  V30 9241 C 886.33 -1.91698 1.31737 0
M  V30 9242 C 887.324 -1.68118 0.207994 0
M  V30 9243 O 888.53 -1.76042 0.375393 0
M  V30 9244 H 884.905 -0.630215 0.410284 0
M  V30 9245 H 886.876 -1.93078 2.27516 0
M  V30 9246 C 885.625 -3.28816 1.13029 0
M  V30 9247 H 884.948 -3.4753 1.97643 0
M  V30 9248 H 886.388 -4.08515 1.13541 0
M  V30 9249 C 884.847 -3.36497 -0.1647 0
M  V30 9250 O 885.377 -3.84822 -1.15216 0
M  V30 9251 N 883.583 -2.89828 -0.211678 0
M  V30 9252 H 883.13 -2.50693 0.59252 0
M  V30 9253 H 883.088 -2.95349 -1.07779 0
M  V30 9254 N 886.86 -1.21182 -1.00761 0
M  V30 9255 C 888.108 -1.02543 -1.74153 0
M  V30 9256 C 888.429 0.442372 -1.89916 0
M  V30 9257 O 887.699 1.31927 -1.44818 0
M  V30 9258 H 886.279 -0.37644 -0.645214 0
M  V30 9259 H 888.941 -1.52446 -1.21434 0
M  V30 9260 H 888.037 -1.49122 -2.7417 0
M  V30 9261 N 888.338 1.20213 -1.01915 0
M  V30 9262 C 889.301 2.21307 -0.596327 0
M  V30 9263 C 890.301 1.57274 0.334879 0
M  V30 9264 O 891.491 1.73764 0.12322 0
M  V30 9265 C 888.623 3.40657 0.128808 0
M  V30 9266 H 889.816 2.60228 -1.49068 0
M  V30 9267 H 887.369 1.33721 -0.809226 0
M  V30 9268 H 888.104 3.07241 1.03796 0
M  V30 9269 H 887.889 3.88361 -0.540183 0
M  V30 9270 H 889.379 4.15564 0.411892 0
M  V30 9271 N 889.816 0.795718 1.36037 0
M  V30 9272 C 890.779 0.204318 2.28287 0
M  V30 9273 C 891.779 -0.602017 1.49105 0
M  V30 9274 O 892.969 -0.422089 1.69009 0
M  V30 9275 C 890.101 -0.716431 3.33287 0
M  V30 9276 H 891.294 1.01781 2.821 0
M  V30 9277 H 888.847 0.565588 1.45708 0
M  V30 9278 H 889.582 -1.55403 2.84641 0
M  V30 9279 H 889.367 -0.140096 3.9185 0
M  V30 9280 H 890.857 -1.12488 4.02164 0
M  V30 9281 N 891.294 -1.47756 0.548274 0
M  V30 9282 C 892.54 -2.02789 0.0209265 0
M  V30 9283 C 892.873 -1.42268 -1.32187 0
M  V30 9284 O 892.148 -0.575001 -1.85806 0
M  V30 9285 C 892.431 -3.60007 -0.0816674 0
M  V30 9286 C 892.284 -4.30977 1.28759 0
M  V30 9287 C 893.603 -4.32777 -0.799515 0
M  V30 9288 H 890.722 -0.736944 0.00907884 0
M  V30 9289 H 893.364 -1.76282 0.708839 0
M  V30 9290 H 891.514 -3.82722 -0.667537 0
M  V30 9291 H 893.186 -4.19629 1.91597 0
M  V30 9292 H 891.429 -3.9168 1.86466 0
M  V30 9293 H 892.1 -5.39488 1.16861 0
M  V30 9294 H 894.576 -4.15001 -0.30216 0
M  V30 9295 H 893.452 -5.42431 -0.840239 0
M  V30 9296 H 893.713 -4.01358 -1.85375 0
M  V30 9297 N 892.772 -0.284283 -1.55015 0
M  V30 9298 C 894.018 0.330352 -2.00091 0
M  V30 9299 C 894.351 1.54814 -1.17244 0
M  V30 9300 O 893.626 1.92954 -0.244753 0
M  V30 9301 C 893.909 0.703492 -3.53161 0
M  V30 9302 C 893.762 -0.522275 -4.46758 0
M  V30 9303 C 895.081 1.53645 -4.12409 0
M  V30 9304 H 892.2 0.118599 -0.727395 0
M  V30 9305 H 894.842 -0.393054 -1.8589 0
M  V30 9306 H 892.992 1.31983 -3.65394 0
M  V30 9307 H 894.664 -1.16082 -4.46456 0
M  V30 9308 H 892.907 -1.15865 -4.1804 0
M  V30 9309 H 893.578 -0.217295 -5.51572 0
M  V30 9310 H 896.054 1.01583 -4.0351 0
M  V30 9311 H 894.93 1.76633 -5.19704 0
M  V30 9312 H 895.191 2.5204 -3.63219 0
M  V30 9313 N 894.251 1.57596 -0.0117121 0
M  V30 9314 C 895.667 1.55837 0.344506 0
M  V30 9315 C 895.867 1.01557 1.74036 0
M  V30 9316 O 894.923 0.654563 2.43868 0
M  V30 9317 C 896.236 2.99973 0.209023 0
M  V30 9318 C 897.784 3.11717 0.283092 0
M  V30 9319 C 898.259 4.57659 0.176599 0
M  V30 9320 N 899.75 4.62608 0.234133 0
M  V30 9321 C 900.485 5.73132 0.175252 0
M  V30 9322 N 899.981 6.92768 0.0662888 0
M  V30 9323 N 901.774 5.61638 0.227972 0
M  V30 9324 H 893.925 1.91215 -0.924692 0
M  V30 9325 H 896.188 0.878807 -0.355531 0
M  V30 9326 H 895.894 3.4357 -0.751826 0
M  V30 9327 H 895.768 3.64075 0.98635 0
M  V30 9328 H 898.155 2.68043 1.23439 0
M  V30 9329 H 898.236 2.50369 -0.52431 0
M  V30 9330 H 897.88 5.02011 -0.771205 0
M  V30 9331 H 897.81 5.16967 1.00264 0
M  V30 9332 H 900.301 3.76549 0.319203 0
M  V30 9333 H 900.614 7.72795 0.0275765 0
M  V30 9334 H 898.959 6.94993 0.0317502 0
M  V30 9335 H 902.15 4.67063 0.311377 0
M  V30 9336 H 902.323 6.47754 0.178621 0
M  V30 9337 N 895.729 -0.261212 1.5542 0
M  V30 9338 C 897.14 -0.83138 1.67167 0
M  V30 9339 C 897.491 -1.8659 0.606525 0
M  V30 9340 O 896.616 -2.14953 -0.24985 0
M  V30 9341 C 897.211 -1.51475 3.03052 0
M  V30 9342 C 895.77 -2.0328 3.16787 0
M  V30 9343 C 894.917 -0.878903 2.63003 0
M  V30 9344 H 897.868 -0.0373102 1.58656 0
M  V30 9345 H 897.889 -2.38222 2.96699 0
M  V30 9346 H 897.401 -0.76157 3.80554 0
M  V30 9347 H 895.502 -2.81523 2.44082 0
M  V30 9348 H 895.615 -2.24001 4.2351 0
M  V30 9349 H 893.979 -1.27551 2.2046 0
M  V30 9350 H 894.762 -0.13904 3.43018 0
M  V30 9351 N 897.207 -1.48554 -0.526253 0
M  V30 9352 C 898.618 -1.50256 -1.10815 0
M  V30 9353 C 898.969 -0.274445 -1.94271 0
M  V30 9354 O 898.094 0.618094 -2.07385 0
M  V30 9355 C 898.689 -2.72264 -2.01638 0
M  V30 9356 C 897.248 -2.76826 -2.55038 0
M  V30 9357 C 896.395 -2.43823 -1.32081 0
M  V30 9358 H 899.346 -1.55616 -0.31133 0
M  V30 9359 H 899.367 -2.50993 -2.85977 0
M  V30 9360 H 898.879 -3.61632 -1.4087 0
M  V30 9361 H 896.98 -1.91676 -3.19517 0
M  V30 9362 H 897.093 -3.78351 -2.93917 0
M  V30 9363 H 895.457 -1.95058 -1.63781 0
M  V30 9364 H 896.24 -3.35436 -0.730596 0
M  V30 9365 N 898.685 0.775411 -1.37205 0
M  V30 9366 C 899.933 1.53081 -1.3195 0
M  V30 9367 C 900.254 1.9476 0.0966864 0
M  V30 9368 O 899.524 1.66019 1.03993 0
M  V30 9369 H 898.104 0.567762 -0.485444 0
M  V30 9370 H 900.766 0.92309 -1.71654 0
M  V30 9371 H 899.862 2.4319 -1.95614 0
M  V30 9372 N 900.163 1.21714 1.00117 0
M  V30 9373 C 901.113 0.947259 2.07391 0
M  V30 9374 C 902.097 -0.0989662 1.60595 0
M  V30 9375 O 903.289 0.11047 1.76655 0
M  V30 9376 C 900.418 0.517954 3.3937 0
M  V30 9377 C 899.504 1.59846 3.92823 0
M  V30 9378 N 899.895 2.82438 4.19598 0
M  V30 9379 C 898.193 1.46822 4.2114 0
M  V30 9380 C 898.894 3.52247 4.62922 0
M  V30 9381 N 897.87 2.79696 4.66124 0
M  V30 9382 H 901.672 1.8786 2.26022 0
M  V30 9383 H 899.186 1.11344 1.18221 0
M  V30 9384 H 901.183 0.305951 4.15776 0
M  V30 9385 H 899.843 -0.40658 3.22144 0
M  V30 9386 H 900.854 3.18944 4.08038 0
M  V30 9387 H 897.531 0.609259 4.13031 0
M  V30 9388 H 898.921 4.57232 4.9233 0
M  V30 9389 N 901.641 -1.19671 1.02551 0
M  V30 9390 C 902.591 -2.20655 0.574037 0
M  V30 9391 C 903.575 -1.56459 -0.375412 0
M  V30 9392 O 904.767 -1.75901 -0.196929 0
M  V30 9393 C 901.896 -3.43213 -0.0772031 0
M  V30 9394 C 900.982 -4.1456 0.894485 0
M  V30 9395 N 901.373 -4.62147 2.05557 0
M  V30 9396 C 899.671 -4.40196 0.717205 0
M  V30 9397 C 900.372 -5.16899 2.66814 0
M  V30 9398 N 899.348 -5.07496 1.94804 0
M  V30 9399 H 903.15 -2.55124 1.45908 0
M  V30 9400 H 900.664 -1.35707 0.89204 0
M  V30 9401 H 902.661 -4.14797 -0.41824 0
M  V30 9402 H 901.321 -3.10247 -0.957973 0
M  V30 9403 H 902.332 -4.5708 2.43513 0
M  V30 9404 H 899.009 -4.17342 -0.114758 0
M  V30 9405 H 900.399 -5.64032 3.65126 0
M  V30 9406 N 903.119 -0.802921 -1.35613 0
M  V30 9407 C 904.082 -0.216422 -2.28176 0
M  V30 9408 C 905.082 0.594101 -1.49422 0
M  V30 9409 O 906.272 0.41312 -1.6923 0
M  V30 9410 C 903.404 0.698746 -3.33662 0
M  V30 9411 H 904.597 -1.03276 -2.81557 0
M  V30 9412 H 902.15 -0.573307 -1.45406 0
M  V30 9413 H 902.885 1.53891 -2.85461 0
M  V30 9414 H 902.67 0.119314 -3.91918 0
M  V30 9415 H 904.16 1.10354 -4.02755 0
M  V30 9416 N 904.597 1.47463 -0.556102 0
M  V30 9417 C 905.507 2.33785 0.195378 0
M  V30 9418 C 906.523 1.48123 0.913 0
M  V30 9419 O 907.699 1.81053 0.882141 0
M  V30 9420 C 904.764 3.24795 1.21282 0
M  V30 9421 C 903.825 4.26346 0.502747 0
M  V30 9422 C 903.058 5.13007 1.47172 0
M  V30 9423 O 903.281 5.02103 2.70646 0
M  V30 9424 O 902.215 5.93588 0.996814 0
M  V30 9425 H 906.041 2.99341 -0.512676 0
M  V30 9426 H 903.626 1.46004 -0.31673 0
M  V30 9427 H 905.508 3.81015 1.80016 0
M  V30 9428 H 904.183 2.61868 1.90282 0
M  V30 9429 H 903.09 3.73889 -0.125757 0
M  V30 9430 H 904.423 4.91984 -0.145779 0
M  V30 9431 N 906.075 0.2925 1.54862 0
M  V30 9432 C 907.007 -0.620889 2.2063 0
M  V30 9433 C 908.02 -1.10412 1.19637 0
M  V30 9434 O 909.209 -1.02304 1.46274 0
M  V30 9435 C 906.309 -1.861 2.83232 0
M  V30 9436 C 905.482 -1.52168 4.10078 0
M  V30 9437 C 904.541 -2.61605 4.56562 0
M  V30 9438 O 903.567 -2.27056 5.21952 0
M  V30 9439 N 904.769 -3.9199 4.28163 0
M  V30 9440 H 907.534 -0.0579028 2.99644 0
M  V30 9441 H 905.095 0.114333 1.61496 0
M  V30 9442 H 907.087 -2.58642 3.11266 0
M  V30 9443 H 905.657 -2.33259 2.08108 0
M  V30 9444 H 904.877 -0.629283 3.89145 0
M  V30 9445 H 906.165 -1.27023 4.92689 0
M  V30 9446 H 905.563 -4.22872 3.7576 0
M  V30 9447 H 904.12 -4.60857 4.60928 0
M  V30 9448 N 907.553 -1.57587 0.0200696 0
M  V30 9449 C 908.83 -1.82696 -0.698677 0
M  V30 9450 C 909.21 -0.902082 -1.90855 0
M  V30 9451 O 908.558 0.0444834 -2.28457 0
M  V30 9452 C 908.768 -3.31691 -1.08546 0
M  V30 9453 C 910.116 -3.97938 -1.4809 0
M  V30 9454 O 911.14 -3.36133 -1.17869 0
M  V30 9455 O 909.999 -5.06851 -2.04364 0
M  V30 9456 H 907.093 -0.752997 -0.341942 0
M  V30 9457 H 909.639 -1.69635 0.04706 0
M  V30 9458 H 908.411 -3.90659 -0.223956 0
M  V30 9459 H 908.034 -3.49825 -1.88965 0
M  V30 9460 N 909.032 0.252966 -1.55557 0
M  V30 9461 C 909.995 1.29645 -1.8901 0
M  V30 9462 C 910.995 1.41378 -0.766096 0
M  V30 9463 O 912.185 1.40183 -1.03414 0
M  V30 9464 C 909.317 2.67504 -2.11316 0
M  V30 9465 H 910.51 1.01202 -2.82309 0
M  V30 9466 H 908.063 0.491977 -1.48355 0
M  V30 9467 H 908.798 3.01095 -1.20466 0
M  V30 9468 H 908.583 2.6037 -2.93172 0
M  V30 9469 H 910.073 3.42861 -2.38403 0
M  V30 9470 N 910.51 1.48831 0.518367 0
M  V30 9471 C 911.473 1.63721 1.604 0
M  V30 9472 C 912.473 0.509857 1.52503 0
M  V30 9473 O 913.663 0.775922 1.55965 0
M  V30 9474 C 910.795 1.61831 3.00039 0
M  V30 9475 H 911.988 2.60534 1.48533 0
M  V30 9476 H 909.541 1.37602 0.741309 0
M  V30 9477 H 910.276 0.665387 3.17401 0
M  V30 9478 H 910.061 2.43686 3.0718 0
M  V30 9479 H 911.551 1.75467 3.78947 0
M  V30 9480 N 911.988 -0.768124 1.37614 0
M  V30 9481 C 913.228 -1.53979 1.34424 0
M  V30 9482 C 913.592 -1.91874 -0.0696803 0
M  V30 9483 O 914.793 -2.67845 -0.22633 0
M  V30 9484 C 913.064 -2.76845 2.26034 0
M  V30 9485 S 914.623 -3.66871 2.4073 0
M  V30 9486 H 911.441 -0.527108 0.477157 0
M  V30 9487 H 914.043 -0.902945 1.73399 0
M  V30 9488 H 912.747 -2.47091 3.2768 0
M  V30 9489 H 912.278 -3.45486 1.88157 0
M  V30 9490 H 914.293 -4.6899 1.62057 0
M  V30 9491 N 913.466 -1.22244 -0.994698 0
M  V30 9492 C 914.714 -1.04384 -1.73056 0
M  V30 9493 C 915.035 0.422204 -1.90374 0
M  V30 9494 O 914.305 1.30383 -1.46209 0
M  V30 9495 H 912.885 -0.383263 -0.641185 0
M  V30 9496 H 915.547 -1.53725 -1.1981 0
M  V30 9497 H 914.643 -1.52021 -2.72573 0
M  V30 9498 N 914.944 1.19125 -1.03184 0
M  V30 9499 C 916.191 1.88883 -0.730029 0
M  V30 9500 C 916.519 1.79807 0.741602 0
M  V30 9501 O 915.774 1.18686 1.55603 0
M  V30 9502 C 916.073 3.39052 -1.13041 0
M  V30 9503 C 915.739 3.68332 -2.60082 0
M  V30 9504 C 914.401 3.76033 -3.00254 0
M  V30 9505 C 916.753 3.81423 -3.55199 0
M  V30 9506 C 914.081 3.94296 -4.34451 0
M  V30 9507 C 916.433 4.012 -4.89103 0
M  V30 9508 C 915.097 4.07134 -5.28959 0
M  V30 9509 H 914.367 0.691172 -0.267137 0
M  V30 9510 H 917.014 1.41053 -1.29523 0
M  V30 9511 H 915.319 3.88801 -0.48386 0
M  V30 9512 H 917.016 3.91351 -0.874368 0
M  V30 9513 H 913.606 3.62948 -2.27961 0
M  V30 9514 H 917.79 3.74814 -3.25313 0
M  V30 9515 H 913.046 3.97131 -4.64863 0
M  V30 9516 H 917.22 4.10271 -5.62717 0
M  V30 9517 H 914.847 4.21038 -6.32954 0
M  V30 9518 N 916.422 0.810101 1.35185 0
M  V30 9519 C 917.662 0.397802 2.00492 0
M  V30 9520 C 918.026 -1.01684 1.62863 0
M  V30 9521 O 919.227 -1.53133 2.20916 0
M  V30 9522 C 917.498 0.579524 3.5267 0
M  V30 9523 S 919.057 0.258169 4.3804 0
M  V30 9524 H 915.875 0.150904 0.694801 0
M  V30 9525 H 918.477 1.05312 1.64711 0
M  V30 9526 H 917.181 1.60901 3.77543 0
M  V30 9527 H 916.712 -0.0909886 3.93295 0
M  V30 9528 H 918.727 -0.932882 4.87352 0
M  V30 9529 N 917.9 -1.47166 0.563914 0
M  V30 9530 C 919.147 -2.02456 0.042371 0
M  V30 9531 C 919.475 -1.43753 -1.31016 0
M  V30 9532 O 918.73 -0.585287 -1.86743 0
M  V30 9533 C 919.029 -3.57279 -0.0931797 0
M  V30 9534 C 918.695 -4.34932 1.18933 0
M  V30 9535 C 917.357 -4.55867 1.54073 0
M  V30 9536 C 919.709 -4.79665 2.03889 0
M  V30 9537 C 917.037 -5.18785 2.74005 0
M  V30 9538 C 919.389 -5.43907 3.23029 0
M  V30 9539 C 918.053 -5.63074 3.58475 0
M  V30 9540 H 917.323 -0.740838 0.0155047 0
M  V30 9541 H 919.97 -1.76759 0.736776 0
M  V30 9542 H 918.275 -3.82005 -0.870596 0
M  V30 9543 H 919.972 -3.97716 -0.512176 0
M  V30 9544 H 916.562 -4.18921 0.905718 0
M  V30 9545 H 920.746 -4.63264 1.78046 0
M  V30 9546 H 916.002 -5.31818 3.01628 0
M  V30 9547 H 920.176 -5.77531 3.89141 0
M  V30 9548 H 917.803 -6.11598 4.515 0
M  V30 9549 N 919.378 -0.300708 -1.54705 0
M  V30 9550 C 920.625 0.308654 -2.00134 0
M  V30 9551 C 920.953 1.53918 -1.1891 0
M  V30 9552 O 920.208 1.94054 -0.253263 0
M  V30 9553 C 920.507 0.710108 -3.50275 0
M  V30 9554 C 920.173 -0.418651 -4.48952 0
M  V30 9555 C 918.835 -0.728524 -4.75653 0
M  V30 9556 C 921.187 -1.17797 -5.07714 0
M  V30 9557 C 918.515 -1.80085 -5.58378 0
M  V30 9558 C 920.867 -2.24022 -5.91606 0
M  V30 9559 C 919.531 -2.55616 -6.16617 0
M  V30 9560 H 918.801 0.112945 -0.732342 0
M  V30 9561 H 921.448 -0.419744 -1.86843 0
M  V30 9562 H 919.753 1.51859 -3.61173 0
M  V30 9563 H 921.45 1.19277 -3.8285 0
M  V30 9564 H 918.04 -0.167034 -4.28274 0
M  V30 9565 H 922.224 -0.951835 -4.87087 0
M  V30 9566 H 917.48 -2.05036 -5.75995 0
M  V30 9567 H 921.654 -2.83317 -6.36164 0
M  V30 9568 H 919.281 -3.38839 -6.80509 0
M  V30 9569 N 920.856 1.57574 -0.0284266 0
M  V30 9570 C 921.804 2.11332 0.971675 0
M  V30 9571 C 922.798 1.03974 1.33738 0
M  V30 9572 O 924.004 1.22409 1.31969 0
M  V30 9573 H 920.379 0.675174 0.331125 0
M  V30 9574 H 922.35 2.943 0.49296 0
M  V30 9575 C 921.099 2.65496 2.24516 0
M  V30 9576 H 920.422 3.47753 1.9725 0
M  V30 9577 H 921.862 3.06757 2.92705 0
M  V30 9578 C 920.321 1.58207 2.97443 0
M  V30 9579 O 920.851 0.981496 3.89525 0
M  V30 9580 N 919.057 1.30269 2.59766 0
M  V30 9581 H 918.604 1.79294 1.84963 0
M  V30 9582 H 918.562 0.587085 3.0887 0
M  V30 9583 N 922.334 -0.244713 1.55689 0
M  V30 9584 C 923.559 -0.994157 1.8202 0
M  V30 9585 C 923.984 -1.78079 0.60577 0
M  V30 9586 O 923.342 -1.75748 -0.445221 0
M  V30 9587 C 923.39 -1.90599 3.06111 0
M  V30 9588 O 922.494 -2.99804 2.8318 0
M  V30 9589 H 921.835 -0.282767 0.600782 0
M  V30 9590 H 924.365 -0.26504 2.02876 0
M  V30 9591 H 924.375 -2.32023 3.35603 0
M  V30 9592 H 923.05 -1.32763 3.9414 0
M  V30 9593 H 921.627 -2.62493 2.64862 0
M  V30 9594 N 923.813 -1.49104 -0.510467 0
M  V30 9595 C 925.059 -1.58346 -1.26705 0
M  V30 9596 C 925.392 -0.265121 -1.92382 0
M  V30 9597 O 924.667 0.730558 -1.80258 0
M  V30 9598 C 924.95 -2.7359 -2.34137 0
M  V30 9599 C 924.803 -4.1519 -1.73024 0
M  V30 9600 C 926.122 -2.84511 -3.3577 0
M  V30 9601 H 923.241 -0.57637 -0.459311 0
M  V30 9602 H 925.883 -1.81353 -0.566658 0
M  V30 9603 H 924.033 -2.54105 -2.93876 0
M  V30 9604 H 925.705 -4.46167 -1.17186 0
M  V30 9605 H 923.948 -4.21279 -1.03473 0
M  V30 9606 H 924.619 -4.91683 -2.50903 0
M  V30 9607 H 927.095 -3.0222 -2.86011 0
M  V30 9608 H 925.971 -3.6684 -4.08313 0
M  V30 9609 H 926.232 -1.93471 -3.97519 0
M  V30 9610 N 925.291 0.760815 -1.38019 0
M  V30 9611 C 926.254 1.85604 -1.34476 0
M  V30 9612 C 927.254 1.58897 -0.24666 0
M  V30 9613 O 928.444 1.66776 -0.50314 0
M  V30 9614 C 925.576 3.22945 -1.09176 0
M  V30 9615 H 926.769 1.90155 -2.31908 0
M  V30 9616 H 924.322 0.961746 -1.23208 0
M  V30 9617 H 925.057 3.24066 -0.123216 0
M  V30 9618 H 924.842 3.43723 -1.88672 0
M  V30 9619 H 926.332 4.03022 -1.09375 0
M  V30 9620 N 926.769 1.22769 0.988202 0
M  V30 9621 C 928.015 1.05665 1.73097 0
M  V30 9622 C 928.348 -0.406615 1.89895 0
M  V30 9623 O 927.623 -1.30132 1.44554 0
M  V30 9624 C 927.906 1.77381 3.13382 0
M  V30 9625 C 927.759 3.31332 3.04203 0
M  V30 9626 C 929.078 1.52999 4.12649 0
M  V30 9627 H 926.197 0.385258 0.628288 0
M  V30 9628 H 928.839 1.51171 1.15097 0
M  V30 9629 H 926.989 1.38696 3.62899 0
M  V30 9630 H 928.661 3.79489 2.6227 0
M  V30 9631 H 926.904 3.60767 2.40894 0
M  V30 9632 H 927.575 3.76692 4.03493 0
M  V30 9633 H 930.051 1.86611 3.71908 0
M  V30 9634 H 928.927 2.05666 5.08913 0
M  V30 9635 H 929.188 0.463615 4.39662 0
M  V30 9636 N 928.247 -1.18576 1.03814 0
M  V30 9637 C 929.21 -2.2033 0.63146 0
M  V30 9638 C 930.21 -1.57787 -0.309816 0
M  V30 9639 O 931.4 -1.73938 -0.0955598 0
M  V30 9640 C 928.532 -3.40818 -0.0745963 0
M  V30 9641 H 929.725 -2.57824 1.53189 0
M  V30 9642 H 927.278 -1.32416 0.830398 0
M  V30 9643 H 928.013 -3.08853 -0.988947 0
M  V30 9644 H 927.798 -3.87453 0.6019 0
M  V30 9645 H 929.288 -4.16166 -0.345727 0
M  V30 9646 N 929.725 -0.817259 -1.34754 0
M  V30 9647 C 930.688 -0.240611 -2.27934 0
M  V30 9648 C 931.688 0.578219 -1.50044 0
M  V30 9649 O 932.878 0.395148 -1.69659 0
M  V30 9650 C 930.01 0.663318 -3.34384 0
M  V30 9651 H 931.203 -1.06257 -2.80445 0
M  V30 9652 H 928.756 -0.588697 -1.4479 0
M  V30 9653 H 929.491 1.50855 -2.87077 0
M  V30 9654 H 929.276 0.0777388 -3.92023 0
M  V30 9655 H 930.766 1.06076 -4.03903 0
M  V30 9656 N 931.203 1.46865 -0.571711 0
M  V30 9657 C 932.619 1.57897 -0.23255 0
M  V30 9658 C 932.819 1.56836 1.26509 0
M  V30 9659 O 931.875 1.47947 2.04617 0
M  V30 9660 C 933.188 2.87778 -0.872036 0
M  V30 9661 C 934.736 3.01389 -0.844605 0
M  V30 9662 C 935.211 4.33991 -1.46343 0
M  V30 9663 N 936.702 4.40662 -1.42727 0
M  V30 9664 C 937.437 5.41858 -1.87557 0
M  V30 9665 N 936.933 6.49787 -2.4031 0
M  V30 9666 N 938.726 5.32992 -1.7854 0
M  V30 9667 H 930.877 1.45798 -1.54457 0
M  V30 9668 H 933.14 0.694785 -0.644964 0
M  V30 9669 H 932.846 2.94332 -1.92513 0
M  V30 9670 H 932.72 3.75345 -0.373677 0
M  V30 9671 H 935.107 2.94423 0.19984 0
M  V30 9672 H 935.188 2.15327 -1.38087 0
M  V30 9673 H 934.832 4.41714 -2.50701 0
M  V30 9674 H 934.762 5.18809 -0.902479 0
M  V30 9675 H 937.253 3.63263 -1.04155 0
M  V30 9676 H 937.566 7.23199 -2.72403 0
M  V30 9677 H 935.911 6.50637 -2.44329 0
M  V30 9678 H 939.102 4.47575 -1.37093 0
M  V30 9679 H 939.275 6.11716 -2.13794 0
M  V30 9680 N 932.681 0.308908 1.54543 0
M  V30 9681 C 933.631 -0.578902 2.20528 0
M  V30 9682 C 934.615 -1.09288 1.18088 0
M  V30 9683 O 935.807 -1.03234 1.43777 0
M  V30 9684 C 932.936 -1.74649 2.95555 0
M  V30 9685 C 932.022 -1.24809 4.05319 0
M  V30 9686 N 932.413 -0.46828 5.03628 0
M  V30 9687 C 930.711 -1.52813 4.19004 0
M  V30 9688 C 931.412 -0.201896 5.8135 0
M  V30 9689 N 930.388 -0.783927 5.37918 0
M  V30 9690 H 934.19 0.0243496 2.9389 0
M  V30 9691 H 931.704 0.114049 1.61999 0
M  V30 9692 H 933.701 -2.39414 3.41301 0
M  V30 9693 H 932.361 -2.35336 2.23712 0
M  V30 9694 H 933.372 -0.112453 5.17778 0
M  V30 9695 H 930.049 -2.14191 3.58369 0
M  V30 9696 H 931.439 0.424929 6.70555 0
M  V30 9697 N 934.159 -1.57557 0.0367827 0
M  V30 9698 C 935.122 -2.09591 -0.927589 0
M  V30 9699 C 936.122 -1.01252 -1.24919 0
M  V30 9700 O 937.312 -1.27382 -1.18825 0
M  V30 9701 C 934.444 -2.56816 -2.24184 0
M  V30 9702 H 935.637 -2.96086 -0.476784 0
M  V30 9703 H 933.19 -1.54864 -0.211385 0
M  V30 9704 H 933.925 -1.73673 -2.73876 0
M  V30 9705 H 933.71 -3.35973 -2.0215 0
M  V30 9706 H 935.2 -2.97271 -2.93291 0
M  V30 9707 N 935.637 0.236453 -1.55816 0
M  V30 9708 C 936.569 1.31602 -1.87653 0
M  V30 9709 C 937.582 1.43782 -0.763584 0
M  V30 9710 O 938.771 1.44945 -1.04178 0
M  V30 9711 C 935.871 2.69342 -2.05689 0
M  V30 9712 C 935.044 2.79298 -3.36617 0
M  V30 9713 C 934.103 3.97952 -3.44268 0
M  V30 9714 O 933.129 3.86989 -4.17406 0
M  V30 9715 N 934.331 5.11594 -2.74321 0
M  V30 9716 H 937.096 1.04623 -2.80845 0
M  V30 9717 H 934.657 0.426534 -1.5618 0
M  V30 9718 H 936.649 3.47074 -2.08138 0
M  V30 9719 H 935.219 2.88984 -1.19192 0
M  V30 9720 H 934.439 1.8816 -3.46395 0
M  V30 9721 H 935.727 2.82908 -4.22895 0
M  V30 9722 H 935.125 5.23394 -2.14651 0
M  V30 9723 H 933.682 5.87422 -2.8245 0
M  V30 9724 N 937.115 1.49373 0.502552 0
M  V30 9725 C 938.343 1.62488 1.28084 0
M  V30 9726 C 938.758 0.295667 1.86471 0
M  V30 9727 O 938.115 -0.718664 1.67754 0
M  V30 9728 C 938.166 2.69249 2.4122 0
M  V30 9729 O 937.887 3.97014 1.85234 0
M  V30 9730 C 939.388 2.93054 3.32617 0
M  V30 9731 H 936.608 0.547068 0.388533 0
M  V30 9732 H 939.152 1.95394 0.603452 0
M  V30 9733 H 937.307 2.39125 3.04792 0
M  V30 9734 H 937.721 4.55809 2.59496 0
M  V30 9735 H 939.195 3.71493 4.08285 0
M  V30 9736 H 939.672 2.02911 3.89517 0
M  V30 9737 H 940.278 3.24589 2.74813 0
M  V30 9738 N 938.594 -0.753485 1.38421 0
M  V30 9739 C 939.843 -1.50797 1.33952 0
M  V30 9740 C 940.156 -1.95482 -0.0678464 0
M  V30 9741 O 941.362 -2.7048 -0.235078 0
M  V30 9742 C 939.818 -2.72393 2.35224 0
M  V30 9743 C 939.426 -2.34733 3.81582 0
M  V30 9744 C 941.17 -3.50281 2.39798 0
M  V30 9745 C 939.077 -3.52939 4.7454 0
M  V30 9746 H 938.007 -0.566211 0.497916 0
M  V30 9747 H 940.658 -0.823659 1.63976 0
M  V30 9748 H 939.04 -3.42806 1.98243 0
M  V30 9749 H 940.214 -1.71985 4.27502 0
M  V30 9750 H 938.529 -1.69978 3.80127 0
M  V30 9751 H 941.126 -4.38172 3.06447 0
M  V30 9752 H 941.469 -3.91444 1.41695 0
M  V30 9753 H 942.002 -2.86881 2.75579 0
M  V30 9754 H 938.741 -3.16843 5.73839 0
M  V30 9755 H 938.261 -4.1473 4.33312 0
M  V30 9756 H 939.94 -4.19519 4.92557 0
M  V30 9757 N 940.072 -1.23292 -0.981677 0
M  V30 9758 C 941.297 -1.09176 -1.76339 0
M  V30 9759 C 941.722 0.352726 -1.84763 0
M  V30 9760 O 941.08 1.25509 -1.30832 0
M  V30 9761 C 941.128 -1.72046 -3.16911 0
M  V30 9762 O 940.232 -0.98174 -4.00544 0
M  V30 9763 H 939.573 -0.382755 -0.542581 0
M  V30 9764 H 942.103 -1.63319 -1.23239 0
M  V30 9765 H 942.113 -1.77232 -3.67495 0
M  V30 9766 H 940.788 -2.77154 -3.10095 0
M  V30 9767 H 939.365 -1.00672 -3.59054 0
M  V30 9768 N 941.55 1.18024 -1.04442 0
M  V30 9769 C 942.798 1.87727 -0.74854 0
M  V30 9770 C 943.119 1.80975 0.726156 0
M  V30 9771 O 942.389 1.23061 1.52423 0
M  V30 9772 H 940.969 0.694974 -0.273897 0
M  V30 9773 H 943.631 1.43213 -1.32197 0
M  V30 9774 H 942.727 2.93665 -1.05674 0
M  V30 9775 N 943.028 0.824394 1.34319 0
M  V30 9776 C 943.978 0.219624 2.2694 0
M  V30 9777 C 944.962 -0.616964 1.48601 0
M  V30 9778 O 946.154 -0.471303 1.7061 0
M  V30 9779 C 943.283 -0.616379 3.37721 0
M  V30 9780 C 942.369 0.230917 4.23471 0
M  V30 9781 N 942.76 1.30264 4.88738 0
M  V30 9782 C 941.058 0.0155016 4.45997 0
M  V30 9783 C 941.759 1.82141 5.52449 0
M  V30 9784 N 940.735 1.12508 5.3183 0
M  V30 9785 H 944.537 1.03939 2.74907 0
M  V30 9786 H 942.051 0.667353 1.48055 0
M  V30 9787 H 944.048 -1.06582 4.03046 0
M  V30 9788 H 942.708 -1.43429 2.91304 0
M  V30 9789 H 943.719 1.68545 4.89707 0
M  V30 9790 H 940.396 -0.770128 4.10336 0
M  V30 9791 H 941.786 2.7181 6.14466 0
M  V30 9792 N 944.506 -1.46559 0.579492 0
M  V30 9793 C 945.469 -2.28739 -0.145371 0
M  V30 9794 C 946.469 -1.38211 -0.821854 0
M  V30 9795 O 947.659 -1.6062 -0.674302 0
M  V30 9796 C 944.791 -3.18507 -1.21515 0
M  V30 9797 H 945.984 -2.94301 0.576786 0
M  V30 9798 H 943.537 -1.52616 0.337327 0
M  V30 9799 H 944.272 -2.57685 -1.96899 0
M  V30 9800 H 944.057 -3.85157 -0.734616 0
M  V30 9801 H 945.547 -3.80369 -1.72363 0
M  V30 9802 N 945.984 -0.3171 -1.54377 0
M  V30 9803 C 946.914 0.544623 -2.2706 0
M  V30 9804 C 947.895 1.12469 -1.27611 0
M  V30 9805 O 949.08 1.15103 -1.56413 0
M  V30 9806 C 946.21 1.70879 -3.02353 0
M  V30 9807 C 945.164 1.25833 -4.09084 0
M  V30 9808 C 944.49 2.50894 -4.72182 0
M  V30 9809 C 945.79 0.377876 -5.20931 0
M  V30 9810 H 947.484 -0.0616372 -2.99337 0
M  V30 9811 H 945.03 -0.0310848 -1.43966 0
M  V30 9812 H 946.983 2.31787 -3.51927 0
M  V30 9813 H 945.707 2.34155 -2.27682 0
M  V30 9814 H 944.366 0.672228 -3.60384 0
M  V30 9815 H 944.014 3.12518 -3.94134 0
M  V30 9816 H 943.714 2.21447 -5.44275 0
M  V30 9817 H 945.238 3.12575 -5.24528 0
M  V30 9818 H 946.652 0.893056 -5.66302 0
M  V30 9819 H 945.049 0.176474 -5.9984 0
M  V30 9820 H 946.119 -0.592943 -4.81261 0
M  V30 9821 N 947.462 1.57535 -0.0451378 0
M  V30 9822 C 948.878 1.56533 0.311373 0
M  V30 9823 C 949.078 1.05225 1.71843 0
M  V30 9824 O 948.134 0.706144 2.42425 0
M  V30 9825 C 949.447 3.00349 0.145348 0
M  V30 9826 C 950.995 3.12248 0.216908 0
M  V30 9827 C 951.47 4.57931 0.0794834 0
M  V30 9828 N 952.961 4.63 0.135954 0
M  V30 9829 C 953.696 5.73375 0.0536426 0
M  V30 9830 N 953.192 6.92753 -0.0806725 0
M  V30 9831 N 954.985 5.61995 0.108789 0
M  V30 9832 H 947.136 1.89211 -0.965044 0
M  V30 9833 H 949.399 0.871068 -0.374091 0
M  V30 9834 H 949.105 3.41898 -0.824533 0
M  V30 9835 H 948.979 3.66086 0.908903 0
M  V30 9836 H 951.366 2.70601 1.17726 0
M  V30 9837 H 951.447 2.49201 -0.577299 0
M  V30 9838 H 951.091 5.00262 -0.877516 0
M  V30 9839 H 951.021 5.18977 0.892758 0
M  V30 9840 H 953.512 3.77142 0.23926 0
M  V30 9841 H 953.825 7.7268 -0.136351 0
M  V30 9842 H 952.17 6.94904 -0.115675 0
M  V30 9843 H 955.361 4.67619 0.212235 0
M  V30 9844 H 955.534 6.47987 0.0411822 0
M  V30 9845 N 948.94 -0.228186 1.55939 0
M  V30 9846 C 950.189 -0.951563 1.77843 0
M  V30 9847 C 950.502 -1.85763 0.612501 0
M  V30 9848 O 951.708 -2.61916 0.715006 0
M  V30 9849 C 950.164 -1.74216 3.14923 0
M  V30 9850 C 949.772 -0.882569 4.39221 0
M  V30 9851 C 951.516 -2.45715 3.46156 0
M  V30 9852 C 949.423 -1.67014 5.67327 0
M  V30 9853 H 948.353 -0.359035 0.663031 0
M  V30 9854 H 951.004 -0.205636 1.82344 0
M  V30 9855 H 949.386 -2.53075 3.0458 0
M  V30 9856 H 950.56 -0.13499 4.60602 0
M  V30 9857 H 948.875 -0.280022 4.15457 0
M  V30 9858 H 951.472 -3.05127 4.39092 0
M  V30 9859 H 951.815 -3.1827 2.68346 0
M  V30 9860 H 952.348 -1.73852 3.57799 0
M  V30 9861 H 949.087 -0.987985 6.48012 0
M  V30 9862 H 948.607 -2.3925 5.50018 0
M  V30 9863 H 950.286 -2.23252 6.07262 0
M  V30 9864 N 950.418 -1.49637 -0.494624 0
M  V30 9865 C 951.348 -1.69692 -1.60396 0
M  V30 9866 C 952.329 -0.545648 -1.61111 0
M  V30 9867 O 953.514 -0.782202 -1.77751 0
M  V30 9868 C 950.644 -1.76934 -2.9885 0
M  V30 9869 C 949.598 -2.91915 -3.13001 0
M  V30 9870 C 948.924 -2.84276 -4.5287 0
M  V30 9871 C 950.224 -4.32764 -2.92426 0
M  V30 9872 H 951.918 -2.6257 -1.43866 0
M  V30 9873 H 949.464 -1.26355 -0.690679 0
M  V30 9874 H 951.417 -1.8955 -3.76362 0
M  V30 9875 H 950.141 -0.806609 -3.16483 0
M  V30 9876 H 948.8 -2.78911 -2.37916 0
M  V30 9877 H 948.448 -1.85897 -4.67388 0
M  V30 9878 H 948.148 -3.61452 -4.63278 0
M  V30 9879 H 949.672 -2.98909 -5.32434 0
M  V30 9880 H 951.086 -4.46415 -3.59703 0
M  V30 9881 H 949.483 -5.1121 -3.143 0
M  V30 9882 H 950.553 -4.46765 -1.88491 0
M  V30 9883 N 951.896 0.746133 -1.38819 0
M  V30 9884 C 953.145 1.50085 -1.34749 0
M  V30 9885 C 953.458 1.95516 0.0574786 0
M  V30 9886 O 954.664 2.70601 0.22073 0
M  V30 9887 C 953.12 2.71141 -2.36665 0
M  V30 9888 C 952.728 2.32706 -3.82821 0
M  V30 9889 C 954.472 3.49005 -2.41652 0
M  V30 9890 C 952.379 3.50418 -4.76405 0
M  V30 9891 H 951.309 0.563563 -0.500912 0
M  V30 9892 H 953.96 0.814951 -1.6441 0
M  V30 9893 H 952.342 3.4175 -2.00058 0
M  V30 9894 H 953.516 1.69715 -4.28408 0
M  V30 9895 H 951.831 1.67959 -3.81023 0
M  V30 9896 H 954.428 4.36541 -3.08766 0
M  V30 9897 H 954.771 3.90687 -1.43769 0
M  V30 9898 H 955.304 2.85416 -2.77097 0
M  V30 9899 H 952.043 3.13795 -5.75511 0
M  V30 9900 H 951.563 4.12426 -4.35505 0
M  V30 9901 H 953.242 4.16901 -4.94775 0
M  V30 9902 N 953.375 1.23811 0.975125 0
M  V30 9903 C 954.621 1.07495 1.71967 0
M  V30 9904 C 954.954 -0.386451 1.90316 0
M  V30 9905 O 954.229 -1.28591 1.45927 0
M  V30 9906 C 954.512 1.80694 3.11483 0
M  V30 9907 C 954.365 3.3454 3.00671 0
M  V30 9908 C 955.684 1.57367 4.11003 0
M  V30 9909 H 952.803 0.3919 0.624166 0
M  V30 9910 H 955.445 1.52383 1.13487 0
M  V30 9911 H 953.595 1.42538 3.61407 0
M  V30 9912 H 955.267 3.8225 2.5823 0
M  V30 9913 H 953.51 3.63301 2.37054 0
M  V30 9914 H 954.181 3.80951 3.99475 0
M  V30 9915 H 956.657 1.90545 3.69908 0
M  V30 9916 H 955.533 2.11052 5.06703 0
M  V30 9917 H 955.794 0.510221 4.39146 0
M  V30 9918 N 954.853 -1.17469 1.05066 0
M  V30 9919 C 956.13 -1.83625 0.673872 0
M  V30 9920 C 956.51 -1.93412 -0.845871 0
M  V30 9921 O 955.858 -1.4677 -1.75131 0
M  V30 9922 C 956.068 -3.21352 1.36139 0
M  V30 9923 C 957.416 -3.97274 1.49863 0
M  V30 9924 O 958.44 -3.30827 1.3203 0
M  V30 9925 O 957.299 -5.16349 1.79013 0
M  V30 9926 H 954.393 -0.792297 0.237055 0
M  V30 9927 H 956.939 -1.24776 1.15017 0
M  V30 9928 H 955.711 -3.0919 2.39827 0
M  V30 9929 H 955.334 -3.87867 0.874364 0
M  V30 9930 N 956.331 -0.831506 -1.3388 0
M  V30 9931 C 957.577 -0.433509 -1.98727 0
M  V30 9932 C 957.932 0.994508 -1.64704 0
M  V30 9933 O 957.225 1.68458 -0.912815 0
M  V30 9934 C 957.419 -0.582733 -3.52617 0
M  V30 9935 C 957.248 -2.0237 -4.01592 0
M  V30 9936 C 956.018 -2.6574 -4.29779 0
M  V30 9937 C 958.216 -2.99152 -4.18345 0
M  V30 9938 N 956.198 -4.00988 -4.64846 0
M  V30 9939 C 957.569 -4.19329 -4.56687 0
M  V30 9940 C 959.624 -2.95655 -4.00615 0
M  V30 9941 C 958.327 -5.36475 -4.79152 0
M  V30 9942 C 960.353 -4.12025 -4.24252 0
M  V30 9943 C 959.715 -5.30955 -4.62889 0
M  V30 9944 H 955.814 -0.20691 -0.75413 0
M  V30 9945 H 958.398 -1.07802 -1.62132 0
M  V30 9946 H 956.569 0.0319301 -3.88387 0
M  V30 9947 H 958.301 -0.156899 -4.04396 0
M  V30 9948 H 955.056 -2.16923 -4.21 0
M  V30 9949 H 955.48 -4.7069 -4.86601 0
M  V30 9950 H 960.122 -2.04842 -3.69864 0
M  V30 9951 H 957.84 -6.27839 -5.08767 0
M  V30 9952 H 961.426 -4.10728 -4.1206 0
M  V30 9953 H 960.306 -6.19504 -4.80817 0
M  V30 9954 N 957.809 1.4625 -0.587256 0
M  V30 9955 C 959.086 1.95599 -0.00750181 0
M  V30 9956 C 959.466 1.52989 1.45457 0
M  V30 9957 O 958.814 0.782731 2.14676 0
M  V30 9958 C 959.024 3.48513 -0.184309 0
M  V30 9959 C 960.372 4.24565 -0.0544972 0
M  V30 9960 O 961.396 3.5602 -0.113378 0
M  V30 9961 O 960.255 5.46445 0.0774075 0
M  V30 9962 H 957.349 0.825649 0.0472495 0
M  V30 9963 H 959.895 1.56512 -0.655893 0
M  V30 9964 H 958.667 3.72428 -1.20053 0
M  V30 9965 H 958.29 3.9444 0.500301 0
M  V30 9966 N 959.287 0.325282 1.54207 0
M  V30 9967 C 960.533 -0.277185 2.00897 0
M  V30 9968 C 960.866 -1.51651 1.21308 0
M  V30 9969 O 960.141 -1.92237 0.295825 0
M  V30 9970 C 960.424 -0.60961 3.54902 0
M  V30 9971 C 960.277 0.640542 4.45216 0
M  V30 9972 C 961.596 -1.42656 4.16338 0
M  V30 9973 H 958.715 -0.0992722 0.730284 0
M  V30 9974 H 961.357 0.442201 1.84783 0
M  V30 9975 H 959.507 -1.22249 3.68765 0
M  V30 9976 H 961.179 1.27878 4.43221 0
M  V30 9977 H 959.422 1.26908 4.14821 0
M  V30 9978 H 960.093 0.363459 5.50802 0
M  V30 9979 H 962.569 -0.908494 4.06061 0
M  V30 9980 H 961.445 -1.62792 5.24204 0
M  V30 9981 H 961.706 -2.42321 3.69774 0
M  V30 9982 N 960.765 -1.57509 0.0534917 0
M  V30 9983 C 961.715 -2.08179 -0.929802 0
M  V30 9984 C 962.699 -0.987451 -1.27036 0
M  V30 9985 O 963.891 -1.25076 -1.2524 0
M  V30 9986 C 961.02 -2.63221 -2.20385 0
M  V30 9987 C 960.106 -3.79629 -1.89058 0
M  V30 9988 N 960.497 -4.8931 -1.28101 0
M  V30 9989 C 958.795 -3.88578 -2.18914 0
M  V30 9990 C 959.496 -5.70329 -1.14455 0
M  V30 9991 N 958.472 -5.18011 -1.64821 0
M  V30 9992 H 962.274 -2.90374 -0.453874 0
M  V30 9993 H 959.788 -1.61697 -0.150899 0
M  V30 9994 H 961.785 -2.97827 -2.91727 0
M  V30 9995 H 960.445 -1.82466 -2.68582 0
M  V30 9996 H 961.456 -5.09058 -0.952924 0
M  V30 9997 H 958.133 -3.18769 -2.69616 0
M  V30 9998 H 959.523 -6.6854 -0.671129 0
M  V30 9999 N 962.243 0.219913 -1.56058 0
M  V30 10000 C 963.193 1.27606 -1.88946 0
M  V30 10001 C 964.177 1.42209 -0.752691 0
M  V30 10002 O 965.369 1.44996 -1.01514 0
M  V30 10003 C 962.498 2.62614 -2.21108 0
M  V30 10004 C 961.584 2.51906 -3.4118 0
M  V30 10005 N 961.975 2.10851 -4.59756 0
M  V30 10006 C 960.273 2.82861 -3.44827 0
M  V30 10007 C 960.974 2.11434 -5.41914 0
M  V30 10008 N 959.95 2.51985 -4.81669 0
M  V30 10009 H 963.752 0.94957 -2.78137 0
M  V30 10010 H 961.266 0.428468 -1.56646 0
M  V30 10011 H 963.263 3.38869 -2.42844 0
M  V30 10012 H 961.923 2.96108 -1.3323 0
M  V30 10013 H 962.934 1.81956 -4.84884 0
M  V30 10014 H 959.611 3.20716 -2.67297 0
M  V30 10015 H 961.001 1.81803 -6.46836 0
M  V30 10016 N 963.721 1.49897 0.486681 0
M  V30 10017 C 964.969 1.59789 1.23742 0
M  V30 10018 C 965.29 0.293056 1.92785 0
M  V30 10019 O 964.56 -0.688534 1.83401 0
M  V30 10020 H 963.14 0.588775 0.459731 0
M  V30 10021 H 965.802 1.86597 0.562808 0
M  V30 10022 H 964.898 2.40121 1.9937 0
M  V30 10023 N 965.199 -0.738761 1.39212 0
M  V30 10024 C 966.147 -1.8741 1.3777 0
M  V30 10025 C 967.141 -1.67371 0.261375 0
M  V30 10026 O 968.347 -1.74759 0.431209 0
M  V30 10027 H 964.722 -0.616843 0.430126 0
M  V30 10028 H 966.693 -1.85742 2.33543 0
M  V30 10029 C 965.442 -3.25053 1.23433 0
M  V30 10030 H 964.765 -3.41066 2.086 0
M  V30 10031 H 966.205 -4.04696 1.2648 0
M  V30 10032 C 964.664 -3.36851 -0.0575624 0
M  V30 10033 O 965.194 -3.88293 -1.02915 0
M  V30 10034 N 963.4 -2.90355 -0.119364 0
M  V30 10035 H 962.947 -2.48681 0.671976 0
M  V30 10036 H 962.905 -2.98628 -0.983286 0
M  V30 10037 N 966.677 -1.24326 -0.968545 0
M  V30 10038 C 967.925 -1.08032 -1.70803 0
M  V30 10039 C 968.246 0.381728 -1.91227 0
M  V30 10040 O 967.516 1.27253 -1.48942 0
M  V30 10041 H 966.096 -0.396777 -0.632912 0
M  V30 10042 H 968.758 -1.56232 -1.16523 0
M  V30 10043 H 967.854 -1.57769 -2.69287 0
M  V30 10044 N 968.156 1.1691 -1.05688 0
M  V30 10045 C 969.384 1.91204 -0.790485 0
M  V30 10046 C 969.799 1.77095 0.654434 0
M  V30 10047 O 969.156 1.11146 1.44751 0
M  V30 10048 C 969.207 3.42108 -1.16808 0
M  V30 10049 O 968.928 3.55788 -2.55629 0
M  V30 10050 C 970.429 4.33466 -0.92855 0
M  V30 10051 H 967.649 0.606508 -0.287035 0
M  V30 10052 H 970.193 1.48225 -1.40888 0
M  V30 10053 H 968.348 3.82814 -0.59434 0
M  V30 10054 H 968.762 4.49321 -2.70575 0
M  V30 10055 H 970.236 5.37836 -1.24245 0
M  V30 10056 H 970.713 4.38989 0.136016 0
M  V30 10057 H 971.319 3.98481 -1.48638 0
M  V30 10058 N 969.634 0.838594 1.33437 0
M  V30 10059 C 970.566 0.229006 2.28053 0
M  V30 10060 C 971.579 -0.590103 1.51729 0
M  V30 10061 O 972.768 -0.417218 1.73556 0
M  V30 10062 C 969.868 -0.696251 3.31671 0
M  V30 10063 C 969.041 0.0834606 4.3732 0
M  V30 10064 C 968.1 -0.765097 5.20608 0
M  V30 10065 O 967.126 -0.2044 5.68833 0
M  V30 10066 N 968.328 -2.08249 5.4186 0
M  V30 10067 H 971.093 1.04196 2.81004 0
M  V30 10068 H 968.654 0.697031 1.46127 0
M  V30 10069 H 970.646 -1.26889 3.84293 0
M  V30 10070 H 969.216 -1.40992 2.78998 0
M  V30 10071 H 968.436 0.837481 3.85201 0
M  V30 10072 H 969.724 0.619613 5.05013 0
M  V30 10073 H 969.122 -2.56156 5.04381 0
M  V30 10074 H 967.679 -2.60362 5.97541 0
M  V30 10075 N 971.112 -1.45937 0.595003 0
M  V30 10076 C 972.062 -2.27491 -0.152331 0
M  V30 10077 C 973.046 -1.36591 -0.850396 0
M  V30 10078 O 974.238 -1.60675 -0.742462 0
M  V30 10079 C 971.367 -3.23203 -1.15735 0
M  V30 10080 C 970.453 -4.2159 -0.46077 0
M  V30 10081 N 970.844 -5.03416 0.490555 0
M  V30 10082 C 969.142 -4.40313 -0.709949 0
M  V30 10083 C 969.843 -5.74714 0.898825 0
M  V30 10084 N 968.819 -5.43046 0.24529 0
M  V30 10085 H 972.621 -2.8815 0.578526 0
M  V30 10086 H 970.135 -1.56936 0.417716 0
M  V30 10087 H 972.132 -3.8035 -1.70704 0
M  V30 10088 H 970.792 -2.64104 -1.8889 0
M  V30 10089 H 971.803 -5.10597 0.866692 0
M  V30 10090 H 968.48 -3.92351 -1.42713 0
M  V30 10091 H 969.87 -6.50487 1.68273 0
M  V30 10092 N 972.59 -0.333456 -1.54032 0
M  V30 10093 C 973.523 0.570776 -2.20947 0
M  V30 10094 C 974.501 1.10811 -1.18994 0
M  V30 10095 O 975.685 1.17027 -1.47773 0
M  V30 10096 C 972.812 1.7842 -2.87896 0
M  V30 10097 C 971.858 1.37722 -4.03652 0
M  V30 10098 S 972.691 0.405548 -5.33962 0
M  V30 10099 C 973.847 1.62603 -6.0441 0
M  V30 10100 H 974.08 0.0023936 -2.973 0
M  V30 10101 H 971.613 -0.117531 -1.53952 0
M  V30 10102 H 973.571 2.48038 -3.27089 0
M  V30 10103 H 972.232 2.32378 -2.11327 0
M  V30 10104 H 971.425 2.28167 -4.49395 0
M  V30 10105 H 971.027 0.760628 -3.66184 0
M  V30 10106 H 973.319 2.56202 -6.2719 0
M  V30 10107 H 974.262 1.21058 -6.97675 0
M  V30 10108 H 974.67 1.8175 -5.34441 0
M  V30 10109 N 974.068 1.57479 -0.061844 0
M  V30 10110 C 975.315 1.93108 0.60954 0
M  V30 10111 C 975.643 0.941086 1.70217 0
M  V30 10112 O 974.898 -0.044914 1.95648 0
M  V30 10113 C 975.197 3.35394 1.23474 0
M  V30 10114 C 974.863 4.50095 0.269247 0
M  V30 10115 C 973.525 4.812 0.00360316 0
M  V30 10116 C 975.877 5.19725 -0.391839 0
M  V30 10117 C 973.205 5.79276 -0.930383 0
M  V30 10118 C 975.557 6.18801 -1.31408 0
M  V30 10119 C 974.221 6.48328 -1.58829 0
M  V30 10120 H 973.491 0.706634 0.223046 0
M  V30 10121 H 976.138 1.91054 -0.1306 0
M  V30 10122 H 974.443 3.33866 2.05039 0
M  V30 10123 H 976.14 3.60247 1.76134 0
M  V30 10124 H 972.73 4.2583 0.486477 0
M  V30 10125 H 976.914 4.95898 -0.199713 0
M  V30 10126 H 972.17 6.00484 -1.15019 0
M  V30 10127 H 976.344 6.71862 -1.83234 0
M  V30 10128 H 973.971 7.24137 -2.31363 0
M  V30 10129 N 975.546 -0.211634 1.56173 0
M  V30 10130 C 976.456 -1.2831 1.96402 0
M  V30 10131 C 977.472 -1.50731 0.869254 0
M  V30 10132 O 978.648 -1.63669 1.17365 0
M  V30 10133 C 975.713 -2.61084 2.28114 0
M  V30 10134 C 974.774 -2.46879 3.51211 0
M  V30 10135 C 974.007 -3.73321 3.81401 0
M  V30 10136 O 974.23 -4.76773 3.13119 0
M  V30 10137 O 973.164 -3.69839 4.74871 0
M  V30 10138 H 976.99 -0.971733 2.87734 0
M  V30 10139 H 974.575 -0.415305 1.43512 0
M  V30 10140 H 976.457 -3.39481 2.49661 0
M  V30 10141 H 975.132 -2.91881 1.39954 0
M  V30 10142 H 974.039 -1.66648 3.34932 0
M  V30 10143 H 975.372 -2.21018 4.39786 0
M  V30 10144 N 977.024 -1.50153 -0.478725 0
M  V30 10145 C 978.301 -1.51274 -1.23999 0
M  V30 10146 C 978.681 -0.253048 -2.09578 0
M  V30 10147 O 978.029 0.763827 -2.15355 0
M  V30 10148 C 978.239 -2.80423 -2.07759 0
M  V30 10149 C 979.587 -3.30788 -2.66204 0
M  V30 10150 O 980.611 -2.81693 -2.18008 0
M  V30 10151 O 979.47 -4.1635 -3.53999 0
M  V30 10152 H 976.564 -0.606438 -0.562283 0
M  V30 10153 H 979.11 -1.62436 -0.491171 0
M  V30 10154 H 977.882 -3.63584 -1.44645 0
M  V30 10155 H 977.505 -2.72228 -2.89789 0
M  V30 10156 N 978.502 0.731368 -1.39602 0
M  V30 10157 C 979.779 1.48308 -1.27531 0
M  V30 10158 C 980.159 2.10795 0.113482 0
M  V30 10159 O 979.507 1.98886 1.12501 0
M  V30 10160 C 979.717 2.53156 -2.40235 0
M  V30 10161 C 981.065 3.19436 -2.79725 0
M  V30 10162 O 982.089 2.6347 -2.39712 0
M  V30 10163 O 980.948 4.20714 -3.48801 0
M  V30 10164 H 978.042 0.658753 -0.499973 0
M  V30 10165 H 980.588 0.764884 -1.51485 0
M  V30 10166 H 979.36 2.05387 -3.33064 0
M  V30 10167 H 978.983 3.3253 -2.17966 0
M  V30 10168 N 979.98 1.24838 0.961938 0
M  V30 10169 C 981.391 1.08369 1.5203 0
M  V30 10170 C 981.742 -0.343005 1.93178 0
M  V30 10171 O 980.867 -1.2321 1.779 0
M  V30 10172 C 981.462 1.96102 2.76278 0
M  V30 10173 C 980.021 1.8384 3.28451 0
M  V30 10174 C 979.168 1.9069 2.01327 0
M  V30 10175 H 982.119 1.38231 0.779613 0
M  V30 10176 H 982.14 1.4967 3.49827 0
M  V30 10177 H 981.652 2.99931 2.46298 0
M  V30 10178 H 979.753 0.828653 3.63269 0
M  V30 10179 H 979.866 2.68251 3.96961 0
M  V30 10180 H 978.23 1.34488 2.16299 0
M  V30 10181 H 979.013 2.96111 1.73705 0
M  V30 10182 N 981.458 -1.16348 1.06306 0
M  V30 10183 C 982.683 -1.91323 0.800636 0
M  V30 10184 C 983.108 -1.7691 -0.639105 0
M  V30 10185 O 982.466 -1.0945 -1.44535 0
M  V30 10186 C 982.514 -3.40038 1.20027 0
M  V30 10187 O 981.618 -4.11003 0.339142 0
M  V30 10188 H 980.959 -0.596057 0.292595 0
M  V30 10189 H 983.489 -1.47406 1.41889 0
M  V30 10190 H 983.499 -3.90808 1.17188 0
M  V30 10191 H 982.174 -3.49848 2.24898 0
M  V30 10192 H 980.751 -3.70423 0.42911 0
M  V30 10193 N 982.937 -0.845659 -1.3299 0
M  V30 10194 C 984.183 -0.445311 -1.9785 0
M  V30 10195 C 984.516 0.994476 -1.66805 0
M  V30 10196 O 983.791 1.69636 -0.95151 0
M  V30 10197 C 984.074 -0.674371 -3.53729 0
M  V30 10198 C 983.927 -2.16192 -3.94437 0
M  V30 10199 C 985.246 -0.124908 -4.39923 0
M  V30 10200 H 982.365 -0.163269 -0.718688 0
M  V30 10201 H 985.007 -1.06242 -1.5752 0
M  V30 10202 H 983.157 -0.149091 -3.88214 0
M  V30 10203 H 984.829 -2.75259 -3.70176 0
M  V30 10204 H 983.072 -2.64386 -3.43922 0
M  V30 10205 H 983.743 -2.27292 -5.03033 0
M  V30 10206 H 986.219 -0.573986 -4.12122 0
M  V30 10207 H 985.095 -0.314816 -5.47996 0
M  V30 10208 H 985.356 0.971758 -4.31288 0
M  V30 10209 N 984.415 1.45619 -0.602734 0
M  V30 10210 C 985.345 2.33258 0.106342 0
M  V30 10211 C 986.326 1.46543 0.863664 0
M  V30 10212 O 987.511 1.75324 0.835175 0
M  V30 10213 C 984.641 3.29168 1.10751 0
M  V30 10214 C 983.595 4.25481 0.463717 0
M  V30 10215 C 982.921 5.11046 1.57278 0
M  V30 10216 C 984.221 5.18702 -0.61199 0
M  V30 10217 H 985.915 2.92795 -0.625423 0
M  V30 10218 H 983.461 1.40793 -0.302213 0
M  V30 10219 H 985.414 3.89346 1.61208 0
M  V30 10220 H 984.138 2.6778 1.8698 0
M  V30 10221 H 982.797 3.66595 -0.0199496 0
M  V30 10222 H 982.445 4.46029 2.32524 0
M  V30 10223 H 982.145 5.76286 1.14755 0
M  V30 10224 H 983.669 5.74091 2.07972 0
M  V30 10225 H 985.083 5.72979 -0.191686 0
M  V30 10226 H 983.48 5.92393 -0.958686 0
M  V30 10227 H 984.55 4.61424 -1.4905 0
M  V30 10228 N 985.893 0.34162 1.53853 0
M  V30 10229 C 987.123 -0.256557 2.05001 0
M  V30 10230 C 987.531 -1.44916 1.21639 0
M  V30 10231 O 986.874 -1.8207 0.244138 0
M  V30 10232 C 986.936 -0.737109 3.51862 0
M  V30 10233 C 986.6 0.335584 4.55766 0
M  V30 10234 C 987.597 1.17765 5.06387 0
M  V30 10235 C 985.282 0.488958 4.99914 0
M  V30 10236 C 987.276 2.15865 5.99734 0
M  V30 10237 C 984.963 1.47336 5.93073 0
M  V30 10238 C 985.961 2.30666 6.4287 0
M  V30 10239 O 985.649 3.2743 7.34197 0
M  V30 10240 H 985.381 -0.0536867 0.673865 0
M  V30 10241 H 987.935 0.49123 1.99439 0
M  V30 10242 H 986.165 -1.53611 3.54881 0
M  V30 10243 H 987.854 -1.25562 3.85991 0
M  V30 10244 H 988.62 1.07023 4.73044 0
M  V30 10245 H 984.499 -0.149807 4.60757 0
M  V30 10246 H 988.043 2.80945 6.38526 0
M  V30 10247 H 983.94 1.58134 6.25831 0
M  V30 10248 H 984.708 3.22879 7.52125 0
M  V30 10249 N 987.371 -1.57444 0.0701946 0
M  V30 10250 C 988.617 -1.93716 -0.600178 0
M  V30 10251 C 988.95 -0.950329 -1.69359 0
M  V30 10252 O 988.225 0.0207123 -1.94489 0
M  V30 10253 C 988.508 -3.40266 -1.17861 0
M  V30 10254 C 988.361 -4.49706 -0.0919575 0
M  V30 10255 C 989.68 -3.87599 -2.08459 0
M  V30 10256 H 986.799 -0.704421 -0.216704 0
M  V30 10257 H 989.441 -1.89514 0.135838 0
M  V30 10258 H 987.591 -3.43977 -1.80587 0
M  V30 10259 H 989.263 -4.58116 0.541031 0
M  V30 10260 H 987.506 -4.29937 0.577639 0
M  V30 10261 H 988.177 -5.49381 -0.537048 0
M  V30 10262 H 990.653 -3.85883 -1.5567 0
M  V30 10263 H 989.529 -4.90755 -2.45867 0
M  V30 10264 H 989.79 -3.25448 -2.99226 0
M  V30 10265 N 988.849 0.203349 -1.56283 0
M  V30 10266 C 990.074 0.945548 -1.84592 0
M  V30 10267 C 990.499 1.7641 -0.652772 0
M  V30 10268 O 989.857 1.76867 0.398468 0
M  V30 10269 C 989.905 1.82416 -3.11057 0
M  V30 10270 O 989.009 2.92191 -2.9103 0
M  V30 10271 H 988.35 0.266739 -0.608068 0
M  V30 10272 H 990.88 0.211158 -2.03507 0
M  V30 10273 H 990.89 2.23044 -3.41636 0
M  V30 10274 H 989.565 1.22267 -3.97522 0
M  V30 10275 H 988.142 2.55378 -2.71728 0
M  V30 10276 N 990.327 1.50405 0.470755 0
M  V30 10277 C 991.257 1.72222 1.57676 0
M  V30 10278 C 992.238 0.57121 1.60222 0
M  V30 10279 O 993.423 0.810381 1.76484 0
M  V30 10280 C 990.553 1.81666 2.95998 0
M  V30 10281 C 989.507 2.96857 3.08318 0
M  V30 10282 C 988.833 2.91445 4.4829 0
M  V30 10283 C 990.133 4.37361 2.85504 0
M  V30 10284 H 991.827 2.64825 1.39671 0
M  V30 10285 H 989.373 1.27438 0.67049 0
M  V30 10286 H 991.326 1.95514 3.73299 0
M  V30 10287 H 990.05 0.856856 3.1516 0
M  V30 10288 H 988.709 2.82661 2.33449 0
M  V30 10289 H 988.357 1.93309 4.64371 0
M  V30 10290 H 988.057 3.68776 4.57469 0
M  V30 10291 H 989.581 3.07341 5.27611 0
M  V30 10292 H 990.995 4.52081 3.52555 0
M  V30 10293 H 989.392 5.16145 3.06127 0
M  V30 10294 H 990.462 4.49708 1.81359 0
M  V30 10295 N 991.805 -0.723954 1.39988 0
M  V30 10296 C 992.755 -1.82943 1.36073 0
M  V30 10297 C 993.739 -1.59105 0.239682 0
M  V30 10298 O 994.931 -1.7042 0.478116 0
M  V30 10299 C 992.06 -3.20988 1.21745 0
M  V30 10300 C 991.146 -3.50618 2.38596 0
M  V30 10301 N 991.537 -3.51115 3.64077 0
M  V30 10302 C 989.835 -3.81035 2.31794 0
M  V30 10303 C 990.536 -3.78852 4.41413 0
M  V30 10304 N 989.512 -3.97182 3.71143 0
M  V30 10305 H 993.314 -1.81649 2.31043 0
M  V30 10306 H 990.828 -0.922703 1.33641 0
M  V30 10307 H 992.825 -4.00139 1.17022 0
M  V30 10308 H 991.485 -3.23513 0.277344 0
M  V30 10309 H 992.496 -3.32163 3.97351 0
M  V30 10310 H 989.173 -3.911 1.46105 0
M  V30 10311 H 990.563 -3.85612 5.5023 0
M  V30 10312 N 993.283 -1.25346 -0.955304 0
M  V30 10313 C 994.699 -1.02154 -1.22625 0
M  V30 10314 C 994.899 0.26206 -1.99789 0
M  V30 10315 O 993.955 0.974958 -2.32918 0
M  V30 10316 C 995.268 -2.2443 -2.00129 0
M  V30 10317 C 996.816 -2.29185 -2.13174 0
M  V30 10318 C 997.291 -3.51117 -2.94077 0
M  V30 10319 N 998.782 -3.51509 -3.01655 0
M  V30 10320 C 999.517 -4.42517 -3.64645 0
M  V30 10321 N 999.013 -5.43796 -4.29252 0
M  V30 10322 N 1000.81 -4.302 -3.61779 0
M  V30 10323 H 992.957 -2.07812 -0.439071 0
M  V30 10324 H 995.22 -0.91258 -0.256715 0
M  V30 10325 H 994.926 -3.17717 -1.50827 0
M  V30 10326 H 994.8 -2.27548 -3.00835 0
M  V30 10327 H 997.187 -1.36422 -2.61674 0
M  V30 10328 H 997.268 -2.30087 -1.11775 0
M  V30 10329 H 996.912 -4.44201 -2.46268 0
M  V30 10330 H 996.842 -3.4746 -3.95701 0
M  V30 10331 H 999.333 -2.78245 -2.55711 0
M  V30 10332 H 999.646 -6.09453 -4.75171 0
M  V30 10333 H 997.991 -5.4767 -4.27882 0
M  V30 10334 H 1001.18 -3.50304 -3.10491 0
M  V30 10335 H 1001.36 -5.01323 -4.10584 0
M  V30 10336 N 994.761 1.15782 -1.06922 0
M  V30 10337 C 995.991 1.90079 -0.809545 0
M  V30 10338 C 996.399 1.78028 0.640523 0
M  V30 10339 O 995.742 1.12692 1.45073 0
M  V30 10340 C 995.804 3.41179 -1.13302 0
M  V30 10341 C 995.468 3.77015 -2.5828 0
M  V30 10342 C 996.465 3.78403 -3.56521 0
M  V30 10343 C 994.15 4.07455 -2.93745 0
M  V30 10344 C 996.144 4.09729 -4.88264 0
M  V30 10345 C 993.831 4.38446 -4.25686 0
M  V30 10346 C 994.829 4.39564 -5.22755 0
M  V30 10347 O 994.517 4.69814 -6.52326 0
M  V30 10348 H 994.249 0.609397 -0.292595 0
M  V30 10349 H 996.803 1.47654 -1.42784 0
M  V30 10350 H 995.033 3.83982 -0.457676 0
M  V30 10351 H 996.722 3.96759 -0.856586 0
M  V30 10352 H 997.488 3.54991 -3.30464 0
M  V30 10353 H 993.367 4.05746 -2.1884 0
M  V30 10354 H 996.911 4.10516 -5.64023 0
M  V30 10355 H 992.808 4.61325 -4.51497 0
M  V30 10356 H 993.576 4.87598 -6.57412 0
M  V30 10357 N 996.239 0.8527 1.3254 0
M  V30 10358 C 997.516 0.376491 1.91942 0
M  V30 10359 C 997.896 -1.13972 1.7769 0
M  V30 10360 O 997.244 -1.96047 1.17379 0
M  V30 10361 C 997.454 0.838694 3.38773 0
M  V30 10362 C 998.802 0.854736 4.15908 0
M  V30 10363 O 999.826 0.783203 3.47483 0
M  V30 10364 O 998.685 0.955207 5.38087 0
M  V30 10365 H 995.779 0.109412 0.81973 0
M  V30 10366 H 998.325 0.93947 1.41322 0
M  V30 10367 H 997.097 1.88179 3.43081 0
M  V30 10368 H 996.72 0.253055 3.96794 0
M  V30 10369 N 997.718 -1.45297 0.610449 0
M  V30 10370 C 998.668 -2.27639 -0.128194 0
M  V30 10371 C 999.652 -1.37485 -0.835861 0
M  V30 10372 O 1000.84 -1.61454 -0.725378 0
M  V30 10373 C 997.973 -3.24413 -1.123 0
M  V30 10374 C 997.059 -4.22055 -0.416029 0
M  V30 10375 N 997.45 -5.02867 0.543921 0
M  V30 10376 C 995.748 -4.41041 -0.663208 0
M  V30 10377 C 996.449 -5.73728 0.959731 0
M  V30 10378 N 995.425 -5.42756 0.302873 0
M  V30 10379 H 999.227 -2.8752 0.609056 0
M  V30 10380 H 996.741 -1.56484 0.434338 0
M  V30 10381 H 998.738 -3.82139 -1.6666 0
M  V30 10382 H 997.398 -2.66092 -1.86078 0
M  V30 10383 H 998.409 -5.09649 0.920799 0
M  V30 10384 H 995.086 -3.93842 -1.38544 0
M  V30 10385 H 996.476 -6.48666 1.75163 0
M  V30 10386 N 999.196 -0.349774 -1.5367 0
M  V30 10387 C 1000.44 0.244343 -2.00617 0
M  V30 10388 C 1000.76 1.50567 -1.23914 0
M  V30 10389 O 1000.03 1.92784 -0.348016 0
M  V30 10390 H 998.615 0.0932792 -0.741153 0
M  V30 10391 H 1001.28 -0.472367 -1.89089 0
M  V30 10392 H 1000.37 0.482433 -3.08349 0
M  V30 10393 N 1000.67 1.57404 -0.0785433 0
M  V30 10394 C 1001.9 1.98074 0.597862 0
M  V30 10395 C 1002.32 0.95714 1.6274 0
M  V30 10396 O 1001.67 -0.0553728 1.82416 0
M  V30 10397 C 1001.72 3.38815 1.26041 0
M  V30 10398 O 1001.45 4.37254 0.27207 0
M  V30 10399 C 1002.95 3.94397 2.024 0
M  V30 10400 H 1000.17 0.651263 0.161546 0
M  V30 10401 H 1002.71 2.03927 -0.152941 0
M  V30 10402 H 1000.87 3.34028 1.96225 0
M  V30 10403 H 1001.28 5.19136 0.74822 0
M  V30 10404 H 1002.75 4.95075 2.4414 0
M  V30 10405 H 1003.23 3.31308 2.88326 0
M  V30 10406 H 1003.84 4.02607 1.37068 0
M  V30 10407 N 1002.15 -0.195058 1.56388 0
M  V30 10408 C 1003.4 -0.915444 1.80626 0
M  V30 10409 C 1003.73 -1.83255 0.651768 0
M  V30 10410 O 1002.98 -1.92314 -0.362464 0
M  V30 10411 C 1003.28 -1.7637 3.10851 0
M  V30 10412 C 1002.95 -0.997572 4.39726 0
M  V30 10413 C 1001.61 -0.786043 4.74737 0
M  V30 10414 C 1003.96 -0.45851 5.19179 0
M  V30 10415 C 1001.29 -0.023972 5.86695 0
M  V30 10416 C 1003.64 0.29035 6.31933 0
M  V30 10417 C 1002.3 0.512895 6.65527 0
M  V30 10418 H 1001.57 -0.334985 0.660959 0
M  V30 10419 H 1004.22 -0.181815 1.90635 0
M  V30 10420 H 1002.53 -2.566 2.9608 0
M  V30 10421 H 1004.22 -2.3237 3.26811 0
M  V30 10422 H 1000.81 -1.17245 4.12252 0
M  V30 10423 H 1005 -0.609334 4.92545 0
M  V30 10424 H 1000.25 0.158421 6.11195 0
M  V30 10425 H 1004.43 0.715429 6.92715 0
M  V30 10426 H 1002.05 1.10531 7.52122 0
M  V30 10427 N 1003.63 -1.50653 -0.462772 0
M  V30 10428 C 1004.88 -1.62057 -1.21424 0
M  V30 10429 C 1005.2 -0.324778 -1.91769 0
M  V30 10430 O 1004.46 0.689828 -1.83139 0
M  V30 10431 C 1004.76 -2.75637 -2.27507 0
M  V30 10432 C 1004.42 -4.15826 -1.74354 0
M  V30 10433 C 1003.09 -4.53969 -1.5958 0
M  V30 10434 C 1005.44 -5.03409 -1.35012 0
M  V30 10435 C 1002.77 -5.77427 -1.03899 0
M  V30 10436 C 1005.12 -6.27422 -0.807704 0
M  V30 10437 C 1003.78 -6.6436 -0.646657 0
M  V30 10438 H 1003.05 -0.59301 -0.44432 0
M  V30 10439 H 1005.7 -1.84612 -0.508999 0
M  V30 10440 H 1004 -2.47203 -3.0397 0
M  V30 10441 H 1005.7 -2.81663 -2.85424 0
M  V30 10442 H 1002.29 -3.85739 -1.86823 0
M  V30 10443 H 1006.48 -4.74567 -1.45258 0
M  V30 10444 H 1001.73 -6.04713 -0.901751 0
M  V30 10445 H 1005.91 -6.94644 -0.494234 0
M  V30 10446 H 1003.53 -7.59901 -0.213053 0
M  V30 10447 N 1005.11 0.71652 -1.4037 0
M  V30 10448 C 1006.52 1.29562 -1.34427 0
M  V30 10449 C 1006.87 1.96192 -0.0173106 0
M  V30 10450 O 1006 1.97488 0.884719 0
M  V30 10451 C 1006.59 2.35601 -2.4347 0
M  V30 10452 C 1005.15 2.89138 -2.4099 0
M  V30 10453 C 1004.3 1.62915 -2.24397 0
M  V30 10454 H 1007.25 0.512715 -1.5019 0
M  V30 10455 H 1007.27 3.16422 -2.11323 0
M  V30 10456 H 1006.78 1.87077 -3.40035 0
M  V30 10457 H 1004.88 3.41894 -1.4812 0
M  V30 10458 H 1004.99 3.40995 -3.3654 0
M  V30 10459 H 1003.36 1.87947 -1.71896 0
M  V30 10460 H 1004.14 1.16417 -3.22958 0
M  V30 10461 N 1006.59 1.25851 0.948643 0
M  V30 10462 C 1007.52 1.0108 2.04593 0
M  V30 10463 C 1008.5 -0.0619691 1.62482 0
M  V30 10464 O 1009.68 0.0789196 1.88335 0
M  V30 10465 C 1006.81 0.529174 3.34541 0
M  V30 10466 C 1005.85 1.59337 3.95618 0
M  V30 10467 S 1006.69 3.18026 4.30836 0
M  V30 10468 C 1007.84 2.71613 5.63895 0
M  V30 10469 H 1008.08 1.93988 2.2529 0
M  V30 10470 H 1005.61 1.09448 1.08906 0
M  V30 10471 H 1007.57 0.25795 4.09689 0
M  V30 10472 H 1006.23 -0.37951 3.11799 0
M  V30 10473 H 1005.42 1.20722 4.89328 0
M  V30 10474 H 1005.02 1.81559 3.26975 0
M  V30 10475 H 1007.32 2.15612 6.42275 0
M  V30 10476 H 1008.26 3.63986 6.07387 0
M  V30 10477 H 1008.67 2.11417 5.23415 0
M  V30 10478 N 1008.06 -1.15214 1.07534 0
M  V30 10479 C 1009.31 -1.85676 0.79805 0
M  V30 10480 C 1009.63 -1.82837 -0.677919 0
M  V30 10481 O 1008.9 -1.27059 -1.49107 0
M  V30 10482 H 1007.48 -0.687468 0.292227 0
M  V30 10483 H 1010.15 -1.39658 1.35947 0
M  V30 10484 H 1009.24 -2.9076 1.13423 0
M  V30 10485 N 1009.54 -0.859717 -1.32086 0
M  V30 10486 C 1010.82 -0.386665 -1.9174 0
M  V30 10487 C 1011.2 1.13028 -1.78292 0
M  V30 10488 O 1010.55 1.95422 -1.18417 0
M  V30 10489 C 1010.76 -0.856648 -3.38323 0
M  V30 10490 C 1012.11 -0.87678 -4.15449 0
M  V30 10491 O 1013.13 -0.80162 -3.47063 0
M  V30 10492 O 1011.99 -0.98373 -5.37573 0
M  V30 10493 H 1009.08 -0.113758 -0.819139 0
M  V30 10494 H 1011.63 -0.946952 -1.40822 0
M  V30 10495 H 1010.4 -1.89996 -3.42078 0
M  V30 10496 H 1010.02 -0.274095 -3.96654 0
M  V30 10497 N 1011.02 1.44971 -0.618145 0
M  V30 10498 C 1011.93 2.34403 0.0960457 0
M  V30 10499 C 1012.95 1.51862 0.849355 0
M  V30 10500 O 1014.12 1.84632 0.804557 0
M  V30 10501 C 1011.19 3.29646 1.07397 0
M  V30 10502 C 1010.25 4.28095 0.321466 0
M  V30 10503 C 1009.48 5.18787 1.25281 0
M  V30 10504 O 1009.7 5.1313 2.49106 0
M  V30 10505 O 1008.64 5.97282 0.744156 0
M  V30 10506 H 1012.46 2.96898 -0.639176 0
M  V30 10507 H 1010.05 1.44529 -0.37837 0
M  V30 10508 H 1011.93 3.88307 1.63694 0
M  V30 10509 H 1010.61 2.69702 1.79004 0
M  V30 10510 H 1009.51 3.73019 -0.284223 0
M  V30 10511 H 1010.85 4.90923 -0.354315 0
M  V30 10512 N 1012.5 0.357919 1.53482 0
M  V30 10513 C 1013.75 -0.2337 2.00744 0
M  V30 10514 C 1014.07 -1.49908 1.2471 0
M  V30 10515 O 1013.34 -1.92597 0.358235 0
M  V30 10516 H 1011.92 -0.0893474 0.741637 0
M  V30 10517 H 1014.58 0.482388 1.88836 0
M  V30 10518 H 1013.68 -0.466073 3.086 0
M  V30 10519 N 1013.98 -1.5736 0.0868897 0
M  V30 10520 C 1014.94 -2.12436 -0.860439 0
M  V30 10521 C 1015.94 -1.05175 -1.21634 0
M  V30 10522 O 1017.13 -1.31098 -1.14713 0
M  V30 10523 C 1014.26 -2.63818 -2.159 0
M  V30 10524 H 1015.45 -2.97453 -0.382346 0
M  V30 10525 H 1013.01 -1.55458 -0.162009 0
M  V30 10526 H 1013.74 -1.82298 -2.68212 0
M  V30 10527 H 1013.53 -3.42234 -1.91359 0
M  V30 10528 H 1015.02 -3.06452 -2.83685 0
M  V30 10529 N 1015.45 0.186762 -1.56489 0
M  V30 10530 C 1016.68 0.925916 -1.85584 0
M  V30 10531 C 1017.1 1.75708 -0.671446 0
M  V30 10532 O 1016.46 1.7728 0.379687 0
M  V30 10533 C 1016.51 1.79107 -3.12975 0
M  V30 10534 O 1015.61 2.89088 -2.94112 0
M  V30 10535 H 1014.96 0.260275 -0.610863 0
M  V30 10536 H 1017.49 0.189561 -2.0372 0
M  V30 10537 H 1017.5 2.19408 -3.43983 0
M  V30 10538 H 1016.17 1.18044 -3.98796 0
M  V30 10539 H 1014.75 2.52482 -2.74422 0
M  V30 10540 N 1016.93 1.50896 0.454776 0
M  V30 10541 C 1018.16 1.66759 1.23313 0
M  V30 10542 C 1018.58 0.35722 1.84677 0
M  V30 10543 O 1017.94 -0.680771 1.68033 0
M  V30 10544 C 1017.99 2.77254 2.3057 0
M  V30 10545 O 1017.09 2.39642 3.35627 0
M  V30 10546 H 1016.43 0.556599 0.362068 0
M  V30 10547 H 1018.96 1.97365 0.539274 0
M  V30 10548 H 1018.97 3.0082 2.75629 0
M  V30 10549 H 1017.65 3.72349 1.85281 0
M  V30 10550 H 1016.23 2.26584 2.96165 0
M  V30 10551 N 1018.41 -0.709066 1.40748 0
M  V30 10552 C 1019.34 -1.83412 1.37451 0
M  V30 10553 C 1020.36 -1.60394 0.27884 0
M  V30 10554 O 1021.54 -1.70147 0.539642 0
M  V30 10555 C 1018.64 -3.19935 1.1178 0
M  V30 10556 C 1017.82 -3.70095 2.33128 0
M  V30 10557 C 1016.88 -4.85249 2.03518 0
M  V30 10558 O 1015.9 -4.97563 2.76442 0
M  V30 10559 N 1017.1 -5.7152 1.01714 0
M  V30 10560 H 1019.87 -1.86736 2.34414 0
M  V30 10561 H 1017.43 -0.890863 1.35186 0
M  V30 10562 H 1019.42 -3.94578 0.899464 0
M  V30 10563 H 1017.99 -3.11718 0.234624 0
M  V30 10564 H 1017.21 -2.8651 2.70751 0
M  V30 10565 H 1018.5 -4.00344 3.1401 0
M  V30 10566 H 1017.9 -5.64188 0.413307 0
M  V30 10567 H 1016.46 -6.46119 0.858696 0
M  V30 10568 N 1019.89 -1.26353 -0.941956 0
M  V30 10569 C 1021.14 -1.11241 -1.68251 0
M  V30 10570 C 1021.45 0.344055 -1.9255 0
M  V30 10571 O 1022.66 0.615832 -2.64423 0
M  V30 10572 C 1021.11 -1.94269 -3.02965 0
M  V30 10573 C 1020.72 -3.44485 -2.86415 0
M  V30 10574 C 1022.47 -1.87764 -3.80716 0
M  V30 10575 C 1020.37 -4.19763 -4.16597 0
M  V30 10576 H 1019.3 -0.412694 -0.63103 0
M  V30 10577 H 1021.95 -1.50656 -1.04762 0
M  V30 10578 H 1020.34 -1.47687 -3.6743 0
M  V30 10579 H 1021.51 -3.9883 -2.30805 0
M  V30 10580 H 1019.82 -3.52218 -2.22107 0
M  V30 10581 H 1022.42 -2.41292 -4.77161 0
M  V30 10582 H 1022.76 -0.848195 -4.07568 0
M  V30 10583 H 1023.3 -2.32165 -3.23024 0
M  V30 10584 H 1020.04 -5.23173 -3.9493 0
M  V30 10585 H 1019.56 -3.70198 -4.71925 0
M  V30 10586 H 1021.24 -4.28168 -4.85058 0
M  V30 10587 N 1021.37 1.14642 -1.08144 0
M  V30 10588 C 1022.62 1.8525 -0.807885 0
M  V30 10589 C 1022.94 1.83194 0.668213 0
M  V30 10590 O 1022.21 1.27848 1.48431 0
M  V30 10591 H 1020.79 0.685909 -0.295868 0
M  V30 10592 H 1023.45 1.38935 -1.36686 0
M  V30 10593 H 1022.54 2.90155 -1.14964 0
M  V30 10594 N 1022.85 0.866709 1.31628 0
M  V30 10595 C 1024.26 0.558188 1.49521 0
M  V30 10596 C 1024.46 -0.90844 1.7986 0
M  V30 10597 O 1023.52 -1.6908 1.87531 0
M  V30 10598 C 1024.83 1.45559 2.63122 0
M  V30 10599 C 1026.38 1.45728 2.77006 0
M  V30 10600 C 1026.85 2.34017 3.937 0
M  V30 10601 N 1028.34 2.31879 4.00982 0
M  V30 10602 C 1029.08 2.96915 4.90539 0
M  V30 10603 N 1028.58 3.71109 5.85021 0
M  V30 10604 N 1030.37 2.86241 4.83759 0
M  V30 10605 H 1022.52 1.81574 1.10203 0
M  V30 10606 H 1024.78 0.77621 0.544244 0
M  V30 10607 H 1024.49 2.49904 2.47469 0
M  V30 10608 H 1024.36 1.15174 3.59186 0
M  V30 10609 H 1026.75 0.421419 2.92075 0
M  V30 10610 H 1026.83 1.80134 1.81619 0
M  V30 10611 H 1026.47 3.37678 3.79389 0
M  V30 10612 H 1026.4 1.96937 4.88388 0
M  V30 10613 H 1028.9 1.77948 3.33381 0
M  V30 10614 H 1029.21 4.1787 6.5008 0
M  V30 10615 H 1027.55 3.75217 5.8501 0
M  V30 10616 H 1030.74 2.27819 4.08921 0
M  V30 10617 H 1030.92 3.37206 5.5335 0
M  V30 10618 N 1024.32 -1.44642 0.625825 0
M  V30 10619 C 1025.29 -2.29085 -0.072526 0
M  V30 10620 C 1026.29 -1.40755 -0.777467 0
M  V30 10621 O 1027.48 -1.62684 -0.622861 0
M  V30 10622 C 1024.61 -3.22212 -1.1132 0
M  V30 10623 H 1025.8 -2.92317 0.670124 0
M  V30 10624 H 1023.35 -1.51466 0.38571 0
M  V30 10625 H 1024.09 -2.63819 -1.88601 0
M  V30 10626 H 1023.87 -3.87299 -0.611709 0
M  V30 10627 H 1025.36 -3.8566 -1.60175 0
M  V30 10628 N 1025.8 -0.366053 -1.5329 0
M  V30 10629 C 1026.76 0.467904 -2.24373 0
M  V30 10630 C 1027.76 1.00934 -1.25176 0
M  V30 10631 O 1028.95 0.895015 -1.49449 0
M  V30 10632 C 1026.09 1.65405 -2.98084 0
M  V30 10633 H 1027.28 -0.154105 -2.99504 0
M  V30 10634 H 1024.83 -0.117751 -1.55856 0
M  V30 10635 H 1025.57 2.31413 -2.27197 0
M  V30 10636 H 1025.35 1.27277 -3.70868 0
M  V30 10637 H 1026.84 2.24503 -3.52119 0
M  V30 10638 N 1027.28 1.57312 -0.0952337 0
M  V30 10639 C 1028.53 1.93974 0.567319 0
M  V30 10640 C 1028.85 0.977805 1.68713 0
M  V30 10641 O 1028.12 0.0298944 1.95877 0
M  V30 10642 H 1026.7 0.71612 0.212558 0
M  V30 10643 H 1029.36 1.94254 -0.158598 0
M  V30 10644 H 1028.46 2.964 0.977423 0
M  V30 10645 N 1028.76 -0.17846 1.56586 0
M  V30 10646 C 1029.99 -0.911996 1.85715 0
M  V30 10647 C 1030.4 -1.76138 0.679766 0
M  V30 10648 O 1029.76 -1.79088 -0.351266 0
M  V30 10649 C 1029.81 -1.79459 3.1381 0
M  V30 10650 O 1029.53 -0.979476 4.2701 0
M  V30 10651 C 1031.03 -2.6384 3.56235 0
M  V30 10652 H 1028.25 -0.265299 0.616326 0
M  V30 10653 H 1030.79 -0.180704 2.037 0
M  V30 10654 H 1028.95 -2.4793 2.97673 0
M  V30 10655 H 1029.36 -1.58244 5.00059 0
M  V30 10656 H 1030.84 -3.21396 4.48786 0
M  V30 10657 H 1031.31 -3.38363 2.80013 0
M  V30 10658 H 1031.92 -2.00712 3.7496 0
M  V30 10659 N 1030.24 -1.51135 -0.446768 0
M  V30 10660 C 1031.48 -1.63013 -1.19461 0
M  V30 10661 C 1031.8 -0.344067 -1.91941 0
M  V30 10662 O 1031.07 0.639666 -1.85162 0
M  V30 10663 H 1029.65 -0.600757 -0.443959 0
M  V30 10664 H 1032.32 -1.88024 -0.513137 0
M  V30 10665 H 1031.41 -2.45322 -1.92933 0
M  V30 10666 N 1031.71 0.701592 -1.41122 0
M  V30 10667 C 1032.96 1.4616 -1.40155 0
M  V30 10668 C 1033.29 1.94498 -0.00861553 0
M  V30 10669 O 1032.54 1.69484 0.978452 0
M  V30 10670 C 1032.84 2.693 -2.34973 0
M  V30 10671 C 1032.51 2.39652 -3.81939 0
M  V30 10672 C 1031.17 2.31277 -4.21977 0
M  V30 10673 C 1033.52 2.15076 -4.74755 0
M  V30 10674 C 1030.85 1.96413 -5.52846 0
M  V30 10675 C 1033.2 1.81722 -6.05937 0
M  V30 10676 C 1031.87 1.71838 -6.45002 0
M  V30 10677 H 1031.14 0.534837 -0.512865 0
M  V30 10678 H 1033.78 0.802425 -1.73878 0
M  V30 10679 H 1032.09 3.40123 -1.94484 0
M  V30 10680 H 1033.79 3.27427 -2.31501 0
M  V30 10681 H 1030.38 2.47063 -3.50226 0
M  V30 10682 H 1034.56 2.20495 -4.4463 0
M  V30 10683 H 1029.82 1.87308 -5.82001 0
M  V30 10684 H 1033.99 1.61723 -6.77362 0
M  V30 10685 H 1031.62 1.44591 -7.46323 0
M  V30 10686 N 1033.19 1.2685 0.935242 0
M  V30 10687 C 1034.42 1.15538 1.71635 0
M  V30 10688 C 1034.83 -0.288698 1.8658 0
M  V30 10689 O 1034.19 -1.19721 1.37743 0
M  V30 10690 C 1034.24 1.8259 3.11999 0
M  V30 10691 O 1033.96 3.21355 2.97763 0
M  V30 10692 C 1035.46 1.77307 4.06297 0
M  V30 10693 H 1032.68 0.402055 0.537208 0
M  V30 10694 H 1035.23 1.67582 1.17203 0
M  V30 10695 H 1033.38 1.3447 3.63313 0
M  V30 10696 H 1033.8 3.54626 3.86446 0
M  V30 10697 H 1035.27 2.28851 5.02326 0
M  V30 10698 H 1035.75 0.740823 4.32907 0
M  V30 10699 H 1036.35 2.25007 3.60904 0
M  V30 10700 N 1034.67 -1.14067 1.0875 0
M  V30 10701 C 1035.92 -1.85459 0.82053 0
M  V30 10702 C 1036.25 -1.82923 -0.65213 0
M  V30 10703 O 1035.52 -1.26241 -1.47965 0
M  V30 10704 C 1035.81 -3.33937 1.34752 0
M  V30 10705 C 1035.66 -3.45026 2.88578 0
M  V30 10706 C 1036.98 -4.2915 0.975636 0
M  V30 10707 H 1034.1 -0.673384 0.299538 0
M  V30 10708 H 1036.74 -1.33927 1.34772 0
M  V30 10709 H 1034.89 -3.77953 0.899086 0
M  V30 10710 H 1036.56 -3.09771 3.41818 0
M  V30 10711 H 1034.81 -2.86124 3.26061 0
M  V30 10712 H 1035.48 -4.49408 3.20526 0
M  V30 10713 H 1037.95 -3.93168 1.36228 0
M  V30 10714 H 1036.83 -5.31489 1.37152 0
M  V30 10715 H 1037.09 -4.41945 -0.116956 0
M  V30 10716 N 1036.15 -0.873678 -1.31166 0
M  V30 10717 C 1037.1 -0.321349 -2.3037 0
M  V30 10718 C 1038.09 0.565568 -1.5968 0
M  V30 10719 O 1039.3 0.451257 -1.74252 0
M  V30 10720 H 1035.67 -0.0852425 -0.747153 0
M  V30 10721 H 1037.64 -1.17191 -2.74425 0
M  V30 10722 C 1036.39 0.459016 -3.44657 0
M  V30 10723 H 1035.71 -0.214185 -3.99226 0
M  V30 10724 H 1037.15 0.810758 -4.16176 0
M  V30 10725 C 1035.61 1.65173 -2.93632 0
M  V30 10726 O 1036.14 2.75105 -2.92711 0
M  V30 10727 N 1034.35 1.4851 -2.49786 0
M  V30 10728 H 1033.9 0.590785 -2.50734 0
M  V30 10729 H 1033.85 2.28452 -2.16002 0
M  V30 10730 N 1037.63 1.44308 -0.633487 0
M  V30 10731 C 1038.87 2.02322 -0.139123 0
M  V30 10732 C 1039.21 1.49733 1.23667 0
M  V30 10733 O 1038.48 0.682353 1.82138 0
M  V30 10734 C 1038.76 3.59871 -0.128366 0
M  V30 10735 C 1038.62 4.22737 -1.53667 0
M  V30 10736 C 1039.94 4.36702 0.545834 0
M  V30 10737 H 1037.05 0.735161 -0.0520293 0
M  V30 10738 H 1039.7 1.7185 -0.810411 0
M  V30 10739 H 1037.85 3.85963 0.443263 0
M  V30 10740 H 1039.52 4.07744 -2.15737 0
M  V30 10741 H 1037.76 3.80142 -2.08985 0
M  V30 10742 H 1038.43 5.31757 -1.48116 0
M  V30 10743 H 1040.91 4.16057 0.0596879 0
M  V30 10744 H 1039.78 5.46407 0.522557 0
M  V30 10745 H 1040.05 4.11483 1.6166 0
M  V30 10746 N 1039.1 0.374177 1.53094 0
M  V30 10747 C 1040.07 -0.455999 2.24618 0
M  V30 10748 C 1041.07 -1.00269 1.25709 0
M  V30 10749 O 1042.26 -0.887077 1.49922 0
M  V30 10750 C 1039.39 -1.63822 2.98957 0
M  V30 10751 H 1040.58 0.169986 2.99418 0
M  V30 10752 H 1038.14 0.126015 1.55791 0
M  V30 10753 H 1038.87 -2.30205 2.28421 0
M  V30 10754 H 1038.66 -1.25308 3.71538 0
M  V30 10755 H 1040.15 -2.22633 3.53305 0
M  V30 10756 N 1040.58 -1.57259 0.103575 0
M  V30 10757 C 1041.83 -1.95744 -0.552781 0
M  V30 10758 C 1042.18 -0.985175 -1.65264 0
M  V30 10759 O 1041.48 -0.0125763 -1.91596 0
M  V30 10760 C 1041.67 -3.38549 -1.14538 0
M  V30 10761 C 1041.5 -4.49579 -0.104467 0
M  V30 10762 C 1040.27 -5.04273 0.321999 0
M  V30 10763 C 1042.47 -5.09909 0.670622 0
M  V30 10764 N 1040.45 -5.98866 1.3503 0
M  V30 10765 C 1041.82 -6.00299 1.55052 0
M  V30 10766 C 1043.88 -4.9262 0.723209 0
M  V30 10767 C 1042.58 -6.75254 2.4784 0
M  V30 10768 C 1044.6 -5.68243 1.63873 0
M  V30 10769 C 1043.97 -6.58306 2.50624 0
M  V30 10770 H 1040.07 -0.762769 -0.172359 0
M  V30 10771 H 1042.65 -1.93789 0.188113 0
M  V30 10772 H 1040.82 -3.41182 -1.85606 0
M  V30 10773 H 1042.55 -3.64194 -1.7648 0
M  V30 10774 H 1039.31 -4.73552 -0.0674026 0
M  V30 10775 H 1039.73 -6.50865 1.86291 0
M  V30 10776 H 1044.37 -4.22747 0.0666625 0
M  V30 10777 H 1042.09 -7.44383 3.14516 0
M  V30 10778 H 1045.68 -5.56876 1.68466 0
M  V30 10779 H 1044.56 -7.15799 3.20315 0
M  V30 10780 N 1042.06 0.170153 -1.56679 0
M  V30 10781 C 1043.01 1.22997 -1.9742 0
M  V30 10782 C 1044 1.45762 -0.863117 0
M  V30 10783 O 1045.21 1.46328 -1.04824 0
M  V30 10784 H 1041.58 0.413482 -0.628122 0
M  V30 10785 H 1043.55 0.859502 -2.85754 0
M  V30 10786 C 1042.3 2.5615 -2.35122 0
M  V30 10787 H 1041.63 2.39456 -3.20158 0
M  V30 10788 H 1043.07 3.28991 -2.67471 0
M  V30 10789 C 1041.53 3.14992 -1.19507 0
M  V30 10790 O 1042.06 3.98781 -0.483357 0
M  V30 10791 N 1040.26 2.74098 -0.965332 0
M  V30 10792 H 1039.81 2.06062 -1.54585 0
M  V30 10793 H 1039.77 3.13803 -0.193611 0
M  V30 10794 N 1043.54 1.5137 0.438746 0
M  V30 10795 C 1044.79 1.63645 1.18595 0
M  V30 10796 C 1045.11 0.354241 1.91755 0
M  V30 10797 O 1044.38 -0.629838 1.85499 0
M  V30 10798 H 1042.96 0.603103 0.440767 0
M  V30 10799 H 1045.62 1.88293 0.503159 0
M  V30 10800 H 1044.72 2.46342 1.9163 0
M  V30 10801 N 1045.02 -0.694098 1.41492 0
M  V30 10802 C 1046.43 -1.27407 1.36471 0
M  V30 10803 C 1046.78 -1.9614 0.0485209 0
M  V30 10804 O 1045.9 -1.98871 -0.853188 0
M  V30 10805 C 1046.5 -2.31698 2.47188 0
M  V30 10806 C 1045.06 -2.85268 2.45559 0
M  V30 10807 C 1044.2 -1.59325 2.2696 0
M  V30 10808 H 1047.16 -0.488756 1.50986 0
M  V30 10809 H 1047.18 -3.1302 2.1633 0
M  V30 10810 H 1046.69 -1.81644 3.42968 0
M  V30 10811 H 1044.79 -3.39494 1.5354 0
M  V30 10812 H 1044.9 -3.35598 3.41922 0
M  V30 10813 H 1043.27 -1.85188 1.74864 0
M  V30 10814 H 1044.05 -1.11265 3.24769 0
M  V30 10815 N 1046.49 -1.27344 -0.928501 0
M  V30 10816 C 1047.91 -1.04732 -1.2043 0
M  V30 10817 C 1048.11 0.219623 -2.003 0
M  V30 10818 O 1047.17 0.925333 -2.34934 0
M  V30 10819 C 1048.48 -2.28625 -1.95323 0
M  V30 10820 C 1050.03 -2.33655 -2.08265 0
M  V30 10821 C 1050.5 -3.57275 -2.86563 0
M  V30 10822 N 1051.99 -3.57828 -2.94132 0
M  V30 10823 C 1052.73 -4.50152 -3.55177 0
M  V30 10824 N 1052.22 -5.52779 -4.17621 0
M  V30 10825 N 1054.02 -4.37777 -3.52573 0
M  V30 10826 H 1046.17 -2.08697 -0.394892 0
M  V30 10827 H 1048.43 -0.91782 -0.2373 0
M  V30 10828 H 1048.14 -3.20845 -1.44054 0
M  V30 10829 H 1048.01 -2.33878 -2.95941 0
M  V30 10830 H 1050.4 -1.41942 -2.58721 0
M  V30 10831 H 1050.48 -2.32406 -1.0687 0
M  V30 10832 H 1050.12 -4.49325 -2.3679 0
M  V30 10833 H 1050.05 -3.55775 -3.88242 0
M  V30 10834 H 1052.54 -2.83607 -2.49751 0
M  V30 10835 H 1052.86 -6.19394 -4.62137 0
M  V30 10836 H 1051.2 -5.56622 -4.16169 0
M  V30 10837 H 1054.39 -3.56811 -3.02991 0
M  V30 10838 H 1054.57 -5.09919 -3.99858 0
M  V30 10839 N 1047.97 1.13488 -1.09353 0
M  V30 10840 C 1048.91 2.17951 -0.67622 0
M  V30 10841 C 1049.88 1.59482 0.316906 0
M  V30 10842 O 1051.07 1.8723 0.218459 0
M  V30 10843 C 1048.19 3.387 0.00391024 0
M  V30 10844 C 1047.24 4.15764 -0.950906 0
M  V30 10845 S 1048.07 4.75517 -2.46259 0
M  V30 10846 C 1049.23 5.99613 -1.79485 0
M  V30 10847 H 1049.46 2.53012 -1.56115 0
M  V30 10848 H 1047 1.24773 -0.909447 0
M  V30 10849 H 1048.95 4.08643 0.39002 0
M  V30 10850 H 1047.61 3.01941 0.86548 0
M  V30 10851 H 1046.81 5.02229 -0.422086 0
M  V30 10852 H 1046.41 3.51473 -1.27838 0
M  V30 10853 H 1048.7 6.68204 -1.11846 0
M  V30 10854 H 1049.64 6.57102 -2.63862 0
M  V30 10855 H 1050.05 5.50165 -1.26409 0
M  V30 10856 N 1049.45 0.880621 1.30701 0
M  V30 10857 C 1050.7 0.495894 1.95922 0
M  V30 10858 C 1051.02 -0.957214 1.69889 0
M  V30 10859 O 1050.29 -1.67245 1.0201 0
M  V30 10860 H 1048.87 0.180394 0.724891 0
M  V30 10861 H 1051.53 1.12274 1.59313 0
M  V30 10862 H 1050.63 0.662508 3.04987 0
M  V30 10863 N 1050.93 -1.4397 0.641131 0
M  V30 10864 C 1052.21 -1.95436 0.0800918 0
M  V30 10865 C 1052.59 -1.58282 -1.39678 0
M  V30 10866 O 1051.93 -0.861867 -2.11623 0
M  V30 10867 C 1052.14 -3.47589 0.313531 0
M  V30 10868 C 1053.49 -4.2407 0.212034 0
M  V30 10869 O 1054.52 -3.55353 0.245434 0
M  V30 10870 O 1053.38 -5.46356 0.125455 0
M  V30 10871 H 1050.47 -0.826834 -0.0165735 0
M  V30 10872 H 1053.02 -1.5397 0.71353 0
M  V30 10873 H 1051.79 -3.67716 1.33793 0
M  V30 10874 H 1051.41 -3.96025 -0.353563 0
M  V30 10875 N 1052.41 -0.382291 -1.52893 0
M  V30 10876 C 1053.37 0.44408 -2.24857 0
M  V30 10877 C 1054.37 0.996004 -1.26239 0
M  V30 10878 O 1055.56 0.879114 -1.5039 0
M  V30 10879 C 1052.69 1.62234 -2.99822 0
M  V30 10880 H 1053.89 -0.185862 -2.99324 0
M  V30 10881 H 1051.44 -0.134275 -1.55722 0
M  V30 10882 H 1052.17 2.28991 -2.29638 0
M  V30 10883 H 1051.96 1.23336 -3.72197 0
M  V30 10884 H 1053.45 2.20756 -3.54481 0
M  V30 10885 N 1053.89 1.57202 -0.111913 0
M  V30 10886 C 1055.16 1.86459 0.590972 0
M  V30 10887 C 1055.54 1.01182 1.85271 0
M  V30 10888 O 1054.89 0.0887891 2.28327 0
M  V30 10889 C 1055.1 3.37455 0.890225 0
M  V30 10890 C 1056.45 4.05895 1.24638 0
M  V30 10891 O 1057.47 3.42433 0.980713 0
M  V30 10892 O 1056.33 5.17903 1.74466 0
M  V30 10893 H 1053.43 0.771652 0.297459 0
M  V30 10894 H 1055.97 1.69072 -0.145882 0
M  V30 10895 H 1054.74 3.913 -0.00419012 0
M  V30 10896 H 1054.37 3.60248 1.68248 0
M  V30 10897 N 1055.36 -0.161842 1.56767 0
M  V30 10898 C 1056.59 -0.890953 1.86402 0
M  V30 10899 C 1057 -1.75918 0.696373 0
M  V30 10900 O 1056.34 -1.80461 -0.343463 0
M  V30 10901 C 1056.41 -1.81079 3.10565 0
M  V30 10902 C 1056.07 -1.12121 4.43032 0
M  V30 10903 C 1057.07 -0.482152 5.17659 0
M  V30 10904 C 1054.75 -1.11514 4.89765 0
M  V30 10905 C 1056.75 0.153772 6.37214 0
M  V30 10906 C 1054.43 -0.4754 6.09248 0
M  V30 10907 C 1055.43 0.157944 6.82817 0
M  V30 10908 O 1055.12 0.787579 8.00033 0
M  V30 10909 H 1054.85 -0.26379 0.622407 0
M  V30 10910 H 1057.41 -0.163884 2.04745 0
M  V30 10911 H 1055.64 -2.57842 2.88192 0
M  V30 10912 H 1057.32 -2.41056 3.26568 0
M  V30 10913 H 1058.09 -0.478752 4.82631 0
M  V30 10914 H 1053.97 -1.59752 4.32435 0
M  V30 10915 H 1057.51 0.648716 6.94577 0
M  V30 10916 H 1053.41 -0.476416 6.43739 0
M  V30 10917 H 1054.18 0.687769 8.15605 0
M  V30 10918 N 1056.84 -1.516 -0.430713 0
M  V30 10919 C 1057.77 -1.76342 -1.53054 0
M  V30 10920 C 1058.75 -0.61349 -1.58652 0
M  V30 10921 O 1059.94 -0.856888 -1.74273 0
M  V30 10922 C 1057.07 -1.8945 -2.91077 0
M  V30 10923 C 1056.02 -3.04928 -3.00339 0
M  V30 10924 C 1055.35 -3.03228 -4.40405 0
M  V30 10925 C 1056.65 -4.44777 -2.73808 0
M  V30 10926 H 1058.34 -2.68435 -1.326 0
M  V30 10927 H 1055.89 -1.29171 -0.636466 0
M  V30 10928 H 1057.84 -2.05343 -3.67984 0
M  V30 10929 H 1056.56 -0.940114 -3.12777 0
M  V30 10930 H 1055.22 -2.88751 -2.25872 0
M  V30 10931 H 1054.87 -2.05553 -4.59083 0
M  V30 10932 H 1054.57 -3.80776 -4.47531 0
M  V30 10933 H 1056.1 -3.21222 -5.19277 0
M  V30 10934 H 1057.51 -4.6127 -3.40445 0
M  V30 10935 H 1055.91 -5.2408 -2.92335 0
M  V30 10936 H 1056.98 -4.54358 -1.69372 0
M  V30 10937 N 1058.32 0.686584 -1.41858 0
M  V30 10938 C 1059.28 1.78214 -1.44126 0
M  V30 10939 C 1060.28 1.57366 -0.330541 0
M  V30 10940 O 1061.47 1.63874 -0.590837 0
M  V30 10941 C 1058.6 3.16704 -1.26142 0
M  V30 10942 H 1059.8 1.77594 -2.41661 0
M  V30 10943 H 1057.35 0.895085 -1.28132 0
M  V30 10944 H 1058.09 3.22957 -0.294823 0
M  V30 10945 H 1057.87 3.33238 -2.06627 0
M  V30 10946 H 1059.36 3.96658 -1.30584 0
M  V30 10947 N 1059.8 1.27835 0.921735 0
M  V30 10948 C 1060.76 1.11108 2.00469 0
M  V30 10949 C 1061.76 0.053203 1.60712 0
M  V30 10950 O 1062.95 0.298308 1.71627 0
M  V30 10951 C 1060.08 0.694269 3.33755 0
M  V30 10952 H 1061.28 2.07279 2.16738 0
M  V30 10953 H 1058.83 1.10708 1.10333 0
M  V30 10954 H 1059.56 -0.268561 3.23186 0
M  V30 10955 H 1059.35 1.45836 3.6397 0
M  V30 10956 H 1060.84 0.59965 4.13272 0
M  V30 10957 N 1061.28 -1.12907 1.09954 0
M  V30 10958 C 1062.52 -1.84786 0.850039 0
M  V30 10959 C 1062.88 -1.82214 -0.617724 0
M  V30 10960 O 1062.17 -1.25319 -1.44934 0
M  V30 10961 C 1062.36 -3.31885 1.32616 0
M  V30 10962 C 1062.19 -3.48782 2.83868 0
M  V30 10963 C 1060.96 -3.62708 3.51811 0
M  V30 10964 C 1063.16 -3.44367 3.8199 0
M  V30 10965 N 1061.14 -3.67921 4.91434 0
M  V30 10966 C 1062.51 -3.56015 5.07596 0
M  V30 10967 C 1064.57 -3.27801 3.74768 0
M  V30 10968 C 1063.27 -3.52807 6.26833 0
M  V30 10969 C 1065.3 -3.25904 4.93499 0
M  V30 10970 C 1064.66 -3.38108 6.1795 0
M  V30 10971 H 1060.76 -0.692126 0.363986 0
M  V30 10972 H 1063.34 -1.35208 1.40096 0
M  V30 10973 H 1061.51 -3.80016 0.802625 0
M  V30 10974 H 1063.25 -3.91598 1.02142 0
M  V30 10975 H 1060 -3.64613 3.02248 0
M  V30 10976 H 1060.42 -3.74204 5.64181 0
M  V30 10977 H 1065.07 -3.17264 2.7947 0
M  V30 10978 H 1062.78 -3.62116 7.22425 0
M  V30 10979 H 1066.37 -3.14275 4.89615 0
M  V30 10980 H 1065.25 -3.36607 7.08283 0
M  V30 10981 N 1062.75 -0.88754 -1.30232 0
M  V30 10982 C 1063.7 -0.327649 -2.25633 0
M  V30 10983 C 1064.69 0.545362 -1.51376 0
M  V30 10984 O 1065.88 0.389366 -1.72664 0
M  V30 10985 C 1063.01 0.454546 -3.40277 0
M  V30 10986 C 1062.09 -0.432698 -4.21887 0
M  V30 10987 N 1062.49 -1.53434 -4.81966 0
M  V30 10988 C 1060.78 -0.228275 -4.45415 0
M  V30 10989 C 1061.48 -2.08292 -5.43129 0
M  V30 10990 N 1060.46 -1.37754 -5.25856 0
M  V30 10991 H 1064.26 -1.16937 -2.69635 0
M  V30 10992 H 1061.78 -0.737232 -1.44702 0
M  V30 10993 H 1063.77 0.87231 -4.07672 0
M  V30 10994 H 1062.43 1.29367 -2.97816 0
M  V30 10995 H 1063.44 -1.91717 -4.81108 0
M  V30 10996 H 1060.12 0.573475 -4.13543 0
M  V30 10997 H 1061.51 -3.00818 -6.00798 0
M  V30 10998 N 1064.23 1.43628 -0.648757 0
M  V30 10999 C 1065.65 1.56442 -0.315921 0
M  V30 11000 C 1065.85 1.63322 1.18018 0
M  V30 11001 O 1064.9 1.58585 1.96487 0
M  V30 11002 C 1066.22 2.82751 -1.02335 0
M  V30 11003 C 1067.77 2.96488 -1.00318 0
M  V30 11004 C 1068.24 4.25623 -1.69142 0
M  V30 11005 N 1069.73 4.32477 -1.65885 0
M  V30 11006 C 1070.47 5.31154 -2.16016 0
M  V30 11007 N 1069.96 6.36135 -2.74415 0
M  V30 11008 N 1071.76 5.22778 -2.06541 0
M  V30 11009 H 1063.91 1.37405 -1.61968 0
M  V30 11010 H 1066.17 0.65962 -0.680886 0
M  V30 11011 H 1065.88 2.83714 -2.07844 0
M  V30 11012 H 1065.75 3.72836 -0.572114 0
M  V30 11013 H 1068.14 2.95068 0.0434919 0
M  V30 11014 H 1068.22 2.07704 -1.49307 0
M  V30 11015 H 1067.86 4.27804 -2.73763 0
M  V30 11016 H 1067.79 5.13296 -1.17622 0
M  V30 11017 H 1070.28 3.57232 -1.23264 0
M  V30 11018 H 1070.6 7.07743 -3.10355 0
M  V30 11019 H 1068.94 6.36771 -2.78474 0
M  V30 11020 H 1072.13 4.39678 -1.60625 0
M  V30 11021 H 1072.3 5.99523 -2.45919 0
M  V30 11022 N 1065.71 0.390394 1.52688 0
M  V30 11023 C 1066.64 -0.43567 2.294 0
M  V30 11024 C 1067.62 -1.06253 1.32832 0
M  V30 11025 O 1068.81 -1.07509 1.61726 0
M  V30 11026 C 1065.94 -1.56259 3.10162 0
M  V30 11027 C 1064.89 -1.06172 4.14622 0
M  V30 11028 C 1064.22 -2.2808 4.83615 0
M  V30 11029 C 1065.52 -0.128902 5.22141 0
M  V30 11030 H 1067.21 0.204384 2.98702 0
M  V30 11031 H 1064.76 0.0997377 1.43654 0
M  V30 11032 H 1066.71 -2.14732 3.62585 0
M  V30 11033 H 1065.43 -2.23025 2.38595 0
M  V30 11034 H 1064.09 -0.499518 3.63181 0
M  V30 11035 H 1063.74 -2.93358 4.08595 0
M  V30 11036 H 1063.44 -1.95227 5.5422 0
M  V30 11037 H 1064.96 -2.87193 5.38844 0
M  V30 11038 H 1066.38 -0.621849 5.69917 0
M  V30 11039 H 1064.78 0.109919 5.99999 0
M  V30 11040 H 1065.85 0.821884 4.77884 0
M  V30 11041 N 1067.19 -1.57141 0.120249 0
M  V30 11042 C 1068.43 -1.95527 -0.538245 0
M  V30 11043 C 1068.77 -1.00373 -1.6625 0
M  V30 11044 O 1068.04 -0.0411734 -1.94456 0
M  V30 11045 C 1068.33 -3.43843 -1.06976 0
M  V30 11046 C 1068.18 -4.49771 0.0511596 0
M  V30 11047 C 1069.5 -3.94035 -1.96022 0
M  V30 11048 H 1066.62 -0.710958 -0.194183 0
M  V30 11049 H 1069.26 -1.88986 0.196061 0
M  V30 11050 H 1067.41 -3.49548 -1.69553 0
M  V30 11051 H 1069.08 -4.56163 0.686503 0
M  V30 11052 H 1067.32 -4.27882 0.714127 0
M  V30 11053 H 1067.99 -5.50812 -0.361995 0
M  V30 11054 H 1070.47 -3.9064 -1.43315 0
M  V30 11055 H 1069.35 -4.98329 -2.3013 0
M  V30 11056 H 1069.61 -3.34803 -2.8872 0
M  V30 11057 N 1068.67 0.153526 -1.5685 0
M  V30 11058 C 1069.6 1.19162 -2.00805 0
M  V30 11059 C 1070.58 1.45172 -0.886518 0
M  V30 11060 O 1071.76 1.56203 -1.15387 0
M  V30 11061 C 1068.89 2.52637 -2.38311 0
M  V30 11062 C 1067.85 2.41161 -3.53589 0
M  V30 11063 C 1067.17 3.79287 -3.76889 0
M  V30 11064 C 1068.47 1.90122 -4.86468 0
M  V30 11065 H 1070.17 0.82617 -2.87776 0
M  V30 11066 H 1067.71 0.395972 -1.38449 0
M  V30 11067 H 1069.67 3.25478 -2.6766 0
M  V30 11068 H 1068.39 2.91005 -1.4827 0
M  V30 11069 H 1067.05 1.70772 -3.24395 0
M  V30 11070 H 1066.7 4.15079 -2.84109 0
M  V30 11071 H 1066.4 3.72472 -4.54465 0
M  V30 11072 H 1067.92 4.53687 -4.08657 0
M  V30 11073 H 1069.33 2.52752 -5.14577 0
M  V30 11074 H 1067.73 1.94214 -5.67804 0
M  V30 11075 H 1068.8 0.856517 -4.77275 0
M  V30 11076 N 1070.14 1.51827 0.422667 0
M  V30 11077 C 1071.56 1.57533 1.00201 0
M  V30 11078 C 1071.91 0.407623 1.91919 0
M  V30 11079 O 1071.03 -0.473763 2.1115 0
M  V30 11080 C 1071.63 2.85508 1.82403 0
M  V30 11081 C 1070.19 2.93737 2.35362 0
M  V30 11082 C 1069.33 2.52343 1.14971 0
M  V30 11083 H 1072.28 1.57391 0.20339 0
M  V30 11084 H 1072.3 2.70097 2.68007 0
M  V30 11085 H 1071.82 3.70477 1.15623 0
M  V30 11086 H 1069.92 2.13231 3.05554 0
M  V30 11087 H 1070.03 3.977 2.67155 0
M  V30 11088 H 1068.39 2.05878 1.49955 0
M  V30 11089 H 1069.18 3.39672 0.497786 0
M  V30 11090 N 1071.62 -0.679052 1.4222 0
M  V30 11091 C 1072.87 -1.43485 1.41757 0
M  V30 11092 C 1073.18 -1.95567 0.0358698 0
M  V30 11093 O 1074.39 -2.71346 -0.0913713 0
M  V30 11094 C 1072.85 -2.59541 2.49332 0
M  V30 11095 C 1072.45 -2.14176 3.93488 0
M  V30 11096 C 1074.2 -3.37078 2.58029 0
M  V30 11097 C 1072.11 -3.27289 4.92581 0
M  V30 11098 H 1071.04 -0.539022 0.52723 0
M  V30 11099 H 1073.69 -0.735581 1.68111 0
M  V30 11100 H 1072.07 -3.31815 2.16135 0
M  V30 11101 H 1073.24 -1.49082 4.36017 0
M  V30 11102 H 1071.56 -1.49589 3.88603 0
M  V30 11103 H 1074.15 -4.21312 3.29242 0
M  V30 11104 H 1074.5 -3.83383 1.62245 0
M  V30 11105 H 1075.03 -2.7187 2.90399 0
M  V30 11106 H 1071.77 -2.8598 5.89827 0
M  V30 11107 H 1071.29 -3.91178 4.54687 0
M  V30 11108 H 1072.97 -3.9282 5.14103 0
M  V30 11109 N 1073.1 -1.28322 -0.914942 0
M  V30 11110 C 1074.06 -1.12169 -1.99877 0
M  V30 11111 C 1075.06 -0.0617252 -1.60681 0
M  V30 11112 O 1076.25 -0.307405 -1.71466 0
M  V30 11113 C 1073.39 -0.711959 -3.33383 0
M  V30 11114 H 1074.58 -2.08425 -2.15636 0
M  V30 11115 H 1072.13 -1.11291 -1.09745 0
M  V30 11116 H 1072.87 0.251418 -3.23324 0
M  V30 11117 H 1072.65 -1.47764 -3.63192 0
M  V30 11118 H 1074.14 -0.621558 -4.12948 0
M  V30 11119 N 1074.58 1.12322 -1.10551 0
M  V30 11120 C 1075.81 1.87407 -0.869607 0
M  V30 11121 C 1076.22 1.79976 0.58356 0
M  V30 11122 O 1075.56 1.1725 1.41415 0
M  V30 11123 C 1075.62 3.37401 -1.24099 0
M  V30 11124 C 1075.29 3.68607 -2.70144 0
M  V30 11125 C 1076.28 3.66869 -3.68379 0
M  V30 11126 C 1073.97 3.97903 -3.06559 0
M  V30 11127 C 1075.96 3.93987 -5.01052 0
M  V30 11128 C 1073.65 4.24681 -4.39419 0
M  V30 11129 C 1074.65 4.2271 -5.36475 0
M  V30 11130 O 1074.33 4.48823 -6.66943 0
M  V30 11131 H 1074.07 0.59978 -0.311834 0
M  V30 11132 H 1076.62 1.43037 -1.4741 0
M  V30 11133 H 1074.85 3.82332 -0.579606 0
M  V30 11134 H 1076.54 3.93833 -0.982378 0
M  V30 11135 H 1077.31 3.44297 -3.41591 0
M  V30 11136 H 1073.18 3.98578 -2.31638 0
M  V30 11137 H 1076.73 3.92364 -5.76798 0
M  V30 11138 H 1072.63 4.46727 -4.65945 0
M  V30 11139 H 1073.39 4.66436 -6.72592 0
M  V30 11140 N 1076.06 0.894434 1.2976 0
M  V30 11141 C 1076.97 0.372622 2.31622 0
M  V30 11142 C 1077.98 -0.52996 1.65733 0
M  V30 11143 O 1079.16 -0.420807 1.96955 0
M  V30 11144 C 1076.22 -0.396076 3.4443 0
M  V30 11145 C 1075.28 0.537394 4.25923 0
M  V30 11146 C 1074.52 -0.194713 5.33345 0
M  V30 11147 O 1074.74 -1.41943 5.52457 0
M  V30 11148 O 1073.67 0.460055 6.00139 0
M  V30 11149 H 1077.5 1.21756 2.78225 0
M  V30 11150 H 1075.09 0.65858 1.34101 0
M  V30 11151 H 1076.97 -0.830962 4.13126 0
M  V30 11152 H 1075.64 -1.21716 2.99945 0
M  V30 11153 H 1074.55 1.02129 3.5989 0
M  V30 11154 H 1075.88 1.32475 4.74037 0
M  V30 11155 N 1077.53 -1.43282 0.656365 0
M  V30 11156 C 1078.78 -2.01776 0.171039 0
M  V30 11157 C 1079.11 -1.51795 -1.21609 0
M  V30 11158 O 1078.36 -0.702864 -1.82643 0
M  V30 11159 C 1078.66 -3.57148 0.134225 0
M  V30 11160 C 1078.33 -4.26488 1.46352 0
M  V30 11161 C 1076.99 -4.45146 1.82753 0
M  V30 11162 C 1079.34 -4.65728 2.33981 0
M  V30 11163 C 1076.67 -5.0031 3.06443 0
M  V30 11164 C 1079.02 -5.22263 3.56966 0
M  V30 11165 C 1077.69 -5.39136 3.93559 0
M  V30 11166 H 1076.96 -0.738352 0.0625878 0
M  V30 11167 H 1079.6 -1.71716 0.847697 0
M  V30 11168 H 1077.91 -3.86768 -0.625892 0
M  V30 11169 H 1079.61 -4.00168 -0.258207 0
M  V30 11170 H 1076.2 -4.12313 1.1703 0
M  V30 11171 H 1080.38 -4.51003 2.07148 0
M  V30 11172 H 1075.64 -5.11559 3.34839 0
M  V30 11173 H 1079.81 -5.51614 4.25082 0
M  V30 11174 H 1077.44 -5.81646 4.89481 0
M  V30 11175 N 1079.01 -0.398486 -1.52479 0
M  V30 11176 C 1079.96 0.447001 -2.28264 0
M  V30 11177 C 1080.96 1.05511 -1.32529 0
M  V30 11178 O 1082.16 0.994528 -1.5003 0
M  V30 11179 H 1078.54 0.162919 -0.73414 0
M  V30 11180 H 1080.51 -0.213534 -2.97635 0
M  V30 11181 C 1079.26 1.55724 -3.10879 0
M  V30 11182 H 1078.58 1.09864 -3.84409 0
M  V30 11183 H 1080.02 2.12286 -3.67029 0
M  V30 11184 C 1078.48 2.51853 -2.23768 0
M  V30 11185 O 1079.01 3.55483 -1.87069 0
M  V30 11186 N 1077.21 2.2181 -1.87746 0
M  V30 11187 H 1076.76 1.3757 -2.17789 0
M  V30 11188 H 1076.72 2.86376 -1.29753 0
M  V30 11189 N 1080.49 1.57075 -0.12858 0
M  V30 11190 C 1081.9 1.82468 0.39526 0
M  V30 11191 C 1082.25 1.0463 1.65973 0
M  V30 11192 O 1081.38 0.285835 2.14504 0
M  V30 11193 C 1081.97 3.30976 0.723889 0
M  V30 11194 C 1080.53 3.57016 1.19232 0
M  V30 11195 C 1079.68 2.76534 0.205907 0
M  V30 11196 H 1082.63 1.54711 -0.353571 0
M  V30 11197 H 1082.65 3.46127 1.58039 0
M  V30 11198 H 1082.16 3.87602 -0.196595 0
M  V30 11199 H 1080.26 3.05758 2.12938 0
M  V30 11200 H 1080.38 4.65558 1.13103 0
M  V30 11201 H 1078.74 2.45038 0.694872 0
M  V30 11202 H 1079.52 3.35923 -0.707842 0
M  V30 11203 N 1081.97 -0.145205 1.5693 0
M  V30 11204 C 1082.88 -1.19864 2.01667 0
M  V30 11205 C 1083.9 -1.46909 0.932402 0
M  V30 11206 O 1085.07 -1.58543 1.24201 0
M  V30 11207 C 1082.14 -2.51174 2.38982 0
M  V30 11208 C 1081.2 -2.3176 3.61366 0
M  V30 11209 C 1080.43 -3.56809 3.96892 0
M  V30 11210 O 1080.65 -4.63063 3.33059 0
M  V30 11211 O 1079.59 -3.49366 4.9013 0
M  V30 11212 H 1083.41 -0.848821 2.91597 0
M  V30 11213 H 1081 -0.354063 1.45144 0
M  V30 11214 H 1082.88 -3.28587 2.63835 0
M  V30 11215 H 1081.56 -2.85683 1.52207 0
M  V30 11216 H 1080.46 -1.52293 3.41698 0
M  V30 11217 H 1081.8 -2.02167 4.48764 0
M  V30 11218 N 1083.45 -1.52049 -0.414609 0
M  V30 11219 C 1084.38 -1.77956 -1.51175 0
M  V30 11220 C 1085.36 -0.630282 -1.57992 0
M  V30 11221 O 1086.54 -0.875324 -1.73354 0
M  V30 11222 C 1083.67 -1.92527 -2.89051 0
M  V30 11223 C 1082.63 -3.08096 -2.97087 0
M  V30 11224 C 1081.95 -3.07882 -4.37164 0
M  V30 11225 C 1083.25 -4.47656 -2.69075 0
M  V30 11226 H 1084.95 -2.69827 -1.29746 0
M  V30 11227 H 1082.49 -1.29839 -0.62273 0
M  V30 11228 H 1084.45 -2.09234 -3.65786 0
M  V30 11229 H 1083.17 -0.973235 -3.11762 0
M  V30 11230 H 1081.83 -2.91131 -2.22797 0
M  V30 11231 H 1081.48 -2.10411 -4.56877 0
M  V30 11232 H 1081.18 -3.85501 -4.43467 0
M  V30 11233 H 1082.7 -3.26712 -5.15841 0
M  V30 11234 H 1084.12 -4.64855 -3.35534 0
M  V30 11235 H 1082.51 -5.27151 -2.8676 0
M  V30 11236 H 1083.58 -4.56129 -1.64544 0
M  V30 11237 N 1084.93 0.6715 -1.42579 0
M  V30 11238 C 1086.17 1.43366 -1.43436 0
M  V30 11239 C 1086.5 1.94131 -0.0517339 0
M  V30 11240 O 1085.78 1.71121 0.924548 0
M  V30 11241 C 1086.06 2.62832 -2.46154 0
M  V30 11242 C 1085.92 2.17677 -3.9362 0
M  V30 11243 C 1087.23 3.65049 -2.4582 0
M  V30 11244 H 1084.35 0.519967 -0.522306 0
M  V30 11245 H 1087 0.762849 -1.74013 0
M  V30 11246 H 1085.15 3.20062 -2.2021 0
M  V30 11247 H 1086.82 1.65588 -4.30556 0
M  V30 11248 H 1085.06 1.49219 -4.07328 0
M  V30 11249 H 1085.73 3.03503 -4.61075 0
M  V30 11250 H 1088.21 3.17541 -2.68899 0
M  V30 11251 H 1087.08 4.46213 -3.19664 0
M  V30 11252 H 1087.34 4.16401 -1.48536 0
M  V30 11253 N 1086.4 1.28806 0.908124 0
M  V30 11254 C 1087.33 1.15758 2.02787 0
M  V30 11255 C 1088.31 0.053911 1.70015 0
M  V30 11256 O 1089.5 0.231901 1.9281 0
M  V30 11257 C 1086.63 0.824526 3.37371 0
M  V30 11258 C 1085.58 1.88359 3.84324 0
M  V30 11259 C 1084.91 1.40404 5.15937 0
M  V30 11260 C 1086.21 3.29108 4.05568 0
M  V30 11261 H 1087.9 2.09431 2.13961 0
M  V30 11262 H 1085.45 1.00831 1.02806 0
M  V30 11263 H 1087.4 0.71999 4.15204 0
M  V30 11264 H 1086.13 -0.147902 3.26265 0
M  V30 11265 H 1084.79 1.97736 3.087 0
M  V30 11266 H 1084.43 0.420515 5.01239 0
M  V30 11267 H 1084.13 2.11224 5.48323 0
M  V30 11268 H 1085.66 1.31283 5.9632 0
M  V30 11269 H 1087.07 3.2262 4.73909 0
M  V30 11270 H 1085.47 3.97812 4.49294 0
M  V30 11271 H 1086.54 3.72709 3.10187 0
M  V30 11272 N 1087.88 -1.11734 1.11145 0
M  V30 11273 C 1089.13 -1.83677 0.859684 0
M  V30 11274 C 1089.46 -1.84265 -0.613182 0
M  V30 11275 O 1088.74 -1.29351 -1.45254 0
M  V30 11276 C 1089.02 -3.31003 1.41805 0
M  V30 11277 C 1088.87 -3.38827 2.95831 0
M  V30 11278 C 1090.19 -4.26984 1.06645 0
M  V30 11279 H 1087.31 -0.666879 0.313754 0
M  V30 11280 H 1089.95 -1.31038 1.37583 0
M  V30 11281 H 1088.1 -3.75961 0.979054 0
M  V30 11282 H 1089.77 -3.02451 3.48312 0
M  V30 11283 H 1088.02 -2.79143 3.32056 0
M  V30 11284 H 1088.69 -4.42508 3.29986 0
M  V30 11285 H 1091.16 -3.9019 1.44537 0
M  V30 11286 H 1090.04 -5.2846 1.48394 0
M  V30 11287 H 1090.3 -4.42094 -0.0231866 0
M  V30 11288 N 1089.36 -0.901303 -1.29284 0
M  V30 11289 C 1090.58 -0.542823 -2.0017 0
M  V30 11290 C 1091.01 0.865583 -1.67001 0
M  V30 11291 O 1090.37 1.5764 -0.895502 0
M  V30 11292 C 1090.42 -0.743987 -3.52842 0
M  V30 11293 O 1089.52 0.202771 -4.11901 0
M  V30 11294 H 1088.86 -0.211903 -0.62928 0
M  V30 11295 H 1091.39 -1.21333 -1.64741 0
M  V30 11296 H 1091.4 -0.64926 -4.02801 0
M  V30 11297 H 1090.08 -1.77077 -3.7632 0
M  V30 11298 H 1088.65 0.0603637 -3.72851 0
M  V30 11299 N 1090.84 1.42931 -0.663954 0
M  V30 11300 C 1091.8 2.29197 0.0117626 0
M  V30 11301 C 1092.8 1.42767 0.739875 0
M  V30 11302 O 1093.99 1.64278 0.579509 0
M  V30 11303 C 1091.12 3.2505 1.02738 0
M  V30 11304 H 1092.32 2.90438 -0.747391 0
M  V30 11305 H 1089.87 1.5039 -0.425733 0
M  V30 11306 H 1090.6 2.68726 1.8154 0
M  V30 11307 H 1090.39 3.88785 0.508809 0
M  V30 11308 H 1091.88 3.89771 1.49893 0
M  V30 11309 N 1092.32 0.406567 1.52266 0
M  V30 11310 C 1093.56 -0.169717 2.01386 0
M  V30 11311 C 1093.88 -1.45864 1.29417 0
M  V30 11312 O 1093.15 -1.9136 0.419327 0
M  V30 11313 H 1091.73 -0.0657075 0.744105 0
M  V30 11314 H 1094.4 0.542221 1.87206 0
M  V30 11315 H 1093.49 -0.367659 3.09927 0
M  V30 11316 N 1093.79 -1.57004 0.136909 0
M  V30 11317 C 1095.04 -1.95797 -0.516711 0
M  V30 11318 C 1095.37 -1.02123 -1.65533 0
M  V30 11319 O 1094.62 -0.0484835 -1.9564 0
M  V30 11320 C 1094.92 -3.40903 -1.07331 0
M  V30 11321 C 1094.59 -4.50867 -0.0541941 0
M  V30 11322 C 1093.25 -4.80669 0.225988 0
M  V30 11323 C 1095.6 -5.17264 0.639361 0
M  V30 11324 C 1092.93 -5.74177 1.2057 0
M  V30 11325 C 1095.28 -6.11827 1.60783 0
M  V30 11326 C 1093.95 -6.40012 1.89581 0
M  V30 11327 H 1093.22 -0.716471 -0.189078 0
M  V30 11328 H 1095.86 -1.90213 0.221605 0
M  V30 11329 H 1094.17 -3.43268 -1.88876 0
M  V30 11330 H 1095.87 -3.6824 -1.58745 0
M  V30 11331 H 1092.46 -4.27666 -0.282754 0
M  V30 11332 H 1096.64 -4.9438 0.436085 0
M  V30 11333 H 1091.9 -5.94312 1.43538 0
M  V30 11334 H 1096.07 -6.62354 2.15081 0
M  V30 11335 H 1093.7 -7.12274 2.65649 0
M  V30 11336 N 1095.27 0.136881 -1.57004 0
M  V30 11337 C 1096.55 0.87705 -1.74835 0
M  V30 11338 C 1096.93 1.98886 -0.707639 0
M  V30 11339 O 1096.28 2.26879 0.271652 0
M  V30 11340 C 1096.49 1.41021 -3.1924 0
M  V30 11341 C 1097.84 1.86963 -3.81222 0
M  V30 11342 O 1098.86 1.5074 -3.22732 0
M  V30 11343 O 1097.72 2.53798 -4.83993 0
M  V30 11344 H 1094.81 0.415192 -0.715223 0
M  V30 11345 H 1097.36 0.122016 -1.69261 0
M  V30 11346 H 1096.13 0.611677 -3.8649 0
M  V30 11347 H 1095.75 2.22846 -3.2928 0
M  V30 11348 N 1096.75 1.52266 0.40654 0
M  V30 11349 C 1097.71 1.75168 1.47814 0
M  V30 11350 C 1098.71 0.621575 1.48301 0
M  V30 11351 O 1099.9 0.889476 1.4978 0
M  V30 11352 C 1097.04 1.83642 2.87208 0
M  V30 11353 H 1098.23 2.70834 1.28798 0
M  V30 11354 H 1095.78 1.42722 0.637196 0
M  V30 11355 H 1096.52 0.898994 3.1159 0
M  V30 11356 H 1096.3 2.65801 2.88257 0
M  V30 11357 H 1097.79 2.03093 3.64888 0
M  V30 11358 N 1098.23 -0.663929 1.42933 0
M  V30 11359 C 1099.19 -1.75899 1.46943 0
M  V30 11360 C 1100.19 -1.5682 0.355535 0
M  V30 11361 O 1101.38 -1.62914 0.616833 0
M  V30 11362 C 1098.51 -3.14657 1.31164 0
M  V30 11363 H 1099.71 -1.73727 2.44456 0
M  V30 11364 H 1097.26 -0.874587 1.2954 0
M  V30 11365 H 1097.99 -3.22447 0.346165 0
M  V30 11366 H 1097.78 -3.29909 2.11902 0
M  V30 11367 H 1099.27 -3.9453 1.36878 0
M  V30 11368 N 1099.71 -1.29285 -0.901281 0
M  V30 11369 C 1101.12 -1.07263 -1.18182 0
M  V30 11370 C 1101.32 0.177087 -2.0072 0
M  V30 11371 O 1100.38 0.875292 -2.36844 0
M  V30 11372 C 1101.69 -2.32717 -1.9043 0
M  V30 11373 C 1103.24 -2.3802 -2.03262 0
M  V30 11374 C 1103.71 -3.63273 -2.7892 0
M  V30 11375 N 1105.21 -3.63986 -2.86475 0
M  V30 11376 C 1105.94 -4.57585 -3.45549 0
M  V30 11377 N 1105.44 -5.61513 -4.05801 0
M  V30 11378 N 1107.23 -4.45157 -3.43208 0
M  V30 11379 H 1099.38 -2.09487 -0.350536 0
M  V30 11380 H 1101.64 -0.922647 -0.217778 0
M  V30 11381 H 1101.35 -3.23828 -1.37216 0
M  V30 11382 H 1101.22 -2.40102 -2.90913 0
M  V30 11383 H 1103.61 -1.47398 -2.55652 0
M  V30 11384 H 1103.69 -2.3462 -1.01916 0
M  V30 11385 H 1103.34 -4.54246 -2.27206 0
M  V30 11386 H 1103.27 -3.6393 -3.80608 0
M  V30 11387 H 1105.76 -2.8884 -2.43679 0
M  V30 11388 H 1106.07 -6.29058 -4.48894 0
M  V30 11389 H 1104.41 -5.65325 -4.04268 0
M  V30 11390 H 1107.61 -3.63158 -2.95354 0
M  V30 11391 H 1107.78 -5.18286 -3.88952 0
M  V30 11392 N 1101.18 1.11143 -1.11736 0
M  V30 11393 C 1102.43 1.82586 -0.866412 0
M  V30 11394 C 1102.75 1.85227 0.609593 0
M  V30 11395 O 1102.02 1.32505 1.44288 0
M  V30 11396 H 1100.6 0.676149 -0.31754 0
M  V30 11397 H 1103.27 1.34516 -1.41037 0
M  V30 11398 H 1102.36 2.8635 -1.24136 0
M  V30 11399 N 1102.66 0.908147 1.28804 0
M  V30 11400 C 1103.94 0.457561 1.90173 0
M  V30 11401 C 1104.32 -1.06333 1.82364 0
M  V30 11402 O 1103.67 -1.90892 1.25589 0
M  V30 11403 C 1103.88 0.981624 3.34911 0
M  V30 11404 C 1105.23 1.03037 4.11908 0
M  V30 11405 O 1106.25 0.929878 3.43848 0
M  V30 11406 O 1105.11 1.18257 5.33552 0
M  V30 11407 H 1102.2 0.144081 0.814352 0
M  V30 11408 H 1104.75 0.998565 1.37211 0
M  V30 11409 H 1103.52 2.02561 3.34791 0
M  V30 11410 H 1103.14 0.421122 3.95364 0
M  V30 11411 N 1104.14 -1.42577 0.671525 0
M  V30 11412 C 1105.55 -1.84736 0.270084 0
M  V30 11413 C 1105.9 -1.56212 -1.18711 0
M  V30 11414 O 1105.03 -1.02028 -1.90838 0
M  V30 11415 C 1105.62 -3.35334 0.483409 0
M  V30 11416 C 1104.18 -3.76154 0.136119 0
M  V30 11417 C 1103.33 -2.66179 0.777444 0
M  V30 11418 H 1106.28 -1.3247 0.873919 0
M  V30 11419 H 1106.3 -3.79573 -0.265483 0
M  V30 11420 H 1105.81 -3.56063 1.54405 0
M  V30 11421 H 1103.91 -3.61033 -0.921209 0
M  V30 11422 H 1104.03 -4.75645 0.574356 0
M  V30 11423 H 1102.39 -2.53841 0.209055 0
M  V30 11424 H 1103.17 -2.89732 1.84148 0
M  V30 11425 N 1105.62 -0.414636 -1.52048 0
M  V30 11426 C 1106.55 0.399119 -2.30064 0
M  V30 11427 C 1107.53 1.04126 -1.34506 0
M  V30 11428 O 1108.71 1.04923 -1.63416 0
M  V30 11429 C 1105.84 1.51305 -3.12608 0
M  V30 11430 C 1104.8 0.995621 -4.16259 0
M  V30 11431 C 1104.12 2.20357 -4.87183 0
M  V30 11432 C 1105.42 0.0458178 -5.2228 0
M  V30 11433 H 1107.12 -0.251879 -2.98339 0
M  V30 11434 H 1104.66 -0.122579 -1.43477 0
M  V30 11435 H 1106.62 2.08936 -3.65956 0
M  V30 11436 H 1105.34 2.19201 -2.42113 0
M  V30 11437 H 1104 0.441676 -3.6393 0
M  V30 11438 H 1103.65 2.8682 -4.13211 0
M  V30 11439 H 1103.35 1.86385 -5.57256 0
M  V30 11440 H 1104.87 2.78584 -5.43345 0
M  V30 11441 H 1106.29 0.531102 -5.70835 0
M  V30 11442 H 1104.68 -0.20536 -5.99749 0
M  V30 11443 H 1105.75 -0.897807 -4.76516 0
M  V30 11444 N 1107.1 1.56929 -0.145233 0
M  V30 11445 C 1108.34 1.95681 0.50532 0
M  V30 11446 C 1108.67 1.03098 1.65516 0
M  V30 11447 O 1107.94 0.0921961 1.95683 0
M  V30 11448 H 1106.52 0.72252 0.189668 0
M  V30 11449 H 1109.18 1.93651 -0.220318 0
M  V30 11450 H 1108.27 2.99359 0.882631 0
M  V30 11451 N 1108.58 -0.128553 1.57075 0
M  V30 11452 C 1109.82 -0.836355 1.83982 0
M  V30 11453 C 1110.14 -1.80862 0.728971 0
M  V30 11454 O 1109.41 -1.94326 -0.247859 0
M  V30 11455 H 1107.99 -0.31185 0.678792 0
M  V30 11456 H 1110.66 -0.118153 1.94542 0
M  V30 11457 H 1109.75 -1.38741 2.79567 0
M  V30 11458 N 1110.05 -1.5248 -0.398459 0
M  V30 11459 C 1111.29 -1.68744 -1.15346 0
M  V30 11460 C 1111.66 -0.413739 -1.87489 0
M  V30 11461 O 1112.86 -0.452624 -2.64962 0
M  V30 11462 C 1111.13 -2.8824 -2.11311 0
M  V30 11463 S 1112.69 -3.25043 -2.94775 0
M  V30 11464 H 1109.51 -0.594099 -0.390598 0
M  V30 11465 H 1112.11 -1.90502 -0.439228 0
M  V30 11466 H 1110.81 -3.79175 -1.57017 0
M  V30 11467 H 1110.34 -2.68787 -2.87258 0
M  V30 11468 H 1112.36 -2.74495 -4.13361 0
M  V30 11469 N 1111.53 0.65634 -1.43283 0
M  V30 11470 C 1112.46 1.78184 -1.44164 0
M  V30 11471 C 1113.48 1.59249 -0.338177 0
M  V30 11472 O 1114.67 1.68027 -0.60242 0
M  V30 11473 C 1111.77 3.15566 -1.23577 0
M  V30 11474 C 1110.94 3.61187 -2.46704 0
M  V30 11475 C 1110 4.77361 -2.21388 0
M  V30 11476 O 1109.02 4.8696 -2.94718 0
M  V30 11477 N 1110.23 5.67351 -1.22855 0
M  V30 11478 H 1112.99 1.77907 -2.41183 0
M  V30 11479 H 1110.55 0.840076 -1.38399 0
M  V30 11480 H 1112.54 3.90968 -1.04529 0
M  V30 11481 H 1111.11 3.10633 -0.350155 0
M  V30 11482 H 1110.33 2.76263 -2.81198 0
M  V30 11483 H 1111.62 3.88413 -3.28652 0
M  V30 11484 H 1111.02 5.62265 -0.622417 0
M  V30 11485 H 1109.58 6.42487 -1.09791 0
M  V30 11486 N 1113.01 1.29761 0.894412 0
M  V30 11487 C 1114.26 1.18214 1.64782 0
M  V30 11488 C 1114.59 -0.264635 1.92388 0
M  V30 11489 O 1113.86 -1.19051 1.53809 0
M  V30 11490 C 1114.15 2.00138 2.99361 0
M  V30 11491 C 1114 3.52984 2.78787 0
M  V30 11492 C 1115.32 1.83187 4.00163 0
M  V30 11493 H 1112.44 0.430802 0.597979 0
M  V30 11494 H 1115.08 1.59292 1.03566 0
M  V30 11495 H 1113.23 1.65233 3.51611 0
M  V30 11496 H 1114.9 3.97898 2.33398 0
M  V30 11497 H 1113.14 3.77642 2.13469 0
M  V30 11498 H 1113.82 4.05585 3.7444 0
M  V30 11499 H 1116.29 2.13684 3.57041 0
M  V30 11500 H 1115.17 2.42849 4.92255 0
M  V30 11501 H 1115.43 0.788469 4.35012 0
M  V30 11502 N 1114.49 -1.10549 1.12324 0
M  V30 11503 C 1115.71 -1.8681 0.900927 0
M  V30 11504 C 1116.14 -1.80049 -0.54443 0
M  V30 11505 O 1115.5 -1.16957 -1.38531 0
M  V30 11506 C 1115.54 -3.33197 1.37883 0
M  V30 11507 O 1114.65 -4.08628 0.556529 0
M  V30 11508 H 1113.99 -0.579709 0.32378 0
M  V30 11509 H 1116.52 -1.39678 1.49503 0
M  V30 11510 H 1116.53 -3.84047 1.37739 0
M  V30 11511 H 1115.2 -3.37435 2.43127 0
M  V30 11512 H 1113.78 -3.67627 0.62486 0
M  V30 11513 N 1115.97 -0.914965 -1.28321 0
M  V30 11514 C 1117.38 -0.59512 -1.76961 0
M  V30 11515 C 1117.73 0.88958 -1.74874 0
M  V30 11516 O 1116.85 1.6959 -1.34418 0
M  V30 11517 C 1117.45 -1.07353 -3.21342 0
M  V30 11518 C 1116.01 -0.804577 -3.677 0
M  V30 11519 C 1115.15 -1.23955 -2.48053 0
M  V30 11520 H 1118.1 -1.0961 -1.14767 0
M  V30 11521 H 1118.13 -0.415506 -3.78225 0
M  V30 11522 H 1117.64 -2.15413 -3.22829 0
M  V30 11523 H 1115.74 0.26277 -3.71672 0
M  V30 11524 H 1115.85 -1.41317 -4.57784 0
M  V30 11525 H 1114.22 -0.658274 -2.46046 0
M  V30 11526 H 1115 -2.32853 -2.52258 0
M  V30 11527 N 1117.44 1.42219 -0.679077 0
M  V30 11528 C 1118.35 2.346 -0.00345919 0
M  V30 11529 C 1119.37 1.55327 0.784181 0
M  V30 11530 O 1120.55 1.87878 0.725524 0
M  V30 11531 C 1117.61 3.33905 0.933194 0
M  V30 11532 C 1116.67 4.29073 0.139607 0
M  V30 11533 C 1115.9 5.23634 1.03165 0
M  V30 11534 O 1116.13 5.23234 2.27119 0
M  V30 11535 O 1115.06 5.99901 0.490159 0
M  V30 11536 H 1118.89 2.9392 -0.764525 0
M  V30 11537 H 1116.47 1.42794 -0.439329 0
M  V30 11538 H 1118.35 3.949 1.47077 0
M  V30 11539 H 1117.03 2.77052 1.67404 0
M  V30 11540 H 1115.94 3.71478 -0.442177 0
M  V30 11541 H 1117.27 4.88979 -0.562214 0
M  V30 11542 N 1118.92 0.422693 1.51826 0
M  V30 11543 C 1120.17 -0.148348 2.01555 0
M  V30 11544 C 1120.49 -1.44483 1.30956 0
M  V30 11545 O 1119.76 -1.90904 0.439599 0
M  V30 11546 H 1118.34 -0.0578116 0.74476 0
M  V30 11547 H 1121 0.562046 1.8662 0
M  V30 11548 H 1120.1 -0.334766 3.10299 0
M  V30 11549 N 1120.4 -1.5685 0.153553 0
M  V30 11550 C 1121.63 -2.0041 -0.501949 0
M  V30 11551 C 1122.04 -1.03272 -1.58529 0
M  V30 11552 O 1121.38 -0.0227479 -1.83686 0
M  V30 11553 C 1121.44 -3.40402 -1.15613 0
M  V30 11554 C 1121.11 -4.56486 -0.216596 0
M  V30 11555 C 1122.1 -5.16894 0.558267 0
M  V30 11556 C 1119.79 -5.02162 -0.117592 0
M  V30 11557 C 1121.78 -6.21392 1.41951 0
M  V30 11558 C 1119.47 -6.06514 0.747255 0
M  V30 11559 C 1120.47 -6.65999 1.51441 0
M  V30 11560 O 1120.16 -7.6833 2.36483 0
M  V30 11561 H 1119.89 -0.66247 -0.134574 0
M  V30 11562 H 1122.44 -2.03908 0.247086 0
M  V30 11563 H 1120.67 -3.33762 -1.95294 0
M  V30 11564 H 1122.36 -3.68028 -1.71202 0
M  V30 11565 H 1123.13 -4.825 0.491851 0
M  V30 11566 H 1119.01 -4.55586 -0.704462 0
M  V30 11567 H 1122.55 -6.67751 2.01877 0
M  V30 11568 H 1118.45 -6.40335 0.81494 0
M  V30 11569 H 1119.21 -7.85578 2.29803 0
M  V30 11570 N 1121.88 0.120221 -1.57141 0
M  V30 11571 C 1122.84 1.13159 -1.99318 0
M  V30 11572 C 1123.84 1.34376 -0.883158 0
M  V30 11573 O 1125.03 1.30914 -1.14922 0
M  V30 11574 C 1122.16 2.48632 -2.33227 0
M  V30 11575 H 1123.36 0.769119 -2.8987 0
M  V30 11576 H 1120.91 0.364475 -1.51991 0
M  V30 11577 H 1121.64 2.89802 -1.45551 0
M  V30 11578 H 1121.43 2.34587 -3.14184 0
M  V30 11579 H 1122.92 3.21423 -2.66603 0
M  V30 11580 N 1123.36 1.52689 0.390367 0
M  V30 11581 C 1124.31 1.73751 1.4763 0
M  V30 11582 C 1125.29 0.591572 1.4963 0
M  V30 11583 O 1126.48 0.849354 1.5529 0
M  V30 11584 C 1123.61 1.90855 2.85358 0
M  V30 11585 C 1122.7 3.11377 2.87933 0
M  V30 11586 N 1123.09 4.33751 2.6018 0
M  V30 11587 C 1121.39 3.11594 3.19101 0
M  V30 11588 C 1122.09 5.15346 2.69803 0
M  V30 11589 N 1121.06 4.51002 3.03476 0
M  V30 11590 H 1124.87 2.65994 1.24997 0
M  V30 11591 H 1122.38 1.50977 0.598301 0
M  V30 11592 H 1124.38 2.04065 3.63542 0
M  V30 11593 H 1123.04 0.998241 3.08974 0
M  V30 11594 H 1124.05 4.61907 2.34227 0
M  V30 11595 H 1120.72 2.30368 3.48191 0
M  V30 11596 H 1122.11 6.22892 2.51902 0
M  V30 11597 N 1124.83 -0.648732 1.43629 0
M  V30 11598 C 1125.76 -1.77298 1.51947 0
M  V30 11599 C 1126.75 -1.65942 0.373785 0
M  V30 11600 O 1127.93 -1.8497 0.591596 0
M  V30 11601 C 1125.06 -3.15749 1.44638 0
M  V30 11602 C 1124.01 -3.41872 2.57502 0
M  V30 11603 C 1123.34 -4.8017 2.35246 0
M  V30 11604 C 1124.64 -3.36173 3.99731 0
M  V30 11605 H 1126.33 -1.70594 2.46045 0
M  V30 11606 H 1123.88 -0.819306 1.1842 0
M  V30 11607 H 1125.83 -3.94156 1.4906 0
M  V30 11608 H 1124.56 -3.23194 0.470466 0
M  V30 11609 H 1123.22 -2.65838 2.5244 0
M  V30 11610 H 1122.86 -4.84297 1.35887 0
M  V30 11611 H 1122.56 -4.9861 3.10906 0
M  V30 11612 H 1124.09 -5.6083 2.41459 0
M  V30 11613 H 1125.5 -4.0451 4.06257 0
M  V30 11614 H 1123.9 -3.66148 4.75453 0
M  V30 11615 H 1124.97 -2.34277 4.24549 0
M  V30 11616 N 1126.31 -1.30234 -0.887518 0
M  V30 11617 C 1127.54 -1.21829 -1.67229 0
M  V30 11618 C 1127.96 0.219251 -1.87523 0
M  V30 11619 O 1127.31 1.14526 -1.42091 0
M  V30 11620 C 1127.36 -1.94044 -3.05007 0
M  V30 11621 O 1127.08 -3.32185 -2.85631 0
M  V30 11622 C 1128.59 -1.92265 -3.99436 0
M  V30 11623 H 1125.81 -0.421716 -0.521916 0
M  V30 11624 H 1128.35 -1.71816 -1.10903 0
M  V30 11625 H 1126.5 -1.47861 -3.58072 0
M  V30 11626 H 1126.92 -3.68724 -3.73018 0
M  V30 11627 H 1128.39 -2.47336 -4.93486 0
M  V30 11628 H 1128.87 -0.900984 -4.29859 0
M  V30 11629 H 1129.48 -2.38247 -3.52305 0
M  V30 11630 N 1127.79 1.09952 -1.12909 0
M  V30 11631 C 1128.74 2.14591 -0.77037 0
M  V30 11632 C 1129.72 1.59204 0.233021 0
M  V30 11633 O 1130.92 1.7696 0.0377599 0
M  V30 11634 C 1128.05 3.42514 -0.232117 0
M  V30 11635 C 1127.13 4.04823 -1.26409 0
M  V30 11636 N 1127.52 4.41763 -2.46331 0
M  V30 11637 C 1125.82 4.31951 -1.11062 0
M  V30 11638 C 1126.52 4.90778 -3.12269 0
M  V30 11639 N 1125.5 4.87896 -2.39704 0
M  V30 11640 H 1129.3 2.40951 -1.68285 0
M  V30 11641 H 1126.81 1.27125 -1.0106 0
M  V30 11642 H 1128.81 4.16878 0.0430853 0
M  V30 11643 H 1127.47 3.17612 0.674757 0
M  V30 11644 H 1128.48 4.33299 -2.83677 0
M  V30 11645 H 1125.16 4.16681 -0.261456 0
M  V30 11646 H 1126.55 5.28868 -4.14425 0
M  V30 11647 N 1129.27 0.921757 1.27833 0
M  V30 11648 C 1130.2 0.433466 2.29441 0
M  V30 11649 C 1131.18 -0.503133 1.62489 0
M  V30 11650 O 1132.36 -0.409156 1.89841 0
M  V30 11651 C 1129.49 -0.320029 3.45822 0
M  V30 11652 C 1128.45 0.528178 4.24728 0
M  V30 11653 C 1127.77 -0.354132 5.33526 0
M  V30 11654 C 1129.07 1.78959 4.90684 0
M  V30 11655 H 1130.77 1.28263 2.70535 0
M  V30 11656 H 1128.31 0.618197 1.30055 0
M  V30 11657 H 1130.27 -0.672526 4.15999 0
M  V30 11658 H 1128.99 -1.20317 3.0363 0
M  V30 11659 H 1127.65 0.863302 3.5629 0
M  V30 11660 H 1127.3 -1.23605 4.87576 0
M  V30 11661 H 1127 0.209855 5.87225 0
M  V30 11662 H 1128.52 -0.702333 6.06547 0
M  V30 11663 H 1129.94 1.50552 5.53179 0
M  V30 11664 H 1128.33 2.29661 5.54415 0
M  V30 11665 H 1129.4 2.51265 4.14721 0
M  V30 11666 N 1130.75 -1.41857 0.686609 0
M  V30 11667 C 1131.68 -2.33481 0.0298353 0
M  V30 11668 C 1132.66 -1.51329 -0.776756 0
M  V30 11669 O 1133.84 -1.79895 -0.731535 0
M  V30 11670 C 1130.97 -3.35065 -0.913707 0
M  V30 11671 C 1129.93 -4.2746 -0.214861 0
M  V30 11672 C 1129.25 -5.19346 -1.27215 0
M  V30 11673 C 1130.55 -5.14252 0.913367 0
M  V30 11674 H 1132.25 -2.8865 0.795067 0
M  V30 11675 H 1129.79 -1.38792 0.383785 0
M  V30 11676 H 1131.75 -3.98082 -1.38234 0
M  V30 11677 H 1130.47 -2.78226 -1.7105 0
M  V30 11678 H 1129.13 -3.65855 0.233651 0
M  V30 11679 H 1128.78 -4.58827 -2.06124 0
M  V30 11680 H 1128.48 -5.81996 -0.80961 0
M  V30 11681 H 1130 -5.85239 -1.74147 0
M  V30 11682 H 1131.41 -5.70887 0.525424 0
M  V30 11683 H 1129.81 -5.85796 1.30244 0
M  V30 11684 H 1130.88 -4.51949 1.75699 0
M  V30 11685 N 1132.22 -0.430739 -1.51599 0
M  V30 11686 C 1133.16 0.429107 -2.24129 0
M  V30 11687 C 1134.14 1.03019 -1.25801 0
M  V30 11688 O 1135.32 1.07392 -1.54917 0
M  V30 11689 C 1132.45 1.59749 -2.9866 0
M  V30 11690 C 1131.49 1.11773 -4.11593 0
M  V30 11691 S 1132.33 0.0651468 -5.3546 0
M  V30 11692 C 1133.48 1.23835 -6.13527 0
M  V30 11693 H 1133.71 -0.186683 -2.96713 0
M  V30 11694 H 1131.25 -0.215201 -1.52893 0
M  V30 11695 H 1133.21 2.26735 -3.42201 0
M  V30 11696 H 1131.87 2.18468 -2.25678 0
M  V30 11697 H 1131.06 1.99125 -4.62996 0
M  V30 11698 H 1130.66 0.526209 -3.7028 0
M  V30 11699 H 1132.95 2.15796 -6.42214 0
M  V30 11700 H 1133.9 0.76443 -7.03962 0
M  V30 11701 H 1134.3 1.47393 -5.44918 0
M  V30 11702 N 1133.7 1.56767 -0.161869 0
M  V30 11703 C 1134.95 1.96206 0.484537 0
M  V30 11704 C 1135.27 1.04848 1.64414 0
M  V30 11705 O 1134.54 0.112946 1.95574 0
M  V30 11706 H 1133.12 0.724491 0.181994 0
M  V30 11707 H 1135.78 1.93406 -0.240845 0
M  V30 11708 H 1134.88 3.00279 0.85083 0
M  V30 11709 N 1135.18 -0.111886 1.57202 0
M  V30 11710 C 1136.11 -1.13796 2.03894 0
M  V30 11711 C 1137.09 -1.4277 0.924696 0
M  V30 11712 O 1138.28 -1.53089 1.19488 0
M  V30 11713 C 1135.41 -2.46229 2.44925 0
M  V30 11714 C 1134.36 -2.31702 3.59859 0
M  V30 11715 C 1133.69 -3.69161 3.86813 0
M  V30 11716 C 1134.99 -1.77158 4.91337 0
M  V30 11717 H 1136.68 -0.749581 2.89865 0
M  V30 11718 H 1134.23 -0.359126 1.3945 0
M  V30 11719 H 1136.18 -3.18267 2.76195 0
M  V30 11720 H 1134.9 -2.86971 1.55933 0
M  V30 11721 H 1133.56 -1.62112 3.28809 0
M  V30 11722 H 1133.21 -4.07401 2.95015 0
M  V30 11723 H 1132.91 -3.60292 4.6418 0
M  V30 11724 H 1134.43 -4.42693 4.20542 0
M  V30 11725 H 1135.85 -2.3902 5.21097 0
M  V30 11726 H 1134.25 -1.79091 5.72753 0
M  V30 11727 H 1135.32 -0.729675 4.79379 0
M  V30 11728 N 1136.66 -1.52894 -0.382264 0
M  V30 11729 C 1137.62 -1.77497 -1.45008 0
M  V30 11730 C 1138.62 -0.64509 -1.47293 0
M  V30 11731 O 1139.81 -0.913192 -1.48346 0
M  V30 11732 C 1136.94 -1.88188 -2.8425 0
M  V30 11733 H 1138.14 -2.72849 -1.24473 0
M  V30 11734 H 1135.69 -1.43717 -0.61441 0
M  V30 11735 H 1136.42 -0.948451 -3.10121 0
M  V30 11736 H 1136.21 -2.70353 -2.83992 0
M  V30 11737 H 1137.7 -2.08873 -3.6161 0
M  V30 11738 N 1138.14 0.641106 -1.43971 0
M  V30 11739 C 1139.36 1.43324 -1.4991 0
M  V30 11740 C 1139.79 1.87705 -0.121908 0
M  V30 11741 O 1139.15 1.58127 0.886875 0
M  V30 11742 C 1139.19 2.63637 -2.46025 0
M  V30 11743 O 1138.3 3.63123 -1.95488 0
M  V30 11744 H 1137.64 0.429252 -0.506595 0
M  V30 11745 H 1140.17 0.783427 -1.89007 0
M  V30 11746 H 1140.18 3.11304 -2.63731 0
M  V30 11747 H 1138.85 2.30678 -3.46064 0
M  V30 11748 H 1137.43 3.22332 -1.87501 0
M  V30 11749 N 1139.62 1.30703 0.880598 0
M  V30 11750 C 1140.86 1.19541 1.62955 0
M  V30 11751 C 1141.18 -0.249089 1.93403 0
M  V30 11752 O 1140.45 -1.1669 1.57354 0
M  V30 11753 H 1139.03 0.439434 0.604075 0
M  V30 11754 H 1141.7 1.63888 1.05483 0
M  V30 11755 H 1140.79 1.75945 2.57779 0
M  V30 11756 N 1141.09 -1.09351 1.1349 0
M  V30 11757 C 1142.51 -1.3359 0.873269 0
M  V30 11758 C 1142.71 -1.95432 -0.490767 0
M  V30 11759 O 1141.77 -2.20117 -1.23712 0
M  V30 11760 C 1143.08 -2.24681 1.99847 0
M  V30 11761 C 1144.63 -2.38188 2.03065 0
M  V30 11762 C 1145.1 -3.32615 3.14851 0
M  V30 11763 N 1146.59 -3.40188 3.14366 0
M  V30 11764 C 1147.33 -4.13256 3.97501 0
M  V30 11765 N 1146.82 -4.89114 4.90652 0
M  V30 11766 N 1148.62 -4.08988 3.85597 0
M  V30 11767 H 1140.77 -0.675852 2.0136 0
M  V30 11768 H 1143.03 -0.360268 0.876876 0
M  V30 11769 H 1142.74 -1.86469 2.98198 0
M  V30 11770 H 1142.61 -3.25075 1.91327 0
M  V30 11771 H 1145 -2.75663 1.05327 0
M  V30 11772 H 1145.08 -1.3757 2.15658 0
M  V30 11773 H 1144.72 -2.95863 4.12829 0
M  V30 11774 H 1144.65 -4.33139 2.99496 0
M  V30 11775 H 1147.14 -2.861 2.46892 0
M  V30 11776 H 1147.46 -5.423 5.50573 0
M  V30 11777 H 1145.8 -4.882 4.94657 0
M  V30 11778 H 1148.99 -3.48826 3.12151 0
M  V30 11779 H 1149.17 -4.65671 4.50615 0
M  V30 11780 N 1142.57 -0.928524 -1.27343 0
M  V30 11781 C 1143.82 -0.565207 -1.93619 0
M  V30 11782 C 1144.13 0.897988 -1.73769 0
M  V30 11783 O 1145.34 1.37012 -2.34393 0
M  V30 11784 C 1143.8 -0.960052 -3.46859 0
M  V30 11785 C 1143.4 -2.44399 -3.75464 0
M  V30 11786 C 1145.15 -0.668026 -4.19211 0
M  V30 11787 C 1143.05 -2.77819 -5.22083 0
M  V30 11788 H 1141.98 -0.207665 -0.724839 0
M  V30 11789 H 1144.64 -1.12945 -1.44623 0
M  V30 11790 H 1143.02 -0.324454 -3.94669 0
M  V30 11791 H 1144.19 -3.12756 -3.38408 0
M  V30 11792 H 1142.51 -2.70799 -3.16317 0
M  V30 11793 H 1145.1 -0.894207 -5.2717 0
M  V30 11794 H 1145.45 0.394788 -4.14424 0
M  V30 11795 H 1145.98 -1.26276 -3.77226 0
M  V30 11796 H 1142.72 -3.83013 -5.3196 0
M  V30 11797 H 1142.24 -2.14112 -5.60282 0
M  V30 11798 H 1143.92 -2.65607 -5.89968 0
M  V30 11799 N 1144.05 1.41491 -0.694123 0
M  V30 11800 C 1145.3 2.00479 -0.221585 0
M  V30 11801 C 1145.61 1.55605 1.18518 0
M  V30 11802 O 1146.82 2.07143 1.7551 0
M  V30 11803 C 1145.27 3.5824 -0.345264 0
M  V30 11804 C 1144.88 4.12096 -1.7573 0
M  V30 11805 C 1146.63 4.24446 0.0675731 0
M  V30 11806 C 1144.53 5.62286 -1.83271 0
M  V30 11807 H 1143.46 0.749841 -0.0790854 0
M  V30 11808 H 1146.11 1.61987 -0.86211 0
M  V30 11809 H 1144.5 3.94328 0.363487 0
M  V30 11810 H 1145.67 3.8743 -2.49469 0
M  V30 11811 H 1143.98 3.58411 -2.11969 0
M  V30 11812 H 1146.58 5.34691 0.0316485 0
M  V30 11813 H 1146.92 4.01338 1.10606 0
M  V30 11814 H 1147.46 3.93388 -0.59085 0
M  V30 11815 H 1144.2 5.9022 -2.85168 0
M  V30 11816 H 1143.72 5.88883 -1.13914 0
M  V30 11817 H 1145.4 6.27033 -1.59494 0
M  V30 11818 N 1145.53 0.438773 1.51369 0
M  V30 11819 C 1146.46 -0.362467 2.3067 0
M  V30 11820 C 1147.44 -1.01973 1.36145 0
M  V30 11821 O 1148.62 -1.0231 1.65065 0
M  V30 11822 C 1145.75 -1.46313 3.14976 0
M  V30 11823 C 1144.71 -0.929272 4.1779 0
M  V30 11824 C 1144.03 -2.12579 4.90627 0
M  V30 11825 C 1145.33 0.0372782 5.22287 0
M  V30 11826 H 1147.03 0.29931 2.979 0
M  V30 11827 H 1144.57 0.14539 1.43264 0
M  V30 11828 H 1146.53 -2.03088 3.69233 0
M  V30 11829 H 1145.25 -2.15321 2.45569 0
M  V30 11830 H 1143.91 -0.383722 3.64586 0
M  V30 11831 H 1143.56 -2.8021 4.17722 0
M  V30 11832 H 1143.26 -1.77496 5.60151 0
M  V30 11833 H 1144.78 -2.69905 5.47708 0
M  V30 11834 H 1146.2 -0.44022 5.71607 0
M  V30 11835 H 1144.59 0.300748 5.99346 0
M  V30 11836 H 1145.66 0.973503 4.75027 0
M  V30 11837 N 1147.01 -1.56678 0.170181 0
M  V30 11838 C 1148.25 -1.96024 -0.475147 0
M  V30 11839 C 1148.57 -1.0588 -1.64465 0
M  V30 11840 O 1149.77 -1.34901 -2.35614 0
M  V30 11841 C 1148.23 -3.4855 -0.896704 0
M  V30 11842 C 1147.84 -4.47318 0.247142 0
M  V30 11843 C 1149.58 -3.96716 -1.51052 0
M  V30 11844 C 1147.49 -5.91082 -0.193982 0
M  V30 11845 H 1146.42 -0.731883 -0.181282 0
M  V30 11846 H 1149.07 -1.81674 0.25823 0
M  V30 11847 H 1147.45 -3.58314 -1.68603 0
M  V30 11848 H 1148.63 -4.49268 1.02445 0
M  V30 11849 H 1146.94 -4.09203 0.770839 0
M  V30 11850 H 1149.54 -5.01581 -1.85258 0
M  V30 11851 H 1149.88 -3.39588 -2.40802 0
M  V30 11852 H 1150.41 -3.89965 -0.785652 0
M  V30 11853 H 1147.15 -6.5208 0.668714 0
M  V30 11854 H 1146.67 -5.92441 -0.936675 0
M  V30 11855 H 1148.35 -6.43844 -0.638237 0
M  V30 11856 N 1148.48 0.103547 -1.57259 0
M  V30 11857 C 1149.41 1.12714 -2.04494 0
M  V30 11858 C 1150.39 1.42278 -0.932255 0
M  V30 11859 O 1151.58 1.52453 -1.20298 0
M  V30 11860 C 1148.71 2.44927 -2.46228 0
M  V30 11861 C 1147.66 2.2979 -3.61082 0
M  V30 11862 C 1146.99 3.67105 -3.88765 0
M  V30 11863 C 1148.29 1.7455 -4.9227 0
M  V30 11864 H 1149.98 0.734198 -2.90258 0
M  V30 11865 H 1147.53 0.351725 -1.39638 0
M  V30 11866 H 1149.48 3.16798 -2.77879 0
M  V30 11867 H 1148.21 2.8614 -1.57453 0
M  V30 11868 H 1146.87 1.60366 -3.29664 0
M  V30 11869 H 1146.51 4.05831 -2.97171 0
M  V30 11870 H 1146.21 3.57825 -4.66084 0
M  V30 11871 H 1147.74 4.40456 -4.22884 0
M  V30 11872 H 1149.15 2.36253 -5.22358 0
M  V30 11873 H 1147.55 1.76051 -5.73695 0
M  V30 11874 H 1148.62 0.704242 -4.79759 0
M  V30 11875 N 1149.96 1.53094 0.37415 0
M  V30 11876 C 1150.87 1.81872 1.48188 0
M  V30 11877 C 1151.89 0.706487 1.59012 0
M  V30 11878 O 1153.06 0.995648 1.75068 0
M  V30 11879 C 1150.13 1.99494 2.83554 0
M  V30 11880 C 1149.19 3.23402 2.82329 0
M  V30 11881 C 1148.42 3.40174 4.11239 0
M  V30 11882 O 1148.65 2.61425 5.06965 0
M  V30 11883 O 1147.58 4.33493 4.17573 0
M  V30 11884 H 1151.41 2.75965 1.26795 0
M  V30 11885 H 1148.99 1.38368 0.56343 0
M  V30 11886 H 1150.87 2.12705 3.63778 0
M  V30 11887 H 1149.55 1.08591 3.04942 0
M  V30 11888 H 1148.45 3.15621 2.00834 0
M  V30 11889 H 1149.79 4.14199 2.65894 0
M  V30 11890 N 1151.44 -0.633461 1.44309 0
M  V30 11891 C 1152.69 -1.39031 1.46679 0
M  V30 11892 C 1153.01 -1.94745 0.0997165 0
M  V30 11893 O 1152.28 -1.75637 -0.867659 0
M  V30 11894 H 1150.86 -0.516051 0.540093 0
M  V30 11895 H 1153.52 -0.745739 1.80069 0
M  V30 11896 H 1152.62 -2.2228 2.19085 0
M  V30 11897 N 1152.92 -1.31168 -0.873655 0
M  V30 11898 C 1154.17 -1.20404 -1.62319 0
M  V30 11899 C 1154.49 0.238829 -1.93532 0
M  V30 11900 O 1153.76 1.15854 -1.57971 0
M  V30 11901 H 1152.34 -0.442632 -0.601736 0
M  V30 11902 H 1155 -1.64445 -1.04613 0
M  V30 11903 H 1154.1 -1.77309 -2.56842 0
M  V30 11904 N 1154.4 1.08748 -1.14068 0
M  V30 11905 C 1155.63 1.84546 -0.928789 0
M  V30 11906 C 1156.03 1.81741 0.526007 0
M  V30 11907 O 1155.38 1.2169 1.37613 0
M  V30 11908 C 1155.44 3.33282 -1.34771 0
M  V30 11909 C 1155.1 3.59826 -2.81734 0
M  V30 11910 C 1156.1 3.54964 -3.79864 0
M  V30 11911 C 1153.79 3.87949 -3.19063 0
M  V30 11912 C 1155.78 3.77847 -5.13332 0
M  V30 11913 C 1153.47 4.10487 -4.52707 0
M  V30 11914 C 1154.46 4.05429 -5.49651 0
M  V30 11915 O 1154.15 4.27378 -6.80884 0
M  V30 11916 H 1153.88 0.589555 -0.330758 0
M  V30 11917 H 1156.44 1.38275 -1.51886 0
M  V30 11918 H 1154.67 3.80294 -0.700948 0
M  V30 11919 H 1156.36 3.90508 -1.10718 0
M  V30 11920 H 1157.12 3.33256 -3.52371 0
M  V30 11921 H 1153 3.91007 -2.44201 0
M  V30 11922 H 1156.55 3.73815 -5.88989 0
M  V30 11923 H 1152.44 4.31677 -4.79922 0
M  V30 11924 H 1153.21 4.44802 -6.8709 0
M  V30 11925 N 1155.87 0.935264 1.26849 0
M  V30 11926 C 1156.82 0.430895 2.28574 0
M  V30 11927 C 1157.82 -0.488739 1.62196 0
M  V30 11928 O 1159.02 -0.367605 1.76206 0
M  V30 11929 H 1155.4 0.120793 0.742235 0
M  V30 11930 H 1157.37 1.3015 2.68521 0
M  V30 11931 C 1156.12 -0.294053 3.46454 0
M  V30 11932 H 1155.44 0.404416 3.97749 0
M  V30 11933 H 1156.88 -0.611272 4.19571 0
M  V30 11934 C 1155.34 -1.50975 3.01178 0
M  V30 11935 O 1155.87 -2.60826 3.05504 0
M  V30 11936 N 1154.08 -1.36423 2.56587 0
M  V30 11937 H 1153.62 -0.470483 2.53267 0
M  V30 11938 H 1153.58 -2.17886 2.26656 0
M  V30 11939 N 1157.35 -1.41121 0.701616 0
M  V30 11940 C 1158.28 -2.33436 0.0545974 0
M  V30 11941 C 1159.26 -1.52144 -0.760662 0
M  V30 11942 O 1160.45 -1.80661 -0.712414 0
M  V30 11943 C 1157.58 -3.36015 -0.878117 0
M  V30 11944 C 1156.53 -4.27664 -0.169511 0
M  V30 11945 C 1155.86 -5.20666 -1.21699 0
M  V30 11946 C 1157.16 -5.13254 0.967859 0
M  V30 11947 H 1158.85 -2.87791 0.825637 0
M  V30 11948 H 1156.4 -1.38377 0.398484 0
M  V30 11949 H 1158.35 -3.99526 -1.34004 0
M  V30 11950 H 1157.08 -2.80024 -1.68089 0
M  V30 11951 H 1155.73 -3.65586 0.272441 0
M  V30 11952 H 1155.38 -4.60987 -2.01246 0
M  V30 11953 H 1155.08 -5.82822 -0.747836 0
M  V30 11954 H 1156.61 -5.87053 -1.6793 0
M  V30 11955 H 1158.02 -5.70298 0.585944 0
M  V30 11956 H 1156.42 -5.84381 1.3645 0
M  V30 11957 H 1157.49 -4.5006 1.80483 0
M  V30 11958 N 1158.83 -0.446794 -1.51134 0
M  V30 11959 C 1160.06 0.114893 -2.06581 0
M  V30 11960 C 1160.47 1.35642 -1.31327 0
M  V30 11961 O 1159.83 1.78595 -0.375506 0
M  V30 11962 C 1159.88 0.427589 -3.58962 0
M  V30 11963 O 1159.6 -0.764669 -4.31375 0
M  V30 11964 C 1161.1 1.03891 -4.30954 0
M  V30 11965 H 1158.32 0.00373031 -0.67099 0
M  V30 11966 H 1160.87 -0.628596 -1.94599 0
M  V30 11967 H 1159.02 1.12099 -3.70827 0
M  V30 11968 H 1159.44 -0.494605 -5.22163 0
M  V30 11969 H 1160.91 1.20764 -5.38628 0
M  V30 11970 H 1161.39 2.02252 -3.8986 0
M  V30 11971 H 1161.99 0.384623 -4.23557 0
M  V30 11972 N 1160.31 1.56586 -0.178487 0
M  V30 11973 C 1161.53 2.01915 0.473841 0
M  V30 11974 C 1161.96 1.05789 1.55533 0
M  V30 11975 O 1161.32 0.0386018 1.81259 0
M  V30 11976 C 1161.36 3.45799 1.02251 0
M  V30 11977 O 1160.47 3.52761 2.1362 0
M  V30 11978 H 1159.81 0.654372 0.112666 0
M  V30 11979 H 1162.34 2.02613 -0.284486 0
M  V30 11980 H 1162.35 3.85252 1.34332 0
M  V30 11981 H 1161.02 4.1526 0.230719 0
M  V30 11982 H 1159.6 3.25172 1.8253 0
M  V30 11983 N 1161.79 -0.095206 1.57312 0
M  V30 11984 C 1163.04 -0.797417 1.85268 0
M  V30 11985 C 1163.35 -1.79903 0.767733 0
M  V30 11986 O 1164.55 -2.54914 0.934409 0
M  V30 11987 C 1163.01 -1.469 3.28555 0
M  V30 11988 C 1162.62 -0.507152 4.4512 0
M  V30 11989 C 1164.36 -2.15494 3.65735 0
M  V30 11990 C 1162.27 -1.18331 5.79441 0
M  V30 11991 H 1161.2 -0.301552 0.691074 0
M  V30 11992 H 1163.85 -0.0503584 1.83431 0
M  V30 11993 H 1162.23 -2.26351 3.24933 0
M  V30 11994 H 1163.41 0.255858 4.60089 0
M  V30 11995 H 1161.72 0.0730882 4.16336 0
M  V30 11996 H 1164.32 -2.66816 4.63371 0
M  V30 11997 H 1164.66 -2.94383 2.94354 0
M  V30 11998 H 1165.19 -1.42903 3.71246 0
M  V30 11999 H 1161.93 -0.435238 6.54053 0
M  V30 12000 H 1161.45 -1.91775 5.68315 0
M  V30 12001 H 1163.13 -1.70983 6.23998 0
M  V30 12002 N 1163.26 -1.53291 -0.366026 0
M  V30 12003 C 1164.49 -1.73665 -1.13381 0
M  V30 12004 C 1164.91 -0.464284 -1.8228 0
M  V30 12005 O 1164.27 0.581645 -1.71717 0
M  V30 12006 C 1164.32 -2.90225 -2.14013 0
M  V30 12007 O 1163.42 -2.58803 -3.21084 0
M  V30 12008 H 1162.77 -0.576762 -0.329 0
M  V30 12009 H 1165.3 -2.00174 -0.423287 0
M  V30 12010 H 1165.31 -3.16378 -2.57622 0
M  V30 12011 H 1163.98 -3.82518 -1.63257 0
M  V30 12012 H 1162.56 -2.43466 -2.82451 0
M  V30 12013 N 1164.74 0.6258 -1.44643 0
M  V30 12014 C 1165.65 1.76611 -1.5442 0
M  V30 12015 C 1166.67 1.68614 -0.429576 0
M  V30 12016 O 1167.84 1.89296 -0.687686 0
M  V30 12017 C 1164.91 3.13015 -1.49071 0
M  V30 12018 C 1163.97 3.32604 -2.71428 0
M  V30 12019 C 1163.2 4.62501 -2.66325 0
M  V30 12020 O 1163.43 5.43651 -1.72626 0
M  V30 12021 O 1162.36 4.84408 -3.57258 0
M  V30 12022 H 1166.19 1.71315 -2.50769 0
M  V30 12023 H 1163.77 0.787677 -1.26949 0
M  V30 12024 H 1165.65 3.94318 -1.48631 0
M  V30 12025 H 1164.33 3.18842 -0.558686 0
M  V30 12026 H 1163.24 2.50959 -2.77435 0
M  V30 12027 H 1164.57 3.31642 -3.63695 0
M  V30 12028 N 1166.22 1.31629 0.866686 0
M  V30 12029 C 1167.45 1.24609 1.65793 0
M  V30 12030 C 1167.87 -0.184944 1.87189 0
M  V30 12031 O 1167.23 -1.1322 1.41601 0
M  V30 12032 C 1167.28 1.9988 3.00134 0
M  V30 12033 O 1166.38 1.33838 3.90079 0
M  V30 12034 H 1165.72 0.430051 0.505917 0
M  V30 12035 H 1168.25 1.73752 1.08035 0
M  V30 12036 H 1168.26 2.09599 3.50046 0
M  V30 12037 H 1166.94 3.03947 2.83882 0
M  V30 12038 H 1165.51 1.3259 3.48532 0
M  V30 12039 N 1167.7 -1.08142 1.14644 0
M  V30 12040 C 1168.63 -2.14476 0.779437 0
M  V30 12041 C 1169.61 -1.60812 -0.240454 0
M  V30 12042 O 1170.79 -1.88059 -0.128881 0
M  V30 12043 C 1167.92 -3.38333 0.157692 0
M  V30 12044 C 1166.97 -4.10754 1.14819 0
M  V30 12045 S 1167.8 -4.63227 2.68666 0
M  V30 12046 C 1168.96 -5.90367 2.07888 0
M  V30 12047 H 1169.19 -2.45276 1.68009 0
M  V30 12048 H 1166.72 -1.20292 0.967942 0
M  V30 12049 H 1168.68 -4.10038 -0.194607 0
M  V30 12050 H 1167.34 -3.05726 -0.720435 0
M  V30 12051 H 1166.53 -4.99644 0.661226 0
M  V30 12052 H 1166.14 -3.44974 1.44462 0
M  V30 12053 H 1168.43 -6.62107 1.43599 0
M  V30 12054 H 1169.37 -6.43764 2.94913 0
M  V30 12055 H 1169.78 -5.43507 1.52514 0
M  V30 12056 N 1169.18 -0.941978 -1.26351 0
M  V30 12057 C 1170.14 -0.456768 -2.24602 0
M  V30 12058 C 1171.14 0.432574 -1.54872 0
M  V30 12059 O 1172.33 0.23164 -1.72653 0
M  V30 12060 C 1169.46 0.341583 -3.39184 0
M  V30 12061 H 1170.66 -1.32503 -2.69041 0
M  V30 12062 H 1168.21 -0.724021 -1.38519 0
M  V30 12063 H 1168.94 1.22806 -3.00149 0
M  V30 12064 H 1168.73 -0.296268 -3.90979 0
M  V30 12065 H 1170.22 0.670955 -4.12175 0
M  V30 12066 N 1170.66 1.40747 -0.709091 0
M  V30 12067 C 1171.62 2.29118 -0.0611607 0
M  V30 12068 C 1172.62 1.45049 0.694081 0
M  V30 12069 O 1173.81 1.66039 0.526952 0
M  V30 12070 C 1170.94 3.28154 0.923447 0
M  V30 12071 H 1172.13 2.87913 -0.839413 0
M  V30 12072 H 1169.69 1.4896 -0.473363 0
M  V30 12073 H 1170.42 2.74366 1.72899 0
M  V30 12074 H 1170.21 3.90207 0.384862 0
M  V30 12075 H 1171.7 3.94343 1.37417 0
M  V30 12076 N 1172.13 0.454803 1.50895 0
M  V30 12077 C 1173.37 -0.104722 2.04132 0
M  V30 12078 C 1173.74 -1.38434 1.33042 0
M  V30 12079 O 1174.94 -2.02521 1.76745 0
M  V30 12080 C 1173.21 -0.300775 3.56132 0
M  V30 12081 S 1174.77 -0.821197 4.31047 0
M  V30 12082 H 1171.59 -0.0236407 0.710607 0
M  V30 12083 H 1174.19 0.618213 1.85468 0
M  V30 12084 H 1172.89 0.636592 4.05433 0
M  V30 12085 H 1172.42 -1.05029 3.79121 0
M  V30 12086 H 1174.44 -2.09669 4.49726 0
M  V30 12087 N 1173.61 -1.56489 0.186789 0
M  V30 12088 C 1174.84 -2.01722 -0.459993 0
M  V30 12089 C 1175.25 -1.06697 -1.5576 0
M  V30 12090 O 1174.61 -0.0704212 -1.82364 0
M  V30 12091 C 1174.66 -3.46693 -1.02401 0
M  V30 12092 O 1174.38 -4.3809 0.0297916 0
M  V30 12093 C 1175.88 -4.07403 -1.7475 0
M  V30 12094 H 1173.1 -0.660845 -0.116298 0
M  V30 12095 H 1175.65 -2.02389 0.293059 0
M  V30 12096 H 1173.8 -3.46752 -1.72749 0
M  V30 12097 H 1174.22 -5.23057 -0.388821 0
M  V30 12098 H 1175.69 -5.10718 -2.09455 0
M  V30 12099 H 1176.17 -3.50383 -2.64818 0
M  V30 12100 H 1176.77 -4.11093 -1.09007 0
M  V30 12101 N 1175.09 0.086862 -1.5736 0
M  V30 12102 C 1176.51 0.441284 -1.53378 0
M  V30 12103 C 1176.71 1.80046 -0.904748 0
M  V30 12104 O 1175.76 2.47484 -0.500781 0
M  V30 12105 C 1177.07 0.3962 -2.98078 0
M  V30 12106 C 1178.62 0.477468 -3.09337 0
M  V30 12107 C 1179.1 0.462448 -4.55659 0
M  V30 12108 N 1180.59 0.522963 -4.60238 0
M  V30 12109 C 1181.32 0.533313 -5.70914 0
M  V30 12110 N 1180.82 0.499376 -6.90998 0
M  V30 12111 N 1182.61 0.578742 -5.59113 0
M  V30 12112 H 1174.76 -0.803308 -1.96623 0
M  V30 12113 H 1177.03 -0.299879 -0.89932 0
M  V30 12114 H 1176.73 -0.535505 -3.47599 0
M  V30 12115 H 1176.61 1.21209 -3.57195 0
M  V30 12116 H 1178.99 1.39959 -2.59799 0
M  V30 12117 H 1179.07 -0.366717 -2.53158 0
M  V30 12118 H 1178.72 -0.455768 -5.05851 0
M  V30 12119 H 1178.65 1.32396 -5.09685 0
M  V30 12120 H 1181.14 0.554051 -3.73816 0
M  V30 12121 H 1181.45 0.510784 -7.7111 0
M  V30 12122 H 1179.8 0.466296 -6.93434 0
M  V30 12123 H 1182.99 0.602841 -4.64202 0
M  V30 12124 H 1183.16 0.583339 -6.45369 0
M  V30 12125 N 1176.57 1.53483 0.357892 0
M  V30 12126 C 1177.79 1.74264 1.12458 0
M  V30 12127 C 1178.22 0.473944 1.82031 0
M  V30 12128 O 1177.58 -0.57253 1.72023 0
M  V30 12129 C 1177.62 2.91356 2.12471 0
M  V30 12130 O 1176.73 2.60502 3.19707 0
M  V30 12131 H 1176.07 0.578499 0.325937 0
M  V30 12132 H 1178.6 2.00395 0.412666 0
M  V30 12133 H 1178.61 3.1774 2.5594 0
M  V30 12134 H 1177.28 3.83378 1.61226 0
M  V30 12135 H 1175.86 2.44961 2.81156 0
M  V30 12136 N 1178.05 -0.61812 1.44973 0
M  V30 12137 C 1178.98 -1.74035 1.55673 0
M  V30 12138 C 1179.96 -1.65112 0.4089 0
M  V30 12139 O 1181.14 -1.83673 0.630698 0
M  V30 12140 C 1178.27 -3.1261 1.51303 0
M  V30 12141 C 1177.23 -3.36334 2.64696 0
M  V30 12142 C 1176.55 -4.75072 2.45378 0
M  V30 12143 C 1177.85 -3.27618 4.06772 0
M  V30 12144 H 1179.55 -1.65336 2.49608 0
M  V30 12145 H 1177.09 -0.794003 1.20132 0
M  V30 12146 H 1179.04 -3.90906 1.57388 0
M  V30 12147 H 1177.77 -3.22123 0.538914 0
M  V30 12148 H 1176.43 -2.60423 2.58022 0
M  V30 12149 H 1176.08 -4.81306 1.46129 0
M  V30 12150 H 1175.78 -4.91903 3.21412 0
M  V30 12151 H 1177.3 -5.55582 2.53301 0
M  V30 12152 H 1178.71 -3.95802 4.14746 0
M  V30 12153 H 1177.11 -3.55981 4.83113 0
M  V30 12154 H 1178.18 -2.25219 4.29423 0
M  V30 12155 N 1179.52 -1.32087 -0.859693 0
M  V30 12156 C 1180.45 -1.23204 -1.98351 0
M  V30 12157 C 1181.43 -0.116974 -1.69697 0
M  V30 12158 O 1182.62 -0.303301 -1.91817 0
M  V30 12159 C 1179.75 -0.949171 -3.34078 0
M  V30 12160 C 1178.7 -2.02493 -3.77069 0
M  V30 12161 C 1178.03 -1.59455 -5.1037 0
M  V30 12162 C 1179.33 -3.43934 -3.93074 0
M  V30 12163 H 1181.02 -2.17227 -2.0604 0
M  V30 12164 H 1178.57 -1.04577 -0.989931 0
M  V30 12165 H 1180.52 -0.873594 -4.12245 0
M  V30 12166 H 1179.25 0.0267095 -3.26589 0
M  V30 12167 H 1177.91 -2.09057 -3.01149 0
M  V30 12168 H 1177.55 -0.606256 -4.99333 0
M  V30 12169 H 1177.25 -2.31429 -5.40106 0
M  V30 12170 H 1178.78 -1.53325 -5.91036 0
M  V30 12171 H 1180.19 -3.39986 -4.61608 0
M  V30 12172 H 1178.59 -4.14214 -4.3422 0
M  V30 12173 H 1179.66 -3.83965 -2.9614 0
M  V30 12174 N 1181 1.07532 -1.15215 0
M  V30 12175 C 1182.25 1.79737 -0.924062 0
M  V30 12176 C 1182.57 1.87072 0.550356 0
M  V30 12177 O 1181.84 1.37029 1.4 0
M  V30 12178 H 1180.42 0.665704 -0.338891 0
M  V30 12179 H 1183.08 1.29961 -1.45245 0
M  V30 12180 H 1182.18 2.82256 -1.33184 0
M  V30 12181 N 1182.48 0.948665 1.2585 0
M  V30 12182 C 1183.76 0.517832 1.88621 0
M  V30 12183 C 1184.14 -1.00477 1.85654 0
M  V30 12184 O 1183.49 -1.868 1.31598 0
M  V30 12185 C 1183.7 1.08768 3.31618 0
M  V30 12186 C 1185.04 1.16089 4.08422 0
M  V30 12187 O 1186.07 1.0388 3.40716 0
M  V30 12188 O 1184.93 1.35172 5.29519 0
M  V30 12189 H 1182.02 0.169916 0.809356 0
M  V30 12190 H 1184.57 1.04171 1.33964 0
M  V30 12191 H 1183.34 2.13109 3.28177 0
M  V30 12192 H 1182.96 0.54669 3.93824 0
M  V30 12193 N 1183.96 -1.40369 0.716545 0
M  V30 12194 C 1185.37 -1.83783 0.328719 0
M  V30 12195 C 1185.72 -1.5991 -1.13681 0
M  V30 12196 O 1184.85 -1.08048 -1.87496 0
M  V30 12197 C 1185.44 -3.33626 0.589848 0
M  V30 12198 C 1184 -3.7553 0.25572 0
M  V30 12199 C 1183.15 -2.63571 0.861733 0
M  V30 12200 H 1186.1 -1.29623 0.915621 0
M  V30 12201 H 1186.12 -3.80225 -0.14459 0
M  V30 12202 H 1185.63 -3.5097 1.65655 0
M  V30 12203 H 1183.73 -3.63781 -0.805883 0
M  V30 12204 H 1183.84 -4.73577 0.725388 0
M  V30 12205 H 1182.21 -2.53047 0.289706 0
M  V30 12206 H 1182.99 -2.83727 1.93272 0
M  V30 12207 N 1185.44 -0.462799 -1.50652 0
M  V30 12208 C 1186.85 -0.00568907 -1.86699 0
M  V30 12209 C 1187.2 1.39641 -1.37822 0
M  V30 12210 O 1186.32 2.03366 -0.739679 0
M  V30 12211 C 1186.92 -0.00354783 -3.388 0
M  V30 12212 C 1185.48 0.398061 -3.74289 0
M  V30 12213 C 1184.62 -0.392574 -2.74507 0
M  V30 12214 H 1187.58 -0.677469 -1.43513 0
M  V30 12215 H 1187.6 0.800456 -3.71985 0
M  V30 12216 H 1187.11 -1.02414 -3.74344 0
M  V30 12217 H 1185.21 1.42331 -3.44344 0
M  V30 12218 H 1185.32 0.105168 -4.78985 0
M  V30 12219 H 1183.69 0.152608 -2.54242 0
M  V30 12220 H 1184.47 -1.41252 -3.12894 0
M  V30 12221 N 1186.91 1.56388 -0.195085 0
M  V30 12222 C 1188.33 1.8398 0.317513 0
M  V30 12223 C 1188.68 1.11575 1.61386 0
M  V30 12224 O 1187.8 0.376557 2.13099 0
M  V30 12225 C 1188.4 3.33749 0.582859 0
M  V30 12226 C 1186.96 3.61752 1.03983 0
M  V30 12227 C 1186.1 2.77159 0.088434 0
M  V30 12228 H 1189.05 1.53072 -0.418871 0
M  V30 12229 H 1189.07 3.52519 1.43216 0
M  V30 12230 H 1188.59 3.86419 -0.360813 0
M  V30 12231 H 1186.69 3.14515 1.99778 0
M  V30 12232 H 1186.8 4.69937 0.932549 0
M  V30 12233 H 1185.16 2.47765 0.590317 0
M  V30 12234 H 1185.95 3.32619 -0.849682 0
M  V30 12235 N 1188.39 -0.0785156 1.57404 0
M  V30 12236 C 1189.32 -1.09446 2.06262 0
M  V30 12237 C 1190.3 -1.40777 0.954772 0
M  V30 12238 O 1191.49 -1.5052 1.22708 0
M  V30 12239 C 1188.62 -2.40979 2.50093 0
M  V30 12240 C 1187.57 -2.24017 3.64692 0
M  V30 12241 C 1186.9 -3.60873 3.94556 0
M  V30 12242 C 1188.2 -1.66696 4.94985 0
M  V30 12243 H 1189.89 -0.687928 2.9139 0
M  V30 12244 H 1187.44 -0.329466 1.4018 0
M  V30 12245 H 1189.39 -3.12337 2.82884 0
M  V30 12246 H 1188.12 -2.83599 1.61985 0
M  V30 12247 H 1186.77 -1.55101 3.32174 0
M  V30 12248 H 1186.42 -4.01051 3.0359 0
M  V30 12249 H 1186.12 -3.50365 4.71718 0
M  V30 12250 H 1187.65 -4.33673 4.29837 0
M  V30 12251 H 1189.06 -2.27913 5.2605 0
M  V30 12252 H 1187.46 -1.66902 5.76423 0
M  V30 12253 H 1188.53 -0.627827 4.80818 0
M  V30 12254 N 1189.87 -1.5367 -0.349747 0
M  V30 12255 C 1190.8 -1.84208 -1.43492 0
M  V30 12256 C 1191.78 -0.696725 -1.55177 0
M  V30 12257 O 1192.97 -0.948061 -1.69486 0
M  V30 12258 C 1190.1 -2.04613 -2.80625 0
M  V30 12259 C 1189.05 -3.20419 -2.83753 0
M  V30 12260 C 1188.38 -3.26147 -4.23713 0
M  V30 12261 C 1189.68 -4.58666 -2.49846 0
M  V30 12262 H 1191.37 -2.75087 -1.18185 0
M  V30 12263 H 1188.92 -1.32363 -0.567101 0
M  V30 12264 H 1190.87 -2.2456 -3.56582 0
M  V30 12265 H 1189.59 -1.10459 -3.07354 0
M  V30 12266 H 1188.25 -3.00318 -2.10249 0
M  V30 12267 H 1187.9 -2.29599 -4.47541 0
M  V30 12268 H 1187.6 -4.03963 -4.26717 0
M  V30 12269 H 1189.12 -3.48296 -5.0152 0
M  V30 12270 H 1190.54 -4.78668 -3.15516 0
M  V30 12271 H 1188.94 -5.3884 -2.64144 0
M  V30 12272 H 1190.01 -4.62697 -1.4505 0
M  V30 12273 N 1191.35 0.610423 -1.45298 0
M  V30 12274 C 1192.58 1.39621 -1.52688 0
M  V30 12275 C 1192.99 1.88133 -0.158535 0
M  V30 12276 O 1192.35 1.62051 0.839396 0
M  V30 12277 C 1192.4 2.60261 -2.50891 0
M  V30 12278 O 1192.12 2.13766 -3.82408 0
M  V30 12279 C 1193.62 3.53154 -2.6795 0
M  V30 12280 H 1190.84 0.427493 -0.517195 0
M  V30 12281 H 1193.39 0.744701 -1.90459 0
M  V30 12282 H 1191.54 3.2146 -2.162 0
M  V30 12283 H 1191.95 2.92128 -4.35616 0
M  V30 12284 H 1193.43 4.34355 -3.40647 0
M  V30 12285 H 1193.91 4.03311 -1.73888 0
M  V30 12286 H 1194.51 2.9781 -3.03627 0
M  V30 12287 N 1192.83 1.32541 0.852676 0
M  V30 12288 C 1193.76 1.24254 1.97694 0
M  V30 12289 C 1194.74 0.125971 1.69633 0
M  V30 12290 O 1195.92 0.31347 1.91653 0
M  V30 12291 C 1193.05 0.966874 3.3357 0
M  V30 12292 C 1192.01 2.0449 3.75989 0
M  V30 12293 C 1191.33 1.6216 5.09518 0
M  V30 12294 C 1192.63 3.46013 3.91244 0
M  V30 12295 H 1194.33 2.18317 2.04886 0
M  V30 12296 H 1191.87 1.05101 0.984371 0
M  V30 12297 H 1193.83 0.895444 4.11776 0
M  V30 12298 H 1192.55 -0.0093893 3.26599 0
M  V30 12299 H 1191.21 2.10651 3.00036 0
M  V30 12300 H 1190.86 0.632729 4.99005 0
M  V30 12301 H 1190.56 2.3429 5.38871 0
M  V30 12302 H 1192.08 1.56457 5.90215 0
M  V30 12303 H 1193.49 3.4243 4.59799 0
M  V30 12304 H 1191.89 4.1651 4.32017 0
M  V30 12305 H 1192.96 3.8553 2.941 0
M  V30 12306 N 1194.3 -1.0692 1.15784 0
M  V30 12307 C 1195.72 -1.61069 0.944123 0
M  V30 12308 C 1196.07 -1.8936 -0.513522 0
M  V30 12309 O 1195.19 -1.66232 -1.38549 0
M  V30 12310 C 1195.79 -2.9263 1.70743 0
M  V30 12311 C 1194.35 -3.43505 1.53887 0
M  V30 12312 C 1193.49 -2.17495 1.72021 0
M  V30 12313 H 1196.44 -0.89951 1.30746 0
M  V30 12314 H 1196.46 -3.61757 1.17951 0
M  V30 12315 H 1195.98 -2.72007 2.76828 0
M  V30 12316 H 1194.08 -3.69201 0.502153 0
M  V30 12317 H 1194.19 -4.19254 2.31868 0
M  V30 12318 H 1192.55 -2.27407 1.1471 0
M  V30 12319 H 1193.34 -1.99362 2.79481 0
M  V30 12320 N 1195.78 -0.955326 -1.25345 0
M  V30 12321 C 1197.2 -0.659863 -1.4532 0
M  V30 12322 C 1197.4 0.78238 -1.85691 0
M  V30 12323 O 1196.45 1.5576 -1.98734 0
M  V30 12324 C 1197.77 -1.63339 -2.5247 0
M  V30 12325 C 1199.32 -1.64464 -2.66309 0
M  V30 12326 C 1199.79 -2.60583 -3.76644 0
M  V30 12327 N 1201.28 -2.58951 -3.84055 0
M  V30 12328 C 1202.02 -3.30002 -4.6892 0
M  V30 12329 N 1201.51 -4.10528 -5.58067 0
M  V30 12330 N 1203.31 -3.18886 -4.62891 0
M  V30 12331 H 1195.46 -1.88734 -0.97433 0
M  V30 12332 H 1197.72 -0.811858 -0.48948 0
M  V30 12333 H 1197.43 -2.66358 -2.29665 0
M  V30 12334 H 1197.3 -1.39644 -3.50399 0
M  V30 12335 H 1199.69 -0.621622 -2.88479 0
M  V30 12336 H 1199.77 -1.92218 -1.68778 0
M  V30 12337 H 1199.41 -3.63011 -3.55226 0
M  V30 12338 H 1199.34 -2.30113 -4.73662 0
M  V30 12339 H 1201.83 -2.00491 -3.20331 0
M  V30 12340 H 1202.15 -4.6166 -6.1975 0
M  V30 12341 H 1200.49 -4.14626 -5.57773 0
M  V30 12342 H 1203.68 -2.55447 -3.92255 0
M  V30 12343 H 1203.85 -3.74524 -5.28806 0
M  V30 12344 N 1197.26 1.39987 -0.723979 0
M  V30 12345 C 1198.67 1.83606 -0.338461 0
M  V30 12346 C 1199.02 1.6051 1.12831 0
M  V30 12347 O 1198.15 1.09041 1.8692 0
M  V30 12348 C 1198.74 3.33308 -0.607533 0
M  V30 12349 C 1197.3 3.75389 -0.275632 0
M  V30 12350 C 1196.45 2.6311 -0.875699 0
M  V30 12351 H 1199.4 1.29135 -0.922483 0
M  V30 12352 H 1199.42 3.80297 0.124424 0
M  V30 12353 H 1198.93 3.50087 -1.67514 0
M  V30 12354 H 1197.03 3.64203 0.786579 0
M  V30 12355 H 1197.15 4.73185 -0.750492 0
M  V30 12356 H 1195.51 2.5289 -0.303122 0
M  V30 12357 H 1196.29 2.82698 -1.94774 0
M  V30 12358 N 1198.74 0.470782 1.50404 0
M  V30 12359 C 1200.15 0.0155901 1.86693 0
M  V30 12360 C 1200.5 -1.38908 1.38561 0
M  V30 12361 O 1199.63 -2.02971 0.750454 0
M  V30 12362 C 1200.22 0.0215152 3.38793 0
M  V30 12363 C 1198.78 -0.378206 3.74495 0
M  V30 12364 C 1197.93 0.407126 2.74295 0
M  V30 12365 H 1200.88 0.68507 1.43152 0
M  V30 12366 H 1200.9 -0.780717 3.72404 0
M  V30 12367 H 1200.41 1.04397 3.73795 0
M  V30 12368 H 1198.51 -1.40503 3.45094 0
M  V30 12369 H 1198.63 -0.0797643 4.79034 0
M  V30 12370 H 1196.99 -0.139123 2.5432 0
M  V30 12371 H 1197.77 1.42909 3.12141 0
M  V30 12372 N 1200.22 -1.56282 0.203376 0
M  V30 12373 C 1201.15 -2.2247 -0.709183 0
M  V30 12374 C 1202.13 -1.19046 -1.21499 0
M  V30 12375 O 1203.31 -1.47578 -1.26231 0
M  V30 12376 C 1200.44 -2.8905 -1.92529 0
M  V30 12377 C 1199.4 -3.98789 -1.55407 0
M  V30 12378 C 1198.72 -4.52574 -2.84747 0
M  V30 12379 C 1200.02 -5.16774 -0.75775 0
M  V30 12380 H 1201.72 -2.98986 -0.157392 0
M  V30 12381 H 1199.26 -1.43808 -0.0742613 0
M  V30 12382 H 1201.22 -3.34038 -2.56898 0
M  V30 12383 H 1199.94 -2.09952 -2.50175 0
M  V30 12384 H 1198.6 -3.54504 -0.933928 0
M  V30 12385 H 1198.25 -3.70229 -3.40499 0
M  V30 12386 H 1197.95 -5.26627 -2.6065 0
M  V30 12387 H 1199.47 -5.00269 -3.5009 0
M  V30 12388 H 1200.89 -5.58256 -1.30472 0
M  V30 12389 H 1199.28 -5.96945 -0.614583 0
M  V30 12390 H 1200.35 -4.84308 0.239476 0
M  V30 12391 N 1201.7 0.070167 -1.57444 0
M  V30 12392 C 1202.92 0.785703 -1.91941 0
M  V30 12393 C 1203.35 1.70243 -0.799932 0
M  V30 12394 O 1202.7 1.79608 0.247139 0
M  V30 12395 C 1202.75 1.55398 -3.25398 0
M  V30 12396 O 1201.86 2.66475 -3.14746 0
M  V30 12397 H 1201.2 0.214245 -0.628486 0
M  V30 12398 H 1203.73 0.0379243 -2.04565 0
M  V30 12399 H 1203.74 1.93287 -3.5931 0
M  V30 12400 H 1202.41 0.881366 -4.06454 0
M  V30 12401 H 1200.99 2.3143 -2.92394 0
M  V30 12402 N 1203.17 1.53854 0.341593 0
M  V30 12403 C 1204.42 1.70856 1.07948 0
M  V30 12404 C 1204.74 0.475474 1.89114 0
M  V30 12405 O 1204.01 -0.510592 1.89129 0
M  V30 12406 H 1202.59 0.629914 0.401519 0
M  V30 12407 H 1205.25 1.91112 0.382393 0
M  V30 12408 H 1204.35 2.5803 1.75575 0
M  V30 12409 N 1204.65 -0.602709 1.4562 0
M  V30 12410 C 1205.61 -1.69508 1.54271 0
M  V30 12411 C 1206.61 -1.55171 0.421727 0
M  V30 12412 O 1207.8 -1.60151 0.685375 0
M  V30 12413 C 1204.94 -3.0881 1.44392 0
M  V30 12414 H 1206.13 -1.63203 2.51605 0
M  V30 12415 H 1203.68 -0.818857 1.33133 0
M  V30 12416 H 1204.42 -3.20689 0.482614 0
M  V30 12417 H 1204.2 -3.20625 2.25704 0
M  V30 12418 H 1205.69 -3.8837 1.53488 0
M  V30 12419 N 1206.13 -1.32992 -0.845635 0
M  V30 12420 C 1207.06 -1.25301 -1.97033 0
M  V30 12421 C 1208.04 -0.134966 -1.69564 0
M  V30 12422 O 1209.23 -0.323629 -1.91484 0
M  V30 12423 C 1206.36 -0.984551 -3.33052 0
M  V30 12424 C 1205.31 -2.06481 -3.749 0
M  V30 12425 C 1204.64 -1.6486 -5.08651 0
M  V30 12426 C 1205.94 -3.48083 -3.89404 0
M  V30 12427 H 1207.63 -2.194 -2.03725 0
M  V30 12428 H 1205.18 -1.05621 -0.978783 0
M  V30 12429 H 1207.13 -0.917269 -4.11296 0
M  V30 12430 H 1205.85 -0.00793116 -3.26599 0
M  V30 12431 H 1204.51 -2.1224 -2.98915 0
M  V30 12432 H 1204.16 -0.659183 -4.98662 0
M  V30 12433 H 1203.86 -2.37145 -5.37621 0
M  V30 12434 H 1205.38 -1.59585 -5.89377 0
M  V30 12435 H 1206.8 -3.44863 -4.57976 0
M  V30 12436 H 1205.19 -4.18796 -4.29802 0
M  V30 12437 H 1206.26 -3.87084 -2.92051 0
M  V30 12438 N 1207.61 1.06304 -1.1635 0
M  V30 12439 C 1208.57 2.11947 -0.872419 0
M  V30 12440 C 1209.57 1.60253 0.132534 0
M  V30 12441 O 1210.76 1.73922 -0.0983441 0
M  V30 12442 C 1207.89 3.39536 -0.304646 0
M  V30 12443 H 1209.09 2.39201 -1.80894 0
M  V30 12444 H 1206.64 1.22367 -0.972419 0
M  V30 12445 H 1207.37 3.17931 0.639565 0
M  V30 12446 H 1207.16 3.78363 -1.02878 0
M  V30 12447 H 1208.65 4.17431 -0.118936 0
M  V30 12448 N 1209.09 0.96196 1.24836 0
M  V30 12449 C 1210.31 0.637709 1.97353 0
M  V30 12450 C 1210.74 -0.784919 1.7094 0
M  V30 12451 O 1210.09 -1.53188 0.969694 0
M  V30 12452 C 1210.14 0.911485 3.4889 0
M  V30 12453 O 1209.25 -0.00601668 4.124 0
M  V30 12454 H 1208.59 0.241685 0.618453 0
M  V30 12455 H 1211.12 1.29055 1.58764 0
M  V30 12456 H 1211.13 0.840702 3.99245 0
M  V30 12457 H 1209.8 1.9483 3.67442 0
M  V30 12458 H 1208.38 0.117597 3.72715 0
M  V30 12459 N 1210.56 -1.39601 0.731392 0
M  V30 12460 C 1211.81 -1.99821 0.274661 0
M  V30 12461 C 1212.13 -1.58693 -1.1435 0
M  V30 12462 O 1213.33 -2.11724 -1.69957 0
M  V30 12463 C 1211.79 -3.57199 0.440124 0
M  V30 12464 C 1211.4 -4.07292 1.86594 0
M  V30 12465 C 1213.14 -4.24476 0.0449851 0
M  V30 12466 C 1211.05 -5.57229 1.98115 0
M  V30 12467 H 1209.98 -0.747481 0.0989383 0
M  V30 12468 H 1212.63 -1.59645 0.904755 0
M  V30 12469 H 1211.01 -3.95153 -0.25881 0
M  V30 12470 H 1212.18 -3.80679 2.59654 0
M  V30 12471 H 1210.5 -3.52665 2.21397 0
M  V30 12472 H 1213.1 -5.34587 0.110126 0
M  V30 12473 H 1213.44 -4.04129 -0.999269 0
M  V30 12474 H 1213.97 -3.91683 0.694942 0
M  V30 12475 H 1210.71 -5.82452 3.00716 0
M  V30 12476 H 1210.23 -5.85656 1.29487 0
M  V30 12477 H 1211.91 -6.22584 1.76063 0
M  V30 12478 N 1212.04 -0.478751 -1.50152 0
M  V30 12479 C 1213.27 0.0710485 -2.06778 0
M  V30 12480 C 1213.69 1.32826 -1.34174 0
M  V30 12481 O 1213.04 1.77758 -0.413304 0
M  V30 12482 C 1213.09 0.351351 -3.59789 0
M  V30 12483 O 1212.81 -0.855998 -4.29656 0
M  V30 12484 C 1214.32 0.947269 -4.33061 0
M  V30 12485 H 1211.54 -0.0105032 -0.670918 0
M  V30 12486 H 1214.08 -0.669732 -1.93222 0
M  V30 12487 H 1212.23 1.04207 -3.73121 0
M  V30 12488 H 1212.65 -0.605252 -5.20996 0
M  V30 12489 H 1214.12 1.09312 -5.41068 0
M  V30 12490 H 1214.6 1.93937 -3.94062 0
M  V30 12491 H 1215.21 0.294693 -4.24278 0
M  V30 12492 N 1213.52 1.56172 -0.211661 0
M  V30 12493 C 1214.43 2.23468 0.714081 0
M  V30 12494 C 1215.45 1.23908 1.22159 0
M  V30 12495 O 1216.62 1.56693 1.26528 0
M  V30 12496 C 1213.69 2.89375 1.90953 0
M  V30 12497 C 1212.75 4.04251 1.44497 0
M  V30 12498 C 1211.98 4.67006 2.58343 0
M  V30 12499 O 1212.2 4.28721 3.76237 0
M  V30 12500 O 1211.14 5.56177 2.3011 0
M  V30 12501 H 1214.96 3.03219 0.170862 0
M  V30 12502 H 1212.55 1.49389 0.0183607 0
M  V30 12503 H 1214.43 3.3101 2.60787 0
M  V30 12504 H 1213.11 2.12591 2.44104 0
M  V30 12505 H 1212.01 3.67205 0.714932 0
M  V30 12506 H 1213.35 4.82748 0.959947 0
M  V30 12507 N 1215 -0.0618163 1.57479 0
M  V30 12508 C 1216.23 -0.771724 1.91969 0
M  V30 12509 C 1216.64 -1.7061 0.808549 0
M  V30 12510 O 1216 -1.812 -0.217455 0
M  V30 12511 C 1216.05 -1.55687 3.26257 0
M  V30 12512 O 1215.77 -0.660032 4.331 0
M  V30 12513 C 1217.27 -2.36688 3.74825 0
M  V30 12514 H 1214.49 -0.21885 0.634307 0
M  V30 12515 H 1217.04 -0.0291068 2.04479 0
M  V30 12516 H 1215.19 -2.25167 3.15244 0
M  V30 12517 H 1215.6 -1.20715 5.1042 0
M  V30 12518 H 1217.08 -2.8722 4.7139 0
M  V30 12519 H 1217.56 -3.1666 3.0434 0
M  V30 12520 H 1218.16 -1.72346 3.88815 0
M  V30 12521 N 1216.48 -1.54033 -0.333429 0
M  V30 12522 C 1217.73 -1.70979 -1.07 0
M  V30 12523 C 1218.04 -0.485095 -1.89489 0
M  V30 12524 O 1219.24 -0.535712 -2.66162 0
M  V30 12525 C 1217.7 -3.02382 -1.95175 0
M  V30 12526 C 1217.31 -4.32223 -1.17844 0
M  V30 12527 C 1219.05 -3.28693 -2.68628 0
M  V30 12528 C 1216.96 -5.54693 -2.05109 0
M  V30 12529 H 1215.89 -0.637152 -0.403179 0
M  V30 12530 H 1218.54 -1.80529 -0.328839 0
M  V30 12531 H 1216.92 -2.86714 -2.73151 0
M  V30 12532 H 1218.1 -4.58626 -0.447089 0
M  V30 12533 H 1216.41 -4.12601 -0.561166 0
M  V30 12534 H 1219.01 -4.17385 -3.34207 0
M  V30 12535 H 1219.35 -2.46141 -3.35738 0
M  V30 12536 H 1219.88 -3.45183 -1.9772 0
M  V30 12537 H 1216.62 -6.39818 -1.42523 0
M  V30 12538 H 1216.14 -5.32524 -2.76005 0
M  V30 12539 H 1217.82 -5.90722 -2.63926 0
M  V30 12540 N 1217.95 0.594978 -1.45938 0
M  V30 12541 C 1218.89 1.71909 -1.51591 0
M  V30 12542 C 1219.9 1.57671 -0.405416 0
M  V30 12543 O 1221.09 1.65321 -0.673144 0
M  V30 12544 C 1218.19 3.10041 -1.3685 0
M  V30 12545 C 1217.36 3.50399 -2.61801 0
M  V30 12546 C 1216.42 4.67542 -2.41435 0
M  V30 12547 O 1215.45 4.74022 -3.15106 0
M  V30 12548 N 1216.65 5.6163 -1.46808 0
M  V30 12549 H 1219.41 1.67518 -2.48511 0
M  V30 12550 H 1216.97 0.78062 -1.41838 0
M  V30 12551 H 1218.97 3.86183 -1.21017 0
M  V30 12552 H 1217.54 3.08868 -0.481589 0
M  V30 12553 H 1216.76 2.64088 -2.92662 0
M  V30 12554 H 1218.04 3.74125 -3.44831 0
M  V30 12555 H 1217.44 5.5912 -0.860333 0
M  V30 12556 H 1216 6.37252 -1.36942 0
M  V30 12557 N 1219.43 1.33438 0.838571 0
M  V30 12558 C 1220.68 1.25097 1.5962 0
M  V30 12559 C 1221.01 -0.182798 1.93338 0
M  V30 12560 O 1220.29 -1.1242 1.5872 0
M  V30 12561 C 1220.57 2.12655 2.90603 0
M  V30 12562 C 1220.42 3.64491 2.63565 0
M  V30 12563 C 1221.74 1.99994 3.92033 0
M  V30 12564 H 1218.86 0.455776 0.579169 0
M  V30 12565 H 1221.5 1.63542 0.967169 0
M  V30 12566 H 1219.65 1.79998 3.44286 0
M  V30 12567 H 1221.32 4.0744 2.16312 0
M  V30 12568 H 1219.57 3.86356 1.9726 0
M  V30 12569 H 1220.24 4.21101 3.569 0
M  V30 12570 H 1222.71 2.28635 3.47657 0
M  V30 12571 H 1221.59 2.63509 4.81512 0
M  V30 12572 H 1221.85 0.972263 4.31277 0
M  V30 12573 N 1220.91 -1.05686 1.16912 0
M  V30 12574 C 1221.86 -2.11584 0.849483 0
M  V30 12575 C 1222.84 -1.59959 -0.173774 0
M  V30 12576 O 1224.04 -1.76978 0.0279436 0
M  V30 12577 C 1221.17 -3.41417 0.359079 0
M  V30 12578 C 1220.25 -3.99852 1.41347 0
M  V30 12579 N 1220.64 -4.32317 2.62557 0
M  V30 12580 C 1218.94 -4.27531 1.27017 0
M  V30 12581 C 1219.64 -4.7885 3.30269 0
M  V30 12582 N 1218.62 -4.78664 2.57647 0
M  V30 12583 H 1222.42 -2.34539 1.77112 0
M  V30 12584 H 1219.93 -1.23286 1.05708 0
M  V30 12585 H 1221.93 -4.1675 0.111666 0
M  V30 12586 H 1220.59 -3.19897 -0.556413 0
M  V30 12587 H 1221.6 -4.22472 2.99563 0
M  V30 12588 H 1218.28 -4.15423 0.415924 0
M  V30 12589 H 1219.67 -5.13123 4.33768 0
M  V30 12590 N 1222.39 -0.968567 -1.24324 0
M  V30 12591 C 1223.8 -0.675239 -1.44612 0
M  V30 12592 C 1224 0.762641 -1.8651 0
M  V30 12593 O 1223.06 1.53644 -2.00374 0
M  V30 12594 C 1224.37 -1.66007 -2.50723 0
M  V30 12595 C 1225.92 -1.6728 -2.6455 0
M  V30 12596 C 1226.4 -2.64563 -3.73859 0
M  V30 12597 N 1227.89 -2.6301 -3.81287 0
M  V30 12598 C 1228.62 -3.34957 -4.65394 0
M  V30 12599 N 1228.12 -4.16424 -5.53681 0
M  V30 12600 N 1229.91 -3.23778 -4.59483 0
M  V30 12601 H 1222.06 -1.89757 -0.954257 0
M  V30 12602 H 1224.33 -0.817004 -0.480841 0
M  V30 12603 H 1224.03 -2.68779 -2.26827 0
M  V30 12604 H 1223.91 -1.43353 -3.48898 0
M  V30 12605 H 1226.29 -0.652184 -2.87803 0
M  V30 12606 H 1226.37 -1.93997 -1.6673 0
M  V30 12607 H 1226.02 -3.66759 -3.51355 0
M  V30 12608 H 1225.95 -2.35124 -4.71194 0
M  V30 12609 H 1228.44 -2.03877 -3.18186 0
M  V30 12610 H 1228.75 -4.68207 -6.14818 0
M  V30 12611 H 1227.1 -4.20518 -5.53344 0
M  V30 12612 H 1230.29 -2.59594 -3.89524 0
M  V30 12613 H 1230.46 -3.80112 -5.24804 0
M  V30 12614 N 1223.87 1.39211 -0.738786 0
M  V30 12615 C 1225.28 1.54116 -0.414773 0
M  V30 12616 C 1225.48 1.70497 1.07392 0
M  V30 12617 O 1224.54 1.7076 1.86003 0
M  V30 12618 C 1225.85 2.7567 -1.2011 0
M  V30 12619 C 1227.4 2.89508 -1.1897 0
M  V30 12620 C 1227.87 4.14005 -1.95868 0
M  V30 12621 N 1229.37 4.21052 -1.93053 0
M  V30 12622 C 1230.1 5.16341 -2.49358 0
M  V30 12623 N 1229.6 6.17396 -3.14316 0
M  V30 12624 N 1231.39 5.08585 -2.3937 0
M  V30 12625 H 1223.54 1.26827 -1.70378 0
M  V30 12626 H 1225.8 0.614983 -0.721457 0
M  V30 12627 H 1225.51 2.69922 -2.25467 0
M  V30 12628 H 1225.38 3.68443 -0.808065 0
M  V30 12629 H 1227.77 2.94747 -0.144248 0
M  V30 12630 H 1227.85 1.97788 -1.62214 0
M  V30 12631 H 1227.5 4.09527 -3.00416 0
M  V30 12632 H 1227.43 5.04776 -1.50028 0
M  V30 12633 H 1229.92 3.48669 -1.45733 0
M  V30 12634 H 1230.23 6.86572 -3.54737 0
M  V30 12635 H 1228.57 6.17772 -3.18407 0
M  V30 12636 H 1231.77 4.28573 -1.88262 0
M  V30 12637 H 1231.94 5.8267 -2.83549 0
M  V30 12638 N 1225.34 0.486708 1.49896 0
M  V30 12639 C 1226.57 -0.0599944 2.06513 0
M  V30 12640 C 1226.98 -1.32662 1.34898 0
M  V30 12641 O 1226.33 -1.78915 0.416565 0
M  V30 12642 C 1226.39 -0.39838 3.57286 0
M  V30 12643 C 1226.05 0.768465 4.50493 0
M  V30 12644 C 1227.05 1.65495 4.92856 0
M  V30 12645 C 1224.73 0.96322 4.92978 0
M  V30 12646 C 1226.73 2.72046 5.76429 0
M  V30 12647 C 1224.41 2.03193 5.7633 0
M  V30 12648 C 1225.41 2.9089 6.17958 0
M  V30 12649 O 1225.1 3.95919 6.99645 0
M  V30 12650 H 1224.83 0.0107865 0.675914 0
M  V30 12651 H 1227.39 0.679087 1.93849 0
M  V30 12652 H 1225.62 -1.19086 3.67907 0
M  V30 12653 H 1227.31 -0.882003 3.96201 0
M  V30 12654 H 1228.07 1.51624 4.6069 0
M  V30 12655 H 1223.95 0.29004 4.60087 0
M  V30 12656 H 1227.49 3.40526 6.08841 0
M  V30 12657 H 1223.39 2.17064 6.07909 0
M  V30 12658 H 1224.16 3.93097 7.17925 0
M  V30 12659 N 1226.82 -1.56058 0.219941 0
M  V30 12660 C 1228.07 -1.99306 -0.40606 0
M  V30 12661 C 1228.42 -1.10505 -1.57501 0
M  V30 12662 O 1227.72 -0.154663 -1.90975 0
M  V30 12663 C 1227.91 -3.46113 -0.8911 0
M  V30 12664 C 1227.74 -4.49115 0.229307 0
M  V30 12665 C 1226.51 -5.00495 0.695169 0
M  V30 12666 C 1228.71 -5.0353 1.04701 0
M  V30 12667 N 1226.69 -5.872 1.7908 0
M  V30 12668 C 1228.06 -5.87144 1.99154 0
M  V30 12669 C 1230.12 -4.85898 1.08663 0
M  V30 12670 C 1228.82 -6.55009 2.97246 0
M  V30 12671 C 1230.85 -5.54521 2.05572 0
M  V30 12672 C 1230.21 -6.37902 2.98765 0
M  V30 12673 H 1226.31 -0.773453 -0.115304 0
M  V30 12674 H 1228.89 -1.9186 0.331342 0
M  V30 12675 H 1227.06 -3.5401 -1.59787 0
M  V30 12676 H 1228.79 -3.76281 -1.48978 0
M  V30 12677 H 1225.55 -4.72747 0.284052 0
M  V30 12678 H 1225.97 -6.35253 2.34057 0
M  V30 12679 H 1230.61 -4.21088 0.380063 0
M  V30 12680 H 1228.33 -7.19002 3.68866 0
M  V30 12681 H 1231.92 -5.42845 2.0931 0
M  V30 12682 H 1230.8 -6.90067 3.72529 0
M  V30 12683 N 1228.3 0.053464 -1.57509 0
M  V30 12684 C 1229.72 0.408651 -1.5428 0
M  V30 12685 C 1229.92 1.78086 -0.942735 0
M  V30 12686 O 1228.97 2.46366 -0.553163 0
M  V30 12687 C 1230.29 0.332884 -2.98852 0
M  V30 12688 C 1231.83 0.411745 -3.1028 0
M  V30 12689 C 1232.31 0.365691 -4.56538 0
M  V30 12690 N 1233.8 0.425222 -4.61244 0
M  V30 12691 C 1234.54 0.412093 -5.71917 0
M  V30 12692 N 1234.03 0.352693 -6.91902 0
M  V30 12693 N 1235.82 0.460016 -5.60214 0
M  V30 12694 H 1227.98 -0.844834 -1.94875 0
M  V30 12695 H 1230.24 -0.318888 -0.892757 0
M  V30 12696 H 1229.94 -0.609116 -3.46385 0
M  V30 12697 H 1229.82 1.13605 -3.59686 0
M  V30 12698 H 1232.21 1.34417 -2.62709 0
M  V30 12699 H 1232.29 -0.420333 -2.52323 0
M  V30 12700 H 1231.93 -0.562963 -5.0477 0
M  V30 12701 H 1231.86 1.21555 -5.12379 0
M  V30 12702 H 1234.35 0.474634 -3.74908 0
M  V30 12703 H 1234.66 0.347105 -7.7202 0
M  V30 12704 H 1233.01 0.319104 -6.94267 0
M  V30 12705 H 1236.2 0.504242 -4.65376 0
M  V30 12706 H 1236.37 0.446315 -6.46461 0
M  V30 12707 N 1229.78 1.54207 0.325255 0
M  V30 12708 C 1231 1.7661 1.08736 0
M  V30 12709 C 1231.43 0.512449 1.80985 0
M  V30 12710 O 1230.79 -0.535913 1.73198 0
M  V30 12711 C 1230.84 2.95797 2.06243 0
M  V30 12712 O 1229.94 2.67225 3.14109 0
M  V30 12713 H 1229.28 0.585282 0.313593 0
M  V30 12714 H 1231.81 2.01225 0.370066 0
M  V30 12715 H 1231.82 3.23097 2.49143 0
M  V30 12716 H 1230.5 3.86712 1.53058 0
M  V30 12717 H 1229.07 2.50869 2.75897 0
M  V30 12718 N 1231.26 -0.58723 1.46251 0
M  V30 12719 C 1232.19 -1.70694 1.5933 0
M  V30 12720 C 1233.17 -1.64208 0.443831 0
M  V30 12721 O 1234.35 -1.82294 0.669516 0
M  V30 12722 C 1231.48 -3.0933 1.579 0
M  V30 12723 C 1230.44 -3.30643 2.7177 0
M  V30 12724 C 1229.76 -4.69761 2.554 0
M  V30 12725 C 1231.06 -3.18916 4.1363 0
M  V30 12726 H 1232.76 -1.60004 2.53059 0
M  V30 12727 H 1230.3 -0.768343 1.21789 0
M  V30 12728 H 1232.26 -3.87479 1.65644 0
M  V30 12729 H 1230.98 -3.20907 0.60712 0
M  V30 12730 H 1229.64 -2.54892 2.63488 0
M  V30 12731 H 1229.29 -4.78098 1.56306 0
M  V30 12732 H 1228.99 -4.84974 3.31774 0
M  V30 12733 H 1230.51 -5.50084 2.65028 0
M  V30 12734 H 1231.93 -3.86915 4.23048 0
M  V30 12735 H 1230.32 -3.45653 4.90555 0
M  V30 12736 H 1231.39 -2.1606 4.34104 0
M  V30 12737 N 1232.74 -1.33881 -0.831482 0
M  V30 12738 C 1234.15 -1.13376 -1.1233 0
M  V30 12739 C 1234.35 0.0704402 -2.01377 0
M  V30 12740 O 1233.41 0.748516 -2.4115 0
M  V30 12741 C 1234.72 -2.42484 -1.77826 0
M  V30 12742 C 1236.27 -2.4846 -1.90359 0
M  V30 12743 C 1236.74 -3.77548 -2.59272 0
M  V30 12744 N 1238.23 -3.7866 -2.66778 0
M  V30 12745 C 1238.97 -4.75258 -3.20807 0
M  V30 12746 N 1238.47 -5.82234 -3.75466 0
M  V30 12747 N 1240.26 -4.62724 -3.19128 0
M  V30 12748 H 1232.41 -2.11051 -0.238998 0
M  V30 12749 H 1234.67 -0.932893 -0.168565 0
M  V30 12750 H 1234.38 -3.30647 -1.19857 0
M  V30 12751 H 1234.25 -2.55186 -2.77777 0
M  V30 12752 H 1236.64 -1.60742 -2.47479 0
M  V30 12753 H 1236.72 -2.39693 -0.893359 0
M  V30 12754 H 1236.36 -4.65651 -2.02808 0
M  V30 12755 H 1236.29 -3.83594 -3.60781 0
M  V30 12756 H 1238.79 -3.01351 -2.28026 0
M  V30 12757 H 1239.1 -6.51968 -4.14918 0
M  V30 12758 H 1237.44 -5.85959 -3.73733 0
M  V30 12759 H 1240.63 -3.78303 -2.75688 0
M  V30 12760 H 1240.81 -5.38175 -3.60932 0
M  V30 12761 N 1234.21 1.05064 -1.1747 0
M  V30 12762 C 1235.46 1.78352 -0.965311 0
M  V30 12763 C 1235.79 1.87527 0.504707 0
M  V30 12764 O 1235.07 1.376 1.37465 0
M  V30 12765 C 1235.35 3.22173 -1.60862 0
M  V30 12766 C 1235.2 3.21003 -3.15083 0
M  V30 12767 C 1236.52 4.2004 -1.31358 0
M  V30 12768 H 1233.64 0.647452 -0.352101 0
M  V30 12769 H 1236.28 1.22794 -1.44988 0
M  V30 12770 H 1234.43 3.69613 -1.19658 0
M  V30 12771 H 1236.11 2.81629 -3.65353 0
M  V30 12772 H 1234.35 2.59309 -3.47766 0
M  V30 12773 H 1235.02 4.22516 -3.55224 0
M  V30 12774 H 1237.5 3.81099 -1.6704 0
M  V30 12775 H 1236.37 5.1891 -1.78953 0
M  V30 12776 H 1236.63 4.41477 -0.234606 0
M  V30 12777 N 1235.69 0.975146 1.23809 0
M  V30 12778 C 1236.62 0.45593 2.23599 0
M  V30 12779 C 1237.6 -0.474069 1.55536 0
M  V30 12780 O 1238.79 -0.40373 1.84126 0
M  V30 12781 C 1235.91 -0.341008 3.36979 0
M  V30 12782 C 1234.96 0.532362 4.23164 0
M  V30 12783 S 1235.79 1.97706 4.97667 0
M  V30 12784 C 1236.95 1.18912 6.145 0
M  V30 12785 H 1237.18 1.30157 2.67295 0
M  V30 12786 H 1234.71 0.78074 1.33206 0
M  V30 12787 H 1236.67 -0.794817 4.02732 0
M  V30 12788 H 1235.33 -1.16171 2.91827 0
M  V30 12789 H 1234.53 -0.0798928 5.03937 0
M  V30 12790 H 1234.13 0.922202 3.62452 0
M  V30 12791 H 1236.42 0.447823 6.76018 0
M  V30 12792 H 1237.36 1.97148 6.80102 0
M  V30 12793 H 1237.77 0.710216 5.60014 0
M  V30 12794 N 1237.17 -1.38817 0.746158 0
M  V30 12795 C 1238.12 -2.30521 0.113517 0
M  V30 12796 C 1239.09 -1.49795 -0.717682 0
M  V30 12797 O 1240.27 -1.78448 -0.675345 0
M  V30 12798 C 1237.41 -3.36185 -0.779343 0
M  V30 12799 C 1236.52 -4.3195 0.0656784 0
M  V30 12800 C 1235.66 -5.24684 -0.829492 0
M  V30 12801 C 1234.7 -6.12097 0.0196112 0
M  V30 12802 N 1233.84 -6.97152 -0.832107 0
M  V30 12803 H 1238.68 -2.84048 0.901136 0
M  V30 12804 H 1236.21 -1.39853 0.456025 0
M  V30 12805 H 1238.17 -3.96048 -1.31156 0
M  V30 12806 H 1236.8 -2.84085 -1.53282 0
M  V30 12807 H 1235.85 -3.73611 0.715445 0
M  V30 12808 H 1237.16 -4.93551 0.721735 0
M  V30 12809 H 1236.32 -5.89627 -1.42915 0
M  V30 12810 H 1235.06 -4.63431 -1.5193 0
M  V30 12811 H 1234.06 -5.46156 0.631991 0
M  V30 12812 H 1235.29 -6.75416 0.706369 0
M  V30 12813 H 1233.23 -6.38456 -1.507 0
M  V30 12814 H 1233.15 -7.55642 -0.232782 0
M  V30 12815 H 1234.42 -7.66513 -1.41697 0
M  V30 12816 N 1238.65 -0.49465 -1.49636 0
M  V30 12817 C 1239.89 0.0521945 -2.02733 0
M  V30 12818 C 1240.23 1.3723 -1.37411 0
M  V30 12819 O 1239.5 1.87758 -0.507642 0
M  V30 12820 C 1239.78 0.2114 -3.59479 0
M  V30 12821 C 1239.64 -1.13138 -4.35339 0
M  V30 12822 C 1240.96 0.955015 -4.29613 0
M  V30 12823 H 1238.08 0.0174946 -0.736792 0
M  V30 12824 H 1240.72 -0.644827 -1.78723 0
M  V30 12825 H 1238.87 0.805078 -3.80067 0
M  V30 12826 H 1240.54 -1.76345 -4.26263 0
M  V30 12827 H 1238.78 -1.72224 -3.98147 0
M  V30 12828 H 1239.45 -0.97336 -5.4335 0
M  V30 12829 H 1241.93 0.451575 -4.13642 0
M  V30 12830 H 1240.81 1.03524 -5.39049 0
M  V30 12831 H 1241.07 1.99724 -3.94414 0
M  V30 12832 N 1240.13 1.55939 -0.228214 0
M  V30 12833 C 1241.04 2.24213 0.690339 0
M  V30 12834 C 1242.05 1.25197 1.20838 0
M  V30 12835 O 1243.23 1.58026 1.24859 0
M  V30 12836 C 1240.29 2.91384 1.87873 0
M  V30 12837 C 1239.35 4.05761 1.40201 0
M  V30 12838 C 1238.59 4.6972 2.53376 0
M  V30 12839 O 1238.81 4.32687 3.71669 0
M  V30 12840 O 1237.74 5.58587 2.24198 0
M  V30 12841 H 1241.57 3.03383 0.138692 0
M  V30 12842 H 1239.15 1.494 0.00251504 0
M  V30 12843 H 1241.04 3.33758 2.57262 0
M  V30 12844 H 1239.71 2.15168 2.41835 0
M  V30 12845 H 1238.62 3.67943 0.675945 0
M  V30 12846 H 1239.95 4.83739 0.908691 0
M  V30 12847 N 1241.6 -0.0451101 1.57535 0
M  V30 12848 C 1242.88 -0.773625 1.79651 0
M  V30 12849 C 1243.26 -1.94422 0.822391 0
M  V30 12850 O 1242.61 -2.28077 -0.138913 0
M  V30 12851 C 1242.82 -1.22168 3.26919 0
M  V30 12852 C 1244.17 -1.64419 3.91474 0
M  V30 12853 O 1245.19 -1.31668 3.30971 0
M  V30 12854 O 1244.05 -2.25148 4.97967 0
M  V30 12855 H 1241.14 -0.372786 0.738214 0
M  V30 12856 H 1243.69 -0.0231245 1.69684 0
M  V30 12857 H 1242.46 -0.385302 3.89398 0
M  V30 12858 H 1242.09 -2.03269 3.41713 0
M  V30 12859 N 1243.08 -1.54377 -0.317073 0
M  V30 12860 C 1244.5 -1.45232 -0.6618 0
M  V30 12861 C 1244.7 -0.630457 -1.91383 0
M  V30 12862 O 1243.75 -0.13181 -2.52156 0
M  V30 12863 C 1245.07 -2.89025 -0.829761 0
M  V30 12864 C 1246.62 -2.98967 -0.926685 0
M  V30 12865 C 1247.09 -4.43923 -1.12677 0
M  V30 12866 N 1248.58 -4.47564 -1.19335 0
M  V30 12867 C 1249.32 -5.56887 -1.36617 0
M  V30 12868 N 1248.81 -6.76167 -1.50899 0
M  V30 12869 N 1250.61 -5.44546 -1.39377 0
M  V30 12870 H 1242.76 -2.0629 0.505766 0
M  V30 12871 H 1245.02 -0.933615 0.164522 0
M  V30 12872 H 1244.73 -3.51695 0.0190945 0
M  V30 12873 H 1244.6 -3.35515 -1.72364 0
M  V30 12874 H 1246.99 -2.36421 -1.76604 0
M  V30 12875 H 1247.07 -2.55798 -0.00913402 0
M  V30 12876 H 1246.71 -5.07059 -0.29224 0
M  V30 12877 H 1246.64 -4.84708 -2.05829 0
M  V30 12878 H 1249.13 -3.61623 -1.09715 0
M  V30 12879 H 1249.45 -7.55242 -1.63796 0
M  V30 12880 H 1247.79 -6.79062 -1.47985 0
M  V30 12881 H 1250.98 -4.50311 -1.27819 0
M  V30 12882 H 1251.15 -6.29799 -1.52502 0
M  V30 12883 N 1244.56 0.579466 -1.4656 0
M  V30 12884 C 1245.47 1.71609 -1.59961 0
M  V30 12885 C 1246.49 1.67162 -0.483002 0
M  V30 12886 O 1247.66 1.87012 -0.747561 0
M  V30 12887 C 1244.73 3.08114 -1.58954 0
M  V30 12888 C 1243.79 3.238 -2.81872 0
M  V30 12889 C 1243.02 4.53794 -2.80904 0
M  V30 12890 O 1243.24 5.37884 -1.89835 0
M  V30 12891 O 1242.18 4.72796 -3.72488 0
M  V30 12892 H 1246 1.6325 -2.56092 0
M  V30 12893 H 1243.59 0.746891 -1.2939 0
M  V30 12894 H 1245.47 3.8939 -1.611 0
M  V30 12895 H 1244.15 3.16903 -0.65984 0
M  V30 12896 H 1243.05 2.42006 -2.85279 0
M  V30 12897 H 1244.39 3.19904 -3.74062 0
M  V30 12898 N 1246.04 1.3432 0.824371 0
M  V30 12899 C 1247.29 1.26345 1.57738 0
M  V30 12900 C 1247.61 -0.166836 1.94285 0
M  V30 12901 O 1246.88 -1.09911 1.62162 0
M  V30 12902 H 1245.46 0.46466 0.584893 0
M  V30 12903 H 1248.12 1.68214 0.984373 0
M  V30 12904 H 1247.22 1.8672 2.50084 0
M  V30 12905 N 1247.52 -1.0444 1.18026 0
M  V30 12906 C 1248.93 -1.5903 0.978076 0
M  V30 12907 C 1249.28 -1.90407 -0.473241 0
M  V30 12908 O 1248.4 -1.69133 -1.34992 0
M  V30 12909 C 1249 -2.88942 1.76912 0
M  V30 12910 C 1247.56 -3.40164 1.61139 0
M  V30 12911 C 1246.7 -2.13797 1.76596 0
M  V30 12912 H 1249.66 -0.871574 1.32625 0
M  V30 12913 H 1249.68 -3.59173 1.25598 0
M  V30 12914 H 1249.19 -2.66074 2.82535 0
M  V30 12915 H 1247.29 -3.68053 0.580353 0
M  V30 12916 H 1247.4 -4.14241 2.40709 0
M  V30 12917 H 1245.77 -2.24922 1.19507 0
M  V30 12918 H 1246.55 -1.93389 2.83647 0
M  V30 12919 N 1248.99 -0.981699 -1.2329 0
M  V30 12920 C 1250.22 -0.669025 -1.96313 0
M  V30 12921 C 1250.64 0.757624 -1.72168 0
M  V30 12922 O 1250 1.51626 -0.993942 0
M  V30 12923 C 1250.05 -0.966875 -3.47396 0
M  V30 12924 O 1249.15 -0.0595933 -4.12357 0
M  V30 12925 H 1248.5 -0.251493 -0.61453 0
M  V30 12926 H 1251.03 -1.31564 -1.56691 0
M  V30 12927 H 1251.04 -0.904112 -3.97857 0
M  V30 12928 H 1249.71 -2.00651 -3.64296 0
M  V30 12929 H 1248.29 -0.176878 -3.7248 0
M  V30 12930 N 1250.47 1.3842 -0.753509 0
M  V30 12931 C 1251.7 2.04929 -0.319174 0
M  V30 12932 C 1252.12 1.56457 1.04416 0
M  V30 12933 O 1251.48 0.716527 1.6654 0
M  V30 12934 C 1251.53 3.58887 -0.351054 0
M  V30 12935 O 1250.63 4.07166 0.654963 0
M  V30 12936 H 1249.97 0.648782 -0.141343 0
M  V30 12937 H 1252.5 1.77096 -1.02461 0
M  V30 12938 H 1252.51 4.075 -0.201907 0
M  V30 12939 H 1251.19 3.93525 -1.34576 0
M  V30 12940 H 1249.77 3.69921 0.470435 0
M  V30 12941 N 1251.95 0.502579 1.49372 0
M  V30 12942 C 1253.18 -0.0403087 2.07361 0
M  V30 12943 C 1253.6 -1.29918 1.36026 0
M  V30 12944 O 1252.96 -1.76428 0.417488 0
M  V30 12945 C 1253.01 -0.275362 3.59547 0
M  V30 12946 O 1252.11 -1.34975 3.89686 0
M  V30 12947 H 1251.45 0.0269268 0.663454 0
M  V30 12948 H 1253.98 0.702652 1.92156 0
M  V30 12949 H 1253.99 -0.506392 4.04845 0
M  V30 12950 H 1252.67 0.644382 4.10878 0
M  V30 12951 H 1251.24 -1.10355 3.56197 0
M  V30 12952 N 1253.43 -1.55816 0.23648 0
M  V30 12953 C 1254.38 -2.20938 -0.66745 0
M  V30 12954 C 1255.35 -1.16982 -1.17917 0
M  V30 12955 O 1256.53 -1.45392 -1.23555 0
M  V30 12956 C 1253.67 -2.90469 -1.86337 0
M  V30 12957 C 1252.78 -4.09056 -1.38915 0
M  V30 12958 C 1251.92 -4.6633 -2.54382 0
M  V30 12959 C 1250.96 -5.77187 -2.0377 0
M  V30 12960 N 1250.09 -6.28688 -3.12564 0
M  V30 12961 H 1254.93 -2.97814 -0.105411 0
M  V30 12962 H 1252.47 -1.47045 -0.0402712 0
M  V30 12963 H 1254.43 -3.28975 -2.56576 0
M  V30 12964 H 1253.06 -2.16086 -2.39806 0
M  V30 12965 H 1252.11 -3.75934 -0.581173 0
M  V30 12966 H 1253.42 -4.89115 -0.978152 0
M  V30 12967 H 1252.58 -5.07355 -3.32679 0
M  V30 12968 H 1251.32 -3.85464 -2.98778 0
M  V30 12969 H 1250.32 -5.35648 -1.23939 0
M  V30 12970 H 1251.55 -6.59896 -1.60355 0
M  V30 12971 H 1249.49 -5.50731 -3.56414 0
M  V30 12972 H 1249.41 -7.03911 -2.75762 0
M  V30 12973 H 1250.68 -6.74371 -3.90952 0
M  V30 12974 N 1254.91 0.036755 -1.57557 0
M  V30 12975 C 1255.84 1.03939 -2.09091 0
M  V30 12976 C 1256.82 1.38196 -0.991761 0
M  V30 12977 O 1258 1.47214 -1.26656 0
M  V30 12978 C 1255.13 2.34263 -2.56394 0
M  V30 12979 C 1254.09 2.14269 -3.70504 0
M  V30 12980 C 1253.41 3.50286 -4.03985 0
M  V30 12981 C 1254.71 1.53514 -4.9923 0
M  V30 12982 H 1256.41 0.610429 -2.93111 0
M  V30 12983 H 1253.95 0.292183 -1.41005 0
M  V30 12984 H 1255.91 3.04727 -2.91066 0
M  V30 12985 H 1254.63 2.79205 -1.69447 0
M  V30 12986 H 1253.29 1.46239 -3.36169 0
M  V30 12987 H 1252.94 3.92861 -3.14116 0
M  V30 12988 H 1252.64 3.37735 -4.80842 0
M  V30 12989 H 1254.16 4.22124 -4.41184 0
M  V30 12990 H 1255.57 2.13885 -5.31908 0
M  V30 12991 H 1253.97 1.51561 -5.80646 0
M  V30 12992 H 1255.04 0.500126 -4.82314 0
M  V30 12993 N 1256.39 1.54543 0.308881 0
M  V30 12994 C 1257.63 1.73706 1.04661 0
M  V30 12995 C 1257.96 0.517111 1.87189 0
M  V30 12996 O 1257.24 -0.485856 1.88334 0
M  V30 12997 C 1257.52 3.02141 1.95916 0
M  V30 12998 C 1257.38 4.34419 1.1662 0
M  V30 12999 C 1258.69 3.26401 2.95213 0
M  V30 13000 H 1255.81 0.63203 0.379087 0
M  V30 13001 H 1258.46 1.87253 0.321947 0
M  V30 13002 H 1256.61 2.90723 2.57706 0
M  V30 13003 H 1258.28 4.57743 0.571772 0
M  V30 13004 H 1256.52 4.3126 0.468747 0
M  V30 13005 H 1257.19 5.20535 1.83704 0
M  V30 13006 H 1259.67 3.37377 2.43549 0
M  V30 13007 H 1258.54 4.17597 3.56235 0
M  V30 13008 H 1258.8 2.44322 3.68455 0
M  V30 13009 N 1257.86 -0.571685 1.46866 0
M  V30 13010 C 1259.09 -1.35524 1.56336 0
M  V30 13011 C 1259.51 -1.87647 0.208359 0
M  V30 13012 O 1258.86 -1.64219 -0.796136 0
M  V30 13013 C 1258.91 -2.53518 2.57703 0
M  V30 13014 O 1258.64 -2.03552 3.87941 0
M  V30 13015 C 1260.14 -3.45925 2.77219 0
M  V30 13016 H 1257.36 -0.41363 0.528348 0
M  V30 13017 H 1259.9 -0.693943 1.92366 0
M  V30 13018 H 1258.06 -3.15615 2.24647 0
M  V30 13019 H 1258.47 -2.80476 4.43208 0
M  V30 13020 H 1259.94 -4.2517 3.52043 0
M  V30 13021 H 1260.42 -3.98559 1.8452 0
M  V30 13022 H 1261.03 -2.89655 3.11416 0
M  V30 13023 N 1259.34 -1.34755 -0.817236 0
M  V30 13024 C 1260.29 -1.26801 -1.92848 0
M  V30 13025 C 1261.26 -0.142077 -1.65491 0
M  V30 13026 O 1262.44 -0.324006 -1.88029 0
M  V30 13027 C 1259.58 -1.03513 -3.2921 0
M  V30 13028 C 1258.7 -2.24932 -3.68822 0
M  V30 13029 C 1257.83 -1.94881 -4.94161 0
M  V30 13030 C 1256.87 -3.12411 -5.2637 0
M  V30 13031 N 1256.01 -2.82207 -6.42887 0
M  V30 13032 H 1260.85 -2.21832 -1.98983 0
M  V30 13033 H 1258.38 -1.10284 -0.973439 0
M  V30 13034 H 1260.34 -0.88047 -4.07803 0
M  V30 13035 H 1258.97 -0.121478 -3.22571 0
M  V30 13036 H 1258.02 -2.51299 -2.85575 0
M  V30 13037 H 1259.34 -3.12726 -3.88592 0
M  V30 13038 H 1258.49 -1.76184 -5.80555 0
M  V30 13039 H 1257.23 -1.04355 -4.76405 0
M  V30 13040 H 1256.23 -3.31698 -4.3847 0
M  V30 13041 H 1257.46 -4.03724 -5.46062 0
M  V30 13042 H 1255.41 -1.94263 -6.26576 0
M  V30 13043 H 1255.32 -3.63534 -6.62857 0
M  V30 13044 H 1256.59 -2.67026 -7.32337 0
M  V30 13045 N 1260.82 1.03812 -1.18578 0
M  V30 13046 C 1261.77 2.11883 -0.915115 0
M  V30 13047 C 1262.74 1.65453 0.146479 0
M  V30 13048 O 1263.92 1.90799 0.00630058 0
M  V30 13049 C 1261.06 3.42157 -0.449755 0
M  V30 13050 C 1260.17 4.02185 -1.57706 0
M  V30 13051 C 1259.31 5.20431 -1.06417 0
M  V30 13052 C 1258.35 5.72496 -2.16599 0
M  V30 13053 N 1257.49 6.82027 -1.66685 0
M  V30 13054 H 1262.33 2.34373 -1.84047 0
M  V30 13055 H 1259.86 1.14962 -0.917728 0
M  V30 13056 H 1261.82 4.16888 -0.161407 0
M  V30 13057 H 1260.45 3.19806 0.438622 0
M  V30 13058 H 1259.5 3.24757 -1.98083 0
M  V30 13059 H 1260.81 4.36851 -2.40754 0
M  V30 13060 H 1259.97 6.02286 -0.730497 0
M  V30 13061 H 1258.71 4.87276 -0.203301 0
M  V30 13062 H 1257.71 4.8926 -2.50808 0
M  V30 13063 H 1258.94 6.07694 -3.03126 0
M  V30 13064 H 1256.88 6.50742 -0.828916 0
M  V30 13065 H 1256.8 7.1577 -2.43329 0
M  V30 13066 H 1258.07 7.67499 -1.36253 0
M  V30 13067 N 1262.3 0.988223 1.22768 0
M  V30 13068 C 1263.26 0.539813 2.22752 0
M  V30 13069 C 1264.26 -0.374796 1.56371 0
M  V30 13070 O 1265.45 -0.167402 1.73394 0
M  V30 13071 C 1262.58 -0.215461 3.40218 0
M  V30 13072 H 1263.78 1.42397 2.63938 0
M  V30 13073 H 1261.33 0.774933 1.35737 0
M  V30 13074 H 1262.06 -1.11581 3.045 0
M  V30 13075 H 1261.85 0.441173 3.8961 0
M  V30 13076 H 1263.34 -0.517517 4.14381 0
M  V30 13077 N 1263.78 -1.38018 0.760839 0
M  V30 13078 C 1265.19 -1.82645 0.387022 0
M  V30 13079 C 1265.54 -1.63445 -1.08536 0
M  V30 13080 O 1264.66 -1.13958 -1.83963 0
M  V30 13081 C 1265.26 -3.3158 0.69569 0
M  V30 13082 C 1263.82 -3.74527 0.375063 0
M  V30 13083 C 1262.96 -2.60696 0.94515 0
M  V30 13084 H 1265.91 -1.26644 0.956396 0
M  V30 13085 H 1265.94 -3.80493 -0.0235511 0
M  V30 13086 H 1265.45 -3.45522 1.76737 0
M  V30 13087 H 1263.55 -3.6616 -0.689741 0
M  V30 13088 H 1263.66 -4.71029 0.875685 0
M  V30 13089 H 1262.03 -2.51997 0.370065 0
M  V30 13090 H 1262.81 -2.77434 2.02201 0
M  V30 13091 N 1265.25 -0.510493 -1.49103 0
M  V30 13092 C 1266.19 0.299697 -2.27232 0
M  V30 13093 C 1267.2 0.922102 -1.34168 0
M  V30 13094 O 1268.39 0.803836 -1.59376 0
M  V30 13095 C 1265.49 1.43778 -3.06889 0
M  V30 13096 C 1264.66 0.920927 -4.27595 0
M  V30 13097 C 1263.72 1.93777 -4.89221 0
M  V30 13098 O 1262.75 1.5025 -5.49011 0
M  V30 13099 N 1263.95 3.2688 -4.79718 0
M  V30 13100 H 1266.71 -0.37028 -2.97404 0
M  V30 13101 H 1264.27 -0.343617 -1.58212 0
M  V30 13102 H 1266.27 2.11577 -3.44988 0
M  V30 13103 H 1264.84 2.01175 -2.39264 0
M  V30 13104 H 1264.06 0.0675358 -3.94142 0
M  V30 13105 H 1265.34 0.554168 -5.05773 0
M  V30 13106 H 1264.74 3.64924 -4.32258 0
M  V30 13107 H 1263.3 3.90366 -5.21974 0
M  V30 13108 N 1266.73 1.55688 -0.24474 0
M  V30 13109 C 1268.14 1.84897 0.25882 0
M  V30 13110 C 1268.49 1.16653 1.57755 0
M  V30 13111 O 1267.62 0.444162 2.11793 0
M  V30 13112 C 1268.21 3.35434 0.476385 0
M  V30 13113 C 1266.77 3.64877 0.924213 0
M  V30 13114 C 1265.92 2.773 0.00021322 0
M  V30 13115 H 1268.87 1.51662 -0.467358 0
M  V30 13116 H 1268.89 3.56896 1.31929 0
M  V30 13117 H 1268.4 3.85076 -0.483567 0
M  V30 13118 H 1266.5 3.20711 1.89671 0
M  V30 13119 H 1266.62 4.72665 0.78257 0
M  V30 13120 H 1264.98 2.49517 0.511194 0
M  V30 13121 H 1265.76 3.29747 -0.955072 0
M  V30 13122 N 1268.21 -0.0283989 1.57574 0
M  V30 13123 C 1269.17 -1.01346 2.05576 0
M  V30 13124 C 1270.17 -1.28999 0.960001 0
M  V30 13125 O 1271.36 -1.23991 1.2236 0
M  V30 13126 C 1268.49 -2.34611 2.47327 0
M  V30 13127 H 1269.69 -0.598809 2.93861 0
M  V30 13128 H 1267.24 -0.27524 1.53857 0
M  V30 13129 H 1267.98 -2.80823 1.622 0
M  V30 13130 H 1267.76 -2.1587 3.27326 0
M  V30 13131 H 1269.25 -3.05332 2.84889 0
M  V30 13132 N 1269.69 -1.54705 -0.300681 0
M  V30 13133 C 1270.63 -1.85678 -1.37084 0
M  V30 13134 C 1271.6 -0.70573 -1.50362 0
M  V30 13135 O 1272.79 -0.954385 -1.65215 0
M  V30 13136 C 1269.93 -2.10995 -2.73084 0
M  V30 13137 C 1269.04 -3.38621 -2.68254 0
M  V30 13138 C 1268.18 -3.53779 -3.9625 0
M  V30 13139 C 1267.22 -4.75195 -3.85818 0
M  V30 13140 N 1266.35 -4.87157 -5.05591 0
M  V30 13141 H 1271.19 -2.76967 -1.09971 0
M  V30 13142 H 1268.73 -1.37147 -0.531887 0
M  V30 13143 H 1270.69 -2.23669 -3.52176 0
M  V30 13144 H 1269.32 -1.22973 -2.98458 0
M  V30 13145 H 1268.37 -3.34566 -1.81025 0
M  V30 13146 H 1269.68 -4.27834 -2.56436 0
M  V30 13147 H 1268.84 -3.66119 -4.83779 0
M  V30 13148 H 1267.58 -2.62699 -4.10902 0
M  V30 13149 H 1266.58 -4.62888 -2.96673 0
M  V30 13150 H 1267.81 -5.67683 -3.72711 0
M  V30 13151 H 1265.75 -3.99001 -5.20706 0
M  V30 13152 H 1265.67 -5.70372 -4.96197 0
M  V30 13153 H 1266.94 -5.03854 -5.9477 0
M  V30 13154 N 1271.17 0.563888 -1.47167 0
M  V30 13155 C 1272.58 1.14603 -1.47388 0
M  V30 13156 C 1272.93 1.94907 -0.224916 0
M  V30 13157 O 1272.05 2.05745 0.670672 0
M  V30 13158 C 1272.65 2.08501 -2.67044 0
M  V30 13159 C 1271.21 2.62 -2.70246 0
M  V30 13160 C 1270.35 1.38244 -2.40383 0
M  V30 13161 H 1273.31 0.350833 -1.54774 0
M  V30 13162 H 1273.33 2.92272 -2.43634 0
M  V30 13163 H 1272.84 1.50027 -3.57929 0
M  V30 13164 H 1270.94 3.24292 -1.83482 0
M  V30 13165 H 1271.05 3.0345 -3.70749 0
M  V30 13166 H 1269.42 1.68692 -1.90827 0
M  V30 13167 H 1270.2 0.815726 -3.33468 0
M  V30 13168 N 1272.64 1.35187 0.810078 0
M  V30 13169 C 1274.06 1.15149 1.10512 0
M  V30 13170 C 1274.26 -0.038394 2.01463 0
M  V30 13171 O 1273.32 -0.710056 2.42311 0
M  V30 13172 C 1274.63 2.45282 1.73946 0
M  V30 13173 C 1276.18 2.51457 1.86382 0
M  V30 13174 C 1276.65 3.81625 2.53232 0
M  V30 13175 N 1278.14 3.82856 2.6072 0
M  V30 13176 C 1278.88 4.80302 3.13206 0
M  V30 13177 N 1278.37 5.88134 3.66156 0
M  V30 13178 N 1280.17 4.67743 3.11726 0
M  V30 13179 H 1272.32 2.11405 0.205391 0
M  V30 13180 H 1274.58 0.935457 0.153702 0
M  V30 13181 H 1274.29 3.32512 1.14582 0
M  V30 13182 H 1274.16 2.59573 2.73682 0
M  V30 13183 H 1276.55 1.64659 2.44891 0
M  V30 13184 H 1276.63 2.41084 0.855113 0
M  V30 13185 H 1276.27 4.68819 1.95375 0
M  V30 13186 H 1276.2 3.89285 3.54633 0
M  V30 13187 H 1278.69 3.04941 2.23203 0
M  V30 13188 H 1279.01 6.58487 4.04494 0
M  V30 13189 H 1277.35 5.91831 3.64364 0
M  V30 13190 H 1280.54 3.82642 2.69635 0
M  V30 13191 H 1280.72 5.43849 3.52324 0
M  V30 13192 N 1274.12 -1.03182 1.19127 0
M  V30 13193 C 1275.05 -2.13301 0.94999 0
M  V30 13194 C 1276.03 -1.69707 -0.115577 0
M  V30 13195 O 1277.22 -1.94161 0.0388395 0
M  V30 13196 C 1274.35 -3.43902 0.484637 0
M  V30 13197 C 1273.3 -4.01164 1.4917 0
M  V30 13198 C 1272.63 -5.2735 0.883537 0
M  V30 13199 C 1273.93 -4.36311 2.87107 0
M  V30 13200 H 1275.62 -2.33743 1.87095 0
M  V30 13201 H 1273.17 -1.12332 0.900977 0
M  V30 13202 H 1275.12 -4.20308 0.30315 0
M  V30 13203 H 1273.85 -3.23173 -0.471909 0
M  V30 13204 H 1272.5 -3.26849 1.66028 0
M  V30 13205 H 1272.15 -5.02936 -0.0804712 0
M  V30 13206 H 1271.85 -5.66624 1.55599 0
M  V30 13207 H 1273.38 -6.06425 0.71278 0
M  V30 13208 H 1274.79 -5.03666 2.73848 0
M  V30 13209 H 1273.19 -4.86659 3.51117 0
M  V30 13210 H 1274.26 -3.45743 3.39985 0
M  V30 13211 N 1275.6 -0.99472 -1.22242 0
M  V30 13212 C 1276.56 -0.551619 -2.22463 0
M  V30 13213 C 1277.56 0.366498 -1.56568 0
M  V30 13214 O 1278.75 0.158204 -1.7348 0
M  V30 13215 C 1275.89 0.197416 -3.40328 0
M  V30 13216 H 1277.08 -1.43795 -2.63179 0
M  V30 13217 H 1274.63 -0.782121 -1.35324 0
M  V30 13218 H 1275.37 1.09965 -3.05087 0
M  V30 13219 H 1275.15 -0.461829 -3.89371 0
M  V30 13220 H 1276.64 0.495534 -4.1465 0
M  V30 13221 N 1277.08 1.37613 -0.768148 0
M  V30 13222 C 1277.99 2.34103 -0.152649 0
M  V30 13223 C 1279 1.6 0.683811 0
M  V30 13224 O 1280.18 1.92112 0.604572 0
M  V30 13225 C 1277.25 3.39164 0.718954 0
M  V30 13226 C 1276.31 4.29092 -0.13355 0
M  V30 13227 C 1275.54 5.29135 0.696547 0
M  V30 13228 O 1275.76 5.36618 1.93383 0
M  V30 13229 O 1274.7 6.01804 0.107652 0
M  V30 13230 H 1278.52 2.88462 -0.949899 0
M  V30 13231 H 1276.11 1.39711 -0.529252 0
M  V30 13232 H 1277.99 4.03454 1.21665 0
M  V30 13233 H 1276.66 2.87137 1.49445 0
M  V30 13234 H 1275.57 3.67914 -0.677528 0
M  V30 13235 H 1276.9 4.84413 -0.872048 0
M  V30 13236 N 1278.56 0.518393 1.4883 0
M  V30 13237 C 1279.97 0.175476 1.58632 0
M  V30 13238 C 1280.17 -1.32081 1.52174 0
M  V30 13239 O 1279.23 -2.09817 1.40474 0
M  V30 13240 C 1280.54 0.767722 2.90734 0
M  V30 13241 C 1282.09 0.735402 3.04238 0
M  V30 13242 C 1282.56 1.30602 4.38984 0
M  V30 13243 N 1284.06 1.26748 4.45521 0
M  V30 13244 C 1284.79 1.679 5.48267 0
M  V30 13245 N 1284.29 2.16728 6.58028 0
M  V30 13246 N 1286.08 1.59209 5.39082 0
M  V30 13247 H 1278.23 1.491 1.51271 0
M  V30 13248 H 1280.49 0.619497 0.717584 0
M  V30 13249 H 1280.2 1.81777 3.01081 0
M  V30 13250 H 1280.07 0.238119 3.76448 0
M  V30 13251 H 1282.46 -0.305852 2.93511 0
M  V30 13252 H 1282.54 1.30235 2.20165 0
M  V30 13253 H 1282.19 2.34614 4.50465 0
M  V30 13254 H 1282.12 0.714858 5.21725 0
M  V30 13255 H 1284.61 0.90991 3.66782 0
M  V30 13256 H 1284.92 2.46154 7.32549 0
M  V30 13257 H 1283.26 2.20714 6.59022 0
M  V30 13258 H 1286.46 1.20869 4.52226 0
M  V30 13259 H 1286.63 1.91602 6.19025 0
M  V30 13260 N 1280.03 -1.55556 0.252993 0
M  V30 13261 C 1280.97 -2.17683 -0.684776 0
M  V30 13262 C 1281.95 -1.13077 -1.16843 0
M  V30 13263 O 1283.13 -1.41495 -1.24545 0
M  V30 13264 C 1280.26 -2.78239 -1.93134 0
M  V30 13265 C 1279.3 -3.95953 -1.58504 0
M  V30 13266 S 1280.14 -5.31135 -0.682367 0
M  V30 13267 C 1281.29 -5.95147 -1.93779 0
M  V30 13268 H 1281.52 -2.96886 -0.156823 0
M  V30 13269 H 1279.06 -1.54355 0.0374019 0
M  V30 13270 H 1281.02 -3.13763 -2.64694 0
M  V30 13271 H 1279.68 -1.98971 -2.43042 0
M  V30 13272 H 1278.87 -4.36936 -2.51203 0
M  V30 13273 H 1278.47 -3.61738 -0.949815 0
M  V30 13274 H 1280.76 -6.13035 -2.88435 0
M  V30 13275 H 1281.71 -6.90445 -1.57135 0
M  V30 13276 H 1282.11 -5.24279 -2.09266 0
M  V30 13277 N 1281.51 0.0200419 -1.57587 0
M  V30 13278 C 1282.74 0.720556 -1.93947 0
M  V30 13279 C 1283.16 1.68407 -0.853499 0
M  V30 13280 O 1282.51 1.81713 0.169337 0
M  V30 13281 C 1282.56 1.46982 -3.3027 0
M  V30 13282 O 1282.28 0.544971 -4.34697 0
M  V30 13283 C 1283.79 2.26667 -3.80968 0
M  V30 13284 H 1281.01 0.201956 -0.639887 0
M  V30 13285 H 1283.55 -0.0251175 -2.04485 0
M  V30 13286 H 1281.7 2.16729 -3.21103 0
M  V30 13287 H 1282.12 1.07139 -5.13441 0
M  V30 13288 H 1283.59 2.74621 -4.78839 0
M  V30 13289 H 1284.07 3.0848 -3.12629 0
M  V30 13290 H 1284.68 1.61976 -3.93248 0
M  V30 13291 N 1282.99 1.54862 0.292472 0
M  V30 13292 C 1284.22 1.7855 1.04534 0
M  V30 13293 C 1284.63 0.549161 1.80637 0
M  V30 13294 O 1283.99 -0.481268 1.7604 0
M  V30 13295 C 1284.04 2.99849 2.01923 0
M  V30 13296 O 1283.76 4.18706 1.28907 0
M  V30 13297 C 1285.26 3.35991 2.8918 0
M  V30 13298 H 1282.48 0.595279 0.309652 0
M  V30 13299 H 1285.03 2.01834 0.329159 0
M  V30 13300 H 1283.18 2.78749 2.69032 0
M  V30 13301 H 1283.6 4.87151 1.94383 0
M  V30 13302 H 1285.07 4.24085 3.53349 0
M  V30 13303 H 1285.55 2.54524 3.57931 0
M  V30 13304 H 1286.15 3.59281 2.27591 0
M  V30 13305 N 1284.47 -0.556076 1.47464 0
M  V30 13306 C 1285.88 -0.882115 1.33007 0
M  V30 13307 C 1286.08 -1.9892 0.321407 0
M  V30 13308 O 1285.14 -2.51088 -0.266668 0
M  V30 13309 C 1286.45 -1.27428 2.72365 0
M  V30 13310 C 1288 -1.38564 2.80658 0
M  V30 13311 C 1288.48 -1.81136 4.20659 0
M  V30 13312 N 1289.97 -1.88284 4.23206 0
M  V30 13313 C 1290.7 -2.22555 5.28447 0
M  V30 13314 N 1290.2 -2.55432 6.43993 0
M  V30 13315 N 1291.99 -2.23339 5.15826 0
M  V30 13316 H 1284.14 0.17481 2.11679 0
M  V30 13317 H 1286.41 0.0155421 0.947873 0
M  V30 13318 H 1286.11 -0.53463 3.47613 0
M  V30 13319 H 1285.99 -2.23019 3.04208 0
M  V30 13320 H 1288.37 -2.1161 2.05682 0
M  V30 13321 H 1288.45 -0.411588 2.52467 0
M  V30 13322 H 1288.1 -1.08659 4.96141 0
M  V30 13323 H 1288.03 -2.79546 4.46275 0
M  V30 13324 H 1290.52 -1.65259 3.3985 0
M  V30 13325 H 1290.83 -2.80612 7.20053 0
M  V30 13326 H 1289.18 -2.5301 6.47311 0
M  V30 13327 H 1292.37 -1.97094 4.24584 0
M  V30 13328 H 1292.54 -2.49717 5.97951 0
M  V30 13329 N 1285.95 -1.35615 -0.802897 0
M  V30 13330 C 1286.86 -1.3096 -1.94645 0
M  V30 13331 C 1287.87 -0.213909 -1.7268 0
M  V30 13332 O 1289.05 -0.443932 -1.96446 0
M  V30 13333 C 1286.11 -1.08483 -3.2929 0
M  V30 13334 C 1285.18 -2.27401 -3.64126 0
M  V30 13335 C 1284.41 -2.05987 -4.92347 0
M  V30 13336 O 1284.63 -1.02819 -5.61057 0
M  V30 13337 O 1283.57 -2.93439 -5.25526 0
M  V30 13338 H 1287.39 -2.27209 -2.01519 0
M  V30 13339 H 1284.98 -1.16024 -0.941214 0
M  V30 13340 H 1286.86 -0.978118 -4.09891 0
M  V30 13341 H 1285.53 -0.152885 -3.23339 0
M  V30 13342 H 1284.44 -2.43638 -2.83886 0
M  V30 13343 H 1285.77 -3.19055 -3.74786 0
M  V30 13344 N 1287.43 1.02549 -1.19673 0
M  V30 13345 C 1288.37 2.109 -0.937536 0
M  V30 13346 C 1289.34 1.65599 0.128923 0
M  V30 13347 O 1290.53 1.90795 -0.0139366 0
M  V30 13348 C 1287.67 3.4166 -0.48602 0
M  V30 13349 C 1286.78 4.0049 -1.61963 0
M  V30 13350 C 1285.92 5.19273 -1.11931 0
M  V30 13351 C 1284.95 5.70166 -2.22659 0
M  V30 13352 N 1284.09 6.80221 -1.73909 0
M  V30 13353 H 1288.93 2.32408 -1.86523 0
M  V30 13354 H 1286.47 1.13982 -0.929869 0
M  V30 13355 H 1288.43 4.16693 -0.205614 0
M  V30 13356 H 1287.06 3.20253 0.404678 0
M  V30 13357 H 1286.11 3.22638 -2.01516 0
M  V30 13358 H 1287.42 4.34273 -2.45374 0
M  V30 13359 H 1286.57 6.01478 -0.794336 0
M  V30 13360 H 1285.31 4.87033 -0.254972 0
M  V30 13361 H 1284.32 4.86572 -2.55983 0
M  V30 13362 H 1285.54 6.04444 -3.09554 0
M  V30 13363 H 1283.49 6.49826 -0.897889 0
M  V30 13364 H 1283.41 7.13149 -2.50907 0
M  V30 13365 H 1284.67 7.66011 -1.44386 0
M  V30 13366 N 1288.9 1.00119 1.21713 0
M  V30 13367 C 1289.85 0.558388 2.23943 0
M  V30 13368 C 1290.82 -0.413576 1.60869 0
M  V30 13369 O 1292.01 -0.316478 1.88157 0
M  V30 13370 C 1289.15 -0.112618 3.44916 0
M  V30 13371 C 1288.26 0.902071 4.22477 0
M  V30 13372 C 1287.39 0.203722 5.30809 0
M  V30 13373 C 1286.43 1.20622 6.00097 0
M  V30 13374 N 1285.57 0.535607 7.00054 0
M  V30 13375 H 1290.41 1.43486 2.61182 0
M  V30 13376 H 1287.95 0.718572 1.28355 0
M  V30 13377 H 1289.9 -0.51865 4.13964 0
M  V30 13378 H 1288.53 -0.952827 3.08417 0
M  V30 13379 H 1287.59 1.42637 3.52645 0
M  V30 13380 H 1288.9 1.66513 4.70186 0
M  V30 13381 H 1288.05 -0.258614 6.06149 0
M  V30 13382 H 1286.79 -0.591773 4.84096 0
M  V30 13383 H 1285.8 1.6791 5.23532 0
M  V30 13384 H 1287.02 2.00273 6.48897 0
M  V30 13385 H 1284.97 -0.2403 6.5556 0
M  V30 13386 H 1284.88 1.23698 7.45812 0
M  V30 13387 H 1286.15 0.0963489 7.7944 0
M  V30 13388 N 1290.38 -1.37203 0.775435 0
M  V30 13389 C 1291.63 -1.99897 0.341936 0
M  V30 13390 C 1291.96 -1.61414 -1.07978 0
M  V30 13391 O 1291.24 -0.862108 -1.7435 0
M  V30 13392 C 1291.52 -3.56755 0.489715 0
M  V30 13393 C 1291.37 -4.05135 1.95411 0
M  V30 13394 C 1292.69 -4.39978 -0.103779 0
M  V30 13395 H 1289.81 -0.726199 0.125717 0
M  V30 13396 H 1292.45 -1.62826 0.979167 0
M  V30 13397 H 1290.6 -3.88464 -0.0527684 0
M  V30 13398 H 1292.27 -3.83975 2.55658 0
M  V30 13399 H 1290.52 -3.57192 2.46164 0
M  V30 13400 H 1291.19 -5.14161 2.00855 0
M  V30 13401 H 1293.66 -4.14547 0.359134 0
M  V30 13402 H 1292.54 -5.48892 0.0297337 0
M  V30 13403 H 1292.8 -4.25658 -1.19448 0
M  V30 13404 N 1291.86 -0.526279 -1.48553 0
M  V30 13405 C 1292.79 0.227364 -2.3239 0
M  V30 13406 C 1293.77 0.93862 -1.41859 0
M  V30 13407 O 1294.96 0.925119 -1.70749 0
M  V30 13408 C 1292.09 1.277 -3.22971 0
M  V30 13409 C 1291.04 0.684107 -4.22497 0
M  V30 13410 C 1290.37 1.83612 -5.02186 0
M  V30 13411 C 1291.67 -0.341723 -5.21181 0
M  V30 13412 H 1293.36 -0.472486 -2.95648 0
M  V30 13413 H 1290.91 -0.228669 -1.42173 0
M  V30 13414 H 1292.86 1.81215 -3.80446 0
M  V30 13415 H 1291.58 2.00638 -2.57705 0
M  V30 13416 H 1290.24 0.170505 -3.66203 0
M  V30 13417 H 1289.89 2.55379 -4.33348 0
M  V30 13418 H 1289.59 1.44536 -5.69547 0
M  V30 13419 H 1291.11 2.37513 -5.62512 0
M  V30 13420 H 1292.53 0.106207 -5.73202 0
M  V30 13421 H 1290.92 -0.649673 -5.96573 0
M  V30 13422 H 1291.99 -1.2488 -4.68543 0
M  V30 13423 N 1293.34 1.5542 -0.261239 0
M  V30 13424 C 1294.25 2.25627 0.642625 0
M  V30 13425 C 1295.26 1.27732 1.18155 0
M  V30 13426 O 1296.44 1.60639 1.21479 0
M  V30 13427 C 1293.5 2.95303 1.8165 0
M  V30 13428 C 1292.57 4.08644 1.31563 0
M  V30 13429 C 1291.8 4.74988 2.43355 0
M  V30 13430 O 1292.02 4.40474 3.62407 0
M  V30 13431 O 1290.96 5.63217 2.12299 0
M  V30 13432 H 1294.78 3.03609 0.0743091 0
M  V30 13433 H 1292.37 1.49372 -0.0291754 0
M  V30 13434 H 1294.25 3.3914 2.50125 0
M  V30 13435 H 1292.92 2.2025 2.37217 0
M  V30 13436 H 1291.83 3.69294 0.597746 0
M  V30 13437 H 1293.16 4.85558 0.805878 0
M  V30 13438 N 1294.82 -0.0116844 1.57596 0
M  V30 13439 C 1295.78 -0.991601 2.0664 0
M  V30 13440 C 1296.78 -1.27973 0.973629 0
M  V30 13441 O 1297.97 -1.22686 1.23668 0
M  V30 13442 C 1295.1 -2.31975 2.49801 0
M  V30 13443 H 1296.29 -0.567607 2.9448 0
M  V30 13444 H 1293.85 -0.258906 1.54141 0
M  V30 13445 H 1294.58 -2.79087 1.65169 0
M  V30 13446 H 1294.37 -2.12386 3.29598 0
M  V30 13447 H 1295.86 -3.02294 2.88112 0
M  V30 13448 N 1296.29 -1.55015 -0.284256 0
M  V30 13449 C 1297.54 -1.74744 -1.01532 0
M  V30 13450 C 1297.86 -0.545334 -1.87219 0
M  V30 13451 O 1297.13 0.440046 -1.90894 0
M  V30 13452 H 1295.71 -0.644382 -0.377864 0
M  V30 13453 H 1298.37 -1.92399 -0.311199 0
M  V30 13454 H 1297.47 -2.64369 -1.65878 0
M  V30 13455 N 1297.77 0.548248 -1.47757 0
M  V30 13456 C 1298.7 1.6705 -1.55466 0
M  V30 13457 C 1299.68 1.57444 -0.406208 0
M  V30 13458 O 1300.87 1.78176 -0.615268 0
M  V30 13459 C 1297.99 3.0535 -1.46558 0
M  V30 13460 C 1297.04 3.33372 -2.66017 0
M  V30 13461 S 1297.87 3.21643 -4.28143 0
M  V30 13462 C 1299.03 4.62421 -4.21803 0
M  V30 13463 H 1299.26 1.60258 -2.50409 0
M  V30 13464 H 1296.79 0.72978 -1.36065 0
M  V30 13465 H 1298.75 3.85118 -1.42106 0
M  V30 13466 H 1297.41 3.09599 -0.529838 0
M  V30 13467 H 1296.61 4.34218 -2.55873 0
M  V30 13468 H 1296.21 2.6124 -2.67638 0
M  V30 13469 H 1298.5 5.53561 -3.9061 0
M  V30 13470 H 1299.44 4.77621 -5.22766 0
M  V30 13471 H 1299.85 4.40887 -3.52532 0
M  V30 13472 N 1299.25 1.36039 0.795694 0
M  V30 13473 C 1300.5 1.29663 1.55023 0
M  V30 13474 C 1300.82 -0.125588 1.94595 0
M  V30 13475 O 1300.09 -1.06447 1.64456 0
M  V30 13476 H 1298.67 0.476962 0.574906 0
M  V30 13477 H 1301.33 1.70265 0.948471 0
M  V30 13478 H 1300.43 1.91982 2.46068 0
M  V30 13479 N 1300.73 -1.01913 1.20215 0
M  V30 13480 C 1301.68 -2.104 0.948708 0
M  V30 13481 C 1302.65 -1.65665 -0.120139 0
M  V30 13482 O 1303.83 -1.90785 0.0240547 0
M  V30 13483 C 1300.97 -3.41398 0.504132 0
M  V30 13484 C 1300.08 -3.99625 1.64085 0
M  V30 13485 C 1299.22 -5.18673 1.14683 0
M  V30 13486 C 1298.26 -5.68977 2.2568 0
M  V30 13487 N 1297.39 -6.79289 1.77514 0
M  V30 13488 H 1302.23 -2.31415 1.87753 0
M  V30 13489 H 1299.77 -1.13487 0.935901 0
M  V30 13490 H 1301.73 -4.16578 0.22771 0
M  V30 13491 H 1300.36 -3.20463 -0.387689 0
M  V30 13492 H 1299.41 -3.21565 2.03225 0
M  V30 13493 H 1300.72 -4.32965 2.47674 0
M  V30 13494 H 1299.88 -6.01048 0.826223 0
M  V30 13495 H 1298.62 -4.86891 0.280797 0
M  V30 13496 H 1297.62 -4.85208 2.5856 0
M  V30 13497 H 1298.85 -6.02794 3.12755 0
M  V30 13498 H 1296.79 -6.49341 0.932338 0
M  V30 13499 H 1296.71 -7.11808 2.54686 0
M  V30 13500 H 1297.98 -7.65235 1.48446 0
M  V30 13501 N 1302.21 -1.00763 -1.2118 0
M  V30 13502 C 1303.45 -0.692851 -1.90598 0
M  V30 13503 C 1303.79 0.774698 -1.78079 0
M  V30 13504 O 1303.06 1.56186 -1.15914 0
M  V30 13505 C 1303.34 -1.11792 -3.42308 0
M  V30 13506 C 1303.2 -2.64511 -3.63805 0
M  V30 13507 C 1304.52 -0.682314 -4.34779 0
M  V30 13508 H 1301.63 -0.253175 -0.69215 0
M  V30 13509 H 1304.28 -1.25378 -1.4276 0
M  V30 13510 H 1302.43 -0.640665 -3.83181 0
M  V30 13511 H 1304.1 -3.20021 -3.32242 0
M  V30 13512 H 1302.34 -3.05903 -3.0758 0
M  V30 13513 H 1303.01 -2.89306 -4.70113 0
M  V30 13514 H 1305.49 -1.09247 -4.01503 0
M  V30 13515 H 1304.36 -1.00787 -5.39568 0
M  V30 13516 H 1304.63 0.416441 -4.40134 0
M  V30 13517 N 1303.68 1.3679 -0.7827 0
M  V30 13518 C 1304.91 2.03678 -0.363734 0
M  V30 13519 C 1305.33 1.59024 1.01768 0
M  V30 13520 O 1304.68 0.776541 1.65155 0
M  V30 13521 C 1304.74 3.59165 -0.410213 0
M  V30 13522 O 1304.46 4.02188 -1.73714 0
M  V30 13523 C 1305.96 4.43296 0.018972 0
M  V30 13524 H 1303.18 0.653828 -0.150829 0
M  V30 13525 H 1305.72 1.74903 -1.05968 0
M  V30 13526 H 1303.88 3.86673 0.237249 0
M  V30 13527 H 1304.29 4.96754 -1.68332 0
M  V30 13528 H 1305.76 5.51962 -0.0646943 0
M  V30 13529 H 1306.24 4.25948 1.07076 0
M  V30 13530 H 1306.85 4.21036 -0.600721 0
M  V30 13531 N 1305.16 0.53415 1.48272 0
M  V30 13532 C 1306.39 0.00368464 2.074 0
M  V30 13533 C 1306.81 -1.27003 1.38751 0
M  V30 13534 O 1306.17 -1.75502 0.454817 0
M  V30 13535 C 1306.22 -0.199034 3.6005 0
M  V30 13536 O 1305.32 -1.26679 3.92462 0
M  V30 13537 H 1304.66 0.0409936 0.662733 0
M  V30 13538 H 1307.19 0.743253 1.90622 0
M  V30 13539 H 1307.2 -0.420404 4.05828 0
M  V30 13540 H 1305.88 0.731391 4.09418 0
M  V30 13541 H 1304.46 -1.02775 3.58457 0
M  V30 13542 N 1306.64 -1.55279 0.269478 0
M  V30 13543 C 1307.6 -2.21008 -0.607299 0
M  V30 13544 C 1308.6 -1.18619 -1.08564 0
M  V30 13545 O 1309.79 -1.4356 -0.986721 0
M  V30 13546 C 1306.93 -2.87157 -1.83721 0
M  V30 13547 H 1308.12 -2.99881 -0.0334894 0
M  V30 13548 H 1305.67 -1.56287 0.0200573 0
M  V30 13549 H 1306.41 -2.12281 -2.45168 0
M  V30 13550 H 1306.19 -3.62183 -1.5022 0
M  V30 13551 H 1307.68 -3.37391 -2.46083 0
M  V30 13552 N 1308.12 0.00332656 -1.576 0
M  V30 13553 C 1309.34 0.703587 -1.95101 0
M  V30 13554 C 1309.77 1.66697 -0.871418 0
M  V30 13555 O 1309.13 1.80494 0.170739 0
M  V30 13556 C 1309.17 1.41457 -3.31696 0
M  V30 13557 O 1308.28 2.52885 -3.25765 0
M  V30 13558 H 1307.62 0.187396 -0.637008 0
M  V30 13559 H 1310.15 -0.0488727 -2.04542 0
M  V30 13560 H 1310.16 1.77874 -3.67185 0
M  V30 13561 H 1308.83 0.708182 -4.09826 0
M  V30 13562 H 1307.41 2.18821 -3.01947 0
M  V30 13563 N 1309.6 1.55164 0.276031 0
M  V30 13564 C 1310.84 1.75627 1.00803 0
M  V30 13565 C 1311.17 0.555696 1.86393 0
M  V30 13566 O 1310.43 -0.461872 1.90172 0
M  V30 13567 C 1310.73 3.0127 1.92279 0
M  V30 13568 C 1310.39 4.33951 1.22464 0
M  V30 13569 C 1309.05 4.70013 1.03158 0
M  V30 13570 C 1311.41 5.16097 0.72758 0
M  V30 13571 C 1308.73 5.85779 0.328699 0
M  V30 13572 C 1311.09 6.32588 0.0383001 0
M  V30 13573 C 1309.75 6.67292 -0.166494 0
M  V30 13574 H 1309.02 0.642665 0.368866 0
M  V30 13575 H 1311.67 1.89433 0.280595 0
M  V30 13576 H 1309.97 2.82351 2.71634 0
M  V30 13577 H 1311.67 3.14299 2.49032 0
M  V30 13578 H 1308.26 4.05605 1.38501 0
M  V30 13579 H 1312.44 4.88715 0.864365 0
M  V30 13580 H 1307.7 6.11192 0.159279 0
M  V30 13581 H 1311.87 6.95496 -0.354631 0
M  V30 13582 H 1309.5 7.56848 -0.713124 0
M  V30 13583 N 1311.07 -0.540404 1.48045 0
M  V30 13584 C 1312.32 -1.29422 1.55224 0
M  V30 13585 C 1312.64 -1.93716 0.223365 0
M  V30 13586 O 1311.91 -1.808 -0.754204 0
M  V30 13587 H 1310.49 -0.480658 0.571819 0
M  V30 13588 H 1313.16 -0.629712 1.84447 0
M  V30 13589 H 1312.25 -2.07897 2.32777 0
M  V30 13590 N 1312.55 -1.36459 -0.788468 0
M  V30 13591 C 1313.46 -1.33017 -1.93245 0
M  V30 13592 C 1314.48 -0.232212 -1.72444 0
M  V30 13593 O 1315.65 -0.464743 -1.95965 0
M  V30 13594 C 1312.72 -1.1197 -3.28121 0
M  V30 13595 C 1311.78 -2.3125 -3.61693 0
M  V30 13596 C 1311.01 -2.11197 -4.90134 0
M  V30 13597 O 1311.24 -1.08764 -5.59934 0
M  V30 13598 O 1310.17 -2.98996 -5.22384 0
M  V30 13599 H 1314 -2.29333 -1.99098 0
M  V30 13600 H 1311.58 -1.17016 -0.928856 0
M  V30 13601 H 1313.46 -1.02154 -4.08831 0
M  V30 13602 H 1312.14 -0.187171 -3.23158 0
M  V30 13603 H 1311.05 -2.46635 -2.81286 0
M  V30 13604 H 1312.38 -3.23012 -3.71381 0
M  V30 13605 N 1314.03 1.01274 -1.20754 0
M  V30 13606 C 1314.94 2.1335 -0.975656 0
M  V30 13607 C 1315.96 1.7386 0.0697364 0
M  V30 13608 O 1317.13 2.01051 -0.118578 0
M  V30 13609 C 1314.2 3.42548 -0.534931 0
M  V30 13610 C 1313.26 3.96257 -1.65163 0
M  V30 13611 C 1312.49 5.19289 -1.23184 0
M  V30 13612 O 1312.71 5.70309 -0.102158 0
M  V30 13613 O 1311.65 5.66248 -2.04076 0
M  V30 13614 H 1315.47 2.35783 -1.91415 0
M  V30 13615 H 1313.06 1.11736 -0.991743 0
M  V30 13616 H 1314.94 4.20341 -0.298568 0
M  V30 13617 H 1313.62 3.21521 0.374937 0
M  V30 13618 H 1312.52 3.19726 -1.94232 0
M  V30 13619 H 1313.86 4.2168 -2.53864 0
M  V30 13620 N 1315.51 1.01404 1.20644 0
M  V30 13621 C 1316.73 0.720839 1.9447 0
M  V30 13622 C 1317.16 -0.711711 1.74116 0
M  V30 13623 O 1316.52 -1.48938 1.03379 0
M  V30 13624 C 1316.57 1.05864 3.4471 0
M  V30 13625 O 1315.67 0.168901 4.12054 0
M  V30 13626 H 1315.01 0.267698 0.607646 0
M  V30 13627 H 1317.54 1.35672 1.53147 0
M  V30 13628 H 1317.55 1.00928 3.9532 0
M  V30 13629 H 1316.23 2.1024 3.58848 0
M  V30 13630 H 1314.8 0.275572 3.7188 0
M  V30 13631 N 1316.99 -1.36373 0.789944 0
M  V30 13632 C 1318.22 -2.03482 0.37453 0
M  V30 13633 C 1318.63 -1.59562 -1.00923 0
M  V30 13634 O 1317.99 -0.785289 -1.64741 0
M  V30 13635 C 1318.04 -3.58942 0.429255 0
M  V30 13636 O 1317.76 -4.01261 1.75845 0
M  V30 13637 C 1319.26 -4.433 0.00453729 0
M  V30 13638 H 1316.48 -0.653019 0.154295 0
M  V30 13639 H 1319.02 -1.74339 1.06894 0
M  V30 13640 H 1317.18 -3.86793 -0.21674 0
M  V30 13641 H 1317.59 -4.95854 1.70964 0
M  V30 13642 H 1319.07 -5.5192 0.0939653 0
M  V30 13643 H 1319.54 -4.26509 -1.04816 0
M  V30 13644 H 1320.15 -4.20712 0.623041 0
M  V30 13645 N 1318.47 -0.542005 -1.47987 0
M  V30 13646 C 1319.88 -0.104646 -1.86406 0
M  V30 13647 C 1320.23 1.32139 -1.4503 0
M  V30 13648 O 1319.35 1.99159 -0.846439 0
M  V30 13649 C 1319.95 -0.183133 -3.38305 0
M  V30 13650 C 1318.51 0.199098 -3.75873 0
M  V30 13651 C 1317.65 -0.537532 -2.7204 0
M  V30 13652 H 1320.6 -0.75259 -1.3972 0
M  V30 13653 H 1320.63 0.602149 -3.75705 0
M  V30 13654 H 1320.14 -1.22113 -3.68389 0
M  V30 13655 H 1318.24 1.23878 -3.51404 0
M  V30 13656 H 1318.35 -0.14888 -4.78869 0
M  V30 13657 H 1316.72 0.0176255 -2.54694 0
M  V30 13658 H 1317.5 -1.57639 -3.04967 0
M  V30 13659 N 1319.94 1.55134 -0.277709 0
M  V30 13660 C 1321.19 1.99259 0.337662 0
M  V30 13661 C 1321.51 1.16755 1.56183 0
M  V30 13662 O 1320.78 0.257707 1.94198 0
M  V30 13663 H 1319.36 0.735995 0.127751 0
M  V30 13664 H 1322.02 1.91087 -0.383646 0
M  V30 13665 H 1321.12 3.05763 0.625747 0
M  V30 13666 N 1321.42 0.00503138 1.57599 0
M  V30 13667 C 1322.35 -1.01302 2.05598 0
M  V30 13668 C 1323.37 -1.30388 0.974829 0
M  V30 13669 O 1324.56 -1.27275 1.25153 0
M  V30 13670 C 1321.66 -2.34654 2.44522 0
M  V30 13671 C 1320.83 -2.24436 3.7543 0
M  V30 13672 C 1319.89 -3.40517 4.01166 0
M  V30 13673 O 1318.91 -3.18479 4.71762 0
M  V30 13674 N 1320.12 -4.63532 3.49454 0
M  V30 13675 H 1322.88 -0.603656 2.93558 0
M  V30 13676 H 1320.44 -0.182248 1.60871 0
M  V30 13677 H 1322.43 -3.11093 2.5885 0
M  V30 13678 H 1321 -2.67315 1.62055 0
M  V30 13679 H 1320.22 -1.32875 3.71131 0
M  V30 13680 H 1321.51 -2.14786 4.61242 0
M  V30 13681 H 1320.91 -4.84334 2.92296 0
M  V30 13682 H 1319.47 -5.37221 3.69103 0
M  V30 13683 N 1322.9 -1.55308 -0.267798 0
M  V30 13684 C 1324.13 -1.80191 -1.01681 0
M  V30 13685 C 1324.54 -0.57783 -1.7974 0
M  V30 13686 O 1323.9 0.4532 -1.76783 0
M  V30 13687 C 1323.95 -3.03023 -1.97127 0
M  V30 13688 O 1323.67 -4.20704 -1.22229 0
M  V30 13689 C 1325.17 -3.40549 -2.83798 0
M  V30 13690 H 1322.39 -0.60013 -0.300142 0
M  V30 13691 H 1324.94 -2.02332 -0.297007 0
M  V30 13692 H 1323.09 -2.82993 -2.64563 0
M  V30 13693 H 1323.51 -4.90181 -1.86608 0
M  V30 13694 H 1324.98 -4.29653 -3.46557 0
M  V30 13695 H 1325.46 -2.60186 -3.53836 0
M  V30 13696 H 1326.06 -3.62856 -2.21846 0
M  V30 13697 N 1324.38 0.532545 -1.4833 0
M  V30 13698 C 1325.33 1.65832 -1.63103 0
M  V30 13699 C 1326.32 1.61929 -0.497538 0
M  V30 13700 O 1327.53 1.66817 -0.676176 0
M  V30 13701 H 1323.9 0.549152 -0.513748 0
M  V30 13702 H 1325.87 1.50515 -2.57658 0
M  V30 13703 C 1324.62 3.04113 -1.68555 0
M  V30 13704 H 1323.94 3.07809 -2.55135 0
M  V30 13705 H 1325.38 3.82506 -1.82936 0
M  V30 13706 C 1323.84 3.34225 -0.423711 0
M  V30 13707 O 1324.37 3.99005 0.464523 0
M  V30 13708 N 1322.58 2.89087 -0.296192 0
M  V30 13709 H 1322.13 2.36547 -1.01997 0
M  V30 13710 H 1322.08 3.09604 0.547082 0
M  V30 13711 N 1325.86 1.36875 0.78122 0
M  V30 13712 C 1327.08 1.349 1.57533 0
M  V30 13713 C 1327.51 -0.0655249 1.87986 0
M  V30 13714 O 1326.86 -1.03986 1.48515 0
M  V30 13715 C 1326.91 2.18562 2.86815 0
M  V30 13716 O 1326.02 1.58374 3.80777 0
M  V30 13717 H 1325.36 0.461355 0.477543 0
M  V30 13718 H 1327.89 1.80271 0.96766 0
M  V30 13719 H 1327.9 2.31436 3.36008 0
M  V30 13720 H 1326.57 3.21385 2.63978 0
M  V30 13721 H 1325.15 1.54487 3.39394 0
M  V30 13722 N 1327.33 -1.00632 1.21289 0
M  V30 13723 C 1328.24 -2.12829 0.986957 0
M  V30 13724 C 1329.26 -1.73895 -0.0605152 0
M  V30 13725 O 1330.44 -2.00985 0.129238 0
M  V30 13726 C 1327.5 -3.4226 0.553089 0
M  V30 13727 C 1326.56 -3.95376 1.67262 0
M  V30 13728 C 1325.79 -5.18629 1.25936 0
M  V30 13729 O 1326.02 -5.70246 0.132402 0
M  V30 13730 O 1324.95 -5.65157 2.07077 0
M  V30 13731 H 1328.78 -2.34765 1.92663 0
M  V30 13732 H 1326.36 -1.11208 0.997654 0
M  V30 13733 H 1328.24 -4.20177 0.320856 0
M  V30 13734 H 1326.92 -3.21716 -0.357881 0
M  V30 13735 H 1325.83 -3.18692 1.95924 0
M  V30 13736 H 1327.16 -4.20328 2.56097 0
M  V30 13737 N 1328.81 -1.02043 -1.20104 0
M  V30 13738 C 1330.04 -0.731315 -1.93544 0
M  V30 13739 C 1330.45 0.708582 -1.74999 0
M  V30 13740 O 1329.81 1.481 -1.06642 0
M  V30 13741 C 1329.86 -1.06233 -3.45538 0
M  V30 13742 O 1329.58 -2.44568 -3.63481 0
M  V30 13743 C 1331.08 -0.794818 -4.36116 0
M  V30 13744 H 1328.3 -0.268248 -0.615048 0
M  V30 13745 H 1330.85 -1.36264 -1.52488 0
M  V30 13746 H 1329 -0.476341 -3.8446 0
M  V30 13747 H 1329.42 -2.5663 -4.57429 0
M  V30 13748 H 1330.89 -1.07647 -5.41402 0
M  V30 13749 H 1331.37 0.270944 -4.38363 0
M  V30 13750 H 1331.97 -1.36314 -4.02863 0
M  V30 13751 N 1330.29 1.35952 -0.797165 0
M  V30 13752 C 1331.25 2.28266 -0.206748 0
M  V30 13753 C 1332.25 1.49169 0.60043 0
M  V30 13754 O 1333.44 1.69054 0.42029 0
M  V30 13755 C 1330.58 3.33363 0.712884 0
M  V30 13756 H 1331.77 2.81992 -1.02082 0
M  V30 13757 H 1329.32 1.45648 -0.567138 0
M  V30 13758 H 1330.06 2.84806 1.551 0
M  V30 13759 H 1329.84 3.91864 0.135926 0
M  V30 13760 H 1331.33 4.02284 1.1206 0
M  V30 13761 N 1331.77 0.549846 1.47697 0
M  V30 13762 C 1333.01 0.0230845 2.02787 0
M  V30 13763 C 1333.35 -1.32035 1.42409 0
M  V30 13764 O 1332.62 -1.85745 0.576978 0
M  V30 13765 C 1332.91 -0.0778363 3.60016 0
M  V30 13766 C 1332.76 1.29217 4.3084 0
M  V30 13767 C 1334.08 -0.794909 4.32862 0
M  V30 13768 H 1331.2 0.00986307 0.736934 0
M  V30 13769 H 1333.84 0.710714 1.76207 0
M  V30 13770 H 1331.99 -0.663464 3.82793 0
M  V30 13771 H 1333.66 1.92044 4.19424 0
M  V30 13772 H 1331.9 1.86883 3.91481 0
M  V30 13773 H 1332.57 1.17435 5.39364 0
M  V30 13774 H 1335.05 -0.297743 4.15033 0
M  V30 13775 H 1333.93 -0.834466 5.4252 0
M  V30 13776 H 1334.19 -1.84948 4.01555 0
M  V30 13777 N 1333.25 -1.54984 0.285932 0
M  V30 13778 C 1334.49 -2.00126 -0.328223 0
M  V30 13779 C 1334.83 -1.17409 -1.54689 0
M  V30 13780 O 1334.1 -0.246806 -1.92928 0
M  V30 13781 C 1334.38 -3.53236 -0.699733 0
M  V30 13782 C 1334.24 -4.46702 0.527029 0
M  V30 13783 C 1335.56 -4.12572 -1.53206 0
M  V30 13784 H 1332.67 -0.727521 -0.117825 0
M  V30 13785 H 1335.32 -1.85848 0.395032 0
M  V30 13786 H 1333.47 -3.65534 -1.31594 0
M  V30 13787 H 1335.14 -4.46332 1.16557 0
M  V30 13788 H 1333.38 -4.17917 1.1631 0
M  V30 13789 H 1334.05 -5.51549 0.223165 0
M  V30 13790 H 1336.53 -4.03618 -1.01154 0
M  V30 13791 H 1335.4 -5.19891 -1.7608 0
M  V30 13792 H 1335.67 -3.63487 -2.51654 0
M  V30 13793 N 1334.72 -0.0133892 -1.57594 0
M  V30 13794 C 1335.69 0.958601 -2.08191 0
M  V30 13795 C 1336.69 1.26408 -0.993865 0
M  V30 13796 O 1337.88 1.20703 -1.25604 0
M  V30 13797 C 1335.01 2.27971 -2.5346 0
M  V30 13798 H 1336.2 0.520686 -2.95345 0
M  V30 13799 H 1333.76 0.234351 -1.54533 0
M  V30 13800 H 1334.49 2.76424 -1.69588 0
M  V30 13801 H 1334.28 2.07116 -3.32935 0
M  V30 13802 H 1335.77 2.97672 -2.92884 0
M  V30 13803 N 1336.2 1.55448 0.259558 0
M  V30 13804 C 1337.13 1.9226 1.32508 0
M  V30 13805 C 1338.11 0.786012 1.5085 0
M  V30 13806 O 1339.3 1.04526 1.6367 0
M  V30 13807 C 1336.43 2.20627 2.68218 0
M  V30 13808 C 1335.38 3.36418 2.64589 0
M  V30 13809 C 1334.71 3.50295 4.03977 0
M  V30 13810 C 1336.01 4.72452 2.2268 0
M  V30 13811 H 1337.7 2.81509 1.01945 0
M  V30 13812 H 1335.25 1.35444 0.488965 0
M  V30 13813 H 1337.2 2.44968 3.42883 0
M  V30 13814 H 1335.93 1.28191 3.00391 0
M  V30 13815 H 1334.58 3.12065 1.92382 0
M  V30 13816 H 1334.23 2.55302 4.33394 0
M  V30 13817 H 1333.93 4.28155 4.02439 0
M  V30 13818 H 1335.46 3.76944 4.8036 0
M  V30 13819 H 1336.87 4.96249 2.87071 0
M  V30 13820 H 1335.27 5.53323 2.32279 0
M  V30 13821 H 1336.34 4.70367 1.17826 0
M  V30 13822 N 1337.68 -0.524672 1.4861 0
M  V30 13823 C 1338.91 -1.30482 1.60568 0
M  V30 13824 C 1339.32 -1.86889 0.267952 0
M  V30 13825 O 1338.68 -1.66669 -0.743488 0
M  V30 13826 C 1338.73 -2.45191 2.65638 0
M  V30 13827 O 1338.45 -1.91107 3.9422 0
M  V30 13828 C 1339.95 -3.36931 2.88084 0
M  V30 13829 H 1337.17 -0.396612 0.541239 0
M  V30 13830 H 1339.72 -0.632392 1.94476 0
M  V30 13831 H 1337.87 -3.08308 2.34574 0
M  V30 13832 H 1338.29 -2.66234 4.51907 0
M  V30 13833 H 1339.76 -4.13755 3.65391 0
M  V30 13834 H 1340.24 -3.92487 1.97106 0
M  V30 13835 H 1340.84 -2.79601 3.20473 0
M  V30 13836 N 1339.16 -1.37287 -0.77395 0
M  V30 13837 C 1340.09 -1.28746 -1.89624 0
M  V30 13838 C 1341.1 -0.203715 -1.6152 0
M  V30 13839 O 1342.29 -0.459684 -1.72479 0
M  V30 13840 C 1339.39 -0.967342 -3.24801 0
M  V30 13841 C 1338.57 -2.1561 -3.80567 0
M  V30 13842 C 1337.62 -1.80661 -4.94215 0
M  V30 13843 O 1336.65 -2.5293 -5.09917 0
M  V30 13844 N 1337.85 -0.749424 -5.75642 0
M  V30 13845 H 1340.62 -2.25447 -1.97468 0
M  V30 13846 H 1338.18 -1.30883 -0.952956 0
M  V30 13847 H 1340.17 -0.714421 -3.98344 0
M  V30 13848 H 1338.74 -0.0889573 -3.12473 0
M  V30 13849 H 1337.96 -2.57091 -2.98828 0
M  V30 13850 H 1339.25 -2.94993 -4.14556 0
M  V30 13851 H 1338.65 -0.149673 -5.65502 0
M  V30 13852 H 1337.2 -0.556358 -6.49421 0
M  V30 13853 N 1340.64 0.999871 -1.21821 0
M  V30 13854 C 1341.91 1.71135 -0.947213 0
M  V30 13855 C 1342.29 2.04087 0.539601 0
M  V30 13856 O 1341.64 1.71866 1.5058 0
M  V30 13857 C 1341.85 2.96704 -1.8376 0
M  V30 13858 C 1343.2 3.69627 -2.08952 0
M  V30 13859 O 1344.22 3.06697 -1.81151 0
M  V30 13860 O 1343.08 4.82832 -2.55999 0
M  V30 13861 H 1340.18 0.746631 -0.355628 0
M  V30 13862 H 1342.72 1.05684 -1.32774 0
M  V30 13863 H 1341.49 2.68802 -2.84361 0
M  V30 13864 H 1341.12 3.69894 -1.45821 0
M  V30 13865 N 1342.11 1.02678 1.19562 0
M  V30 13866 C 1343.05 0.563882 2.22155 0
M  V30 13867 C 1344.06 -0.359132 1.58789 0
M  V30 13868 O 1345.25 -0.155857 1.77818 0
M  V30 13869 C 1342.35 -0.197894 3.38322 0
M  V30 13870 C 1341.52 0.729542 4.31273 0
M  V30 13871 C 1340.58 0.013543 5.26198 0
M  V30 13872 O 1339.61 0.639417 5.65597 0
M  V30 13873 N 1340.81 -1.25791 5.66707 0
M  V30 13874 H 1343.57 1.44623 2.62496 0
M  V30 13875 H 1341.13 0.90555 1.34207 0
M  V30 13876 H 1343.13 -0.686381 3.98837 0
M  V30 13877 H 1341.7 -0.981632 2.96787 0
M  V30 13878 H 1340.92 1.39816 3.68572 0
M  V30 13879 H 1342.2 1.35994 4.90289 0
M  V30 13880 H 1341.6 -1.78716 5.36728 0
M  V30 13881 H 1340.16 -1.69093 6.29485 0
M  V30 13882 N 1343.59 -1.35528 0.804364 0
M  V30 13883 C 1345 -1.81321 0.444933 0
M  V30 13884 C 1345.35 -1.66816 -1.03281 0
M  V30 13885 O 1344.48 -1.19753 -1.80245 0
M  V30 13886 C 1345.07 -3.29199 0.800827 0
M  V30 13887 C 1343.63 -3.73144 0.494026 0
M  V30 13888 C 1342.78 -2.57557 1.02761 0
M  V30 13889 H 1345.73 -1.23537 0.996203 0
M  V30 13890 H 1345.75 -3.80375 0.0975117 0
M  V30 13891 H 1345.26 -3.39725 1.8764 0
M  V30 13892 H 1343.37 -3.68169 -0.572901 0
M  V30 13893 H 1343.48 -4.68005 1.0251 0
M  V30 13894 H 1341.84 -2.50692 0.450048 0
M  V30 13895 H 1342.63 -2.70861 2.10925 0
M  V30 13896 N 1345.07 -0.557671 -1.47404 0
M  V30 13897 C 1346.3 -0.0366797 -2.07368 0
M  V30 13898 C 1346.72 1.2478 -1.40754 0
M  V30 13899 O 1346.08 1.74757 -0.48268 0
M  V30 13900 C 1346.13 0.141728 -3.60321 0
M  V30 13901 O 1345.23 1.20419 -3.94427 0
M  V30 13902 H 1344.57 -0.0515319 -0.661997 0
M  V30 13903 H 1347.1 -0.773485 -1.89416 0
M  V30 13904 H 1347.11 0.355787 -4.06446 0
M  V30 13905 H 1345.79 -0.796433 -4.08203 0
M  V30 13906 H 1344.36 0.970589 -3.60047 0
M  V30 13907 N 1346.55 1.54831 -0.294147 0
M  V30 13908 C 1347.46 2.26939 0.594621 0
M  V30 13909 C 1348.48 1.30209 1.15419 0
M  V30 13910 O 1349.65 1.6318 1.18044 0
M  V30 13911 C 1346.72 2.9909 1.75345 0
M  V30 13912 C 1345.78 4.11342 1.22865 0
M  V30 13913 C 1345.01 4.80043 2.33225 0
M  V30 13914 O 1345.23 4.48062 3.52983 0
M  V30 13915 O 1344.17 5.67593 2.00304 0
M  V30 13916 H 1347.99 3.03698 0.00989235 0
M  V30 13917 H 1345.58 1.49276 -0.0608528 0
M  V30 13918 H 1347.46 3.44369 2.42875 0
M  V30 13919 H 1346.14 2.25232 2.32492 0
M  V30 13920 H 1345.04 3.70478 0.519279 0
M  V30 13921 H 1346.38 4.87158 0.702703 0
M  V30 13922 N 1348.03 0.0217466 1.57585 0
M  V30 13923 C 1348.99 -0.947546 2.08696 0
M  V30 13924 C 1349.99 -1.25879 1.00055 0
M  V30 13925 O 1351.18 -1.20035 1.26242 0
M  V30 13926 C 1348.31 -2.26624 2.54665 0
M  V30 13927 H 1349.51 -0.505016 2.95617 0
M  V30 13928 H 1347.06 -0.226152 1.54655 0
M  V30 13929 H 1347.79 -2.75521 1.71052 0
M  V30 13930 H 1347.58 -2.05347 3.34028 0
M  V30 13931 H 1349.07 -2.96114 2.94459 0
M  V30 13932 N 1349.51 -1.55583 -0.251311 0
M  V30 13933 C 1350.47 -1.89148 -1.29443 0
M  V30 13934 C 1351.47 -0.7676 -1.41296 0
M  V30 13935 O 1352.66 -1.03563 -1.40073 0
M  V30 13936 C 1349.79 -2.11601 -2.67279 0
M  V30 13937 H 1350.98 -2.82416 -1.00901 0
M  V30 13938 H 1348.54 -1.48407 -0.490398 0
M  V30 13939 H 1349.27 -1.20787 -3.00967 0
M  V30 13940 H 1349.06 -2.93449 -2.60058 0
M  V30 13941 H 1350.55 -2.38768 -3.42607 0
M  V30 13942 N 1350.98 0.516783 -1.48886 0
M  V30 13943 C 1352.21 1.29628 -1.61258 0
M  V30 13944 C 1352.63 1.86744 -0.27786 0
M  V30 13945 O 1351.98 1.67061 0.734639 0
M  V30 13946 C 1352.03 2.43779 -2.66935 0
M  V30 13947 O 1351.76 1.89014 -3.95228 0
M  V30 13948 C 1353.26 3.35398 -2.89867 0
M  V30 13949 H 1350.48 0.393736 -0.543335 0
M  V30 13950 H 1353.02 0.622069 -1.94809 0
M  V30 13951 H 1351.18 3.0706 -2.36206 0
M  V30 13952 H 1351.59 2.63833 -4.53312 0
M  V30 13953 H 1353.06 4.11812 -3.6758 0
M  V30 13954 H 1353.54 3.91436 -1.99185 0
M  V30 13955 H 1354.15 2.77898 -3.21952 0
M  V30 13956 N 1352.46 1.37696 0.766659 0
M  V30 13957 C 1353.71 1.32922 1.52237 0
M  V30 13958 C 1354.03 -0.0842833 1.94818 0
M  V30 13959 O 1353.3 -1.02934 1.66677 0
M  V30 13960 H 1351.88 0.489049 0.564659 0
M  V30 13961 H 1354.54 1.72238 0.912142 0
M  V30 13962 H 1353.64 1.97158 2.4194 0
M  V30 13963 N 1353.94 -0.993397 1.22349 0
M  V30 13964 C 1355.19 -1.72945 1.04568 0
M  V30 13965 C 1355.51 -1.90419 -0.420178 0
M  V30 13966 O 1354.78 -1.46348 -1.30227 0
M  V30 13967 H 1353.36 -0.640777 0.383945 0
M  V30 13968 H 1356.02 -1.19647 1.53853 0
M  V30 13969 H 1355.12 -2.72411 1.52311 0
M  V30 13970 N 1355.42 -1.03311 -1.19015 0
M  V30 13971 C 1356.38 -0.622114 -2.20596 0
M  V30 13972 C 1357.38 0.316502 -1.57654 0
M  V30 13973 O 1358.57 0.102932 -1.73896 0
M  V30 13974 C 1355.7 0.0890432 -3.40784 0
M  V30 13975 H 1356.9 -1.52095 -2.58471 0
M  V30 13976 H 1354.45 -0.824777 -1.32767 0
M  V30 13977 H 1355.18 1.00203 -3.08431 0
M  V30 13978 H 1354.97 -0.58547 -3.87704 0
M  V30 13979 H 1356.46 0.363366 -4.16016 0
M  V30 13980 N 1356.9 1.35099 -0.81154 0
M  V30 13981 C 1358.12 2.0286 -0.406855 0
M  V30 13982 C 1358.54 1.61147 0.98372 0
M  V30 13983 O 1357.9 0.811398 1.6347 0
M  V30 13984 C 1357.95 3.58214 -0.486305 0
M  V30 13985 O 1357.67 3.98412 -1.82206 0
M  V30 13986 C 1359.17 4.43236 -0.0750619 0
M  V30 13987 H 1356.39 0.650482 -0.164664 0
M  V30 13988 H 1358.93 1.72616 -1.09654 0
M  V30 13989 H 1357.09 3.87089 0.155177 0
M  V30 13990 H 1357.5 4.93072 -1.78831 0
M  V30 13991 H 1358.98 5.51701 -0.181759 0
M  V30 13992 H 1359.45 4.28123 0.980169 0
M  V30 13993 H 1360.06 4.19667 -0.689894 0
M  V30 13994 N 1358.37 0.56548 1.47106 0
M  V30 13995 C 1359.3 -0.16567 2.32912 0
M  V30 13996 C 1360.28 -0.900678 1.44298 0
M  V30 13997 O 1361.47 -0.879523 1.73142 0
M  V30 13998 C 1358.6 -1.19092 3.26243 0
M  V30 13999 C 1357.55 -0.571849 4.24163 0
M  V30 14000 C 1356.88 -1.70233 5.06878 0
M  V30 14001 C 1358.18 0.479785 5.20092 0
M  V30 14002 H 1359.87 0.550705 2.94292 0
M  V30 14003 H 1357.42 0.266284 1.41517 0
M  V30 14004 H 1359.37 -1.71064 3.85117 0
M  V30 14005 H 1358.1 -1.93734 2.62934 0
M  V30 14006 H 1356.76 -0.073353 3.66527 0
M  V30 14007 H 1356.4 -2.438 4.39967 0
M  V30 14008 H 1356.1 -1.29384 5.73178 0
M  V30 14009 H 1357.63 -2.22515 5.68612 0
M  V30 14010 H 1359.04 0.0458042 5.73282 0
M  V30 14011 H 1357.44 0.807615 5.94641 0
M  V30 14012 H 1358.51 1.37259 4.65068 0
M  V30 14013 N 1359.85 -1.54672 0.302354 0
M  V30 14014 C 1360.82 -2.22246 -0.560283 0
M  V30 14015 C 1361.82 -1.20895 -1.06023 0
M  V30 14016 O 1363.01 -1.45621 -0.956047 0
M  V30 14017 C 1360.14 -2.9099 -1.77589 0
M  V30 14018 H 1361.33 -2.99885 0.0301274 0
M  V30 14019 H 1358.88 -1.56209 0.0532036 0
M  V30 14020 H 1359.62 -2.17433 -2.4061 0
M  V30 14021 H 1359.4 -3.65288 -1.42503 0
M  V30 14022 H 1360.89 -3.42535 -2.38871 0
M  V30 14023 N 1361.33 -0.0301034 -1.57571 0
M  V30 14024 C 1362.26 0.980187 -2.07183 0
M  V30 14025 C 1363.28 1.2882 -0.995449 0
M  V30 14026 O 1364.46 1.25268 -1.27162 0
M  V30 14027 C 1361.56 2.30734 -2.48224 0
M  V30 14028 C 1360.74 2.18434 -3.78953 0
M  V30 14029 C 1359.8 3.34092 -4.06533 0
M  V30 14030 O 1358.82 3.10934 -4.76769 0
M  V30 14031 N 1360.02 4.57914 -3.56784 0
M  V30 14032 H 1362.79 0.556877 -2.94481 0
M  V30 14033 H 1360.35 0.156632 -1.61141 0
M  V30 14034 H 1362.34 3.06936 -2.63766 0
M  V30 14035 H 1360.91 2.64703 -1.66287 0
M  V30 14036 H 1360.13 1.26953 -3.73198 0
M  V30 14037 H 1361.42 2.07421 -4.64601 0
M  V30 14038 H 1360.82 4.79623 -2.99964 0
M  V30 14039 H 1359.38 5.31281 -3.77603 0
M  V30 14040 N 1362.81 1.55714 0.243056 0
M  V30 14041 C 1364.04 1.81786 0.98801 0
M  V30 14042 C 1364.45 0.606352 1.78798 0
M  V30 14043 O 1363.81 -0.425018 1.77482 0
M  V30 14044 C 1363.86 3.06121 1.92281 0
M  V30 14045 O 1363.58 4.22595 1.15521 0
M  V30 14046 C 1365.08 3.45021 2.78344 0
M  V30 14047 H 1362.3 0.604829 0.290557 0
M  V30 14048 H 1364.85 2.02779 0.26478 0
M  V30 14049 H 1363 2.87167 2.60027 0
M  V30 14050 H 1363.41 4.93088 1.78786 0
M  V30 14051 H 1364.89 4.35112 3.39678 0
M  V30 14052 H 1365.37 2.65782 3.49652 0
M  V30 14053 H 1365.97 3.66339 2.16045 0
M  V30 14054 N 1364.29 -0.50888 1.49158 0
M  V30 14055 C 1365.54 -1.26008 1.57496 0
M  V30 14056 C 1365.85 -1.9382 0.263281 0
M  V30 14057 O 1367.05 -2.70565 0.225117 0
M  V30 14058 C 1365.51 -2.28752 2.7785 0
M  V30 14059 C 1365.12 -1.66915 4.15744 0
M  V30 14060 C 1366.86 -3.0475 2.95513 0
M  V30 14061 C 1364.77 -2.67724 5.27331 0
M  V30 14062 H 1363.7 -0.473984 0.586392 0
M  V30 14063 H 1366.35 -0.534886 1.75531 0
M  V30 14064 H 1364.73 -3.044 2.53292 0
M  V30 14065 H 1365.91 -0.973131 4.50407 0
M  V30 14066 H 1364.22 -1.03336 4.03374 0
M  V30 14067 H 1366.82 -3.80121 3.76048 0
M  V30 14068 H 1367.16 -3.6189 2.05771 0
M  V30 14069 H 1367.69 -2.36217 3.20072 0
M  V30 14070 H 1364.43 -2.15375 6.19107 0
M  V30 14071 H 1363.95 -3.35589 4.97132 0
M  V30 14072 H 1365.63 -3.30304 5.56335 0
M  V30 14073 N 1365.76 -1.381 -0.759346 0
M  V30 14074 C 1366.99 -1.37389 -1.55367 0
M  V30 14075 C 1367.41 0.0356097 -1.88066 0
M  V30 14076 O 1366.77 1.0161 -1.5015 0
M  V30 14077 C 1366.82 -2.23098 -2.83302 0
M  V30 14078 O 1365.92 -1.64412 -3.7821 0
M  V30 14079 H 1365.27 -0.468894 -0.470143 0
M  V30 14080 H 1367.8 -1.81787 -0.938858 0
M  V30 14081 H 1367.81 -2.36753 -3.32283 0
M  V30 14082 H 1366.48 -3.25544 -2.58831 0
M  V30 14083 H 1365.06 -1.59867 -3.36893 0
M  V30 14084 N 1367.24 0.986894 -1.22875 0
M  V30 14085 C 1368.15 2.11232 -1.02069 0
M  V30 14086 C 1369.17 1.73969 0.0328424 0
M  V30 14087 O 1370.34 2.00754 -0.161197 0
M  V30 14088 C 1367.41 3.41337 -0.60747 0
M  V30 14089 C 1366.47 3.92665 -1.73531 0
M  V30 14090 C 1365.7 5.1656 -1.34171 0
M  V30 14091 O 1365.93 5.69964 -0.223106 0
M  V30 14092 O 1364.86 5.61791 -2.16041 0
M  V30 14093 H 1368.69 2.3167 -1.96374 0
M  V30 14094 H 1366.27 1.09607 -1.01522 0
M  V30 14095 H 1368.15 4.19613 -0.387661 0
M  V30 14096 H 1366.83 3.22244 0.306653 0
M  V30 14097 H 1365.74 3.15534 -2.0097 0
M  V30 14098 H 1367.07 4.162 -2.62751 0
M  V30 14099 N 1368.72 1.0394 1.18466 0
M  V30 14100 C 1369.68 0.633804 2.20262 0
M  V30 14101 C 1370.68 -0.308136 1.5782 0
M  V30 14102 O 1371.87 -0.0937087 1.73948 0
M  V30 14103 C 1369.01 -0.0709693 3.40826 0
M  V30 14104 H 1370.2 1.53463 2.57661 0
M  V30 14105 H 1367.75 0.831806 1.32328 0
M  V30 14106 H 1368.49 -0.985659 3.08958 0
M  V30 14107 H 1368.27 0.606023 3.87388 0
M  V30 14108 H 1369.76 -0.341298 4.16203 0
M  V30 14109 N 1370.2 -1.34667 0.818693 0
M  V30 14110 C 1371.16 -2.27908 0.243037 0
M  V30 14111 C 1372.16 -1.50106 -0.576622 0
M  V30 14112 O 1373.35 -1.69701 -0.393342 0
M  V30 14113 C 1370.48 -3.34455 -0.659759 0
M  V30 14114 H 1371.68 -2.80332 1.06555 0
M  V30 14115 H 1369.23 -1.44727 0.590237 0
M  V30 14116 H 1369.96 -2.87238 -1.50549 0
M  V30 14117 H 1369.75 -3.92031 -0.073567 0
M  V30 14118 H 1371.24 -4.04016 -1.05646 0
M  V30 14119 N 1371.68 -0.573274 -1.46804 0
M  V30 14120 C 1372.93 -0.0530267 -2.0163 0
M  V30 14121 C 1373.24 1.31124 -1.45141 0
M  V30 14122 O 1374.44 1.92231 -1.91728 0
M  V30 14123 C 1372.9 -0.0442411 -3.59873 0
M  V30 14124 C 1372.51 -1.40625 -4.25357 0
M  V30 14125 C 1374.25 0.422556 -4.22392 0
M  V30 14126 C 1372.16 -1.3557 -5.75652 0
M  V30 14127 H 1371.09 -0.0160537 -0.753829 0
M  V30 14128 H 1373.74 -0.723518 -1.68634 0
M  V30 14129 H 1372.12 0.692225 -3.89903 0
M  V30 14130 H 1373.3 -2.1617 -4.06949 0
M  V30 14131 H 1371.61 -1.81229 -3.74893 0
M  V30 14132 H 1374.21 0.479021 -5.3255 0
M  V30 14133 H 1374.55 1.43806 -3.90673 0
M  V30 14134 H 1375.08 -0.259551 -3.96952 0
M  V30 14135 H 1371.82 -2.34772 -6.12015 0
M  V30 14136 H 1371.34 -0.642309 -5.96351 0
M  V30 14137 H 1373.02 -1.06458 -6.38182 0
M  V30 14138 N 1373.15 1.5451 -0.310553 0
M  V30 14139 C 1374.4 1.99931 0.29532 0
M  V30 14140 C 1374.72 1.20042 1.53672 0
M  V30 14141 O 1373.99 0.298841 1.93607 0
M  V30 14142 H 1372.57 0.738539 0.112111 0
M  V30 14143 H 1375.24 1.9023 -0.424092 0
M  V30 14144 H 1374.33 3.07021 0.560749 0
M  V30 14145 N 1374.63 0.0384594 1.57553 0
M  V30 14146 C 1375.88 -0.636879 1.91803 0
M  V30 14147 C 1376.2 -1.72128 0.916347 0
M  V30 14148 O 1375.47 -1.95858 -0.0407405 0
M  V30 14149 H 1374.05 -0.238237 0.707992 0
M  V30 14150 H 1376.71 0.0884651 1.94699 0
M  V30 14151 H 1375.81 -1.08364 2.92683 0
M  V30 14152 N 1376.11 -1.55841 -0.234795 0
M  V30 14153 C 1377.07 -1.9051 -1.2743 0
M  V30 14154 C 1378.07 -0.782543 -1.40474 0
M  V30 14155 O 1379.26 -1.05043 -1.38966 0
M  V30 14156 C 1376.4 -2.14424 -2.65019 0
M  V30 14157 H 1377.59 -2.83471 -0.979003 0
M  V30 14158 H 1375.14 -1.48919 -0.47463 0
M  V30 14159 H 1375.88 -1.23972 -2.99669 0
M  V30 14160 H 1375.66 -2.96191 -2.56931 0
M  V30 14161 H 1377.15 -2.42388 -3.40056 0
M  V30 14162 N 1377.59 0.500963 -1.49426 0
M  V30 14163 C 1378.52 1.62019 -1.60701 0
M  V30 14164 C 1379.5 1.56072 -0.456092 0
M  V30 14165 O 1380.68 1.76128 -0.671642 0
M  V30 14166 C 1377.81 3.00532 -1.56199 0
M  V30 14167 C 1376.86 3.2474 -2.76489 0
M  V30 14168 S 1377.69 3.07859 -4.38159 0
M  V30 14169 C 1378.85 4.48767 -4.36301 0
M  V30 14170 H 1379.08 1.5221 -2.55381 0
M  V30 14171 H 1376.61 0.686122 -1.38317 0
M  V30 14172 H 1378.57 3.80402 -1.54287 0
M  V30 14173 H 1377.23 3.07757 -0.628067 0
M  V30 14174 H 1376.42 4.25858 -2.69558 0
M  V30 14175 H 1376.03 2.52593 -2.75813 0
M  V30 14176 H 1378.32 5.40854 -4.08023 0
M  V30 14177 H 1379.26 4.60748 -5.37696 0
M  V30 14178 H 1379.67 4.29448 -3.6638 0
M  V30 14179 N 1379.07 1.38501 0.752011 0
M  V30 14180 C 1380 1.38577 1.87933 0
M  V30 14181 C 1380.98 0.251454 1.68231 0
M  V30 14182 O 1382.16 0.45477 1.888 0
M  V30 14183 C 1379.29 1.21164 3.25479 0
M  V30 14184 C 1378.25 2.31816 3.59785 0
M  V30 14185 C 1377.57 1.99508 4.96085 0
M  V30 14186 C 1378.87 3.74082 3.645 0
M  V30 14187 H 1380.57 2.32913 1.88127 0
M  V30 14188 H 1378.11 1.12113 0.903698 0
M  V30 14189 H 1380.07 1.19842 4.04 0
M  V30 14190 H 1378.79 0.232899 3.25769 0
M  V30 14191 H 1377.45 2.32327 2.83584 0
M  V30 14192 H 1377.1 1.00114 4.92936 0
M  V30 14193 H 1376.8 2.73617 5.20007 0
M  V30 14194 H 1378.32 1.99807 5.76983 0
M  V30 14195 H 1379.74 3.75593 4.33131 0
M  V30 14196 H 1378.13 4.47409 3.99931 0
M  V30 14197 H 1379.2 4.06284 2.64692 0
M  V30 14198 N 1380.55 -0.980364 1.23396 0
M  V30 14199 C 1381.79 -1.71826 1.06397 0
M  V30 14200 C 1382.11 -1.90854 -0.399958 0
M  V30 14201 O 1381.38 -1.47721 -1.28668 0
M  V30 14202 H 1379.96 -0.636669 0.390719 0
M  V30 14203 H 1382.63 -1.18008 1.55113 0
M  V30 14204 H 1381.72 -2.7078 1.55192 0
M  V30 14205 N 1382.02 -1.04567 -1.17913 0
M  V30 14206 C 1382.96 -0.599154 -2.2123 0
M  V30 14207 C 1383.97 0.333824 -1.59341 0
M  V30 14208 O 1385.16 0.127548 -1.78044 0
M  V30 14209 C 1382.26 0.144045 -3.38594 0
M  V30 14210 C 1381.43 -0.798061 -4.30058 0
M  V30 14211 C 1380.49 -0.0972548 -5.2611 0
M  V30 14212 O 1379.52 -0.729318 -5.64508 0
M  V30 14213 N 1380.72 1.16759 -5.68637 0
M  V30 14214 H 1383.48 -1.48781 -2.60162 0
M  V30 14215 H 1381.04 -0.926787 -1.32749 0
M  V30 14216 H 1383.04 0.622843 -3.99878 0
M  V30 14217 H 1381.61 0.934292 -2.98311 0
M  V30 14218 H 1380.83 -1.45662 -3.66301 0
M  V30 14219 H 1382.11 -1.43777 -4.88063 0
M  V30 14220 H 1381.51 1.70155 -5.39503 0
M  V30 14221 H 1380.07 1.59057 -6.32095 0
M  V30 14222 N 1383.5 1.34231 -0.825823 0
M  V30 14223 C 1384.73 2.02417 -0.428348 0
M  V30 14224 C 1385.14 1.62181 0.966573 0
M  V30 14225 O 1384.5 0.828691 1.62601 0
M  V30 14226 C 1384.55 3.57678 -0.524271 0
M  V30 14227 O 1384.27 3.96458 -1.86422 0
M  V30 14228 C 1385.77 4.43132 -0.122069 0
M  V30 14229 H 1382.99 0.648699 -0.171554 0
M  V30 14230 H 1385.54 1.71443 -1.11478 0
M  V30 14231 H 1383.69 3.87232 0.114112 0
M  V30 14232 H 1384.11 4.91147 -1.84051 0
M  V30 14233 H 1385.58 5.51477 -0.240264 0
M  V30 14234 H 1386.06 4.29139 0.934705 0
M  V30 14235 H 1386.66 4.18912 -0.734366 0
M  V30 14236 N 1384.98 0.581051 1.46498 0
M  V30 14237 C 1386.21 0.0715652 2.06776 0
M  V30 14238 C 1386.62 -1.23267 1.43006 0
M  V30 14239 O 1385.98 -1.74489 0.534776 0
M  V30 14240 C 1386.03 -0.102666 3.61354 0
M  V30 14241 O 1385.75 1.14995 4.22739 0
M  V30 14242 C 1387.25 -0.646692 4.38558 0
M  V30 14243 H 1384.47 0.0566964 0.6686 0
M  V30 14244 H 1387.02 0.801248 1.8815 0
M  V30 14245 H 1385.17 -0.782564 3.79414 0
M  V30 14246 H 1385.59 0.962718 5.15589 0
M  V30 14247 H 1387.06 -0.717791 5.47313 0
M  V30 14248 H 1387.54 -1.6633 4.06486 0
M  V30 14249 H 1388.14 -0.00171739 4.253 0
M  V30 14250 N 1386.46 -1.54343 0.318742 0
M  V30 14251 C 1387.68 -2.05361 -0.290126 0
M  V30 14252 C 1388.11 -1.19362 -1.45376 0
M  V30 14253 O 1387.47 -0.201639 -1.80175 0
M  V30 14254 C 1387.51 -3.53601 -0.707025 0
M  V30 14255 O 1386.62 -3.70561 -1.80992 0
M  V30 14256 H 1385.96 -0.661858 -0.0532933 0
M  V30 14257 H 1388.49 -1.99228 0.46575 0
M  V30 14258 H 1388.5 -3.95782 -0.991005 0
M  V30 14259 H 1387.17 -4.1565 0.144091 0
M  V30 14260 H 1385.75 -3.40286 -1.52513 0
M  V30 14261 N 1387.94 -0.0468143 -1.5753 0
M  V30 14262 C 1388.85 0.944362 -2.14753 0
M  V30 14263 C 1389.86 1.34473 -1.10422 0
M  V30 14264 O 1391.04 1.42254 -1.42569 0
M  V30 14265 C 1388.1 2.2023 -2.67768 0
M  V30 14266 C 1387.16 1.8607 -3.8688 0
M  V30 14267 C 1386.4 3.05867 -4.37357 0
M  V30 14268 O 1386.62 4.19099 -3.86927 0
M  V30 14269 O 1385.55 2.87134 -5.28997 0
M  V30 14270 H 1389.38 0.48772 -2.99758 0
M  V30 14271 H 1386.96 0.174831 -1.48374 0
M  V30 14272 H 1388.85 2.94044 -3.01855 0
M  V30 14273 H 1387.52 2.65041 -1.85836 0
M  V30 14274 H 1386.43 1.09586 -3.5769 0
M  V30 14275 H 1387.76 1.46062 -4.70028 0
M  V30 14276 N 1389.41 1.55964 0.226527 0
M  V30 14277 C 1390.32 1.95169 1.30178 0
M  V30 14278 C 1391.34 0.854831 1.51554 0
M  V30 14279 O 1392.52 1.15798 1.64781 0
M  V30 14280 C 1389.58 2.25612 2.63249 0
M  V30 14281 C 1388.64 3.4884 2.50219 0
M  V30 14282 C 1387.88 3.77822 3.76944 0
M  V30 14283 O 1388.1 3.08556 4.79739 0
M  V30 14284 O 1387.03 4.7132 3.74354 0
M  V30 14285 H 1390.86 2.86794 0.999145 0
M  V30 14286 H 1388.44 1.43109 0.42898 0
M  V30 14287 H 1390.33 2.4641 3.41848 0
M  V30 14288 H 1389 1.37162 2.93203 0
M  V30 14289 H 1387.91 3.33326 1.69836 0
M  V30 14290 H 1389.24 4.37657 2.25205 0
M  V30 14291 N 1390.89 -0.493031 1.4969 0
M  V30 14292 C 1391.86 -1.57598 1.6642 0
M  V30 14293 C 1392.86 -1.51615 0.535668 0
M  V30 14294 O 1394.05 -1.54626 0.802283 0
M  V30 14295 C 1391.18 -2.97249 1.66901 0
M  V30 14296 H 1392.37 -1.4409 2.63017 0
M  V30 14297 H 1389.92 -0.717846 1.3884 0
M  V30 14298 H 1390.66 -3.16225 0.719164 0
M  V30 14299 H 1390.44 -3.02999 2.48865 0
M  V30 14300 H 1391.93 -3.75914 1.81874 0
M  V30 14301 N 1392.37 -1.38898 -0.744656 0
M  V30 14302 C 1393.62 -1.35795 -1.50623 0
M  V30 14303 C 1393.95 0.0491775 -1.94138 0
M  V30 14304 O 1393.22 1.01219 -1.66087 0
M  V30 14305 C 1393.51 -2.32168 -2.75263 0
M  V30 14306 C 1393.36 -3.81781 -2.3783 0
M  V30 14307 C 1394.68 -2.26526 -3.77325 0
M  V30 14308 H 1391.8 -0.494591 -0.546396 0
M  V30 14309 H 1394.44 -1.69816 -0.852211 0
M  V30 14310 H 1392.59 -2.03287 -3.31069 0
M  V30 14311 H 1394.26 -4.21373 -1.8773 0
M  V30 14312 H 1392.51 -3.99027 -1.70176 0
M  V30 14313 H 1393.18 -4.44687 -3.27044 0
M  V30 14314 H 1395.65 -2.52041 -3.31081 0
M  V30 14315 H 1394.53 -2.96053 -4.62216 0
M  V30 14316 H 1394.79 -1.26705 -4.23554 0
M  V30 14317 N 1393.85 0.973806 -1.23914 0
M  V30 14318 C 1395.1 1.71259 -1.07307 0
M  V30 14319 C 1395.42 1.91064 0.389831 0
M  V30 14320 O 1394.69 1.48401 1.27883 0
M  V30 14321 H 1393.27 0.634588 -0.39409 0
M  V30 14322 H 1395.93 1.17184 -1.55737 0
M  V30 14323 H 1395.03 2.69953 -1.56626 0
M  V30 14324 N 1395.33 1.05191 1.17357 0
M  V30 14325 C 1396.57 0.760479 1.87246 0
M  V30 14326 C 1396.9 -0.714618 1.81434 0
M  V30 14327 O 1396.17 -1.51636 1.24029 0
M  V30 14328 H 1394.75 0.278317 0.693216 0
M  V30 14329 H 1397.41 1.33106 1.42369 0
M  V30 14330 H 1396.5 1.07542 2.92987 0
M  V30 14331 N 1396.8 -1.33791 0.83293 0
M  V30 14332 C 1397.77 -2.27637 0.267196 0
M  V30 14333 C 1398.77 -1.50709 -0.560669 0
M  V30 14334 O 1399.96 -1.70109 -0.375321 0
M  V30 14335 C 1397.09 -3.35136 -0.624248 0
M  V30 14336 H 1398.28 -2.79186 1.09522 0
M  V30 14337 H 1395.84 -1.44093 0.605554 0
M  V30 14338 H 1396.57 -2.88818 -1.47494 0
M  V30 14339 H 1396.36 -3.92087 -0.0319827 0
M  V30 14340 H 1397.85 -4.05113 -1.01355 0
M  V30 14341 N 1398.28 -0.588812 -1.46187 0
M  V30 14342 C 1399.51 -0.0825301 -2.06735 0
M  V30 14343 C 1399.93 1.22507 -1.43658 0
M  V30 14344 O 1399.28 1.74203 -0.544022 0
M  V30 14345 C 1399.33 0.083501 -3.61404 0
M  V30 14346 O 1399.05 -1.17235 -4.22123 0
M  V30 14347 C 1400.56 0.623425 -4.38894 0
M  V30 14348 H 1397.78 -0.0602413 -0.66829 0
M  V30 14349 H 1400.32 -0.811215 -1.87722 0
M  V30 14350 H 1398.47 0.762432 -3.79823 0
M  V30 14351 H 1398.89 -0.990047 -5.15071 0
M  V30 14352 H 1400.36 0.688755 -5.47686 0
M  V30 14353 H 1400.84 1.64172 -4.07362 0
M  V30 14354 H 1401.45 -0.0208373 -4.25295 0
M  V30 14355 N 1399.76 1.54172 -0.326923 0
M  V30 14356 C 1401.17 1.86009 0.160446 0
M  V30 14357 C 1401.52 1.24851 1.51349 0
M  V30 14358 O 1400.65 0.555804 2.09141 0
M  V30 14359 C 1401.24 3.37488 0.297909 0
M  V30 14360 C 1399.8 3.69263 0.7295 0
M  V30 14361 C 1398.95 2.76911 -0.146778 0
M  V30 14362 H 1401.9 1.48972 -0.547093 0
M  V30 14363 H 1401.92 3.63388 1.12825 0
M  V30 14364 H 1401.43 3.81971 -0.687007 0
M  V30 14365 H 1399.53 3.30314 1.72404 0
M  V30 14366 H 1399.65 4.76149 0.53092 0
M  V30 14367 H 1398.01 2.51876 0.378212 0
M  V30 14368 H 1398.79 3.24221 -1.12852 0
M  V30 14369 N 1401.24 0.0551678 1.57503 0
M  V30 14370 C 1402.52 -0.657808 1.84207 0
M  V30 14371 C 1402.9 -1.88798 0.944372 0
M  V30 14372 O 1402.24 -2.28499 0.00641728 0
M  V30 14373 C 1402.45 -1.0113 3.34026 0
M  V30 14374 C 1403.8 -1.39189 4.01138 0
M  V30 14375 O 1404.83 -1.10353 3.38675 0
M  V30 14376 O 1403.68 -1.93023 5.11277 0
M  V30 14377 H 1400.78 -0.325084 0.760427 0
M  V30 14378 H 1403.32 0.0848352 1.69488 0
M  V30 14379 H 1402.1 -0.13688 3.91061 0
M  V30 14380 H 1401.72 -1.81126 3.53948 0
M  V30 14381 N 1402.72 -1.56081 -0.218252 0
M  V30 14382 C 1403.65 -1.89176 -1.29403 0
M  V30 14383 C 1404.66 -0.780312 -1.42881 0
M  V30 14384 O 1405.85 -1.05863 -1.4372 0
M  V30 14385 C 1402.95 -2.08818 -2.66923 0
M  V30 14386 C 1402.12 -3.39854 -2.75351 0
M  V30 14387 C 1401.18 -3.48889 -3.93908 0
M  V30 14388 O 1400.21 -4.21894 -3.82091 0
M  V30 14389 N 1401.41 -2.80273 -5.08357 0
M  V30 14390 H 1404.18 -2.82047 -1.01338 0
M  V30 14391 H 1401.74 -1.56667 -0.408278 0
M  V30 14392 H 1403.73 -2.12175 -3.44622 0
M  V30 14393 H 1402.3 -1.22557 -2.87574 0
M  V30 14394 H 1401.52 -3.48568 -1.84104 0
M  V30 14395 H 1402.81 -4.26168 -2.77954 0
M  V30 14396 H 1402.2 -2.20744 -5.20854 0
M  V30 14397 H 1400.76 -2.89286 -5.84086 0
M  V30 14398 N 1404.2 0.485086 -1.49949 0
M  V30 14399 C 1405.42 1.26179 -1.63971 0
M  V30 14400 C 1405.84 1.86113 -0.317408 0
M  V30 14401 O 1405.2 1.68581 0.699038 0
M  V30 14402 C 1405.25 2.38062 -2.72046 0
M  V30 14403 O 1404.97 1.80588 -3.99149 0
M  V30 14404 C 1406.47 3.29174 -2.96916 0
M  V30 14405 H 1403.69 0.382122 -0.551565 0
M  V30 14406 H 1406.23 0.580607 -1.96085 0
M  V30 14407 H 1404.39 3.0198 -2.42666 0
M  V30 14408 H 1404.8 2.54159 -4.58807 0
M  V30 14409 H 1406.28 4.03922 -3.76233 0
M  V30 14410 H 1406.75 3.87123 -2.07443 0
M  V30 14411 H 1407.36 2.71006 -3.27774 0
M  V30 14412 N 1405.67 1.39291 0.737279 0
M  V30 14413 C 1406.9 1.39659 1.52653 0
M  V30 14414 C 1407.32 -0.00948259 1.88798 0
M  V30 14415 O 1406.67 -0.980249 1.53939 0
M  V30 14416 C 1406.72 2.2674 2.81552 0
M  V30 14417 O 1406.45 3.61871 2.46943 0
M  V30 14418 C 1407.95 2.35466 3.75594 0
M  V30 14419 H 1405.17 0.477108 0.471814 0
M  V30 14420 H 1407.71 1.83077 0.911205 0
M  V30 14421 H 1405.87 1.86741 3.39421 0
M  V30 14422 H 1406.28 4.07897 3.29728 0
M  V30 14423 H 1407.75 3.00649 4.62941 0
M  V30 14424 H 1408.23 1.37314 4.17183 0
M  V30 14425 H 1408.84 2.75925 3.23644 0
M  V30 14426 N 1407.15 -0.967221 1.24429 0
M  V30 14427 C 1408.38 -1.75053 1.11226 0
M  V30 14428 C 1408.8 -1.85162 -0.331139 0
M  V30 14429 O 1408.16 -1.32288 -1.23974 0
M  V30 14430 C 1408.21 -3.14882 1.75733 0
M  V30 14431 O 1407.31 -3.99371 1.02842 0
M  V30 14432 H 1406.65 -0.538078 0.389061 0
M  V30 14433 H 1409.18 -1.21325 1.64746 0
M  V30 14434 H 1409.19 -3.65402 1.81509 0
M  V30 14435 H 1407.87 -3.06839 2.80754 0
M  V30 14436 H 1406.44 -3.57854 1.04856 0
M  V30 14437 N 1408.63 -1.05812 -1.16797 0
M  V30 14438 C 1409.54 -0.675541 -2.24663 0
M  V30 14439 C 1410.56 0.30622 -1.71284 0
M  V30 14440 O 1411.73 0.156752 -2.00789 0
M  V30 14441 C 1408.8 -0.0627149 -3.46643 0
M  V30 14442 C 1407.86 -1.09572 -4.15081 0
M  V30 14443 C 1407.09 -0.512044 -5.31238 0
M  V30 14444 O 1407.31 0.676665 -5.66372 0
M  V30 14445 O 1406.25 -1.24936 -5.88791 0
M  V30 14446 H 1410.07 -1.57467 -2.59688 0
M  V30 14447 H 1407.66 -0.830073 -1.24218 0
M  V30 14448 H 1409.54 0.277543 -4.20485 0
M  V30 14449 H 1408.22 0.80997 -3.13403 0
M  V30 14450 H 1407.12 -1.48807 -3.4323 0
M  V30 14451 H 1408.46 -1.93977 -4.52365 0
M  V30 14452 N 1410.11 1.33347 -0.840014 0
M  V30 14453 C 1411.02 2.32965 -0.276527 0
M  V30 14454 C 1412.03 1.634 0.598037 0
M  V30 14455 O 1413.21 1.95046 0.501888 0
M  V30 14456 C 1410.27 3.42498 0.53816 0
M  V30 14457 C 1409.34 4.27781 -0.360814 0
M  V30 14458 C 1408.57 5.32083 0.415085 0
M  V30 14459 O 1408.79 5.46115 1.64666 0
M  V30 14460 O 1407.73 6.01528 -0.211503 0
M  V30 14461 H 1411.55 2.83022 -1.10147 0
M  V30 14462 H 1409.14 1.3671 -0.602566 0
M  V30 14463 H 1411.02 4.09336 1.00108 0
M  V30 14464 H 1409.69 2.94655 1.34015 0
M  V30 14465 H 1408.6 3.63805 -0.871598 0
M  V30 14466 H 1409.93 4.7911 -1.1276 0
M  V30 14467 N 1411.59 0.596556 1.45873 0
M  V30 14468 C 1412.81 0.0934926 2.06689 0
M  V30 14469 C 1413.23 -1.21743 1.44305 0
M  V30 14470 O 1412.59 -1.73912 0.553253 0
M  V30 14471 C 1412.64 -0.0643337 3.61443 0
M  V30 14472 O 1412.36 1.19472 4.21495 0
M  V30 14473 C 1413.86 -0.600141 4.39219 0
M  V30 14474 H 1411.08 0.0637846 0.667961 0
M  V30 14475 H 1413.62 0.821159 1.87289 0
M  V30 14476 H 1411.78 -0.742278 3.80222 0
M  V30 14477 H 1412.19 1.01735 5.14539 0
M  V30 14478 H 1413.67 -0.6597 5.48044 0
M  V30 14479 H 1414.14 -1.62009 4.08227 0
M  V30 14480 H 1414.75 0.0433915 4.25278 0
M  V30 14481 N 1413.06 -1.53996 0.335095 0
M  V30 14482 C 1414.31 -2.01069 -0.264388 0
M  V30 14483 C 1414.64 -1.22271 -1.50876 0
M  V30 14484 O 1413.92 -0.30806 -1.92045 0
M  V30 14485 C 1414.2 -3.55283 -0.587 0
M  V30 14486 C 1414.05 -4.44799 0.668877 0
M  V30 14487 C 1415.37 -4.17238 -1.40003 0
M  V30 14488 H 1412.49 -0.730901 -0.0946202 0
M  V30 14489 H 1415.13 -1.84497 0.453958 0
M  V30 14490 H 1413.28 -3.69536 -1.19899 0
M  V30 14491 H 1414.96 -4.42398 1.30698 0
M  V30 14492 H 1413.2 -4.14005 1.29547 0
M  V30 14493 H 1413.87 -5.5056 0.398523 0
M  V30 14494 H 1416.35 -4.06631 -0.88262 0
M  V30 14495 H 1415.22 -5.2523 -1.59451 0
M  V30 14496 H 1415.48 -3.71309 -2.39962 0
M  V30 14497 N 1414.54 -0.0635198 -1.57472 0
M  V30 14498 C 1415.79 0.606285 -1.92792 0
M  V30 14499 C 1416.11 1.70648 -0.943615 0
M  V30 14500 O 1415.38 1.95898 0.00957612 0
M  V30 14501 H 1413.96 0.226943 -0.711692 0
M  V30 14502 H 1416.62 -0.119429 -1.94534 0
M  V30 14503 H 1415.72 1.03694 -2.9437 0
M  V30 14504 N 1416.02 1.56195 0.209972 0
M  V30 14505 C 1417.27 1.7939 0.930796 0
M  V30 14506 C 1417.59 0.634038 1.84404 0
M  V30 14507 O 1416.86 -0.348467 1.92776 0
M  V30 14508 H 1415.44 0.661676 0.346689 0
M  V30 14509 H 1418.1 1.93665 0.219049 0
M  V30 14510 H 1417.2 2.71982 1.53075 0
M  V30 14511 N 1417.5 -0.477127 1.50204 0
M  V30 14512 C 1418.46 -1.55824 1.68082 0
M  V30 14513 C 1419.46 -1.51039 0.551719 0
M  V30 14514 O 1420.65 -1.53766 0.818638 0
M  V30 14515 C 1417.78 -2.95462 1.70044 0
M  V30 14516 H 1418.98 -1.41292 2.64531 0
M  V30 14517 H 1416.53 -0.70308 1.39594 0
M  V30 14518 H 1417.26 -3.15445 0.752663 0
M  V30 14519 H 1417.05 -3.00343 2.52065 0
M  V30 14520 H 1418.54 -3.73964 1.85851 0
M  V30 14521 N 1418.98 -1.3968 -0.729882 0
M  V30 14522 C 1420.23 -1.36492 -1.48502 0
M  V30 14523 C 1420.54 0.0346572 -1.95569 0
M  V30 14524 O 1421.74 0.189135 -2.7084 0
M  V30 14525 C 1420.2 -2.39813 -2.68361 0
M  V30 14526 C 1419.81 -3.85511 -2.28222 0
M  V30 14527 C 1421.55 -2.45709 -3.46161 0
M  V30 14528 C 1419.46 -4.80462 -3.44834 0
M  V30 14529 H 1418.39 -0.507455 -0.557679 0
M  V30 14530 H 1421.04 -1.6535 -0.795708 0
M  V30 14531 H 1419.42 -2.04033 -3.39392 0
M  V30 14532 H 1420.6 -4.30359 -1.64704 0
M  V30 14533 H 1418.91 -3.82957 -1.63501 0
M  V30 14534 H 1421.51 -3.1384 -4.32907 0
M  V30 14535 H 1421.85 -1.48318 -3.88983 0
M  V30 14536 H 1422.38 -2.80409 -2.82163 0
M  V30 14537 H 1419.12 -5.79134 -3.07057 0
M  V30 14538 H 1418.64 -4.40289 -4.07315 0
M  V30 14539 H 1420.32 -4.99607 -4.11098 0
M  V30 14540 N 1420.45 0.960609 -1.2494 0
M  V30 14541 C 1421.38 2.074 -1.07274 0
M  V30 14542 C 1422.37 1.70092 0.0164365 0
M  V30 14543 O 1423.55 1.93604 -0.151975 0
M  V30 14544 C 1420.68 3.40491 -0.684317 0
M  V30 14545 C 1419.63 3.91784 -1.72306 0
M  V30 14546 C 1418.96 5.21301 -1.18949 0
M  V30 14547 C 1420.26 4.18829 -3.12056 0
M  V30 14548 H 1421.95 2.22438 -2.00404 0
M  V30 14549 H 1419.5 1.06888 -0.964937 0
M  V30 14550 H 1421.45 4.17826 -0.547686 0
M  V30 14551 H 1420.18 3.25374 0.282687 0
M  V30 14552 H 1418.84 3.16613 -1.84802 0
M  V30 14553 H 1418.48 5.02549 -0.212892 0
M  V30 14554 H 1418.18 5.56588 -1.8837 0
M  V30 14555 H 1419.71 6.01238 -1.06513 0
M  V30 14556 H 1421.12 4.86844 -3.02748 0
M  V30 14557 H 1419.52 4.6536 -3.78894 0
M  V30 14558 H 1420.59 3.25333 -3.59564 0
M  V30 14559 N 1421.93 1.0643 1.16234 0
M  V30 14560 C 1423.21 0.695256 1.82827 0
M  V30 14561 C 1423.59 -0.823242 1.94386 0
M  V30 14562 O 1422.94 -1.73406 1.48804 0
M  V30 14563 C 1423.15 1.3988 3.19741 0
M  V30 14564 C 1424.5 1.54489 3.95498 0
M  V30 14565 O 1425.52 1.35882 3.29264 0
M  V30 14566 O 1424.38 1.85027 5.14225 0
M  V30 14567 H 1421.47 0.246285 0.789476 0
M  V30 14568 H 1424.02 1.16466 1.23426 0
M  V30 14569 H 1422.79 2.43419 3.06371 0
M  V30 14570 H 1422.41 0.91957 3.8682 0
M  V30 14571 N 1423.41 -1.329 0.847073 0
M  V30 14572 C 1424.34 -2.27903 0.243522 0
M  V30 14573 C 1425.36 -1.52101 -0.58043 0
M  V30 14574 O 1426.54 -1.73818 -0.406158 0
M  V30 14575 C 1423.64 -3.32107 -0.675118 0
M  V30 14576 C 1422.82 -4.37258 0.111305 0
M  V30 14577 C 1421.88 -5.21085 -0.731933 0
M  V30 14578 O 1420.9 -5.68951 -0.168176 0
M  V30 14579 N 1422.1 -5.43175 -2.04794 0
M  V30 14580 H 1424.87 -2.80335 1.05983 0
M  V30 14581 H 1422.43 -1.4568 0.706322 0
M  V30 14582 H 1424.42 -3.85093 -1.2444 0
M  V30 14583 H 1422.99 -2.79891 -1.39212 0
M  V30 14584 H 1422.21 -3.8466 0.861991 0
M  V30 14585 H 1423.5 -5.04608 0.651756 0
M  V30 14586 H 1422.9 -5.06002 -2.5294 0
M  V30 14587 H 1421.46 -5.99186 -2.56552 0
M  V30 14588 N 1424.89 -0.604284 -1.45555 0
M  V30 14589 C 1426.12 -0.104452 -2.06636 0
M  V30 14590 C 1426.53 1.20976 -1.44949 0
M  V30 14591 O 1425.89 1.73616 -0.562468 0
M  V30 14592 C 1425.94 0.0451646 -3.61472 0
M  V30 14593 O 1425.66 -1.21705 -4.20856 0
M  V30 14594 C 1427.16 0.57684 -4.39531 0
M  V30 14595 H 1424.38 -0.067326 -0.667614 0
M  V30 14596 H 1426.93 -0.831079 -1.86851 0
M  V30 14597 H 1425.08 0.722104 -3.80611 0
M  V30 14598 H 1425.49 -1.04462 -5.13992 0
M  V30 14599 H 1426.97 0.630627 -5.48386 0
M  V30 14600 H 1427.45 1.59842 -4.09081 0
M  V30 14601 H 1428.05 -0.0659444 -4.25249 0
M  V30 14602 N 1426.37 1.53816 -0.343257 0
M  V30 14603 C 1427.59 2.05326 0.254744 0
M  V30 14604 C 1428.01 1.21824 1.44237 0
M  V30 14605 O 1427.37 0.253507 1.80731 0
M  V30 14606 C 1427.42 3.55235 0.670075 0
M  V30 14607 O 1427.14 4.35568 -0.470322 0
M  V30 14608 C 1428.64 4.22915 1.32882 0
M  V30 14609 H 1425.86 0.669191 0.0492324 0
M  V30 14610 H 1428.4 1.98415 -0.495159 0
M  V30 14611 H 1426.56 3.6237 1.36992 0
M  V30 14612 H 1426.97 5.24315 -0.139303 0
M  V30 14613 H 1428.45 5.29197 1.57019 0
M  V30 14614 H 1428.92 3.75244 2.28229 0
M  V30 14615 H 1429.53 4.19973 0.67102 0
M  V30 14616 N 1427.84 0.0718701 1.57436 0
M  V30 14617 C 1429.07 -0.609701 1.98236 0
M  V30 14618 C 1429.49 -1.6235 0.949959 0
M  V30 14619 O 1428.85 -1.81103 -0.0844281 0
M  V30 14620 C 1428.9 -1.2547 3.38068 0
M  V30 14621 O 1428 -2.37055 3.37459 0
M  V30 14622 H 1427.35 -0.15679 0.645223 0
M  V30 14623 H 1429.88 0.146407 2.04076 0
M  V30 14624 H 1429.89 -1.60152 3.75254 0
M  V30 14625 H 1428.56 -0.511842 4.12738 0
M  V30 14626 H 1427.14 -2.04165 3.12043 0
M  V30 14627 N 1429.32 -1.56304 -0.201686 0
M  V30 14628 C 1430.23 -1.97215 -1.27057 0
M  V30 14629 C 1431.25 -0.878834 -1.50175 0
M  V30 14630 O 1432.42 -1.18405 -1.62918 0
M  V30 14631 C 1429.49 -2.29772 -2.59626 0
M  V30 14632 C 1428.55 -3.52776 -2.44637 0
M  V30 14633 C 1427.78 -3.83771 -3.70885 0
M  V30 14634 O 1428.01 -3.16149 -4.7477 0
M  V30 14635 O 1426.94 -4.77216 -3.66808 0
M  V30 14636 H 1430.77 -2.88347 -0.953393 0
M  V30 14637 H 1428.35 -1.43773 -0.406158 0
M  V30 14638 H 1430.23 -2.51817 -3.37885 0
M  V30 14639 H 1428.91 -1.41809 -2.90984 0
M  V30 14640 H 1427.82 -3.35986 -1.64512 0
M  V30 14641 H 1429.15 -4.41184 -2.18214 0
M  V30 14642 N 1430.8 0.469154 -1.50455 0
M  V30 14643 C 1432.08 1.23033 -1.5206 0
M  V30 14644 C 1432.46 2.09412 -0.266388 0
M  V30 14645 O 1431.81 2.15837 0.750099 0
M  V30 14646 C 1432.02 2.05969 -2.81741 0
M  V30 14647 C 1433.36 2.64093 -3.32476 0
M  V30 14648 O 1434.39 2.1621 -2.83075 0
M  V30 14649 O 1433.25 3.51341 -4.18595 0
M  V30 14650 H 1430.34 0.55841 -0.610006 0
M  V30 14651 H 1432.89 0.480818 -1.62746 0
M  V30 14652 H 1431.66 1.42327 -3.64498 0
M  V30 14653 H 1431.28 2.8805 -2.74067 0
M  V30 14654 N 1432.28 1.40065 0.722464 0
M  V30 14655 C 1433.24 1.39544 1.81825 0
M  V30 14656 C 1434.24 0.290385 1.58156 0
M  V30 14657 O 1435.43 0.54894 1.65325 0
M  V30 14658 C 1432.56 1.18041 3.19811 0
M  V30 14659 H 1433.76 2.37063 1.83687 0
M  V30 14660 H 1431.31 1.25813 0.927404 0
M  V30 14661 H 1432.04 0.212536 3.23603 0
M  V30 14662 H 1431.83 1.98079 3.38389 0
M  V30 14663 H 1433.32 1.20447 3.99853 0
M  V30 14664 N 1433.76 -0.95397 1.25448 0
M  V30 14665 C 1435 -1.70118 1.10399 0
M  V30 14666 C 1435.34 -1.90945 -0.354093 0
M  V30 14667 O 1434.61 -1.48088 -1.26096 0
M  V30 14668 C 1434.89 -3.08371 1.85955 0
M  V30 14669 C 1434.75 -2.9495 3.39595 0
M  V30 14670 C 1436.07 -4.08273 1.64321 0
M  V30 14671 H 1433.19 -0.617424 0.402438 0
M  V30 14672 H 1435.83 -1.10884 1.54288 0
M  V30 14673 H 1433.98 -3.58936 1.48651 0
M  V30 14674 H 1435.65 -2.51705 3.86578 0
M  V30 14675 H 1433.89 -2.30853 3.67273 0
M  V30 14676 H 1434.56 -3.92952 3.87676 0
M  V30 14677 H 1437.04 -3.6662 1.96796 0
M  V30 14678 H 1435.92 -5.03048 2.19622 0
M  V30 14679 H 1436.18 -4.38217 0.584685 0
M  V30 14680 N 1435.24 -1.07045 -1.15668 0
M  V30 14681 C 1436.48 -0.790172 -1.86013 0
M  V30 14682 C 1436.8 0.685663 -1.82548 0
M  V30 14683 O 1436.07 1.49644 -1.26426 0
M  V30 14684 H 1434.65 -0.28931 -0.688701 0
M  V30 14685 H 1437.32 -1.35354 -1.40233 0
M  V30 14686 H 1436.41 -1.1219 -2.91239 0
M  V30 14687 N 1436.71 1.32449 -0.85411 0
M  V30 14688 C 1437.96 1.96881 -0.45632 0
M  V30 14689 C 1438.28 1.67926 0.991248 0
M  V30 14690 O 1437.55 0.986195 1.69266 0
M  V30 14691 H 1436.13 0.728378 -0.165752 0
M  V30 14692 H 1438.79 1.61542 -1.09042 0
M  V30 14693 H 1437.89 3.0626 -0.600927 0
M  V30 14694 N 1438.19 0.611994 1.45232 0
M  V30 14695 C 1439.15 -0.0943825 2.29006 0
M  V30 14696 C 1440.15 -0.790863 1.40007 0
M  V30 14697 O 1441.34 -0.638356 1.62082 0
M  V30 14698 C 1438.48 -1.1439 3.21135 0
M  V30 14699 H 1439.67 0.6422 2.92943 0
M  V30 14700 H 1437.22 0.37124 1.51827 0
M  V30 14701 H 1437.96 -1.9111 2.62007 0
M  V30 14702 H 1437.74 -0.648638 3.86698 0
M  V30 14703 H 1439.23 -1.63848 3.84114 0
M  V30 14704 N 1439.67 -1.53632 0.351409 0
M  V30 14705 C 1440.9 -2.05458 -0.243852 0
M  V30 14706 C 1441.31 -1.22588 -1.43589 0
M  V30 14707 O 1440.67 -0.263088 -1.80594 0
M  V30 14708 C 1440.72 -3.55586 -0.651226 0
M  V30 14709 O 1440.44 -4.35313 0.493415 0
M  V30 14710 C 1441.94 -4.23614 -1.30637 0
M  V30 14711 H 1439.16 -0.669443 -0.0456828 0
M  V30 14712 H 1441.71 -1.98149 0.505675 0
M  V30 14713 H 1439.86 -3.63091 -1.35068 0
M  V30 14714 H 1440.28 -5.24234 0.167107 0
M  V30 14715 H 1441.75 -5.30022 -1.5421 0
M  V30 14716 H 1442.23 -3.76449 -2.26236 0
M  V30 14717 H 1442.83 -4.20323 -0.648738 0
M  V30 14718 N 1441.15 -0.0802183 -1.57396 0
M  V30 14719 C 1442.08 0.881426 -2.16225 0
M  V30 14720 C 1443.06 1.30459 -1.09154 0
M  V30 14721 O 1444.24 1.37413 -1.37227 0
M  V30 14722 C 1441.37 2.14599 -2.73065 0
M  V30 14723 C 1440.33 1.86195 -3.85377 0
M  V30 14724 C 1439.65 3.19354 -4.28856 0
M  V30 14725 C 1440.95 1.16059 -5.09242 0
M  V30 14726 H 1442.65 0.391325 -2.96832 0
M  V30 14727 H 1440.19 0.186785 -1.42783 0
M  V30 14728 H 1442.15 2.82297 -3.12868 0
M  V30 14729 H 1440.87 2.65866 -1.89691 0
M  V30 14730 H 1439.53 1.209 -3.46091 0
M  V30 14731 H 1439.18 3.68479 -3.42392 0
M  V30 14732 H 1438.88 3.01137 -5.04569 0
M  V30 14733 H 1440.4 3.88235 -4.71281 0
M  V30 14734 H 1441.82 1.7384 -5.46308 0
M  V30 14735 H 1440.21 1.08072 -5.90288 0
M  V30 14736 H 1441.28 0.14098 -4.84695 0
M  V30 14737 N 1442.63 1.56409 0.193394 0
M  V30 14738 C 1443.87 1.80367 0.911717 0
M  V30 14739 C 1444.19 0.653561 1.83721 0
M  V30 14740 O 1443.46 -0.328001 1.93135 0
M  V30 14741 H 1442.04 0.665316 0.339652 0
M  V30 14742 H 1444.71 1.93887 0.198496 0
M  V30 14743 H 1443.8 2.7359 1.50182 0
M  V30 14744 N 1444.1 -0.461169 1.50702 0
M  V30 14745 C 1445.04 -1.57562 1.66453 0
M  V30 14746 C 1446.05 -1.53381 0.545726 0
M  V30 14747 O 1447.24 -1.58589 0.819254 0
M  V30 14748 C 1444.34 -2.9646 1.64209 0
M  V30 14749 C 1443.51 -3.25405 2.92285 0
M  V30 14750 C 1442.57 -4.43906 2.82549 0
M  V30 14751 O 1441.6 -4.43726 3.56505 0
M  V30 14752 N 1442.8 -5.46131 1.96777 0
M  V30 14753 H 1445.56 -1.44463 2.62584 0
M  V30 14754 H 1443.12 -0.649749 1.4829 0
M  V30 14755 H 1445.12 -3.73719 1.55295 0
M  V30 14756 H 1443.69 -3.03278 0.757718 0
M  V30 14757 H 1442.91 -2.36666 3.1525 0
M  V30 14758 H 1444.19 -3.41559 3.77114 0
M  V30 14759 H 1443.59 -5.49103 1.36023 0
M  V30 14760 H 1442.15 -6.22335 1.9376 0
M  V30 14761 N 1445.58 -1.40446 -0.715026 0
M  V30 14762 C 1446.81 -1.4207 -1.50412 0
M  V30 14763 C 1447.22 -0.0205547 -1.88789 0
M  V30 14764 O 1446.58 0.955635 -1.55479 0
M  V30 14765 C 1446.63 -2.3119 -2.77909 0
M  V30 14766 O 1446.35 -3.65754 -2.41154 0
M  V30 14767 C 1447.85 -2.41412 -3.718 0
M  V30 14768 H 1445.07 -0.484554 -0.464164 0
M  V30 14769 H 1447.62 -1.84504 -0.881964 0
M  V30 14770 H 1445.77 -1.92117 -3.36407 0
M  V30 14771 H 1446.19 -4.13091 -3.23197 0
M  V30 14772 H 1447.66 -3.07976 -4.58099 0
M  V30 14773 H 1448.14 -1.43934 -4.14945 0
M  V30 14774 H 1448.74 -2.81039 -3.19213 0
M  V30 14775 N 1447.06 0.947303 -1.25952 0
M  V30 14776 C 1448.29 1.7273 -1.13895 0
M  V30 14777 C 1448.7 1.86296 0.306488 0
M  V30 14778 O 1448.06 1.36594 1.2103 0
M  V30 14779 C 1448.11 3.13727 -1.79604 0
M  V30 14780 O 1447.83 3.00816 -3.18499 0
M  V30 14781 C 1449.33 4.0797 -1.73422 0
M  V30 14782 H 1446.55 0.54102 -0.39691 0
M  V30 14783 H 1449.1 1.18797 -1.66456 0
M  V30 14784 H 1447.25 3.6458 -1.30997 0
M  V30 14785 H 1447.67 3.89813 -3.50922 0
M  V30 14786 H 1449.14 5.04487 -2.24047 0
M  V30 14787 H 1449.62 4.33594 -0.699481 0
M  V30 14788 H 1450.22 3.63035 -2.21553 0
M  V30 14789 N 1448.54 1.07657 1.15099 0
M  V30 14790 C 1449.76 0.82291 1.90376 0
M  V30 14791 C 1450.19 -0.618415 1.77644 0
M  V30 14792 O 1449.55 -1.43248 1.11129 0
M  V30 14793 C 1449.59 1.23988 3.38614 0
M  V30 14794 O 1448.7 0.387085 4.10579 0
M  V30 14795 H 1448.04 0.299532 0.592602 0
M  V30 14796 H 1450.57 1.436 1.4574 0
M  V30 14797 H 1450.58 1.21741 3.89414 0
M  V30 14798 H 1449.25 2.28966 3.472 0
M  V30 14799 H 1447.83 0.472311 3.69897 0
M  V30 14800 N 1450.02 -1.31994 0.861122 0
M  V30 14801 C 1450.93 -2.32495 0.313555 0
M  V30 14802 C 1451.94 -1.64331 -0.571966 0
M  V30 14803 O 1453.12 -1.9582 -0.470794 0
M  V30 14804 C 1450.18 -3.43311 -0.483603 0
M  V30 14805 C 1449.24 -4.27153 0.428825 0
M  V30 14806 C 1448.48 -5.32676 -0.330383 0
M  V30 14807 O 1448.7 -5.48665 -1.55957 0
M  V30 14808 O 1447.63 -6.01116 0.307174 0
M  V30 14809 H 1451.46 -2.81234 1.14636 0
M  V30 14810 H 1449.05 -1.35734 0.624239 0
M  V30 14811 H 1450.93 -4.10877 -0.935831 0
M  V30 14812 H 1449.6 -2.9675 -1.2931 0
M  V30 14813 H 1448.51 -3.62372 0.929366 0
M  V30 14814 H 1449.84 -4.77255 1.20368 0
M  V30 14815 N 1451.49 -0.619688 -1.44906 0
M  V30 14816 C 1452.4 0.0935512 -2.34413 0
M  V30 14817 C 1453.42 0.847738 -1.51952 0
M  V30 14818 O 1454.6 0.802591 -1.84717 0
M  V30 14819 C 1451.66 1.07047 -3.2976 0
M  V30 14820 C 1450.72 0.31691 -4.28129 0
M  V30 14821 C 1449.96 1.24729 -5.1892 0
M  V30 14822 O 1450.18 2.4856 -5.13395 0
M  V30 14823 O 1449.11 0.737799 -5.97361 0
M  V30 14824 H 1452.94 -0.642335 -2.96829 0
M  V30 14825 H 1450.52 -0.379908 -1.44489 0
M  V30 14826 H 1452.41 1.63281 -3.88481 0
M  V30 14827 H 1451.08 1.78717 -2.69893 0
M  V30 14828 H 1449.99 -0.288192 -3.72988 0
M  V30 14829 H 1451.32 -0.359539 -4.90885 0
M  V30 14830 N 1452.97 1.53444 -0.359552 0
M  V30 14831 C 1453.94 2.24173 0.477412 0
M  V30 14832 C 1454.94 1.24747 1.01464 0
M  V30 14833 O 1456.13 1.49069 0.901343 0
M  V30 14834 C 1453.26 2.9738 1.66667 0
M  V30 14835 H 1454.45 2.99566 -0.141407 0
M  V30 14836 H 1452 1.55904 -0.111143 0
M  V30 14837 H 1452.74 2.26214 2.32374 0
M  V30 14838 H 1452.52 3.70325 1.28848 0
M  V30 14839 H 1454.01 3.51165 2.25994 0
M  V30 14840 N 1454.45 0.0885642 1.57351 0
M  V30 14841 C 1455.7 -0.57753 1.94403 0
M  V30 14842 C 1456.03 -1.68238 0.970029 0
M  V30 14843 O 1455.3 -1.945 0.00198684 0
M  V30 14844 C 1455.59 -1.13882 3.41618 0
M  V30 14845 C 1455.44 -0.0394686 4.49783 0
M  V30 14846 C 1456.76 -2.03922 3.90005 0
M  V30 14847 H 1453.88 -0.208468 0.706902 0
M  V30 14848 H 1456.52 0.157945 1.89342 0
M  V30 14849 H 1454.67 -1.76561 3.46061 0
M  V30 14850 H 1456.34 0.594458 4.57454 0
M  V30 14851 H 1454.59 0.627775 4.29234 0
M  V30 14852 H 1455.26 -0.472897 5.49971 0
M  V30 14853 H 1457.73 -1.51156 3.87674 0
M  V30 14854 H 1456.61 -2.40123 4.93591 0
M  V30 14855 H 1456.87 -2.95407 3.28918 0
M  V30 14856 N 1455.93 -1.56509 -0.185096 0
M  V30 14857 C 1457.18 -1.80848 -0.902139 0
M  V30 14858 C 1457.5 -0.663295 -1.83372 0
M  V30 14859 O 1456.77 0.317754 -1.93306 0
M  V30 14860 H 1455.35 -0.667108 -0.336119 0
M  V30 14861 H 1458.01 -1.93989 -0.188211 0
M  V30 14862 H 1457.11 -2.74383 -1.48729 0
M  V30 14863 N 1457.41 0.45317 -1.50944 0
M  V30 14864 C 1458.65 1.20151 -1.62506 0
M  V30 14865 C 1458.98 1.92085 -0.335927 0
M  V30 14866 O 1458.25 1.84889 0.64751 0
M  V30 14867 H 1456.83 0.446502 -0.59887 0
M  V30 14868 H 1459.49 0.521103 -1.87804 0
M  V30 14869 H 1458.58 1.93972 -2.44502 0
M  V30 14870 N 1458.88 1.40823 0.707568 0
M  V30 14871 C 1459.85 1.41464 1.80334 0
M  V30 14872 C 1460.85 0.307143 1.57839 0
M  V30 14873 O 1462.04 0.566444 1.64733 0
M  V30 14874 C 1459.17 1.21426 3.18541 0
M  V30 14875 H 1460.36 2.38998 1.81162 0
M  V30 14876 H 1457.92 1.2679 0.914007 0
M  V30 14877 H 1458.65 0.246847 3.23359 0
M  V30 14878 H 1458.44 2.01657 3.36269 0
M  V30 14879 H 1459.93 1.24681 3.98553 0
M  V30 14880 N 1460.36 -0.94061 1.26453 0
M  V30 14881 C 1461.59 -1.72123 1.1481 0
M  V30 14882 C 1462.01 -1.86456 -0.296604 0
M  V30 14883 O 1461.36 -1.37234 -1.20304 0
M  V30 14884 C 1461.41 -3.1277 1.81266 0
M  V30 14885 O 1461.13 -2.99122 3.2009 0
M  V30 14886 C 1462.64 -4.07045 1.75584 0
M  V30 14887 H 1459.86 -0.538908 0.399774 0
M  V30 14888 H 1462.4 -1.17913 1.67083 0
M  V30 14889 H 1460.55 -3.6388 1.32928 0
M  V30 14890 H 1460.97 -3.87946 3.52984 0
M  V30 14891 H 1462.44 -5.03292 2.26719 0
M  V30 14892 H 1462.92 -4.33217 0.722466 0
M  V30 14893 H 1463.53 -3.61855 2.23475 0
M  V30 14894 N 1461.84 -1.08266 -1.14527 0
M  V30 14895 C 1462.77 -0.732968 -2.21698 0
M  V30 14896 C 1463.75 0.283917 -1.67714 0
M  V30 14897 O 1464.94 0.154607 -1.93584 0
M  V30 14898 C 1462.07 -0.139935 -3.47018 0
M  V30 14899 C 1461.02 -1.08501 -4.14019 0
M  V30 14900 C 1460.35 -0.354263 -5.33525 0
M  V30 14901 C 1461.65 -2.42254 -4.62721 0
M  V30 14902 H 1463.34 -1.629 -2.51205 0
M  V30 14903 H 1460.89 -0.784696 -1.20742 0
M  V30 14904 H 1462.84 0.1167 -4.21238 0
M  V30 14905 H 1461.56 0.791228 -3.16871 0
M  V30 14906 H 1460.22 -1.32672 -3.41751 0
M  V30 14907 H 1459.87 0.580658 -4.99637 0
M  V30 14908 H 1459.57 -0.984287 -5.79297 0
M  V30 14909 H 1461.09 -0.105648 -6.10509 0
M  V30 14910 H 1462.51 -2.22357 -5.28422 0
M  V30 14911 H 1460.91 -3.00935 -5.1919 0
M  V30 14912 H 1461.98 -3.03884 -3.77866 0
M  V30 14913 N 1463.32 1.31536 -0.86811 0
M  V30 14914 C 1464.28 2.26849 -0.327456 0
M  V30 14915 C 1465.28 1.52142 0.520514 0
M  V30 14916 O 1466.47 1.71044 0.330088 0
M  V30 14917 C 1463.6 3.36673 0.535174 0
M  V30 14918 H 1464.8 2.76184 -1.16886 0
M  V30 14919 H 1462.35 1.42437 -0.643545 0
M  V30 14920 H 1463.09 2.92627 1.39785 0
M  V30 14921 H 1462.87 3.92034 -0.0719835 0
M  V30 14922 H 1464.36 4.07658 0.905786 0
M  V30 14923 N 1464.8 0.627364 1.44575 0
M  V30 14924 C 1465.73 -0.118179 2.28895 0
M  V30 14925 C 1466.74 -0.812569 1.41071 0
M  V30 14926 O 1467.93 -0.674646 1.6526 0
M  V30 14927 C 1465.03 -1.18937 3.17344 0
M  V30 14928 C 1464.2 -0.578226 4.33561 0
M  V30 14929 C 1463.26 -1.54288 5.03072 0
M  V30 14930 O 1462.29 -1.06148 5.59215 0
M  V30 14931 N 1463.49 -2.87725 5.04177 0
M  V30 14932 H 1466.26 0.605442 2.93521 0
M  V30 14933 H 1463.82 0.468253 1.54981 0
M  V30 14934 H 1465.81 -1.83494 3.60711 0
M  V30 14935 H 1464.38 -1.81526 2.54494 0
M  V30 14936 H 1463.6 0.245883 3.93432 0
M  V30 14937 H 1464.89 -0.150502 5.08577 0
M  V30 14938 H 1464.29 -3.29421 4.5989 0
M  V30 14939 H 1462.84 -3.47653 5.51344 0
M  V30 14940 N 1466.28 -1.53251 0.367684 0
M  V30 14941 C 1467.5 -2.05705 -0.222047 0
M  V30 14942 C 1467.92 -1.24104 -1.4228 0
M  V30 14943 O 1467.28 -0.282228 -1.80305 0
M  V30 14944 C 1467.33 -3.56257 -0.613475 0
M  V30 14945 O 1467.05 -4.34765 0.539558 0
M  V30 14946 C 1468.55 -4.24976 -1.26137 0
M  V30 14947 H 1465.77 -0.66989 -0.0385799 0
M  V30 14948 H 1468.31 -1.97602 0.526663 0
M  V30 14949 H 1466.47 -3.64503 -1.3121 0
M  V30 14950 H 1466.88 -5.24027 0.222699 0
M  V30 14951 H 1468.36 -5.31628 -1.4858 0
M  V30 14952 H 1468.83 -3.78828 -2.2223 0
M  V30 14953 H 1469.44 -4.20987 -0.604121 0
M  V30 14954 N 1467.75 -0.0969077 -1.57302 0
M  V30 14955 C 1468.98 0.574705 -1.98758 0
M  V30 14956 C 1469.4 1.61612 -0.976067 0
M  V30 14957 O 1468.75 1.82468 0.0340803 0
M  V30 14958 C 1468.8 1.22078 -3.40263 0
M  V30 14959 O 1468.53 0.221022 -4.37542 0
M  V30 14960 C 1470.03 1.97783 -3.96732 0
M  V30 14961 H 1467.25 0.153934 -0.653104 0
M  V30 14962 H 1469.79 -0.17673 -2.03735 0
M  V30 14963 H 1467.95 1.92314 -3.36295 0
M  V30 14964 H 1468.36 0.687583 -5.19974 0
M  V30 14965 H 1469.83 2.38346 -4.97891 0
M  V30 14966 H 1470.31 2.8444 -3.3465 0
M  V30 14967 H 1470.92 1.3236 -4.04179 0
M  V30 14968 N 1469.23 1.56605 0.176793 0
M  V30 14969 C 1470.46 1.8617 0.91408 0
M  V30 14970 C 1470.88 0.68262 1.75277 0
M  V30 14971 O 1470.24 -0.368391 1.77518 0
M  V30 14972 C 1470.29 3.14109 1.7711 0
M  V30 14973 O 1469.39 2.95947 2.87209 0
M  V30 14974 H 1468.73 0.612507 0.25638 0
M  V30 14975 H 1471.26 2.03837 0.176586 0
M  V30 14976 H 1471.27 3.45373 2.17213 0
M  V30 14977 H 1469.95 3.9954 1.15502 0
M  V30 14978 H 1468.52 2.76024 2.50729 0
M  V30 14979 N 1470.71 -0.445159 1.51182 0
M  V30 14980 C 1471.62 -1.5651 1.74762 0
M  V30 14981 C 1472.64 -1.62134 0.631542 0
M  V30 14982 O 1473.81 -1.79522 0.912898 0
M  V30 14983 C 1470.88 -2.92552 1.86049 0
M  V30 14984 C 1469.94 -2.97108 3.0988 0
M  V30 14985 C 1469.17 -4.2666 3.2062 0
M  V30 14986 O 1469.39 -5.18608 2.37491 0
M  V30 14987 O 1468.33 -4.3734 4.13542 0
M  V30 14988 H 1472.15 -1.3953 2.6975 0
M  V30 14989 H 1469.74 -0.627363 1.3559 0
M  V30 14990 H 1471.62 -3.73304 1.95504 0
M  V30 14991 H 1470.3 -3.09676 0.94248 0
M  V30 14992 H 1469.2 -2.15338 3.05909 0
M  V30 14993 H 1470.54 -2.84927 4.01345 0
M  V30 14994 N 1472.19 -1.41197 -0.700089 0
M  V30 14995 C 1473.15 -1.42419 -1.79582 0
M  V30 14996 C 1474.15 -0.31551 -1.57674 0
M  V30 14997 O 1475.34 -0.575173 -1.64431 0
M  V30 14998 C 1472.47 -1.23114 -3.17893 0
M  V30 14999 H 1473.67 -2.39956 -1.79892 0
M  V30 15000 H 1471.22 -1.27273 -0.907271 0
M  V30 15001 H 1471.95 -0.263992 -3.23224 0
M  V30 15002 H 1471.74 -2.03437 -3.35195 0
M  V30 15003 H 1473.23 -1.26793 -3.97886 0
M  V30 15004 N 1473.67 0.933891 -1.2695 0
M  V30 15005 C 1474.63 2.0152 -1.0919 0
M  V30 15006 C 1475.63 1.60755 -0.037865 0
M  V30 15007 O 1476.82 1.71904 -0.281917 0
M  V30 15008 C 1473.95 3.34403 -0.66239 0
M  V30 15009 H 1475.14 2.18706 -2.05201 0
M  V30 15010 H 1472.7 1.11385 -1.0965 0
M  V30 15011 H 1473.43 3.22915 0.299388 0
M  V30 15012 H 1473.22 3.65345 -1.42356 0
M  V30 15013 H 1474.71 4.13826 -0.560187 0
M  V30 15014 N 1475.14 1.08871 1.13951 0
M  V30 15015 C 1476.08 0.666975 2.18235 0
M  V30 15016 C 1477.05 -0.323664 1.59346 0
M  V30 15017 O 1478.24 -0.226394 1.87136 0
M  V30 15018 C 1475.37 -0.018268 3.38695 0
M  V30 15019 C 1474.41 0.933273 4.16164 0
M  V30 15020 S 1475.24 2.44241 4.76557 0
M  V30 15021 C 1476.4 1.76941 6.00369 0
M  V30 15022 H 1476.63 1.55042 2.53672 0
M  V30 15023 H 1474.17 0.904149 1.25158 0
M  V30 15024 H 1476.12 -0.407339 4.08474 0
M  V30 15025 H 1474.79 -0.878272 3.01571 0
M  V30 15026 H 1473.98 0.400793 5.02404 0
M  V30 15027 H 1473.58 1.26347 3.52012 0
M  V30 15028 H 1475.87 1.09012 6.68672 0
M  V30 15029 H 1476.82 2.61074 6.58214 0
M  V30 15030 H 1477.22 1.24075 5.50696 0
M  V30 15031 N 1476.62 -1.31073 0.875073 0
M  V30 15032 C 1477.53 -2.3215 0.338196 0
M  V30 15033 C 1478.55 -1.64928 -0.554504 0
M  V30 15034 O 1479.72 -1.96308 -0.449998 0
M  V30 15035 C 1476.79 -3.43804 -0.447163 0
M  V30 15036 C 1475.85 -4.26674 0.474106 0
M  V30 15037 C 1475.08 -5.32997 -0.273867 0
M  V30 15038 O 1475.31 -5.50288 -1.50129 0
M  V30 15039 O 1474.24 -6.00756 0.370913 0
M  V30 15040 H 1478.07 -2.80002 1.17612 0
M  V30 15041 H 1475.65 -1.35064 0.6386 0
M  V30 15042 H 1477.53 -4.11847 -0.892199 0
M  V30 15043 H 1476.21 -2.98105 -1.26155 0
M  V30 15044 H 1475.11 -3.61366 0.967748 0
M  V30 15045 H 1476.45 -4.75952 1.25423 0
M  V30 15046 N 1478.1 -0.635022 -1.4424 0
M  V30 15047 C 1479.35 -0.140788 -2.01609 0
M  V30 15048 C 1479.67 1.24317 -1.50234 0
M  V30 15049 O 1478.94 1.82677 -0.707519 0
M  V30 15050 H 1477.52 -0.0490568 -0.745387 0
M  V30 15051 H 1480.18 -0.8226 -1.7669 0
M  V30 15052 H 1479.28 -0.111456 -3.11901 0
M  V30 15053 N 1479.58 1.53054 -0.375806 0
M  V30 15054 C 1480.54 2.24666 0.453608 0
M  V30 15055 C 1481.54 1.25816 1.00135 0
M  V30 15056 O 1482.73 1.50016 0.885481 0
M  V30 15057 C 1479.86 2.99131 1.63503 0
M  V30 15058 H 1481.06 2.994 -0.173172 0
M  V30 15059 H 1478.61 1.55778 -0.127673 0
M  V30 15060 H 1479.34 2.28666 2.29962 0
M  V30 15061 H 1479.13 3.71671 1.24913 0
M  V30 15062 H 1480.62 3.53542 2.22256 0
M  V30 15063 N 1481.06 0.105248 1.57248 0
M  V30 15064 C 1482.28 -0.564157 1.9906 0
M  V30 15065 C 1482.7 -1.61092 0.984624 0
M  V30 15066 O 1482.06 -1.82484 -0.0244031 0
M  V30 15067 C 1482.11 -1.20272 3.40906 0
M  V30 15068 O 1481.83 -0.197815 4.37653 0
M  V30 15069 C 1483.33 -1.95677 3.97776 0
M  V30 15070 H 1480.55 -0.150468 0.653912 0
M  V30 15071 H 1483.09 0.187532 2.03638 0
M  V30 15072 H 1481.25 -1.90528 3.3731 0
M  V30 15073 H 1481.66 -0.659998 5.20331 0
M  V30 15074 H 1483.14 -2.35702 4.99148 0
M  V30 15075 H 1483.61 -2.82661 3.36154 0
M  V30 15076 H 1484.22 -1.30215 4.04876 0
M  V30 15077 N 1482.53 -1.56697 -0.168486 0
M  V30 15078 C 1483.46 -1.99659 -1.21073 0
M  V30 15079 C 1484.45 -0.872625 -1.46011 0
M  V30 15080 O 1485.63 -1.13891 -1.57297 0
M  V30 15081 C 1482.76 -2.35889 -2.54899 0
M  V30 15082 C 1481.71 -3.51272 -2.44524 0
M  V30 15083 C 1481.04 -3.73253 -3.82866 0
M  V30 15084 C 1482.34 -4.84631 -1.94756 0
M  V30 15085 H 1484.03 -2.86974 -0.853593 0
M  V30 15086 H 1481.58 -1.38065 -0.409165 0
M  V30 15087 H 1483.53 -2.64542 -3.28017 0
M  V30 15088 H 1482.26 -1.45486 -2.92406 0
M  V30 15089 H 1480.92 -3.22751 -1.7386 0
M  V30 15090 H 1480.56 -2.80136 -4.17772 0
M  V30 15091 H 1480.26 -4.5089 -3.76792 0
M  V30 15092 H 1481.79 -4.04309 -4.57566 0
M  V30 15093 H 1483.2 -5.12142 -2.5765 0
M  V30 15094 H 1481.6 -5.65925 -1.99623 0
M  V30 15095 H 1482.67 -4.76436 -0.902021 0
M  V30 15096 N 1484.01 0.437135 -1.51416 0
M  V30 15097 C 1485.29 1.1978 -1.54636 0
M  V30 15098 C 1485.67 2.088 -0.310747 0
M  V30 15099 O 1485.02 2.1738 0.704148 0
M  V30 15100 C 1485.23 1.99947 -2.86046 0
M  V30 15101 C 1486.58 2.56981 -3.38003 0
M  V30 15102 O 1487.6 2.10157 -2.87598 0
M  V30 15103 O 1486.46 3.42383 -4.25953 0
M  V30 15104 H 1483.55 0.545346 -0.621713 0
M  V30 15105 H 1486.1 0.446189 -1.63729 0
M  V30 15106 H 1484.87 1.34564 -3.67435 0
M  V30 15107 H 1484.49 2.82172 -2.80115 0
M  V30 15108 N 1485.49 1.41566 0.692592 0
M  V30 15109 C 1486.42 1.39582 1.81795 0
M  V30 15110 C 1487.44 0.29754 1.60058 0
M  V30 15111 O 1488.62 0.559463 1.69506 0
M  V30 15112 C 1485.72 1.15506 3.18609 0
M  V30 15113 C 1484.9 2.37432 3.67349 0
M  V30 15114 C 1483.96 2.09168 4.82841 0
M  V30 15115 O 1482.98 2.8223 4.94303 0
M  V30 15116 N 1484.18 1.08377 5.70294 0
M  V30 15117 H 1486.95 2.36577 1.83988 0
M  V30 15118 H 1484.51 1.36216 0.875026 0
M  V30 15119 H 1486.5 0.945452 3.93501 0
M  V30 15120 H 1485.07 0.270987 3.11423 0
M  V30 15121 H 1484.29 2.74076 2.8333 0
M  V30 15122 H 1485.58 3.18661 3.96652 0
M  V30 15123 H 1484.98 0.479122 5.63667 0
M  V30 15124 H 1483.54 0.934042 6.45073 0
M  V30 15125 N 1486.97 -0.927146 1.27443 0
M  V30 15126 C 1488.2 -1.70896 1.16629 0
M  V30 15127 C 1488.61 -1.8676 -0.276811 0
M  V30 15128 O 1487.97 -1.38503 -1.18842 0
M  V30 15129 C 1488.02 -3.1083 1.84573 0
M  V30 15130 O 1487.74 -2.9571 3.23244 0
M  V30 15131 C 1489.24 -4.05159 1.79891 0
M  V30 15132 H 1486.46 -0.534638 0.405467 0
M  V30 15133 H 1489.01 -1.16134 1.68325 0
M  V30 15134 H 1487.16 -3.6245 1.3678 0
M  V30 15135 H 1487.57 -3.84181 3.57079 0
M  V30 15136 H 1489.05 -5.00859 2.32044 0
M  V30 15137 H 1489.53 -4.32426 0.768373 0
M  V30 15138 H 1490.13 -3.59464 2.273 0
M  V30 15139 N 1488.45 -1.09474 -1.13372 0
M  V30 15140 C 1489.67 -0.852921 -1.88502 0
M  V30 15141 C 1490.09 0.595855 -1.79151 0
M  V30 15142 O 1489.45 1.41019 -1.15845 0
M  V30 15143 C 1489.5 -1.27993 -3.38083 0
M  V30 15144 O 1489.22 -2.67189 -3.47191 0
M  V30 15145 C 1490.72 -1.07056 -4.30179 0
M  V30 15146 H 1487.94 -0.30682 -0.596743 0
M  V30 15147 H 1490.48 -1.45685 -1.43513 0
M  V30 15148 H 1488.64 -0.719879 -3.80653 0
M  V30 15149 H 1489.05 -2.85202 -4.40182 0
M  V30 15150 H 1490.53 -1.4186 -5.3346 0
M  V30 15151 H 1491 -0.00838732 -4.39199 0
M  V30 15152 H 1491.61 -1.61659 -3.93378 0
M  V30 15153 N 1489.92 1.30607 -0.882012 0
M  V30 15154 C 1491.15 2.00954 -0.513048 0
M  V30 15155 C 1491.57 1.65697 0.890279 0
M  V30 15156 O 1490.93 0.872001 1.58952 0
M  V30 15157 C 1490.98 3.53907 -0.691525 0
M  V30 15158 O 1490.08 4.11555 0.263896 0
M  V30 15159 H 1489.43 0.632356 -0.202537 0
M  V30 15160 H 1491.96 1.66524 -1.18874 0
M  V30 15161 H 1491.97 4.0372 -0.589392 0
M  V30 15162 H 1490.64 3.78907 -1.71471 0
M  V30 15163 H 1489.22 3.7272 0.115707 0
M  V30 15164 N 1491.4 0.642663 1.43901 0
M  V30 15165 C 1492.31 -0.0562462 2.34533 0
M  V30 15166 C 1493.33 -0.823457 1.53281 0
M  V30 15167 O 1494.5 -0.773103 1.85971 0
M  V30 15168 C 1491.57 -1.01787 3.31422 0
M  V30 15169 C 1490.63 -0.248759 4.28579 0
M  V30 15170 C 1489.86 -1.16458 5.20839 0
M  V30 15171 O 1490.09 -2.40361 5.17284 0
M  V30 15172 O 1489.02 -0.642671 5.98459 0
M  V30 15173 H 1492.85 0.689476 2.9577 0
M  V30 15174 H 1490.43 0.402847 1.43866 0
M  V30 15175 H 1492.31 -1.5708 3.91029 0
M  V30 15176 H 1490.99 -1.744 2.72702 0
M  V30 15177 H 1489.9 0.347495 3.72483 0
M  V30 15178 H 1491.23 0.437589 4.90251 0
M  V30 15179 N 1492.88 -1.52852 0.383918 0
M  V30 15180 C 1493.79 -2.3002 -0.461298 0
M  V30 15181 C 1494.81 -1.36717 -1.07631 0
M  V30 15182 O 1495.98 -1.69784 -1.08329 0
M  V30 15183 C 1493.05 -3.08804 -1.57609 0
M  V30 15184 C 1492.11 -4.17806 -0.986737 0
M  V30 15185 C 1491.34 -4.92825 -2.04841 0
M  V30 15186 O 1491.57 -4.67879 -3.26259 0
M  V30 15187 O 1490.5 -5.78306 -1.66871 0
M  V30 15188 H 1494.33 -3.03239 0.167189 0
M  V30 15189 H 1491.91 -1.48667 0.147781 0
M  V30 15190 H 1493.79 -3.57943 -2.22384 0
M  V30 15191 H 1492.47 -2.38404 -2.18964 0
M  V30 15192 H 1491.37 -3.72876 -0.302396 0
M  V30 15193 H 1492.71 -4.90426 -0.417481 0
M  V30 15194 N 1494.36 -0.113586 -1.5719 0
M  V30 15195 C 1495.32 0.824258 -2.13866 0
M  V30 15196 C 1496.32 1.19831 -1.07224 0
M  V30 15197 O 1497.51 1.12471 -1.33026 0
M  V30 15198 C 1494.64 2.11391 -2.67445 0
M  V30 15199 H 1495.84 0.331803 -2.98059 0
M  V30 15200 H 1493.39 0.135599 -1.55711 0
M  V30 15201 H 1494.13 2.65079 -1.86824 0
M  V30 15202 H 1493.91 1.85523 -3.45433 0
M  V30 15203 H 1495.4 2.78443 -3.11222 0
M  V30 15204 N 1495.84 1.56784 0.160173 0
M  V30 15205 C 1497.25 1.72193 0.721552 0
M  V30 15206 C 1497.6 0.725901 1.82278 0
M  V30 15207 O 1496.72 -0.110343 2.16118 0
M  V30 15208 C 1497.32 3.12212 1.31563 0
M  V30 15209 C 1495.88 3.29268 1.82371 0
M  V30 15210 C 1495.03 2.68136 0.70701 0
M  V30 15211 H 1497.98 1.58565 -0.0653521 0
M  V30 15212 H 1498 3.11481 2.1854 0
M  V30 15213 H 1497.51 3.84682 0.513917 0
M  V30 15214 H 1495.61 2.61774 2.65152 0
M  V30 15215 H 1495.72 4.37107 1.96149 0
M  V30 15216 H 1494.09 2.28246 1.1303 0
M  V30 15217 H 1494.87 3.432 -0.0830407 0
M  V30 15218 N 1497.32 -0.429099 1.51646 0
M  V30 15219 C 1498.56 -1.17551 1.64396 0
M  V30 15220 C 1498.88 -1.91526 0.366444 0
M  V30 15221 O 1498.15 -1.85896 -0.618013 0
M  V30 15222 H 1496.73 -0.436918 0.605898 0
M  V30 15223 H 1499.4 -0.491159 1.8861 0
M  V30 15224 H 1498.49 -1.90057 2.47557 0
M  V30 15225 N 1498.79 -1.41931 -0.685074 0
M  V30 15226 C 1500.04 -1.41571 -1.44229 0
M  V30 15227 C 1500.36 -0.0294445 -1.94978 0
M  V30 15228 O 1499.63 0.930414 -1.72395 0
M  V30 15229 H 1498.21 -0.521138 -0.535186 0
M  V30 15230 H 1500.87 -1.77263 -0.81017 0
M  V30 15231 H 1499.97 -2.10929 -2.30034 0
M  V30 15232 N 1500.27 0.920374 -1.27933 0
M  V30 15233 C 1501.5 1.70275 -1.17533 0
M  V30 15234 C 1501.91 1.86904 0.266903 0
M  V30 15235 O 1501.27 1.39131 1.18105 0
M  V30 15236 C 1501.32 3.09847 -1.86219 0
M  V30 15237 O 1501.04 2.93992 -3.24808 0
M  V30 15238 C 1502.54 4.042 -1.82037 0
M  V30 15239 H 1499.76 0.53248 -0.408297 0
M  V30 15240 H 1502.31 1.1524 -1.68938 0
M  V30 15241 H 1500.46 3.61719 -1.38701 0
M  V30 15242 H 1500.88 3.82281 -3.59112 0
M  V30 15243 H 1502.35 4.99621 -2.34697 0
M  V30 15244 H 1502.83 4.32013 -0.791295 0
M  V30 15245 H 1503.43 3.58254 -2.29203 0
M  V30 15246 N 1501.75 1.10074 1.1279 0
M  V30 15247 C 1502.66 0.758458 2.22001 0
M  V30 15248 C 1503.68 -0.242438 1.72303 0
M  V30 15249 O 1504.85 -0.0821223 2.01233 0
M  V30 15250 C 1501.92 0.191326 3.46172 0
M  V30 15251 C 1500.98 1.24902 4.10729 0
M  V30 15252 C 1500.21 0.708857 5.28972 0
M  V30 15253 O 1500.43 -0.465993 5.68493 0
M  V30 15254 O 1499.37 1.46703 5.83748 0
M  V30 15255 H 1503.19 1.66997 2.53665 0
M  V30 15256 H 1500.78 0.875604 1.21052 0
M  V30 15257 H 1502.66 -0.121292 4.21225 0
M  V30 15258 H 1501.34 -0.693094 3.16193 0
M  V30 15259 H 1500.24 1.61444 3.37471 0
M  V30 15260 H 1501.58 2.10632 4.44854 0
M  V30 15261 N 1503.23 -1.30138 0.888926 0
M  V30 15262 C 1504.16 -2.3047 0.374934 0
M  V30 15263 C 1505.14 -1.61156 -0.544322 0
M  V30 15264 O 1506.32 -1.88738 -0.457337 0
M  V30 15265 C 1503.45 -3.44896 -0.407935 0
M  V30 15266 C 1502.41 -4.25935 0.419916 0
M  V30 15267 C 1501.73 -5.32452 -0.489797 0
M  V30 15268 C 1503.03 -4.9508 1.66413 0
M  V30 15269 H 1504.73 -2.73711 1.21337 0
M  V30 15270 H 1502.27 -1.31586 0.584899 0
M  V30 15271 H 1504.23 -4.14153 -0.778177 0
M  V30 15272 H 1502.95 -3.0047 -1.28005 0
M  V30 15273 H 1501.61 -3.58372 0.772348 0
M  V30 15274 H 1501.26 -4.84273 -1.35974 0
M  V30 15275 H 1500.96 -5.87569 0.0603412 0
M  V30 15276 H 1502.48 -6.04563 -0.856468 0
M  V30 15277 H 1503.9 -5.56831 1.36425 0
M  V30 15278 H 1502.29 -5.6008 2.15477 0
M  V30 15279 H 1503.36 -4.20981 2.4063 0
M  V30 15280 N 1504.71 -0.650285 -1.43559 0
M  V30 15281 C 1505.95 -0.159832 -2.01066 0
M  V30 15282 C 1506.27 1.23246 -1.51887 0
M  V30 15283 O 1507.47 1.81797 -2.01648 0
M  V30 15284 C 1505.93 -0.23494 -3.59132 0
M  V30 15285 C 1505.54 -1.62975 -4.17305 0
M  V30 15286 C 1507.28 0.198061 -4.24038 0
M  V30 15287 C 1505.19 -1.65894 -5.67656 0
M  V30 15288 H 1504.12 -0.0559899 -0.751918 0
M  V30 15289 H 1506.77 -0.811891 -1.64562 0
M  V30 15290 H 1505.15 0.484573 -3.93024 0
M  V30 15291 H 1506.33 -2.37438 -3.94918 0
M  V30 15292 H 1504.64 -2.00847 -3.64759 0
M  V30 15293 H 1507.24 0.196054 -5.3434 0
M  V30 15294 H 1507.58 1.22896 -3.97747 0
M  V30 15295 H 1508.11 -0.469602 -3.95018 0
M  V30 15296 H 1504.85 -2.66883 -5.9871 0
M  V30 15297 H 1504.37 -0.957519 -5.92108 0
M  V30 15298 H 1506.05 -1.40137 -6.31641 0
M  V30 15299 N 1506.18 1.52647 -0.392018 0
M  V30 15300 C 1507.12 2.24183 0.476934 0
M  V30 15301 C 1508.13 1.26526 1.02446 0
M  V30 15302 O 1509.32 1.52583 0.92632 0
M  V30 15303 C 1506.42 2.94672 1.67397 0
M  V30 15304 C 1505.59 4.19058 1.25335 0
M  V30 15305 C 1504.65 4.72522 2.31537 0
M  V30 15306 O 1503.68 5.35541 1.92833 0
M  V30 15307 N 1504.88 4.52613 3.63486 0
M  V30 15308 H 1507.64 2.99391 -0.135963 0
M  V30 15309 H 1505.2 1.60419 -0.218514 0
M  V30 15310 H 1507.2 3.27338 2.37975 0
M  V30 15311 H 1505.77 2.22755 2.19315 0
M  V30 15312 H 1504.99 3.92399 0.376352 0
M  V30 15313 H 1506.27 4.99871 0.94901 0
M  V30 15314 H 1505.67 4.02316 3.97692 0
M  V30 15315 H 1504.23 4.89761 4.3009 0
M  V30 15316 N 1507.66 0.121921 1.57128 0
M  V30 15317 C 1508.89 -0.543012 1.99647 0
M  V30 15318 C 1509.31 -1.60038 1.00165 0
M  V30 15319 O 1508.66 -1.82499 -0.00504688 0
M  V30 15320 C 1508.71 -1.1665 3.42162 0
M  V30 15321 O 1508.43 -0.151385 4.37838 0
M  V30 15322 C 1509.94 -1.91447 3.99829 0
M  V30 15323 H 1507.16 -0.143524 0.655471 0
M  V30 15324 H 1509.7 0.20912 2.03428 0
M  V30 15325 H 1507.85 -1.86939 3.39312 0
M  V30 15326 H 1508.27 -0.604773 5.21002 0
M  V30 15327 H 1509.74 -2.30394 5.0162 0
M  V30 15328 H 1510.22 -2.7908 3.39133 0
M  V30 15329 H 1510.83 -1.25913 4.06234 0
M  V30 15330 N 1509.14 -1.56867 -0.151857 0
M  V30 15331 C 1510.55 -1.72573 -0.712411 0
M  V30 15332 C 1510.9 -0.735557 -1.8189 0
M  V30 15333 O 1510.03 0.09888 -2.16174 0
M  V30 15334 C 1510.62 -3.12906 -1.29905 0
M  V30 15335 C 1509.18 -3.30231 -1.80623 0
M  V30 15336 C 1508.33 -2.68507 -0.692781 0
M  V30 15337 H 1511.28 -1.58528 0.0737603 0
M  V30 15338 H 1511.3 -3.12636 -2.16885 0
M  V30 15339 H 1510.81 -3.84949 -0.493509 0
M  V30 15340 H 1508.91 -2.63176 -2.6376 0
M  V30 15341 H 1509.03 -4.38141 -1.93828 0
M  V30 15342 H 1507.39 -2.28842 -1.11818 0
M  V30 15343 H 1508.17 -3.43151 0.10124 0
M  V30 15344 N 1510.62 0.421051 -1.51871 0
M  V30 15345 C 1511.55 1.51928 -1.77313 0
M  V30 15346 C 1512.53 1.58258 -0.623579 0
M  V30 15347 O 1513.71 1.73724 -0.867967 0
M  V30 15348 C 1510.84 2.89865 -1.913 0
M  V30 15349 C 1509.8 2.98391 -3.06834 0
M  V30 15350 C 1509.12 4.38466 -3.06026 0
M  V30 15351 C 1510.42 2.7097 -4.46511 0
M  V30 15352 H 1512.12 1.30889 -2.69274 0
M  V30 15353 H 1509.66 0.628229 -1.29573 0
M  V30 15354 H 1511.62 3.66669 -2.07682 0
M  V30 15355 H 1510.34 3.12172 -0.960011 0
M  V30 15356 H 1509 2.24029 -2.90184 0
M  V30 15357 H 1508.65 4.57764 -2.08472 0
M  V30 15358 H 1508.35 4.45097 -3.83618 0
M  V30 15359 H 1509.87 5.17221 -3.24522 0
M  V30 15360 H 1511.29 3.37501 -4.63428 0
M  V30 15361 H 1509.68 2.88992 -5.25931 0
M  V30 15362 H 1510.75 1.66476 -4.55427 0
M  V30 15363 N 1512.1 1.42293 0.677538 0
M  V30 15364 C 1513.06 1.45258 1.77293 0
M  V30 15365 C 1514.06 0.340554 1.57152 0
M  V30 15366 O 1515.25 0.601259 1.63495 0
M  V30 15367 C 1512.38 1.28156 3.15894 0
M  V30 15368 H 1513.57 2.42787 1.76052 0
M  V30 15369 H 1511.13 1.287 0.886908 0
M  V30 15370 H 1511.86 0.315381 3.22763 0
M  V30 15371 H 1511.65 2.08744 3.31916 0
M  V30 15372 H 1513.14 1.33107 3.95818 0
M  V30 15373 N 1513.57 -0.913576 1.28419 0
M  V30 15374 C 1514.8 -1.70178 1.18551 0
M  V30 15375 C 1515.22 -1.864 -0.252307 0
M  V30 15376 O 1514.58 -1.37427 -1.18252 0
M  V30 15377 C 1514.63 -3.07145 1.8893 0
M  V30 15378 O 1513.73 -3.9465 1.19688 0
M  V30 15379 H 1513.08 -0.521092 0.411533 0
M  V30 15380 H 1515.61 -1.14228 1.69744 0
M  V30 15381 H 1515.62 -3.57375 1.96843 0
M  V30 15382 H 1514.29 -2.94655 2.93515 0
M  V30 15383 H 1512.87 -3.53085 1.19939 0
M  V30 15384 N 1515.05 -1.1067 -1.12204 0
M  V30 15385 C 1516.28 -0.873095 -1.88127 0
M  V30 15386 C 1516.7 0.571099 -1.79221 0
M  V30 15387 O 1516.06 1.40251 -1.14888 0
M  V30 15388 C 1516.11 -1.32922 -3.35208 0
M  V30 15389 O 1515.21 -0.495807 -4.09409 0
M  V30 15390 H 1514.55 -0.315138 -0.584452 0
M  V30 15391 H 1517.08 -1.47413 -1.41882 0
M  V30 15392 H 1517.09 -1.32023 -3.86049 0
M  V30 15393 H 1515.77 -2.38091 -3.41007 0
M  V30 15394 H 1514.35 -0.570216 -3.68515 0
M  V30 15395 N 1516.53 1.29665 -0.895815 0
M  V30 15396 C 1517.76 1.99862 -0.535043 0
M  V30 15397 C 1518.17 1.67077 0.879245 0
M  V30 15398 O 1517.53 0.913717 1.57979 0
M  V30 15399 C 1517.58 3.54396 -0.713132 0
M  V30 15400 O 1517.3 3.86018 -2.07175 0
M  V30 15401 C 1518.8 4.41862 -0.356792 0
M  V30 15402 H 1516.02 0.638693 -0.205699 0
M  V30 15403 H 1518.57 1.65293 -1.20409 0
M  V30 15404 H 1516.72 3.87292 -0.0913116 0
M  V30 15405 H 1517.14 4.80701 -2.09827 0
M  V30 15406 H 1518.61 5.49428 -0.532252 0
M  V30 15407 H 1519.09 4.3349 0.705914 0
M  V30 15408 H 1519.69 4.1443 -0.95539 0
M  V30 15409 N 1518.01 0.657889 1.43212 0
M  V30 15410 C 1519.29 0.102895 1.95329 0
M  V30 15411 C 1519.67 -1.37821 1.59901 0
M  V30 15412 O 1519.01 -2.10602 0.886505 0
M  V30 15413 C 1519.22 0.354075 3.47199 0
M  V30 15414 C 1520.57 0.261511 4.23794 0
M  V30 15415 O 1521.6 0.286889 3.55043 0
M  V30 15416 O 1520.45 0.189209 5.46172 0
M  V30 15417 H 1517.55 -0.00692284 0.826971 0
M  V30 15418 H 1520.09 0.73145 1.53127 0
M  V30 15419 H 1518.87 1.38075 3.6613 0
M  V30 15420 H 1518.49 -0.307321 3.96411 0
M  V30 15421 N 1519.49 -1.52437 0.400108 0
M  V30 15422 C 1520.44 -2.23576 -0.446964 0
M  V30 15423 C 1521.42 -1.24368 -1.02085 0
M  V30 15424 O 1522.61 -1.49652 -0.945165 0
M  V30 15425 C 1519.74 -3.05402 -1.56795 0
M  V30 15426 C 1518.83 -4.12013 -1.00527 0
M  V30 15427 N 1519.22 -5.05519 -0.168475 0
M  V30 15428 C 1517.52 -4.27337 -1.27669 0
M  V30 15429 C 1518.22 -5.81523 0.143579 0
M  V30 15430 N 1517.19 -5.41623 -0.463209 0
M  V30 15431 H 1521 -2.93227 0.198775 0
M  V30 15432 H 1518.51 -1.61036 0.210019 0
M  V30 15433 H 1520.51 -3.54912 -2.1873 0
M  V30 15434 H 1519.17 -2.37288 -2.2164 0
M  V30 15435 H 1520.18 -5.17532 0.195125 0
M  V30 15436 H 1516.85 -3.70452 -1.92539 0
M  V30 15437 H 1518.24 -6.6685 0.822256 0
M  V30 15438 N 1520.96 -0.130252 -1.57061 0
M  V30 15439 C 1521.9 0.846442 -2.12998 0
M  V30 15440 C 1522.91 1.22229 -1.07536 0
M  V30 15441 O 1524.1 1.16928 -1.34871 0
M  V30 15442 C 1521.2 2.14481 -2.62395 0
M  V30 15443 C 1520.37 1.93892 -3.92077 0
M  V30 15444 C 1519.43 3.07562 -4.26957 0
M  V30 15445 O 1518.46 2.79983 -4.95578 0
M  V30 15446 N 1519.66 4.34297 -3.85184 0
M  V30 15447 H 1522.42 0.368471 -2.97426 0
M  V30 15448 H 1519.98 0.0538355 -1.6181 0
M  V30 15449 H 1521.98 2.8954 -2.82752 0
M  V30 15450 H 1520.55 2.53592 -1.82784 0
M  V30 15451 H 1519.77 1.02962 -3.80516 0
M  V30 15452 H 1521.05 1.77454 -4.76852 0
M  V30 15453 H 1520.45 4.59575 -3.29859 0
M  V30 15454 H 1519.01 5.06191 -4.10626 0
M  V30 15455 N 1522.44 1.56945 0.143535 0
M  V30 15456 C 1523.67 1.87701 0.870401 0
M  V30 15457 C 1524.09 0.718833 1.7458 0
M  V30 15458 O 1523.44 -0.311286 1.79826 0
M  V30 15459 C 1523.49 3.1773 1.72424 0
M  V30 15460 O 1523.22 4.29086 0.884115 0
M  V30 15461 C 1524.72 3.62024 2.55839 0
M  V30 15462 H 1521.94 0.622083 0.251504 0
M  V30 15463 H 1524.48 2.04052 0.135285 0
M  V30 15464 H 1522.64 3.03122 2.41238 0
M  V30 15465 H 1523.05 5.0346 1.47065 0
M  V30 15466 H 1524.52 4.55834 3.11319 0
M  V30 15467 H 1525 2.87481 3.32041 0
M  V30 15468 H 1525.61 3.79338 1.9231 0
M  V30 15469 N 1523.92 -0.412991 1.52093 0
M  V30 15470 C 1525.33 -0.991955 1.58168 0
M  V30 15471 C 1525.68 -1.91655 0.419834 0
M  V30 15472 O 1524.81 -2.11448 -0.460308 0
M  V30 15473 C 1525.4 -1.80581 2.86663 0
M  V30 15474 C 1523.96 -2.33487 2.9523 0
M  V30 15475 C 1523.11 -1.13362 2.5307 0
M  V30 15476 H 1526.06 -0.193364 1.57518 0
M  V30 15477 H 1526.08 -2.66282 2.71798 0
M  V30 15478 H 1525.59 -1.13262 3.71205 0
M  V30 15479 H 1523.69 -3.0419 2.15173 0
M  V30 15480 H 1523.81 -2.64617 3.99393 0
M  V30 15481 H 1522.17 -1.48641 2.06828 0
M  V30 15482 H 1522.95 -0.476148 3.39982 0
M  V30 15483 N 1525.4 -1.4265 -0.669982 0
M  V30 15484 C 1526.81 -1.38614 -1.25072 0
M  V30 15485 C 1527.16 -0.0818051 -1.96029 0
M  V30 15486 O 1526.29 0.81931 -2.0029 0
M  V30 15487 C 1526.88 -2.51085 -2.27469 0
M  V30 15488 C 1525.44 -2.50366 -2.81059 0
M  V30 15489 C 1524.59 -2.29632 -1.5545 0
M  V30 15490 H 1527.54 -1.51794 -0.463058 0
M  V30 15491 H 1527.56 -2.21612 -3.09303 0
M  V30 15492 H 1527.07 -3.46002 -1.75796 0
M  V30 15493 H 1525.17 -1.5928 -3.36839 0
M  V30 15494 H 1525.29 -3.47569 -3.29746 0
M  V30 15495 H 1523.65 -1.77982 -1.82193 0
M  V30 15496 H 1524.43 -3.26611 -1.05736 0
M  V30 15497 N 1526.88 0.906753 -1.28902 0
M  V30 15498 C 1528.11 1.69019 -1.19333 0
M  V30 15499 C 1528.52 1.87176 0.247065 0
M  V30 15500 O 1527.88 1.40376 1.16623 0
M  V30 15501 C 1527.93 3.07854 -1.89495 0
M  V30 15502 O 1527.65 2.90531 -3.27908 0
M  V30 15503 C 1529.15 4.02246 -1.86314 0
M  V30 15504 H 1526.37 0.528119 -0.413922 0
M  V30 15505 H 1528.91 1.13441 -1.70151 0
M  V30 15506 H 1527.07 3.60228 -1.42529 0
M  V30 15507 H 1527.48 3.78451 -3.63146 0
M  V30 15508 H 1528.96 4.97104 -2.39983 0
M  V30 15509 H 1529.43 4.31149 -0.837071 0
M  V30 15510 H 1530.04 3.55803 -2.3299 0
M  V30 15511 N 1528.36 1.11264 1.11616 0
M  V30 15512 C 1529.58 0.88306 1.87661 0
M  V30 15513 C 1530.01 -0.561586 1.79521 0
M  V30 15514 O 1529.36 -1.3964 1.1563 0
M  V30 15515 C 1529.41 1.34698 3.34498 0
M  V30 15516 O 1528.52 0.517512 4.0914 0
M  V30 15517 H 1527.86 0.318233 0.582772 0
M  V30 15518 H 1530.39 1.48164 1.41098 0
M  V30 15519 H 1530.4 1.34068 3.85344 0
M  V30 15520 H 1529.07 2.39896 3.39739 0
M  V30 15521 H 1527.65 0.589751 3.68207 0
M  V30 15522 N 1529.83 -1.29188 0.902679 0
M  V30 15523 C 1531.24 -1.77521 0.578207 0
M  V30 15524 C 1531.6 -1.74017 -0.906227 0
M  V30 15525 O 1530.72 -1.32793 -1.70865 0
M  V30 15526 C 1531.32 -3.22352 1.04281 0
M  V30 15527 C 1529.87 -3.68451 0.769454 0
M  V30 15528 C 1529.02 -2.49225 1.21583 0
M  V30 15529 H 1531.97 -1.15807 1.0851 0
M  V30 15530 H 1531.99 -3.78604 0.379396 0
M  V30 15531 H 1531.51 -3.2487 2.12323 0
M  V30 15532 H 1529.61 -3.71405 -0.298223 0
M  V30 15533 H 1529.72 -4.59112 1.36943 0
M  V30 15534 H 1528.08 -2.46663 0.634766 0
M  V30 15535 H 1528.87 -2.54469 2.30436 0
M  V30 15536 N 1531.31 -0.665475 -1.42861 0
M  V30 15537 C 1532.56 -0.184156 -2.01962 0
M  V30 15538 C 1532.89 1.20301 -1.52451 0
M  V30 15539 O 1532.17 1.80573 -0.722756 0
M  V30 15540 C 1532.45 -0.208497 -3.59496 0
M  V30 15541 C 1532.3 -1.63045 -4.19209 0
M  V30 15542 C 1533.62 0.448421 -4.3781 0
M  V30 15543 H 1530.74 -0.0683924 -0.73382 0
M  V30 15544 H 1533.38 -0.84849 -1.70002 0
M  V30 15545 H 1531.53 0.357179 -3.86855 0
M  V30 15546 H 1533.2 -2.24766 -4.02837 0
M  V30 15547 H 1531.45 -2.17401 -3.75392 0
M  V30 15548 H 1532.12 -1.59924 -5.28326 0
M  V30 15549 H 1534.59 -0.0330053 -4.16087 0
M  V30 15550 H 1533.47 0.400713 -5.47435 0
M  V30 15551 H 1533.73 1.52454 -4.14982 0
M  V30 15552 N 1532.79 1.52222 -0.408187 0
M  V30 15553 C 1533.72 2.24676 0.453129 0
M  V30 15554 C 1534.73 1.27605 1.01098 0
M  V30 15555 O 1535.92 1.53557 0.910084 0
M  V30 15556 C 1533.02 2.96431 1.64262 0
M  V30 15557 C 1532.2 4.20364 1.20883 0
M  V30 15558 C 1531.26 4.74951 2.26512 0
M  V30 15559 O 1530.28 5.37556 1.87142 0
M  V30 15560 N 1531.48 4.56443 3.58665 0
M  V30 15561 H 1534.25 2.9923 -0.16771 0
M  V30 15562 H 1531.81 1.60178 -0.235517 0
M  V30 15563 H 1533.8 3.29844 2.3449 0
M  V30 15564 H 1532.37 2.25068 2.1694 0
M  V30 15565 H 1531.59 3.92776 0.334712 0
M  V30 15566 H 1532.88 5.0085 0.895939 0
M  V30 15567 H 1532.28 4.06511 3.93402 0
M  V30 15568 H 1530.83 4.94295 4.24871 0
M  V30 15569 N 1534.27 0.138579 1.5699 0
M  V30 15570 C 1535.52 -0.513611 1.95465 0
M  V30 15571 C 1535.84 -1.65952 1.02396 0
M  V30 15572 O 1535.11 -1.9572 0.0839001 0
M  V30 15573 H 1533.69 -0.192729 0.72171 0
M  V30 15574 H 1536.35 0.212107 1.93742 0
M  V30 15575 H 1535.44 -0.895313 2.98983 0
M  V30 15576 N 1535.75 -1.57019 -0.13521 0
M  V30 15577 C 1536.97 -1.8816 -0.860434 0
M  V30 15578 C 1537.39 -0.728081 -1.74196 0
M  V30 15579 O 1536.75 0.301745 -1.79988 0
M  V30 15580 C 1536.8 -3.1864 -1.70737 0
M  V30 15581 O 1536.52 -4.29549 -0.861347 0
M  V30 15582 C 1538.02 -3.63376 -2.53915 0
M  V30 15583 H 1535.24 -0.623408 -0.248201 0
M  V30 15584 H 1537.78 -2.04121 -0.124461 0
M  V30 15585 H 1535.94 -3.04397 -2.39627 0
M  V30 15586 H 1536.35 -5.04233 -1.44393 0
M  V30 15587 H 1537.83 -4.57478 -3.08897 0
M  V30 15588 H 1538.3 -2.89238 -3.30512 0
M  V30 15589 H 1538.91 -3.80352 -1.90296 0
M  V30 15590 N 1537.22 0.404919 -1.52309 0
M  V30 15591 C 1538.45 1.17309 -1.70429 0
M  V30 15592 C 1538.87 1.84169 -0.415617 0
M  V30 15593 O 1538.22 1.7205 0.608693 0
M  V30 15594 C 1538.28 2.23306 -2.84282 0
M  V30 15595 O 1538 1.59176 -4.0816 0
M  V30 15596 C 1539.5 3.12972 -3.13948 0
M  V30 15597 H 1536.72 0.352348 -0.571045 0
M  V30 15598 H 1539.26 0.475851 -1.98887 0
M  V30 15599 H 1537.42 2.88693 -2.58332 0
M  V30 15600 H 1537.83 2.29481 -4.71634 0
M  V30 15601 H 1539.3 3.83411 -3.97115 0
M  V30 15602 H 1539.78 3.75582 -2.27672 0
M  V30 15603 H 1540.39 2.53251 -3.41678 0
M  V30 15604 N 1538.7 1.43003 0.662408 0
M  V30 15605 C 1540.11 1.39275 1.24336 0
M  V30 15606 C 1540.46 0.0921999 1.95983 0
M  V30 15607 O 1539.59 -0.808677 2.00722 0
M  V30 15608 C 1540.18 2.52287 2.26134 0
M  V30 15609 C 1538.74 2.51853 2.79727 0
M  V30 15610 C 1537.89 2.30453 1.5423 0
M  V30 15611 H 1540.84 1.52038 0.455002 0
M  V30 15612 H 1540.86 2.23249 3.08123 0
M  V30 15613 H 1540.37 3.46929 1.73959 0
M  V30 15614 H 1538.48 1.61064 3.3599 0
M  V30 15615 H 1538.59 3.49313 3.27898 0
M  V30 15616 H 1536.95 1.78946 1.81247 0
M  V30 15617 H 1537.74 3.27167 1.04003 0
M  V30 15618 N 1540.18 -0.899904 1.29381 0
M  V30 15619 C 1541.11 -2.00914 1.103 0
M  V30 15620 C 1542.13 -1.62721 0.050568 0
M  V30 15621 O 1543.31 -1.76044 0.295068 0
M  V30 15622 C 1540.41 -3.32473 0.656896 0
M  V30 15623 C 1539.59 -3.99195 1.7878 0
M  V30 15624 C 1538.65 -5.09043 1.33274 0
M  V30 15625 O 1537.67 -5.31486 2.03742 0
M  V30 15626 N 1538.87 -5.80143 0.203519 0
M  V30 15627 H 1541.64 -2.17838 2.05832 0
M  V30 15628 H 1539.2 -1.07208 1.21318 0
M  V30 15629 H 1541.19 -4.03305 0.335783 0
M  V30 15630 H 1539.76 -3.11921 -0.205959 0
M  V30 15631 H 1538.98 -3.21729 2.2778 0
M  V30 15632 H 1540.27 -4.40515 2.54606 0
M  V30 15633 H 1539.67 -5.64395 -0.384005 0
M  V30 15634 H 1538.23 -6.51774 -0.0582282 0
M  V30 15635 N 1541.66 -1.11854 -1.11024 0
M  V30 15636 C 1542.91 -0.864814 -1.82219 0
M  V30 15637 C 1543.22 0.611349 -1.85801 0
M  V30 15638 O 1544.43 0.981475 -2.53139 0
M  V30 15639 C 1542.88 -1.49745 -3.27268 0
M  V30 15640 C 1542.49 -3.00796 -3.32003 0
M  V30 15641 C 1544.23 -1.32374 -4.03333 0
M  V30 15642 C 1542.14 -3.57023 -4.71475 0
M  V30 15643 H 1541.07 -0.319877 -0.682784 0
M  V30 15644 H 1543.72 -1.34431 -1.24903 0
M  V30 15645 H 1542.1 -0.94562 -3.84544 0
M  V30 15646 H 1543.28 -3.6242 -2.84585 0
M  V30 15647 H 1541.59 -3.17493 -2.6942 0
M  V30 15648 H 1544.19 -1.7181 -5.06345 0
M  V30 15649 H 1544.53 -0.26676 -4.15444 0
M  V30 15650 H 1545.07 -1.84444 -3.52456 0
M  V30 15651 H 1541.81 -4.62453 -4.64562 0
M  V30 15652 H 1541.33 -3.00172 -5.19285 0
M  V30 15653 H 1543 -3.5572 -5.40437 0
M  V30 15654 N 1543.14 1.28707 -0.909517 0
M  V30 15655 C 1544.36 1.99821 -0.555557 0
M  V30 15656 C 1544.79 1.67549 0.854931 0
M  V30 15657 O 1544.14 0.905521 1.57067 0
M  V30 15658 C 1544.19 3.52361 -0.766438 0
M  V30 15659 O 1543.3 4.12022 0.17654 0
M  V30 15660 H 1542.64 0.627918 -0.215905 0
M  V30 15661 H 1545.17 1.63965 -1.2238 0
M  V30 15662 H 1545.18 4.02379 -0.674894 0
M  V30 15663 H 1543.85 3.75184 -1.7947 0
M  V30 15664 H 1542.43 3.72882 0.0366216 0
M  V30 15665 N 1544.61 0.673042 1.42506 0
M  V30 15666 C 1546.03 0.272049 1.84707 0
M  V30 15667 C 1546.38 -1.18545 1.56338 0
M  V30 15668 O 1545.5 -1.9073 1.02231 0
M  V30 15669 C 1546.1 0.486977 3.35282 0
M  V30 15670 C 1544.66 0.140122 3.76139 0
M  V30 15671 C 1543.8 0.780276 2.66096 0
M  V30 15672 H 1546.75 0.875329 1.32377 0
M  V30 15673 H 1546.77 -0.261443 3.79601 0
M  V30 15674 H 1546.29 1.54784 3.55898 0
M  V30 15675 H 1544.39 -0.917366 3.6113 0
M  V30 15676 H 1544.5 0.579417 4.75583 0
M  V30 15677 H 1542.86 0.211756 2.53818 0
M  V30 15678 H 1543.65 1.84456 2.89536 0
M  V30 15679 N 1546.09 -1.52004 0.416254 0
M  V30 15680 C 1547.32 -2.0679 -0.158937 0
M  V30 15681 C 1547.74 -1.28366 -1.37491 0
M  V30 15682 O 1547.1 -0.315815 -1.78528 0
M  V30 15683 C 1547.15 -3.57381 -0.480717 0
M  V30 15684 O 1546.25 -3.81321 -1.5706 0
M  V30 15685 H 1545.59 -0.663907 -0.0110938 0
M  V30 15686 H 1548.12 -1.95863 0.591509 0
M  V30 15687 H 1548.13 -4.01283 -0.737297 0
M  V30 15688 H 1546.81 -4.13893 0.408137 0
M  V30 15689 H 1545.39 -3.49296 -1.30563 0
M  V30 15690 N 1547.57 -0.146903 -1.56914 0
M  V30 15691 C 1548.8 0.511181 -2.00486 0
M  V30 15692 C 1549.21 1.58425 -1.02699 0
M  V30 15693 O 1548.57 1.82484 -0.0239878 0
M  V30 15694 C 1548.62 1.11191 -3.43975 0
M  V30 15695 O 1548.34 0.0817094 -4.38024 0
M  V30 15696 C 1549.84 1.85061 -4.02824 0
M  V30 15697 H 1547.06 0.133078 -0.657671 0
M  V30 15698 H 1549.61 -0.241457 -2.0307 0
M  V30 15699 H 1547.76 1.81517 -3.42243 0
M  V30 15700 H 1548.18 0.52181 -5.21898 0
M  V30 15701 H 1549.65 2.22385 -5.05222 0
M  V30 15702 H 1550.13 2.73649 -3.4353 0
M  V30 15703 H 1550.73 1.19434 -4.08186 0
M  V30 15704 N 1549.05 1.57088 0.126881 0
M  V30 15705 C 1549.98 2.02799 1.15737 0
M  V30 15706 C 1550.96 0.911031 1.43646 0
M  V30 15707 O 1552.14 1.18021 1.54223 0
M  V30 15708 C 1549.27 2.42565 2.48555 0
M  V30 15709 C 1548.23 3.57631 2.35125 0
M  V30 15710 C 1547.55 3.83272 3.72836 0
M  V30 15711 C 1548.85 4.89625 1.81838 0
M  V30 15712 H 1550.55 2.89136 0.777207 0
M  V30 15713 H 1548.09 1.39101 0.372416 0
M  V30 15714 H 1550.05 2.73146 3.20888 0
M  V30 15715 H 1548.77 1.53188 2.88446 0
M  V30 15716 H 1547.43 3.27247 1.65242 0
M  V30 15717 H 1547.08 2.91114 4.10197 0
M  V30 15718 H 1546.78 4.60721 3.64705 0
M  V30 15719 H 1548.3 4.16298 4.46686 0
M  V30 15720 H 1549.72 5.18793 2.43981 0
M  V30 15721 H 1548.11 5.71018 1.84548 0
M  V30 15722 H 1549.18 4.7866 0.775385 0
M  V30 15723 N 1550.53 -0.396836 1.52522 0
M  V30 15724 C 1551.78 -1.13978 1.66409 0
M  V30 15725 C 1552.09 -1.91333 0.406326 0
M  V30 15726 O 1553.29 -2.6815 0.425195 0
M  V30 15727 C 1551.75 -2.07512 2.94052 0
M  V30 15728 C 1551.36 -1.35616 4.2698 0
M  V30 15729 C 1553.1 -2.8199 3.17304 0
M  V30 15730 C 1551.01 -2.2787 5.45737 0
M  V30 15731 H 1549.94 -0.429181 0.619935 0
M  V30 15732 H 1552.59 -0.403207 1.79015 0
M  V30 15733 H 1550.97 -2.84773 2.75174 0
M  V30 15734 H 1552.15 -0.636349 4.56385 0
M  V30 15735 H 1550.46 -0.731297 4.09928 0
M  V30 15736 H 1553.06 -3.5118 4.03208 0
M  V30 15737 H 1553.4 -3.45629 2.32048 0
M  V30 15738 H 1553.93 -2.11824 3.36712 0
M  V30 15739 H 1550.67 -1.68858 6.33378 0
M  V30 15740 H 1550.19 -2.97789 5.20655 0
M  V30 15741 H 1551.87 -2.88126 5.79303 0
M  V30 15742 N 1552.01 -1.43353 -0.654814 0
M  V30 15743 C 1553.25 -1.44599 -1.41193 0
M  V30 15744 C 1553.57 -0.0707955 -1.94871 0
M  V30 15745 O 1552.84 0.893637 -1.7433 0
M  V30 15746 H 1551.42 -0.532373 -0.524011 0
M  V30 15747 H 1554.09 -1.78942 -0.772388 0
M  V30 15748 H 1553.18 -2.15761 -2.25508 0
M  V30 15749 N 1553.48 0.89303 -1.29857 0
M  V30 15750 C 1554.71 1.6827 -1.21243 0
M  V30 15751 C 1555.13 1.86778 0.222621 0
M  V30 15752 O 1554.49 1.39291 1.1605 0
M  V30 15753 C 1554.54 3.041 -1.93792 0
M  V30 15754 O 1553.64 3.92696 -1.25951 0
M  V30 15755 H 1552.98 0.514479 -0.419771 0
M  V30 15756 H 1555.51 1.11513 -1.7154 0
M  V30 15757 H 1555.52 3.54198 -2.02504 0
M  V30 15758 H 1554.2 2.89948 -2.98166 0
M  V30 15759 H 1552.78 3.51132 -1.25541 0
M  V30 15760 N 1554.96 1.12442 1.10429 0
M  V30 15761 C 1555.89 0.814745 2.18824 0
M  V30 15762 C 1556.87 -0.221476 1.68652 0
M  V30 15763 O 1558.06 -0.0826537 1.94024 0
M  V30 15764 C 1555.19 0.268632 3.4626 0
M  V30 15765 C 1554.14 1.23792 4.09707 0
M  V30 15766 C 1553.47 0.552034 5.31843 0
M  V30 15767 C 1554.77 2.5926 4.53411 0
M  V30 15768 H 1556.46 1.72111 2.44986 0
M  V30 15769 H 1554.01 0.828968 1.17746 0
M  V30 15770 H 1555.96 0.0397207 4.21381 0
M  V30 15771 H 1554.68 -0.673079 3.19589 0
M  V30 15772 H 1553.34 1.45264 3.36592 0
M  V30 15773 H 1552.99 -0.394821 5.01448 0
M  V30 15774 H 1552.69 1.19861 5.75245 0
M  V30 15775 H 1554.22 0.332161 6.09696 0
M  V30 15776 H 1555.63 2.41816 5.19806 0
M  V30 15777 H 1554.03 3.19997 5.07663 0
M  V30 15778 H 1555.1 3.17699 3.66327 0
M  V30 15779 N 1556.44 -1.28223 0.91633 0
M  V30 15780 C 1557.86 -1.47281 0.614864 0
M  V30 15781 C 1558.06 -1.83197 -0.839111 0
M  V30 15782 O 1557.11 -1.9385 -1.61798 0
M  V30 15783 C 1558.42 -2.57373 1.55498 0
M  V30 15784 C 1559.97 -2.71241 1.56197 0
M  V30 15785 C 1560.45 -3.84479 2.48877 0
M  V30 15786 N 1561.94 -3.91837 2.47019 0
M  V30 15787 C 1562.67 -4.78846 3.15427 0
M  V30 15788 N 1562.17 -5.70427 3.93173 0
M  V30 15789 N 1563.96 -4.72478 3.04501 0
M  V30 15790 H 1556.11 -1.03191 1.85649 0
M  V30 15791 H 1558.38 -0.514213 0.796422 0
M  V30 15792 H 1558.08 -2.37747 2.5917 0
M  V30 15793 H 1557.96 -3.54527 1.28803 0
M  V30 15794 H 1560.34 -2.90254 0.532619 0
M  V30 15795 H 1560.42 -1.74609 1.86937 0
M  V30 15796 H 1560.07 -3.6622 3.51916 0
M  V30 15797 H 1560 -4.80514 2.15439 0
M  V30 15798 H 1562.49 -3.26344 1.90546 0
M  V30 15799 H 1562.8 -6.33653 4.42384 0
M  V30 15800 H 1561.15 -5.70259 3.97278 0
M  V30 15801 H 1564.34 -3.99925 2.43265 0
M  V30 15802 H 1564.51 -5.40073 3.58086 0
M  V30 15803 N 1557.92 -0.68059 -1.42147 0
M  V30 15804 C 1559.15 -0.213839 -2.05792 0
M  V30 15805 C 1559.56 1.13123 -1.51158 0
M  V30 15806 O 1558.92 1.7039 -0.653708 0
M  V30 15807 C 1558.97 -0.146507 -3.61203 0
M  V30 15808 O 1558.69 -1.43843 -4.13813 0
M  V30 15809 C 1560.19 0.343043 -4.41971 0
M  V30 15810 H 1557.41 -0.10262 -0.663106 0
M  V30 15811 H 1559.95 -0.928957 -1.82183 0
M  V30 15812 H 1558.11 0.519335 -3.83903 0
M  V30 15813 H 1558.52 -1.31561 -5.07732 0
M  V30 15814 H 1560 0.339053 -5.50958 0
M  V30 15815 H 1560.47 1.37933 -4.16979 0
M  V30 15816 H 1561.08 -0.291267 -4.24301 0
M  V30 15817 N 1559.4 1.51781 -0.424309 0
M  V30 15818 C 1560.33 2.30313 0.384462 0
M  V30 15819 C 1561.31 1.35166 1.03268 0
M  V30 15820 O 1562.49 1.64081 1.0388 0
M  V30 15821 C 1559.62 3.13566 1.49311 0
M  V30 15822 C 1558.58 4.16884 0.969096 0
M  V30 15823 C 1557.9 4.88576 2.17251 0
M  V30 15824 C 1559.2 5.22298 0.0125613 0
M  V30 15825 H 1560.9 2.98172 -0.270871 0
M  V30 15826 H 1558.44 1.43396 -0.131712 0
M  V30 15827 H 1560.39 3.67279 2.06602 0
M  V30 15828 H 1559.12 2.43504 2.17655 0
M  V30 15829 H 1557.78 3.64203 0.418494 0
M  V30 15830 H 1557.43 4.15029 2.84183 0
M  V30 15831 H 1557.13 5.58432 1.82833 0
M  V30 15832 H 1558.65 5.45107 2.75119 0
M  V30 15833 H 1560.06 5.71161 0.494744 0
M  V30 15834 H 1558.46 5.99606 -0.243544 0
M  V30 15835 H 1559.53 4.75935 -0.92813 0
M  V30 15836 N 1560.87 0.155222 1.56834 0
M  V30 15837 C 1561.78 -0.794179 2.20749 0
M  V30 15838 C 1562.8 -1.26546 1.19424 0
M  V30 15839 O 1563.98 -1.32094 1.5203 0
M  V30 15840 C 1561.04 -2.01261 2.82303 0
M  V30 15841 C 1560.1 -1.58976 3.98779 0
M  V30 15842 C 1559.33 -2.75011 4.57389 0
M  V30 15843 O 1559.56 -3.91449 4.14879 0
M  V30 15844 O 1558.49 -2.50011 5.4752 0
M  V30 15845 H 1562.32 -0.280064 3.02406 0
M  V30 15846 H 1559.9 -0.0722048 1.49225 0
M  V30 15847 H 1561.78 -2.72551 3.21394 0
M  V30 15848 H 1560.46 -2.51609 2.03653 0
M  V30 15849 H 1559.37 -0.846848 3.64389 0
M  V30 15850 H 1560.7 -1.13336 4.78974 0
M  V30 15851 N 1562.35 -1.57153 -0.118549 0
M  V30 15852 C 1563.28 -2.03409 -1.1466 0
M  V30 15853 C 1564.26 -0.918636 -1.43161 0
M  V30 15854 O 1565.45 -1.18838 -1.53594 0
M  V30 15855 C 1562.58 -2.43879 -2.47265 0
M  V30 15856 C 1561.53 -3.58873 -2.33225 0
M  V30 15857 C 1560.86 -3.85244 -3.70798 0
M  V30 15858 C 1562.16 -4.90582 -1.79239 0
M  V30 15859 H 1563.85 -2.89545 -0.761862 0
M  V30 15860 H 1561.4 -1.39296 -0.365034 0
M  V30 15861 H 1563.35 -2.74844 -3.19435 0
M  V30 15862 H 1562.07 -1.54715 -2.8763 0
M  V30 15863 H 1560.73 -3.28119 -1.63504 0
M  V30 15864 H 1560.38 -2.93285 -4.08648 0
M  V30 15865 H 1560.08 -4.62649 -3.62257 0
M  V30 15866 H 1561.61 -4.18661 -4.44472 0
M  V30 15867 H 1563.02 -5.20079 -2.41227 0
M  V30 15868 H 1561.42 -5.71989 -1.81518 0
M  V30 15869 H 1562.49 -4.79065 -0.74999 0
M  V30 15870 N 1563.83 0.388742 -1.5273 0
M  V30 15871 C 1565.08 1.13151 -1.67455 0
M  V30 15872 C 1565.4 1.90487 -0.417095 0
M  V30 15873 O 1564.67 1.87469 0.568509 0
M  V30 15874 H 1563.25 0.4207 -0.617269 0
M  V30 15875 H 1565.91 0.44098 -1.89846 0
M  V30 15876 H 1565.01 1.83427 -2.52509 0
M  V30 15877 N 1565.31 1.43698 0.647203 0
M  V30 15878 C 1566.53 1.49301 1.43958 0
M  V30 15879 C 1566.96 0.11395 1.87755 0
M  V30 15880 O 1566.32 -0.893571 1.5775 0
M  V30 15881 C 1566.36 2.44905 2.64677 0
M  V30 15882 O 1565.47 1.93947 3.63948 0
M  V30 15883 H 1564.81 0.504771 0.431396 0
M  V30 15884 H 1567.34 1.88673 0.791432 0
M  V30 15885 H 1567.35 2.62409 3.12419 0
M  V30 15886 H 1566.02 3.45083 2.32143 0
M  V30 15887 H 1564.6 1.86133 3.23124 0
M  V30 15888 N 1566.79 -0.886131 1.30328 0
M  V30 15889 C 1567.7 -2.02453 1.18532 0
M  V30 15890 C 1568.71 -1.7368 0.105506 0
M  V30 15891 O 1569.89 -1.98838 0.320217 0
M  V30 15892 C 1566.95 -3.3543 0.876792 0
M  V30 15893 C 1566.01 -3.77633 2.04185 0
M  V30 15894 C 1565.25 -5.04264 1.74795 0
M  V30 15895 O 1565.47 -5.66388 0.675323 0
M  V30 15896 O 1564.4 -5.42847 2.60001 0
M  V30 15897 H 1568.23 -2.15333 2.14162 0
M  V30 15898 H 1565.82 -1.01193 1.09911 0
M  V30 15899 H 1567.7 -4.15206 0.719882 0
M  V30 15900 H 1566.37 -3.23662 -0.0496117 0
M  V30 15901 H 1565.28 -2.98567 2.25408 0
M  V30 15902 H 1566.61 -3.94004 2.94994 0
M  V30 15903 N 1568.26 -1.13026 -1.09832 0
M  V30 15904 C 1569.49 -0.912803 -1.86233 0
M  V30 15905 C 1569.91 0.532955 -1.80392 0
M  V30 15906 O 1569.27 1.37783 -1.17837 0
M  V30 15907 C 1569.32 -1.40002 -3.32313 0
M  V30 15908 O 1568.42 -0.582537 -4.08265 0
M  V30 15909 H 1567.77 -0.327464 -0.577636 0
M  V30 15910 H 1570.3 -1.5039 -1.38723 0
M  V30 15911 H 1570.31 -1.40182 -3.83162 0
M  V30 15912 H 1568.98 -2.4527 -3.3588 0
M  V30 15913 H 1567.56 -0.648255 -3.67222 0
M  V30 15914 N 1569.74 1.27735 -0.923117 0
M  V30 15915 C 1570.67 2.26095 -0.375982 0
M  V30 15916 C 1571.69 1.55227 0.490763 0
M  V30 15917 O 1572.88 1.7589 0.304127 0
M  V30 15918 C 1569.98 3.35479 0.480342 0
M  V30 15919 C 1569.15 4.35866 -0.36605 0
M  V30 15920 C 1568.21 5.24466 0.42688 0
M  V30 15921 O 1567.23 5.68964 -0.163825 0
M  V30 15922 N 1568.44 5.54192 1.72777 0
M  V30 15923 H 1571.2 2.73679 -1.22147 0
M  V30 15924 H 1568.76 1.41314 -0.790056 0
M  V30 15925 H 1570.75 3.91693 1.01776 0
M  V30 15926 H 1569.32 2.87531 1.22657 0
M  V30 15927 H 1568.54 3.7898 -1.08479 0
M  V30 15928 H 1569.83 4.9995 -0.944849 0
M  V30 15929 H 1569.23 5.19888 2.23008 0
M  V30 15930 H 1567.79 6.13125 2.21181 0
M  V30 15931 N 1571.22 0.688118 1.41784 0
M  V30 15932 C 1572.47 0.215517 2.00948 0
M  V30 15933 C 1572.79 -1.18656 1.54744 0
M  V30 15934 O 1572.06 -1.79925 0.774831 0
M  V30 15935 H 1570.64 0.0766876 0.743053 0
M  V30 15936 H 1573.3 0.88761 1.73515 0
M  V30 15937 H 1572.4 0.227139 3.11272 0
M  V30 15938 N 1572.7 -1.51554 0.432352 0
M  V30 15939 C 1573.66 -2.26195 -0.369912 0
M  V30 15940 C 1574.66 -1.29446 -0.953961 0
M  V30 15941 O 1575.85 -1.53199 -0.829193 0
M  V30 15942 C 1572.98 -3.04993 -1.52289 0
M  V30 15943 H 1574.18 -2.98551 0.284173 0
M  V30 15944 H 1571.73 -1.55197 0.1854 0
M  V30 15945 H 1572.46 -2.37043 -2.21317 0
M  V30 15946 H 1572.25 -3.76051 -1.11032 0
M  V30 15947 H 1573.74 -3.61547 -2.08982 0
M  V30 15948 N 1574.18 -0.163538 -1.56749 0
M  V30 15949 C 1575.4 0.493087 -2.01453 0
M  V30 15950 C 1575.83 1.56535 -1.043 0
M  V30 15951 O 1575.18 1.81287 -0.0213039 0
M  V30 15952 C 1575.23 1.05546 -3.44808 0
M  V30 15953 O 1574.34 2.16977 -3.50706 0
M  V30 15954 H 1573.68 0.118905 -0.653267 0
M  V30 15955 H 1576.21 -0.265139 -2.02875 0
M  V30 15956 H 1576.22 1.38002 -3.83953 0
M  V30 15957 H 1574.89 0.270333 -4.1502 0
M  V30 15958 H 1573.47 1.85625 -3.23416 0
M  V30 15959 N 1575.65 1.57214 0.110213 0
M  V30 15960 C 1576.56 2.04287 1.15342 0
M  V30 15961 C 1577.58 0.964895 1.44796 0
M  V30 15962 O 1578.76 1.27702 1.55737 0
M  V30 15963 C 1575.82 2.44518 2.45788 0
M  V30 15964 C 1574.88 3.66439 2.23653 0
M  V30 15965 C 1574.12 4.04742 3.47879 0
M  V30 15966 O 1574.34 3.43291 4.5553 0
M  V30 15967 O 1573.27 4.97791 3.38361 0
M  V30 15968 H 1577.1 2.93415 0.783656 0
M  V30 15969 H 1574.68 1.45897 0.321644 0
M  V30 15970 H 1576.57 2.71089 3.22628 0
M  V30 15971 H 1575.24 1.58533 2.82221 0
M  V30 15972 H 1574.15 3.45006 1.44643 0
M  V30 15973 H 1575.48 4.53156 1.9212 0
M  V30 15974 N 1577.13 -0.380637 1.52934 0
M  V30 15975 C 1578.36 -1.15033 1.72575 0
M  V30 15976 C 1578.78 -1.82715 0.446869 0
M  V30 15977 O 1578.14 -1.71154 -0.598004 0
M  V30 15978 C 1578.19 -2.16773 2.8817 0
M  V30 15979 O 1577.29 -3.23539 2.55727 0
M  V30 15980 H 1576.63 -0.334489 0.573597 0
M  V30 15981 H 1579.16 -0.442369 1.9976 0
M  V30 15982 H 1579.17 -2.60629 3.13905 0
M  V30 15983 H 1577.85 -1.669 3.80943 0
M  V30 15984 H 1576.43 -2.84761 2.4076 0
M  V30 15985 N 1578.61 -1.44039 -0.639573 0
M  V30 15986 C 1579.54 -1.46233 -1.76489 0
M  V30 15987 C 1580.56 -0.356739 -1.58843 0
M  V30 15988 O 1581.74 -0.621988 -1.67313 0
M  V30 15989 C 1578.84 -1.27252 -3.14102 0
M  V30 15990 C 1578.02 -2.50902 -3.58283 0
M  V30 15991 C 1577.08 -2.26944 -4.74745 0
M  V30 15992 O 1576.1 -3.00381 -4.83487 0
M  V30 15993 N 1577.3 -1.29468 -5.65878 0
M  V30 15994 H 1580.07 -2.43243 -1.7508 0
M  V30 15995 H 1577.63 -1.3937 -0.823867 0
M  V30 15996 H 1579.62 -1.09085 -3.89721 0
M  V30 15997 H 1578.19 -0.386383 -3.10203 0
M  V30 15998 H 1577.41 -2.84403 -2.72963 0
M  V30 15999 H 1578.7 -3.33163 -3.84552 0
M  V30 16000 H 1578.1 -0.687994 -5.61501 0
M  V30 16001 H 1576.66 -1.17281 -6.41162 0
M  V30 16002 N 1580.09 0.879207 -1.30796 0
M  V30 16003 C 1581.05 1.96707 -1.17639 0
M  V30 16004 C 1582.05 1.6045 -0.106013 0
M  V30 16005 O 1583.24 1.70553 -0.354573 0
M  V30 16006 C 1580.37 3.31292 -0.803625 0
M  V30 16007 H 1581.57 2.09806 -2.14293 0
M  V30 16008 H 1579.12 1.06634 -1.14276 0
M  V30 16009 H 1579.85 3.23894 0.162159 0
M  V30 16010 H 1579.64 3.58979 -1.57723 0
M  V30 16011 H 1581.13 4.11077 -0.735201 0
M  V30 16012 N 1581.57 1.13606 1.09231 0
M  V30 16013 C 1582.98 0.91148 1.62938 0
M  V30 16014 C 1583.33 -0.55157 1.88287 0
M  V30 16015 O 1582.45 -1.4187 1.63407 0
M  V30 16016 C 1583.05 1.64812 2.96011 0
M  V30 16017 C 1581.61 1.46935 3.46536 0
M  V30 16018 C 1580.76 1.67605 2.20916 0
M  V30 16019 H 1583.71 1.28907 0.925669 0
M  V30 16020 H 1583.73 1.10638 3.6406 0
M  V30 16021 H 1583.24 2.71291 2.77529 0
M  V30 16022 H 1581.34 0.427667 3.70138 0
M  V30 16023 H 1581.45 2.23374 4.2384 0
M  V30 16024 H 1579.82 1.10105 2.29672 0
M  V30 16025 H 1580.6 2.75408 2.04952 0
M  V30 16026 N 1583.05 -1.27244 0.929878 0
M  V30 16027 C 1584.29 -1.93886 0.570331 0
M  V30 16028 C 1584.61 -1.7342 -0.891656 0
M  V30 16029 O 1583.88 -1.0832 -1.63228 0
M  V30 16030 H 1582.46 -0.717476 0.207937 0
M  V30 16031 H 1585.13 -1.5491 1.18275 0
M  V30 16032 H 1584.22 -3.02236 0.778463 0
M  V30 16033 N 1584.52 -0.695628 -1.41417 0
M  V30 16034 C 1585.43 -0.0308378 -2.3458 0
M  V30 16035 C 1586.45 0.766 -1.56232 0
M  V30 16036 O 1587.63 0.703548 -1.88712 0
M  V30 16037 C 1584.69 0.894162 -3.34971 0
M  V30 16038 C 1583.75 0.0895231 -4.29207 0
M  V30 16039 C 1582.98 0.970467 -5.24802 0
M  V30 16040 O 1583.21 2.20997 -5.25848 0
M  V30 16041 O 1582.14 0.420114 -6.00432 0
M  V30 16042 H 1585.97 -0.798775 -2.93007 0
M  V30 16043 H 1583.55 -0.455964 -1.42272 0
M  V30 16044 H 1585.43 1.42458 -3.9659 0
M  V30 16045 H 1584.11 1.64159 -2.78987 0
M  V30 16046 H 1583.02 -0.4855 -3.70936 0
M  V30 16047 H 1584.35 -0.619241 -4.88289 0
M  V30 16048 N 1586 1.51322 -0.440383 0
M  V30 16049 C 1586.91 2.31574 0.37561 0
M  V30 16050 C 1587.93 1.40617 1.02483 0
M  V30 16051 O 1589.1 1.73688 1.01953 0
M  V30 16052 C 1586.17 3.14441 1.4604 0
M  V30 16053 C 1585.23 4.21181 0.830991 0
M  V30 16054 C 1584.46 5.00087 1.86409 0
M  V30 16055 O 1584.69 4.79666 3.08669 0
M  V30 16056 O 1583.62 5.84101 1.45293 0
M  V30 16057 H 1587.45 3.0241 -0.27962 0
M  V30 16058 H 1585.03 1.48016 -0.202857 0
M  V30 16059 H 1586.91 3.6595 2.08946 0
M  V30 16060 H 1585.59 2.46366 2.09965 0
M  V30 16061 H 1584.49 3.73741 0.163798 0
M  V30 16062 H 1585.83 4.91638 0.235174 0
M  V30 16063 N 1587.48 0.171848 1.5666 0
M  V30 16064 C 1588.43 -0.775125 2.19305 0
M  V30 16065 C 1589.42 -1.23711 1.15724 0
M  V30 16066 O 1590.63 -1.2027 1.33922 0
M  V30 16067 H 1587 -0.268245 0.70253 0
M  V30 16068 H 1588.97 -0.222823 2.97567 0
M  V30 16069 C 1587.72 -1.99397 2.84844 0
M  V30 16070 H 1587.05 -1.64752 3.64276 0
M  V30 16071 H 1588.49 -2.63545 3.32145 0
M  V30 16072 C 1586.94 -2.81794 1.84645 0
M  V30 16073 O 1587.47 -3.78964 1.33225 0
M  V30 16074 N 1585.68 -2.4682 1.5339 0
M  V30 16075 H 1585.23 -1.67862 1.95397 0
M  V30 16076 H 1585.19 -3.02238 0.866004 0
M  V30 16077 N 1588.96 -1.5727 -0.101874 0
M  V30 16078 C 1589.89 -2.04614 -1.12496 0
M  V30 16079 C 1590.87 -0.933768 -1.42179 0
M  V30 16080 O 1592.05 -1.2046 -1.52325 0
M  V30 16081 C 1589.18 -2.46488 -2.44665 0
M  V30 16082 C 1588.14 -3.61327 -2.29406 0
M  V30 16083 C 1587.46 -3.89155 -3.66691 0
M  V30 16084 C 1588.76 -4.92455 -1.74026 0
M  V30 16085 H 1590.46 -2.90336 -0.731109 0
M  V30 16086 H 1588 -1.39676 -0.350239 0
M  V30 16087 H 1589.96 -2.78216 -3.16502 0
M  V30 16088 H 1588.68 -1.57757 -2.85972 0
M  V30 16089 H 1587.34 -3.29835 -1.60015 0
M  V30 16090 H 1586.99 -2.97603 -4.05514 0
M  V30 16091 H 1586.69 -4.66465 -3.57329 0
M  V30 16092 H 1588.21 -4.23352 -4.40006 0
M  V30 16093 H 1589.63 -5.22609 -2.35697 0
M  V30 16094 H 1588.02 -5.73882 -1.75441 0
M  V30 16095 H 1589.09 -4.79833 -0.699136 0
M  V30 16096 N 1590.44 0.372521 -1.53134 0
M  V30 16097 C 1591.37 1.4621 -1.82057 0
M  V30 16098 C 1592.35 1.56194 -0.673612 0
M  V30 16099 O 1593.53 1.70875 -0.922797 0
M  V30 16100 C 1590.66 2.83632 -2.00425 0
M  V30 16101 C 1589.62 2.88478 -3.16171 0
M  V30 16102 C 1588.94 4.28508 -3.19821 0
M  V30 16103 C 1590.24 2.56628 -4.54906 0
M  V30 16104 H 1591.94 1.22256 -2.73302 0
M  V30 16105 H 1589.48 0.586688 -1.31507 0
M  V30 16106 H 1591.43 3.59876 -2.19242 0
M  V30 16107 H 1590.16 3.0896 -1.05884 0
M  V30 16108 H 1588.82 2.14684 -2.97164 0
M  V30 16109 H 1588.47 4.509 -2.2293 0
M  V30 16110 H 1588.17 4.32667 -3.97584 0
M  V30 16111 H 1589.69 5.06635 -3.40813 0
M  V30 16112 H 1591.1 3.22587 -4.73931 0
M  V30 16113 H 1589.5 2.72114 -5.34859 0
M  V30 16114 H 1590.57 1.51902 -4.60493 0
M  V30 16115 N 1591.91 1.44376 0.631925 0
M  V30 16116 C 1593.16 1.46827 1.38875 0
M  V30 16117 C 1593.48 0.101789 1.94734 0
M  V30 16118 O 1592.75 -0.86579 1.7573 0
M  V30 16119 H 1591.33 0.540642 0.515475 0
M  V30 16120 H 1593.99 1.80148 0.743822 0
M  V30 16121 H 1593.09 2.19321 2.22047 0
M  V30 16122 N 1593.39 -0.872258 1.31261 0
M  V30 16123 C 1594.3 -2.01185 1.20673 0
M  V30 16124 C 1595.32 -1.73558 0.123921 0
M  V30 16125 O 1596.49 -1.98487 0.341288 0
M  V30 16126 C 1593.56 -3.34481 0.91232 0
M  V30 16127 C 1592.62 -3.75446 2.08179 0
M  V30 16128 C 1591.85 -5.02382 1.80134 0
M  V30 16129 O 1592.08 -5.6564 0.735358 0
M  V30 16130 O 1591.01 -5.40059 2.65744 0
M  V30 16131 H 1594.84 -2.13049 2.16434 0
M  V30 16132 H 1592.42 -1.00021 1.10978 0
M  V30 16133 H 1594.3 -4.14419 0.763879 0
M  V30 16134 H 1592.98 -3.23696 -0.0152802 0
M  V30 16135 H 1591.88 -2.96159 2.28562 0
M  V30 16136 H 1593.22 -3.90853 2.99156 0
M  V30 16137 N 1594.87 -1.14184 -1.08627 0
M  V30 16138 C 1595.83 -0.82954 -2.13662 0
M  V30 16139 C 1596.83 0.164794 -1.59953 0
M  V30 16140 O 1598.02 -0.0632831 -1.74085 0
M  V30 16141 C 1595.15 -0.236176 -3.40081 0
M  V30 16142 H 1596.35 -1.76038 -2.42797 0
M  V30 16143 H 1593.9 -0.947568 -1.24301 0
M  V30 16144 H 1594.64 0.70349 -3.16578 0
M  V30 16145 H 1594.42 -0.952341 -3.80359 0
M  V30 16146 H 1595.91 -0.03481 -4.17585 0
M  V30 16147 N 1596.35 1.26749 -0.936613 0
M  V30 16148 C 1597.31 2.24794 -0.447243 0
M  V30 16149 C 1598.31 1.54688 0.439135 0
M  V30 16150 O 1599.5 1.72553 0.238957 0
M  V30 16151 C 1596.63 3.39036 0.355958 0
M  V30 16152 H 1597.83 2.696 -1.31361 0
M  V30 16153 H 1595.38 1.38825 -0.718143 0
M  V30 16154 H 1596.11 2.99625 1.24077 0
M  V30 16155 H 1595.9 3.91101 -0.279691 0
M  V30 16156 H 1597.39 4.11887 0.688421 0
M  V30 16157 N 1597.83 0.703118 1.41046 0
M  V30 16158 C 1599.07 0.236818 2.00708 0
M  V30 16159 C 1599.4 -1.17008 1.55994 0
M  V30 16160 O 1598.67 -1.79094 0.793871 0
M  V30 16161 H 1597.25 0.0845643 0.742198 0
M  V30 16162 H 1599.91 0.905964 1.72564 0
M  V30 16163 H 1599 0.260141 3.11014 0
M  V30 16164 N 1599.3 -1.51086 0.448402 0
M  V30 16165 C 1600.55 -2.01778 -0.114116 0
M  V30 16166 C 1600.87 -1.3339 -1.4224 0
M  V30 16167 O 1600.14 -0.471938 -1.9013 0
M  V30 16168 H 1598.72 -0.745634 -0.0451624 0
M  V30 16169 H 1601.39 -1.85639 0.59364 0
M  V30 16170 H 1600.48 -3.10823 -0.28205 0
M  V30 16171 N 1600.78 -0.180154 -1.56567 0
M  V30 16172 C 1601.71 0.77825 -2.15583 0
M  V30 16173 C 1602.73 1.18746 -1.1137 0
M  V30 16174 O 1603.92 1.12578 -1.38523 0
M  V30 16175 C 1601.02 2.06024 -2.69086 0
M  V30 16176 C 1600.19 1.8132 -3.98047 0
M  V30 16177 C 1599.25 2.93823 -4.36526 0
M  V30 16178 O 1598.27 2.64075 -5.04235 0
M  V30 16179 N 1599.48 4.21823 -3.98806 0
M  V30 16180 H 1602.24 0.273661 -2.98448 0
M  V30 16181 H 1599.8 0.00232952 -1.619 0
M  V30 16182 H 1601.79 2.80398 -2.9182 0
M  V30 16183 H 1600.36 2.47648 -1.9076 0
M  V30 16184 H 1599.58 0.908046 -3.83599 0
M  V30 16185 H 1600.87 1.62194 -4.82256 0
M  V30 16186 H 1600.27 4.48849 -3.44313 0
M  V30 16187 H 1598.83 4.92871 -4.26522 0
M  V30 16188 N 1602.26 1.57322 0.0935319 0
M  V30 16189 C 1603.54 1.77187 0.828503 0
M  V30 16190 C 1603.92 0.762216 1.96859 0
M  V30 16191 O 1603.27 -0.208982 2.27542 0
M  V30 16192 C 1603.48 3.23007 1.32163 0
M  V30 16193 C 1604.82 3.86233 1.76379 0
M  V30 16194 O 1605.85 3.26766 1.41783 0
M  V30 16195 O 1604.71 4.90808 2.40354 0
M  V30 16196 H 1601.8 0.726401 0.395311 0
M  V30 16197 H 1604.35 1.69533 0.0752924 0
M  V30 16198 H 1603.12 3.88029 0.504863 0
M  V30 16199 H 1602.74 3.353 2.13681 0
M  V30 16200 N 1603.74 -0.364395 1.53329 0
M  V30 16201 C 1604.67 -1.46893 1.74636 0
M  V30 16202 C 1605.65 -1.51332 0.594757 0
M  V30 16203 O 1606.83 -1.69366 0.827489 0
M  V30 16204 C 1603.96 -2.85249 1.82622 0
M  V30 16205 C 1603.01 -2.98528 3.04603 0
M  V30 16206 S 1603.84 -2.6716 4.64097 0
M  V30 16207 C 1605 -4.07663 4.74933 0
M  V30 16208 H 1605.23 -1.28599 2.68048 0
M  V30 16209 H 1602.76 -0.558804 1.43933 0
M  V30 16210 H 1604.72 -3.64966 1.87909 0
M  V30 16211 H 1603.38 -3.00852 0.9026 0
M  V30 16212 H 1602.57 -3.99859 3.06804 0
M  V30 16213 H 1602.18 -2.26734 2.97435 0
M  V30 16214 H 1604.47 -5.01922 4.55061 0
M  V30 16215 H 1605.41 -4.10466 5.76995 0
M  V30 16216 H 1605.82 -3.94718 4.03557 0
M  V30 16217 N 1605.22 -1.44709 -0.62426 0
M  V30 16218 C 1606.18 -1.51738 -1.7178 0
M  V30 16219 C 1607.18 -0.398646 -1.5578 0
M  V30 16220 O 1608.37 -0.661525 -1.61151 0
M  V30 16221 C 1605.5 -1.39792 -3.1092 0
M  V30 16222 H 1606.69 -2.49154 -1.6692 0
M  V30 16223 H 1604.25 -1.31903 -0.838531 0
M  V30 16224 H 1604.98 -0.434955 -3.2137 0
M  V30 16225 H 1604.77 -2.20919 -3.2394 0
M  V30 16226 H 1606.26 -1.47706 -3.90606 0
M  V30 16227 N 1606.69 0.865285 -1.31722 0
M  V30 16228 C 1607.97 1.60146 -1.12306 0
M  V30 16229 C 1608.35 2.08653 0.320508 0
M  V30 16230 O 1607.7 1.86841 1.31539 0
M  V30 16231 C 1607.91 2.75583 -2.14138 0
M  V30 16232 C 1609.26 3.45429 -2.46909 0
M  V30 16233 O 1610.28 2.85795 -2.12602 0
M  V30 16234 O 1609.14 4.53017 -3.05676 0
M  V30 16235 H 1606.23 0.704786 -0.432673 0
M  V30 16236 H 1608.78 0.910339 -1.43216 0
M  V30 16237 H 1607.55 2.37187 -3.1122 0
M  V30 16238 H 1607.18 3.52378 -1.84161 0
M  V30 16239 N 1608.17 1.14759 1.0802 0
M  V30 16240 C 1609.4 0.942316 1.84757 0
M  V30 16241 C 1609.82 -0.504188 1.81217 0
M  V30 16242 O 1609.18 -1.35891 1.20014 0
M  V30 16243 C 1609.23 1.45271 3.30043 0
M  V30 16244 O 1608.33 0.647414 4.07287 0
M  V30 16245 H 1607.67 0.336613 0.572353 0
M  V30 16246 H 1610.2 1.52578 1.36313 0
M  V30 16247 H 1610.21 1.4626 3.80883 0
M  V30 16248 H 1608.89 2.50583 3.31935 0
M  V30 16249 H 1607.47 0.706595 3.66144 0
M  V30 16250 N 1609.65 -1.26251 0.943322 0
M  V30 16251 C 1610.58 -2.24687 0.398877 0
M  V30 16252 C 1611.56 -1.54279 -0.513498 0
M  V30 16253 O 1612.75 -1.83039 -0.450458 0
M  V30 16254 C 1609.87 -3.36002 -0.426657 0
M  V30 16255 C 1608.92 -4.24382 0.424497 0
M  V30 16256 S 1609.75 -5.02537 1.84977 0
M  V30 16257 C 1610.91 -6.17328 1.03235 0
M  V30 16258 H 1611.14 -2.7052 1.23313 0
M  V30 16259 H 1608.67 -1.3515 0.746587 0
M  V30 16260 H 1610.63 -4.00579 -0.897053 0
M  V30 16261 H 1609.29 -2.88776 -1.23561 0
M  V30 16262 H 1608.49 -5.0357 -0.208116 0
M  V30 16263 H 1608.09 -3.64682 0.829661 0
M  V30 16264 H 1610.38 -6.76939 0.275635 0
M  V30 16265 H 1611.32 -6.84899 1.79776 0
M  V30 16266 H 1611.73 -5.61641 0.567466 0
M  V30 16267 N 1611.13 -0.710588 -1.40671 0
M  V30 16268 C 1612.06 -0.0694601 -2.33397 0
M  V30 16269 C 1613.04 0.750959 -1.52626 0
M  V30 16270 O 1614.23 0.700896 -1.81111 0
M  V30 16271 C 1611.36 0.856704 -3.36568 0
M  V30 16272 C 1610.31 0.142276 -4.27763 0
M  V30 16273 C 1609.64 1.18382 -5.21431 0
M  V30 16274 C 1610.94 -1.00052 -5.12627 0
M  V30 16275 H 1612.63 -0.843945 -2.87259 0
M  V30 16276 H 1610.18 -0.407287 -1.3812 0
M  V30 16277 H 1612.13 1.31457 -4.00371 0
M  V30 16278 H 1610.85 1.66303 -2.81089 0
M  V30 16279 H 1609.51 -0.295714 -3.65405 0
M  V30 16280 H 1609.16 1.98306 -4.62259 0
M  V30 16281 H 1608.86 0.71071 -5.83286 0
M  V30 16282 H 1610.38 1.64189 -5.88111 0
M  V30 16283 H 1611.8 -0.622246 -5.69913 0
M  V30 16284 H 1610.19 -1.40168 -5.83501 0
M  V30 16285 H 1611.26 -1.83345 -4.48902 0
M  V30 16286 N 1612.61 1.50847 -0.456408 0
M  V30 16287 C 1613.54 2.24825 0.391003 0
M  V30 16288 C 1614.52 1.27531 1.00869 0
M  V30 16289 O 1615.7 1.56717 1.04747 0
M  V30 16290 C 1612.83 3.01329 1.54657 0
M  V30 16291 C 1611.88 4.13431 1.0477 0
M  V30 16292 S 1612.71 5.35494 -0.0257471 0
M  V30 16293 C 1613.86 6.15541 1.13404 0
M  V30 16294 H 1614.1 2.96354 -0.237018 0
M  V30 16295 H 1611.63 1.52506 -0.241121 0
M  V30 16296 H 1613.59 3.46 2.20894 0
M  V30 16297 H 1612.25 2.29354 2.14606 0
M  V30 16298 H 1611.44 4.66309 1.91238 0
M  V30 16299 H 1611.04 3.71119 0.463285 0
M  V30 16300 H 1613.34 6.45784 2.04865 0
M  V30 16301 H 1614.28 7.05158 0.644835 0
M  V30 16302 H 1614.69 5.47341 1.38123 0
M  V30 16303 N 1614.09 0.188454 1.56469 0
M  V30 16304 C 1615.02 -0.766806 2.15992 0
M  V30 16305 C 1616.03 -1.18153 1.11998 0
M  V30 16306 O 1617.22 -1.11842 1.39118 0
M  V30 16307 C 1614.32 -2.04594 2.70175 0
M  V30 16308 C 1613.49 -1.79207 3.99003 0
M  V30 16309 C 1612.55 -2.91504 4.38078 0
M  V30 16310 O 1611.58 -2.61397 5.05628 0
M  V30 16311 N 1612.78 -4.19702 4.01037 0
M  V30 16312 H 1615.54 -0.257829 2.98589 0
M  V30 16313 H 1613.11 0.00625645 1.61899 0
M  V30 16314 H 1615.1 -2.78846 2.93303 0
M  V30 16315 H 1613.67 -2.46633 1.9207 0
M  V30 16316 H 1612.89 -0.88769 3.84075 0
M  V30 16317 H 1614.18 -1.59634 4.83109 0
M  V30 16318 H 1613.57 -4.47016 3.46689 0
M  V30 16319 H 1612.13 -4.90602 4.2913 0
M  V30 16320 N 1615.56 -1.5737 -0.0851874 0
M  V30 16321 C 1616.81 -1.86219 -0.7853 0
M  V30 16322 C 1617.13 -0.77857 -1.78783 0
M  V30 16323 O 1616.4 0.194176 -1.94935 0
M  V30 16324 H 1614.98 -0.687134 -0.293013 0
M  V30 16325 H 1617.64 -1.94793 -0.0644597 0
M  V30 16326 H 1616.74 -2.83286 -1.30978 0
M  V30 16327 N 1617.04 0.356258 -1.53521 0
M  V30 16328 C 1618.27 1.12273 -1.74383 0
M  V30 16329 C 1618.69 1.81981 -0.475881 0
M  V30 16330 O 1618.05 1.72083 0.570699 0
M  V30 16331 C 1618.1 2.12161 -2.91582 0
M  V30 16332 O 1617.2 3.1943 -2.60842 0
M  V30 16333 H 1616.54 0.325321 -0.578845 0
M  V30 16334 H 1619.07 0.410533 -2.00439 0
M  V30 16335 H 1619.08 2.55602 -3.18012 0
M  V30 16336 H 1617.76 1.60818 -3.8355 0
M  V30 16337 H 1616.33 2.80895 -2.4526 0
M  V30 16338 N 1618.52 1.45038 0.616577 0
M  V30 16339 C 1619.94 1.29246 0.936359 0
M  V30 16340 C 1620.14 0.238879 2.00079 0
M  V30 16341 O 1619.19 -0.370265 2.4977 0
M  V30 16342 C 1620.5 2.66863 1.38581 0
M  V30 16343 C 1622.05 2.74688 1.50051 0
M  V30 16344 C 1622.53 4.12809 1.98375 0
M  V30 16345 N 1624.02 4.15058 2.05623 0
M  V30 16346 C 1624.75 5.18793 2.44216 0
M  V30 16347 N 1624.25 6.3288 2.81843 0
M  V30 16348 N 1626.04 5.06149 2.44477 0
M  V30 16349 H 1618.19 2.12221 -0.0871304 0
M  V30 16350 H 1620.46 0.947705 0.0236659 0
M  V30 16351 H 1620.16 3.45105 0.677911 0
M  V30 16352 H 1620.04 2.94726 2.35407 0
M  V30 16353 H 1622.42 1.96756 2.19934 0
M  V30 16354 H 1622.5 2.50549 0.515631 0
M  V30 16355 H 1622.15 4.91223 1.29082 0
M  V30 16356 H 1622.08 4.34334 2.97761 0
M  V30 16357 H 1624.57 3.32726 1.79171 0
M  V30 16358 H 1624.88 7.07834 3.10147 0
M  V30 16359 H 1623.23 6.36295 2.7956 0
M  V30 16360 H 1626.42 4.16071 2.14482 0
M  V30 16361 H 1626.59 5.87114 2.74229 0
M  V30 16362 N 1620 -0.858287 1.32179 0
M  V30 16363 C 1621.25 -1.60902 1.2229 0
M  V30 16364 C 1621.57 -1.93797 -0.216227 0
M  V30 16365 O 1620.84 -1.59312 -1.14002 0
M  V30 16366 H 1619.42 -0.596529 0.449624 0
M  V30 16367 H 1622.08 -1.02686 1.65655 0
M  V30 16368 H 1621.17 -2.54755 1.80295 0
M  V30 16369 N 1621.48 -1.1533 -1.07409 0
M  V30 16370 C 1622.41 -0.872476 -2.16587 0
M  V30 16371 C 1623.39 0.176683 -1.6918 0
M  V30 16372 O 1624.57 0.0311826 -1.94175 0
M  V30 16373 C 1621.7 -0.360342 -3.45426 0
M  V30 16374 C 1620.66 -1.34611 -4.06281 0
M  V30 16375 C 1619.98 -0.692848 -5.30192 0
M  V30 16376 C 1621.28 -2.71191 -4.46378 0
M  V30 16377 H 1622.98 -1.78546 -2.40336 0
M  V30 16378 H 1620.52 -0.859895 -1.15507 0
M  V30 16379 H 1622.47 -0.151429 -4.21128 0
M  V30 16380 H 1621.2 0.588109 -3.21261 0
M  V30 16381 H 1619.86 -1.54137 -3.32622 0
M  V30 16382 H 1619.51 0.261732 -5.02319 0
M  V30 16383 H 1619.21 -1.35071 -5.71865 0
M  V30 16384 H 1620.73 -0.493695 -6.08601 0
M  V30 16385 H 1622.14 -2.55513 -5.13212 0
M  V30 16386 H 1620.54 -3.33345 -4.99 0
M  V30 16387 H 1621.61 -3.273 -3.57775 0
M  V30 16388 N 1622.95 1.25748 -0.950004 0
M  V30 16389 C 1624.18 1.97413 -0.61933 0
M  V30 16390 C 1624.6 1.70656 0.807591 0
M  V30 16391 O 1623.95 0.979899 1.53962 0
M  V30 16392 C 1624 3.51053 -0.862801 0
M  V30 16393 O 1623.73 3.76884 -2.23361 0
M  V30 16394 C 1625.23 4.39951 -0.543879 0
M  V30 16395 H 1622.45 0.629394 -0.232603 0
M  V30 16396 H 1624.99 1.60037 -1.27312 0
M  V30 16397 H 1623.15 3.86557 -0.255493 0
M  V30 16398 H 1623.56 4.71368 -2.30026 0
M  V30 16399 H 1625.03 5.46676 -0.764804 0
M  V30 16400 H 1625.51 4.36094 0.521421 0
M  V30 16401 H 1626.12 4.10005 -1.1303 0
M  V30 16402 N 1624.43 0.718038 1.40292 0
M  V30 16403 C 1625.71 0.185648 1.94717 0
M  V30 16404 C 1626.09 -1.30916 1.65603 0
M  V30 16405 O 1625.44 -2.06653 0.975031 0
M  V30 16406 C 1625.65 0.501015 3.45385 0
M  V30 16407 C 1626.99 0.441021 4.22303 0
M  V30 16408 O 1628.02 0.437217 3.53507 0
M  V30 16409 O 1626.88 0.420689 5.44878 0
M  V30 16410 H 1623.97 0.0281581 0.82652 0
M  V30 16411 H 1626.52 0.795738 1.49887 0
M  V30 16412 H 1625.29 1.5348 3.59944 0
M  V30 16413 H 1624.91 -0.138913 3.97357 0
M  V30 16414 N 1625.91 -1.50602 0.464402 0
M  V30 16415 C 1626.84 -2.26203 -0.36943 0
M  V30 16416 C 1627.86 -1.31269 -0.962924 0
M  V30 16417 O 1629.04 -1.56829 -0.852465 0
M  V30 16418 C 1626.14 -3.02323 -1.53147 0
M  V30 16419 C 1625.32 -4.24561 -1.05198 0
M  V30 16420 C 1624.38 -4.83031 -2.08729 0
M  V30 16421 O 1623.4 -5.44131 -1.67062 0
M  V30 16422 N 1624.6 -4.6944 -3.41477 0
M  V30 16423 H 1627.37 -2.98402 0.278652 0
M  V30 16424 H 1624.93 -1.59193 0.294803 0
M  V30 16425 H 1626.92 -3.38319 -2.22086 0
M  V30 16426 H 1625.49 -2.32965 -2.08438 0
M  V30 16427 H 1624.71 -3.93748 -0.188705 0
M  V30 16428 H 1626 -5.0383 -0.709434 0
M  V30 16429 H 1625.4 -4.20832 -3.78044 0
M  V30 16430 H 1623.96 -5.09724 -4.06233 0
M  V30 16431 N 1627.39 -0.19675 -1.56367 0
M  V30 16432 C 1628.35 0.709734 -2.17934 0
M  V30 16433 C 1629.35 1.13979 -1.13426 0
M  V30 16434 O 1630.54 1.05261 -1.38801 0
M  V30 16435 C 1627.67 1.96917 -2.78274 0
M  V30 16436 H 1628.87 0.173342 -2.99399 0
M  V30 16437 H 1626.42 0.0528698 -1.56211 0
M  V30 16438 H 1627.15 2.54804 -2.00613 0
M  V30 16439 H 1626.94 1.66951 -3.54781 0
M  V30 16440 H 1628.43 2.61554 -3.25545 0
M  V30 16441 N 1628.87 1.57413 0.0768405 0
M  V30 16442 C 1630.12 1.86186 0.775741 0
M  V30 16443 C 1630.43 0.788676 1.78995 0
M  V30 16444 O 1631.63 0.964095 2.53806 0
M  V30 16445 C 1630.09 3.30247 1.43055 0
M  V30 16446 C 1629.7 4.45682 0.45517 0
M  V30 16447 C 1631.44 3.68225 2.11211 0
M  V30 16448 C 1629.35 5.80782 1.11561 0
M  V30 16449 H 1628.28 0.694546 0.293466 0
M  V30 16450 H 1630.93 1.83477 0.0289478 0
M  V30 16451 H 1629.31 3.27552 2.22544 0
M  V30 16452 H 1630.49 4.59759 -0.309535 0
M  V30 16453 H 1628.8 4.16222 -0.121671 0
M  V30 16454 H 1631.4 4.66454 2.6139 0
M  V30 16455 H 1631.74 2.9777 2.90928 0
M  V30 16456 H 1632.27 3.72888 1.38561 0
M  V30 16457 H 1629.01 6.54517 0.358877 0
M  V30 16458 H 1628.53 5.70515 1.8513 0
M  V30 16459 H 1630.21 6.25951 1.63689 0
M  V30 16460 N 1630.34 -0.348112 1.53707 0
M  V30 16461 C 1631.59 -1.08886 1.70734 0
M  V30 16462 C 1631.92 -1.88782 0.468142 0
M  V30 16463 O 1631.17 -1.8781 -0.550081 0
M  V30 16464 C 1631.47 -2.06123 2.91973 0
M  V30 16465 C 1631.14 -1.42574 4.27766 0
M  V30 16466 C 1629.8 -1.24971 4.64689 0
M  V30 16467 C 1632.15 -0.967538 5.12141 0
M  V30 16468 C 1629.48 -0.601597 5.83607 0
M  V30 16469 C 1631.83 -0.33335 6.31721 0
M  V30 16470 C 1630.5 -0.144967 6.67343 0
M  V30 16471 H 1629.77 -0.398444 0.624759 0
M  V30 16472 H 1632.41 -0.368657 1.87918 0
M  V30 16473 H 1630.72 -2.84509 2.69373 0
M  V30 16474 H 1632.42 -2.63423 3.0234 0
M  V30 16475 H 1629.01 -1.57271 3.98702 0
M  V30 16476 H 1633.19 -1.0914 4.84151 0
M  V30 16477 H 1628.45 -0.444216 6.09784 0
M  V30 16478 H 1632.62 0.0298081 6.96394 0
M  V30 16479 H 1630.25 0.359291 7.5935 0
M  V30 16480 N 1631.82 -1.45363 -0.608876 0
M  V30 16481 C 1633.05 -1.52614 -1.39257 0
M  V30 16482 C 1633.46 -0.157106 -1.88547 0
M  V30 16483 O 1632.8 0.851329 -1.62782 0
M  V30 16484 C 1632.87 -2.44821 -2.63255 0
M  V30 16485 C 1632.53 -3.91582 -2.35612 0
M  V30 16486 C 1633.53 -4.81517 -1.96054 0
M  V30 16487 C 1631.21 -4.36488 -2.48564 0
M  V30 16488 C 1633.21 -6.14365 -1.69808 0
M  V30 16489 C 1630.89 -5.69377 -2.21931 0
M  V30 16490 C 1631.89 -6.58135 -1.82614 0
M  V30 16491 O 1631.58 -7.88561 -1.56292 0
M  V30 16492 H 1631.31 -0.51935 -0.432726 0
M  V30 16493 H 1633.86 -1.91227 -0.749768 0
M  V30 16494 H 1632.09 -2.01177 -3.30249 0
M  V30 16495 H 1633.78 -2.4277 -3.25296 0
M  V30 16496 H 1634.55 -4.48088 -1.85585 0
M  V30 16497 H 1630.43 -3.67646 -2.78133 0
M  V30 16498 H 1633.97 -6.83602 -1.39045 0
M  V30 16499 H 1629.87 -6.02361 -2.32016 0
M  V30 16500 H 1630.64 -8.00576 -1.70355 0
M  V30 16501 N 1633.3 0.851265 -1.32632 0
M  V30 16502 C 1634.26 1.94168 -1.21785 0
M  V30 16503 C 1635.26 1.60189 -0.140023 0
M  V30 16504 O 1636.45 1.69763 -0.390671 0
M  V30 16505 C 1633.59 3.29513 -0.873717 0
M  V30 16506 H 1634.78 2.05214 -2.18695 0
M  V30 16507 H 1632.33 1.04186 -1.16512 0
M  V30 16508 H 1633.07 3.24165 0.0934202 0
M  V30 16509 H 1632.85 3.55552 -1.65302 0
M  V30 16510 H 1634.34 4.09425 -0.822231 0
M  V30 16511 N 1634.78 1.15898 1.06796 0
M  V30 16512 C 1636.02 0.938728 1.79766 0
M  V30 16513 C 1636.36 -0.53249 1.86757 0
M  V30 16514 O 1635.63 -1.39492 1.35544 0
M  V30 16515 C 1635.92 1.56062 3.24525 0
M  V30 16516 C 1635.77 3.10283 3.25645 0
M  V30 16517 C 1637.09 1.25108 4.21943 0
M  V30 16518 H 1634.21 0.342451 0.652607 0
M  V30 16519 H 1636.85 1.4315 1.24933 0
M  V30 16520 H 1635 1.14158 3.71349 0
M  V30 16521 H 1636.67 3.61132 2.87021 0
M  V30 16522 H 1634.91 3.43879 2.64443 0
M  V30 16523 H 1635.58 3.48913 4.27743 0
M  V30 16524 H 1638.06 1.61364 3.83537 0
M  V30 16525 H 1636.94 1.7123 5.21509 0
M  V30 16526 H 1637.2 0.169043 4.41777 0
M  V30 16527 N 1636.26 -1.25243 0.956659 0
M  V30 16528 C 1637.48 -1.97082 0.629791 0
M  V30 16529 C 1637.9 -1.71082 -0.798529 0
M  V30 16530 O 1637.26 -0.98805 -1.5344 0
M  V30 16531 C 1637.31 -3.5059 0.881406 0
M  V30 16532 O 1637.03 -3.75694 2.25356 0
M  V30 16533 C 1638.53 -4.39656 0.567203 0
M  V30 16534 H 1635.75 -0.628152 0.235938 0
M  V30 16535 H 1638.29 -1.5936 1.28159 0
M  V30 16536 H 1636.45 -3.86416 0.27599 0
M  V30 16537 H 1636.86 -4.70142 2.32523 0
M  V30 16538 H 1638.34 -5.46263 0.793785 0
M  V30 16539 H 1638.81 -4.36364 -0.498287 0
M  V30 16540 H 1639.42 -4.094 1.15203 0
M  V30 16541 N 1637.73 -0.725468 -1.3991 0
M  V30 16542 C 1639.15 -0.340415 -1.8357 0
M  V30 16543 C 1639.5 1.1266 -1.6063 0
M  V30 16544 O 1638.62 1.86804 -1.0924 0
M  V30 16545 C 1639.22 -0.611079 -3.33244 0
M  V30 16546 C 1637.78 -0.279627 -3.7536 0
M  V30 16547 C 1636.92 -0.878498 -2.63017 0
M  V30 16548 H 1639.87 -0.923856 -1.29037 0
M  V30 16549 H 1639.89 0.120377 -3.8031 0
M  V30 16550 H 1639.41 -1.67886 -3.49908 0
M  V30 16551 H 1637.51 0.782703 -3.64286 0
M  V30 16552 H 1637.62 -0.755528 -4.73105 0
M  V30 16553 H 1635.98 -0.305813 -2.52857 0
M  V30 16554 H 1636.77 -1.95075 -2.8249 0
M  V30 16555 N 1639.21 1.50354 -0.472382 0
M  V30 16556 C 1640.14 2.3142 0.310995 0
M  V30 16557 C 1641.12 1.38383 0.989151 0
M  V30 16558 O 1642.31 1.67303 0.986074 0
M  V30 16559 C 1639.44 3.18157 1.3926 0
M  V30 16560 C 1638.39 4.19756 0.835977 0
M  V30 16561 C 1637.72 4.9524 2.01597 0
M  V30 16562 C 1639.02 5.22074 -0.15361 0
M  V30 16563 H 1640.71 2.97159 -0.365595 0
M  V30 16564 H 1638.26 1.42905 -0.177266 0
M  V30 16565 H 1640.21 3.73666 1.94813 0
M  V30 16566 H 1638.94 2.50305 2.09798 0
M  V30 16567 H 1637.59 3.65351 0.302414 0
M  V30 16568 H 1637.24 4.2386 2.70836 0
M  V30 16569 H 1636.94 5.63966 1.64974 0
M  V30 16570 H 1638.47 5.53584 2.57637 0
M  V30 16571 H 1639.88 5.72446 0.312783 0
M  V30 16572 H 1638.28 5.98527 -0.43418 0
M  V30 16573 H 1639.35 4.72741 -1.07908 0
M  V30 16574 N 1640.69 0.205039 1.56261 0
M  V30 16575 C 1642.1 -0.305792 1.84179 0
M  V30 16576 C 1642.45 -1.60672 1.126 0
M  V30 16577 O 1641.58 -2.12855 0.390118 0
M  V30 16578 C 1642.17 -0.561596 3.34113 0
M  V30 16579 C 1640.73 -1.01677 3.62407 0
M  V30 16580 C 1639.88 -0.0707844 2.7721 0
M  V30 16581 H 1642.83 0.428609 1.52803 0
M  V30 16582 H 1642.85 -1.40969 3.53423 0
M  V30 16583 H 1642.36 0.38541 3.86182 0
M  V30 16584 H 1640.46 -1.97771 3.1578 0
M  V30 16585 H 1640.58 -0.902607 4.70521 0
M  V30 16586 H 1638.94 -0.574529 2.48136 0
M  V30 16587 H 1639.72 0.870844 3.32071 0
M  V30 16588 N 1642.17 -1.57451 -0.0684915 0
M  V30 16589 C 1643.42 -1.88551 -0.762893 0
M  V30 16590 C 1643.77 -0.799127 -1.75019 0
M  V30 16591 O 1643.06 0.196383 -1.90591 0
M  V30 16592 C 1643.26 -3.24044 -1.50765 0
M  V30 16593 C 1643.09 -4.4576 -0.593989 0
M  V30 16594 C 1641.86 -5.04778 -0.229695 0
M  V30 16595 C 1644.05 -5.14181 0.110706 0
M  V30 16596 N 1642.04 -6.10017 0.689348 0
M  V30 16597 C 1643.41 -6.13625 0.886817 0
M  V30 16598 C 1645.46 -4.97568 0.181829 0
M  V30 16599 C 1644.17 -6.98249 1.72745 0
M  V30 16600 C 1646.19 -5.82721 1.00945 0
M  V30 16601 C 1645.55 -6.81706 1.77359 0
M  V30 16602 H 1641.65 -0.739431 -0.254491 0
M  V30 16603 H 1644.24 -1.94685 -0.0242838 0
M  V30 16604 H 1642.41 -3.18913 -2.21696 0
M  V30 16605 H 1644.14 -3.42782 -2.15133 0
M  V30 16606 H 1640.89 -4.69994 -0.583282 0
M  V30 16607 H 1641.32 -6.67295 1.14221 0
M  V30 16608 H 1645.96 -4.20954 -0.394627 0
M  V30 16609 H 1643.68 -7.74235 2.31486 0
M  V30 16610 H 1647.26 -5.71923 1.0675 0
M  V30 16611 H 1646.14 -7.46454 2.40367 0
M  V30 16612 N 1643.65 0.339955 -1.5389 0
M  V30 16613 C 1644.89 1.0882 -1.73025 0
M  V30 16614 C 1645.25 1.85773 -0.485017 0
M  V30 16615 O 1646.45 2.63041 -0.55345 0
M  V30 16616 C 1644.72 2.00153 -2.96097 0
M  V30 16617 S 1646.28 2.82151 -3.3606 0
M  V30 16618 H 1643.1 0.367632 -0.608578 0
M  V30 16619 H 1645.7 0.366178 -1.9204 0
M  V30 16620 H 1644.41 1.42426 -3.84893 0
M  V30 16621 H 1643.94 2.76787 -2.79558 0
M  V30 16622 H 1645.95 4.0258 -2.90076 0
M  V30 16623 N 1645.13 1.45684 0.601159 0
M  V30 16624 C 1646.54 1.44423 1.18317 0
M  V30 16625 C 1646.89 0.17524 1.95416 0
M  V30 16626 O 1646.01 -0.722816 2.03971 0
M  V30 16627 C 1646.61 2.61651 2.1523 0
M  V30 16628 C 1645.17 2.6349 2.68793 0
M  V30 16629 C 1644.31 2.36787 1.44317 0
M  V30 16630 H 1647.26 1.53831 0.390108 0
M  V30 16631 H 1647.29 2.36117 2.98377 0
M  V30 16632 H 1646.8 3.53995 1.59088 0
M  V30 16633 H 1644.9 1.7517 3.28856 0
M  V30 16634 H 1645.01 3.62906 3.12787 0
M  V30 16635 H 1643.38 1.86472 1.73494 0
M  V30 16636 H 1644.16 3.31284 0.900327 0
M  V30 16637 N 1646.6 -0.84422 1.33082 0
M  V30 16638 C 1647.55 -1.94198 1.19463 0
M  V30 16639 C 1648.54 -1.60596 0.0988792 0
M  V30 16640 O 1649.73 -1.73964 0.326442 0
M  V30 16641 C 1646.86 -3.30448 0.930544 0
M  V30 16642 C 1645.94 -3.70236 2.06848 0
M  V30 16643 N 1646.34 -3.81763 3.31799 0
M  V30 16644 C 1644.63 -3.99937 1.97398 0
M  V30 16645 C 1645.33 -4.16192 4.06398 0
M  V30 16646 N 1644.31 -4.28273 3.34788 0
M  V30 16647 H 1648.11 -2.01257 2.14179 0
M  V30 16648 H 1645.63 -1.03662 1.25012 0
M  V30 16649 H 1647.62 -4.08878 0.813916 0
M  V30 16650 H 1646.28 -3.24699 -0.00814161 0
M  V30 16651 H 1647.29 -3.6581 3.66611 0
M  V30 16652 H 1643.97 -4.02431 1.11156 0
M  V30 16653 H 1645.36 -4.32492 5.14199 0
M  V30 16654 N 1648.08 -1.16463 -1.0618 0
M  V30 16655 C 1649.01 -0.895399 -2.1565 0
M  V30 16656 C 1649.99 0.158729 -1.69358 0
M  V30 16657 O 1651.18 0.010586 -1.94197 0
M  V30 16658 C 1648.31 -0.396959 -3.45024 0
M  V30 16659 C 1647.26 -1.38913 -4.0483 0
M  V30 16660 C 1646.59 -0.749043 -5.29427 0
M  V30 16661 C 1647.89 -2.7591 -4.43476 0
M  V30 16662 H 1649.58 -1.81085 -2.38429 0
M  V30 16663 H 1647.13 -0.872098 -1.14588 0
M  V30 16664 H 1649.08 -0.196086 -4.20944 0
M  V30 16665 H 1647.8 0.554002 -3.21867 0
M  V30 16666 H 1646.46 -1.57657 -3.30968 0
M  V30 16667 H 1646.11 0.208439 -5.02568 0
M  V30 16668 H 1645.81 -1.41128 -5.704 0
M  V30 16669 H 1647.34 -0.558217 -6.08043 0
M  V30 16670 H 1648.75 -2.60942 -5.10473 0
M  V30 16671 H 1647.15 -3.38618 -4.95437 0
M  V30 16672 H 1648.22 -3.31076 -3.54284 0
M  V30 16673 N 1649.56 1.24734 -0.963288 0
M  V30 16674 C 1650.81 1.92971 -0.623688 0
M  V30 16675 C 1651.14 1.7517 0.838393 0
M  V30 16676 O 1650.41 1.10208 1.60264 0
M  V30 16677 C 1650.7 3.46115 -0.99379 0
M  V30 16678 C 1650.55 3.73104 -2.51224 0
M  V30 16679 C 1651.87 4.36956 -0.525128 0
M  V30 16680 H 1648.99 0.700827 -0.228058 0
M  V30 16681 H 1651.63 1.47187 -1.2015 0
M  V30 16682 H 1649.78 3.85242 -0.502108 0
M  V30 16683 H 1651.45 3.43563 -3.07835 0
M  V30 16684 H 1649.69 3.18409 -2.94616 0
M  V30 16685 H 1650.37 4.80237 -2.7217 0
M  V30 16686 H 1652.84 4.0518 -0.947015 0
M  V30 16687 H 1651.72 5.4285 -0.812695 0
M  V30 16688 H 1651.98 4.38347 0.574843 0
M  V30 16689 N 1651.04 0.732878 1.39523 0
M  V30 16690 C 1652 0.10004 2.28982 0
M  V30 16691 C 1653 -0.669361 1.46206 0
M  V30 16692 O 1654.19 -0.498694 1.66909 0
M  V30 16693 C 1651.32 -0.867616 3.29674 0
M  V30 16694 H 1652.52 0.88816 2.86447 0
M  V30 16695 H 1650.07 0.498578 1.48135 0
M  V30 16696 H 1650.8 -1.68217 2.77261 0
M  V30 16697 H 1650.59 -0.318577 3.90804 0
M  V30 16698 H 1652.08 -1.30704 3.96618 0
M  V30 16699 N 1652.52 -1.50101 0.480349 0
M  V30 16700 C 1653.76 -2.02674 -0.0715373 0
M  V30 16701 C 1654.09 -1.36095 -1.38535 0
M  V30 16702 O 1653.37 -0.489703 -1.88234 0
M  V30 16703 C 1653.65 -3.59261 -0.245693 0
M  V30 16704 C 1653.51 -4.36399 1.08979 0
M  V30 16705 C 1654.82 -4.28682 -0.995966 0
M  V30 16706 H 1651.94 -0.736592 -0.0245244 0
M  V30 16707 H 1654.59 -1.7933 0.627743 0
M  V30 16708 H 1652.74 -3.79281 -0.841308 0
M  V30 16709 H 1654.41 -4.27926 1.72269 0
M  V30 16710 H 1652.65 -3.99773 1.68417 0
M  V30 16711 H 1653.32 -5.44254 0.921468 0
M  V30 16712 H 1655.8 -4.13193 -0.491025 0
M  V30 16713 H 1654.67 -5.38037 -1.08663 0
M  V30 16714 H 1654.93 -3.92491 -2.03479 0
M  V30 16715 N 1653.99 -0.213323 -1.5615 0
M  V30 16716 C 1655.23 0.422545 -1.99985 0
M  V30 16717 C 1655.6 1.57529 -1.09765 0
M  V30 16718 O 1656.8 2.27661 -1.42913 0
M  V30 16719 C 1655.07 0.853804 -3.47052 0
M  V30 16720 S 1656.63 1.48494 -4.1291 0
M  V30 16721 H 1653.45 0.134436 -0.698175 0
M  V30 16722 H 1656.05 -0.320678 -1.92852 0
M  V30 16723 H 1654.75 0.00503066 -4.104 0
M  V30 16724 H 1654.28 1.63004 -3.58041 0
M  V30 16725 H 1656.3 2.77395 -4.1142 0
M  V30 16726 N 1655.47 1.57485 0.0601405 0
M  V30 16727 C 1656.88 1.76433 0.610583 0
M  V30 16728 C 1657.23 0.840353 1.77292 0
M  V30 16729 O 1656.36 0.0273238 2.16383 0
M  V30 16730 C 1656.95 3.19947 1.11441 0
M  V30 16731 C 1655.51 3.402 1.61062 0
M  V30 16732 C 1654.66 2.72089 0.535055 0
M  V30 16733 H 1657.61 1.57829 -0.166062 0
M  V30 16734 H 1657.63 3.24749 1.98288 0
M  V30 16735 H 1657.14 3.87172 0.268233 0
M  V30 16736 H 1655.25 2.78106 2.47967 0
M  V30 16737 H 1655.36 4.48696 1.67954 0
M  V30 16738 H 1653.72 2.34972 0.982855 0
M  V30 16739 H 1654.51 3.41977 -0.301135 0
M  V30 16740 N 1656.95 -0.331789 1.54068 0
M  V30 16741 C 1658.2 -1.06818 1.71093 0
M  V30 16742 C 1658.51 -1.89438 0.487111 0
M  V30 16743 O 1659.72 -2.66105 0.538544 0
M  V30 16744 C 1658.17 -1.94853 3.02589 0
M  V30 16745 C 1657.78 -1.17384 4.32348 0
M  V30 16746 C 1659.53 -2.68278 3.28979 0
M  V30 16747 C 1657.43 -2.04518 5.54911 0
M  V30 16748 H 1656.36 -0.402501 0.63758 0
M  V30 16749 H 1659.01 -0.326918 1.80564 0
M  V30 16750 H 1657.4 -2.72845 2.87004 0
M  V30 16751 H 1658.57 -0.442208 4.58673 0
M  V30 16752 H 1656.89 -0.556775 4.12661 0
M  V30 16753 H 1659.48 -3.33762 4.1774 0
M  V30 16754 H 1659.83 -3.35476 2.46498 0
M  V30 16755 H 1660.36 -1.97353 3.45394 0
M  V30 16756 H 1657.1 -1.41842 6.3997 0
M  V30 16757 H 1656.62 -2.75438 5.32817 0
M  V30 16758 H 1658.3 -2.63297 5.91002 0
M  V30 16759 N 1658.43 -1.46001 -0.593424 0
M  V30 16760 C 1659.84 -1.45049 -1.17549 0
M  V30 16761 C 1660.19 -0.185601 -1.9532 0
M  V30 16762 O 1659.32 0.711989 -2.04352 0
M  V30 16763 C 1659.91 -2.62789 -2.13839 0
M  V30 16764 C 1658.47 -2.64912 -2.67392 0
M  V30 16765 C 1657.62 -2.37549 -1.43059 0
M  V30 16766 H 1660.57 -1.54035 -0.381944 0
M  V30 16767 H 1660.59 -2.37696 -2.97121 0
M  V30 16768 H 1660.1 -3.54834 -1.57208 0
M  V30 16769 H 1658.2 -1.76911 -3.27922 0
M  V30 16770 H 1658.31 -3.6456 -3.10858 0
M  V30 16771 H 1656.68 -1.8739 -1.72503 0
M  V30 16772 H 1657.46 -3.31757 -0.882746 0
M  V30 16773 N 1659.91 0.83715 -1.33527 0
M  V30 16774 C 1660.87 1.92865 -1.23837 0
M  V30 16775 C 1661.87 1.60032 -0.157005 0
M  V30 16776 O 1663.06 1.69339 -0.408654 0
M  V30 16777 C 1660.19 3.28568 -0.908617 0
M  V30 16778 H 1661.38 2.02883 -2.20859 0
M  V30 16779 H 1658.94 1.02944 -1.1761 0
M  V30 16780 H 1659.67 3.24246 0.0590328 0
M  V30 16781 H 1659.46 3.53779 -1.69064 0
M  V30 16782 H 1660.95 4.0853 -0.86561 0
M  V30 16783 N 1661.38 1.17024 1.05561 0
M  V30 16784 C 1662.35 0.885897 2.11387 0
M  V30 16785 C 1663.35 -0.122327 1.60334 0
M  V30 16786 O 1664.54 0.109416 1.73856 0
M  V30 16787 C 1661.67 0.32626 3.39335 0
M  V30 16788 H 1662.86 1.82414 2.38045 0
M  V30 16789 H 1660.42 0.980191 1.21745 0
M  V30 16790 H 1661.15 -0.619308 3.18332 0
M  V30 16791 H 1660.94 1.05285 3.777 0
M  V30 16792 H 1662.43 0.145513 4.17346 0
M  V30 16793 N 1662.86 -1.24221 0.969889 0
M  V30 16794 C 1664.11 -1.91973 0.631725 0
M  V30 16795 C 1664.43 -1.76169 -0.836032 0
M  V30 16796 O 1663.7 -1.13459 -1.597 0
M  V30 16797 H 1662.28 -0.710497 0.230658 0
M  V30 16798 H 1664.94 -1.51069 1.23143 0
M  V30 16799 H 1664.04 -2.99606 0.874223 0
M  V30 16800 N 1664.34 -0.740267 -1.39132 0
M  V30 16801 C 1665.27 -0.118951 -2.33197 0
M  V30 16802 C 1666.25 0.718416 -1.54184 0
M  V30 16803 O 1667.44 0.662322 -1.82557 0
M  V30 16804 C 1664.57 0.78512 -3.38309 0
M  V30 16805 C 1663.52 0.0515093 -4.27969 0
M  V30 16806 C 1662.85 1.07295 -5.23824 0
M  V30 16807 C 1664.15 -1.10903 -5.1039 0
M  V30 16808 H 1665.84 -0.904687 -2.85405 0
M  V30 16809 H 1663.39 -0.436493 -1.37225 0
M  V30 16810 H 1665.34 1.22935 -4.03069 0
M  V30 16811 H 1664.06 1.60303 -2.84553 0
M  V30 16812 H 1662.72 -0.373156 -3.64696 0
M  V30 16813 H 1662.37 1.88456 -4.66362 0
M  V30 16814 H 1662.07 0.586827 -5.84662 0
M  V30 16815 H 1663.59 1.51677 -5.91461 0
M  V30 16816 H 1665.01 -0.742993 -5.68465 0
M  V30 16817 H 1663.41 -1.52513 -5.80396 0
M  V30 16818 H 1664.48 -1.92825 -4.44912 0
M  V30 16819 N 1665.82 1.49844 -0.488302 0
M  V30 16820 C 1667.1 1.95212 0.123105 0
M  V30 16821 C 1667.48 1.42936 1.55346 0
M  V30 16822 O 1666.82 0.637657 2.19422 0
M  V30 16823 C 1667.03 3.48966 0.0487846 0
M  V30 16824 C 1668.38 4.23982 0.229083 0
M  V30 16825 O 1669.41 3.55982 0.124569 0
M  V30 16826 O 1668.26 5.44709 0.442066 0
M  V30 16827 H 1665.36 0.820652 0.102268 0
M  V30 16828 H 1667.9 1.60542 -0.549935 0
M  V30 16829 H 1666.68 3.79613 -0.949203 0
M  V30 16830 H 1666.3 3.90219 0.76253 0
M  V30 16831 N 1667.3 0.221601 1.56034 0
M  V30 16832 C 1668.54 -0.410695 1.98598 0
M  V30 16833 C 1668.88 -1.59412 1.10912 0
M  V30 16834 O 1668.15 -1.93783 0.166819 0
M  V30 16835 C 1668.43 -0.845199 3.50041 0
M  V30 16836 C 1668.29 0.341866 4.48499 0
M  V30 16837 C 1669.61 -1.70135 4.05884 0
M  V30 16838 H 1666.72 -0.147808 0.722026 0
M  V30 16839 H 1669.37 0.317846 1.87323 0
M  V30 16840 H 1667.52 -1.46597 3.5978 0
M  V30 16841 H 1669.19 0.980014 4.5077 0
M  V30 16842 H 1667.43 0.989294 4.22369 0
M  V30 16843 H 1668.1 -0.00509234 5.52 0
M  V30 16844 H 1670.58 -1.17757 3.9909 0
M  V30 16845 H 1669.45 -1.97427 5.12166 0
M  V30 16846 H 1669.72 -2.66469 3.5277 0
M  V30 16847 N 1668.77 -1.57515 -0.0517878 0
M  V30 16848 C 1670 -1.92456 -0.759485 0
M  V30 16849 C 1670.42 -0.819396 -1.70092 0
M  V30 16850 O 1669.77 0.205913 -1.81335 0
M  V30 16851 C 1669.83 -3.27242 -1.53606 0
M  V30 16852 O 1669.55 -4.33511 -0.632441 0
M  V30 16853 C 1671.05 -3.76324 -2.34297 0
M  V30 16854 H 1668.27 -0.635688 -0.214807 0
M  V30 16855 H 1670.81 -2.04494 -0.0160862 0
M  V30 16856 H 1668.97 -3.16671 -2.23155 0
M  V30 16857 H 1669.38 -5.11178 -1.17462 0
M  V30 16858 H 1670.85 -4.73209 -2.84213 0
M  V30 16859 H 1671.33 -3.06351 -3.14716 0
M  V30 16860 H 1671.94 -3.89904 -1.69866 0
M  V30 16861 N 1670.25 0.323614 -1.54242 0
M  V30 16862 C 1671.19 1.41936 -1.79963 0
M  V30 16863 C 1672.2 1.47845 -0.681604 0
M  V30 16864 O 1673.39 1.50569 -0.95871 0
M  V30 16865 C 1670.49 2.80472 -1.90233 0
M  V30 16866 C 1669.66 2.97768 -3.20395 0
M  V30 16867 C 1668.72 4.16664 -3.21368 0
M  V30 16868 O 1667.75 4.09827 -3.95007 0
M  V30 16869 N 1668.95 5.26196 -2.45148 0
M  V30 16870 H 1671.71 1.20235 -2.74524 0
M  V30 16871 H 1669.27 0.513599 -1.53538 0
M  V30 16872 H 1671.27 3.58219 -1.88312 0
M  V30 16873 H 1669.84 2.95224 -1.02769 0
M  V30 16874 H 1669.06 2.07322 -3.35278 0
M  V30 16875 H 1670.34 3.06219 -4.06334 0
M  V30 16876 H 1669.74 5.34626 -1.84909 0
M  V30 16877 H 1668.3 6.02362 -2.49004 0
M  V30 16878 N 1671.73 1.46313 0.585673 0
M  V30 16879 C 1673.14 1.4567 1.16778 0
M  V30 16880 C 1673.49 0.195957 1.95219 0
M  V30 16881 O 1672.62 -0.701142 2.04727 0
M  V30 16882 C 1673.21 2.6392 2.12443 0
M  V30 16883 C 1671.77 2.66327 2.65983 0
M  V30 16884 C 1670.92 2.38304 1.41797 0
M  V30 16885 H 1673.87 1.54236 0.37377 0
M  V30 16886 H 1673.89 2.39268 2.95856 0
M  V30 16887 H 1673.4 3.55663 1.55324 0
M  V30 16888 H 1671.5 1.78648 3.2698 0
M  V30 16889 H 1671.62 3.66203 3.08921 0
M  V30 16890 H 1669.98 1.88302 1.71507 0
M  V30 16891 H 1670.76 3.3222 0.86514 0
M  V30 16892 N 1673.21 -0.830057 1.33969 0
M  V30 16893 C 1674.45 -1.59946 1.27266 0
M  V30 16894 C 1674.81 -1.91356 -0.157074 0
M  V30 16895 O 1676.01 -2.66535 -0.348192 0
M  V30 16896 C 1674.29 -2.86861 2.13179 0
M  V30 16897 S 1675.84 -3.77464 2.23756 0
M  V30 16898 H 1672.66 -0.548311 0.452632 0
M  V30 16899 H 1675.26 -0.981051 1.69102 0
M  V30 16900 H 1673.97 -2.61772 3.16076 0
M  V30 16901 H 1673.5 -3.53704 1.72212 0
M  V30 16902 H 1675.51 -4.7589 1.4051 0
M  V30 16903 N 1674.69 -1.17582 -1.04939 0
M  V30 16904 C 1675.94 -0.96387 -1.77634 0
M  V30 16905 C 1676.26 0.508548 -1.88252 0
M  V30 16906 O 1675.53 1.36913 -1.40113 0
M  V30 16907 H 1674.11 -0.353636 -0.65799 0
M  V30 16908 H 1676.77 -1.48104 -1.26693 0
M  V30 16909 H 1675.86 -1.39438 -2.79219 0
M  V30 16910 N 1676.17 1.23705 -0.976463 0
M  V30 16911 C 1677.44 1.87421 -0.559719 0
M  V30 16912 C 1677.82 1.87847 0.963166 0
M  V30 16913 O 1677.17 1.35726 1.83822 0
M  V30 16914 C 1677.38 3.29113 -1.16128 0
M  V30 16915 C 1678.73 4.05735 -1.25158 0
M  V30 16916 O 1679.75 3.38317 -1.11444 0
M  V30 16917 O 1678.61 5.26377 -1.46933 0
M  V30 16918 H 1675.71 0.80537 -0.187903 0
M  V30 16919 H 1678.25 1.31611 -1.07129 0
M  V30 16920 H 1677.02 3.23348 -2.20367 0
M  V30 16921 H 1676.65 3.92508 -0.63428 0
M  V30 16922 N 1677.64 0.747635 1.38738 0
M  V30 16923 C 1678.88 0.305993 2.02097 0
M  V30 16924 C 1679.25 -1.09002 1.58059 0
M  V30 16925 O 1680.45 -1.63044 2.13705 0
M  V30 16926 C 1678.72 0.418156 3.54945 0
M  V30 16927 S 1680.28 0.0582187 4.38761 0
M  V30 16928 H 1677.1 0.119075 0.700958 0
M  V30 16929 H 1679.7 0.97694 1.6934 0
M  V30 16930 H 1678.4 1.43524 3.84486 0
M  V30 16931 H 1677.93 -0.270178 3.92471 0
M  V30 16932 H 1679.95 -1.15407 4.82593 0
M  V30 16933 N 1679.12 -1.49583 0.496242 0
M  V30 16934 C 1680.37 -2.02038 -0.0498643 0
M  V30 16935 C 1680.69 -1.37848 -1.37924 0
M  V30 16936 O 1679.96 -0.532188 -1.88533 0
M  V30 16937 H 1678.54 -0.746693 -0.0214177 0
M  V30 16938 H 1681.2 -1.83657 0.652399 0
M  V30 16939 H 1680.3 -3.11563 -0.183021 0
M  V30 16940 N 1680.6 -0.229873 -1.55915 0
M  V30 16941 C 1681.83 0.404189 -2.02914 0
M  V30 16942 C 1682.24 1.52758 -1.10952 0
M  V30 16943 O 1681.6 1.82101 -0.120685 0
M  V30 16944 C 1681.65 0.928016 -3.49385 0
M  V30 16945 O 1681.37 -0.150592 -4.37841 0
M  V30 16946 C 1682.87 1.63448 -4.12067 0
M  V30 16947 H 1680.09 0.0980294 -0.663801 0
M  V30 16948 H 1682.64 -0.34876 -2.01504 0
M  V30 16949 H 1680.79 1.63121 -3.51384 0
M  V30 16950 H 1681.21 0.244429 -5.2393 0
M  V30 16951 H 1682.68 1.95292 -5.16299 0
M  V30 16952 H 1683.16 2.55055 -3.57553 0
M  V30 16953 H 1683.76 0.976292 -4.13943 0
M  V30 16954 N 1682.08 1.5754 0.0434337 0
M  V30 16955 C 1683.33 1.87789 0.736074 0
M  V30 16956 C 1683.64 0.826466 1.77282 0
M  V30 16957 O 1684.85 1.01771 2.51704 0
M  V30 16958 C 1683.3 3.33207 1.36018 0
M  V30 16959 C 1682.91 4.46547 0.360532 0
M  V30 16960 C 1684.65 3.72623 2.03353 0
M  V30 16961 C 1682.56 5.83018 0.992167 0
M  V30 16962 H 1681.49 0.700614 0.278667 0
M  V30 16963 H 1684.14 1.83497 -0.00997697 0
M  V30 16964 H 1682.52 3.32199 2.15546 0
M  V30 16965 H 1683.7 4.58999 -0.406987 0
M  V30 16966 H 1682.01 4.1587 -0.209931 0
M  V30 16967 H 1684.61 4.71893 2.51437 0
M  V30 16968 H 1684.95 3.03874 2.84546 0
M  V30 16969 H 1685.49 3.75744 1.3062 0
M  V30 16970 H 1682.22 6.55131 0.219964 0
M  V30 16971 H 1681.74 5.74313 1.72987 0
M  V30 16972 H 1683.42 6.29283 1.50374 0
M  V30 16973 N 1683.56 -0.31543 1.54411 0
M  V30 16974 C 1684.49 -1.4098 1.80713 0
M  V30 16975 C 1685.5 -1.47481 0.689435 0
M  V30 16976 O 1686.69 -1.50058 0.966682 0
M  V30 16977 C 1683.79 -2.79459 1.91718 0
M  V30 16978 C 1682.96 -2.96064 3.2197 0
M  V30 16979 C 1682.02 -4.14954 3.23573 0
M  V30 16980 O 1681.05 -4.07726 3.97175 0
M  V30 16981 N 1682.25 -5.24889 2.47935 0
M  V30 16982 H 1685.01 -1.18778 2.75158 0
M  V30 16983 H 1682.58 -0.50545 1.53808 0
M  V30 16984 H 1684.57 -3.57215 1.90209 0
M  V30 16985 H 1683.14 -2.94675 1.04333 0
M  V30 16986 H 1682.36 -2.05541 3.36372 0
M  V30 16987 H 1683.65 -3.0406 4.07952 0
M  V30 16988 H 1683.04 -5.33638 1.87741 0
M  V30 16989 H 1681.6 -6.01033 2.52195 0
M  V30 16990 N 1685.03 -1.46622 -0.577906 0
M  V30 16991 C 1685.94 -1.60143 -1.71439 0
M  V30 16992 C 1686.96 -0.484781 -1.6711 0
M  V30 16993 O 1688.14 -0.749551 -1.86932 0
M  V30 16994 C 1685.2 -1.59282 -3.07945 0
M  V30 16995 C 1684.26 -2.82216 -3.235 0
M  V30 16996 C 1683.5 -2.81387 -4.53495 0
M  V30 16997 O 1683.72 -1.90407 -5.37681 0
M  V30 16998 O 1682.65 -3.72991 -4.724 0
M  V30 16999 H 1686.48 -2.56265 -1.62978 0
M  V30 17000 H 1684.06 -1.2947 -0.745514 0
M  V30 17001 H 1685.95 -1.61515 -3.89218 0
M  V30 17002 H 1684.62 -0.663212 -3.16833 0
M  V30 17003 H 1683.53 -2.85536 -2.41702 0
M  V30 17004 H 1684.86 -3.74402 -3.19506 0
M  V30 17005 N 1686.51 0.822941 -1.34408 0
M  V30 17006 C 1687.46 1.95524 -1.25988 0
M  V30 17007 C 1688.45 1.68662 -0.157994 0
M  V30 17008 O 1689.66 1.77079 -0.322966 0
M  V30 17009 H 1686.04 0.642117 -0.391394 0
M  V30 17010 H 1688.01 1.99747 -2.21683 0
M  V30 17011 C 1686.76 3.32026 -1.03218 0
M  V30 17012 H 1686.08 3.53244 -1.87239 0
M  V30 17013 H 1687.52 4.11706 -1.01363 0
M  V30 17014 C 1685.98 3.3586 0.264523 0
M  V30 17015 O 1686.51 3.81232 1.26589 0
M  V30 17016 N 1684.71 2.89072 0.297626 0
M  V30 17017 H 1684.26 2.52341 -0.517836 0
M  V30 17018 H 1684.22 2.92019 1.165 0
M  V30 17019 N 1687.99 1.18137 1.04314 0
M  V30 17020 C 1689.24 0.98666 1.77867 0
M  V30 17021 C 1689.59 -0.478878 1.86345 0
M  V30 17022 O 1688.88 -1.35094 1.35868 0
M  V30 17023 C 1689.08 1.57211 3.20966 0
M  V30 17024 C 1688.91 3.09305 3.26436 0
M  V30 17025 C 1687.68 3.78104 3.3521 0
M  V30 17026 C 1689.88 4.06817 3.1465 0
M  V30 17027 N 1687.86 5.17723 3.29903 0
M  V30 17028 C 1689.23 5.32943 3.16815 0
M  V30 17029 C 1691.28 3.98369 2.98675 0
M  V30 17030 C 1689.99 6.51601 3.04645 0
M  V30 17031 C 1692.01 5.1662 2.8785 0
M  V30 17032 C 1691.37 6.41638 2.90655 0
M  V30 17033 H 1687.47 0.415029 0.662778 0
M  V30 17034 H 1690.06 1.49871 1.24284 0
M  V30 17035 H 1688.23 1.08627 3.729 0
M  V30 17036 H 1689.96 1.31316 3.82803 0
M  V30 17037 H 1686.72 3.28825 3.40839 0
M  V30 17038 H 1687.14 5.90736 3.30695 0
M  V30 17039 H 1691.78 3.02549 2.95337 0
M  V30 17040 H 1689.5 7.47622 3.06735 0
M  V30 17041 H 1693.09 5.11872 2.76546 0
M  V30 17042 H 1691.97 7.31602 2.82363 0
M  V30 17043 N 1689.47 -1.23186 0.98301 0
M  V30 17044 C 1690.71 -1.91955 0.65431 0
M  V30 17045 C 1691.05 -1.76482 -0.810419 0
M  V30 17046 O 1690.32 -1.12744 -1.5849 0
M  V30 17047 C 1690.61 -3.4449 1.04873 0
M  V30 17048 C 1690.46 -3.6906 2.57128 0
M  V30 17049 C 1691.78 -4.36065 0.594578 0
M  V30 17050 H 1688.9 -0.69711 0.239179 0
M  V30 17051 H 1691.54 -1.45257 1.22476 0
M  V30 17052 H 1689.69 -3.84394 0.563333 0
M  V30 17053 H 1691.36 -3.38622 3.13262 0
M  V30 17054 H 1689.6 -3.13681 2.99644 0
M  V30 17055 H 1690.27 -4.75846 2.79776 0
M  V30 17056 H 1692.75 -4.03622 1.01136 0
M  V30 17057 H 1691.63 -5.41489 0.898955 0
M  V30 17058 H 1691.89 -4.39206 -0.505033 0
M  V30 17059 N 1690.95 -0.754982 -1.38339 0
M  V30 17060 C 1692.19 -0.316707 -2.01931 0
M  V30 17061 C 1692.55 1.08162 -1.58635 0
M  V30 17062 O 1693.75 1.61909 -2.14567 0
M  V30 17063 C 1692.02 -0.436974 -3.54719 0
M  V30 17064 S 1693.58 -0.0814864 -4.38724 0
M  V30 17065 H 1690.4 -0.122791 -0.700317 0
M  V30 17066 H 1693 -0.985907 -1.6882 0
M  V30 17067 H 1691.71 -1.45561 -3.83719 0
M  V30 17068 H 1691.24 0.249361 -3.92609 0
M  V30 17069 H 1693.25 1.12846 -4.83198 0
M  V30 17070 N 1692.42 1.49318 -0.504168 0
M  V30 17071 C 1693.35 2.32027 0.261837 0
M  V30 17072 C 1694.34 1.4045 0.959575 0
M  V30 17073 O 1695.52 1.69357 0.950365 0
M  V30 17074 C 1692.65 3.21039 1.3248 0
M  V30 17075 C 1691.6 4.21435 0.746752 0
M  V30 17076 C 1690.93 4.99405 1.91047 0
M  V30 17077 C 1692.23 5.21631 -0.264315 0
M  V30 17078 H 1693.92 2.96317 -0.428544 0
M  V30 17079 H 1691.47 1.42497 -0.207539 0
M  V30 17080 H 1693.42 3.77714 1.86843 0
M  V30 17081 H 1692.15 2.54699 2.04441 0
M  V30 17082 H 1690.81 3.6591 0.22485 0
M  V30 17083 H 1690.45 4.29509 2.61784 0
M  V30 17084 H 1690.15 5.67338 1.52975 0
M  V30 17085 H 1691.68 5.58924 2.45837 0
M  V30 17086 H 1693.09 5.72981 0.191288 0
M  V30 17087 H 1691.49 5.97472 -0.561039 0
M  V30 17088 H 1692.56 4.70346 -1.17911 0
M  V30 17089 N 1693.9 0.238138 1.5579 0
M  V30 17090 C 1695.13 -0.396409 2.03576 0
M  V30 17091 C 1695.55 -1.5138 1.11649 0
M  V30 17092 O 1694.91 -1.80979 0.107774 0
M  V30 17093 C 1694.96 -0.889749 3.49451 0
M  V30 17094 O 1694.06 -1.99997 3.60659 0
M  V30 17095 H 1693.4 -0.0876017 0.658196 0
M  V30 17096 H 1695.93 0.361632 2.01379 0
M  V30 17097 H 1695.94 -1.19526 3.901 0
M  V30 17098 H 1694.62 -0.0720136 4.15838 0
M  V30 17099 H 1693.2 -1.69983 3.31904 0
M  V30 17100 N 1695.38 -1.57561 -0.0350783 0
M  V30 17101 C 1696.62 -1.90843 -0.732009 0
M  V30 17102 C 1696.98 -0.836062 -1.72841 0
M  V30 17103 O 1698.19 -1.05303 -2.47315 0
M  V30 17104 C 1696.46 -3.2929 -1.38934 0
M  V30 17105 S 1698.02 -3.84395 -2.11626 0
M  V30 17106 H 1694.83 -0.668317 -0.242638 0
M  V30 17107 H 1697.44 -1.95496 0.0131773 0
M  V30 17108 H 1696.14 -4.05206 -0.650842 0
M  V30 17109 H 1695.67 -3.27926 -2.1732 0
M  V30 17110 H 1697.69 -3.62638 -3.38686 0
M  V30 17111 N 1696.86 0.307236 -1.54576 0
M  V30 17112 C 1698.09 1.06079 -1.77287 0
M  V30 17113 C 1698.5 1.81643 -0.529395 0
M  V30 17114 O 1697.84 1.76474 0.510149 0
M  V30 17115 C 1697.9 2.09234 -2.92338 0
M  V30 17116 C 1697.57 1.52922 -4.30655 0
M  V30 17117 C 1698.56 0.962487 -5.10913 0
M  V30 17118 C 1696.25 1.56673 -4.77241 0
M  V30 17119 C 1698.24 0.44075 -6.35874 0
M  V30 17120 C 1695.93 1.04112 -6.02166 0
M  V30 17121 C 1696.93 0.479095 -6.81318 0
M  V30 17122 O 1696.61 -0.0385602 -8.03891 0
M  V30 17123 H 1696.35 0.320647 -0.595114 0
M  V30 17124 H 1698.9 0.353984 -2.02327 0
M  V30 17125 H 1697.13 2.83578 -2.62908 0
M  V30 17126 H 1698.82 2.70441 -3.02682 0
M  V30 17127 H 1699.59 0.926457 -4.76069 0
M  V30 17128 H 1695.46 1.99357 -4.15665 0
M  V30 17129 H 1699.01 0.00141848 -6.976 0
M  V30 17130 H 1694.91 1.07428 -6.36498 0
M  V30 17131 H 1695.67 0.0753282 -8.18465 0
M  V30 17132 N 1698.34 1.46926 0.570122 0
M  V30 17133 C 1699.27 1.54487 1.69311 0
M  V30 17134 C 1700.28 0.432119 1.5696 0
M  V30 17135 O 1701.47 0.701107 1.64155 0
M  V30 17136 C 1698.57 1.42093 3.07673 0
M  V30 17137 C 1697.74 2.6771 3.45905 0
M  V30 17138 C 1696.8 2.49336 4.63377 0
M  V30 17139 O 1695.83 3.23107 4.68605 0
M  V30 17140 N 1697.03 1.56319 5.59057 0
M  V30 17141 H 1699.8 2.51319 1.63276 0
M  V30 17142 H 1697.36 1.43142 0.756434 0
M  V30 17143 H 1699.35 1.27554 3.84073 0
M  V30 17144 H 1697.92 0.533945 3.08006 0
M  V30 17145 H 1697.14 2.97102 2.59083 0
M  V30 17146 H 1698.43 3.51131 3.68218 0
M  V30 17147 H 1697.82 0.955109 5.57579 0
M  V30 17148 H 1696.38 1.47738 6.34836 0
M  V30 17149 N 1699.82 -0.815801 1.34842 0
M  V30 17150 C 1701.06 -1.57474 1.27788 0
M  V30 17151 C 1701.39 -1.9362 -0.149956 0
M  V30 17152 O 1700.67 -1.60605 -1.0971 0
M  V30 17153 C 1700.95 -2.86952 2.17556 0
M  V30 17154 C 1700.81 -2.5734 3.68912 0
M  V30 17155 C 1702.12 -3.88582 2.0662 0
M  V30 17156 H 1699.24 -0.57135 0.465541 0
M  V30 17157 H 1701.89 -0.939271 1.6516 0
M  V30 17158 H 1700.04 -3.41182 1.85815 0
M  V30 17159 H 1701.71 -2.09365 4.11052 0
M  V30 17160 H 1699.95 -1.90674 3.89648 0
M  V30 17161 H 1700.62 -3.49702 4.27098 0
M  V30 17162 H 1703.1 -3.43726 2.34503 0
M  V30 17163 H 1701.97 -4.7697 2.71644 0
M  V30 17164 H 1702.23 -4.29564 1.04532 0
M  V30 17165 N 1701.29 -1.18689 -1.03686 0
M  V30 17166 C 1702.52 -1.00814 -1.80333 0
M  V30 17167 C 1702.93 0.446495 -1.83856 0
M  V30 17168 O 1702.27 1.32192 -1.27558 0
M  V30 17169 C 1702.34 -1.49133 -3.27108 0
M  V30 17170 C 1702 -2.97112 -3.47237 0
M  V30 17171 C 1703 -3.94938 -3.38113 0
M  V30 17172 C 1700.68 -3.35628 -3.7371 0
M  V30 17173 C 1702.68 -5.29274 -3.55172 0
M  V30 17174 C 1700.36 -4.70126 -3.90416 0
M  V30 17175 C 1701.36 -5.66758 -3.81148 0
M  V30 17176 O 1701.05 -6.98821 -3.97371 0
M  V30 17177 H 1700.78 -0.356077 -0.574617 0
M  V30 17178 H 1703.34 -1.57754 -1.31541 0
M  V30 17179 H 1701.57 -0.865624 -3.76887 0
M  V30 17180 H 1703.25 -1.27591 -3.85325 0
M  V30 17181 H 1704.02 -3.66527 -3.17621 0
M  V30 17182 H 1699.9 -2.6097 -3.8002 0
M  V30 17183 H 1703.44 -6.04684 -3.47854 0
M  V30 17184 H 1699.34 -4.98236 -4.10404 0
M  V30 17185 H 1700.11 -7.05779 -4.14509 0
M  V30 17186 N 1702.77 1.22662 -0.989529 0
M  V30 17187 C 1704.01 1.9305 -0.671653 0
M  V30 17188 C 1704.38 1.75377 0.781465 0
M  V30 17189 O 1705.58 2.39996 1.2106 0
M  V30 17190 C 1703.85 3.41245 -1.0624 0
M  V30 17191 S 1705.41 4.30242 -0.862376 0
M  V30 17192 H 1702.22 0.667204 -0.245682 0
M  V30 17193 H 1704.83 1.48537 -1.2711 0
M  V30 17194 H 1703.53 3.51619 -2.11641 0
M  V30 17195 H 1703.06 3.90764 -0.454611 0
M  V30 17196 H 1705.08 4.95575 0.248897 0
M  V30 17197 N 1704.25 0.762308 1.37937 0
M  V30 17198 C 1705.5 0.321732 1.99523 0
M  V30 17199 C 1705.82 -1.10286 1.60816 0
M  V30 17200 O 1705.09 -1.75565 0.869117 0
M  V30 17201 H 1703.67 0.115967 0.737943 0
M  V30 17202 H 1706.33 0.978339 1.68566 0
M  V30 17203 H 1705.43 0.391818 3.09631 0
M  V30 17204 N 1705.73 -1.49049 0.51208 0
M  V30 17205 C 1707.14 -1.58705 0.16875 0
M  V30 17206 C 1707.34 -1.51612 -1.32725 0
M  V30 17207 O 1706.4 -1.39583 -2.10411 0
M  V30 17208 C 1707.71 -2.91057 0.755391 0
M  V30 17209 C 1709.26 -3.04547 0.722499 0
M  V30 17210 C 1709.74 -4.39534 1.2874 0
M  V30 17211 N 1711.23 -4.46055 1.24858 0
M  V30 17212 C 1711.96 -5.48974 1.65575 0
M  V30 17213 N 1711.46 -6.58941 2.13937 0
M  V30 17214 N 1713.25 -5.39752 1.56922 0
M  V30 17215 H 1705.4 -1.51902 1.48457 0
M  V30 17216 H 1707.66 -0.720204 0.61645 0
M  V30 17217 H 1707.37 -3.01849 1.80499 0
M  V30 17218 H 1707.24 -3.76545 0.222159 0
M  V30 17219 H 1709.63 -2.93378 -0.318291 0
M  V30 17220 H 1709.71 -2.20715 1.293 0
M  V30 17221 H 1709.36 -4.51455 2.32703 0
M  V30 17222 H 1709.29 -5.22024 0.692735 0
M  V30 17223 H 1711.78 -3.67164 0.894354 0
M  V30 17224 H 1712.09 -7.33586 2.43046 0
M  V30 17225 H 1710.44 -6.59952 2.17918 0
M  V30 17226 H 1713.63 -4.52734 1.18951 0
M  V30 17227 H 1713.8 -6.19832 1.88977 0
M  V30 17228 N 1707.21 -0.246397 -1.55662 0
M  V30 17229 C 1708.44 0.38209 -2.03036 0
M  V30 17230 C 1708.84 1.52119 -1.12501 0
M  V30 17231 O 1708.19 1.83227 -0.131753 0
M  V30 17232 C 1708.25 0.952012 -3.46666 0
M  V30 17233 C 1707.91 -0.0547805 -4.56967 0
M  V30 17234 C 1708.91 -0.864138 -5.12668 0
M  V30 17235 C 1706.59 -0.180725 -5.01975 0
M  V30 17236 C 1708.59 -1.7859 -6.1187 0
M  V30 17237 C 1706.28 -1.106 -6.01008 0
M  V30 17238 C 1707.27 -1.90711 -6.55834 0
M  V30 17239 O 1706.96 -2.81678 -7.52936 0
M  V30 17240 H 1706.69 0.095009 -0.66929 0
M  V30 17241 H 1709.25 -0.367701 -2.02082 0
M  V30 17242 H 1707.48 1.75136 -3.44767 0
M  V30 17243 H 1709.17 1.49052 -3.77542 0
M  V30 17244 H 1709.93 -0.77742 -4.78729 0
M  V30 17245 H 1705.81 0.432761 -4.58964 0
M  V30 17246 H 1709.36 -2.41162 -6.54589 0
M  V30 17247 H 1705.25 -1.19364 -6.34368 0
M  V30 17248 H 1706.02 -2.76034 -7.7055 0
M  V30 17249 N 1708.68 1.57577 0.026722 0
M  V30 17250 C 1709.93 1.8856 0.716115 0
M  V30 17251 C 1710.25 0.845223 1.76395 0
M  V30 17252 O 1711.45 1.04435 2.5061 0
M  V30 17253 C 1709.91 3.34631 1.32476 0
M  V30 17254 C 1709.52 4.46904 0.313149 0
M  V30 17255 C 1711.26 3.74759 1.9939 0
M  V30 17256 C 1709.17 5.84038 0.930274 0
M  V30 17257 H 1708.1 0.703531 0.271221 0
M  V30 17258 H 1710.75 1.83476 -0.0294388 0
M  V30 17259 H 1709.13 3.34466 2.1201 0
M  V30 17260 H 1710.3 4.58542 -0.455647 0
M  V30 17261 H 1708.62 4.15624 -0.254028 0
M  V30 17262 H 1711.22 4.74534 2.46418 0
M  V30 17263 H 1711.56 3.06875 2.81307 0
M  V30 17264 H 1712.09 3.77108 1.26628 0
M  V30 17265 H 1708.83 6.55327 0.150466 0
M  V30 17266 H 1708.35 5.76116 1.66886 0
M  V30 17267 H 1710.03 6.30842 1.43692 0
M  V30 17268 N 1710.16 -0.299034 1.54737 0
M  V30 17269 C 1711.11 -1.38889 1.86581 0
M  V30 17270 C 1712.1 -1.52396 0.739723 0
M  V30 17271 O 1713.31 -1.5449 0.92374 0
M  V30 17272 H 1709.68 -0.463969 0.591808 0
M  V30 17273 H 1711.66 -1.09268 2.77674 0
M  V30 17274 C 1710.4 -2.74702 2.13152 0
M  V30 17275 H 1709.73 -2.65092 2.99277 0
M  V30 17276 H 1711.17 -3.49967 2.39372 0
M  V30 17277 C 1709.63 -3.23789 0.930706 0
M  V30 17278 O 1710.16 -4.01412 0.152193 0
M  V30 17279 N 1708.36 -2.81137 0.735545 0
M  V30 17280 H 1707.91 -2.1813 1.37029 0
M  V30 17281 H 1707.87 -3.1433 -0.0663452 0
M  V30 17282 N 1711.64 -1.47227 -0.562322 0
M  V30 17283 C 1712.89 -1.53286 -1.31712 0
M  V30 17284 C 1713.21 -0.194583 -1.94027 0
M  V30 17285 O 1712.48 0.780961 -1.7966 0
M  V30 17286 H 1711.06 -0.564621 -0.489094 0
M  V30 17287 H 1713.72 -1.83492 -0.657024 0
M  V30 17288 H 1712.82 -2.29665 -2.1133 0
M  V30 17289 N 1713.12 0.808639 -1.35273 0
M  V30 17290 C 1714.07 1.90962 -1.24569 0
M  V30 17291 C 1715.05 1.60277 -0.141424 0
M  V30 17292 O 1716.24 1.73037 -0.372451 0
M  V30 17293 C 1713.37 3.27864 -1.01783 0
M  V30 17294 C 1712.46 3.64622 -2.16592 0
M  V30 17295 N 1712.85 3.72831 -3.41805 0
M  V30 17296 C 1711.15 3.94563 -2.07932 0
M  V30 17297 C 1711.85 4.05271 -4.1729 0
M  V30 17298 N 1710.82 4.19246 -3.46025 0
M  V30 17299 H 1714.63 1.95508 -2.1944 0
M  V30 17300 H 1712.14 1.00311 -1.27716 0
M  V30 17301 H 1714.14 4.06576 -0.922037 0
M  V30 17302 H 1712.8 3.24606 -0.0779494 0
M  V30 17303 H 1713.81 3.55961 -3.76181 0
M  V30 17304 H 1710.49 3.99342 -1.21787 0
M  V30 17305 H 1711.88 4.18707 -5.25485 0
M  V30 17306 N 1714.6 1.19237 1.03055 0
M  V30 17307 C 1715.53 0.871947 2.10885 0
M  V30 17308 C 1716.51 -0.170311 1.61706 0
M  V30 17309 O 1717.69 -0.0469972 1.88441 0
M  V30 17310 C 1714.82 0.304639 3.37327 0
M  V30 17311 C 1713.86 1.32569 4.05374 0
M  V30 17312 S 1714.7 2.88551 4.51108 0
M  V30 17313 C 1715.85 2.33359 5.8077 0
M  V30 17314 H 1716.09 1.78514 2.37739 0
M  V30 17315 H 1713.62 1.01933 1.1597 0
M  V30 17316 H 1715.58 -0.0161522 4.10497 0
M  V30 17317 H 1714.24 -0.586834 3.08569 0
M  V30 17318 H 1713.43 0.877829 4.96296 0
M  V30 17319 H 1713.03 1.59323 3.38367 0
M  V30 17320 H 1715.33 1.7225 6.55238 0
M  V30 17321 H 1716.27 3.22622 6.30334 0
M  V30 17322 H 1716.68 1.75999 5.36362 0
M  V30 17323 N 1716.07 -1.22136 0.99602 0
M  V30 17324 C 1717 -2.26463 0.568909 0
M  V30 17325 C 1717.99 -1.65189 -0.405783 0
M  V30 17326 O 1719.17 -1.91935 -0.295735 0
M  V30 17327 C 1716.3 -3.47112 -0.114166 0
M  V30 17328 C 1715.25 -4.20844 0.779387 0
M  V30 17329 C 1714.58 -5.34687 -0.0367787 0
M  V30 17330 C 1715.88 -4.79195 2.07773 0
M  V30 17331 H 1717.57 -2.62443 1.44097 0
M  V30 17332 H 1715.12 -1.26156 0.694314 0
M  V30 17333 H 1717.07 -4.19258 -0.424381 0
M  V30 17334 H 1715.8 -3.10238 -1.02079 0
M  V30 17335 H 1714.46 -3.50537 1.07329 0
M  V30 17336 H 1714.1 -4.94054 -0.94442 0
M  V30 17337 H 1713.8 -5.84944 0.558092 0
M  V30 17338 H 1715.33 -6.09647 -0.341016 0
M  V30 17339 H 1716.74 -5.43266 1.83126 0
M  V30 17340 H 1715.14 -5.39803 2.62169 0
M  V30 17341 H 1716.21 -3.99073 2.75442 0
M  V30 17342 N 1717.55 -0.769612 -1.37531 0
M  V30 17343 C 1718.48 -0.11267 -2.28923 0
M  V30 17344 C 1719.5 0.666541 -1.4853 0
M  V30 17345 O 1720.69 0.504986 -1.71208 0
M  V30 17346 C 1717.79 0.864111 -3.27699 0
M  V30 17347 C 1716.96 0.139166 -4.37179 0
M  V30 17348 C 1716.02 1.029 -5.16041 0
M  V30 17349 O 1715.04 0.493571 -5.67056 0
M  V30 17350 N 1716.25 2.3555 -5.30562 0
M  V30 17351 H 1719.01 -0.897628 -2.85942 0
M  V30 17352 H 1716.57 -0.621776 -1.49484 0
M  V30 17353 H 1718.56 1.46279 -3.77339 0
M  V30 17354 H 1717.13 1.55005 -2.71463 0
M  V30 17355 H 1716.35 -0.640396 -3.88963 0
M  V30 17356 H 1717.64 -0.361847 -5.07512 0
M  V30 17357 H 1717.04 2.81489 -4.90694 0
M  V30 17358 H 1715.6 2.90429 -5.83519 0
M  V30 17359 N 1719.03 1.48775 -0.519977 0
M  V30 17360 C 1719.98 2.26421 0.267886 0
M  V30 17361 C 1720.96 1.32087 0.918795 0
M  V30 17362 O 1722.16 1.56689 0.823256 0
M  V30 17363 C 1719.29 3.16896 1.3203 0
M  V30 17364 C 1718.37 4.18699 0.674688 0
M  V30 17365 N 1718.76 5.05259 -0.233769 0
M  V30 17366 C 1717.06 4.3613 0.933071 0
M  V30 17367 C 1717.76 5.78543 -0.605233 0
M  V30 17368 N 1716.74 5.43591 0.0313426 0
M  V30 17369 H 1720.54 2.9072 -0.43116 0
M  V30 17370 H 1718.05 1.58858 -0.337322 0
M  V30 17371 H 1720.05 3.71171 1.89836 0
M  V30 17372 H 1718.71 2.5415 2.02083 0
M  V30 17373 H 1719.72 5.14345 -0.605766 0
M  V30 17374 H 1716.4 3.84581 1.62492 0
M  V30 17375 H 1717.79 6.58207 -1.34957 0
M  V30 17376 N 1720.51 0.254649 1.55529 0
M  V30 17377 C 1721.46 -0.655705 2.18368 0
M  V30 17378 C 1722.44 -1.13353 1.14192 0
M  V30 17379 O 1723.63 -1.08201 1.40077 0
M  V30 17380 C 1720.76 -1.84883 2.89263 0
M  V30 17381 C 1719.85 -1.38914 4.00704 0
M  V30 17382 N 1720.24 -0.6442 5.01681 0
M  V30 17383 C 1718.54 -1.67379 4.13401 0
M  V30 17384 C 1719.24 -0.405172 5.80287 0
M  V30 17385 N 1718.22 -0.971651 5.34846 0
M  V30 17386 H 1722.02 -0.0784898 2.93795 0
M  V30 17387 H 1719.53 0.0573 1.62299 0
M  V30 17388 H 1721.53 -2.51209 3.32716 0
M  V30 17389 H 1720.19 -2.43019 2.15341 0
M  V30 17390 H 1721.2 -0.293541 5.17067 0
M  V30 17391 H 1717.88 -2.26599 3.50656 0
M  V30 17392 H 1719.27 0.190059 6.71631 0
M  V30 17393 N 1721.99 -1.57589 -0.0183649 0
M  V30 17394 C 1723.23 -1.89382 -0.705612 0
M  V30 17395 C 1723.56 -0.853698 -1.7532 0
M  V30 17396 O 1722.83 0.111322 -1.95583 0
M  V30 17397 H 1721.41 -0.698943 -0.263605 0
M  V30 17398 H 1724.07 -1.94891 0.0182168 0
M  V30 17399 H 1723.16 -2.88587 -1.18845 0
M  V30 17400 N 1723.46 0.290824 -1.54893 0
M  V30 17401 C 1724.41 1.37898 -1.87315 0
M  V30 17402 C 1725.41 1.52001 -0.747794 0
M  V30 17403 O 1726.61 1.53998 -0.93192 0
M  V30 17404 H 1722.99 0.460824 -0.59426 0
M  V30 17405 H 1724.96 1.07794 -2.7825 0
M  V30 17406 C 1723.71 2.73568 -2.14606 0
M  V30 17407 H 1723.03 2.63501 -3.00678 0
M  V30 17408 H 1724.47 3.48693 -2.41225 0
M  V30 17409 C 1722.93 3.23291 -0.947865 0
M  V30 17410 O 1723.46 4.01325 -0.173479 0
M  V30 17411 N 1721.67 2.80743 -0.750444 0
M  V30 17412 H 1721.21 2.174 -1.38184 0
M  V30 17413 H 1721.17 3.14361 0.0496746 0
M  V30 17414 N 1724.94 1.47523 0.554506 0
M  V30 17415 C 1726.17 1.58154 1.34172 0
M  V30 17416 C 1726.59 0.233124 1.8665 0
M  V30 17417 O 1725.95 -0.791439 1.63113 0
M  V30 17418 C 1726 2.61242 2.48566 0
M  V30 17419 O 1725.1 2.167 3.50877 0
M  V30 17420 H 1724.44 0.531184 0.398421 0
M  V30 17421 H 1726.97 1.93324 0.669841 0
M  V30 17422 H 1726.98 2.81746 2.95098 0
M  V30 17423 H 1725.66 3.59148 2.09727 0
M  V30 17424 H 1724.24 2.06305 3.10632 0
M  V30 17425 N 1726.42 -0.801453 1.357 0
M  V30 17426 C 1727.67 -1.55571 1.29004 0
M  V30 17427 C 1727.99 -1.9454 -0.133836 0
M  V30 17428 O 1727.26 -1.64004 -1.07143 0
M  V30 17429 H 1725.84 -0.576922 0.47452 0
M  V30 17430 H 1728.5 -0.95568 1.69861 0
M  V30 17431 H 1727.6 -2.46879 1.90937 0
M  V30 17432 N 1727.9 -1.19782 -1.02421 0
M  V30 17433 C 1728.85 -0.907509 -2.09161 0
M  V30 17434 C 1729.83 0.129596 -1.60377 0
M  V30 17435 O 1731.02 -0.0767382 -1.76834 0
M  V30 17436 C 1728.15 -0.453095 -3.40297 0
M  V30 17437 C 1727.24 -1.5232 -3.95802 0
M  V30 17438 N 1727.63 -2.74379 -4.24912 0
M  V30 17439 C 1725.93 -1.38758 -4.23866 0
M  V30 17440 C 1726.63 -3.43348 -4.6956 0
M  V30 17441 N 1725.61 -2.70749 -4.71376 0
M  V30 17442 H 1729.41 -1.83512 -2.29566 0
M  V30 17443 H 1726.92 -1.09068 -1.20324 0
M  V30 17444 H 1728.92 -0.226551 -4.16284 0
M  V30 17445 H 1727.58 0.467983 -3.2131 0
M  V30 17446 H 1728.59 -3.11099 -4.1405 0
M  V30 17447 H 1725.27 -0.530327 -4.14118 0
M  V30 17448 H 1726.66 -4.47753 -5.00966 0
M  V30 17449 N 1729.38 1.21606 -1.00248 0
M  V30 17450 C 1730.79 1.72365 -0.717446 0
M  V30 17451 C 1731.14 1.80668 0.765078 0
M  V30 17452 O 1730.26 1.45951 1.59772 0
M  V30 17453 C 1730.86 3.13046 -1.29567 0
M  V30 17454 C 1729.42 3.61172 -1.05981 0
M  V30 17455 C 1728.57 2.38775 -1.41003 0
M  V30 17456 H 1731.52 1.06818 -1.17369 0
M  V30 17457 H 1731.54 3.74392 -0.679054 0
M  V30 17458 H 1731.05 3.0697 -2.37467 0
M  V30 17459 H 1729.15 3.726 0.00214307 0
M  V30 17460 H 1729.26 4.46778 -1.72993 0
M  V30 17461 H 1727.63 2.40839 -0.82877 0
M  V30 17462 H 1728.41 2.35352 -2.49928 0
M  V30 17463 N 1730.86 0.776895 1.37121 0
M  V30 17464 C 1731.79 0.180738 2.32799 0
M  V30 17465 C 1732.77 -0.677284 1.56035 0
M  V30 17466 O 1733.95 -0.613687 1.84249 0
M  V30 17467 C 1731.08 -0.695148 3.40272 0
M  V30 17468 C 1730.04 0.0619772 4.27955 0
M  V30 17469 C 1729.36 -0.933688 5.26485 0
M  V30 17470 C 1730.66 1.24396 5.0727 0
M  V30 17471 H 1732.36 0.980039 2.82906 0
M  V30 17472 H 1729.9 0.472722 1.3602 0
M  V30 17473 H 1731.85 -1.12205 4.06187 0
M  V30 17474 H 1730.58 -1.52702 2.88703 0
M  V30 17475 H 1729.24 0.469717 3.63578 0
M  V30 17476 H 1728.89 -1.76025 4.71194 0
M  V30 17477 H 1728.59 -0.431608 5.86013 0
M  V30 17478 H 1730.11 -1.35942 5.95275 0
M  V30 17479 H 1731.52 0.89345 5.66295 0
M  V30 17480 H 1729.92 1.67848 5.76149 0
M  V30 17481 H 1730.99 2.04553 4.39643 0
M  V30 17482 N 1732.33 -1.48497 0.527859 0
M  V30 17483 C 1733.58 -2.02799 -0.00702196 0
M  V30 17484 C 1733.91 -1.40433 -1.34135 0
M  V30 17485 O 1733.19 -0.54934 -1.86581 0
M  V30 17486 C 1733.47 -3.59861 -0.131272 0
M  V30 17487 C 1733.32 -4.32711 1.22807 0
M  V30 17488 C 1734.64 -4.31634 -0.85908 0
M  V30 17489 H 1731.76 -0.736999 -0.00107787 0
M  V30 17490 H 1734.4 -1.77242 0.684478 0
M  V30 17491 H 1732.55 -3.81766 -0.720216 0
M  V30 17492 H 1734.23 -4.22229 1.85796 0
M  V30 17493 H 1732.47 -3.94212 1.8105 0
M  V30 17494 H 1733.14 -5.41047 1.09415 0
M  V30 17495 H 1735.62 -4.14546 -0.359322 0
M  V30 17496 H 1734.49 -5.41221 -0.914911 0
M  V30 17497 H 1734.75 -3.98765 -1.90889 0
M  V30 17498 N 1733.81 -0.262893 -1.55392 0
M  V30 17499 C 1734.74 0.623732 -2.25015 0
M  V30 17500 C 1735.72 1.16865 -1.23598 0
M  V30 17501 O 1736.91 1.20505 -1.5229 0
M  V30 17502 C 1734.04 1.81353 -2.9619 0
M  V30 17503 C 1732.99 1.40069 -4.04431 0
M  V30 17504 C 1732.32 2.67261 -4.63115 0
M  V30 17505 C 1733.62 0.559905 -5.1929 0
M  V30 17506 H 1735.31 0.0431306 -2.99369 0
M  V30 17507 H 1732.86 0.0193043 -1.43987 0
M  V30 17508 H 1734.81 2.43958 -3.43602 0
M  V30 17509 H 1733.53 2.41977 -2.1935 0
M  V30 17510 H 1732.19 0.797905 -3.57811 0
M  V30 17511 H 1731.84 3.26117 -3.82958 0
M  V30 17512 H 1731.54 2.40354 -5.36194 0
M  V30 17513 H 1733.07 3.30735 -5.1327 0
M  V30 17514 H 1734.48 1.09064 -5.6283 0
M  V30 17515 H 1732.88 0.386234 -5.98856 0
M  V30 17516 H 1733.95 -0.424199 -4.83041 0
M  V30 17517 N 1735.29 1.57597 0.0100073 0
M  V30 17518 C 1736.51 1.94801 0.711852 0
M  V30 17519 C 1736.94 0.864343 1.67065 0
M  V30 17520 O 1736.3 -0.178388 1.8042 0
M  V30 17521 C 1736.35 3.31094 1.42862 0
M  V30 17522 O 1735.45 3.2469 2.54264 0
M  V30 17523 H 1734.79 0.636207 0.190095 0
M  V30 17524 H 1737.32 2.04561 -0.0402016 0
M  V30 17525 H 1737.33 3.66428 1.79429 0
M  V30 17526 H 1736.01 4.09522 0.725549 0
M  V30 17527 H 1734.58 3.01017 2.20099 0
M  V30 17528 N 1736.77 -0.282606 1.55045 0
M  V30 17529 C 1738 -1.03245 1.78952 0
M  V30 17530 C 1738.41 -1.80777 0.558225 0
M  V30 17531 O 1737.75 -1.77264 -0.482009 0
M  V30 17532 C 1737.81 -2.04557 2.95629 0
M  V30 17533 C 1737.47 -1.46051 4.33034 0
M  V30 17534 C 1738.47 -0.881083 5.1238 0
M  V30 17535 C 1736.16 -1.4906 4.79673 0
M  V30 17536 C 1738.15 -0.339532 6.36495 0
M  V30 17537 C 1735.84 -0.945189 6.03746 0
M  V30 17538 C 1736.84 -0.370643 6.81994 0
M  V30 17539 O 1736.52 0.166447 8.03728 0
M  V30 17540 H 1736.26 -0.311139 0.60014 0
M  V30 17541 H 1738.81 -0.32175 2.02864 0
M  V30 17542 H 1737.04 -2.79359 2.67386 0
M  V30 17543 H 1738.73 -2.65592 3.06946 0
M  V30 17544 H 1739.49 -0.850602 4.77483 0
M  V30 17545 H 1735.37 -1.92719 4.18784 0
M  V30 17546 H 1738.92 0.109564 6.97514 0
M  V30 17547 H 1734.81 -0.972878 6.38126 0
M  V30 17548 H 1735.58 0.054892 8.18482 0
M  V30 17549 N 1738.25 -1.47815 -0.546675 0
M  V30 17550 C 1739.49 -1.54238 -1.29975 0
M  V30 17551 C 1739.81 -0.213869 -1.94427 0
M  V30 17552 O 1741.01 -0.156187 -2.7105 0
M  V30 17553 C 1739.47 -2.71938 -2.35749 0
M  V30 17554 C 1739.08 -4.11362 -1.77441 0
M  V30 17555 C 1740.82 -2.87661 -3.12172 0
M  V30 17556 C 1738.73 -5.20347 -2.81057 0
M  V30 17557 H 1737.66 -0.574139 -0.488754 0
M  V30 17558 H 1740.31 -1.74113 -0.579384 0
M  V30 17559 H 1738.69 -2.45463 -3.10747 0
M  V30 17560 H 1739.87 -4.47785 -1.08744 0
M  V30 17561 H 1738.18 -4.00614 -1.13568 0
M  V30 17562 H 1740.78 -3.66252 -3.89568 0
M  V30 17563 H 1741.12 -1.96494 -3.67009 0
M  V30 17564 H 1741.65 -3.13957 -2.44286 0
M  V30 17565 H 1738.39 -6.13426 -2.31061 0
M  V30 17566 H 1737.91 -4.8843 -3.48132 0
M  V30 17567 H 1739.59 -5.47748 -3.44355 0
M  V30 17568 N 1739.72 0.794246 -1.36123 0
M  V30 17569 C 1741 1.53967 -1.20638 0
M  V30 17570 C 1741.38 2.10058 0.209456 0
M  V30 17571 O 1740.73 1.93551 1.2145 0
M  V30 17572 C 1740.94 2.63844 -2.28445 0
M  V30 17573 C 1742.29 3.31855 -2.64872 0
M  V30 17574 O 1743.31 2.74124 -2.27452 0
M  V30 17575 O 1742.17 4.36177 -3.2926 0
M  V30 17576 H 1739.26 0.68086 -0.469424 0
M  V30 17577 H 1741.81 0.833144 -1.4784 0
M  V30 17578 H 1740.58 2.20357 -3.23355 0
M  V30 17579 H 1740.2 3.42121 -2.02581 0
M  V30 17580 N 1741.2 1.20323 1.01785 0
M  V30 17581 C 1742.13 0.974819 2.12178 0
M  V30 17582 C 1743.11 -0.0957637 1.6983 0
M  V30 17583 O 1744.3 0.0614963 1.94103 0
M  V30 17584 C 1741.43 0.524739 3.43313 0
M  V30 17585 C 1740.38 1.53842 3.99395 0
M  V30 17586 C 1739.71 0.945021 5.26283 0
M  V30 17587 C 1741.01 2.92179 4.3293 0
M  V30 17588 H 1742.7 1.8981 2.31544 0
M  V30 17589 H 1740.25 0.914025 1.11273 0
M  V30 17590 H 1742.2 0.352182 4.19926 0
M  V30 17591 H 1740.92 -0.434161 3.23701 0
M  V30 17592 H 1739.58 1.69832 3.24889 0
M  V30 17593 H 1739.23 -0.0217709 5.02995 0
M  V30 17594 H 1738.93 1.62201 5.64769 0
M  V30 17595 H 1740.46 0.783504 6.05552 0
M  V30 17596 H 1741.87 2.79708 5.00436 0
M  V30 17597 H 1740.27 3.56773 4.82528 0
M  V30 17598 H 1741.34 3.43997 3.41752 0
M  V30 17599 N 1742.68 -1.21073 1.00892 0
M  V30 17600 C 1743.9 -1.94774 0.712588 0
M  V30 17601 C 1744.33 -1.73812 -0.719085 0
M  V30 17602 O 1743.69 -1.02747 -1.49374 0
M  V30 17603 C 1743.74 -3.45156 1.04402 0
M  V30 17604 O 1742.84 -4.12122 0.151433 0
M  V30 17605 H 1742.18 -0.608775 0.26512 0
M  V30 17606 H 1744.71 -1.53721 1.35022 0
M  V30 17607 H 1744.72 -3.95744 0.992511 0
M  V30 17608 H 1743.4 -3.59736 2.08716 0
M  V30 17609 H 1741.97 -3.71994 0.259805 0
M  V30 17610 N 1744.16 -0.784156 -1.36707 0
M  V30 17611 C 1745.12 -0.184957 -2.28453 0
M  V30 17612 C 1746.12 0.614637 -1.4859 0
M  V30 17613 O 1747.31 0.436403 -1.68645 0
M  V30 17614 C 1744.44 0.744662 -3.32667 0
M  V30 17615 H 1745.64 -0.993861 -2.82953 0
M  V30 17616 H 1743.19 -0.553214 -1.46182 0
M  V30 17617 H 1743.92 1.57811 -2.83313 0
M  V30 17618 H 1743.71 0.173313 -3.91717 0
M  V30 17619 H 1745.2 1.15894 -4.01196 0
M  V30 17620 N 1745.64 1.48215 -0.535727 0
M  V30 17621 C 1746.88 2.03397 -0.01188 0
M  V30 17622 C 1747.24 1.40493 1.31451 0
M  V30 17623 O 1746.53 0.543545 1.83728 0
M  V30 17624 C 1746.72 3.57036 0.161344 0
M  V30 17625 C 1746.55 4.34834 -1.1467 0
M  V30 17626 C 1745.32 4.75553 -1.70815 0
M  V30 17627 C 1747.52 4.71297 -2.05873 0
M  V30 17628 N 1745.5 5.3791 -2.95849 0
M  V30 17629 C 1746.87 5.33733 -3.15483 0
M  V30 17630 C 1748.93 4.53228 -2.06129 0
M  V30 17631 C 1747.63 5.80008 -4.25421 0
M  V30 17632 C 1749.66 5.00488 -3.15065 0
M  V30 17633 C 1749.02 5.62953 -4.23395 0
M  V30 17634 H 1745.12 0.780647 -0.0459869 0
M  V30 17635 H 1747.7 1.80967 -0.718276 0
M  V30 17636 H 1745.87 3.79278 0.836833 0
M  V30 17637 H 1747.61 3.98855 0.685316 0
M  V30 17638 H 1744.36 4.56839 -1.24881 0
M  V30 17639 H 1744.79 5.73649 -3.59522 0
M  V30 17640 H 1749.43 4.04309 -1.23669 0
M  V30 17641 H 1747.15 6.27929 -5.08656 0
M  V30 17642 H 1750.73 4.88292 -3.16325 0
M  V30 17643 H 1749.61 5.98858 -5.06299 0
M  V30 17644 N 1747.11 0.27113 1.5525 0
M  V30 17645 C 1748.35 -0.34803 2.01415 0
M  V30 17646 C 1748.72 -1.53347 1.15536 0
M  V30 17647 O 1749.92 -2.222 1.51264 0
M  V30 17648 C 1748.19 -0.72441 3.49982 0
M  V30 17649 S 1749.75 -1.33067 4.18137 0
M  V30 17650 H 1746.57 -0.108431 0.702683 0
M  V30 17651 H 1749.17 0.392033 1.91529 0
M  V30 17652 H 1747.87 0.14729 4.10136 0
M  V30 17653 H 1747.4 -1.49604 3.63844 0
M  V30 17654 H 1749.42 -2.61934 4.21432 0
M  V30 17655 N 1748.59 -1.576 -0.00164943 0
M  V30 17656 C 1749.82 -1.94493 -0.69686 0
M  V30 17657 C 1750.23 -0.871587 -1.67929 0
M  V30 17658 O 1749.57 0.158245 -1.83017 0
M  V30 17659 C 1749.64 -3.27363 -1.48572 0
M  V30 17660 C 1749.3 -4.52135 -0.665063 0
M  V30 17661 C 1750.3 -5.19879 0.0465481 0
M  V30 17662 C 1747.98 -4.98564 -0.611519 0
M  V30 17663 C 1749.98 -6.32351 0.800706 0
M  V30 17664 C 1747.66 -6.10925 0.146365 0
M  V30 17665 C 1748.66 -6.77675 0.851213 0
M  V30 17666 O 1748.35 -7.87883 1.59674 0
M  V30 17667 H 1748.08 -0.645998 -0.199156 0
M  V30 17668 H 1750.63 -2.05351 0.0450887 0
M  V30 17669 H 1748.86 -3.12909 -2.27211 0
M  V30 17670 H 1750.55 -3.4938 -2.06611 0
M  V30 17671 H 1751.32 -4.84998 0.014324 0
M  V30 17672 H 1747.2 -4.46434 -1.14967 0
M  V30 17673 H 1750.74 -6.84385 1.3514 0
M  V30 17674 H 1746.64 -6.45248 0.180416 0
M  V30 17675 H 1747.41 -8.04389 1.51327 0
M  V30 17676 N 1750.07 0.274379 -1.55193 0
M  V30 17677 C 1751.3 1.02295 -1.79497 0
M  V30 17678 C 1751.71 1.80479 -0.567805 0
M  V30 17679 O 1751.05 1.77517 0.472601 0
M  V30 17680 C 1751.11 2.02986 -2.9671 0
M  V30 17681 C 1750.78 1.43753 -4.33802 0
M  V30 17682 C 1751.77 0.853898 -5.1284 0
M  V30 17683 C 1749.46 1.46514 -4.80457 0
M  V30 17684 C 1751.45 0.305773 -6.36666 0
M  V30 17685 C 1749.14 0.913158 -6.04239 0
M  V30 17686 C 1750.14 0.33447 -6.82181 0
M  V30 17687 O 1749.83 -0.209069 -8.03628 0
M  V30 17688 H 1749.56 0.307952 -0.601782 0
M  V30 17689 H 1752.11 0.310987 -2.03032 0
M  V30 17690 H 1750.34 2.77937 -2.68864 0
M  V30 17691 H 1752.03 2.6396 -3.0835 0
M  V30 17692 H 1752.8 0.825268 -4.77927 0
M  V30 17693 H 1748.68 1.90496 -4.198 0
M  V30 17694 H 1752.22 -0.146553 -6.97446 0
M  V30 17695 H 1748.12 0.939023 -6.38633 0
M  V30 17696 H 1748.89 -0.0982973 -8.18441 0
M  V30 17697 N 1751.55 1.48103 0.538828 0
M  V30 17698 C 1752.79 1.5726 1.3057 0
M  V30 17699 C 1753.15 0.237208 1.90529 0
M  V30 17700 O 1754.35 0.203723 2.68027 0
M  V30 17701 C 1752.62 2.67292 2.37254 0
M  V30 17702 S 1754.18 2.96157 3.23785 0
M  V30 17703 H 1751 0.555112 0.444265 0
M  V30 17704 H 1753.6 1.8558 0.614855 0
M  V30 17705 H 1752.31 3.62892 1.91671 0
M  V30 17706 H 1751.84 2.40846 3.11057 0
M  V30 17707 H 1753.85 2.34777 4.37143 0
M  V30 17708 N 1753.03 -0.787016 1.36542 0
M  V30 17709 C 1753.96 -1.90844 1.26931 0
M  V30 17710 C 1754.97 -1.61707 0.188293 0
M  V30 17711 O 1756.16 -1.7291 0.443205 0
M  V30 17712 C 1753.26 -3.25709 0.936305 0
M  V30 17713 C 1752.43 -3.82607 2.11969 0
M  V30 17714 C 1751.49 -4.95916 1.75937 0
M  V30 17715 O 1750.52 -5.12307 2.48053 0
M  V30 17716 N 1751.72 -5.76331 0.694461 0
M  V30 17717 H 1754.49 -1.9961 2.23553 0
M  V30 17718 H 1752.05 -0.965401 1.29968 0
M  V30 17719 H 1754.04 -3.99008 0.676378 0
M  V30 17720 H 1752.61 -3.12544 0.0591364 0
M  V30 17721 H 1751.83 -3.01267 2.54227 0
M  V30 17722 H 1753.12 -4.17352 2.91024 0
M  V30 17723 H 1752.51 -5.65619 0.0957046 0
M  V30 17724 H 1751.07 -6.49923 0.494363 0
M  V30 17725 N 1754.5 -1.20861 -1.01145 0
M  V30 17726 C 1755.47 -0.963742 -2.07954 0
M  V30 17727 C 1756.47 0.0627362 -1.60678 0
M  V30 17728 O 1757.66 -0.173867 -1.7333 0
M  V30 17729 C 1754.79 -0.451977 -3.3789 0
M  V30 17730 H 1755.98 -1.91123 -2.3111 0
M  V30 17731 H 1753.54 -1.0247 -1.18024 0
M  V30 17732 H 1754.27 0.500735 -3.20411 0
M  V30 17733 H 1754.06 -1.19231 -3.73532 0
M  V30 17734 H 1755.55 -0.300308 -4.16519 0
M  V30 17735 N 1755.98 1.20536 -1.01532 0
M  V30 17736 C 1757.21 1.93571 -0.722055 0
M  V30 17737 C 1757.62 1.74923 0.721011 0
M  V30 17738 O 1756.96 1.05961 1.5006 0
M  V30 17739 C 1757.03 3.45989 -0.97632 0
M  V30 17740 C 1756.69 3.88397 -2.40825 0
M  V30 17741 C 1757.69 3.94262 -3.38901 0
M  V30 17742 C 1755.37 4.20422 -2.74865 0
M  V30 17743 C 1757.37 4.3156 -4.69078 0
M  V30 17744 C 1755.05 4.57395 -4.05256 0
M  V30 17745 C 1756.05 4.62937 -5.02174 0
M  V30 17746 O 1755.74 4.99063 -6.30232 0
M  V30 17747 H 1755.47 0.622101 -0.264511 0
M  V30 17748 H 1758.02 1.5401 -1.35905 0
M  V30 17749 H 1756.25 3.85669 -0.282161 0
M  V30 17750 H 1757.94 4.00251 -0.674832 0
M  V30 17751 H 1758.71 3.69686 -3.13938 0
M  V30 17752 H 1754.59 4.153 -2.00117 0
M  V30 17753 H 1758.13 4.358 -5.44724 0
M  V30 17754 H 1754.03 4.81427 -4.29998 0
M  V30 17755 H 1754.8 5.1706 -6.34501 0
M  V30 17756 N 1757.46 0.791395 1.36289 0
M  V30 17757 C 1758.71 0.365242 1.99484 0
M  V30 17758 C 1759.04 -1.06087 1.62663 0
M  V30 17759 O 1758.31 -1.73332 0.882396 0
M  V30 17760 C 1758.6 0.531317 3.56159 0
M  V30 17761 C 1758.45 2.00126 4.02827 0
M  V30 17762 C 1759.77 -0.0524248 4.40069 0
M  V30 17763 H 1756.89 0.134183 0.724682 0
M  V30 17764 H 1759.53 0.998102 1.61672 0
M  V30 17765 H 1757.68 -0.0074293 3.88499 0
M  V30 17766 H 1759.35 2.60122 3.80965 0
M  V30 17767 H 1757.6 2.50316 3.54294 0
M  V30 17768 H 1758.27 2.06842 5.11782 0
M  V30 17769 H 1760.74 0.407489 4.141 0
M  V30 17770 H 1759.62 0.0937898 5.4882 0
M  V30 17771 H 1759.88 -1.14472 4.27023 0
M  V30 17772 N 1758.94 -1.47929 0.54358 0
M  V30 17773 C 1759.89 -2.26818 -0.23183 0
M  V30 17774 C 1760.87 -1.33532 -0.897665 0
M  V30 17775 O 1762.07 -1.57979 -0.798223 0
M  V30 17776 C 1759.19 -3.18956 -1.26972 0
M  V30 17777 C 1758.28 -4.19719 -0.607991 0
M  V30 17778 N 1758.67 -5.04824 0.314122 0
M  V30 17779 C 1756.97 -4.3756 -0.863569 0
M  V30 17780 C 1757.67 -5.77507 0.697198 0
M  V30 17781 N 1756.65 -5.43572 0.055142 0
M  V30 17782 H 1760.45 -2.89997 0.477356 0
M  V30 17783 H 1757.96 -1.58301 0.362553 0
M  V30 17784 H 1759.96 -3.74144 -1.83907 0
M  V30 17785 H 1758.62 -2.57333 -1.98014 0
M  V30 17786 H 1759.63 -5.13316 0.687517 0
M  V30 17787 H 1756.31 -3.87117 -1.56353 0
M  V30 17788 H 1757.7 -6.55977 1.45411 0
M  V30 17789 N 1760.42 -0.27936 -1.55104 0
M  V30 17790 C 1761.37 0.620882 -2.19383 0
M  V30 17791 C 1762.35 1.11522 -1.15981 0
M  V30 17792 O 1763.54 1.05959 -1.4178 0
M  V30 17793 C 1760.67 1.80257 -2.92168 0
M  V30 17794 C 1759.76 1.32522 -4.02863 0
M  V30 17795 N 1760.15 0.564305 -5.02642 0
M  V30 17796 C 1758.45 1.60781 -4.16011 0
M  V30 17797 C 1759.15 0.312802 -5.80858 0
M  V30 17798 N 1758.12 0.886439 -5.36324 0
M  V30 17799 H 1761.93 0.0317396 -2.93883 0
M  V30 17800 H 1759.44 -0.083113 -1.62187 0
M  V30 17801 H 1761.44 2.45884 -3.3667 0
M  V30 17802 H 1760.1 2.39562 -2.1918 0
M  V30 17803 H 1761.11 0.211243 -5.17469 0
M  V30 17804 H 1757.79 2.20991 -3.54216 0
M  V30 17805 H 1759.18 -0.296885 -6.71244 0
M  V30 17806 N 1761.9 1.57599 -0.0067085 0
M  V30 17807 C 1762.83 2.05706 1.01084 0
M  V30 17808 C 1763.84 0.976216 1.30284 0
M  V30 17809 O 1765.03 1.25288 1.27142 0
M  V30 17810 C 1762.13 2.44771 2.34393 0
M  V30 17811 C 1761.3 3.75668 2.24036 0
M  V30 17812 C 1760.36 4.01528 3.4009 0
M  V30 17813 O 1759.39 4.72101 3.17977 0
M  V30 17814 N 1760.59 3.49947 4.6316 0
M  V30 17815 H 1763.35 2.93622 0.600532 0
M  V30 17816 H 1760.92 1.6089 0.180536 0
M  V30 17817 H 1762.91 2.5918 3.10818 0
M  V30 17818 H 1761.48 1.62339 2.67142 0
M  V30 17819 H 1760.7 3.71272 1.3248 0
M  V30 17820 H 1761.99 4.6147 2.14295 0
M  V30 17821 H 1761.38 2.92811 4.84023 0
M  V30 17822 H 1759.94 3.69675 5.36828 0
M  V30 17823 N 1763.37 -0.266145 1.55336 0
M  V30 17824 C 1764.34 -1.31242 1.87904 0
M  V30 17825 C 1765.34 -1.42022 0.754083 0
M  V30 17826 O 1766.53 -1.41054 1.02222 0
M  V30 17827 C 1763.66 -2.69285 2.09041 0
M  V30 17828 H 1764.85 -1.03592 2.81441 0
M  V30 17829 H 1762.4 -0.504537 1.47933 0
M  V30 17830 H 1763.14 -3.02106 1.17909 0
M  V30 17831 H 1762.92 -2.62846 2.90954 0
M  V30 17832 H 1764.41 -3.4487 2.35488 0
M  V30 17833 N 1764.85 -1.48386 -0.530967 0
M  V30 17834 C 1765.78 -1.6573 -1.64486 0
M  V30 17835 C 1766.76 -0.506198 -1.62393 0
M  V30 17836 O 1767.95 -0.738623 -1.79605 0
M  V30 17837 C 1765.08 -1.69594 -3.03076 0
M  V30 17838 C 1764.03 -2.84195 -3.20027 0
M  V30 17839 C 1763.36 -2.73148 -4.59668 0
M  V30 17840 C 1764.66 -4.25504 -3.02892 0
M  V30 17841 H 1766.35 -2.58983 -1.50227 0
M  V30 17842 H 1763.9 -1.24633 -0.721286 0
M  V30 17843 H 1765.85 -1.80316 -3.80873 0
M  V30 17844 H 1764.57 -0.729193 -3.18356 0
M  V30 17845 H 1763.23 -2.73027 -2.44647 0
M  V30 17846 H 1762.88 -1.74444 -4.71782 0
M  V30 17847 H 1762.58 -3.50047 -4.71954 0
M  V30 17848 H 1764.11 -2.85836 -5.39565 0
M  V30 17849 H 1765.52 -4.37511 -3.70482 0
M  V30 17850 H 1763.92 -5.03393 -3.26673 0
M  V30 17851 H 1764.99 -4.42036 -1.99329 0
M  V30 17852 N 1766.33 0.779763 -1.36958 0
M  V30 17853 C 1767.26 1.90687 -1.34762 0
M  V30 17854 C 1768.24 1.68704 -0.217508 0
M  V30 17855 O 1769.43 1.89678 -0.416639 0
M  V30 17856 C 1766.56 3.27854 -1.14582 0
M  V30 17857 C 1765.51 3.64383 -2.2452 0
M  V30 17858 C 1764.84 5.00004 -1.89473 0
M  V30 17859 C 1766.14 3.71963 -3.66662 0
M  V30 17860 H 1767.83 1.92781 -2.29076 0
M  V30 17861 H 1765.38 0.926102 -1.10269 0
M  V30 17862 H 1767.33 4.06332 -1.11678 0
M  V30 17863 H 1766.05 3.26172 -0.167218 0
M  V30 17864 H 1764.71 2.88207 -2.26566 0
M  V30 17865 H 1764.36 4.94853 -0.901617 0
M  V30 17866 H 1764.06 5.25414 -2.63085 0
M  V30 17867 H 1765.58 5.80892 -1.88141 0
M  V30 17868 H 1767 4.40611 -3.6679 0
M  V30 17869 H 1765.39 4.08864 -4.39261 0
M  V30 17870 H 1766.46 2.72824 -4.00868 0
M  V30 17871 N 1767.81 1.21396 1.00503 0
M  V30 17872 C 1769.08 0.93995 1.71535 0
M  V30 17873 C 1769.46 -0.548247 2.03856 0
M  V30 17874 O 1768.81 -1.51308 1.71226 0
M  V30 17875 C 1769.02 1.82501 2.9748 0
M  V30 17876 C 1770.37 2.07383 3.7051 0
M  V30 17877 O 1771.39 1.79849 3.07462 0
M  V30 17878 O 1770.25 2.5395 4.83913 0
M  V30 17879 H 1767.35 0.35246 0.748132 0
M  V30 17880 H 1769.89 1.32325 1.06246 0
M  V30 17881 H 1768.67 2.83219 2.70005 0
M  V30 17882 H 1768.29 1.44252 3.70509 0
M  V30 17883 N 1769.29 -1.19996 1.0217 0
M  V30 17884 C 1770.53 -1.89776 0.715047 0
M  V30 17885 C 1770.86 -1.78971 -0.753862 0
M  V30 17886 O 1770.14 -1.17729 -1.54823 0
M  V30 17887 C 1770.42 -3.4098 1.15779 0
M  V30 17888 C 1770.28 -3.60693 2.68739 0
M  V30 17889 C 1771.59 -4.33953 0.733008 0
M  V30 17890 H 1768.71 -0.689148 0.261236 0
M  V30 17891 H 1771.36 -1.41287 1.27035 0
M  V30 17892 H 1769.51 -3.82407 0.68534 0
M  V30 17893 H 1771.18 -3.28484 3.23876 0
M  V30 17894 H 1769.42 -3.0399 3.09472 0
M  V30 17895 H 1770.09 -4.66704 2.94773 0
M  V30 17896 H 1772.57 -4.002 1.13925 0
M  V30 17897 H 1771.44 -5.38355 1.07077 0
M  V30 17898 H 1771.7 -4.4059 -0.365047 0
M  V30 17899 N 1770.76 -0.798611 -1.35867 0
M  V30 17900 C 1771.71 -0.201442 -2.29919 0
M  V30 17901 C 1772.68 0.659971 -1.52426 0
M  V30 17902 O 1773.87 0.606726 -1.80896 0
M  V30 17903 C 1771.01 0.650427 -3.38915 0
M  V30 17904 C 1770.12 -0.230539 -4.31384 0
M  V30 17905 C 1769.25 0.628575 -5.27468 0
M  V30 17906 C 1768.29 -0.253282 -6.11576 0
M  V30 17907 N 1767.43 0.565343 -6.9982 0
M  V30 17908 H 1772.27 -1.00892 -2.80401 0
M  V30 17909 H 1769.81 -0.509085 -1.3801 0
M  V30 17910 H 1771.76 1.15941 -4.00766 0
M  V30 17911 H 1770.39 1.42325 -2.8973 0
M  V30 17912 H 1769.45 -0.85756 -3.70608 0
M  V30 17913 H 1770.76 -0.909635 -4.90436 0
M  V30 17914 H 1769.91 1.203 -5.94653 0
M  V30 17915 H 1768.65 1.34127 -4.68894 0
M  V30 17916 H 1767.66 -0.84004 -5.43345 0
M  V30 17917 H 1768.88 -0.963713 -6.72227 0
M  V30 17918 H 1766.83 1.26216 -6.43743 0
M  V30 17919 H 1766.74 -0.0558752 -7.55979 0
M  V30 17920 H 1768.01 1.1233 -7.71364 0
M  V30 17921 N 1772.24 1.47639 -0.551417 0
M  V30 17922 C 1773.19 2.31626 0.212654 0
M  V30 17923 C 1774.18 1.42567 0.914925 0
M  V30 17924 O 1775.39 1.59363 0.836869 0
M  V30 17925 H 1771.76 0.746898 0.0874493 0
M  V30 17926 H 1773.74 2.93923 -0.514976 0
M  V30 17927 C 1772.48 3.25098 1.23316 0
M  V30 17928 H 1771.81 3.93585 0.702196 0
M  V30 17929 H 1773.25 3.86707 1.73878 0
M  V30 17930 C 1771.71 2.48209 2.27802 0
M  V30 17931 O 1772.24 2.22235 3.34626 0
M  V30 17932 N 1770.44 2.09321 2.01577 0
M  V30 17933 H 1769.99 2.30645 1.14719 0
M  V30 17934 H 1769.95 1.58191 2.71704 0
M  V30 17935 N 1773.72 0.287581 1.54954 0
M  V30 17936 C 1774.97 -0.326315 1.99043 0
M  V30 17937 C 1775.28 -1.56033 1.17954 0
M  V30 17938 O 1776.49 -2.24797 1.52246 0
M  V30 17939 C 1774.94 -0.631918 3.54309 0
M  V30 17940 C 1774.55 0.582998 4.4419 0
M  V30 17941 C 1776.3 -1.20775 4.06957 0
M  V30 17942 C 1774.2 0.251291 5.90866 0
M  V30 17943 H 1773.13 -0.125703 0.743448 0
M  V30 17944 H 1775.78 0.394188 1.79216 0
M  V30 17945 H 1774.17 -1.41166 3.69984 0
M  V30 17946 H 1775.34 1.35957 4.40287 0
M  V30 17947 H 1773.66 1.07653 4.02243 0
M  V30 17948 H 1776.25 -1.46995 5.14098 0
M  V30 17949 H 1776.6 -2.14569 3.56743 0
M  V30 17950 H 1777.13 -0.490021 3.9477 0
M  V30 17951 H 1773.87 1.15744 6.452 0
M  V30 17952 H 1773.39 -0.488274 5.97809 0
M  V30 17953 H 1775.07 -0.152008 6.46821 0
M  V30 17954 N 1775.2 -1.57593 0.0150662 0
M  V30 17955 C 1776.16 -2.08293 -0.956385 0
M  V30 17956 C 1777.16 -0.99521 -1.26302 0
M  V30 17957 O 1778.35 -1.25732 -1.2057 0
M  V30 17958 C 1775.48 -2.53702 -2.27701 0
M  V30 17959 H 1776.68 -2.95401 -0.517543 0
M  V30 17960 H 1774.23 -1.54558 -0.232706 0
M  V30 17961 H 1774.96 -1.69882 -2.76244 0
M  V30 17962 H 1774.75 -3.33155 -2.06761 0
M  V30 17963 H 1776.24 -2.93201 -2.9736 0
M  V30 17964 N 1776.68 0.257904 -1.55475 0
M  V30 17965 C 1777.63 1.32176 -1.85778 0
M  V30 17966 C 1778.61 1.44002 -0.717789 0
M  V30 17967 O 1779.8 1.47429 -0.979476 0
M  V30 17968 C 1776.93 2.67928 -2.14638 0
M  V30 17969 C 1776.02 2.60151 -3.34936 0
M  V30 17970 N 1776.41 2.22 -4.54477 0
M  V30 17971 C 1774.71 2.91186 -3.37827 0
M  V30 17972 C 1775.41 2.24586 -5.36597 0
M  V30 17973 N 1774.38 2.63656 -4.7538 0
M  V30 17974 H 1778.19 1.01711 -2.75739 0
M  V30 17975 H 1775.7 0.466539 -1.55554 0
M  V30 17976 H 1777.7 3.4469 -2.34508 0
M  V30 17977 H 1776.36 2.99269 -1.25969 0
M  V30 17978 H 1777.37 1.93726 -4.80303 0
M  V30 17979 H 1774.04 3.27139 -2.59397 0
M  V30 17980 H 1775.43 1.97522 -6.42211 0
M  V30 17981 N 1778.15 1.48666 0.52309 0
M  V30 17982 C 1779.09 1.59796 1.64311 0
M  V30 17983 C 1780.1 0.481836 1.55506 0
M  V30 17984 O 1781.29 0.752977 1.61841 0
M  V30 17985 C 1778.39 1.5181 3.02997 0
M  V30 17986 C 1777.56 2.7858 3.37212 0
M  V30 17987 C 1776.62 2.63952 4.5521 0
M  V30 17988 O 1775.65 3.37851 4.58088 0
M  V30 17989 N 1776.85 1.74026 5.53801 0
M  V30 17990 H 1779.61 2.56386 1.55197 0
M  V30 17991 H 1777.17 1.45476 0.710511 0
M  V30 17992 H 1779.17 1.39709 3.7982 0
M  V30 17993 H 1777.74 0.631664 3.06152 0
M  V30 17994 H 1776.96 3.05194 2.495 0
M  V30 17995 H 1778.24 3.62668 3.56861 0
M  V30 17996 H 1777.64 1.13202 5.54258 0
M  V30 17997 H 1776.2 1.6786 6.29814 0
M  V30 17998 N 1779.63 -0.772489 1.37369 0
M  V30 17999 C 1780.58 -1.90713 1.33158 0
M  V30 18000 C 1781.57 -1.67959 0.220482 0
M  V30 18001 O 1782.78 -1.75758 0.388465 0
M  V30 18002 H 1779.16 -0.627149 0.414956 0
M  V30 18003 H 1781.13 -1.91382 2.28944 0
M  V30 18004 C 1779.88 -3.27966 1.1547 0
M  V30 18005 H 1779.2 -3.46052 2.00221 0
M  V30 18006 H 1780.64 -4.0766 1.16574 0
M  V30 18007 C 1779.1 -3.3661 -0.139688 0
M  V30 18008 O 1779.63 -3.85668 -1.12353 0
M  V30 18009 N 1777.83 -2.89977 -0.190134 0
M  V30 18010 H 1777.38 -2.50246 0.611134 0
M  V30 18011 H 1777.34 -2.96142 -1.05582 0
M  V30 18012 N 1781.11 -1.21927 -0.998575 0
M  V30 18013 C 1782.06 -0.984283 -2.08759 0
M  V30 18014 C 1783.03 0.0920029 -1.65845 0
M  V30 18015 O 1784.21 -0.0564334 -1.90717 0
M  V30 18016 C 1781.35 -0.562006 -3.40493 0
M  V30 18017 C 1780.47 -1.70844 -3.96783 0
M  V30 18018 C 1779.6 -1.2347 -5.16651 0
M  V30 18019 C 1778.64 -2.35305 -5.65065 0
M  V30 18020 N 1777.78 -1.89018 -6.76178 0
M  V30 18021 H 1782.62 -1.91653 -2.28195 0
M  V30 18022 H 1780.15 -0.955028 -1.11882 0
M  V30 18023 H 1782.11 -0.298383 -4.16132 0
M  V30 18024 H 1780.74 0.33324 -3.21075 0
M  V30 18025 H 1779.79 -2.08653 -3.18069 0
M  V30 18026 H 1781.11 -2.54987 -4.28699 0
M  V30 18027 H 1780.26 -0.928121 -5.99559 0
M  V30 18028 H 1779 -0.363397 -4.86344 0
M  V30 18029 H 1778 -2.66758 -4.8075 0
M  V30 18030 H 1779.23 -3.22941 -5.97399 0
M  V30 18031 H 1777.17 -1.04242 -6.47665 0
M  V30 18032 H 1777.09 -2.66731 -7.07383 0
M  V30 18033 H 1778.36 -1.61413 -7.62605 0
M  V30 18034 N 1782.59 1.19452 -1.02805 0
M  V30 18035 C 1783.84 1.89114 -0.724029 0
M  V30 18036 C 1784.16 1.79571 0.747307 0
M  V30 18037 O 1783.42 1.18191 1.55979 0
M  V30 18038 C 1783.72 3.3941 -1.11964 0
M  V30 18039 C 1783.38 3.69156 -2.58911 0
M  V30 18040 C 1782.05 3.76984 -2.99059 0
M  V30 18041 C 1784.4 3.82549 -3.53986 0
M  V30 18042 C 1781.73 3.95673 -4.33197 0
M  V30 18043 C 1784.08 4.02751 -4.87826 0
M  V30 18044 C 1782.74 4.08812 -5.27664 0
M  V30 18045 H 1782.01 0.692017 -0.264941 0
M  V30 18046 H 1784.66 1.41463 -1.29075 0
M  V30 18047 H 1782.96 3.88952 -0.471514 0
M  V30 18048 H 1784.66 3.91627 -0.861939 0
M  V30 18049 H 1781.25 3.6367 -2.26808 0
M  V30 18050 H 1785.43 3.75845 -3.24121 0
M  V30 18051 H 1780.69 3.98605 -4.63599 0
M  V30 18052 H 1784.86 4.12056 -5.61412 0
M  V30 18053 H 1782.49 4.23046 -6.31614 0
M  V30 18054 N 1784.07 0.805805 1.35442 0
M  V30 18055 C 1785.31 0.385046 1.98398 0
M  V30 18056 C 1785.64 -1.05114 1.64244 0
M  V30 18057 O 1784.91 -1.72711 0.924532 0
M  V30 18058 H 1783.49 0.139386 0.733881 0
M  V30 18059 H 1786.15 1.03147 1.65368 0
M  V30 18060 H 1785.24 0.490126 3.08227 0
M  V30 18061 N 1785.54 -1.47344 0.559239 0
M  V30 18062 C 1786.45 -2.33826 -0.190402 0
M  V30 18063 C 1787.47 -1.48317 -0.909846 0
M  V30 18064 O 1788.65 -1.8124 -0.878286 0
M  V30 18065 C 1785.71 -3.25052 -1.20591 0
M  V30 18066 C 1784.77 -4.26452 -0.493671 0
M  V30 18067 C 1784.01 -5.13319 -1.4608 0
M  V30 18068 O 1784.23 -5.02678 -2.69576 0
M  V30 18069 O 1783.16 -5.93799 -0.984178 0
M  V30 18070 H 1786.99 -2.99232 0.519046 0
M  V30 18071 H 1784.57 -1.45936 0.319836 0
M  V30 18072 H 1786.46 -3.81397 -1.79205 0
M  V30 18073 H 1785.13 -2.62272 -1.89724 0
M  V30 18074 H 1784.04 -3.73861 0.133714 0
M  V30 18075 H 1785.37 -4.91952 0.15625 0
M  V30 18076 N 1787.02 -0.295795 -1.54799 0
M  V30 18077 C 1788.3 0.367858 -1.9211 0
M  V30 18078 C 1788.68 1.72103 -1.22244 0
M  V30 18079 O 1788.03 2.25704 -0.356377 0
M  V30 18080 C 1788.24 0.487673 -3.45576 0
M  V30 18081 C 1789.59 0.760966 -4.17725 0
M  V30 18082 O 1790.61 0.571687 -3.51582 0
M  V30 18083 O 1789.47 1.12423 -5.34812 0
M  V30 18084 H 1786.56 0.204758 -0.801251 0
M  V30 18085 H 1789.11 -0.343471 -1.66188 0
M  V30 18086 H 1787.88 -0.463798 -3.88542 0
M  V30 18087 H 1787.5 1.24767 -3.77517 0
M  V30 18088 N 1788.5 1.57583 -0.0234236 0
M  V30 18089 C 1789.43 2.05369 0.994927 0
M  V30 18090 C 1790.41 0.948279 1.32085 0
M  V30 18091 O 1791.6 1.21818 1.43849 0
M  V30 18092 C 1788.72 2.47098 2.31647 0
M  V30 18093 C 1787.77 3.68603 2.14555 0
M  V30 18094 S 1788.6 5.15504 1.44968 0
M  V30 18095 C 1789.76 5.60523 2.78504 0
M  V30 18096 H 1789.99 2.91425 0.588129 0
M  V30 18097 H 1787.52 1.5325 0.188111 0
M  V30 18098 H 1789.48 2.71805 3.07624 0
M  V30 18099 H 1788.14 1.61398 2.69461 0
M  V30 18100 H 1787.34 3.95629 3.1224 0
M  V30 18101 H 1786.94 3.44018 1.46722 0
M  V30 18102 H 1789.23 5.64414 3.74757 0
M  V30 18103 H 1790.17 6.60146 2.5615 0
M  V30 18104 H 1790.58 4.88153 2.8349 0
M  V30 18105 N 1789.98 -0.249655 1.5561 0
M  V30 18106 C 1791.39 -0.818934 1.67781 0
M  V30 18107 C 1791.74 -1.86134 0.620374 0
M  V30 18108 O 1790.87 -2.15133 -0.233869 0
M  V30 18109 C 1791.46 -1.49219 3.0417 0
M  V30 18110 C 1790.02 -2.0092 3.18289 0
M  V30 18111 C 1789.17 -0.859333 2.63649 0
M  V30 18112 H 1792.12 -0.0255186 1.58679 0
M  V30 18113 H 1792.14 -2.36011 2.98461 0
M  V30 18114 H 1791.65 -0.733268 3.8111 0
M  V30 18115 H 1789.75 -2.79701 2.46167 0
M  V30 18116 H 1789.87 -2.20848 4.25163 0
M  V30 18117 H 1788.23 -1.2591 2.21402 0
M  V30 18118 H 1789.01 -0.113545 3.43112 0
M  V30 18119 N 1791.46 -1.48941 -0.515198 0
M  V30 18120 C 1792.41 -1.60958 -1.61482 0
M  V30 18121 C 1793.39 -0.46591 -1.54007 0
M  V30 18122 O 1794.58 -0.718134 -1.61777 0
M  V30 18123 C 1791.71 -1.66623 -3.00153 0
M  V30 18124 C 1790.8 -2.8652 -3.12677 0
M  V30 18125 N 1791.19 -4.10769 -2.95131 0
M  V30 18126 C 1789.49 -2.84161 -3.43756 0
M  V30 18127 C 1790.19 -4.9129 -3.11463 0
M  V30 18128 N 1789.16 -4.24384 -3.39704 0
M  V30 18129 H 1792.97 -2.54756 -1.46549 0
M  V30 18130 H 1790.48 -1.45517 -0.721007 0
M  V30 18131 H 1792.48 -1.73328 -3.79161 0
M  V30 18132 H 1791.14 -0.739523 -3.16166 0
M  V30 18133 H 1792.15 -4.40974 -2.71593 0
M  V30 18134 H 1788.83 -2.00809 -3.66035 0
M  V30 18135 H 1790.22 -5.99948 -3.0251 0
M  V30 18136 N 1792.94 0.765193 -1.37777 0
M  V30 18137 C 1794.35 1.34186 -1.29811 0
M  V30 18138 C 1794.7 1.96133 0.0513426 0
M  V30 18139 O 1793.82 1.94272 0.953273 0
M  V30 18140 C 1794.42 2.43975 -2.35078 0
M  V30 18141 C 1792.98 2.97393 -2.30726 0
M  V30 18142 C 1792.12 1.70667 -2.18559 0
M  V30 18143 H 1795.07 0.564948 -1.48304 0
M  V30 18144 H 1795.1 3.23622 -2.00123 0
M  V30 18145 H 1794.61 1.98859 -3.33282 0
M  V30 18146 H 1792.71 3.46867 -1.36067 0
M  V30 18147 H 1792.82 3.52561 -3.24403 0
M  V30 18148 H 1791.19 1.93846 -1.65215 0
M  V30 18149 H 1791.97 1.27645 -3.18687 0
M  V30 18150 N 1794.41 1.22455 0.992094 0
M  V30 18151 C 1795.36 0.962645 2.06681 0
M  V30 18152 C 1796.35 -0.0870288 1.60664 0
M  V30 18153 O 1797.54 0.123596 1.76568 0
M  V30 18154 C 1794.67 0.54316 3.38976 0
M  V30 18155 C 1793.75 1.62761 3.91625 0
M  V30 18156 N 1794.15 2.85548 4.17488 0
M  V30 18157 C 1792.44 1.49948 4.20038 0
M  V30 18158 C 1793.14 3.55677 4.60292 0
M  V30 18159 N 1792.12 2.83152 4.64032 0
M  V30 18160 H 1795.92 1.89534 2.24619 0
M  V30 18161 H 1793.44 1.1222 1.1739 0
M  V30 18162 H 1795.43 0.336841 4.15537 0
M  V30 18163 H 1794.09 -0.382629 3.22438 0
M  V30 18164 H 1795.1 3.21968 4.05657 0
M  V30 18165 H 1791.78 0.639937 4.12566 0
M  V30 18166 H 1793.17 4.60878 4.88918 0
M  V30 18167 O 1795.93 -1.12323 1.16042 0
M  V30 18168 H 1796.62 -1.72018 0.89048 0
M  V30 END ATOM
M  V30 BEGIN BOND
M  V30 END BOND
M  V30 END CTAB
M  END
$$$$
