drugbank_target|P20472 Parvalbumin alpha (DB01942)
 OpenBabel12092120533D

  0  0  0     0  0            999 V3000
M  V30 BEGIN CTAB
M  V30 COUNTS 1686 1697 0 0 0
M  V30 BEGIN ATOM
M  V30 1 H -0.908 1.98254 -0.117106 0
M  V30 2 N 0 1.576 0 0
M  V30 3 C 0.933 2.03868 1.02534 0
M  V30 4 C 1.911 0.928543 1.3348 0
M  V30 5 O 3.095 1.19667 1.45644 0
M  V30 6 C 0.222 2.43627 2.35294 0
M  V30 7 C -0.732 3.65373 2.2001 0
M  V30 8 S 0.101 5.13292 1.52614 0
M  V30 9 C 1.257 5.56322 2.86805 0
M  V30 10 H 1.49 2.90518 0.631377 0
M  V30 11 H -0.977 1.52953 0.210867 0
M  V30 12 H 0.981 2.67203 3.11629 0
M  V30 13 H -0.358 1.57376 2.7183 0
M  V30 14 H -1.165 3.90944 3.18086 0
M  V30 15 H -1.563 3.418 1.51819 0
M  V30 16 H 0.729 5.58782 3.83104 0
M  V30 17 H 1.672 6.56266 2.65933 0
M  V30 18 H 2.08 4.83886 2.90714 0
M  V30 19 N 1.4781 -0.272755 1.55222 0
M  V30 20 C 2.7031 -1.02683 1.80197 0
M  V30 21 C 3.1281 -1.79142 0.573551 0
M  V30 22 O 2.4861 -1.74917 -0.476849 0
M  V30 23 C 2.5341 -1.9609 3.02624 0
M  V30 24 O 1.6381 -3.04863 2.77727 0
M  V30 25 H 0.9791 -0.293557 0.595584 0
M  V30 26 H 3.5091 -0.30159 2.02365 0
M  V30 27 H 3.5191 -2.38039 3.31363 0
M  V30 28 H 2.1941 -1.39851 3.91682 0
M  V30 29 H 0.7711 -2.67228 2.60084 0
M  V30 30 N 2.9562 -1.48159 -0.537278 0
M  V30 31 C 3.8892 -1.567 -1.65893 0
M  V30 32 C 4.8672 -0.41787 -1.57139 0
M  V30 33 O 6.0512 -0.628461 -1.77715 0
M  V30 34 C 3.1782 -1.48818 -3.04255 0
M  V30 35 C 2.2242 -2.68482 -3.31391 0
M  V30 36 S 3.0572 -4.30516 -3.1846 0
M  V30 37 C 4.2132 -4.2522 -4.59281 0
M  V30 38 H 4.4462 -2.5159 -1.58397 0
M  V30 39 H 1.9792 -1.36602 -0.719672 0
M  V30 40 H 3.9372 -1.44958 -3.84054 0
M  V30 41 H 2.5982 -0.552777 -3.09198 0
M  V30 42 H 1.7912 -2.59085 -4.32309 0
M  V30 43 H 1.3932 -2.69567 -2.59248 0
M  V30 44 H 3.6852 -3.94703 -5.5065 0
M  V30 45 H 4.6282 -5.26292 -4.73732 0
M  V30 46 H 5.0362 -3.55791 -4.38261 0
M  V30 47 N 4.4343 0.785586 -1.36625 0
M  V30 48 C 5.6623 1.57448 -1.3423 0
M  V30 49 C 6.0773 1.88649 0.0755653 0
M  V30 50 O 5.4343 1.50414 1.03354 0
M  V30 51 C 5.4853 2.89316 -2.16745 0
M  V30 52 O 5.2063 2.59459 -3.53005 0
M  V30 53 C 6.7073 3.83606 -2.22174 0
M  V30 54 H 3.9273 0.488226 -0.4603 0
M  V30 55 H 6.4713 0.974733 -1.79775 0
M  V30 56 H 4.6263 3.4575 -1.74745 0
M  V30 57 H 5.0403 3.43804 -3.96105 0
M  V30 58 H 6.5143 4.73181 -2.8426 0
M  V30 59 H 6.9913 4.21734 -1.22627 0
M  V30 60 H 7.5973 3.33104 -2.64427 0
M  V30 61 N 5.9124 1.20967 1.01018 0
M  V30 62 C 7.1894 0.93264 1.71934 0
M  V30 63 C 7.5694 -0.55692 2.03621 0
M  V30 64 O 6.9174 -1.52035 1.7058 0
M  V30 65 C 7.1274 1.81233 2.98254 0
M  V30 66 C 8.4754 2.05804 3.71389 0
M  V30 67 O 9.4994 1.78539 3.08225 0
M  V30 68 O 8.3584 2.51888 4.84989 0
M  V30 69 H 5.4524 0.349272 0.749625 0
M  V30 70 H 7.9984 1.31871 1.06808 0
M  V30 71 H 6.7704 2.82067 2.71208 0
M  V30 72 H 6.3934 1.42674 3.7112 0
M  V30 73 N 7.3905 -1.2043 1.01659 0
M  V30 74 C 8.3205 -2.25466 0.607226 0
M  V30 75 C 9.3015 -1.65853 -0.377716 0
M  V30 76 O 10.4865 -1.92409 -0.263149 0
M  V30 77 C 7.6165 -3.47256 -0.0552949 0
M  V30 78 C 6.5705 -4.19462 0.850632 0
M  V30 79 C 5.8965 -5.34673 0.0538859 0
M  V30 80 C 7.1965 -4.75603 2.15868 0
M  V30 81 H 8.8905 -2.59962 1.48526 0
M  V30 82 H 6.4365 -1.2496 0.715605 0
M  V30 83 H 8.3895 -4.19917 -0.353233 0
M  V30 84 H 7.1135 -3.11924 -0.968045 0
M  V30 85 H 5.7725 -3.48667 1.13257 0
M  V30 86 H 5.4205 -4.95585 -0.860514 0
M  V30 87 H 5.1205 -5.83913 0.657192 0
M  V30 88 H 6.6445 -6.10138 -0.237598 0
M  V30 89 H 8.0585 -5.40083 1.92311 0
M  V30 90 H 6.4555 -5.3528 2.71284 0
M  V30 91 H 7.5255 -3.94346 2.82169 0
M  V30 92 N 8.8686 -0.792821 -1.36206 0
M  V30 93 C 9.7986 -0.207853 -2.32573 0
M  V30 94 C 10.7796 0.659055 -1.56813 0
M  V30 95 O 11.9646 0.592176 -1.84951 0
M  V30 96 C 9.0946 0.655449 -3.41059 0
M  V30 97 C 8.0486 -0.111842 -4.27854 0
M  V30 98 C 7.3746 0.872274 -5.27537 0
M  V30 99 C 8.6746 -1.30299 -5.05786 0
M  V30 100 H 10.3686 -1.01294 -2.81744 0
M  V30 101 H 7.9146 -0.48854 -1.3546 0
M  V30 102 H 9.8676 1.07464 -4.07467 0
M  V30 103 H 8.5916 1.49328 -2.90463 0
M  V30 104 H 7.2506 -0.512053 -3.63006 0
M  V30 105 H 6.8986 1.70523 -4.73214 0
M  V30 106 H 6.5986 0.363291 -5.86476 0
M  V30 107 H 8.1226 1.28996 -5.96818 0
M  V30 108 H 9.5366 -0.959379 -5.65216 0
M  V30 109 H 7.9336 -1.7455 -5.74154 0
M  V30 110 H 9.0036 -2.09663 -4.37229 0
M  V30 111 N 10.3467 1.47872 -0.545128 0
M  V30 112 C 11.2947 2.31533 0.222512 0
M  V30 113 C 12.2887 1.42177 0.920985 0
M  V30 114 O 13.4947 1.59005 0.843645 0
M  V30 115 H 9.8697 0.746519 0.0906278 0
M  V30 116 H 11.8407 2.94139 -0.50246 0
M  V30 117 C 10.5897 3.2457 1.24699 0
M  V30 118 H 9.9127 3.93283 0.718944 0
M  V30 119 H 11.3527 3.85963 1.75523 0
M  V30 120 C 9.8117 2.47237 2.28856 0
M  V30 121 O 10.3417 2.20808 3.35569 0
M  V30 122 N 8.5477 2.08461 2.02466 0
M  V30 123 H 8.0947 2.30155 1.157 0
M  V30 124 H 8.0527 1.57033 2.72375 0
M  V30 125 N 11.8248 0.280983 1.55075 0
M  V30 126 C 12.7878 -0.590896 2.21452 0
M  V30 127 C 13.7878 -1.07682 1.19421 0
M  V30 128 O 14.9778 -0.97605 1.44288 0
M  V30 129 C 12.1098 -1.81587 2.88511 0
M  V30 130 H 13.3028 -0.0112554 2.99898 0
M  V30 131 H 10.8558 0.0316438 1.56268 0
M  V30 132 H 11.5908 -2.43587 2.14093 0
M  V30 133 H 11.3758 -1.4753 3.63287 0
M  V30 134 H 12.8658 -2.43575 3.39206 0
M  V30 135 N 13.3029 -1.57598 0.00835791 0
M  V30 136 C 14.2129 -2.12385 -0.996487 0
M  V30 137 C 15.2289 -1.07108 -1.37127 0
M  V30 138 O 16.4049 -1.39055 -1.4569 0
M  V30 139 C 13.4699 -2.62314 -2.26699 0
M  V30 140 C 12.5309 -3.82225 -1.95456 0
M  V30 141 C 11.7639 -4.29763 -3.16449 0
M  V30 142 O 11.9869 -3.76584 -4.28416 0
M  V30 143 O 10.9209 -5.21832 -2.99958 0
M  V30 144 H 14.7469 -2.98479 -0.560725 0
M  V30 145 H 12.3319 -1.47903 -0.210987 0
M  V30 146 H 14.2139 -2.94589 -3.01322 0
M  V30 147 H 12.8889 -1.79313 -2.69497 0
M  V30 148 H 11.7959 -3.54909 -1.18282 0
M  V30 149 H 13.1289 -4.66324 -1.57489 0
M  V30 150 N 14.781 0.264519 -1.55364 0
M  V30 151 C 16.058 1.01677 -1.67096 0
M  V30 152 C 16.438 2.03996 -0.543015 0
M  V30 153 O 15.786 2.23907 0.45585 0
M  V30 154 C 15.996 1.66596 -3.0667 0
M  V30 155 C 17.344 2.17442 -3.64697 0
M  V30 156 O 18.368 1.76568 -3.09358 0
M  V30 157 O 17.227 2.92439 -4.61673 0
M  V30 158 H 14.321 0.472161 -0.678965 0
M  V30 159 H 16.867 0.259703 -1.67701 0
M  V30 160 H 15.639 0.924962 -3.80211 0
M  V30 161 H 15.262 2.48968 -3.10001 0
M  V30 162 N 16.2591 1.48442 0.529413 0
M  V30 163 C 17.5081 1.55742 1.28169 0
M  V30 164 C 17.8211 0.236511 1.94165 0
M  V30 165 O 19.0271 0.187761 2.7085 0
M  V30 166 C 17.4831 2.74667 2.32564 0
M  V30 167 C 17.0911 4.13402 1.72636 0
M  V30 168 C 18.8351 2.9128 3.08798 0
M  V30 169 C 16.7421 5.23587 2.74975 0
M  V30 170 H 15.6721 0.579796 0.48203 0
M  V30 171 H 18.3231 1.74776 0.559056 0
M  V30 172 H 16.7051 2.49067 3.07866 0
M  V30 173 H 17.8791 4.49022 1.03519 0
M  V30 174 H 16.1941 4.0191 1.08892 0
M  V30 175 H 18.7911 3.70767 3.85274 0
M  V30 176 H 19.1341 2.00757 3.64695 0
M  V30 177 H 19.6671 3.16782 2.40611 0
M  V30 178 H 16.4061 6.16076 2.23897 0
M  V30 179 H 15.9261 4.92454 3.42417 0
M  V30 180 H 17.6051 5.51724 3.37949 0
M  V30 181 N 17.7372 -0.778329 1.37039 0
M  V30 182 C 18.6842 -1.89139 1.32269 0
M  V30 183 C 19.6542 -1.65017 0.189387 0
M  V30 184 O 20.8392 -1.87024 0.377693 0
M  V30 185 C 17.9792 -3.26112 1.12894 0
M  V30 186 C 17.0922 -3.62233 2.35396 0
M  V30 187 C 16.2272 -4.8838 2.08946 0
M  V30 188 C 15.2662 -5.17212 3.2735 0
M  V30 189 N 14.4032 -6.34546 3.00492 0
M  V30 190 H 19.2432 -1.92552 2.27437 0
M  V30 191 H 16.7802 -0.941473 1.13025 0
M  V30 192 H 18.7382 -4.05116 0.996835 0
M  V30 193 H 17.3682 -3.22091 0.213758 0
M  V30 194 H 16.4202 -2.78265 2.5937 0
M  V30 195 H 17.7322 -3.79481 3.23721 0
M  V30 196 H 16.8862 -5.75274 1.92729 0
M  V30 197 H 15.6252 -4.73222 1.17949 0
M  V30 198 H 14.6302 -4.28796 3.44113 0
M  V30 199 H 15.8552 -5.34283 4.19188 0
M  V30 200 H 13.8012 -6.20759 2.12118 0
M  V30 201 H 13.7182 -6.52179 3.82358 0
M  V30 202 H 14.9862 -7.24394 2.87879 0
M  V30 203 N 19.2153 -1.21501 -1.00376 0
M  V30 204 C 20.1623 -0.975387 -2.09177 0
M  V30 205 C 21.1323 0.0990615 -1.65804 0
M  V30 206 O 22.3173 -0.0483147 -1.90739 0
M  V30 207 C 19.4573 -0.547507 -3.40729 0
M  V30 208 C 18.5703 -1.69153 -3.97506 0
M  V30 209 C 17.7053 -1.2127 -5.17172 0
M  V30 210 C 16.7443 -2.32897 -5.66061 0
M  V30 211 N 15.8813 -1.86138 -6.76976 0
M  V30 212 H 20.7213 -1.9068 -2.29009 0
M  V30 213 H 18.2583 -0.950257 -1.12288 0
M  V30 214 H 20.2163 -0.280667 -4.16255 0
M  V30 215 H 18.8463 0.346904 -3.20931 0
M  V30 216 H 17.8983 -2.07298 -3.18954 0
M  V30 217 H 19.2103 -2.5316 -4.29781 0
M  V30 218 H 18.3643 -0.902591 -5.99948 0
M  V30 219 H 17.1033 -0.342692 -4.86495 0
M  V30 220 H 16.1083 -2.64709 -4.81881 0
M  V30 221 H 17.3333 -3.20396 -5.98768 0
M  V30 222 H 15.2793 -1.01484 -6.48103 0
M  V30 223 H 15.1963 -2.63717 -7.08512 0
M  V30 224 H 16.4643 -1.58165 -7.63285 0
M  V30 225 N 20.6934 1.19889 -1.02296 0
M  V30 226 C 21.6564 2.21116 -0.603351 0
M  V30 227 C 22.6564 1.5738 0.329884 0
M  V30 228 O 23.8464 1.73802 0.117702 0
M  V30 229 C 20.9784 3.40696 0.117992 0
M  V30 230 H 22.1714 2.59754 -1.49893 0
M  V30 231 H 19.7244 1.33463 -0.813468 0
M  V30 232 H 20.4594 3.07569 1.0282 0
M  V30 233 H 20.2444 3.88188 -0.552511 0
M  V30 234 H 21.7344 4.15692 0.398696 0
M  V30 235 N 22.1715 0.800033 1.35784 0
M  V30 236 C 23.4175 0.377901 1.99248 0
M  V30 237 C 23.7505 -1.05052 1.63333 0
M  V30 238 O 23.0255 -1.72768 0.893385 0
M  V30 239 C 23.3085 0.553922 3.55814 0
M  V30 240 C 23.1615 2.0268 4.01548 0
M  V30 241 C 24.4805 -0.0244802 4.40093 0
M  V30 242 H 21.5995 0.138782 0.723815 0
M  V30 243 H 24.2415 1.00835 1.61035 0
M  V30 244 H 22.3915 0.0172398 3.88496 0
M  V30 245 H 24.0635 2.62536 3.79305 0
M  V30 246 H 22.3065 2.5256 3.52698 0
M  V30 247 H 22.9775 2.10087 5.10458 0
M  V30 248 H 25.4535 0.433775 4.13833 0
M  V30 249 H 24.3295 0.128637 5.48749 0
M  V30 250 H 24.5905 -1.11758 4.27741 0
M  V30 251 N 23.6496 -1.47581 0.552962 0
M  V30 252 C 24.8976 -2.02082 0.0272703 0
M  V30 253 C 25.2186 -1.4301 -1.32563 0
M  V30 254 O 24.4886 -0.603745 -1.86365 0
M  V30 255 H 23.0686 -0.746966 0.00709182 0
M  V30 256 H 25.7306 -1.81033 0.722008 0
M  V30 257 H 24.8266 -3.12034 -0.0639951 0
M  V30 258 N 25.1277 -0.289203 -1.54924 0
M  V30 259 C 26.0907 0.579144 -2.21762 0
M  V30 260 C 27.0907 1.07047 -1.1999 0
M  V30 261 O 28.2807 0.968384 -1.44803 0
M  V30 262 C 25.4127 1.80055 -2.8947 0
M  V30 263 H 26.6057 -0.00464908 -2.999 0
M  V30 264 H 24.1587 -0.0399306 -1.56249 0
M  V30 265 H 24.8937 2.42449 -2.15381 0
M  V30 266 H 24.6787 1.45602 -3.64064 0
M  V30 267 H 26.1687 2.41773 -3.40493 0
M  V30 268 N 26.6058 1.57591 -0.0167156 0
M  V30 269 C 27.8528 1.91283 0.664597 0
M  V30 270 C 28.1808 0.891949 1.72842 0
M  V30 271 O 27.4358 -0.100931 1.9544 0
M  V30 272 C 27.7348 3.3172 1.33029 0
M  V30 273 C 27.4008 4.4914 0.398047 0
M  V30 274 C 26.0628 4.80992 0.141421 0
M  V30 275 C 28.4148 5.20634 -0.242825 0
M  V30 276 C 25.7428 5.81703 -0.764092 0
M  V30 277 C 28.0948 6.22311 -1.13632 0
M  V30 278 C 26.7588 6.52611 -1.40196 0
M  V30 279 H 26.0288 0.699956 0.243193 0
M  V30 280 H 28.6758 1.9135 -0.0758267 0
M  V30 281 H 26.9808 3.27856 2.14517 0
M  V30 282 H 28.6778 3.55055 1.86379 0
M  V30 283 H 25.2678 4.24262 0.608238 0
M  V30 284 H 29.4518 4.96267 -0.0576019 0
M  V30 285 H 24.7078 6.03532 -0.977732 0
M  V30 286 H 28.8818 6.76834 -1.63917 0
M  V30 287 H 26.5088 7.30467 -2.10529 0
M  V30 288 N 28.0839 -0.256276 1.55502 0
M  V30 289 C 29.3089 -1.00766 1.81276 0
M  V30 290 C 29.7339 -1.78524 0.59252 0
M  V30 291 O 29.0919 -1.75413 -0.45827 0
M  V30 292 C 29.1399 -1.92869 3.04687 0
M  V30 293 O 28.2439 -3.019 2.80945 0
M  V30 294 H 27.5849 -0.287224 0.598664 0
M  V30 295 H 30.1149 -0.280109 2.02674 0
M  V30 296 H 30.1249 -2.34511 3.33869 0
M  V30 297 H 28.7999 -1.35689 3.93143 0
M  V30 298 H 27.3769 -2.64454 2.62904 0
M  V30 299 N 29.562 -1.4872 -0.521534 0
M  V30 300 C 30.525 -1.63379 -1.60748 0
M  V30 301 C 31.525 -0.50661 -1.52611 0
M  V30 302 O 32.715 -0.772601 -1.5613 0
M  V30 303 C 29.847 -1.61192 -3.00383 0
M  V30 304 H 31.04 -2.60217 -1.49087 0
M  V30 305 H 28.593 -1.37444 -0.744235 0
M  V30 306 H 29.328 -0.65863 -3.17541 0
M  V30 307 H 29.113 -2.43032 -3.07698 0
M  V30 308 H 30.603 -1.7466 -3.7932 0
M  V30 309 N 31.0401 0.771051 -1.3745 0
M  V30 310 C 32.2681 1.56015 -1.35893 0
M  V30 311 C 32.6831 1.88718 0.0555523 0
M  V30 312 O 32.0401 1.51502 1.01752 0
M  V30 313 C 32.0911 2.87001 -2.19801 0
M  V30 314 O 31.8121 2.557 -3.55738 0
M  V30 315 C 33.3131 3.81228 -2.26231 0
M  V30 316 H 30.5331 0.483317 -0.465453 0
M  V30 317 H 33.0771 0.955611 -1.80799 0
M  V30 318 H 31.2321 3.43877 -1.78402 0
M  V30 319 H 31.6461 3.39584 -3.99729 0
M  V30 320 H 33.1201 4.70139 -2.89263 0
M  V30 321 H 33.5971 4.20409 -1.27093 0
M  V30 322 H 34.2031 3.30281 -2.67945 0
M  V30 323 N 32.5182 1.22032 0.997298 0
M  V30 324 C 33.7952 0.950823 1.70935 0
M  V30 325 C 34.1752 -0.535292 2.042 0
M  V30 326 O 33.5232 -1.50217 1.72183 0
M  V30 327 C 33.7332 1.84386 2.96315 0
M  V30 328 C 35.0812 2.09732 3.69185 0
M  V30 329 O 36.1052 1.81798 3.06314 0
M  V30 330 O 34.9642 2.57018 4.82291 0
M  V30 331 H 32.0582 0.357204 0.745878 0
M  V30 332 H 34.6042 1.32997 1.05404 0
M  V30 333 H 33.3762 2.84928 2.68201 0
M  V30 334 H 32.9992 1.46602 3.69586 0
M  V30 335 N 33.9963 -1.19345 1.0293 0
M  V30 336 C 35.2213 -1.93538 0.745511 0
M  V30 337 C 35.6463 -1.75007 -0.689511 0
M  V30 338 O 35.0043 -1.05265 -1.47611 0
M  V30 339 C 35.0523 -3.43336 1.10239 0
M  V30 340 O 34.1563 -4.11806 0.221289 0
M  V30 341 H 33.4973 -0.604193 0.275404 0
M  V30 342 H 36.0273 -1.5141 1.37609 0
M  V30 343 H 36.0373 -3.94004 1.05947 0
M  V30 344 H 34.7123 -3.56146 2.14786 0
M  V30 345 H 33.2893 -3.715 0.322842 0
M  V30 346 N 35.4744 -0.807222 -1.35358 0
M  V30 347 C 36.7214 -0.387888 -1.9875 0
M  V30 348 C 37.0494 1.04509 -1.64037 0
M  V30 349 O 36.3044 1.73986 -0.895946 0
M  V30 350 C 36.6034 -0.519036 -3.53611 0
M  V30 351 C 36.2694 -1.91542 -4.08194 0
M  V30 352 C 34.9314 -2.29745 -4.22813 0
M  V30 353 C 37.2834 -2.82896 -4.37744 0
M  V30 354 C 34.6114 -3.58668 -4.643 0
M  V30 355 C 36.9634 -4.11265 -4.8067 0
M  V30 356 C 35.6274 -4.49466 -4.93494 0
M  V30 357 H 34.8974 -0.141938 -0.727279 0
M  V30 358 H 37.5444 -1.02814 -1.6156 0
M  V30 359 H 35.8494 0.204658 -3.91265 0
M  V30 360 H 37.5464 -0.175345 -4.00616 0
M  V30 361 H 34.1364 -1.60862 -3.97268 0
M  V30 362 H 38.3204 -2.54629 -4.26002 0
M  V30 363 H 33.5764 -3.88113 -4.72418 0
M  V30 364 H 37.7504 -4.82153 -5.02496 0
M  V30 365 H 35.3774 -5.49418 -5.25399 0
M  V30 366 N 36.9525 1.47285 -0.560781 0
M  V30 367 C 38.2295 1.9558 0.0277798 0
M  V30 368 C 38.6095 1.5034 1.48192 0
M  V30 369 O 37.9575 0.743882 2.16052 0
M  V30 370 C 38.1675 3.48789 -0.121418 0
M  V30 371 C 39.5155 4.24594 0.0220912 0
M  V30 372 O 40.5395 3.56166 -0.0491439 0
M  V30 373 O 39.3985 5.46217 0.175958 0
M  V30 374 H 36.4925 0.824663 0.0621342 0
M  V30 375 H 39.0385 1.5767 -0.627556 0
M  V30 376 H 37.8105 3.74533 -1.13316 0
M  V30 377 H 37.4335 3.93473 0.571366 0
M  V30 378 N 38.4306 0.297415 1.54768 0
M  V30 379 C 39.3806 -0.595275 2.20092 0
M  V30 380 C 40.3646 -1.10163 1.17273 0
M  V30 381 O 41.5566 -1.043 1.43006 0
M  V30 382 C 38.6856 -1.7684 2.94249 0
M  V30 383 C 37.7716 -1.27818 4.0438 0
M  V30 384 N 38.1626 -0.505695 5.03266 0
M  V30 385 C 36.4606 -1.55923 4.17857 0
M  V30 386 C 37.1616 -0.245094 5.81183 0
M  V30 387 N 36.1376 -0.823881 5.3732 0
M  V30 388 H 39.9396 0.00250837 2.939 0
M  V30 389 H 37.4536 0.102007 1.62079 0
M  V30 390 H 39.4506 -2.41944 3.39513 0
M  V30 391 H 38.1106 -2.36992 2.21957 0
M  V30 392 H 39.1216 -0.150928 5.1768 0
M  V30 393 H 35.7986 -2.16849 3.56767 0
M  V30 394 H 37.1886 0.375084 6.70852 0
M  V30 395 N 39.9087 -1.5758 0.0250728 0
M  V30 396 C 40.8557 -2.09973 -0.958129 0
M  V30 397 C 41.8257 -1.00085 -1.3256 0
M  V30 398 O 43.0107 -1.27481 -1.41962 0
M  V30 399 C 40.1507 -2.62812 -2.2366 0
M  V30 400 C 39.2637 -3.86693 -1.92594 0
M  V30 401 C 38.3987 -4.27941 -3.14707 0
M  V30 402 C 37.4377 -5.44591 -2.79442 0
M  V30 403 N 36.5747 -5.81014 -3.94167 0
M  V30 404 H 41.4147 -2.937 -0.504428 0
M  V30 405 H 38.9517 -1.45172 -0.237392 0
M  V30 406 H 40.9097 -2.91536 -2.98434 0
M  V30 407 H 39.5397 -1.81922 -2.66654 0
M  V30 408 H 38.5917 -3.64723 -1.0808 0
M  V30 409 H 39.9037 -4.71547 -1.62619 0
M  V30 410 H 39.0577 -4.58079 -3.97804 0
M  V30 411 H 37.7967 -3.41845 -3.4784 0
M  V30 412 H 36.8017 -5.1415 -1.94755 0
M  V30 413 H 38.0267 -6.32382 -2.47528 0
M  V30 414 H 35.9727 -4.97874 -4.2715 0
M  V30 415 H 35.8897 -6.60498 -3.67801 0
M  V30 416 H 37.1577 -6.15756 -4.7798 0
M  V30 417 N 41.3868 0.248026 -1.55636 0
M  V30 418 C 42.3338 1.30707 -1.90222 0
M  V30 419 C 43.3038 1.47881 -0.756332 0
M  V30 420 O 44.4888 1.61883 -1.00988 0
M  V30 421 C 41.6288 2.65769 -2.20138 0
M  V30 422 C 40.7418 2.56612 -3.47526 0
M  V30 423 C 39.8768 3.8402 -3.67017 0
M  V30 424 C 38.9158 3.69476 -4.8801 0
M  V30 425 N 38.0528 4.88774 -5.04029 0
M  V30 426 H 42.8928 1.00512 -2.80538 0
M  V30 427 H 40.4298 0.485055 -1.38873 0
M  V30 428 H 42.3878 3.44386 -2.35487 0
M  V30 429 H 41.0178 2.94115 -1.33027 0
M  V30 430 H 40.0698 1.69571 -3.40514 0
M  V30 431 H 41.3818 2.41774 -4.36287 0
M  V30 432 H 40.5358 4.7108 -3.8232 0
M  V30 433 H 39.2748 4.01754 -2.76487 0
M  V30 434 H 38.2798 2.80799 -4.72686 0
M  V30 435 H 39.5048 3.53238 -5.8 0
M  V30 436 H 37.4508 5.0687 -4.16435 0
M  V30 437 H 37.3678 4.76562 -5.86877 0
M  V30 438 H 38.6358 5.77335 -5.23741 0
M  V30 439 N 42.8649 1.48995 0.513639 0
M  V30 440 C 44.1119 1.57843 1.26854 0
M  V30 441 C 44.4399 0.259501 1.92761 0
M  V30 442 O 43.6949 -0.75159 1.80692 0
M  V30 443 C 43.9939 2.67756 2.36731 0
M  V30 444 C 43.6599 4.09669 1.88368 0
M  V30 445 C 42.3219 4.48291 1.74896 0
M  V30 446 C 44.6739 4.98537 1.52021 0
M  V30 447 C 42.0019 5.73568 1.23438 0
M  V30 448 C 44.3539 6.24319 1.0202 0
M  V30 449 C 43.0179 6.61783 0.871778 0
M  V30 450 H 42.2879 0.577587 0.464192 0
M  V30 451 H 44.9349 1.82778 0.571366 0
M  V30 452 H 43.2399 2.36743 3.12185 0
M  V30 453 H 44.9369 2.71813 2.9482 0
M  V30 454 H 41.5269 3.79176 1.99808 0
M  V30 455 H 45.7109 4.69363 1.61281 0
M  V30 456 H 40.9669 6.01304 1.10648 0
M  V30 457 H 45.1409 6.92566 0.729722 0
M  V30 458 H 42.7679 7.5874 0.470852 0
M  V30 459 N 44.343 -0.763751 1.37857 0
M  V30 460 C 45.59 -1.52257 1.33506 0
M  V30 461 C 45.918 -1.94343 -0.078022 0
M  V30 462 O 45.173 -1.64958 -1.05297 0
M  V30 463 C 45.472 -2.79499 2.22745 0
M  V30 464 C 45.138 -2.56426 3.70886 0
M  V30 465 C 43.8 -2.49842 4.11257 0
M  V30 466 C 46.152 -2.36008 4.64704 0
M  V30 467 C 43.48 -2.20841 5.43549 0
M  V30 468 C 45.832 -2.0853 5.97242 0
M  V30 469 C 44.496 -2.00396 6.36709 0
M  V30 470 H 43.766 -0.557149 0.488534 0
M  V30 471 H 46.413 -0.879073 1.70131 0
M  V30 472 H 44.718 -3.48447 1.79142 0
M  V30 473 H 46.415 -3.37413 2.16688 0
M  V30 474 H 43.005 -2.62416 3.38874 0
M  V30 475 H 47.189 -2.40079 4.34368 0
M  V30 476 H 42.445 -2.13045 5.73081 0
M  V30 477 H 46.619 -1.91732 6.69486 0
M  V30 478 H 44.246 -1.77688 7.39142 0
M  V30 479 N 45.8211 -1.22559 -0.990812 0
M  V30 480 C 46.7531 -0.955325 -2.08342 0
M  V30 481 C 47.7661 0.0668408 -1.62663 0
M  V30 482 O 48.9551 -0.167421 -1.77713 0
M  V30 483 C 46.0551 -0.415566 -3.36342 0
M  V30 484 C 45.2281 -1.49544 -4.11042 0
M  V30 485 C 44.2871 -0.962399 -5.17324 0
M  V30 486 O 43.3131 -1.64907 -5.44788 0
M  V30 487 N 44.5151 0.215134 -5.80101 0
M  V30 488 H 47.2801 -1.89596 -2.32106 0
M  V30 489 H 44.8411 -1.13276 -1.15673 0
M  V30 490 H 46.8331 -0.0442386 -4.04676 0
M  V30 491 H 45.4031 0.430232 -3.09625 0
M  V30 492 H 44.6231 -2.04 -3.37309 0
M  V30 493 H 45.9111 -2.22195 -4.57719 0
M  V30 494 H 45.3091 0.789779 -5.6016 0
M  V30 495 H 43.8661 0.527826 -6.49659 0
M  V30 496 N 47.2992 1.18797 -1.03562 0
M  V30 497 C 48.2322 2.2105 -0.56676 0
M  V30 498 C 49.2102 1.57704 0.395993 0
M  V30 499 O 50.3942 1.85908 0.311498 0
M  V30 500 C 47.5212 3.38259 0.172704 0
M  V30 501 C 46.5672 4.19987 -0.74252 0
M  V30 502 S 47.4002 4.87199 -2.22254 0
M  V30 503 C 48.5562 6.07813 -1.49379 0
M  V30 504 H 48.7892 2.60478 -1.43312 0
M  V30 505 H 46.3222 1.29151 -0.846133 0
M  V30 506 H 48.2802 4.06191 0.593191 0
M  V30 507 H 46.9412 2.97252 1.01488 0
M  V30 508 H 46.1342 5.03709 -0.171265 0
M  V30 509 H 45.7362 3.57408 -1.10163 0
M  V30 510 H 48.0282 6.72948 -0.784056 0
M  V30 511 H 48.9712 6.69435 -2.30786 0
M  V30 512 H 49.3792 5.55781 -0.988331 0
M  V30 513 N 48.7773 0.814389 1.34928 0
M  V30 514 C 50.0233 0.399013 1.98836 0
M  V30 515 C 50.3563 -1.03314 1.64438 0
M  V30 516 O 49.6313 -1.71811 0.911659 0
M  V30 517 C 49.9143 0.591629 3.55207 0
M  V30 518 C 49.7673 2.06928 3.99376 0
M  V30 519 C 51.0863 0.022199 4.40094 0
M  V30 520 H 48.2053 0.146451 0.722303 0
M  V30 521 H 50.8473 1.02537 1.59957 0
M  V30 522 H 48.9973 0.0584441 3.88456 0
M  V30 523 H 50.6693 2.66544 3.76499 0
M  V30 524 H 48.9123 2.56287 3.49999 0
M  V30 525 H 49.5833 2.1549 5.08201 0
M  V30 526 H 52.0593 0.477643 4.13349 0
M  V30 527 H 50.9353 0.186832 5.48582 0
M  V30 528 H 51.1963 -1.07215 4.28902 0
M  V30 529 N 50.2554 -1.46986 0.568584 0
M  V30 530 C 51.5034 -2.02041 0.0487022 0
M  V30 531 C 51.8244 -1.44408 -1.31039 0
M  V30 532 O 51.0944 -0.623477 -1.85714 0
M  V30 533 H 49.6744 -0.746849 0.015014 0
M  V30 534 H 52.3364 -1.80257 0.741168 0
M  V30 535 H 51.4324 -3.12085 -0.0308961 0
M  V30 536 N 51.7335 -0.305618 -1.54608 0
M  V30 537 C 52.6635 0.561482 -2.26649 0
M  V30 538 C 53.6445 1.13415 -1.26772 0
M  V30 539 O 54.8295 1.16262 -1.55553 0
M  V30 540 C 51.9595 1.73122 -3.01075 0
M  V30 541 C 50.9135 1.2887 -4.08138 0
M  V30 542 C 50.2395 2.54396 -4.70305 0
M  V30 543 C 51.5395 0.416578 -5.20636 0
M  V30 544 H 53.2335 -0.0393902 -2.99374 0
M  V30 545 H 50.7795 -0.020385 -1.43986 0
M  V30 546 H 52.7325 2.34396 -3.50195 0
M  V30 547 H 51.4565 2.3584 -2.25936 0
M  V30 548 H 50.1155 0.698991 -3.59875 0
M  V30 549 H 49.7635 3.15439 -3.918 0
M  V30 550 H 49.4635 2.25486 -5.42614 0
M  V30 551 H 50.9875 3.16464 -5.2219 0
M  V30 552 H 52.4015 0.935116 -5.65622 0
M  V30 553 H 50.7985 0.221046 -5.99693 0
M  V30 554 H 51.8685 -0.557162 -4.81688 0
M  V30 555 N 53.2116 1.57565 -0.0334293 0
M  V30 556 C 54.1586 2.10478 0.946981 0
M  V30 557 C 55.1286 1.00787 1.32027 0
M  V30 558 O 56.3136 1.28232 1.41284 0
M  V30 559 C 53.4536 2.63994 2.22263 0
M  V30 560 C 52.5666 3.87709 1.90541 0
M  V30 561 C 51.7016 4.29604 3.12433 0
M  V30 562 C 50.7406 5.46065 2.76549 0
M  V30 563 N 49.8776 5.83096 3.9108 0
M  V30 564 H 54.7176 2.93963 0.488846 0
M  V30 565 H 52.2546 1.45296 0.22969 0
M  V30 566 H 54.2126 2.93114 2.96884 0
M  V30 567 H 52.8426 1.83333 2.65685 0
M  V30 568 H 51.8946 3.65291 1.06144 0
M  V30 569 H 53.2066 4.72403 1.60116 0
M  V30 570 H 52.3606 4.60182 3.9537 0
M  V30 571 H 51.0996 3.43685 3.46023 0
M  V30 572 H 50.1046 5.15176 1.92026 0
M  V30 573 H 51.3296 6.33685 2.44171 0
M  V30 574 H 49.2756 5.00132 4.24504 0
M  V30 575 H 49.1926 6.6244 3.64293 0
M  V30 576 H 50.4606 6.18282 4.74708 0
M  V30 577 N 54.6897 -0.239769 1.55765 0
M  V30 578 C 55.6367 -1.29696 1.90913 0
M  V30 579 C 56.6067 -1.47478 0.764164 0
M  V30 580 O 57.7917 -1.61345 1.01845 0
M  V30 581 C 54.9317 -2.64598 2.21544 0
M  V30 582 C 54.0447 -2.54765 3.48882 0
M  V30 583 C 53.1797 -3.82069 3.69049 0
M  V30 584 C 52.2187 -3.66883 4.89963 0
M  V30 585 N 51.3557 -4.86094 5.06614 0
M  V30 586 H 56.1957 -0.990224 2.81067 0
M  V30 587 H 53.7327 -0.477684 1.39128 0
M  V30 588 H 55.6907 -3.43132 2.3731 0
M  V30 589 H 54.3207 -2.93405 1.34585 0
M  V30 590 H 53.3727 -1.67763 3.41409 0
M  V30 591 H 54.6847 -2.39457 4.37563 0
M  V30 592 H 53.8387 -4.69046 3.84812 0
M  V30 593 H 52.5777 -4.00282 2.78614 0
M  V30 594 H 51.5827 -2.78289 4.74168 0
M  V30 595 H 52.8077 -3.50157 5.81865 0
M  V30 596 H 50.7537 -5.04655 4.19117 0
M  V30 597 H 50.6707 -4.73443 5.89396 0
M  V30 598 H 51.9387 -5.74549 5.26795 0
M  V30 599 N 56.1678 -1.49265 -0.50573 0
M  V30 600 C 57.1148 -1.65585 -1.6078 0
M  V30 601 C 58.0848 -0.497396 -1.58478 0
M  V30 602 O 59.2698 -0.72385 -1.76536 0
M  V30 603 C 56.4098 -1.72408 -2.98948 0
M  V30 604 C 55.5228 -2.99525 -3.11301 0
M  V30 605 C 54.6578 -2.97356 -4.40174 0
M  V30 606 C 53.6968 -4.19074 -4.46143 0
M  V30 607 N 52.8338 -4.14841 -5.66437 0
M  V30 608 H 57.6738 -2.59688 -1.46172 0
M  V30 609 H 55.2108 -1.28761 -0.711261 0
M  V30 610 H 57.1688 -1.74344 -3.79025 0
M  V30 611 H 55.7988 -0.817753 -3.1227 0
M  V30 612 H 54.8508 -3.07222 -2.24318 0
M  V30 613 H 56.1628 -3.89518 -3.11572 0
M  V30 614 H 55.3168 -2.97829 -5.28567 0
M  V30 615 H 54.0558 -2.05133 -4.42461 0
M  V30 616 H 53.0608 -4.1885 -3.56153 0
M  V30 617 H 54.2858 -5.12483 -4.45575 0
M  V30 618 H 52.2318 -3.25453 -5.69575 0
M  V30 619 H 52.1488 -4.98564 -5.68304 0
M  V30 620 H 53.4168 -4.1941 -6.57051 0
M  V30 621 N 57.6459 0.756429 -1.3826 0
M  V30 622 C 58.8709 1.55077 -1.37717 0
M  V30 623 C 59.2959 1.88073 0.03164 0
M  V30 624 O 58.6539 1.50364 1.01293 0
M  V30 625 C 58.7019 2.8283 -2.23695 0
M  V30 626 O 57.8059 3.77862 -1.6521 0
M  V30 627 H 57.1469 0.469152 -0.469885 0
M  V30 628 H 59.6769 0.935019 -1.81985 0
M  V30 629 H 59.6869 3.31783 -2.37453 0
M  V30 630 H 58.3619 2.58144 -3.2609 0
M  V30 631 H 56.9389 3.36555 -1.60578 0
M  V30 632 N 59.124 1.23083 0.984299 0
M  V30 633 C 60.087 1.00979 2.05757 0
M  V30 634 C 61.087 -0.0269573 1.60777 0
M  V30 635 O 62.277 0.212403 1.729 0
M  V30 636 C 59.409 0.527072 3.36801 0
M  V30 637 H 60.602 1.9622 2.26799 0
M  V30 638 H 58.155 1.05072 1.15714 0
M  V30 639 H 58.89 -0.429294 3.21446 0
M  V30 640 H 58.675 1.27515 3.70786 0
M  V30 641 H 60.165 0.392942 4.15747 0
M  V30 642 N 60.6021 -1.18246 1.0419 0
M  V30 643 C 61.8791 -1.84121 0.660208 0
M  V30 644 C 62.2591 -1.92778 -0.860221 0
M  V30 645 O 61.6071 -1.45464 -1.76217 0
M  V30 646 C 61.8171 -3.22355 1.33747 0
M  V30 647 C 63.1651 -3.98376 1.46906 0
M  V30 648 O 64.1891 -3.31799 1.29568 0
M  V30 649 O 63.0481 -5.17665 1.75171 0
M  V30 650 H 60.1421 -0.794036 0.231161 0
M  V30 651 H 62.6881 -1.25628 1.14087 0
M  V30 652 H 61.4601 -3.10964 2.37522 0
M  V30 653 H 61.0831 -3.88506 0.845515 0
M  V30 654 N 62.0802 -0.821533 -1.34494 0
M  V30 655 C 63.3572 -0.33159 -1.92769 0
M  V30 656 C 63.7372 1.18088 -1.74981 0
M  V30 657 O 63.0852 1.98733 -1.12772 0
M  V30 658 C 63.2952 -0.759398 -3.40638 0
M  V30 659 C 64.6432 -0.757433 -4.1779 0
M  V30 660 O 65.6672 -0.70189 -3.49216 0
M  V30 661 O 64.5262 -0.829361 -5.4017 0
M  V30 662 H 61.6202 -0.0902502 -0.822061 0
M  V30 663 H 64.1662 -0.906231 -1.43477 0
M  V30 664 H 62.9382 -1.8012 -3.47379 0
M  V30 665 H 62.5612 -0.160378 -3.97276 0
M  V30 666 N 63.5583 1.46682 -0.576371 0
M  V30 667 C 64.8043 2.02712 -0.0596221 0
M  V30 668 C 65.1373 1.44765 1.29448 0
M  V30 669 O 64.4123 0.610355 1.84675 0
M  V30 670 C 64.6953 3.60098 0.0129503 0
M  V30 671 C 64.5483 4.28441 -1.3696 0
M  V30 672 C 65.8673 4.34224 0.71678 0
M  V30 673 H 62.9863 0.736637 -0.0231407 0
M  V30 674 H 65.6283 1.74898 -0.742351 0
M  V30 675 H 63.7783 3.83926 0.594378 0
M  V30 676 H 65.4503 4.15896 -1.9957 0
M  V30 677 H 63.6933 3.8805 -1.93907 0
M  V30 678 H 64.3643 5.3716 -1.27135 0
M  V30 679 H 66.8403 4.15503 0.222908 0
M  V30 680 H 65.7163 5.43936 0.73657 0
M  V30 681 H 65.9773 4.04823 1.77682 0
M  V30 682 N 65.0364 0.313813 1.54444 0
M  V30 683 C 65.9834 -0.55655 2.23989 0
M  V30 684 C 66.9534 -1.11943 1.22711 0
M  V30 685 O 68.1384 -1.16158 1.51367 0
M  V30 686 C 65.2784 -1.71635 2.99392 0
M  V30 687 C 64.3914 -1.18364 4.15468 0
M  V30 688 C 63.5264 -2.30834 4.78424 0
M  V30 689 C 62.5654 -1.74762 5.86622 0
M  V30 690 N 61.7024 -2.80855 6.43479 0
M  V30 691 H 66.5424 0.0430893 2.97969 0
M  V30 692 H 64.0794 0.0330359 1.47063 0
M  V30 693 H 66.0374 -2.39868 3.41349 0
M  V30 694 H 64.6674 -2.28742 2.27765 0
M  V30 695 H 63.7194 -0.393163 3.78363 0
M  V30 696 H 65.0314 -0.733262 4.93381 0
M  V30 697 H 64.1854 -3.0699 5.23299 0
M  V30 698 H 62.9244 -2.79204 3.99871 0
M  V30 699 H 61.9294 -0.970995 5.41158 0
M  V30 700 H 63.1544 -1.2728 6.67066 0
M  V30 701 H 61.1004 -3.28535 5.67804 0
M  V30 702 H 61.0174 -2.40351 7.16776 0
M  V30 703 H 62.2854 -3.5687 6.93011 0
M  V30 704 N 66.5145 -1.57545 0.0417849 0
M  V30 705 C 67.4615 -2.10977 -0.935805 0
M  V30 706 C 68.4315 -1.01486 -1.31491 0
M  V30 707 O 69.6165 -1.2898 -1.40602 0
M  V30 708 C 66.7565 -2.65169 -2.2086 0
M  V30 709 C 65.8695 -3.88714 -1.88482 0
M  V30 710 C 65.0045 -4.31254 -3.1015 0
M  V30 711 C 64.0435 -5.47524 -2.7365 0
M  V30 712 N 63.1805 -5.85162 -3.87982 0
M  V30 713 H 68.0205 -2.94218 -0.473249 0
M  V30 714 H 65.5575 -1.45415 -0.221981 0
M  V30 715 H 67.5155 -2.94685 -2.95325 0
M  V30 716 H 66.1455 -1.8474 -2.64709 0
M  V30 717 H 65.1975 -3.65849 -1.04205 0
M  V30 718 H 66.5095 -4.73245 -1.57608 0
M  V30 719 H 65.6635 -4.62273 -3.92923 0
M  V30 720 H 64.4025 -3.45516 -3.44195 0
M  V30 721 H 63.4075 -5.16187 -1.89291 0
M  V30 722 H 64.6325 -6.34971 -2.40807 0
M  V30 723 H 62.5785 -5.02377 -4.21846 0
M  V30 724 H 62.4955 -6.64362 -3.60775 0
M  V30 725 H 63.7635 -6.20791 -4.71422 0
M  V30 726 N 67.9926 0.231505 -1.5589 0
M  V30 727 C 69.2386 0.95877 -1.78705 0
M  V30 728 C 69.5716 1.8438 -0.609725 0
M  V30 729 O 68.8466 1.90521 0.391426 0
M  V30 730 C 69.1296 1.8062 -3.11526 0
M  V30 731 C 68.9826 0.948328 -4.39689 0
M  V30 732 C 70.3016 2.78585 -3.40703 0
M  V30 733 H 67.4206 0.347129 -0.650131 0
M  V30 734 H 70.0626 0.228259 -1.88624 0
M  V30 735 H 68.2126 2.42902 -3.03201 0
M  V30 736 H 69.8846 0.343016 -4.60023 0
M  V30 737 H 68.1276 0.253314 -4.3306 0
M  V30 738 H 68.7986 1.57543 -5.29041 0
M  V30 739 H 71.2746 2.26439 -3.49091 0
M  V30 740 H 70.1506 3.34988 -4.34826 0
M  V30 741 H 70.4116 3.55825 -2.62375 0
M  V30 742 N 69.4707 1.49531 0.497807 0
M  V30 743 C 70.7177 1.59179 1.25173 0
M  V30 744 C 71.0457 0.279932 1.92475 0
M  V30 745 O 70.3007 -0.732383 1.81479 0
M  V30 746 C 70.5997 2.70252 2.33878 0
M  V30 747 C 70.2657 4.11644 1.84012 0
M  V30 748 C 68.9277 4.50121 1.70132 0
M  V30 749 C 71.2797 5.00121 1.46725 0
M  V30 750 C 68.6077 5.74845 1.17348 0
M  V30 751 C 70.9597 6.25366 0.95392 0
M  V30 752 C 69.6237 6.6267 0.801538 0
M  V30 753 H 68.8937 0.582478 0.45804 0
M  V30 754 H 71.5407 1.83373 0.551948 0
M  V30 755 H 69.8457 2.40041 3.09657 0
M  V30 756 H 71.5427 2.74925 2.9192 0
M  V30 757 H 68.1327 3.81274 1.95775 0
M  V30 758 H 72.3167 4.71048 1.56294 0
M  V30 759 H 67.5727 6.02444 1.04264 0
M  V30 760 H 71.7467 6.93301 0.656225 0
M  V30 761 H 69.3737 7.59197 0.390351 0
M  V30 762 N 70.9488 -0.749086 1.3866 0
M  V30 763 C 71.8988 -1.85368 1.32751 0
M  V30 764 C 72.8828 -1.59511 0.210945 0
M  V30 765 O 74.0748 -1.71255 0.447299 0
M  V30 766 C 71.2038 -3.23131 1.15935 0
M  V30 767 C 70.2898 -3.54864 2.32233 0
M  V30 768 N 70.6808 -3.57625 3.57684 0
M  V30 769 C 68.9788 -3.85154 2.24883 0
M  V30 770 C 69.6798 -3.86753 4.34508 0
M  V30 771 N 68.6558 -4.03812 3.63918 0
M  V30 772 H 72.4578 -1.85787 2.27729 0
M  V30 773 H 69.9718 -0.946658 1.31955 0
M  V30 774 H 71.9688 -4.02185 1.09786 0
M  V30 775 H 70.6288 -3.23961 0.218947 0
M  V30 776 H 71.6398 -3.39276 3.91295 0
M  V30 777 H 68.3168 -3.93672 1.39027 0
M  V30 778 H 69.7068 -3.95474 5.43185 0
M  V30 779 N 72.4269 -1.23603 -0.977757 0
M  V30 780 C 73.3599 -0.962772 -2.06896 0
M  V30 781 C 74.3379 0.0998743 -1.62293 0
M  V30 782 O 75.5219 -0.0349421 -1.88468 0
M  V30 783 C 72.6489 -0.45095 -3.35685 0
M  V30 784 C 71.6949 -1.50061 -3.99229 0
M  V30 785 S 72.5279 -3.07884 -4.38142 0
M  V30 786 C 73.6839 -2.58378 -5.7008 0
M  V30 787 H 73.9169 -1.88677 -2.29757 0
M  V30 788 H 71.4499 -1.06876 -1.11431 0
M  V30 789 H 73.4079 -0.162261 -4.10179 0
M  V30 790 H 72.0689 0.452179 -3.10828 0
M  V30 791 H 71.2619 -1.09269 -4.92013 0
M  V30 792 H 70.8639 -1.73878 -3.31123 0
M  V30 793 H 73.1559 -2.00563 -6.47133 0
M  V30 794 H 74.0989 -3.49711 -6.15717 0
M  V30 795 H 74.5069 -1.99143 -5.28207 0
M  V30 796 N 73.905 1.17692 -1.04816 0
M  V30 797 C 74.835 2.23777 -0.666791 0
M  V30 798 C 75.816 1.66796 0.33361 0
M  V30 799 O 77.001 1.93039 0.212042 0
M  V30 800 C 74.131 3.47281 -0.0367933 0
M  V30 801 C 73.085 4.17059 -0.961546 0
M  V30 802 C 72.411 5.34342 -0.195626 0
M  V30 803 C 73.711 4.69713 -2.28402 0
M  V30 804 H 75.405 2.55933 -1.55367 0
M  V30 805 H 72.951 1.23019 -0.748484 0
M  V30 806 H 74.904 4.20706 0.241775 0
M  V30 807 H 73.628 3.14381 0.885004 0
M  V30 808 H 72.287 3.45541 -1.22462 0
M  V30 809 H 71.935 4.97692 0.728816 0
M  V30 810 H 71.635 5.81966 -0.811775 0
M  V30 811 H 73.159 6.10553 0.0757473 0
M  V30 812 H 74.573 5.34794 -2.06563 0
M  V30 813 H 72.97 5.279 -2.8538 0
M  V30 814 H 74.04 3.86726 -2.92525 0
M  V30 815 N 75.3831 0.828654 1.34056 0
M  V30 816 C 76.6601 0.341809 1.9259 0
M  V30 817 C 77.0401 -1.17158 1.75605 0
M  V30 818 O 76.3881 -1.98132 1.13824 0
M  V30 819 C 76.5981 0.777453 3.4023 0
M  V30 820 C 77.9461 0.779579 4.17382 0
M  V30 821 O 78.9701 0.7204 3.48839 0
M  V30 822 O 77.8291 0.857996 5.39723 0
M  V30 823 H 74.9231 0.0946085 0.821571 0
M  V30 824 H 77.4691 0.913827 1.42994 0
M  V30 825 H 76.2411 1.8196 3.46419 0
M  V30 826 H 75.8641 0.181444 3.97186 0
M  V30 827 N 76.8612 -1.46375 0.584142 0
M  V30 828 C 77.8082 -2.30323 -0.148286 0
M  V30 829 C 78.7782 -1.40703 -0.882713 0
M  V30 830 O 79.9632 -1.69651 -0.873099 0
M  V30 831 C 77.1032 -3.25196 -1.15507 0
M  V30 832 C 76.2162 -4.29915 -0.423943 0
M  V30 833 C 75.3512 -5.11914 -1.41838 0
M  V30 834 C 74.3902 -6.08381 -0.673736 0
M  V30 835 N 73.5272 -6.83242 -1.6163 0
M  V30 836 H 78.3672 -2.92427 0.573644 0
M  V30 837 H 75.9042 -1.44118 0.294703 0
M  V30 838 H 77.8622 -3.78646 -1.75166 0
M  V30 839 H 76.4922 -2.64898 -1.8447 0
M  V30 840 H 75.5442 -3.7931 0.287714 0
M  V30 841 H 76.8562 -4.98549 0.158128 0
M  V30 842 H 76.0102 -5.69648 -2.08773 0
M  V30 843 H 74.7492 -4.43243 -2.03438 0
M  V30 844 H 73.7542 -5.49799 0.00938483 0
M  V30 845 H 74.9792 -6.79071 -0.0631082 0
M  V30 846 H 72.9252 -6.1728 -2.22038 0
M  V30 847 H 72.8422 -7.48144 -1.08707 0
M  V30 848 H 74.1102 -7.45534 -2.27596 0
M  V30 849 N 78.3393 -0.321999 -1.54275 0
M  V30 850 C 79.6163 0.335232 -1.92706 0
M  V30 851 C 79.9963 1.70006 -1.25145 0
M  V30 852 O 79.3443 2.25067 -0.394596 0
M  V30 853 C 79.5543 0.429008 -3.46353 0
M  V30 854 C 80.9023 0.690029 -4.18956 0
M  V30 855 O 81.9263 0.511992 -3.52501 0
M  V30 856 O 80.7853 1.03338 -5.36641 0
M  V30 857 H 77.8793 0.191143 -0.804608 0
M  V30 858 H 80.4253 -0.3716 -1.65581 0
M  V30 859 H 79.1973 -0.529611 -3.87699 0
M  V30 860 H 78.8203 1.18348 -3.79578 0
M  V30 861 N 79.8174 1.5752 -0.0501392 0
M  V30 862 C 80.7644 2.1147 0.924603 0
M  V30 863 C 81.7344 1.02182 1.30951 0
M  V30 864 O 82.9194 1.29723 1.39916 0
M  V30 865 C 80.0594 2.66337 2.19451 0
M  V30 866 C 79.1724 3.89708 1.86418 0
M  V30 867 C 78.3074 4.32893 3.07859 0
M  V30 868 C 77.3464 5.48967 2.70742 0
M  V30 869 N 76.4834 5.87211 3.84874 0
M  V30 870 H 81.3234 2.94465 0.457639 0
M  V30 871 H 78.8604 1.45531 0.214266 0
M  V30 872 H 80.8184 2.96247 2.93758 0
M  V30 873 H 79.4484 1.86141 2.63726 0
M  V30 874 H 78.5004 3.66396 1.02264 0
M  V30 875 H 79.8124 4.74074 1.55096 0
M  V30 876 H 78.9664 4.6435 3.90466 0
M  V30 877 H 77.7054 3.47336 3.42358 0
M  V30 878 H 76.7104 5.17183 1.86551 0
M  V30 879 H 77.9354 6.3624 2.37436 0
M  V30 880 H 75.8814 5.04607 4.19175 0
M  V30 881 H 75.7984 6.66266 3.57247 0
M  V30 882 H 77.0664 6.23282 4.68123 0
M  V30 883 N 81.2955 -0.223234 1.56011 0
M  V30 884 C 82.5205 -0.968978 1.83373 0
M  V30 885 C 82.9455 -1.77227 0.630254 0
M  V30 886 O 82.3035 -1.76345 -0.420959 0
M  V30 887 C 82.3515 -1.86363 3.08709 0
M  V30 888 O 81.4555 -2.95873 2.87285 0
M  V30 889 H 80.7965 -0.274461 0.604622 0
M  V30 890 H 83.3265 -0.237056 2.03222 0
M  V30 891 H 83.3365 -2.27376 3.38768 0
M  V30 892 H 82.0115 -1.27319 3.95933 0
M  V30 893 H 80.5885 -2.58818 2.68454 0
M  V30 894 N 82.7736 -1.49793 -0.48987 0
M  V30 895 C 84.0216 -1.59525 -1.24081 0
M  V30 896 C 84.3426 -0.288953 -1.92847 0
M  V30 897 O 83.6126 0.692436 -1.83254 0
M  V30 898 H 82.1926 -0.587796 -0.460983 0
M  V30 899 H 84.8546 -1.86477 -0.566778 0
M  V30 900 H 83.9506 -2.39696 -1.99881 0
M  V30 901 N 84.2517 0.741722 -1.39055 0
M  V30 902 C 85.4987 1.50114 -1.35912 0
M  V30 903 C 85.8267 1.94443 0.0470937 0
M  V30 904 O 85.0817 1.66612 1.02659 0
M  V30 905 C 85.3807 2.7592 -2.27163 0
M  V30 906 C 85.0467 2.50493 -3.74919 0
M  V30 907 C 83.7087 2.43267 -4.1518 0
M  V30 908 C 86.0607 2.28585 -4.684 0
M  V30 909 C 83.3887 2.12166 -5.46994 0
M  V30 910 C 85.7407 1.99002 -6.00484 0
M  V30 911 C 84.4047 1.90241 -6.39816 0
M  V30 912 H 83.6747 0.549306 -0.497336 0
M  V30 913 H 86.3217 0.851896 -1.71508 0
M  V30 914 H 84.6267 3.45553 -1.84663 0
M  V30 915 H 86.3237 3.33923 -2.22028 0
M  V30 916 H 82.9137 2.56992 -3.43006 0
M  V30 917 H 87.0977 2.33139 -4.38132 0
M  V30 918 H 82.3537 2.03901 -5.76398 0
M  V30 919 H 86.5277 1.81057 -6.72452 0
M  V30 920 H 84.1547 1.65907 -7.41875 0
M  V30 921 N 85.7298 1.2412 0.971189 0
M  V30 922 C 86.9788 1.07284 1.70801 0
M  V30 923 C 87.2918 -0.388902 1.91695 0
M  V30 924 O 88.4978 -0.677379 2.62914 0
M  V30 925 C 86.9538 1.87145 3.07416 0
M  V30 926 C 86.5618 3.37707 2.94377 0
M  V30 927 C 88.3058 1.78828 3.84995 0
M  V30 928 C 86.2128 4.09925 4.26281 0
M  V30 929 H 85.1428 0.397854 0.64049 0
M  V30 930 H 87.7938 1.4817 1.0825 0
M  V30 931 H 86.1758 1.39071 3.70777 0
M  V30 932 H 87.3498 3.93335 2.4005 0
M  V30 933 H 85.6648 3.46938 2.30267 0
M  V30 934 H 88.2618 2.30089 4.82662 0
M  V30 935 H 88.6048 0.75284 4.09436 0
M  V30 936 H 89.1378 2.24563 3.28354 0
M  V30 937 H 85.8768 5.13813 4.07033 0
M  V30 938 H 85.3968 3.59083 4.80437 0
M  V30 939 H 87.0758 4.1673 4.94919 0
M  V30 940 N 87.2079 -1.17134 1.05439 0
M  V30 941 C 88.1179 -2.24878 0.668365 0
M  V30 942 C 89.1339 -1.71186 -0.311687 0
M  V30 943 O 90.3099 -2.00738 -0.163161 0
M  V30 944 C 87.3749 -3.46662 0.051648 0
M  V30 945 C 86.4359 -4.15429 1.08246 0
M  V30 946 C 85.6689 -5.31399 0.495082 0
M  V30 947 O 85.8919 -5.66153 -0.694743 0
M  V30 948 O 84.8259 -5.89187 1.23056 0
M  V30 949 H 88.6519 -2.60189 1.56637 0
M  V30 950 H 86.2369 -1.24482 0.826104 0
M  V30 951 H 88.1189 -4.20394 -0.290966 0
M  V30 952 H 86.7939 -3.13142 -0.819971 0
M  V30 953 H 85.7009 -3.43704 1.47711 0
M  V30 954 H 87.0339 -4.52982 1.92532 0
M  V30 955 N 88.686 -0.835752 -1.33615 0
M  V30 956 C 89.596 -0.269088 -2.33052 0
M  V30 957 C 90.612 0.603251 -1.63208 0
M  V30 958 O 91.788 0.508112 -1.94885 0
M  V30 959 C 88.853 0.549091 -3.42324 0
M  V30 960 C 87.914 -0.347156 -4.27894 0
M  V30 961 C 87.147 0.43207 -5.31948 0
M  V30 962 O 87.37 1.66409 -5.45586 0
M  V30 963 O 86.304 -0.192298 -6.01593 0
M  V30 964 H 90.13 -1.09243 -2.83372 0
M  V30 965 H 87.715 -0.598198 -1.36901 0
M  V30 966 H 89.597 1.01414 -4.09015 0
M  V30 967 H 88.272 1.34955 -2.94226 0
M  V30 968 H 87.179 -0.859979 -3.64081 0
M  V30 969 H 88.512 -1.1123 -4.79467 0
M  V30 970 N 90.1641 1.46063 -0.591896 0
M  V30 971 C 91.4411 1.95595 -0.0137119 0
M  V30 972 C 91.8211 1.5345 1.4497 0
M  V30 973 O 91.1691 0.789543 2.14426 0
M  V30 974 C 91.3791 3.48453 -0.195373 0
M  V30 975 C 92.7271 4.24546 -0.0679765 0
M  V30 976 O 93.7511 3.55982 -0.124681 0
M  V30 977 O 92.6101 5.46467 0.0600579 0
M  V30 978 H 89.7041 0.825795 0.0446279 0
M  V30 979 H 92.2501 1.56303 -0.660859 0
M  V30 980 H 91.0221 3.72045 -1.21235 0
M  V30 981 H 90.6451 3.94597 0.487775 0
M  V30 982 N 91.6422 0.330177 1.54103 0
M  V30 983 C 92.5522 -0.541534 2.28264 0
M  V30 984 C 93.5682 -1.12351 1.32866 0
M  V30 985 O 94.7442 -1.14206 1.65888 0
M  V30 986 C 91.8092 -1.68322 3.03098 0
M  V30 987 C 90.8702 -1.13238 4.14096 0
M  V30 988 C 90.1032 -2.21966 4.85352 0
M  V30 989 O 90.3262 -3.42437 4.56172 0
M  V30 990 O 89.2602 -1.87013 5.7211 0
M  V30 991 H 93.0862 0.060938 3.03639 0
M  V30 992 H 90.6712 0.09565 1.49093 0
M  V30 993 H 92.5532 -2.34777 3.49939 0
M  V30 994 H 91.2282 -2.27176 2.30593 0
M  V30 995 H 90.1352 -0.432736 3.71589 0
M  V30 996 H 91.4682 -0.588898 4.88664 0
M  V30 997 N 93.1203 -1.57491 0.0584922 0
M  V30 998 C 94.0503 -2.14988 -0.911178 0
M  V30 999 C 95.0313 -1.07343 -1.31952 0
M  V30 1000 O 96.2163 -1.35318 -1.39294 0
M  V30 1001 C 93.3463 -2.70078 -2.18347 0
M  V30 1002 C 92.3003 -3.82771 -1.91495 0
M  V30 1003 C 91.6263 -4.24408 -3.25241 0
M  V30 1004 C 92.9263 -5.07592 -1.23075 0
M  V30 1005 H 94.6203 -2.96263 -0.432246 0
M  V30 1006 H 92.1663 -1.42512 -0.206469 0
M  V30 1007 H 94.1193 -3.08943 -2.86587 0
M  V30 1008 H 92.8433 -1.86005 -2.68458 0
M  V30 1009 H 91.5023 -3.44389 -1.25664 0
M  V30 1010 H 91.1503 -3.37275 -3.73168 0
M  V30 1011 H 90.8503 -5.00366 -3.08071 0
M  V30 1012 H 92.3743 -4.65879 -3.94701 0
M  V30 1013 H 93.7883 -5.43857 -1.81362 0
M  V30 1014 H 92.1853 -5.88741 -1.16207 0
M  V30 1015 H 93.2553 -4.84454 -0.207847 0
M  V30 1016 N 94.5984 0.214957 -1.56127 0
M  V30 1017 C 95.8464 0.936518 -1.79091 0
M  V30 1018 C 96.1674 1.84606 -0.628148 0
M  V30 1019 O 95.4374 1.92664 0.35462 0
M  V30 1020 H 94.0174 0.3488 -0.660566 0
M  V30 1021 H 96.6794 0.22523 -1.93594 0
M  V30 1022 H 95.7754 1.53943 -2.71492 0
M  V30 1023 N 96.0765 1.50051 0.48192 0
M  V30 1024 C 97.3235 1.60498 1.23477 0
M  V30 1025 C 97.6515 0.300331 1.92167 0
M  V30 1026 O 96.9065 -0.713094 1.82246 0
M  V30 1027 C 97.2055 2.72717 2.30998 0
M  V30 1028 C 96.8715 4.13572 1.79636 0
M  V30 1029 C 95.5335 4.519 1.65348 0
M  V30 1030 C 97.8855 5.01649 1.41412 0
M  V30 1031 C 95.2135 5.76057 1.11244 0
M  V30 1032 C 97.5655 6.26343 0.887538 0
M  V30 1033 C 96.2295 6.63483 0.731207 0
M  V30 1034 H 95.4995 0.587303 0.451836 0
M  V30 1035 H 98.1465 1.83948 0.532468 0
M  V30 1036 H 96.4515 2.43312 3.07094 0
M  V30 1037 H 98.1485 2.78006 2.88988 0
M  V30 1038 H 94.7385 3.83329 1.91721 0
M  V30 1039 H 98.9225 4.72679 1.51289 0
M  V30 1040 H 94.1785 6.03516 0.978686 0
M  V30 1041 H 98.3525 6.93958 0.582654 0
M  V30 1042 H 95.9795 7.59568 0.309806 0
M  V30 1043 N 97.5546 -0.734337 1.39446 0
M  V30 1044 C 98.8036 -1.48937 1.36017 0
M  V30 1045 C 99.1166 -1.95557 -0.0409005 0
M  V30 1046 O 100.323 -2.70779 -0.19778 0
M  V30 1047 C 98.7786 -2.69125 2.38955 0
M  V30 1048 C 98.3866 -2.29452 3.8478 0
M  V30 1049 C 100.131 -3.46944 2.44603 0
M  V30 1050 C 98.0376 -3.46366 4.79358 0
M  V30 1051 H 96.9676 -0.559296 0.505672 0
M  V30 1052 H 99.6186 -0.800983 1.65095 0
M  V30 1053 H 98.0006 -3.40041 2.02948 0
M  V30 1054 H 99.1746 -1.66077 4.29831 0
M  V30 1055 H 97.4896 -1.64723 3.82433 0
M  V30 1056 H 100.087 -4.33907 3.12456 0
M  V30 1057 H 100.43 -3.89454 1.47076 0
M  V30 1058 H 100.963 -2.83056 2.79507 0
M  V30 1059 H 97.7016 -3.08905 5.78151 0
M  V30 1060 H 97.2216 -4.08719 4.38986 0
M  V30 1061 H 98.9006 -4.12691 4.98292 0
M  V30 1062 N 99.0327 -1.24633 -0.964593 0
M  V30 1063 C 99.9627 -1.06611 -2.07741 0
M  V30 1064 C 100.944 0.0218666 -1.70086 0
M  V30 1065 O 102.129 -0.145793 -1.93652 0
M  V30 1066 C 99.2587 -0.673444 -3.40708 0
M  V30 1067 C 98.2127 -1.71054 -3.92332 0
M  V30 1068 C 97.5387 -1.17285 -5.21678 0
M  V30 1069 C 98.8387 -3.10718 -4.19824 0
M  V30 1070 H 100.533 -1.99693 -2.23076 0
M  V30 1071 H 98.0787 -0.96152 -1.07195 0
M  V30 1072 H 100.032 -0.534345 -4.17998 0
M  V30 1073 H 98.7557 0.293073 -3.25282 0
M  V30 1074 H 97.4147 -1.83791 -3.17201 0
M  V30 1075 H 97.0627 -0.196847 -5.02615 0
M  V30 1076 H 96.7627 -1.86592 -5.57187 0
M  V30 1077 H 98.2867 -1.04593 -6.01575 0
M  V30 1078 H 99.7007 -3.01192 -4.87808 0
M  V30 1079 H 98.0977 -3.77406 -4.66567 0
M  V30 1080 H 99.1677 -3.58524 -3.26479 0
M  V30 1081 N 100.511 1.16574 -1.06058 0
M  V30 1082 C 101.458 2.20883 -0.669263 0
M  V30 1083 C 102.428 1.62729 0.332918 0
M  V30 1084 O 103.613 1.895 0.222346 0
M  V30 1085 C 100.753 3.45049 -0.0593572 0
M  V30 1086 C 99.8658 4.17458 -1.11143 0
M  V30 1087 C 99.0008 5.29135 -0.467916 0
M  V30 1088 C 98.0398 5.93343 -1.50369 0
M  V30 1089 N 97.1768 6.96516 -0.883706 0
M  V30 1090 H 102.017 2.53709 -1.5632 0
M  V30 1091 H 99.5538 1.24616 -0.781625 0
M  V30 1092 H 101.512 4.16033 0.311771 0
M  V30 1093 H 100.142 3.12781 0.797992 0
M  V30 1094 H 99.1938 3.45101 -1.60029 0
M  V30 1095 H 100.506 4.61307 -1.89731 0
M  V30 1096 H 99.6598 6.06684 -0.0436871 0
M  V30 1097 H 98.3988 4.86443 0.349864 0
M  V30 1098 H 97.4038 5.14517 -1.93784 0
M  V30 1099 H 98.6288 6.38114 -2.32352 0
M  V30 1100 H 96.5748 6.55943 -0.086595 0
M  V30 1101 H 96.4918 7.38723 -1.607 0
M  V30 1102 H 97.7598 7.77993 -0.484543 0
M  V30 1103 N 101.989 0.842826 1.3317 0
M  V30 1104 C 103.237 0.439577 1.97262 0
M  V30 1105 C 103.558 -1.00548 1.67078 0
M  V30 1106 O 102.828 -1.70098 0.971779 0
M  V30 1107 H 101.408 0.159558 0.72976 0
M  V30 1108 H 104.07 1.07665 1.62463 0
M  V30 1109 H 103.166 0.574886 3.0676 0
M  V30 1110 N 103.467 -1.45747 0.599634 0
M  V30 1111 C 104.714 -2.02292 0.0917284 0
M  V30 1112 C 105.042 -1.46906 -1.27472 0
M  V30 1113 O 104.297 -0.630652 -1.8526 0
M  V30 1114 C 104.596 -3.57399 -0.00602758 0
M  V30 1115 C 104.262 -4.31902 1.29503 0
M  V30 1116 C 102.924 -4.51974 1.65144 0
M  V30 1117 C 105.276 -4.74551 2.15525 0
M  V30 1118 C 102.604 -5.11949 2.86574 0
M  V30 1119 C 104.956 -5.35868 3.36196 0
M  V30 1120 C 103.62 -5.54165 3.72099 0
M  V30 1121 H 102.89 -0.740239 0.0335658 0
M  V30 1122 H 105.537 -1.7491 0.779661 0
M  V30 1123 H 103.842 -3.84014 -0.777183 0
M  V30 1124 H 105.539 -3.98846 -0.415038 0
M  V30 1125 H 102.129 -4.16588 1.00761 0
M  V30 1126 H 106.313 -4.58784 1.8929 0
M  V30 1127 H 101.569 -5.24305 3.14507 0
M  V30 1128 H 105.743 -5.6787 4.03109 0
M  V30 1129 H 103.37 -6.00406 4.6628 0
M  V30 1130 N 104.945 -0.338344 -1.53925 0
M  V30 1131 C 106.17 0.263987 -2.05713 0
M  V30 1132 C 106.595 1.43847 -1.21201 0
M  V30 1133 O 105.953 1.79904 -0.224535 0
M  V30 1134 C 106.001 0.662 -3.54471 0
M  V30 1135 O 105.105 1.76265 -3.72833 0
M  V30 1136 H 104.446 0.0448722 -0.662482 0
M  V30 1137 H 106.976 -0.491048 -1.9862 0
M  V30 1138 H 106.986 0.940594 -3.9701 0
M  V30 1139 H 105.661 -0.196937 -4.15433 0
M  V30 1140 H 104.238 1.48173 -3.42198 0
M  V30 1141 N 106.423 1.57458 -0.0668435 0
M  V30 1142 C 107.834 1.80776 0.466558 0
M  V30 1143 C 108.185 0.980361 1.69951 0
M  V30 1144 O 107.31 0.201441 2.1546 0
M  V30 1145 C 107.905 3.27881 0.85321 0
M  V30 1146 C 106.464 3.52062 1.3315 0
M  V30 1147 C 105.611 2.75513 0.314264 0
M  V30 1148 H 108.562 1.5598 -0.292588 0
M  V30 1149 H 108.583 3.39659 1.715 0
M  V30 1150 H 108.095 3.88075 -0.0443439 0
M  V30 1151 H 106.196 2.97167 2.24772 0
M  V30 1152 H 106.309 4.60762 1.31285 0
M  V30 1153 H 104.673 2.42123 0.790492 0
M  V30 1154 H 105.456 3.38442 -0.575477 0
M  V30 1155 N 107.901 -0.206675 1.56239 0
M  V30 1156 C 109.178 -0.954051 1.70755 0
M  V30 1157 C 109.558 -2.01841 0.618353 0
M  V30 1158 O 108.906 -2.25444 -0.372434 0
M  V30 1159 C 109.116 -1.551 3.12642 0
M  V30 1160 C 110.464 -2.03757 3.72516 0
M  V30 1161 O 111.488 -1.64965 3.15698 0
M  V30 1162 O 110.347 -2.75103 4.72208 0
M  V30 1163 H 107.441 -0.446636 0.696021 0
M  V30 1164 H 109.987 -0.197283 1.68549 0
M  V30 1165 H 108.759 -0.783212 3.83382 0
M  V30 1166 H 108.382 -2.37291 3.19028 0
M  V30 1167 N 109.379 -1.50304 -0.473955 0
M  V30 1168 C 110.342 -1.6841 -1.55469 0
M  V30 1169 C 111.342 -0.554905 -1.50922 0
M  V30 1170 O 112.532 -0.821882 -1.53593 0
M  V30 1171 C 109.664 -1.70667 -2.95102 0
M  V30 1172 H 110.857 -2.64828 -1.40733 0
M  V30 1173 H 108.41 -1.39742 -0.700132 0
M  V30 1174 H 109.145 -0.75932 -3.15285 0
M  V30 1175 H 108.93 -2.52698 -2.9981 0
M  V30 1176 H 110.42 -1.8664 -3.73571 0
M  V30 1177 N 110.857 0.726932 -1.39834 0
M  V30 1178 C 112.273 1.03354 -1.21615 0
M  V30 1179 C 112.473 2.01327 -0.08338 0
M  V30 1180 O 111.529 2.46158 0.56238 0
M  V30 1181 C 112.842 1.58811 -2.55342 0
M  V30 1182 C 114.39 1.70851 -2.62257 0
M  V30 1183 C 114.865 2.29716 -3.96225 0
M  V30 1184 N 116.356 2.37116 -3.97907 0
M  V30 1185 C 117.091 2.83619 -4.98345 0
M  V30 1186 N 116.587 3.29958 -6.09179 0
M  V30 1187 N 118.38 2.82901 -4.8572 0
M  V30 1188 H 110.531 0.0773069 -2.12259 0
M  V30 1189 H 112.794 0.0969102 -0.943034 0
M  V30 1190 H 112.5 0.942855 -3.38826 0
M  V30 1191 H 112.374 2.57502 -2.75632 0
M  V30 1192 H 114.761 2.34497 -1.79152 0
M  V30 1193 H 114.842 0.707913 -2.45809 0
M  V30 1194 H 114.486 1.66696 -4.79765 0
M  V30 1195 H 114.416 3.30469 -4.09997 0
M  V30 1196 H 116.907 2.04374 -3.17868 0
M  V30 1197 H 117.22 3.63976 -6.8172 0
M  V30 1198 H 115.565 3.27946 -6.12761 0
M  V30 1199 H 118.756 2.46027 -3.98231 0
M  V30 1200 H 118.929 3.18827 -5.6414 0
M  V30 1201 N 112.336 1.25143 0.95797 0
M  V30 1202 C 113.613 1.00472 1.67823 0
M  V30 1203 C 113.993 -0.470056 2.058 0
M  V30 1204 O 113.341 -1.44663 1.76875 0
M  V30 1205 C 113.551 1.9372 2.90299 0
M  V30 1206 C 114.899 2.21371 3.62326 0
M  V30 1207 O 115.923 1.91451 3.00375 0
M  V30 1208 O 114.782 2.72231 4.7387 0
M  V30 1209 H 111.876 0.380752 0.734137 0
M  V30 1210 H 114.422 1.36283 1.01119 0
M  V30 1211 H 113.194 2.93316 2.59001 0
M  V30 1212 H 112.817 1.58286 3.64735 0
M  V30 1213 N 113.814 -1.1601 1.06675 0
M  V30 1214 C 114.744 -2.22688 0.702307 0
M  V30 1215 C 115.725 -1.67306 -0.307032 0
M  V30 1216 O 116.91 -1.93352 -0.181305 0
M  V30 1217 C 114.04 -3.47178 0.092038 0
M  V30 1218 C 112.994 -4.15477 1.02777 0
M  V30 1219 C 112.32 -5.33963 0.28061 0
M  V30 1220 C 113.62 -4.66019 2.35846 0
M  V30 1221 H 115.314 -2.53429 1.59419 0
M  V30 1222 H 112.86 -1.21813 0.767961 0
M  V30 1223 H 114.813 -4.21037 -0.174814 0
M  V30 1224 H 113.537 -3.15749 -0.834877 0
M  V30 1225 H 112.196 -3.43549 1.27944 0
M  V30 1226 H 111.844 -4.98788 -0.649545 0
M  V30 1227 H 111.544 -5.806 0.904258 0
M  V30 1228 H 113.068 -6.10596 0.021396 0
M  V30 1229 H 114.482 -5.3144 2.15045 0
M  V30 1230 H 112.879 -5.23293 2.93743 0
M  V30 1231 H 113.949 -3.82023 2.98641 0
M  V30 1232 N 115.292 -0.849877 -1.32721 0
M  V30 1233 C 116.517 -0.463856 -2.02146 0
M  V30 1234 C 116.942 0.930449 -1.63476 0
M  V30 1235 O 116.3 1.61033 -0.832952 0
M  V30 1236 C 116.348 -0.604955 -3.55489 0
M  V30 1237 O 115.452 0.36425 -4.10788 0
M  V30 1238 H 114.793 -0.187046 -0.637111 0
M  V30 1239 H 117.323 -1.14775 -1.69375 0
M  V30 1240 H 117.333 -0.490696 -4.05038 0
M  V30 1241 H 116.008 -1.62174 -3.82978 0
M  V30 1242 H 114.585 0.206628 -3.72327 0
M  V30 1243 N 116.77 1.45427 -0.607355 0
M  V30 1244 C 117.733 2.28974 0.101693 0
M  V30 1245 C 118.733 1.39754 0.795329 0
M  V30 1246 O 119.923 1.61878 0.643527 0
M  V30 1247 C 117.055 3.20768 1.15414 0
M  V30 1248 H 118.248 2.93147 -0.632844 0
M  V30 1249 H 115.801 1.51945 -0.366391 0
M  V30 1250 H 116.536 2.61395 1.91945 0
M  V30 1251 H 116.321 3.86489 0.66098 0
M  V30 1252 H 117.811 3.83589 1.65073 0
M  V30 1253 N 118.248 0.346503 1.53744 0
M  V30 1254 C 119.195 -0.508914 2.25119 0
M  V30 1255 C 120.165 -1.09315 1.25058 0
M  V30 1256 O 121.35 -1.12921 1.53797 0
M  V30 1257 C 118.49 -1.65246 3.02965 0
M  V30 1258 C 117.603 -1.09525 4.17886 0
M  V30 1259 C 116.738 -2.20634 4.83212 0
M  V30 1260 C 115.777 -1.62279 5.90196 0
M  V30 1261 N 114.914 -2.67143 6.49291 0
M  V30 1262 H 119.754 0.106283 2.9781 0
M  V30 1263 H 117.291 0.0642227 1.4696 0
M  V30 1264 H 119.249 -2.32574 3.4636 0
M  V30 1265 H 117.879 -2.2386 2.32565 0
M  V30 1266 H 116.931 -0.312818 3.79112 0
M  V30 1267 H 118.243 -0.628444 4.94825 0
M  V30 1268 H 117.397 -2.95821 5.29693 0
M  V30 1269 H 116.136 -2.70659 4.05703 0
M  V30 1270 H 115.141 -0.855989 5.43096 0
M  V30 1271 H 116.366 -1.13102 6.69615 0
M  V30 1272 H 114.312 -3.16417 5.74645 0
M  V30 1273 H 114.229 -2.25093 7.21713 0
M  V30 1274 H 115.497 -3.4209 7.00425 0
M  V30 1275 N 119.726 -1.57421 0.075193 0
M  V30 1276 C 120.636 -2.1642 -0.905511 0
M  V30 1277 C 121.652 -1.12828 -1.32461 0
M  V30 1278 O 122.828 -1.45109 -1.39661 0
M  V30 1279 C 119.893 -2.71693 -2.15369 0
M  V30 1280 C 118.954 -3.90171 -1.79068 0
M  V30 1281 C 118.187 -4.42798 -2.97936 0
M  V30 1282 O 118.41 -3.94416 -4.12058 0
M  V30 1283 O 117.344 -5.34085 -2.77555 0
M  V30 1284 H 121.17 -3.00588 -0.433626 0
M  V30 1285 H 118.755 -1.48664 -0.148067 0
M  V30 1286 H 120.637 -3.07104 -2.88557 0
M  V30 1287 H 119.312 -1.90582 -2.61649 0
M  V30 1288 H 118.219 -3.59606 -1.03122 0
M  V30 1289 H 119.552 -4.72584 -1.37569 0
M  V30 1290 N 121.204 0.198386 -1.56346 0
M  V30 1291 C 122.432 0.935572 -1.84539 0
M  V30 1292 C 122.847 1.76989 -0.657281 0
M  V30 1293 O 122.204 1.78626 0.374043 0
M  V30 1294 C 122.255 1.8344 -3.11499 0
M  V30 1295 O 121.976 1.03377 -4.25728 0
M  V30 1296 C 123.477 2.68355 -3.52846 0
M  V30 1297 H 120.697 0.273126 -0.612897 0
M  V30 1298 H 123.241 0.20663 -2.03453 0
M  V30 1299 H 121.396 2.51701 -2.94492 0
M  V30 1300 H 121.81 1.64599 -4.98003 0
M  V30 1301 H 123.284 3.27085 -4.44657 0
M  V30 1302 H 123.761 3.41901 -2.75681 0
M  V30 1303 H 124.367 2.05471 -3.72373 0
M  V30 1304 N 122.682 1.50554 0.465978 0
M  V30 1305 C 123.629 1.6979 1.56333 0
M  V30 1306 C 124.599 0.539239 1.57103 0
M  V30 1307 O 125.784 0.770401 1.74555 0
M  V30 1308 C 122.924 1.80273 2.94271 0
M  V30 1309 C 122.037 3.07674 3.0325 0
M  V30 1310 C 121.172 3.08922 4.32135 0
M  V30 1311 C 120.211 4.30755 4.34875 0
M  V30 1312 N 119.348 4.29714 5.55239 0
M  V30 1313 H 124.188 2.63472 1.39235 0
M  V30 1314 H 121.725 1.30602 0.676873 0
M  V30 1315 H 123.683 1.84332 3.74269 0
M  V30 1316 H 122.313 0.900258 3.09992 0
M  V30 1317 H 121.365 3.13062 2.16094 0
M  V30 1318 H 122.677 3.97642 3.01135 0
M  V30 1319 H 121.831 3.11738 5.20485 0
M  V30 1320 H 120.57 2.16792 4.36866 0
M  V30 1321 H 119.575 4.28146 3.44922 0
M  V30 1322 H 120.8 5.24117 4.31831 0
M  V30 1323 H 118.746 3.4044 5.60746 0
M  V30 1324 H 118.663 5.13456 5.54886 0
M  V30 1325 H 119.931 4.36683 6.457 0
M  V30 1326 N 124.16 -0.719506 1.40217 0
M  V30 1327 C 125.093 -1.84298 1.34571 0
M  V30 1328 C 126.071 -1.61149 0.216741 0
M  V30 1329 O 127.255 -1.84212 0.399756 0
M  V30 1330 C 124.382 -3.20568 1.09335 0
M  V30 1331 C 123.428 -3.62551 2.24631 0
M  V30 1332 S 124.261 -3.7012 3.87004 0
M  V30 1333 C 125.417 -5.09154 3.64024 0
M  V30 1334 H 125.65 -1.88807 2.2965 0
M  V30 1335 H 123.183 -0.885901 1.26456 0
M  V30 1336 H 125.141 -3.99246 0.954602 0
M  V30 1337 H 123.802 -3.13696 0.159164 0
M  V30 1338 H 122.995 -4.61483 2.02606 0
M  V30 1339 H 122.597 -2.91119 2.34789 0
M  V30 1340 H 124.889 -5.95955 3.22248 0
M  V30 1341 H 125.832 -5.36213 4.62473 0
M  V30 1342 H 126.24 -4.79562 2.97793 0
M  V30 1343 N 125.638 -1.25649 -0.95132 0
M  V30 1344 C 126.568 -1.08808 -2.06599 0
M  V30 1345 C 127.549 0.00382547 -1.701 0
M  V30 1346 O 128.734 -0.166325 -1.93486 0
M  V30 1347 C 125.864 -0.709542 -3.39975 0
M  V30 1348 C 124.818 -1.75206 -3.90496 0
M  V30 1349 C 124.144 -1.22811 -5.20405 0
M  V30 1350 C 125.444 -3.15153 -4.16504 0
M  V30 1351 H 127.138 -2.02048 -2.20946 0
M  V30 1352 H 124.684 -0.972835 -1.06169 0
M  V30 1353 H 126.637 -0.578649 -4.17408 0
M  V30 1354 H 125.361 0.258556 -3.25575 0
M  V30 1355 H 124.02 -1.87145 -3.15234 0
M  V30 1356 H 123.668 -0.250145 -5.02378 0
M  V30 1357 H 123.368 -1.92492 -5.55176 0
M  V30 1358 H 124.892 -1.10968 -6.00432 0
M  V30 1359 H 126.306 -3.06349 -4.84586 0
M  V30 1360 H 124.703 -3.82333 -4.62538 0
M  V30 1361 H 125.773 -3.61966 -3.22658 0
M  V30 1362 N 127.117 1.15442 -1.07289 0
M  V30 1363 C 128.05 2.19135 -0.636798 0
M  V30 1364 C 129.028 1.58884 0.34562 0
M  V30 1365 O 130.212 1.86805 0.252195 0
M  V30 1366 C 127.339 3.38638 0.0650014 0
M  V30 1367 C 126.385 4.17412 -0.87576 0
M  V30 1368 S 127.218 4.79882 -2.37642 0
M  V30 1369 C 128.374 6.02753 -1.6864 0
M  V30 1370 H 128.607 2.55787 -1.51526 0
M  V30 1371 H 126.14 1.26394 -0.886793 0
M  V30 1372 H 128.098 4.07873 0.463664 0
M  V30 1373 H 126.759 3.00331 0.919801 0
M  V30 1374 H 125.952 5.02909 -0.33143 0
M  V30 1375 H 125.554 3.53722 -1.21478 0
M  V30 1376 H 127.846 6.70113 -0.997753 0
M  V30 1377 H 128.789 6.61754 -2.51967 0
M  V30 1378 H 129.197 5.52355 -1.16465 0
M  V30 1379 N 128.595 0.856903 1.32268 0
M  V30 1380 C 129.558 0.308171 2.27119 0
M  V30 1381 C 130.558 -0.533421 1.51695 0
M  V30 1382 O 131.748 -0.344607 1.70757 0
M  V30 1383 C 128.88 -0.563757 3.36206 0
M  V30 1384 H 130.073 1.14535 2.77167 0
M  V30 1385 H 127.626 0.631421 1.42978 0
M  V30 1386 H 128.361 -1.42266 2.91429 0
M  V30 1387 H 128.146 0.0386749 3.92081 0
M  V30 1388 H 129.636 -0.940386 4.06874 0
M  V30 1389 N 130.073 -1.45103 0.615059 0
M  V30 1390 C 131.036 -2.29025 -0.0895485 0
M  V30 1391 C 132.036 -1.40174 -0.787906 0
M  V30 1392 O 133.226 -1.62217 -0.634933 0
M  V30 1393 C 130.358 -3.21376 -1.13711 0
M  V30 1394 H 131.551 -2.92807 0.648382 0
M  V30 1395 H 129.104 -1.51749 0.374444 0
M  V30 1396 H 129.839 -2.6241 -1.90556 0
M  V30 1397 H 129.624 -3.86834 -0.640475 0
M  V30 1398 H 131.114 -3.84459 -1.63036 0
M  V30 1399 N 131.551 -0.354651 -1.53558 0
M  V30 1400 C 132.799 0.237972 -2.00694 0
M  V30 1401 C 133.12 1.50173 -1.24391 0
M  V30 1402 O 132.39 1.92673 -0.354135 0
M  V30 1403 H 130.97 0.0909256 -0.741446 0
M  V30 1404 H 133.632 -0.478368 -1.88938 0
M  V30 1405 H 132.728 0.47264 -3.085 0
M  V30 1406 N 133.029 1.57378 -0.0835403 0
M  V30 1407 C 134.306 1.85363 0.624507 0
M  V30 1408 C 134.686 0.978239 1.87066 0
M  V30 1409 O 134.034 0.0475908 2.2845 0
M  V30 1410 C 134.244 3.35795 0.950947 0
M  V30 1411 C 135.592 4.03581 1.31939 0
M  V30 1412 O 136.616 3.40609 1.04232 0
M  V30 1413 O 135.475 5.14672 1.83779 0
M  V30 1414 H 132.569 0.766162 0.311329 0
M  V30 1415 H 135.115 1.69307 -0.115362 0
M  V30 1416 H 133.887 3.91244 0.0663899 0
M  V30 1417 H 133.51 3.57154 1.74719 0
M  V30 1418 N 134.507 -0.190092 1.56449 0
M  V30 1419 C 135.454 -1.23557 1.94942 0
M  V30 1420 C 136.424 -1.44972 0.810696 0
M  V30 1421 O 137.609 -1.58023 1.06927 0
M  V30 1422 C 134.749 -2.57416 2.2985 0
M  V30 1423 C 133.862 -2.43537 3.5681 0
M  V30 1424 C 132.997 -3.70134 3.81017 0
M  V30 1425 C 132.036 -3.51109 5.01387 0
M  V30 1426 N 131.173 -4.6973 5.21822 0
M  V30 1427 H 136.013 -0.900304 2.84075 0
M  V30 1428 H 133.55 -0.43318 1.40577 0
M  V30 1429 H 135.508 -3.35409 2.48106 0
M  V30 1430 H 134.138 -2.88975 1.43852 0
M  V30 1431 H 133.19 -1.56816 3.46573 0
M  V30 1432 H 134.502 -2.25415 4.4496 0
M  V30 1433 H 133.656 -4.56566 3.9954 0
M  V30 1434 H 132.395 -3.91215 2.91207 0
M  V30 1435 H 131.4 -2.63063 4.82782 0
M  V30 1436 H 132.625 -3.31468 5.9271 0
M  V30 1437 H 130.571 -4.91065 4.34961 0
M  V30 1438 H 130.488 -4.54452 6.0416 0
M  V30 1439 H 131.756 -5.57499 5.44808 0
M  V30 1440 N 135.985 -1.50799 -0.457987 0
M  V30 1441 C 137.262 -1.52968 -1.21902 0
M  V30 1442 C 137.642 -0.281906 -2.09209 0
M  V30 1443 O 136.99 0.734076 -2.16388 0
M  V30 1444 C 137.2 -2.8326 -2.03875 0
M  V30 1445 C 138.548 -3.34425 -2.6162 0
M  V30 1446 O 139.572 -2.8467 -2.14106 0
M  V30 1447 O 138.431 -4.21188 -3.48228 0
M  V30 1448 H 135.525 -0.614129 -0.553873 0
M  V30 1449 H 138.071 -1.63098 -0.468739 0
M  V30 1450 H 136.843 -3.65543 -1.39621 0
M  V30 1451 H 136.466 -2.76195 -2.8601 0
M  V30 1452 N 137.463 0.71206 -1.40597 0
M  V30 1453 C 138.711 1.46907 -1.38791 0
M  V30 1454 C 139.032 1.94998 0.00780391 0
M  V30 1455 O 138.302 1.70587 0.963174 0
M  V30 1456 H 136.882 0.545043 -0.51082 0
M  V30 1457 H 139.544 0.843882 -1.75683 0
M  V30 1458 H 138.64 2.34021 -2.06496 0
M  V30 1459 N 138.941 1.26152 0.944643 0
M  V30 1460 C 140.218 1.02247 1.66748 0
M  V30 1461 C 140.598 -0.448202 2.06287 0
M  V30 1462 O 139.946 -1.42779 1.78399 0
M  V30 1463 C 140.156 1.96788 2.88228 0
M  V30 1464 C 141.504 2.25201 3.59958 0
M  V30 1465 O 142.528 1.94626 2.98327 0
M  V30 1466 O 141.387 2.77242 4.70956 0
M  V30 1467 H 138.481 0.388517 0.730057 0
M  V30 1468 H 141.027 1.37348 0.99668 0
M  V30 1469 H 139.799 2.96047 2.55875 0
M  V30 1470 H 139.422 1.62145 3.63035 0
M  V30 1471 N 140.419 -1.14872 1.07899 0
M  V30 1472 C 141.667 -1.85422 0.803941 0
M  V30 1473 C 141.988 -1.83051 -0.67211 0
M  V30 1474 O 141.258 -1.27532 -1.48703 0
M  V30 1475 H 139.838 -0.686537 0.294408 0
M  V30 1476 H 142.5 -1.39226 1.3639 0
M  V30 1477 H 141.596 -2.90399 1.14346 0
M  V30 1478 N 141.898 -0.863906 -1.31812 0
M  V30 1479 C 142.845 -0.313303 -2.28664 0
M  V30 1480 C 143.815 0.584868 -1.55462 0
M  V30 1481 O 145 0.517805 -1.83639 0
M  V30 1482 C 142.14 0.48441 -3.41683 0
M  V30 1483 C 141.253 -0.440594 -4.29747 0
M  V30 1484 C 140.388 0.370652 -5.29905 0
M  V30 1485 C 139.427 -0.551164 -6.09613 0
M  V30 1486 N 138.564 0.223462 -7.01744 0
M  V30 1487 H 143.404 -1.14444 -2.75148 0
M  V30 1488 H 140.941 -0.575769 -1.35364 0
M  V30 1489 H 142.899 0.962627 -4.05943 0
M  V30 1490 H 141.529 1.28029 -2.96325 0
M  V30 1491 H 140.581 -1.03724 -3.65986 0
M  V30 1492 H 141.893 -1.14767 -4.85417 0
M  V30 1493 H 141.047 0.911638 -5.99812 0
M  V30 1494 H 139.786 1.11105 -4.74876 0
M  V30 1495 H 138.791 -1.10396 -5.38603 0
M  V30 1496 H 140.016 -1.29032 -6.66729 0
M  V30 1497 H 137.962 0.946787 -6.49132 0
M  V30 1498 H 137.879 -0.424399 -7.54808 0
M  V30 1499 H 139.147 0.745876 -7.75923 0
M  V30 1500 N 143.376 1.44774 -0.622745 0
M  V30 1501 C 144.625 2.01334 -0.121397 0
M  V30 1502 C 144.938 1.49505 1.26125 0
M  V30 1503 O 146.144 1.98139 1.85616 0
M  V30 1504 C 144.6 3.59516 -0.166298 0
M  V30 1505 C 144.208 4.20342 -1.54974 0
M  V30 1506 C 145.952 4.23582 0.279021 0
M  V30 1507 C 143.859 5.70721 -1.55021 0
M  V30 1508 H 142.789 0.752851 -0.0416172 0
M  V30 1509 H 145.44 1.66083 -0.780309 0
M  V30 1510 H 143.822 3.92027 0.559557 0
M  V30 1511 H 144.996 3.99381 -2.29851 0
M  V30 1512 H 143.311 3.68529 -1.93843 0
M  V30 1513 H 145.908 5.33868 0.298083 0
M  V30 1514 H 146.251 3.95327 1.30471 0
M  V30 1515 H 146.784 3.95843 -0.394063 0
M  V30 1516 H 143.523 6.03698 -2.55399 0
M  V30 1517 H 143.043 5.93829 -0.844245 0
M  V30 1518 H 144.722 6.34203 -1.28047 0
M  V30 1519 N 144.854 0.36279 1.53368 0
M  V30 1520 C 146.102 -0.227326 2.00817 0
M  V30 1521 C 146.423 -1.49511 1.25186 0
M  V30 1522 O 145.693 -1.92482 0.364348 0
M  V30 1523 H 144.273 -0.0869923 0.741917 0
M  V30 1524 H 146.935 0.488381 1.88682 0
M  V30 1525 H 146.031 -0.456273 3.08747 0
M  V30 1526 N 146.332 -1.57332 0.0918853 0
M  V30 1527 C 147.578 -1.94524 -0.573425 0
M  V30 1528 C 147.911 -0.973578 -1.68033 0
M  V30 1529 O 147.186 -0.00609226 -1.94499 0
M  V30 1530 C 147.469 -3.41858 -1.13161 0
M  V30 1531 C 147.322 -4.4979 -0.0299747 0
M  V30 1532 C 148.641 -3.90435 -2.03098 0
M  V30 1533 H 145.76 -0.70734 -0.206975 0
M  V30 1534 H 148.402 -1.89309 0.161942 0
M  V30 1535 H 146.552 -3.46433 -1.7583 0
M  V30 1536 H 148.224 -4.57327 0.604112 0
M  V30 1537 H 146.467 -4.291 0.636833 0
M  V30 1538 H 147.138 -5.50069 -0.461287 0
M  V30 1539 H 149.614 -3.87992 -1.50338 0
M  V30 1540 H 148.49 -4.94097 -2.39081 0
M  V30 1541 H 148.751 -3.29541 -2.94712 0
M  V30 1542 N 147.81 0.181792 -1.56548 0
M  V30 1543 C 149.087 0.926765 -1.72251 0
M  V30 1544 C 149.467 2.00831 -0.650386 0
M  V30 1545 O 148.815 2.26008 0.336521 0
M  V30 1546 C 149.025 1.50106 -3.1507 0
M  V30 1547 C 150.373 1.97805 -3.75711 0
M  V30 1548 O 151.397 1.59922 -3.18282 0
M  V30 1549 O 150.256 2.67555 -4.76525 0
M  V30 1550 H 147.35 0.435506 -0.703039 0
M  V30 1551 H 149.896 0.170443 -1.68842 0
M  V30 1552 H 148.668 0.72212 -3.84579 0
M  V30 1553 H 148.291 2.32186 -3.22763 0
M  V30 1554 N 149.288 1.51039 0.449983 0
M  V30 1555 C 150.198 1.74261 1.57067 0
M  V30 1556 C 151.214 0.626363 1.62335 0
M  V30 1557 O 152.39 0.907162 1.79812 0
M  V30 1558 C 149.455 1.85114 2.93144 0
M  V30 1559 C 148.516 3.0893 2.98095 0
M  V30 1560 C 147.749 3.19256 4.27681 0
M  V30 1561 O 147.972 2.35835 5.19363 0
M  V30 1562 O 146.906 4.12144 4.38658 0
M  V30 1563 H 150.732 2.69303 1.40391 0
M  V30 1564 H 148.317 1.35389 0.631688 0
M  V30 1565 H 150.199 1.94311 3.73926 0
M  V30 1566 H 148.874 0.932588 3.09975 0
M  V30 1567 H 147.781 3.0522 2.16314 0
M  V30 1568 H 149.114 4.00433 2.86206 0
M  V30 1569 N 150.766 -0.704594 1.40972 0
M  V30 1570 C 152.013 -1.46458 1.39844 0
M  V30 1571 C 152.341 -1.94499 0.00447594 0
M  V30 1572 O 151.596 -1.69275 -0.982057 0
M  V30 1573 C 151.895 -2.698 2.34399 0
M  V30 1574 C 151.561 -2.40464 3.81429 0
M  V30 1575 C 150.223 -2.32174 4.21484 0
M  V30 1576 C 152.575 -2.16086 4.74296 0
M  V30 1577 C 149.903 -1.97589 5.52427 0
M  V30 1578 C 152.255 -1.83011 6.05549 0
M  V30 1579 C 150.919 -1.7321 6.44635 0
M  V30 1580 H 150.189 -0.535927 0.511725 0
M  V30 1581 H 152.836 -0.806124 1.73706 0
M  V30 1582 H 151.141 -3.40536 1.93759 0
M  V30 1583 H 152.838 -3.27919 2.30804 0
M  V30 1584 H 149.428 -2.47808 3.49699 0
M  V30 1585 H 153.612 -2.2144 4.4416 0
M  V30 1586 H 148.868 -1.88547 5.81601 0
M  V30 1587 H 153.042 -1.63164 6.77016 0
M  V30 1588 H 150.669 -1.46179 7.46013 0
M  V30 1589 N 152.244 -1.26651 -0.937939 0
M  V30 1590 C 153.469 -1.15279 -1.72411 0
M  V30 1591 C 153.894 0.287866 -1.85884 0
M  V30 1592 O 153.252 1.20855 -1.35143 0
M  V30 1593 C 153.3 -1.83028 -3.10698 0
M  V30 1594 O 152.404 -1.12128 -3.96864 0
M  V30 1595 H 151.745 -0.401504 -0.528858 0
M  V30 1596 H 154.275 -1.67531 -1.1745 0
M  V30 1597 H 154.285 -1.89981 -3.6107 0
M  V30 1598 H 152.96 -2.87833 -3.00208 0
M  V30 1599 H 151.537 -1.13173 -3.55312 0
M  V30 1600 N 153.722 1.14298 -1.08507 0
M  V30 1601 C 154.95 1.89219 -0.836876 0
M  V30 1602 C 155.365 1.78638 0.611054 0
M  V30 1603 O 154.722 1.14643 1.41998 0
M  V30 1604 C 154.773 3.39158 -1.25116 0
M  V30 1605 O 154.494 3.49449 -2.64229 0
M  V30 1606 C 155.995 4.31073 -1.03398 0
M  V30 1607 H 153.215 0.599328 -0.301739 0
M  V30 1608 H 155.759 1.44746 -1.44461 0
M  V30 1609 H 153.914 3.81251 -0.687514 0
M  V30 1610 H 154.328 4.42589 -2.81452 0
M  V30 1611 H 155.802 5.34646 -1.37323 0
M  V30 1612 H 156.279 4.3919 0.0289259 0
M  V30 1613 H 156.885 3.94738 -1.58311 0
M  V30 1614 N 155.201 0.870884 1.31352 0
M  V30 1615 C 156.131 0.343096 2.30966 0
M  V30 1616 C 157.112 -0.566507 1.60389 0
M  V30 1617 O 158.297 -0.483336 1.88089 0
M  V30 1618 C 155.427 -0.455487 3.443 0
M  V30 1619 C 154.381 0.361103 4.26474 0
M  V30 1620 C 153.707 -0.563221 5.31725 0
M  V30 1621 C 155.007 1.59566 4.97329 0
M  V30 1622 H 156.701 1.17548 2.75359 0
M  V30 1623 H 154.247 0.566686 1.32381 0
M  V30 1624 H 156.2 -0.83525 4.13039 0
M  V30 1625 H 154.924 -1.32139 2.98675 0
M  V30 1626 H 153.583 0.722825 3.59403 0
M  V30 1627 H 153.231 -1.42643 4.82351 0
M  V30 1628 H 152.931 -0.0207409 5.87596 0
M  V30 1629 H 154.455 -0.939808 6.03324 0
M  V30 1630 H 155.869 1.28728 5.58661 0
M  V30 1631 H 154.266 2.07728 5.63 0
M  V30 1632 H 155.336 2.34798 4.24262 0
M  V30 1633 N 156.679 -1.44442 0.630414 0
M  V30 1634 C 157.925 -2.02351 0.134816 0
M  V30 1635 C 158.258 -1.4947 -1.23986 0
M  V30 1636 O 157.533 -0.678475 -1.82283 0
M  V30 1637 C 157.816 -3.59898 0.120707 0
M  V30 1638 C 157.669 -4.23063 1.52767 0
M  V30 1639 C 158.988 -4.36585 -0.555127 0
M  V30 1640 H 156.107 -0.73527 0.0504646 0
M  V30 1641 H 158.749 -1.72022 0.806751 0
M  V30 1642 H 156.899 -3.85868 -0.451477 0
M  V30 1643 H 158.571 -4.08202 2.14869 0
M  V30 1644 H 156.814 -3.80586 2.08175 0
M  V30 1645 H 157.485 -5.32071 1.46984 0
M  V30 1646 H 159.961 -4.16044 -0.0685429 0
M  V30 1647 H 158.837 -5.46294 -0.534185 0
M  V30 1648 H 159.098 -4.11138 -1.62535 0
M  V30 1649 N 158.157 -0.370918 -1.53173 0
M  V30 1650 C 159.12 0.460778 -2.24521 0
M  V30 1651 C 160.12 1.00536 -1.25496 0
M  V30 1652 O 161.31 0.890266 -1.49733 0
M  V30 1653 C 158.442 1.64457 -2.98608 0
M  V30 1654 H 159.635 -0.163613 -2.99453 0
M  V30 1655 H 157.188 -0.122699 -1.55818 0
M  V30 1656 H 157.923 2.30691 -2.2793 0
M  V30 1657 H 157.708 1.26099 -3.7127 0
M  V30 1658 H 159.198 2.23384 -3.5283 0
M  V30 1659 N 159.635 1.57281 -0.100228 0
M  V30 1660 C 160.545 2.17833 0.870965 0
M  V30 1661 C 161.561 1.14921 1.30649 0
M  V30 1662 O 162.737 1.47313 1.37335 0
M  V30 1663 C 159.802 2.75085 2.1102 0
M  V30 1664 C 158.863 3.9297 1.72838 0
M  V30 1665 C 158.096 4.47482 2.90854 0
M  V30 1666 O 158.319 4.00922 4.05731 0
M  V30 1667 O 157.253 5.38433 2.69023 0
M  V30 1668 H 161.079 3.0124 0.38575 0
M  V30 1669 H 158.664 1.48881 0.124397 0
M  V30 1670 H 160.546 3.11656 2.83634 0
M  V30 1671 H 159.221 1.94721 2.58584 0
M  V30 1672 H 158.128 3.61201 0.973883 0
M  V30 1673 H 159.461 4.74713 1.30033 0
M  V30 1674 N 161.113 -0.173488 1.56642 0
M  V30 1675 C 162.338 -0.910149 1.86363 0
M  V30 1676 C 162.763 -1.75132 0.686318 0
M  V30 1677 O 162.121 -1.77595 -0.364643 0
M  V30 1678 C 162.169 -1.76447 3.14482 0
M  V30 1679 O 161.273 -2.86584 2.96553 0
M  V30 1680 H 160.614 -0.255086 0.613047 0
M  V30 1681 H 163.144 -0.172283 2.03873 0
M  V30 1682 H 163.154 -2.16483 3.45831 0
M  V30 1683 H 161.829 -1.14658 3.99783 0
M  V30 1684 H 160.406 -2.50146 2.76553 0
M  V30 1685 O 162.63 -1.58328 -0.318489 0
M  V30 1686 H 163.321 -1.67855 -0.96667 0
M  V30 END ATOM
M  V30 BEGIN BOND
M  V30 END BOND
M  V30 END CTAB
M  END
$$$$
