drugbank_target|Q9F5I8 Iota-carrageenase (DB01981)
 OpenBabel12092120233D

  0  0  0     0  0            999 V3000
M  V30 BEGIN CTAB
M  V30 COUNTS 7642 7721 0 0 0
M  V30 BEGIN ATOM
M  V30 1 H -0.908 1.98254 -0.117106 0
M  V30 2 N 0 1.576 0 0
M  V30 3 C 0.933 2.03868 1.02534 0
M  V30 4 C 1.911 0.928543 1.3348 0
M  V30 5 O 3.095 1.19667 1.45644 0
M  V30 6 C 0.222 2.43627 2.35294 0
M  V30 7 C -0.732 3.65373 2.2001 0
M  V30 8 S 0.101 5.13292 1.52614 0
M  V30 9 C 1.257 5.56322 2.86805 0
M  V30 10 H 1.49 2.90518 0.631377 0
M  V30 11 H -0.977 1.52953 0.210867 0
M  V30 12 H 0.981 2.67203 3.11629 0
M  V30 13 H -0.358 1.57376 2.7183 0
M  V30 14 H -1.165 3.90944 3.18086 0
M  V30 15 H -1.563 3.418 1.51819 0
M  V30 16 H 0.729 5.58782 3.83104 0
M  V30 17 H 1.672 6.56266 2.65933 0
M  V30 18 H 2.08 4.83886 2.90714 0
M  V30 19 N 1.4781 -0.272755 1.55222 0
M  V30 20 C 2.8941 -0.619959 1.47067 0
M  V30 21 C 3.0941 -1.895 0.684978 0
M  V30 22 O 2.1501 -2.51675 0.203931 0
M  V30 23 C 3.4631 -0.746693 2.91282 0
M  V30 24 C 5.0111 -0.840731 3.01497 0
M  V30 25 C 5.4861 -0.99924 4.46967 0
M  V30 26 N 6.9771 -1.06476 4.50796 0
M  V30 27 C 7.7121 -1.20621 5.6057 0
M  V30 28 N 7.2081 -1.31483 6.80209 0
M  V30 29 N 9.0011 -1.23733 5.48312 0
M  V30 30 H 1.1521 0.564606 2.04758 0
M  V30 31 H 3.4151 0.191177 0.928523 0
M  V30 32 H 3.1211 0.119753 3.51496 0
M  V30 33 H 2.9951 -1.6269 3.40311 0
M  V30 34 H 5.3821 -1.69764 2.41379 0
M  V30 35 H 5.4631 0.0640874 2.5572 0
M  V30 36 H 5.1071 -0.146984 5.07687 0
M  V30 37 H 5.0371 -1.91871 4.90401 0
M  V30 38 H 7.5281 -0.993196 3.64615 0
M  V30 39 H 7.8411 -1.42111 7.59621 0
M  V30 40 H 6.1861 -1.28487 6.8302 0
M  V30 41 H 9.3771 -1.14877 4.53785 0
M  V30 42 H 9.5501 -1.34412 6.33906 0
M  V30 43 N 2.9562 -1.48159 -0.537278 0
M  V30 44 C 3.8862 -1.65029 -1.6519 0
M  V30 45 C 4.8672 -0.499281 -1.62607 0
M  V30 46 O 6.0522 -0.730972 -1.79918 0
M  V30 47 C 3.1822 -1.68303 -3.03795 0
M  V30 48 C 2.1362 -2.8283 -3.21234 0
M  V30 49 C 1.4622 -2.71189 -4.60826 0
M  V30 50 C 2.7622 -4.24211 -3.04701 0
M  V30 51 H 4.4562 -2.58341 -1.51328 0
M  V30 52 H 2.0022 -1.24325 -0.726585 0
M  V30 53 H 3.9552 -1.78693 -3.81637 0
M  V30 54 H 2.6792 -0.715635 -3.18663 0
M  V30 55 H 1.3382 -2.71983 -2.45807 0
M  V30 56 H 0.9862 -1.72435 -4.7252 0
M  V30 57 H 0.6862 -3.48035 -4.7344 0
M  V30 58 H 2.2102 -2.83537 -5.40777 0
M  V30 59 H 3.6242 -4.3593 -3.72341 0
M  V30 60 H 2.0212 -5.01998 -3.28813 0
M  V30 61 H 3.0912 -4.41184 -2.01209 0
M  V30 62 N 4.4343 0.785586 -1.36625 0
M  V30 63 C 5.6643 1.5722 -1.34036 0
M  V30 64 C 6.0723 1.89033 0.0795062 0
M  V30 65 O 5.4153 1.50881 1.04789 0
M  V30 66 C 5.4773 2.91759 -2.10041 0
M  V30 67 C 5.1413 2.82654 -3.59104 0
M  V30 68 C 6.1383 2.54634 -4.53274 0
M  V30 69 C 3.8233 3.01111 -4.02042 0
M  V30 70 C 5.8173 2.45177 -5.88359 0
M  V30 71 C 3.5043 2.91276 -5.37216 0
M  V30 72 C 4.5023 2.63348 -6.30188 0
M  V30 73 O 4.1903 2.53514 -7.6288 0
M  V30 74 H 3.9223 0.494177 -0.461265 0
M  V30 75 H 6.4763 0.982632 -1.8037 0
M  V30 76 H 4.7063 3.52781 -1.58375 0
M  V30 77 H 6.3953 3.53059 -2.00261 0
M  V30 78 H 7.1613 2.40073 -4.21414 0
M  V30 79 H 3.0403 3.21854 -3.30047 0
M  V30 80 H 6.5843 2.23299 -6.60896 0
M  V30 81 H 2.4813 3.054 -5.68684 0
M  V30 82 H 3.2493 2.68967 -7.73045 0
M  V30 83 N 5.9124 1.20967 1.01018 0
M  V30 84 C 7.1594 1.02374 1.74716 0
M  V30 85 C 7.4874 -0.443375 1.89379 0
M  V30 86 O 6.7424 -1.34535 1.42123 0
M  V30 87 C 7.0414 1.65997 3.16512 0
M  V30 88 C 6.7074 3.15831 3.2181 0
M  V30 89 C 5.3694 3.56719 3.22963 0
M  V30 90 C 7.7214 4.11816 3.19464 0
M  V30 91 C 5.0494 4.92107 3.19449 0
M  V30 92 C 7.4014 5.47158 3.17491 0
M  V30 93 C 6.0654 5.87451 3.16951 0
M  V30 94 H 5.3354 0.374614 0.639332 0
M  V30 95 H 7.9824 1.50485 1.18434 0
M  V30 96 H 6.2874 1.10166 3.75993 0
M  V30 97 H 7.9844 1.49119 3.72242 0
M  V30 98 H 4.5744 2.83263 3.21652 0
M  V30 99 H 8.7584 3.81257 3.17737 0
M  V30 100 H 4.0144 5.22579 3.17366 0
M  V30 101 H 8.1884 6.21274 3.14629 0
M  V30 102 H 5.8154 6.92329 3.13983 0
M  V30 103 N 7.3905 -1.2043 1.01659 0
M  V30 104 C 8.8065 -1.41852 0.731442 0
M  V30 105 C 9.0065 -1.89358 -0.688898 0
M  V30 106 O 8.0625 -2.06247 -1.45666 0
M  V30 107 C 9.3755 -2.44019 1.75714 0
M  V30 108 C 10.9235 -2.57785 1.77527 0
M  V30 109 C 11.3985 -3.63194 2.79023 0
M  V30 110 N 12.8895 -3.70678 2.77763 0
M  V30 111 C 13.6245 -4.51897 3.52954 0
M  V30 112 N 13.1205 -5.36921 4.37821 0
M  V30 113 N 14.9135 -4.4643 3.41551 0
M  V30 114 H 7.0645 -0.879093 1.93354 0
M  V30 115 H 9.3275 -0.448425 0.835236 0
M  V30 116 H 9.0335 -2.1611 2.77469 0
M  V30 117 H 8.9075 -3.43007 1.56927 0
M  V30 118 H 11.2945 -2.85023 0.764569 0
M  V30 119 H 11.3755 -1.58992 2.00387 0
M  V30 120 H 11.0195 -3.36699 3.80258 0
M  V30 121 H 10.9495 -4.61609 2.53425 0
M  V30 122 H 13.4405 -3.09944 2.16201 0
M  V30 123 H 13.7535 -5.95981 4.91962 0
M  V30 124 H 12.0985 -5.36424 4.41899 0
M  V30 125 H 15.2895 -3.79042 2.74672 0
M  V30 126 H 15.4625 -5.09491 4.00404 0
M  V30 127 N 8.8686 -0.792821 -1.36206 0
M  V30 128 C 9.8156 -0.191653 -2.30003 0
M  V30 129 C 10.7856 0.666453 -1.52143 0
M  V30 130 O 11.9706 0.61442 -1.80636 0
M  V30 131 C 9.1106 0.664848 -3.38635 0
M  V30 132 C 8.2236 -0.212175 -4.31479 0
M  V30 133 C 7.3586 0.651022 -5.27196 0
M  V30 134 C 6.3976 -0.227247 -6.11678 0
M  V30 135 N 5.5346 0.595127 -6.99573 0
M  V30 136 H 10.3746 -0.996978 -2.80828 0
M  V30 137 H 7.9116 -0.503206 -1.38225 0
M  V30 138 H 9.8696 1.17645 -4.00269 0
M  V30 139 H 8.4996 1.43557 -2.89122 0
M  V30 140 H 7.5516 -0.841777 -3.70969 0
M  V30 141 H 8.8636 -0.888751 -4.90818 0
M  V30 142 H 8.0176 1.2283 -5.94136 0
M  V30 143 H 6.7566 1.36121 -4.68319 0
M  V30 144 H 5.7616 -0.816904 -5.43697 0
M  V30 145 H 6.9866 -0.93509 -6.72631 0
M  V30 146 H 4.9326 1.28955 -6.432 0
M  V30 147 H 4.8496 -0.0236952 -7.55996 0
M  V30 148 H 6.1176 1.15613 -7.70879 0
M  V30 149 N 10.3467 1.47872 -0.545128 0
M  V30 150 C 11.2767 2.32661 0.197793 0
M  V30 151 C 12.2577 1.43041 0.920504 0
M  V30 152 O 13.4427 1.71912 0.90333 0
M  V30 153 C 10.5727 3.24569 1.23582 0
M  V30 154 C 9.5267 4.23333 0.630323 0
M  V30 155 C 8.8527 5.0448 1.77211 0
M  V30 156 C 10.1527 5.20704 -0.407974 0
M  V30 157 H 11.8467 2.95024 -0.510045 0
M  V30 158 H 9.3927 1.4187 -0.246731 0
M  V30 159 H 11.3457 3.8272 1.76362 0
M  V30 160 H 10.0697 2.60236 1.97344 0
M  V30 161 H 8.7287 3.6639 0.123922 0
M  V30 162 H 8.3767 4.36561 2.49847 0
M  V30 163 H 8.0767 5.71339 1.37281 0
M  V30 164 H 9.6007 5.65487 2.3034 0
M  V30 165 H 11.0147 5.7329 0.033305 0
M  V30 166 H 9.4117 5.95699 -0.725486 0
M  V30 167 H 10.4817 4.66917 -1.30828 0
M  V30 168 N 11.8248 0.280983 1.55075 0
M  V30 169 C 13.0708 -0.327573 2.00745 0
M  V30 170 C 13.4258 -1.53045 1.16598 0
M  V30 171 O 12.7188 -1.90221 0.229451 0
M  V30 172 C 12.9128 -0.754656 3.49342 0
M  V30 173 C 12.7418 0.40529 4.4787 0
M  V30 174 C 11.5118 0.890947 4.97383 0
M  V30 175 C 13.7098 1.24371 4.99035 0
M  V30 176 N 11.6918 2.01975 5.79724 0
M  V30 177 C 13.0628 2.22031 5.7888 0
M  V30 178 C 15.1178 1.27638 4.81262 0
M  V30 179 C 13.8208 3.22709 6.42846 0
M  V30 180 C 15.8468 2.27164 5.46031 0
M  V30 181 C 15.2088 3.23556 6.25692 0
M  V30 182 H 11.3078 -0.0848774 0.77738 0
M  V30 183 H 13.8918 0.406342 1.90413 0
M  V30 184 H 12.0628 -1.45778 3.60005 0
M  V30 185 H 13.7948 -1.34105 3.81835 0
M  V30 186 H 10.5498 0.469262 4.71269 0
M  V30 187 H 10.9738 2.58794 6.25584 0
M  V30 188 H 15.6158 0.544936 4.19274 0
M  V30 189 H 13.3338 3.96784 7.0398 0
M  V30 190 H 16.9198 2.30441 5.34217 0
M  V30 191 H 15.7998 3.99309 6.74924 0
M  V30 192 N 13.3029 -1.57598 0.00835791 0
M  V30 193 C 14.2329 -2.1198 -0.979113 0
M  V30 194 C 15.2139 -1.03091 -1.35301 0
M  V30 195 O 16.3989 -1.30818 -1.43528 0
M  V30 196 C 13.5289 -2.62995 -2.26828 0
M  V30 197 C 12.4829 -3.76485 -2.03576 0
M  V30 198 C 11.8089 -4.13846 -3.38579 0
M  V30 199 C 13.1089 -5.0342 -1.39161 0
M  V30 200 H 14.8029 -2.94738 -0.526281 0
M  V30 201 H 12.3489 -1.41783 -0.251704 0
M  V30 202 H 14.3019 -2.99669 -2.96271 0
M  V30 203 H 13.0259 -1.7737 -2.7424 0
M  V30 204 H 11.6849 -3.40217 -1.36557 0
M  V30 205 H 11.3329 -3.25232 -3.83709 0
M  V30 206 H 11.0329 -4.90312 -3.23834 0
M  V30 207 H 12.5569 -4.53086 -4.09323 0
M  V30 208 H 13.9709 -5.37812 -1.98573 0
M  V30 209 H 12.3679 -5.84746 -1.34878 0
M  V30 210 H 13.4379 -4.83548 -0.361868 0
M  V30 211 N 14.781 0.264519 -1.55364 0
M  V30 212 C 16.009 1.013 -1.80405 0
M  V30 213 C 16.424 1.79618 -0.581622 0
M  V30 214 O 15.781 1.76879 0.449468 0
M  V30 215 C 15.832 1.96487 -3.03439 0
M  V30 216 O 15.553 1.21341 -4.20961 0
M  V30 217 C 17.054 2.83079 -3.41147 0
M  V30 218 H 14.274 0.298875 -0.600762 0
M  V30 219 H 16.818 0.292736 -2.02394 0
M  V30 220 H 14.973 2.63965 -2.83551 0
M  V30 221 H 15.387 1.85573 -4.90574 0
M  V30 222 H 16.861 3.4565 -4.30384 0
M  V30 223 H 17.338 3.53286 -2.60932 0
M  V30 224 H 17.944 2.2108 -3.63323 0
M  V30 225 N 16.2591 1.48442 0.529413 0
M  V30 226 C 17.2071 1.63452 1.65487 0
M  V30 227 C 18.2011 0.500955 1.61823 0
M  V30 228 O 19.4071 0.679695 1.66674 0
M  V30 229 H 15.7821 0.514905 0.548066 0
M  V30 230 H 17.7531 2.57975 1.49971 0
M  V30 231 C 16.5021 1.69196 3.03756 0
M  V30 232 H 15.8251 2.55784 3.07269 0
M  V30 233 H 17.2651 1.83743 3.82119 0
M  V30 234 C 15.7241 0.430765 3.34135 0
M  V30 235 O 16.2541 -0.4561 3.99102 0
M  V30 236 N 14.4601 0.302293 2.89023 0
M  V30 237 H 14.0071 1.02496 2.36331 0
M  V30 238 H 13.9651 -0.540546 3.09718 0
M  V30 239 N 17.7372 -0.778329 1.37039 0
M  V30 240 C 18.6672 -1.90546 1.34962 0
M  V30 241 C 19.6482 -1.68681 0.219274 0
M  V30 242 O 20.8332 -1.89634 0.418624 0
M  V30 243 C 17.9632 -3.27734 1.14925 0
M  V30 244 C 16.9172 -3.64147 2.24902 0
M  V30 245 C 16.2432 -4.99806 1.89996 0
M  V30 246 C 17.5432 -3.71579 3.67051 0
M  V30 247 H 19.2372 -1.92541 2.29277 0
M  V30 248 H 16.7832 -0.924948 1.10366 0
M  V30 249 H 18.7362 -4.06215 1.12104 0
M  V30 250 H 17.4602 -3.26154 0.170631 0
M  V30 251 H 16.1192 -2.8797 2.26868 0
M  V30 252 H 15.7672 -4.94759 0.906796 0
M  V30 253 H 15.4672 -5.25139 2.63634 0
M  V30 254 H 16.9912 -5.80694 1.88749 0
M  V30 255 H 18.4052 -4.40227 3.67251 0
M  V30 256 H 16.8022 -4.08405 4.39688 0
M  V30 257 H 17.8722 -2.72404 4.01154 0
M  V30 258 N 19.2153 -1.21501 -1.00376 0
M  V30 259 C 20.4623 -1.03299 -1.74171 0
M  V30 260 C 20.7903 0.433326 -1.89612 0
M  V30 261 O 20.0453 1.33779 -1.42834 0
M  V30 262 C 20.3443 -1.67673 -3.15627 0
M  V30 263 C 20.0103 -3.17533 -3.2013 0
M  V30 264 C 18.6723 -3.58427 -3.21067 0
M  V30 265 C 21.0243 -4.13504 -3.17275 0
M  V30 266 C 18.3523 -4.93794 -3.16835 0
M  V30 267 C 20.7043 -5.48834 -3.14585 0
M  V30 268 C 19.3683 -5.89123 -3.13831 0
M  V30 269 H 18.6383 -0.377999 -0.637336 0
M  V30 270 H 21.2853 -1.51111 -1.17634 0
M  V30 271 H 19.5903 -1.12158 -3.75404 0
M  V30 272 H 21.2873 -1.51091 -3.71446 0
M  V30 273 H 17.8773 -2.84965 -3.20145 0
M  V30 274 H 22.0613 -3.82936 -3.15711 0
M  V30 275 H 17.3173 -5.24255 -3.1459 0
M  V30 276 H 21.4913 -6.22934 -3.1133 0
M  V30 277 H 19.1183 -6.93984 -3.10307 0
M  V30 278 N 20.6934 1.19889 -1.02296 0
M  V30 279 C 21.6234 2.25141 -0.619174 0
M  V30 280 C 22.6044 1.66051 0.368915 0
M  V30 281 O 23.7894 1.92546 0.252941 0
M  V30 282 C 20.9194 3.4728 0.0368783 0
M  V30 283 C 19.8734 4.19005 -0.872865 0
M  V30 284 C 19.1994 5.34637 -0.0822402 0
M  V30 285 C 20.4994 4.74452 -2.18387 0
M  V30 286 H 22.1934 2.59171 -1.49903 0
M  V30 287 H 19.7394 1.24579 -0.722222 0
M  V30 288 H 21.6924 4.20098 0.330958 0
M  V30 289 H 20.4164 3.12433 0.95149 0
M  V30 290 H 19.0754 3.48061 -1.15105 0
M  V30 291 H 18.7234 4.96034 0.83422 0
M  V30 292 H 18.4234 5.83557 -0.688149 0
M  V30 293 H 19.9474 6.10255 0.205238 0
M  V30 294 H 21.3614 5.39055 -1.95172 0
M  V30 295 H 19.7584 5.33834 -2.74119 0
M  V30 296 H 20.8284 3.92844 -2.84257 0
M  V30 297 N 22.1715 0.800033 1.35784 0
M  V30 298 C 23.4195 0.376597 1.9856 0
M  V30 299 C 23.7405 -1.05812 1.63795 0
M  V30 300 O 23.0105 -1.73103 0.917171 0
M  V30 301 H 21.5905 0.136261 0.734467 0
M  V30 302 H 24.2525 1.02442 1.65806 0
M  V30 303 H 23.3485 0.477002 3.08433 0
M  V30 304 N 23.6496 -1.47581 0.552962 0
M  V30 305 C 24.8976 -2.02082 0.0272703 0
M  V30 306 C 25.2186 -1.4301 -1.32563 0
M  V30 307 O 24.4886 -0.603745 -1.86365 0
M  V30 308 H 23.0686 -0.746966 0.00709182 0
M  V30 309 H 25.7306 -1.81033 0.722008 0
M  V30 310 H 24.8266 -3.12034 -0.0639951 0
M  V30 311 N 25.1277 -0.289203 -1.54924 0
M  V30 312 C 26.0907 0.579144 -2.21762 0
M  V30 313 C 27.0907 1.07047 -1.1999 0
M  V30 314 O 28.2807 0.968384 -1.44803 0
M  V30 315 C 25.4127 1.80055 -2.8947 0
M  V30 316 H 26.6057 -0.00464908 -2.999 0
M  V30 317 H 24.1587 -0.0399306 -1.56249 0
M  V30 318 H 24.8937 2.42449 -2.15381 0
M  V30 319 H 24.6787 1.45602 -3.64064 0
M  V30 320 H 26.1687 2.41773 -3.40493 0
M  V30 321 N 26.6058 1.57591 -0.0167156 0
M  V30 322 C 27.5358 2.12496 0.967858 0
M  V30 323 C 28.5168 1.03807 1.34752 0
M  V30 324 O 29.7018 1.31577 1.42833 0
M  V30 325 C 26.8318 2.64194 2.25431 0
M  V30 326 C 25.7858 3.77559 2.01576 0
M  V30 327 C 25.1118 4.15636 3.36379 0
M  V30 328 C 26.4118 5.04151 1.36489 0
M  V30 329 H 28.1058 2.95013 0.510643 0
M  V30 330 H 25.6518 1.41915 0.244181 0
M  V30 331 H 27.6048 3.01236 2.94678 0
M  V30 332 H 26.3288 1.78821 2.73296 0
M  V30 333 H 24.9878 3.40937 1.34751 0
M  V30 334 H 24.6358 3.27263 3.81979 0
M  V30 335 H 24.3358 4.92022 3.21229 0
M  V30 336 H 25.8598 4.5525 4.06915 0
M  V30 337 H 27.2738 5.38857 1.95718 0
M  V30 338 H 25.6708 5.85453 1.31776 0
M  V30 339 H 26.7408 4.83733 0.336219 0
M  V30 340 N 28.0839 -0.256276 1.55502 0
M  V30 341 C 29.0469 -1.30047 1.88734 0
M  V30 342 C 30.0469 -1.4154 0.763086 0
M  V30 343 O 31.2369 -1.40403 1.03115 0
M  V30 344 C 28.3689 -2.67953 2.10747 0
M  V30 345 H 29.5619 -1.01802 2.82093 0
M  V30 346 H 27.1149 -0.495134 1.4825 0
M  V30 347 H 27.8499 -3.01351 1.19825 0
M  V30 348 H 27.6349 -2.60993 2.92617 0
M  V30 349 H 29.1249 -3.43368 2.37673 0
M  V30 350 N 29.562 -1.4872 -0.521534 0
M  V30 351 C 30.787 -1.61101 -1.30618 0
M  V30 352 C 31.212 -0.274611 -1.86085 0
M  V30 353 O 30.57 0.754937 -1.64834 0
M  V30 354 C 30.618 -2.66709 -2.4269 0
M  V30 355 O 29.722 -2.24456 -3.45967 0
M  V30 356 H 29.063 -0.539921 -0.386499 0
M  V30 357 H 31.593 -1.94767 -0.626645 0
M  V30 358 H 31.603 -2.88245 -2.88754 0
M  V30 359 H 30.278 -3.63727 -2.01682 0
M  V30 360 H 28.855 -2.13168 -3.05964 0
M  V30 361 N 31.0401 0.771051 -1.3745 0
M  V30 362 C 32.2651 1.56529 -1.36065 0
M  V30 363 C 32.6901 1.88029 0.0515859 0
M  V30 364 O 32.0481 1.49282 1.02882 0
M  V30 365 C 32.0961 2.85187 -2.20683 0
M  V30 366 O 31.2001 3.79593 -1.61193 0
M  V30 367 H 30.5411 0.47411 -0.464883 0
M  V30 368 H 33.0711 0.954269 -1.80983 0
M  V30 369 H 33.0811 3.34283 -2.33921 0
M  V30 370 H 31.7561 2.61588 -3.23334 0
M  V30 371 H 30.3331 3.38239 -1.56999 0
M  V30 372 N 32.5182 1.22032 0.997298 0
M  V30 373 C 33.4812 0.987909 2.06816 0
M  V30 374 C 34.4812 -0.0440084 1.6074 0
M  V30 375 O 35.6712 0.194053 1.73116 0
M  V30 376 C 32.8032 0.49132 3.37341 0
M  V30 377 H 33.9962 1.93803 2.28868 0
M  V30 378 H 31.5492 1.03838 1.16822 0
M  V30 379 H 32.2842 -0.463364 3.20973 0
M  V30 380 H 32.0692 1.23575 3.72118 0
M  V30 381 H 33.5592 0.348824 4.16141 0
M  V30 382 N 33.9963 -1.19345 1.0293 0
M  V30 383 C 34.9593 -2.20793 0.615069 0
M  V30 384 C 35.9593 -1.57553 -0.321533 0
M  V30 385 O 37.1493 -1.73862 -0.108483 0
M  V30 386 C 34.2813 -3.40754 -0.0999222 0
M  V30 387 H 35.4743 -2.58955 1.51269 0
M  V30 388 H 33.0273 -1.3303 0.820534 0
M  V30 389 H 33.7623 -3.0811 -1.01187 0
M  V30 390 H 33.5473 -3.87889 0.57309 0
M  V30 391 H 35.0373 -4.15898 -0.376645 0
M  V30 392 N 35.4744 -0.807222 -1.35358 0
M  V30 393 C 36.7234 -0.384376 -1.98004 0
M  V30 394 C 37.0364 1.0543 -1.64754 0
M  V30 395 O 38.2424 1.58029 -2.20769 0
M  V30 396 C 36.6984 -0.636326 -3.5423 0
M  V30 397 C 36.3064 -2.08759 -3.96388 0
M  V30 398 C 38.0504 -0.278869 -4.23583 0
M  V30 399 C 35.9574 -2.28525 -5.45463 0
M  V30 400 H 34.8874 -0.139986 -0.740891 0
M  V30 401 H 37.5384 -0.991369 -1.54415 0
M  V30 402 H 35.9204 0.0406256 -3.95979 0
M  V30 403 H 37.0944 -2.8024 -3.6579 0
M  V30 404 H 35.4094 -2.40497 -3.39926 0
M  V30 405 H 38.0064 -0.404599 -5.33167 0
M  V30 406 H 38.3494 0.775012 -4.09022 0
M  V30 407 H 38.8824 -0.909764 -3.87257 0
M  V30 408 H 35.6214 -3.32361 -5.64992 0
M  V30 409 H 35.1414 -1.61569 -5.77629 0
M  V30 410 H 36.8204 -2.10109 -6.11934 0
M  V30 411 N 36.9525 1.47285 -0.560781 0
M  V30 412 C 38.2005 2.02064 -0.0379868 0
M  V30 413 C 38.5215 1.43711 1.31803 0
M  V30 414 O 37.7915 0.61362 1.86042 0
M  V30 415 H 36.3715 0.746918 -0.0110531 0
M  V30 416 H 39.0335 1.80648 -0.731598 0
M  V30 417 H 38.1295 3.12064 0.0474463 0
M  V30 418 N 38.4306 0.297415 1.54768 0
M  V30 419 C 39.3936 -0.567375 2.22066 0
M  V30 420 C 40.3936 -1.06409 1.20556 0
M  V30 421 O 41.5836 -0.960691 1.45315 0
M  V30 422 C 38.7156 -1.78517 2.90421 0
M  V30 423 H 39.9086 0.0205534 2.99893 0
M  V30 424 H 37.4616 0.0482163 1.56226 0
M  V30 425 H 38.1966 -2.41303 2.16664 0
M  V30 426 H 37.9816 -1.43669 3.64831 0
M  V30 427 H 39.4716 -2.39964 3.41771 0
M  V30 428 N 39.9087 -1.5758 0.0250728 0
M  V30 429 C 41.1547 -1.91917 -0.655413 0
M  V30 430 C 41.4877 -0.901433 -1.72011 0
M  V30 431 O 40.7627 0.0764069 -1.9435 0
M  V30 432 C 41.0457 -3.36751 -1.27558 0
M  V30 433 C 40.8987 -4.49258 -0.220719 0
M  V30 434 C 42.2177 -3.81469 -2.19475 0
M  V30 435 H 39.3367 -0.697925 -0.23679 0
M  V30 436 H 41.9787 -1.89825 0.0815036 0
M  V30 437 H 40.1287 -3.38664 -1.90365 0
M  V30 438 H 41.8007 -4.59478 0.409601 0
M  V30 439 H 40.0437 -4.31415 0.454264 0
M  V30 440 H 40.7147 -5.47618 -0.694175 0
M  V30 441 H 43.1907 -3.81266 -1.66659 0
M  V30 442 H 42.0667 -4.83512 -2.59822 0
M  V30 443 H 42.3277 -3.16744 -3.08424 0
M  V30 444 N 41.3868 0.248026 -1.55636 0
M  V30 445 C 42.6118 0.998028 -1.81808 0
M  V30 446 C 43.0368 1.78207 -0.601979 0
M  V30 447 O 42.3948 1.75653 0.448961 0
M  V30 448 C 42.4428 1.9125 -3.05705 0
M  V30 449 O 41.5468 3.00406 -2.82542 0
M  V30 450 H 40.8878 0.284045 -0.600179 0
M  V30 451 H 43.4178 0.269357 -2.02819 0
M  V30 452 H 43.4278 2.32737 -3.35108 0
M  V30 453 H 42.1028 1.33602 -3.93857 0
M  V30 454 H 40.6798 2.63056 -2.64303 0
M  V30 455 N 42.8649 1.48995 0.513639 0
M  V30 456 C 44.2759 1.5119 1.09537 0
M  V30 457 C 44.6269 0.290906 1.94031 0
M  V30 458 O 43.7519 -0.60049 2.07902 0
M  V30 459 C 44.3469 2.73964 1.99322 0
M  V30 460 C 42.9059 2.78978 2.52682 0
M  V30 461 C 42.0529 2.44934 1.30009 0
M  V30 462 H 45.0039 1.55875 0.298125 0
M  V30 463 H 45.0249 2.53409 2.83838 0
M  V30 464 H 44.5369 3.62813 1.37799 0
M  V30 465 H 42.6379 1.94378 3.1788 0
M  V30 466 H 42.7509 3.8083 2.90698 0
M  V30 467 H 41.1149 1.9644 1.62122 0
M  V30 468 H 41.8979 3.36043 0.702131 0
M  V30 469 N 44.343 -0.763751 1.37857 0
M  V30 470 C 45.29 -1.87726 1.34267 0
M  V30 471 C 46.26 -1.64807 0.206879 0
M  V30 472 O 47.445 -1.86613 0.397508 0
M  V30 473 C 44.585 -3.24896 1.16346 0
M  V30 474 C 43.698 -3.59716 2.39225 0
M  V30 475 C 42.833 -4.86137 2.14114 0
M  V30 476 C 41.872 -5.13711 3.32817 0
M  V30 477 N 41.009 -6.31323 3.07206 0
M  V30 478 H 45.849 -1.90129 2.29466 0
M  V30 479 H 43.386 -0.929433 1.14017 0
M  V30 480 H 45.344 -4.04036 1.03975 0
M  V30 481 H 43.974 -3.21847 0.247909 0
M  V30 482 H 43.026 -2.75498 2.62307 0
M  V30 483 H 44.338 -3.76027 3.27728 0
M  V30 484 H 43.492 -5.73198 1.9882 0
M  V30 485 H 42.231 -4.71945 1.22961 0
M  V30 486 H 41.236 -4.25123 3.48641 0
M  V30 487 H 42.461 -5.29807 4.24832 0
M  V30 488 H 40.407 -6.18474 2.1869 0
M  V30 489 H 40.324 -6.48087 3.89254 0
M  V30 490 H 41.592 -7.213 2.95546 0
M  V30 491 N 45.8211 -1.22559 -0.990812 0
M  V30 492 C 47.0491 -1.07779 -1.76611 0
M  V30 493 C 47.4641 0.371513 -1.85109 0
M  V30 494 O 46.8211 1.25737 -1.32274 0
M  V30 495 C 46.8721 -1.68512 -3.19822 0
M  V30 496 O 46.5931 -3.07774 -3.1178 0
M  V30 497 C 48.0941 -1.59035 -4.13791 0
M  V30 498 H 45.3141 -0.377729 -0.554583 0
M  V30 499 H 47.8581 -1.62195 -1.24551 0
M  V30 500 H 46.0131 -1.18154 -3.68942 0
M  V30 501 H 46.4271 -3.37062 -4.01858 0
M  V30 502 H 47.9011 -2.0625 -5.1202 0
M  V30 503 H 48.3781 -0.547273 -4.35777 0
M  V30 504 H 48.9841 -2.08709 -3.70568 0
M  V30 505 N 47.2992 1.18797 -1.03562 0
M  V30 506 C 48.5292 1.92319 -0.754773 0
M  V30 507 C 48.9372 1.7612 0.691248 0
M  V30 508 O 48.2802 1.08491 1.48241 0
M  V30 509 C 48.3422 3.44284 -1.03484 0
M  V30 510 C 48.0062 3.84258 -2.47376 0
M  V30 511 C 49.0032 3.88459 -3.45537 0
M  V30 512 C 46.6882 4.15701 -2.81954 0
M  V30 513 C 48.6822 4.23545 -4.76328 0
M  V30 514 C 46.3692 4.50458 -4.12954 0
M  V30 515 C 47.3672 4.54356 -5.09951 0
M  V30 516 O 47.0552 4.88305 -6.38603 0
M  V30 517 H 46.7872 0.617527 -0.275021 0
M  V30 518 H 49.3412 1.51683 -1.38497 0
M  V30 519 H 47.5712 3.85135 -0.347513 0
M  V30 520 H 49.2602 3.99049 -0.7426 0
M  V30 521 H 50.0262 3.6431 -3.20162 0
M  V30 522 H 45.9052 4.11847 -2.0713 0
M  V30 523 H 49.4492 4.26502 -5.52035 0
M  V30 524 H 45.3462 4.74067 -4.38099 0
M  V30 525 H 46.1142 5.06227 -6.43177 0
M  V30 526 N 48.7773 0.814389 1.34928 0
M  V30 527 C 49.7243 0.22822 2.29669 0
M  V30 528 C 50.6943 -0.642164 1.53184 0
M  V30 529 O 51.8793 -0.585605 1.81591 0
M  V30 530 C 49.0193 -0.61089 3.3965 0
M  V30 531 C 48.1323 0.280792 4.31086 0
M  V30 532 C 47.2673 -0.567067 5.28165 0
M  V30 533 C 46.3063 0.324531 6.11239 0
M  V30 534 N 45.4433 -0.483756 7.00431 0
M  V30 535 H 50.2833 1.04153 2.79206 0
M  V30 536 H 47.8203 0.525133 1.37407 0
M  V30 537 H 49.7783 -1.11263 4.0209 0
M  V30 538 H 48.4083 -1.38939 2.91369 0
M  V30 539 H 47.4603 0.900688 3.69583 0
M  V30 540 H 48.7723 0.966723 4.89342 0
M  V30 541 H 47.9263 -1.13363 5.96015 0
M  V30 542 H 46.6653 -1.28654 4.70425 0
M  V30 543 H 45.6703 0.903298 5.42329 0
M  V30 544 H 46.8953 1.04198 6.71059 0
M  V30 545 H 44.8413 -1.18706 6.45171 0
M  V30 546 H 44.7583 0.143965 7.55863 0
M  V30 547 H 46.0263 -1.03334 7.7262 0
M  V30 548 N 50.2554 -1.46986 0.568584 0
M  V30 549 C 51.5324 -1.95592 -0.0174074 0
M  V30 550 C 51.9124 -1.51124 -1.47393 0
M  V30 551 O 51.2604 -0.755329 -2.15655 0
M  V30 552 C 51.4704 -3.48719 0.139913 0
M  V30 553 C 52.8184 -4.246 0.000426376 0
M  V30 554 O 53.8424 -3.56135 0.0680316 0
M  V30 555 O 52.7014 -5.46302 -0.146988 0
M  V30 556 H 49.7954 -0.82498 -0.0577599 0
M  V30 557 H 52.3414 -1.57335 0.635909 0
M  V30 558 H 51.1134 -3.73927 1.15301 0
M  V30 559 H 50.7364 -3.93771 -0.550491 0
M  V30 560 N 51.7335 -0.305618 -1.54608 0
M  V30 561 C 52.6965 0.555591 -2.22364 0
M  V30 562 C 53.6965 1.05768 -1.21119 0
M  V30 563 O 54.8865 0.952972 -1.45822 0
M  V30 564 C 52.0185 1.76974 -2.91364 0
M  V30 565 H 53.2115 -0.0364572 -2.99878 0
M  V30 566 H 50.7645 -0.0565007 -1.56198 0
M  V30 567 H 51.4995 2.40151 -2.17941 0
M  V30 568 H 51.2845 1.41732 -3.65588 0
M  V30 569 H 52.7745 2.38148 -3.43038 0
M  V30 570 N 53.2116 1.57565 -0.0334293 0
M  V30 571 C 54.4886 1.83282 0.683163 0
M  V30 572 C 54.8686 0.91823 1.90084 0
M  V30 573 O 54.2166 -0.025113 2.28486 0
M  V30 574 C 54.4266 3.32599 1.0573 0
M  V30 575 C 55.7746 3.99179 1.44711 0
M  V30 576 O 56.7986 3.3712 1.15015 0
M  V30 577 O 55.6576 5.08565 2.0006 0
M  V30 578 H 52.7516 0.755869 0.335546 0
M  V30 579 H 55.2976 1.69589 -0.0614402 0
M  V30 580 H 54.0696 3.90834 0.190828 0
M  V30 581 H 53.6926 3.51415 1.85993 0
M  V30 582 N 54.6897 -0.239769 1.55765 0
M  V30 583 C 55.9367 -0.966801 1.7793 0
M  V30 584 C 56.2647 -1.85046 0.599015 0
M  V30 585 O 55.5197 -1.91197 -0.417395 0
M  V30 586 C 55.8187 -1.852 3.05672 0
M  V30 587 C 55.4847 -1.1231 4.36689 0
M  V30 588 C 54.1467 -0.921689 4.72291 0
M  V30 589 C 56.4987 -0.607019 5.17653 0
M  V30 590 C 53.8267 -0.191996 5.86386 0
M  V30 591 C 56.1787 0.109241 6.32506 0
M  V30 592 C 54.8427 0.322073 6.66723 0
M  V30 593 H 54.1127 -0.353778 0.651093 0
M  V30 594 H 56.7597 -0.23634 1.90036 0
M  V30 595 H 55.0647 -2.64975 2.8861 0
M  V30 596 H 56.7617 -2.41635 3.20021 0
M  V30 597 H 53.3517 -1.29004 4.08725 0
M  V30 598 H 57.5357 -0.750153 4.90598 0
M  V30 599 H 52.7917 -0.0166949 6.11398 0
M  V30 600 H 56.9657 0.516737 6.9448 0
M  V30 601 H 54.5927 0.88944 7.54979 0
M  V30 602 N 56.1678 -1.49265 -0.50573 0
M  V30 603 C 57.3978 -1.61979 -1.28243 0
M  V30 604 C 57.8058 -0.288576 -1.86986 0
M  V30 605 O 57.1488 0.735408 -1.68337 0
M  V30 606 C 57.2108 -2.62632 -2.45489 0
M  V30 607 C 56.8748 -4.071 -2.07651 0
M  V30 608 C 57.8718 -4.94049 -1.61901 0
M  V30 609 C 55.5568 -4.52801 -2.17431 0
M  V30 610 C 57.5508 -6.24736 -1.26428 0
M  V30 611 C 55.2378 -5.83503 -1.8157 0
M  V30 612 C 56.2358 -6.69294 -1.36142 0
M  V30 613 O 55.9238 -7.9756 -1.00764 0
M  V30 614 H 55.6558 -0.54834 -0.395347 0
M  V30 615 H 58.2098 -1.96002 -0.614204 0
M  V30 616 H 56.4398 -2.2378 -3.15372 0
M  V30 617 H 58.1288 -2.64925 -3.07522 0
M  V30 618 H 58.8948 -4.5997 -1.53795 0
M  V30 619 H 54.7738 -3.86196 -2.51742 0
M  V30 620 H 58.3178 -6.91652 -0.908992 0
M  V30 621 H 54.2148 -6.17112 -1.89324 0
M  V30 622 H 54.9828 -8.10529 -1.13952 0
M  V30 623 N 57.6459 0.756429 -1.3826 0
M  V30 624 C 58.8919 1.51772 -1.34511 0
M  V30 625 C 59.2249 1.94089 0.0656691 0
M  V30 626 O 58.4999 1.65221 1.02626 0
M  V30 627 C 58.7829 2.77226 -2.29821 0
M  V30 628 C 58.6359 2.41065 -3.79747 0
M  V30 629 C 59.9549 3.79236 -2.23312 0
M  V30 630 H 57.0739 0.550578 -0.489931 0
M  V30 631 H 59.7159 0.866607 -1.69086 0
M  V30 632 H 57.8659 3.32784 -2.00467 0
M  V30 633 H 59.5379 1.91303 -4.19763 0
M  V30 634 H 57.7809 1.7356 -3.97567 0
M  V30 635 H 58.4519 3.3081 -4.41892 0
M  V30 636 H 60.9279 3.3321 -2.49219 0
M  V30 637 H 59.8039 4.64714 -2.92116 0
M  V30 638 H 60.0649 4.24615 -1.23102 0
M  V30 639 N 59.124 1.23083 0.984299 0
M  V30 640 C 60.087 1.00979 2.05757 0
M  V30 641 C 61.087 -0.0269573 1.60777 0
M  V30 642 O 62.277 0.212403 1.729 0
M  V30 643 C 59.409 0.527072 3.36801 0
M  V30 644 H 60.602 1.9622 2.26799 0
M  V30 645 H 58.155 1.05072 1.15714 0
M  V30 646 H 58.89 -0.429294 3.21446 0
M  V30 647 H 58.675 1.27515 3.70786 0
M  V30 648 H 60.165 0.392942 4.15747 0
M  V30 649 N 60.6021 -1.18246 1.0419 0
M  V30 650 C 62.0131 -1.69914 0.773698 0
M  V30 651 C 62.3641 -1.83085 -0.705297 0
M  V30 652 O 61.4891 -1.51123 -1.5489 0
M  V30 653 C 62.0841 -3.08619 1.39784 0
M  V30 654 C 60.6431 -3.57494 1.17792 0
M  V30 655 C 59.7901 -2.34013 1.48773 0
M  V30 656 H 62.7411 -1.02904 1.20816 0
M  V30 657 H 62.7621 -3.71958 0.801714 0
M  V30 658 H 62.2741 -2.99001 2.47426 0
M  V30 659 H 60.3751 -3.72406 0.120295 0
M  V30 660 H 60.4881 -4.40852 1.87581 0
M  V30 661 H 58.8521 -2.37986 0.907463 0
M  V30 662 H 59.6351 -2.27013 2.57527 0
M  V30 663 N 62.0802 -0.821533 -1.34494 0
M  V30 664 C 63.3082 -0.421884 -2.02553 0
M  V30 665 C 63.7232 0.971745 -1.61872 0
M  V30 666 O 63.0802 1.62864 -0.823496 0
M  V30 667 C 63.1312 -0.51285 -3.57844 0
M  V30 668 O 62.8522 -1.85155 -3.97051 0
M  V30 669 C 64.3532 -0.107921 -4.43169 0
M  V30 670 H 61.5732 -0.169482 -0.649243 0
M  V30 671 H 64.1172 -1.1093 -1.71798 0
M  V30 672 H 62.2722 0.126474 -3.87193 0
M  V30 673 H 62.6862 -1.82482 -4.91732 0
M  V30 674 H 64.1602 -0.222657 -5.51551 0
M  V30 675 H 64.6372 0.948401 -4.28838 0
M  V30 676 H 65.2432 -0.720989 -4.19144 0
M  V30 677 N 63.5583 1.46682 -0.576371 0
M  V30 678 C 64.4903 2.28341 0.198231 0
M  V30 679 C 65.5033 1.38141 0.861453 0
M  V30 680 O 66.6923 1.62797 0.732082 0
M  V30 681 C 63.7923 3.12986 1.29972 0
M  V30 682 C 62.9653 4.31271 0.729639 0
M  V30 683 C 62.0243 4.97363 1.71803 0
M  V30 684 O 61.0503 5.55156 1.25658 0
M  V30 685 N 62.2523 4.93796 3.05198 0
M  V30 686 H 65.0173 2.9546 -0.502324 0
M  V30 687 H 62.5783 1.56525 -0.413715 0
M  V30 688 H 64.5703 3.54066 1.96008 0
M  V30 689 H 63.1403 2.47984 1.90323 0
M  V30 690 H 62.3603 3.94052 -0.108012 0
M  V30 691 H 63.6483 5.07739 0.328438 0
M  V30 692 H 63.0463 4.48077 3.45317 0
M  V30 693 H 61.6033 5.38837 3.6674 0
M  V30 694 N 65.0364 0.313813 1.54444 0
M  V30 695 C 65.9684 -0.590425 2.21465 0
M  V30 696 C 66.9814 -1.08753 1.21147 0
M  V30 697 O 68.1704 -1.00278 1.4767 0
M  V30 698 C 65.2704 -1.82179 2.85769 0
M  V30 699 C 64.4434 -1.46502 4.12136 0
M  V30 700 C 63.5024 -2.55288 4.60124 0
M  V30 701 O 62.5284 -2.19842 5.25032 0
M  V30 702 N 63.7304 -3.86053 4.33525 0
M  V30 703 H 66.4954 -0.0166033 2.99695 0
M  V30 704 H 64.0564 0.136578 1.61323 0
M  V30 705 H 66.0484 -2.54328 3.14801 0
M  V30 706 H 64.6184 -2.30369 2.11303 0
M  V30 707 H 63.8384 -0.575595 3.89975 0
M  V30 708 H 65.1264 -1.20221 4.94393 0
M  V30 709 H 64.5244 -4.17654 3.81552 0
M  V30 710 H 63.0814 -4.54461 4.67235 0
M  V30 711 N 66.5145 -1.57545 0.0417849 0
M  V30 712 C 67.7915 -1.83642 -0.673433 0
M  V30 713 C 68.1715 -0.928298 -1.89594 0
M  V30 714 O 67.5195 0.0129955 -2.28496 0
M  V30 715 C 67.7295 -3.33155 -1.03964 0
M  V30 716 C 69.0775 -3.99941 -1.42592 0
M  V30 717 O 70.1015 -3.37725 -1.13226 0
M  V30 718 O 68.9605 -5.09619 -1.9736 0
M  V30 719 H 66.0545 -0.757638 -0.331533 0
M  V30 720 H 68.6005 -1.69554 0.070433 0
M  V30 721 H 67.3725 -3.9093 -0.170098 0
M  V30 722 H 66.9955 -3.52396 -1.84126 0
M  V30 723 N 67.9926 0.231505 -1.5589 0
M  V30 724 C 69.2386 0.95877 -1.78705 0
M  V30 725 C 69.5716 1.8438 -0.609725 0
M  V30 726 O 68.8466 1.90521 0.391426 0
M  V30 727 C 69.1296 1.8062 -3.11526 0
M  V30 728 C 68.9826 0.948328 -4.39689 0
M  V30 729 C 70.3016 2.78585 -3.40703 0
M  V30 730 H 67.4206 0.347129 -0.650131 0
M  V30 731 H 70.0626 0.228259 -1.88624 0
M  V30 732 H 68.2126 2.42902 -3.03201 0
M  V30 733 H 69.8846 0.343016 -4.60023 0
M  V30 734 H 68.1276 0.253314 -4.3306 0
M  V30 735 H 68.7986 1.57543 -5.29041 0
M  V30 736 H 71.2746 2.26439 -3.49091 0
M  V30 737 H 70.1506 3.34988 -4.34826 0
M  V30 738 H 70.4116 3.55825 -2.62375 0
M  V30 739 N 69.4707 1.49531 0.497807 0
M  V30 740 C 70.4187 1.66926 1.61983 0
M  V30 741 C 71.4127 0.535167 1.60724 0
M  V30 742 O 72.6187 0.714896 1.65195 0
M  V30 743 H 68.9937 0.526415 0.537021 0
M  V30 744 H 70.9647 2.61098 1.44465 0
M  V30 745 C 69.7137 1.75602 3.00099 0
M  V30 746 H 69.0367 2.62244 3.01775 0
M  V30 747 H 70.4767 1.91807 3.78135 0
M  V30 748 C 68.9357 0.501543 3.33146 0
M  V30 749 O 69.4657 -0.371342 3.9998 0
M  V30 750 N 67.6717 0.363531 2.88317 0
M  V30 751 H 67.2187 1.07485 2.34104 0
M  V30 752 H 67.1767 -0.474728 3.10795 0
M  V30 753 N 70.9488 -0.749086 1.3866 0
M  V30 754 C 72.1788 -1.53611 1.38157 0
M  V30 755 C 72.5868 -1.89177 -0.0293595 0
M  V30 756 O 71.9298 -1.53606 -1.00752 0
M  V30 757 C 71.9918 -2.86087 2.17702 0
M  V30 758 C 71.6558 -2.73034 3.66472 0
M  V30 759 C 72.6528 -2.42526 4.59866 0
M  V30 760 C 70.3378 -2.90345 4.09884 0
M  V30 761 C 72.3318 -2.29492 5.94653 0
M  V30 762 C 70.0188 -2.7693 5.4475 0
M  V30 763 C 71.0168 -2.46547 6.36949 0
M  V30 764 O 70.7048 -2.33199 7.69333 0
M  V30 765 H 70.4368 -0.481773 0.474205 0
M  V30 766 H 72.9908 -0.934465 1.82912 0
M  V30 767 H 71.2208 -3.48458 1.67672 0
M  V30 768 H 72.9098 -3.47625 2.09551 0
M  V30 769 H 73.6758 -2.28816 4.27631 0
M  V30 770 H 69.5548 -3.1299 3.38464 0
M  V30 771 H 73.0988 -2.05698 6.66584 0
M  V30 772 H 68.9958 -2.90215 5.76581 0
M  V30 773 H 69.7638 -2.48376 7.79905 0
M  V30 774 N 72.4269 -1.23603 -0.977757 0
M  V30 775 C 73.7039 -0.977897 -1.69401 0
M  V30 776 C 74.0839 0.502738 -2.05026 0
M  V30 777 O 73.4319 1.47459 -1.74551 0
M  V30 778 C 73.6419 -1.89077 -2.93345 0
M  V30 779 C 74.9899 -2.15579 -3.65802 0
M  V30 780 O 76.0139 -1.86648 -3.03383 0
M  V30 781 O 74.8729 -2.64658 -4.78141 0
M  V30 782 H 71.9669 -0.369025 -0.740101 0
M  V30 783 H 74.5129 -1.34657 -1.03274 0
M  V30 784 H 73.2849 -2.89158 -2.63634 0
M  V30 785 H 72.9079 -1.52463 -3.67207 0
M  V30 786 N 73.905 1.17692 -1.04816 0
M  V30 787 C 74.835 2.23777 -0.666791 0
M  V30 788 C 75.816 1.66796 0.33361 0
M  V30 789 O 77.001 1.93039 0.212042 0
M  V30 790 C 74.131 3.47281 -0.0367933 0
M  V30 791 C 73.085 4.17059 -0.961546 0
M  V30 792 C 72.411 5.34342 -0.195626 0
M  V30 793 C 73.711 4.69713 -2.28402 0
M  V30 794 H 75.405 2.55933 -1.55367 0
M  V30 795 H 72.951 1.23019 -0.748484 0
M  V30 796 H 74.904 4.20706 0.241775 0
M  V30 797 H 73.628 3.14381 0.885004 0
M  V30 798 H 72.287 3.45541 -1.22462 0
M  V30 799 H 71.935 4.97692 0.728816 0
M  V30 800 H 71.635 5.81966 -0.811775 0
M  V30 801 H 73.159 6.10553 0.0757473 0
M  V30 802 H 74.573 5.34794 -2.06563 0
M  V30 803 H 72.97 5.279 -2.8538 0
M  V30 804 H 74.04 3.86726 -2.92525 0
M  V30 805 N 75.3831 0.828654 1.34056 0
M  V30 806 C 76.6291 0.42008 1.98402 0
M  V30 807 C 76.9621 -1.01564 1.65525 0
M  V30 808 O 76.2371 -1.70834 0.929831 0
M  V30 809 C 76.5201 0.62927 3.54559 0
M  V30 810 C 76.3731 2.11152 3.97159 0
M  V30 811 C 77.6921 0.0688756 4.40046 0
M  V30 812 H 74.8111 0.154104 0.720709 0
M  V30 813 H 77.4531 1.04228 1.5886 0
M  V30 814 H 75.6031 0.0996418 3.88372 0
M  V30 815 H 77.2751 2.70522 3.73651 0
M  V30 816 H 75.5181 2.59985 3.47261 0
M  V30 817 H 76.1891 2.20868 5.05887 0
M  V30 818 H 78.6651 0.521458 4.1282 0
M  V30 819 H 77.5411 0.245006 5.48353 0
M  V30 820 H 77.8021 -1.0266 4.30015 0
M  V30 821 N 76.8612 -1.46375 0.584142 0
M  V30 822 C 78.1382 -1.956 0.0033388 0
M  V30 823 C 78.5182 -1.52679 -1.45782 0
M  V30 824 O 77.8662 -0.77816 -2.14842 0
M  V30 825 C 78.0762 -3.48551 0.176891 0
M  V30 826 C 79.4242 -4.24576 0.0454609 0
M  V30 827 O 80.4482 -3.56043 0.105801 0
M  V30 828 O 79.3072 -5.46427 -0.0890376 0
M  V30 829 H 76.4012 -0.825547 -0.0490066 0
M  V30 830 H 78.9472 -1.56652 0.65256 0
M  V30 831 H 77.7192 -3.72683 1.1926 0
M  V30 832 H 77.3422 -3.94332 -0.508695 0
M  V30 833 N 78.3393 -0.321999 -1.54275 0
M  V30 834 C 79.6163 0.335232 -1.92706 0
M  V30 835 C 79.9963 1.70006 -1.25145 0
M  V30 836 O 79.3443 2.25067 -0.394596 0
M  V30 837 C 79.5543 0.429008 -3.46353 0
M  V30 838 C 80.9023 0.690029 -4.18956 0
M  V30 839 O 81.9263 0.511992 -3.52501 0
M  V30 840 O 80.7853 1.03338 -5.36641 0
M  V30 841 H 77.8793 0.191143 -0.804608 0
M  V30 842 H 80.4253 -0.3716 -1.65581 0
M  V30 843 H 79.1973 -0.529611 -3.87699 0
M  V30 844 H 78.8203 1.18348 -3.79578 0
M  V30 845 N 79.8174 1.5752 -0.0501392 0
M  V30 846 C 81.0644 1.9265 0.623874 0
M  V30 847 C 81.3924 0.928411 1.70912 0
M  V30 848 O 80.6474 -0.0594525 1.9561 0
M  V30 849 C 80.9464 3.34467 1.25963 0
M  V30 850 C 80.6124 4.49883 0.302689 0
M  V30 851 C 79.2744 4.81184 0.0393636 0
M  V30 852 C 81.6264 5.20002 -0.353205 0
M  V30 853 C 78.9544 5.79951 -0.887308 0
M  V30 854 C 81.3064 6.1976 -1.26806 0
M  V30 855 C 79.9704 6.49491 -1.54007 0
M  V30 856 H 79.2404 0.704957 0.228292 0
M  V30 857 H 81.8874 1.91146 -0.116398 0
M  V30 858 H 80.1924 3.32333 2.07514 0
M  V30 859 H 81.8894 3.58928 1.78806 0
M  V30 860 H 78.4794 4.25457 0.518109 0
M  V30 861 H 82.6634 4.96033 -0.162854 0
M  V30 862 H 77.9194 6.01322 -1.10553 0
M  V30 863 H 82.0934 6.73205 -1.78236 0
M  V30 864 H 79.7204 7.25837 -2.25976 0
M  V30 865 N 81.2955 -0.223234 1.56011 0
M  V30 866 C 82.5435 -0.946003 1.78592 0
M  V30 867 C 82.8645 -1.84936 0.618349 0
M  V30 868 O 82.1345 -1.92473 -0.364833 0
M  V30 869 H 80.7145 -0.352298 0.658707 0
M  V30 870 H 83.3765 -0.235494 1.93472 0
M  V30 871 H 82.4725 -1.55381 2.70672 0
M  V30 872 N 82.7736 -1.49793 -0.48987 0
M  V30 873 C 83.7366 -1.66752 -1.57246 0
M  V30 874 C 84.7366 -0.538867 -1.51502 0
M  V30 875 O 85.9266 -0.805545 -1.54456 0
M  V30 876 C 83.0586 -1.67528 -2.96896 0
M  V30 877 H 84.2516 -2.63321 -1.43534 0
M  V30 878 H 81.8046 -1.38992 -0.714914 0
M  V30 879 H 82.5396 -0.725837 -3.16073 0
M  V30 880 H 82.3246 -2.49504 -3.02473 0
M  V30 881 H 83.8146 -1.82667 -3.7553 0
M  V30 882 N 84.2517 0.741722 -1.39055 0
M  V30 883 C 85.1997 1.87702 -1.3737 0
M  V30 884 C 86.1937 1.67427 -0.257812 0
M  V30 885 O 87.3997 1.7485 -0.427489 0
M  V30 886 H 83.7747 0.617757 -0.428812 0
M  V30 887 H 85.7457 1.86239 -2.33147 0
M  V30 888 C 84.4947 3.25315 -1.22741 0
M  V30 889 H 83.8177 3.41509 -2.07873 0
M  V30 890 H 85.2577 4.04964 -1.25618 0
M  V30 891 C 83.7167 3.36838 0.0647316 0
M  V30 892 O 84.2467 3.88073 1.03741 0
M  V30 893 N 82.4527 2.90329 0.125544 0
M  V30 894 H 81.9997 2.48823 -0.666682 0
M  V30 895 H 81.9577 2.98418 0.989639 0
M  V30 896 N 85.7298 1.2412 0.971189 0
M  V30 897 C 86.9778 1.07668 1.71032 0
M  V30 898 C 87.2988 -0.385797 1.91146 0
M  V30 899 O 86.5688 -1.27569 1.4867 0
M  V30 900 H 85.1488 0.395429 0.633755 0
M  V30 901 H 87.8108 1.55984 1.16855 0
M  V30 902 H 86.9068 1.57195 2.69622 0
M  V30 903 N 87.2079 -1.17134 1.05439 0
M  V30 904 C 88.1559 -2.23289 0.651511 0
M  V30 905 C 89.1499 -1.66186 -0.328411 0
M  V30 906 O 90.3559 -1.78949 -0.194206 0
M  V30 907 H 86.7309 -0.726938 0.192523 0
M  V30 908 H 88.7019 -2.54565 1.55689 0
M  V30 909 C 87.4509 -3.47671 0.0448436 0
M  V30 910 H 86.7739 -3.91918 0.78996 0
M  V30 911 H 88.2139 -4.2353 -0.19964 0
M  V30 912 C 86.6729 -3.14453 -1.20918 0
M  V30 913 O 87.2029 -3.29459 -2.29825 0
M  V30 914 N 85.4089 -2.68657 -1.10779 0
M  V30 915 H 84.9559 -2.56646 -0.221526 0
M  V30 916 H 84.9139 -2.46804 -1.9477 0
M  V30 917 N 88.686 -0.835752 -1.33615 0
M  V30 918 C 89.963 -0.352017 -1.92406 0
M  V30 919 C 90.343 1.16225 -1.76224 0
M  V30 920 O 89.691 1.97526 -1.14873 0
M  V30 921 C 89.901 -0.795485 -3.39813 0
M  V30 922 C 91.249 -0.801703 -4.16963 0
M  V30 923 O 92.273 -0.738889 -3.48452 0
M  V30 924 O 91.132 -0.886607 -5.3926 0
M  V30 925 H 88.226 -0.0989641 -0.821057 0
M  V30 926 H 90.772 -0.921397 -1.42507 0
M  V30 927 H 89.544 -1.83795 -3.45449 0
M  V30 928 H 89.167 -0.202505 -3.97084 0
M  V30 929 N 90.1641 1.46063 -0.591896 0
M  V30 930 C 91.3921 2.06717 -0.0868936 0
M  V30 931 C 91.8071 1.43916 1.22203 0
M  V30 932 O 91.1641 0.547698 1.74088 0
M  V30 933 C 91.2151 3.6142 0.0758725 0
M  V30 934 O 90.9361 4.21874 -1.18126 0
M  V30 935 C 92.4371 4.39025 0.61416 0
M  V30 936 H 89.6571 0.668162 -0.0616518 0
M  V30 937 H 92.2011 1.8755 -0.815175 0
M  V30 938 H 90.3561 3.79983 0.754413 0
M  V30 939 H 90.7701 5.14861 -1.00092 0
M  V30 940 H 92.2441 5.4783 0.677193 0
M  V30 941 H 92.7211 4.07708 1.63312 0
M  V30 942 H 93.3271 4.2529 -0.0298142 0
M  V30 943 N 91.6422 0.330177 1.54103 0
M  V30 944 C 92.8672 -0.274893 2.0557 0
M  V30 945 C 93.2922 -1.44487 1.20437 0
M  V30 946 O 92.6502 -1.80021 0.214991 0
M  V30 947 C 92.6982 -0.68079 3.54115 0
M  V30 948 O 91.8022 -1.7824 3.71893 0
M  V30 949 H 91.1432 -0.0483849 0.662235 0
M  V30 950 H 93.6732 0.480508 1.98878 0
M  V30 951 H 93.6832 -0.961635 3.96505 0
M  V30 952 H 92.3582 0.174903 4.15532 0
M  V30 953 H 90.9352 -1.49985 3.41407 0
M  V30 954 N 93.1203 -1.57491 0.0584922 0
M  V30 955 C 94.3973 -1.84346 -0.653918 0
M  V30 956 C 94.7773 -0.948355 -1.88599 0
M  V30 957 O 94.1253 -0.0112403 -2.28497 0
M  V30 958 C 94.3353 -3.34239 -1.00425 0
M  V30 959 C 95.6833 -4.01431 -1.38342 0
M  V30 960 O 96.7073 -3.38907 -1.09637 0
M  V30 961 O 95.5663 -5.11683 -1.91943 0
M  V30 962 H 92.6603 -0.761112 -0.323478 0
M  V30 963 H 95.2063 -1.6947 0.0884125 0
M  V30 964 H 93.9783 -3.91089 -0.128625 0
M  V30 965 H 93.6013 -3.54329 -1.80378 0
M  V30 966 N 94.5984 0.214957 -1.56127 0
M  V30 967 C 95.8754 0.963093 -1.70247 0
M  V30 968 C 96.2554 2.02166 -0.60764 0
M  V30 969 O 95.6034 2.25244 0.384385 0
M  V30 970 C 95.8134 1.56756 -3.11815 0
M  V30 971 C 97.1614 2.0573 -3.7143 0
M  V30 972 O 98.1854 1.66637 -3.14818 0
M  V30 973 O 97.0444 2.77603 -4.70743 0
M  V30 974 H 94.1384 0.450321 -0.693643 0
M  V30 975 H 96.6844 0.206219 -1.68442 0
M  V30 976 H 95.4564 0.803533 -3.82961 0
M  V30 977 H 95.0794 2.3898 -3.17765 0
M  V30 978 N 96.0765 1.50051 0.48192 0
M  V30 979 C 97.3015 1.64508 1.26301 0
M  V30 980 C 97.7265 0.323851 1.85291 0
M  V30 981 O 97.0845 -0.710969 1.66778 0
M  V30 982 C 97.1325 2.7305 2.35533 0
M  V30 983 O 96.2365 2.3355 3.39895 0
M  V30 984 H 95.5775 0.549978 0.372048 0
M  V30 985 H 98.1075 1.9636 0.574786 0
M  V30 986 H 98.1175 2.95799 2.8101 0
M  V30 987 H 96.7925 3.68946 1.91967 0
M  V30 988 H 95.3695 2.21205 3.00204 0
M  V30 989 N 97.5546 -0.734337 1.39446 0
M  V30 990 C 98.5026 -1.86971 1.38364 0
M  V30 991 C 99.4966 -1.67288 0.266687 0
M  V30 992 O 100.703 -1.74621 0.436755 0
M  V30 993 H 97.0776 -0.615474 0.432082 0
M  V30 994 H 99.0486 -1.85 2.34132 0
M  V30 995 C 97.7976 -3.2466 1.24465 0
M  V30 996 H 97.1206 -3.40402 2.09682 0
M  V30 997 H 98.5606 -4.04292 1.27764 0
M  V30 998 C 97.0196 -3.36867 -0.0468674 0
M  V30 999 O 97.5496 -3.88618 -1.01681 0
M  V30 1000 N 95.7556 -2.90391 -0.110145 0
M  V30 1001 H 95.3026 -2.48466 0.679868 0
M  V30 1002 H 95.2606 -2.98939 -0.973799 0
M  V30 1003 N 99.0327 -1.24633 -0.964593 0
M  V30 1004 C 99.9957 -1.0424 -2.04124 0
M  V30 1005 C 100.996 0.00137563 -1.608 0
M  V30 1006 O 102.186 -0.239883 -1.7254 0
M  V30 1007 C 99.3177 -0.580588 -3.3592 0
M  V30 1008 H 100.511 -1.99803 -2.23649 0
M  V30 1009 H 98.0637 -1.06899 -1.14027 0
M  V30 1010 H 98.7987 0.3781 -3.22088 0
M  V30 1011 H 98.5837 -1.33398 -3.6871 0
M  V30 1012 H 100.074 -0.459034 -4.15069 0
M  V30 1013 N 100.511 1.16574 -1.06058 0
M  V30 1014 C 101.441 2.23057 -0.690488 0
M  V30 1015 C 102.422 1.67141 0.315901 0
M  V30 1016 O 103.607 1.93253 0.191556 0
M  V30 1017 C 100.737 3.47222 -0.073625 0
M  V30 1018 C 99.6908 4.16016 -1.00573 0
M  V30 1019 C 99.0168 5.34104 -0.252289 0
M  V30 1020 C 100.317 4.67264 -2.33371 0
M  V30 1021 H 102.011 2.54271 -1.58072 0
M  V30 1022 H 99.5568 1.22218 -0.76149 0
M  V30 1023 H 101.51 4.20939 0.19714 0
M  V30 1024 H 100.234 3.15302 0.85161 0
M  V30 1025 H 98.8928 3.44223 -1.2612 0
M  V30 1026 H 98.5408 4.98437 0.675988 0
M  V30 1027 H 98.2408 5.81072 -0.873455 0
M  V30 1028 H 99.7648 6.10599 0.0109857 0
M  V30 1029 H 101.179 5.32573 -2.12223 0
M  V30 1030 H 99.5758 5.24843 -2.90963 0
M  V30 1031 H 100.646 3.83602 -2.96611 0
M  V30 1032 N 101.989 0.842826 1.3317 0
M  V30 1033 C 102.921 0.236245 2.27979 0
M  V30 1034 C 103.934 -0.585282 1.51915 0
M  V30 1035 O 105.123 -0.411705 1.73687 0
M  V30 1036 C 102.223 -0.685717 3.3189 0
M  V30 1037 C 101.396 0.0973448 4.37292 0
M  V30 1038 C 100.455 -0.748565 5.20848 0
M  V30 1039 O 99.4809 -0.186339 5.68895 0
M  V30 1040 N 100.683 -2.06527 5.42519 0
M  V30 1041 H 103.448 1.05088 2.80672 0
M  V30 1042 H 101.009 0.701667 1.45905 0
M  V30 1043 H 103.001 -1.25669 3.84694 0
M  V30 1044 H 101.571 -1.40105 2.79445 0
M  V30 1045 H 100.791 0.849706 3.84933 0
M  V30 1046 H 102.079 0.635643 5.04814 0
M  V30 1047 H 101.477 -2.54554 5.05192 0
M  V30 1048 H 100.034 -2.58464 5.98364 0
M  V30 1049 N 103.467 -1.45747 0.599634 0
M  V30 1050 C 104.883 -1.57424 0.26264 0
M  V30 1051 C 105.083 -1.59222 -1.23493 0
M  V30 1052 O 104.139 -1.51825 -2.01756 0
M  V30 1053 C 105.452 -2.86061 0.926795 0
M  V30 1054 C 107 -2.99722 0.901967 0
M  V30 1055 C 107.475 -4.31119 1.54598 0
M  V30 1056 N 108.966 -4.37858 1.5111 0
M  V30 1057 C 109.701 -5.3818 1.97863 0
M  V30 1058 N 109.197 -6.45083 2.52666 0
M  V30 1059 N 110.99 -5.29487 1.88679 0
M  V30 1060 H 103.141 -1.42823 1.57211 0
M  V30 1061 H 105.404 -0.68235 0.658105 0
M  V30 1062 H 105.11 -2.90605 1.98095 0
M  V30 1063 H 104.984 -3.74563 0.445238 0
M  V30 1064 H 107.371 -2.9475 -0.143617 0
M  V30 1065 H 107.452 -2.12652 1.42171 0
M  V30 1066 H 107.096 -4.36849 2.59085 0
M  V30 1067 H 107.026 -5.16992 1.00132 0
M  V30 1068 H 109.517 -3.61209 1.11068 0
M  V30 1069 H 109.83 -7.17869 2.86155 0
M  V30 1070 H 108.175 -6.45856 2.56701 0
M  V30 1071 H 111.366 -4.44877 1.4561 0
M  V30 1072 H 111.539 -6.07524 2.25429 0
M  V30 1073 N 104.945 -0.338344 -1.53925 0
M  V30 1074 C 105.908 0.508299 -2.23493 0
M  V30 1075 C 106.908 1.03175 -1.23335 0
M  V30 1076 O 108.098 0.921826 -1.47811 0
M  V30 1077 C 105.23 1.70754 -2.95052 0
M  V30 1078 H 106.423 -0.100058 -2.99733 0
M  V30 1079 H 103.976 -0.0896198 -1.56043 0
M  V30 1080 H 104.711 2.35474 -2.22986 0
M  V30 1081 H 104.496 1.33946 -3.68512 0
M  V30 1082 H 105.986 2.30818 -3.48013 0
M  V30 1083 N 106.423 1.57458 -0.0668435 0
M  V30 1084 C 107.672 1.92477 0.602947 0
M  V30 1085 C 107.985 0.948419 1.71068 0
M  V30 1086 O 109.191 1.19124 2.43971 0
M  V30 1087 C 107.647 3.41903 1.12383 0
M  V30 1088 C 107.255 4.47975 0.04737 0
M  V30 1089 C 108.999 3.85931 1.76797 0
M  V30 1090 C 106.906 5.88529 0.582022 0
M  V30 1091 H 105.836 0.718387 0.22899 0
M  V30 1092 H 108.487 1.82978 -0.138276 0
M  V30 1093 H 106.869 3.46459 1.91787 0
M  V30 1094 H 108.043 4.55029 -0.726978 0
M  V30 1095 H 106.358 4.13384 -0.500243 0
M  V30 1096 H 108.955 4.88322 2.17821 0
M  V30 1097 H 109.298 3.23029 2.62599 0
M  V30 1098 H 109.831 3.83958 1.04024 0
M  V30 1099 H 106.57 6.55065 -0.238721 0
M  V30 1100 H 106.09 5.85004 1.324 0
M  V30 1101 H 107.769 6.38258 1.05999 0
M  V30 1102 N 107.901 -0.206675 1.56239 0
M  V30 1103 C 108.849 -1.27571 1.94495 0
M  V30 1104 C 109.843 -1.47737 0.828862 0
M  V30 1105 O 111.049 -1.48735 1.0138 0
M  V30 1106 H 107.424 -0.428029 0.6183 0
M  V30 1107 H 109.395 -0.925961 2.8367 0
M  V30 1108 C 108.144 -2.61568 2.29079 0
M  V30 1109 H 107.467 -2.46863 3.14482 0
M  V30 1110 H 108.907 -3.35144 2.5972 0
M  V30 1111 C 107.366 -3.17695 1.12123 0
M  V30 1112 O 107.896 -3.99801 0.390153 0
M  V30 1113 N 106.102 -2.76276 0.901097 0
M  V30 1114 H 105.649 -2.09613 1.49733 0
M  V30 1115 H 105.607 -3.1417 0.120319 0
M  V30 1116 N 109.379 -1.50304 -0.473955 0
M  V30 1117 C 110.342 -1.6841 -1.55469 0
M  V30 1118 C 111.342 -0.554905 -1.50922 0
M  V30 1119 O 112.532 -0.821882 -1.53593 0
M  V30 1120 C 109.664 -1.70667 -2.95102 0
M  V30 1121 H 110.857 -2.64828 -1.40733 0
M  V30 1122 H 108.41 -1.39742 -0.700132 0
M  V30 1123 H 109.145 -0.75932 -3.15285 0
M  V30 1124 H 108.93 -2.52698 -2.9981 0
M  V30 1125 H 110.42 -1.8664 -3.73571 0
M  V30 1126 N 110.857 0.726932 -1.39834 0
M  V30 1127 C 112.106 1.48214 -1.36805 0
M  V30 1128 C 112.419 1.95576 0.0305291 0
M  V30 1129 O 113.625 2.7088 0.183417 0
M  V30 1130 C 112.081 2.67854 -2.40379 0
M  V30 1131 C 111.689 2.27408 -3.85992 0
M  V30 1132 C 113.433 3.45641 -2.46439 0
M  V30 1133 C 111.34 3.43819 -4.81189 0
M  V30 1134 H 110.27 0.556606 -0.508631 0
M  V30 1135 H 112.921 0.792216 -1.65518 0
M  V30 1136 H 111.303 3.3896 -2.04749 0
M  V30 1137 H 112.477 1.63795 -4.30706 0
M  V30 1138 H 110.792 1.62692 -3.83302 0
M  V30 1139 H 113.389 4.32244 -3.14753 0
M  V30 1140 H 113.732 3.88669 -1.49139 0
M  V30 1141 H 114.265 2.8157 -2.81004 0
M  V30 1142 H 111.004 3.05834 -5.79781 0
M  V30 1143 H 110.524 4.06385 -4.41148 0
M  V30 1144 H 112.203 4.10043 -5.00474 0
M  V30 1145 N 112.336 1.25143 0.95797 0
M  V30 1146 C 113.561 1.12521 1.74223 0
M  V30 1147 C 113.986 -0.317402 1.85403 0
M  V30 1148 O 113.344 -1.2299 1.33204 0
M  V30 1149 C 113.392 1.78062 3.1357 0
M  V30 1150 O 112.496 1.058 3.98598 0
M  V30 1151 H 111.837 0.39304 0.535178 0
M  V30 1152 H 114.367 1.65641 1.201 0
M  V30 1153 H 114.377 1.84213 3.64046 0
M  V30 1154 H 113.052 2.83021 3.04749 0
M  V30 1155 H 111.629 1.07506 3.57067 0
M  V30 1156 N 113.814 -1.1601 1.06675 0
M  V30 1157 C 115.23 -1.38622 0.790948 0
M  V30 1158 C 115.43 -1.92109 -0.607965 0
M  V30 1159 O 114.486 -2.12239 -1.36787 0
M  V30 1160 C 115.799 -2.36347 1.85905 0
M  V30 1161 C 117.347 -2.50023 1.88301 0
M  V30 1162 C 117.822 -3.51033 2.94176 0
M  V30 1163 N 119.313 -3.58563 2.93235 0
M  V30 1164 C 120.048 -4.36521 3.71803 0
M  V30 1165 N 119.544 -5.17869 4.602 0
M  V30 1166 N 121.337 -4.31541 3.60178 0
M  V30 1167 H 113.488 -0.796294 1.96908 0
M  V30 1168 H 115.751 -0.412597 0.853503 0
M  V30 1169 H 115.457 -2.04147 2.86386 0
M  V30 1170 H 115.331 -3.36042 1.71334 0
M  V30 1171 H 117.718 -2.81524 0.884769 0
M  V30 1172 H 117.799 -1.5035 2.06951 0
M  V30 1173 H 117.443 -3.20268 3.94196 0
M  V30 1174 H 117.373 -4.50445 2.72776 0
M  V30 1175 H 119.864 -3.00496 2.29152 0
M  V30 1176 H 120.177 -5.74578 5.16797 0
M  V30 1177 H 118.522 -5.17199 4.64253 0
M  V30 1178 H 121.713 -3.67051 2.90502 0
M  V30 1179 H 121.886 -4.9205 4.21653 0
M  V30 1180 N 115.292 -0.849877 -1.32721 0
M  V30 1181 C 116.239 -0.289033 -2.28983 0
M  V30 1182 C 117.209 0.601324 -1.54833 0
M  V30 1183 O 118.394 0.537253 -1.8308 0
M  V30 1184 C 115.534 0.520623 -3.4115 0
M  V30 1185 C 114.647 -0.394989 -4.3019 0
M  V30 1186 C 113.782 0.426834 -5.29482 0
M  V30 1187 C 112.821 -0.486476 -6.10164 0
M  V30 1188 N 111.958 0.297879 -7.01468 0
M  V30 1189 H 116.798 -1.11519 -2.76347 0
M  V30 1190 H 114.335 -0.56138 -1.35967 0
M  V30 1191 H 116.293 1.00563 -4.04899 0
M  V30 1192 H 114.923 1.31165 -2.9495 0
M  V30 1193 H 113.975 -0.99836 -3.67065 0
M  V30 1194 H 115.287 -1.09612 -4.86607 0
M  V30 1195 H 114.441 0.975205 -5.98811 0
M  V30 1196 H 113.18 1.16136 -4.73671 0
M  V30 1197 H 112.185 -1.04677 -5.39743 0
M  V30 1198 H 113.41 -1.21953 -6.6806 0
M  V30 1199 H 111.356 1.01558 -6.48091 0
M  V30 1200 H 111.273 -0.344318 -7.55216 0
M  V30 1201 H 112.541 0.828131 -7.75089 0
M  V30 1202 N 116.77 1.45427 -0.607355 0
M  V30 1203 C 118.181 1.85756 -0.187535 0
M  V30 1204 C 118.532 1.5077 1.25551 0
M  V30 1205 O 117.657 0.93427 1.95193 0
M  V30 1206 C 118.252 3.37154 -0.333572 0
M  V30 1207 C 116.811 3.76387 0.0315542 0
M  V30 1208 C 115.958 2.69377 -0.658117 0
M  V30 1209 H 118.909 1.36231 -0.81405 0
M  V30 1210 H 118.93 3.78014 0.43428 0
M  V30 1211 H 118.442 3.62586 -1.38393 0
M  V30 1212 H 116.543 3.56571 1.0811 0
M  V30 1213 H 116.656 4.77731 -0.361935 0
M  V30 1214 H 115.02 2.5452 -0.0957873 0
M  V30 1215 H 115.803 2.97646 -1.7106 0
M  V30 1216 N 118.248 0.346503 1.53744 0
M  V30 1217 C 119.196 -0.52422 2.26616 0
M  V30 1218 C 120.19 -1.09948 1.28871 0
M  V30 1219 O 121.396 -1.04488 1.46568 0
M  V30 1220 H 117.771 -0.187743 0.728187 0
M  V30 1221 H 119.742 0.11239 2.98188 0
M  V30 1222 C 118.491 -1.66186 3.05414 0
M  V30 1223 H 117.814 -1.22848 3.80458 0
M  V30 1224 H 119.254 -2.24622 3.59612 0
M  V30 1225 C 117.713 -2.59302 2.1509 0
M  V30 1226 O 118.243 -3.61628 1.74895 0
M  V30 1227 N 116.449 -2.28055 1.8011 0
M  V30 1228 H 115.996 -1.44883 2.12994 0
M  V30 1229 H 115.954 -2.90615 1.19958 0
M  V30 1230 N 119.726 -1.57421 0.075193 0
M  V30 1231 C 120.974 -1.93236 -0.591974 0
M  V30 1232 C 121.295 -0.956241 -1.69944 0
M  V30 1233 O 120.565 -0.00494792 -1.95899 0
M  V30 1234 H 119.145 -0.713355 -0.22166 0
M  V30 1235 H 121.807 -1.9444 0.133848 0
M  V30 1236 H 120.903 -2.95131 -1.01509 0
M  V30 1237 N 121.204 0.198386 -1.56346 0
M  V30 1238 C 122.452 0.91747 -1.80075 0
M  V30 1239 C 122.773 1.83929 -0.647692 0
M  V30 1240 O 122.043 1.93029 0.334166 0
M  V30 1241 H 120.623 0.341774 -0.664228 0
M  V30 1242 H 123.285 0.204684 -1.93822 0
M  V30 1243 H 122.381 1.51055 -2.7311 0
M  V30 1244 N 122.682 1.50554 0.465978 0
M  V30 1245 C 123.91 1.65563 1.24083 0
M  V30 1246 C 124.325 0.341051 1.85694 0
M  V30 1247 O 123.682 -0.677543 1.69457 0
M  V30 1248 C 123.733 2.75051 2.34583 0
M  V30 1249 O 123.454 4.01413 1.75497 0
M  V30 1250 C 124.955 3.01078 3.25372 0
M  V30 1251 H 122.175 0.55638 0.375077 0
M  V30 1252 H 124.719 1.96807 0.555624 0
M  V30 1253 H 122.874 2.46486 2.9887 0
M  V30 1254 H 123.288 4.62002 2.48303 0
M  V30 1255 H 124.762 3.81339 3.99105 0
M  V30 1256 H 125.239 2.12349 3.84453 0
M  V30 1257 H 125.845 3.31194 2.66816 0
M  V30 1258 N 124.16 -0.719506 1.40217 0
M  V30 1259 C 125.09 -1.8465 1.42922 0
M  V30 1260 C 126.071 -1.67599 0.29062 0
M  V30 1261 O 127.256 -1.87688 0.498677 0
M  V30 1262 C 124.386 -3.22565 1.28722 0
M  V30 1263 C 123.34 -3.54281 2.40144 0
M  V30 1264 C 122.666 -4.91298 2.11023 0
M  V30 1265 C 123.966 -3.55676 3.82481 0
M  V30 1266 H 125.66 -1.82644 2.37237 0
M  V30 1267 H 123.206 -0.877305 1.1419 0
M  V30 1268 H 125.159 -4.01095 1.29232 0
M  V30 1269 H 123.883 -3.25137 0.308811 0
M  V30 1270 H 122.542 -2.78088 2.38877 0
M  V30 1271 H 122.19 -4.90468 1.11582 0
M  V30 1272 H 121.89 -5.13485 2.8567 0
M  V30 1273 H 123.414 -5.72166 2.13209 0
M  V30 1274 H 124.828 -4.24254 3.85592 0
M  V30 1275 H 123.225 -3.89388 4.56614 0
M  V30 1276 H 124.295 -2.55144 4.12346 0
M  V30 1277 N 125.638 -1.25649 -0.95132 0
M  V30 1278 C 126.568 -1.08808 -2.06599 0
M  V30 1279 C 127.549 0.00382547 -1.701 0
M  V30 1280 O 128.734 -0.166325 -1.93486 0
M  V30 1281 C 125.864 -0.709542 -3.39975 0
M  V30 1282 C 124.818 -1.75206 -3.90496 0
M  V30 1283 C 124.144 -1.22811 -5.20405 0
M  V30 1284 C 125.444 -3.15153 -4.16504 0
M  V30 1285 H 127.138 -2.02048 -2.20946 0
M  V30 1286 H 124.684 -0.972835 -1.06169 0
M  V30 1287 H 126.637 -0.578649 -4.17408 0
M  V30 1288 H 125.361 0.258556 -3.25575 0
M  V30 1289 H 124.02 -1.87145 -3.15234 0
M  V30 1290 H 123.668 -0.250145 -5.02378 0
M  V30 1291 H 123.368 -1.92492 -5.55176 0
M  V30 1292 H 124.892 -1.10968 -6.00432 0
M  V30 1293 H 126.306 -3.06349 -4.84586 0
M  V30 1294 H 124.703 -3.82333 -4.62538 0
M  V30 1295 H 125.773 -3.61966 -3.22658 0
M  V30 1296 N 127.117 1.15442 -1.07289 0
M  V30 1297 C 128.366 1.85557 -0.790669 0
M  V30 1298 C 128.679 1.83186 0.685739 0
M  V30 1299 O 129.885 2.48977 1.0827 0
M  V30 1300 C 128.341 3.33038 -1.36433 0
M  V30 1301 C 127.949 3.43856 -2.8717 0
M  V30 1302 C 129.693 4.0834 -1.1601 0
M  V30 1303 C 127.6 4.85482 -3.3773 0
M  V30 1304 H 126.53 0.695122 -0.292098 0
M  V30 1305 H 129.181 1.30219 -1.29287 0
M  V30 1306 H 127.563 3.88043 -0.789864 0
M  V30 1307 H 128.737 2.98961 -3.50655 0
M  V30 1308 H 127.052 2.81998 -3.06376 0
M  V30 1309 H 129.649 5.12859 -1.51262 0
M  V30 1310 H 129.992 4.16182 -0.0991007 0
M  V30 1311 H 130.525 3.59603 -1.70089 0
M  V30 1312 H 127.264 4.82823 -4.43353 0
M  V30 1313 H 126.784 5.30961 -2.78999 0
M  V30 1314 H 128.463 5.54335 -3.33648 0
M  V30 1315 N 128.595 0.856903 1.32268 0
M  V30 1316 C 130.006 0.515711 1.79436 0
M  V30 1317 C 130.357 -0.966586 1.70738 0
M  V30 1318 O 129.482 -1.75409 1.26731 0
M  V30 1319 C 130.077 0.929335 3.25805 0
M  V30 1320 C 128.636 0.640006 3.70919 0
M  V30 1321 C 127.783 1.12784 2.53328 0
M  V30 1322 H 130.734 1.04389 1.19535 0
M  V30 1323 H 130.755 0.246633 3.797 0
M  V30 1324 H 130.267 2.00821 3.32103 0
M  V30 1325 H 128.368 -0.428051 3.70133 0
M  V30 1326 H 128.481 1.20788 4.63624 0
M  V30 1327 H 126.845 0.548033 2.48734 0
M  V30 1328 H 127.628 2.21387 2.62379 0
M  V30 1329 N 130.073 -1.45103 0.615059 0
M  V30 1330 C 131.021 -2.32331 -0.111791 0
M  V30 1331 C 132.015 -1.46409 -0.852102 0
M  V30 1332 O 133.221 -1.62849 -0.766821 0
M  V30 1333 H 129.596 -0.749993 -0.0549072 0
M  V30 1334 H 131.567 -2.91407 0.642225 0
M  V30 1335 C 130.316 -3.3015 -1.09071 0
M  V30 1336 H 129.639 -3.96265 -0.530485 0
M  V30 1337 H 131.079 -3.93898 -1.56908 0
M  V30 1338 C 129.538 -2.57875 -2.168 0
M  V30 1339 O 130.068 -2.36567 -3.24652 0
M  V30 1340 N 128.274 -2.17884 -1.92289 0
M  V30 1341 H 127.821 -2.35413 -1.04587 0
M  V30 1342 H 127.779 -1.6985 -2.64572 0
M  V30 1343 N 131.551 -0.354651 -1.53558 0
M  V30 1344 C 132.799 0.237972 -2.00694 0
M  V30 1345 C 133.12 1.50173 -1.24391 0
M  V30 1346 O 132.39 1.92673 -0.354135 0
M  V30 1347 H 130.97 0.0909256 -0.741446 0
M  V30 1348 H 133.632 -0.478368 -1.88938 0
M  V30 1349 H 132.728 0.47264 -3.085 0
M  V30 1350 N 133.029 1.57378 -0.0835403 0
M  V30 1351 C 134.257 1.98263 0.59157 0
M  V30 1352 C 134.672 0.962302 1.62435 0
M  V30 1353 O 134.029 -0.049581 1.82433 0
M  V30 1354 C 134.08 3.39214 1.24965 0
M  V30 1355 O 133.801 4.37339 0.258186 0
M  V30 1356 C 135.302 3.95038 2.01147 0
M  V30 1357 H 132.522 0.651773 0.159477 0
M  V30 1358 H 135.066 2.03878 -0.159415 0
M  V30 1359 H 133.221 3.34649 1.95164 0
M  V30 1360 H 133.635 5.19371 0.731734 0
M  V30 1361 H 135.109 4.95848 2.42567 0
M  V30 1362 H 135.586 3.32222 2.87272 0
M  V30 1363 H 136.192 4.0304 1.35789 0
M  V30 1364 N 134.507 -0.190092 1.56449 0
M  V30 1365 C 135.737 -0.92443 1.84764 0
M  V30 1366 C 136.145 -1.77146 0.664529 0
M  V30 1367 O 135.488 -1.79812 -0.375957 0
M  V30 1368 C 135.55 -1.86651 3.07248 0
M  V30 1369 C 135.214 -1.20094 4.40938 0
M  V30 1370 C 136.211 -0.575445 5.16706 0
M  V30 1371 C 133.896 -1.2033 4.87674 0
M  V30 1372 C 135.89 0.0388111 6.37388 0
M  V30 1373 C 133.577 -0.585214 6.08291 0
M  V30 1374 C 134.575 0.0347578 6.82991 0
M  V30 1375 O 134.263 0.643147 8.01323 0
M  V30 1376 H 133.995 -0.274974 0.617548 0
M  V30 1377 H 136.549 -0.200788 2.04416 0
M  V30 1378 H 134.779 -2.62998 2.83494 0
M  V30 1379 H 136.468 -2.46907 3.22167 0
M  V30 1380 H 137.234 -0.565728 4.81689 0
M  V30 1381 H 133.113 -1.67526 4.29484 0
M  V30 1382 H 136.657 0.523329 6.95634 0
M  V30 1383 H 132.554 -0.592451 6.42775 0
M  V30 1384 H 133.322 0.540545 8.16713 0
M  V30 1385 N 135.985 -1.50799 -0.457987 0
M  V30 1386 C 136.935 -1.67003 -1.55222 0
M  V30 1387 C 137.919 -0.52434 -1.52117 0
M  V30 1388 O 139.111 -0.779345 -1.58919 0
M  V30 1389 C 136.24 -1.77956 -2.93576 0
M  V30 1390 C 135.326 -2.98243 -3.01516 0
M  V30 1391 N 135.717 -4.21732 -2.79241 0
M  V30 1392 C 134.015 -2.97072 -3.32662 0
M  V30 1393 C 134.716 -5.02817 -2.92489 0
M  V30 1394 N 133.692 -4.37038 -3.23262 0
M  V30 1395 H 137.494 -2.60163 -1.36721 0
M  V30 1396 H 135.008 -1.48163 -0.664952 0
M  V30 1397 H 137.005 -1.87671 -3.72271 0
M  V30 1398 H 135.665 -0.859634 -3.13114 0
M  V30 1399 H 136.676 -4.51016 -2.54567 0
M  V30 1400 H 133.353 -2.14631 -3.58106 0
M  V30 1401 H 134.743 -6.11054 -2.79396 0
M  V30 1402 N 137.463 0.71206 -1.40597 0
M  V30 1403 C 138.71 1.47197 -1.39065 0
M  V30 1404 C 139.038 1.94499 0.00583891 0
M  V30 1405 O 138.293 1.68752 0.99102 0
M  V30 1406 C 138.592 2.71039 -2.32965 0
M  V30 1407 C 138.258 2.42484 -3.80148 0
M  V30 1408 C 136.92 2.34406 -4.20247 0
M  V30 1409 C 139.272 2.18598 -4.73143 0
M  V30 1410 C 136.6 2.00516 -5.51371 0
M  V30 1411 C 138.952 1.8622 -6.0457 0
M  V30 1412 C 137.616 1.76626 -6.43708 0
M  V30 1413 H 136.886 0.538634 -0.508876 0
M  V30 1414 H 139.533 0.815325 -1.73276 0
M  V30 1415 H 137.838 3.41558 -1.91951 0
M  V30 1416 H 139.535 3.29138 -2.29061 0
M  V30 1417 H 136.125 2.49659 -3.4838 0
M  V30 1418 H 140.309 2.23793 -4.42979 0
M  V30 1419 H 135.565 1.91628 -5.80593 0
M  V30 1420 H 139.739 1.66752 -6.76141 0
M  V30 1421 H 137.366 1.50133 -7.45228 0
M  V30 1422 N 138.941 1.26152 0.944643 0
M  V30 1423 C 139.871 1.09902 2.06019 0
M  V30 1424 C 140.852 0.00519538 1.70099 0
M  V30 1425 O 142.037 0.176583 1.93396 0
M  V30 1426 C 139.167 0.727562 3.39594 0
M  V30 1427 C 138.121 1.77274 3.89561 0
M  V30 1428 C 137.447 1.25569 5.19747 0
M  V30 1429 C 138.747 3.17357 4.14827 0
M  V30 1430 H 140.441 2.03217 2.19871 0
M  V30 1431 H 137.987 0.978452 1.05652 0
M  V30 1432 H 139.94 0.600777 4.17095 0
M  V30 1433 H 138.664 -0.241287 3.25707 0
M  V30 1434 H 137.323 1.88814 3.14237 0
M  V30 1435 H 136.971 0.276783 5.02238 0
M  V30 1436 H 136.671 1.95433 5.54148 0
M  V30 1437 H 138.195 1.1415 5.99835 0
M  V30 1438 H 139.609 3.08914 4.82954 0
M  V30 1439 H 138.006 3.84781 4.60504 0
M  V30 1440 H 139.076 3.63673 3.20734 0
M  V30 1441 N 140.419 -1.14872 1.07899 0
M  V30 1442 C 141.667 -1.85422 0.803941 0
M  V30 1443 C 141.988 -1.83051 -0.67211 0
M  V30 1444 O 141.258 -1.27532 -1.48703 0
M  V30 1445 H 139.838 -0.686537 0.294408 0
M  V30 1446 H 142.5 -1.39226 1.3639 0
M  V30 1447 H 141.596 -2.90399 1.14346 0
M  V30 1448 N 141.898 -0.863906 -1.31812 0
M  V30 1449 C 143.147 -0.46801 -1.96195 0
M  V30 1450 C 143.46 0.983474 -1.69077 0
M  V30 1451 O 144.666 1.48523 -2.27273 0
M  V30 1452 C 143.122 -0.785995 -3.51212 0
M  V30 1453 C 142.73 -2.25383 -3.87178 0
M  V30 1454 C 144.474 -0.458274 -4.22019 0
M  V30 1455 C 142.381 -2.51455 -5.3528 0
M  V30 1456 H 141.311 -0.171283 -0.734287 0
M  V30 1457 H 143.962 -1.05597 -1.50072 0
M  V30 1458 H 142.344 -0.127359 -3.95795 0
M  V30 1459 H 143.518 -2.95502 -3.53575 0
M  V30 1460 H 141.833 -2.54698 -3.2942 0
M  V30 1461 H 144.43 -0.630369 -5.30971 0
M  V30 1462 H 144.773 0.600834 -4.11941 0
M  V30 1463 H 145.306 -1.07319 -3.8305 0
M  V30 1464 H 142.045 -3.56025 -5.50387 0
M  V30 1465 H 141.565 -1.85923 -5.70257 0
M  V30 1466 H 143.244 -2.35874 -6.02472 0
M  V30 1467 N 143.376 1.44774 -0.622745 0
M  V30 1468 C 144.308 2.28856 0.125485 0
M  V30 1469 C 145.321 1.40811 0.817069 0
M  V30 1470 O 146.51 1.65044 0.679918 0
M  V30 1471 C 143.61 3.16963 1.19949 0
M  V30 1472 C 142.783 4.33374 0.592064 0
M  V30 1473 C 141.842 5.02577 1.55893 0
M  V30 1474 O 140.868 5.58873 1.07933 0
M  V30 1475 N 142.07 5.03256 2.89334 0
M  V30 1476 H 144.835 2.93713 -0.596068 0
M  V30 1477 H 142.396 1.55129 -0.463303 0
M  V30 1478 H 144.388 3.60123 1.84644 0
M  V30 1479 H 142.958 2.53913 1.82337 0
M  V30 1480 H 142.178 3.93509 -0.233322 0
M  V30 1481 H 143.466 5.08527 0.166738 0
M  V30 1482 H 142.864 4.58836 3.30887 0
M  V30 1483 H 141.421 5.50232 3.49412 0
M  V30 1484 N 144.854 0.36279 1.53368 0
M  V30 1485 C 145.787 -0.528507 2.21996 0
M  V30 1486 C 146.765 -1.0852 1.21087 0
M  V30 1487 O 147.949 -1.14186 1.4998 0
M  V30 1488 C 145.076 -1.72893 2.91249 0
M  V30 1489 C 144.122 -1.29994 4.06207 0
M  V30 1490 S 144.955 -0.303575 5.34639 0
M  V30 1491 C 146.111 -1.51039 6.07403 0
M  V30 1492 H 146.344 0.0543423 2.9725 0
M  V30 1493 H 143.877 0.146889 1.537 0
M  V30 1494 H 145.835 -2.41751 3.31763 0
M  V30 1495 H 144.496 -2.28303 2.15724 0
M  V30 1496 H 143.689 -2.19549 4.53667 0
M  V30 1497 H 143.291 -0.690608 3.67569 0
M  V30 1498 H 145.583 -2.44186 6.31965 0
M  V30 1499 H 146.526 -1.07721 6.99858 0
M  V30 1500 H 146.934 -1.71518 5.37812 0
M  V30 1501 N 146.332 -1.57332 0.0918853 0
M  V30 1502 C 147.279 -2.13847 -0.868211 0
M  V30 1503 C 148.249 -1.05618 -1.28196 0
M  V30 1504 O 149.434 -1.33387 -1.36427 0
M  V30 1505 C 146.574 -2.72062 -2.12312 0
M  V30 1506 C 145.687 -3.94514 -1.7602 0
M  V30 1507 C 144.822 -4.40903 -2.96273 0
M  V30 1508 C 143.861 -5.55953 -2.56092 0
M  V30 1509 N 142.998 -5.97209 -3.69169 0
M  V30 1510 H 147.838 -2.95575 -0.379406 0
M  V30 1511 H 145.375 -1.46048 -0.175606 0
M  V30 1512 H 147.333 -3.03931 -2.858 0
M  V30 1513 H 145.963 -1.93068 -2.58698 0
M  V30 1514 H 145.015 -3.68979 -0.925135 0
M  V30 1515 H 146.327 -4.7802 -1.42472 0
M  V30 1516 H 145.481 -4.74539 -3.78018 0
M  V30 1517 H 144.22 -3.56291 -3.33029 0
M  V30 1518 H 143.225 -5.21948 -1.72773 0
M  V30 1519 H 144.45 -6.42311 -2.20484 0
M  V30 1520 H 142.396 -5.15543 -4.05649 0
M  V30 1521 H 142.313 -6.75504 -3.39456 0
M  V30 1522 H 143.581 -6.35475 -4.51434 0
M  V30 1523 N 147.81 0.181792 -1.56548 0
M  V30 1524 C 149.035 0.920019 -1.85877 0
M  V30 1525 C 149.46 1.75494 -0.677021 0
M  V30 1526 O 148.818 1.77399 0.374056 0
M  V30 1527 C 148.866 1.78112 -3.13542 0
M  V30 1528 O 147.97 2.88152 -2.95029 0
M  V30 1529 H 147.311 0.258334 -0.611686 0
M  V30 1530 H 149.841 0.183092 -2.03779 0
M  V30 1531 H 149.851 2.18314 -3.44678 0
M  V30 1532 H 148.526 1.16777 -3.99169 0
M  V30 1533 H 147.103 2.51609 -2.75222 0
M  V30 1534 N 149.288 1.51039 0.449983 0
M  V30 1535 C 150.236 1.71995 1.5659 0
M  V30 1536 C 151.23 0.586029 1.5894 0
M  V30 1537 O 152.436 0.76709 1.62837 0
M  V30 1538 H 148.811 0.543233 0.520001 0
M  V30 1539 H 150.782 2.65562 1.36085 0
M  V30 1540 C 149.531 1.8506 2.9436 0
M  V30 1541 H 148.854 2.71712 2.93279 0
M  V30 1542 H 150.294 2.0374 3.71842 0
M  V30 1543 C 148.753 0.607277 3.31382 0
M  V30 1544 O 149.283 -0.243903 4.00959 0
M  V30 1545 N 147.489 0.455073 2.87015 0
M  V30 1546 H 147.036 1.14879 2.30566 0
M  V30 1547 H 146.994 -0.375611 3.12148 0
M  V30 1548 N 150.766 -0.704594 1.40972 0
M  V30 1549 C 152.012 -1.46675 1.40051 0
M  V30 1550 C 152.345 -1.94199 0.00641102 0
M  V30 1551 O 151.62 -1.68916 -0.964235 0
M  V30 1552 C 151.903 -2.68505 2.39952 0
M  V30 1553 C 151.756 -2.26805 3.88432 0
M  V30 1554 C 153.075 -3.70686 2.37233 0
M  V30 1555 H 150.194 -0.532015 0.510028 0
M  V30 1556 H 152.836 -0.803255 1.72185 0
M  V30 1557 H 150.986 -3.25114 2.1268 0
M  V30 1558 H 152.658 -1.75592 4.26574 0
M  V30 1559 H 150.901 -1.58685 4.03734 0
M  V30 1560 H 151.572 -3.14181 4.53866 0
M  V30 1561 H 154.048 -3.23731 2.61415 0
M  V30 1562 H 152.924 -4.53553 3.09162 0
M  V30 1563 H 153.185 -4.19754 1.38777 0
M  V30 1564 N 152.244 -1.26651 -0.937939 0
M  V30 1565 C 153.194 -1.05156 -2.02302 0
M  V30 1566 C 154.178 0.0171233 -1.60891 0
M  V30 1567 O 155.37 -0.200213 -1.75864 0
M  V30 1568 C 152.499 -0.689962 -3.36295 0
M  V30 1569 C 151.585 -1.79626 -3.84181 0
M  V30 1570 N 151.976 -3.03422 -4.04684 0
M  V30 1571 C 150.274 -1.6806 -4.13124 0
M  V30 1572 C 150.975 -3.75345 -4.444 0
M  V30 1573 N 149.951 -3.03051 -4.51288 0
M  V30 1574 H 153.753 -1.99117 -2.1617 0
M  V30 1575 H 151.267 -1.17216 -1.12402 0
M  V30 1576 H 153.264 -0.517112 -4.13681 0
M  V30 1577 H 151.924 0.242139 -3.23796 0
M  V30 1578 H 152.935 -3.39293 -3.91281 0
M  V30 1579 H 149.612 -0.818629 -4.09396 0
M  V30 1580 H 151.002 -4.81691 -4.68427 0
M  V30 1581 N 153.722 1.14298 -1.08507 0
M  V30 1582 C 154.971 1.84708 -0.810305 0
M  V30 1583 C 155.284 1.83903 0.666271 0
M  V30 1584 O 156.49 2.50112 1.05624 0
M  V30 1585 C 154.946 3.31572 -1.39957 0
M  V30 1586 C 154.554 3.40791 -2.90801 0
M  V30 1587 C 156.298 4.07087 -1.20334 0
M  V30 1588 C 154.205 4.81872 -3.4286 0
M  V30 1589 H 153.135 0.691985 -0.299454 0
M  V30 1590 H 155.786 1.28841 -1.30661 0
M  V30 1591 H 154.168 3.87183 -0.830976 0
M  V30 1592 H 155.342 2.95225 -3.53806 0
M  V30 1593 H 153.657 2.78732 -3.0935 0
M  V30 1594 H 156.254 5.11225 -1.56693 0
M  V30 1595 H 156.597 4.16054 -0.143237 0
M  V30 1596 H 157.13 3.57779 -1.73893 0
M  V30 1597 H 153.869 4.78094 -4.48449 0
M  V30 1598 H 153.389 5.27972 -2.84615 0
M  V30 1599 H 155.068 5.50765 -3.39509 0
M  V30 1600 N 155.201 0.870884 1.31352 0
M  V30 1601 C 156.617 0.562932 1.49343 0
M  V30 1602 C 156.817 -0.902725 1.80148 0
M  V30 1603 O 155.873 -1.68484 1.88067 0
M  V30 1604 C 157.186 1.46393 2.62659 0
M  V30 1605 C 158.734 1.46607 2.76542 0
M  V30 1606 C 159.209 2.35266 3.92955 0
M  V30 1607 N 160.7 2.33151 4.00243 0
M  V30 1608 C 161.435 2.98471 4.89594 0
M  V30 1609 N 160.931 3.72964 5.8384 0
M  V30 1610 N 162.724 2.87775 4.82848 0
M  V30 1611 H 154.875 1.81923 1.09626 0
M  V30 1612 H 157.138 0.777934 0.541777 0
M  V30 1613 H 156.844 2.50689 2.46674 0
M  V30 1614 H 156.718 1.16314 3.58819 0
M  V30 1615 H 159.105 0.43069 2.9194 0
M  V30 1616 H 159.186 1.8071 1.81046 0
M  V30 1617 H 158.83 3.38881 3.78315 0
M  V30 1618 H 158.76 1.98487 4.87761 0
M  V30 1619 H 161.251 1.79006 3.32814 0
M  V30 1620 H 161.564 4.19932 6.4875 0
M  V30 1621 H 159.909 3.77073 5.83816 0
M  V30 1622 H 163.1 2.29116 4.08195 0
M  V30 1623 H 163.273 3.38961 5.52277 0
M  V30 1624 N 156.679 -1.44442 0.630414 0
M  V30 1625 C 157.925 -2.02351 0.134816 0
M  V30 1626 C 158.258 -1.4947 -1.23986 0
M  V30 1627 O 157.533 -0.678475 -1.82283 0
M  V30 1628 C 157.816 -3.59898 0.120707 0
M  V30 1629 C 157.669 -4.23063 1.52767 0
M  V30 1630 C 158.988 -4.36585 -0.555127 0
M  V30 1631 H 156.107 -0.73527 0.0504646 0
M  V30 1632 H 158.749 -1.72022 0.806751 0
M  V30 1633 H 156.899 -3.85868 -0.451477 0
M  V30 1634 H 158.571 -4.08202 2.14869 0
M  V30 1635 H 156.814 -3.80586 2.08175 0
M  V30 1636 H 157.485 -5.32071 1.46984 0
M  V30 1637 H 159.961 -4.16044 -0.0685429 0
M  V30 1638 H 158.837 -5.46294 -0.534185 0
M  V30 1639 H 159.098 -4.11138 -1.62535 0
M  V30 1640 N 158.157 -0.370918 -1.53173 0
M  V30 1641 C 159.067 0.480823 -2.2962 0
M  V30 1642 C 160.083 1.08789 -1.35798 0
M  V30 1643 O 161.259 1.09768 -1.68858 0
M  V30 1644 C 158.324 1.60227 -3.07454 0
M  V30 1645 C 157.385 1.0222 -4.16953 0
M  V30 1646 C 156.618 2.0902 -4.91066 0
M  V30 1647 O 156.841 3.30222 -4.65091 0
M  V30 1648 O 155.775 1.71778 -5.76867 0
M  V30 1649 H 159.601 -0.141421 -3.03371 0
M  V30 1650 H 157.186 -0.135146 -1.48787 0
M  V30 1651 H 159.068 2.25417 -3.56041 0
M  V30 1652 H 157.743 2.20982 -2.36535 0
M  V30 1653 H 156.65 0.334064 -3.72605 0
M  V30 1654 H 157.983 0.459131 -4.90054 0
M  V30 1655 N 159.635 1.57281 -0.100228 0
M  V30 1656 C 160.86 1.99302 0.573881 0
M  V30 1657 C 161.285 0.979059 1.60611 0
M  V30 1658 O 160.643 -0.0517803 1.81226 0
M  V30 1659 C 160.691 3.40274 1.19358 0
M  V30 1660 O 159.795 3.41676 2.30935 0
M  V30 1661 H 159.136 0.647944 0.145138 0
M  V30 1662 H 161.666 2.03779 -0.183156 0
M  V30 1663 H 161.676 3.78078 1.53365 0
M  V30 1664 H 160.351 4.13594 0.437385 0
M  V30 1665 H 158.928 3.15672 1.98509 0
M  V30 1666 N 161.113 -0.173488 1.56642 0
M  V30 1667 C 162.39 -0.917617 1.7274 0
M  V30 1668 C 162.77 -2.00484 0.661027 0
M  V30 1669 O 162.118 -2.26184 -0.32453 0
M  V30 1670 C 162.328 -1.48433 3.15862 0
M  V30 1671 C 163.676 -1.95809 3.76754 0
M  V30 1672 O 164.7 -1.58231 3.19126 0
M  V30 1673 O 163.559 -2.65024 4.77938 0
M  V30 1674 H 160.653 -0.431772 0.705338 0
M  V30 1675 H 163.199 -0.161487 1.6893 0
M  V30 1676 H 161.971 -0.701715 3.84957 0
M  V30 1677 H 161.594 -2.30471 3.23989 0
M  V30 1678 N 162.591 -1.51276 -0.441967 0
M  V30 1679 C 163.837 -1.63958 -1.19355 0
M  V30 1680 C 164.17 -0.352543 -1.90973 0
M  V30 1681 O 163.445 0.647627 -1.83401 0
M  V30 1682 C 163.728 -2.83979 -2.21422 0
M  V30 1683 C 163.581 -4.22646 -1.53918 0
M  V30 1684 C 164.9 -2.99521 -3.22451 0
M  V30 1685 H 162.019 -0.596709 -0.432559 0
M  V30 1686 H 164.661 -1.83748 -0.483398 0
M  V30 1687 H 162.811 -2.67237 -2.81987 0
M  V30 1688 H 164.483 -4.51045 -0.967256 0
M  V30 1689 H 162.726 -4.25558 -0.841615 0
M  V30 1690 H 163.397 -5.02609 -2.28229 0
M  V30 1691 H 165.873 -3.14944 -2.71937 0
M  V30 1692 H 164.749 -3.85072 -3.91166 0
M  V30 1693 H 165.01 -2.11391 -3.88287 0
M  V30 1694 N 164.069 0.697108 -1.41344 0
M  V30 1695 C 165.318 1.45279 -1.39918 0
M  V30 1696 C 165.631 1.95597 -0.0109624 0
M  V30 1697 O 166.837 2.71208 0.125919 0
M  V30 1698 C 165.293 2.62695 -2.46007 0
M  V30 1699 C 164.901 2.19169 -3.90729 0
M  V30 1700 C 166.645 3.40336 -2.53715 0
M  V30 1701 C 164.552 3.33535 -4.88373 0
M  V30 1702 H 163.482 0.545692 -0.520323 0
M  V30 1703 H 166.133 0.756929 -1.67161 0
M  V30 1704 H 164.515 3.34541 -2.11892 0
M  V30 1705 H 165.689 1.54623 -4.34083 0
M  V30 1706 H 164.004 1.54525 -3.86666 0
M  V30 1707 H 166.601 4.2547 -3.2385 0
M  V30 1708 H 166.944 3.85418 -1.5735 0
M  V30 1709 H 167.477 2.75546 -2.86913 0
M  V30 1710 H 164.216 2.93468 -5.86137 0
M  V30 1711 H 163.736 3.96936 -4.49668 0
M  V30 1712 H 165.415 3.99335 -5.09059 0
M  V30 1713 N 165.547 1.27147 0.931209 0
M  V30 1714 C 166.796 1.12664 1.67302 0
M  V30 1715 C 167.109 -0.327718 1.92835 0
M  V30 1716 O 168.315 -0.593392 2.64936 0
M  V30 1717 C 166.771 1.9683 3.01307 0
M  V30 1718 C 166.379 3.46901 2.83485 0
M  V30 1719 C 168.123 1.90985 3.79111 0
M  V30 1720 C 166.03 4.23279 4.13024 0
M  V30 1721 H 164.96 0.41803 0.627509 0
M  V30 1722 H 167.611 1.51539 1.03481 0
M  V30 1723 H 165.993 1.50797 3.66164 0
M  V30 1724 H 167.167 4.00773 2.27415 0
M  V30 1725 H 165.482 3.54088 2.19113 0
M  V30 1726 H 168.079 2.45328 4.75098 0
M  V30 1727 H 168.422 0.882718 4.06834 0
M  V30 1728 H 168.955 2.34895 3.21044 0
M  V30 1729 H 165.694 5.26503 3.90481 0
M  V30 1730 H 165.214 3.74186 4.6877 0
M  V30 1731 H 166.893 4.32265 4.81411 0
M  V30 1732 N 167.025 -1.13721 1.09112 0
M  V30 1733 C 167.972 -2.19031 0.727591 0
M  V30 1734 C 168.942 -1.63555 -0.289656 0
M  V30 1735 O 170.127 -1.90023 -0.172026 0
M  V30 1736 C 167.267 -3.4477 0.15082 0
M  V30 1737 C 166.38 -4.14365 1.22172 0
M  V30 1738 C 165.515 -5.27709 0.608042 0
M  V30 1739 C 164.554 -5.89147 1.66047 0
M  V30 1740 N 163.691 -6.93929 1.06806 0
M  V30 1741 H 168.531 -2.49475 1.62991 0
M  V30 1742 H 166.068 -1.22499 0.81439 0
M  V30 1743 H 168.026 -4.16714 -0.201358 0
M  V30 1744 H 166.656 -3.14787 -0.714783 0
M  V30 1745 H 165.708 -3.40737 1.69122 0
M  V30 1746 H 167.02 -4.56114 2.01895 0
M  V30 1747 H 166.174 -6.06355 0.204523 0
M  V30 1748 H 164.913 -4.872 -0.220769 0
M  V30 1749 H 163.918 -5.09198 2.07357 0
M  V30 1750 H 165.143 -6.31729 2.49189 0
M  V30 1751 H 163.089 -6.55483 0.260476 0
M  V30 1752 H 163.006 -7.34202 1.8023 0
M  V30 1753 H 164.274 -7.76434 0.690644 0
M  V30 1754 N 168.503 -0.877838 -1.30888 0
M  V30 1755 C 169.914 -0.544193 -1.78593 0
M  V30 1756 C 170.265 0.939301 -1.72254 0
M  V30 1757 O 169.39 1.7337 -1.29505 0
M  V30 1758 C 169.985 -0.98105 -3.24285 0
M  V30 1759 C 168.544 -0.698935 -3.69854 0
M  V30 1760 C 167.691 -1.168 -2.51502 0
M  V30 1761 H 170.642 -1.06278 -1.17859 0
M  V30 1762 H 170.663 -0.307009 -3.79259 0
M  V30 1763 H 170.175 -2.06079 -3.28866 0
M  V30 1764 H 168.276 0.369112 -3.70767 0
M  V30 1765 H 168.389 -1.28148 -4.61644 0
M  V30 1766 H 166.753 -0.587535 -2.47831 0
M  V30 1767 H 167.536 -2.25533 -2.58824 0
M  V30 1768 N 169.982 1.44106 -0.638065 0
M  V30 1769 C 171.21 2.06336 -0.152615 0
M  V30 1770 C 171.625 1.47731 1.17563 0
M  V30 1771 O 170.982 0.602806 1.72257 0
M  V30 1772 C 171.033 3.61479 -0.0391491 0
M  V30 1773 O 170.754 4.17903 -1.31487 0
M  V30 1774 C 172.255 4.40757 0.474176 0
M  V30 1775 H 169.475 0.665862 -0.0828776 0
M  V30 1776 H 172.019 1.84862 -0.87443 0
M  V30 1777 H 170.174 3.82191 0.633142 0
M  V30 1778 H 170.588 5.11416 -1.16421 0
M  V30 1779 H 172.062 5.49707 0.502562 0
M  V30 1780 H 172.539 4.12697 1.50258 0
M  V30 1781 H 173.145 4.24979 -0.165102 0
M  V30 1782 N 171.46 0.379036 1.52974 0
M  V30 1783 C 172.706 -0.199244 2.02422 0
M  V30 1784 C 173.061 -1.4532 1.26095 0
M  V30 1785 O 172.354 -1.88377 0.34996 0
M  V30 1786 C 172.548 -0.53096 3.53434 0
M  V30 1787 C 172.377 0.689298 4.44386 0
M  V30 1788 C 171.147 1.20546 4.9071 0
M  V30 1789 C 173.345 1.55856 4.90116 0
M  V30 1790 N 171.327 2.38434 5.65705 0
M  V30 1791 C 172.698 2.58396 5.63588 0
M  V30 1792 C 174.753 1.57986 4.7217 0
M  V30 1793 C 173.456 3.62939 6.21022 0
M  V30 1794 C 175.482 2.6143 5.30479 0
M  V30 1795 C 174.844 3.62693 6.03849 0
M  V30 1796 H 170.943 -0.0352671 0.781204 0
M  V30 1797 H 173.527 0.526614 1.87443 0
M  V30 1798 H 171.698 -1.22588 3.68547 0
M  V30 1799 H 173.43 -1.0955 3.89591 0
M  V30 1800 H 170.185 0.768022 4.67331 0
M  V30 1801 H 170.609 2.98055 6.07859 0
M  V30 1802 H 175.251 0.810475 4.14959 0
M  V30 1803 H 172.969 4.40751 6.77321 0
M  V30 1804 H 176.555 2.63949 5.18481 0
M  V30 1805 H 175.435 4.41424 6.48163 0
M  V30 1806 N 172.938 -1.57226 0.108567 0
M  V30 1807 C 173.886 -2.16002 -0.862885 0
M  V30 1808 C 174.88 -1.10644 -1.28274 0
M  V30 1809 O 176.086 -1.28966 -1.2557 0
M  V30 1810 H 172.461 -0.691148 -0.296342 0
M  V30 1811 H 174.432 -2.96427 -0.342575 0
M  V30 1812 C 173.181 -2.76576 -2.10716 0
M  V30 1813 H 172.504 -3.5734 -1.793 0
M  V30 1814 H 173.944 -3.21253 -2.76717 0
M  V30 1815 C 172.403 -1.73137 -2.89007 0
M  V30 1816 O 172.933 -1.17842 -3.84026 0
M  V30 1817 N 171.139 -1.43317 -2.52801 0
M  V30 1818 H 170.686 -1.88473 -1.75601 0
M  V30 1819 H 170.644 -0.743485 -3.05483 0
M  V30 1820 N 174.416 0.165178 -1.56732 0
M  V30 1821 C 175.664 0.879068 -1.8198 0
M  V30 1822 C 175.985 1.82514 -0.686561 0
M  V30 1823 O 175.255 1.93694 0.293146 0
M  V30 1824 H 173.835 0.327608 -0.671329 0
M  V30 1825 H 176.497 0.163526 -1.94213 0
M  V30 1826 H 175.593 1.45228 -2.76252 0
M  V30 1827 N 175.894 1.51508 0.433938 0
M  V30 1828 C 177.171 1.54888 1.19453 0
M  V30 1829 C 177.551 0.315154 2.08734 0
M  V30 1830 O 176.899 -0.699558 2.17528 0
M  V30 1831 C 177.109 2.86467 1.99342 0
M  V30 1832 C 178.457 3.38545 2.56267 0
M  V30 1833 O 179.481 2.88041 2.0955 0
M  V30 1834 O 178.34 4.26675 3.41483 0
M  V30 1835 H 175.434 0.622863 0.544032 0
M  V30 1836 H 177.98 1.63823 0.442732 0
M  V30 1837 H 176.752 3.67718 1.33788 0
M  V30 1838 H 176.375 2.8071 2.8158 0
M  V30 1839 N 177.372 -0.689602 1.41712 0
M  V30 1840 C 178.62 -1.4468 1.4111 0
M  V30 1841 C 178.941 -1.94986 0.0232196 0
M  V30 1842 O 178.211 -1.72097 -0.935913 0
M  V30 1843 H 176.791 -0.536847 0.519427 0
M  V30 1844 H 179.453 -0.815825 1.77004 0
M  V30 1845 H 178.549 -2.30706 2.10193 0
M  V30 1846 N 178.85 -1.27639 -0.924453 0
M  V30 1847 C 179.797 -1.10644 -2.0255 0
M  V30 1848 C 180.767 -0.00658438 -1.66099 0
M  V30 1849 O 181.952 -0.16952 -1.90045 0
M  V30 1850 C 179.092 -0.76309 -3.36557 0
M  V30 1851 C 178.205 -1.94091 -3.85944 0
M  V30 1852 C 177.34 -1.53914 -5.08413 0
M  V30 1853 C 176.379 -2.68425 -5.50104 0
M  V30 1854 N 175.516 -2.28815 -6.63768 0
M  V30 1855 H 180.356 -2.04858 -2.16419 0
M  V30 1856 H 177.893 -1.01974 -1.06017 0
M  V30 1857 H 179.851 -0.544822 -4.13627 0
M  V30 1858 H 178.481 0.142102 -3.22487 0
M  V30 1859 H 177.533 -2.27162 -3.05125 0
M  V30 1860 H 178.845 -2.7998 -4.12811 0
M  V30 1861 H 177.999 -1.28231 -5.92994 0
M  V30 1862 H 176.738 -0.651391 -4.8333 0
M  V30 1863 H 175.743 -2.94819 -4.64071 0
M  V30 1864 H 176.968 -3.57826 -5.7718 0
M  V30 1865 H 174.914 -1.42495 -6.40337 0
M  V30 1866 H 174.831 -3.08242 -6.90306 0
M  V30 1867 H 176.099 -2.06387 -7.51681 0
M  V30 1868 N 180.328 1.1314 -1.09713 0
M  V30 1869 C 181.276 2.20717 -0.733934 0
M  V30 1870 C 182.27 1.6729 0.266506 0
M  V30 1871 O 183.476 1.79547 0.127656 0
M  V30 1872 H 179.851 0.719292 -0.21937 0
M  V30 1873 H 181.822 2.48611 -1.6503 0
M  V30 1874 C 180.571 3.47265 -0.173849 0
M  V30 1875 H 179.894 3.88716 -0.934873 0
M  V30 1876 H 181.334 4.23979 0.0423126 0
M  V30 1877 C 179.793 3.18724 1.09164 0
M  V30 1878 O 180.323 3.37762 2.17439 0
M  V30 1879 N 178.529 2.72583 1.00732 0
M  V30 1880 H 178.076 2.57291 0.126121 0
M  V30 1881 H 178.034 2.53862 1.85476 0
M  V30 1882 N 181.806 0.884767 1.30421 0
M  V30 1883 C 182.756 0.322846 2.25703 0
M  V30 1884 C 183.74 -0.548582 1.51259 0
M  V30 1885 O 184.932 -0.39304 1.72581 0
M  V30 1886 C 182.061 -0.461787 3.4018 0
M  V30 1887 C 181.147 0.423717 4.21978 0
M  V30 1888 N 181.538 1.52408 4.82292 0
M  V30 1889 C 179.836 0.218795 4.45463 0
M  V30 1890 C 180.537 2.07136 5.43571 0
M  V30 1891 N 179.513 1.36635 5.26148 0
M  V30 1892 H 183.315 1.16363 2.69883 0
M  V30 1893 H 180.829 0.73415 1.44859 0
M  V30 1894 H 182.826 -0.880985 4.07485 0
M  V30 1895 H 181.486 -1.30001 2.9754 0
M  V30 1896 H 182.497 1.90693 4.81515 0
M  V30 1897 H 179.174 -0.582275 4.1342 0
M  V30 1898 H 180.564 2.99538 6.01437 0
M  V30 1899 N 183.284 -1.43765 0.645699 0
M  V30 1900 C 184.7 -1.56509 0.312591 0
M  V30 1901 C 184.9 -1.6307 -1.18365 0
M  V30 1902 O 183.956 -1.58167 -1.96824 0
M  V30 1903 C 185.269 -2.82968 1.01733 0
M  V30 1904 C 186.817 -2.96701 0.996865 0
M  V30 1905 C 187.292 -4.25982 1.68236 0
M  V30 1906 N 188.783 -4.32829 1.64964 0
M  V30 1907 C 189.518 -5.31613 2.14885 0
M  V30 1908 N 189.014 -6.36718 2.73061 0
M  V30 1909 N 190.807 -5.23217 2.05428 0
M  V30 1910 H 182.958 -1.3775 1.61675 0
M  V30 1911 H 185.221 -0.661067 0.679481 0
M  V30 1912 H 184.927 -2.84156 2.0724 0
M  V30 1913 H 184.801 -3.72957 0.564177 0
M  V30 1914 H 187.188 -2.95058 -0.0497719 0
M  V30 1915 H 187.269 -2.08022 1.48865 0
M  V30 1916 H 186.913 -4.28386 2.72852 0
M  V30 1917 H 186.843 -5.13545 1.16529 0
M  V30 1918 H 189.334 -3.57493 1.22503 0
M  V30 1919 H 189.647 -7.08401 3.08848 0
M  V30 1920 H 187.992 -6.37362 2.77118 0
M  V30 1921 H 191.183 -4.40019 1.59689 0
M  V30 1922 H 191.356 -6.00045 2.44643 0
M  V30 1923 N 184.763 -0.387143 -1.52771 0
M  V30 1924 C 185.693 0.440551 -2.29306 0
M  V30 1925 C 186.674 1.06535 -1.32606 0
M  V30 1926 O 187.859 1.07853 -1.61497 0
M  V30 1927 C 184.989 1.56919 -3.09829 0
M  V30 1928 C 183.943 1.07054 -4.14395 0
M  V30 1929 C 183.269 2.29109 -4.83129 0
M  V30 1930 C 184.569 0.140015 -5.22112 0
M  V30 1931 H 186.263 -0.198026 -2.98744 0
M  V30 1932 H 183.809 -0.09668 -1.43675 0
M  V30 1933 H 185.762 2.15503 -3.62128 0
M  V30 1934 H 184.486 2.23532 -2.3812 0
M  V30 1935 H 183.145 0.507247 -3.63074 0
M  V30 1936 H 182.793 2.94227 -4.0797 0
M  V30 1937 H 182.493 1.96406 -5.53804 0
M  V30 1938 H 184.017 2.88339 -5.38231 0
M  V30 1939 H 185.431 0.633978 -5.69784 0
M  V30 1940 H 183.828 -0.0971485 -6.00021 0
M  V30 1941 H 184.898 -0.811711 -4.78058 0
M  V30 1942 N 186.241 1.57166 -0.116904 0
M  V30 1943 C 187.488 1.95123 0.541603 0
M  V30 1944 C 187.816 1.00006 1.6682 0
M  V30 1945 O 187.071 0.0235658 1.95686 0
M  V30 1946 C 187.37 3.39508 1.11664 0
M  V30 1947 C 187.036 4.50762 0.111606 0
M  V30 1948 C 185.698 4.80918 -0.164758 0
M  V30 1949 C 188.05 5.18036 -0.573438 0
M  V30 1950 C 185.378 5.75666 -1.13249 0
M  V30 1951 C 187.73 6.13824 -1.52978 0
M  V30 1952 C 186.394 6.42374 -1.81415 0
M  V30 1953 H 185.664 0.714005 0.198187 0
M  V30 1954 H 188.311 1.9048 -0.197365 0
M  V30 1955 H 186.616 3.40835 1.93232 0
M  V30 1956 H 188.313 3.66189 1.63422 0
M  V30 1957 H 184.903 4.27272 0.337192 0
M  V30 1958 H 189.087 4.94896 -0.373092 0
M  V30 1959 H 184.343 5.96092 -1.35958 0
M  V30 1960 H 188.517 6.65039 -2.06629 0
M  V30 1961 H 186.144 7.15599 -2.56557 0
M  V30 1962 N 187.719 -0.156864 1.56817 0
M  V30 1963 C 188.629 -1.2136 2.00771 0
M  V30 1964 C 189.645 -1.47598 0.921459 0
M  V30 1965 O 190.821 -1.59462 1.2302 0
M  V30 1966 C 187.886 -2.52943 2.37109 0
M  V30 1967 C 186.947 -2.34439 3.59634 0
M  V30 1968 C 186.18 -3.59748 3.94229 0
M  V30 1969 O 186.403 -4.65526 3.29609 0
M  V30 1970 O 185.337 -3.52998 4.8752 0
M  V30 1971 H 189.163 -0.870468 2.90958 0
M  V30 1972 H 186.748 -0.36484 1.44877 0
M  V30 1973 H 188.63 -3.30538 2.61386 0
M  V30 1974 H 187.305 -2.86806 1.5008 0
M  V30 1975 H 186.212 -1.54828 3.40557 0
M  V30 1976 H 187.545 -2.05496 4.4725 0
M  V30 1977 N 189.197 -1.51736 -0.425897 0
M  V30 1978 C 190.443 -1.65214 -1.1761 0
M  V30 1979 C 190.776 -0.372778 -1.90589 0
M  V30 1980 O 190.051 0.628139 -1.84078 0
M  V30 1981 C 190.334 -2.86312 -2.18398 0
M  V30 1982 C 190.187 -4.24254 -1.49426 0
M  V30 1983 C 191.506 -3.02925 -3.19256 0
M  V30 1984 H 188.625 -0.601263 -0.426206 0
M  V30 1985 H 191.267 -1.8425 -0.463882 0
M  V30 1986 H 189.417 -2.70213 -2.79137 0
M  V30 1987 H 191.089 -4.52046 -0.919362 0
M  V30 1988 H 189.332 -4.26426 -0.796432 0
M  V30 1989 H 190.003 -5.05001 -2.22885 0
M  V30 1990 H 192.479 -3.1781 -2.68581 0
M  V30 1991 H 191.355 -3.89199 -3.8706 0
M  V30 1992 H 191.616 -2.15497 -3.86023 0
M  V30 1993 N 190.675 0.682077 -1.42076 0
M  V30 1994 C 191.923 1.4393 -1.41876 0
M  V30 1995 C 192.244 1.94971 -0.0335599 0
M  V30 1996 O 191.514 1.72591 0.926773 0
M  V30 1997 H 190.094 0.534085 -0.522267 0
M  V30 1998 H 192.756 0.806427 -1.77434 0
M  V30 1999 H 191.852 2.29588 -2.11414 0
M  V30 2000 N 192.153 1.28127 0.917671 0
M  V30 2001 C 193.399 1.15223 1.66888 0
M  V30 2002 C 193.732 -0.299293 1.9188 0
M  V30 2003 O 193.007 -1.21805 1.51637 0
M  V30 2004 C 193.29 1.94706 3.02922 0
M  V30 2005 C 193.143 3.47898 2.85109 0
M  V30 2006 C 194.462 1.75939 4.03402 0
M  V30 2007 H 191.581 0.419946 0.605652 0
M  V30 2008 H 194.223 1.57398 1.06423 0
M  V30 2009 H 192.373 1.58864 3.54534 0
M  V30 2010 H 194.045 3.93624 2.40537 0
M  V30 2011 H 192.288 3.7373 2.20246 0
M  V30 2012 H 192.959 3.98765 3.81694 0
M  V30 2013 H 195.435 2.07209 3.60837 0
M  V30 2014 H 194.311 2.33931 4.96556 0
M  V30 2015 H 194.572 0.709877 4.36364 0
M  V30 2016 N 193.631 -1.12557 1.10312 0
M  V30 2017 C 194.579 -2.20325 0.745629 0
M  V30 2018 C 195.573 -1.67429 -0.25763 0
M  V30 2019 O 196.779 -1.79612 -0.118132 0
M  V30 2020 H 193.154 -0.718118 0.223182 0
M  V30 2021 H 195.125 -2.47733 1.66346 0
M  V30 2022 C 193.874 -3.47168 0.192262 0
M  V30 2023 H 193.197 -3.88215 0.955475 0
M  V30 2024 H 194.637 -4.23995 -0.0198274 0
M  V30 2025 C 193.096 -3.19298 -1.07472 0
M  V30 2026 O 193.626 -3.3891 -2.15645 0
M  V30 2027 N 191.832 -2.73113 -0.992847 0
M  V30 2028 H 191.379 -2.57354 -0.112474 0
M  V30 2029 H 191.337 -2.54842 -1.84127 0
M  V30 2030 N 195.109 -0.891671 -1.2995 0
M  V30 2031 C 196.057 -0.353066 -2.29905 0
M  V30 2032 C 197.051 0.543509 -1.60444 0
M  V30 2033 O 198.257 0.4272 -1.74857 0
M  V30 2034 H 194.632 -0.095531 -0.745907 0
M  V30 2035 H 196.603 -1.20961 -2.72784 0
M  V30 2036 C 195.352 0.411475 -3.45257 0
M  V30 2037 H 194.675 -0.269182 -3.98893 0
M  V30 2038 H 196.115 0.753328 -4.17254 0
M  V30 2039 C 194.574 1.6111 -2.9588 0
M  V30 2040 O 195.104 2.71045 -2.96475 0
M  V30 2041 N 193.31 1.45054 -2.51809 0
M  V30 2042 H 192.857 0.556175 -2.51524 0
M  V30 2043 H 192.815 2.25453 -2.1913 0
M  V30 2044 N 196.587 1.43421 -0.653314 0
M  V30 2045 C 197.836 2.01032 -0.164076 0
M  V30 2046 C 198.149 1.52147 1.22926 0
M  V30 2047 O 199.355 2.02031 1.81371 0
M  V30 2048 C 197.811 3.59082 -0.24252 0
M  V30 2049 C 197.419 4.1696 -1.63855 0
M  V30 2050 C 199.163 4.24079 0.18911 0
M  V30 2051 C 197.07 5.67304 -1.67092 0
M  V30 2052 H 196 0.751798 -0.0575769 0
M  V30 2053 H 198.651 1.6439 -0.815362 0
M  V30 2054 H 197.033 3.93125 0.476276 0
M  V30 2055 H 198.207 3.94416 -2.38271 0
M  V30 2056 H 196.522 3.64335 -2.01616 0
M  V30 2057 H 199.119 5.34381 0.184775 0
M  V30 2058 H 199.462 3.98005 1.22056 0
M  V30 2059 H 199.995 3.94918 -0.477938 0
M  V30 2060 H 196.734 5.98145 -2.68146 0
M  V30 2061 H 196.254 5.91904 -0.970014 0
M  V30 2062 H 197.933 6.31344 -1.4147 0
M  V30 2063 N 198.065 0.39524 1.52563 0
M  V30 2064 C 199.311 -0.185318 2.01952 0
M  V30 2065 C 199.644 -1.45964 1.28095 0
M  V30 2066 O 198.919 -1.90689 0.38315 0
M  V30 2067 C 199.202 -0.447193 3.57312 0
M  V30 2068 C 199.055 0.842828 4.41833 0
M  V30 2069 C 200.374 -1.23529 4.22408 0
M  V30 2070 H 197.493 -0.0658788 0.73405 0
M  V30 2071 H 200.135 0.525975 1.82575 0
M  V30 2072 H 198.285 -1.05312 3.73954 0
M  V30 2073 H 199.957 1.4795 4.36931 0
M  V30 2074 H 198.2 1.45686 4.08605 0
M  V30 2075 H 198.871 0.614165 5.48573 0
M  V30 2076 H 201.347 -0.722445 4.0978 0
M  V30 2077 H 200.223 -1.38727 5.3108 0
M  V30 2078 H 200.484 -2.25213 3.80436 0
M  V30 2079 N 199.544 -1.57102 0.125237 0
M  V30 2080 C 200.96 -1.57915 -0.231322 0
M  V30 2081 C 201.16 -1.13833 -1.66266 0
M  V30 2082 O 200.216 -0.828581 -2.38518 0
M  V30 2083 C 201.529 -3.00699 0.00766489 0
M  V30 2084 C 203.077 -3.12947 -0.0577483 0
M  V30 2085 C 203.552 -4.57742 0.153626 0
M  V30 2086 N 205.043 -4.63092 0.0998073 0
M  V30 2087 C 205.778 -5.72905 0.238174 0
M  V30 2088 N 205.274 -6.91445 0.433057 0
M  V30 2089 N 207.067 -5.6182 0.177308 0
M  V30 2090 H 199.218 -1.84055 1.06007 0
M  V30 2091 H 201.481 -0.850905 0.417929 0
M  V30 2092 H 201.187 -3.3726 0.997431 0
M  V30 2093 H 201.061 -3.70236 -0.721452 0
M  V30 2094 H 203.448 -2.7624 -1.03804 0
M  V30 2095 H 203.529 -2.4594 0.70335 0
M  V30 2096 H 203.173 -4.95149 1.13092 0
M  V30 2097 H 203.103 -5.22848 -0.627534 0
M  V30 2098 H 205.594 -3.77871 -0.047051 0
M  V30 2099 H 205.907 -7.70985 0.529332 0
M  V30 2100 H 204.252 -6.93415 0.469109 0
M  V30 2101 H 207.443 -4.68093 0.0259748 0
M  V30 2102 H 207.616 -6.47357 0.288582 0
M  V30 2103 N 201.022 0.148545 -1.56898 0
M  V30 2104 C 201.97 1.20265 -1.99096 0
M  V30 2105 C 202.964 1.44559 -0.883123 0
M  V30 2106 O 204.17 1.4487 -1.0683 0
M  V30 2107 H 200.545 0.404786 -0.63376 0
M  V30 2108 H 202.516 0.82004 -2.86911 0
M  V30 2109 C 201.265 2.52886 -2.3863 0
M  V30 2110 H 200.588 2.35021 -3.23427 0
M  V30 2111 H 202.028 3.25274 -2.7198 0
M  V30 2112 C 200.487 3.13315 -1.23837 0
M  V30 2113 O 201.017 3.98077 -0.538268 0
M  V30 2114 N 199.223 2.72742 -1.00301 0
M  V30 2115 H 198.77 2.03912 -1.5741 0
M  V30 2116 H 198.728 3.13507 -0.236838 0
M  V30 2117 N 202.5 1.5196 0.417844 0
M  V30 2118 C 203.747 1.65591 1.16559 0
M  V30 2119 C 204.075 0.381565 1.90721 0
M  V30 2120 O 203.33 -0.635156 1.85106 0
M  V30 2121 C 203.629 2.82269 2.19223 0
M  V30 2122 C 203.295 4.20819 1.61933 0
M  V30 2123 C 201.957 4.58506 1.46033 0
M  V30 2124 C 204.309 5.07196 1.20008 0
M  V30 2125 C 201.637 5.80257 0.867113 0
M  V30 2126 C 203.989 6.29544 0.621086 0
M  V30 2127 C 202.653 6.65987 0.449144 0
M  V30 2128 H 201.923 0.605939 0.42652 0
M  V30 2129 H 204.57 1.86041 0.45397 0
M  V30 2130 H 202.875 2.56118 2.96498 0
M  V30 2131 H 204.572 2.90012 2.76936 0
M  V30 2132 H 201.162 3.91116 1.7529 0
M  V30 2133 H 205.346 4.7867 1.31105 0
M  V30 2134 H 200.602 6.07124 0.721833 0
M  V30 2135 H 204.776 6.95805 0.287798 0
M  V30 2136 H 202.403 7.60199 -0.012632 0
M  V30 2137 N 203.978 -0.674533 1.42435 0
M  V30 2138 C 205.203 -1.46784 1.46524 0
M  V30 2139 C 205.628 -1.87938 0.078066 0
M  V30 2140 O 204.986 -1.56014 -0.92354 0
M  V30 2141 C 205.034 -2.69307 2.39805 0
M  V30 2142 O 204.138 -3.67587 1.86959 0
M  V30 2143 H 203.479 -0.440959 0.496439 0
M  V30 2144 H 206.009 -0.827326 1.87127 0
M  V30 2145 H 206.019 -3.17374 2.56393 0
M  V30 2146 H 204.694 -2.38692 3.40586 0
M  V30 2147 H 203.271 -3.2662 1.79927 0
M  V30 2148 N 205.456 -1.28612 -0.910864 0
M  V30 2149 C 206.703 -1.15934 -1.66029 0
M  V30 2150 C 207.031 0.291483 -1.92303 0
M  V30 2151 O 206.286 1.22816 -1.52364 0
M  V30 2152 C 206.585 -1.90624 -3.0232 0
M  V30 2153 C 206.251 -3.40405 -2.95695 0
M  V30 2154 C 204.913 -3.81255 -2.93595 0
M  V30 2155 C 207.265 -4.359 -2.85728 0
M  V30 2156 C 204.593 -5.15936 -2.79334 0
M  V30 2157 C 206.945 -5.70657 -2.73007 0
M  V30 2158 C 205.609 -6.10779 -2.69267 0
M  V30 2159 H 204.879 -0.424234 -0.607541 0
M  V30 2160 H 207.526 -1.5942 -1.06101 0
M  V30 2161 H 205.831 -1.39696 -3.6605 0
M  V30 2162 H 207.528 -1.78228 -3.59215 0
M  V30 2163 H 204.118 -3.07927 -2.98125 0
M  V30 2164 H 208.302 -4.053 -2.86436 0
M  V30 2165 H 203.558 -5.46146 -2.74835 0
M  V30 2166 H 207.732 -6.44311 -2.64264 0
M  V30 2167 H 205.359 -7.1509 -2.57974 0
M  V30 2168 N 206.934 1.1197 -1.10907 0
M  V30 2169 C 207.866 2.17592 -0.720175 0
M  V30 2170 C 208.879 1.60938 0.245495 0
M  V30 2171 O 210.068 1.78476 0.0292245 0
M  V30 2172 C 207.168 3.38873 -0.0427917 0
M  V30 2173 C 206.341 4.25006 -1.03388 0
M  V30 2174 C 205.4 5.24774 -0.387075 0
M  V30 2175 O 204.426 5.59631 -1.03934 0
M  V30 2176 N 205.628 5.74208 0.852407 0
M  V30 2177 H 208.393 2.51567 -1.62893 0
M  V30 2178 H 205.954 1.27439 -0.998543 0
M  V30 2179 H 207.946 4.02703 0.401501 0
M  V30 2180 H 206.516 3.03007 0.768456 0
M  V30 2181 H 205.736 3.57716 -1.65629 0
M  V30 2182 H 207.024 4.79397 -1.70458 0
M  V30 2183 H 206.422 5.48062 1.40161 0
M  V30 2184 H 204.979 6.39901 1.23977 0
M  V30 2185 N 208.412 0.89855 1.29475 0
M  V30 2186 C 209.66 0.522847 1.9522 0
M  V30 2187 C 209.981 -0.93371 1.71192 0
M  V30 2188 O 209.251 -1.65823 1.04305 0
M  V30 2189 H 207.831 0.190366 0.722336 0
M  V30 2190 H 210.493 1.14459 1.5775 0
M  V30 2191 H 209.589 0.704476 3.04045 0
M  V30 2192 N 209.89 -1.43072 0.660911 0
M  V30 2193 C 210.82 -2.33497 -0.0122829 0
M  V30 2194 C 211.801 -1.49903 -0.803925 0
M  V30 2195 O 212.986 -1.78546 -0.763864 0
M  V30 2196 C 210.116 -3.33363 -0.973994 0
M  V30 2197 C 209.07 -4.27003 -0.291928 0
M  V30 2198 C 208.396 -5.16967 -1.36562 0
M  V30 2199 C 209.696 -5.15816 0.820462 0
M  V30 2200 H 211.39 -2.90038 0.742873 0
M  V30 2201 H 208.936 -1.39461 0.358688 0
M  V30 2202 H 210.889 -3.95524 -1.45392 0
M  V30 2203 H 209.613 -2.75095 -1.7604 0
M  V30 2204 H 208.272 -3.66217 0.167623 0
M  V30 2205 H 207.92 -4.55034 -2.14366 0
M  V30 2206 H 207.62 -5.80441 -0.914454 0
M  V30 2207 H 209.144 -5.82003 -1.84675 0
M  V30 2208 H 210.558 -5.71742 0.422366 0
M  V30 2209 H 208.955 -5.8805 1.19656 0
M  V30 2210 H 210.025 -4.55045 1.67518 0
M  V30 2211 N 211.368 -0.403325 -1.52352 0
M  V30 2212 C 212.616 0.174003 -2.0135 0
M  V30 2213 C 212.937 1.46139 -1.29106 0
M  V30 2214 O 212.207 1.91448 -0.415253 0
M  V30 2215 H 210.787 0.0672911 -0.743963 0
M  V30 2216 H 213.449 -0.538235 -1.87321 0
M  V30 2217 H 212.545 0.374254 -3.09848 0
M  V30 2218 N 212.846 1.57033 -0.133567 0
M  V30 2219 C 213.794 2.17348 0.828412 0
M  V30 2220 C 214.788 1.12671 1.26498 0
M  V30 2221 O 215.994 1.30947 1.23502 0
M  V30 2222 H 212.369 0.695775 0.285309 0
M  V30 2223 H 214.34 2.96935 0.295372 0
M  V30 2224 C 213.089 2.79893 2.06289 0
M  V30 2225 H 212.412 3.60147 1.73592 0
M  V30 2226 H 213.852 3.25615 2.71572 0
M  V30 2227 C 212.311 1.77713 2.86216 0
M  V30 2228 O 212.841 1.23937 3.82103 0
M  V30 2229 N 211.047 1.47321 2.50489 0
M  V30 2230 H 210.594 1.91243 1.7258 0
M  V30 2231 H 210.552 0.79199 3.04261 0
M  V30 2232 N 214.325 -0.140222 1.56975 0
M  V30 2233 C 215.573 -0.850005 1.83356 0
M  V30 2234 C 215.894 -1.81399 0.71551 0
M  V30 2235 O 215.164 -1.94136 -0.262294 0
M  V30 2236 H 213.744 -0.316886 0.676456 0
M  V30 2237 H 216.406 -0.132608 1.94448 0
M  V30 2238 H 215.502 -1.40814 2.78528 0
M  V30 2239 N 215.803 -1.52179 -0.40978 0
M  V30 2240 C 217.05 -1.66206 -1.15679 0
M  V30 2241 C 217.378 -0.391674 -1.90516 0
M  V30 2242 O 216.633 0.62533 -1.8544 0
M  V30 2243 C 216.932 -2.83428 -2.17723 0
M  V30 2244 C 216.598 -4.21672 -1.59699 0
M  V30 2245 C 215.26 -4.59274 -1.43599 0
M  V30 2246 C 217.612 -5.07825 -1.17317 0
M  V30 2247 C 214.94 -5.80709 -0.836328 0
M  V30 2248 C 217.292 -6.29864 -0.587691 0
M  V30 2249 C 215.956 -6.66216 -0.413818 0
M  V30 2250 H 215.226 -0.608192 -0.423301 0
M  V30 2251 H 217.873 -1.86279 -0.444097 0
M  V30 2252 H 216.178 -2.57687 -2.95135 0
M  V30 2253 H 217.875 -2.91477 -2.75394 0
M  V30 2254 H 214.465 -3.9204 -1.73213 0
M  V30 2255 H 218.649 -4.79359 -1.28565 0
M  V30 2256 H 213.905 -6.07498 -0.689626 0
M  V30 2257 H 218.079 -6.95948 -0.250894 0
M  V30 2258 H 215.706 -7.60182 0.0529471 0
M  V30 2259 N 217.281 0.66697 -1.42791 0
M  V30 2260 C 218.211 1.79218 -1.49677 0
M  V30 2261 C 219.192 1.66405 -0.352623 0
M  V30 2262 O 220.377 1.85708 -0.567993 0
M  V30 2263 C 217.507 3.17565 -1.40605 0
M  V30 2264 C 216.461 3.45124 -2.53127 0
M  V30 2265 C 215.787 4.83127 -2.29112 0
M  V30 2266 C 217.087 3.41236 -3.95418 0
M  V30 2267 H 218.781 1.73713 -2.43853 0
M  V30 2268 H 216.327 0.83432 -1.17367 0
M  V30 2269 H 218.28 3.96022 -1.44029 0
M  V30 2270 H 217.004 3.23767 -0.429271 0
M  V30 2271 H 215.663 2.69031 -2.49034 0
M  V30 2272 H 215.311 4.85988 -1.29709 0
M  V30 2273 H 215.011 5.02528 -3.04531 0
M  V30 2274 H 216.535 5.63859 -2.34297 0
M  V30 2275 H 217.949 4.09651 -4.01073 0
M  V30 2276 H 216.346 3.72173 -4.70752 0
M  V30 2277 H 217.416 2.39665 -4.21532 0
M  V30 2278 N 218.759 1.29093 0.90403 0
M  V30 2279 C 220.005 1.16986 1.65656 0
M  V30 2280 C 220.338 -0.278925 1.92186 0
M  V30 2281 O 219.613 -1.2019 1.5292 0
M  V30 2282 C 219.896 1.97908 3.0084 0
M  V30 2283 C 219.749 3.50903 2.81403 0
M  V30 2284 C 221.068 1.80208 4.01513 0
M  V30 2285 H 218.187 0.426346 0.601164 0
M  V30 2286 H 220.829 1.58518 1.04747 0
M  V30 2287 H 218.979 1.62616 3.52829 0
M  V30 2288 H 220.651 3.96153 2.36348 0
M  V30 2289 H 218.894 3.76045 2.1627 0
M  V30 2290 H 219.565 4.02791 3.77443 0
M  V30 2291 H 222.041 2.11025 3.58619 0
M  V30 2292 H 220.917 2.39184 4.94047 0
M  V30 2293 H 221.178 0.756119 4.35586 0
M  V30 2294 N 220.237 -1.11381 1.11499 0
M  V30 2295 C 221.514 -1.7955 0.775965 0
M  V30 2296 C 221.894 -1.97859 -0.73588 0
M  V30 2297 O 221.242 -1.56376 -1.66609 0
M  V30 2298 C 221.452 -3.13196 1.53977 0
M  V30 2299 C 222.8 -3.88227 1.71944 0
M  V30 2300 O 223.824 -3.22887 1.50407 0
M  V30 2301 O 222.683 -5.05477 2.07738 0
M  V30 2302 H 219.777 -0.777728 0.28119 0
M  V30 2303 H 222.323 -1.18118 1.21845 0
M  V30 2304 H 221.095 -2.95229 2.56818 0
M  V30 2305 H 220.718 -3.82342 1.09088 0
M  V30 2306 N 221.715 -0.905404 -1.28997 0
M  V30 2307 C 222.962 -0.534248 -1.95325 0
M  V30 2308 C 223.29 0.920535 -1.71337 0
M  V30 2309 O 222.545 1.66861 -1.02254 0
M  V30 2310 C 222.844 -0.779906 -3.48787 0
M  V30 2311 C 222.51 -2.21293 -3.92861 0
M  V30 2312 C 221.172 -2.60475 -4.04606 0
M  V30 2313 C 223.524 -3.14587 -4.15553 0
M  V30 2314 C 220.852 -3.9212 -4.36416 0
M  V30 2315 C 223.204 -4.45787 -4.48839 0
M  V30 2316 C 221.868 -4.84834 -4.58794 0
M  V30 2317 H 221.138 -0.195495 -0.714747 0
M  V30 2318 H 223.785 -1.14514 -1.53488 0
M  V30 2319 H 222.09 -0.0861365 -3.91705 0
M  V30 2320 H 223.787 -0.472029 -3.98212 0
M  V30 2321 H 220.377 -1.89887 -3.84241 0
M  V30 2322 H 224.561 -2.85528 -4.0594 0
M  V30 2323 H 219.817 -4.22086 -4.42327 0
M  V30 2324 H 223.991 -5.18098 -4.65346 0
M  V30 2325 H 221.618 -5.86877 -4.83197 0
M  V30 2326 N 223.193 1.4272 -0.668489 0
M  V30 2327 C 224.14 2.30796 0.0137489 0
M  V30 2328 C 225.11 1.4561 0.799177 0
M  V30 2329 O 226.295 1.74453 0.772702 0
M  V30 2330 C 223.435 3.31377 0.963507 0
M  V30 2331 C 222.548 4.31655 0.172569 0
M  V30 2332 C 221.683 5.19312 1.1175 0
M  V30 2333 C 220.722 6.11274 0.317886 0
M  V30 2334 N 219.859 6.91504 1.2152 0
M  V30 2335 H 224.699 2.88585 -0.743161 0
M  V30 2336 H 222.236 1.42154 -0.378226 0
M  V30 2337 H 224.194 3.88214 1.52792 0
M  V30 2338 H 222.824 2.75202 1.68712 0
M  V30 2339 H 221.876 3.76988 -0.508374 0
M  V30 2340 H 223.188 4.96779 -0.448527 0
M  V30 2341 H 222.342 5.80851 1.75206 0
M  V30 2342 H 221.081 4.5435 1.77249 0
M  V30 2343 H 220.086 5.48809 -0.329918 0
M  V30 2344 H 221.311 6.78283 -0.332917 0
M  V30 2345 H 219.257 6.29176 1.85671 0
M  V30 2346 H 219.174 7.53209 0.649036 0
M  V30 2347 H 220.442 7.57535 1.83742 0
M  V30 2348 N 224.671 0.411399 1.52136 0
M  V30 2349 C 225.948 -0.222308 1.94333 0
M  V30 2350 C 226.328 -1.6242 1.34844 0
M  V30 2351 O 225.676 -2.22384 0.525145 0
M  V30 2352 C 225.886 -0.226345 3.48265 0
M  V30 2353 C 227.234 -0.444592 4.22266 0
M  V30 2354 O 228.258 -0.305602 3.54887 0
M  V30 2355 O 227.117 -0.718749 5.41753 0
M  V30 2356 H 224.211 -0.143907 0.814383 0
M  V30 2357 H 226.757 0.467506 1.63133 0
M  V30 2358 H 225.529 0.75475 3.83952 0
M  V30 2359 H 225.152 -0.960163 3.85832 0
M  V30 2360 N 226.149 -1.5696 0.141893 0
M  V30 2361 C 227.374 -2.00754 -0.520838 0
M  V30 2362 C 227.799 -1.0213 -1.57959 0
M  V30 2363 O 227.157 0.00371324 -1.813 0
M  V30 2364 C 227.205 -3.43318 -1.10294 0
M  V30 2365 O 226.309 -3.47679 -2.21795 0
M  V30 2366 H 225.65 -0.651564 -0.127908 0
M  V30 2367 H 228.18 -2.03221 0.23712 0
M  V30 2368 H 228.19 -3.82012 -1.43287 0
M  V30 2369 H 226.865 -4.14608 -0.327574 0
M  V30 2370 H 225.442 -3.20824 -1.9007 0
M  V30 2371 N 227.627 0.131896 -1.57047 0
M  V30 2372 C 229.043 0.485031 -1.52051 0
M  V30 2373 C 229.243 1.82563 -0.85281 0
M  V30 2374 O 228.299 2.48817 -0.429694 0
M  V30 2375 C 229.612 0.481409 -2.96821 0
M  V30 2376 C 231.16 0.565868 -3.07842 0
M  V30 2377 C 231.635 0.592762 -4.54148 0
M  V30 2378 N 233.126 0.654564 -4.58552 0
M  V30 2379 C 233.861 0.696608 -5.69153 0
M  V30 2380 N 233.357 0.697078 -6.89284 0
M  V30 2381 N 235.15 0.738639 -5.57226 0
M  V30 2382 H 227.301 -0.746664 -1.98843 0
M  V30 2383 H 229.564 -0.273999 -0.90754 0
M  V30 2384 H 229.27 -0.435731 -3.4899 0
M  V30 2385 H 229.144 1.3139 -3.53577 0
M  V30 2386 H 231.531 1.47343 -2.55684 0
M  V30 2387 H 231.612 -0.29406 -2.54104 0
M  V30 2388 H 231.256 -0.310701 -5.06949 0
M  V30 2389 H 231.186 1.46939 -5.05684 0
M  V30 2390 H 233.677 0.660887 -3.72076 0
M  V30 2391 H 233.99 0.731426 -7.69331 0
M  V30 2392 H 232.335 0.66471 -6.91814 0
M  V30 2393 H 235.526 0.735545 -4.62285 0
M  V30 2394 H 235.699 0.767938 -6.43434 0
M  V30 2395 N 229.106 1.52395 0.401703 0
M  V30 2396 C 230.383 1.57387 1.16141 0
M  V30 2397 C 230.763 0.359359 2.08019 0
M  V30 2398 O 230.111 -0.65326 2.18963 0
M  V30 2399 C 230.321 2.90631 1.93221 0
M  V30 2400 C 231.669 3.43904 2.49028 0
M  V30 2401 O 232.693 2.92421 2.03393 0
M  V30 2402 O 231.552 4.33823 3.32356 0
M  V30 2403 H 228.646 0.634262 0.530698 0
M  V30 2404 H 231.192 1.64725 0.407883 0
M  V30 2405 H 229.964 3.70473 1.25958 0
M  V30 2406 H 229.587 2.8662 2.75563 0
M  V30 2407 N 230.584 -0.659388 1.43143 0
M  V30 2408 C 231.531 -1.77249 1.47822 0
M  V30 2409 C 232.501 -1.62818 0.328558 0
M  V30 2410 O 233.686 -1.83151 0.534838 0
M  V30 2411 C 230.826 -3.15371 1.40126 0
M  V30 2412 C 229.939 -3.4098 2.65249 0
M  V30 2413 C 229.074 -4.68915 2.49584 0
M  V30 2414 C 228.113 -4.87608 3.70006 0
M  V30 2415 N 227.25 -6.06796 3.53189 0
M  V30 2416 H 232.09 -1.72584 2.42938 0
M  V30 2417 H 229.627 -0.842297 1.20598 0
M  V30 2418 H 231.585 -3.9521 1.33659 0
M  V30 2419 H 230.215 -3.19121 0.485964 0
M  V30 2420 H 229.267 -2.55282 2.8202 0
M  V30 2421 H 230.579 -3.50681 3.54717 0
M  V30 2422 H 229.733 -5.56871 2.4079 0
M  V30 2423 H 228.472 -4.61524 1.5763 0
M  V30 2424 H 227.477 -3.9809 3.79215 0
M  V30 2425 H 228.702 -4.96834 4.62961 0
M  V30 2426 H 226.648 -6.00549 2.63965 0
M  V30 2427 H 226.565 -6.17428 4.36255 0
M  V30 2428 H 227.833 -6.9739 3.48236 0
M  V30 2429 N 232.062 -1.29571 -0.897171 0
M  V30 2430 C 233.01 -1.14802 -2.02295 0
M  V30 2431 C 234.004 -0.0629637 -1.69283 0
M  V30 2432 O 235.21 -0.222945 -1.78614 0
M  V30 2433 H 231.585 -0.354692 -0.663097 0
M  V30 2434 H 233.556 -2.10108 -2.11889 0
M  V30 2435 C 232.305 -0.843966 -3.37302 0
M  V30 2436 H 231.628 -1.67093 -3.63208 0
M  V30 2437 H 233.068 -0.780672 -4.16751 0
M  V30 2438 C 231.527 0.452843 -3.33843 0
M  V30 2439 O 232.057 1.47813 -3.73516 0
M  V30 2440 N 230.263 0.459601 -2.86943 0
M  V30 2441 H 229.81 -0.375213 -2.54853 0
M  V30 2442 H 229.768 1.32726 -2.85011 0
M  V30 2443 N 233.54 1.10788 -1.12088 0
M  V30 2444 C 234.47 2.19083 -0.807755 0
M  V30 2445 C 235.451 1.6858 0.226859 0
M  V30 2446 O 236.636 1.93997 0.0888475 0
M  V30 2447 C 233.766 3.46344 -0.257576 0
M  V30 2448 C 232.72 4.101 -1.22483 0
M  V30 2449 C 232.046 5.32016 -0.535052 0
M  V30 2450 C 233.346 4.54236 -2.57811 0
M  V30 2451 H 235.04 2.45534 -1.71328 0
M  V30 2452 H 232.586 1.1801 -0.825205 0
M  V30 2453 H 234.539 4.21392 -0.0262679 0
M  V30 2454 H 233.263 3.19373 0.683278 0
M  V30 2455 H 231.922 3.37054 -1.44189 0
M  V30 2456 H 231.57 5.01319 0.410827 0
M  V30 2457 H 231.27 5.75625 -1.18024 0
M  V30 2458 H 232.794 6.09799 -0.312695 0
M  V30 2459 H 234.208 5.20575 -2.40155 0
M  V30 2460 H 232.605 5.08682 -3.18375 0
M  V30 2461 H 233.675 3.6734 -3.16528 0
M  V30 2462 N 235.018 0.912232 1.28515 0
M  V30 2463 C 235.981 0.404223 2.25607 0
M  V30 2464 C 236.981 -0.468602 1.53821 0
M  V30 2465 O 238.171 -0.271873 1.72065 0
M  V30 2466 C 235.303 -0.420653 3.38295 0
M  V30 2467 H 236.496 1.26188 2.7206 0
M  V30 2468 H 234.049 0.691495 1.40171 0
M  V30 2469 H 234.784 -1.29777 2.97201 0
M  V30 2470 H 234.569 0.204935 3.91564 0
M  V30 2471 H 236.059 -0.766971 4.10496 0
M  V30 2472 N 236.496 -1.42363 0.676048 0
M  V30 2473 C 237.742 -2.0182 0.199125 0
M  V30 2474 C 238.075 -1.53339 -1.19168 0
M  V30 2475 O 237.35 -0.736124 -1.80032 0
M  V30 2476 C 237.633 -3.59331 0.235144 0
M  V30 2477 C 237.486 -4.17989 1.66149 0
M  V30 2478 C 238.805 -4.3813 -0.41595 0
M  V30 2479 H 235.924 -0.733293 0.0738311 0
M  V30 2480 H 238.566 -1.69368 0.86107 0
M  V30 2481 H 236.716 -3.87109 -0.328487 0
M  V30 2482 H 238.388 -4.0116 2.27747 0
M  V30 2483 H 236.631 -3.7377 2.20178 0
M  V30 2484 H 237.302 -5.27126 1.63837 0
M  V30 2485 H 239.778 -4.16051 0.0638529 0
M  V30 2486 H 238.654 -5.47717 -0.360115 0
M  V30 2487 H 238.915 -4.16101 -1.49373 0
M  V30 2488 N 237.974 -0.419461 -1.51915 0
M  V30 2489 C 239.221 0.152939 -2.01922 0
M  V30 2490 C 239.549 1.4426 -1.30458 0
M  V30 2491 O 238.804 1.91514 -0.402593 0
M  V30 2492 C 239.103 0.437067 -3.54717 0
M  V30 2493 C 238.769 -0.764632 -4.44369 0
M  V30 2494 C 237.431 -1.09423 -4.68594 0
M  V30 2495 C 239.783 -1.56713 -4.97082 0
M  V30 2496 C 237.111 -2.22732 -5.42777 0
M  V30 2497 C 239.463 -2.69107 -5.72507 0
M  V30 2498 C 238.127 -3.02541 -5.95 0
M  V30 2499 H 237.397 0.0559644 -0.738884 0
M  V30 2500 H 240.044 -0.562998 -1.83037 0
M  V30 2501 H 238.349 1.23469 -3.71837 0
M  V30 2502 H 240.046 0.893083 -3.90928 0
M  V30 2503 H 236.636 -0.497775 -4.257 0
M  V30 2504 H 240.82 -1.32571 -4.78266 0
M  V30 2505 H 236.076 -2.48971 -5.58411 0
M  V30 2506 H 240.25 -3.31671 -6.12346 0
M  V30 2507 H 237.877 -3.90457 -6.52264 0
M  V30 2508 N 239.452 1.56882 -0.150215 0
M  V30 2509 C 240.399 2.16922 0.788244 0
M  V30 2510 C 241.369 1.10303 1.24187 0
M  V30 2511 O 242.554 1.38359 1.31383 0
M  V30 2512 C 239.694 2.79754 2.02068 0
M  V30 2513 C 238.807 4.00775 1.61257 0
M  V30 2514 C 237.942 4.51595 2.79705 0
M  V30 2515 C 236.981 5.65074 2.35282 0
M  V30 2516 N 236.118 6.10499 3.4675 0
M  V30 2517 H 240.958 2.96779 0.269444 0
M  V30 2518 H 238.495 1.46599 0.12128 0
M  V30 2519 H 240.453 3.14329 2.74323 0
M  V30 2520 H 239.083 2.02536 2.51354 0
M  V30 2521 H 238.135 3.72158 0.787553 0
M  V30 2522 H 239.447 4.82978 1.24633 0
M  V30 2523 H 238.601 4.88242 3.60145 0
M  V30 2524 H 237.34 3.68406 3.19576 0
M  V30 2525 H 236.345 5.28 1.53283 0
M  V30 2526 H 237.57 6.50052 1.96493 0
M  V30 2527 H 235.516 5.30243 3.86236 0
M  V30 2528 H 235.433 6.87637 3.14152 0
M  V30 2529 H 236.701 6.51791 4.27537 0
M  V30 2530 N 240.93 -0.123565 1.57115 0
M  V30 2531 C 241.86 -1.15309 2.03042 0
M  V30 2532 C 242.841 -1.43454 0.914061 0
M  V30 2533 O 244.026 -1.53973 1.18347 0
M  V30 2534 C 241.156 -2.48043 2.43089 0
M  V30 2535 C 240.11 -2.3437 3.58127 0
M  V30 2536 C 239.436 -3.72026 3.84059 0
M  V30 2537 C 240.736 -1.80804 4.90007 0
M  V30 2538 H 242.43 -0.771102 2.893 0
M  V30 2539 H 239.976 -0.369479 1.39179 0
M  V30 2540 H 241.929 -3.20311 2.73823 0
M  V30 2541 H 240.653 -2.88122 1.53796 0
M  V30 2542 H 239.312 -1.64551 3.27595 0
M  V30 2543 H 238.96 -4.09582 2.91979 0
M  V30 2544 H 238.66 -3.63732 4.6149 0
M  V30 2545 H 240.184 -4.45806 4.1724 0
M  V30 2546 H 241.598 -2.42886 5.19307 0
M  V30 2547 H 239.995 -1.83343 5.71407 0
M  V30 2548 H 241.065 -0.76528 4.78823 0
M  V30 2549 N 242.408 -1.52605 -0.393616 0
M  V30 2550 C 243.656 -1.67093 -1.13685 0
M  V30 2551 C 243.977 -0.411011 -1.90619 0
M  V30 2552 O 243.247 0.574491 -1.87287 0
M  V30 2553 H 241.827 -0.615923 -0.422668 0
M  V30 2554 H 244.489 -1.89704 -0.447039 0
M  V30 2555 H 243.585 -2.51922 -1.84232 0
M  V30 2556 N 243.887 0.651787 -1.4349 0
M  V30 2557 C 245.164 1.40909 -1.35661 0
M  V30 2558 C 245.544 2.11099 -0.00511733 0
M  V30 2559 O 244.892 2.04892 1.0115 0
M  V30 2560 C 245.102 2.3926 -2.54078 0
M  V30 2561 C 246.45 3.03217 -2.97228 0
M  V30 2562 O 247.474 2.49588 -2.54135 0
M  V30 2563 O 246.333 4.00455 -3.71885 0
M  V30 2564 H 243.427 0.629625 -0.536191 0
M  V30 2565 H 245.973 0.678575 -1.55542 0
M  V30 2566 H 244.745 1.86352 -3.44076 0
M  V30 2567 H 244.368 3.1976 -2.36303 0
M  V30 2568 N 245.365 1.30045 0.890287 0
M  V30 2569 C 246.611 1.18737 1.64406 0
M  V30 2570 C 246.944 -0.258525 1.92472 0
M  V30 2571 O 246.219 -1.18562 1.54186 0
M  V30 2572 C 246.502 2.01087 2.98724 0
M  V30 2573 C 246.355 3.53867 2.77665 0
M  V30 2574 C 247.674 1.84457 3.9958 0
M  V30 2575 H 244.793 0.432698 0.596608 0
M  V30 2576 H 247.435 1.5962 1.0306 0
M  V30 2577 H 245.585 1.66349 3.51084 0
M  V30 2578 H 247.257 3.98637 2.32133 0
M  V30 2579 H 245.5 3.78318 2.12269 0
M  V30 2580 H 246.171 4.06772 3.7315 0
M  V30 2581 H 248.647 2.14817 3.56361 0
M  V30 2582 H 247.523 2.44411 4.91482 0
M  V30 2583 H 247.784 0.802276 4.3476 0
M  V30 2584 N 246.843 -1.10192 1.12674 0
M  V30 2585 C 248.259 -1.34235 0.863317 0
M  V30 2586 C 248.459 -1.95062 -0.505277 0
M  V30 2587 O 247.515 -2.19192 -1.25345 0
M  V30 2588 C 248.828 -2.2616 1.98172 0
M  V30 2589 C 250.376 -2.3969 2.0129 0
M  V30 2590 C 250.851 -3.34946 3.1237 0
M  V30 2591 N 252.342 -3.42515 3.11829 0
M  V30 2592 C 253.077 -4.16199 3.94419 0
M  V30 2593 N 252.573 -4.92747 4.87004 0
M  V30 2594 N 254.366 -4.11843 3.82547 0
M  V30 2595 H 246.517 -0.690798 2.00853 0
M  V30 2596 H 248.78 -0.366774 0.874174 0
M  V30 2597 H 248.486 -1.8868 2.96804 0
M  V30 2598 H 248.36 -3.26488 1.88906 0
M  V30 2599 H 250.747 -2.76438 1.03276 0
M  V30 2600 H 250.828 -1.39169 2.14629 0
M  V30 2601 H 250.472 -2.98923 4.10619 0
M  V30 2602 H 250.402 -4.35353 2.96269 0
M  V30 2603 H 252.893 -2.87926 2.44759 0
M  V30 2604 H 253.206 -5.46376 5.46528 0
M  V30 2605 H 251.551 -4.91862 4.91016 0
M  V30 2606 H 254.742 -3.51136 3.0955 0
M  V30 2607 H 254.915 -4.69007 4.47142 0
M  V30 2608 N 248.321 -0.919034 -1.28029 0
M  V30 2609 C 249.269 -0.401753 -2.29104 0
M  V30 2610 C 250.263 0.509354 -1.61561 0
M  V30 2611 O 251.469 0.390014 -1.75724 0
M  V30 2612 H 247.844 -0.111331 -0.743713 0
M  V30 2613 H 249.815 -1.2672 -2.70156 0
M  V30 2614 C 248.564 0.338148 -3.46052 0
M  V30 2615 H 247.887 -0.353732 -3.98232 0
M  V30 2616 H 249.327 0.664653 -4.18758 0
M  V30 2617 C 247.786 1.54798 -2.99231 0
M  V30 2618 O 248.316 2.64696 -3.02157 0
M  V30 2619 N 246.522 1.3968 -2.54829 0
M  V30 2620 H 246.069 0.502698 -2.52647 0
M  V30 2621 H 246.027 2.20755 -2.23863 0
M  V30 2622 N 249.799 1.42003 -0.683588 0
M  V30 2623 C 251.029 2.05448 -0.217866 0
M  V30 2624 C 251.437 1.51491 1.13346 0
M  V30 2625 O 250.78 0.653048 1.717 0
M  V30 2626 C 250.842 3.59399 -0.0850118 0
M  V30 2627 C 250.506 4.36093 -1.36645 0
M  V30 2628 C 251.503 4.66169 -2.30179 0
M  V30 2629 C 249.188 4.75578 -1.61649 0
M  V30 2630 C 251.182 5.34676 -3.46988 0
M  V30 2631 C 248.869 5.43824 -2.78745 0
M  V30 2632 C 249.867 5.73299 -3.71238 0
M  V30 2633 O 249.555 6.40142 -4.86285 0
M  V30 2634 H 249.287 0.668344 -0.101454 0
M  V30 2635 H 251.841 1.82974 -0.933248 0
M  V30 2636 H 250.071 3.80566 0.686031 0
M  V30 2637 H 251.76 4.04457 0.341973 0
M  V30 2638 H 252.526 4.36156 -2.12115 0
M  V30 2639 H 248.405 4.52025 -0.905243 0
M  V30 2640 H 251.949 5.57599 -4.19201 0
M  V30 2641 H 247.846 5.73254 -2.96732 0
M  V30 2642 H 248.614 6.58636 -4.85944 0
M  V30 2643 N 251.277 0.427512 1.51691 0
M  V30 2644 C 252.224 -0.388867 2.275 0
M  V30 2645 C 253.194 -1.02532 1.30677 0
M  V30 2646 O 254.379 -1.0461 1.59566 0
M  V30 2647 C 251.519 -1.48954 3.11298 0
M  V30 2648 C 250.632 -0.872194 4.23104 0
M  V30 2649 C 249.767 -1.94709 4.94228 0
M  V30 2650 C 248.806 -1.30766 5.97969 0
M  V30 2651 N 247.943 -2.32349 6.62539 0
M  V30 2652 H 252.783 0.263997 2.96828 0
M  V30 2653 H 250.32 0.142033 1.46413 0
M  V30 2654 H 252.278 -2.13887 3.58201 0
M  V30 2655 H 250.908 -2.11217 2.44105 0
M  V30 2656 H 249.96 -0.111419 3.80237 0
M  V30 2657 H 251.272 -0.365264 4.97461 0
M  V30 2658 H 250.426 -2.67327 5.44629 0
M  V30 2659 H 249.165 -2.48773 4.1948 0
M  V30 2660 H 248.17 -0.566902 5.4687 0
M  V30 2661 H 249.395 -0.774483 6.74669 0
M  V30 2662 H 247.341 -2.85511 5.90609 0
M  V30 2663 H 247.258 -1.8652 7.3263 0
M  V30 2664 H 248.526 -3.04481 7.17574 0
M  V30 2665 N 252.755 -1.56801 0.158532 0
M  V30 2666 C 254.004 -1.95665 -0.489702 0
M  V30 2667 C 254.317 -1.04654 -1.65248 0
M  V30 2668 O 255.523 -1.33146 -2.3661 0
M  V30 2669 C 253.979 -3.47874 -0.922582 0
M  V30 2670 C 253.587 -4.47489 0.213893 0
M  V30 2671 C 255.331 -3.95583 -1.53996 0
M  V30 2672 C 253.238 -5.90921 -0.237903 0
M  V30 2673 H 252.168 -0.730516 -0.186716 0
M  V30 2674 H 254.819 -1.81861 0.244722 0
M  V30 2675 H 253.201 -3.57051 -1.71261 0
M  V30 2676 H 254.375 -4.50017 0.991036 0
M  V30 2677 H 252.69 -4.09764 0.740407 0
M  V30 2678 H 255.287 -5.0019 -1.8898 0
M  V30 2679 H 255.63 -3.37789 -2.43319 0
M  V30 2680 H 256.163 -3.8937 -0.814611 0
M  V30 2681 H 252.902 -6.52559 0.620236 0
M  V30 2682 H 252.422 -5.91729 -0.980676 0
M  V30 2683 H 254.101 -6.43352 -0.686067 0
M  V30 2684 N 254.233 0.115231 -1.57178 0
M  V30 2685 C 255.458 0.840354 -1.89612 0
M  V30 2686 C 255.883 1.72464 -0.750845 0
M  V30 2687 O 255.241 1.78826 0.298478 0
M  V30 2688 C 255.289 1.64654 -3.20814 0
M  V30 2689 O 254.393 2.7538 -3.06985 0
M  V30 2690 H 253.734 0.232158 -0.622092 0
M  V30 2691 H 256.264 0.0964977 -2.04372 0
M  V30 2692 H 256.274 2.03499 -3.53627 0
M  V30 2693 H 254.949 0.997416 -4.03763 0
M  V30 2694 H 253.526 2.3971 -2.85646 0
M  V30 2695 N 255.711 1.52812 0.385517 0
M  V30 2696 C 256.659 1.78482 1.49155 0
M  V30 2697 C 257.653 0.652914 1.56312 0
M  V30 2698 O 258.859 0.835464 1.59436 0
M  V30 2699 H 255.234 0.5648 0.496493 0
M  V30 2700 H 257.205 2.71095 1.24699 0
M  V30 2701 C 255.954 1.97378 2.86247 0
M  V30 2702 H 255.277 2.83907 2.81491 0
M  V30 2703 H 256.717 2.19327 3.62866 0
M  V30 2704 C 255.176 0.74728 3.28508 0
M  V30 2705 O 255.706 -0.0736232 4.01633 0
M  V30 2706 N 253.912 0.576396 2.84826 0
M  V30 2707 H 253.459 1.24555 2.25486 0
M  V30 2708 H 253.417 -0.24288 3.1346 0
M  V30 2709 N 257.189 -0.644168 1.43834 0
M  V30 2710 C 258.436 -1.40395 1.4593 0
M  V30 2711 C 258.764 -1.94305 0.0869658 0
M  V30 2712 O 258.019 -1.73288 -0.909378 0
M  V30 2713 C 258.318 -2.59615 2.45631 0
M  V30 2714 C 257.984 -2.2407 3.91284 0
M  V30 2715 C 256.646 -2.14089 4.30952 0
M  V30 2716 C 258.998 -1.95775 4.83034 0
M  V30 2717 C 256.326 -1.73981 5.6031 0
M  V30 2718 C 258.678 -1.57163 6.12766 0
M  V30 2719 C 257.342 -1.45713 6.51402 0
M  V30 2720 H 256.612 -0.513741 0.533995 0
M  V30 2721 H 259.259 -0.731724 1.76969 0
M  V30 2722 H 257.564 -3.32011 2.08028 0
M  V30 2723 H 259.261 -3.17834 2.44504 0
M  V30 2724 H 255.851 -2.32753 3.59895 0
M  V30 2725 H 260.035 -2.02403 4.53152 0
M  V30 2726 H 255.291 -1.63709 5.89075 0
M  V30 2727 H 259.465 -1.34303 6.83327 0
M  V30 2728 H 257.092 -1.14406 7.51542 0
M  V30 2729 N 258.668 -1.30515 -0.883378 0
M  V30 2730 C 259.896 -1.22359 -1.66841 0
M  V30 2731 C 260.311 0.213296 -1.87591 0
M  V30 2732 O 259.668 1.14075 -1.42454 0
M  V30 2733 C 259.719 -1.95011 -3.04389 0
M  V30 2734 O 259.44 -3.3309 -2.84575 0
M  V30 2735 C 260.941 -1.93532 -3.98824 0
M  V30 2736 H 258.161 -0.423371 -0.520575 0
M  V30 2737 H 260.705 -1.72167 -1.10357 0
M  V30 2738 H 258.86 -1.48997 -3.57601 0
M  V30 2739 H 259.274 -3.69907 -3.71846 0
M  V30 2740 H 260.748 -2.48902 -4.92699 0
M  V30 2741 H 261.225 -0.914627 -4.29571 0
M  V30 2742 H 261.831 -2.39364 -3.51547 0
M  V30 2743 N 260.146 1.09593 -1.13257 0
M  V30 2744 C 261.395 1.81105 -0.887917 0
M  V30 2745 C 261.708 1.86563 0.587672 0
M  V30 2746 O 262.914 2.54367 0.949204 0
M  V30 2747 C 261.37 3.25338 -1.53895 0
M  V30 2748 C 260.978 3.28151 -3.04994 0
M  V30 2749 C 262.722 4.01617 -1.37492 0
M  V30 2750 C 260.629 4.66897 -3.6299 0
M  V30 2751 H 259.559 0.678661 -0.328534 0
M  V30 2752 H 262.21 1.23183 -1.36008 0
M  V30 2753 H 260.592 3.8331 -0.994446 0
M  V30 2754 H 261.766 2.79953 -3.66009 0
M  V30 2755 H 260.081 2.65361 -3.20893 0
M  V30 2756 H 262.678 5.04119 -1.78235 0
M  V30 2757 H 263.021 4.15072 -0.31957 0
M  V30 2758 H 263.554 3.50082 -1.88912 0
M  V30 2759 H 260.293 4.58643 -4.68323 0
M  V30 2760 H 259.813 5.15426 -3.06752 0
M  V30 2761 H 261.492 5.3587 -3.62563 0
M  V30 2762 N 261.624 0.925811 1.2754 0
M  V30 2763 C 262.901 0.483726 1.89524 0
M  V30 2764 C 263.281 -1.03809 1.83812 0
M  V30 2765 O 262.629 -1.89143 1.28207 0
M  V30 2766 C 262.839 1.02769 3.33526 0
M  V30 2767 C 264.187 1.08703 4.10449 0
M  V30 2768 O 265.211 0.977175 3.42534 0
M  V30 2769 O 264.07 1.25599 5.31871 0
M  V30 2770 H 261.164 0.15529 0.812289 0
M  V30 2771 H 263.71 1.01738 1.35822 0
M  V30 2772 H 262.482 2.07155 3.31967 0
M  V30 2773 H 262.105 0.475567 3.94746 0
M  V30 2774 N 263.102 -1.41638 0.69111 0
M  V30 2775 C 264.379 -1.95036 0.148421 0
M  V30 2776 C 264.759 -1.63072 -1.34055 0
M  V30 2777 O 264.107 -0.93538 -2.08478 0
M  V30 2778 C 264.317 -3.46279 0.434951 0
M  V30 2779 C 265.665 -4.23069 0.360275 0
M  V30 2780 O 266.689 -3.54277 0.369613 0
M  V30 2781 O 265.548 -5.45583 0.316534 0
M  V30 2782 H 262.642 -0.826908 0.0123654 0
M  V30 2783 H 265.188 -1.5138 0.766963 0
M  V30 2784 H 263.96 -3.6281 1.46576 0
M  V30 2785 H 263.583 -3.97019 -0.214787 0
M  V30 2786 N 264.58 -0.43555 -1.51462 0
M  V30 2787 C 265.528 0.391205 -2.29287 0
M  V30 2788 C 266.522 1.02247 -1.35062 0
M  V30 2789 O 267.728 0.957646 -1.52411 0
M  V30 2790 H 264.103 0.144968 -0.737895 0
M  V30 2791 H 266.074 -0.286051 -2.97026 0
M  V30 2792 C 264.823 1.48096 -3.14583 0
M  V30 2793 H 264.146 1.00457 -3.86973 0
M  V30 2794 H 265.586 2.03273 -3.72097 0
M  V30 2795 C 264.045 2.46321 -2.29843 0
M  V30 2796 O 264.575 3.50815 -1.95682 0
M  V30 2797 N 262.781 2.17166 -1.931 0
M  V30 2798 H 262.328 1.32218 -2.21079 0
M  V30 2799 H 262.286 2.83127 -1.36698 0
M  V30 2800 N 266.058 1.56714 -0.166846 0
M  V30 2801 C 267.005 2.17746 0.765193 0
M  V30 2802 C 267.975 1.11614 1.23011 0
M  V30 2803 O 269.16 1.39745 1.29908 0
M  V30 2804 C 266.3 2.81882 1.9909 0
M  V30 2805 C 265.413 4.02462 1.56997 0
M  V30 2806 C 264.548 4.54537 2.749 0
M  V30 2807 C 263.587 5.67538 2.29275 0
M  V30 2808 N 262.724 6.14142 3.40255 0
M  V30 2809 H 267.564 2.97048 0.237952 0
M  V30 2810 H 265.101 1.4672 0.105725 0
M  V30 2811 H 267.059 3.17221 2.70974 0
M  V30 2812 H 265.689 2.05191 2.49192 0
M  V30 2813 H 264.741 3.72973 0.748037 0
M  V30 2814 H 266.053 4.84273 1.19503 0
M  V30 2815 H 265.207 4.92035 3.54946 0
M  V30 2816 H 263.946 3.71774 3.1565 0
M  V30 2817 H 262.951 5.29597 1.47674 0
M  V30 2818 H 264.176 6.52099 1.89588 0
M  V30 2819 H 262.122 5.3431 3.8059 0
M  V30 2820 H 262.039 6.9093 3.06841 0
M  V30 2821 H 263.307 6.56289 4.206 0
M  V30 2822 N 267.536 -0.106894 1.57237 0
M  V30 2823 C 268.764 -0.826389 1.8968 0
M  V30 2824 C 269.179 -1.72856 0.759353 0
M  V30 2825 O 268.536 -1.80503 -0.269263 0
M  V30 2826 C 268.587 -1.64967 3.21665 0
M  V30 2827 O 268.308 -0.783804 4.31031 0
M  V30 2828 C 269.809 -2.47326 3.67892 0
M  V30 2829 H 267.029 -0.236927 0.627779 0
M  V30 2830 H 269.573 -0.0876593 2.04312 0
M  V30 2831 H 267.728 -2.34103 3.08666 0
M  V30 2832 H 268.142 -1.35284 5.06753 0
M  V30 2833 H 269.616 -3.00604 4.6297 0
M  V30 2834 H 270.093 -3.25247 2.95146 0
M  V30 2835 H 270.699 -1.83411 3.83719 0
M  V30 2836 N 269.014 -1.53014 -0.377408 0
M  V30 2837 C 270.263 -1.67845 -1.11853 0
M  V30 2838 C 270.576 -0.430625 -1.90801 0
M  V30 2839 O 271.782 -0.459261 -2.67587 0
M  V30 2840 C 270.238 -2.96668 -2.03756 0
M  V30 2841 C 269.846 -4.28671 -1.30175 0
M  V30 2842 C 271.59 -3.20865 -2.77932 0
M  V30 2843 C 269.497 -5.48591 -2.20911 0
M  V30 2844 H 268.427 -0.625343 -0.421263 0
M  V30 2845 H 271.078 -1.79514 -0.380409 0
M  V30 2846 H 269.46 -2.78773 -2.8125 0
M  V30 2847 H 270.634 -4.57157 -0.578259 0
M  V30 2848 H 268.949 -4.10825 -0.679108 0
M  V30 2849 H 271.546 -4.07642 -3.46024 0
M  V30 2850 H 271.889 -2.36424 -3.4265 0
M  V30 2851 H 272.422 -3.39379 -2.07525 0
M  V30 2852 H 269.161 -6.35474 -1.6079 0
M  V30 2853 H 268.681 -5.244 -2.91144 0
M  V30 2854 H 270.36 -5.8292 -2.80736 0
M  V30 2855 N 270.492 0.636531 -1.44174 0
M  V30 2856 C 271.739 1.39619 -1.46672 0
M  V30 2857 C 272.067 1.94257 -0.0972691 0
M  V30 2858 O 271.322 1.73768 0.900175 0
M  V30 2859 C 271.621 2.58309 -2.47005 0
M  V30 2860 C 271.287 2.21992 -3.92467 0
M  V30 2861 C 269.949 2.118 -4.32081 0
M  V30 2862 C 272.301 1.9321 -4.84065 0
M  V30 2863 C 269.629 1.71007 -5.61225 0
M  V30 2864 C 271.981 1.53911 -6.13591 0
M  V30 2865 C 270.645 1.42257 -6.52165 0
M  V30 2866 H 269.915 0.510902 -0.536712 0
M  V30 2867 H 272.562 0.722328 -1.77355 0
M  V30 2868 H 270.867 3.30903 -2.09786 0
M  V30 2869 H 272.564 3.16533 -2.46186 0
M  V30 2870 H 269.154 2.30841 -3.61124 0
M  V30 2871 H 273.338 1.99997 -4.54219 0
M  V30 2872 H 268.594 1.60583 -5.89935 0
M  V30 2873 H 272.768 1.30677 -6.8403 0
M  V30 2874 H 270.395 1.10419 -7.52138 0
M  V30 2875 N 271.97 1.30982 0.876444 0
M  V30 2876 C 272.933 1.18054 1.96459 0
M  V30 2877 C 273.933 0.109399 1.60427 0
M  V30 2878 O 275.123 0.358173 1.70478 0
M  V30 2879 C 272.255 0.810616 3.31122 0
M  V30 2880 H 273.448 2.14735 2.09354 0
M  V30 2881 H 271.001 1.145 1.06392 0
M  V30 2882 H 271.736 -0.155322 3.23928 0
M  V30 2883 H 271.521 1.58481 3.58645 0
M  V30 2884 H 273.011 0.743876 4.10921 0
M  V30 2885 N 273.449 -1.08991 1.13837 0
M  V30 2886 C 274.674 -1.85551 0.926585 0
M  V30 2887 C 275.099 -1.80782 -0.519566 0
M  V30 2888 O 274.457 -1.18855 -1.36906 0
M  V30 2889 C 274.505 -3.31266 1.42462 0
M  V30 2890 O 273.609 -4.07822 0.612789 0
M  V30 2891 H 272.95 -0.575192 0.331738 0
M  V30 2892 H 275.48 -1.37604 1.51414 0
M  V30 2893 H 275.49 -3.82112 1.43019 0
M  V30 2894 H 274.165 -3.34052 2.47754 0
M  V30 2895 H 272.742 -3.66731 0.675463 0
M  V30 2896 N 274.927 -0.932562 -1.27047 0
M  V30 2897 C 276.176 -0.571351 -1.93439 0
M  V30 2898 C 276.489 0.892467 -1.74053 0
M  V30 2899 O 277.695 1.36267 -2.34826 0
M  V30 2900 C 276.151 -0.97106 -3.46552 0
M  V30 2901 C 275.759 -2.4559 -3.74686 0
M  V30 2902 C 277.503 -0.681333 -4.18997 0
M  V30 2903 C 275.41 -2.79475 -5.21198 0
M  V30 2904 H 274.34 -0.209966 -0.724176 0
M  V30 2905 H 276.991 -1.13403 -1.44263 0
M  V30 2906 H 275.373 -0.336983 -3.94564 0
M  V30 2907 H 276.547 -3.13829 -3.37414 0
M  V30 2908 H 274.862 -2.71802 -3.15456 0
M  V30 2909 H 277.459 -0.910939 -5.26883 0
M  V30 2910 H 277.802 0.381628 -4.14547 0
M  V30 2911 H 278.335 -1.27473 -3.76823 0
M  V30 2912 H 275.074 -3.847 -5.30741 0
M  V30 2913 H 274.594 -2.1589 -5.596 0
M  V30 2914 H 276.273 -2.67478 -5.89122 0
M  V30 2915 N 276.405 1.4127 -0.698611 0
M  V30 2916 C 277.335 2.33447 -0.049629 0
M  V30 2917 C 278.316 1.51982 0.763898 0
M  V30 2918 O 279.501 1.80509 0.716257 0
M  V30 2919 C 276.631 3.35828 0.885267 0
M  V30 2920 C 275.585 4.27627 0.178613 0
M  V30 2921 C 274.911 5.20406 1.22807 0
M  V30 2922 C 276.211 5.13459 -0.956933 0
M  V30 2923 H 277.905 2.87966 -0.81951 0
M  V30 2924 H 275.451 1.38461 -0.395538 0
M  V30 2925 H 277.404 3.9924 1.34854 0
M  V30 2926 H 276.128 2.79666 1.68685 0
M  V30 2927 H 274.787 3.65643 -0.26466 0
M  V30 2928 H 274.435 4.60558 2.02226 0
M  V30 2929 H 274.135 5.82661 0.760239 0
M  V30 2930 H 275.659 5.86695 1.69179 0
M  V30 2931 H 277.073 5.70421 -0.573805 0
M  V30 2932 H 275.47 5.8467 -1.35205 0
M  V30 2933 H 276.54 4.50443 -1.79524 0
M  V30 2934 N 277.883 0.443576 1.51229 0
M  V30 2935 C 279.129 -0.120975 2.02439 0
M  V30 2936 C 279.462 -1.41815 1.32674 0
M  V30 2937 O 278.737 -1.89373 0.443622 0
M  V30 2938 C 279.02 -0.333291 3.58554 0
M  V30 2939 C 278.873 0.982968 4.38928 0
M  V30 2940 C 280.192 -1.10028 4.26124 0
M  V30 2941 H 277.311 -0.0424923 0.735774 0
M  V30 2942 H 279.953 0.583794 1.80809 0
M  V30 2943 H 278.103 -0.933614 3.77115 0
M  V30 2944 H 279.775 1.61775 4.32003 0
M  V30 2945 H 278.018 1.58611 4.03763 0
M  V30 2946 H 278.689 0.788379 5.46341 0
M  V30 2947 H 281.165 -0.591711 4.11871 0
M  V30 2948 H 280.041 -1.21761 5.35225 0
M  V30 2949 H 280.302 -2.12996 3.87408 0
M  V30 2950 N 279.361 -1.56624 0.175154 0
M  V30 2951 C 280.638 -1.88688 -0.515373 0
M  V30 2952 C 281.018 -1.08564 -1.81044 0
M  V30 2953 O 280.366 -0.180703 -2.27784 0
M  V30 2954 C 280.576 -3.40768 -0.753552 0
M  V30 2955 C 281.924 -4.10587 -1.08184 0
M  V30 2956 O 282.948 -3.46106 -0.841961 0
M  V30 2957 O 281.807 -5.24512 -1.53459 0
M  V30 2958 H 278.901 -0.78301 -0.26613 0
M  V30 2959 H 281.447 -1.68347 0.213877 0
M  V30 2960 H 280.219 -3.90965 0.161829 0
M  V30 2961 H 279.842 -3.66733 -1.53598 0
M  V30 2962 N 280.839 0.0985539 -1.57292 0
M  V30 2963 C 282.085 0.803867 -1.86188 0
M  V30 2964 C 282.418 1.78549 -0.763794 0
M  V30 2965 O 281.693 1.93153 0.22855 0
M  V30 2966 C 281.976 1.53568 -3.25713 0
M  V30 2967 C 281.829 0.572277 -4.46145 0
M  V30 2968 C 283.148 2.48708 -3.63087 0
M  V30 2969 H 280.267 0.290781 -0.677211 0
M  V30 2970 H 282.909 0.0675783 -1.8988 0
M  V30 2971 H 281.059 2.16332 -3.22696 0
M  V30 2972 H 282.731 -0.0480894 -4.61275 0
M  V30 2973 H 280.974 -0.114618 -4.33649 0
M  V30 2974 H 281.645 1.12139 -5.40489 0
M  V30 2975 H 284.121 1.96039 -3.67026 0
M  V30 2976 H 282.997 2.96932 -4.61652 0
M  V30 2977 H 283.258 3.32309 -2.91588 0
M  V30 2978 N 282.317 1.53212 0.369288 0
M  V30 2979 C 283.545 1.73119 1.13303 0
M  V30 2980 C 283.96 0.458455 1.83149 0
M  V30 2981 O 283.317 -0.568403 1.73423 0
M  V30 2982 C 283.368 2.89413 2.16616 0
M  V30 2983 O 283.089 4.11761 1.49614 0
M  V30 2984 C 284.59 3.21161 3.05566 0
M  V30 2985 H 281.81 0.579107 0.338934 0
M  V30 2986 H 284.354 1.99942 0.429338 0
M  V30 2987 H 282.509 2.64994 2.82589 0
M  V30 2988 H 282.923 4.76858 2.18419 0
M  V30 2989 H 284.397 4.05949 3.74045 0
M  V30 2990 H 284.874 2.36369 3.70171 0
M  V30 2991 H 285.48 3.47492 2.45213 0
M  V30 2992 N 283.795 -0.628877 1.44509 0
M  V30 2993 C 284.705 -1.7694 1.54044 0
M  V30 2994 C 285.721 -1.68705 0.425987 0
M  V30 2995 O 286.897 -1.89442 0.683656 0
M  V30 2996 C 283.962 -3.13332 1.48405 0
M  V30 2997 C 283.023 -3.33181 2.70719 0
M  V30 2998 C 282.256 -4.63067 2.6534 0
M  V30 2999 O 282.479 -5.44017 1.71469 0
M  V30 3000 O 281.413 -4.85167 3.56226 0
M  V30 3001 H 285.239 -1.71848 2.50403 0
M  V30 3002 H 282.824 -0.790378 1.26781 0
M  V30 3003 H 284.706 -3.94634 1.47791 0
M  V30 3004 H 283.381 -3.1896 0.551898 0
M  V30 3005 H 282.288 -2.51549 2.769 0
M  V30 3006 H 283.621 -3.32416 3.62988 0
M  V30 3007 N 285.273 -1.31445 -0.869486 0
M  V30 3008 C 286.689 -1.10113 -1.15531 0
M  V30 3009 C 286.889 0.128087 -2.01092 0
M  V30 3010 O 285.945 0.817276 -2.38908 0
M  V30 3011 C 287.258 -2.37291 -1.84698 0
M  V30 3012 C 288.806 -2.42906 -1.97397 0
M  V30 3013 C 289.281 -3.69967 -2.69979 0
M  V30 3014 N 290.772 -3.70864 -2.77514 0
M  V30 3015 C 291.507 -4.65875 -3.34287 0
M  V30 3016 N 291.003 -5.71242 -3.91988 0
M  V30 3017 N 292.796 -4.53394 -3.3225 0
M  V30 3018 H 284.947 -2.1028 -0.299347 0
M  V30 3019 H 287.21 -0.927683 -0.195214 0
M  V30 3020 H 286.916 -3.27078 -1.29278 0
M  V30 3021 H 286.79 -2.47125 -2.84972 0
M  V30 3022 H 289.177 -1.53588 -2.51982 0
M  V30 3023 H 289.258 -2.37036 -0.961643 0
M  V30 3024 H 288.902 -4.59652 -2.16062 0
M  V30 3025 H 288.832 -3.73103 -3.7162 0
M  V30 3026 H 291.323 -2.94697 -2.36563 0
M  V30 3027 H 291.636 -6.39817 -4.33421 0
M  V30 3028 H 289.981 -5.75015 -3.90362 0
M  V30 3029 H 293.172 -3.70252 -2.8641 0
M  V30 3030 H 293.345 -5.27617 -3.76197 0
M  V30 3031 N 286.751 1.08385 -1.14413 0
M  V30 3032 C 287.699 2.17406 -0.826888 0
M  V30 3033 C 288.693 1.6827 0.195312 0
M  V30 3034 O 289.899 1.79927 0.0513892 0
M  V30 3035 H 286.274 0.70934 -0.249681 0
M  V30 3036 H 288.245 2.41388 -1.75426 0
M  V30 3037 C 286.994 3.46215 -0.320979 0
M  V30 3038 H 286.317 3.84401 -1.0989 0
M  V30 3039 H 287.757 4.23777 -0.137549 0
M  V30 3040 C 286.216 3.23067 0.955472 0
M  V30 3041 O 286.746 3.4668 2.02918 0
M  V30 3042 N 284.952 2.7661 0.890798 0
M  V30 3043 H 284.499 2.57594 0.0168815 0
M  V30 3044 H 284.457 2.61501 1.74542 0
M  V30 3045 N 288.23 0.939286 1.26551 0
M  V30 3046 C 289.478 0.58469 1.93457 0
M  V30 3047 C 289.799 -0.878774 1.74076 0
M  V30 3048 O 289.069 -1.62421 1.09528 0
M  V30 3049 H 287.649 0.21325 0.715914 0
M  V30 3050 H 290.311 1.1942 1.54029 0
M  V30 3051 H 289.407 0.800849 3.0165 0
M  V30 3052 N 289.708 -1.40897 0.706093 0
M  V30 3053 C 291.124 -1.55042 0.37869 0
M  V30 3054 C 291.324 -1.67944 -1.11342 0
M  V30 3055 O 290.38 -1.66372 -1.89938 0
M  V30 3056 C 291.693 -2.78398 1.13643 0
M  V30 3057 C 293.241 -2.92206 1.12181 0
M  V30 3058 C 293.716 -4.18463 1.86152 0
M  V30 3059 N 295.207 -4.25443 1.83173 0
M  V30 3060 C 295.942 -5.2202 2.37239 0
M  V30 3061 N 295.438 -6.24563 2.99821 0
M  V30 3062 N 297.231 -5.14033 2.27435 0
M  V30 3063 H 289.382 -1.30769 1.67372 0
M  V30 3064 H 291.645 -0.631653 0.706907 0
M  V30 3065 H 291.351 -2.7511 2.19106 0
M  V30 3066 H 291.225 -3.70228 0.721853 0
M  V30 3067 H 293.612 -2.95004 0.0754171 0
M  V30 3068 H 293.693 -2.01521 1.57554 0
M  V30 3069 H 293.337 -4.16427 2.90776 0
M  V30 3070 H 293.267 -5.08141 1.38206 0
M  V30 3071 H 295.758 -3.51976 1.37556 0
M  V30 3072 H 296.071 -6.94665 3.38616 0
M  V30 3073 H 294.416 -6.25035 3.03902 0
M  V30 3074 H 297.607 -4.3285 1.78208 0
M  V30 3075 H 297.78 -5.89129 2.69873 0
M  V30 3076 N 291.186 -0.45159 -1.50991 0
M  V30 3077 C 292.116 0.342898 -2.30969 0
M  V30 3078 C 293.097 1.00815 -1.37005 0
M  V30 3079 O 294.282 1.00907 -1.65926 0
M  V30 3080 C 291.412 1.43637 -3.16205 0
M  V30 3081 C 290.366 0.893818 -4.18563 0
M  V30 3082 C 289.692 2.08411 -4.92411 0
M  V30 3083 C 290.992 -0.0815568 -5.22236 0
M  V30 3084 H 292.686 -0.324556 -2.97636 0
M  V30 3085 H 290.232 -0.157531 -1.43136 0
M  V30 3086 H 292.185 1.9995 -3.70942 0
M  V30 3087 H 290.909 2.13232 -2.47386 0
M  V30 3088 H 289.568 0.352798 -3.64898 0
M  V30 3089 H 289.216 2.76658 -4.20082 0
M  V30 3090 H 288.916 1.72741 -5.61636 0
M  V30 3091 H 290.44 2.65251 -5.49976 0
M  V30 3092 H 291.854 0.391742 -5.7196 0
M  V30 3093 H 290.251 -0.351551 -5.99069 0
M  V30 3094 H 291.321 -1.01374 -4.74185 0
M  V30 3095 N 292.664 1.56529 -0.183458 0
M  V30 3096 C 293.614 2.1515 0.754605 0
M  V30 3097 C 294.598 1.08904 1.18443 0
M  V30 3098 O 295.79 1.34997 1.14476 0
M  V30 3099 C 292.919 2.80531 1.97881 0
M  V30 3100 C 292.005 3.93952 1.57043 0
M  V30 3101 N 292.396 4.98221 0.87231 0
M  V30 3102 C 290.694 4.05338 1.86057 0
M  V30 3103 C 291.395 5.77836 0.669377 0
M  V30 3104 N 290.371 5.29858 1.21454 0
M  V30 3105 H 294.173 2.93132 0.212387 0
M  V30 3106 H 291.687 1.62391 0.0167725 0
M  V30 3107 H 293.684 3.20914 2.6612 0
M  V30 3108 H 292.344 2.04035 2.52586 0
M  V30 3109 H 293.355 5.15191 0.529033 0
M  V30 3110 H 290.032 3.39957 2.42354 0
M  V30 3111 H 291.422 6.71799 0.116422 0
M  V30 3112 N 294.142 -0.090211 1.57342 0
M  V30 3113 C 295.388 -0.788838 1.8748 0
M  V30 3114 C 295.743 -1.76105 0.7749 0
M  V30 3115 O 295.036 -1.90302 -0.222663 0
M  V30 3116 C 295.23 -1.55222 3.21933 0
M  V30 3117 C 295.059 -0.655441 4.44898 0
M  V30 3118 C 293.829 -0.299325 5.04413 0
M  V30 3119 C 296.027 0.0397458 5.14285 0
M  V30 3120 N 294.009 0.605108 6.10911 0
M  V30 3121 C 295.38 0.802061 6.1479 0
M  V30 3122 C 297.435 0.113154 4.97771 0
M  V30 3123 C 296.138 1.63093 7.00566 0
M  V30 3124 C 298.164 0.928942 5.84059 0
M  V30 3125 C 297.526 1.67936 6.84088 0
M  V30 3126 H 293.625 -0.26467 0.735849 0
M  V30 3127 H 296.209 -0.0511453 1.94633 0
M  V30 3128 H 294.38 -2.26076 3.15823 0
M  V30 3129 H 296.112 -2.19843 3.39781 0
M  V30 3130 H 292.867 -0.648079 4.69145 0
M  V30 3131 H 293.291 1.05002 6.68808 0
M  V30 3132 H 297.933 -0.452676 4.2037 0
M  V30 3133 H 295.651 2.20781 7.77355 0
M  V30 3134 H 299.237 0.988478 5.73341 0
M  V30 3135 H 298.117 2.30044 7.49699 0
M  V30 3136 N 295.62 -1.53406 -0.361157 0
M  V30 3137 C 296.845 -1.74024 -1.12829 0
M  V30 3138 C 297.27 -0.470069 -1.82132 0
M  V30 3139 O 296.628 0.57619 -1.719 0
M  V30 3140 C 296.676 -2.90903 -2.13091 0
M  V30 3141 O 295.78 -2.59821 -3.20261 0
M  V30 3142 H 295.121 -0.577804 -0.327168 0
M  V30 3143 H 297.651 -2.00307 -0.41693 0
M  V30 3144 H 297.661 -3.17194 -2.56616 0
M  V30 3145 H 296.336 -3.83034 -1.62042 0
M  V30 3146 H 294.913 -2.44362 -2.81677 0
M  V30 3147 N 297.098 0.621204 -1.44841 0
M  V30 3148 C 298.514 0.94048 -1.28946 0
M  V30 3149 C 298.714 2.00154 -0.23249 0
M  V30 3150 O 297.77 2.49651 0.378237 0
M  V30 3151 C 299.083 1.39433 -2.66419 0
M  V30 3152 C 300.631 1.50927 -2.74208 0
M  V30 3153 C 301.106 1.99692 -4.12174 0
M  V30 3154 N 302.597 2.06947 -4.144 0
M  V30 3155 C 303.332 2.45871 -5.1801 0
M  V30 3156 N 302.828 2.83862 -6.31977 0
M  V30 3157 N 304.621 2.46092 -5.05366 0
M  V30 3158 H 296.772 -0.0803548 -2.12248 0
M  V30 3159 H 299.035 0.0266913 -0.947624 0
M  V30 3160 H 298.741 0.688925 -3.44887 0
M  V30 3161 H 298.615 2.36347 -2.93973 0
M  V30 3162 H 301.002 2.20561 -1.96053 0
M  V30 3163 H 301.083 0.523627 -2.50383 0
M  V30 3164 H 300.727 1.30649 -4.90809 0
M  V30 3165 H 300.657 2.99146 -4.33381 0
M  V30 3166 H 303.148 1.80232 -3.32152 0
M  V30 3167 H 303.461 3.12405 -7.0684 0
M  V30 3168 H 301.806 2.8159 -6.35399 0
M  V30 3169 H 304.997 2.1581 -4.15384 0
M  V30 3170 H 305.17 2.76102 -5.86235 0
M  V30 3171 N 298.576 1.31904 0.862503 0
M  V30 3172 C 299.524 1.20125 1.9918 0
M  V30 3173 C 300.518 0.107824 1.69056 0
M  V30 3174 O 301.724 0.270223 1.7796 0
M  V30 3175 H 298.099 0.372148 0.65346 0
M  V30 3176 H 300.07 2.15652 2.06244 0
M  V30 3177 C 298.819 0.933099 3.34946 0
M  V30 3178 H 298.142 1.76664 3.5865 0
M  V30 3179 H 299.582 0.890892 4.14535 0
M  V30 3180 C 298.041 -0.364172 3.34926 0
M  V30 3181 O 298.571 -1.37858 3.77304 0
M  V30 3182 N 296.777 -0.383362 2.8806 0
M  V30 3183 H 296.324 0.442651 2.53768 0
M  V30 3184 H 296.282 -1.25123 2.8843 0
M  V30 3185 N 300.054 -1.07777 1.14986 0
M  V30 3186 C 301.302 -1.79934 0.920235 0
M  V30 3187 C 301.623 -1.86955 -0.554336 0
M  V30 3188 O 300.893 -1.36731 -1.40291 0
M  V30 3189 H 299.473 -0.666424 0.337473 0
M  V30 3190 H 302.135 -1.3027 1.44968 0
M  V30 3191 H 301.231 -2.82539 1.32583 0
M  V30 3192 N 301.532 -0.945985 -1.26051 0
M  V30 3193 C 302.781 -0.591836 -1.92822 0
M  V30 3194 C 303.094 0.873956 -1.7499 0
M  V30 3195 O 304.3 1.33769 -2.36259 0
M  V30 3196 C 302.756 -1.00776 -3.45503 0
M  V30 3197 C 302.364 -2.4955 -3.7206 0
M  V30 3198 C 304.108 -0.725735 -4.1825 0
M  V30 3199 C 302.015 -2.84988 -5.18205 0
M  V30 3200 H 300.945 -0.217635 -0.721908 0
M  V30 3201 H 303.596 -1.14927 -1.43052 0
M  V30 3202 H 301.978 -0.378812 -3.94184 0
M  V30 3203 H 303.152 -3.1739 -3.34066 0
M  V30 3204 H 301.467 -2.75133 -3.12555 0
M  V30 3205 H 304.064 -0.966771 -5.25887 0
M  V30 3206 H 304.407 0.337639 -4.14929 0
M  V30 3207 H 304.94 -1.31463 -3.7545 0
M  V30 3208 H 301.679 -3.90307 -5.26631 0
M  V30 3209 H 301.199 -2.21813 -5.57278 0
M  V30 3210 H 302.878 -2.73712 -5.86252 0
M  V30 3211 N 303.011 1.40521 -0.713556 0
M  V30 3212 C 304.26 2.00155 -0.249192 0
M  V30 3213 C 304.573 1.57224 1.16362 0
M  V30 3214 O 305.779 2.09542 1.72639 0
M  V30 3215 C 304.235 3.5773 -0.3946 0
M  V30 3216 C 303.843 4.09635 -1.81392 0
M  V30 3217 C 305.587 4.24499 0.00907364 0
M  V30 3218 C 303.494 5.59707 -1.91003 0
M  V30 3219 H 302.424 0.74868 -0.0894114 0
M  V30 3220 H 305.075 1.60784 -0.884352 0
M  V30 3221 H 303.457 3.94792 0.30911 0
M  V30 3222 H 304.631 3.83955 -2.54785 0
M  V30 3223 H 302.946 3.55456 -2.16888 0
M  V30 3224 H 305.543 5.34683 -0.0420404 0
M  V30 3225 H 305.886 4.02824 1.05065 0
M  V30 3226 H 306.419 3.92536 -0.645007 0
M  V30 3227 H 303.158 5.86234 -2.93275 0
M  V30 3228 H 302.678 5.87258 -1.22019 0
M  V30 3229 H 304.357 6.24776 -1.6812 0
M  V30 3230 N 304.489 0.459591 1.5075 0
M  V30 3231 C 305.399 -0.34613 2.32033 0
M  V30 3232 C 306.415 -1.00686 1.41909 0
M  V30 3233 O 307.591 -0.997361 1.7497 0
M  V30 3234 C 304.656 -1.42029 3.16273 0
M  V30 3235 C 303.717 -0.777362 4.22203 0
M  V30 3236 C 302.95 -1.80034 5.02418 0
M  V30 3237 O 303.173 -3.02544 4.83553 0
M  V30 3238 O 302.107 -1.37853 5.85901 0
M  V30 3239 H 305.933 0.318054 3.0203 0
M  V30 3240 H 303.518 0.221663 1.47746 0
M  V30 3241 H 305.4 -2.04275 3.68578 0
M  V30 3242 H 304.075 -2.06815 2.49016 0
M  V30 3243 H 302.982 -0.116256 3.73919 0
M  V30 3244 H 304.315 -0.172634 4.91897 0
M  V30 3245 N 305.967 -1.56429 0.191757 0
M  V30 3246 C 307.383 -1.58754 -0.164137 0
M  V30 3247 C 307.583 -1.20782 -1.61288 0
M  V30 3248 O 306.639 -0.928999 -2.34789 0
M  V30 3249 C 307.952 -3.00396 0.135195 0
M  V30 3250 C 309.5 -3.1291 0.0750351 0
M  V30 3251 C 309.975 -4.56679 0.347632 0
M  V30 3252 N 311.466 -4.62252 0.296131 0
M  V30 3253 C 312.201 -5.71379 0.480948 0
M  V30 3254 N 311.697 -6.88986 0.725933 0
M  V30 3255 N 313.49 -5.60563 0.415435 0
M  V30 3256 H 305.641 -1.79393 1.13718 0
M  V30 3257 H 307.904 -0.832414 0.453643 0
M  V30 3258 H 307.61 -3.32726 1.13958 0
M  V30 3259 H 307.484 -3.72963 -0.563773 0
M  V30 3260 H 309.871 -2.80394 -0.919948 0
M  V30 3261 H 309.952 -2.42736 0.807029 0
M  V30 3262 H 309.596 -4.89907 1.33992 0
M  V30 3263 H 309.526 -5.25039 -0.405212 0
M  V30 3264 H 312.017 -3.7773 0.113259 0
M  V30 3265 H 312.33 -7.68046 0.855857 0
M  V30 3266 H 310.675 -6.90801 0.762788 0
M  V30 3267 H 313.866 -4.67561 0.224486 0
M  V30 3268 H 314.039 -6.45551 0.562889 0
M  V30 3269 N 307.445 0.0818655 -1.57387 0
M  V30 3270 C 308.694 0.781681 -1.85937 0
M  V30 3271 C 309.007 1.79246 -0.782957 0
M  V30 3272 O 310.213 2.54112 -0.955987 0
M  V30 3273 C 308.669 1.44109 -3.29789 0
M  V30 3274 C 308.277 0.469396 -4.45534 0
M  V30 3275 C 310.021 2.12386 -3.67549 0
M  V30 3276 C 307.928 1.13415 -5.80423 0
M  V30 3277 H 306.858 0.295682 -0.693605 0
M  V30 3278 H 309.509 0.0348051 -1.83467 0
M  V30 3279 H 307.891 2.23588 -3.2684 0
M  V30 3280 H 309.065 -0.294856 -4.59856 0
M  V30 3281 H 307.38 -0.108383 -4.16259 0
M  V30 3282 H 309.977 2.62878 -4.65617 0
M  V30 3283 H 310.32 2.91877 -2.96839 0
M  V30 3284 H 310.853 1.39751 -3.72444 0
M  V30 3285 H 307.592 0.379771 -6.54399 0
M  V30 3286 H 307.112 1.8695 -5.69921 0
M  V30 3287 H 308.791 1.65686 -6.25426 0
M  V30 3288 N 308.923 1.53595 0.353017 0
M  V30 3289 C 309.87 1.80919 1.43308 0
M  V30 3290 C 310.84 0.654288 1.5267 0
M  V30 3291 O 312.025 0.897759 1.6836 0
M  V30 3292 C 309.165 2.01605 2.80089 0
M  V30 3293 C 308.278 3.29321 2.79593 0
M  V30 3294 C 307.413 3.40125 4.0803 0
M  V30 3295 C 306.452 4.61826 4.01725 0
M  V30 3296 N 305.589 4.69716 5.21834 0
M  V30 3297 H 310.429 2.73074 1.19308 0
M  V30 3298 H 307.966 1.35263 0.578131 0
M  V30 3299 H 309.924 2.11586 3.59565 0
M  V30 3300 H 308.554 1.12772 3.0246 0
M  V30 3301 H 307.606 3.28229 1.92276 0
M  V30 3302 H 308.918 4.18884 2.70809 0
M  V30 3303 H 308.072 3.49488 4.95927 0
M  V30 3304 H 306.811 2.48601 4.19582 0
M  V30 3305 H 305.816 4.52552 3.12213 0
M  V30 3306 H 307.041 5.54705 3.91764 0
M  V30 3307 H 304.987 3.81097 5.33948 0
M  V30 3308 H 304.904 5.53202 5.1527 0
M  V30 3309 H 306.172 4.83376 6.11529 0
M  V30 3310 N 310.401 -0.613514 1.45168 0
M  V30 3311 C 311.333 -1.73825 1.4939 0
M  V30 3312 C 312.346 -1.58175 0.385304 0
M  V30 3313 O 313.535 -1.66165 0.652036 0
M  V30 3314 C 310.635 -3.11758 1.32891 0
M  V30 3315 C 309.808 -3.53704 2.57317 0
M  V30 3316 C 308.867 -4.70579 2.35462 0
M  V30 3317 O 307.893 -4.77996 3.09044 0
M  V30 3318 N 309.095 -5.63454 1.39644 0
M  V30 3319 H 311.86 -1.70669 2.46358 0
M  V30 3320 H 309.421 -0.79862 1.40832 0
M  V30 3321 H 311.413 -3.87692 1.1609 0
M  V30 3322 H 309.983 -3.09456 0.442218 0
M  V30 3323 H 309.203 -2.67794 2.89275 0
M  V30 3324 H 310.491 -3.78486 3.40038 0
M  V30 3325 H 309.889 -5.6017 0.789062 0
M  V30 3326 H 308.446 -6.38944 1.28816 0
M  V30 3327 N 311.879 -1.3236 -0.855495 0
M  V30 3328 C 312.827 -1.2118 -1.9854 0
M  V30 3329 C 313.821 -0.116788 -1.68997 0
M  V30 3330 O 315.027 -0.279657 -1.77814 0
M  V30 3331 H 311.402 -0.375608 -0.651477 0
M  V30 3332 H 313.373 -2.16743 -2.05098 0
M  V30 3333 C 312.122 -0.950849 -3.34446 0
M  V30 3334 H 311.445 -1.78563 -3.57708 0
M  V30 3335 H 312.885 -0.912863 -4.14057 0
M  V30 3336 C 311.344 0.346404 -3.35114 0
M  V30 3337 O 311.874 1.35855 -3.7803 0
M  V30 3338 N 310.08 0.36808 -2.88259 0
M  V30 3339 H 309.627 -0.456102 -2.5353 0
M  V30 3340 H 309.585 1.23591 -2.89089 0
M  V30 3341 N 313.357 1.07166 -1.15556 0
M  V30 3342 C 314.305 2.16517 -0.8499 0
M  V30 3343 C 315.299 1.68468 0.177454 0
M  V30 3344 O 316.505 1.79971 0.0323026 0
M  V30 3345 H 312.88 0.706652 -0.25719 0
M  V30 3346 H 314.851 2.39514 -1.77976 0
M  V30 3347 C 313.6 3.45855 -0.357682 0
M  V30 3348 H 312.923 3.83214 -1.13961 0
M  V30 3349 H 314.363 4.23607 -0.182489 0
M  V30 3350 C 312.822 3.24062 0.921152 0
M  V30 3351 O 313.352 3.48813 1.9923 0
M  V30 3352 N 311.558 2.77539 0.86141 0
M  V30 3353 H 311.105 2.57598 -0.0104408 0
M  V30 3354 H 311.063 2.63337 1.71758 0
M  V30 3355 N 314.835 0.952656 1.25548 0
M  V30 3356 C 315.798 0.475794 2.24207 0
M  V30 3357 C 316.798 -0.419428 1.55234 0
M  V30 3358 O 317.988 -0.216994 1.72843 0
M  V30 3359 C 315.12 -0.312814 3.39462 0
M  V30 3360 H 316.313 1.34779 2.67908 0
M  V30 3361 H 313.866 0.735739 1.37901 0
M  V30 3362 H 314.601 -1.20257 3.01179 0
M  V30 3363 H 314.386 0.329404 3.90714 0
M  V30 3364 H 315.876 -0.635986 4.12729 0
M  V30 3365 N 316.313 -1.40141 0.720998 0
M  V30 3366 C 317.243 -2.33339 0.0867621 0
M  V30 3367 C 318.224 -1.53178 -0.739622 0
M  V30 3368 O 319.409 -1.81625 -0.687449 0
M  V30 3369 C 316.539 -3.37194 -0.831728 0
M  V30 3370 C 315.493 -4.27857 -0.110558 0
M  V30 3371 C 314.819 -5.22294 -1.14513 0
M  V30 3372 C 316.119 -5.11872 1.0385 0
M  V30 3373 H 317.813 -2.86626 0.865219 0
M  V30 3374 H 315.359 -1.37814 0.417516 0
M  V30 3375 H 317.312 -4.01335 -1.28485 0
M  V30 3376 H 316.036 -2.82314 -1.64214 0
M  V30 3377 H 314.695 -3.65176 0.322797 0
M  V30 3378 H 314.343 -4.63717 -1.94874 0
M  V30 3379 H 314.043 -5.83797 -0.667446 0
M  V30 3380 H 315.567 -5.89312 -1.59824 0
M  V30 3381 H 316.981 -5.69436 0.664482 0
M  V30 3382 H 315.378 -5.82445 1.4449 0
M  V30 3383 H 316.448 -4.4753 1.86668 0
M  V30 3384 N 317.792 -0.46758 -1.50504 0
M  V30 3385 C 319.039 0.0886219 -2.02306 0
M  V30 3386 C 319.367 1.40037 -1.34981 0
M  V30 3387 O 318.622 1.90136 -0.463318 0
M  V30 3388 C 318.921 0.323995 -3.55928 0
M  V30 3389 C 318.587 -0.905618 -4.41712 0
M  V30 3390 C 317.249 -1.24275 -4.64875 0
M  V30 3391 C 319.601 -1.72448 -4.91845 0
M  V30 3392 C 316.929 -2.39888 -5.35417 0
M  V30 3393 C 319.281 -2.87185 -5.63656 0
M  V30 3394 C 317.945 -3.21317 -5.85074 0
M  V30 3395 H 317.215 0.0324291 -0.74029 0
M  V30 3396 H 319.862 -0.620945 -1.81153 0
M  V30 3397 H 318.167 1.11577 -3.75577 0
M  V30 3398 H 319.864 0.76826 -3.93572 0
M  V30 3399 H 316.454 -0.632956 -4.239 0
M  V30 3400 H 320.638 -1.4772 -4.73806 0
M  V30 3401 H 315.894 -2.66611 -5.50208 0
M  V30 3402 H 320.068 -3.50985 -6.01484 0
M  V30 3403 H 317.695 -4.1101 -6.39511 0
M  V30 3404 N 319.27 1.56325 -0.20005 0
M  V30 3405 C 320.518 1.97329 0.436547 0
M  V30 3406 C 320.839 1.08826 1.61808 0
M  V30 3407 O 320.109 0.160604 1.95241 0
M  V30 3408 H 318.689 0.728714 0.164272 0
M  V30 3409 H 321.351 1.92761 -0.287937 0
M  V30 3410 H 320.447 3.02264 0.777353 0
M  V30 3411 N 320.748 -0.0735177 1.57428 0
M  V30 3412 C 321.978 -0.78483 1.91112 0
M  V30 3413 C 322.386 -1.71729 0.7941 0
M  V30 3414 O 321.729 -1.82105 -0.241542 0
M  V30 3415 C 321.791 -1.63346 3.20247 0
M  V30 3416 C 321.455 -0.870557 4.48632 0
M  V30 3417 C 322.452 -0.19058 5.19551 0
M  V30 3418 C 320.137 -0.838242 4.95256 0
M  V30 3419 C 322.131 0.511503 6.35344 0
M  V30 3420 C 319.818 -0.132386 6.10957 0
M  V30 3421 C 320.816 0.541288 6.80852 0
M  V30 3422 O 320.504 1.23578 7.94345 0
M  V30 3423 H 320.236 -0.228408 0.636244 0
M  V30 3424 H 322.79 -0.0486039 2.05342 0
M  V30 3425 H 321.02 -2.41245 3.02222 0
M  V30 3426 H 322.709 -2.22329 3.39595 0
M  V30 3427 H 323.475 -0.206864 4.84559 0
M  V30 3428 H 319.354 -1.35206 4.40727 0
M  V30 3429 H 322.898 1.03789 6.89836 0
M  V30 3430 H 318.795 -0.114023 6.45399 0
M  V30 3431 H 319.563 1.14487 8.10454 0
M  V30 3432 N 322.226 -1.5378 -0.344866 0
M  V30 3433 C 323.474 -1.70625 -1.08311 0
M  V30 3434 C 323.795 -0.471447 -1.89215 0
M  V30 3435 O 323.065 0.514616 -1.8902 0
M  V30 3436 H 321.645 -0.629058 -0.402859 0
M  V30 3437 H 324.307 -1.9103 -0.386459 0
M  V30 3438 H 323.403 -2.57656 -1.76124 0
M  V30 3439 N 323.704 0.605807 -1.45491 0
M  V30 3440 C 324.634 1.72709 -1.57143 0
M  V30 3441 C 325.615 1.6476 -0.422884 0
M  V30 3442 O 326.8 1.83132 -0.646247 0
M  V30 3443 C 323.93 3.11316 -1.53948 0
M  V30 3444 C 322.884 3.34077 -2.67537 0
M  V30 3445 C 322.21 4.72975 -2.49397 0
M  V30 3446 C 323.51 3.24158 -4.09535 0
M  V30 3447 H 325.204 1.63214 -2.51001 0
M  V30 3448 H 322.75 0.78379 -1.208 0
M  V30 3449 H 324.703 3.89557 -1.60696 0
M  V30 3450 H 323.427 3.21655 -0.566205 0
M  V30 3451 H 322.086 2.58227 -2.6022 0
M  V30 3452 H 321.734 4.8005 -1.50205 0
M  V30 3453 H 321.434 4.8916 -3.25571 0
M  V30 3454 H 322.958 5.53414 -2.58002 0
M  V30 3455 H 324.372 3.92271 -4.18086 0
M  V30 3456 H 322.769 3.51872 -4.86113 0
M  V30 3457 H 323.839 2.2157 -4.31317 0
M  V30 3458 N 325.182 1.32811 0.848464 0
M  V30 3459 C 326.431 1.23075 1.59798 0
M  V30 3460 C 326.744 -0.204419 1.94529 0
M  V30 3461 O 327.95 -0.423701 2.68173 0
M  V30 3462 C 326.406 2.15594 2.88179 0
M  V30 3463 C 326.014 3.64228 2.60849 0
M  V30 3464 C 327.758 2.14709 3.66197 0
M  V30 3465 C 325.665 4.48689 3.85269 0
M  V30 3466 H 324.595 0.457091 0.599653 0
M  V30 3467 H 327.246 1.57813 0.936342 0
M  V30 3468 H 325.628 1.73778 3.55833 0
M  V30 3469 H 326.802 4.14424 2.01467 0
M  V30 3470 H 325.117 3.67306 1.96151 0
M  V30 3471 H 327.714 2.75046 4.58534 0
M  V30 3472 H 328.057 1.13966 4.00397 0
M  V30 3473 H 328.59 2.54837 3.05455 0
M  V30 3474 H 325.329 5.5027 3.56207 0
M  V30 3475 H 324.849 4.03241 4.44024 0
M  V30 3476 H 326.528 4.62006 4.52946 0
M  V30 3477 N 326.66 -1.06551 1.16123 0
M  V30 3478 C 327.592 -2.13908 0.823171 0
M  V30 3479 C 328.605 -1.61926 -0.16843 0
M  V30 3480 O 329.794 -1.78412 0.055962 0
M  V30 3481 C 326.894 -3.38283 0.204424 0
M  V30 3482 C 326.067 -4.19589 1.23548 0
M  V30 3483 C 325.126 -5.2233 0.637011 0
M  V30 3484 O 324.152 -5.54034 1.30516 0
M  V30 3485 N 325.354 -5.77621 -0.577474 0
M  V30 3486 H 328.119 -2.43508 1.74711 0
M  V30 3487 H 325.68 -1.2253 1.05821 0
M  V30 3488 H 327.672 -4.0416 -0.208909 0
M  V30 3489 H 326.242 -3.06329 -0.623012 0
M  V30 3490 H 325.462 -3.49406 1.82507 0
M  V30 3491 H 326.75 -4.70718 1.93137 0
M  V30 3492 H 326.148 -5.54125 -1.13853 0
M  V30 3493 H 324.705 -6.45087 -0.933053 0
M  V30 3494 N 328.138 -0.959301 -1.25041 0
M  V30 3495 C 329.366 -0.633949 -1.96948 0
M  V30 3496 C 329.781 0.794916 -1.7125 0
M  V30 3497 O 329.138 1.53231 -0.991287 0
M  V30 3498 C 329.189 -0.888805 -3.50403 0
M  V30 3499 O 328.91 -2.26149 -3.75218 0
M  V30 3500 C 330.411 -0.576482 -4.39536 0
M  V30 3501 H 327.631 -0.237263 -0.627652 0
M  V30 3502 H 330.175 -1.28495 -1.59089 0
M  V30 3503 H 328.33 -0.284145 -3.86357 0
M  V30 3504 H 328.744 -2.33514 -4.6965 0
M  V30 3505 H 330.218 -0.805314 -5.46094 0
M  V30 3506 H 330.695 0.489075 -4.36468 0
M  V30 3507 H 331.301 -1.16067 -4.09156 0
M  V30 3508 N 329.616 1.39756 -0.72842 0
M  V30 3509 C 330.846 2.04651 -0.283117 0
M  V30 3510 C 331.254 1.5502 1.08469 0
M  V30 3511 O 330.597 0.707343 1.69536 0
M  V30 3512 C 330.659 3.58947 -0.199309 0
M  V30 3513 C 330.323 4.31525 -1.5045 0
M  V30 3514 C 331.32 4.5861 -2.44894 0
M  V30 3515 C 329.005 4.70195 -1.76698 0
M  V30 3516 C 330.999 5.23366 -3.63822 0
M  V30 3517 C 328.686 5.3468 -2.95906 0
M  V30 3518 C 329.684 5.61198 -3.89289 0
M  V30 3519 O 329.372 6.24347 -5.06404 0
M  V30 3520 H 329.104 0.664777 -0.122666 0
M  V30 3521 H 331.658 1.79913 -0.990987 0
M  V30 3522 H 329.888 3.82556 0.56461 0
M  V30 3523 H 331.577 4.0534 0.213125 0
M  V30 3524 H 332.343 4.29187 -2.25883 0
M  V30 3525 H 328.222 4.48916 -1.04859 0
M  V30 3526 H 331.766 5.4398 -4.36728 0
M  V30 3527 H 327.663 5.63524 -3.14819 0
M  V30 3528 H 328.431 6.42842 -5.06652 0
M  V30 3529 N 331.094 0.475555 1.50254 0
M  V30 3530 C 332.342 -0.077738 2.0195 0
M  V30 3531 C 332.663 -1.39813 1.35931 0
M  V30 3532 O 331.933 -1.89249 0.506123 0
M  V30 3533 H 330.513 -0.031719 0.746326 0
M  V30 3534 H 333.175 0.626995 1.84539 0
M  V30 3535 H 332.271 -0.225995 3.11281 0
M  V30 3536 N 332.573 -1.56217 0.208337 0
M  V30 3537 C 333.536 -2.18455 -0.693557 0
M  V30 3538 C 334.536 -1.14268 -1.13135 0
M  V30 3539 O 335.726 -1.39577 -1.0423 0
M  V30 3540 C 332.858 -2.79727 -1.94848 0
M  V30 3541 H 334.051 -2.99519 -0.15114 0
M  V30 3542 H 331.604 -1.56245 -0.041287 0
M  V30 3543 H 332.339 -2.02497 -2.53309 0
M  V30 3544 H 332.124 -3.56009 -1.64316 0
M  V30 3545 H 333.614 -3.27475 -2.59133 0
M  V30 3546 N 334.051 0.0651679 -1.57465 0
M  V30 3547 C 335.328 0.79644 -1.78651 0
M  V30 3548 C 335.708 1.95454 -0.797566 0
M  V30 3549 O 335.056 2.27882 0.167946 0
M  V30 3550 C 335.266 1.26322 -3.25337 0
M  V30 3551 C 336.614 1.6939 -3.89348 0
M  V30 3552 O 337.638 1.35872 -3.29268 0
M  V30 3553 O 336.497 2.31471 -4.95059 0
M  V30 3554 H 333.591 0.382157 -0.733407 0
M  V30 3555 H 336.137 0.0447311 -1.69641 0
M  V30 3556 H 334.909 0.434859 -3.88876 0
M  V30 3557 H 334.532 2.07604 -3.39096 0
M  V30 3558 N 335.529 1.53961 0.336706 0
M  V30 3559 C 336.477 1.83136 1.43401 0
M  V30 3560 C 337.471 0.702313 1.54156 0
M  V30 3561 O 338.677 0.885765 1.56698 0
M  V30 3562 H 335.052 0.580309 0.478273 0
M  V30 3563 H 337.023 2.74925 1.16012 0
M  V30 3564 C 335.772 2.06385 2.79822 0
M  V30 3565 H 335.095 2.92718 2.72316 0
M  V30 3566 H 336.535 2.30761 3.55704 0
M  V30 3567 C 334.994 0.851414 3.25964 0
M  V30 3568 O 335.524 0.0541904 4.01663 0
M  V30 3569 N 333.73 0.66672 2.82848 0
M  V30 3570 H 333.277 1.31665 2.21409 0
M  V30 3571 H 333.235 -0.143032 3.14074 0
M  V30 3572 N 337.007 -0.598083 1.45811 0
M  V30 3573 C 338.256 -1.35295 1.49594 0
M  V30 3574 C 338.569 -1.95057 0.145679 0
M  V30 3575 O 339.775 -2.71431 0.0612099 0
M  V30 3576 C 338.231 -2.45124 2.63519 0
M  V30 3577 C 337.839 -1.91732 4.04899 0
M  V30 3578 C 339.583 -3.2205 2.76558 0
M  V30 3579 C 337.49 -2.991 5.1019 0
M  V30 3580 H 336.42 -0.508552 0.556679 0
M  V30 3581 H 339.071 -0.639977 1.71978 0
M  V30 3582 H 337.453 -3.19149 2.34435 0
M  V30 3583 H 338.627 -1.24352 4.43704 0
M  V30 3584 H 336.942 -1.27522 3.96393 0
M  V30 3585 H 339.539 -4.0215 3.52391 0
M  V30 3586 H 339.882 -3.73663 1.83526 0
M  V30 3587 H 340.415 -2.55127 3.05213 0
M  V30 3588 H 337.154 -2.52393 6.04961 0
M  V30 3589 H 336.674 -3.65017 4.75944 0
M  V30 3590 H 338.353 -3.63318 5.35359 0
M  V30 3591 N 338.485 -1.33259 -0.841409 0
M  V30 3592 C 339.415 -1.25926 -1.96634 0
M  V30 3593 C 340.396 -0.140349 -1.6952 0
M  V30 3594 O 341.581 -0.329707 -1.91381 0
M  V30 3595 C 338.711 -0.99512 -3.32738 0
M  V30 3596 C 337.665 -2.0767 -3.74242 0
M  V30 3597 C 336.991 -1.66474 -5.08125 0
M  V30 3598 C 338.291 -3.49318 -3.88297 0
M  V30 3599 H 339.985 -2.20046 -2.03027 0
M  V30 3600 H 337.531 -1.05931 -0.975425 0
M  V30 3601 H 339.484 -0.930323 -4.11002 0
M  V30 3602 H 338.208 -0.0183004 -3.26595 0
M  V30 3603 H 336.867 -2.13187 -2.98239 0
M  V30 3604 H 336.515 -0.675012 -4.9845 0
M  V30 3605 H 336.215 -2.3885 -5.36865 0
M  V30 3606 H 337.739 -1.61455 -5.88867 0
M  V30 3607 H 339.153 -3.46316 -4.56879 0
M  V30 3608 H 337.55 -4.20158 -4.28471 0
M  V30 3609 H 338.62 -3.8801 -2.9082 0
M  V30 3610 N 339.963 1.05934 -1.16686 0
M  V30 3611 C 341.21 1.788 -0.950622 0
M  V30 3612 C 341.538 1.87384 0.521305 0
M  V30 3613 O 340.793 1.36438 1.40297 0
M  V30 3614 C 341.092 3.23105 -1.52767 0
M  V30 3615 C 340.758 3.34594 -3.02254 0
M  V30 3616 C 339.42 3.37437 -3.43059 0
M  V30 3617 C 341.772 3.36219 -3.98254 0
M  V30 3618 C 339.1 3.39525 -4.78477 0
M  V30 3619 C 341.452 3.39845 -5.33562 0
M  V30 3620 C 340.116 3.40971 -5.73842 0
M  V30 3621 H 339.386 0.654275 -0.347857 0
M  V30 3622 H 342.033 1.24555 -1.45459 0
M  V30 3623 H 340.338 3.80227 -0.94524 0
M  V30 3624 H 342.035 3.7809 -1.336 0
M  V30 3625 H 338.625 3.3309 -2.6972 0
M  V30 3626 H 342.809 3.33231 -3.67792 0
M  V30 3627 H 338.065 3.38703 -5.09009 0
M  V30 3628 H 342.239 3.4005 -6.07733 0
M  V30 3629 H 339.866 3.42342 -6.78753 0
M  V30 3630 N 341.441 0.965919 1.2453 0
M  V30 3631 C 342.857 0.67216 1.44756 0
M  V30 3632 C 343.057 -0.766609 1.86347 0
M  V30 3633 O 342.113 -1.5407 2.00047 0
M  V30 3634 C 343.426 1.65473 2.51076 0
M  V30 3635 C 344.974 1.66716 2.64905 0
M  V30 3636 C 345.449 2.63766 3.74421 0
M  V30 3637 N 346.94 2.62198 3.81846 0
M  V30 3638 C 347.675 3.33966 4.66106 0
M  V30 3639 N 347.171 4.15245 5.54566 0
M  V30 3640 N 348.964 3.22799 4.60171 0
M  V30 3641 H 341.115 1.89553 0.958293 0
M  V30 3642 H 343.378 0.815979 0.482579 0
M  V30 3643 H 343.084 2.68296 2.27399 0
M  V30 3644 H 342.958 1.4261 3.49202 0
M  V30 3645 H 345.345 0.646057 2.87941 0
M  V30 3646 H 345.426 1.93642 1.67142 0
M  V30 3647 H 345.07 3.6601 3.52135 0
M  V30 3648 H 345 2.34121 4.71694 0
M  V30 3649 H 347.491 2.032 3.18619 0
M  V30 3650 H 347.804 4.66898 6.15814 0
M  V30 3651 H 346.149 4.1934 5.54237 0
M  V30 3652 H 349.34 2.58764 3.90075 0
M  V30 3653 H 349.513 3.78994 5.25612 0
M  V30 3654 N 342.919 -1.39368 0.735821 0
M  V30 3655 C 343.867 -2.32443 0.0855131 0
M  V30 3656 C 344.861 -1.53104 -0.724954 0
M  V30 3657 O 346.067 -1.68762 -0.626047 0
M  V30 3658 H 342.442 -0.751948 0.00885257 0
M  V30 3659 H 344.413 -2.84916 0.886883 0
M  V30 3660 C 343.162 -3.38206 -0.806983 0
M  V30 3661 H 342.485 -3.99335 -0.19274 0
M  V30 3662 H 343.925 -4.05779 -1.2296 0
M  V30 3663 C 342.384 -2.75321 -1.94165 0
M  V30 3664 O 342.914 -2.63231 -3.03435 0
M  V30 3665 N 341.12 -2.33396 -1.73132 0
M  V30 3666 H 340.667 -2.4343 -0.842596 0
M  V30 3667 H 340.625 -1.91661 -2.49225 0
M  V30 3668 N 344.397 -0.483516 -1.5 0
M  V30 3669 C 345.327 0.293829 -2.31644 0
M  V30 3670 C 346.308 0.978864 -1.39112 0
M  V30 3671 O 347.493 0.973644 -1.68029 0
M  V30 3672 C 344.623 1.36897 -3.19181 0
M  V30 3673 C 343.577 0.804833 -4.20365 0
M  V30 3674 C 342.903 1.9792 -4.96721 0
M  V30 3675 C 344.203 -0.192313 -5.21946 0
M  V30 3676 H 345.897 -0.387616 -2.9688 0
M  V30 3677 H 343.443 -0.187856 -1.42769 0
M  V30 3678 H 345.396 1.92037 -3.751 0
M  V30 3679 H 344.12 2.07936 -2.51853 0
M  V30 3680 H 342.779 0.275319 -3.65565 0
M  V30 3681 H 342.427 2.67686 -4.25856 0
M  V30 3682 H 342.127 1.60789 -5.65173 0
M  V30 3683 H 343.651 2.53526 -5.55479 0
M  V30 3684 H 345.065 0.270333 -5.72662 0
M  V30 3685 H 343.462 -0.478543 -5.98189 0
M  V30 3686 H 344.532 -1.11409 -4.71928 0
M  V30 3687 N 345.875 1.56104 -0.216619 0
M  V30 3688 C 346.825 2.16703 0.708798 0
M  V30 3689 C 347.809 1.11392 1.16106 0
M  V30 3690 O 349.001 1.37395 1.11587 0
M  V30 3691 C 346.13 2.84666 1.91886 0
M  V30 3692 C 345.216 3.97195 1.48651 0
M  V30 3693 N 345.607 4.99959 0.766434 0
M  V30 3694 C 343.905 4.09193 1.77418 0
M  V30 3695 C 344.606 5.79126 0.546659 0
M  V30 3696 N 343.582 5.32315 1.10188 0
M  V30 3697 H 347.384 2.93516 0.150162 0
M  V30 3698 H 344.898 1.6239 -0.0176768 0
M  V30 3699 H 346.895 3.26486 2.59253 0
M  V30 3700 H 345.555 2.09347 2.48202 0
M  V30 3701 H 346.566 5.16197 0.419634 0
M  V30 3702 H 343.243 3.45021 2.35088 0
M  V30 3703 H 344.633 6.71895 -0.026103 0
M  V30 3704 N 347.353 -0.0568162 1.57498 0
M  V30 3705 C 348.578 -0.769402 1.92601 0
M  V30 3706 C 349.003 -1.69559 0.814336 0
M  V30 3707 O 348.361 -1.79811 -0.231903 0
M  V30 3708 C 348.409 -1.52634 3.26704 0
M  V30 3709 O 347.513 -2.63797 3.16994 0
M  V30 3710 H 346.854 -0.208909 0.63028 0
M  V30 3711 H 349.384 -0.0205798 2.0459 0
M  V30 3712 H 349.394 -1.90234 3.60936 0
M  V30 3713 H 348.069 -0.846875 4.07186 0
M  V30 3714 H 346.646 -2.28943 2.94346 0
M  V30 3715 N 348.832 -1.54138 -0.328536 0
M  V30 3716 C 349.742 -1.86192 -1.42723 0
M  V30 3717 C 350.758 -0.753382 -1.56844 0
M  V30 3718 O 351.934 -1.04718 -1.72035 0
M  V30 3719 C 348.999 -2.07824 -2.77507 0
M  V30 3720 C 348.06 -3.31641 -2.72603 0
M  V30 3721 C 347.293 -3.52232 -4.00959 0
M  V30 3722 O 347.516 -2.7636 -4.9898 0
M  V30 3723 O 346.45 -4.45699 -4.0452 0
M  V30 3724 H 350.276 -2.79608 -1.18547 0
M  V30 3725 H 347.861 -1.3998 -0.522104 0
M  V30 3726 H 349.743 -2.23411 -3.57303 0
M  V30 3727 H 348.418 -1.17596 -3.01584 0
M  V30 3728 H 347.325 -3.21444 -1.91376 0
M  V30 3729 H 348.658 -4.2191 -2.53481 0
M  V30 3730 N 350.31 0.590341 -1.46126 0
M  V30 3731 C 351.558 1.34616 -1.50742 0
M  V30 3732 C 351.879 1.94363 -0.157486 0
M  V30 3733 O 351.149 1.78136 0.815136 0
M  V30 3734 H 349.729 0.499789 -0.555175 0
M  V30 3735 H 352.391 0.691953 -1.82203 0
M  V30 3736 H 351.487 2.15678 -2.25587 0
M  V30 3737 N 351.788 1.33704 0.83433 0
M  V30 3738 C 353.036 1.25169 1.58673 0
M  V30 3739 C 353.357 -0.18127 1.94156 0
M  V30 3740 O 352.627 -1.11113 1.6134 0
M  V30 3741 H 351.207 0.4603 0.58833 0
M  V30 3742 H 353.869 1.67478 0.996847 0
M  V30 3743 H 352.965 1.84856 2.51465 0
M  V30 3744 N 353.266 -1.05314 1.17247 0
M  V30 3745 C 354.515 -1.77685 0.954521 0
M  V30 3746 C 354.828 -1.88616 -0.518025 0
M  V30 3747 O 356.034 -2.57714 -0.854144 0
M  V30 3748 C 354.49 -3.19402 1.65863 0
M  V30 3749 C 354.098 -3.16605 3.16963 0
M  V30 3750 C 355.842 -3.96237 1.52303 0
M  V30 3751 C 353.749 -4.53103 3.80068 0
M  V30 3752 H 352.679 -0.666 0.353496 0
M  V30 3753 H 355.33 -1.1805 1.40486 0
M  V30 3754 H 353.712 -3.79355 1.13602 0
M  V30 3755 H 354.886 -2.66176 3.76148 0
M  V30 3756 H 353.201 -2.53268 3.30521 0
M  V30 3757 H 355.798 -4.97157 1.96822 0
M  V30 3758 H 356.141 -4.136 0.473401 0
M  V30 3759 H 356.674 -3.42829 2.01775 0
M  V30 3760 H 353.413 -4.40946 4.85023 0
M  V30 3761 H 352.933 -5.03686 3.2567 0
M  V30 3762 H 354.612 -5.22045 3.82202 0
M  V30 3763 N 354.744 -0.972509 -1.24016 0
M  V30 3764 C 355.707 -0.511403 -2.23422 0
M  V30 3765 C 356.707 0.394679 -1.55881 0
M  V30 3766 O 357.897 0.189469 -1.73167 0
M  V30 3767 C 355.029 0.258769 -3.39916 0
M  V30 3768 H 356.222 -1.39024 -2.6573 0
M  V30 3769 H 353.775 -0.757585 -1.36713 0
M  V30 3770 H 354.51 1.1545 -3.03054 0
M  V30 3771 H 354.295 -0.391522 -3.9014 0
M  V30 3772 H 355.785 0.570244 -4.13688 0
M  V30 3773 N 356.222 1.38976 -0.743202 0
M  V30 3774 C 357.152 2.33171 -0.123873 0
M  V30 3775 C 358.133 1.54336 0.71516 0
M  V30 3776 O 359.318 1.82696 0.658467 0
M  V30 3777 C 356.448 3.38474 0.777978 0
M  V30 3778 C 355.402 4.27979 0.0424758 0
M  V30 3779 C 354.728 5.2405 1.06189 0
M  V30 3780 C 356.028 5.10155 -1.1198 0
M  V30 3781 H 357.722 2.85213 -0.910709 0
M  V30 3782 H 355.268 1.37133 -0.439388 0
M  V30 3783 H 357.221 4.03328 1.22084 0
M  V30 3784 H 355.945 2.84891 1.59702 0
M  V30 3785 H 354.604 3.64616 -0.380853 0
M  V30 3786 H 354.252 4.66758 1.87472 0
M  V30 3787 H 353.952 5.84785 0.574485 0
M  V30 3788 H 355.476 5.9178 1.50428 0
M  V30 3789 H 356.89 5.68307 -0.75499 0
M  V30 3790 H 355.287 5.80073 -1.53738 0
M  V30 3791 H 356.357 4.44504 -1.93764 0
M  V30 3792 N 357.7 0.491464 1.49741 0
M  V30 3793 C 359.116 0.146835 1.58923 0
M  V30 3794 C 359.316 -1.34804 1.49767 0
M  V30 3795 O 358.372 -2.12317 1.36667 0
M  V30 3796 C 359.685 0.715157 2.92072 0
M  V30 3797 C 361.233 0.680407 3.05515 0
M  V30 3798 C 361.708 1.22663 4.41269 0
M  V30 3799 N 363.199 1.18691 4.47735 0
M  V30 3800 C 363.934 1.57984 5.51207 0
M  V30 3801 N 363.43 2.04824 6.6183 0
M  V30 3802 N 365.223 1.49459 5.41866 0
M  V30 3803 H 357.374 1.46347 1.53936 0
M  V30 3804 H 359.637 0.606453 0.728642 0
M  V30 3805 H 359.343 1.76317 3.04311 0
M  V30 3806 H 359.217 0.17018 3.76816 0
M  V30 3807 H 361.604 -0.358743 2.92911 0
M  V30 3808 H 361.685 1.26242 2.22478 0
M  V30 3809 H 361.329 2.26451 4.54623 0
M  V30 3810 H 361.259 0.620637 5.2293 0
M  V30 3811 H 363.75 0.843605 3.68364 0
M  V30 3812 H 364.063 2.32901 7.3687 0
M  V30 3813 H 362.408 2.08791 6.62896 0
M  V30 3814 H 365.599 1.12692 4.54333 0
M  V30 3815 H 365.772 1.80406 6.22381 0
M  V30 3816 N 359.178 -1.55987 0.224894 0
M  V30 3817 C 360.111 -2.16413 -0.723929 0
M  V30 3818 C 361.089 -1.10952 -1.18863 0
M  V30 3819 O 362.273 -1.39225 -1.27077 0
M  V30 3820 C 359.4 -2.74711 -1.98121 0
M  V30 3821 C 358.446 -3.9303 -1.6562 0
M  V30 3822 S 359.279 -5.29817 -0.778058 0
M  V30 3823 C 360.435 -5.91555 -2.04483 0
M  V30 3824 H 360.668 -2.96555 -0.210347 0
M  V30 3825 H 358.201 -1.54397 0.00955457 0
M  V30 3826 H 360.159 -3.08938 -2.70311 0
M  V30 3827 H 358.82 -1.94555 -2.46591 0
M  V30 3828 H 358.013 -4.32334 -2.59043 0
M  V30 3829 H 357.615 -3.59966 -1.01491 0
M  V30 3830 H 359.907 -6.07732 -2.99446 0
M  V30 3831 H 360.85 -6.87498 -1.69563 0
M  V30 3832 H 361.258 -5.20419 -2.18688 0
M  V30 3833 N 360.656 0.0484629 -1.57525 0
M  V30 3834 C 361.566 1.07241 -2.08654 0
M  V30 3835 C 362.582 1.409 -1.02095 0
M  V30 3836 O 363.758 1.50609 -1.33712 0
M  V30 3837 C 360.823 2.36008 -2.5397 0
M  V30 3838 C 359.884 2.09108 -3.7493 0
M  V30 3839 C 359.117 3.31736 -4.18075 0
M  V30 3840 O 359.34 4.41714 -3.60895 0
M  V30 3841 O 358.274 3.18576 -5.10679 0
M  V30 3842 H 362.1 0.667965 -2.96263 0
M  V30 3843 H 359.685 0.26417 -1.47046 0
M  V30 3844 H 361.567 3.11747 -2.83535 0
M  V30 3845 H 360.242 2.75786 -1.69481 0
M  V30 3846 H 359.149 1.31 -3.50414 0
M  V30 3847 H 360.482 1.74198 -4.60343 0
M  V30 3848 N 362.134 1.5431 0.320358 0
M  V30 3849 C 363.362 1.76636 1.07738 0
M  V30 3850 C 363.777 0.51649 1.81598 0
M  V30 3851 O 363.134 -0.512942 1.75143 0
M  V30 3852 C 363.185 2.96158 2.07299 0
M  V30 3853 O 362.906 4.16313 1.36438 0
M  V30 3854 C 364.407 3.3072 2.95193 0
M  V30 3855 H 361.627 0.589597 0.320339 0
M  V30 3856 H 364.171 2.01207 0.36551 0
M  V30 3857 H 362.326 2.73851 2.74016 0
M  V30 3858 H 362.74 4.83565 2.03138 0
M  V30 3859 H 364.214 4.17643 3.60941 0
M  V30 3860 H 364.691 2.48026 3.62463 0
M  V30 3861 H 365.297 3.55117 2.34034 0
M  V30 3862 N 363.613 -0.582584 1.46437 0
M  V30 3863 C 364.89 -1.34276 1.4223 0
M  V30 3864 C 365.27 -2.10835 0.10583 0
M  V30 3865 O 364.618 -2.09485 -0.912596 0
M  V30 3866 C 364.828 -2.26865 2.65204 0
M  V30 3867 C 366.176 -2.88691 3.11356 0
M  V30 3868 O 367.2 -2.37178 2.65753 0
M  V30 3869 O 366.059 -3.82255 3.90568 0
M  V30 3870 H 363.153 -0.603326 0.565621 0
M  V30 3871 H 365.699 -0.603591 1.58603 0
M  V30 3872 H 364.471 -1.69724 3.52576 0
M  V30 3873 H 364.094 -3.08122 2.5129 0
M  V30 3874 N 365.091 -1.34144 -0.827227 0
M  V30 3875 C 366.039 -1.25364 -1.95925 0
M  V30 3876 C 367.033 -0.152608 -1.68711 0
M  V30 3877 O 368.239 -0.317311 -1.77181 0
M  V30 3878 H 364.614 -0.389342 -0.643364 0
M  V30 3879 H 366.585 -2.21045 -2.00454 0
M  V30 3880 C 365.334 -1.02158 -3.32354 0
M  V30 3881 H 364.657 -1.86111 -3.5384 0
M  V30 3882 H 366.097 -1.00048 -4.12027 0
M  V30 3883 C 364.556 0.275244 -3.35774 0
M  V30 3884 O 365.086 1.27806 -3.80826 0
M  V30 3885 N 363.292 0.306853 -2.88975 0
M  V30 3886 H 362.839 -0.509777 -2.52506 0
M  V30 3887 H 362.797 1.17432 -2.91646 0
M  V30 3888 N 366.569 1.04691 -1.17803 0
M  V30 3889 C 367.499 2.14494 -0.92275 0
M  V30 3890 C 368.48 1.69546 0.137179 0
M  V30 3891 O 369.665 1.94195 -0.0141108 0
M  V30 3892 C 366.795 3.44491 -0.440803 0
M  V30 3893 C 365.749 4.03031 -1.4405 0
M  V30 3894 C 365.075 5.28432 -0.81631 0
M  V30 3895 C 366.375 4.39932 -2.81527 0
M  V30 3896 H 368.069 2.36107 -1.84103 0
M  V30 3897 H 365.615 1.1347 -0.886599 0
M  V30 3898 H 367.568 4.2066 -0.249602 0
M  V30 3899 H 366.292 3.22546 0.513025 0
M  V30 3900 H 364.951 3.28937 -1.61853 0
M  V30 3901 H 364.599 5.02792 0.144511 0
M  V30 3902 H 364.299 5.68559 -1.48371 0
M  V30 3903 H 365.823 6.07284 -0.635496 0
M  V30 3904 H 367.237 5.07113 -2.67412 0
M  V30 3905 H 365.634 4.9109 -3.44892 0
M  V30 3906 H 366.704 3.50045 -3.35554 0
M  V30 3907 N 368.047 0.979072 1.23499 0
M  V30 3908 C 368.977 0.537606 2.27227 0
M  V30 3909 C 369.958 -0.428539 1.64613 0
M  V30 3910 O 371.143 -0.322191 1.91509 0
M  V30 3911 C 368.273 -0.162052 3.46922 0
M  V30 3912 C 367.227 0.721242 4.21879 0
M  V30 3913 C 366.553 -0.110555 5.34586 0
M  V30 3914 C 367.853 2.01141 4.82016 0
M  V30 3915 H 369.547 1.40462 2.64406 0
M  V30 3916 H 367.093 0.67684 1.27102 0
M  V30 3917 H 369.046 -0.482192 4.18632 0
M  V30 3918 H 367.77 -1.06351 3.08799 0
M  V30 3919 H 366.429 1.02482 3.51984 0
M  V30 3920 H 366.077 -1.0125 4.92704 0
M  V30 3921 H 365.777 0.477325 5.85658 0
M  V30 3922 H 367.301 -0.425107 6.09118 0
M  V30 3923 H 368.715 1.75612 5.45741 0
M  V30 3924 H 367.112 2.54695 5.43369 0
M  V30 3925 H 368.182 2.69909 4.02836 0
M  V30 3926 N 369.525 -1.3858 0.750561 0
M  V30 3927 C 370.458 -2.28095 0.0693139 0
M  V30 3928 C 371.436 -1.45217 -0.731491 0
M  V30 3929 O 372.62 -1.74587 -0.71076 0
M  V30 3930 C 369.747 -3.26282 -0.90871 0
M  V30 3931 C 368.793 -4.26056 -0.194507 0
M  V30 3932 S 369.626 -5.24026 1.10257 0
M  V30 3933 C 370.782 -6.2577 0.127542 0
M  V30 3934 H 371.015 -2.85526 0.8284 0
M  V30 3935 H 368.548 -1.44536 0.543014 0
M  V30 3936 H 370.506 -3.83367 -1.46766 0
M  V30 3937 H 369.167 -2.6784 -1.64075 0
M  V30 3938 H 368.36 -4.95249 -0.93512 0
M  V30 3939 H 367.962 -3.72852 0.292837 0
M  V30 3940 H 370.254 -6.73796 -0.707516 0
M  V30 3941 H 371.197 -7.03712 0.787044 0
M  V30 3942 H 371.605 -5.63938 -0.251803 0
M  V30 3943 N 371.003 -0.499398 -1.49478 0
M  V30 3944 C 371.95 0.279881 -2.29097 0
M  V30 3945 C 372.92 0.961805 -1.3542 0
M  V30 3946 O 374.105 0.968777 -1.64376 0
M  V30 3947 C 371.245 1.33932 -3.18051 0
M  V30 3948 C 370.358 0.669333 -4.26783 0
M  V30 3949 C 369.493 1.70907 -5.02955 0
M  V30 3950 C 368.532 1.02087 -6.03527 0
M  V30 3951 N 367.669 2.00474 -6.7287 0
M  V30 3952 H 372.509 -0.405317 -2.95231 0
M  V30 3953 H 370.046 -0.211726 -1.45568 0
M  V30 3954 H 372.004 1.96553 -3.67998 0
M  V30 3955 H 370.634 1.9933 -2.53904 0
M  V30 3956 H 369.686 -0.0701234 -3.80335 0
M  V30 3957 H 370.998 0.127503 -4.98637 0
M  V30 3958 H 370.152 2.41037 -5.56764 0
M  V30 3959 H 368.891 2.28476 -4.30871 0
M  V30 3960 H 367.896 0.305338 -5.48951 0
M  V30 3961 H 369.121 0.451708 -6.77596 0
M  V30 3962 H 367.067 2.57007 -6.03559 0
M  V30 3963 H 366.984 1.51353 -7.40694 0
M  V30 3964 H 368.252 2.69897 -7.31284 0
M  V30 3965 N 372.481 1.55866 -0.233164 0
M  V30 3966 C 373.429 2.22176 0.68851 0
M  V30 3967 C 374.423 1.20487 1.19076 0
M  V30 3968 O 375.629 1.38536 1.14925 0
M  V30 3969 H 372.004 0.712511 0.240483 0
M  V30 3970 H 373.975 2.98212 0.105935 0
M  V30 3971 C 372.724 2.92446 1.88071 0
M  V30 3972 H 372.047 3.70458 1.50337 0
M  V30 3973 H 373.487 3.42226 2.50314 0
M  V30 3974 C 371.946 1.95555 2.74335 0
M  V30 3975 O 372.476 1.47986 3.73447 0
M  V30 3976 N 370.682 1.62953 2.40613 0
M  V30 3977 H 370.229 2.01831 1.60069 0
M  V30 3978 H 370.187 0.983886 2.98609 0
M  V30 3979 N 373.959 -0.0401083 1.57549 0
M  V30 3980 C 375.189 -0.744115 1.92734 0
M  V30 3981 C 375.597 -1.70005 0.830348 0
M  V30 3982 O 374.94 -1.82576 -0.20286 0
M  V30 3983 C 375.002 -1.56516 3.2364 0
M  V30 3984 C 374.666 -0.7752 4.50377 0
M  V30 3985 C 375.663 -0.0803326 5.19838 0
M  V30 3986 C 373.348 -0.733002 4.96923 0
M  V30 3987 C 375.342 0.646154 6.34116 0
M  V30 3988 C 373.029 -0.00276321 6.111 0
M  V30 3989 C 374.027 0.685585 6.7955 0
M  V30 3990 O 373.715 1.40399 7.91545 0
M  V30 3991 H 373.447 -0.214861 0.640945 0
M  V30 3992 H 376.001 -0.00503675 2.05399 0
M  V30 3993 H 374.231 -2.3478 3.07271 0
M  V30 3994 H 375.92 -2.15076 3.44234 0
M  V30 3995 H 376.686 -0.104035 4.84888 0
M  V30 3996 H 372.565 -1.25827 4.43496 0
M  V30 3997 H 376.109 1.18398 6.87479 0
M  V30 3998 H 372.006 0.0229012 6.45496 0
M  V30 3999 H 372.774 1.31653 8.07843 0
M  V30 4000 N 375.437 -1.54477 -0.31217 0
M  V30 4001 C 376.384 -1.84655 -1.38461 0
M  V30 4002 C 377.354 -0.694536 -1.50882 0
M  V30 4003 O 378.539 -0.942081 -1.6592 0
M  V30 4004 C 375.679 -2.0896 -2.74645 0
M  V30 4005 C 374.792 -3.36618 -2.70763 0
M  V30 4006 C 373.927 -3.50824 -3.98868 0
M  V30 4007 C 372.966 -4.72315 -3.89339 0
M  V30 4008 N 372.103 -4.83387 -5.09197 0
M  V30 4009 H 376.943 -2.76142 -1.12026 0
M  V30 4010 H 374.48 -1.36748 -0.542065 0
M  V30 4011 H 376.438 -2.21045 -3.53829 0
M  V30 4012 H 375.068 -1.20752 -2.99364 0
M  V30 4013 H 374.12 -3.33211 -1.83506 0
M  V30 4014 H 375.432 -4.25917 -2.59608 0
M  V30 4015 H 374.586 -3.62513 -4.86486 0
M  V30 4016 H 373.325 -2.59638 -4.12843 0
M  V30 4017 H 372.33 -4.6067 -3.00105 0
M  V30 4018 H 373.555 -5.64897 -3.76919 0
M  V30 4019 H 371.501 -3.9512 -5.23657 0
M  V30 4020 H 371.418 -5.66669 -5.00422 0
M  V30 4021 H 372.686 -4.9942 -5.98498 0
M  V30 4022 N 376.915 0.57481 -1.46744 0
M  V30 4023 C 377.847 1.69804 -1.53946 0
M  V30 4024 C 378.86 1.57098 -0.427106 0
M  V30 4025 O 380.049 1.64378 -0.695863 0
M  V30 4026 C 377.149 3.08125 -1.4111 0
M  V30 4027 C 376.322 3.46757 -2.66605 0
M  V30 4028 C 375.381 4.6417 -2.47855 0
M  V30 4029 O 374.407 4.69634 -3.21609 0
M  V30 4030 N 375.609 5.59553 -1.54534 0
M  V30 4031 H 378.374 1.64077 -2.50796 0
M  V30 4032 H 375.935 0.761 -1.429 0
M  V30 4033 H 377.927 3.84478 -1.26328 0
M  V30 4034 H 376.497 3.08175 -0.524109 0
M  V30 4035 H 375.717 2.6003 -2.96274 0
M  V30 4036 H 377.005 3.69337 -3.49954 0
M  V30 4037 H 376.403 5.57881 -0.937304 0
M  V30 4038 H 374.96 6.35304 -1.45711 0
M  V30 4039 N 378.394 1.34581 0.820102 0
M  V30 4040 C 379.642 1.26845 1.57336 0
M  V30 4041 C 379.963 -0.160667 1.94337 0
M  V30 4042 O 379.233 -1.09396 1.6251 0
M  V30 4043 H 377.813 0.466514 0.583415 0
M  V30 4044 H 380.475 1.68526 0.979027 0
M  V30 4045 H 379.571 1.87513 2.4949 0
M  V30 4046 N 379.872 -1.04064 1.18357 0
M  V30 4047 C 381.12 -1.76915 0.977013 0
M  V30 4048 C 381.441 -1.88624 -0.494577 0
M  V30 4049 O 380.711 -1.41125 -1.3587 0
M  V30 4050 H 379.291 -0.65535 0.358504 0
M  V30 4051 H 381.953 -1.25592 1.49039 0
M  V30 4052 H 381.049 -2.78178 1.41504 0
M  V30 4053 N 381.35 -0.985608 -1.22978 0
M  V30 4054 C 382.599 -0.652881 -1.90841 0
M  V30 4055 C 382.912 0.817842 -1.77681 0
M  V30 4056 O 384.118 1.26185 -2.40395 0
M  V30 4057 C 382.574 -1.11717 -3.42122 0
M  V30 4058 C 382.182 -2.6126 -3.63933 0
M  V30 4059 C 383.926 -0.85843 -4.1573 0
M  V30 4060 C 381.833 -3.0133 -5.08876 0
M  V30 4061 H 380.763 -0.240491 -0.714619 0
M  V30 4062 H 383.414 -1.1942 -1.39324 0
M  V30 4063 H 381.796 -0.504027 -3.92779 0
M  V30 4064 H 382.97 -3.27858 -3.23799 0
M  V30 4065 H 381.285 -2.84937 -3.03644 0
M  V30 4066 H 383.882 -1.13359 -5.22546 0
M  V30 4067 H 384.225 0.205461 -4.15793 0
M  V30 4068 H 384.758 -1.43341 -3.71077 0
M  V30 4069 H 381.497 -4.06864 -5.13947 0
M  V30 4070 H 381.017 -2.3943 -5.49939 0
M  V30 4071 H 382.696 -2.92224 -5.77247 0
M  V30 4072 N 382.828 1.3818 -0.7579 0
M  V30 4073 C 384.244 1.5353 -0.435972 0
M  V30 4074 C 384.444 1.71961 1.05032 0
M  V30 4075 O 383.5 1.73307 1.83633 0
M  V30 4076 C 384.813 2.73989 -1.23898 0
M  V30 4077 C 386.361 2.87841 -1.22949 0
M  V30 4078 C 386.836 4.11266 -2.01554 0
M  V30 4079 N 388.327 4.18352 -1.98837 0
M  V30 4080 C 389.062 5.12856 -2.5645 0
M  V30 4081 N 388.558 6.13005 -3.22794 0
M  V30 4082 N 390.351 5.05238 -2.46356 0
M  V30 4083 H 382.502 1.24467 -1.7211 0
M  V30 4084 H 384.765 0.604982 -0.729864 0
M  V30 4085 H 384.471 2.66789 -2.29165 0
M  V30 4086 H 384.345 3.67294 -0.858764 0
M  V30 4087 H 386.732 2.9452 -0.184854 0
M  V30 4088 H 386.813 1.95534 -1.64924 0
M  V30 4089 H 386.457 4.05349 -3.06031 0
M  V30 4090 H 386.387 5.02661 -1.5697 0
M  V30 4091 H 388.878 3.46628 -1.50524 0
M  V30 4092 H 389.191 6.81619 -3.64165 0
M  V30 4093 H 387.536 6.13325 -3.2689 0
M  V30 4094 H 390.727 4.25938 -1.9415 0
M  V30 4095 H 390.9 5.78707 -2.91552 0
M  V30 4096 N 384.306 0.507319 1.49211 0
M  V30 4097 C 385.254 -0.281364 2.30892 0
M  V30 4098 C 386.248 -0.95687 1.39787 0
M  V30 4099 O 387.454 -0.883838 1.56807 0
M  V30 4100 H 383.829 -0.109597 0.743971 0
M  V30 4101 H 385.8 0.42744 2.95323 0
M  V30 4102 C 384.549 -1.32918 3.21291 0
M  V30 4103 H 383.872 -0.818799 3.91326 0
M  V30 4104 H 385.312 -1.85288 3.81372 0
M  V30 4105 C 383.771 -2.35074 2.41333 0
M  V30 4106 O 384.301 -3.4108 2.12197 0
M  V30 4107 N 382.507 -2.07705 2.03241 0
M  V30 4108 H 382.054 -1.2152 2.27136 0
M  V30 4109 H 382.012 -2.76283 1.50051 0
M  V30 4110 N 385.784 -1.5574 0.241426 0
M  V30 4111 C 387.033 -1.97986 -0.385295 0
M  V30 4112 C 387.346 -1.13267 -1.59468 0
M  V30 4113 O 388.552 -1.45501 -2.2922 0
M  V30 4114 C 387.008 -3.52275 -0.736884 0
M  V30 4115 C 386.616 -4.45726 0.450796 0
M  V30 4116 C 388.36 -4.03189 -1.3281 0
M  V30 4117 C 386.267 -5.91352 0.0756662 0
M  V30 4118 H 385.197 -0.739386 -0.147731 0
M  V30 4119 H 387.848 -1.80308 0.340779 0
M  V30 4120 H 386.23 -3.65628 -1.52094 0
M  V30 4121 H 387.404 -4.44131 1.22819 0
M  V30 4122 H 385.719 -4.05264 0.956573 0
M  V30 4123 H 388.316 -5.09505 -1.62201 0
M  V30 4124 H 388.659 -3.50212 -2.25071 0
M  V30 4125 H 389.192 -3.93141 -0.607069 0
M  V30 4126 H 385.931 -6.48354 0.965272 0
M  V30 4127 H 385.451 -5.96095 -0.665635 0
M  V30 4128 H 387.13 -6.46084 -0.344075 0
M  V30 4129 N 387.262 0.0317525 -1.57568 0
M  V30 4130 C 388.509 0.723104 -1.89149 0
M  V30 4131 C 388.837 1.75504 -0.838377 0
M  V30 4132 O 388.092 1.95037 0.160982 0
M  V30 4133 C 388.391 1.43167 -3.27472 0
M  V30 4134 C 388.057 0.535972 -4.47703 0
M  V30 4135 C 386.719 0.289262 -4.8033 0
M  V30 4136 C 389.071 -0.0826125 -5.21135 0
M  V30 4137 C 386.399 -0.584853 -5.83778 0
M  V30 4138 C 388.751 -0.944414 -6.25511 0
M  V30 4139 C 387.415 -1.20061 -6.56614 0
M  V30 4140 H 386.685 0.264602 -0.692146 0
M  V30 4141 H 389.332 -0.0169496 -1.91492 0
M  V30 4142 H 387.637 2.24497 -3.21105 0
M  V30 4143 H 389.334 1.97209 -3.49155 0
M  V30 4144 H 385.924 0.738414 -4.22191 0
M  V30 4145 H 390.108 0.0950302 -4.96209 0
M  V30 4146 H 385.364 -0.79168 -6.06253 0
M  V30 4147 H 389.538 -1.43026 -6.81554 0
M  V30 4148 H 387.165 -1.87967 -7.36595 0
M  V30 4149 N 388.74 1.54641 0.303973 0
M  V30 4150 C 389.703 1.84646 1.35789 0
M  V30 4151 C 390.703 0.7192 1.4382 0
M  V30 4152 O 391.893 0.987491 1.43507 0
M  V30 4153 C 389.025 2.02407 2.74307 0
M  V30 4154 H 390.218 2.78829 1.10429 0
M  V30 4155 H 387.771 1.46658 0.540487 0
M  V30 4156 H 388.506 1.10502 3.04893 0
M  V30 4157 H 388.291 2.84453 2.69868 0
M  V30 4158 H 389.781 2.27002 3.50514 0
M  V30 4159 N 390.218 -0.567019 1.47046 0
M  V30 4160 C 391.495 -1.3276 1.43646 0
M  V30 4161 C 391.875 -2.1071 0.128186 0
M  V30 4162 O 391.223 -2.10441 -0.890326 0
M  V30 4163 C 391.433 -2.2404 2.67595 0
M  V30 4164 C 392.781 -2.85372 3.14401 0
M  V30 4165 O 393.805 -2.34346 2.68254 0
M  V30 4166 O 392.664 -3.78091 3.946 0
M  V30 4167 H 389.758 -0.597293 0.571988 0
M  V30 4168 H 392.304 -0.586735 1.59234 0
M  V30 4169 H 391.076 -1.65975 3.54356 0
M  V30 4170 H 390.699 -3.05439 2.54544 0
M  V30 4171 N 391.696 -1.35014 -0.812953 0
M  V30 4172 C 392.644 -1.27435 -1.94585 0
M  V30 4173 C 393.638 -0.170494 -1.6854 0
M  V30 4174 O 394.844 -0.336085 -1.76835 0
M  V30 4175 H 391.219 -0.396144 -0.639198 0
M  V30 4176 H 393.19 -2.23158 -1.98098 0
M  V30 4177 C 391.939 -1.05677 -3.31252 0
M  V30 4178 H 391.262 -1.89853 -3.51846 0
M  V30 4179 H 392.702 -1.04413 -4.10943 0
M  V30 4180 C 391.161 0.239615 -3.36047 0
M  V30 4181 O 391.691 1.23759 -3.8216 0
M  V30 4182 N 389.897 0.276186 -2.89285 0
M  V30 4183 H 389.444 -0.53653 -2.51951 0
M  V30 4184 H 389.402 1.14332 -2.92875 0
M  V30 4185 N 393.175 1.03435 -1.18907 0
M  V30 4186 C 394.424 1.76143 -0.982669 0
M  V30 4187 C 394.737 1.89416 0.487953 0
M  V30 4188 O 395.943 2.59041 0.813036 0
M  V30 4189 C 394.399 3.16722 -1.70924 0
M  V30 4190 C 394.007 3.11522 -3.21959 0
M  V30 4191 C 395.751 3.93764 -1.58588 0
M  V30 4192 C 393.658 4.46999 -3.87228 0
M  V30 4193 H 392.588 0.660292 -0.364047 0
M  V30 4194 H 395.239 1.158 -1.42347 0
M  V30 4195 H 393.621 3.775 -1.19623 0
M  V30 4196 H 394.795 2.60158 -3.80335 0
M  V30 4197 H 393.11 2.47978 -3.34508 0
M  V30 4198 H 395.707 4.93963 -2.04707 0
M  V30 4199 H 396.05 4.12794 -0.539142 0
M  V30 4200 H 396.583 3.39576 -2.07203 0
M  V30 4201 H 393.322 4.33174 -4.91976 0
M  V30 4202 H 392.842 4.98441 -3.33642 0
M  V30 4203 H 394.521 5.15898 -3.90459 0
M  V30 4204 N 394.653 0.992116 1.22453 0
M  V30 4205 C 396.069 0.702713 1.43297 0
M  V30 4206 C 396.269 -0.726909 1.87932 0
M  V30 4207 O 395.325 -1.49792 2.0327 0
M  V30 4208 C 396.638 1.70762 2.47509 0
M  V30 4209 C 398.186 1.72298 2.61309 0
M  V30 4210 C 398.661 2.71649 3.68742 0
M  V30 4211 N 400.152 2.70239 3.76199 0
M  V30 4212 C 400.887 3.43778 4.58917 0
M  V30 4213 N 400.383 4.26914 5.45633 0
M  V30 4214 N 402.176 3.32487 4.5322 0
M  V30 4215 H 394.327 1.91543 0.917871 0
M  V30 4216 H 396.59 0.826031 0.465162 0
M  V30 4217 H 396.296 2.73059 2.21657 0
M  V30 4218 H 396.17 1.49985 3.46099 0
M  V30 4219 H 398.557 0.706989 2.86506 0
M  V30 4220 H 398.638 1.97143 1.62997 0
M  V30 4221 H 398.282 3.73397 3.44292 0
M  V30 4222 H 398.212 2.44074 4.66622 0
M  V30 4223 H 400.703 2.09912 3.14237 0
M  V30 4224 H 401.016 4.79855 6.05771 0
M  V30 4225 H 399.361 4.31002 5.45218 0
M  V30 4226 H 402.552 2.6698 3.84499 0
M  V30 4227 H 402.725 3.90058 5.17454 0
M  V30 4228 N 396.131 -1.37776 0.765217 0
M  V30 4229 C 397.371 -2.01691 0.331669 0
M  V30 4230 C 397.735 -1.59432 -1.06983 0
M  V30 4231 O 398.936 -2.15761 -1.60314 0
M  V30 4232 C 397.207 -3.54385 0.463261 0
M  V30 4233 S 398.766 -4.38652 0.114011 0
M  V30 4234 H 395.584 -0.699387 0.127979 0
M  V30 4235 H 398.186 -1.68084 0.998396 0
M  V30 4236 H 396.89 -3.82629 1.48401 0
M  V30 4237 H 396.421 -3.92783 -0.220246 0
M  V30 4238 H 398.436 -4.84021 -1.09261 0
M  V30 4239 N 397.609 -0.515225 -1.4894 0
M  V30 4240 C 398.834 0.022727 -2.07388 0
M  V30 4241 C 399.259 1.2876 -1.37122 0
M  V30 4242 O 398.617 1.76067 -0.432431 0
M  V30 4243 C 398.665 0.244869 -3.59768 0
M  V30 4244 O 397.769 1.31667 -3.90817 0
M  V30 4245 H 397.11 -0.0325506 -0.663202 0
M  V30 4246 H 399.64 -0.718918 -1.91553 0
M  V30 4247 H 399.65 0.47205 -4.0526 0
M  V30 4248 H 398.325 -0.679194 -4.10317 0
M  V30 4249 H 396.902 1.07331 -3.5712 0
M  V30 4250 N 399.087 1.5561 -0.249682 0
M  V30 4251 C 400.034 2.21496 0.648694 0
M  V30 4252 C 401.004 1.17977 1.16921 0
M  V30 4253 O 402.189 1.46434 1.22318 0
M  V30 4254 C 399.329 2.92039 1.83868 0
M  V30 4255 C 398.442 4.10219 1.35442 0
M  V30 4256 C 397.577 4.6847 2.50419 0
M  V30 4257 C 396.616 5.78893 1.98869 0
M  V30 4258 N 395.753 6.31315 3.07223 0
M  V30 4259 H 400.593 2.97892 0.0801582 0
M  V30 4260 H 398.13 1.47074 0.0278031 0
M  V30 4261 H 400.088 3.31138 2.53778 0
M  V30 4262 H 398.718 2.18111 2.37965 0
M  V30 4263 H 397.77 3.76413 0.54928 0
M  V30 4264 H 399.082 4.89927 0.936649 0
M  V30 4265 H 398.236 5.10158 3.28366 0
M  V30 4266 H 396.975 3.87984 2.95499 0
M  V30 4267 H 395.98 5.3668 1.19393 0
M  V30 4268 H 397.205 6.61232 1.54755 0
M  V30 4269 H 395.151 5.53733 3.51732 0
M  V30 4270 H 395.068 7.06224 2.69784 0
M  V30 4271 H 396.336 6.77662 3.8522 0
M  V30 4272 N 400.565 -0.0233959 1.57583 0
M  V30 4273 C 401.813 -0.711654 1.89156 0
M  V30 4274 C 402.134 -1.75591 0.848096 0
M  V30 4275 O 401.404 -1.95547 -0.117566 0
M  V30 4276 H 399.984 -0.265835 0.698098 0
M  V30 4277 H 402.646 0.0119948 1.94896 0
M  V30 4278 H 401.742 -1.19766 2.88206 0
M  V30 4279 N 402.043 -1.548 -0.295768 0
M  V30 4280 C 402.973 -1.89115 -1.36959 0
M  V30 4281 C 403.954 -0.75059 -1.52644 0
M  V30 4282 O 405.139 -1.00678 -1.66065 0
M  V30 4283 C 402.269 -2.14307 -2.73295 0
M  V30 4284 C 401.223 -3.30151 -2.72368 0
M  V30 4285 C 400.549 -3.40772 -4.12042 0
M  V30 4286 C 401.849 -4.67126 -2.33646 0
M  V30 4287 H 403.543 -2.79053 -1.08488 0
M  V30 4288 H 401.089 -1.34266 -0.520443 0
M  V30 4289 H 403.042 -2.36898 -3.48507 0
M  V30 4290 H 401.766 -1.21145 -3.03301 0
M  V30 4291 H 400.425 -3.0749 -1.99613 0
M  V30 4292 H 400.073 -2.45117 -4.39234 0
M  V30 4293 H 399.773 -4.18645 -4.12322 0
M  V30 4294 H 401.297 -3.6563 -4.89027 0
M  V30 4295 H 402.711 -4.89414 -2.98575 0
M  V30 4296 H 401.108 -5.47751 -2.45129 0
M  V30 4297 H 402.178 -4.67489 -1.28772 0
M  V30 4298 N 403.521 0.559213 -1.47345 0
M  V30 4299 C 404.484 1.64854 -1.59235 0
M  V30 4300 C 405.484 1.53851 -0.467607 0
M  V30 4301 O 406.674 1.58045 -0.732617 0
M  V30 4302 C 403.806 3.04388 -1.53496 0
M  V30 4303 H 404.999 1.55662 -2.56339 0
M  V30 4304 H 402.552 0.778973 -1.35505 0
M  V30 4305 H 403.287 3.19115 -0.577604 0
M  V30 4306 H 403.072 3.13783 -2.35123 0
M  V30 4307 H 404.562 3.83642 -1.6495 0
M  V30 4308 N 404.999 1.35443 0.805782 0
M  V30 4309 C 405.962 1.28301 1.89925 0
M  V30 4310 C 406.962 0.194285 1.59622 0
M  V30 4311 O 408.152 0.448036 1.6834 0
M  V30 4312 C 405.284 0.984997 3.2636 0
M  V30 4313 H 406.477 2.2553 1.97677 0
M  V30 4314 H 404.03 1.19979 1.00173 0
M  V30 4315 H 404.765 0.016603 3.24296 0
M  V30 4316 H 404.55 1.77269 3.4974 0
M  V30 4317 H 406.04 0.960651 4.064 0
M  V30 4318 N 406.477 -1.02803 1.19454 0
M  V30 4319 C 407.723 -1.76478 0.999171 0
M  V30 4320 C 408.056 -1.88456 -0.468828 0
M  V30 4321 O 407.331 -1.40198 -1.34814 0
M  V30 4322 C 407.614 -3.19044 1.66981 0
M  V30 4323 C 407.467 -3.14932 3.21151 0
M  V30 4324 C 408.786 -4.17456 1.39349 0
M  V30 4325 H 405.905 -0.640614 0.364393 0
M  V30 4326 H 408.547 -1.20005 1.47305 0
M  V30 4327 H 406.697 -3.67263 1.2669 0
M  V30 4328 H 408.369 -2.74605 3.70661 0
M  V30 4329 H 406.612 -2.52625 3.52652 0
M  V30 4330 H 407.283 -4.1566 3.63223 0
M  V30 4331 H 409.759 -3.77842 1.74283 0
M  V30 4332 H 408.635 -5.154 1.88823 0
M  V30 4333 H 408.896 -4.40949 0.318813 0
M  V30 4334 N 407.956 -0.998596 -1.21925 0
M  V30 4335 C 408.889 -0.498517 -2.22688 0
M  V30 4336 C 409.867 0.444301 -1.56412 0
M  V30 4337 O 411.051 0.368518 -1.84863 0
M  V30 4338 C 408.178 0.276639 -3.37568 0
M  V30 4339 C 407.224 -0.61302 -4.22071 0
M  V30 4340 S 408.057 -2.07168 -4.93803 0
M  V30 4341 C 409.213 -1.30617 -6.12119 0
M  V30 4342 H 409.446 -1.35234 -2.64762 0
M  V30 4343 H 406.979 -0.806018 -1.31692 0
M  V30 4344 H 408.937 0.717817 -4.04175 0
M  V30 4345 H 407.598 1.10581 -2.93991 0
M  V30 4346 H 406.791 -0.0162909 -5.03997 0
M  V30 4347 H 406.393 -0.991202 -3.60626 0
M  V30 4348 H 408.685 -0.57675 -6.75041 0
M  V30 4349 H 409.628 -2.10091 -6.76215 0
M  V30 4350 H 410.036 -0.816957 -5.58557 0
M  V30 4351 N 409.434 1.37368 -0.772513 0
M  V30 4352 C 410.681 1.99673 -0.337182 0
M  V30 4353 C 411.009 1.61324 1.0865 0
M  V30 4354 O 410.264 0.851377 1.7621 0
M  V30 4355 C 410.563 3.54817 -0.428876 0
M  V30 4356 C 410.229 4.12936 -1.81092 0
M  V30 4357 C 408.891 4.28523 -2.1891 0
M  V30 4358 C 411.243 4.44801 -2.71664 0
M  V30 4359 C 408.571 4.73277 -3.46735 0
M  V30 4360 C 410.923 4.90981 -3.98899 0
M  V30 4361 C 409.587 5.04773 -4.36761 0
M  V30 4362 H 408.857 0.730656 -0.123384 0
M  V30 4363 H 411.504 1.64124 -0.986686 0
M  V30 4364 H 409.809 3.90618 0.304167 0
M  V30 4365 H 411.506 4.00933 -0.0733334 0
M  V30 4366 H 408.096 4.01233 -1.50699 0
M  V30 4367 H 412.28 4.32344 -2.43706 0
M  V30 4368 H 407.536 4.82142 -3.75964 0
M  V30 4369 H 411.71 5.14603 -4.69208 0
M  V30 4370 H 409.337 5.39211 -5.35868 0
M  V30 4371 N 410.912 0.523116 1.48665 0
M  V30 4372 C 412.16 -0.0134497 2.02096 0
M  V30 4373 C 412.481 -1.35418 1.40311 0
M  V30 4374 O 411.751 -1.87543 0.566074 0
M  V30 4375 H 410.331 -0.00795915 0.746958 0
M  V30 4376 H 412.993 0.685388 1.82451 0
M  V30 4377 H 412.089 -0.126849 3.11842 0
M  V30 4378 N 412.39 -1.55475 0.257931 0
M  V30 4379 C 413.801 -1.8511 -0.243135 0
M  V30 4380 C 414.152 -1.17986 -1.5676 0
M  V30 4381 O 413.277 -0.462102 -2.11409 0
M  V30 4382 C 413.872 -3.35826 -0.447929 0
M  V30 4383 C 412.431 -3.65647 -0.893245 0
M  V30 4384 C 411.578 -2.7729 0.0232965 0
M  V30 4385 H 414.529 -1.51261 0.480199 0
M  V30 4386 H 414.55 -3.58002 -1.28898 0
M  V30 4387 H 414.062 -3.84652 0.516196 0
M  V30 4388 H 412.163 -3.22308 -1.86945 0
M  V30 4389 H 412.276 -4.73312 -0.742469 0
M  V30 4390 H 410.64 -2.49942 -0.490021 0
M  V30 4391 H 411.423 -3.28926 0.982994 0
M  V30 4392 N 413.868 0.0150385 -1.57593 0
M  V30 4393 C 414.818 1.01943 -2.0394 0
M  V30 4394 C 415.802 1.31209 -0.931286 0
M  V30 4395 O 416.994 1.30559 -1.19513 0
M  V30 4396 C 414.123 2.31621 -2.53391 0
M  V30 4397 C 413.209 2.05384 -3.7105 0
M  V30 4398 N 413.6 1.49253 -4.83278 0
M  V30 4399 C 411.898 2.35601 -3.78693 0
M  V30 4400 C 412.599 1.39143 -5.64813 0
M  V30 4401 N 411.575 1.87187 -5.10355 0
M  V30 4402 H 415.377 0.57969 -2.88126 0
M  V30 4403 H 412.891 0.221056 -1.60888 0
M  V30 4404 H 414.888 3.044 -2.84862 0
M  V30 4405 H 413.548 2.76261 -1.70616 0
M  V30 4406 H 414.559 1.17334 -5.04433 0
M  V30 4407 H 411.236 2.8322 -3.06746 0
M  V30 4408 H 412.626 0.961153 -6.6499 0
M  V30 4409 N 415.346 1.54954 0.287554 0
M  V30 4410 C 416.593 1.74873 1.02106 0
M  V30 4411 C 416.921 0.541829 1.86801 0
M  V30 4412 O 416.176 -0.475992 1.89823 0
M  V30 4413 C 416.475 2.99833 1.94512 0
M  V30 4414 C 416.141 4.33029 1.25686 0
M  V30 4415 C 414.803 4.69233 1.06649 0
M  V30 4416 C 417.155 5.15542 0.765913 0
M  V30 4417 C 414.483 5.85518 0.372222 0
M  V30 4418 C 416.835 6.32542 0.0853101 0
M  V30 4419 C 415.499 6.67398 -0.1169 0
M  V30 4420 H 414.769 0.639906 0.373632 0
M  V30 4421 H 417.416 1.89219 0.294665 0
M  V30 4422 H 415.721 2.80325 2.73725 0
M  V30 4423 H 417.418 3.1244 2.51361 0
M  V30 4424 H 414.008 4.04564 1.41512 0
M  V30 4425 H 418.192 4.88059 0.90066 0
M  V30 4426 H 413.448 6.11057 0.204695 0
M  V30 4427 H 417.622 6.95741 -0.302936 0
M  V30 4428 H 415.249 7.57357 -0.656859 0
M  V30 4429 N 416.824 -0.551391 1.4764 0
M  V30 4430 C 417.757 -1.6738 1.5511 0
M  V30 4431 C 418.735 -1.5753 0.402856 0
M  V30 4432 O 419.919 -1.78307 0.611475 0
M  V30 4433 C 417.046 -3.05661 1.45908 0
M  V30 4434 C 416.092 -3.33938 2.65307 0
M  V30 4435 S 416.925 -3.22553 4.27457 0
M  V30 4436 C 418.081 -4.63317 4.20818 0
M  V30 4437 H 418.314 -1.6079 2.50068 0
M  V30 4438 H 415.847 -0.732674 1.35909 0
M  V30 4439 H 417.805 -3.8542 1.41286 0
M  V30 4440 H 416.466 -3.09711 0.523248 0
M  V30 4441 H 415.659 -4.34761 2.54948 0
M  V30 4442 H 415.261 -2.61809 2.67081 0
M  V30 4443 H 417.553 -5.54391 3.89431 0
M  V30 4444 H 418.496 -4.78732 5.21748 0
M  V30 4445 H 418.904 -4.41636 3.51593 0
M  V30 4446 N 418.302 -1.35869 -0.798587 0
M  V30 4447 C 419.249 -1.29446 -1.91082 0
M  V30 4448 C 420.219 -0.16487 -1.6528 0
M  V30 4449 O 421.404 -0.349888 -1.87564 0
M  V30 4450 C 418.544 -1.0804 -3.27752 0
M  V30 4451 C 417.657 -2.29993 -3.65687 0
M  V30 4452 C 416.792 -2.01673 -4.91428 0
M  V30 4453 C 415.831 -3.19636 -5.22015 0
M  V30 4454 N 414.968 -2.91039 -6.38937 0
M  V30 4455 H 419.808 -2.24553 -1.95907 0
M  V30 4456 H 417.345 -1.11615 -0.958148 0
M  V30 4457 H 419.303 -0.936586 -4.06551 0
M  V30 4458 H 417.933 -0.16592 -3.22373 0
M  V30 4459 H 416.985 -2.55211 -2.82085 0
M  V30 4460 H 418.297 -3.18052 -3.84245 0
M  V30 4461 H 417.451 -1.84168 -5.78072 0
M  V30 4462 H 416.19 -1.10911 -4.74921 0
M  V30 4463 H 415.195 -3.37709 -4.33858 0
M  V30 4464 H 416.42 -4.11211 -5.40447 0
M  V30 4465 H 414.366 -2.0288 -6.2384 0
M  V30 4466 H 414.283 -3.72635 -6.57784 0
M  V30 4467 H 415.551 -2.77093 -7.28587 0
M  V30 4468 N 419.78 1.02168 -1.19998 0
M  V30 4469 C 420.728 2.12717 -0.940967 0
M  V30 4470 C 421.722 1.69069 0.105841 0
M  V30 4471 O 422.928 1.79946 -0.0440583 0
M  V30 4472 H 419.303 0.695108 -0.28693 0
M  V30 4473 H 421.274 2.3175 -1.87975 0
M  V30 4474 C 420.023 3.44027 -0.504049 0
M  V30 4475 H 419.346 3.78036 -1.30112 0
M  V30 4476 H 420.786 4.22452 -0.361991 0
M  V30 4477 C 419.245 3.27678 0.782878 0
M  V30 4478 O 419.775 3.56949 1.84256 0
M  V30 4479 N 417.981 2.80943 0.742921 0
M  V30 4480 H 417.528 2.57322 -0.119687 0
M  V30 4481 H 417.486 2.70385 1.60435 0
M  V30 4482 N 421.258 1.00505 1.21394 0
M  V30 4483 C 422.506 0.686415 1.90086 0
M  V30 4484 C 422.827 -0.785264 1.7849 0
M  V30 4485 O 422.097 -1.56387 1.17983 0
M  V30 4486 H 420.677 0.2509 0.703604 0
M  V30 4487 H 423.339 1.27417 1.47482 0
M  V30 4488 H 422.435 0.959621 2.96981 0
M  V30 4489 N 422.737 -1.36956 0.779787 0
M  V30 4490 C 424.014 -1.93697 0.272156 0
M  V30 4491 C 424.394 -1.71267 -1.23413 0
M  V30 4492 O 423.742 -1.06607 -2.02107 0
M  V30 4493 C 423.952 -3.42812 0.654291 0
M  V30 4494 C 425.3 -4.19921 0.628602 0
M  V30 4495 O 426.324 -3.51209 0.594172 0
M  V30 4496 O 425.183 -5.42465 0.662864 0
M  V30 4497 H 422.277 -0.824447 0.0649286 0
M  V30 4498 H 424.823 -1.46196 0.861682 0
M  V30 4499 H 423.595 -3.52754 1.69353 0
M  V30 4500 H 423.218 -3.97582 0.0381369 0
M  V30 4501 N 424.215 -0.530993 -1.48385 0
M  V30 4502 C 425.461 0.00274135 -2.028 0
M  V30 4503 C 425.794 1.33838 -1.40716 0
M  V30 4504 O 425.069 1.86465 -0.553277 0
M  V30 4505 C 425.352 0.123676 -3.59888 0
M  V30 4506 C 425.205 -1.2372 -4.3245 0
M  V30 4507 C 426.524 0.849967 -4.31814 0
M  V30 4508 H 423.643 -0.000477758 -0.737 0
M  V30 4509 H 426.285 -0.688217 -1.77098 0
M  V30 4510 H 424.435 0.712157 -3.81917 0
M  V30 4511 H 426.107 -1.86687 -4.21836 0
M  V30 4512 H 424.35 -1.81882 -3.93829 0
M  V30 4513 H 425.021 -1.10557 -5.40815 0
M  V30 4514 H 427.497 0.350572 -4.14621 0
M  V30 4515 H 426.373 0.903486 -5.41413 0
M  V30 4516 H 426.634 1.90047 -3.99167 0
M  V30 4517 N 425.693 1.55336 -0.266172 0
M  V30 4518 C 426.625 2.19544 0.658247 0
M  V30 4519 C 427.638 1.17746 1.12427 0
M  V30 4520 O 428.827 1.44517 1.04772 0
M  V30 4521 C 425.927 2.80032 1.9088 0
M  V30 4522 C 425.1 4.07436 1.59106 0
M  V30 4523 C 424.159 4.52056 2.69317 0
M  V30 4524 O 423.185 5.18023 2.35883 0
M  V30 4525 N 424.387 4.21448 3.99201 0
M  V30 4526 H 427.152 2.99503 0.108754 0
M  V30 4527 H 424.713 1.61667 -0.0869059 0
M  V30 4528 H 426.705 3.06831 2.63888 0
M  V30 4529 H 425.275 2.04119 2.36758 0
M  V30 4530 H 424.495 3.88021 0.695243 0
M  V30 4531 H 425.783 4.90462 1.35367 0
M  V30 4532 H 425.181 3.68528 4.29189 0
M  V30 4533 H 423.738 4.53039 4.68614 0
M  V30 4534 N 427.171 -0.0066808 1.57599 0
M  V30 4535 C 428.417 -0.693947 1.90558 0
M  V30 4536 C 428.75 -1.73792 0.866594 0
M  V30 4537 O 428.025 -1.94156 -0.115548 0
M  V30 4538 C 428.308 -1.34317 3.34112 0
M  V30 4539 C 428.161 -0.311189 4.48722 0
M  V30 4540 C 429.48 -2.27116 3.7697 0
M  V30 4541 H 426.599 -0.250803 0.693013 0
M  V30 4542 H 429.241 0.043242 1.89951 0
M  V30 4543 H 427.391 -1.9715 3.3476 0
M  V30 4544 H 429.063 0.316944 4.6021 0
M  V30 4545 H 427.306 0.367253 4.32243 0
M  V30 4546 H 427.977 -0.804366 5.46108 0
M  V30 4547 H 430.453 -1.74306 3.77831 0
M  V30 4548 H 429.329 -2.69511 4.78179 0
M  V30 4549 H 429.59 -3.14743 3.10466 0
M  V30 4550 N 428.649 -1.55105 -0.279332 0
M  V30 4551 C 429.877 -1.7943 -1.03017 0
M  V30 4552 C 430.292 -0.564456 -1.80165 0
M  V30 4553 O 429.649 0.466326 -1.76442 0
M  V30 4554 C 429.7 -3.0155 -1.99374 0
M  V30 4555 O 429.421 -4.19784 -1.25352 0
M  V30 4556 C 430.922 -3.3843 -2.86321 0
M  V30 4557 H 428.142 -0.597882 -0.304594 0
M  V30 4558 H 430.686 -2.02105 -0.312035 0
M  V30 4559 H 428.841 -2.81019 -2.66659 0
M  V30 4560 H 429.255 -4.88781 -1.90246 0
M  V30 4561 H 430.729 -4.27066 -3.49741 0
M  V30 4562 H 431.206 -2.57549 -3.5576 0
M  V30 4563 H 431.812 -3.61197 -2.24536 0
M  V30 4564 N 430.127 0.543554 -1.4793 0
M  V30 4565 C 431.075 1.67039 -1.61866 0
M  V30 4566 C 432.069 1.62294 -0.48549 0
M  V30 4567 O 433.275 1.67315 -0.66376 0
M  V30 4568 H 429.65 0.552954 -0.509652 0
M  V30 4569 H 431.621 1.52426 -2.56533 0
M  V30 4570 C 430.37 3.05357 -1.6629 0
M  V30 4571 H 429.693 3.09696 -2.5284 0
M  V30 4572 H 431.133 3.83855 -1.80088 0
M  V30 4573 C 429.592 3.34531 -0.398861 0
M  V30 4574 O 430.122 3.98649 0.494162 0
M  V30 4575 N 428.328 2.89299 -0.2747 0
M  V30 4576 H 427.875 2.37298 -1.00236 0
M  V30 4577 H 427.833 3.09188 0.570075 0
M  V30 4578 N 431.605 1.3629 0.791371 0
M  V30 4579 C 432.851 1.30605 1.55146 0
M  V30 4580 C 433.184 -0.115042 1.93859 0
M  V30 4581 O 432.459 -1.06798 1.62556 0
M  V30 4582 C 432.742 2.22692 2.82985 0
M  V30 4583 C 432.595 3.73489 2.50651 0
M  V30 4584 C 433.914 2.13588 3.84796 0
M  V30 4585 H 431.033 0.475761 0.562868 0
M  V30 4586 H 433.675 1.66825 0.909358 0
M  V30 4587 H 431.825 1.91933 3.37778 0
M  V30 4588 H 433.497 4.14758 2.01924 0
M  V30 4589 H 431.74 3.93021 1.83622 0
M  V30 4590 H 432.411 4.3333 3.41949 0
M  V30 4591 H 434.887 2.40659 3.39445 0
M  V30 4592 H 433.763 2.80195 4.71998 0
M  V30 4593 H 434.024 1.12256 4.27611 0
M  V30 4594 N 433.083 -1.0153 1.20538 0
M  V30 4595 C 434.308 -1.79283 1.04271 0
M  V30 4596 C 434.733 -1.8372 -0.403544 0
M  V30 4597 O 434.091 -1.27321 -1.2907 0
M  V30 4598 C 434.139 -3.21535 1.63241 0
M  V30 4599 O 433.243 -4.03099 0.870908 0
M  V30 4600 H 432.584 -0.55293 0.367647 0
M  V30 4601 H 435.114 -1.27696 1.59859 0
M  V30 4602 H 435.124 -3.72243 1.6703 0
M  V30 4603 H 433.799 -3.1762 2.68497 0
M  V30 4604 H 432.376 -3.61693 0.907323 0
M  V30 4605 N 434.561 -1.01147 -1.20859 0
M  V30 4606 C 435.786 -0.716698 -1.94623 0
M  V30 4607 C 436.211 0.715415 -1.73964 0
M  V30 4608 O 435.569 1.49157 -1.03062 0
M  V30 4609 C 435.617 -1.0513 -3.44935 0
M  V30 4610 O 434.721 -0.160131 -4.12089 0
M  V30 4611 H 434.062 -0.266404 -0.608214 0
M  V30 4612 H 436.592 -1.35346 -1.53436 0
M  V30 4613 H 436.602 -1.00086 -3.95533 0
M  V30 4614 H 435.277 -2.09475 -3.59295 0
M  V30 4615 H 433.854 -0.267657 -3.71938 0
M  V30 4616 N 436.039 1.36541 -0.78704 0
M  V30 4617 C 437.285 1.99599 -0.358872 0
M  V30 4618 C 437.618 1.62323 1.06606 0
M  V30 4619 O 436.893 0.876858 1.73613 0
M  V30 4620 C 437.176 3.56327 -0.519944 0
M  V30 4621 C 437.029 4.03464 -1.98839 0
M  V30 4622 C 438.348 4.4005 0.0664737 0
M  V30 4623 H 435.467 0.725107 -0.131869 0
M  V30 4624 H 438.109 1.6199 -0.992936 0
M  V30 4625 H 436.259 3.88495 0.0198321 0
M  V30 4626 H 437.931 3.81793 -2.58905 0
M  V30 4627 H 436.174 3.55092 -2.49183 0
M  V30 4628 H 436.845 5.12439 -2.05207 0
M  V30 4629 H 439.321 4.14228 -0.394267 0
M  V30 4630 H 438.197 5.48847 -0.0762682 0
M  V30 4631 H 438.458 4.26655 1.15835 0
M  V30 4632 N 437.518 0.538854 1.48102 0
M  V30 4633 C 438.743 0.0102694 2.07397 0
M  V30 4634 C 439.168 -1.26562 1.39153 0
M  V30 4635 O 438.526 -1.75357 0.460387 0
M  V30 4636 C 438.574 -0.187602 3.60112 0
M  V30 4637 O 437.678 -1.25432 3.92862 0
M  V30 4638 H 437.019 0.0430975 0.6626 0
M  V30 4639 H 439.549 0.749301 1.90385 0
M  V30 4640 H 439.559 -0.407517 4.0596 0
M  V30 4641 H 438.234 0.744386 4.09184 0
M  V30 4642 H 436.811 -1.01636 3.58782 0
M  V30 4643 N 438.996 -1.55193 0.274407 0
M  V30 4644 C 440.236 -2.01488 -0.343778 0
M  V30 4645 C 440.6 -1.1586 -1.53103 0
M  V30 4646 O 441.801 -1.51732 -2.2188 0
M  V30 4647 C 440.072 -3.50134 -0.717021 0
M  V30 4648 S 441.631 -4.18417 -1.32184 0
M  V30 4649 H 438.449 -0.70291 -0.106948 0
M  V30 4650 H 441.051 -1.91446 0.396075 0
M  V30 4651 H 439.755 -4.10104 0.155947 0
M  V30 4652 H 439.286 -3.64159 -1.48835 0
M  V30 4653 H 441.301 -4.21984 -2.61044 0
M  V30 4654 N 440.474 -0.00167713 -1.576 0
M  V30 4655 C 441.722 0.681471 -1.90264 0
M  V30 4656 C 442.043 1.7422 -0.875924 0
M  V30 4657 O 441.313 1.95709 0.0864412 0
M  V30 4658 H 439.893 0.254696 -0.702239 0
M  V30 4659 H 442.555 -0.0429996 -1.94853 0
M  V30 4660 H 441.651 1.15166 -2.90075 0
M  V30 4661 N 441.952 1.55251 0.271103 0
M  V30 4662 C 443.177 1.80306 1.02491 0
M  V30 4663 C 443.602 0.575457 1.79081 0
M  V30 4664 O 442.96 -0.474987 1.74967 0
M  V30 4665 C 443.008 3.02832 1.95768 0
M  V30 4666 O 442.112 2.78051 3.04568 0
M  V30 4667 H 441.453 0.595896 0.292923 0
M  V30 4668 H 443.983 2.02397 0.299436 0
M  V30 4669 H 443.993 3.31616 2.37686 0
M  V30 4670 H 442.668 3.9183 1.39434 0
M  V30 4671 H 441.245 2.60369 2.66951 0
M  V30 4672 N 443.43 -0.535701 1.48216 0
M  V30 4673 C 444.393 -1.623 1.61838 0
M  V30 4674 C 445.393 -1.53087 0.492024 0
M  V30 4675 O 446.583 -1.5686 0.757668 0
M  V30 4676 C 443.715 -3.01907 1.58319 0
M  V30 4677 H 444.908 -1.51564 2.58783 0
M  V30 4678 H 442.461 -0.757317 1.36727 0
M  V30 4679 H 443.196 -3.18155 0.628299 0
M  V30 4680 H 442.981 -3.10003 2.40085 0
M  V30 4681 H 444.471 -3.80969 1.71033 0
M  V30 4682 N 444.908 -1.36708 -0.784132 0
M  V30 4683 C 446.154 -1.31426 -1.54451 0
M  V30 4684 C 446.487 0.10476 -1.93917 0
M  V30 4685 O 445.762 1.05934 -1.6312 0
M  V30 4686 C 446.045 -2.24189 -2.818 0
M  V30 4687 C 445.898 -3.74813 -2.48667 0
M  V30 4688 C 447.217 -2.15626 -3.83658 0
M  V30 4689 H 444.336 -0.478739 -0.560337 0
M  V30 4690 H 446.978 -1.67305 -0.900498 0
M  V30 4691 H 445.128 -1.93722 -3.36755 0
M  V30 4692 H 446.8 -4.15823 -1.99722 0
M  V30 4693 H 445.043 -3.93989 -1.81535 0
M  V30 4694 H 445.714 -4.35138 -3.39646 0
M  V30 4695 H 448.19 -2.42456 -3.38163 0
M  V30 4696 H 447.066 -2.82694 -4.70506 0
M  V30 4697 H 447.327 -1.14522 -4.27009 0
M  V30 4698 N 446.386 1.0089 -1.21074 0
M  V30 4699 C 447.802 1.2695 -0.967257 0
M  V30 4700 C 448.002 1.9846 0.348673 0
M  V30 4701 O 447.058 2.28459 1.0753 0
M  V30 4702 C 448.371 2.09697 -2.15517 0
M  V30 4703 C 449.919 2.22937 -2.197 0
M  V30 4704 C 450.394 3.09064 -3.37999 0
M  V30 4705 N 451.885 3.16653 -3.38061 0
M  V30 4706 C 452.62 3.8354 -4.26245 0
M  V30 4707 N 452.116 4.52488 -5.2462 0
M  V30 4708 N 453.909 3.80141 -4.14064 0
M  V30 4709 H 446.06 0.529005 -2.05707 0
M  V30 4710 H 448.323 0.296148 -0.900556 0
M  V30 4711 H 448.029 1.64497 -3.10859 0
M  V30 4712 H 447.903 3.10444 -2.14253 0
M  V30 4713 H 450.29 2.67357 -1.24916 0
M  V30 4714 H 450.371 1.21673 -2.2501 0
M  V30 4715 H 450.015 2.65347 -4.33074 0
M  V30 4716 H 449.945 4.10433 -3.29928 0
M  V30 4717 H 452.436 2.67566 -2.66865 0
M  V30 4718 H 452.749 5.01219 -5.88217 0
M  V30 4719 H 451.094 4.51288 -5.28549 0
M  V30 4720 H 454.285 3.25427 -3.36474 0
M  V30 4721 H 454.458 4.31992 -4.82998 0
M  V30 4722 N 447.864 1.01787 1.20321 0
M  V30 4723 C 449.089 0.727009 1.9424 0
M  V30 4724 C 449.514 -0.706179 1.74341 0
M  V30 4725 O 448.872 -1.48609 1.03852 0
M  V30 4726 C 448.92 1.06958 3.44372 0
M  V30 4727 O 448.024 0.181983 4.11998 0
M  V30 4728 H 447.365 0.269626 0.606793 0
M  V30 4729 H 449.895 1.36158 1.52716 0
M  V30 4730 H 449.905 1.02182 3.94997 0
M  V30 4731 H 448.58 2.11378 3.58179 0
M  V30 4732 H 447.157 0.287378 3.71791 0
M  V30 4733 N 449.342 -1.36122 0.79427 0
M  V30 4734 C 450.619 -1.93398 0.292685 0
M  V30 4735 C 450.999 -1.72567 -1.21589 0
M  V30 4736 O 450.347 -1.08745 -2.00965 0
M  V30 4737 C 450.557 -3.42099 0.690614 0
M  V30 4738 C 451.905 -4.19231 0.673105 0
M  V30 4739 O 452.929 -3.50559 0.631389 0
M  V30 4740 O 451.788 -5.41732 0.720362 0
M  V30 4741 H 448.882 -0.823712 0.0736693 0
M  V30 4742 H 451.428 -1.45273 0.87714 0
M  V30 4743 H 450.2 -3.50938 1.73085 0
M  V30 4744 H 449.823 -3.97519 0.0803036 0
M  V30 4745 N 450.82 -0.546701 -1.47814 0
M  V30 4746 C 452.045 -0.021268 -2.07389 0
M  V30 4747 C 452.47 1.25822 -1.39822 0
M  V30 4748 O 451.828 1.75111 -0.46968 0
M  V30 4749 C 451.876 0.168502 -3.60206 0
M  V30 4750 O 450.98 1.23347 -3.93522 0
M  V30 4751 H 450.321 -0.0466108 -0.662362 0
M  V30 4752 H 452.851 -0.759387 -1.89985 0
M  V30 4753 H 452.861 0.385982 -4.0617 0
M  V30 4754 H 451.536 -0.766075 -4.08784 0
M  V30 4755 H 450.113 0.997319 -3.59316 0
M  V30 4756 N 452.299 1.55045 -0.282633 0
M  V30 4757 C 453.547 1.99365 0.331334 0
M  V30 4758 C 453.868 1.1725 1.55812 0
M  V30 4759 O 453.138 0.263871 1.94115 0
M  V30 4760 H 451.718 0.736397 0.125414 0
M  V30 4761 H 454.38 1.90964 -0.389711 0
M  V30 4762 H 453.476 3.0596 0.616036 0
M  V30 4763 N 453.777 0.010035 1.57597 0
M  V30 4764 C 455.024 -0.6727 1.91 0
M  V30 4765 C 455.352 -1.73219 0.884614 0
M  V30 4766 O 454.607 -1.95395 -0.109215 0
M  V30 4767 C 454.906 -1.34434 3.31153 0
M  V30 4768 C 454.572 -0.417083 4.48967 0
M  V30 4769 C 453.234 -0.161809 4.80928 0
M  V30 4770 C 455.586 0.220753 5.20732 0
M  V30 4771 C 452.914 0.739426 5.82022 0
M  V30 4772 C 455.266 1.10993 6.22787 0
M  V30 4773 C 453.93 1.37428 6.532 0
M  V30 4774 H 453.2 -0.246158 0.698918 0
M  V30 4775 H 455.847 0.0677145 1.9138 0
M  V30 4776 H 454.152 -2.15905 3.26944 0
M  V30 4777 H 455.849 -1.87883 3.54261 0
M  V30 4778 H 452.439 -0.626217 4.24001 0
M  V30 4779 H 456.623 0.0365643 4.96287 0
M  V30 4780 H 451.879 0.952139 6.03941 0
M  V30 4781 H 456.053 1.61046 6.77523 0
M  V30 4782 H 453.68 2.0743 7.31353 0
M  V30 4783 N 455.255 -1.55392 -0.262866 0
M  V30 4784 C 456.501 -1.76737 -0.99458 0
M  V30 4785 C 456.834 -0.572453 -1.85571 0
M  V30 4786 O 456.109 0.429732 -1.89693 0
M  V30 4787 C 456.392 -3.07824 -1.8686 0
M  V30 4788 C 456.245 -4.3769 -1.03672 0
M  V30 4789 C 457.564 -3.35021 -2.85393 0
M  V30 4790 H 454.683 -0.643005 -0.360157 0
M  V30 4791 H 457.325 -1.88126 -0.266216 0
M  V30 4792 H 455.475 -2.98245 -2.48962 0
M  V30 4793 H 457.147 -4.59238 -0.43563 0
M  V30 4794 H 455.39 -4.32461 -0.340513 0
M  V30 4795 H 456.061 -5.25759 -1.6817 0
M  V30 4796 H 458.537 -3.44458 -2.33426 0
M  V30 4797 H 457.413 -4.27989 -3.43681 0
M  V30 4798 H 457.674 -2.55153 -3.61039 0
M  V30 4799 N 456.733 0.527833 -1.48498 0
M  V30 4800 C 457.643 1.65907 -1.65867 0
M  V30 4801 C 458.659 1.6537 -0.541192 0
M  V30 4802 O 459.835 1.84282 -0.812534 0
M  V30 4803 C 456.9 3.02364 -1.69637 0
M  V30 4804 C 455.961 3.1374 -2.93028 0
M  V30 4805 C 455.194 4.43688 -2.96609 0
M  V30 4806 O 455.417 5.30913 -2.08538 0
M  V30 4807 O 454.351 4.59475 -3.88802 0
M  V30 4808 H 458.177 1.5419 -2.61647 0
M  V30 4809 H 455.762 0.701163 -1.31924 0
M  V30 4810 H 457.644 3.83515 -1.74625 0
M  V30 4811 H 456.319 3.14401 -0.770312 0
M  V30 4812 H 455.226 2.31877 -2.93571 0
M  V30 4813 H 456.559 3.06621 -3.85026 0
M  V30 4814 N 458.211 1.37122 0.776871 0
M  V30 4815 C 459.141 1.35164 1.90402 0
M  V30 4816 C 460.122 0.221069 1.68657 0
M  V30 4817 O 461.307 0.420642 1.8959 0
M  V30 4818 C 458.437 1.15274 3.27611 0
M  V30 4819 C 457.391 2.25289 3.63908 0
M  V30 4820 C 456.717 1.90527 4.99603 0
M  V30 4821 C 458.017 3.67446 3.71188 0
M  V30 4822 H 459.711 2.29482 1.92297 0
M  V30 4823 H 457.257 1.10465 0.923773 0
M  V30 4824 H 459.21 1.12536 4.06096 0
M  V30 4825 H 457.934 0.174102 3.26136 0
M  V30 4826 H 456.593 2.27174 2.87728 0
M  V30 4827 H 456.241 0.91206 4.94662 0
M  V30 4828 H 455.941 2.64193 5.24858 0
M  V30 4829 H 457.465 1.89367 5.80493 0
M  V30 4830 H 458.879 3.67719 4.39836 0
M  V30 4831 H 457.276 4.40123 4.07936 0
M  V30 4832 H 458.346 4.01443 2.71977 0
M  V30 4833 N 459.689 -1.00246 1.21608 0
M  V30 4834 C 460.936 -1.74061 1.03485 0
M  V30 4835 C 461.264 -1.89658 -0.431308 0
M  V30 4836 O 460.519 -1.42976 -1.33627 0
M  V30 4837 C 460.818 -3.15448 1.68009 0
M  V30 4838 C 460.484 -3.19792 3.17874 0
M  V30 4839 C 459.146 -3.20685 3.58768 0
M  V30 4840 C 461.498 -3.16835 4.13842 0
M  V30 4841 C 458.826 -3.16309 4.94131 0
M  V30 4842 C 461.178 -3.14001 5.49169 0
M  V30 4843 C 459.842 -3.13204 5.89457 0
M  V30 4844 H 459.112 -0.636934 0.378677 0
M  V30 4845 H 461.759 -1.17473 1.51236 0
M  V30 4846 H 460.064 -3.75284 1.12557 0
M  V30 4847 H 461.761 -3.71285 1.51487 0
M  V30 4848 H 458.351 -3.19842 2.85305 0
M  V30 4849 H 462.535 -3.15303 3.83272 0
M  V30 4850 H 457.791 -3.14032 5.24589 0
M  V30 4851 H 461.965 -3.10667 6.23265 0
M  V30 4852 H 459.592 -3.09568 6.94314 0
M  V30 4853 N 461.167 -1.02423 -1.1978 0
M  V30 4854 C 462.392 -0.7373 -1.93852 0
M  V30 4855 C 462.817 0.696923 -1.74713 0
M  V30 4856 O 462.175 1.48056 -1.04638 0
M  V30 4857 C 462.223 -1.08783 -3.438 0
M  V30 4858 O 461.327 -0.20383 -4.11896 0
M  V30 4859 H 460.668 -0.27284 -0.605355 0
M  V30 4860 H 463.198 -1.36966 -1.51992 0
M  V30 4861 H 463.208 -1.04276 -3.9445 0
M  V30 4862 H 461.883 -2.13274 -3.57053 0
M  V30 4863 H 460.46 -0.307091 -3.71633 0
M  V30 4864 N 462.645 1.35699 -0.801477 0
M  V30 4865 C 464.056 1.81415 -0.441073 0
M  V30 4866 C 464.407 1.66595 1.03636 0
M  V30 4867 O 463.532 1.19369 1.80499 0
M  V30 4868 C 464.127 3.29369 -0.793819 0
M  V30 4869 C 462.686 3.73248 -0.486083 0
M  V30 4870 C 461.833 2.57775 -1.02213 0
M  V30 4871 H 464.784 1.23749 -0.993572 0
M  V30 4872 H 464.805 3.80395 -0.0894158 0
M  V30 4873 H 464.317 3.40123 -1.86917 0
M  V30 4874 H 462.418 3.68046 0.580735 0
M  V30 4875 H 462.531 4.68222 -1.01513 0
M  V30 4876 H 460.895 2.50788 -0.444712 0
M  V30 4877 H 461.678 2.71309 -2.10348 0
M  V30 4878 N 464.123 0.554532 1.47522 0
M  V30 4879 C 465.351 0.034257 2.06872 0
M  V30 4880 C 465.766 -1.25826 1.40759 0
M  V30 4881 O 465.123 -1.75425 0.503217 0
M  V30 4882 C 465.174 -0.167827 3.6111 0
M  V30 4883 O 464.895 1.07351 4.24744 0
M  V30 4884 C 466.396 -0.72569 4.3732 0
M  V30 4885 H 463.616 0.0446275 0.669514 0
M  V30 4886 H 466.16 0.767181 1.89564 0
M  V30 4887 H 464.315 -0.850872 3.7794 0
M  V30 4888 H 464.729 0.869563 5.17242 0
M  V30 4889 H 466.203 -0.816394 5.45929 0
M  V30 4890 H 466.68 -1.73635 4.0342 0
M  V30 4891 H 467.286 -0.0784292 4.25228 0
M  V30 4892 N 465.601 -1.54893 0.290851 0
M  V30 4893 C 466.878 -1.91991 -0.373989 0
M  V30 4894 C 467.258 -1.21694 -1.72493 0
M  V30 4895 O 466.606 -0.34917 -2.25816 0
M  V30 4896 C 466.816 -3.45419 -0.498703 0
M  V30 4897 C 468.164 -4.1748 -0.774298 0
M  V30 4898 O 469.188 -3.51398 -0.582908 0
M  V30 4899 O 468.047 -5.3445 -1.14129 0
M  V30 4900 H 465.141 -0.800593 -0.207315 0
M  V30 4901 H 467.687 -1.66297 0.338164 0
M  V30 4902 H 466.459 -3.88688 0.451392 0
M  V30 4903 H 466.082 -3.77117 -1.25972 0
M  V30 4904 N 467.08 -0.0183926 -1.57589 0
M  V30 4905 C 467.99 0.982943 -2.13015 0
M  V30 4906 C 469.006 1.36443 -1.07979 0
M  V30 4907 O 470.182 1.44802 -1.3998 0
M  V30 4908 C 467.247 2.25024 -2.63752 0
M  V30 4909 C 466.308 1.93018 -3.83461 0
M  V30 4910 C 465.541 3.13706 -4.31769 0
M  V30 4911 O 465.764 4.2601 -3.79305 0
M  V30 4912 O 464.698 2.96629 -5.23732 0
M  V30 4913 H 468.524 0.541709 -2.9883 0
M  V30 4914 H 466.109 0.201565 -1.48034 0
M  V30 4915 H 467.991 2.99441 -2.96502 0
M  V30 4916 H 466.666 2.68349 -1.81026 0
M  V30 4917 H 465.573 1.16019 -3.55655 0
M  V30 4918 H 466.906 1.54516 -4.67317 0
M  V30 4919 N 468.558 1.5553 0.254621 0
M  V30 4920 C 469.804 1.77262 0.985193 0
M  V30 4921 C 470.137 0.582286 1.85265 0
M  V30 4922 O 469.412 -0.419666 1.89919 0
M  V30 4923 C 469.695 3.0881 1.85225 0
M  V30 4924 C 469.548 4.38233 1.0135 0
M  V30 4925 C 470.867 3.3653 2.83612 0
M  V30 4926 H 467.986 0.644906 0.356742 0
M  V30 4927 H 470.628 1.88264 0.256236 0
M  V30 4928 H 468.778 2.99562 2.47376 0
M  V30 4929 H 470.45 4.59463 0.411269 0
M  V30 4930 H 468.693 4.32636 0.317574 0
M  V30 4931 H 469.364 5.26644 1.65379 0
M  V30 4932 H 471.84 3.45691 2.31596 0
M  V30 4933 H 470.716 4.29805 3.41407 0
M  V30 4934 H 470.977 2.57064 3.59681 0
M  V30 4935 N 470.036 -0.519951 1.48776 0
M  V30 4936 C 470.986 -1.61995 1.60442 0
M  V30 4937 C 471.97 -1.54155 0.460991 0
M  V30 4938 O 473.162 -1.62006 0.712965 0
M  V30 4939 C 470.291 -3.00683 1.65664 0
M  V30 4940 C 469.377 -3.1359 2.8552 0
M  V30 4941 N 469.768 -2.96441 4.09825 0
M  V30 4942 C 468.066 -3.44662 2.83062 0
M  V30 4943 C 468.767 -3.1303 4.90293 0
M  V30 4944 N 467.743 -3.41058 4.23297 0
M  V30 4945 H 471.545 -1.47362 2.54287 0
M  V30 4946 H 469.059 -0.725649 1.45286 0
M  V30 4947 H 471.056 -3.79712 1.72117 0
M  V30 4948 H 469.716 -3.16401 0.729425 0
M  V30 4949 H 470.727 -2.72999 4.40104 0
M  V30 4950 H 467.404 -3.66675 1.9964 0
M  V30 4951 H 468.794 -3.04424 5.98979 0
M  V30 4952 N 471.514 -1.37532 -0.769588 0
M  V30 4953 C 472.742 -1.36059 -1.55871 0
M  V30 4954 C 473.157 0.053544 -1.88724 0
M  V30 4955 O 472.514 1.01591 -1.5161 0
M  V30 4956 C 472.565 -2.20107 -2.86767 0
M  V30 4957 O 472.286 -3.56009 -2.55321 0
M  V30 4958 C 473.787 -2.26636 -3.80987 0
M  V30 4959 H 471.007 -0.465967 -0.482821 0
M  V30 4960 H 473.551 -1.80901 -0.953686 0
M  V30 4961 H 471.706 -1.78768 -3.43687 0
M  V30 4962 H 472.12 -4.0009 -3.39158 0
M  V30 4963 H 473.594 -2.89763 -4.69831 0
M  V30 4964 H 474.071 -1.2754 -4.20274 0
M  V30 4965 H 474.677 -2.68296 -3.29996 0
M  V30 4966 N 472.992 0.995999 -1.22138 0
M  V30 4967 C 474.408 1.25917 -0.980667 0
M  V30 4968 C 474.608 1.98819 0.327604 0
M  V30 4969 O 473.664 2.29587 1.05101 0
M  V30 4970 C 474.977 2.07399 -2.17729 0
M  V30 4971 C 476.525 2.20594 -2.22052 0
M  V30 4972 C 477 3.05462 -3.41258 0
M  V30 4973 N 478.491 3.13049 -3.41401 0
M  V30 4974 C 479.226 3.78997 -4.30289 0
M  V30 4975 N 478.722 4.46899 -5.2939 0
M  V30 4976 N 480.515 3.75728 -4.18073 0
M  V30 4977 H 472.666 0.507158 -2.06256 0
M  V30 4978 H 474.929 0.28658 -0.903646 0
M  V30 4979 H 474.635 1.61191 -3.12586 0
M  V30 4980 H 474.509 3.08154 -2.17534 0
M  V30 4981 H 476.896 2.66017 -1.27745 0
M  V30 4982 H 476.977 1.1928 -2.26287 0
M  V30 4983 H 476.621 2.60739 -4.35864 0
M  V30 4984 H 476.551 4.06911 -3.34262 0
M  V30 4985 H 479.042 2.64721 -2.69688 0
M  V30 4986 H 479.355 4.94952 -5.935 0
M  V30 4987 H 477.7 4.45657 -5.33306 0
M  V30 4988 H 480.891 3.2184 -3.39907 0
M  V30 4989 H 481.064 4.26845 -4.87553 0
M  V30 4990 N 474.47 1.03057 1.19235 0
M  V30 4991 C 475.402 0.570932 2.21975 0
M  V30 4992 C 476.415 -0.354088 1.58903 0
M  V30 4993 O 477.604 -0.150211 1.77867 0
M  V30 4994 C 474.704 -0.187152 3.38383 0
M  V30 4995 C 473.877 0.743231 4.31039 0
M  V30 4996 C 472.936 0.0302493 5.26191 0
M  V30 4997 O 471.962 0.657371 5.65391 0
M  V30 4998 N 473.164 -1.23991 5.67104 0
M  V30 4999 H 475.929 1.45456 2.62036 0
M  V30 5000 H 473.49 0.909807 1.33918 0
M  V30 5001 H 475.482 -0.673715 3.99053 0
M  V30 5002 H 474.052 -0.972205 2.97098 0
M  V30 5003 H 473.272 1.40985 3.68126 0
M  V30 5004 H 474.56 1.3755 4.89854 0
M  V30 5005 H 473.958 -1.77011 5.37293 0
M  V30 5006 H 472.515 -1.67093 6.30018 0
M  V30 5007 N 475.948 -1.35272 0.808662 0
M  V30 5008 C 477.173 -2.03477 0.401475 0
M  V30 5009 C 477.598 -1.60537 -0.980279 0
M  V30 5010 O 476.956 -0.78304 -1.63518 0
M  V30 5011 C 477.004 -3.57181 0.495354 0
M  V30 5012 O 476.108 -4.09474 -0.490397 0
M  V30 5013 H 475.449 -0.642561 0.167366 0
M  V30 5014 H 477.979 -1.72824 1.09512 0
M  V30 5015 H 477.989 -4.06356 0.365912 0
M  V30 5016 H 476.664 -3.87784 1.5032 0
M  V30 5017 H 475.241 -3.71516 -0.321023 0
M  V30 5018 N 477.426 -0.562348 -1.47226 0
M  V30 5019 C 478.672 -0.0485293 -2.03342 0
M  V30 5020 C 479.027 1.28898 -1.42839 0
M  V30 5021 O 478.32 1.82719 -0.576563 0
M  V30 5022 C 478.514 0.0969817 -3.57268 0
M  V30 5023 C 478.343 -1.22487 -4.32697 0
M  V30 5024 C 477.113 -1.79357 -4.72397 0
M  V30 5025 C 479.311 -2.14332 -4.67511 0
M  V30 5026 N 477.293 -3.05493 -5.32491 0
M  V30 5027 C 478.664 -3.25049 -5.27961 0
M  V30 5028 C 480.719 -2.14263 -4.4944 0
M  V30 5029 C 479.422 -4.35804 -5.72248 0
M  V30 5030 C 481.448 -3.24033 -4.94729 0
M  V30 5031 C 480.81 -4.3347 -5.55233 0
M  V30 5032 H 476.909 -0.0600464 -0.779691 0
M  V30 5033 H 479.493 -0.750769 -1.79643 0
M  V30 5034 H 477.664 0.768353 -3.80724 0
M  V30 5035 H 479.396 0.613333 -4.00025 0
M  V30 5036 H 476.151 -1.33093 -4.54514 0
M  V30 5037 H 476.575 -3.698 -5.67077 0
M  V30 5038 H 481.217 -1.30935 -4.02015 0
M  V30 5039 H 478.935 -5.19888 -6.18661 0
M  V30 5040 H 482.521 -3.25073 -4.82513 0
M  V30 5041 H 481.401 -5.17008 -5.89638 0
M  V30 5042 N 478.904 1.54736 -0.299062 0
M  V30 5043 C 479.851 2.23448 0.577899 0
M  V30 5044 C 480.821 1.21637 1.13109 0
M  V30 5045 O 482.006 1.50252 1.17597 0
M  V30 5046 C 479.146 2.9774 1.74484 0
M  V30 5047 C 478.259 4.1432 1.22323 0
M  V30 5048 C 477.394 4.76199 2.35388 0
M  V30 5049 C 476.433 5.84927 1.80351 0
M  V30 5050 N 475.57 6.4077 2.86982 0
M  V30 5051 H 480.41 2.97996 -0.0146545 0
M  V30 5052 H 477.947 1.47088 -0.0190013 0
M  V30 5053 H 479.905 3.39045 2.43114 0
M  V30 5054 H 478.535 2.25572 2.30905 0
M  V30 5055 H 477.587 3.7797 0.429249 0
M  V30 5056 H 478.899 4.92659 0.780309 0
M  V30 5057 H 478.053 5.20346 3.11969 0
M  V30 5058 H 476.792 3.97188 2.83006 0
M  V30 5059 H 475.797 5.40207 1.02259 0
M  V30 5060 H 477.022 6.65821 1.3364 0
M  V30 5061 H 474.968 5.64643 3.33938 0
M  V30 5062 H 474.885 7.1445 2.4718 0
M  V30 5063 H 476.153 6.89574 3.63466 0
M  V30 5064 N 480.382 0.0267497 1.57577 0
M  V30 5065 C 481.314 -0.984594 2.06974 0
M  V30 5066 C 482.327 -1.29032 0.992705 0
M  V30 5067 O 483.516 -1.25539 1.26895 0
M  V30 5068 C 480.616 -2.31262 2.47732 0
M  V30 5069 C 479.789 -2.1924 3.78487 0
M  V30 5070 C 478.848 -3.34956 4.05821 0
M  V30 5071 O 477.874 -3.11948 4.76106 0
M  V30 5072 N 479.076 -4.58672 3.55809 0
M  V30 5073 H 481.841 -0.563143 2.94362 0
M  V30 5074 H 479.402 -0.160061 1.61107 0
M  V30 5075 H 481.394 -3.07496 2.63112 0
M  V30 5076 H 479.964 -2.65056 1.65723 0
M  V30 5077 H 479.184 -1.27747 3.72927 0
M  V30 5078 H 480.472 -2.08409 4.64158 0
M  V30 5079 H 479.87 -4.8026 2.98942 0
M  V30 5080 H 478.427 -5.32083 3.76472 0
M  V30 5081 N 481.861 -1.55662 -0.24637 0
M  V30 5082 C 482.824 -1.89558 -1.28842 0
M  V30 5083 C 483.824 -0.772082 -1.41052 0
M  V30 5084 O 485.014 -1.04007 -1.39743 0
M  V30 5085 C 482.146 -2.12449 -2.66605 0
M  V30 5086 H 483.339 -2.82735 -1.00004 0
M  V30 5087 H 480.892 -1.48562 -0.485684 0
M  V30 5088 H 481.627 -1.21742 -3.00582 0
M  V30 5089 H 481.412 -2.94273 -2.59125 0
M  V30 5090 H 482.902 -2.39854 -3.41847 0
M  V30 5091 N 483.339 0.512053 -1.4905 0
M  V30 5092 C 484.585 1.26874 -1.58212 0
M  V30 5093 C 484.918 1.9241 -0.263073 0
M  V30 5094 O 484.193 1.80181 0.732476 0
M  V30 5095 C 484.476 2.34428 -2.73341 0
M  V30 5096 C 484.329 1.73466 -4.15006 0
M  V30 5097 C 485.648 3.36073 -2.84154 0
M  V30 5098 H 482.767 0.459924 -0.575881 0
M  V30 5099 H 485.409 0.568587 -1.81293 0
M  V30 5100 H 483.559 2.94146 -2.53792 0
M  V30 5101 H 485.231 1.17661 -4.46042 0
M  V30 5102 H 483.474 1.03921 -4.21168 0
M  V30 5103 H 484.145 2.51426 -4.91415 0
M  V30 5104 H 486.621 2.86332 -3.01916 0
M  V30 5105 H 485.497 4.08703 -3.66406 0
M  V30 5106 H 485.758 3.97725 -1.93048 0
M  V30 5107 N 484.817 1.37938 0.762283 0
M  V30 5108 C 485.727 1.36681 1.90671 0
M  V30 5109 C 486.743 0.265078 1.71969 0
M  V30 5110 O 487.919 0.502055 1.95042 0
M  V30 5111 C 484.984 1.18211 3.25925 0
M  V30 5112 C 484.045 2.3811 3.57214 0
M  V30 5113 C 483.278 2.20512 4.86014 0
M  V30 5114 O 483.501 1.19429 5.57757 0
M  V30 5115 O 482.435 3.08911 5.16583 0
M  V30 5116 H 486.261 2.33091 1.94685 0
M  V30 5117 H 483.846 1.18767 0.906356 0
M  V30 5118 H 485.728 1.09937 4.06807 0
M  V30 5119 H 484.403 0.248807 3.22742 0
M  V30 5120 H 483.31 2.51958 2.76529 0
M  V30 5121 H 484.643 3.30041 3.65149 0
M  V30 5122 N 486.295 -0.989507 1.22664 0
M  V30 5123 C 487.52 -1.77031 1.08051 0
M  V30 5124 C 487.945 -1.84535 -0.364483 0
M  V30 5125 O 487.303 -1.3003 -1.2634 0
M  V30 5126 C 487.351 -3.18 1.70024 0
M  V30 5127 O 486.455 -4.01161 0.956216 0
M  V30 5128 H 485.796 -0.545008 0.379292 0
M  V30 5129 H 488.326 -1.24277 1.62531 0
M  V30 5130 H 488.336 -3.68616 1.74888 0
M  V30 5131 H 487.011 -3.11853 2.75174 0
M  V30 5132 H 485.588 -3.59687 0.98384 0
M  V30 5133 N 487.773 -1.03688 -1.18687 0
M  V30 5134 C 488.72 -0.624624 -2.22187 0
M  V30 5135 C 489.69 0.365636 -1.62026 0
M  V30 5136 O 490.875 0.260481 -1.89014 0
M  V30 5137 C 488.015 0.0101738 -3.45099 0
M  V30 5138 C 487.128 -1.02709 -4.19613 0
M  V30 5139 C 486.263 -0.361213 -5.2997 0
M  V30 5140 C 485.302 -1.38384 -5.96252 0
M  V30 5141 N 484.439 -0.743196 -6.98155 0
M  V30 5142 H 489.279 -1.51176 -2.56807 0
M  V30 5143 H 486.816 -0.75636 -1.26165 0
M  V30 5144 H 488.774 0.395528 -4.15321 0
M  V30 5145 H 487.404 0.860848 -3.1111 0
M  V30 5146 H 486.456 -1.53043 -3.48256 0
M  V30 5147 H 487.768 -1.80398 -4.65036 0
M  V30 5148 H 486.922 0.0785537 -6.06649 0
M  V30 5149 H 485.661 0.447799 -4.8564 0
M  V30 5150 H 484.666 -1.83378 -5.18317 0
M  V30 5151 H 485.891 -2.19448 -6.42666 0
M  V30 5152 H 483.837 0.0455789 -6.55984 0
M  V30 5153 H 483.754 -1.45784 -7.41811 0
M  V30 5154 H 485.022 -0.327698 -7.78811 0
M  V30 5155 N 489.251 1.34841 -0.815825 0
M  V30 5156 C 490.181 2.32187 -0.247298 0
M  V30 5157 C 491.162 1.5791 0.632344 0
M  V30 5158 O 492.347 1.8593 0.560698 0
M  V30 5159 C 489.477 3.42122 0.597466 0
M  V30 5160 C 488.431 4.27602 -0.184446 0
M  V30 5161 C 487.757 5.28942 0.782609 0
M  V30 5162 C 489.057 5.03502 -1.38865 0
M  V30 5163 H 490.751 2.79985 -1.06061 0
M  V30 5164 H 488.297 1.34611 -0.511461 0
M  V30 5165 H 490.25 4.09232 1.00533 0
M  V30 5166 H 488.974 2.92956 1.44376 0
M  V30 5167 H 487.633 3.62085 -0.573592 0
M  V30 5168 H 487.281 4.7604 1.62466 0
M  V30 5169 H 486.981 5.87008 0.263695 0
M  V30 5170 H 488.505 5.98922 1.18848 0
M  V30 5171 H 489.919 5.63506 -1.05518 0
M  V30 5172 H 488.316 5.71108 -1.8427 0
M  V30 5173 H 489.386 4.33608 -2.17054 0
M  V30 5174 N 490.729 0.570148 1.46925 0
M  V30 5175 C 491.977 0.0508523 2.02036 0
M  V30 5176 C 492.298 -1.30885 1.44548 0
M  V30 5177 O 491.568 -1.85647 0.625453 0
M  V30 5178 H 490.148 0.0158088 0.746833 0
M  V30 5179 H 492.81 0.743086 1.80178 0
M  V30 5180 H 491.906 -0.027575 3.12088 0
M  V30 5181 N 492.207 -1.54576 0.307264 0
M  V30 5182 C 493.623 -1.59534 -0.0459251 0
M  V30 5183 C 493.823 -1.32414 -1.51884 0
M  V30 5184 O 492.879 -1.1006 -2.27251 0
M  V30 5185 C 494.192 -2.98566 0.357649 0
M  V30 5186 C 495.74 -3.11491 0.306937 0
M  V30 5187 C 496.215 -4.52842 0.685427 0
M  V30 5188 N 497.706 -4.58782 0.638203 0
M  V30 5189 C 498.441 -5.66238 0.903458 0
M  V30 5190 N 497.937 -6.81703 1.23501 0
M  V30 5191 N 499.73 -5.55937 0.830102 0
M  V30 5192 H 491.881 -1.70464 1.26712 0
M  V30 5193 H 494.144 -0.79647 0.514139 0
M  V30 5194 H 493.85 -3.23356 1.38325 0
M  V30 5195 H 493.724 -3.76117 -0.285565 0
M  V30 5196 H 496.111 -2.86446 -0.709424 0
M  V30 5197 H 496.192 -2.36081 0.984861 0
M  V30 5198 H 495.836 -4.78618 1.69963 0
M  V30 5199 H 495.766 -5.26598 -0.0146346 0
M  V30 5200 H 498.257 -3.75849 0.393138 0
M  V30 5201 H 498.57 -7.59582 1.42322 0
M  V30 5202 H 496.915 -6.8324 1.27311 0
M  V30 5203 H 500.106 -4.64608 0.570693 0
M  V30 5204 H 500.279 -6.39597 1.04019 0
M  V30 5205 N 493.685 -0.035106 -1.57561 0
M  V30 5206 C 494.933 0.64096 -1.91667 0
M  V30 5207 C 495.254 1.72323 -0.912681 0
M  V30 5208 O 494.524 1.95849 0.0449089 0
M  V30 5209 H 493.104 0.239743 -0.707483 0
M  V30 5210 H 495.766 -0.084321 -1.94718 0
M  V30 5211 H 494.862 1.08987 -2.92452 0
M  V30 5212 N 495.163 1.55791 0.238111 0
M  V30 5213 C 496.403 1.79801 0.972163 0
M  V30 5214 C 496.767 0.606027 1.82185 0
M  V30 5215 O 497.968 0.725079 2.58836 0
M  V30 5216 C 496.239 3.08608 1.80266 0
M  V30 5217 S 497.798 3.53872 2.59461 0
M  V30 5218 H 494.616 0.631418 0.326852 0
M  V30 5219 H 497.218 1.94031 0.239212 0
M  V30 5220 H 495.922 3.93419 1.1683 0
M  V30 5221 H 495.453 2.9714 2.57821 0
M  V30 5222 H 497.468 3.15899 3.82651 0
M  V30 5223 N 496.642 -0.504142 1.49319 0
M  V30 5224 C 497.605 -1.5883 1.65244 0
M  V30 5225 C 498.605 -1.52009 0.524386 0
M  V30 5226 O 499.795 -1.55218 0.79077 0
M  V30 5227 C 496.927 -2.98481 1.64687 0
M  V30 5228 H 498.12 -1.4604 2.61939 0
M  V30 5229 H 495.673 -0.728144 1.38303 0
M  V30 5230 H 496.408 -3.16751 0.695644 0
M  V30 5231 H 496.193 -3.0484 2.46607 0
M  V30 5232 H 497.683 -3.77256 1.79075 0
M  V30 5233 N 498.12 -1.38341 -0.754957 0
M  V30 5234 C 499.052 -1.31347 -1.87831 0
M  V30 5235 C 500.065 -0.225955 -1.61224 0
M  V30 5236 O 501.254 -0.48341 -1.7183 0
M  V30 5237 C 498.354 -1.01201 -3.23437 0
M  V30 5238 C 497.527 -2.20834 -3.77559 0
M  V30 5239 C 496.586 -1.87454 -4.91678 0
M  V30 5240 O 495.612 -2.59934 -5.06382 0
M  V30 5241 N 496.814 -0.828682 -5.74555 0
M  V30 5242 H 499.579 -2.28147 -1.94342 0
M  V30 5243 H 497.14 -1.32184 -0.934828 0
M  V30 5244 H 499.132 -0.769249 -3.97322 0
M  V30 5245 H 497.702 -0.132011 -3.12321 0
M  V30 5246 H 496.922 -2.61184 -2.95256 0
M  V30 5247 H 498.21 -3.00678 -4.10451 0
M  V30 5248 H 497.608 -0.227591 -5.65242 0
M  V30 5249 H 496.165 -0.645802 -6.48593 0
M  V30 5250 N 499.598 0.982988 -1.23187 0
M  V30 5251 C 500.826 1.75921 -1.08901 0
M  V30 5252 C 501.241 1.85341 0.359719 0
M  V30 5253 O 500.598 1.33072 1.24892 0
M  V30 5254 C 500.649 3.18742 -1.70545 0
M  V30 5255 O 500.37 3.09814 -3.09753 0
M  V30 5256 C 501.871 4.1277 -1.61667 0
M  V30 5257 H 499.091 0.552166 -0.381252 0
M  V30 5258 H 501.635 1.23516 -1.62985 0
M  V30 5259 H 499.79 3.68182 -1.20501 0
M  V30 5260 H 500.204 3.99703 -3.39614 0
M  V30 5261 H 501.678 5.10697 -2.09506 0
M  V30 5262 H 502.155 4.3542 -0.575009 0
M  V30 5263 H 502.761 3.69232 -2.11064 0
M  V30 5264 N 501.076 1.04316 1.18135 0
M  V30 5265 C 502.487 0.775505 1.69832 0
M  V30 5266 C 502.838 -0.703348 1.8316 0
M  V30 5267 O 501.963 -1.54729 1.51287 0
M  V30 5268 C 502.558 1.40112 3.0847 0
M  V30 5269 C 501.117 1.18172 3.57368 0
M  V30 5270 C 500.264 1.49022 2.33854 0
M  V30 5271 H 503.215 1.20925 1.02775 0
M  V30 5272 H 503.236 0.805672 3.71873 0
M  V30 5273 H 502.748 2.47744 2.98738 0
M  V30 5274 H 500.849 0.124258 3.72393 0
M  V30 5275 H 500.962 1.8805 4.40652 0
M  V30 5276 H 499.326 0.909995 2.37889 0
M  V30 5277 H 500.109 2.57768 2.26738 0
M  V30 5278 N 502.554 -1.34406 0.822964 0
M  V30 5279 C 503.784 -2.02214 0.423424 0
M  V30 5280 C 504.192 -1.62124 -0.975322 0
M  V30 5281 O 503.535 -0.822452 -1.6426 0
M  V30 5282 C 503.597 -3.56721 0.446107 0
M  V30 5283 C 503.261 -4.20136 1.79819 0
M  V30 5284 C 504.258 -4.4065 2.75904 0
M  V30 5285 C 501.943 -4.56906 2.08669 0
M  V30 5286 C 503.937 -4.9706 3.99012 0
M  V30 5287 C 501.624 -5.13026 3.32036 0
M  V30 5288 C 502.622 -5.33047 4.27024 0
M  V30 5289 O 502.31 -5.87979 5.48211 0
M  V30 5290 H 502.042 -0.654748 0.168169 0
M  V30 5291 H 504.596 -1.72659 1.11257 0
M  V30 5292 H 502.826 -3.85537 -0.299734 0
M  V30 5293 H 504.515 -4.05845 0.0666114 0
M  V30 5294 H 505.281 -4.12607 2.54912 0
M  V30 5295 H 501.16 -4.40626 1.35535 0
M  V30 5296 H 504.704 -5.12603 4.73164 0
M  V30 5297 H 500.601 -5.40498 3.52891 0
M  V30 5298 H 501.369 -6.06413 5.49732 0
M  V30 5299 N 504.032 -0.577932 -1.46621 0
M  V30 5300 C 504.995 0.147805 -2.28723 0
M  V30 5301 C 505.995 0.823325 -1.38123 0
M  V30 5302 O 507.185 0.676011 -1.60548 0
M  V30 5303 C 504.317 1.21853 -3.18378 0
M  V30 5304 H 505.51 -0.573654 -2.94362 0
M  V30 5305 H 503.063 -0.335703 -1.52652 0
M  V30 5306 H 503.798 1.97173 -2.57475 0
M  V30 5307 H 503.583 0.738714 -3.85078 0
M  V30 5308 H 505.073 1.72768 -3.80186 0
M  V30 5309 N 505.51 1.54411 -0.315457 0
M  V30 5310 C 506.926 1.59556 0.037464 0
M  V30 5311 C 507.126 1.33217 1.5118 0
M  V30 5312 O 506.182 1.11264 2.26664 0
M  V30 5313 C 507.495 2.98372 -0.373477 0
M  V30 5314 C 509.043 3.11324 -0.323452 0
M  V30 5315 C 509.518 4.52472 -0.709433 0
M  V30 5316 N 511.009 4.58437 -0.662524 0
M  V30 5317 C 511.744 5.65751 -0.933474 0
M  V30 5318 N 511.24 6.81039 -1.27114 0
M  V30 5319 N 513.033 5.55489 -0.859573 0
M  V30 5320 H 505.184 1.6979 -1.27614 0
M  V30 5321 H 507.447 0.793732 -0.518356 0
M  V30 5322 H 507.153 3.22618 -1.40037 0
M  V30 5323 H 507.027 3.76264 0.265615 0
M  V30 5324 H 509.414 2.86818 0.694223 0
M  V30 5325 H 509.495 2.35555 -0.997367 0
M  V30 5326 H 509.139 4.7771 -1.72498 0
M  V30 5327 H 509.069 5.26598 -0.0132923 0
M  V30 5328 H 511.56 3.75636 -0.413065 0
M  V30 5329 H 511.873 7.58816 -1.46348 0
M  V30 5330 H 510.218 6.82555 -1.30932 0
M  V30 5331 H 513.409 4.64299 -0.595324 0
M  V30 5332 H 513.582 6.39036 -1.0741 0
M  V30 5333 N 506.988 0.0434614 1.5754 0
M  V30 5334 C 508.236 -0.630786 1.92004 0
M  V30 5335 C 508.557 -1.71836 0.921807 0
M  V30 5336 O 507.827 -1.9587 -0.034522 0
M  V30 5337 H 506.407 -0.235988 0.708745 0
M  V30 5338 H 509.069 0.0946462 1.9467 0
M  V30 5339 H 508.165 -1.07434 2.93026 0
M  V30 5340 N 508.466 -1.55915 -0.229846 0
M  V30 5341 C 509.414 -1.9258 -1.30444 0
M  V30 5342 C 510.408 -0.806839 -1.48951 0
M  V30 5343 O 511.614 -0.991606 -1.50224 0
M  V30 5344 H 507.989 -0.611878 -0.437161 0
M  V30 5345 H 509.96 -2.82264 -0.96797 0
M  V30 5346 C 508.709 -2.25171 -2.6494 0
M  V30 5347 H 508.032 -3.10782 -2.51504 0
M  V30 5348 H 509.472 -2.54716 -3.38963 0
M  V30 5349 C 507.931 -1.07394 -3.19324 0
M  V30 5350 O 508.461 -0.330759 -4.00336 0
M  V30 5351 N 506.667 -0.859984 -2.77584 0
M  V30 5352 H 506.214 -1.46605 -2.11813 0
M  V30 5353 H 506.172 -0.0736671 -3.14314 0
M  V30 5354 N 509.944 0.496216 -1.49584 0
M  V30 5355 C 511.192 1.24756 -1.58998 0
M  V30 5356 C 511.513 1.92968 -0.280775 0
M  V30 5357 O 510.783 1.82959 0.700198 0
M  V30 5358 H 509.363 0.463471 -0.585836 0
M  V30 5359 H 512.025 0.574678 -1.86235 0
M  V30 5360 H 511.121 2.00895 -2.38847 0
M  V30 5361 N 511.423 1.38739 0.74761 0
M  V30 5362 C 512.671 1.35007 1.50391 0
M  V30 5363 C 512.992 -0.0574274 1.94915 0
M  V30 5364 O 512.262 -1.00628 1.6808 0
M  V30 5365 H 510.842 0.496784 0.557866 0
M  V30 5366 H 513.504 1.73479 0.888319 0
M  V30 5367 H 512.6 2.00474 2.392 0
M  V30 5368 N 512.901 -0.976442 1.23707 0
M  V30 5369 C 514.129 -1.75341 1.09833 0
M  V30 5370 C 514.544 -1.8553 -0.349885 0
M  V30 5371 O 513.901 -1.33732 -1.24185 0
M  V30 5372 C 513.952 -3.17833 1.72233 0
M  V30 5373 O 513.673 -3.08167 3.11391 0
M  V30 5374 C 515.174 -4.11906 1.63853 0
M  V30 5375 H 512.394 -0.550137 0.384175 0
M  V30 5376 H 514.938 -1.2265 1.63638 0
M  V30 5377 H 513.093 -3.67538 1.22452 0
M  V30 5378 H 513.507 -3.97897 3.41729 0
M  V30 5379 H 514.981 -5.09579 2.12211 0
M  V30 5380 H 515.458 -4.35109 0.598092 0
M  V30 5381 H 516.064 -3.68107 2.13019 0
M  V30 5382 N 514.379 -1.04941 -1.1758 0
M  V30 5383 C 515.795 -0.770282 -1.39781 0
M  V30 5384 C 515.995 0.636417 -1.91186 0
M  V30 5385 O 515.051 1.39923 -2.10185 0
M  V30 5386 C 516.364 -1.82376 -2.3908 0
M  V30 5387 C 517.912 -1.84569 -2.52791 0
M  V30 5388 C 518.387 -2.88933 -3.55361 0
M  V30 5389 N 519.878 -2.8788 -3.62877 0
M  V30 5390 C 520.613 -3.65282 -4.41992 0
M  V30 5391 N 520.109 -4.52461 -5.24643 0
M  V30 5392 N 521.902 -3.53732 -4.36841 0
M  V30 5393 H 514.053 -1.95705 -0.825438 0
M  V30 5394 H 516.316 -0.847284 -0.425222 0
M  V30 5395 H 516.022 -2.83323 -2.08376 0
M  V30 5396 H 515.896 -1.66327 -3.38549 0
M  V30 5397 H 518.283 -0.842879 -2.82807 0
M  V30 5398 H 518.364 -2.04696 -1.53406 0
M  V30 5399 H 518.008 -3.89398 -3.26085 0
M  V30 5400 H 517.938 -2.66059 -4.54445 0
M  V30 5401 H 520.429 -2.24666 -3.03864 0
M  V30 5402 H 520.742 -5.08211 -5.82187 0
M  V30 5403 H 519.087 -4.56524 -5.24033 0
M  V30 5404 H 522.278 -2.85021 -3.71323 0
M  V30 5405 H 522.451 -4.14302 -4.98255 0
M  V30 5406 N 515.857 1.33968 -0.830081 0
M  V30 5407 C 517.103 1.98773 -0.431394 0
M  V30 5408 C 517.458 1.64598 0.99626 0
M  V30 5409 O 516.751 0.911022 1.68555 0
M  V30 5410 C 516.945 3.52679 -0.57898 0
M  V30 5411 C 516.774 4.01807 -2.01943 0
M  V30 5412 C 515.544 4.30062 -2.65282 0
M  V30 5413 C 517.742 4.18663 -2.98707 0
M  V30 5414 N 515.724 4.65272 -4.00493 0
M  V30 5415 C 517.095 4.57133 -4.18843 0
M  V30 5416 C 519.15 4.00929 -2.95229 0
M  V30 5417 C 517.853 4.79723 -5.35965 0
M  V30 5418 C 519.879 4.2469 -4.11573 0
M  V30 5419 C 519.241 4.63454 -5.30462 0
M  V30 5420 H 515.34 0.75435 -0.206107 0
M  V30 5421 H 517.924 1.62247 -1.07629 0
M  V30 5422 H 516.095 3.88383 0.0360632 0
M  V30 5423 H 517.827 4.04412 -0.152596 0
M  V30 5424 H 514.582 4.21231 -2.16475 0
M  V30 5425 H 515.006 4.87101 -4.70172 0
M  V30 5426 H 519.648 3.70082 -2.04448 0
M  V30 5427 H 517.366 5.09434 -6.27297 0
M  V30 5428 H 520.952 4.12497 -4.10289 0
M  V30 5429 H 519.832 4.81476 -6.18992 0
M  V30 5430 N 517.335 0.585699 1.46312 0
M  V30 5431 C 518.298 -0.135673 2.28798 0
M  V30 5432 C 519.298 -0.815988 1.38558 0
M  V30 5433 O 520.488 -0.667487 1.60904 0
M  V30 5434 C 517.62 -1.20163 3.1902 0
M  V30 5435 H 518.813 0.589257 2.94054 0
M  V30 5436 H 516.366 0.343794 1.52472 0
M  V30 5437 H 517.101 -1.95804 2.58517 0
M  V30 5438 H 516.886 -0.718282 3.85465 0
M  V30 5439 H 518.376 -1.70749 3.81096 0
M  V30 5440 N 518.813 -1.54241 0.323641 0
M  V30 5441 C 519.776 -2.22997 -0.529602 0
M  V30 5442 C 520.776 -1.22345 -1.04347 0
M  V30 5443 O 521.966 -1.46924 -0.935889 0
M  V30 5444 C 519.098 -2.93409 -1.73562 0
M  V30 5445 H 520.291 -2.99815 0.0714518 0
M  V30 5446 H 517.844 -1.56121 0.0747258 0
M  V30 5447 H 518.579 -2.20729 -2.37591 0
M  V30 5448 H 518.364 -3.67217 -1.37456 0
M  V30 5449 H 519.854 -3.45794 -2.34128 0
M  V30 5450 N 520.291 -0.0518155 -1.57515 0
M  V30 5451 C 521.707 0.304735 -1.56664 0
M  V30 5452 C 521.907 1.71395 -1.05953 0
M  V30 5453 O 520.963 2.42123 -0.716414 0
M  V30 5454 C 522.276 0.132614 -3.00407 0
M  V30 5455 C 523.824 0.20367 -3.12337 0
M  V30 5456 C 524.299 0.0600706 -4.57961 0
M  V30 5457 N 525.79 0.116326 -4.63054 0
M  V30 5458 C 526.525 0.0293363 -5.73392 0
M  V30 5459 N 526.021 -0.110038 -6.92713 0
M  V30 5460 N 527.814 0.0849651 -5.62036 0
M  V30 5461 H 519.965 -0.973056 -1.888 0
M  V30 5462 H 522.228 -0.377781 -0.869474 0
M  V30 5463 H 521.934 -0.839019 -3.41546 0
M  V30 5464 H 521.808 0.893376 -3.66468 0
M  V30 5465 H 524.195 1.16578 -2.71097 0
M  V30 5466 H 524.276 -0.587857 -2.48954 0
M  V30 5467 H 523.92 -0.898715 -4.99886 0
M  V30 5468 H 523.85 0.87075 -5.19351 0
M  V30 5469 H 526.341 0.22327 -3.7724 0
M  V30 5470 H 526.654 -0.169104 -7.72615 0
M  V30 5471 H 524.999 -0.145132 -6.94848 0
M  V30 5472 H 528.19 0.192411 -4.67704 0
M  V30 5473 H 528.363 0.0137131 -6.47999 0
M  V30 5474 N 521.769 1.56035 0.221574 0
M  V30 5475 C 523.015 1.79312 0.947372 0
M  V30 5476 C 523.348 0.621453 1.83988 0
M  V30 5477 O 522.623 -0.379287 1.90766 0
M  V30 5478 C 522.906 3.1267 1.78633 0
M  V30 5479 C 522.759 4.40284 0.920312 0
M  V30 5480 C 524.078 3.4247 2.7641 0
M  V30 5481 H 521.197 0.652328 0.342982 0
M  V30 5482 H 523.839 1.88765 0.216244 0
M  V30 5483 H 521.989 3.04741 2.40967 0
M  V30 5484 H 523.661 4.60232 0.313718 0
M  V30 5485 H 521.904 4.33212 0.225734 0
M  V30 5486 H 522.575 5.30033 1.54171 0
M  V30 5487 H 525.051 3.50526 2.24211 0
M  V30 5488 H 523.927 4.3695 3.32213 0
M  V30 5489 H 524.188 2.64635 3.54148 0
M  V30 5490 N 523.247 -0.488276 1.49845 0
M  V30 5491 C 524.475 -1.26527 1.63702 0
M  V30 5492 C 524.89 -1.8618 0.313447 0
M  V30 5493 O 524.247 -1.68432 -0.702624 0
M  V30 5494 C 524.298 -2.3864 2.71538 0
M  V30 5495 O 524.019 -1.81437 3.98763 0
M  V30 5496 C 525.52 -3.29805 2.96215 0
M  V30 5497 H 522.74 -0.383295 0.55075 0
M  V30 5498 H 525.284 -0.584779 1.95961 0
M  V30 5499 H 523.439 -3.02496 2.42023 0
M  V30 5500 H 523.853 -2.55135 4.58265 0
M  V30 5501 H 525.327 -4.04722 3.75372 0
M  V30 5502 H 525.804 -3.87563 2.06619 0
M  V30 5503 H 526.41 -2.71703 3.27196 0
M  V30 5504 N 524.725 -1.39134 -0.740242 0
M  V30 5505 C 525.657 -1.33332 -1.86428 0
M  V30 5506 C 526.67 -0.243042 -1.60976 0
M  V30 5507 O 527.859 -0.501608 -1.71307 0
M  V30 5508 C 524.959 -1.04626 -3.22346 0
M  V30 5509 C 524.132 -2.24826 -3.75196 0
M  V30 5510 C 523.191 -1.92659 -4.89662 0
M  V30 5511 O 522.217 -2.6529 -5.03597 0
M  V30 5512 N 523.419 -0.889575 -5.73643 0
M  V30 5513 H 526.184 -2.30196 -1.91911 0
M  V30 5514 H 523.745 -1.33168 -0.920756 0
M  V30 5515 H 525.737 -0.811347 -3.96484 0
M  V30 5516 H 524.307 -0.165129 -3.12164 0
M  V30 5517 H 523.527 -2.64301 -2.9247 0
M  V30 5518 H 524.815 -3.05015 -4.07239 0
M  V30 5519 H 524.213 -0.287529 -5.64969 0
M  V30 5520 H 522.77 -0.714557 -6.47871 0
M  V30 5521 N 526.204 0.969867 -1.24223 0
M  V30 5522 C 527.151 2.06407 -1.0327 0
M  V30 5523 C 528.121 1.66014 0.0533 0
M  V30 5524 O 529.306 1.90533 -0.100896 0
M  V30 5525 C 526.446 3.3909 -0.641262 0
M  V30 5526 C 525.559 3.9269 -1.80051 0
M  V30 5527 C 524.694 5.13631 -1.35486 0
M  V30 5528 C 523.733 5.59423 -2.48419 0
M  V30 5529 N 522.87 6.71586 -2.04737 0
M  V30 5530 H 527.71 2.23663 -1.96923 0
M  V30 5531 H 525.247 1.09624 -0.980862 0
M  V30 5532 H 527.205 4.15323 -0.395351 0
M  V30 5533 H 525.835 3.21765 0.258269 0
M  V30 5534 H 524.887 3.13116 -2.16014 0
M  V30 5535 H 526.199 4.22636 -2.64916 0
M  V30 5536 H 525.353 5.97231 -1.0677 0
M  V30 5537 H 524.092 4.85364 -0.476722 0
M  V30 5538 H 523.097 4.74398 -2.77897 0
M  V30 5539 H 524.322 5.89705 -3.36786 0
M  V30 5540 H 522.268 6.45058 -1.19318 0
M  V30 5541 H 522.185 7.0097 -2.83156 0
M  V30 5542 H 523.453 7.58633 -1.79154 0
M  V30 5543 N 527.682 1.05563 1.17022 0
M  V30 5544 C 528.959 0.68165 1.83338 0
M  V30 5545 C 529.339 -0.837665 1.93769 0
M  V30 5546 O 528.687 -1.74507 1.47511 0
M  V30 5547 C 528.897 1.375 3.20772 0
M  V30 5548 C 530.245 1.51545 3.96635 0
M  V30 5549 O 531.269 1.33431 3.30264 0
M  V30 5550 O 530.128 1.812 5.15586 0
M  V30 5551 H 527.222 0.240412 0.791285 0
M  V30 5552 H 529.768 1.15545 1.24288 0
M  V30 5553 H 528.54 2.41135 3.08171 0
M  V30 5554 H 528.163 0.890798 3.87493 0
M  V30 5555 N 529.16 -1.33526 0.837174 0
M  V30 5556 C 530.123 -2.27551 0.274421 0
M  V30 5557 C 531.123 -1.50886 -0.555881 0
M  V30 5558 O 532.313 -1.70227 -0.369918 0
M  V30 5559 C 529.445 -3.35332 -0.613605 0
M  V30 5560 H 530.638 -2.78837 1.10408 0
M  V30 5561 H 528.191 -1.439 0.610126 0
M  V30 5562 H 528.926 -2.89285 -1.46577 0
M  V30 5563 H 528.711 -3.92095 -0.0195341 0
M  V30 5564 H 530.201 -4.05433 -1.00068 0
M  V30 5565 N 530.638 -0.59345 -1.46 0
M  V30 5566 C 531.878 -0.0859747 -2.04219 0
M  V30 5567 C 532.242 1.25432 -1.45364 0
M  V30 5568 O 533.443 1.85168 -1.9485 0
M  V30 5569 C 531.714 -0.0324314 -3.57385 0
M  V30 5570 S 533.273 0.415908 -4.36824 0
M  V30 5571 H 530.091 -0.0426872 -0.709717 0
M  V30 5572 H 532.693 -0.788369 -1.78899 0
M  V30 5573 H 531.397 -1.01166 -3.97735 0
M  V30 5574 H 530.928 0.6924 -3.87259 0
M  V30 5575 H 532.943 1.66844 -4.67309 0
M  V30 5576 N 532.116 1.54067 -0.331816 0
M  V30 5577 C 533.046 2.27569 0.522932 0
M  V30 5578 C 534.027 1.28679 1.11247 0
M  V30 5579 O 535.212 1.57504 1.13605 0
M  V30 5580 C 532.342 3.0397 1.67987 0
M  V30 5581 C 531.296 4.10267 1.21924 0
M  V30 5582 C 530.622 4.74555 2.46377 0
M  V30 5583 C 531.922 5.21268 0.32815 0
M  V30 5584 H 533.616 2.99264 -0.0901977 0
M  V30 5585 H 531.162 1.4393 -0.044821 0
M  V30 5586 H 533.115 3.54123 2.28418 0
M  V30 5587 H 531.839 2.29906 2.31971 0
M  V30 5588 H 530.498 3.61009 0.637809 0
M  V30 5589 H 530.146 3.97098 3.08743 0
M  V30 5590 H 529.846 5.46363 2.16243 0
M  V30 5591 H 531.37 5.27487 3.07555 0
M  V30 5592 H 532.784 5.67128 0.838978 0
M  V30 5593 H 531.181 5.99982 0.119228 0
M  V30 5594 H 532.251 4.80673 -0.638839 0
M  V30 5595 N 533.594 0.0601682 1.57485 0
M  V30 5596 C 534.871 -0.651956 1.84415 0
M  V30 5597 C 535.251 -1.88498 0.950361 0
M  V30 5598 O 534.599 -2.28496 0.0136719 0
M  V30 5599 C 534.809 -1.00069 3.34346 0
M  V30 5600 C 536.157 -1.37915 4.01578 0
M  V30 5601 O 537.181 -1.09277 3.39024 0
M  V30 5602 O 536.04 -1.91399 5.11887 0
M  V30 5603 H 533.134 -0.322668 0.761455 0
M  V30 5604 H 535.68 0.0902159 1.6946 0
M  V30 5605 H 534.452 -0.124463 3.91102 0
M  V30 5606 H 534.075 -1.80001 3.54521 0
M  V30 5607 N 535.072 -1.5615 -0.213296 0
M  V30 5608 C 536.019 -1.93086 -1.26437 0
M  V30 5609 C 536.989 -0.789086 -1.4616 0
M  V30 5610 O 538.174 -1.04569 -1.59593 0
M  V30 5611 C 535.314 -2.26003 -2.608 0
M  V30 5612 C 534.427 -3.53156 -2.48807 0
M  V30 5613 C 533.562 -3.7548 -3.7575 0
M  V30 5614 C 532.601 -4.96119 -3.58514 0
M  V30 5615 N 531.738 -5.14791 -4.77425 0
M  V30 5616 H 536.578 -2.82707 -0.942376 0
M  V30 5617 H 534.115 -1.39919 -0.454001 0
M  V30 5618 H 536.073 -2.431 -3.39055 0
M  V30 5619 H 534.703 -1.39546 -2.91079 0
M  V30 5620 H 533.755 -3.44207 -1.61944 0
M  V30 5621 H 535.067 -4.41565 -2.31996 0
M  V30 5622 H 534.221 -3.92718 -4.62447 0
M  V30 5623 H 532.96 -2.85368 -3.95495 0
M  V30 5624 H 531.965 -4.78823 -2.70201 0
M  V30 5625 H 533.19 -5.87724 -3.40231 0
M  V30 5626 H 531.136 -4.27623 -4.97468 0
M  V30 5627 H 531.053 -5.97347 -4.63371 0
M  V30 5628 H 532.321 -5.36471 -5.65525 0
M  V30 5629 N 536.55 0.480323 -1.50102 0
M  V30 5630 C 537.513 1.56181 -1.6775 0
M  V30 5631 C 538.513 1.51156 -0.548503 0
M  V30 5632 O 539.703 1.5394 -0.815363 0
M  V30 5633 C 536.835 2.95823 -1.69415 0
M  V30 5634 H 538.028 1.41855 -2.6423 0
M  V30 5635 H 535.581 0.70605 -1.39444 0
M  V30 5636 H 536.316 3.15604 -0.745948 0
M  V30 5637 H 536.101 3.00878 -2.51425 0
M  V30 5638 H 537.591 3.74359 -1.85054 0
M  V30 5639 N 538.028 1.39524 0.732853 0
M  V30 5640 C 538.975 1.38416 1.84688 0
M  V30 5641 C 539.945 0.243539 1.64305 0
M  V30 5642 O 541.13 0.438979 1.85681 0
M  V30 5643 C 538.27 1.23555 3.22224 0
M  V30 5644 C 537.383 2.47179 3.54298 0
M  V30 5645 C 536.518 2.2489 4.81246 0
M  V30 5646 C 535.557 3.44178 5.0617 0
M  V30 5647 N 534.694 3.21192 6.24323 0
M  V30 5648 H 539.534 2.33645 1.84971 0
M  V30 5649 H 537.071 1.16059 0.903804 0
M  V30 5650 H 539.029 1.12949 4.0162 0
M  V30 5651 H 537.659 0.31954 3.21215 0
M  V30 5652 H 536.711 2.68379 2.69587 0
M  V30 5653 H 538.023 3.36022 3.68633 0
M  V30 5654 H 537.177 2.11538 5.68627 0
M  V30 5655 H 535.916 1.33443 4.69089 0
M  V30 5656 H 534.921 3.58025 4.17251 0
M  V30 5657 H 536.146 4.36528 5.20212 0
M  V30 5658 H 534.092 2.32413 6.1345 0
M  V30 5659 H 534.009 4.03594 6.39256 0
M  V30 5660 H 535.277 3.1154 7.14537 0
M  V30 5661 N 539.506 -0.963266 1.24736 0
M  V30 5662 C 540.436 -2.07628 1.06832 0
M  V30 5663 C 541.417 -1.70088 -0.0200566 0
M  V30 5664 O 542.602 -1.93636 0.147854 0
M  V30 5665 C 539.732 -3.40636 0.677069 0
M  V30 5666 C 538.686 -3.9215 1.71471 0
M  V30 5667 C 538.012 -5.21553 1.1784 0
M  V30 5668 C 539.312 -4.19493 3.11164 0
M  V30 5669 H 541.006 -2.22864 1.9993 0
M  V30 5670 H 538.552 -1.07093 0.96266 0
M  V30 5671 H 540.505 -4.17941 0.538792 0
M  V30 5672 H 539.229 -3.25313 -0.289612 0
M  V30 5673 H 537.888 -3.17005 1.84128 0
M  V30 5674 H 537.536 -5.02593 0.202195 0
M  V30 5675 H 537.236 -5.56988 1.87185 0
M  V30 5676 H 538.76 -6.01463 1.05233 0
M  V30 5677 H 540.174 -4.87487 3.01711 0
M  V30 5678 H 538.571 -4.66165 3.77902 0
M  V30 5679 H 539.641 -3.26097 3.58871 0
M  V30 5680 N 540.985 -1.06182 -1.16461 0
M  V30 5681 C 541.895 -0.682671 -2.24448 0
M  V30 5682 C 542.911 0.30078 -1.71381 0
M  V30 5683 O 544.087 0.150376 -2.00838 0
M  V30 5684 C 541.152 -0.0737202 -3.46622 0
M  V30 5685 C 540.213 -1.10889 -4.14731 0
M  V30 5686 C 539.446 -0.528908 -5.31073 0
M  V30 5687 O 539.669 0.65868 -5.66584 0
M  V30 5688 O 538.603 -1.26805 -5.88391 0
M  V30 5689 H 542.429 -1.58291 -2.59187 0
M  V30 5690 H 540.014 -0.834013 -1.23954 0
M  V30 5691 H 541.896 0.264192 -4.20571 0
M  V30 5692 H 540.571 0.800015 -3.13658 0
M  V30 5693 H 539.478 -1.49896 -3.42756 0
M  V30 5694 H 540.811 -1.95412 -4.51747 0
M  V30 5695 N 542.463 1.3308 -0.844243 0
M  V30 5696 C 543.693 2.01515 -0.455541 0
M  V30 5697 C 544.101 1.63655 0.949406 0
M  V30 5698 O 543.444 0.84848 1.62931 0
M  V30 5699 C 543.506 3.55967 -0.502801 0
M  V30 5700 C 543.17 4.17222 -1.86481 0
M  V30 5701 C 544.167 4.36205 -2.8288 0
M  V30 5702 C 541.852 4.53528 -2.15911 0
M  V30 5703 C 543.846 4.90649 -4.06869 0
M  V30 5704 C 541.533 5.07679 -3.40155 0
M  V30 5705 C 542.531 5.26186 -4.35451 0
M  V30 5706 O 542.219 5.79183 -5.57496 0
M  V30 5707 H 541.951 0.65199 -0.178565 0
M  V30 5708 H 544.505 1.70867 -1.1399 0
M  V30 5709 H 542.735 3.85965 0.23836 0
M  V30 5710 H 544.424 4.05688 -0.131169 0
M  V30 5711 H 545.19 4.085 -2.61444 0
M  V30 5712 H 541.069 4.38414 -1.42528 0
M  V30 5713 H 544.613 5.0501 -4.81259 0
M  V30 5714 H 540.51 5.34815 -3.61446 0
M  V30 5715 H 541.278 5.97591 -5.5931 0
M  V30 5716 N 543.941 0.601185 1.45683 0
M  V30 5717 C 545.189 0.0936957 2.01883 0
M  V30 5718 C 545.51 -1.2779 1.47291 0
M  V30 5719 O 544.78 -1.84279 0.664691 0
M  V30 5720 H 543.36 0.0316466 0.746329 0
M  V30 5721 H 546.022 0.781137 1.78562 0
M  V30 5722 H 545.118 0.0386297 3.12076 0
M  V30 5723 N 545.419 -1.53889 0.339982 0
M  V30 5724 C 546.668 -2.00035 -0.258604 0
M  V30 5725 C 546.981 -1.23179 -1.51942 0
M  V30 5726 O 548.187 -1.59784 -2.19503 0
M  V30 5727 C 546.643 -3.56249 -0.511359 0
M  V30 5728 C 546.251 -4.41957 0.733349 0
M  V30 5729 C 547.995 -4.1082 -1.069 0
M  V30 5730 C 545.902 -5.89673 0.451591 0
M  V30 5731 H 544.832 -0.747284 -0.10041 0
M  V30 5732 H 547.483 -1.77776 0.454758 0
M  V30 5733 H 545.865 -3.7456 -1.28533 0
M  V30 5734 H 547.039 -4.35421 1.50815 0
M  V30 5735 H 545.354 -3.9836 1.21237 0
M  V30 5736 H 547.951 -5.18789 -1.2947 0
M  V30 5737 H 548.294 -3.63817 -2.02343 0
M  V30 5738 H 548.827 -3.96205 -0.355817 0
M  V30 5739 H 545.566 -6.40903 1.37565 0
M  V30 5740 H 545.086 -5.99122 -0.285193 0
M  V30 5741 H 546.765 -6.46965 0.0675067 0
M  V30 5742 N 546.897 -0.0685191 -1.57451 0
M  V30 5743 C 547.807 0.914677 -2.16034 0
M  V30 5744 C 548.823 1.32938 -1.12265 0
M  V30 5745 O 549.999 1.40275 -1.44516 0
M  V30 5746 C 547.064 2.16519 -2.70777 0
M  V30 5747 C 546.125 1.80721 -3.89408 0
M  V30 5748 C 545.358 2.9981 -4.41531 0
M  V30 5749 O 545.581 4.13727 -3.92666 0
M  V30 5750 O 544.515 2.79817 -5.32903 0
M  V30 5751 H 548.341 0.446364 -3.00402 0
M  V30 5752 H 545.926 0.154367 -1.486 0
M  V30 5753 H 547.808 2.89856 -3.05878 0
M  V30 5754 H 546.483 2.62454 -1.89471 0
M  V30 5755 H 545.39 1.04646 -3.59166 0
M  V30 5756 H 546.723 1.39571 -4.71997 0
M  V30 5757 N 548.375 1.56261 0.205012 0
M  V30 5758 C 549.786 1.70056 0.770574 0
M  V30 5759 C 550.137 0.673398 1.84282 0
M  V30 5760 O 549.262 -0.172196 2.15714 0
M  V30 5761 C 549.857 3.08316 1.40451 0
M  V30 5762 C 548.416 3.2391 1.91727 0
M  V30 5763 C 547.563 2.66001 0.783516 0
M  V30 5764 H 550.514 1.58688 -0.019911 0
M  V30 5765 H 550.535 3.05094 2.27371 0
M  V30 5766 H 550.047 3.83053 0.623882 0
M  V30 5767 H 548.148 2.54072 2.7254 0
M  V30 5768 H 548.261 4.3131 2.08588 0
M  V30 5769 H 546.625 2.24915 1.19521 0
M  V30 5770 H 547.408 3.43297 0.0152883 0
M  V30 5771 N 549.853 -0.472356 1.50355 0
M  V30 5772 C 551.101 -1.22211 1.60962 0
M  V30 5773 C 551.422 -1.92497 0.311439 0
M  V30 5774 O 550.692 -1.8405 -0.671002 0
M  V30 5775 H 549.272 -0.454092 0.593135 0
M  V30 5776 H 551.934 -0.544977 1.87126 0
M  V30 5777 H 551.03 -1.9707 2.42012 0
M  V30 5778 N 551.331 -1.39911 -0.725443 0
M  V30 5779 C 552.556 -1.41137 -1.5197 0
M  V30 5780 C 552.981 -0.010262 -1.88097 0
M  V30 5781 O 552.339 0.979184 -1.52583 0
M  V30 5782 C 552.387 -2.2994 -2.77777 0
M  V30 5783 O 551.491 -1.73586 -3.74088 0
M  V30 5784 H 550.832 -0.480219 -0.458569 0
M  V30 5785 H 553.362 -1.84023 -0.894249 0
M  V30 5786 H 553.372 -2.44785 -3.26411 0
M  V30 5787 H 552.047 -3.31759 -2.50816 0
M  V30 5788 H 550.624 -1.68035 -3.32894 0
M  V30 5789 N 552.809 0.956637 -1.25245 0
M  V30 5790 C 554.056 1.701 -1.09874 0
M  V30 5791 C 554.384 1.91128 0.36062 0
M  V30 5792 O 553.639 1.47837 1.28229 0
M  V30 5793 C 553.938 3.08996 -1.79601 0
M  V30 5794 C 553.604 3.07774 -3.29523 0
M  V30 5795 C 552.266 3.07149 -3.70423 0
M  V30 5796 C 554.618 3.01257 -4.25316 0
M  V30 5797 C 551.946 2.97752 -5.0553 0
M  V30 5798 C 554.298 2.93403 -5.60444 0
M  V30 5799 C 552.962 2.91111 -6.00675 0
M  V30 5800 H 552.232 0.62244 -0.402056 0
M  V30 5801 H 554.879 1.1178 -1.55491 0
M  V30 5802 H 553.184 3.70848 -1.26408 0
M  V30 5803 H 554.881 3.65407 -1.65162 0
M  V30 5804 H 551.471 3.09032 -2.9698 0
M  V30 5805 H 555.655 3.00861 -3.9471 0
M  V30 5806 H 550.911 2.94346 -5.35883 0
M  V30 5807 H 555.085 2.87321 -6.34366 0
M  V30 5808 H 552.712 2.83586 -7.05325 0
M  V30 5809 N 554.287 1.06798 1.15896 0
M  V30 5810 C 555.535 0.786211 1.8618 0
M  V30 5811 C 555.856 -0.689547 1.82401 0
M  V30 5812 O 555.126 -1.49913 1.26107 0
M  V30 5813 H 553.706 0.287843 0.689315 0
M  V30 5814 H 556.368 1.35055 1.40521 0
M  V30 5815 H 555.464 1.1157 2.91477 0
M  V30 5816 N 555.766 -1.3263 0.851289 0
M  V30 5817 C 556.994 -2.01563 0.466899 0
M  V30 5818 C 557.409 -1.63996 -0.935447 0
M  V30 5819 O 556.766 -0.85957 -1.6099 0
M  V30 5820 C 556.817 -3.56613 0.592433 0
M  V30 5821 O 556.538 -3.92828 1.93954 0
M  V30 5822 C 558.039 -4.42818 0.206612 0
M  V30 5823 H 555.259 -0.645307 0.183902 0
M  V30 5824 H 557.803 -1.69285 1.1473 0
M  V30 5825 H 555.958 -3.87379 -0.0401936 0
M  V30 5826 H 556.372 -4.87545 1.9339 0
M  V30 5827 H 557.846 -5.50918 0.345462 0
M  V30 5828 H 558.323 -4.30844 -0.85264 0
M  V30 5829 H 558.929 -4.17434 0.814176 0
M  V30 5830 N 557.244 -0.608902 -1.45362 0
M  V30 5831 C 558.49 -0.104762 -2.02529 0
M  V30 5832 C 558.823 1.26191 -1.47613 0
M  V30 5833 O 558.098 1.8327 -0.65134 0
M  V30 5834 C 558.381 -0.0672661 -3.60037 0
M  V30 5835 C 558.234 -1.4647 -4.25284 0
M  V30 5836 C 559.553 0.619877 -4.35713 0
M  V30 5837 H 556.672 -0.0395438 -0.735938 0
M  V30 5838 H 559.314 -0.781126 -1.73201 0
M  V30 5839 H 557.464 0.50871 -3.85155 0
M  V30 5840 H 559.136 -2.08785 -4.11347 0
M  V30 5841 H 557.379 -2.02502 -3.83634 0
M  V30 5842 H 558.05 -1.39069 -5.34195 0
M  V30 5843 H 560.526 0.130297 -4.15896 0
M  V30 5844 H 559.402 0.615224 -5.45441 0
M  V30 5845 H 559.663 1.68621 -4.0868 0
M  V30 5846 N 558.722 1.53707 -0.348139 0
M  V30 5847 C 559.669 2.25173 0.506518 0
M  V30 5848 C 560.639 1.25174 1.09182 0
M  V30 5849 O 561.824 1.53917 1.12757 0
M  V30 5850 C 558.964 3.03141 1.64923 0
M  V30 5851 C 558.077 4.18002 1.0908 0
M  V30 5852 C 557.212 4.83447 2.20119 0
M  V30 5853 C 556.251 5.90369 1.61651 0
M  V30 5854 N 555.388 6.49575 2.66451 0
M  V30 5855 H 560.228 2.97799 -0.109452 0
M  V30 5856 H 557.765 1.46953 -0.0657866 0
M  V30 5857 H 559.723 3.46607 2.32205 0
M  V30 5858 H 558.353 2.32803 2.23612 0
M  V30 5859 H 557.405 3.79145 0.308783 0
M  V30 5860 H 558.717 4.94892 0.623178 0
M  V30 5861 H 557.871 5.30008 2.95257 0
M  V30 5862 H 556.61 4.05991 2.70227 0
M  V30 5863 H 555.615 5.43186 0.850209 0
M  V30 5864 H 556.84 6.69735 1.1239 0
M  V30 5865 H 554.786 5.74981 3.15805 0
M  V30 5866 H 554.703 7.21952 2.24325 0
M  V30 5867 H 555.971 7.00789 3.41344 0
M  V30 5868 N 560.2 0.0768682 1.57412 0
M  V30 5869 C 561.446 -0.591961 1.93968 0
M  V30 5870 C 561.779 -1.68954 0.9575 0
M  V30 5871 O 561.054 -1.94496 -0.0124675 0
M  V30 5872 C 561.337 -1.16418 3.40762 0
M  V30 5873 C 561.19 -0.0728933 4.49741 0
M  V30 5874 C 562.509 -2.06814 3.88479 0
M  V30 5875 H 559.628 -0.213716 0.705333 0
M  V30 5876 H 562.27 0.14387 1.89455 0
M  V30 5877 H 560.42 -1.79128 3.4474 0
M  V30 5878 H 562.092 0.560446 4.57883 0
M  V30 5879 H 560.335 0.595859 4.29688 0
M  V30 5880 H 561.006 -0.513755 5.49604 0
M  V30 5881 H 563.482 -1.54033 3.8654 0
M  V30 5882 H 562.358 -2.43785 4.91793 0
M  V30 5883 H 562.619 -2.97844 3.26713 0
M  V30 5884 N 561.678 -1.56367 -0.196722 0
M  V30 5885 C 562.925 -1.80529 -0.917366 0
M  V30 5886 C 563.253 -0.649817 -1.83324 0
M  V30 5887 O 562.508 0.36451 -1.92275 0
M  V30 5888 C 562.807 -3.10663 -1.767 0
M  V30 5889 C 562.473 -4.3962 -1.00225 0
M  V30 5890 C 561.135 -4.74653 -0.791095 0
M  V30 5891 C 563.487 -5.1913 -0.464035 0
M  V30 5892 C 560.815 -5.86692 -0.0302155 0
M  V30 5893 C 563.167 -6.31964 0.283625 0
M  V30 5894 C 561.831 -6.65581 0.505813 0
M  V30 5895 H 561.101 -0.660602 -0.335688 0
M  V30 5896 H 563.748 -1.90615 -0.183844 0
M  V30 5897 H 562.053 -2.95807 -2.56915 0
M  V30 5898 H 563.75 -3.26563 -2.32718 0
M  V30 5899 H 560.34 -4.12127 -1.17684 0
M  V30 5900 H 564.524 -4.9248 -0.614575 0
M  V30 5901 H 559.78 -6.11211 0.151917 0
M  V30 5902 H 563.954 -6.92791 0.708057 0
M  V30 5903 H 561.581 -7.52239 1.0973 0
M  V30 5904 N 563.156 0.464375 -1.50603 0
M  V30 5905 C 564.433 1.22549 -1.5245 0
M  V30 5906 C 564.813 2.09327 -0.273035 0
M  V30 5907 O 564.161 2.16074 0.743242 0
M  V30 5908 C 564.371 2.05074 -2.82393 0
M  V30 5909 C 565.719 2.63036 -3.33313 0
M  V30 5910 O 566.743 2.1531 -2.8376 0
M  V30 5911 O 565.602 3.5001 -4.19709 0
M  V30 5912 H 562.696 0.556471 -0.611775 0
M  V30 5913 H 565.242 0.475648 -1.62898 0
M  V30 5914 H 564.014 1.41169 -3.64948 0
M  V30 5915 H 563.637 2.87179 -2.7498 0
M  V30 5916 N 564.634 1.40294 0.718013 0
M  V30 5917 C 565.88 1.38645 1.48005 0
M  V30 5918 C 566.213 -0.0121202 1.94196 0
M  V30 5919 O 565.488 -0.980309 1.67989 0
M  V30 5920 C 565.771 2.37379 2.70782 0
M  V30 5921 C 565.624 3.8625 2.30501 0
M  V30 5922 C 566.943 2.33685 3.72933 0
M  V30 5923 H 564.062 0.504928 0.536858 0
M  V30 5924 H 566.704 1.71411 0.819649 0
M  V30 5925 H 564.854 2.09568 3.27129 0
M  V30 5926 H 566.526 4.24879 1.79655 0
M  V30 5927 H 564.769 4.02202 1.6253 0
M  V30 5928 H 565.44 4.50847 3.18498 0
M  V30 5929 H 567.916 2.58314 3.2621 0
M  V30 5930 H 566.792 3.0482 4.56482 0
M  V30 5931 H 567.053 1.34765 4.21059 0
M  V30 5932 N 566.112 -0.949982 1.2575 0
M  V30 5933 C 567.34 -1.72972 1.13527 0
M  V30 5934 C 567.755 -1.8623 -0.310453 0
M  V30 5935 O 567.112 -1.36336 -1.2132 0
M  V30 5936 C 567.163 -3.14108 1.78936 0
M  V30 5937 O 566.884 -3.01493 3.17858 0
M  V30 5938 C 568.385 -4.08338 1.72554 0
M  V30 5939 H 565.605 -0.541864 0.395758 0
M  V30 5940 H 568.149 -1.19151 1.66202 0
M  V30 5941 H 566.304 -3.64858 1.30221 0
M  V30 5942 H 566.718 -3.90559 3.50092 0
M  V30 5943 H 568.192 -5.04963 2.22973 0
M  V30 5944 H 568.669 -4.33742 0.690251 0
M  V30 5945 H 569.275 -3.63506 2.2078 0
M  V30 5946 N 567.59 -1.07411 -1.15328 0
M  V30 5947 C 568.553 -0.698914 -2.18284 0
M  V30 5948 C 569.553 0.261149 -1.58665 0
M  V30 5949 O 570.743 0.0420277 -1.74149 0
M  V30 5950 C 567.875 -0.0302427 -3.40887 0
M  V30 5951 H 569.068 -1.61045 -2.52991 0
M  V30 5952 H 566.621 -0.870724 -1.298 0
M  V30 5953 H 567.356 0.893505 -3.11748 0
M  V30 5954 H 567.141 -0.720759 -3.85419 0
M  V30 5955 H 568.631 0.21759 -4.17033 0
M  V30 5956 N 569.068 1.32177 -0.85831 0
M  V30 5957 C 570.484 1.49873 -0.548656 0
M  V30 5958 C 570.684 1.79278 0.919874 0
M  V30 5959 O 569.74 1.86451 1.70271 0
M  V30 5960 C 571.053 2.64043 -1.4388 0
M  V30 5961 C 572.601 2.77928 -1.43961 0
M  V30 5962 C 573.076 3.95182 -2.31506 0
M  V30 5963 N 574.567 4.0245 -2.29321 0
M  V30 5964 C 575.302 4.9242 -2.93786 0
M  V30 5965 N 574.798 5.87373 -3.67376 0
M  V30 5966 N 576.591 4.85572 -2.83155 0
M  V30 5967 H 568.742 1.11357 -1.80868 0
M  V30 5968 H 571.005 0.549175 -0.772729 0
M  V30 5969 H 570.711 2.49055 -2.48324 0
M  V30 5970 H 570.585 3.59912 -1.12885 0
M  V30 5971 H 572.972 2.92338 -0.402813 0
M  V30 5972 H 573.053 1.82762 -1.78974 0
M  V30 5973 H 572.697 3.81531 -3.35256 0
M  V30 5974 H 572.627 4.89633 -1.93823 0
M  V30 5975 H 575.118 3.34507 -1.75822 0
M  V30 5976 H 575.431 6.52728 -4.13722 0
M  V30 5977 H 573.776 5.87388 -3.71484 0
M  V30 5978 H 576.967 4.10363 -2.25211 0
M  V30 5979 H 577.14 5.55486 -3.33676 0
M  V30 5980 N 570.547 0.616602 1.45037 0
M  V30 5981 C 571.794 0.115331 2.02171 0
M  V30 5982 C 572.122 -1.25748 1.48383 0
M  V30 5983 O 571.377 -1.84511 0.652229 0
M  V30 5984 C 571.676 0.0356829 3.57382 0
M  V30 5985 C 571.342 1.34535 4.30362 0
M  V30 5986 C 570.004 1.70408 4.50016 0
M  V30 5987 C 572.356 2.21049 4.72003 0
M  V30 5988 C 569.684 2.92529 5.0857 0
M  V30 5989 C 572.036 3.42427 5.31908 0
M  V30 5990 C 570.7 3.78541 5.49784 0
M  V30 5991 H 569.97 0.0422024 0.739797 0
M  V30 5992 H 572.617 0.80002 1.73988 0
M  V30 5993 H 570.922 -0.732314 3.84895 0
M  V30 5994 H 572.619 -0.368463 3.99304 0
M  V30 5995 H 569.209 1.05615 4.15383 0
M  V30 5996 H 573.393 1.94632 4.56544 0
M  V30 5997 H 568.649 3.20605 5.20598 0
M  V30 5998 H 572.823 4.09709 5.63127 0
M  V30 5999 H 570.45 4.73255 5.94923 0
M  V30 6000 N 572.025 -1.5352 0.356285 0
M  V30 6001 C 573.273 -2.00719 -0.235837 0
M  V30 6002 C 573.594 -1.24551 -1.5004 0
M  V30 6003 O 572.864 -0.356185 -1.92635 0
M  V30 6004 H 571.444 -0.741542 -0.0901366 0
M  V30 6005 H 574.106 -1.88887 0.480378 0
M  V30 6006 H 573.202 -3.08551 -0.469357 0
M  V30 6007 N 573.503 -0.0852151 -1.57369 0
M  V30 6008 C 574.733 0.588605 -1.98038 0
M  V30 6009 C 575.141 1.62869 -0.962817 0
M  V30 6010 O 574.484 1.83611 0.057134 0
M  V30 6011 C 574.546 1.30303 -3.35054 0
M  V30 6012 C 574.21 0.414855 -4.55113 0
M  V30 6013 C 575.207 -0.333011 -5.18832 0
M  V30 6014 C 572.892 0.335804 -5.01176 0
M  V30 6015 C 574.886 -1.14801 -6.26976 0
M  V30 6016 C 572.573 -0.482857 -6.09189 0
M  V30 6017 C 573.571 -1.22342 -6.71953 0
M  V30 6018 O 573.259 -2.02855 -7.77885 0
M  V30 6019 H 572.991 0.163249 -0.655992 0
M  V30 6020 H 575.545 -0.1582 -2.0479 0
M  V30 6021 H 573.775 2.0962 -3.24956 0
M  V30 6022 H 575.464 1.87041 -3.60237 0
M  V30 6023 H 576.23 -0.281611 -4.84182 0
M  V30 6024 H 572.109 0.901869 -4.52092 0
M  V30 6025 H 575.653 -1.72654 -6.75897 0
M  V30 6026 H 571.55 -0.535773 -6.43273 0
M  V30 6027 H 572.318 -1.95432 -7.94826 0
M  V30 6028 N 574.981 1.5647 0.188427 0
M  V30 6029 C 575.929 1.95971 1.25293 0
M  V30 6030 C 576.923 0.846047 1.4676 0
M  V30 6031 O 578.129 1.03109 1.47542 0
M  V30 6032 H 574.504 0.623253 0.420784 0
M  V30 6033 H 576.475 2.84731 0.892792 0
M  V30 6034 C 575.224 2.32116 2.58877 0
M  V30 6035 H 574.547 3.17341 2.43176 0
M  V30 6036 H 575.987 2.63613 3.3209 0
M  V30 6037 C 574.446 1.15823 3.16365 0
M  V30 6038 O 574.976 0.436785 3.99318 0
M  V30 6039 N 573.182 0.933278 2.75206 0
M  V30 6040 H 572.729 1.52169 2.07852 0
M  V30 6041 H 572.687 0.156976 3.14008 0
M  V30 6042 N 576.459 -0.456382 1.50847 0
M  V30 6043 C 577.422 -1.53493 1.70213 0
M  V30 6044 C 578.422 -1.50264 0.572481 0
M  V30 6045 O 579.612 -1.52623 0.839751 0
M  V30 6046 C 576.744 -2.93091 1.741 0
M  V30 6047 H 577.937 -1.37633 2.66453 0
M  V30 6048 H 575.49 -0.683776 1.4055 0
M  V30 6049 H 576.225 -3.14378 0.796063 0
M  V30 6050 H 576.01 -2.9684 2.5618 0
M  V30 6051 H 577.5 -3.71368 1.90987 0
M  V30 6052 N 577.937 -1.40673 -0.710563 0
M  V30 6053 C 579.214 -1.29718 -1.46398 0
M  V30 6054 C 579.594 0.082177 -2.1094 0
M  V30 6055 O 578.942 1.09536 -2.00534 0
M  V30 6056 C 579.152 -2.43967 -2.49562 0
M  V30 6057 C 580.5 -2.84436 -3.15248 0
M  V30 6058 O 581.524 -2.43597 -2.59883 0
M  V30 6059 O 580.383 -3.55008 -4.1549 0
M  V30 6060 H 577.477 -0.509697 -0.651258 0
M  V30 6061 H 580.023 -1.52603 -0.742312 0
M  V30 6062 H 578.795 -3.36076 -2.0042 0
M  V30 6063 H 578.418 -2.22879 -3.29258 0
M  V30 6064 N 579.415 0.9433 -1.26252 0
M  V30 6065 C 580.345 2.05902 -1.10122 0
M  V30 6066 C 581.326 1.70099 -0.00700552 0
M  V30 6067 O 582.511 1.93377 -0.178641 0
M  V30 6068 C 579.641 3.39516 -0.731175 0
M  V30 6069 C 578.595 3.89372 -1.77688 0
M  V30 6070 C 577.921 5.19613 -1.26122 0
M  V30 6071 C 579.221 4.14489 -3.17799 0
M  V30 6072 H 580.915 2.19655 -2.03451 0
M  V30 6073 H 578.461 1.05548 -0.979576 0
M  V30 6074 H 580.414 4.17031 -0.605215 0
M  V30 6075 H 579.138 3.25733 0.23782 0
M  V30 6076 H 577.797 3.14036 -1.89148 0
M  V30 6077 H 577.445 5.02208 -0.282128 0
M  V30 6078 H 577.145 5.53939 -1.96023 0
M  V30 6079 H 578.669 5.99713 -1.14789 0
M  V30 6080 H 580.083 4.82625 -3.09428 0
M  V30 6081 H 578.48 4.60094 -3.85271 0
M  V30 6082 H 579.55 3.20347 -3.64014 0
M  V30 6083 N 580.893 1.08022 1.14757 0
M  V30 6084 C 581.84 0.706657 2.19716 0
M  V30 6085 C 582.81 -0.30525 1.63271 0
M  V30 6086 O 583.995 -0.19015 1.8985 0
M  V30 6087 C 581.135 0.117914 3.44898 0
M  V30 6088 C 580.248 1.18212 4.15512 0
M  V30 6089 C 579.383 0.557659 5.28265 0
M  V30 6090 C 578.422 1.60418 5.90705 0
M  V30 6091 N 577.559 1.0018 6.94916 0
M  V30 6092 H 582.399 1.60603 2.51019 0
M  V30 6093 H 579.936 0.802664 1.23271 0
M  V30 6094 H 581.894 -0.241112 4.16503 0
M  V30 6095 H 580.524 -0.744788 3.1409 0
M  V30 6096 H 579.576 1.65863 3.42335 0
M  V30 6097 H 580.888 1.97533 4.5802 0
M  V30 6098 H 580.042 0.146654 6.06523 0
M  V30 6099 H 578.781 -0.267249 4.86967 0
M  V30 6100 H 577.786 2.02489 5.11154 0
M  V30 6101 H 579.011 2.43149 6.34078 0
M  V30 6102 H 576.957 0.197917 6.55701 0
M  V30 6103 H 576.874 1.73216 7.35889 0
M  V30 6104 H 578.142 0.616523 7.77058 0
M  V30 6105 N 582.371 -1.3172 0.865308 0
M  V30 6106 C 583.303 -2.27545 0.274906 0
M  V30 6107 C 584.316 -1.52887 -0.559413 0
M  V30 6108 O 585.505 -1.74361 -0.382166 0
M  V30 6109 C 582.605 -3.33006 -0.629286 0
M  V30 6110 C 581.778 -4.37063 0.171553 0
M  V30 6111 C 580.837 -5.22044 -0.660052 0
M  V30 6112 O 579.863 -5.69129 -0.0897527 0
M  V30 6113 N 581.065 -5.45946 -1.97289 0
M  V30 6114 H 583.83 -2.78848 1.09836 0
M  V30 6115 H 581.391 -1.44693 0.726331 0
M  V30 6116 H 583.383 -3.86772 -1.19121 0
M  V30 6117 H 581.953 -2.81782 -1.35342 0
M  V30 6118 H 581.173 -3.83436 0.914919 0
M  V30 6119 H 582.461 -5.03662 0.721235 0
M  V30 6120 H 581.859 -5.0944 -2.45942 0
M  V30 6121 H 580.416 -6.02665 -2.4827 0
M  V30 6122 N 583.85 -0.624285 -1.44708 0
M  V30 6123 C 585.127 -0.0572781 -1.95516 0
M  V30 6124 C 585.507 1.41516 -1.56641 0
M  V30 6125 O 584.855 2.12614 -0.837111 0
M  V30 6126 C 585.065 -0.272944 -3.47931 0
M  V30 6127 C 586.413 -0.162529 -4.24289 0
M  V30 6128 O 587.437 -0.203946 -3.55616 0
M  V30 6129 O 586.296 -0.0616847 -5.46465 0
M  V30 6130 H 583.389 0.0262219 -0.826584 0
M  V30 6131 H 585.936 -0.695512 -1.54793 0
M  V30 6132 H 584.707 -1.29492 -3.69253 0
M  V30 6133 H 584.331 0.399756 -3.95585 0
M  V30 6134 N 585.328 1.53329 -0.364422 0
M  V30 6135 C 586.26 2.23286 0.517293 0
M  V30 6136 C 587.273 1.24657 1.04711 0
M  V30 6137 O 588.462 1.50887 0.95369 0
M  V30 6138 C 585.562 2.91604 1.72685 0
M  V30 6139 C 584.735 4.1673 1.32873 0
M  V30 6140 C 583.794 4.68269 2.40022 0
M  V30 6141 O 582.82 5.31976 2.02461 0
M  V30 6142 N 584.022 4.45983 3.7159 0
M  V30 6143 H 586.787 2.99588 -0.0819391 0
M  V30 6144 H 584.348 1.60787 -0.189544 0
M  V30 6145 H 586.34 3.22992 2.4384 0
M  V30 6146 H 584.91 2.18763 2.23297 0
M  V30 6147 H 584.13 3.91657 0.447069 0
M  V30 6148 H 585.418 4.98078 1.03902 0
M  V30 6149 H 584.816 3.95077 4.04883 0
M  V30 6150 H 583.373 4.81924 4.38854 0
M  V30 6151 N 586.806 0.0935595 1.57322 0
M  V30 6152 C 587.736 -0.863062 2.16964 0
M  V30 6153 C 588.717 -1.29528 1.10256 0
M  V30 6154 O 589.902 -1.36245 1.38387 0
M  V30 6155 C 587.032 -2.12276 2.74875 0
M  V30 6156 C 585.986 -1.82921 3.86942 0
M  V30 6157 C 585.312 -3.15707 4.31548 0
M  V30 6158 C 586.612 -1.11737 5.10208 0
M  V30 6159 H 588.306 -0.366145 2.97153 0
M  V30 6160 H 585.852 -0.174673 1.42937 0
M  V30 6161 H 587.805 -2.79634 3.1525 0
M  V30 6162 H 586.529 -2.64248 1.91938 0
M  V30 6163 H 585.188 -1.17961 3.47103 0
M  V30 6164 H 584.836 -3.65563 3.45504 0
M  V30 6165 H 584.536 -2.96849 5.07104 0
M  V30 6166 H 586.06 -3.84226 4.74555 0
M  V30 6167 H 587.474 -1.69203 5.47762 0
M  V30 6168 H 585.871 -1.03064 5.91183 0
M  V30 6169 H 586.941 -0.0998818 4.84797 0
M  V30 6170 N 588.284 -1.56567 -0.180126 0
M  V30 6171 C 589.561 -1.7235 -0.924931 0
M  V30 6172 C 589.941 -0.652523 -2.00762 0
M  V30 6173 O 589.289 0.334115 -2.26044 0
M  V30 6174 C 589.499 -3.1523 -1.49771 0
M  V30 6175 C 590.847 -3.75921 -1.97405 0
M  V30 6176 O 591.871 -3.18452 -1.59583 0
M  V30 6177 O 590.73 -4.7681 -2.67048 0
M  V30 6178 H 587.824 -0.703502 -0.434758 0
M  V30 6179 H 590.37 -1.6886 -0.168647 0
M  V30 6180 H 589.142 -3.84656 -0.718027 0
M  V30 6181 H 588.765 -3.23009 -2.31842 0
M  V30 6182 N 589.762 0.448376 -1.51087 0
M  V30 6183 C 590.992 1.21965 -1.66757 0
M  V30 6184 C 591.4 1.85748 -0.359753 0
M  V30 6185 O 590.743 1.71022 0.670604 0
M  V30 6186 C 590.805 2.35284 -2.71812 0
M  V30 6187 C 590.469 1.91957 -4.1473 0
M  V30 6188 C 591.466 1.42921 -4.9987 0
M  V30 6189 C 589.151 1.99985 -4.60772 0
M  V30 6190 C 591.145 1.02485 -6.29107 0
M  V30 6191 C 588.832 1.5916 -5.90009 0
M  V30 6192 C 589.83 1.10491 -6.74004 0
M  V30 6193 O 589.518 0.702413 -8.00825 0
M  V30 6194 H 589.25 0.374125 -0.563034 0
M  V30 6195 H 591.804 0.538927 -1.98204 0
M  V30 6196 H 590.034 3.06599 -2.35657 0
M  V30 6197 H 591.723 2.97184 -2.76472 0
M  V30 6198 H 592.489 1.36123 -4.65506 0
M  V30 6199 H 588.368 2.36814 -3.95525 0
M  V30 6200 H 591.912 0.644271 -6.94619 0
M  V30 6201 H 587.809 1.65626 -6.2389 0
M  V30 6202 H 588.577 0.829248 -8.14288 0
M  V30 6203 N 591.24 1.41047 0.703093 0
M  V30 6204 C 592.487 1.4 1.46309 0
M  V30 6205 C 592.815 0.00654574 1.94499 0
M  V30 6206 O 592.07 -0.980255 1.6938 0
M  V30 6207 C 592.369 2.34686 2.6955 0
M  V30 6208 C 592.035 3.81684 2.40058 0
M  V30 6209 C 590.697 4.21731 2.31725 0
M  V30 6210 C 593.049 4.74525 2.15581 0
M  V30 6211 C 590.377 5.52637 1.97001 0
M  V30 6212 C 592.729 6.05744 1.82366 0
M  V30 6213 C 591.393 6.44819 1.72524 0
M  V30 6214 H 590.663 0.512295 0.535382 0
M  V30 6215 H 593.31 1.73792 0.804275 0
M  V30 6216 H 591.615 1.94122 3.40329 0
M  V30 6217 H 593.312 2.31152 3.27673 0
M  V30 6218 H 589.902 3.49963 2.47435 0
M  V30 6219 H 594.086 4.44395 2.20968 0
M  V30 6220 H 589.342 5.81802 1.87928 0
M  V30 6221 H 593.516 6.77189 1.62444 0
M  V30 6222 H 591.143 7.46168 1.45385 0
M  V30 6223 N 592.718 -0.936591 1.26751 0
M  V30 6224 C 593.943 -1.72288 1.15462 0
M  V30 6225 C 594.368 -1.85915 -0.285887 0
M  V30 6226 O 593.726 -1.35272 -1.20711 0
M  V30 6227 C 593.774 -3.10503 1.83359 0
M  V30 6228 O 592.878 -3.96745 1.1255 0
M  V30 6229 H 592.219 -0.52843 0.402067 0
M  V30 6230 H 594.749 -1.17271 1.67656 0
M  V30 6231 H 594.759 -3.60867 1.90365 0
M  V30 6232 H 593.434 -2.99901 2.88153 0
M  V30 6233 H 592.011 -3.55191 1.13551 0
M  V30 6234 N 594.196 -1.08629 -1.14182 0
M  V30 6235 C 595.424 -0.838889 -1.8913 0
M  V30 6236 C 595.839 0.609153 -1.78703 0
M  V30 6237 O 595.196 1.41876 -1.14794 0
M  V30 6238 C 595.247 -1.25477 -3.39025 0
M  V30 6239 O 594.968 -2.64601 -3.49167 0
M  V30 6240 C 596.469 -1.03856 -4.30963 0
M  V30 6241 H 593.689 -0.302377 -0.599007 0
M  V30 6242 H 596.233 -1.44615 -1.44592 0
M  V30 6243 H 594.388 -0.691571 -3.81177 0
M  V30 6244 H 594.802 -2.81922 -4.42289 0
M  V30 6245 H 596.276 -1.37892 -5.345 0
M  V30 6246 H 596.753 0.0242522 -4.39193 0
M  V30 6247 H 597.359 -1.58731 -3.94569 0
M  V30 6248 N 595.674 1.31259 -0.872281 0
M  V30 6249 C 596.899 2.0133 -0.498099 0
M  V30 6250 C 597.324 1.65031 0.902568 0
M  V30 6251 O 596.682 0.860164 1.59596 0
M  V30 6252 C 596.73 3.54411 -0.665205 0
M  V30 6253 O 595.834 4.11347 0.294473 0
M  V30 6254 H 595.175 0.633844 -0.197832 0
M  V30 6255 H 597.705 1.67402 -1.17633 0
M  V30 6256 H 597.715 4.04147 -0.559373 0
M  V30 6257 H 596.39 3.80171 -1.68651 0
M  V30 6258 H 594.967 3.72624 0.143403 0
M  V30 6259 N 597.152 0.631951 1.44375 0
M  V30 6260 C 598.1 -0.0846693 2.32446 0
M  V30 6261 C 599.094 -0.834957 1.47393 0
M  V30 6262 O 600.3 -0.747764 1.63733 0
M  V30 6263 H 596.675 -0.0461508 0.750583 0
M  V30 6264 H 598.646 0.67619 2.90638 0
M  V30 6265 C 597.395 -1.05211 3.314 0
M  V30 6266 H 596.718 -0.484203 3.96857 0
M  V30 6267 H 598.158 -1.523 3.95703 0
M  V30 6268 C 596.617 -2.13776 2.60387 0
M  V30 6269 O 597.147 -3.21869 2.4034 0
M  V30 6270 N 595.353 -1.89733 2.20113 0
M  V30 6271 H 594.9 -1.01833 2.36618 0
M  V30 6272 H 594.858 -2.62572 1.72926 0
M  V30 6273 N 598.631 -1.53133 0.372548 0
M  V30 6274 C 600.042 -1.86404 -0.105155 0
M  V30 6275 C 600.393 -1.29289 -1.47576 0
M  V30 6276 O 599.518 -0.617646 -2.07398 0
M  V30 6277 C 600.113 -3.38223 -0.197588 0
M  V30 6278 C 598.672 -3.71266 -0.619556 0
M  V30 6279 C 597.819 -2.76353 0.228919 0
M  V30 6280 H 600.77 -1.47282 0.591077 0
M  V30 6281 H 600.791 -3.66577 -1.01987 0
M  V30 6282 H 600.303 -3.79763 0.800099 0
M  V30 6283 H 598.404 -3.35287 -1.62522 0
M  V30 6284 H 598.517 -4.77515 -0.389332 0
M  V30 6285 H 596.881 -2.52888 -0.303271 0
M  V30 6286 H 597.664 -3.20728 1.22428 0
M  V30 6287 N 600.109 -0.101901 -1.5727 0
M  V30 6288 C 601.042 0.891377 -2.10071 0
M  V30 6289 C 602.02 1.27197 -1.01291 0
M  V30 6290 O 603.204 1.37602 -1.28833 0
M  V30 6291 C 600.331 2.19049 -2.58331 0
M  V30 6292 C 599.377 1.95925 -3.78834 0
M  V30 6293 S 600.21 1.19106 -5.22086 0
M  V30 6294 C 601.366 2.50234 -5.73702 0
M  V30 6295 H 601.599 0.442212 -2.93993 0
M  V30 6296 H 599.132 0.111529 -1.53997 0
M  V30 6297 H 601.09 2.937 -2.86793 0
M  V30 6298 H 599.751 2.61086 -1.74622 0
M  V30 6299 H 598.944 2.92143 -4.10693 0
M  V30 6300 H 598.546 1.29401 -3.50901 0
M  V30 6301 H 600.838 3.46173 -5.82384 0
M  V30 6302 H 601.781 2.22944 -6.72088 0
M  V30 6303 H 602.189 2.58818 -5.01671 0
M  V30 6304 N 601.587 1.56661 0.17182 0
M  V30 6305 C 602.827 1.83762 0.895029 0
M  V30 6306 C 603.191 0.682752 1.79451 0
M  V30 6307 O 604.392 0.834208 2.55528 0
M  V30 6308 C 602.663 3.15976 1.67015 0
M  V30 6309 S 604.222 3.64558 2.44219 0
M  V30 6310 H 601.04 0.644713 0.299778 0
M  V30 6311 H 603.642 1.94871 0.156701 0
M  V30 6312 H 602.346 3.98021 1.00039 0
M  V30 6313 H 601.877 3.07807 2.44986 0
M  V30 6314 H 603.892 3.31845 3.68909 0
M  V30 6315 N 603.065 -0.440357 1.51323 0
M  V30 6316 C 604.012 -1.53429 1.72419 0
M  V30 6317 C 604.982 -1.56165 0.565826 0
M  V30 6318 O 606.167 -1.73222 0.799917 0
M  V30 6319 C 603.307 -2.91169 1.85242 0
M  V30 6320 C 602.42 -2.97985 3.12777 0
M  V30 6321 C 601.555 -4.26829 3.16212 0
M  V30 6322 C 600.594 -4.27501 4.38074 0
M  V30 6323 N 599.731 -5.47866 4.39076 0
M  V30 6324 H 604.571 -1.34743 2.65797 0
M  V30 6325 H 602.108 -0.654608 1.31732 0
M  V30 6326 H 604.066 -3.71087 1.90658 0
M  V30 6327 H 602.696 -3.0842 0.952744 0
M  V30 6328 H 601.748 -2.10749 3.16685 0
M  V30 6329 H 603.06 -2.94342 4.02696 0
M  V30 6330 H 602.214 -5.15118 3.20527 0
M  V30 6331 H 600.953 -4.33124 2.24176 0
M  V30 6332 H 599.958 -3.37606 4.33938 0
M  V30 6333 H 601.183 -4.22873 5.31371 0
M  V30 6334 H 599.129 -5.54887 3.49909 0
M  V30 6335 H 599.046 -5.46091 5.22801 0
M  V30 6336 H 600.314 -6.38195 4.4758 0
M  V30 6337 N 604.543 -1.41418 -0.695603 0
M  V30 6338 C 605.959 -1.23887 -1.00619 0
M  V30 6339 C 606.159 -0.128206 -2.01092 0
M  V30 6340 O 605.215 0.507408 -2.47349 0
M  V30 6341 C 606.528 -2.58816 -1.53083 0
M  V30 6342 C 608.076 -2.65998 -1.64967 0
M  V30 6343 C 608.551 -4.01244 -2.20833 0
M  V30 6344 N 610.042 -4.0309 -2.28194 0
M  V30 6345 C 610.777 -5.04539 -2.72448 0
M  V30 6346 N 610.273 -6.16378 -3.16306 0
M  V30 6347 N 612.066 -4.91901 -2.72011 0
M  V30 6348 H 604.217 -2.12379 -0.0300061 0
M  V30 6349 H 606.48 -0.944958 -0.0758797 0
M  V30 6350 H 606.186 -3.40842 -0.867147 0
M  V30 6351 H 606.06 -2.81299 -2.51298 0
M  V30 6352 H 608.447 -1.84331 -2.30448 0
M  V30 6353 H 608.528 -2.47325 -0.652982 0
M  V30 6354 H 608.172 -4.83359 -1.55968 0
M  V30 6355 H 608.102 -4.17257 -3.21254 0
M  V30 6356 H 610.593 -3.22341 -1.97242 0
M  V30 6357 H 610.906 -6.89658 -3.487 0
M  V30 6358 H 609.251 -6.19914 -3.14215 0
M  V30 6359 H 612.442 -4.03613 -2.37095 0
M  V30 6360 H 612.615 -5.71102 -3.06181 0
M  V30 6361 N 606.021 0.929856 -1.27246 0
M  V30 6362 C 607.267 1.6798 -1.13625 0
M  V30 6363 C 607.6 1.91586 0.317589 0
M  V30 6364 O 606.875 1.50467 1.23247 0
M  V30 6365 C 607.158 3.04766 -1.91806 0
M  V30 6366 C 607.011 2.88415 -3.45162 0
M  V30 6367 C 608.33 4.05063 -1.72082 0
M  V30 6368 H 605.449 0.609632 -0.414147 0
M  V30 6369 H 608.091 1.0792 -1.56376 0
M  V30 6370 H 606.241 3.56034 -1.55474 0
M  V30 6371 H 607.913 2.44282 -3.91311 0
M  V30 6372 H 606.156 2.23802 -3.71611 0
M  V30 6373 H 606.827 3.85482 -3.95105 0
M  V30 6374 H 609.303 3.62798 -2.03757 0
M  V30 6375 H 608.179 4.98765 -2.29182 0
M  V30 6376 H 608.44 4.37021 -0.668206 0
M  V30 6377 N 607.499 1.09233 1.13605 0
M  V30 6378 C 608.739 0.836786 1.86487 0
M  V30 6379 C 609.103 -0.626191 1.81502 0
M  V30 6380 O 610.304 -0.99758 2.49603 0
M  V30 6381 C 608.575 1.35476 3.30728 0
M  V30 6382 S 610.134 1.2328 4.21126 0
M  V30 6383 H 606.952 0.302702 0.643345 0
M  V30 6384 H 609.554 1.3953 1.36936 0
M  V30 6385 H 608.258 2.41381 3.31909 0
M  V30 6386 H 607.789 0.792286 3.85339 0
M  V30 6387 H 609.804 0.182468 4.95864 0
M  V30 6388 N 608.977 -1.30795 0.87923 0
M  V30 6389 C 609.907 -2.30742 0.357796 0
M  V30 6390 C 610.888 -1.60747 -0.556283 0
M  V30 6391 O 612.073 -1.88393 -0.47135 0
M  V30 6392 C 609.203 -3.44583 -0.433555 0
M  V30 6393 C 608.157 -4.26235 0.388251 0
M  V30 6394 C 607.483 -5.32073 -0.529352 0
M  V30 6395 C 608.783 -4.96303 1.62729 0
M  V30 6396 H 610.477 -2.74605 1.19299 0
M  V30 6397 H 608.023 -1.32017 0.575104 0
M  V30 6398 H 609.976 -4.13563 -0.808934 0
M  V30 6399 H 608.7 -2.99511 -1.30234 0
M  V30 6400 H 607.359 -3.58936 0.745695 0
M  V30 6401 H 607.007 -4.83249 -1.39569 0
M  V30 6402 H 606.707 -5.87598 0.0166741 0
M  V30 6403 H 608.231 -6.0391 -0.901373 0
M  V30 6404 H 609.645 -5.5783 1.32283 0
M  V30 6405 H 608.042 -5.61666 2.11309 0
M  V30 6406 H 609.112 -4.22758 2.37494 0
M  V30 6407 N 610.455 -0.639598 -1.44038 0
M  V30 6408 C 611.866 -0.228866 -1.85292 0
M  V30 6409 C 612.217 1.22161 -1.53529 0
M  V30 6410 O 611.342 1.93064 -0.977518 0
M  V30 6411 C 611.937 -0.408592 -3.36327 0
M  V30 6412 C 610.496 -0.0522953 -3.76364 0
M  V30 6413 C 609.643 -0.717959 -2.67844 0
M  V30 6414 H 612.594 -0.844194 -1.34384 0
M  V30 6415 H 612.615 0.349968 -3.78887 0
M  V30 6416 H 612.127 -1.46435 -3.59414 0
M  V30 6417 H 610.228 1.0014 -3.58891 0
M  V30 6418 H 610.341 -0.468261 -4.76806 0
M  V30 6419 H 608.705 -0.152459 -2.54243 0
M  V30 6420 H 609.488 -1.77648 -2.93762 0
M  V30 6421 N 611.933 1.52934 -0.380664 0
M  V30 6422 C 613.161 2.05886 0.204599 0
M  V30 6423 C 613.576 1.25305 1.41223 0
M  V30 6424 O 612.933 0.297504 1.80059 0
M  V30 6425 C 612.984 3.56764 0.583249 0
M  V30 6426 O 612.705 4.34292 -0.576398 0
M  V30 6427 C 614.206 4.2603 1.2253 0
M  V30 6428 H 611.426 0.670193 0.0328991 0
M  V30 6429 H 613.97 1.97148 -0.543397 0
M  V30 6430 H 612.125 3.65603 1.28115 0
M  V30 6431 H 612.539 5.23819 -0.267119 0
M  V30 6432 H 614.013 5.32868 1.44068 0
M  V30 6433 H 614.49 3.80698 2.19011 0
M  V30 6434 H 615.096 4.21485 0.568407 0
M  V30 6435 N 613.412 0.11024 1.57214 0
M  V30 6436 C 614.359 -0.843195 2.14846 0
M  V30 6437 C 615.329 -1.26954 1.07107 0
M  V30 6438 O 616.514 -1.34861 1.34971 0
M  V30 6439 C 613.654 -2.09123 2.74521 0
M  V30 6440 C 612.767 -1.71404 3.96541 0
M  V30 6441 C 611.902 -2.91107 4.44331 0
M  V30 6442 C 610.941 -2.49586 5.58903 0
M  V30 6443 N 610.078 -3.62175 6.01477 0
M  V30 6444 H 614.918 -0.344886 2.95998 0
M  V30 6445 H 612.455 -0.15855 1.46243 0
M  V30 6446 H 614.413 -2.82234 3.07246 0
M  V30 6447 H 613.043 -2.56427 1.96074 0
M  V30 6448 H 612.095 -0.88201 3.70033 0
M  V30 6449 H 613.407 -1.36884 4.7965 0
M  V30 6450 H 612.561 -3.72454 4.78919 0
M  V30 6451 H 611.3 -3.28848 3.60153 0
M  V30 6452 H 610.305 -1.6667 5.23929 0
M  V30 6453 H 611.53 -2.12973 6.4484 0
M  V30 6454 H 609.476 -3.99605 5.20242 0
M  V30 6455 H 609.393 -3.3155 6.79419 0
M  V30 6456 H 610.661 -4.43987 6.407 0
M  V30 6457 N 614.89 -1.56749 -0.16351 0
M  V30 6458 C 615.8 -2.00255 -1.2221 0
M  V30 6459 C 616.816 -0.915194 -1.47987 0
M  V30 6460 O 617.992 -1.22342 -1.59982 0
M  V30 6461 C 615.057 -2.36035 -2.53946 0
M  V30 6462 C 614.118 -3.58637 -2.35962 0
M  V30 6463 C 613.351 -3.92701 -3.61416 0
M  V30 6464 O 613.574 -3.27632 -4.66919 0
M  V30 6465 O 612.508 -4.86019 -3.55062 0
M  V30 6466 H 616.334 -2.90586 -0.882794 0
M  V30 6467 H 613.919 -1.44721 -0.370978 0
M  V30 6468 H 615.801 -2.59982 -3.31643 0
M  V30 6469 H 614.476 -1.48863 -2.8744 0
M  V30 6470 H 613.383 -3.39898 -1.5627 0
M  V30 6471 H 614.716 -4.46374 -2.0739 0
M  V30 6472 N 616.368 0.432326 -1.51554 0
M  V30 6473 C 617.3 1.54357 -1.6943 0
M  V30 6474 C 618.313 1.52311 -0.574897 0
M  V30 6475 O 619.502 1.56997 -0.849369 0
M  V30 6476 C 616.602 2.93273 -1.69836 0
M  V30 6477 C 615.775 3.19768 -2.98442 0
M  V30 6478 C 614.834 4.38433 -2.90969 0
M  V30 6479 O 613.86 4.36842 -3.64908 0
M  V30 6480 N 615.062 5.42276 -2.07163 0
M  V30 6481 H 617.827 1.39426 -2.65293 0
M  V30 6482 H 615.388 0.621331 -1.49503 0
M  V30 6483 H 617.38 3.70687 -1.62399 0
M  V30 6484 H 615.95 3.01777 -0.815456 0
M  V30 6485 H 615.17 2.30607 -3.19709 0
M  V30 6486 H 616.458 3.343 -3.83563 0
M  V30 6487 H 615.856 5.46407 -1.46477 0
M  V30 6488 H 614.413 6.18524 -2.05601 0
M  V30 6489 N 617.846 1.41785 0.688094 0
M  V30 6490 C 619.092 1.42753 1.4489 0
M  V30 6491 C 619.447 0.0384235 1.92362 0
M  V30 6492 O 618.74 -0.937066 1.67122 0
M  V30 6493 C 618.934 2.37532 2.67046 0
M  V30 6494 C 618.763 3.85521 2.31525 0
M  V30 6495 C 617.533 4.54152 2.21527 0
M  V30 6496 C 619.731 4.76299 1.94019 0
M  V30 6497 N 617.713 5.87233 1.78969 0
M  V30 6498 C 619.084 5.98386 1.62279 0
M  V30 6499 C 621.139 4.63877 1.80895 0
M  V30 6500 C 619.842 7.09433 1.18732 0
M  V30 6501 C 621.868 5.74893 1.38752 0
M  V30 6502 C 621.23 6.96083 1.07927 0
M  V30 6503 H 617.329 0.577575 0.527192 0
M  V30 6504 H 619.913 1.77713 0.795375 0
M  V30 6505 H 618.084 2.04656 3.30107 0
M  V30 6506 H 619.816 2.29169 3.33562 0
M  V30 6507 H 616.571 4.08188 2.40166 0
M  V30 6508 H 616.995 6.57785 1.60151 0
M  V30 6509 H 621.637 3.70671 2.03378 0
M  V30 6510 H 619.355 8.02497 0.949937 0
M  V30 6511 H 622.941 5.67287 1.29136 0
M  V30 6512 H 621.821 7.80527 0.758111 0
M  V30 6513 N 619.324 -0.923095 1.27737 0
M  V30 6514 C 620.549 -1.71054 1.17283 0
M  V30 6515 C 620.974 -1.86208 -0.266153 0
M  V30 6516 O 620.332 -1.36545 -1.1927 0
M  V30 6517 C 620.38 -3.0854 1.86642 0
M  V30 6518 O 619.484 -3.95528 1.16752 0
M  V30 6519 H 618.825 -0.524136 0.407649 0
M  V30 6520 H 621.355 -1.15487 1.6889 0
M  V30 6521 H 621.365 -3.58828 1.94182 0
M  V30 6522 H 620.04 -2.96828 2.91317 0
M  V30 6523 H 618.617 -3.53967 1.17312 0
M  V30 6524 N 620.802 -1.09834 -1.13024 0
M  V30 6525 C 621.749 -0.741522 -2.18564 0
M  V30 6526 C 622.719 0.279236 -1.63736 0
M  V30 6527 O 623.904 0.159923 -1.90129 0
M  V30 6528 C 621.044 -0.17277 -3.44667 0
M  V30 6529 C 620.157 -1.24808 -4.13578 0
M  V30 6530 C 619.292 -0.641631 -5.27311 0
M  V30 6531 C 618.331 -1.69795 -5.88078 0
M  V30 6532 N 617.468 -1.11223 -6.93234 0
M  V30 6533 H 622.308 -1.64576 -2.48432 0
M  V30 6534 H 619.845 -0.822174 -1.21978 0
M  V30 6535 H 621.803 0.17482 -4.16834 0
M  V30 6536 H 620.433 0.694725 -3.15235 0
M  V30 6537 H 619.485 -1.71288 -3.39653 0
M  V30 6538 H 620.797 -2.04795 -4.54819 0
M  V30 6539 H 619.951 -0.243128 -6.06213 0
M  V30 6540 H 618.69 0.189742 -4.87331 0
M  V30 6541 H 617.695 -2.10595 -5.07868 0
M  V30 6542 H 618.92 -2.53206 -6.3013 0
M  V30 6543 H 616.866 -0.302208 -6.55304 0
M  V30 6544 H 616.783 -1.84901 -7.3304 0
M  V30 6545 H 618.051 -0.740068 -7.75979 0
M  V30 6546 N 622.28 1.30327 -0.886154 0
M  V30 6547 C 623.212 2.27079 -0.311072 0
M  V30 6548 C 624.225 1.53758 0.53502 0
M  V30 6549 O 625.414 1.74947 0.354378 0
M  V30 6550 C 622.514 3.33965 0.576228 0
M  V30 6551 C 621.687 4.36735 -0.241064 0
M  V30 6552 C 620.746 5.23028 0.576916 0
M  V30 6553 O 619.772 5.692 -0.000802231 0
M  V30 6554 N 620.974 5.49016 1.88579 0
M  V30 6555 H 623.739 2.77065 -1.14259 0
M  V30 6556 H 621.3 1.43519 -0.749258 0
M  V30 6557 H 623.292 3.88618 1.12953 0
M  V30 6558 H 621.862 2.839 1.30842 0
M  V30 6559 H 621.082 3.81932 -0.975805 0
M  V30 6560 H 622.37 5.02451 -0.801272 0
M  V30 6561 H 621.768 5.13288 2.37806 0
M  V30 6562 H 620.325 6.06539 2.38651 0
M  V30 6563 N 623.758 0.647228 1.43697 0
M  V30 6564 C 625.006 0.157876 2.01482 0
M  V30 6565 C 625.327 -1.23039 1.51282 0
M  V30 6566 O 624.597 -1.82071 0.722982 0
M  V30 6567 H 623.177 0.0553745 0.744945 0
M  V30 6568 H 625.839 0.83755 1.75986 0
M  V30 6569 H 624.935 0.137895 3.11795 0
M  V30 6570 N 625.236 -1.5273 0.388769 0
M  V30 6571 C 626.168 -2.24081 -0.481704 0
M  V30 6572 C 627.181 -1.26307 -1.02715 0
M  V30 6573 O 628.37 -1.52386 -0.929565 0
M  V30 6574 C 625.47 -2.94315 -1.68024 0
M  V30 6575 C 624.643 -4.18791 -1.26226 0
M  V30 6576 C 623.702 -4.72028 -2.32542 0
M  V30 6577 O 622.728 -5.35129 -1.93972 0
M  V30 6578 N 623.93 -4.51838 -3.64448 0
M  V30 6579 H 626.695 -2.9942 0.129591 0
M  V30 6580 H 624.256 -1.60465 0.2151 0
M  V30 6581 H 626.248 -3.26831 -2.38671 0
M  V30 6582 H 624.818 -2.22287 -2.19789 0
M  V30 6583 H 624.038 -3.92318 -0.384703 0
M  V30 6584 H 625.326 -4.99668 -0.959647 0
M  V30 6585 H 624.724 -4.01468 -3.98547 0
M  V30 6586 H 623.281 -4.88845 -4.31131 0
M  V30 6587 N 626.714 -0.118576 -1.57153 0
M  V30 6588 C 627.963 0.539339 -1.94355 0
M  V30 6589 C 628.276 1.67858 -1.00415 0
M  V30 6590 O 629.482 2.39922 -1.27081 0
M  V30 6591 C 627.938 1.01082 -3.45414 0
M  V30 6592 C 627.546 -0.0999402 -4.47889 0
M  V30 6593 C 629.29 1.64013 -3.91535 0
M  V30 6594 C 627.197 0.388212 -5.90124 0
M  V30 6595 H 626.127 0.205247 -0.725527 0
M  V30 6596 H 628.778 -0.19836 -1.82425 0
M  V30 6597 H 627.16 1.80292 -3.52577 0
M  V30 6598 H 628.334 -0.876189 -4.52393 0
M  V30 6599 H 626.649 -0.635885 -4.11516 0
M  V30 6600 H 629.246 2.01649 -4.95219 0
M  V30 6601 H 629.589 2.51836 -3.31488 0
M  V30 6602 H 630.122 0.913439 -3.87171 0
M  V30 6603 H 626.861 -0.453963 -6.53926 0
M  V30 6604 H 626.381 1.13095 -5.89041 0
M  V30 6605 H 628.06 0.849574 -6.41398 0
M  V30 6606 N 628.193 1.56834 0.155195 0
M  V30 6607 C 629.423 1.86778 0.883044 0
M  V30 6608 C 629.831 0.703824 1.75622 0
M  V30 6609 O 629.174 -0.33581 1.80605 0
M  V30 6610 C 629.236 3.1133 1.79761 0
M  V30 6611 C 628.9 4.43504 1.10242 0
M  V30 6612 C 629.897 5.17859 0.460204 0
M  V30 6613 C 627.582 4.90233 1.09437 0
M  V30 6614 C 629.576 6.37144 -0.180782 0
M  V30 6615 C 627.263 6.09444 0.449569 0
M  V30 6616 C 628.261 6.82744 -0.186888 0
M  V30 6617 O 627.949 7.99692 -0.821486 0
M  V30 6618 H 627.681 0.62352 0.261149 0
M  V30 6619 H 630.235 2.04813 0.155204 0
M  V30 6620 H 628.465 2.89282 2.56618 0
M  V30 6621 H 630.154 3.27587 2.39669 0
M  V30 6622 H 630.92 4.8283 0.458289 0
M  V30 6623 H 626.799 4.33109 1.57917 0
M  V30 6624 H 630.343 6.94296 -0.678154 0
M  V30 6625 H 626.24 6.43936 0.449123 0
M  V30 6626 H 627.008 8.15306 -0.722337 0
M  V30 6627 N 629.671 -0.424282 1.51781 0
M  V30 6628 C 630.92 -1.16961 1.64326 0
M  V30 6629 C 631.233 -1.92035 0.371749 0
M  V30 6630 O 632.439 -2.68873 0.37676 0
M  V30 6631 C 630.895 -2.12782 2.90262 0
M  V30 6632 C 630.503 -1.43295 4.24465 0
M  V30 6633 C 632.247 -2.87667 3.12166 0
M  V30 6634 C 630.154 -2.37676 5.41538 0
M  V30 6635 H 629.084 -0.440293 0.612093 0
M  V30 6636 H 631.735 -0.435431 1.78259 0
M  V30 6637 H 630.117 -2.8969 2.69992 0
M  V30 6638 H 631.291 -0.718564 4.55163 0
M  V30 6639 H 629.606 -0.805118 4.08542 0
M  V30 6640 H 632.203 -3.58395 3.96808 0
M  V30 6641 H 632.546 -3.49758 2.25776 0
M  V30 6642 H 633.079 -2.17863 3.32837 0
M  V30 6643 H 629.818 -1.80255 6.30229 0
M  V30 6644 H 629.338 -3.07132 5.15199 0
M  V30 6645 H 631.017 -2.98529 5.74012 0
M  V30 6646 N 631.149 -1.42148 -0.680565 0
M  V30 6647 C 632.397 -1.42029 -1.43779 0
M  V30 6648 C 632.718 -0.0356347 -1.94967 0
M  V30 6649 O 631.988 0.924936 -1.7269 0
M  V30 6650 H 630.568 -0.522835 -0.533529 0
M  V30 6651 H 633.23 -1.7752 -0.804538 0
M  V30 6652 H 632.326 -2.11658 -2.29363 0
M  V30 6653 N 632.627 0.916307 -1.28225 0
M  V30 6654 C 634.038 1.48024 -1.13779 0
M  V30 6655 C 634.389 1.94289 0.273139 0
M  V30 6656 O 633.514 1.82226 1.16716 0
M  V30 6657 C 634.109 2.69029 -2.05935 0
M  V30 6658 C 632.668 3.2161 -1.95561 0
M  V30 6659 C 631.815 1.94321 -1.97825 0
M  V30 6660 H 634.766 0.729272 -1.40951 0
M  V30 6661 H 634.787 3.44204 -1.62184 0
M  V30 6662 H 634.299 2.35325 -3.08616 0
M  V30 6663 H 632.4 3.60045 -0.959076 0
M  V30 6664 H 632.513 3.87032 -2.82388 0
M  V30 6665 H 630.877 2.1131 -1.42198 0
M  V30 6666 H 631.66 1.62917 -3.0218 0
M  V30 6667 N 634.105 1.10431 1.1244 0
M  V30 6668 C 635.33 0.869089 1.88313 0
M  V30 6669 C 635.755 -0.574912 1.79099 0
M  V30 6670 O 635.113 -1.40496 1.14589 0
M  V30 6671 C 635.161 1.32208 3.3549 0
M  V30 6672 O 634.265 0.487092 4.09513 0
M  V30 6673 H 633.606 0.313894 0.585121 0
M  V30 6674 H 636.136 1.47111 1.42195 0
M  V30 6675 H 636.146 1.31201 3.86329 0
M  V30 6676 H 634.821 2.37364 3.41513 0
M  V30 6677 H 633.398 0.562372 3.68635 0
M  V30 6678 N 635.583 -1.29855 0.893053 0
M  V30 6679 C 636.513 -2.3035 0.382249 0
M  V30 6680 C 637.494 -1.61328 -0.539203 0
M  V30 6681 O 638.679 -1.88882 -0.451342 0
M  V30 6682 C 635.809 -3.45024 -0.396983 0
M  V30 6683 C 634.763 -4.258 0.433437 0
M  V30 6684 C 634.089 -5.32605 -0.472889 0
M  V30 6685 C 635.389 -4.94549 1.67984 0
M  V30 6686 H 637.083 -2.73325 1.22205 0
M  V30 6687 H 634.629 -1.314 0.589073 0
M  V30 6688 H 636.582 -4.14398 -0.765024 0
M  V30 6689 H 635.306 -3.00875 -1.2705 0
M  V30 6690 H 633.965 -3.58125 0.783723 0
M  V30 6691 H 633.613 -4.84702 -1.34435 0
M  V30 6692 H 633.313 -5.87547 0.0789958 0
M  V30 6693 H 634.837 -6.04832 -0.837269 0
M  V30 6694 H 636.251 -5.56395 1.38192 0
M  V30 6695 H 634.648 -5.59393 2.17254 0
M  V30 6696 H 635.718 -4.20215 2.41965 0
M  V30 6697 N 637.061 -0.65484 -1.43351 0
M  V30 6698 C 638.024 0.0263562 -2.29185 0
M  V30 6699 C 639.024 0.748951 -1.42293 0
M  V30 6700 O 640.214 0.589957 -1.63906 0
M  V30 6701 C 637.346 1.04806 -3.2439 0
M  V30 6702 H 638.539 -0.728883 -2.90908 0
M  V30 6703 H 636.092 -0.416149 -1.50658 0
M  V30 6704 H 636.827 1.83247 -2.67565 0
M  V30 6705 H 636.612 0.533554 -3.88453 0
M  V30 6706 H 638.102 1.52372 -3.88809 0
M  V30 6707 N 638.539 1.52521 -0.396863 0
M  V30 6708 C 639.502 2.2527 0.422604 0
M  V30 6709 C 640.502 1.27184 0.983913 0
M  V30 6710 O 641.692 1.51222 0.864723 0
M  V30 6711 C 638.824 3.01356 1.59365 0
M  V30 6712 H 640.017 2.99133 -0.214416 0
M  V30 6713 H 637.57 1.55587 -0.149128 0
M  V30 6714 H 638.305 2.31813 2.26789 0
M  V30 6715 H 638.09 3.73357 1.19779 0
M  V30 6716 H 639.58 3.56571 2.17363 0
M  V30 6717 N 640.017 0.126909 1.57088 0
M  V30 6718 C 641.263 -0.529952 1.95753 0
M  V30 6719 C 641.596 -1.65823 1.01077 0
M  V30 6720 O 640.871 -1.94437 0.0494162 0
M  V30 6721 C 641.154 -1.05517 3.44294 0
M  V30 6722 C 641.007 0.0702253 4.49745 0
M  V30 6723 C 642.326 -1.9435 3.94862 0
M  V30 6724 H 639.445 -0.191168 0.711775 0
M  V30 6725 H 642.087 0.204071 1.88901 0
M  V30 6726 H 640.237 -1.68069 3.50264 0
M  V30 6727 H 641.909 0.705834 4.55868 0
M  V30 6728 H 640.152 0.732259 4.27575 0
M  V30 6729 H 640.823 -0.338642 5.5096 0
M  V30 6730 H 643.299 -1.41658 3.91244 0
M  V30 6731 H 642.175 -2.28015 4.993 0
M  V30 6732 H 642.436 -2.87299 3.36024 0
M  V30 6733 N 641.495 -1.56914 -0.146875 0
M  V30 6734 C 642.744 -1.82546 -0.857898 0
M  V30 6735 C 643.057 -0.708169 -1.8233 0
M  V30 6736 O 644.263 -0.850093 -2.57848 0
M  V30 6737 C 642.719 -3.23548 -1.57623 0
M  V30 6738 C 642.327 -4.43212 -0.653224 0
M  V30 6739 C 644.071 -3.58453 -2.27402 0
M  V30 6740 C 641.978 -5.75237 -1.37318 0
M  V30 6741 H 640.908 -0.680786 -0.32411 0
M  V30 6742 H 643.559 -1.83166 -0.110639 0
M  V30 6743 H 641.941 -3.17315 -2.36912 0
M  V30 6744 H 643.115 -4.60682 0.104452 0
M  V30 6745 H 641.43 -4.16351 -0.0638336 0
M  V30 6746 H 644.027 -4.54349 -2.81907 0
M  V30 6747 H 644.37 -2.84516 -3.03901 0
M  V30 6748 H 644.903 -3.66347 -1.55032 0
M  V30 6749 H 641.642 -6.52269 -0.650041 0
M  V30 6750 H 641.162 -5.61703 -2.10357 0
M  V30 6751 H 642.841 -6.18039 -1.91406 0
M  V30 6752 N 642.974 0.416227 -1.52004 0
M  V30 6753 C 644.251 1.17637 -1.56272 0
M  V30 6754 C 644.631 2.08352 -0.339493 0
M  V30 6755 O 643.979 2.1833 0.674124 0
M  V30 6756 C 644.189 1.95986 -2.88774 0
M  V30 6757 C 645.537 2.52299 -3.41512 0
M  V30 6758 O 646.561 2.06174 -2.90467 0
M  V30 6759 O 645.42 3.3648 -4.30631 0
M  V30 6760 H 642.514 0.536726 -0.629169 0
M  V30 6761 H 645.06 0.423583 -1.64329 0
M  V30 6762 H 643.832 1.29487 -3.69254 0
M  V30 6763 H 643.455 2.78285 -2.83978 0
M  V30 6764 N 644.452 1.42507 0.673017 0
M  V30 6765 C 645.68 1.46473 1.46128 0
M  V30 6766 C 646.095 0.0765912 1.88645 0
M  V30 6767 O 645.452 -0.909057 1.58248 0
M  V30 6768 C 645.503 2.39339 2.70923 0
M  V30 6769 O 645.224 3.72752 2.3019 0
M  V30 6770 C 646.725 2.52343 3.64469 0
M  V30 6771 H 643.945 0.49812 0.449575 0
M  V30 6772 H 646.489 1.87041 0.826802 0
M  V30 6773 H 644.644 2.02019 3.30556 0
M  V30 6774 H 645.058 4.22503 3.10791 0
M  V30 6775 H 646.532 3.2144 4.48754 0
M  V30 6776 H 647.009 1.56189 4.1049 0
M  V30 6777 H 647.615 2.90392 3.10729 0
M  V30 6778 N 645.93 -0.909495 1.28709 0
M  V30 6779 C 647.158 -1.69272 1.18973 0
M  V30 6780 C 647.573 -1.87123 -0.251048 0
M  V30 6781 O 646.93 -1.40127 -1.16922 0
M  V30 6782 C 646.981 -3.08257 1.88839 0
M  V30 6783 O 646.702 -2.91228 3.27289 0
M  V30 6784 C 648.203 -4.02642 1.85457 0
M  V30 6785 H 645.423 -0.528999 0.412797 0
M  V30 6786 H 647.967 -1.13803 1.69909 0
M  V30 6787 H 646.122 -3.6053 1.41762 0
M  V30 6788 H 646.536 -3.79223 3.6234 0
M  V30 6789 H 648.01 -4.97613 2.38925 0
M  V30 6790 H 648.487 -4.31327 0.827893 0
M  V30 6791 H 649.093 -3.56298 2.32233 0
M  V30 6792 N 647.408 -1.11026 -1.11852 0
M  V30 6793 C 648.819 -0.873203 -1.65021 0
M  V30 6794 C 649.17 0.595364 -1.86949 0
M  V30 6795 O 648.295 1.45645 -1.60051 0
M  V30 6796 C 648.89 -1.57859 -2.99777 0
M  V30 6797 C 647.449 -1.38807 -3.49871 0
M  V30 6798 C 646.596 -1.62403 -2.24768 0
M  V30 6799 H 649.547 -1.26712 -0.955503 0
M  V30 6800 H 649.568 -1.02111 -3.66543 0
M  V30 6801 H 649.08 -2.6474 -2.83786 0
M  V30 6802 H 647.181 -0.341163 -3.71035 0
M  V30 6803 H 647.294 -2.13421 -4.28938 0
M  V30 6804 H 645.658 -1.04714 -2.32179 0
M  V30 6805 H 646.441 -2.70549 -2.11324 0
M  V30 6806 N 648.886 1.2938 -0.899927 0
M  V30 6807 C 649.796 2.31462 -0.382437 0
M  V30 6808 C 650.812 1.65956 0.522929 0
M  V30 6809 O 651.988 1.97131 0.412454 0
M  V30 6810 C 649.053 3.44595 0.381472 0
M  V30 6811 C 648.114 4.25692 -0.555444 0
M  V30 6812 C 647.347 5.33422 0.172102 0
M  V30 6813 O 647.57 5.53053 1.396 0
M  V30 6814 O 646.504 5.99939 -0.485491 0
M  V30 6815 H 650.33 2.77706 -1.22934 0
M  V30 6816 H 647.915 1.33821 -0.664259 0
M  V30 6817 H 649.797 4.13474 0.813442 0
M  V30 6818 H 648.472 3.00458 1.20443 0
M  V30 6819 H 647.379 3.59453 -1.03653 0
M  V30 6820 H 648.712 4.73471 -1.34483 0
M  V30 6821 N 650.364 0.662433 1.43002 0
M  V30 6822 C 651.592 0.187615 2.06048 0
M  V30 6823 C 652.007 -1.15039 1.49705 0
M  V30 6824 O 651.364 -1.71209 0.631956 0
M  V30 6825 C 651.415 0.100498 3.6136 0
M  V30 6826 O 651.136 1.38562 4.15611 0
M  V30 6827 C 652.637 -0.399298 4.41498 0
M  V30 6828 H 649.857 0.0941675 0.664359 0
M  V30 6829 H 652.401 0.905681 1.83351 0
M  V30 6830 H 650.556 -0.568181 3.83211 0
M  V30 6831 H 650.97 1.25084 5.09366 0
M  V30 6832 H 652.444 -0.409187 5.50481 0
M  V30 6833 H 652.921 -1.43232 4.15188 0
M  V30 6834 H 653.527 0.23721 4.24638 0
M  V30 6835 N 651.842 -1.52309 0.404946 0
M  V30 6836 C 653.067 -2.06666 -0.1743 0
M  V30 6837 C 653.492 -1.27341 -1.38441 0
M  V30 6838 O 652.85 -0.302539 -1.78758 0
M  V30 6839 C 652.898 -3.57014 -0.507262 0
M  V30 6840 O 652.002 -3.80144 -1.59889 0
M  V30 6841 H 651.343 -0.663807 -0.0160273 0
M  V30 6842 H 653.873 -1.96297 0.576937 0
M  V30 6843 H 653.883 -4.00724 -0.767098 0
M  V30 6844 H 652.558 -4.14184 0.377368 0
M  V30 6845 H 651.135 -3.48316 -1.33155 0
M  V30 6846 N 653.32 -0.135238 -1.57019 0
M  V30 6847 C 654.267 0.808908 -2.1616 0
M  V30 6848 C 655.237 1.25234 -1.09113 0
M  V30 6849 O 656.422 1.32697 -1.37099 0
M  V30 6850 C 653.562 2.04729 -2.77813 0
M  V30 6851 C 652.675 1.65074 -3.99218 0
M  V30 6852 C 651.81 2.84002 -4.48906 0
M  V30 6853 C 650.849 2.40663 -5.62803 0
M  V30 6854 N 649.986 3.5256 -6.07162 0
M  V30 6855 H 654.826 0.297751 -2.96509 0
M  V30 6856 H 652.363 0.135264 -1.46477 0
M  V30 6857 H 654.321 2.7731 -3.11697 0
M  V30 6858 H 652.951 2.53275 -2.00128 0
M  V30 6859 H 652.003 0.823029 -3.7139 0
M  V30 6860 H 653.315 1.29236 -4.81767 0
M  V30 6861 H 652.469 3.64788 -4.84783 0
M  V30 6862 H 651.208 3.23076 -3.65339 0
M  V30 6863 H 650.213 1.58314 -5.26514 0
M  V30 6864 H 651.438 2.02687 -6.48147 0
M  V30 6865 H 649.384 3.91278 -5.26534 0
M  V30 6866 H 649.301 3.20699 -6.84608 0
M  V30 6867 H 650.569 4.33738 -6.47682 0
M  V30 6868 N 654.798 1.5699 0.138552 0
M  V30 6869 C 656.028 1.87704 0.863184 0
M  V30 6870 C 656.436 0.722411 1.74865 0
M  V30 6871 O 655.779 -0.316636 1.80951 0
M  V30 6872 C 655.841 3.13219 1.76449 0
M  V30 6873 C 655.505 4.44648 1.05532 0
M  V30 6874 C 656.502 5.18318 0.405252 0
M  V30 6875 C 654.187 4.91367 1.04231 0
M  V30 6876 C 656.181 6.36916 -0.24835 0
M  V30 6877 C 653.868 6.09887 0.384904 0
M  V30 6878 C 654.866 6.82508 -0.259292 0
M  V30 6879 O 654.554 7.98775 -0.906258 0
M  V30 6880 H 654.286 0.626255 0.254521 0
M  V30 6881 H 656.84 2.04966 0.133472 0
M  V30 6882 H 655.07 2.91988 2.53535 0
M  V30 6883 H 656.759 3.30111 2.36181 0
M  V30 6884 H 657.525 4.83289 0.407053 0
M  V30 6885 H 653.404 4.34759 1.53315 0
M  V30 6886 H 656.948 6.93538 -0.751755 0
M  V30 6887 H 652.845 6.44376 0.380799 0
M  V30 6888 H 653.613 8.14494 -0.80877 0
M  V30 6889 N 656.276 -0.40816 1.52223 0
M  V30 6890 C 657.553 -1.16807 1.56893 0
M  V30 6891 C 657.933 -2.08169 0.350537 0
M  V30 6892 O 657.281 -2.18684 -0.662536 0
M  V30 6893 C 657.491 -1.94451 2.8981 0
M  V30 6894 C 658.839 -2.50484 3.42845 0
M  V30 6895 O 659.863 -2.0463 2.91556 0
M  V30 6896 O 658.722 -3.34192 4.3241 0
M  V30 6897 H 655.816 -0.533382 0.632007 0
M  V30 6898 H 658.362 -0.414862 1.64551 0
M  V30 6899 H 657.134 -1.27527 3.69936 0
M  V30 6900 H 656.757 -2.76775 2.85449 0
M  V30 6901 N 657.755 -1.42862 -0.66545 0
M  V30 6902 C 658.985 -1.47032 -1.45138 0
M  V30 6903 C 659.393 -0.0829977 -1.89018 0
M  V30 6904 O 658.736 0.914551 -1.59316 0
M  V30 6905 C 658.798 -2.34302 -2.72659 0
M  V30 6906 C 658.462 -3.82034 -2.50796 0
M  V30 6907 C 659.459 -4.73453 -2.14799 0
M  V30 6908 C 657.144 -4.26397 -2.655 0
M  V30 6909 C 659.138 -6.07228 -1.93785 0
M  V30 6910 C 656.825 -5.6023 -2.44103 0
M  V30 6911 C 657.823 -6.50462 -2.08299 0
M  V30 6912 O 657.511 -7.8182 -1.87116 0
M  V30 6913 H 657.243 -0.501969 -0.452772 0
M  V30 6914 H 659.797 -1.88137 -0.82423 0
M  V30 6915 H 658.027 -1.88063 -3.37889 0
M  V30 6916 H 659.716 -2.29818 -3.34572 0
M  V30 6917 H 660.482 -4.4046 -2.03026 0
M  V30 6918 H 656.361 -3.56448 -2.92345 0
M  V30 6919 H 659.905 -6.7762 -1.65763 0
M  V30 6920 H 655.802 -5.92793 -2.55475 0
M  V30 6921 H 656.57 -7.93274 -2.01639 0
M  V30 6922 N 659.233 0.902656 -1.29189 0
M  V30 6923 C 660.51 1.63296 -1.07674 0
M  V30 6924 C 660.89 2.07649 0.380137 0
M  V30 6925 O 660.238 1.82997 1.36837 0
M  V30 6926 C 660.448 2.81603 -2.06158 0
M  V30 6927 C 661.796 3.52359 -2.36914 0
M  V30 6928 O 662.82 2.91767 -2.04329 0
M  V30 6929 O 661.679 4.61586 -2.92576 0
M  V30 6930 H 658.773 0.716889 -0.41231 0
M  V30 6931 H 661.319 0.950984 -1.4055 0
M  V30 6932 H 660.091 2.46004 -3.04299 0
M  V30 6933 H 659.714 3.57508 -1.73993 0
M  V30 6934 N 660.711 1.11618 1.11262 0
M  V30 6935 C 661.957 0.867463 1.83311 0
M  V30 6936 C 662.29 -0.605366 1.84524 0
M  V30 6937 O 661.565 -1.44704 1.29965 0
M  V30 6938 C 661.848 1.43207 3.30399 0
M  V30 6939 C 661.701 2.97265 3.3757 0
M  V30 6940 C 663.02 1.08454 4.26528 0
M  V30 6941 H 660.139 0.316578 0.665543 0
M  V30 6942 H 662.781 1.38137 1.30454 0
M  V30 6943 H 660.931 0.994982 3.75543 0
M  V30 6944 H 662.603 3.49591 3.00971 0
M  V30 6945 H 660.846 3.33237 2.77733 0
M  V30 6946 H 661.517 3.31859 4.41105 0
M  V30 6947 H 663.993 1.4619 3.89574 0
M  V30 6948 H 662.869 1.50633 5.27826 0
M  V30 6949 H 663.13 -0.00444568 4.421 0
M  V30 6950 N 662.189 -1.289 0.906776 0
M  V30 6951 C 663.136 -2.2751 0.388313 0
M  V30 6952 C 664.106 -1.57301 -0.533439 0
M  V30 6953 O 665.291 -1.85243 -0.457148 0
M  V30 6954 C 662.431 -3.43091 -0.37181 0
M  V30 6955 C 661.544 -4.28066 0.581647 0
M  V30 6956 C 660.679 -5.30837 -0.19623 0
M  V30 6957 C 659.718 -6.07472 0.751294 0
M  V30 6958 N 658.855 -7.021 0.00737727 0
M  V30 6959 H 663.695 -2.71237 1.23428 0
M  V30 6960 H 661.232 -1.33397 0.619962 0
M  V30 6961 H 663.19 -4.08888 -0.828641 0
M  V30 6962 H 661.82 -3.00374 -1.18218 0
M  V30 6963 H 660.872 -3.62378 1.157 0
M  V30 6964 H 662.184 -4.81382 1.30665 0
M  V30 6965 H 661.338 -6.02485 -0.71394 0
M  V30 6966 H 660.077 -4.78272 -0.954324 0
M  V30 6967 H 659.082 -5.34682 1.28044 0
M  V30 6968 H 660.307 -6.62126 1.50883 0
M  V30 6969 H 658.253 -6.51894 -0.732854 0
M  V30 6970 H 658.17 -7.53004 0.672334 0
M  V30 6971 H 659.438 -7.77956 -0.490365 0
M  V30 6972 N 663.667 -0.670007 -1.42649 0
M  V30 6973 C 664.895 -0.19854 -2.05945 0
M  V30 6974 C 665.31 1.14243 -1.50313 0
M  V30 6975 O 664.667 1.70872 -0.641027 0
M  V30 6976 C 664.718 -0.11966 -3.61302 0
M  V30 6977 O 664.439 -1.40764 -4.1487 0
M  V30 6978 C 665.94 0.375878 -4.41704 0
M  V30 6979 H 663.16 -0.0976894 -0.663851 0
M  V30 6980 H 665.704 -0.915392 -1.82868 0
M  V30 6981 H 663.859 0.547851 -3.83507 0
M  V30 6982 H 664.273 -1.27784 -5.08696 0
M  V30 6983 H 665.747 0.379988 -5.50691 0
M  V30 6984 H 666.224 1.41028 -4.15942 0
M  V30 6985 H 666.83 -0.259727 -4.24506 0
M  V30 6986 N 665.145 1.52092 -0.413018 0
M  V30 6987 C 666.392 2.01855 0.161497 0
M  V30 6988 C 666.72 1.29845 1.44812 0
M  V30 6989 O 665.975 0.394471 1.91683 0
M  V30 6990 C 666.274 3.54529 0.4521 0
M  V30 6991 C 665.94 4.4469 -0.745788 0
M  V30 6992 C 664.602 4.69053 -1.07435 0
M  V30 6993 C 666.954 4.97742 -1.54604 0
M  V30 6994 C 664.282 5.43717 -2.20429 0
M  V30 6995 C 666.634 5.73642 -2.66678 0
M  V30 6996 C 665.298 5.96277 -3.00016 0
M  V30 6997 H 664.568 0.73864 0.0590961 0
M  V30 6998 H 667.215 1.83274 -0.555234 0
M  V30 6999 H 665.52 3.7131 1.25045 0
M  V30 7000 H 667.217 3.90546 0.909647 0
M  V30 7001 H 663.807 4.25907 -0.479725 0
M  V30 7002 H 667.991 4.78824 -1.30543 0
M  V30 7003 H 663.247 5.59462 -2.46602 0
M  V30 7004 H 667.421 6.13746 -3.29072 0
M  V30 7005 H 665.048 6.53913 -3.87688 0
M  V30 7006 N 666.623 0.143563 1.56945 0
M  V30 7007 C 667.571 -0.814556 2.17871 0
M  V30 7008 C 668.565 -1.25778 1.13474 0
M  V30 7009 O 669.771 -1.22666 1.31731 0
M  V30 7010 H 666.146 -0.280873 0.697578 0
M  V30 7011 H 668.117 -0.276459 2.97117 0
M  V30 7012 C 666.866 -2.04503 2.81201 0
M  V30 7013 H 666.189 -1.71296 3.61245 0
M  V30 7014 H 667.629 -2.69493 3.27337 0
M  V30 7015 C 666.088 -2.85079 1.79532 0
M  V30 7016 O 666.618 -3.81306 1.26368 0
M  V30 7017 N 664.824 -2.49546 1.48913 0
M  V30 7018 H 664.371 -1.71359 1.92338 0
M  V30 7019 H 664.329 -3.03751 0.811348 0
M  V30 7020 N 668.101 -1.57061 -0.130224 0
M  V30 7021 C 669.347 -1.8453 -0.841216 0
M  V30 7022 C 669.68 -0.727666 -1.80052 0
M  V30 7023 O 668.955 0.267419 -1.92653 0
M  V30 7024 C 669.238 -3.22553 -1.60099 0
M  V30 7025 C 669.091 -4.44901 -0.662048 0
M  V30 7026 C 670.41 -3.58003 -2.55973 0
M  V30 7027 H 667.529 -0.671215 -0.304366 0
M  V30 7028 H 670.171 -1.89705 -0.105821 0
M  V30 7029 H 668.321 -3.18272 -2.22789 0
M  V30 7030 H 669.993 -4.61278 -0.0448559 0
M  V30 7031 H 668.236 -4.33791 0.0272253 0
M  V30 7032 H 668.907 -5.3812 -1.23006 0
M  V30 7033 H 671.383 -3.63002 -2.03393 0
M  V30 7034 H 670.259 -4.55576 -3.06172 0
M  V30 7035 H 670.52 -2.84833 -3.38116 0
M  V30 7036 N 669.579 0.400081 -1.52437 0
M  V30 7037 C 670.526 1.48803 -1.76426 0
M  V30 7038 C 671.496 1.5461 -0.607032 0
M  V30 7039 O 672.681 1.71041 -0.845563 0
M  V30 7040 C 669.821 2.86156 -1.92896 0
M  V30 7041 C 668.934 2.89587 -3.20567 0
M  V30 7042 C 668.069 4.18296 -3.27417 0
M  V30 7043 C 667.108 4.15736 -4.49255 0
M  V30 7044 N 666.245 5.36032 -4.53447 0
M  V30 7045 H 671.085 1.27649 -2.69276 0
M  V30 7046 H 668.622 0.619451 -1.33421 0
M  V30 7047 H 670.58 3.65901 -2.00429 0
M  V30 7048 H 669.21 3.05785 -1.03418 0
M  V30 7049 H 668.262 2.02278 -3.22161 0
M  V30 7050 H 669.574 2.83562 -4.10358 0
M  V30 7051 H 668.728 5.06439 -3.34072 0
M  V30 7052 H 667.467 4.27028 -2.35581 0
M  V30 7053 H 666.472 3.25982 -4.42737 0
M  V30 7054 H 667.697 4.08636 -5.42396 0
M  V30 7055 H 665.643 5.45415 -3.64498 0
M  V30 7056 H 665.56 5.32038 -5.37096 0
M  V30 7057 H 666.828 6.26104 -4.64343 0
M  V30 7058 N 671.057 1.43213 0.657864 0
M  V30 7059 C 672.473 1.26511 0.972992 0
M  V30 7060 C 672.673 0.181477 2.00681 0
M  V30 7061 O 671.729 -0.441649 2.48608 0
M  V30 7062 C 673.042 2.62784 1.46168 0
M  V30 7063 C 674.59 2.70278 1.57857 0
M  V30 7064 C 675.065 4.06958 2.10117 0
M  V30 7065 N 676.556 4.08999 2.17426 0
M  V30 7066 C 677.291 5.11585 2.58975 0
M  V30 7067 N 676.787 6.24548 2.99853 0
M  V30 7068 N 678.58 4.9894 2.58873 0
M  V30 7069 H 670.731 2.12384 -0.0263129 0
M  V30 7070 H 672.994 0.946638 0.0507992 0
M  V30 7071 H 672.7 3.43022 0.776474 0
M  V30 7072 H 672.574 2.87863 2.43751 0
M  V30 7073 H 674.961 1.90376 2.25479 0
M  V30 7074 H 675.042 2.4897 0.587179 0
M  V30 7075 H 674.686 4.87325 1.43098 0
M  V30 7076 H 674.616 4.25628 3.10078 0
M  V30 7077 H 677.107 3.27457 1.88627 0
M  V30 7078 H 677.42 6.98661 3.30292 0
M  V30 7079 H 675.765 6.28027 2.97669 0
M  V30 7080 H 678.956 4.09757 2.26311 0
M  V30 7081 H 679.129 5.79019 2.90932 0
M  V30 7082 N 672.536 -0.895792 1.29666 0
M  V30 7083 C 673.785 -1.64131 1.17234 0
M  V30 7084 C 674.098 -1.93665 -0.274416 0
M  V30 7085 O 675.304 -2.66472 -0.520105 0
M  V30 7086 C 673.76 -2.95764 2.05065 0
M  V30 7087 C 673.368 -2.7381 3.54587 0
M  V30 7088 C 675.112 -3.737 2.01367 0
M  V30 7089 C 673.019 -4.01194 4.34508 0
M  V30 7090 H 671.949 -0.615742 0.435175 0
M  V30 7091 H 674.6 -0.992626 1.54335 0
M  V30 7092 H 672.982 -3.61867 1.60837 0
M  V30 7093 H 674.156 -2.16277 4.06892 0
M  V30 7094 H 672.471 -2.09265 3.59996 0
M  V30 7095 H 675.068 -4.68152 2.58337 0
M  V30 7096 H 675.411 -4.04245 0.994575 0
M  V30 7097 H 675.944 -3.14444 2.43659 0
M  V30 7098 H 672.683 -3.75813 5.37071 0
M  V30 7099 H 672.203 -4.58272 3.86971 0
M  V30 7100 H 673.882 -4.69307 4.45376 0
M  V30 7101 N 674.014 -1.12206 -1.10668 0
M  V30 7102 C 674.962 -0.782918 -2.19028 0
M  V30 7103 C 675.956 0.229175 -1.67843 0
M  V30 7104 O 677.162 0.0876295 -1.79787 0
M  V30 7105 H 673.537 -0.235339 -0.714227 0
M  V30 7106 H 675.508 -1.70527 -2.44874 0
M  V30 7107 C 674.257 -0.25116 -3.46792 0
M  V30 7108 H 673.58 -1.02123 -3.86537 0
M  V30 7109 H 675.02 -0.0521409 -4.23968 0
M  V30 7110 C 673.479 1.02037 -3.21076 0
M  V30 7111 O 674.009 2.09862 -3.42522 0
M  V30 7112 N 672.215 0.946348 -2.74759 0
M  V30 7113 H 671.762 0.068777 -2.57508 0
M  V30 7114 H 671.72 1.79775 -2.57931 0
M  V30 7115 N 675.492 1.28418 -0.913599 0
M  V30 7116 C 676.739 1.94981 -0.546674 0
M  V30 7117 C 677.067 1.7192 0.909606 0
M  V30 7118 O 676.322 1.03314 1.66207 0
M  V30 7119 C 676.621 3.48283 -0.802099 0
M  V30 7120 C 676.287 3.91444 -2.2379 0
M  V30 7121 C 674.949 4.02939 -2.63046 0
M  V30 7122 C 677.301 4.13542 -3.17227 0
M  V30 7123 C 674.629 4.3391 -3.94891 0
M  V30 7124 C 676.981 4.45992 -4.48636 0
M  V30 7125 C 675.645 4.55698 -4.87746 0
M  V30 7126 H 674.915 0.713487 -0.200042 0
M  V30 7127 H 677.562 1.52756 -1.15489 0
M  V30 7128 H 675.867 3.91643 -0.111076 0
M  V30 7129 H 677.564 3.97903 -0.497375 0
M  V30 7130 H 674.154 3.83024 -1.9233 0
M  V30 7131 H 678.338 4.04114 -2.88107 0
M  V30 7132 H 673.594 4.39631 -4.24894 0
M  V30 7133 H 677.768 4.62038 -5.21051 0
M  V30 7134 H 675.395 4.79451 -5.89942 0
M  V30 7135 N 676.97 0.677563 1.42291 0
M  V30 7136 C 678.381 0.277912 1.8462 0
M  V30 7137 C 678.732 -1.18048 1.56714 0
M  V30 7138 O 677.857 -1.90404 1.02836 0
M  V30 7139 C 678.452 0.497619 3.35126 0
M  V30 7140 C 677.011 0.152063 3.76093 0
M  V30 7141 C 676.158 0.78872 2.65847 0
M  V30 7142 H 679.109 0.879527 1.32098 0
M  V30 7143 H 679.13 -0.24939 3.79682 0
M  V30 7144 H 678.642 1.55913 3.55405 0
M  V30 7145 H 676.743 -0.905896 3.6142 0
M  V30 7146 H 676.856 0.594514 4.75397 0
M  V30 7147 H 675.22 0.219813 2.5375 0
M  V30 7148 H 676.003 1.85374 2.88949 0
M  V30 7149 N 678.448 -1.51871 0.421078 0
M  V30 7150 C 679.694 -2.02237 -0.151014 0
M  V30 7151 C 680.027 -1.30554 -1.43768 0
M  V30 7152 O 679.302 -0.41546 -1.90011 0
M  V30 7153 C 679.585 -3.5802 -0.386482 0
M  V30 7154 C 679.438 -4.40339 0.9177 0
M  V30 7155 C 680.757 -4.24444 -1.16342 0
M  V30 7156 H 677.876 -0.735062 -0.0534102 0
M  V30 7157 H 680.518 -1.81656 0.556888 0
M  V30 7158 H 678.668 -3.75688 -0.989494 0
M  V30 7159 H 680.34 -4.34357 1.55344 0
M  V30 7160 H 678.583 -4.06073 1.526 0
M  V30 7161 H 679.254 -5.47451 0.707187 0
M  V30 7162 H 681.73 -4.10948 -0.652788 0
M  V30 7163 H 680.606 -5.33358 -1.29693 0
M  V30 7164 H 680.867 -3.84204 -2.18724 0
M  V30 7165 N 679.926 -0.151884 -1.56866 0
M  V30 7166 C 680.874 0.80299 -2.183 0
M  V30 7167 C 681.868 1.25174 -1.14139 0
M  V30 7168 O 683.074 1.21966 -1.3238 0
M  V30 7169 H 679.449 0.277169 -0.699057 0
M  V30 7170 H 681.42 0.260699 -2.97259 0
M  V30 7171 C 680.169 2.03009 -2.82281 0
M  V30 7172 H 679.492 1.69377 -3.62148 0
M  V30 7173 H 680.932 2.67753 -3.28762 0
M  V30 7174 C 679.391 2.84123 -1.81041 0
M  V30 7175 O 679.921 3.8063 -1.28388 0
M  V30 7176 N 678.127 2.48753 -1.50234 0
M  V30 7177 H 677.674 1.70337 -1.93244 0
M  V30 7178 H 677.632 3.03316 -0.827445 0
M  V30 7179 N 681.404 1.57128 0.121893 0
M  V30 7180 C 682.629 1.89254 0.848385 0
M  V30 7181 C 683.054 0.743527 1.72781 0
M  V30 7182 O 682.412 -0.306056 1.78698 0
M  V30 7183 C 682.46 3.20113 1.66012 0
M  V30 7184 O 681.564 3.05815 2.76679 0
M  V30 7185 H 680.905 0.621103 0.234793 0
M  V30 7186 H 683.435 2.0433 0.10516 0
M  V30 7187 H 683.445 3.52761 2.04996 0
M  V30 7188 H 682.12 4.03336 1.01452 0
M  V30 7189 H 680.697 2.84627 2.40918 0
M  V30 7190 N 682.882 -0.391992 1.52647 0
M  V30 7191 C 683.832 -1.47815 1.73594 0
M  V30 7192 C 684.816 -1.49693 0.589979 0
M  V30 7193 O 686.008 -1.5538 0.847701 0
M  V30 7194 C 683.137 -2.85561 1.90551 0
M  V30 7195 C 682.223 -2.88264 3.1107 0
M  V30 7196 N 682.614 -2.60642 4.33474 0
M  V30 7197 C 680.912 -3.19432 3.11254 0
M  V30 7198 C 681.613 -2.70351 5.15058 0
M  V30 7199 N 680.589 -3.03956 4.50679 0
M  V30 7200 H 684.391 -1.2528 2.65861 0
M  V30 7201 H 681.905 -0.599907 1.50913 0
M  V30 7202 H 683.902 -3.63759 2.03678 0
M  V30 7203 H 682.562 -3.09081 0.994952 0
M  V30 7204 H 683.573 -2.34718 4.61658 0
M  V30 7205 H 680.25 -3.48436 2.29997 0
M  V30 7206 H 681.64 -2.52565 6.22624 0
M  V30 7207 N 684.36 -1.4356 -0.65026 0
M  V30 7208 C 685.307 -1.48948 -1.76304 0
M  V30 7209 C 686.277 -0.338919 -1.62605 0
M  V30 7210 O 687.462 -0.54649 -1.82806 0
M  V30 7211 C 684.602 -1.42131 -3.14472 0
M  V30 7212 C 683.715 -2.67415 -3.39284 0
M  V30 7213 C 682.85 -2.52565 -4.67316 0
M  V30 7214 C 681.889 -3.73103 -4.85243 0
M  V30 7215 N 681.026 -3.57046 -6.04535 0
M  V30 7216 H 685.866 -2.44032 -1.71034 0
M  V30 7217 H 683.403 -1.21131 -0.834601 0
M  V30 7218 H 685.361 -1.36172 -3.94351 0
M  V30 7219 H 683.991 -0.506273 -3.18805 0
M  V30 7220 H 683.043 -2.8364 -2.53481 0
M  V30 7221 H 684.355 -3.56943 -3.48415 0
M  V30 7222 H 683.509 -2.44331 -5.55326 0
M  V30 7223 H 682.248 -1.60566 -4.60511 0
M  V30 7224 H 681.253 -3.81743 -3.95667 0
M  V30 7225 H 682.478 -4.66115 -4.93876 0
M  V30 7226 H 680.424 -2.67783 -5.98856 0
M  V30 7227 H 680.341 -4.40178 -6.14638 0
M  V30 7228 H 681.609 -3.52669 -6.95158 0
M  V30 7229 N 685.838 0.888903 -1.30139 0
M  V30 7230 C 687.066 1.67358 -1.21651 0
M  V30 7231 C 687.481 1.87499 0.221246 0
M  V30 7232 O 686.838 1.41969 1.14677 0
M  V30 7233 C 686.889 3.05213 -1.93719 0
M  V30 7234 O 686.61 2.85984 -3.31881 0
M  V30 7235 C 688.111 3.9964 -1.9184 0
M  V30 7236 H 685.331 0.522365 -0.42116 0
M  V30 7237 H 687.875 1.11086 -1.71698 0
M  V30 7238 H 686.03 3.5823 -1.4748 0
M  V30 7239 H 686.444 3.73411 -3.68327 0
M  V30 7240 H 687.918 4.93749 -2.46811 0
M  V30 7241 H 688.395 4.29955 -0.896409 0
M  V30 7242 H 689.001 3.52558 -2.37872 0
M  V30 7243 N 687.317 1.12792 1.10072 0
M  V30 7244 C 688.566 0.880232 1.81479 0
M  V30 7245 C 688.879 -0.595575 1.86312 0
M  V30 7246 O 690.085 -0.959979 2.53962 0
M  V30 7247 C 688.541 1.52514 3.25987 0
M  V30 7248 C 688.149 3.036 3.29441 0
M  V30 7249 C 689.893 1.35788 4.02196 0
M  V30 7250 C 687.8 3.61007 4.68431 0
M  V30 7251 H 686.73 0.325654 0.680048 0
M  V30 7252 H 689.381 1.35485 1.23758 0
M  V30 7253 H 687.763 0.978188 3.83728 0
M  V30 7254 H 688.937 3.64819 2.81502 0
M  V30 7255 H 687.252 3.19765 2.66719 0
M  V30 7256 H 689.849 1.76096 5.0487 0
M  V30 7257 H 690.192 0.301972 4.15203 0
M  V30 7258 H 690.725 1.87426 3.50879 0
M  V30 7259 H 687.464 4.66375 4.60625 0
M  V30 7260 H 686.984 3.04564 5.16721 0
M  V30 7261 H 688.663 3.60289 5.37402 0
M  V30 7262 N 688.795 -1.27931 0.920396 0
M  V30 7263 C 690.072 -1.89728 0.475687 0
M  V30 7264 C 690.452 -1.8337 -1.04588 0
M  V30 7265 O 689.8 -1.27404 -1.89685 0
M  V30 7266 C 690.01 -3.33959 1.01354 0
M  V30 7267 C 691.358 -4.10907 1.06963 0
M  V30 7268 O 692.382 -3.42945 0.962646 0
M  V30 7269 O 691.241 -5.32399 1.23343 0
M  V30 7270 H 688.335 -0.81294 0.151845 0
M  V30 7271 H 690.881 -1.36252 1.01161 0
M  V30 7272 H 689.653 -3.32843 2.05746 0
M  V30 7273 H 689.276 -3.94944 0.458829 0
M  V30 7274 N 690.273 -0.685099 -1.4193 0
M  V30 7275 C 691.501 -0.220372 -2.05723 0
M  V30 7276 C 691.916 1.12642 -1.51516 0
M  V30 7277 O 691.273 1.70182 -0.659114 0
M  V30 7278 C 691.324 -0.157974 -3.61155 0
M  V30 7279 O 691.045 -1.45156 -4.13354 0
M  V30 7280 C 692.546 0.329009 -4.42077 0
M  V30 7281 H 689.766 -0.104725 -0.662777 0
M  V30 7282 H 692.31 -0.934736 -1.81887 0
M  V30 7283 H 690.465 0.507144 -3.84066 0
M  V30 7284 H 690.879 -1.33172 -5.07312 0
M  V30 7285 H 692.353 0.321559 -5.51063 0
M  V30 7286 H 692.83 1.36608 -4.17414 0
M  V30 7287 H 693.436 -0.304737 -4.24207 0
M  V30 7288 N 691.751 1.51645 -0.429126 0
M  V30 7289 C 692.699 2.29119 0.400921 0
M  V30 7290 C 693.693 1.34628 1.02819 0
M  V30 7291 O 694.899 1.52004 0.964098 0
M  V30 7292 H 691.274 0.737273 0.148095 0
M  V30 7293 H 693.245 2.97144 -0.273457 0
M  V30 7294 C 691.994 3.13953 1.49429 0
M  V30 7295 H 691.317 3.86544 1.02097 0
M  V30 7296 H 692.757 3.71232 2.04849 0
M  V30 7297 C 691.216 2.28796 2.47293 0
M  V30 7298 O 691.746 1.94193 3.51642 0
M  V30 7299 N 689.952 1.92177 2.17982 0
M  V30 7300 H 689.499 2.20517 1.33154 0
M  V30 7301 H 689.457 1.35497 2.83704 0
M  V30 7302 N 693.229 0.160201 1.56784 0
M  V30 7303 C 694.457 -0.494165 2.00912 0
M  V30 7304 C 694.872 -1.57548 1.04038 0
M  V30 7305 O 694.229 -1.82457 0.0394581 0
M  V30 7306 C 694.28 -1.08271 3.44905 0
M  V30 7307 O 694.001 -0.0445704 4.38077 0
M  V30 7308 C 695.502 -1.8164 4.04378 0
M  V30 7309 H 692.722 -0.127498 0.658776 0
M  V30 7310 H 695.266 0.258665 2.02858 0
M  V30 7311 H 693.421 -1.78609 3.4377 0
M  V30 7312 H 693.835 -0.477544 5.22322 0
M  V30 7313 H 695.309 -2.18094 5.07089 0
M  V30 7314 H 695.786 -2.70727 3.45838 0
M  V30 7315 H 696.392 -1.15969 4.09184 0
M  V30 7316 N 694.707 -1.5719 -0.113559 0
M  V30 7317 C 695.617 -2.04041 -1.15777 0
M  V30 7318 C 696.633 -0.961812 -1.45001 0
M  V30 7319 O 697.809 -1.2737 -1.56009 0
M  V30 7320 C 694.874 -2.43994 -2.46308 0
M  V30 7321 C 693.935 -3.65962 -2.24433 0
M  V30 7322 C 693.168 -4.04 -3.4874 0
M  V30 7323 O 693.391 -3.42321 -4.56259 0
M  V30 7324 O 692.325 -4.97069 -3.3942 0
M  V30 7325 H 696.151 -2.93248 -0.789899 0
M  V30 7326 H 693.736 -1.45828 -0.324748 0
M  V30 7327 H 695.618 -2.70401 -3.23204 0
M  V30 7328 H 694.293 -1.57932 -2.82558 0
M  V30 7329 H 693.2 -3.44697 -1.45377 0
M  V30 7330 H 694.533 -4.52746 -1.93084 0
M  V30 7331 N 696.185 0.383891 -1.52853 0
M  V30 7332 C 697.41 1.154 -1.7233 0
M  V30 7333 C 697.835 1.82809 -0.44298 0
M  V30 7334 O 697.193 1.71026 0.601645 0
M  V30 7335 C 697.241 2.17386 -2.87708 0
M  V30 7336 O 696.345 3.24082 -2.55038 0
M  V30 7337 H 695.686 0.335709 -0.572883 0
M  V30 7338 H 698.216 0.44662 -1.99666 0
M  V30 7339 H 698.226 2.61296 -3.1335 0
M  V30 7340 H 696.901 1.6771 -3.80587 0
M  V30 7341 H 695.478 2.85273 -2.40153 0
M  V30 7342 N 697.663 1.43903 0.642637 0
M  V30 7343 C 698.888 1.49758 1.43483 0
M  V30 7344 C 699.313 0.119911 1.87717 0
M  V30 7345 O 698.671 -0.888558 1.58033 0
M  V30 7346 C 698.719 2.45744 2.63898 0
M  V30 7347 O 697.823 1.95101 3.63331 0
M  V30 7348 H 697.164 0.506138 0.429791 0
M  V30 7349 H 699.694 1.88923 0.785438 0
M  V30 7350 H 699.704 2.63399 3.11584 0
M  V30 7351 H 698.379 3.45818 2.31046 0
M  V30 7352 H 696.956 1.87158 3.22531 0
M  V30 7353 N 699.141 -0.881989 1.30609 0
M  V30 7354 C 700.557 -1.16576 1.09005 0
M  V30 7355 C 700.757 -2.00961 -0.14727 0
M  V30 7356 O 699.813 -2.38117 -0.840036 0
M  V30 7357 C 701.126 -1.86954 2.35518 0
M  V30 7358 C 702.674 -1.99706 2.41011 0
M  V30 7359 C 703.149 -2.73497 3.67374 0
M  V30 7360 N 704.64 -2.8104 3.68199 0
M  V30 7361 C 705.375 -3.38718 4.62664 0
M  V30 7362 N 704.871 -3.97421 5.67475 0
M  V30 7363 N 706.664 -3.36561 4.50203 0
M  V30 7364 H 698.815 -0.319398 2.09985 0
M  V30 7365 H 701.078 -0.204058 0.925778 0
M  V30 7366 H 700.784 -1.32393 3.2583 0
M  V30 7367 H 700.658 -2.87317 2.44395 0
M  V30 7368 H 703.045 -2.53436 1.51176 0
M  V30 7369 H 703.126 -0.984218 2.36108 0
M  V30 7370 H 702.77 -2.20438 4.57569 0
M  V30 7371 H 702.7 -3.75163 3.6954 0
M  V30 7372 H 705.191 -2.39365 2.92426 0
M  V30 7373 H 705.504 -4.39507 6.35652 0
M  V30 7374 H 703.849 -3.95832 5.71264 0
M  V30 7375 H 707.04 -2.8993 3.67503 0
M  V30 7376 H 707.213 -3.81215 5.24003 0
M  V30 7377 N 700.619 -1.13374 -1.09472 0
M  V30 7378 C 701.865 -0.896516 -1.81908 0
M  V30 7379 C 702.198 0.575933 -1.85463 0
M  V30 7380 O 701.473 1.42618 -1.32251 0
M  V30 7381 C 701.756 -1.48445 -3.28079 0
M  V30 7382 C 701.609 -3.02598 -3.32798 0
M  V30 7383 C 702.928 -1.15226 -4.24748 0
M  V30 7384 H 700.047 -0.327127 -0.660422 0
M  V30 7385 H 702.689 -1.40195 -1.2824 0
M  V30 7386 H 700.839 -1.0546 -3.73912 0
M  V30 7387 H 702.511 -3.54335 -2.95372 0
M  V30 7388 H 700.754 -3.37613 -2.72397 0
M  V30 7389 H 701.425 -3.38835 -4.3577 0
M  V30 7390 H 703.901 -1.52369 -3.87199 0
M  V30 7391 H 702.777 -1.59012 -5.25363 0
M  V30 7392 H 703.038 -0.0658891 -4.42051 0
M  V30 7393 N 702.098 1.27442 -0.927168 0
M  V30 7394 C 703.338 1.96157 -0.574608 0
M  V30 7395 C 703.702 1.71265 0.867897 0
M  V30 7396 O 704.903 2.33664 1.3287 0
M  V30 7397 C 703.174 3.46115 -0.891009 0
M  V30 7398 S 704.733 4.34006 -0.646885 0
M  V30 7399 H 701.551 0.678619 -0.212125 0
M  V30 7400 H 704.153 1.54688 -1.19549 0
M  V30 7401 H 702.857 3.6173 -1.93854 0
M  V30 7402 H 702.388 3.92545 -0.259301 0
M  V30 7403 H 704.403 4.93719 0.495568 0
M  V30 7404 N 703.576 0.692616 1.41565 0
M  V30 7405 C 704.524 0.0139952 2.32596 0
M  V30 7406 C 705.518 -0.771691 1.50802 0
M  V30 7407 O 706.724 -0.677646 1.66757 0
M  V30 7408 H 703.099 -0.0142745 0.751865 0
M  V30 7409 H 705.07 0.798851 2.87508 0
M  V30 7410 C 703.819 -0.910602 3.35564 0
M  V30 7411 H 703.142 -0.315446 3.98554 0
M  V30 7412 H 704.582 -1.3538 4.01806 0
M  V30 7413 C 703.041 -2.02539 2.6922 0
M  V30 7414 O 703.571 -3.11386 2.53775 0
M  V30 7415 N 701.777 -1.80227 2.27962 0
M  V30 7416 H 701.324 -0.917054 2.40724 0
M  V30 7417 H 701.282 -2.55001 1.83907 0
M  V30 7418 N 705.054 -1.51416 0.437162 0
M  V30 7419 C 706.284 -2.06204 -0.127859 0
M  V30 7420 C 706.692 -1.30463 -1.37026 0
M  V30 7421 O 706.035 -0.357516 -1.80187 0
M  V30 7422 C 706.097 -3.55783 -0.515632 0
M  V30 7423 C 705.761 -4.52776 0.619937 0
M  V30 7424 C 706.758 -4.98031 1.49201 0
M  V30 7425 C 704.443 -4.95878 0.800618 0
M  V30 7426 C 706.437 -5.85061 2.52947 0
M  V30 7427 C 704.124 -5.82699 1.84135 0
M  V30 7428 C 705.122 -6.27188 2.70416 0
M  V30 7429 O 704.81 -7.12284 3.72702 0
M  V30 7430 H 704.542 -0.675903 -0.011442 0
M  V30 7431 H 707.096 -1.95977 0.614986 0
M  V30 7432 H 705.326 -3.63793 -1.31118 0
M  V30 7433 H 707.015 -3.93087 -1.01179 0
M  V30 7434 H 707.781 -4.65426 1.36395 0
M  V30 7435 H 703.66 -4.60792 0.138617 0
M  V30 7436 H 707.204 -6.19708 3.20325 0
M  V30 7437 H 703.101 -6.14717 1.9696 0
M  V30 7438 H 703.869 -7.30462 3.69281 0
M  V30 7439 N 706.532 -0.168513 -1.56696 0
M  V30 7440 C 707.762 0.482802 -2.0088 0
M  V30 7441 C 708.17 1.57537 -1.0478 0
M  V30 7442 O 707.513 1.83656 -0.0402746 0
M  V30 7443 C 707.575 1.1236 -3.4149 0
M  V30 7444 C 707.239 0.173027 -4.56672 0
M  V30 7445 C 708.236 -0.607565 -5.16338 0
M  V30 7446 C 705.921 0.0696691 -5.02252 0
M  V30 7447 C 707.915 -1.47874 -6.2001 0
M  V30 7448 C 705.602 -0.805096 -6.05773 0
M  V30 7449 C 706.6 -1.57789 -6.64524 0
M  V30 7450 O 706.288 -2.43804 -7.66038 0
M  V30 7451 H 706.02 0.128246 -0.663723 0
M  V30 7452 H 708.574 -0.266532 -2.03663 0
M  V30 7453 H 706.804 1.921 -3.35611 0
M  V30 7454 H 708.493 1.67683 -3.69645 0
M  V30 7455 H 709.259 -0.53787 -4.82008 0
M  V30 7456 H 705.138 0.660957 -4.56237 0
M  V30 7457 H 708.682 -2.0824 -6.65794 0
M  V30 7458 H 704.579 -0.876005 -6.39528 0
M  V30 7459 H 705.347 -2.37289 -7.83349 0
M  V30 7460 N 708.01 1.57248 0.105221 0
M  V30 7461 C 709.258 1.85204 0.808951 0
M  V30 7462 C 709.579 0.75574 1.7976 0
M  V30 7463 O 708.849 -0.218984 1.94672 0
M  V30 7464 H 707.429 0.683346 0.301739 0
M  V30 7465 H 710.091 1.94695 0.0892605 0
M  V30 7466 H 709.187 2.81595 1.34575 0
M  V30 7467 N 709.488 -0.375779 1.53054 0
M  V30 7468 C 710.421 -1.48187 1.7354 0
M  V30 7469 C 711.399 -1.5177 0.583495 0
M  V30 7470 O 712.583 -1.69976 0.81488 0
M  V30 7471 C 709.71 -2.86598 1.80497 0
M  V30 7472 C 708.756 -3.00784 3.02376 0
M  V30 7473 S 709.589 -2.70601 4.62099 0
M  V30 7474 C 710.745 -4.11181 4.71891 0
M  V30 7475 H 710.978 -1.30587 2.67085 0
M  V30 7476 H 708.511 -0.569485 1.43514 0
M  V30 7477 H 710.469 -3.66353 1.85192 0
M  V30 7478 H 709.13 -3.01514 0.880217 0
M  V30 7479 H 708.323 -4.02128 3.03824 0
M  V30 7480 H 707.925 -2.28939 2.95742 0
M  V30 7481 H 710.217 -5.0529 4.51319 0
M  V30 7482 H 711.16 -4.14742 5.73929 0
M  V30 7483 H 711.568 -3.97706 4.00612 0
M  V30 7484 N 710.966 -1.44241 -0.634997 0
M  V30 7485 C 712.191 -1.50516 -1.42687 0
M  V30 7486 C 712.616 -0.129864 -1.87651 0
M  V30 7487 O 711.974 0.880164 -1.58502 0
M  V30 7488 C 712.022 -2.4714 -2.62591 0
M  V30 7489 O 711.126 -1.97025 -3.62291 0
M  V30 7490 H 710.467 -0.50841 -0.427101 0
M  V30 7491 H 712.997 -1.89337 -0.775408 0
M  V30 7492 H 713.007 -2.65048 -3.10183 0
M  V30 7493 H 711.682 -3.47039 -2.29209 0
M  V30 7494 H 710.259 -1.88866 -3.21534 0
M  V30 7495 N 712.444 0.87505 -1.31075 0
M  V30 7496 C 713.354 2.01441 -1.20244 0
M  V30 7497 C 714.37 1.73584 -0.120227 0
M  V30 7498 O 715.546 1.98559 -0.337063 0
M  V30 7499 C 712.611 3.34675 -0.905199 0
M  V30 7500 C 711.672 3.75889 -2.0738 0
M  V30 7501 C 710.905 5.02764 -1.79064 0
M  V30 7502 O 711.128 5.65795 -0.723318 0
M  V30 7503 O 710.062 5.40623 -2.64594 0
M  V30 7504 H 713.888 2.13509 -2.1598 0
M  V30 7505 H 711.473 1.00257 -1.10765 0
M  V30 7506 H 713.355 4.1458 -0.755057 0
M  V30 7507 H 712.03 3.23692 0.0221695 0
M  V30 7508 H 710.937 2.96645 -2.27931 0
M  V30 7509 H 712.27 3.91489 -2.98324 0
M  V30 7510 N 713.922 1.13953 1.08869 0
M  V30 7511 C 715.162 0.915128 1.8277 0
M  V30 7512 C 715.526 -0.548647 1.83994 0
M  V30 7513 O 716.727 -0.890817 2.5361 0
M  V30 7514 C 714.998 1.49382 3.24684 0
M  V30 7515 S 716.557 1.4103 4.15519 0
M  V30 7516 H 713.375 0.329716 0.629927 0
M  V30 7517 H 715.977 1.45213 1.30895 0
M  V30 7518 H 714.681 2.55241 3.21372 0
M  V30 7519 H 714.212 0.955008 3.81632 0
M  V30 7520 H 716.227 0.392617 4.94644 0
M  V30 7521 N 715.4 -1.26948 0.933913 0
M  V30 7522 C 716.625 -1.98724 0.593589 0
M  V30 7523 C 717.05 -1.6915 -0.822801 0
M  V30 7524 O 716.408 -0.93533 -1.5531 0
M  V30 7525 C 716.456 -3.50834 0.833542 0
M  V30 7526 O 715.56 -4.12284 -0.0978788 0
M  V30 7527 H 714.901 -0.623683 0.227849 0
M  V30 7528 H 717.431 -1.61599 1.25486 0
M  V30 7529 H 717.441 -4.01018 0.75156 0
M  V30 7530 H 716.116 -3.71691 1.86597 0
M  V30 7531 H 714.693 -3.72884 0.0345443 0
M  V30 7532 N 716.879 -0.700114 -1.41195 0
M  V30 7533 C 718.104 -0.240704 -2.05998 0
M  V30 7534 C 718.529 1.10313 -1.52357 0
M  V30 7535 O 717.887 1.69154 -0.652424 0
M  V30 7536 C 717.935 -0.213783 -3.59966 0
M  V30 7537 O 717.039 0.809933 -4.04368 0
M  V30 7538 H 716.38 -0.116471 -0.653705 0
M  V30 7539 H 718.91 -0.956251 -1.80878 0
M  V30 7540 H 718.92 -0.0461852 -4.07974 0
M  V30 7541 H 717.595 -1.19454 -3.98376 0
M  V30 7542 H 716.172 0.611319 -3.67855 0
M  V30 7543 N 718.357 1.51182 -0.445186 0
M  V30 7544 C 719.582 2.07056 0.119445 0
M  V30 7545 C 720.007 1.30966 1.35016 0
M  V30 7546 O 719.365 0.349827 1.77893 0
M  V30 7547 C 719.413 3.58234 0.412428 0
M  V30 7548 O 718.517 3.84249 1.49754 0
M  V30 7549 H 717.858 0.663998 -0.00157797 0
M  V30 7550 H 720.388 1.94699 -0.628779 0
M  V30 7551 H 720.398 4.02617 0.660583 0
M  V30 7552 H 719.073 4.13038 -0.487049 0
M  V30 7553 H 717.65 3.51724 1.23873 0
M  V30 7554 N 719.835 0.176821 1.56605 0
M  V30 7555 C 721.251 -0.179278 1.5859 0
M  V30 7556 C 721.451 -1.62433 1.19238 0
M  V30 7557 O 720.507 -2.35665 0.906552 0
M  V30 7558 C 721.82 0.106524 3.00511 0
M  V30 7559 C 723.368 0.0451731 3.12967 0
M  V30 7560 C 723.843 0.304038 4.5699 0
M  V30 7561 N 725.334 0.252008 4.62514 0
M  V30 7562 C 726.069 0.426404 5.71812 0
M  V30 7563 N 725.565 0.660155 6.89648 0
M  V30 7564 N 727.358 0.361926 5.60934 0
M  V30 7565 H 719.509 1.12001 1.8047 0
M  V30 7566 H 721.772 0.445679 0.836704 0
M  V30 7567 H 721.478 1.10778 3.33798 0
M  V30 7568 H 721.352 -0.599337 3.72408 0
M  V30 7569 H 723.739 -0.946662 2.79504 0
M  V30 7570 H 723.82 0.78383 2.43495 0
M  V30 7571 H 723.464 1.29311 4.91163 0
M  V30 7572 H 723.394 -0.455294 5.24628 0
M  V30 7573 H 725.885 0.0772102 3.77821 0
M  V30 7574 H 726.198 0.782529 7.68828 0
M  V30 7575 H 724.543 0.696835 6.91498 0
M  V30 7576 H 727.734 0.17986 4.67754 0
M  V30 7577 H 727.907 0.501263 6.46058 0
M  V30 7578 N 721.313 -1.57302 -0.09688 0
M  V30 7579 C 722.559 -1.87144 -0.796778 0
M  V30 7580 C 722.914 -0.767428 -1.76432 0
M  V30 7581 O 722.207 0.230728 -1.90206 0
M  V30 7582 C 722.401 -3.21272 -1.56586 0
M  V30 7583 C 722.23 -4.44616 -0.674295 0
M  V30 7584 C 721 -5.04281 -0.320705 0
M  V30 7585 C 723.198 -5.14297 0.0179445 0
M  V30 7586 N 721.18 -6.11162 0.579206 0
M  V30 7587 C 722.551 -6.15125 0.775992 0
M  V30 7588 C 724.606 -4.97815 0.0920521 0
M  V30 7589 C 723.309 -7.01251 1.60122 0
M  V30 7590 C 725.335 -5.84447 0.904175 0
M  V30 7591 C 724.697 -6.84794 1.65035 0
M  V30 7592 H 720.796 -0.734721 -0.267787 0
M  V30 7593 H 723.38 -1.94609 -0.0593955 0
M  V30 7594 H 721.551 -3.14862 -2.27413 0
M  V30 7595 H 723.283 -3.38846 -2.21281 0
M  V30 7596 H 720.038 -4.68866 -0.667961 0
M  V30 7597 H 720.462 -6.69247 1.02166 0
M  V30 7598 H 725.104 -4.20174 -0.470492 0
M  V30 7599 H 722.822 -7.78284 2.17484 0
M  V30 7600 H 726.408 -5.73755 0.964165 0
M  V30 7601 H 725.288 -7.50668 2.26864 0
M  V30 7602 N 722.791 0.367657 -1.53252 0
M  V30 7603 C 723.701 1.47415 -1.82499 0
M  V30 7604 C 724.717 1.58711 -0.713222 0
M  V30 7605 O 725.893 1.74644 -1.00306 0
M  V30 7606 C 722.958 2.82706 -2.00694 0
M  V30 7607 C 722.019 2.80955 -3.24596 0
M  V30 7608 C 721.252 4.09793 -3.41914 0
M  V30 7609 O 721.475 5.05852 -2.63572 0
M  V30 7610 O 720.409 4.15731 -4.3526 0
M  V30 7611 H 724.235 1.25624 -2.765 0
M  V30 7612 H 721.82 0.557559 -1.38606 0
M  V30 7613 H 723.702 3.62873 -2.14246 0
M  V30 7614 H 722.377 3.04479 -1.09883 0
M  V30 7615 H 721.284 1.99494 -3.16469 0
M  V30 7616 H 722.617 2.64136 -4.15323 0
M  V30 7617 N 724.269 1.44576 0.627338 0
M  V30 7618 C 725.685 1.28546 0.945938 0
M  V30 7619 C 725.885 0.224003 2.00251 0
M  V30 7620 O 724.941 -0.388817 2.49488 0
M  V30 7621 C 726.254 2.65825 1.40561 0
M  V30 7622 C 727.802 2.73566 1.52088 0
M  V30 7623 C 728.277 4.11323 2.01438 0
M  V30 7624 N 729.768 4.13519 2.08702 0
M  V30 7625 C 730.503 5.16964 2.48065 0
M  V30 7626 N 729.999 6.30768 2.86538 0
M  V30 7627 N 731.792 5.04319 2.48232 0
M  V30 7628 H 723.943 2.1228 -0.0713567 0
M  V30 7629 H 726.206 0.947503 0.0307081 0
M  V30 7630 H 725.912 3.44591 0.703539 0
M  V30 7631 H 725.786 2.92969 2.37591 0
M  V30 7632 H 728.173 1.95116 2.21391 0
M  V30 7633 H 728.254 2.50159 0.534237 0
M  V30 7634 H 727.898 4.9025 1.32729 0
M  V30 7635 H 727.828 4.32109 3.0098 0
M  V30 7636 H 730.319 3.31385 1.81638 0
M  V30 7637 H 730.632 7.0551 3.15398 0
M  V30 7638 H 728.977 6.342 2.84281 0
M  V30 7639 H 732.168 4.14465 2.17569 0
M  V30 7640 H 732.341 5.85059 2.78585 0
M  V30 7641 O 725.786 -0.770871 1.41915 0
M  V30 7642 H 726.477 -1.41834 1.31919 0
M  V30 END ATOM
M  V30 BEGIN BOND
M  V30 END BOND
M  V30 END CTAB
M  END
$$$$
