drugbank_target|P95029 Probable fatty acid synthase Fas (Fatty acid synthetase) (DB00339; DB05154)
 OpenBabel12092121203D

  0  0  0     0  0            999 V3000
M  V30 BEGIN CTAB
M  V30 COUNTS 45771 46235 0 0 0
M  V30 BEGIN ATOM
M  V30 1 H -0.908 1.98254 -0.117106 0
M  V30 2 N 0 1.576 0 0
M  V30 3 C 0.933 2.03868 1.02534 0
M  V30 4 C 1.911 0.928543 1.3348 0
M  V30 5 O 3.095 1.19667 1.45644 0
M  V30 6 C 0.222 2.43627 2.35294 0
M  V30 7 C -0.732 3.65373 2.2001 0
M  V30 8 S 0.101 5.13292 1.52614 0
M  V30 9 C 1.257 5.56322 2.86805 0
M  V30 10 H 1.49 2.90518 0.631377 0
M  V30 11 H -0.977 1.52953 0.210867 0
M  V30 12 H 0.981 2.67203 3.11629 0
M  V30 13 H -0.358 1.57376 2.7183 0
M  V30 14 H -1.165 3.90944 3.18086 0
M  V30 15 H -1.563 3.418 1.51819 0
M  V30 16 H 0.729 5.58782 3.83104 0
M  V30 17 H 1.672 6.56266 2.65933 0
M  V30 18 H 2.08 4.83886 2.90714 0
M  V30 19 N 1.4781 -0.272755 1.55222 0
M  V30 20 C 2.7061 -1.02255 1.79865 0
M  V30 21 C 3.1211 -1.79924 0.572088 0
M  V30 22 O 2.4781 -1.76638 -0.458842 0
M  V30 23 C 2.5291 -1.98094 3.02392 0
M  V30 24 O 2.2501 -1.23572 4.20311 0
M  V30 25 C 3.7511 -2.84884 3.39641 0
M  V30 26 H 0.9711 -0.302057 0.599168 0
M  V30 27 H 3.5151 -0.303465 2.02236 0
M  V30 28 H 1.6701 -2.65465 2.82147 0
M  V30 29 H 2.0841 -1.88172 4.89583 0
M  V30 30 H 3.5581 -3.47927 4.28545 0
M  V30 31 H 4.0351 -3.54665 2.59055 0
M  V30 32 H 4.6411 -2.23003 3.62146 0
M  V30 33 N 2.9562 -1.48159 -0.537278 0
M  V30 34 C 4.2052 -1.5506 -1.28993 0
M  V30 35 C 4.5182 -0.226211 -1.94288 0
M  V30 36 O 5.7242 -0.173395 -2.70946 0
M  V30 37 C 4.1802 -2.73429 -2.34018 0
M  V30 38 C 3.7882 -4.1248 -1.74825 0
M  V30 39 C 5.5322 -2.89638 -3.10339 0
M  V30 40 C 3.4392 -5.22121 -2.77747 0
M  V30 41 H 2.3692 -0.577231 -0.485098 0
M  V30 42 H 5.0202 -1.74478 -0.568317 0
M  V30 43 H 3.4022 -2.47431 -3.09182 0
M  V30 44 H 4.5762 -4.48466 -1.05899 0
M  V30 45 H 2.8912 -4.01327 -1.11022 0
M  V30 46 H 5.4882 -3.68718 -3.87235 0
M  V30 47 H 5.8312 -1.9882 -3.65754 0
M  V30 48 H 6.3642 -3.15502 -2.42288 0
M  V30 49 H 3.1032 -6.1488 -2.27161 0
M  V30 50 H 2.6232 -4.90631 -3.45024 0
M  V30 51 H 4.3022 -5.49924 -3.4087 0
M  V30 52 N 4.4343 0.785586 -1.36625 0
M  V30 53 C 5.3843 1.88822 -1.27789 0
M  V30 54 C 6.3683 1.60014 -0.168579 0
M  V30 55 O 7.5603 1.72381 -0.401737 0
M  V30 56 C 4.6893 3.26092 -1.07327 0
M  V30 57 C 3.7753 3.60897 -2.22743 0
M  V30 58 N 4.1663 3.66982 -3.48077 0
M  V30 59 C 2.4643 3.90981 -2.14593 0
M  V30 60 C 3.1653 3.98137 -4.24101 0
M  V30 61 N 2.1413 4.13319 -3.53084 0
M  V30 62 H 5.9433 1.91759 -2.22723 0
M  V30 63 H 3.4573 0.981311 -1.29399 0
M  V30 64 H 5.4543 4.04954 -0.990842 0
M  V30 65 H 4.1143 3.24428 -0.132977 0
M  V30 66 H 5.1253 3.49531 -3.82163 0
M  V30 67 H 1.8023 3.9722 -1.2854 0
M  V30 68 H 3.1923 4.09737 -5.32509 0
M  V30 69 N 5.9124 1.20967 1.01018 0
M  V30 70 C 6.8224 0.980157 2.13143 0
M  V30 71 C 7.8384 -0.0660665 1.73875 0
M  V30 72 O 9.0144 0.122821 2.01025 0
M  V30 73 C 6.0794 0.54216 3.42435 0
M  V30 74 C 5.1404 1.65999 3.95908 0
M  V30 75 C 4.3734 1.2428 5.19028 0
M  V30 76 O 4.5964 0.114196 5.70286 0
M  V30 77 O 3.5304 2.05271 5.65816 0
M  V30 78 H 7.3564 1.91913 2.35379 0
M  V30 79 H 4.9414 0.994099 1.11526 0
M  V30 80 H 6.8234 0.30744 4.20277 0
M  V30 81 H 5.4984 -0.36815 3.216 0
M  V30 82 H 4.4054 1.94906 3.19316 0
M  V30 83 H 5.7384 2.54753 4.21143 0
M  V30 84 N 7.3905 -1.2043 1.01659 0
M  V30 85 C 8.3405 -2.21076 0.557623 0
M  V30 86 C 9.3245 -1.56176 -0.387029 0
M  V30 87 O 10.5165 -1.7575 -0.209996 0
M  V30 88 C 7.6455 -3.43146 -0.102707 0
M  V30 89 C 6.7315 -4.15213 0.863652 0
M  V30 90 N 7.1225 -4.63662 2.02117 0
M  V30 91 C 5.4205 -4.40716 0.684472 0
M  V30 92 C 6.1215 -5.18868 2.62966 0
M  V30 93 N 5.0975 -5.0893 1.91027 0
M  V30 94 H 8.8995 -2.56201 1.44008 0
M  V30 95 H 6.4135 -1.36366 0.881931 0
M  V30 96 H 8.4105 -4.14475 -0.449054 0
M  V30 97 H 7.0705 -3.09526 -0.981003 0
M  V30 98 H 8.0815 -4.58877 2.40109 0
M  V30 99 H 4.7585 -4.17245 -0.14577 0
M  V30 100 H 6.1485 -5.6673 3.60924 0
M  V30 101 N 8.8686 -0.792821 -1.36206 0
M  V30 102 C 10.1456 -0.290627 -1.93429 0
M  V30 103 C 10.5256 1.21773 -1.72437 0
M  V30 104 O 9.8736 2.0108 -1.08531 0
M  V30 105 C 10.0836 -0.686973 -3.42172 0
M  V30 106 C 11.4316 -0.668643 -4.19302 0
M  V30 107 O 12.4556 -0.627658 -3.50626 0
M  V30 108 O 11.3146 -0.714597 -5.41808 0
M  V30 109 H 8.4086 -0.0727927 -0.82379 0
M  V30 110 H 10.9546 -0.875593 -1.45367 0
M  V30 111 H 9.7266 -1.72711 -3.51122 0
M  V30 112 H 9.3496 -0.0760733 -3.97527 0
M  V30 113 N 10.3467 1.47872 -0.545128 0
M  V30 114 C 11.7627 1.5829 -0.204032 0
M  V30 115 C 11.9627 1.54529 1.29317 0
M  V30 116 O 11.0187 1.44232 2.07252 0
M  V30 117 C 12.3317 2.89304 -0.819987 0
M  V30 118 C 13.8797 3.02864 -0.790105 0
M  V30 119 C 14.3547 4.3656 -1.38491 0
M  V30 120 N 15.8457 4.43165 -1.34755 0
M  V30 121 C 16.5807 5.45153 -1.77753 0
M  V30 122 N 16.0767 6.54016 -2.2855 0
M  V30 123 N 17.8697 5.36125 -1.68897 0
M  V30 124 H 10.0207 1.4856 -1.51802 0
M  V30 125 H 12.2837 0.706305 -0.632327 0
M  V30 126 H 11.9897 2.97757 -1.87173 0
M  V30 127 H 11.8637 3.75957 -0.305915 0
M  V30 128 H 14.2507 2.94014 0.252913 0
M  V30 129 H 14.3317 2.17782 -1.34181 0
M  V30 130 H 13.9757 4.46164 -2.42693 0
M  V30 131 H 13.9057 5.20353 -0.808754 0
M  V30 132 H 16.3967 3.65083 -0.975855 0
M  V30 133 H 16.7097 7.27994 -2.59314 0
M  V30 134 H 15.0547 6.54938 -2.32553 0
M  V30 135 H 18.2457 4.49975 -1.28998 0
M  V30 136 H 18.4187 6.15472 -2.02726 0
M  V30 137 N 11.8248 0.280983 1.55075 0
M  V30 138 C 13.0708 -0.33461 2.00021 0
M  V30 139 C 13.4038 -1.55063 1.16915 0
M  V30 140 O 12.6788 -1.93006 0.240646 0
M  V30 141 C 12.9618 -0.711007 3.53011 0
M  V30 142 C 12.8148 0.512766 4.46868 0
M  V30 143 C 14.1338 -1.54522 4.12081 0
M  V30 144 H 11.2528 -0.120147 0.727141 0
M  V30 145 H 13.8948 0.389097 1.85973 0
M  V30 146 H 12.0448 -1.32761 3.65112 0
M  V30 147 H 13.7168 1.15131 4.46702 0
M  V30 148 H 11.9598 1.14975 4.18286 0
M  V30 149 H 12.6308 0.205556 5.51617 0
M  V30 150 H 15.1068 -1.02442 4.03293 0
M  V30 151 H 13.9828 -1.77739 5.19327 0
M  V30 152 H 14.2438 -2.52813 3.62682 0
M  V30 153 N 13.3029 -1.57598 0.00835791 0
M  V30 154 C 14.5279 -1.95617 -0.689103 0
M  V30 155 C 14.9529 -0.883753 -1.66046 0
M  V30 156 O 14.3109 0.157352 -1.80616 0
M  V30 157 C 14.3589 -3.32736 -1.38994 0
M  V30 158 O 13.4629 -3.27631 -2.50463 0
M  V30 159 H 12.8039 -0.638379 -0.182668 0
M  V30 160 H 15.3339 -2.045 0.064036 0
M  V30 161 H 15.3439 -3.68494 -1.75147 0
M  V30 162 H 14.0189 -4.1034 -0.677778 0
M  V30 163 H 12.5959 -3.03561 -2.16576 0
M  V30 164 N 14.781 0.264519 -1.55364 0
M  V30 165 C 15.744 1.31046 -1.88042 0
M  V30 166 C 16.744 1.41943 -0.755569 0
M  V30 167 O 17.934 1.40947 -1.02369 0
M  V30 168 C 15.066 2.69067 -2.09323 0
M  V30 169 H 16.259 1.03297 -2.81549 0
M  V30 170 H 13.812 0.502989 -1.47986 0
M  V30 171 H 14.547 3.01982 -1.18226 0
M  V30 172 H 14.332 2.62542 -2.91229 0
M  V30 173 H 15.822 3.44623 -2.35848 0
M  V30 174 N 16.2591 1.48442 0.529413 0
M  V30 175 C 17.5361 1.46978 1.29062 0
M  V30 176 C 17.9161 0.181769 2.10316 0
M  V30 177 O 17.2641 -0.836481 2.12639 0
M  V30 178 C 17.4741 2.7321 2.17157 0
M  V30 179 C 18.8221 3.21562 2.77278 0
M  V30 180 O 19.8461 2.74131 2.27444 0
M  V30 181 O 18.7051 4.04094 3.67927 0
M  V30 182 H 15.7991 0.587003 0.582543 0
M  V30 183 H 18.3451 1.60676 0.546021 0
M  V30 184 H 17.1171 3.58465 1.56903 0
M  V30 185 H 16.7401 2.62235 2.98862 0
M  V30 186 N 17.7372 -0.778329 1.37039 0
M  V30 187 C 19.1532 -1.07796 1.17695 0
M  V30 188 C 19.3532 -2.01498 0.00860115 0
M  V30 189 O 18.4092 -2.43901 -0.653352 0
M  V30 190 C 19.7222 -1.68178 2.49272 0
M  V30 191 C 21.2702 -1.80467 2.55735 0
M  V30 192 C 21.7452 -2.44263 3.87427 0
M  V30 193 N 23.2362 -2.51721 3.88833 0
M  V30 194 C 23.9712 -3.01919 4.87476 0
M  V30 195 N 23.4672 -3.5234 5.96513 0
M  V30 196 N 25.2602 -3.00733 4.74885 0
M  V30 197 H 17.4112 -0.156032 2.11826 0
M  V30 198 H 19.6742 -0.131844 0.938787 0
M  V30 199 H 19.3802 -1.06796 3.35093 0
M  V30 200 H 19.2542 -2.67554 2.65885 0
M  V30 201 H 21.6412 -2.40984 1.70325 0
M  V30 202 H 21.7222 -0.798656 2.43013 0
M  V30 203 H 21.3662 -1.84388 4.73248 0
M  V30 204 H 21.2962 -3.45458 3.9745 0
M  V30 205 H 23.7872 -2.1603 3.10063 0
M  V30 206 H 24.1002 -3.89027 6.67741 0
M  V30 207 H 22.4452 -3.50462 6.00168 0
M  V30 208 H 25.6362 -2.60638 3.88826 0
M  V30 209 H 25.8092 -3.39545 5.51918 0
M  V30 210 N 19.2153 -1.21501 -1.00376 0
M  V30 211 C 20.4633 -1.03095 -1.73827 0
M  V30 212 C 20.7843 0.436341 -1.90055 0
M  V30 213 O 20.0543 1.31466 -1.45236 0
M  V30 214 H 18.6343 -0.378487 -0.644016 0
M  V30 215 H 21.2963 -1.52831 -1.20949 0
M  V30 216 H 20.3923 -1.49991 -2.73695 0
M  V30 217 N 20.6934 1.19889 -1.02296 0
M  V30 218 C 21.9414 1.89046 -0.714558 0
M  V30 219 C 22.2624 1.79636 0.758681 0
M  V30 220 O 21.5324 1.20292 1.54618 0
M  V30 221 H 20.1124 0.699802 -0.261317 0
M  V30 222 H 22.7744 1.45574 -1.29592 0
M  V30 223 H 21.8704 2.95524 -1.0036 0
M  V30 224 N 22.1715 0.800033 1.35784 0
M  V30 225 C 23.4485 0.30088 1.93272 0
M  V30 226 C 23.8285 -1.20857 1.73081 0
M  V30 227 O 23.1765 -2.00502 1.09596 0
M  V30 228 C 23.3865 0.70511 3.41803 0
M  V30 229 C 24.7345 0.690871 4.18942 0
M  V30 230 O 25.7585 0.646244 3.50289 0
M  V30 231 O 24.6175 0.74332 5.41421 0
M  V30 232 H 21.7115 0.0771605 0.823393 0
M  V30 233 H 24.2575 0.88329 1.449 0
M  V30 234 H 23.0295 1.74571 3.50201 0
M  V30 235 H 22.6525 0.0971541 3.97481 0
M  V30 236 N 23.6496 -1.47581 0.552962 0
M  V30 237 C 24.8746 -2.07378 0.0300593 0
M  V30 238 C 25.2996 -1.40355 -1.25229 0
M  V30 239 O 24.6576 -0.477099 -1.7491 0
M  V30 240 C 24.7056 -3.60274 -0.153231 0
M  V30 241 O 23.8096 -3.94041 -1.21678 0
M  V30 242 H 23.1506 -0.662158 0.0494182 0
M  V30 243 H 25.6806 -1.89662 0.767434 0
M  V30 244 H 25.6906 -4.0633 -0.368761 0
M  V30 245 H 24.3656 -4.08455 0.783397 0
M  V30 246 H 22.9426 -3.59735 -0.982079 0
M  V30 247 N 25.1277 -0.289203 -1.54924 0
M  V30 248 C 26.5387 0.205791 -1.85562 0
M  V30 249 C 26.8897 1.54351 -1.2112 0
M  V30 250 O 26.0147 2.10435 -0.504601 0
M  V30 251 C 26.6097 0.380177 -3.3666 0
M  V30 252 C 25.1687 0.819395 -3.67373 0
M  V30 253 C 24.3157 -0.079159 -2.77187 0
M  V30 254 H 27.2667 -0.510577 -1.50262 0
M  V30 255 H 27.2877 1.21659 -3.60526 0
M  V30 256 H 26.7997 -0.593589 -3.83534 0
M  V30 257 H 24.9007 1.80413 -3.26009 0
M  V30 258 H 25.0137 0.646957 -4.74712 0
M  V30 259 H 23.3777 0.439565 -2.50878 0
M  V30 260 H 24.1607 -1.04906 -3.26878 0
M  V30 261 N 26.6058 1.57591 -0.0167156 0
M  V30 262 C 27.5558 2.05953 0.978137 0
M  V30 263 C 28.5398 0.957532 1.29306 0
M  V30 264 O 29.7318 1.22119 1.28125 0
M  V30 265 C 26.8608 2.58006 2.26468 0
M  V30 266 C 25.9468 3.75113 1.97867 0
M  V30 267 N 26.3378 4.86187 1.39486 0
M  V30 268 C 24.6358 3.83363 2.27924 0
M  V30 269 C 25.3368 5.67502 1.27735 0
M  V30 270 N 24.3128 5.14023 1.76866 0
M  V30 271 H 28.1148 2.89236 0.521522 0
M  V30 272 H 25.6288 1.61301 0.188596 0
M  V30 273 H 27.6258 2.90937 2.98599 0
M  V30 274 H 26.2858 1.76148 2.72767 0
M  V30 275 H 27.2968 5.06695 1.07147 0
M  V30 276 H 23.9738 3.1239 2.76982 0
M  V30 277 H 25.3638 6.66791 0.826978 0
M  V30 278 N 28.0839 -0.256276 1.55502 0
M  V30 279 C 29.3119 -1.00342 1.8094 0
M  V30 280 C 29.7269 -1.79307 0.59114 0
M  V30 281 O 29.0839 -1.77114 -0.440081 0
M  V30 282 C 29.1349 -1.94875 3.04476 0
M  V30 283 O 28.8559 -1.19107 4.21598 0
M  V30 284 C 30.3569 -2.81266 3.42644 0
M  V30 285 H 27.5769 -0.295685 0.602338 0
M  V30 286 H 30.1209 -0.281998 2.02546 0
M  V30 287 H 28.2759 -2.62457 2.84947 0
M  V30 288 H 28.6899 -1.82969 4.91551 0
M  V30 289 H 30.1639 -3.43362 4.32211 0
M  V30 290 H 30.6409 -3.51897 2.62802 0
M  V30 291 H 31.2469 -2.1915 3.64491 0
M  V30 292 N 29.562 -1.4872 -0.521534 0
M  V30 293 C 30.79 -1.60843 -1.30142 0
M  V30 294 C 31.205 -0.271897 -1.86832 0
M  V30 295 O 30.562 0.739969 -1.66825 0
M  V30 296 C 30.613 -2.66155 -2.4463 0
M  V30 297 O 30.334 -3.94623 -1.90275 0
M  V30 298 C 31.835 -2.88795 -3.36322 0
M  V30 299 H 29.055 -0.542075 -0.395468 0
M  V30 300 H 31.599 -1.94609 -0.628285 0
M  V30 301 H 29.754 -2.35224 -3.07812 0
M  V30 302 H 30.168 -4.52468 -2.65279 0
M  V30 303 H 31.642 -3.66264 -4.12983 0
M  V30 304 H 32.119 -1.97934 -3.9207 0
M  V30 305 H 32.725 -3.21063 -2.78924 0
M  V30 306 N 31.0401 0.771051 -1.3745 0
M  V30 307 C 31.9901 1.87456 -1.29785 0
M  V30 308 C 32.9741 1.59827 -0.185541 0
M  V30 309 O 34.1661 1.71945 -0.419997 0
M  V30 310 C 31.2951 3.24935 -1.1078 0
M  V30 311 C 30.3811 3.58514 -2.26558 0
M  V30 312 N 30.7721 3.6327 -3.5195 0
M  V30 313 C 29.0701 3.88683 -2.18727 0
M  V30 314 C 29.7711 3.93616 -4.283 0
M  V30 315 N 28.7471 4.09551 -3.57448 0
M  V30 316 H 32.5491 1.89386 -2.24745 0
M  V30 317 H 30.0631 0.967531 -1.30432 0
M  V30 318 H 32.0601 4.03881 -1.03374 0
M  V30 319 H 30.7201 3.24268 -0.16738 0
M  V30 320 H 31.7311 3.45458 -3.85848 0
M  V30 321 H 28.4081 3.95834 -1.32746 0
M  V30 322 H 29.7981 4.04066 -5.36824 0
M  V30 323 N 32.5182 1.22032 0.997298 0
M  V30 324 C 33.4812 0.987909 2.06816 0
M  V30 325 C 34.4812 -0.0440084 1.6074 0
M  V30 326 O 35.6712 0.194053 1.73116 0
M  V30 327 C 32.8032 0.49132 3.37341 0
M  V30 328 H 33.9962 1.93803 2.28868 0
M  V30 329 H 31.5492 1.03838 1.16822 0
M  V30 330 H 32.2842 -0.463364 3.20973 0
M  V30 331 H 32.0692 1.23575 3.72118 0
M  V30 332 H 33.5592 0.348824 4.16141 0
M  V30 333 N 33.9963 -1.19345 1.0293 0
M  V30 334 C 34.9263 -2.2481 0.631105 0
M  V30 335 C 35.9073 -1.66245 -0.360104 0
M  V30 336 O 37.0923 -1.92677 -0.242726 0
M  V30 337 C 34.2223 -3.47295 -0.0184607 0
M  V30 338 C 33.1763 -4.18536 0.895073 0
M  V30 339 C 32.5023 -5.34586 0.110592 0
M  V30 340 C 33.8023 -4.73287 2.209 0
M  V30 341 H 35.4963 -2.58372 1.51275 0
M  V30 342 H 33.0423 -1.24194 0.728818 0
M  V30 343 H 34.9953 -4.20268 -0.308675 0
M  V30 344 H 33.7193 -3.12933 -0.934907 0
M  V30 345 H 32.3783 -3.47446 1.16949 0
M  V30 346 H 32.0263 -4.96469 -0.807902 0
M  V30 347 H 31.7263 -5.83183 0.719087 0
M  V30 348 H 33.2503 -6.10355 -0.172871 0
M  V30 349 H 34.6643 -5.38013 1.98028 0
M  V30 350 H 33.0613 -5.32373 2.76946 0
M  V30 351 H 34.1313 -3.91331 2.86336 0
M  V30 352 N 35.4744 -0.807222 -1.35358 0
M  V30 353 C 36.7204 -0.388463 -1.99045 0
M  V30 354 C 37.0534 1.04184 -1.63888 0
M  V30 355 O 36.3284 1.72292 -0.902535 0
M  V30 356 C 36.6114 -0.572783 -3.55515 0
M  V30 357 C 36.4644 -2.04807 -4.00468 0
M  V30 358 C 37.7834 0.00114064 -4.401 0
M  V30 359 H 34.9024 -0.142619 -0.723069 0
M  V30 360 H 37.5444 -1.01687 -1.60498 0
M  V30 361 H 35.6944 -0.0378425 -3.88482 0
M  V30 362 H 37.3664 -2.64544 -3.77908 0
M  V30 363 H 35.6094 -2.54427 -3.51353 0
M  V30 364 H 36.2804 -2.12792 -5.09337 0
M  V30 365 H 38.7564 -0.455716 -4.13597 0
M  V30 366 H 37.6324 -0.157737 -5.48673 0
M  V30 367 H 37.8934 1.09488 -4.28328 0
M  V30 368 N 36.9525 1.47285 -0.560781 0
M  V30 369 C 38.2295 1.9558 0.0277798 0
M  V30 370 C 38.6095 1.5034 1.48192 0
M  V30 371 O 37.9575 0.743882 2.16052 0
M  V30 372 C 38.1675 3.48789 -0.121418 0
M  V30 373 C 39.5155 4.24594 0.0220912 0
M  V30 374 O 40.5395 3.56166 -0.0491439 0
M  V30 375 O 39.3985 5.46217 0.175958 0
M  V30 376 H 36.4925 0.824663 0.0621342 0
M  V30 377 H 39.0385 1.5767 -0.627556 0
M  V30 378 H 37.8105 3.74533 -1.13316 0
M  V30 379 H 37.4335 3.93473 0.571366 0
M  V30 380 N 38.4306 0.297415 1.54768 0
M  V30 381 C 39.8466 -0.0560823 1.59501 0
M  V30 382 C 40.0466 -1.52725 1.31444 0
M  V30 383 O 39.1026 -2.27947 1.08611 0
M  V30 384 C 40.4156 0.338631 2.98787 0
M  V30 385 C 41.9636 0.287097 3.11681 0
M  V30 386 C 42.4386 0.656579 4.53269 0
M  V30 387 N 43.9296 0.608977 4.59179 0
M  V30 388 C 44.6646 0.867385 5.66802 0
M  V30 389 N 44.1606 1.19157 6.82476 0
M  V30 390 N 45.9536 0.794687 5.56454 0
M  V30 391 H 38.1046 1.25624 1.71267 0
M  V30 392 H 40.3676 0.509057 0.799728 0
M  V30 393 H 40.0736 1.36263 3.2423 0
M  V30 394 H 39.9476 -0.309508 3.75928 0
M  V30 395 H 42.3346 -0.727649 2.85988 0
M  V30 396 H 42.4156 0.969809 2.36703 0
M  V30 397 H 42.0596 1.66912 4.7969 0
M  V30 398 H 41.9896 -0.0481649 5.26578 0
M  V30 399 H 44.4806 0.369198 3.76092 0
M  V30 400 H 44.7936 1.37482 7.60473 0
M  V30 401 H 43.1386 1.22958 6.84037 0
M  V30 402 H 46.3296 0.541098 4.64962 0
M  V30 403 H 46.5026 0.999445 6.40246 0
M  V30 404 N 39.9087 -1.5758 0.0250728 0
M  V30 405 C 40.8387 -2.13007 -0.956575 0
M  V30 406 C 41.8197 -1.0452 -1.342 0
M  V30 407 O 43.0047 -1.32332 -1.42133 0
M  V30 408 C 40.1347 -2.65386 -2.24026 0
M  V30 409 C 39.0887 -3.78623 -1.99571 0
M  V30 410 C 38.4147 -4.17414 -3.3417 0
M  V30 411 C 39.7147 -5.04867 -1.33814 0
M  V30 412 H 41.4087 -2.9528 -0.494991 0
M  V30 413 H 38.9547 -1.42042 -0.236651 0
M  V30 414 H 40.9077 -3.02794 -2.93076 0
M  V30 415 H 39.6317 -1.80268 -2.72343 0
M  V30 416 H 38.2907 -3.41646 -1.32941 0
M  V30 417 H 37.9387 -3.29284 -3.80238 0
M  V30 418 H 37.6387 -4.93719 -3.18615 0
M  V30 419 H 39.1627 -4.57402 -4.04495 0
M  V30 420 H 40.5767 -5.39888 -1.92857 0
M  V30 421 H 38.9737 -5.86144 -1.28669 0
M  V30 422 H 40.0437 -4.83904 -0.310561 0
M  V30 423 N 41.3868 0.248026 -1.55636 0
M  V30 424 C 42.3198 1.3334 -1.85191 0
M  V30 425 C 43.2978 1.46429 -0.706906 0
M  V30 426 O 44.4818 1.62662 -0.952544 0
M  V30 427 C 41.6088 2.70703 -2.03562 0
M  V30 428 C 40.6548 2.7477 -3.26196 0
M  V30 429 S 41.4878 2.31493 -4.82878 0
M  V30 430 C 42.6438 3.70783 -5.04253 0
M  V30 431 H 42.8768 1.08072 -2.76962 0
M  V30 432 H 40.4098 0.448952 -1.47729 0
M  V30 433 H 42.3678 3.49798 -2.1483 0
M  V30 434 H 41.0288 2.9321 -1.12635 0
M  V30 435 H 40.2218 3.75648 -3.36013 0
M  V30 436 H 39.8238 2.03719 -3.13647 0
M  V30 437 H 42.1158 4.6627 -4.91527 0
M  V30 438 H 43.0588 3.65901 -6.06236 0
M  V30 439 H 43.4668 3.63244 -4.32105 0
M  V30 440 N 42.8649 1.48995 0.513639 0
M  V30 441 C 43.8279 1.64229 1.59879 0
M  V30 442 C 44.8279 0.514696 1.5234 0
M  V30 443 O 46.0179 0.78087 1.55718 0
M  V30 444 C 43.1499 1.62783 2.99524 0
M  V30 445 H 44.3429 2.61004 1.47705 0
M  V30 446 H 41.8959 1.37837 0.736936 0
M  V30 447 H 42.6309 0.675461 3.17188 0
M  V30 448 H 42.4159 2.4466 3.06404 0
M  V30 449 H 43.9059 1.76669 3.78388 0
M  V30 450 N 44.343 -0.763751 1.37857 0
M  V30 451 C 45.591 -1.51957 1.33243 0
M  V30 452 C 45.912 -1.94835 -0.0801709 0
M  V30 453 O 45.182 -1.66894 -1.02582 0
M  V30 454 H 43.762 -0.563626 0.49024 0
M  V30 455 H 46.424 -0.908504 1.7243 0
M  V30 456 H 45.52 -2.41523 1.97669 0
M  V30 457 N 45.8211 -1.22559 -0.990812 0
M  V30 458 C 46.7311 -1.01394 -2.11557 0
M  V30 459 C 47.7471 0.0383962 -1.73958 0
M  V30 460 O 48.9231 -0.154787 -2.00804 0
M  V30 461 C 45.9881 -0.596569 -3.41529 0
M  V30 462 C 45.0491 -1.72276 -3.93217 0
M  V30 463 C 44.2821 -1.32521 -5.16985 0
M  V30 464 O 44.5051 -0.204909 -5.70032 0
M  V30 465 O 43.4391 -2.14247 -5.62478 0
M  V30 466 H 47.2651 -1.95633 -2.32296 0
M  V30 467 H 44.8501 -1.01172 -1.0993 0
M  V30 468 H 46.7321 -0.374263 -4.19735 0
M  V30 469 H 45.4071 0.316939 -3.22145 0
M  V30 470 H 44.3141 -1.99961 -3.16174 0
M  V30 471 H 45.6471 -2.61421 -4.17037 0
M  V30 472 N 47.2992 1.18797 -1.03562 0
M  V30 473 C 48.7102 1.70322 -0.764676 0
M  V30 474 C 49.0612 1.82708 0.714996 0
M  V30 475 O 48.1862 1.50299 1.55689 0
M  V30 476 C 48.7812 3.09356 -1.38145 0
M  V30 477 C 47.3402 3.58114 -1.15895 0
M  V30 478 C 46.4872 2.34798 -1.4753 0
M  V30 479 H 49.4382 1.03543 -1.20268 0
M  V30 480 H 49.4592 3.72378 -0.781977 0
M  V30 481 H 48.9712 3.00309 -2.45837 0
M  V30 482 H 47.0722 3.72464 -0.100544 0
M  V30 483 H 47.1852 4.4184 -1.8524 0
M  V30 484 H 45.5492 2.38464 -0.894829 0
M  V30 485 H 46.3322 2.28375 -2.56319 0
M  V30 486 N 48.7773 0.814389 1.34928 0
M  V30 487 C 50.0073 0.41054 2.0248 0
M  V30 488 C 50.4153 -0.985625 1.61499 0
M  V30 489 O 49.7583 -1.64781 0.811976 0
M  V30 490 C 49.8203 0.423384 3.56998 0
M  V30 491 C 49.4843 1.77141 4.21272 0
M  V30 492 C 50.4813 2.73093 4.42398 0
M  V30 493 C 48.1663 2.05755 4.58225 0
M  V30 494 C 50.1603 3.95838 4.9959 0
M  V30 495 C 47.8473 3.28762 5.1513 0
M  V30 496 C 48.8453 4.23621 5.35755 0
M  V30 497 O 48.5333 5.44456 5.91458 0
M  V30 498 H 48.2653 0.163997 0.655806 0
M  V30 499 H 50.8193 1.10155 1.73364 0
M  V30 500 H 49.0493 -0.324276 3.85338 0
M  V30 501 H 50.7383 0.0407683 4.0588 0
M  V30 502 H 51.5043 2.5228 4.14222 0
M  V30 503 H 47.3833 1.32727 4.4148 0
M  V30 504 H 50.9273 4.69891 5.15605 0
M  V30 505 H 46.8243 3.49443 5.42734 0
M  V30 506 H 47.5923 5.4586 6.09901 0
M  V30 507 N 50.2554 -1.46986 0.568584 0
M  V30 508 C 51.2184 -2.28624 -0.162366 0
M  V30 509 C 52.2184 -1.37596 -0.832103 0
M  V30 510 O 53.4084 -1.60115 -0.68622 0
M  V30 511 C 50.5404 -3.17596 -1.23878 0
M  V30 512 H 51.7334 -2.94722 0.554899 0
M  V30 513 H 49.2864 -1.52863 0.325976 0
M  V30 514 H 50.0214 -2.56214 -1.98808 0
M  V30 515 H 49.8064 -3.846 -0.763219 0
M  V30 516 H 51.2964 -3.79078 -1.75185 0
M  V30 517 N 51.7335 -0.305618 -1.54608 0
M  V30 518 C 52.9795 0.302746 -2.00528 0
M  V30 519 C 53.3125 1.53184 -1.19367 0
M  V30 520 O 52.5875 1.92598 -0.271321 0
M  V30 521 C 52.8705 0.654756 -3.54097 0
M  V30 522 C 52.7235 -0.583793 -4.45995 0
M  V30 523 C 54.0425 1.47947 -4.14487 0
M  V30 524 H 51.1615 0.108564 -0.72896 0
M  V30 525 H 53.8035 -0.418634 -1.85331 0
M  V30 526 H 51.9535 1.26935 -3.67178 0
M  V30 527 H 53.6255 -1.22224 -4.44814 0
M  V30 528 H 51.8685 -1.21615 -4.16404 0
M  V30 529 H 52.5395 -0.293287 -5.5122 0
M  V30 530 H 55.0155 0.96013 -4.04871 0
M  V30 531 H 53.8915 1.69454 -5.22088 0
M  V30 532 H 54.1525 2.47011 -3.66658 0
M  V30 533 N 53.2116 1.57565 -0.0334293 0
M  V30 534 C 54.1746 2.09393 0.932048 0
M  V30 535 C 55.1746 1.00986 1.25134 0
M  V30 536 O 56.3646 1.27129 1.19096 0
M  V30 537 C 53.4966 2.56338 2.2473 0
M  V30 538 H 54.6896 2.95984 0.483085 0
M  V30 539 H 52.2426 1.54819 0.21468 0
M  V30 540 H 52.9776 1.7309 2.74245 0
M  V30 541 H 52.7626 3.35542 2.02865 0
M  V30 542 H 54.2526 2.96646 2.93923 0
M  V30 543 N 54.6897 -0.239769 1.55765 0
M  V30 544 C 55.9367 -0.966801 1.7793 0
M  V30 545 C 56.2647 -1.85046 0.599015 0
M  V30 546 O 55.5197 -1.91197 -0.417395 0
M  V30 547 C 55.8187 -1.852 3.05672 0
M  V30 548 C 55.4847 -1.1231 4.36689 0
M  V30 549 C 54.1467 -0.921689 4.72291 0
M  V30 550 C 56.4987 -0.607019 5.17653 0
M  V30 551 C 53.8267 -0.191996 5.86386 0
M  V30 552 C 56.1787 0.109241 6.32506 0
M  V30 553 C 54.8427 0.322073 6.66723 0
M  V30 554 H 54.1127 -0.353778 0.651093 0
M  V30 555 H 56.7597 -0.23634 1.90036 0
M  V30 556 H 55.0647 -2.64975 2.8861 0
M  V30 557 H 56.7617 -2.41635 3.20021 0
M  V30 558 H 53.3517 -1.29004 4.08725 0
M  V30 559 H 57.5357 -0.750153 4.90598 0
M  V30 560 H 52.7917 -0.0166949 6.11398 0
M  V30 561 H 56.9657 0.516737 6.9448 0
M  V30 562 H 54.5927 0.88944 7.54979 0
M  V30 563 N 56.1678 -1.49265 -0.50573 0
M  V30 564 C 57.4158 -1.582 -1.25766 0
M  V30 565 C 57.7368 -0.268482 -1.93143 0
M  V30 566 O 57.0068 0.711833 -1.8251 0
M  V30 567 H 55.5868 -0.582873 -0.467191 0
M  V30 568 H 58.2488 -1.85865 -0.586525 0
M  V30 569 H 57.3448 -2.37563 -2.02412 0
M  V30 570 N 57.6459 0.756429 -1.3826 0
M  V30 571 C 58.8939 1.51248 -1.34047 0
M  V30 572 C 59.2149 1.94875 0.0698372 0
M  V30 573 O 58.4849 1.67436 1.01696 0
M  V30 574 H 57.0649 0.561018 -0.493222 0
M  V30 575 H 59.7269 0.899347 -1.7291 0
M  V30 576 H 58.8229 2.40472 -1.98947 0
M  V30 577 N 59.124 1.23083 0.984299 0
M  V30 578 C 60.056 0.96636 2.07832 0
M  V30 579 C 61.069 -0.0582135 1.62696 0
M  V30 580 O 62.258 0.176843 1.77622 0
M  V30 581 C 59.358 0.433397 3.36117 0
M  V30 582 C 58.531 1.51722 4.10243 0
M  V30 583 C 57.59 0.989821 5.16807 0
M  V30 584 O 56.616 1.67794 5.43906 0
M  V30 585 N 57.818 -0.184367 5.80207 0
M  V30 586 H 60.583 1.90824 2.31098 0
M  V30 587 H 58.144 1.13888 1.1507 0
M  V30 588 H 60.136 0.065699 4.04647 0
M  V30 589 H 58.706 -0.413806 3.09849 0
M  V30 590 H 57.926 2.05786 3.36223 0
M  V30 591 H 59.214 2.24619 4.56534 0
M  V30 592 H 58.612 -0.760062 5.60571 0
M  V30 593 H 57.169 -0.493366 6.4993 0
M  V30 594 N 60.6021 -1.18246 1.0419 0
M  V30 595 C 61.8501 -1.87886 0.744543 0
M  V30 596 C 62.1711 -1.8082 -0.730006 0
M  V30 597 O 61.4411 -1.22736 -1.52685 0
M  V30 598 H 60.0211 -0.695556 0.272417 0
M  V30 599 H 62.6831 -1.43494 1.31892 0
M  V30 600 H 61.7791 -2.9389 1.05049 0
M  V30 601 N 62.0802 -0.821533 -1.34494 0
M  V30 602 C 63.3052 -0.420873 -2.03085 0
M  V30 603 C 63.7302 0.964915 -1.61465 0
M  V30 604 O 63.0882 1.62763 -0.798607 0
M  V30 605 C 63.1362 -0.529414 -3.56693 0
M  V30 606 O 62.2402 0.451302 -4.09923 0
M  V30 607 H 61.5812 -0.173489 -0.640935 0
M  V30 608 H 64.1112 -1.11157 -1.71771 0
M  V30 609 H 64.1212 -0.404671 -4.05988 0
M  V30 610 H 62.7962 -1.54014 -3.86332 0
M  V30 611 H 61.3732 0.285558 -3.71805 0
M  V30 612 N 63.5583 1.46682 -0.576371 0
M  V30 613 C 64.5213 2.28707 0.150239 0
M  V30 614 C 65.5213 1.38035 0.824794 0
M  V30 615 O 66.7113 1.60476 0.677719 0
M  V30 616 C 63.8433 3.18248 1.22192 0
M  V30 617 H 65.0363 2.94423 -0.570521 0
M  V30 618 H 62.5893 1.52688 -0.334078 0
M  V30 619 H 63.3243 2.57265 1.97447 0
M  V30 620 H 63.1093 3.85 0.742812 0
M  V30 621 H 64.5993 3.80001 1.73172 0
M  V30 622 N 65.0364 0.313813 1.54444 0
M  V30 623 C 66.2824 -0.284918 2.01395 0
M  V30 624 C 66.6374 -1.50537 1.19818 0
M  V30 625 O 65.9304 -1.89692 0.269748 0
M  V30 626 C 66.1244 -0.680386 3.50864 0
M  V30 627 C 65.9534 0.500198 4.4691 0
M  V30 628 C 64.7234 0.996248 4.95382 0
M  V30 629 C 66.9214 1.34928 4.96285 0
M  V30 630 N 64.9034 2.14226 5.75309 0
M  V30 631 C 66.2744 2.3426 5.7404 0
M  V30 632 C 68.3294 1.37818 4.78446 0
M  V30 633 C 67.0324 3.36272 6.35856 0
M  V30 634 C 69.0584 2.38695 5.4109 0
M  V30 635 C 68.4204 3.36755 6.18688 0
M  V30 636 H 64.5194 -0.0683689 0.779006 0
M  V30 637 H 67.1034 0.44664 1.89508 0
M  V30 638 H 65.2744 -1.38109 3.63016 0
M  V30 639 H 67.0064 -1.25975 3.84594 0
M  V30 640 H 63.7614 0.56912 4.70168 0
M  V30 641 H 64.1854 2.72005 6.19953 0
M  V30 642 H 68.8274 0.633747 4.18023 0
M  V30 643 H 66.5454 4.11627 6.95405 0
M  V30 644 H 70.1314 2.41721 5.29209 0
M  V30 645 H 69.0114 4.13535 6.66302 0
M  V30 646 N 66.5145 -1.57545 0.0417849 0
M  V30 647 C 67.4445 -2.14009 -0.933929 0
M  V30 648 C 68.4255 -1.05938 -1.33083 0
M  V30 649 O 69.6105 -1.33833 -1.40721 0
M  V30 650 C 66.7405 -2.67747 -2.21199 0
M  V30 651 C 65.6945 -3.80718 -1.95544 0
M  V30 652 C 65.0205 -4.20935 -3.29724 0
M  V30 653 C 66.3205 -5.06258 -1.28452 0
M  V30 654 H 68.0145 -2.95788 -0.463645 0
M  V30 655 H 65.5605 -1.42285 -0.221573 0
M  V30 656 H 67.5135 -3.05886 -2.89848 0
M  V30 657 H 66.2375 -1.83147 -2.70416 0
M  V30 658 H 64.8965 -3.43037 -1.2931 0
M  V30 659 H 64.5445 -3.33298 -3.76724 0
M  V30 660 H 64.2445 -4.9707 -3.13361 0
M  V30 661 H 65.7685 -4.61666 -3.9962 0
M  V30 662 H 67.1825 -5.41903 -1.8712 0
M  V30 663 H 65.5795 -5.87475 -1.22445 0
M  V30 664 H 66.6495 -4.84207 -0.259219 0
M  V30 665 N 67.9926 0.231505 -1.5589 0
M  V30 666 C 68.9026 1.308 -1.94752 0
M  V30 667 C 69.9186 1.51826 -0.849989 0
M  V30 668 O 71.0946 1.6515 -1.15271 0
M  V30 669 C 68.1596 2.63968 -2.24771 0
M  V30 670 C 67.2206 2.51331 -3.48039 0
M  V30 671 C 66.4536 3.78148 -3.76616 0
M  V30 672 O 66.6766 4.80722 -3.07022 0
M  V30 673 O 65.6106 3.75857 -4.70123 0
M  V30 674 H 69.4366 1.0083 -2.86474 0
M  V30 675 H 67.0216 0.433547 -1.42971 0
M  V30 676 H 68.9036 3.42633 -2.45318 0
M  V30 677 H 67.5786 2.9364 -1.36225 0
M  V30 678 H 66.4856 1.709 -3.32782 0
M  V30 679 H 67.8186 2.26601 -4.36936 0
M  V30 680 N 69.4707 1.49531 0.497807 0
M  V30 681 C 70.6987 1.62893 1.27567 0
M  V30 682 C 71.1137 0.301585 1.86376 0
M  V30 683 O 70.4707 -0.713335 1.67982 0
M  V30 684 C 70.5217 2.70013 2.40364 0
M  V30 685 O 70.2427 3.976 1.83972 0
M  V30 686 C 71.7437 2.94109 3.31685 0
M  V30 687 H 68.9637 0.548298 0.386794 0
M  V30 688 H 71.5077 1.95584 0.597245 0
M  V30 689 H 69.6627 2.40092 3.04031 0
M  V30 690 H 70.0767 4.56631 2.58047 0
M  V30 691 H 71.5507 3.72788 4.07104 0
M  V30 692 H 72.0277 2.04147 3.88871 0
M  V30 693 H 72.6337 3.2546 2.73781 0
M  V30 694 N 70.9488 -0.749086 1.3866 0
M  V30 695 C 71.8788 -1.8764 1.38973 0
M  V30 696 C 72.8598 -1.68178 0.255004 0
M  V30 697 O 74.0448 -1.88704 0.458754 0
M  V30 698 C 71.1748 -3.25222 1.21851 0
M  V30 699 C 70.1288 -3.59295 2.32575 0
M  V30 700 C 69.4548 -4.95663 2.00555 0
M  V30 701 C 70.7548 -3.63709 3.7485 0
M  V30 702 H 72.4488 -1.87635 2.3331 0
M  V30 703 H 69.9948 -0.901329 1.12303 0
M  V30 704 H 71.9478 -4.03746 1.20695 0
M  V30 705 H 70.6718 -3.25719 0.239775 0
M  V30 706 H 69.3308 -2.83093 2.32925 0
M  V30 707 H 68.9788 -4.92724 1.01154 0
M  V30 708 H 68.6788 -5.19429 2.74714 0
M  V30 709 H 70.2028 -5.7656 2.01024 0
M  V30 710 H 71.6168 -4.32338 3.76506 0
M  V30 711 H 70.0138 -3.98986 4.48252 0
M  V30 712 H 71.0838 -2.63834 4.06841 0
M  V30 713 N 72.4269 -1.23603 -0.977757 0
M  V30 714 C 73.3369 -1.03632 -2.1047 0
M  V30 715 C 74.3529 0.0199435 -1.73989 0
M  V30 716 O 75.5289 -0.176076 -2.00629 0
M  V30 717 C 72.5939 -0.63276 -3.40877 0
M  V30 718 C 71.6549 -1.76437 -3.91367 0
M  V30 719 C 70.8879 -1.37997 -5.15551 0
M  V30 720 O 71.1109 -0.265357 -5.69782 0
M  V30 721 O 70.0449 -2.20201 -5.60174 0
M  V30 722 H 73.8709 -1.98086 -2.30208 0
M  V30 723 H 71.4559 -1.02332 -1.08851 0
M  V30 724 H 73.3379 -0.418761 -4.19314 0
M  V30 725 H 72.0129 0.282754 -3.22463 0
M  V30 726 H 70.9199 -2.03304 -3.14036 0
M  V30 727 H 72.2529 -2.6583 -4.14241 0
M  V30 728 N 73.905 1.17692 -1.04816 0
M  V30 729 C 74.815 2.25229 -0.65643 0
M  V30 730 C 75.831 1.71018 0.320761 0
M  V30 731 O 77.007 2.00649 0.173805 0
M  V30 732 C 74.072 3.46684 -0.0332629 0
M  V30 733 C 73.133 4.15997 -1.06042 0
M  V30 734 C 72.366 5.31654 -0.466893 0
M  V30 735 O 72.589 5.65777 0.724758 0
M  V30 736 O 71.523 5.89831 -1.1993 0
M  V30 737 H 75.349 2.61016 -1.55255 0
M  V30 738 H 72.934 1.24919 -0.81949 0
M  V30 739 H 74.816 4.20234 0.313256 0
M  V30 740 H 73.491 3.12703 0.836566 0
M  V30 741 H 72.398 3.44482 -1.45886 0
M  V30 742 H 73.731 4.53996 -1.90127 0
M  V30 743 N 75.3831 0.828654 1.34056 0
M  V30 744 C 76.3131 0.269443 2.3194 0
M  V30 745 C 77.2941 -0.617247 1.58506 0
M  V30 746 O 78.4791 -0.542931 1.86456 0
M  V30 747 C 75.6091 -0.564793 3.42677 0
M  V30 748 C 74.5631 0.225241 4.27407 0
M  V30 749 C 73.8891 -0.7321 5.29664 0
M  V30 750 C 75.1891 1.43663 5.02154 0
M  V30 751 H 76.8831 1.08728 2.7896 0
M  V30 752 H 74.4291 0.524283 1.34117 0
M  V30 753 H 76.3821 -0.966233 4.10173 0
M  V30 754 H 75.1061 -1.41574 2.9432 0
M  V30 755 H 73.7651 0.608117 3.61521 0
M  V30 756 H 73.4131 -1.57916 4.77568 0
M  V30 757 H 73.1131 -0.20767 5.87233 0
M  V30 758 H 74.6371 -1.13128 6.00029 0
M  V30 759 H 76.0511 1.1089 5.62473 0
M  V30 760 H 74.4481 1.89711 5.69324 0
M  V30 761 H 75.5181 2.21181 4.31517 0
M  V30 762 N 76.8612 -1.46375 0.584142 0
M  V30 763 C 78.1072 -2.02678 0.0703716 0
M  V30 764 C 78.4402 -1.4545 -1.28678 0
M  V30 765 O 77.7152 -0.62014 -1.84349 0
M  V30 766 C 77.9982 -3.60099 0.00614674 0
M  V30 767 C 77.8512 -4.27709 1.3923 0
M  V30 768 C 79.1702 -4.34598 -0.693742 0
M  V30 769 H 76.2892 -0.736504 0.027047 0
M  V30 770 H 78.9312 -1.74501 0.751615 0
M  V30 771 H 77.0812 -3.84236 -0.574009 0
M  V30 772 H 78.7532 -4.14832 2.01773 0
M  V30 773 H 76.9962 -3.87016 1.95962 0
M  V30 774 H 77.6672 -5.36478 1.29982 0
M  V30 775 H 80.1432 -4.15615 -0.200869 0
M  V30 776 H 79.0192 -5.44318 -0.707714 0
M  V30 777 H 79.2802 -4.05759 -1.75533 0
M  V30 778 N 78.3393 -0.321999 -1.54275 0
M  V30 779 C 79.5643 0.285791 -2.05422 0
M  V30 780 C 79.9893 1.45124 -1.19669 0
M  V30 781 O 79.3473 1.80132 -0.205441 0
M  V30 782 C 79.3953 0.69956 -3.53749 0
M  V30 783 O 78.4993 1.8021 -3.70942 0
M  V30 784 H 77.8403 0.0518962 -0.661969 0
M  V30 785 H 80.3703 -0.469954 -1.9913 0
M  V30 786 H 80.3803 0.982649 -3.9599 0
M  V30 787 H 79.0553 -0.152864 -4.15619 0
M  V30 788 H 77.6323 1.51794 -3.40607 0
M  V30 789 N 79.8174 1.5752 -0.0501392 0
M  V30 790 C 80.7804 2.1037 0.909786 0
M  V30 791 C 81.7804 1.02308 1.24056 0
M  V30 792 O 82.9704 1.28385 1.17741 0
M  V30 793 C 80.1024 2.58708 2.21998 0
M  V30 794 H 81.2954 2.96479 0.451665 0
M  V30 795 H 78.8484 1.55038 0.198248 0
M  V30 796 H 79.5834 1.75989 2.72394 0
M  V30 797 H 79.3684 3.37675 1.99295 0
M  V30 798 H 80.8584 2.99747 2.9076 0
M  V30 799 N 81.2955 -0.223234 1.56011 0
M  V30 800 C 82.5235 -0.964812 1.83027 0
M  V30 801 C 82.9385 -1.78013 0.62904 0
M  V30 802 O 82.2955 -1.78008 -0.402414 0
M  V30 803 C 82.3465 -1.88373 3.08542 0
M  V30 804 O 82.0675 -1.10137 4.2403 0
M  V30 805 C 83.5685 -2.73934 3.48533 0
M  V30 806 H 80.7885 -0.282842 0.608475 0
M  V30 807 H 83.3325 -0.238971 2.03099 0
M  V30 808 H 81.4875 -2.56354 2.9045 0
M  V30 809 H 81.9015 -1.72501 4.95322 0
M  V30 810 H 83.3755 -3.34117 4.39397 0
M  V30 811 H 83.8525 -3.46244 2.70207 0
M  V30 812 H 84.4585 -2.11369 3.69057 0
M  V30 813 N 82.7736 -1.49793 -0.48987 0
M  V30 814 C 84.0216 -1.59525 -1.24081 0
M  V30 815 C 84.3426 -0.288953 -1.92847 0
M  V30 816 O 83.6126 0.692436 -1.83254 0
M  V30 817 H 82.1926 -0.587796 -0.460983 0
M  V30 818 H 84.8546 -1.86477 -0.566778 0
M  V30 819 H 83.9506 -2.39696 -1.99881 0
M  V30 820 N 84.2517 0.741722 -1.39055 0
M  V30 821 C 85.5007 1.49656 -1.35225 0
M  V30 822 C 85.8137 1.95533 0.0512708 0
M  V30 823 O 87.0197 2.7067 0.212138 0
M  V30 824 C 85.4757 2.70389 -2.37525 0
M  V30 825 C 85.0837 2.31489 -3.83558 0
M  V30 826 C 86.8277 3.48236 -2.42759 0
M  V30 827 C 84.7347 3.48903 -4.77515 0
M  V30 828 H 83.6647 0.56197 -0.502699 0
M  V30 829 H 86.3157 0.809727 -1.64668 0
M  V30 830 H 84.6977 3.41113 -2.01142 0
M  V30 831 H 85.8717 1.68354 -4.28945 0
M  V30 832 H 84.1867 1.66749 -3.81554 0
M  V30 833 H 86.7837 4.35558 -3.1015 0
M  V30 834 H 87.1267 3.90229 -1.45008 0
M  V30 835 H 87.6597 2.84535 -2.78002 0
M  V30 836 H 84.3987 3.11966 -5.76504 0
M  V30 837 H 83.9187 4.11041 -4.36813 0
M  V30 838 H 85.5977 4.15328 -4.96096 0
M  V30 839 N 85.7298 1.2412 0.971189 0
M  V30 840 C 86.6398 1.04747 2.09917 0
M  V30 841 C 87.6558 -0.0107162 1.73997 0
M  V30 842 O 88.8318 0.186714 2.00533 0
M  V30 843 C 85.8968 0.650828 3.40537 0
M  V30 844 C 84.9578 1.7851 3.90426 0
M  V30 845 C 84.1908 1.40729 5.14812 0
M  V30 846 O 84.4138 0.29557 5.69634 0
M  V30 847 O 83.3478 2.23168 5.58999 0
M  V30 848 H 87.1738 1.99304 2.29154 0
M  V30 849 H 84.7588 1.02908 1.08307 0
M  V30 850 H 86.6408 0.440992 4.19086 0
M  V30 851 H 85.3158 -0.265649 3.22608 0
M  V30 852 H 84.2228 2.04966 3.12953 0
M  V30 853 H 85.5558 2.68023 4.12825 0
M  V30 854 N 87.2079 -1.17134 1.05439 0
M  V30 855 C 88.4359 -1.91372 0.786414 0
M  V30 856 C 88.8509 -1.76955 -0.658202 0
M  V30 857 O 88.2079 -1.10838 -1.44987 0
M  V30 858 C 88.2589 -3.42356 1.1608 0
M  V30 859 O 87.9799 -3.56332 2.54871 0
M  V30 860 C 89.4809 -4.33663 0.919322 0
M  V30 861 H 86.7009 -0.607118 0.285743 0
M  V30 862 H 89.2449 -1.48525 1.40572 0
M  V30 863 H 87.3999 -3.82939 0.586191 0
M  V30 864 H 87.8139 -4.49896 2.69618 0
M  V30 865 H 89.2879 -5.38099 1.231 0
M  V30 866 H 89.7649 -4.38959 -0.145359 0
M  V30 867 H 90.3709 -3.98796 1.47789 0
M  V30 868 N 88.686 -0.835752 -1.33615 0
M  V30 869 C 89.596 -0.269088 -2.33052 0
M  V30 870 C 90.612 0.603251 -1.63208 0
M  V30 871 O 91.788 0.508112 -1.94885 0
M  V30 872 C 88.853 0.549091 -3.42324 0
M  V30 873 C 87.914 -0.347156 -4.27894 0
M  V30 874 C 87.147 0.43207 -5.31948 0
M  V30 875 O 87.37 1.66409 -5.45586 0
M  V30 876 O 86.304 -0.192298 -6.01593 0
M  V30 877 H 90.13 -1.09243 -2.83372 0
M  V30 878 H 87.715 -0.598198 -1.36901 0
M  V30 879 H 89.597 1.01414 -4.09015 0
M  V30 880 H 88.272 1.34955 -2.94226 0
M  V30 881 H 87.179 -0.859979 -3.64081 0
M  V30 882 H 88.512 -1.1123 -4.79467 0
M  V30 883 N 90.1641 1.46063 -0.591896 0
M  V30 884 C 91.0941 2.33172 0.123673 0
M  V30 885 C 92.0751 1.45897 0.87453 0
M  V30 886 O 93.2601 1.74698 0.848181 0
M  V30 887 C 90.3901 3.28336 1.13194 0
M  V30 888 C 89.3441 4.25124 0.495324 0
M  V30 889 C 88.6701 5.09863 1.61071 0
M  V30 890 C 89.9701 5.19143 -0.573425 0
M  V30 891 H 91.6641 2.93252 -0.603646 0
M  V30 892 H 89.2101 1.41014 -0.291741 0
M  V30 893 H 91.1631 3.88137 1.64097 0
M  V30 894 H 89.8871 2.66383 1.88965 0
M  V30 895 H 88.5461 3.66599 0.00729452 0
M  V30 896 H 88.1941 4.44288 2.35832 0
M  V30 897 H 87.8941 5.75417 1.19035 0
M  V30 898 H 89.4181 5.72529 2.12233 0
M  V30 899 H 90.8321 5.73106 -0.1491 0
M  V30 900 H 89.2291 5.93089 -0.914636 0
M  V30 901 H 90.2991 4.62519 -1.45617 0
M  V30 902 N 91.6422 0.330177 1.54103 0
M  V30 903 C 92.6052 -0.520144 2.2322 0
M  V30 904 C 93.6052 -1.03828 1.22786 0
M  V30 905 O 94.7952 -0.929652 1.4732 0
M  V30 906 C 91.9272 -1.72317 2.94142 0
M  V30 907 H 93.1202 0.0841605 2.99782 0
M  V30 908 H 90.6732 0.0813433 1.56088 0
M  V30 909 H 91.4082 -2.36653 2.21734 0
M  V30 910 H 91.1932 -1.35898 3.67796 0
M  V30 911 H 92.6832 -2.3266 3.46784 0
M  V30 912 N 93.1203 -1.57491 0.0584922 0
M  V30 913 C 94.3483 -1.97296 -0.623037 0
M  V30 914 C 94.7633 -0.936338 -1.63946 0
M  V30 915 O 94.1203 0.0785981 -1.82331 0
M  V30 916 C 94.1713 -3.37183 -1.30345 0
M  V30 917 O 93.8923 -4.36872 -0.32773 0
M  V30 918 C 95.3933 -3.91788 -2.07406 0
M  V30 919 H 92.6133 -0.649153 -0.169826 0
M  V30 920 H 95.1573 -2.04106 0.12696 0
M  V30 921 H 93.3123 -3.31502 -2.00463 0
M  V30 922 H 93.7263 -5.18141 -0.814269 0
M  V30 923 H 95.2003 -4.91926 -2.50425 0
M  V30 924 H 95.6773 -3.27609 -2.92521 0
M  V30 925 H 96.2833 -4.00829 -1.42184 0
M  V30 926 N 94.5984 0.214957 -1.56127 0
M  V30 927 C 95.5284 1.2695 -1.95974 0
M  V30 928 C 96.5094 1.48539 -0.828868 0
M  V30 929 O 97.6944 1.60611 -1.09168 0
M  V30 930 C 94.8244 2.61794 -2.28214 0
M  V30 931 C 93.7784 2.54851 -3.43853 0
M  V30 932 C 93.1044 3.93785 -3.61715 0
M  V30 933 C 94.4044 2.09065 -4.78632 0
M  V30 934 H 96.0984 0.93846 -2.84312 0
M  V30 935 H 93.6444 0.449996 -1.36788 0
M  V30 936 H 95.5974 3.35731 -2.54682 0
M  V30 937 H 94.3214 2.96599 -1.36736 0
M  V30 938 H 92.9804 1.8337 -3.17444 0
M  V30 939 H 92.6284 4.25908 -2.67602 0
M  V30 940 H 92.3284 3.90019 -4.39498 0
M  V30 941 H 93.8524 4.69374 -3.90539 0
M  V30 942 H 95.2664 2.7275 -5.04262 0
M  V30 943 H 93.6634 2.16346 -5.59745 0
M  V30 944 H 94.7334 1.04315 -4.73547 0
M  V30 945 N 96.0765 1.50051 0.48192 0
M  V30 946 C 97.3225 1.60736 1.2366 0
M  V30 947 C 97.6555 0.301786 1.91841 0
M  V30 948 O 96.9305 -0.696025 1.8162 0
M  V30 949 C 97.2135 2.78009 2.28874 0
M  V30 950 C 97.0665 4.18416 1.65069 0
M  V30 951 C 98.3855 2.90867 3.30279 0
M  V30 952 H 95.5045 0.585031 0.448228 0
M  V30 953 H 98.1465 1.82402 0.531946 0
M  V30 954 H 96.2965 2.59667 2.88973 0
M  V30 955 H 97.9685 4.48322 1.0865 0
M  V30 956 H 96.2115 4.23177 0.954148 0
M  V30 957 H 96.8825 4.96381 2.41474 0
M  V30 958 H 99.3585 3.07623 2.80191 0
M  V30 959 H 98.2345 3.74566 4.01238 0
M  V30 960 H 98.4955 2.01021 3.93755 0
M  V30 961 N 97.5546 -0.734337 1.39446 0
M  V30 962 C 98.8026 -1.49096 1.36436 0
M  V30 963 C 99.1236 -1.94961 -0.0388255 0
M  V30 964 O 98.3936 -1.69033 -0.990191 0
M  V30 965 H 96.9736 -0.5531 0.502085 0
M  V30 966 H 99.6356 -0.871725 1.74319 0
M  V30 967 H 98.7316 -2.37276 2.02747 0
M  V30 968 N 99.0327 -1.24633 -0.964593 0
M  V30 969 C 99.9427 -1.05859 -2.09359 0
M  V30 970 C 100.959 0.00148855 -1.74 0
M  V30 971 O 102.135 -0.197346 -2.00431 0
M  V30 972 C 99.1997 -0.668879 -3.40187 0
M  V30 973 C 98.2607 -1.80578 -3.89474 0
M  V30 974 C 97.4937 -1.43457 -5.14058 0
M  V30 975 O 97.7167 -0.325775 -5.69469 0
M  V30 976 O 96.6507 -2.2613 -5.57807 0
M  V30 977 H 100.477 -2.00516 -2.28094 0
M  V30 978 H 98.0617 -1.03481 -1.0776 0
M  V30 979 H 99.9437 -0.463211 -4.18846 0
M  V30 980 H 98.6187 0.248536 -3.22744 0
M  V30 981 H 97.5257 -2.06623 -3.11862 0
M  V30 982 H 98.8587 -2.70208 -4.11398 0
M  V30 983 N 100.511 1.16574 -1.06058 0
M  V30 984 C 101.474 2.19085 -0.673392 0
M  V30 985 C 102.474 1.5835 0.279648 0
M  V30 986 O 103.664 1.74088 0.0623488 0
M  V30 987 C 100.796 3.40899 0.00954234 0
M  V30 988 H 101.989 2.54853 -1.58081 0
M  V30 989 H 99.5418 1.30808 -0.855516 0
M  V30 990 H 100.277 3.10684 0.929826 0
M  V30 991 H 100.062 3.86233 -0.67573 0
M  V30 992 H 101.552 4.1675 0.266245 0
M  V30 993 N 101.989 0.842826 1.3317 0
M  V30 994 C 102.899 0.281444 2.32906 0
M  V30 995 C 103.915 -0.594587 1.63526 0
M  V30 996 O 105.091 -0.49777 1.95152 0
M  V30 997 C 102.156 -0.530929 3.42611 0
M  V30 998 C 101.217 0.369843 4.27704 0
M  V30 999 C 100.45 -0.403853 5.3217 0
M  V30 1000 O 100.673 -1.63513 5.46461 0
M  V30 1001 O 99.6069 0.224199 6.01482 0
M  V30 1002 H 103.433 1.10744 2.82789 0
M  V30 1003 H 101.018 0.60545 1.36582 0
M  V30 1004 H 102.9 -0.992437 4.09547 0
M  V30 1005 H 101.575 -1.33392 2.94938 0
M  V30 1006 H 100.482 0.879275 3.6362 0
M  V30 1007 H 101.815 1.13771 4.78871 0
M  V30 1008 N 103.467 -1.45747 0.599634 0
M  V30 1009 C 104.397 -2.33235 -0.111306 0
M  V30 1010 C 105.378 -1.46359 -0.866781 0
M  V30 1011 O 106.563 -1.75146 -0.838904 0
M  V30 1012 C 103.693 -3.28932 -1.11451 0
M  V30 1013 C 102.647 -4.25381 -0.472772 0
M  V30 1014 C 101.973 -5.1071 -1.58365 0
M  V30 1015 C 103.273 -5.18831 0.600948 0
M  V30 1016 H 104.967 -2.92927 0.61919 0
M  V30 1017 H 102.513 -1.40857 0.299215 0
M  V30 1018 H 104.466 -3.89002 -1.62036 0
M  V30 1019 H 103.19 -2.67381 -1.8755 0
M  V30 1020 H 101.849 -3.66598 0.0121472 0
M  V30 1021 H 101.497 -4.45533 -2.33473 0
M  V30 1022 H 101.197 -5.7604 -1.15982 0
M  V30 1023 H 102.721 -5.73647 -2.09194 0
M  V30 1024 H 104.135 -5.73019 0.179491 0
M  V30 1025 H 102.532 -5.92595 0.946076 0
M  V30 1026 H 103.602 -4.6174 1.48068 0
M  V30 1027 N 104.945 -0.338344 -1.53925 0
M  V30 1028 C 105.875 0.51328 -2.27789 0
M  V30 1029 C 106.856 1.107 -1.29149 0
M  V30 1030 O 108.041 1.12937 -1.57984 0
M  V30 1031 C 105.171 1.66697 -3.04679 0
M  V30 1032 C 104.125 1.20183 -4.1078 0
M  V30 1033 C 103.451 2.44363 -4.75595 0
M  V30 1034 C 104.751 0.30605 -5.21403 0
M  V30 1035 H 106.445 -0.102883 -2.99223 0
M  V30 1036 H 103.991 -0.0509219 -1.4391 0
M  V30 1037 H 105.944 2.26915 -3.55088 0
M  V30 1038 H 104.668 2.30995 -2.30887 0
M  V30 1039 H 103.327 0.622499 -3.61276 0
M  V30 1040 H 102.975 3.07057 -3.98403 0
M  V30 1041 H 102.675 2.13925 -5.47275 0
M  V30 1042 H 104.199 3.05317 -5.28786 0
M  V30 1043 H 105.613 0.814929 -5.67478 0
M  V30 1044 H 104.01 0.0937929 -6.00027 0
M  V30 1045 H 105.08 -0.65921 -4.80398 0
M  V30 1046 N 106.423 1.57458 -0.0668435 0
M  V30 1047 C 107.353 2.15468 0.899764 0
M  V30 1048 C 108.334 1.08042 1.31381 0
M  V30 1049 O 109.519 1.36054 1.38574 0
M  V30 1050 C 106.649 2.71232 2.16911 0
M  V30 1051 C 105.603 3.83781 1.89463 0
M  V30 1052 C 104.929 4.26127 3.22986 0
M  V30 1053 C 106.229 5.08238 1.20381 0
M  V30 1054 H 107.923 2.96488 0.416529 0
M  V30 1055 H 105.469 1.4262 0.198908 0
M  V30 1056 H 107.422 3.10458 2.84945 0
M  V30 1057 H 106.146 1.87426 2.67468 0
M  V30 1058 H 104.805 3.45051 1.23836 0
M  V30 1059 H 104.453 3.39249 3.71374 0
M  V30 1060 H 104.153 5.01993 3.05413 0
M  V30 1061 H 105.677 4.67966 3.92225 0
M  V30 1062 H 107.091 5.44811 1.78475 0
M  V30 1063 H 105.488 5.89349 1.13083 0
M  V30 1064 H 106.558 4.84558 0.182153 0
M  V30 1065 N 107.901 -0.206675 1.56239 0
M  V30 1066 C 109.178 -0.954051 1.70755 0
M  V30 1067 C 109.558 -2.01841 0.618353 0
M  V30 1068 O 108.906 -2.25444 -0.372434 0
M  V30 1069 C 109.116 -1.551 3.12642 0
M  V30 1070 C 110.464 -2.03757 3.72516 0
M  V30 1071 O 111.488 -1.64965 3.15698 0
M  V30 1072 O 110.347 -2.75103 4.72208 0
M  V30 1073 H 107.441 -0.446636 0.696021 0
M  V30 1074 H 109.987 -0.197283 1.68549 0
M  V30 1075 H 108.759 -0.783212 3.83382 0
M  V30 1076 H 108.382 -2.37291 3.19028 0
M  V30 1077 N 109.379 -1.50304 -0.473955 0
M  V30 1078 C 110.79 -1.54042 -1.0549 0
M  V30 1079 C 111.141 -0.342248 -1.93192 0
M  V30 1080 O 110.266 0.545157 -2.09421 0
M  V30 1081 C 110.861 -2.79152 -1.91989 0
M  V30 1082 C 109.42 -2.8558 -2.45196 0
M  V30 1083 C 108.567 -2.48295 -1.2347 0
M  V30 1084 H 111.518 -1.5661 -0.256693 0
M  V30 1085 H 111.539 -2.60845 -2.7702 0
M  V30 1086 H 111.051 -3.66339 -1.28131 0
M  V30 1087 H 109.152 -2.02738 -3.12615 0
M  V30 1088 H 109.265 -3.88403 -2.80499 0
M  V30 1089 H 107.629 -2.00669 -1.56856 0
M  V30 1090 H 108.412 -3.37787 -0.612789 0
M  V30 1091 N 110.857 0.726932 -1.39834 0
M  V30 1092 C 112.103 1.48884 -1.377 0
M  V30 1093 C 112.436 1.94185 0.0244852 0
M  V30 1094 O 111.711 1.67361 0.990986 0
M  V30 1095 C 111.994 2.72288 -2.3565 0
M  V30 1096 C 111.847 2.32956 -3.84775 0
M  V30 1097 C 113.166 3.74414 -2.31306 0
M  V30 1098 H 110.285 0.540062 -0.5015 0
M  V30 1099 H 112.927 0.830547 -1.70886 0
M  V30 1100 H 111.077 3.28457 -2.07481 0
M  V30 1101 H 112.749 1.82356 -4.23726 0
M  V30 1102 H 110.992 1.65088 -4.01159 0
M  V30 1103 H 111.663 3.21362 -4.4881 0
M  V30 1104 H 114.139 3.27849 -2.56231 0
M  V30 1105 H 113.015 4.58414 -3.01907 0
M  V30 1106 H 113.276 4.21909 -1.32081 0
M  V30 1107 N 112.336 1.25143 0.95797 0
M  V30 1108 C 113.564 1.12424 1.73691 0
M  V30 1109 C 113.979 -0.322304 1.86029 0
M  V30 1110 O 113.336 -1.22186 1.35561 0
M  V30 1111 C 113.387 1.76933 3.15241 0
M  V30 1112 O 113.108 3.15932 3.03511 0
M  V30 1113 C 114.609 1.6995 4.09429 0
M  V30 1114 H 111.829 0.3923 0.544373 0
M  V30 1115 H 114.373 1.6544 1.20207 0
M  V30 1116 H 112.528 1.27895 3.6568 0
M  V30 1117 H 112.942 3.47598 3.9278 0
M  V30 1118 H 114.416 2.19753 5.06372 0
M  V30 1119 H 114.893 0.662619 4.34173 0
M  V30 1120 H 115.499 2.18461 3.64904 0
M  V30 1121 N 113.814 -1.1601 1.06675 0
M  V30 1122 C 115.091 -1.82679 0.699114 0
M  V30 1123 C 115.471 -1.94559 -0.819137 0
M  V30 1124 O 114.819 -1.49169 -1.73092 0
M  V30 1125 C 115.029 -3.19445 1.40555 0
M  V30 1126 C 116.377 -3.95171 1.55323 0
M  V30 1127 O 117.401 -3.28976 1.36577 0
M  V30 1128 O 116.26 -5.13833 1.86112 0
M  V30 1129 H 113.354 -0.788954 0.247951 0
M  V30 1130 H 115.9 -1.23179 1.16726 0
M  V30 1131 H 114.672 -3.05856 2.44065 0
M  V30 1132 H 114.295 -3.86625 0.927733 0
M  V30 1133 N 115.292 -0.849877 -1.32721 0
M  V30 1134 C 116.202 -0.293791 -2.32753 0
M  V30 1135 C 117.218 0.585906 -1.63839 0
M  V30 1136 O 118.394 0.487413 -1.95413 0
M  V30 1137 C 115.459 0.512752 -3.42887 0
M  V30 1138 C 114.52 -0.39252 -4.27502 0
M  V30 1139 C 113.753 0.375625 -5.32377 0
M  V30 1140 O 113.976 1.60613 -5.4732 0
M  V30 1141 O 112.91 -0.256094 -6.01355 0
M  V30 1142 H 116.736 -1.12242 -2.82197 0
M  V30 1143 H 114.321 -0.612685 -1.36259 0
M  V30 1144 H 116.203 0.970704 -4.10067 0
M  V30 1145 H 114.878 1.31826 -2.95641 0
M  V30 1146 H 113.785 -0.898547 -3.63149 0
M  V30 1147 H 115.118 -1.16309 -4.7826 0
M  V30 1148 N 116.77 1.45427 -0.607355 0
M  V30 1149 C 117.7 2.3329 0.0989352 0
M  V30 1150 C 118.681 1.46816 0.859007 0
M  V30 1151 O 119.866 1.75588 0.829604 0
M  V30 1152 C 116.996 3.29518 1.09705 0
M  V30 1153 C 115.95 4.25626 0.450206 0
M  V30 1154 C 115.276 5.11542 1.55655 0
M  V30 1155 C 116.576 5.18505 -0.628455 0
M  V30 1156 H 118.27 2.92595 -0.634716 0
M  V30 1157 H 115.816 1.40696 -0.306681 0
M  V30 1158 H 117.769 3.89855 1.59971 0
M  V30 1159 H 116.493 2.68372 1.86129 0
M  V30 1160 H 115.152 3.66586 -0.0315886 0
M  V30 1161 H 114.8 4.46765 2.31107 0
M  V30 1162 H 114.5 5.76647 1.12925 0
M  V30 1163 H 116.024 5.74748 2.06148 0
M  V30 1164 H 117.438 5.72916 -0.209877 0
M  V30 1165 H 115.835 5.92085 -0.977489 0
M  V30 1166 H 116.905 4.60948 -1.50514 0
M  V30 1167 N 118.248 0.346503 1.53744 0
M  V30 1168 C 119.497 -0.250122 2.00143 0
M  V30 1169 C 119.81 -1.51418 1.23822 0
M  V30 1170 O 121.016 -2.18823 1.60713 0
M  V30 1171 C 119.472 -0.496252 3.56462 0
M  V30 1172 C 119.08 0.752077 4.41642 0
M  V30 1173 C 120.824 -1.05157 4.11269 0
M  V30 1174 C 118.731 0.476583 5.89477 0
M  V30 1175 H 117.661 -0.0972409 0.747703 0
M  V30 1176 H 120.312 0.46229 1.77581 0
M  V30 1177 H 118.694 -1.26944 3.75102 0
M  V30 1178 H 119.868 1.5266 4.34778 0
M  V30 1179 H 118.183 1.22925 3.97842 0
M  V30 1180 H 120.78 -1.27269 5.19333 0
M  V30 1181 H 121.123 -2.00799 3.64672 0
M  V30 1182 H 121.656 -0.339019 3.96353 0
M  V30 1183 H 118.395 1.4028 6.40314 0
M  V30 1184 H 117.915 -0.259794 5.99237 0
M  V30 1185 H 119.594 0.0949315 6.4693 0
M  V30 1186 N 119.726 -1.57421 0.075193 0
M  V30 1187 C 120.972 -1.93905 -0.594025 0
M  V30 1188 C 121.305 -0.955701 -1.69056 0
M  V30 1189 O 120.58 0.0145373 -1.94495 0
M  V30 1190 C 120.863 -3.40638 -1.1678 0
M  V30 1191 C 120.716 -4.49733 -0.0776792 0
M  V30 1192 C 122.035 -3.88259 -2.07228 0
M  V30 1193 H 119.154 -0.705105 -0.214466 0
M  V30 1194 H 121.796 -1.8947 0.141854 0
M  V30 1195 H 119.946 -3.44549 -1.79494 0
M  V30 1196 H 121.618 -4.57942 0.555573 0
M  V30 1197 H 119.861 -4.29751 0.591286 0
M  V30 1198 H 120.532 -5.49549 -0.519603 0
M  V30 1199 H 123.008 -3.86376 -1.54445 0
M  V30 1200 H 121.884 -4.91533 -2.44308 0
M  V30 1201 H 122.145 -3.26396 -2.98191 0
M  V30 1202 N 121.204 0.198386 -1.56346 0
M  V30 1203 C 122.45 0.920648 -1.80698 0
M  V30 1204 C 122.783 1.83045 -0.648697 0
M  V30 1205 O 122.058 1.91308 0.350925 0
M  V30 1206 C 122.341 1.73971 -3.15287 0
M  V30 1207 C 122.194 0.85485 -4.41602 0
M  V30 1208 C 123.513 2.71296 -3.46535 0
M  V30 1209 H 120.632 0.333261 -0.657348 0
M  V30 1210 H 123.274 0.188198 -1.89066 0
M  V30 1211 H 121.424 2.36416 -3.08285 0
M  V30 1212 H 123.096 0.245362 -4.60647 0
M  V30 1213 H 121.339 0.161398 -4.335 0
M  V30 1214 H 122.01 1.46286 -5.32264 0
M  V30 1215 H 124.486 2.18983 -3.53816 0
M  V30 1216 H 123.362 3.2569 -4.41834 0
M  V30 1217 H 123.623 3.5018 -2.69864 0
M  V30 1218 N 122.682 1.50554 0.465978 0
M  V30 1219 C 124.098 1.38093 0.800154 0
M  V30 1220 C 124.298 0.440988 1.96615 0
M  V30 1221 O 123.354 -0.114499 2.5224 0
M  V30 1222 C 124.667 2.79565 1.10742 0
M  V30 1223 C 126.215 2.88516 1.21357 0
M  V30 1224 C 126.69 4.30833 1.55393 0
M  V30 1225 N 128.181 4.33807 1.62375 0
M  V30 1226 C 128.916 5.40927 1.90225 0
M  V30 1227 N 128.412 6.58247 2.16062 0
M  V30 1228 N 130.205 5.28376 1.9177 0
M  V30 1229 H 122.356 2.10237 -0.302366 0
M  V30 1230 H 124.619 0.945203 -0.0727746 0
M  V30 1231 H 124.325 3.50208 0.323661 0
M  V30 1232 H 124.199 3.17125 2.04234 0
M  V30 1233 H 126.586 2.1809 1.98799 0
M  V30 1234 H 126.667 2.54492 0.258321 0
M  V30 1235 H 126.311 5.01799 0.784889 0
M  V30 1236 H 126.241 4.62347 2.52076 0
M  V30 1237 H 128.732 3.49212 1.44427 0
M  V30 1238 H 129.045 7.3569 2.36601 0
M  V30 1239 H 127.39 6.61413 2.13444 0
M  V30 1240 H 130.581 4.35715 1.71085 0
M  V30 1241 H 130.754 6.11944 2.13139 0
M  V30 1242 N 124.16 -0.719506 1.40217 0
M  V30 1243 C 125.571 -1.29848 1.34151 0
M  V30 1244 C 125.922 -1.96196 0.0131349 0
M  V30 1245 O 125.047 -1.973 -0.88892 0
M  V30 1246 C 125.642 -2.36118 2.42968 0
M  V30 1247 C 124.201 -2.8965 2.40374 0
M  V30 1248 C 123.348 -1.63393 2.24049 0
M  V30 1249 H 126.299 -0.51591 1.5008 0
M  V30 1250 H 126.32 -3.16871 2.10649 0
M  V30 1251 H 125.832 -1.878 3.39636 0
M  V30 1252 H 123.933 -3.42208 1.47392 0
M  V30 1253 H 124.046 -3.4171 3.35814 0
M  V30 1254 H 122.41 -1.88312 1.71495 0
M  V30 1255 H 123.193 -1.17104 3.2271 0
M  V30 1256 N 125.638 -1.25649 -0.95132 0
M  V30 1257 C 126.887 -1.09988 -1.69073 0
M  V30 1258 C 127.2 0.358355 -1.92289 0
M  V30 1259 O 128.406 0.635466 -2.63958 0
M  V30 1260 C 126.862 -1.92012 -3.044 0
M  V30 1261 C 126.47 -3.42347 -2.88968 0
M  V30 1262 C 128.214 -1.8493 -3.82101 0
M  V30 1263 C 126.121 -4.16655 -4.19705 0
M  V30 1264 H 125.051 -0.407993 -0.63408 0
M  V30 1265 H 127.702 -1.49873 -1.05879 0
M  V30 1266 H 126.084 -1.44952 -3.68517 0
M  V30 1267 H 127.258 -3.97104 -2.33762 0
M  V30 1268 H 125.573 -3.50557 -2.24719 0
M  V30 1269 H 128.17 -2.37739 -4.78941 0
M  V30 1270 H 128.513 -0.817883 -4.08187 0
M  V30 1271 H 129.046 -2.29758 -3.2474 0
M  V30 1272 H 125.785 -5.20224 -3.98807 0
M  V30 1273 H 125.305 -3.66681 -4.74663 0
M  V30 1274 H 126.984 -4.24551 -4.88227 0
M  V30 1275 N 127.117 1.15442 -1.07289 0
M  V30 1276 C 128.365 1.85845 -0.794096 0
M  V30 1277 C 128.686 1.82692 0.681809 0
M  V30 1278 O 127.956 1.26741 1.49377 0
M  V30 1279 H 126.536 0.688089 -0.290763 0
M  V30 1280 H 129.198 1.39947 -1.3565 0
M  V30 1281 H 128.294 2.91001 -1.12804 0
M  V30 1282 N 128.595 0.856903 1.32268 0
M  V30 1283 C 129.842 0.461386 1.97174 0
M  V30 1284 C 130.17 -0.983491 1.67803 0
M  V30 1285 O 129.425 -1.70541 0.959903 0
M  V30 1286 C 129.724 0.649919 3.51441 0
M  V30 1287 C 129.39 2.0656 4.00804 0
M  V30 1288 C 128.052 2.45279 4.13995 0
M  V30 1289 C 130.404 2.98947 4.26943 0
M  V30 1290 C 127.732 3.75653 4.50668 0
M  V30 1291 C 130.084 4.28822 4.65075 0
M  V30 1292 C 128.748 4.67472 4.76472 0
M  V30 1293 H 128.018 0.168833 0.72151 0
M  V30 1294 H 130.665 1.08739 1.57633 0
M  V30 1295 H 128.97 -0.0593018 3.91755 0
M  V30 1296 H 130.667 0.32391 3.9969 0
M  V30 1297 H 127.257 1.75495 3.91024 0
M  V30 1298 H 131.441 2.70265 4.16258 0
M  V30 1299 H 126.697 4.05379 4.57688 0
M  V30 1300 H 130.871 5.0047 4.84255 0
M  V30 1301 H 128.498 5.68539 5.04646 0
M  V30 1302 N 130.073 -1.45103 0.615059 0
M  V30 1303 C 130.983 -2.34382 -0.101034 0
M  V30 1304 C 131.999 -1.51681 -0.852585 0
M  V30 1305 O 133.175 -1.8446 -0.808484 0
M  V30 1306 C 130.24 -3.29417 -1.08099 0
M  V30 1307 C 129.301 -4.28025 -0.330577 0
M  V30 1308 C 128.534 -5.1852 -1.26385 0
M  V30 1309 O 128.757 -5.12598 -2.50198 0
M  V30 1310 O 127.691 -5.97122 -0.756866 0
M  V30 1311 H 131.517 -2.97033 0.632855 0
M  V30 1312 H 129.102 -1.4461 0.375293 0
M  V30 1313 H 130.984 -3.87958 -1.6452 0
M  V30 1314 H 129.659 -2.69321 -1.79577 0
M  V30 1315 H 128.566 -3.73078 0.276283 0
M  V30 1316 H 129.899 -4.90997 0.343866 0
M  V30 1317 N 131.551 -0.354651 -1.53558 0
M  V30 1318 C 132.962 0.126902 -1.86268 0
M  V30 1319 C 133.313 1.49075 -1.27558 0
M  V30 1320 O 132.438 2.08105 -0.5934 0
M  V30 1321 C 133.033 0.237046 -3.3797 0
M  V30 1322 C 131.592 0.662842 -3.70518 0
M  V30 1323 C 130.739 -0.196652 -2.76602 0
M  V30 1324 H 133.69 -0.573849 -1.47962 0
M  V30 1325 H 133.711 1.06259 -3.65362 0
M  V30 1326 H 133.223 -0.755725 -3.80671 0
M  V30 1327 H 131.324 1.66424 -3.33367 0
M  V30 1328 H 131.437 0.445034 -4.77029 0
M  V30 1329 H 129.801 0.332763 -2.52517 0
M  V30 1330 H 130.584 -1.18676 -3.22135 0
M  V30 1331 N 133.029 1.57378 -0.0835403 0
M  V30 1332 C 133.959 2.1641 0.87686 0
M  V30 1333 C 134.94 1.09429 1.30228 0
M  V30 1334 O 136.125 1.37516 1.37124 0
M  V30 1335 C 133.255 2.73517 2.14022 0
M  V30 1336 C 132.209 3.85769 1.85381 0
M  V30 1337 C 131.535 4.29529 3.18448 0
M  V30 1338 C 132.835 5.09486 1.14984 0
M  V30 1339 H 134.529 2.96914 0.385059 0
M  V30 1340 H 132.075 1.42823 0.18377 0
M  V30 1341 H 134.028 3.13463 2.81636 0
M  V30 1342 H 132.752 1.90252 2.65465 0
M  V30 1343 H 131.411 3.46345 1.20169 0
M  V30 1344 H 131.059 3.43169 3.67755 0
M  V30 1345 H 130.759 5.05204 3.00071 0
M  V30 1346 H 132.283 4.72099 3.8724 0
M  V30 1347 H 133.697 5.46674 1.72687 0
M  V30 1348 H 132.094 5.90515 1.06826 0
M  V30 1349 H 133.164 4.84724 0.130749 0
M  V30 1350 N 134.507 -0.190092 1.56449 0
M  V30 1351 C 135.439 -1.25973 1.91477 0
M  V30 1352 C 136.452 -1.41452 0.805931 0
M  V30 1353 O 137.641 -1.41789 1.08435 0
M  V30 1354 C 134.741 -2.63117 2.13594 0
M  V30 1355 C 133.914 -2.69182 3.4476 0
M  V30 1356 C 132.973 -3.87557 3.5593 0
M  V30 1357 O 131.999 -3.74427 4.28711 0
M  V30 1358 N 133.201 -5.03224 2.89388 0
M  V30 1359 H 135.966 -0.962394 2.83828 0
M  V30 1360 H 133.527 -0.379981 1.57378 0
M  V30 1361 H 135.519 -3.40742 2.1835 0
M  V30 1362 H 134.089 -2.85319 1.27719 0
M  V30 1363 H 133.309 -1.77793 3.51828 0
M  V30 1364 H 134.597 -2.70229 4.31107 0
M  V30 1365 H 133.995 -5.16791 2.30094 0
M  V30 1366 H 132.552 -5.78778 2.99764 0
M  V30 1367 N 135.985 -1.50799 -0.457987 0
M  V30 1368 C 137.231 -1.63648 -1.20792 0
M  V30 1369 C 137.586 -0.338662 -1.89396 0
M  V30 1370 O 136.879 0.664291 -1.79716 0
M  V30 1371 C 137.073 -2.76358 -2.2663 0
M  V30 1372 C 136.902 -4.16974 -1.68411 0
M  V30 1373 C 135.672 -4.83199 -1.47807 0
M  V30 1374 C 137.87 -5.00774 -1.17176 0
M  V30 1375 N 135.852 -6.07991 -0.849692 0
M  V30 1376 C 137.223 -6.16397 -0.667403 0
M  V30 1377 C 139.278 -4.86452 -1.06155 0
M  V30 1378 C 137.981 -7.19272 -0.0636908 0
M  V30 1379 C 140.007 -5.89515 -0.471759 0
M  V30 1380 C 139.369 -7.04397 0.0221557 0
M  V30 1381 H 135.468 -0.652888 -0.43042 0
M  V30 1382 H 138.052 -1.87962 -0.507785 0
M  V30 1383 H 136.223 -2.53744 -2.94056 0
M  V30 1384 H 137.955 -2.78496 -2.93636 0
M  V30 1385 H 134.71 -4.40714 -1.73403 0
M  V30 1386 H 135.134 -6.74733 -0.553537 0
M  V30 1387 H 139.776 -3.97907 -1.42932 0
M  V30 1388 H 137.494 -8.07481 0.316253 0
M  V30 1389 H 141.08 -5.805 -0.388671 0
M  V30 1390 H 139.96 -7.82782 0.471375 0
M  V30 1391 N 137.463 0.71206 -1.40597 0
M  V30 1392 C 138.709 1.47416 -1.39271 0
M  V30 1393 C 139.042 1.942 0.00388791 0
M  V30 1394 O 138.317 1.68403 0.973179 0
M  V30 1395 C 138.6 2.69774 -2.38525 0
M  V30 1396 C 138.453 2.28861 -3.87224 0
M  V30 1397 C 139.772 3.71939 -2.35264 0
M  V30 1398 H 136.891 0.534713 -0.5072 0
M  V30 1399 H 139.533 0.812375 -1.71757 0
M  V30 1400 H 137.683 3.26238 -2.10953 0
M  V30 1401 H 139.355 1.77852 -4.25636 0
M  V30 1402 H 137.598 1.60824 -4.02887 0
M  V30 1403 H 138.269 3.16584 -4.52193 0
M  V30 1404 H 140.745 3.25113 -2.59694 0
M  V30 1405 H 139.621 4.55186 -3.06753 0
M  V30 1406 H 139.882 4.20484 -1.36549 0
M  V30 1407 N 138.941 1.26152 0.944643 0
M  V30 1408 C 140.357 1.03189 1.21754 0
M  V30 1409 C 140.557 -0.245112 2.00004 0
M  V30 1410 O 139.613 -0.955176 2.33736 0
M  V30 1411 C 140.926 2.26119 1.98219 0
M  V30 1412 C 142.474 2.30984 2.11224 0
M  V30 1413 C 142.949 3.53597 2.91089 0
M  V30 1414 N 144.44 3.54053 2.98664 0
M  V30 1415 C 145.175 4.45593 3.60881 0
M  V30 1416 N 144.671 5.47416 4.24626 0
M  V30 1417 N 146.464 4.33252 3.58119 0
M  V30 1418 H 138.615 2.08177 0.421437 0
M  V30 1419 H 140.878 0.914723 0.248969 0
M  V30 1420 H 140.584 3.18984 1.48128 0
M  V30 1421 H 140.458 2.3009 2.98895 0
M  V30 1422 H 142.845 1.38635 2.60508 0
M  V30 1423 H 142.926 2.31026 1.09821 0
M  V30 1424 H 142.57 4.46273 2.42493 0
M  V30 1425 H 142.5 3.50802 3.92741 0
M  V30 1426 H 144.991 2.80403 2.53343 0
M  V30 1427 H 145.304 6.13459 4.69987 0
M  V30 1428 H 143.649 5.51278 4.23223 0
M  V30 1429 H 146.84 3.52924 3.0751 0
M  V30 1430 H 147.013 5.04786 4.06319 0
M  V30 1431 N 140.419 -1.14872 1.07899 0
M  V30 1432 C 141.382 -2.17986 0.708161 0
M  V30 1433 C 142.382 -1.58775 -0.25442 0
M  V30 1434 O 143.572 -1.74166 -0.034645 0
M  V30 1435 C 140.704 -3.40871 0.0446929 0
M  V30 1436 H 141.897 -2.52306 1.62116 0
M  V30 1437 H 139.45 -1.2943 0.876218 0
M  V30 1438 H 140.185 -3.12124 -0.880281 0
M  V30 1439 H 139.97 -3.8511 0.737091 0
M  V30 1440 H 141.46 -4.17121 -0.19991 0
M  V30 1441 N 141.898 -0.863906 -1.31812 0
M  V30 1442 C 142.828 -0.330843 -2.31144 0
M  V30 1443 C 143.809 0.575005 -1.60087 0
M  V30 1444 O 144.994 0.493304 -1.8783 0
M  V30 1445 C 142.124 0.47374 -3.44054 0
M  V30 1446 C 141.078 -0.338481 -4.26659 0
M  V30 1447 C 140.404 0.591412 -5.31419 0
M  V30 1448 C 141.704 -1.56926 -4.98168 0
M  V30 1449 H 143.398 -1.16086 -2.75979 0
M  V30 1450 H 140.944 -0.559657 -1.32679 0
M  V30 1451 H 142.897 0.857143 -4.12591 0
M  V30 1452 H 141.621 1.33721 -2.9797 0
M  V30 1453 H 140.28 -0.703754 -3.59782 0
M  V30 1454 H 139.928 1.45199 -4.81587 0
M  V30 1455 H 139.628 0.0519022 -5.87577 0
M  V30 1456 H 141.152 0.97179 -6.02817 0
M  V30 1457 H 142.566 -1.25764 -5.59336 0
M  V30 1458 H 140.963 -2.04739 -5.64094 0
M  V30 1459 H 142.033 -2.32544 -4.25501 0
M  V30 1460 N 143.376 1.44774 -0.622745 0
M  V30 1461 C 144.339 2.29069 0.0774015 0
M  V30 1462 C 145.339 1.4059 0.780461 0
M  V30 1463 O 146.529 1.62551 0.626322 0
M  V30 1464 C 143.661 3.21974 1.12006 0
M  V30 1465 H 144.854 2.92459 -0.663901 0
M  V30 1466 H 142.407 1.51548 -0.382486 0
M  V30 1467 H 143.142 2.63417 1.89162 0
M  V30 1468 H 142.927 3.87168 0.619951 0
M  V30 1469 H 144.417 3.85318 1.60995 0
M  V30 1470 N 144.854 0.36279 1.53368 0
M  V30 1471 C 145.817 -0.472679 2.24273 0
M  V30 1472 C 146.817 -1.012 1.24961 0
M  V30 1473 O 148.007 -0.898194 1.49259 0
M  V30 1474 C 145.139 -1.66039 2.97731 0
M  V30 1475 H 146.332 0.14773 2.99536 0
M  V30 1476 H 143.885 0.114434 1.55881 0
M  V30 1477 H 144.62 -2.31896 2.26704 0
M  V30 1478 H 144.405 -1.28066 3.70596 0
M  V30 1479 H 145.895 -2.25252 3.51641 0
M  V30 1480 N 146.332 -1.57332 0.0918853 0
M  V30 1481 C 147.242 -2.17368 -0.882505 0
M  V30 1482 C 148.258 -1.14226 -1.31257 0
M  V30 1483 O 149.434 -1.46582 -1.38115 0
M  V30 1484 C 146.499 -2.73962 -2.12476 0
M  V30 1485 C 145.56 -3.92048 -1.7492 0
M  V30 1486 C 144.793 -4.45933 -2.93223 0
M  V30 1487 O 145.016 -3.98764 -4.07852 0
M  V30 1488 O 143.95 -5.36999 -2.71875 0
M  V30 1489 H 147.776 -3.01031 -0.40172 0
M  V30 1490 H 145.361 -1.48813 -0.132291 0
M  V30 1491 H 147.243 -3.10147 -2.85283 0
M  V30 1492 H 145.918 -1.93347 -2.59613 0
M  V30 1493 H 144.825 -3.6068 -0.993025 0
M  V30 1494 H 146.158 -4.74017 -1.32548 0
M  V30 1495 N 147.81 0.181792 -1.56548 0
M  V30 1496 C 149.087 0.926765 -1.72251 0
M  V30 1497 C 149.467 2.00831 -0.650386 0
M  V30 1498 O 148.815 2.26008 0.336521 0
M  V30 1499 C 149.025 1.50106 -3.1507 0
M  V30 1500 C 150.373 1.97805 -3.75711 0
M  V30 1501 O 151.397 1.59922 -3.18282 0
M  V30 1502 O 150.256 2.67555 -4.76525 0
M  V30 1503 H 147.35 0.435506 -0.703039 0
M  V30 1504 H 149.896 0.170443 -1.68842 0
M  V30 1505 H 148.668 0.72212 -3.84579 0
M  V30 1506 H 148.291 2.32186 -3.22763 0
M  V30 1507 N 149.288 1.51039 0.449983 0
M  V30 1508 C 150.699 1.557 1.03026 0
M  V30 1509 C 151.05 0.372939 1.92623 0
M  V30 1510 O 150.175 -0.511771 2.10261 0
M  V30 1511 C 150.77 2.82171 1.87523 0
M  V30 1512 C 149.329 2.89444 2.40622 0
M  V30 1513 C 148.476 2.50228 1.19504 0
M  V30 1514 H 151.427 1.56999 0.231745 0
M  V30 1515 H 151.448 2.65219 2.72835 0
M  V30 1516 H 150.96 3.68331 1.22286 0
M  V30 1517 H 149.061 2.07685 3.0935 0
M  V30 1518 H 149.174 3.92816 2.74285 0
M  V30 1519 H 147.538 2.03139 1.53644 0
M  V30 1520 H 148.321 3.38719 0.558972 0
M  V30 1521 N 150.766 -0.704594 1.40972 0
M  V30 1522 C 152.012 -1.46675 1.40051 0
M  V30 1523 C 152.345 -1.94199 0.00641102 0
M  V30 1524 O 151.62 -1.68916 -0.964235 0
M  V30 1525 C 151.903 -2.68505 2.39952 0
M  V30 1526 C 151.756 -2.26805 3.88432 0
M  V30 1527 C 153.075 -3.70686 2.37233 0
M  V30 1528 H 150.194 -0.532015 0.510028 0
M  V30 1529 H 152.836 -0.803255 1.72185 0
M  V30 1530 H 150.986 -3.25114 2.1268 0
M  V30 1531 H 152.658 -1.75592 4.26574 0
M  V30 1532 H 150.901 -1.58685 4.03734 0
M  V30 1533 H 151.572 -3.14181 4.53866 0
M  V30 1534 H 154.048 -3.23731 2.61415 0
M  V30 1535 H 152.924 -4.53553 3.09162 0
M  V30 1536 H 153.185 -4.19754 1.38777 0
M  V30 1537 N 152.244 -1.26651 -0.937939 0
M  V30 1538 C 153.655 -1.1125 -1.49934 0
M  V30 1539 C 154.006 0.306077 -1.93798 0
M  V30 1540 O 153.131 1.19792 -1.80219 0
M  V30 1541 C 153.726 -2.01339 -2.72485 0
M  V30 1542 C 152.285 -1.90074 -3.24883 0
M  V30 1543 C 151.432 -1.94498 -1.97651 0
M  V30 1544 H 154.383 -1.39693 -0.753091 0
M  V30 1545 H 154.404 -1.56319 -3.46907 0
M  V30 1546 H 153.916 -3.04577 -2.40529 0
M  V30 1547 H 152.017 -0.897827 -3.61621 0
M  V30 1548 H 152.13 -2.75778 -3.9177 0
M  V30 1549 H 150.494 -1.38591 -2.13693 0
M  V30 1550 H 151.277 -2.99372 -1.68022 0
M  V30 1551 N 153.722 1.14298 -1.08507 0
M  V30 1552 C 154.947 1.8976 -0.837001 0
M  V30 1553 C 155.372 1.78097 0.605228 0
M  V30 1554 O 154.73 1.12188 1.4242 0
M  V30 1555 C 154.778 3.37685 -1.26495 0
M  V30 1556 O 153.882 4.10281 -0.417514 0
M  V30 1557 H 153.223 0.590365 -0.303917 0
M  V30 1558 H 155.753 1.44672 -1.44676 0
M  V30 1559 H 155.763 3.88501 -1.24625 0
M  V30 1560 H 154.438 3.45492 -2.31534 0
M  V30 1561 H 153.015 3.69536 -0.499722 0
M  V30 1562 N 155.201 0.870884 1.31352 0
M  V30 1563 C 156.478 0.402907 1.91405 0
M  V30 1564 C 156.858 -1.11512 1.79244 0
M  V30 1565 O 156.206 -1.94411 1.2007 0
M  V30 1566 C 156.416 0.885301 3.37585 0
M  V30 1567 C 157.764 0.911971 4.14691 0
M  V30 1568 O 158.788 0.831016 3.46371 0
M  V30 1569 O 157.647 1.02927 5.3672 0
M  V30 1570 H 154.741 0.120698 0.818145 0
M  V30 1571 H 157.287 0.958857 1.40014 0
M  V30 1572 H 156.059 1.92889 3.40455 0
M  V30 1573 H 155.682 0.307714 3.96407 0
M  V30 1574 N 156.679 -1.44442 0.630414 0
M  V30 1575 C 157.626 -2.30678 -0.0749355 0
M  V30 1576 C 158.596 -1.4344 -0.837502 0
M  V30 1577 O 159.781 -1.72343 -0.818684 0
M  V30 1578 C 156.921 -3.28706 -1.05103 0
M  V30 1579 C 156.034 -4.31046 -0.286954 0
M  V30 1580 C 155.169 -5.16167 -1.2548 0
M  V30 1581 C 154.208 -6.10216 -0.479843 0
M  V30 1582 N 153.345 -6.88039 -1.39811 0
M  V30 1583 H 158.185 -2.90454 0.666386 0
M  V30 1584 H 155.722 -1.43107 0.340404 0
M  V30 1585 H 157.68 -3.84027 -1.63031 0
M  V30 1586 H 156.31 -2.70632 -1.75949 0
M  V30 1587 H 155.362 -3.78203 0.408243 0
M  V30 1588 H 156.674 -4.97794 0.316657 0
M  V30 1589 H 155.828 -5.76002 -1.90544 0
M  V30 1590 H 154.567 -4.49491 -1.89233 0
M  V30 1591 H 153.572 -5.49491 0.184295 0
M  V30 1592 H 154.797 -6.78928 0.152965 0
M  V30 1593 H 152.743 -6.24032 -2.02287 0
M  V30 1594 H 152.66 -7.51223 -0.848508 0
M  V30 1595 H 153.928 -7.52397 -2.03762 0
M  V30 1596 N 158.157 -0.370918 -1.53173 0
M  V30 1597 C 159.107 0.489588 -2.22681 0
M  V30 1598 C 160.091 1.04442 -1.22395 0
M  V30 1599 O 161.283 0.973578 -1.47819 0
M  V30 1600 C 158.412 1.626 -3.02351 0
M  V30 1601 C 157.498 1.08379 -4.10018 0
M  V30 1602 N 157.889 0.265004 -5.05105 0
M  V30 1603 C 156.187 1.35809 -4.2482 0
M  V30 1604 C 156.888 -0.0324755 -5.81691 0
M  V30 1605 N 155.864 0.566581 -5.40639 0
M  V30 1606 H 159.666 -0.142729 -2.93553 0
M  V30 1607 H 157.18 -0.179221 -1.61408 0
M  V30 1608 H 159.177 2.2547 -3.50669 0
M  V30 1609 H 157.837 2.26132 -2.33011 0
M  V30 1610 H 158.848 -0.0962352 -5.17811 0
M  V30 1611 H 155.525 1.9958 -3.66707 0
M  V30 1612 H 156.915 -0.69473 -6.68299 0
M  V30 1613 N 159.635 1.57281 -0.100228 0
M  V30 1614 C 160.565 2.17328 0.853857 0
M  V30 1615 C 161.546 1.10804 1.2906 0
M  V30 1616 O 162.731 1.38963 1.35657 0
M  V30 1617 C 159.861 2.75772 2.11109 0
M  V30 1618 C 158.815 3.87713 1.81279 0
M  V30 1619 C 158.141 4.32882 3.13874 0
M  V30 1620 C 159.441 5.10677 1.09574 0
M  V30 1621 H 161.135 2.97305 0.353545 0
M  V30 1622 H 158.681 1.43009 0.168612 0
M  V30 1623 H 160.634 3.16433 2.78296 0
M  V30 1624 H 159.358 1.93057 2.63432 0
M  V30 1625 H 158.017 3.476 1.16489 0
M  V30 1626 H 157.665 3.47051 3.64095 0
M  V30 1627 H 157.365 5.08358 2.94696 0
M  V30 1628 H 158.889 4.7618 3.82211 0
M  V30 1629 H 160.303 5.48474 1.66879 0
M  V30 1630 H 158.7 5.91615 1.00557 0
M  V30 1631 H 159.77 4.84835 0.0793299 0
M  V30 1632 N 161.113 -0.173488 1.56642 0
M  V30 1633 C 162.341 -0.906095 1.86004 0
M  V30 1634 C 162.756 -1.75921 0.685355 0
M  V30 1635 O 162.113 -1.79198 -0.345578 0
M  V30 1636 C 162.164 -1.78462 3.14378 0
M  V30 1637 O 161.885 -0.965914 4.27319 0
M  V30 1638 C 163.386 -2.62707 3.57071 0
M  V30 1639 H 160.606 -0.263341 0.617165 0
M  V30 1640 H 163.15 -0.174236 2.03756 0
M  V30 1641 H 161.305 -2.46984 2.98459 0
M  V30 1642 H 161.719 -1.56655 5.00559 0
M  V30 1643 H 163.193 -3.19969 4.49804 0
M  V30 1644 H 163.67 -3.37472 2.81086 0
M  V30 1645 H 164.276 -1.99521 3.75595 0
M  V30 1646 N 162.591 -1.51276 -0.441967 0
M  V30 1647 C 163.816 -1.67799 -1.21895 0
M  V30 1648 C 164.241 -0.372864 -1.84367 0
M  V30 1649 O 163.599 0.666501 -1.68604 0
M  V30 1650 C 163.647 -2.79199 -2.28211 0
M  V30 1651 O 162.751 -2.42479 -3.33583 0
M  V30 1652 H 162.092 -0.559649 -0.357336 0
M  V30 1653 H 164.622 -1.97815 -0.522522 0
M  V30 1654 H 164.632 -3.03146 -2.73069 0
M  V30 1655 H 163.307 -3.73906 -1.82118 0
M  V30 1656 H 161.884 -2.29087 -2.94234 0
M  V30 1657 N 164.069 0.697108 -1.41344 0
M  V30 1658 C 165.032 1.79281 -1.42797 0
M  V30 1659 C 166.032 1.57607 -0.318837 0
M  V30 1660 O 167.222 1.64309 -0.578642 0
M  V30 1661 C 164.354 3.17632 -1.23785 0
M  V30 1662 H 165.547 1.79385 -2.40335 0
M  V30 1663 H 163.1 0.904582 -1.27464 0
M  V30 1664 H 163.835 3.23167 -0.270814 0
M  V30 1665 H 163.62 3.34765 -2.04144 0
M  V30 1666 H 165.11 3.97617 -1.27633 0
M  V30 1667 N 165.547 1.27147 0.931209 0
M  V30 1668 C 166.51 1.09615 2.01289 0
M  V30 1669 C 167.51 0.0412581 1.60747 0
M  V30 1670 O 168.7 0.285545 1.71844 0
M  V30 1671 C 165.832 0.669447 3.34262 0
M  V30 1672 H 167.025 2.05662 2.18273 0
M  V30 1673 H 164.578 1.09885 1.11153 0
M  V30 1674 H 165.313 -0.292572 3.22978 0
M  V30 1675 H 165.098 1.43127 3.65044 0
M  V30 1676 H 166.588 0.568921 4.13706 0
M  V30 1677 N 167.025 -1.13721 1.09112 0
M  V30 1678 C 168.271 -1.85198 0.826414 0
M  V30 1679 C 168.604 -1.83129 -0.646319 0
M  V30 1680 O 167.879 -1.2671 -1.47563 0
M  V30 1681 C 168.162 -3.33507 1.35812 0
M  V30 1682 C 168.015 -3.44108 2.89672 0
M  V30 1683 C 169.334 -4.28838 0.989256 0
M  V30 1684 H 166.453 -0.67243 0.301675 0
M  V30 1685 H 169.095 -1.33499 1.35197 0
M  V30 1686 H 167.245 -3.77666 0.911082 0
M  V30 1687 H 168.917 -3.08684 3.428 0
M  V30 1688 H 167.16 -2.85087 3.26967 0
M  V30 1689 H 167.831 -4.48388 3.21951 0
M  V30 1690 H 170.307 -3.92734 1.37475 0
M  V30 1691 H 169.183 -5.31051 1.38838 0
M  V30 1692 H 169.444 -4.4198 -0.102924 0
M  V30 1693 N 168.503 -0.877838 -1.30888 0
M  V30 1694 C 169.728 -0.506629 -2.01117 0
M  V30 1695 C 170.153 0.895564 -1.65412 0
M  V30 1696 O 169.511 1.5923 -0.866922 0
M  V30 1697 C 169.559 -0.680223 -3.54126 0
M  V30 1698 O 168.663 0.277033 -4.11468 0
M  V30 1699 H 168.004 -0.200518 -0.633 0
M  V30 1700 H 170.534 -1.18342 -1.66902 0
M  V30 1701 H 170.544 -0.5765 -4.03907 0
M  V30 1702 H 169.219 -1.70261 -3.79452 0
M  V30 1703 H 167.796 0.127606 -3.72682 0
M  V30 1704 N 169.982 1.44106 -0.638065 0
M  V30 1705 C 171.228 2.02277 -0.145546 0
M  V30 1706 C 171.561 1.50125 1.23191 0
M  V30 1707 O 170.836 0.688133 1.8192 0
M  V30 1708 C 171.119 3.59829 -0.139791 0
M  V30 1709 C 170.972 4.22247 -1.55008 0
M  V30 1710 C 172.291 4.36873 0.531966 0
M  V30 1711 H 169.41 0.734992 -0.0543632 0
M  V30 1712 H 172.052 1.71592 -0.815863 0
M  V30 1713 H 170.202 3.86102 0.431007 0
M  V30 1714 H 171.874 4.07057 -2.1703 0
M  V30 1715 H 170.117 3.79476 -2.10191 0
M  V30 1716 H 170.788 5.31284 -1.49804 0
M  V30 1717 H 173.264 4.16074 0.0464781 0
M  V30 1718 H 172.14 5.4657 0.505206 0
M  V30 1719 H 172.401 4.11995 1.60352 0
M  V30 1720 N 171.46 0.379036 1.52974 0
M  V30 1721 C 172.871 -0.0972525 1.86447 0
M  V30 1722 C 173.222 -1.47027 1.29914 0
M  V30 1723 O 172.347 -2.07135 0.626433 0
M  V30 1724 C 172.942 -0.183248 3.38304 0
M  V30 1725 C 171.501 -0.603812 3.71525 0
M  V30 1726 C 170.648 0.240632 2.76254 0
M  V30 1727 H 173.599 0.597316 1.4703 0
M  V30 1728 H 173.62 -1.00432 3.67006 0
M  V30 1729 H 173.132 0.816191 3.79421 0
M  V30 1730 H 171.233 -1.61099 3.35973 0
M  V30 1731 H 171.346 -0.369086 4.77676 0
M  V30 1732 H 169.71 -0.292548 2.53014 0
M  V30 1733 H 170.493 1.23786 3.20206 0
M  V30 1734 N 172.938 -1.57226 0.108567 0
M  V30 1735 C 174.186 -1.94448 -0.550853 0
M  V30 1736 C 174.507 -0.992074 -1.67878 0
M  V30 1737 O 173.777 -0.0465 -1.95845 0
M  V30 1738 H 172.357 -0.717897 -0.206479 0
M  V30 1739 H 175.019 -1.94112 0.175062 0
M  V30 1740 H 174.115 -2.97218 -0.952259 0
M  V30 1741 N 174.416 0.165178 -1.56732 0
M  V30 1742 C 175.662 0.882112 -1.82611 0
M  V30 1743 C 175.995 1.81628 -0.687378 0
M  V30 1744 O 175.27 1.92009 0.310267 0
M  V30 1745 C 175.553 1.67245 -3.18906 0
M  V30 1746 C 175.406 0.760987 -4.43316 0
M  V30 1747 C 176.725 2.63884 -3.52212 0
M  V30 1748 H 173.844 0.319242 -0.664269 0
M  V30 1749 H 176.486 0.148052 -1.89422 0
M  V30 1750 H 174.636 2.29824 -3.1323 0
M  V30 1751 H 176.308 0.147596 -4.61064 0
M  V30 1752 H 174.551 0.0694102 -4.33744 0
M  V30 1753 H 175.222 1.34962 -5.35247 0
M  V30 1754 H 177.698 2.11429 -3.58381 0
M  V30 1755 H 176.574 3.16245 -4.48643 0
M  V30 1756 H 176.835 3.44377 -2.77231 0
M  V30 1757 N 175.894 1.51508 0.433938 0
M  V30 1758 C 176.824 1.76016 1.53429 0
M  V30 1759 C 177.805 0.610112 1.58782 0
M  V30 1760 O 178.99 0.853177 1.74455 0
M  V30 1761 C 176.12 1.88831 2.9148 0
M  V30 1762 C 175.074 3.04288 3.00987 0
M  V30 1763 C 174.4 3.0229 4.4105 0
M  V30 1764 C 175.7 4.44193 2.74754 0
M  V30 1765 H 177.394 2.68152 1.33171 0
M  V30 1766 H 174.94 1.29035 0.639214 0
M  V30 1767 H 176.893 2.04559 3.6842 0
M  V30 1768 H 175.617 0.933455 3.12976 0
M  V30 1769 H 174.276 2.8827 2.26486 0
M  V30 1770 H 173.924 2.04576 4.59519 0
M  V30 1771 H 173.624 3.79822 4.4834 0
M  V30 1772 H 175.148 3.20116 5.1996 0
M  V30 1773 H 176.562 4.60544 3.41426 0
M  V30 1774 H 174.959 5.23457 2.9345 0
M  V30 1775 H 176.029 4.53996 1.70339 0
M  V30 1776 N 177.372 -0.689602 1.41712 0
M  V30 1777 C 178.302 -1.81577 1.46806 0
M  V30 1778 C 179.283 -1.66945 0.326105 0
M  V30 1779 O 180.468 -1.86588 0.538377 0
M  V30 1780 C 177.598 -3.19762 1.35535 0
M  V30 1781 C 176.552 -3.49107 2.47605 0
M  V30 1782 C 175.878 -4.86711 2.21397 0
M  V30 1783 C 177.178 -3.47483 3.89939 0
M  V30 1784 H 178.872 -1.7757 2.41058 0
M  V30 1785 H 176.418 -0.852887 1.16025 0
M  V30 1786 H 178.371 -3.98263 1.3771 0
M  V30 1787 H 177.095 -3.24409 0.377708 0
M  V30 1788 H 175.754 -2.72959 2.44722 0
M  V30 1789 H 175.402 -4.8799 1.21961 0
M  V30 1790 H 175.102 -5.0731 2.96497 0
M  V30 1791 H 176.626 -5.67515 2.25297 0
M  V30 1792 H 178.04 -4.1598 3.94505 0
M  V30 1793 H 176.437 -3.79615 4.64771 0
M  V30 1794 H 177.507 -2.46341 4.17665 0
M  V30 1795 N 178.85 -1.27639 -0.924453 0
M  V30 1796 C 180.078 -1.16989 -1.70649 0
M  V30 1797 C 180.493 0.272869 -1.86818 0
M  V30 1798 O 179.85 1.18549 -1.38753 0
M  V30 1799 C 179.901 -1.85229 -3.10439 0
M  V30 1800 O 179.622 -3.23868 -2.95028 0
M  V30 1801 C 181.123 -1.80746 -4.04779 0
M  V30 1802 H 178.343 -0.406595 -0.53378 0
M  V30 1803 H 180.887 -1.68569 -1.15778 0
M  V30 1804 H 179.042 -1.37545 -3.6216 0
M  V30 1805 H 179.456 -3.57889 -3.83426 0
M  V30 1806 H 180.93 -2.33101 -5.00368 0
M  V30 1807 H 181.407 -0.777499 -4.32263 0
M  V30 1808 H 182.013 -2.28059 -3.58984 0
M  V30 1809 N 180.328 1.1314 -1.09713 0
M  V30 1810 C 181.26 2.18343 -0.697056 0
M  V30 1811 C 182.273 1.60669 0.262551 0
M  V30 1812 O 183.462 1.78435 0.0481527 0
M  V30 1813 C 180.562 3.38899 -0.00684728 0
M  V30 1814 C 179.735 4.26078 -0.988741 0
M  V30 1815 C 178.794 5.25155 -0.331394 0
M  V30 1816 O 177.82 5.60701 -0.979926 0
M  V30 1817 N 179.022 5.73271 0.913261 0
M  V30 1818 H 181.787 2.5328 -1.60216 0
M  V30 1819 H 179.348 1.28491 -0.984971 0
M  V30 1820 H 181.34 4.02255 0.444191 0
M  V30 1821 H 179.91 3.02175 0.800551 0
M  V30 1822 H 179.13 3.59453 -1.61826 0
M  V30 1823 H 180.418 4.81178 -1.65364 0
M  V30 1824 H 179.816 5.46544 1.45966 0
M  V30 1825 H 178.373 6.3855 1.30757 0
M  V30 1826 N 181.806 0.884767 1.30421 0
M  V30 1827 C 183.055 0.499164 1.95426 0
M  V30 1828 C 183.368 -0.95645 1.70621 0
M  V30 1829 O 184.574 -1.44889 2.29607 0
M  V30 1830 C 183.03 0.84177 3.49917 0
M  V30 1831 C 182.638 2.31514 3.83543 0
M  V30 1832 C 184.382 0.525355 4.21237 0
M  V30 1833 C 182.289 2.59939 5.31212 0
M  V30 1834 H 181.219 0.182944 0.73147 0
M  V30 1835 H 183.87 1.07971 1.48373 0
M  V30 1836 H 182.252 0.190311 3.95542 0
M  V30 1837 H 183.426 3.0109 3.48829 0
M  V30 1838 H 181.741 2.59907 3.25326 0
M  V30 1839 H 184.338 0.714762 5.29901 0
M  V30 1840 H 184.681 -0.535222 4.12845 0
M  V30 1841 H 185.214 1.134 3.81294 0
M  V30 1842 H 181.953 3.64736 5.44654 0
M  V30 1843 H 181.473 1.94972 5.67227 0
M  V30 1844 H 183.152 2.45429 5.98643 0
M  V30 1845 N 183.284 -1.43765 0.645699 0
M  V30 1846 C 184.247 -2.29163 -0.0409488 0
M  V30 1847 C 185.247 -1.41813 -0.757996 0
M  V30 1848 O 186.437 -1.63527 -0.600382 0
M  V30 1849 C 183.569 -3.23716 -1.06869 0
M  V30 1850 H 184.762 -2.91366 0.710345 0
M  V30 1851 H 182.315 -1.5092 0.406547 0
M  V30 1852 H 183.05 -2.66393 -1.84947 0
M  V30 1853 H 182.835 -3.88105 -0.558277 0
M  V30 1854 H 184.325 -3.87831 -1.54845 0
M  V30 1855 N 184.763 -0.387143 -1.52771 0
M  V30 1856 C 185.726 0.436939 -2.24997 0
M  V30 1857 C 186.726 0.991991 -1.26555 0
M  V30 1858 O 187.916 0.874335 -1.50669 0
M  V30 1859 C 185.048 1.61281 -3.00335 0
M  V30 1860 H 186.241 -0.195365 -2.99263 0
M  V30 1861 H 183.794 -0.139218 -1.55679 0
M  V30 1862 H 184.529 2.2826 -2.30364 0
M  V30 1863 H 184.314 1.22154 -3.72587 0
M  V30 1864 H 185.804 2.19629 -3.5518 0
M  V30 1865 N 186.241 1.57166 -0.116904 0
M  V30 1866 C 187.469 1.99473 0.549383 0
M  V30 1867 C 187.884 0.996541 1.60357 0
M  V30 1868 O 187.241 -0.0108731 1.82497 0
M  V30 1869 C 187.292 3.41788 1.17741 0
M  V30 1870 O 187.013 4.37788 0.165362 0
M  V30 1871 C 188.514 3.99216 1.92722 0
M  V30 1872 H 185.734 0.655009 0.145616 0
M  V30 1873 H 188.278 2.03494 -0.202625 0
M  V30 1874 H 186.433 3.38713 1.88021 0
M  V30 1875 H 186.847 5.20806 0.621403 0
M  V30 1876 H 188.321 5.00882 2.31995 0
M  V30 1877 H 188.798 3.3824 2.80161 0
M  V30 1878 H 189.404 4.0583 1.27209 0
M  V30 1879 N 187.719 -0.156864 1.56817 0
M  V30 1880 C 189.135 -0.50916 1.5126 0
M  V30 1881 C 189.335 -1.83897 0.823658 0
M  V30 1882 O 188.391 -2.49469 0.390055 0
M  V30 1883 C 189.704 -0.52857 2.96018 0
M  V30 1884 C 191.252 -0.614771 3.06903 0
M  V30 1885 C 191.727 -0.664938 4.53147 0
M  V30 1886 N 193.218 -0.727433 4.57452 0
M  V30 1887 C 193.953 -0.787067 5.67973 0
M  V30 1888 N 193.449 -0.806649 6.88088 0
M  V30 1889 N 195.242 -0.827195 5.5598 0
M  V30 1890 H 187.393 0.714935 2.00006 0
M  V30 1891 H 189.656 0.259526 0.911784 0
M  V30 1892 H 189.362 0.380154 3.49639 0
M  V30 1893 H 189.236 -1.36998 3.51442 0
M  V30 1894 H 191.623 -1.51392 2.53307 0
M  V30 1895 H 191.704 0.253597 2.5454 0
M  V30 1896 H 191.348 0.230011 5.07379 0
M  V30 1897 H 191.278 -1.54966 5.03282 0
M  V30 1898 H 193.769 -0.719998 3.70978 0
M  V30 1899 H 194.082 -0.853727 7.6807 0
M  V30 1900 H 192.427 -0.774687 6.90669 0
M  V30 1901 H 195.618 -0.808998 4.61056 0
M  V30 1902 H 195.791 -0.870206 6.4213 0
M  V30 1903 N 189.197 -1.51736 -0.425897 0
M  V30 1904 C 190.16 -1.73271 -1.50032 0
M  V30 1905 C 191.16 -0.602639 -1.4908 0
M  V30 1906 O 192.35 -0.87033 -1.509 0
M  V30 1907 C 189.482 -1.79969 -2.89523 0
M  V30 1908 H 190.675 -2.69172 -1.32237 0
M  V30 1909 H 188.228 -1.41899 -0.65532 0
M  V30 1910 H 188.963 -0.859241 -3.1271 0
M  V30 1911 H 188.748 -2.62109 -2.91619 0
M  V30 1912 H 190.238 -1.9843 -3.67444 0
M  V30 1913 N 190.675 0.682077 -1.42076 0
M  V30 1914 C 191.605 1.80796 -1.47767 0
M  V30 1915 C 192.586 1.6677 -0.334954 0
M  V30 1916 O 193.771 1.863 -0.548264 0
M  V30 1917 C 190.901 3.19038 -1.37229 0
M  V30 1918 C 189.855 3.47789 -2.49453 0
M  V30 1919 C 189.181 4.8553 -2.23975 0
M  V30 1920 C 190.481 3.45411 -3.91776 0
M  V30 1921 H 192.175 1.7629 -2.41997 0
M  V30 1922 H 189.721 0.846721 -1.16476 0
M  V30 1923 H 191.674 3.97528 -1.39821 0
M  V30 1924 H 190.398 3.24204 -0.394907 0
M  V30 1925 H 189.057 2.71657 -2.46166 0
M  V30 1926 H 188.705 4.87337 -1.24547 0
M  V30 1927 H 188.405 5.0573 -2.99184 0
M  V30 1928 H 189.929 5.66312 -2.28304 0
M  V30 1929 H 191.343 4.13882 -3.96705 0
M  V30 1930 H 189.74 3.77145 -4.66778 0
M  V30 1931 H 190.81 2.44122 -4.18966 0
M  V30 1932 N 192.153 1.28127 0.917671 0
M  V30 1933 C 193.116 1.11744 2.00115 0
M  V30 1934 C 194.116 0.0583052 1.60694 0
M  V30 1935 O 195.306 0.303755 1.71531 0
M  V30 1936 C 192.438 0.704862 3.33533 0
M  V30 1937 H 193.631 2.07966 2.16079 0
M  V30 1938 H 191.184 1.11058 1.09981 0
M  V30 1939 H 191.919 -0.258299 3.2327 0
M  V30 1940 H 191.704 1.4699 3.63505 0
M  V30 1941 H 193.194 0.612768 4.1308 0
M  V30 1942 N 193.631 -1.12557 1.10312 0
M  V30 1943 C 195.047 -1.36036 0.834649 0
M  V30 1944 C 195.247 -1.93946 -0.546539 0
M  V30 1945 O 194.303 -2.16484 -1.29966 0
M  V30 1946 C 195.616 -2.30312 1.9333 0
M  V30 1947 C 197.164 -2.43906 1.9616 0
M  V30 1948 C 197.639 -3.41496 3.05195 0
M  V30 1949 N 199.13 -3.49053 3.04494 0
M  V30 1950 C 199.865 -4.24471 3.85502 0
M  V30 1951 N 199.361 -5.02966 4.76442 0
M  V30 1952 N 201.154 -4.19864 3.73725 0
M  V30 1953 H 193.305 -0.733246 1.99342 0
M  V30 1954 H 195.568 -0.385234 0.866198 0
M  V30 1955 H 195.274 -1.94933 2.92735 0
M  V30 1956 H 195.148 -3.30421 1.81939 0
M  V30 1957 H 197.535 -2.78567 0.973886 0
M  V30 1958 H 197.616 -1.4369 2.11629 0
M  V30 1959 H 197.26 -3.07565 4.04186 0
M  V30 1960 H 197.19 -4.41539 2.86968 0
M  V30 1961 H 199.681 -2.93053 2.38596 0
M  V30 1962 H 199.994 -5.57846 5.34815 0
M  V30 1963 H 198.339 -5.02167 4.80472 0
M  V30 1964 H 201.53 -3.57623 3.02032 0
M  V30 1965 H 201.703 -4.78386 4.37093 0
M  V30 1966 N 195.109 -0.891671 -1.2995 0
M  V30 1967 C 196.041 -0.320695 -2.26945 0
M  V30 1968 C 197.054 0.528497 -1.53983 0
M  V30 1969 O 198.243 0.346959 -1.75096 0
M  V30 1970 C 195.343 0.562066 -3.34207 0
M  V30 1971 C 194.516 -0.259576 -4.36629 0
M  V30 1972 C 193.575 0.554739 -5.23268 0
M  V30 1973 O 192.601 -0.0249311 -5.69195 0
M  V30 1974 N 193.803 1.8625 -5.4981 0
M  V30 1975 H 196.568 -1.15432 -2.76578 0
M  V30 1976 H 194.129 -0.755336 -1.432 0
M  V30 1977 H 196.121 1.11304 -3.89093 0
M  V30 1978 H 194.691 1.29637 -2.84452 0
M  V30 1979 H 193.911 -0.991986 -3.81514 0
M  V30 1980 H 195.199 -0.822564 -5.02107 0
M  V30 1981 H 194.597 2.35628 -5.14292 0
M  V30 1982 H 193.154 2.36078 -6.07545 0
M  V30 1983 N 196.587 1.43421 -0.653314 0
M  V30 1984 C 197.835 2.01414 -0.166415 0
M  V30 1985 C 198.156 1.51803 1.22397 0
M  V30 1986 O 197.426 0.730693 1.81763 0
M  V30 1987 H 196.006 0.744703 -0.0585319 0
M  V30 1988 H 198.668 1.75629 -0.845003 0
M  V30 1989 H 197.764 3.11734 -0.151111 0
M  V30 1990 N 198.065 0.39524 1.52563 0
M  V30 1991 C 198.998 -0.4813 2.23067 0
M  V30 1992 C 199.976 -1.05927 1.23362 0
M  V30 1993 O 201.16 -1.10979 1.52368 0
M  V30 1994 C 198.287 -1.66676 2.9485 0
M  V30 1995 C 197.333 -1.21348 4.08873 0
M  V30 1996 S 198.166 -0.190102 5.35162 0
M  V30 1997 C 199.322 -1.38121 6.1047 0
M  V30 1998 H 199.555 0.117381 2.97068 0
M  V30 1999 H 197.088 0.179458 1.53354 0
M  V30 2000 H 199.046 -2.3466 3.36816 0
M  V30 2001 H 197.707 -2.23676 2.20518 0
M  V30 2002 H 196.9 -2.09877 4.58222 0
M  V30 2003 H 196.502 -0.612486 3.68951 0
M  V30 2004 H 198.794 -2.30726 6.37002 0
M  V30 2005 H 199.737 -0.928521 7.01986 0
M  V30 2006 H 200.145 -1.60071 5.41329 0
M  V30 2007 N 199.544 -1.57102 0.125237 0
M  V30 2008 C 200.821 -1.86953 -0.575142 0
M  V30 2009 C 201.201 -1.02749 -1.84407 0
M  V30 2010 O 200.549 -0.108144 -2.28244 0
M  V30 2011 C 200.759 -3.38198 -0.861583 0
M  V30 2012 C 202.107 -4.06937 -1.21192 0
M  V30 2013 O 203.131 -3.43252 -0.951645 0
M  V30 2014 O 201.99 -5.19364 -1.70068 0
M  V30 2015 H 199.084 -0.774147 -0.290906 0
M  V30 2016 H 201.63 -1.68942 0.160211 0
M  V30 2017 H 200.402 -3.91282 0.0373647 0
M  V30 2018 H 200.025 -3.61661 -1.65188 0
M  V30 2019 N 201.022 0.148545 -1.56898 0
M  V30 2020 C 201.952 1.18524 -2.01182 0
M  V30 2021 C 202.933 1.4489 -0.891123 0
M  V30 2022 O 204.118 1.55836 -1.15882 0
M  V30 2023 C 201.248 2.51879 -2.39112 0
M  V30 2024 C 200.202 2.40038 -3.54353 0
M  V30 2025 C 199.528 3.78089 -3.78091 0
M  V30 2026 C 200.828 1.88577 -4.87069 0
M  V30 2027 H 202.522 0.817029 -2.88036 0
M  V30 2028 H 200.068 0.391575 -1.38574 0
M  V30 2029 H 202.021 3.24627 -2.68692 0
M  V30 2030 H 200.745 2.90532 -1.49193 0
M  V30 2031 H 199.404 1.69742 -3.24936 0
M  V30 2032 H 199.052 4.14175 -2.85426 0
M  V30 2033 H 198.752 3.71028 -4.55645 0
M  V30 2034 H 200.276 4.52387 -4.10095 0
M  V30 2035 H 201.69 2.51117 -5.15377 0
M  V30 2036 H 200.087 1.9241 -5.68417 0
M  V30 2037 H 201.157 0.84136 -4.77545 0
M  V30 2038 N 202.5 1.5196 0.417844 0
M  V30 2039 C 203.746 1.65836 1.16732 0
M  V30 2040 C 204.079 0.382881 1.90388 0
M  V30 2041 O 203.354 -0.618368 1.84408 0
M  V30 2042 C 203.637 2.87466 2.16876 0
M  V30 2043 C 203.49 4.25041 1.47174 0
M  V30 2044 C 204.809 3.04613 3.17646 0
M  V30 2045 H 201.928 0.603515 0.423011 0
M  V30 2046 H 204.57 1.84494 0.454105 0
M  V30 2047 H 202.72 2.71689 2.777 0
M  V30 2048 H 204.392 4.52527 0.895376 0
M  V30 2049 H 202.635 4.26843 0.773806 0
M  V30 2050 H 203.306 5.06176 2.20204 0
M  V30 2051 H 205.782 3.1923 2.66892 0
M  V30 2052 H 204.658 3.91247 3.8499 0
M  V30 2053 H 204.919 2.17541 3.84874 0
M  V30 2054 N 203.978 -0.674533 1.42435 0
M  V30 2055 C 204.941 -1.76986 1.45632 0
M  V30 2056 C 205.941 -1.5708 0.343871 0
M  V30 2057 O 207.131 -1.63367 0.604709 0
M  V30 2058 C 204.263 -3.15623 1.28822 0
M  V30 2059 H 205.456 -1.75539 2.43158 0
M  V30 2060 H 203.009 -0.884189 1.28887 0
M  V30 2061 H 203.744 -3.22696 0.322193 0
M  V30 2062 H 203.529 -3.31475 2.09444 0
M  V30 2063 H 205.019 -3.95537 1.33942 0
M  V30 2064 N 205.456 -1.28612 -0.910864 0
M  V30 2065 C 206.684 -1.18792 -1.69399 0
M  V30 2066 C 207.099 0.253039 -1.87097 0
M  V30 2067 O 206.456 1.17071 -1.40003 0
M  V30 2068 C 206.507 -1.88511 -3.08457 0
M  V30 2069 O 206.228 -3.26979 -2.91576 0
M  V30 2070 C 207.729 -1.85029 -4.02839 0
M  V30 2071 H 204.949 -0.412233 -0.529438 0
M  V30 2072 H 207.493 -1.69788 -1.13984 0
M  V30 2073 H 205.648 -1.41379 -3.60681 0
M  V30 2074 H 206.062 -3.61936 -3.79608 0
M  V30 2075 H 207.536 -2.38395 -4.97867 0
M  V30 2076 H 208.013 -0.823303 -4.31414 0
M  V30 2077 H 208.619 -2.31853 -3.56545 0
M  V30 2078 N 206.934 1.1197 -1.10907 0
M  V30 2079 C 208.345 1.65114 -0.871446 0
M  V30 2080 C 208.696 1.86885 0.597353 0
M  V30 2081 O 207.821 1.59896 1.45816 0
M  V30 2082 C 208.416 2.99944 -1.5754 0
M  V30 2083 C 206.975 3.50018 -1.38435 0
M  V30 2084 C 206.122 2.24941 -1.62164 0
M  V30 2085 H 209.073 0.956851 -1.2661 0
M  V30 2086 H 209.094 3.66651 -1.01721 0
M  V30 2087 H 208.606 2.84067 -2.64438 0
M  V30 2088 H 206.707 3.71071 -0.337214 0
M  V30 2089 H 206.82 4.29165 -2.12965 0
M  V30 2090 H 205.184 2.3229 -1.04467 0
M  V30 2091 H 205.967 2.11612 -2.70324 0
M  V30 2092 N 208.412 0.89855 1.29475 0
M  V30 2093 C 209.823 0.572537 1.77705 0
M  V30 2094 C 210.174 -0.911778 1.73727 0
M  V30 2095 O 209.299 -1.71288 1.32247 0
M  V30 2096 C 209.894 1.03252 3.22683 0
M  V30 2097 C 208.453 0.757687 3.68695 0
M  V30 2098 C 207.6 1.20787 2.49612 0
M  V30 2099 H 210.551 1.08139 1.16153 0
M  V30 2100 H 210.572 0.367307 3.78723 0
M  V30 2101 H 210.084 2.11285 3.25546 0
M  V30 2102 H 208.185 -0.310079 3.71308 0
M  V30 2103 H 208.298 1.35476 4.59547 0
M  V30 2104 H 206.662 0.626888 2.46865 0
M  V30 2105 H 207.445 2.29622 2.55203 0
M  V30 2106 N 209.89 -1.43072 0.660911 0
M  V30 2107 C 211.136 -2.0202 0.177708 0
M  V30 2108 C 211.469 -1.52066 -1.20787 0
M  V30 2109 O 210.744 -0.716987 -1.80802 0
M  V30 2110 C 211.027 -3.59561 0.197019 0
M  V30 2111 C 210.88 -4.19727 1.61706 0
M  V30 2112 C 212.199 -4.37664 -0.462396 0
M  V30 2113 H 209.318 -0.734034 0.0660494 0
M  V30 2114 H 211.96 -1.70272 0.843058 0
M  V30 2115 H 210.11 -3.86739 -0.369527 0
M  V30 2116 H 211.782 -4.03553 2.23479 0
M  V30 2117 H 210.025 -3.76084 2.16201 0
M  V30 2118 H 210.696 -5.28834 1.58237 0
M  V30 2119 H 213.172 -4.16095 0.0197215 0
M  V30 2120 H 212.048 -5.47305 -0.418188 0
M  V30 2121 H 212.309 -4.14493 -1.53778 0
M  V30 2122 N 211.368 -0.403325 -1.52352 0
M  V30 2123 C 212.331 0.413051 -2.25447 0
M  V30 2124 C 213.331 0.978513 -1.276 0
M  V30 2125 O 214.521 0.858305 -1.51587 0
M  V30 2126 C 211.653 1.58087 -3.02029 0
M  V30 2127 H 212.846 -0.227094 -2.99039 0
M  V30 2128 H 210.399 -0.155722 -1.55522 0
M  V30 2129 H 211.134 2.25804 -2.32772 0
M  V30 2130 H 210.919 1.18195 -3.73861 0
M  V30 2131 H 212.409 2.1585 -3.57489 0
M  V30 2132 N 212.846 1.57033 -0.133567 0
M  V30 2133 C 213.779 2.11824 0.848872 0
M  V30 2134 C 214.757 1.03833 1.2513 0
M  V30 2135 O 215.941 1.31579 1.34978 0
M  V30 2136 C 213.068 2.62692 2.138 0
M  V30 2137 C 212.114 3.82705 1.88253 0
M  V30 2138 S 212.947 5.2438 1.08563 0
M  V30 2139 C 214.103 5.78627 2.38624 0
M  V30 2140 H 214.336 2.94824 0.38289 0
M  V30 2141 H 211.869 1.5419 0.0804796 0
M  V30 2142 H 213.827 2.92652 2.87863 0
M  V30 2143 H 212.488 1.79847 2.57515 0
M  V30 2144 H 211.681 4.16496 2.83809 0
M  V30 2145 H 211.283 3.53437 1.22305 0
M  V30 2146 H 213.575 5.8924 3.34369 0
M  V30 2147 H 214.518 6.76443 2.09358 0
M  V30 2148 H 214.926 5.06783 2.48658 0
M  V30 2149 N 214.325 -0.140222 1.56975 0
M  V30 2150 C 215.288 -1.15689 1.97861 0
M  V30 2151 C 216.288 -1.3549 0.865974 0
M  V30 2152 O 217.478 -1.32367 1.13246 0
M  V30 2153 C 214.61 -2.51582 2.30042 0
M  V30 2154 H 215.803 -0.805971 2.88867 0
M  V30 2155 H 213.356 -0.383801 1.51515 0
M  V30 2156 H 214.091 -2.91632 1.41849 0
M  V30 2157 H 213.876 -2.38569 3.11171 0
M  V30 2158 H 215.366 -3.24792 2.62488 0
M  V30 2159 N 215.803 -1.52179 -0.40978 0
M  V30 2160 C 217.051 -1.65878 -1.15451 0
M  V30 2161 C 217.372 -0.390771 -1.91044 0
M  V30 2162 O 216.642 0.594323 -1.86667 0
M  V30 2163 H 215.222 -0.611405 -0.429177 0
M  V30 2164 H 217.884 -1.89219 -0.467134 0
M  V30 2165 H 216.98 -2.49954 -1.86894 0
M  V30 2166 N 217.281 0.66697 -1.42791 0
M  V30 2167 C 218.231 1.77313 -1.43332 0
M  V30 2168 C 219.215 1.5801 -0.303586 0
M  V30 2169 O 220.407 1.68356 -0.546385 0
M  V30 2170 C 217.536 3.15822 -1.34578 0
M  V30 2171 C 216.622 3.40721 -2.52528 0
M  V30 2172 N 217.013 3.36162 -3.77927 0
M  V30 2173 C 215.311 3.71387 -2.46956 0
M  V30 2174 C 216.012 3.60762 -4.56318 0
M  V30 2175 N 214.988 3.81908 -3.86843 0
M  V30 2176 H 218.79 1.72193 -2.38174 0
M  V30 2177 H 216.304 0.868114 -1.3725 0
M  V30 2178 H 218.301 3.951 -1.33048 0
M  V30 2179 H 216.961 3.22133 -0.407453 0
M  V30 2180 H 217.972 3.15885 -4.10411 0
M  V30 2181 H 214.649 3.84897 -1.61743 0
M  V30 2182 H 216.039 3.63132 -5.65318 0
M  V30 2183 N 218.759 1.29093 0.90403 0
M  V30 2184 C 219.984 1.19809 1.69294 0
M  V30 2185 C 220.409 -0.238481 1.86582 0
M  V30 2186 O 219.767 -1.1723 1.383 0
M  V30 2187 C 219.815 1.91202 3.05736 0
M  V30 2188 O 218.919 1.22611 3.93752 0
M  V30 2189 H 218.26 0.415385 0.518027 0
M  V30 2190 H 220.79 1.70586 1.12967 0
M  V30 2191 H 220.8 1.99487 3.55906 0
M  V30 2192 H 219.475 2.95692 2.92471 0
M  V30 2193 H 218.052 1.22554 3.52186 0
M  V30 2194 N 220.237 -1.11381 1.11499 0
M  V30 2195 C 221.169 -2.17207 0.731704 0
M  V30 2196 C 222.182 -1.61066 -0.236957 0
M  V30 2197 O 223.371 -1.78489 -0.0197591 0
M  V30 2198 C 220.471 -3.38846 0.0607624 0
M  V30 2199 C 219.644 -4.24451 1.0564 0
M  V30 2200 C 218.703 -5.24562 0.4149 0
M  V30 2201 O 217.729 -5.59071 1.069 0
M  V30 2202 N 218.931 -5.74651 -0.821943 0
M  V30 2203 H 221.696 -2.50699 1.64225 0
M  V30 2204 H 219.257 -1.26908 1.00529 0
M  V30 2205 H 221.249 -4.02911 -0.380139 0
M  V30 2206 H 219.819 -3.03411 -0.752376 0
M  V30 2207 H 219.039 -3.56833 1.67524 0
M  V30 2208 H 220.327 -4.78486 1.72998 0
M  V30 2209 H 219.725 -5.48797 -1.37252 0
M  V30 2210 H 218.282 -6.40549 -1.20582 0
M  V30 2211 N 221.715 -0.905404 -1.28997 0
M  V30 2212 C 222.963 -0.533192 -1.9494 0
M  V30 2213 C 223.284 0.924618 -1.71685 0
M  V30 2214 O 222.554 1.65268 -1.05183 0
M  V30 2215 H 221.134 -0.194194 -0.721317 0
M  V30 2216 H 223.796 -1.15294 -1.57141 0
M  V30 2217 H 222.892 -0.72059 -3.03667 0
M  V30 2218 N 223.193 1.4272 -0.668489 0
M  V30 2219 C 224.439 2.01923 -0.188419 0
M  V30 2220 C 224.772 1.52704 1.19979 0
M  V30 2221 O 224.047 0.726566 1.8042 0
M  V30 2222 C 224.33 3.59451 -0.216085 0
M  V30 2223 C 224.183 4.18864 -1.6393 0
M  V30 2224 C 225.502 4.37903 0.439179 0
M  V30 2225 H 222.621 0.733674 -0.0699412 0
M  V30 2226 H 225.263 1.69822 -0.852076 0
M  V30 2227 H 223.413 3.86929 0.349012 0
M  V30 2228 H 225.085 4.02362 -2.25616 0
M  V30 2229 H 223.328 3.74933 -2.18193 0
M  V30 2230 H 223.999 5.27987 -1.61039 0
M  V30 2231 H 226.475 4.16079 -0.0417878 0
M  V30 2232 H 225.351 5.47519 0.389157 0
M  V30 2233 H 225.612 4.15303 1.51577 0
M  V30 2234 N 224.671 0.411399 1.52136 0
M  V30 2235 C 225.601 -0.404015 2.29978 0
M  V30 2236 C 226.582 -1.04412 1.34284 0
M  V30 2237 O 227.767 -1.0527 1.63192 0
M  V30 2238 C 224.897 -1.5197 3.12286 0
M  V30 2239 C 223.851 -1.00448 4.16046 0
M  V30 2240 C 223.177 -2.21393 4.86712 0
M  V30 2241 C 224.477 -0.0569336 5.22269 0
M  V30 2242 H 226.171 0.245529 2.98392 0
M  V30 2243 H 223.717 0.119525 1.43503 0
M  V30 2244 H 225.67 -2.09715 3.6551 0
M  V30 2245 H 224.394 -2.19716 2.41646 0
M  V30 2246 H 223.053 -0.449421 3.63835 0
M  V30 2247 H 222.701 -2.87699 4.12599 0
M  V30 2248 H 222.401 -1.87571 5.56858 0
M  V30 2249 H 223.925 -2.7974 5.4275 0
M  V30 2250 H 225.339 -0.54325 5.7072 0
M  V30 2251 H 223.736 0.192594 5.99791 0
M  V30 2252 H 224.806 0.887663 4.76706 0
M  V30 2253 N 226.149 -1.5696 0.141893 0
M  V30 2254 C 227.112 -2.15316 -0.785587 0
M  V30 2255 C 228.112 -1.09366 -1.1788 0
M  V30 2256 O 229.302 -1.35031 -1.10056 0
M  V30 2257 C 226.434 -2.71211 -2.06537 0
M  V30 2258 H 227.627 -2.98608 -0.278041 0
M  V30 2259 H 225.18 -1.5593 -0.107519 0
M  V30 2260 H 225.915 -1.91571 -2.6167 0
M  V30 2261 H 225.7 -3.4872 -1.79268 0
M  V30 2262 H 227.19 -3.16189 -2.72789 0
M  V30 2263 N 227.627 0.131896 -1.57047 0
M  V30 2264 C 228.873 0.843179 -1.84441 0
M  V30 2265 C 229.206 1.80129 -0.725749 0
M  V30 2266 O 228.481 1.92624 0.269469 0
M  V30 2267 C 228.764 1.60442 -3.22382 0
M  V30 2268 C 228.617 0.666782 -4.4483 0
M  V30 2269 C 229.936 2.56354 -3.5773 0
M  V30 2270 H 227.055 0.305081 -0.670891 0
M  V30 2271 H 229.697 0.107839 -1.89694 0
M  V30 2272 H 227.847 2.23128 -3.18035 0
M  V30 2273 H 229.519 0.0497646 -4.61273 0
M  V30 2274 H 227.762 -0.022609 -4.33794 0
M  V30 2275 H 228.433 1.23579 -5.37989 0
M  V30 2276 H 230.909 2.0378 -3.62785 0
M  V30 2277 H 229.785 3.06657 -4.5525 0
M  V30 2278 H 230.046 3.38419 -2.84473 0
M  V30 2279 N 229.106 1.52395 0.401703 0
M  V30 2280 C 230.016 1.7917 1.51444 0
M  V30 2281 C 231.032 0.677691 1.6026 0
M  V30 2282 O 232.208 0.963909 1.76835 0
M  V30 2283 C 229.273 1.94347 2.87107 0
M  V30 2284 C 228.334 3.18257 2.88116 0
M  V30 2285 C 227.567 3.32701 4.17308 0
M  V30 2286 O 227.79 2.52238 5.11598 0
M  V30 2287 O 226.724 4.25891 4.25324 0
M  V30 2288 H 230.55 2.73633 1.31752 0
M  V30 2289 H 228.135 1.3733 0.588296 0
M  V30 2290 H 230.017 2.06109 3.67555 0
M  V30 2291 H 228.692 1.03073 3.06851 0
M  V30 2292 H 227.599 3.11947 2.06494 0
M  V30 2293 H 228.932 4.09336 2.73322 0
M  V30 2294 N 230.584 -0.659388 1.43143 0
M  V30 2295 C 231.547 -1.75432 1.47501 0
M  V30 2296 C 232.547 -1.56707 0.360512 0
M  V30 2297 O 233.737 -1.62717 0.622002 0
M  V30 2298 C 230.869 -3.14239 1.32162 0
M  V30 2299 H 232.062 -1.7295 2.45006 0
M  V30 2300 H 229.615 -0.870469 1.29817 0
M  V30 2301 H 230.35 -3.22336 0.356401 0
M  V30 2302 H 230.135 -3.29235 2.12948 0
M  V30 2303 H 231.625 -3.94094 1.3813 0
M  V30 2304 N 232.062 -1.29571 -0.897171 0
M  V30 2305 C 232.992 -1.17473 -2.01798 0
M  V30 2306 C 233.973 -0.068323 -1.69963 0
M  V30 2307 O 235.158 -0.248239 -1.92607 0
M  V30 2308 C 232.288 -0.853099 -3.36659 0
M  V30 2309 C 231.242 -1.9161 -3.82713 0
M  V30 2310 C 230.568 -1.44773 -5.14728 0
M  V30 2311 C 231.868 -3.32535 -4.02763 0
M  V30 2312 H 233.562 -2.11237 -2.12177 0
M  V30 2313 H 231.108 -1.01699 -1.01948 0
M  V30 2314 H 233.061 -0.755165 -4.14578 0
M  V30 2315 H 231.785 0.120236 -3.26379 0
M  V30 2316 H 230.444 -2.00346 -3.07013 0
M  V30 2317 H 230.092 -0.462995 -5.00865 0
M  V30 2318 H 229.792 -2.15865 -5.46513 0
M  V30 2319 H 231.316 -1.36334 -5.95185 0
M  V30 2320 H 232.73 -3.26626 -4.71156 0
M  V30 2321 H 231.127 -4.01607 -4.45905 0
M  V30 2322 H 232.197 -3.75326 -3.07016 0
M  V30 2323 N 233.54 1.10788 -1.12088 0
M  V30 2324 C 234.487 2.17025 -0.785407 0
M  V30 2325 C 235.457 1.64265 0.246191 0
M  V30 2326 O 236.642 1.90412 0.121584 0
M  V30 2327 C 233.782 3.44249 -0.242177 0
M  V30 2328 C 232.895 4.1098 -1.33115 0
M  V30 2329 C 232.03 5.25911 -0.747741 0
M  V30 2330 C 231.069 5.84538 -1.81609 0
M  V30 2331 N 230.206 6.90853 -1.25167 0
M  V30 2332 H 235.046 2.45066 -1.69548 0
M  V30 2333 H 232.583 1.20297 -0.846582 0
M  V30 2334 H 234.541 4.17101 0.0908026 0
M  V30 2335 H 233.171 3.16571 0.631072 0
M  V30 2336 H 232.223 3.36133 -1.78097 0
M  V30 2337 H 233.535 4.50601 -2.13917 0
M  V30 2338 H 232.689 6.056 -0.365216 0
M  V30 2339 H 231.428 4.87614 0.0915188 0
M  V30 2340 H 230.433 5.03522 -2.20785 0
M  V30 2341 H 231.658 6.249 -2.6585 0
M  V30 2342 H 229.604 6.54562 -0.434174 0
M  V30 2343 H 229.521 7.29166 -1.99633 0
M  V30 2344 H 230.789 7.7433 -0.896259 0
M  V30 2345 N 235.018 0.912232 1.28515 0
M  V30 2346 C 235.981 0.404223 2.25607 0
M  V30 2347 C 236.981 -0.468602 1.53821 0
M  V30 2348 O 238.171 -0.271873 1.72065 0
M  V30 2349 C 235.303 -0.420653 3.38295 0
M  V30 2350 H 236.496 1.26188 2.7206 0
M  V30 2351 H 234.049 0.691495 1.40171 0
M  V30 2352 H 234.784 -1.29777 2.97201 0
M  V30 2353 H 234.569 0.204935 3.91564 0
M  V30 2354 H 236.059 -0.766971 4.10496 0
M  V30 2355 N 236.496 -1.42363 0.676048 0
M  V30 2356 C 237.744 -2.01123 0.198437 0
M  V30 2357 C 238.065 -1.53731 -1.19966 0
M  V30 2358 O 237.335 -0.759518 -1.80577 0
M  V30 2359 H 235.915 -0.743678 0.0703721 0
M  V30 2360 H 238.577 -1.74263 0.872837 0
M  V30 2361 H 237.673 -3.11454 0.200686 0
M  V30 2362 N 237.974 -0.419461 -1.51915 0
M  V30 2363 C 239.222 0.152637 -2.01523 0
M  V30 2364 C 239.543 1.44762 -1.30649 0
M  V30 2365 O 238.813 1.90997 -0.435535 0
M  V30 2366 H 237.393 0.0593966 -0.744635 0
M  V30 2367 H 240.055 -0.558073 -1.86739 0
M  V30 2368 H 239.151 0.341369 -3.10227 0
M  V30 2369 N 239.452 1.56882 -0.150215 0
M  V30 2370 C 240.415 2.1573 0.774157 0
M  V30 2371 C 241.415 1.0999 1.17298 0
M  V30 2372 O 242.605 1.35613 1.09338 0
M  V30 2373 C 239.737 2.72302 2.05096 0
M  V30 2374 H 240.93 2.98752 0.262201 0
M  V30 2375 H 238.483 1.55985 0.099248 0
M  V30 2376 H 239.218 1.92956 2.6065 0
M  V30 2377 H 239.003 3.49665 1.77416 0
M  V30 2378 H 240.493 3.17632 2.71109 0
M  V30 2379 N 240.93 -0.123565 1.57115 0
M  V30 2380 C 242.346 -0.476961 1.52306 0
M  V30 2381 C 242.546 -1.82109 0.86248 0
M  V30 2382 O 241.602 -2.48586 0.442884 0
M  V30 2383 C 242.915 -0.465661 2.97073 0
M  V30 2384 C 244.463 -0.549534 3.08138 0
M  V30 2385 C 244.938 -0.568669 4.54456 0
M  V30 2386 N 246.429 -0.630237 4.58892 0
M  V30 2387 C 247.164 -0.666415 5.69514 0
M  V30 2388 N 246.66 -0.660514 6.89644 0
M  V30 2389 N 248.453 -0.709077 5.5761 0
M  V30 2390 H 240.604 0.757198 1.98445 0
M  V30 2391 H 242.867 0.278808 0.906074 0
M  V30 2392 H 242.573 0.454232 3.48754 0
M  V30 2393 H 242.447 -1.29513 3.54269 0
M  V30 2394 H 244.834 -1.45985 2.56461 0
M  V30 2395 H 244.915 0.307532 2.53945 0
M  V30 2396 H 244.559 0.337581 5.06777 0
M  V30 2397 H 244.489 -1.44256 5.06456 0
M  V30 2398 H 246.98 -0.641146 3.72421 0
M  V30 2399 H 247.293 -0.690616 7.69708 0
M  V30 2400 H 245.638 -0.628012 6.92157 0
M  V30 2401 H 248.829 -0.711019 4.62668 0
M  V30 2402 H 249.002 -0.733804 6.43832 0
M  V30 2403 N 242.408 -1.52605 -0.393616 0
M  V30 2404 C 243.685 -1.58001 -1.15304 0
M  V30 2405 C 244.065 -0.370385 -2.07825 0
M  V30 2406 O 243.413 0.641638 -2.19306 0
M  V30 2407 C 243.623 -2.91652 -1.91677 0
M  V30 2408 C 244.971 -3.4522 -2.47201 0
M  V30 2409 O 245.995 -2.93495 -2.01839 0
M  V30 2410 O 244.854 -4.35579 -3.3005 0
M  V30 2411 H 241.948 -0.637068 -0.527327 0
M  V30 2412 H 244.494 -1.64939 -0.399141 0
M  V30 2413 H 243.266 -3.71136 -1.23992 0
M  V30 2414 H 242.889 -2.88077 -2.74039 0
M  V30 2415 N 243.887 0.651787 -1.4349 0
M  V30 2416 C 245.133 1.41376 -1.45398 0
M  V30 2417 C 245.466 1.94041 -0.0784823 0
M  V30 2418 O 244.741 1.72379 0.900878 0
M  V30 2419 C 245.024 2.59414 -2.49752 0
M  V30 2420 C 244.877 2.12232 -3.96582 0
M  V30 2421 C 246.196 3.61626 -2.50827 0
M  V30 2422 H 243.315 0.512719 -0.529422 0
M  V30 2423 H 245.957 0.738796 -1.75048 0
M  V30 2424 H 244.107 3.16997 -2.246 0
M  V30 2425 H 245.779 1.59639 -4.32797 0
M  V30 2426 H 244.022 1.43592 -4.09346 0
M  V30 2427 H 244.693 2.9712 -4.65214 0
M  V30 2428 H 247.169 3.13805 -2.7325 0
M  V30 2429 H 246.045 4.41766 -3.25783 0
M  V30 2430 H 246.306 4.14314 -1.5426 0
M  V30 2431 N 245.365 1.30045 0.890287 0
M  V30 2432 C 246.275 1.17885 2.02831 0
M  V30 2433 C 247.291 0.0999609 1.73713 0
M  V30 2434 O 248.467 0.313867 1.98939 0
M  V30 2435 C 245.532 0.866079 3.35708 0
M  V30 2436 C 244.593 2.02979 3.78283 0
M  V30 2437 C 243.826 1.73184 5.0482 0
M  V30 2438 O 244.049 0.657237 5.66601 0
M  V30 2439 O 242.983 2.58267 5.43674 0
M  V30 2440 H 246.809 2.13474 2.16015 0
M  V30 2441 H 244.394 1.09587 1.01543 0
M  V30 2442 H 246.276 0.706623 4.15433 0
M  V30 2443 H 244.951 -0.0599443 3.23644 0
M  V30 2444 H 243.858 2.24454 2.99285 0
M  V30 2445 H 245.191 2.93734 3.94944 0
M  V30 2446 N 246.843 -1.10192 1.12674 0
M  V30 2447 C 247.773 -2.18652 0.819362 0
M  V30 2448 C 248.754 -1.68698 -0.217915 0
M  V30 2449 O 249.939 -1.94041 -0.0785581 0
M  V30 2450 C 247.069 -3.46202 0.27594 0
M  V30 2451 C 246.023 -4.09444 1.24656 0
M  V30 2452 C 245.349 -5.31725 0.563258 0
M  V30 2453 C 246.649 -4.52863 2.60217 0
M  V30 2454 H 248.343 -2.44622 1.72628 0
M  V30 2455 H 245.889 -1.17571 0.831451 0
M  V30 2456 H 247.842 -4.21372 0.0486149 0
M  V30 2457 H 246.566 -3.1973 -0.666331 0
M  V30 2458 H 245.225 -3.36284 1.45974 0
M  V30 2459 H 244.873 -5.0153 -0.384235 0
M  V30 2460 H 244.573 -5.74991 1.21075 0
M  V30 2461 H 246.097 -6.09624 0.34503 0
M  V30 2462 H 247.511 -5.19294 2.42913 0
M  V30 2463 H 245.908 -5.06986 3.21068 0
M  V30 2464 H 246.978 -3.65656 3.18471 0
M  V30 2465 N 248.321 -0.919034 -1.28029 0
M  V30 2466 C 249.568 -0.554934 -1.94748 0
M  V30 2467 C 249.896 0.90231 -1.72304 0
M  V30 2468 O 249.151 1.65767 -1.04018 0
M  V30 2469 C 249.45 -0.816855 -3.4794 0
M  V30 2470 C 249.116 -2.25448 -3.90492 0
M  V30 2471 C 247.778 -2.64752 -4.01821 0
M  V30 2472 C 250.13 -3.18977 -4.12193 0
M  V30 2473 C 247.458 -3.96727 -4.32232 0
M  V30 2474 C 249.81 -4.50523 -4.44086 0
M  V30 2475 C 248.474 -4.89673 -4.53626 0
M  V30 2476 H 247.744 -0.203065 -0.712633 0
M  V30 2477 H 250.391 -1.16136 -1.52265 0
M  V30 2478 H 248.696 -0.127677 -3.91592 0
M  V30 2479 H 250.393 -0.514238 -3.97689 0
M  V30 2480 H 246.983 -1.93952 -3.82205 0
M  V30 2481 H 251.167 -2.89817 -4.02889 0
M  V30 2482 H 246.423 -4.26754 -4.37825 0
M  V30 2483 H 250.597 -5.23005 -4.59825 0
M  V30 2484 H 248.224 -5.91969 -4.76946 0
M  V30 2485 N 249.799 1.42003 -0.683588 0
M  V30 2486 C 250.762 2.29191 -0.0198243 0
M  V30 2487 C 251.762 1.43773 0.72013 0
M  V30 2488 O 252.952 1.65061 0.556815 0
M  V30 2489 C 250.084 3.26435 0.982487 0
M  V30 2490 H 251.277 2.8938 -0.787345 0
M  V30 2491 H 248.83 1.49789 -0.446418 0
M  V30 2492 H 249.565 2.71203 1.77819 0
M  V30 2493 H 249.35 3.89449 0.455182 0
M  V30 2494 H 250.84 3.918 1.44508 0
M  V30 2495 N 251.277 0.427512 1.51691 0
M  V30 2496 C 252.207 -0.3796 2.30394 0
M  V30 2497 C 253.188 -1.02982 1.35384 0
M  V30 2498 O 254.373 -1.03534 1.643 0
M  V30 2499 C 251.503 -1.48649 3.1388 0
M  V30 2500 C 250.457 -0.960294 4.17088 0
M  V30 2501 C 249.783 -2.16219 4.89033 0
M  V30 2502 C 251.083 -0.00153679 5.223 0
M  V30 2503 H 252.777 0.277164 2.98114 0
M  V30 2504 H 250.323 0.134739 1.43368 0
M  V30 2505 H 252.276 -2.05826 3.67714 0
M  V30 2506 H 251 -2.1714 2.43962 0
M  V30 2507 H 249.659 -0.410806 3.64291 0
M  V30 2508 H 249.307 -2.83307 4.15628 0
M  V30 2509 H 249.007 -1.81654 5.58816 0
M  V30 2510 H 250.531 -2.73968 5.45687 0
M  V30 2511 H 251.945 -0.482687 5.71264 0
M  V30 2512 H 250.342 0.256199 5.99553 0
M  V30 2513 H 251.412 0.938174 4.75738 0
M  V30 2514 N 252.755 -1.56801 0.158532 0
M  V30 2515 C 253.718 -2.16138 -0.762705 0
M  V30 2516 C 254.718 -1.1061 -1.16713 0
M  V30 2517 O 255.908 -1.36191 -1.08617 0
M  V30 2518 C 253.04 -2.73386 -2.03649 0
M  V30 2519 H 254.233 -2.98886 -0.246354 0
M  V30 2520 H 251.786 -1.56035 -0.0909744 0
M  V30 2521 H 252.521 -1.94335 -2.59623 0
M  V30 2522 H 252.306 -3.50601 -1.75559 0
M  V30 2523 H 253.796 -3.19065 -2.6942 0
M  V30 2524 N 254.233 0.115231 -1.57178 0
M  V30 2525 C 255.165 1.16694 -1.97269 0
M  V30 2526 C 256.178 1.37445 -0.872502 0
M  V30 2527 O 257.367 1.36454 -1.15077 0
M  V30 2528 C 254.467 2.52627 -2.25905 0
M  V30 2529 C 253.64 2.52427 -3.57211 0
M  V30 2530 C 252.699 3.70134 -3.74016 0
M  V30 2531 O 251.725 3.53546 -4.46087 0
M  V30 2532 N 252.927 4.88844 -3.13068 0
M  V30 2533 H 255.692 0.82588 -2.88096 0
M  V30 2534 H 253.253 0.304461 -1.59011 0
M  V30 2535 H 255.245 3.29937 -2.34359 0
M  V30 2536 H 253.815 2.789 -1.41186 0
M  V30 2537 H 253.035 1.60805 -3.5991 0
M  V30 2538 H 254.323 2.49353 -4.43509 0
M  V30 2539 H 253.721 5.05225 -2.54489 0
M  V30 2540 H 252.278 5.63817 -3.27037 0
M  V30 2541 N 255.711 1.52812 0.385517 0
M  V30 2542 C 256.641 1.80808 1.47752 0
M  V30 2543 C 257.622 0.660318 1.5676 0
M  V30 2544 O 258.807 0.908246 1.71652 0
M  V30 2545 C 255.937 1.98008 2.85324 0
M  V30 2546 C 254.891 3.13709 2.91154 0
M  V30 2547 C 254.217 3.16169 4.31209 0
M  V30 2548 C 255.517 4.52709 2.60483 0
M  V30 2549 H 257.211 2.72253 1.24573 0
M  V30 2550 H 254.757 1.31003 0.597839 0
M  V30 2551 H 256.71 2.16176 3.61726 0
M  V30 2552 H 255.434 1.03255 3.09848 0
M  V30 2553 H 254.093 2.95329 2.17201 0
M  V30 2554 H 253.741 2.19092 4.52778 0
M  V30 2555 H 253.441 3.93894 4.36029 0
M  V30 2556 H 254.965 3.36496 5.09512 0
M  V30 2557 H 256.379 4.71173 3.26602 0
M  V30 2558 H 254.776 5.32528 2.76648 0
M  V30 2559 H 255.846 4.59186 1.55809 0
M  V30 2560 N 257.189 -0.644168 1.43834 0
M  V30 2561 C 258.438 -1.39985 1.45214 0
M  V30 2562 C 258.751 -1.95421 0.0835494 0
M  V30 2563 O 259.957 -2.71488 -0.0251748 0
M  V30 2564 C 258.413 -2.53384 2.55587 0
M  V30 2565 C 258.021 -2.04517 3.98594 0
M  V30 2566 C 259.765 -3.30685 2.66172 0
M  V30 2567 C 257.672 -3.1518 5.00416 0
M  V30 2568 H 256.602 -0.526005 0.540218 0
M  V30 2569 H 259.253 -0.694367 1.69855 0
M  V30 2570 H 257.635 -3.26446 2.24163 0
M  V30 2571 H 258.809 -1.38405 4.39523 0
M  V30 2572 H 257.124 -1.40068 3.92135 0
M  V30 2573 H 259.721 -4.13158 3.39418 0
M  V30 2574 H 260.064 -3.79312 1.71546 0
M  V30 2575 H 260.597 -2.64708 2.96942 0
M  V30 2576 H 257.336 -2.71511 5.96625 0
M  V30 2577 H 256.856 -3.79974 4.64091 0
M  V30 2578 H 258.535 -3.80166 5.23529 0
M  V30 2579 N 258.668 -1.30515 -0.883378 0
M  V30 2580 C 259.916 -1.19194 -1.63209 0
M  V30 2581 C 260.237 0.253205 -1.93349 0
M  V30 2582 O 259.507 1.17025 -1.57105 0
M  V30 2583 H 258.087 -0.438148 -0.605009 0
M  V30 2584 H 260.749 -1.63663 -1.05832 0
M  V30 2585 H 259.845 -1.75396 -2.58153 0
M  V30 2586 N 260.146 1.09593 -1.13257 0
M  V30 2587 C 261.109 2.14359 -0.811358 0
M  V30 2588 C 262.109 1.59808 0.178377 0
M  V30 2589 O 263.299 1.74132 -0.0484911 0
M  V30 2590 C 260.431 3.40269 -0.207276 0
M  V30 2591 H 261.624 2.44284 -1.73969 0
M  V30 2592 H 259.177 1.25102 -0.936973 0
M  V30 2593 H 259.912 3.15969 0.73036 0
M  V30 2594 H 259.697 3.81154 -0.919992 0
M  V30 2595 H 261.187 4.176 0.000667944 0
M  V30 2596 N 261.624 0.925811 1.2754 0
M  V30 2597 C 262.587 0.428129 2.25166 0
M  V30 2598 C 263.587 -0.452261 1.54309 0
M  V30 2599 O 264.777 -0.253608 1.72344 0
M  V30 2600 C 261.909 -0.384749 3.38722 0
M  V30 2601 H 263.102 1.29066 2.70706 0
M  V30 2602 H 260.655 0.706323 1.3943 0
M  V30 2603 H 261.39 -1.26618 2.98561 0
M  V30 2604 H 261.175 0.246454 3.91325 0
M  V30 2605 H 262.665 -0.723389 4.11287 0
M  V30 2606 N 263.102 -1.41638 0.69111 0
M  V30 2607 C 264.35 -2.00902 0.219758 0
M  V30 2608 C 264.671 -1.54994 -1.18329 0
M  V30 2609 O 263.941 -0.778628 -1.79762 0
M  V30 2610 H 262.521 -0.74289 0.0782558 0
M  V30 2611 H 265.183 -1.73327 0.891271 0
M  V30 2612 H 264.279 -3.11224 0.233708 0
M  V30 2613 N 264.58 -0.43555 -1.51462 0
M  V30 2614 C 265.808 0.130242 -2.0649 0
M  V30 2615 C 266.223 1.36614 -1.30315 0
M  V30 2616 O 265.58 1.78869 -0.362223 0
M  V30 2617 C 265.631 0.454253 -3.58635 0
M  V30 2618 O 265.352 -0.73259 -4.31931 0
M  V30 2619 C 266.853 1.07091 -4.3017 0
M  V30 2620 H 264.073 0.00871669 -0.670943 0
M  V30 2621 H 266.617 -0.614117 -1.95061 0
M  V30 2622 H 264.772 1.14851 -3.69984 0
M  V30 2623 H 265.186 -0.455787 -5.22516 0
M  V30 2624 H 266.66 1.24764 -5.37716 0
M  V30 2625 H 267.137 2.05144 -3.88346 0
M  V30 2626 H 267.743 0.416089 -4.2326 0
M  V30 2627 N 266.058 1.56714 -0.166846 0
M  V30 2628 C 266.988 2.20754 0.760913 0
M  V30 2629 C 267.969 1.16178 1.24244 0
M  V30 2630 O 269.154 1.44592 1.29641 0
M  V30 2631 C 266.284 2.84478 1.99223 0
M  V30 2632 C 265.238 3.95053 1.64672 0
M  V30 2633 C 264.564 4.45805 2.95232 0
M  V30 2634 C 265.864 5.14865 0.878155 0
M  V30 2635 H 267.558 2.98537 0.22713 0
M  V30 2636 H 265.104 1.43596 0.107805 0
M  V30 2637 H 267.057 3.27951 2.64624 0
M  V30 2638 H 265.781 2.04056 2.55007 0
M  V30 2639 H 264.44 3.52228 1.01641 0
M  V30 2640 H 264.088 3.62181 3.49047 0
M  V30 2641 H 263.788 5.204 2.7287 0
M  V30 2642 H 265.312 4.91962 3.6167 0
M  V30 2643 H 266.726 5.55059 1.43466 0
M  V30 2644 H 265.123 5.95348 0.753738 0
M  V30 2645 H 266.193 4.84735 -0.126377 0
M  V30 2646 N 267.536 -0.106894 1.57237 0
M  V30 2647 C 268.782 -0.81373 1.85759 0
M  V30 2648 C 269.115 -1.78952 0.754315 0
M  V30 2649 O 268.39 -1.93029 -0.23879 0
M  V30 2650 C 268.673 -1.55293 3.24894 0
M  V30 2651 C 268.526 -0.595929 4.45835 0
M  V30 2652 C 269.845 -2.5063 3.61763 0
M  V30 2653 H 266.964 -0.294369 0.67566 0
M  V30 2654 H 269.606 -0.0776472 1.89841 0
M  V30 2655 H 267.756 -2.1804 3.21544 0
M  V30 2656 H 269.428 0.0236262 4.61294 0
M  V30 2657 H 267.671 0.0916191 4.33703 0
M  V30 2658 H 268.342 -1.15004 5.39887 0
M  V30 2659 H 270.818 -1.97982 3.65981 0
M  V30 2660 H 269.694 -2.99376 4.60071 0
M  V30 2661 H 269.955 -3.3385 2.89821 0
M  V30 2662 N 269.014 -1.53014 -0.377408 0
M  V30 2663 C 269.977 -1.77957 -1.44444 0
M  V30 2664 C 270.977 -0.649763 -1.47087 0
M  V30 2665 O 272.167 -0.917897 -1.48055 0
M  V30 2666 C 269.299 -1.89089 -2.83651 0
M  V30 2667 H 270.492 -2.73243 -1.23606 0
M  V30 2668 H 268.045 -1.43912 -0.609844 0
M  V30 2669 H 268.78 -0.958293 -3.09818 0
M  V30 2670 H 268.565 -2.71254 -2.83132 0
M  V30 2671 H 270.055 -2.1002 -3.60945 0
M  V30 2672 N 270.492 0.636531 -1.44174 0
M  V30 2673 C 271.908 0.954104 -1.27941 0
M  V30 2674 C 272.108 2.0039 -0.211248 0
M  V30 2675 O 271.164 2.49236 0.404695 0
M  V30 2676 C 272.477 1.4225 -2.64925 0
M  V30 2677 C 274.025 1.53827 -2.72592 0
M  V30 2678 C 274.5 2.04053 -4.10032 0
M  V30 2679 N 275.991 2.11331 -4.12182 0
M  V30 2680 C 276.726 2.51352 -5.15374 0
M  V30 2681 N 276.222 2.90549 -6.2893 0
M  V30 2682 N 278.015 2.51438 -5.02728 0
M  V30 2683 H 270.166 -0.0578386 -2.12321 0
M  V30 2684 H 272.429 0.0367406 -0.947288 0
M  V30 2685 H 272.135 0.725466 -3.44136 0
M  V30 2686 H 272.009 2.39451 -2.9145 0
M  V30 2687 H 274.396 2.22628 -1.93702 0
M  V30 2688 H 274.477 0.550154 -2.49814 0
M  V30 2689 H 274.121 1.35848 -4.89395 0
M  V30 2690 H 274.051 3.03726 -4.30184 0
M  V30 2691 H 276.542 1.83745 -3.30222 0
M  V30 2692 H 276.855 3.19884 -7.03487 0
M  V30 2693 H 275.2 2.88313 -6.32377 0
M  V30 2694 H 278.391 2.20203 -4.13072 0
M  V30 2695 H 278.564 2.82304 -5.83274 0
M  V30 2696 N 271.97 1.30982 0.876444 0
M  V30 2697 C 273.386 1.09498 1.16113 0
M  V30 2698 C 273.586 -0.13875 2.01022 0
M  V30 2699 O 272.642 -0.829935 2.38471 0
M  V30 2700 C 273.955 2.36308 1.85954 0
M  V30 2701 C 275.503 2.41856 1.98683 0
M  V30 2702 C 275.978 3.6853 2.71937 0
M  V30 2703 N 277.469 3.69387 2.79477 0
M  V30 2704 C 278.204 4.64096 3.36753 0
M  V30 2705 N 277.7 5.69155 3.95012 0
M  V30 2706 N 279.493 4.51626 3.3465 0
M  V30 2707 H 271.644 2.10118 0.310494 0
M  V30 2708 H 273.907 0.926634 0.200131 0
M  V30 2709 H 273.613 3.26388 1.31011 0
M  V30 2710 H 273.487 2.4561 2.86278 0
M  V30 2711 H 275.874 1.52249 2.52793 0
M  V30 2712 H 275.955 2.36523 0.9742 0
M  V30 2713 H 275.599 4.58499 2.18496 0
M  V30 2714 H 275.529 3.71127 3.73593 0
M  V30 2715 H 278.02 2.93438 2.38123 0
M  V30 2716 H 278.333 6.3751 4.36808 0
M  V30 2717 H 276.678 5.72937 3.93406 0
M  V30 2718 H 279.869 3.68728 2.8837 0
M  V30 2719 H 280.042 5.25614 3.7899 0
M  V30 2720 N 273.449 -1.08991 1.13837 0
M  V30 2721 C 274.865 -1.33312 0.877506 0
M  V30 2722 C 275.065 -1.95587 -0.48456 0
M  V30 2723 O 274.121 -2.20509 -1.23013 0
M  V30 2724 C 275.434 -2.24045 2.0056 0
M  V30 2725 C 276.982 -2.37542 2.03821 0
M  V30 2726 C 277.457 -3.31614 3.15905 0
M  V30 2727 N 278.948 -3.39189 3.15445 0
M  V30 2728 C 279.683 -4.11992 3.98811 0
M  V30 2729 N 279.179 -4.87553 4.92203 0
M  V30 2730 N 280.972 -4.07762 3.86894 0
M  V30 2731 H 273.123 -0.669456 2.01574 0
M  V30 2732 H 275.386 -0.357482 0.878015 0
M  V30 2733 H 275.092 -1.85521 2.98789 0
M  V30 2734 H 274.966 -3.24466 1.92359 0
M  V30 2735 H 277.353 -2.75327 1.06202 0
M  V30 2736 H 277.434 -1.36884 2.16093 0
M  V30 2737 H 277.078 -2.94551 4.13766 0
M  V30 2738 H 277.008 -4.32186 3.0087 0
M  V30 2739 H 279.499 -2.85314 2.47799 0
M  V30 2740 H 279.812 -5.40549 5.52292 0
M  V30 2741 H 278.157 -4.86627 4.96205 0
M  V30 2742 H 281.348 -3.47833 3.13257 0
M  V30 2743 H 281.521 -4.64238 4.52092 0
M  V30 2744 N 274.927 -0.932562 -1.27047 0
M  V30 2745 C 276.175 -0.574422 -1.93765 0
M  V30 2746 C 276.496 0.887993 -1.73608 0
M  V30 2747 O 275.766 1.62999 -1.08665 0
M  V30 2748 H 274.346 -0.209451 -0.717035 0
M  V30 2749 H 277.008 -1.18601 -1.5466 0
M  V30 2750 H 276.104 -0.784841 -3.02071 0
M  V30 2751 N 276.405 1.4127 -0.698611 0
M  V30 2752 C 277.654 2.00408 -0.227949 0
M  V30 2753 C 277.967 1.55981 1.18023 0
M  V30 2754 O 279.173 2.07699 1.74852 0
M  V30 2755 C 277.629 3.58129 -0.356636 0
M  V30 2756 C 277.237 4.11536 -1.77037 0
M  V30 2757 C 278.981 4.24466 0.0540969 0
M  V30 2758 C 276.888 5.61701 -1.85055 0
M  V30 2759 H 275.818 0.749586 -0.0814657 0
M  V30 2760 H 278.469 1.61713 -0.867249 0
M  V30 2761 H 276.851 3.94442 0.350965 0
M  V30 2762 H 278.025 3.86636 -2.50698 0
M  V30 2763 H 276.34 3.57736 -2.13105 0
M  V30 2764 H 278.937 5.34698 0.0146723 0
M  V30 2765 H 279.28 4.01687 1.09332 0
M  V30 2766 H 279.813 3.93198 -0.603337 0
M  V30 2767 H 276.552 5.89312 -2.8704 0
M  V30 2768 H 276.072 5.88519 -1.15783 0
M  V30 2769 H 277.751 6.26524 -1.61484 0
M  V30 2770 N 277.883 0.443576 1.51229 0
M  V30 2771 C 279.108 -0.121648 2.07043 0
M  V30 2772 C 279.533 -1.35156 1.30823 0
M  V30 2773 O 278.891 -1.7793 0.347934 0
M  V30 2774 C 278.939 -0.41624 3.5819 0
M  V30 2775 O 278.043 -1.50163 3.8409 0
M  V30 2776 H 277.384 0.000871367 0.663999 0
M  V30 2777 H 279.914 0.626706 1.94765 0
M  V30 2778 H 279.924 -0.664867 4.02546 0
M  V30 2779 H 278.599 0.482653 4.1309 0
M  V30 2780 H 277.176 -1.24248 3.51592 0
M  V30 2781 N 279.361 -1.56624 0.175154 0
M  V30 2782 C 280.607 -1.9729 -0.469506 0
M  V30 2783 C 280.94 -1.06128 -1.62636 0
M  V30 2784 O 280.215 -0.109183 -1.94193 0
M  V30 2785 C 280.498 -3.47375 -0.948804 0
M  V30 2786 C 280.351 -4.49317 0.208491 0
M  V30 2787 C 281.67 -4.00652 -1.82116 0
M  V30 2788 H 278.789 -0.717317 -0.16919 0
M  V30 2789 H 281.431 -1.88184 0.262062 0
M  V30 2790 H 279.581 -3.55267 -1.57219 0
M  V30 2791 H 281.253 -4.53482 0.845682 0
M  V30 2792 H 279.496 -4.25121 0.863395 0
M  V30 2793 H 280.167 -5.51741 -0.169059 0
M  V30 2794 H 282.643 -3.95416 -1.2956 0
M  V30 2795 H 281.519 -5.06075 -2.12554 0
M  V30 2796 H 281.78 -3.44699 -2.7683 0
M  V30 2797 N 280.839 0.0985539 -1.57292 0
M  V30 2798 C 281.769 1.12064 -2.04851 0
M  V30 2799 C 282.75 1.41981 -0.936767 0
M  V30 2800 O 283.935 1.52071 -1.20781 0
M  V30 2801 C 281.065 2.44144 -2.47004 0
M  V30 2802 C 280.019 2.28643 -3.6181 0
M  V30 2803 C 279.345 3.65869 -3.89929 0
M  V30 2804 C 280.645 1.72986 -4.92822 0
M  V30 2805 H 282.339 0.724979 -2.9049 0
M  V30 2806 H 279.885 0.34729 -1.39749 0
M  V30 2807 H 281.838 3.15914 -2.78884 0
M  V30 2808 H 280.562 2.85639 -1.5836 0
M  V30 2809 H 279.221 1.59318 -3.30172 0
M  V30 2810 H 278.869 4.04885 -2.98458 0
M  V30 2811 H 278.569 3.56344 -4.67218 0
M  V30 2812 H 280.093 4.39112 -4.2428 0
M  V30 2813 H 281.507 2.34593 -5.23105 0
M  V30 2814 H 279.904 1.74229 -5.74251 0
M  V30 2815 H 280.974 0.689007 -4.7998 0
M  V30 2816 N 282.317 1.53212 0.369288 0
M  V30 2817 C 283.565 1.68881 1.11012 0
M  V30 2818 C 283.886 0.441285 1.89941 0
M  V30 2819 O 283.156 -0.544623 1.88177 0
M  V30 2820 H 281.736 0.622569 0.412816 0
M  V30 2821 H 284.398 1.90391 0.416802 0
M  V30 2822 H 283.494 2.54822 1.80201 0
M  V30 2823 N 283.795 -0.628877 1.44509 0
M  V30 2824 C 285.072 -1.38733 1.37886 0
M  V30 2825 C 285.452 -2.11065 0.0387008 0
M  V30 2826 O 284.8 -2.06476 -0.97878 0
M  V30 2827 C 285.01 -2.35188 2.57852 0
M  V30 2828 C 286.358 -2.9845 3.02014 0
M  V30 2829 O 287.382 -2.45513 2.58073 0
M  V30 2830 O 286.241 -3.94487 3.78209 0
M  V30 2831 H 283.335 -0.621015 0.54614 0
M  V30 2832 H 285.881 -0.653744 1.56602 0
M  V30 2833 H 284.653 -1.80855 3.46998 0
M  V30 2834 H 284.276 -3.1596 2.4136 0
M  V30 2835 N 285.273 -1.31445 -0.869486 0
M  V30 2836 C 286.689 -1.10113 -1.15531 0
M  V30 2837 C 286.889 0.128087 -2.01092 0
M  V30 2838 O 285.945 0.817276 -2.38908 0
M  V30 2839 C 287.258 -2.37291 -1.84698 0
M  V30 2840 C 288.806 -2.42906 -1.97397 0
M  V30 2841 C 289.281 -3.69967 -2.69979 0
M  V30 2842 N 290.772 -3.70864 -2.77514 0
M  V30 2843 C 291.507 -4.65875 -3.34287 0
M  V30 2844 N 291.003 -5.71242 -3.91988 0
M  V30 2845 N 292.796 -4.53394 -3.3225 0
M  V30 2846 H 284.947 -2.1028 -0.299347 0
M  V30 2847 H 287.21 -0.927683 -0.195214 0
M  V30 2848 H 286.916 -3.27078 -1.29278 0
M  V30 2849 H 286.79 -2.47125 -2.84972 0
M  V30 2850 H 289.177 -1.53588 -2.51982 0
M  V30 2851 H 289.258 -2.37036 -0.961643 0
M  V30 2852 H 288.902 -4.59652 -2.16062 0
M  V30 2853 H 288.832 -3.73103 -3.7162 0
M  V30 2854 H 291.323 -2.94697 -2.36563 0
M  V30 2855 H 291.636 -6.39817 -4.33421 0
M  V30 2856 H 289.981 -5.75015 -3.90362 0
M  V30 2857 H 293.172 -3.70252 -2.8641 0
M  V30 2858 H 293.345 -5.27617 -3.76197 0
M  V30 2859 N 286.751 1.08385 -1.14413 0
M  V30 2860 C 288.162 1.62258 -0.923535 0
M  V30 2861 C 288.513 1.88691 0.537595 0
M  V30 2862 O 287.638 1.64454 1.40655 0
M  V30 2863 C 288.233 2.94781 -1.67002 0
M  V30 2864 C 286.792 3.45437 -1.495 0
M  V30 2865 C 285.939 2.19668 -1.69238 0
M  V30 2866 H 288.89 0.916086 -1.2959 0
M  V30 2867 H 288.911 3.63229 -1.13334 0
M  V30 2868 H 288.423 2.7551 -2.73342 0
M  V30 2869 H 286.524 3.6981 -0.455097 0
M  V30 2870 H 286.637 4.22173 -2.2651 0
M  V30 2871 H 285.001 2.28849 -1.11804 0
M  V30 2872 H 285.784 2.02905 -2.7692 0
M  V30 2873 N 288.23 0.939286 1.26551 0
M  V30 2874 C 289.641 0.628782 1.75793 0
M  V30 2875 C 289.992 -0.856046 1.7654 0
M  V30 2876 O 289.117 -1.66994 1.3763 0
M  V30 2877 C 289.712 1.13465 3.19235 0
M  V30 2878 C 288.271 0.874601 3.66098 0
M  V30 2879 C 287.418 1.28667 2.45642 0
M  V30 2880 H 290.369 1.1178 1.12654 0
M  V30 2881 H 290.39 0.487609 3.77363 0
M  V30 2882 H 289.902 2.21535 3.1866 0
M  V30 2883 H 288.003 -0.191793 3.72106 0
M  V30 2884 H 288.116 1.50028 4.55004 0
M  V30 2885 H 286.48 0.705109 2.44745 0
M  V30 2886 H 287.263 2.37625 2.47769 0
M  V30 2887 N 289.708 -1.40897 0.706093 0
M  V30 2888 C 290.641 -2.282 -0.00328781 0
M  V30 2889 C 291.619 -1.42816 -0.77732 0
M  V30 2890 O 292.803 -1.72237 -0.765944 0
M  V30 2891 C 289.93 -3.23226 -1.01205 0
M  V30 2892 C 288.976 -4.25222 -0.329955 0
M  V30 2893 S 289.809 -5.27269 0.935298 0
M  V30 2894 C 290.965 -6.25859 -0.0716061 0
M  V30 2895 H 291.198 -2.88016 0.737143 0
M  V30 2896 H 288.731 -1.46191 0.496756 0
M  V30 2897 H 290.689 -3.78503 -1.58888 0
M  V30 2898 H 289.35 -2.62485 -1.72513 0
M  V30 2899 H 288.543 -4.92023 -1.09221 0
M  V30 2900 H 288.145 -3.73595 0.174069 0
M  V30 2901 H 290.437 -6.71204 -0.921521 0
M  V30 2902 H 291.38 -7.0586 0.562765 0
M  V30 2903 H 291.788 -5.62852 -0.431088 0
M  V30 2904 N 291.186 -0.45159 -1.50991 0
M  V30 2905 C 292.432 0.110237 -2.025 0
M  V30 2906 C 292.765 1.41109 -1.33424 0
M  V30 2907 O 292.04 1.89135 -0.453659 0
M  V30 2908 C 292.323 0.314271 -3.58726 0
M  V30 2909 C 292.176 -1.00623 -4.38401 0
M  V30 2910 C 293.495 1.07767 -4.26702 0
M  V30 2911 H 290.614 0.0385897 -0.735989 0
M  V30 2912 H 293.256 -0.593374 -1.80497 0
M  V30 2913 H 291.406 0.913601 -3.77605 0
M  V30 2914 H 293.078 -1.64064 -4.31139 0
M  V30 2915 H 291.321 -1.6075 -4.02917 0
M  V30 2916 H 291.992 -0.817341 -5.45915 0
M  V30 2917 H 294.468 0.56986 -4.12179 0
M  V30 2918 H 293.344 1.18921 -5.35863 0
M  V30 2919 H 293.605 2.10939 -3.88532 0
M  V30 2920 N 292.664 1.56529 -0.183458 0
M  V30 2921 C 293.889 2.02064 0.467428 0
M  V30 2922 C 294.314 1.06282 1.55196 0
M  V30 2923 O 293.672 0.0443565 1.81246 0
M  V30 2924 C 293.72 3.46122 1.01153 0
M  V30 2925 O 292.824 3.53437 2.12499 0
M  V30 2926 H 292.165 0.654726 0.110588 0
M  V30 2927 H 294.695 2.02521 -0.290917 0
M  V30 2928 H 294.705 3.85676 1.33108 0
M  V30 2929 H 293.38 4.15331 0.217533 0
M  V30 2930 H 291.957 3.2575 1.81497 0
M  V30 2931 N 294.142 -0.090211 1.57342 0
M  V30 2932 C 295.388 -0.793982 1.86611 0
M  V30 2933 C 295.721 -1.78142 0.773252 0
M  V30 2934 O 294.996 -1.93271 -0.218304 0
M  V30 2935 C 295.279 -1.51839 3.26523 0
M  V30 2936 C 295.132 -0.548609 4.46442 0
M  V30 2937 C 296.451 -2.46779 3.64401 0
M  V30 2938 H 293.57 -0.287186 0.678744 0
M  V30 2939 H 296.212 -0.0575076 1.89913 0
M  V30 2940 H 294.362 -2.14617 3.23839 0
M  V30 2941 H 296.034 0.0725513 4.61243 0
M  V30 2942 H 294.277 0.137614 4.33582 0
M  V30 2943 H 294.948 -1.09271 5.41076 0
M  V30 2944 H 297.424 -1.94089 3.68061 0
M  V30 2945 H 296.3 -2.94479 4.63221 0
M  V30 2946 H 296.561 -3.30758 2.93346 0
M  V30 2947 N 295.62 -1.53406 -0.361157 0
M  V30 2948 C 296.848 -1.73717 -1.12383 0
M  V30 2949 C 297.263 -0.468161 -1.82904 0
M  V30 2950 O 296.62 0.559198 -1.73722 0
M  V30 2951 C 296.671 -2.90558 -2.15078 0
M  V30 2952 O 296.392 -4.12549 -1.47428 0
M  V30 2953 C 297.893 -3.22777 -3.03858 0
M  V30 2954 H 295.113 -0.580896 -0.335858 0
M  V30 2955 H 297.657 -2.00167 -0.418728 0
M  V30 2956 H 295.812 -2.66489 -2.8118 0
M  V30 2957 H 296.226 -4.78009 -2.15887 0
M  V30 2958 H 297.7 -4.07927 -3.71887 0
M  V30 2959 H 298.177 -2.38329 -3.68912 0
M  V30 2960 H 298.783 -3.48787 -2.43367 0
M  V30 2961 N 297.098 0.621204 -1.44841 0
M  V30 2962 C 298.046 1.75385 -1.52784 0
M  V30 2963 C 299.04 1.64639 -0.398779 0
M  V30 2964 O 300.246 1.70598 -0.574137 0
M  V30 2965 H 296.621 0.579193 -0.479625 0
M  V30 2966 H 298.592 1.6581 -2.48092 0
M  V30 2967 C 297.341 3.13742 -1.4987 0
M  V30 2968 H 296.664 3.22663 -2.36069 0
M  V30 2969 H 298.104 3.92861 -1.59487 0
M  V30 2970 C 296.563 3.36175 -0.220973 0
M  V30 2971 O 297.093 3.95469 0.704782 0
M  V30 2972 N 295.299 2.90348 -0.120963 0
M  V30 2973 H 294.846 2.42278 -0.875162 0
M  V30 2974 H 294.804 3.05732 0.733168 0
M  V30 2975 N 298.576 1.31904 0.862503 0
M  V30 2976 C 299.539 1.20131 1.95195 0
M  V30 2977 C 300.539 0.126409 1.60302 0
M  V30 2978 O 301.729 0.376234 1.70089 0
M  V30 2979 C 298.861 0.845691 3.30244 0
M  V30 2980 H 300.054 2.16943 2.07064 0
M  V30 2981 H 297.607 1.15622 1.05172 0
M  V30 2982 H 298.342 -0.120957 3.24074 0
M  V30 2983 H 298.127 1.62276 3.56944 0
M  V30 2984 H 299.617 0.787418 4.10109 0
M  V30 2985 N 300.054 -1.07777 1.14986 0
M  V30 2986 C 301.331 -1.7699 0.832695 0
M  V30 2987 C 301.711 -2.001 -0.672561 0
M  V30 2988 O 301.059 -1.61598 -1.6155 0
M  V30 2989 C 301.269 -3.08139 1.63863 0
M  V30 2990 C 302.617 -3.8256 1.84208 0
M  V30 2991 O 303.641 -3.17939 1.60603 0
M  V30 2992 O 302.5 -4.98612 2.23714 0
M  V30 2993 H 299.594 -0.768389 0.305791 0
M  V30 2994 H 302.14 -1.14182 1.25541 0
M  V30 2995 H 300.912 -2.86909 2.6608 0
M  V30 2996 H 300.535 -3.78678 1.21197 0
M  V30 2997 N 301.532 -0.945985 -1.26051 0
M  V30 2998 C 302.943 -0.638096 -1.75457 0
M  V30 2999 C 303.294 0.846672 -1.76991 0
M  V30 3000 O 302.419 1.66262 -1.38513 0
M  V30 3001 C 303.014 -1.15157 -3.18629 0
M  V30 3002 C 301.573 -0.894004 -3.65629 0
M  V30 3003 C 300.72 -1.29967 -2.44957 0
M  V30 3004 H 303.671 -1.12376 -1.1206 0
M  V30 3005 H 303.692 -0.507615 -3.77099 0
M  V30 3006 H 303.204 -2.23222 -3.1748 0
M  V30 3007 H 301.305 0.172057 -3.72203 0
M  V30 3008 H 301.418 -1.52439 -4.54202 0
M  V30 3009 H 299.782 -0.718078 -2.44368 0
M  V30 3010 H 300.565 -2.38935 -2.46505 0
M  V30 3011 N 303.011 1.40521 -0.713556 0
M  V30 3012 C 303.921 2.34522 -0.0606667 0
M  V30 3013 C 304.937 1.57193 0.74607 0
M  V30 3014 O 306.113 1.89591 0.679493 0
M  V30 3015 C 303.178 3.36081 0.851491 0
M  V30 3016 C 302.239 4.29286 0.0349339 0
M  V30 3017 C 301.472 5.25994 0.903649 0
M  V30 3018 O 301.695 5.28616 2.14292 0
M  V30 3019 O 300.629 6.00918 0.343723 0
M  V30 3020 H 304.455 2.91968 -0.835972 0
M  V30 3021 H 302.04 1.41681 -0.47402 0
M  V30 3022 H 303.922 3.98369 1.37404 0
M  V30 3023 H 302.597 2.81052 1.60598 0
M  V30 3024 H 301.504 3.70289 -0.532633 0
M  V30 3025 H 302.837 4.87462 -0.681287 0
M  V30 3026 N 304.489 0.459591 1.5075 0
M  V30 3027 C 305.905 0.113092 1.59199 0
M  V30 3028 C 306.105 -1.37951 1.46874 0
M  V30 3029 O 305.161 -2.15168 1.32132 0
M  V30 3030 C 306.474 0.653043 2.93523 0
M  V30 3031 C 308.022 0.615449 3.0689 0
M  V30 3032 C 308.497 1.13275 4.43771 0
M  V30 3033 N 309.988 1.09167 4.50152 0
M  V30 3034 C 310.723 1.46256 5.54434 0
M  V30 3035 N 310.219 1.90739 6.66026 0
M  V30 3036 N 312.012 1.37932 5.44914 0
M  V30 3037 H 304.163 1.43049 1.57005 0
M  V30 3038 H 306.426 0.590861 0.741341 0
M  V30 3039 H 306.132 1.69822 3.07983 0
M  V30 3040 H 306.006 0.0902132 3.77092 0
M  V30 3041 H 308.393 -0.420793 2.92084 0
M  V30 3042 H 308.474 1.21495 2.25106 0
M  V30 3043 H 308.118 2.16757 4.59324 0
M  V30 3044 H 308.048 0.509576 5.24129 0
M  V30 3045 H 310.539 0.76528 3.7007 0
M  V30 3046 H 310.852 2.17218 7.41644 0
M  V30 3047 H 309.197 1.94683 6.67176 0
M  V30 3048 H 312.388 1.0303 4.56621 0
M  V30 3049 H 312.561 1.67164 6.26067 0
M  V30 3050 N 305.967 -1.56429 0.191757 0
M  V30 3051 C 307.216 -1.9666 -0.448088 0
M  V30 3052 C 307.529 -1.08136 -1.62991 0
M  V30 3053 O 308.735 -1.38135 -2.33733 0
M  V30 3054 C 307.191 -3.49753 -0.848585 0
M  V30 3055 C 306.799 -4.46935 0.308764 0
M  V30 3056 C 308.543 -3.9876 -1.4557 0
M  V30 3057 C 306.45 -5.91293 -0.112506 0
M  V30 3058 H 305.38 -0.734312 -0.171179 0
M  V30 3059 H 308.031 -1.81301 0.283242 0
M  V30 3060 H 306.413 -3.60604 -1.63649 0
M  V30 3061 H 307.587 -4.47813 1.08627 0
M  V30 3062 H 305.902 -4.08102 0.827158 0
M  V30 3063 H 308.499 -5.04086 -1.78328 0
M  V30 3064 H 308.842 -3.42875 -2.36099 0
M  V30 3065 H 309.375 -3.9101 -0.731836 0
M  V30 3066 H 306.114 -6.51097 0.758514 0
M  V30 3067 H 305.634 -5.93676 -0.854941 0
M  V30 3068 H 307.313 -6.44663 -0.549448 0
M  V30 3069 N 307.445 0.0818655 -1.57387 0
M  V30 3070 C 308.693 0.781368 -1.86384 0
M  V30 3071 C 309.014 1.78618 -0.782342 0
M  V30 3072 O 308.284 1.94976 0.190061 0
M  V30 3073 H 306.864 0.291562 -0.687751 0
M  V30 3074 H 309.526 0.060348 -1.94807 0
M  V30 3075 H 308.622 1.3038 -2.83562 0
M  V30 3076 N 308.923 1.53595 0.353017 0
M  V30 3077 C 310.339 1.43648 0.695516 0
M  V30 3078 C 310.539 0.585617 1.92802 0
M  V30 3079 O 309.595 0.0729223 2.52395 0
M  V30 3080 C 310.908 2.8701 0.896991 0
M  V30 3081 C 312.456 2.96723 0.996209 0
M  V30 3082 C 312.931 4.41173 1.23007 0
M  V30 3083 N 314.422 4.44657 1.29749 0
M  V30 3084 C 315.157 5.53547 1.49577 0
M  V30 3085 N 314.653 6.72461 1.66639 0
M  V30 3086 N 316.446 5.41145 1.52048 0
M  V30 3087 H 308.597 2.07415 -0.457481 0
M  V30 3088 H 310.86 0.9372 -0.142687 0
M  V30 3089 H 310.566 3.51644 0.0629938 0
M  V30 3090 H 310.44 3.31401 1.80148 0
M  V30 3091 H 312.827 2.32235 1.82074 0
M  V30 3092 H 312.908 2.55707 0.0688331 0
M  V30 3093 H 312.552 5.06238 0.410505 0
M  V30 3094 H 312.482 4.79772 2.17086 0
M  V30 3095 H 314.973 3.58963 1.18126 0
M  V30 3096 H 315.286 7.51214 1.81378 0
M  V30 3097 H 313.631 6.75423 1.63794 0
M  V30 3098 H 316.822 4.47205 1.38294 0
M  V30 3099 H 316.995 6.26068 1.67159 0
M  V30 3100 N 310.401 -0.613514 1.45168 0
M  V30 3101 C 311.331 -1.7354 1.56225 0
M  V30 3102 C 312.312 -1.64981 0.41414 0
M  V30 3103 O 313.497 -1.83472 0.636526 0
M  V30 3104 C 310.627 -3.12128 1.52295 0
M  V30 3105 C 309.581 -3.35491 2.65762 0
M  V30 3106 C 308.907 -4.74291 2.46885 0
M  V30 3107 C 310.207 -3.26325 4.0781 0
M  V30 3108 H 311.901 -1.64543 2.50132 0
M  V30 3109 H 309.447 -0.790185 1.20383 0
M  V30 3110 H 311.4 -3.90404 1.58628 0
M  V30 3111 H 310.124 -3.2195 0.549139 0
M  V30 3112 H 308.783 -2.59603 2.58847 0
M  V30 3113 H 308.431 -4.80839 1.47657 0
M  V30 3114 H 308.131 -4.9088 3.22972 0
M  V30 3115 H 309.655 -5.54775 2.55063 0
M  V30 3116 H 311.069 -3.94483 4.16 0
M  V30 3117 H 309.466 -3.54445 4.8424 0
M  V30 3118 H 310.536 -2.23855 4.30136 0
M  V30 3119 N 311.879 -1.3236 -0.855495 0
M  V30 3120 C 312.809 -1.23833 -1.97958 0
M  V30 3121 C 313.79 -0.122361 -1.69659 0
M  V30 3122 O 314.975 -0.30939 -1.9172 0
M  V30 3123 C 312.105 -0.959772 -3.33775 0
M  V30 3124 C 311.059 -2.03689 -3.76424 0
M  V30 3125 C 310.385 -1.61075 -5.09862 0
M  V30 3126 C 311.685 -3.4518 -3.9198 0
M  V30 3127 H 313.379 -2.1788 -2.0535 0
M  V30 3128 H 310.925 -1.04891 -0.986605 0
M  V30 3129 H 312.878 -0.886678 -4.11966 0
M  V30 3130 H 311.602 0.0163404 -3.26596 0
M  V30 3131 H 310.261 -2.10012 -3.00484 0
M  V30 3132 H 309.909 -0.622107 -4.99138 0
M  V30 3133 H 309.609 -2.33143 -5.39368 0
M  V30 3134 H 311.133 -1.55201 -5.90546 0
M  V30 3135 H 312.547 -3.4145 -4.60526 0
M  V30 3136 H 310.944 -4.1559 -4.32903 0
M  V30 3137 H 312.014 -3.84903 -2.94919 0
M  V30 3138 N 313.357 1.07166 -1.15556 0
M  V30 3139 C 314.634 1.76546 -0.842069 0
M  V30 3140 C 315.014 2.00453 0.661939 0
M  V30 3141 O 314.362 1.62452 1.60691 0
M  V30 3142 C 314.572 3.07266 -1.65495 0
M  V30 3143 C 315.92 3.81578 -1.86234 0
M  V30 3144 O 316.944 3.17083 -1.62287 0
M  V30 3145 O 315.803 4.97419 -2.26355 0
M  V30 3146 H 312.897 0.766756 -0.309862 0
M  V30 3147 H 315.443 1.13514 -1.26145 0
M  V30 3148 H 314.215 2.85494 -2.67598 0
M  V30 3149 H 313.838 3.7803 -1.23203 0
M  V30 3150 N 314.835 0.952656 1.25548 0
M  V30 3151 C 315.745 0.47782 2.29682 0
M  V30 3152 C 316.761 -0.453859 1.67977 0
M  V30 3153 O 317.937 -0.330587 1.98668 0
M  V30 3154 C 315.002 -0.238655 3.45878 0
M  V30 3155 C 314.063 0.730994 4.23031 0
M  V30 3156 C 313.296 0.0486165 5.33678 0
M  V30 3157 O 313.519 -1.16612 5.58353 0
M  V30 3158 O 312.453 0.733152 5.97418 0
M  V30 3159 H 316.279 1.34312 2.72386 0
M  V30 3160 H 313.864 0.719026 1.30959 0
M  V30 3161 H 315.746 -0.641774 4.16484 0
M  V30 3162 H 314.421 -1.07916 3.05181 0
M  V30 3163 H 313.328 1.18428 3.5486 0
M  V30 3164 H 314.661 1.53946 4.67506 0
M  V30 3165 N 316.313 -1.40141 0.720998 0
M  V30 3166 C 317.56 -2.00787 0.262842 0
M  V30 3167 C 317.888 -1.5718 -1.14563 0
M  V30 3168 O 317.143 -0.785391 -1.79249 0
M  V30 3169 C 317.442 -3.56165 0.296892 0
M  V30 3170 C 317.108 -4.19373 1.65641 0
M  V30 3171 C 315.77 -4.36352 2.02855 0
M  V30 3172 C 318.122 -4.54578 2.54968 0
M  V30 3173 C 315.45 -4.8582 3.28931 0
M  V30 3174 C 317.802 -5.05447 3.80402 0
M  V30 3175 C 316.466 -5.20635 4.17726 0
M  V30 3176 H 315.736 -0.734731 0.0961807 0
M  V30 3177 H 318.383 -1.67673 0.925093 0
M  V30 3178 H 316.688 -3.8922 -0.448932 0
M  V30 3179 H 318.385 -4.00929 -0.0755208 0
M  V30 3180 H 314.975 -4.06549 1.35704 0
M  V30 3181 H 319.159 -4.41091 2.27491 0
M  V30 3182 H 314.415 -4.95764 3.57811 0
M  V30 3183 H 318.589 -5.31663 4.49786 0
M  V30 3184 H 316.216 -5.58728 5.15487 0
M  V30 3185 N 317.792 -0.46758 -1.50504 0
M  V30 3186 C 318.755 0.317059 -2.26996 0
M  V30 3187 C 319.755 0.923513 -1.31635 0
M  V30 3188 O 320.945 0.793239 -1.55091 0
M  V30 3189 C 318.077 1.45134 -3.08462 0
M  V30 3190 H 319.27 -0.353723 -2.97807 0
M  V30 3191 H 316.823 -0.221545 -1.54722 0
M  V30 3192 H 317.558 2.15728 -2.4214 0
M  V30 3193 H 317.343 1.02232 -3.78538 0
M  V30 3194 H 318.833 2.00493 -3.66323 0
M  V30 3195 N 319.27 1.56325 -0.20005 0
M  V30 3196 C 320.202 2.16555 0.750771 0
M  V30 3197 C 321.215 1.12871 1.1732 0
M  V30 3198 O 322.404 1.39943 1.10807 0
M  V30 3199 C 319.504 2.71684 2.02586 0
M  V30 3200 C 318.677 4.00321 1.76244 0
M  V30 3201 C 317.736 4.40227 2.88248 0
M  V30 3202 O 316.762 5.07552 2.57642 0
M  V30 3203 N 317.964 4.04138 4.16717 0
M  V30 3204 H 320.729 2.98772 0.235685 0
M  V30 3205 H 318.29 1.6189 -0.0182594 0
M  V30 3206 H 320.282 2.95363 2.76664 0
M  V30 3207 H 318.852 1.93893 2.45202 0
M  V30 3208 H 318.072 3.84723 0.85919 0
M  V30 3209 H 319.36 4.84279 1.56048 0
M  V30 3210 H 318.758 3.49993 4.44434 0
M  V30 3211 H 317.315 4.32756 4.87407 0
M  V30 3212 N 320.748 -0.0735177 1.57428 0
M  V30 3213 C 322.025 -0.805903 1.78226 0
M  V30 3214 C 322.405 -1.95874 0.787189 0
M  V30 3215 O 321.753 -2.2779 -0.180029 0
M  V30 3216 C 321.963 -1.28045 3.24662 0
M  V30 3217 C 323.311 -1.71453 3.88444 0
M  V30 3218 O 324.335 -1.37616 3.28543 0
M  V30 3219 O 323.194 -2.34093 4.93825 0
M  V30 3220 H 320.288 -0.386041 0.73137 0
M  V30 3221 H 322.834 -0.0537269 1.69615 0
M  V30 3222 H 321.606 -0.455476 3.8864 0
M  V30 3223 H 321.229 -2.094 3.37991 0
M  V30 3224 N 322.226 -1.5378 -0.344866 0
M  V30 3225 C 323.472 -1.71216 -1.08687 0
M  V30 3226 C 323.805 -0.473281 -1.88345 0
M  V30 3227 O 323.08 0.52968 -1.87149 0
M  V30 3228 C 323.363 -2.97486 -2.02914 0
M  V30 3229 C 323.216 -4.31579 -1.26727 0
M  V30 3230 C 324.535 -3.19422 -3.0275 0
M  V30 3231 H 321.654 -0.62301 -0.393735 0
M  V30 3232 H 324.296 -1.8645 -0.365563 0
M  V30 3233 H 322.446 -2.84629 -2.64421 0
M  V30 3234 H 324.118 -4.56284 -0.67845 0
M  V30 3235 H 322.361 -4.30049 -0.569273 0
M  V30 3236 H 323.032 -5.16106 -1.95803 0
M  V30 3237 H 325.508 -3.316 -2.51357 0
M  V30 3238 H 324.384 -4.09169 -3.65885 0
M  V30 3239 H 324.645 -2.35656 -3.74057 0
M  V30 3240 N 323.704 0.605807 -1.45491 0
M  V30 3241 C 325.12 0.926751 -1.29936 0
M  V30 3242 C 325.32 1.99896 -0.253706 0
M  V30 3243 O 324.376 2.50038 0.351737 0
M  V30 3244 C 325.689 1.36599 -2.67883 0
M  V30 3245 C 327.237 1.4801 -2.75793 0
M  V30 3246 C 327.712 1.95309 -4.14268 0
M  V30 3247 N 329.203 2.0254 -4.16571 0
M  V30 3248 C 329.938 2.40363 -5.20589 0
M  V30 3249 N 329.434 2.77143 -6.34952 0
M  V30 3250 N 331.227 2.40718 -5.07948 0
M  V30 3251 H 323.378 -0.102862 -2.12151 0
M  V30 3252 H 325.641 0.016639 -0.947854 0
M  V30 3253 H 325.347 0.652306 -3.45598 0
M  V30 3254 H 325.221 2.33215 -2.96463 0
M  V30 3255 H 327.608 2.1847 -1.98381 0
M  V30 3256 H 327.689 0.497041 -2.50925 0
M  V30 3257 H 327.333 1.25436 -4.92167 0
M  V30 3258 H 327.263 2.94532 -4.3653 0
M  V30 3259 H 329.754 1.76699 -3.34045 0
M  V30 3260 H 330.067 3.0489 -7.10114 0
M  V30 3261 H 328.412 2.74834 -6.3835 0
M  V30 3262 H 331.603 2.11392 -4.1765 0
M  V30 3263 H 331.776 2.69869 -5.89131 0
M  V30 3264 N 325.182 1.32811 0.848464 0
M  V30 3265 C 326.41 1.26739 1.63538 0
M  V30 3266 C 326.825 -0.163484 1.88091 0
M  V30 3267 O 326.182 -1.10258 1.45429 0
M  V30 3268 C 326.233 2.03013 2.99112 0
M  V30 3269 O 325.954 3.40518 2.75643 0
M  V30 3270 C 327.455 2.04038 3.93552 0
M  V30 3271 H 324.675 0.437024 0.509167 0
M  V30 3272 H 327.219 1.75033 1.05753 0
M  V30 3273 H 325.374 1.58426 3.53525 0
M  V30 3274 H 325.788 3.79635 3.61908 0
M  V30 3275 H 327.262 2.61877 4.85926 0
M  V30 3276 H 327.739 1.0282 4.26995 0
M  V30 3277 H 328.345 2.486 3.45077 0
M  V30 3278 N 326.66 -1.06551 1.16123 0
M  V30 3279 C 327.906 -1.79567 0.94252 0
M  V30 3280 C 328.239 -1.86869 -0.528547 0
M  V30 3281 O 327.514 -1.35838 -1.39206 0
M  V30 3282 C 327.797 -3.24195 1.56747 0
M  V30 3283 C 327.65 -3.24989 3.10969 0
M  V30 3284 C 328.969 -4.21678 1.25998 0
M  V30 3285 H 326.088 -0.651883 0.343828 0
M  V30 3286 H 328.73 -1.2463 1.43413 0
M  V30 3287 H 326.88 -3.71107 1.14942 0
M  V30 3288 H 328.552 -2.86258 3.61737 0
M  V30 3289 H 326.795 -2.63716 3.44436 0
M  V30 3290 H 327.466 -4.27005 3.49815 0
M  V30 3291 H 329.942 -3.83196 1.62174 0
M  V30 3292 H 328.818 -5.21146 1.7233 0
M  V30 3293 H 329.079 -4.4174 0.178367 0
M  V30 3294 N 328.138 -0.959301 -1.25041 0
M  V30 3295 C 329.068 -0.501388 -2.28053 0
M  V30 3296 C 330.049 0.454673 -1.63911 0
M  V30 3297 O 331.234 0.352618 -1.90972 0
M  V30 3298 C 328.364 0.217224 -3.4662 0
M  V30 3299 C 327.318 -0.654034 -4.22973 0
M  V30 3300 C 326.644 0.195589 -5.34342 0
M  V30 3301 C 327.944 -1.93447 -4.85155 0
M  V30 3302 H 329.638 -1.36238 -2.66608 0
M  V30 3303 H 327.184 -0.656534 -1.28163 0
M  V30 3304 H 329.137 0.548732 -4.17812 0
M  V30 3305 H 327.861 1.1125 -3.07068 0
M  V30 3306 H 326.52 -0.968693 -3.5357 0
M  V30 3307 H 326.168 1.09076 -4.91031 0
M  V30 3308 H 325.868 -0.384091 -5.86343 0
M  V30 3309 H 327.392 0.521958 -6.08365 0
M  V30 3310 H 328.806 -1.66908 -5.48466 0
M  V30 3311 H 327.203 -2.46018 -5.47353 0
M  V30 3312 H 328.273 -2.63466 -4.07079 0
M  V30 3313 N 329.616 1.39756 -0.72842 0
M  V30 3314 C 331.027 1.83498 -0.344289 0
M  V30 3315 C 331.378 1.60868 1.12321 0
M  V30 3316 O 330.503 1.09634 1.86573 0
M  V30 3317 C 331.098 3.33114 -0.618112 0
M  V30 3318 C 329.657 3.753 -0.287549 0
M  V30 3319 C 328.804 2.62831 -0.884048 0
M  V30 3320 H 331.755 1.28842 -0.926578 0
M  V30 3321 H 331.776 3.80334 0.112349 0
M  V30 3322 H 331.288 3.49553 -1.68625 0
M  V30 3323 H 329.389 3.64451 0.775012 0
M  V30 3324 H 329.502 4.72945 -0.765512 0
M  V30 3325 H 327.866 2.52792 -0.311149 0
M  V30 3326 H 328.649 2.82078 -1.95671 0
M  V30 3327 N 331.094 0.475555 1.50254 0
M  V30 3328 C 332.505 0.0215174 1.86688 0
M  V30 3329 C 332.856 -1.38467 1.39001 0
M  V30 3330 O 331.981 -2.02732 0.756894 0
M  V30 3331 C 332.576 0.0322715 3.38785 0
M  V30 3332 C 331.135 -0.366314 3.74613 0
M  V30 3333 C 330.282 0.415832 2.74164 0
M  V30 3334 H 333.233 0.689612 1.42934 0
M  V30 3335 H 333.254 -0.76889 3.7265 0
M  V30 3336 H 332.766 1.05584 3.73462 0
M  V30 3337 H 330.867 -1.39406 3.45538 0
M  V30 3338 H 330.98 -0.064555 4.79057 0
M  V30 3339 H 329.344 -0.131048 2.54363 0
M  V30 3340 H 330.127 1.43899 3.11686 0
M  V30 3341 N 332.573 -1.56217 0.208337 0
M  V30 3342 C 333.819 -1.98242 -0.427552 0
M  V30 3343 C 334.152 -1.09554 -1.60348 0
M  V30 3344 O 333.427 -0.15035 -1.93918 0
M  V30 3345 C 333.71 -3.4931 -0.874907 0
M  V30 3346 C 333.563 -4.48773 0.303751 0
M  V30 3347 C 334.882 -4.04424 -1.73577 0
M  V30 3348 H 332.001 -0.720744 -0.153936 0
M  V30 3349 H 334.643 -1.87586 0.30192 0
M  V30 3350 H 332.793 -3.58522 -1.49648 0
M  V30 3351 H 334.465 -4.51586 0.941682 0
M  V30 3352 H 332.708 -4.23194 0.953375 0
M  V30 3353 H 333.379 -5.51976 -0.0519883 0
M  V30 3354 H 335.855 -3.98075 -1.21143 0
M  V30 3355 H 334.731 -5.1047 -2.01771 0
M  V30 3356 H 334.992 -3.50494 -2.69456 0
M  V30 3357 N 334.051 0.0651679 -1.57465 0
M  V30 3358 C 334.981 1.07693 -2.07182 0
M  V30 3359 C 335.962 1.39962 -0.966673 0
M  V30 3360 O 337.147 1.49475 -1.2398 0
M  V30 3361 C 334.277 2.3885 -2.52127 0
M  V30 3362 C 333.231 2.20917 -3.66579 0
M  V30 3363 C 332.557 3.57515 -3.97601 0
M  V30 3364 C 333.857 1.62493 -4.9638 0
M  V30 3365 H 335.551 0.663199 -2.91962 0
M  V30 3366 H 333.097 0.317569 -1.40455 0
M  V30 3367 H 335.05 3.09928 -2.85522 0
M  V30 3368 H 333.774 2.82215 -1.64384 0
M  V30 3369 H 332.433 1.52279 -3.33477 0
M  V30 3370 H 332.081 3.98463 -3.06979 0
M  V30 3371 H 331.781 3.46353 -4.74672 0
M  V30 3372 H 333.305 4.30013 -4.33499 0
M  V30 3373 H 334.719 2.23445 -5.27963 0
M  V30 3374 H 333.116 1.62009 -5.77818 0
M  V30 3375 H 334.186 0.587041 -4.81333 0
M  V30 3376 N 335.529 1.53961 0.336706 0
M  V30 3377 C 336.754 1.75797 1.10046 0
M  V30 3378 C 337.179 0.498985 1.81361 0
M  V30 3379 O 336.537 -0.548769 1.72795 0
M  V30 3380 C 336.585 2.94257 2.08436 0
M  V30 3381 O 335.689 2.64883 3.16087 0
M  V30 3382 H 335.03 0.582936 0.317934 0
M  V30 3383 H 337.56 2.00945 0.38501 0
M  V30 3384 H 337.57 3.21237 2.51537 0
M  V30 3385 H 336.245 3.85564 1.55927 0
M  V30 3386 H 334.822 2.48812 2.77753 0
M  V30 3387 N 337.007 -0.598083 1.45811 0
M  V30 3388 C 338.256 -1.35295 1.49594 0
M  V30 3389 C 338.569 -1.95057 0.145679 0
M  V30 3390 O 339.775 -2.71431 0.0612099 0
M  V30 3391 C 338.231 -2.45124 2.63519 0
M  V30 3392 C 337.839 -1.91732 4.04899 0
M  V30 3393 C 339.583 -3.2205 2.76558 0
M  V30 3394 C 337.49 -2.991 5.1019 0
M  V30 3395 H 336.42 -0.508552 0.556679 0
M  V30 3396 H 339.071 -0.639977 1.71978 0
M  V30 3397 H 337.453 -3.19149 2.34435 0
M  V30 3398 H 338.627 -1.24352 4.43704 0
M  V30 3399 H 336.942 -1.27522 3.96393 0
M  V30 3400 H 339.539 -4.0215 3.52391 0
M  V30 3401 H 339.882 -3.73663 1.83526 0
M  V30 3402 H 340.415 -2.55127 3.05213 0
M  V30 3403 H 337.154 -2.52393 6.04961 0
M  V30 3404 H 336.674 -3.65017 4.75944 0
M  V30 3405 H 338.353 -3.63318 5.35359 0
M  V30 3406 N 338.485 -1.33259 -0.841409 0
M  V30 3407 C 339.901 -1.12538 -1.13169 0
M  V30 3408 C 340.101 0.0854037 -2.01319 0
M  V30 3409 O 339.157 0.766417 -2.40587 0
M  V30 3410 C 340.47 -2.41156 -1.79623 0
M  V30 3411 C 342.018 -2.47038 -1.922 0
M  V30 3412 C 342.493 -3.7561 -2.6207 0
M  V30 3413 N 343.984 -3.76667 -2.69585 0
M  V30 3414 C 344.719 -4.72861 -3.2433 0
M  V30 3415 N 344.215 -5.79428 -3.79783 0
M  V30 3416 N 346.008 -4.6034 -3.22558 0
M  V30 3417 H 338.159 -2.10868 -0.254676 0
M  V30 3418 H 340.422 -0.931615 -0.175493 0
M  V30 3419 H 340.128 -3.29747 -1.22311 0
M  V30 3420 H 340.002 -2.53114 -2.79666 0
M  V30 3421 H 342.389 -1.58898 -2.48667 0
M  V30 3422 H 342.47 -2.39022 -0.911148 0
M  V30 3423 H 342.114 -4.64131 -2.06263 0
M  V30 3424 H 342.044 -3.80902 -3.63622 0
M  V30 3425 H 344.535 -2.99648 -2.30259 0
M  V30 3426 H 344.848 -6.48867 -4.19752 0
M  V30 3427 H 343.193 -5.83166 -3.78078 0
M  V30 3428 H 346.384 -3.76244 -2.78492 0
M  V30 3429 H 346.557 -5.35478 -3.64921 0
M  V30 3430 N 339.963 1.05934 -1.16686 0
M  V30 3431 C 340.911 2.15603 -0.872817 0
M  V30 3432 C 341.905 1.68647 0.159576 0
M  V30 3433 O 343.111 1.79995 0.0132125 0
M  V30 3434 H 339.486 0.703885 -0.264671 0
M  V30 3435 H 341.457 2.37613 -1.80507 0
M  V30 3436 C 340.206 3.45457 -0.394344 0
M  V30 3437 H 339.529 3.81984 -1.18019 0
M  V30 3438 H 340.969 4.2339 -0.227408 0
M  V30 3439 C 339.428 3.25021 0.88673 0
M  V30 3440 O 339.958 3.50906 1.95519 0
M  V30 3441 N 338.164 2.78437 0.831925 0
M  V30 3442 H 337.711 2.57572 -0.0377619 0
M  V30 3443 H 337.669 2.65144 1.68956 0
M  V30 3444 N 341.441 0.965919 1.2453 0
M  V30 3445 C 342.689 0.625593 1.92174 0
M  V30 3446 C 343.01 -0.841652 1.75901 0
M  V30 3447 O 342.28 -1.60061 1.12948 0
M  V30 3448 H 340.86 0.228388 0.71123 0
M  V30 3449 H 343.522 1.2266 1.51461 0
M  V30 3450 H 342.618 0.864653 2.99884 0
M  V30 3451 N 342.919 -1.39368 0.735821 0
M  V30 3452 C 344.335 -1.54204 0.411492 0
M  V30 3453 C 344.535 -1.70268 -1.07755 0
M  V30 3454 O 343.591 -1.70364 -1.86366 0
M  V30 3455 C 344.904 -2.75925 1.19523 0
M  V30 3456 C 346.452 -2.89761 1.18354 0
M  V30 3457 C 346.927 -4.14421 1.94986 0
M  V30 3458 N 348.418 -4.21462 1.92156 0
M  V30 3459 C 349.153 -5.16871 2.48258 0
M  V30 3460 N 348.649 -6.18063 3.13001 0
M  V30 3461 N 350.442 -5.09093 2.38287 0
M  V30 3462 H 342.593 -1.27189 1.70108 0
M  V30 3463 H 344.856 -0.616517 0.720147 0
M  V30 3464 H 344.562 -2.70401 2.24892 0
M  V30 3465 H 344.436 -3.68614 0.800222 0
M  V30 3466 H 346.823 -2.94777 0.137975 0
M  V30 3467 H 346.904 -1.98133 1.61793 0
M  V30 3468 H 346.548 -4.10166 2.99543 0
M  V30 3469 H 346.478 -5.05095 1.48953 0
M  V30 3470 H 348.969 -3.48979 1.44991 0
M  V30 3471 H 349.282 -6.87326 3.53275 0
M  V30 3472 H 347.627 -6.18448 3.17091 0
M  V30 3473 H 350.818 -4.28973 1.8735 0
M  V30 3474 H 350.991 -5.83272 2.82308 0
M  V30 3475 N 344.397 -0.483516 -1.5 0
M  V30 3476 C 345.813 -0.138404 -1.58999 0
M  V30 3477 C 346.013 1.35597 -1.4905 0
M  V30 3478 O 345.069 2.13039 -1.35539 0
M  V30 3479 C 346.382 -0.699658 -2.92447 0
M  V30 3480 C 347.93 -0.664195 -3.05872 0
M  V30 3481 C 348.405 -1.20321 -4.41913 0
M  V30 3482 N 349.896 -1.16315 -4.48358 0
M  V30 3483 C 350.631 -1.55058 -5.52037 0
M  V30 3484 N 350.127 -2.01311 -6.62907 0
M  V30 3485 N 351.92 -1.46584 -5.42651 0
M  V30 3486 H 344.071 -1.45529 -1.5471 0
M  V30 3487 H 346.334 -0.60258 -0.731848 0
M  V30 3488 H 346.04 -1.747 -3.05242 0
M  V30 3489 H 345.914 -0.150194 -3.76901 0
M  V30 3490 H 348.301 0.374272 -2.92717 0
M  V30 3491 H 348.382 -1.25061 -2.23144 0
M  V30 3492 H 348.026 -2.24037 -4.55818 0
M  V30 3493 H 347.956 -0.592896 -5.23252 0
M  V30 3494 H 350.447 -0.824058 -3.68806 0
M  V30 3495 H 350.76 -2.2899 -7.38095 0
M  V30 3496 H 349.105 -2.05273 -6.63994 0
M  V30 3497 H 352.296 -1.10281 -4.54924 0
M  V30 3498 H 352.469 -1.77103 -6.23329 0
M  V30 3499 N 345.875 1.56104 -0.216619 0
M  V30 3500 C 346.838 2.18819 0.681962 0
M  V30 3501 C 347.838 1.14866 1.12528 0
M  V30 3502 O 349.028 1.40128 1.03488 0
M  V30 3503 C 346.16 2.80756 1.93362 0
M  V30 3504 H 347.353 2.99595 0.135254 0
M  V30 3505 H 344.906 1.56265 0.0330003 0
M  V30 3506 H 345.641 2.03837 2.52232 0
M  V30 3507 H 345.426 3.56876 1.62426 0
M  V30 3508 H 346.916 3.28844 2.57393 0
M  V30 3509 N 347.353 -0.0568162 1.57498 0
M  V30 3510 C 348.599 -0.75422 1.88253 0
M  V30 3511 C 348.932 -1.76461 0.810865 0
M  V30 3512 O 348.207 -1.93691 -0.177259 0
M  V30 3513 C 348.49 -1.44878 3.2967 0
M  V30 3514 C 348.343 -0.453789 4.47505 0
M  V30 3515 C 349.662 -2.38994 3.69554 0
M  V30 3516 H 346.781 -0.272724 0.684683 0
M  V30 3517 H 349.423 -0.0172113 1.89992 0
M  V30 3518 H 347.573 -2.077 3.28318 0
M  V30 3519 H 349.245 0.170371 4.60985 0
M  V30 3520 H 347.488 0.229552 4.33192 0
M  V30 3521 H 348.159 -0.977699 5.43273 0
M  V30 3522 H 350.635 -1.86239 3.72095 0
M  V30 3523 H 349.511 -2.84587 4.69363 0
M  V30 3524 H 349.772 -3.24461 3.00296 0
M  V30 3525 N 348.832 -1.54138 -0.328536 0
M  V30 3526 C 350.078 -1.7236 -1.06865 0
M  V30 3527 C 350.411 -0.493231 -1.87832 0
M  V30 3528 O 349.686 0.5098 -1.877 0
M  V30 3529 C 349.969 -2.99621 -1.99747 0
M  V30 3530 C 349.822 -4.32899 -1.22143 0
M  V30 3531 C 351.141 -3.22615 -2.99345 0
M  V30 3532 H 348.26 -0.627151 -0.387105 0
M  V30 3533 H 350.902 -1.86827 -0.345767 0
M  V30 3534 H 349.052 -2.87418 -2.61387 0
M  V30 3535 H 350.724 -4.56978 -0.630017 0
M  V30 3536 H 348.967 -4.30628 -0.523628 0
M  V30 3537 H 349.638 -5.18154 -1.90318 0
M  V30 3538 H 352.114 -3.34248 -2.47826 0
M  V30 3539 H 350.99 -4.13027 -3.61524 0
M  V30 3540 H 351.251 -2.3961 -3.71536 0
M  V30 3541 N 350.31 0.590341 -1.46126 0
M  V30 3542 C 351.559 1.34499 -1.50309 0
M  V30 3543 C 351.872 1.94977 -0.156021 0
M  V30 3544 O 353.078 2.71395 -0.0756037 0
M  V30 3545 C 351.534 2.43723 -2.64815 0
M  V30 3546 C 351.142 1.89582 -4.0591 0
M  V30 3547 C 352.886 3.20579 -2.78262 0
M  V30 3548 C 350.793 2.9639 -5.11769 0
M  V30 3549 H 349.723 0.505593 -0.559368 0
M  V30 3550 H 352.374 0.630848 -1.72315 0
M  V30 3551 H 350.756 3.17902 -2.36124 0
M  V30 3552 H 351.93 1.21997 -4.44357 0
M  V30 3553 H 350.245 1.25418 -3.97063 0
M  V30 3554 H 352.842 4.00276 -3.54519 0
M  V30 3555 H 353.185 3.72684 -1.85505 0
M  V30 3556 H 353.718 2.53505 -3.06562 0
M  V30 3557 H 350.457 2.49181 -6.06291 0
M  V30 3558 H 349.977 3.62487 -4.77873 0
M  V30 3559 H 351.656 3.60474 -5.37278 0
M  V30 3560 N 351.788 1.33704 0.83433 0
M  V30 3561 C 353.016 1.28467 1.62185 0
M  V30 3562 C 353.431 -0.143526 1.88254 0
M  V30 3563 O 352.788 -1.08709 1.4659 0
M  V30 3564 C 352.839 2.06174 2.96942 0
M  V30 3565 O 352.56 3.43422 2.72016 0
M  V30 3566 C 354.061 2.08201 3.91366 0
M  V30 3567 H 351.281 0.4424 0.504503 0
M  V30 3568 H 353.825 1.76145 1.03891 0
M  V30 3569 H 351.98 1.62167 3.51825 0
M  V30 3570 H 352.394 3.83453 3.57861 0
M  V30 3571 H 353.868 2.67017 4.83121 0
M  V30 3572 H 354.345 1.07343 4.2588 0
M  V30 3573 H 354.951 2.52246 3.42421 0
M  V30 3574 N 353.266 -1.05314 1.17247 0
M  V30 3575 C 354.514 -1.77941 0.958194 0
M  V30 3576 C 354.835 -1.88089 -0.514556 0
M  V30 3577 O 354.105 -1.39676 -1.37359 0
M  V30 3578 H 352.685 -0.659116 0.351533 0
M  V30 3579 H 355.347 -1.27166 1.47699 0
M  V30 3580 H 354.443 -2.79663 1.38546 0
M  V30 3581 N 354.744 -0.972509 -1.24016 0
M  V30 3582 C 355.972 -0.654803 -1.96265 0
M  V30 3583 C 356.387 0.776708 -1.72083 0
M  V30 3584 O 355.744 1.52171 -1.00748 0
M  V30 3585 C 355.795 -0.92592 -3.49441 0
M  V30 3586 O 355.516 -2.30116 -3.72798 0
M  V30 3587 C 357.017 -0.623068 -4.38899 0
M  V30 3588 H 354.237 -0.243907 -0.6251 0
M  V30 3589 H 356.781 -1.30175 -1.57717 0
M  V30 3590 H 354.936 -0.325108 -3.86033 0
M  V30 3591 H 355.35 -2.38483 -4.67147 0
M  V30 3592 H 356.824 -0.863189 -5.45209 0
M  V30 3593 H 357.301 0.442754 -4.36963 0
M  V30 3594 H 357.907 -1.204 -4.07902 0
M  V30 3595 N 356.222 1.38976 -0.743202 0
M  V30 3596 C 357.633 1.83123 -0.363732 0
M  V30 3597 C 357.984 1.6205 1.10609 0
M  V30 3598 O 357.109 1.11606 1.854 0
M  V30 3599 C 357.704 3.32439 -0.653408 0
M  V30 3600 C 356.263 3.74974 -0.327338 0
M  V30 3601 C 355.41 2.61878 -0.911875 0
M  V30 3602 H 358.361 1.27852 -0.940191 0
M  V30 3603 H 358.382 3.80432 0.0720031 0
M  V30 3604 H 357.894 3.47745 -1.72323 0
M  V30 3605 H 355.995 3.65252 0.736314 0
M  V30 3606 H 356.108 4.72106 -0.815631 0
M  V30 3607 H 354.472 2.52448 -0.337944 0
M  V30 3608 H 355.255 2.79987 -1.98651 0
M  V30 3609 N 357.7 0.491464 1.49741 0
M  V30 3610 C 358.61 -0.296835 2.32715 0
M  V30 3611 C 359.626 -0.976536 1.44013 0
M  V30 3612 O 360.802 -0.960023 1.77047 0
M  V30 3613 C 357.867 -1.35288 3.19215 0
M  V30 3614 C 356.928 -0.687632 4.23757 0
M  V30 3615 C 356.161 -1.69336 5.06123 0
M  V30 3616 O 356.384 -2.92219 4.89861 0
M  V30 3617 O 355.318 -1.25394 5.88693 0
M  V30 3618 H 359.144 0.382048 3.01287 0
M  V30 3619 H 356.729 0.252953 1.47243 0
M  V30 3620 H 358.611 -1.96411 3.72828 0
M  V30 3621 H 357.286 -2.01487 2.53347 0
M  V30 3622 H 356.193 -0.0369159 3.74082 0
M  V30 3623 H 357.526 -0.0682566 4.92153 0
M  V30 3624 N 359.178 -1.55987 0.224894 0
M  V30 3625 C 360.11 -2.17722 -0.716224 0
M  V30 3626 C 361.123 -1.14723 -1.15509 0
M  V30 3627 O 362.312 -1.41688 -1.08567 0
M  V30 3628 C 359.412 -2.74873 -1.98238 0
M  V30 3629 C 358.585 -4.03074 -1.69853 0
M  V30 3630 C 357.644 -4.44757 -2.81208 0
M  V30 3631 O 356.67 -5.11587 -2.49534 0
M  V30 3632 N 357.872 -4.10716 -4.10235 0
M  V30 3633 H 360.637 -2.99109 -0.188123 0
M  V30 3634 H 358.198 -1.6184 0.0440123 0
M  V30 3635 H 360.19 -2.99727 -2.7193 0
M  V30 3636 H 358.76 -1.9777 -2.42086 0
M  V30 3637 H 357.98 -3.86041 -0.797875 0
M  V30 3638 H 359.268 -4.86701 -1.48324 0
M  V30 3639 H 358.666 -3.57019 -4.38809 0
M  V30 3640 H 357.223 -4.40455 -4.80461 0
M  V30 3641 N 360.656 0.0484629 -1.57525 0
M  V30 3642 C 361.586 1.0549 -2.08313 0
M  V30 3643 C 362.567 1.38929 -0.981463 0
M  V30 3644 O 363.752 1.48151 -1.25558 0
M  V30 3645 C 360.882 2.36162 -2.54646 0
M  V30 3646 C 359.836 2.17016 -3.68901 0
M  V30 3647 C 359.162 3.53278 -4.01371 0
M  V30 3648 C 360.462 1.57219 -4.98076 0
M  V30 3649 H 362.156 0.632195 -2.92649 0
M  V30 3650 H 359.702 0.302654 -1.40784 0
M  V30 3651 H 361.655 3.06882 -2.88793 0
M  V30 3652 H 360.379 2.80456 -1.67368 0
M  V30 3653 H 359.038 1.48733 -3.35073 0
M  V30 3654 H 358.686 3.95185 -3.11188 0
M  V30 3655 H 358.386 3.41299 -4.78318 0
M  V30 3656 H 359.91 4.25391 -4.38035 0
M  V30 3657 H 361.324 2.17832 -5.30304 0
M  V30 3658 H 359.721 1.55871 -5.79503 0
M  V30 3659 H 360.791 0.535956 -4.81929 0
M  V30 3660 N 362.134 1.5431 0.320358 0
M  V30 3661 C 363.359 1.76954 1.08175 0
M  V30 3662 C 363.784 0.518193 1.80821 0
M  V30 3663 O 363.142 -0.530411 1.73368 0
M  V30 3664 C 363.19 2.96451 2.05303 0
M  V30 3665 O 362.294 2.68221 3.13259 0
M  V30 3666 H 361.635 0.586275 0.311733 0
M  V30 3667 H 364.165 2.01342 0.363676 0
M  V30 3668 H 364.175 3.23887 2.48116 0
M  V30 3669 H 362.85 3.87196 1.51829 0
M  V30 3670 H 361.427 2.51744 2.75099 0
M  V30 3671 N 363.613 -0.582584 1.46437 0
M  V30 3672 C 365.029 -0.905962 1.31394 0
M  V30 3673 C 365.229 -1.99468 0.285476 0
M  V30 3674 O 364.285 -2.50566 -0.311914 0
M  V30 3675 C 365.598 -1.3232 2.70022 0
M  V30 3676 C 367.146 -1.43604 2.78113 0
M  V30 3677 C 367.621 -1.88694 4.17323 0
M  V30 3678 N 369.112 -1.95887 4.19741 0
M  V30 3679 C 369.847 -2.32051 5.24347 0
M  V30 3680 N 369.343 -2.67006 6.39281 0
M  V30 3681 N 371.136 -2.32606 5.11713 0
M  V30 3682 H 363.287 0.1366 2.1196 0
M  V30 3683 H 365.55 -0.00155736 0.947999 0
M  V30 3684 H 365.256 -0.597242 3.46592 0
M  V30 3685 H 365.13 -2.28469 3.00136 0
M  V30 3686 H 367.517 -2.15286 2.01832 0
M  V30 3687 H 367.598 -0.457059 2.51684 0
M  V30 3688 H 367.242 -1.1759 4.941 0
M  V30 3689 H 367.172 -2.8755 4.4116 0
M  V30 3690 H 369.663 -1.71362 3.36814 0
M  V30 3691 H 369.976 -2.93554 7.14875 0
M  V30 3692 H 368.321 -2.64644 6.42642 0
M  V30 3693 H 371.512 -2.04721 4.2096 0
M  V30 3694 H 371.685 -2.60462 5.93349 0
M  V30 3695 N 365.091 -1.34144 -0.827227 0
M  V30 3696 C 366.338 -1.26258 -1.58319 0
M  V30 3697 C 366.666 0.168595 -1.93768 0
M  V30 3698 O 365.921 1.12877 -1.59866 0
M  V30 3699 C 366.22 -2.09464 -2.89585 0
M  V30 3700 C 365.886 -3.58521 -2.73448 0
M  V30 3701 C 364.548 -3.99155 -2.68754 0
M  V30 3702 C 366.9 -4.53189 -2.57428 0
M  V30 3703 C 364.228 -5.32656 -2.45957 0
M  V30 3704 C 366.58 -5.86864 -2.36163 0
M  V30 3705 C 365.244 -6.26667 -2.29879 0
M  V30 3706 H 364.514 -0.462013 -0.579332 0
M  V30 3707 H 367.161 -1.65845 -0.95748 0
M  V30 3708 H 365.466 -1.62692 -3.56425 0
M  V30 3709 H 367.163 -2.00712 -3.47154 0
M  V30 3710 H 363.753 -3.26264 -2.77939 0
M  V30 3711 H 367.937 -4.22696 -2.60081 0
M  V30 3712 H 363.193 -5.62519 -2.39546 0
M  V30 3713 H 367.367 -6.59813 -2.22754 0
M  V30 3714 H 364.994 -7.30049 -2.11975 0
M  V30 3715 N 366.569 1.04691 -1.17803 0
M  V30 3716 C 367.479 2.16057 -0.914151 0
M  V30 3717 C 368.495 1.73589 0.119503 0
M  V30 3718 O 369.671 2.01308 -0.0609468 0
M  V30 3719 C 366.736 3.4394 -0.436603 0
M  V30 3720 C 365.797 4.00825 -1.53746 0
M  V30 3721 C 365.03 5.22604 -1.0826 0
M  V30 3722 O 365.253 5.70367 0.0612244 0
M  V30 3723 O 364.187 5.7186 -1.87775 0
M  V30 3724 H 368.013 2.41169 -1.84584 0
M  V30 3725 H 365.598 1.1453 -0.959334 0
M  V30 3726 H 367.48 4.21024 -0.178057 0
M  V30 3727 H 366.155 3.20316 0.466869 0
M  V30 3728 H 365.062 3.25158 -1.84995 0
M  V30 3729 H 366.395 4.28778 -2.41683 0
M  V30 3730 N 368.047 0.979072 1.23499 0
M  V30 3731 C 368.977 0.537606 2.27227 0
M  V30 3732 C 369.958 -0.428539 1.64613 0
M  V30 3733 O 371.143 -0.322191 1.91509 0
M  V30 3734 C 368.273 -0.162052 3.46922 0
M  V30 3735 C 367.227 0.721242 4.21879 0
M  V30 3736 C 366.553 -0.110555 5.34586 0
M  V30 3737 C 367.853 2.01141 4.82016 0
M  V30 3738 H 369.547 1.40462 2.64406 0
M  V30 3739 H 367.093 0.67684 1.27102 0
M  V30 3740 H 369.046 -0.482192 4.18632 0
M  V30 3741 H 367.77 -1.06351 3.08799 0
M  V30 3742 H 366.429 1.02482 3.51984 0
M  V30 3743 H 366.077 -1.0125 4.92704 0
M  V30 3744 H 365.777 0.477325 5.85658 0
M  V30 3745 H 367.301 -0.425107 6.09118 0
M  V30 3746 H 368.715 1.75612 5.45741 0
M  V30 3747 H 367.112 2.54695 5.43369 0
M  V30 3748 H 368.182 2.69909 4.02836 0
M  V30 3749 N 369.525 -1.3858 0.750561 0
M  V30 3750 C 370.755 -2.04175 0.31564 0
M  V30 3751 C 371.163 -1.56726 -1.05989 0
M  V30 3752 O 370.506 -0.734225 -1.68389 0
M  V30 3753 C 370.568 -3.58585 0.256389 0
M  V30 3754 C 370.232 -4.29077 1.57296 0
M  V30 3755 C 371.229 -4.54656 2.52159 0
M  V30 3756 C 368.914 -4.67324 1.84156 0
M  V30 3757 C 370.908 -5.17512 3.72103 0
M  V30 3758 C 368.595 -5.29905 3.04374 0
M  V30 3759 C 369.593 -5.54933 3.98168 0
M  V30 3760 O 369.281 -6.16212 5.16273 0
M  V30 3761 H 369.013 -0.662742 0.133226 0
M  V30 3762 H 371.567 -1.78313 1.01948 0
M  V30 3763 H 369.797 -3.83406 -0.503677 0
M  V30 3764 H 371.486 -4.05628 -0.148612 0
M  V30 3765 H 372.252 -4.25539 2.32683 0
M  V30 3766 H 368.131 -4.47191 1.11988 0
M  V30 3767 H 371.675 -5.36963 4.45327 0
M  V30 3768 H 367.572 -5.58444 3.23745 0
M  V30 3769 H 368.34 -6.34701 5.16815 0
M  V30 3770 N 371.003 -0.499398 -1.49478 0
M  V30 3771 C 372.243 0.0440751 -2.04352 0
M  V30 3772 C 372.607 1.34423 -1.37093 0
M  V30 3773 O 373.808 1.97184 -1.82679 0
M  V30 3774 C 372.079 0.194918 -3.56868 0
M  V30 3775 S 373.638 0.69287 -4.33295 0
M  V30 3776 H 370.456 0.00253458 -0.710995 0
M  V30 3777 H 373.058 -0.673 -1.83551 0
M  V30 3778 H 371.762 -0.756672 -4.03364 0
M  V30 3779 H 371.293 0.93728 -3.82071 0
M  V30 3780 H 373.308 1.96226 -4.55752 0
M  V30 3781 N 372.481 1.55866 -0.233164 0
M  V30 3782 C 373.897 1.59133 0.121988 0
M  V30 3783 C 374.097 1.25016 1.58029 0
M  V30 3784 O 373.153 0.990922 2.32243 0
M  V30 3785 C 374.466 2.99932 -0.214792 0
M  V30 3786 C 376.014 3.12601 -0.157971 0
M  V30 3787 C 376.489 4.55597 -0.46859 0
M  V30 3788 N 377.98 4.61305 -0.418585 0
M  V30 3789 C 378.715 5.69903 -0.63227 0
M  V30 3790 N 378.211 6.86819 -0.90835 0
M  V30 3791 N 380.004 5.59264 -0.563913 0
M  V30 3792 H 372.155 1.76315 -1.18434 0
M  V30 3793 H 374.418 0.820093 -0.475553 0
M  V30 3794 H 374.124 3.29588 -1.22739 0
M  V30 3795 H 373.998 3.74327 0.464691 0
M  V30 3796 H 376.385 2.82735 0.845283 0
M  V30 3797 H 376.466 2.40511 -0.871102 0
M  V30 3798 H 376.11 4.86182 -1.46934 0
M  V30 3799 H 376.04 5.25928 0.265865 0
M  V30 3800 H 378.531 3.77297 -0.213368 0
M  V30 3801 H 378.844 7.65507 -1.05919 0
M  V30 3802 H 377.189 6.88536 -0.945673 0
M  V30 3803 H 380.38 4.66802 -0.348372 0
M  V30 3804 H 380.553 6.43831 -0.733847 0
M  V30 3805 N 373.959 -0.0401083 1.57549 0
M  V30 3806 C 374.891 -1.07149 2.02612 0
M  V30 3807 C 375.904 -1.33126 0.937085 0
M  V30 3808 O 377.093 -1.30808 1.21456 0
M  V30 3809 C 374.193 -2.41561 2.37701 0
M  V30 3810 C 373.366 -2.35096 3.68848 0
M  V30 3811 C 372.425 -3.51867 3.91249 0
M  V30 3812 O 371.451 -3.3186 4.62447 0
M  V30 3813 N 372.653 -4.73351 3.36035 0
M  V30 3814 H 375.418 -0.687485 2.91708 0
M  V30 3815 H 372.979 -0.228248 1.60283 0
M  V30 3816 H 374.971 -3.18379 2.49833 0
M  V30 3817 H 373.541 -2.71846 1.54332 0
M  V30 3818 H 372.761 -1.4345 3.67173 0
M  V30 3819 H 374.049 -2.27908 4.54901 0
M  V30 3820 H 373.447 -4.92507 2.78304 0
M  V30 3821 H 372.004 -5.47572 3.53565 0
M  V30 3822 N 375.437 -1.54477 -0.31217 0
M  V30 3823 C 376.686 -1.72438 -1.04633 0
M  V30 3824 C 376.999 -0.511163 -1.88803 0
M  V30 3825 O 378.205 -0.572341 -2.65399 0
M  V30 3826 C 376.661 -3.05043 -1.9099 0
M  V30 3827 C 376.269 -4.33806 -1.11877 0
M  V30 3828 C 378.013 -3.32364 -2.64073 0
M  V30 3829 C 375.92 -5.57467 -1.97445 0
M  V30 3830 H 374.85 -0.642647 -0.394361 0
M  V30 3831 H 377.501 -1.80966 -0.303929 0
M  V30 3832 H 375.883 -2.90451 -2.69173 0
M  V30 3833 H 377.057 -4.59199 -0.383843 0
M  V30 3834 H 375.372 -4.13336 -0.504252 0
M  V30 3835 H 377.969 -4.21951 -3.28423 0
M  V30 3836 H 378.312 -2.50745 -3.32314 0
M  V30 3837 H 378.845 -3.47875 -1.92944 0
M  V30 3838 H 375.584 -6.41722 -1.33692 0
M  V30 3839 H 375.104 -5.36277 -2.6864 0
M  V30 3840 H 376.783 -5.94303 -2.5576 0
M  V30 3841 N 376.915 0.57481 -1.46744 0
M  V30 3842 C 378.14 1.36341 -1.56288 0
M  V30 3843 C 378.565 1.86954 -0.207347 0
M  V30 3844 O 377.923 1.62006 0.813871 0
M  V30 3845 C 377.971 2.52147 -2.57787 0
M  V30 3846 O 377.075 3.53834 -2.11838 0
M  V30 3847 H 376.416 0.405713 -0.525636 0
M  V30 3848 H 378.946 0.696453 -1.92382 0
M  V30 3849 H 378.956 2.98958 -2.77648 0
M  V30 3850 H 377.631 2.14663 -3.5622 0
M  V30 3851 H 376.208 3.1345 -2.01999 0
M  V30 3852 N 378.394 1.34581 0.820102 0
M  V30 3853 C 379.304 1.28471 1.96297 0
M  V30 3854 C 380.32 0.191902 1.72939 0
M  V30 3855 O 381.496 0.418879 1.96996 0
M  V30 3856 C 378.561 1.04281 3.30645 0
M  V30 3857 C 377.622 2.22745 3.66992 0
M  V30 3858 C 376.855 1.997 4.9493 0
M  V30 3859 O 377.078 0.956656 5.6232 0
M  V30 3860 O 376.012 2.86723 5.2922 0
M  V30 3861 H 379.838 2.24624 2.04396 0
M  V30 3862 H 377.423 1.14816 0.955913 0
M  V30 3863 H 379.305 0.925841 4.11104 0
M  V30 3864 H 377.98 0.111697 3.23507 0
M  V30 3865 H 376.887 2.40003 2.86966 0
M  V30 3866 H 378.22 3.14257 3.78819 0
M  V30 3867 N 379.872 -1.04064 1.18357 0
M  V30 3868 C 380.819 -2.12077 0.910603 0
M  V30 3869 C 381.789 -1.65421 -0.15 0
M  V30 3870 O 382.974 -1.90797 -0.0103614 0
M  V30 3871 C 380.114 -3.42252 0.442472 0
M  V30 3872 C 379.227 -4.0252 1.5685 0
M  V30 3873 C 378.362 -5.20657 1.05309 0
M  V30 3874 C 377.401 -5.72955 2.1538 0
M  V30 3875 N 376.538 -6.8238 1.65233 0
M  V30 3876 H 381.378 -2.34764 1.83548 0
M  V30 3877 H 378.915 -1.15157 0.915279 0
M  V30 3878 H 380.873 -4.16921 0.152534 0
M  V30 3879 H 379.503 -3.19712 -0.445428 0
M  V30 3880 H 378.555 -3.25178 1.97391 0
M  V30 3881 H 379.867 -4.37362 2.39824 0
M  V30 3882 H 379.021 -6.0244 0.717677 0
M  V30 3883 H 377.76 -4.87318 0.19293 0
M  V30 3884 H 376.765 -4.89793 2.49766 0
M  V30 3885 H 377.99 -6.08337 3.01832 0
M  V30 3886 H 375.936 -6.50917 0.815064 0
M  V30 3887 H 375.853 -7.16286 2.41805 0
M  V30 3888 H 377.121 -7.67788 1.34619 0
M  V30 3889 N 381.35 -0.985608 -1.22978 0
M  V30 3890 C 382.26 -0.538548 -2.28335 0
M  V30 3891 C 383.276 0.409163 -1.69121 0
M  V30 3892 O 384.452 0.277797 -1.99475 0
M  V30 3893 C 381.517 0.146867 -3.46389 0
M  V30 3894 C 380.578 -0.842896 -4.20944 0
M  V30 3895 C 379.811 -0.190095 -5.33361 0
M  V30 3896 O 380.034 1.01767 -5.61248 0
M  V30 3897 O 378.968 -0.891289 -5.95264 0
M  V30 3898 H 382.794 -1.41487 -2.68729 0
M  V30 3899 H 380.379 -0.753495 -1.29007 0
M  V30 3900 H 382.261 0.531125 -4.1804 0
M  V30 3901 H 380.936 0.997871 -3.07935 0
M  V30 3902 H 379.843 -1.27795 -3.51595 0
M  V30 3903 H 381.176 -1.66287 -4.6326 0
M  V30 3904 N 382.828 1.3818 -0.7579 0
M  V30 3905 C 383.738 2.3421 -0.135247 0
M  V30 3906 C 384.754 1.59487 0.695683 0
M  V30 3907 O 385.93 1.91657 0.618832 0
M  V30 3908 C 382.995 3.3862 0.744139 0
M  V30 3909 C 382.056 4.2918 -0.101658 0
M  V30 3910 C 381.289 5.28603 0.735851 0
M  V30 3911 O 381.512 5.35166 1.97366 0
M  V30 3912 O 380.446 6.01707 0.152372 0
M  V30 3913 H 384.272 2.8916 -0.928436 0
M  V30 3914 H 381.857 1.40101 -0.518855 0
M  V30 3915 H 383.739 4.02539 1.2466 0
M  V30 3916 H 382.414 2.86019 1.51575 0
M  V30 3917 H 381.321 3.68407 -0.650167 0
M  V30 3918 H 382.654 4.85048 -0.836024 0
M  V30 3919 N 384.306 0.507319 1.49211 0
M  V30 3920 C 385.269 -0.256763 2.27757 0
M  V30 3921 C 386.269 -0.888287 1.34038 0
M  V30 3922 O 387.459 -0.751841 1.5714 0
M  V30 3923 C 384.591 -1.36905 3.12202 0
M  V30 3924 H 385.784 0.432557 2.96764 0
M  V30 3925 H 383.337 0.262488 1.5408 0
M  V30 3926 H 384.072 -2.09233 2.47775 0
M  V30 3927 H 383.857 -0.921599 3.81115 0
M  V30 3928 H 385.347 -1.9071 3.7151 0
M  V30 3929 N 385.784 -1.5574 0.241426 0
M  V30 3930 C 387.061 -1.90704 -0.434881 0
M  V30 3931 C 387.441 -1.16145 -1.76277 0
M  V30 3932 O 386.789 -0.277152 -2.26813 0
M  V30 3933 C 386.999 -3.43657 -0.608343 0
M  V30 3934 C 388.347 -4.14806 -0.906725 0
M  V30 3935 O 389.371 -3.49366 -0.694408 0
M  V30 3936 O 388.23 -5.30548 -1.31075 0
M  V30 3937 H 385.324 -0.793592 -0.23268 0
M  V30 3938 H 387.87 -1.67288 0.285086 0
M  V30 3939 H 386.642 -3.89927 0.327505 0
M  V30 3940 H 386.265 -3.72918 -1.37906 0
M  V30 3941 N 387.262 0.0317525 -1.57568 0
M  V30 3942 C 388.678 0.38735 -1.54828 0
M  V30 3943 C 388.878 1.7677 -0.967187 0
M  V30 3944 O 387.934 2.45581 -0.587063 0
M  V30 3945 C 389.247 0.291667 -2.99282 0
M  V30 3946 C 390.795 0.368946 -3.10818 0
M  V30 3947 C 391.27 0.302741 -4.56998 0
M  V30 3948 N 392.761 0.361617 -4.61786 0
M  V30 3949 C 393.496 0.333238 -5.72431 0
M  V30 3950 N 392.992 0.257308 -6.92322 0
M  V30 3951 N 394.785 0.382769 -5.60795 0
M  V30 3952 H 386.936 -0.871609 -1.93692 0
M  V30 3953 H 389.199 -0.331161 -0.888277 0
M  V30 3954 H 388.905 -0.656794 -3.45513 0
M  V30 3955 H 388.779 1.08638 -3.61217 0
M  V30 3956 H 391.166 1.30784 -2.64536 0
M  V30 3957 H 391.247 -0.455066 -2.5172 0
M  V30 3958 H 390.891 -0.632473 -5.03947 0
M  V30 3959 H 390.821 1.14482 -5.14005 0
M  V30 3960 H 393.312 0.422923 -3.75526 0
M  V30 3961 H 393.625 0.24068 -7.72425 0
M  V30 3962 H 391.97 0.223396 -6.94641 0
M  V30 3963 H 395.161 0.44006 -4.66027 0
M  V30 3964 H 395.334 0.357184 -6.47015 0
M  V30 3965 N 388.74 1.54641 0.303973 0
M  V30 3966 C 389.687 1.85386 1.37479 0
M  V30 3967 C 390.657 0.702528 1.50512 0
M  V30 3968 O 391.842 0.950867 1.65418 0
M  V30 3969 C 388.982 2.10413 2.73533 0
M  V30 3970 C 388.095 3.38049 2.68974 0
M  V30 3971 C 387.23 3.52934 3.97002 0
M  V30 3972 C 386.269 4.74373 3.86829 0
M  V30 3973 N 385.406 4.8608 5.06627 0
M  V30 3974 H 390.246 2.76732 1.1056 0
M  V30 3975 H 387.783 1.37034 0.534805 0
M  V30 3976 H 389.741 2.22919 3.52652 0
M  V30 3977 H 388.371 1.22338 2.98719 0
M  V30 3978 H 387.423 3.3418 1.81736 0
M  V30 3979 H 388.735 4.27288 2.57346 0
M  V30 3980 H 387.889 3.65088 4.84557 0
M  V30 3981 H 386.628 2.61824 4.1146 0
M  V30 3982 H 385.633 4.62255 2.97658 0
M  V30 3983 H 386.858 5.66888 3.73918 0
M  V30 3984 H 384.804 3.97891 5.21554 0
M  V30 3985 H 384.721 5.69315 4.9741 0
M  V30 3986 H 385.989 5.02587 5.95841 0
M  V30 3987 N 390.218 -0.567019 1.47046 0
M  V30 3988 C 391.166 -1.69593 1.59188 0
M  V30 3989 C 392.16 -1.63046 0.459609 0
M  V30 3990 O 393.366 -1.6835 0.637058 0
M  V30 3991 H 389.741 -0.560993 0.500791 0
M  V30 3992 H 391.712 -1.56488 2.54075 0
M  V30 3993 C 390.461 -3.07964 1.61411 0
M  V30 3994 H 389.784 -3.13679 2.47881 0
M  V30 3995 H 391.224 -3.86671 1.73958 0
M  V30 3996 C 389.683 -3.35123 0.34559 0
M  V30 3997 O 390.213 -3.97812 -0.557521 0
M  V30 3998 N 388.419 -2.89699 0.22864 0
M  V30 3999 H 387.966 -2.38863 0.964479 0
M  V30 4000 H 387.924 -3.08242 -0.619192 0
M  V30 4001 N 391.696 -1.35014 -0.812953 0
M  V30 4002 C 392.643 -1.27412 -1.92444 0
M  V30 4003 C 393.613 -0.14733 -1.65445 0
M  V30 4004 O 394.798 -0.329974 -1.87925 0
M  V30 4005 C 391.938 -1.04558 -3.28879 0
M  V30 4006 C 391.051 -2.26101 -3.68106 0
M  V30 4007 C 390.186 -1.96449 -4.9354 0
M  V30 4008 C 389.225 -3.14081 -5.25376 0
M  V30 4009 N 388.362 -2.84246 -6.41988 0
M  V30 4010 H 393.202 -2.22463 -1.98278 0
M  V30 4011 H 390.739 -1.10593 -0.969933 0
M  V30 4012 H 392.697 -0.893413 -4.07522 0
M  V30 4013 H 391.327 -0.131719 -3.22531 0
M  V30 4014 H 390.379 -2.52204 -2.84775 0
M  V30 4015 H 391.691 -3.13959 -3.87597 0
M  V30 4016 H 390.845 -1.78026 -5.79993 0
M  V30 4017 H 389.584 -1.05867 -4.76071 0
M  V30 4018 H 388.589 -3.33089 -4.37415 0
M  V30 4019 H 389.814 -4.05455 -5.44778 0
M  V30 4020 H 387.76 -1.96252 -6.25956 0
M  V30 4021 H 387.677 -3.65637 -6.61699 0
M  V30 4022 H 388.945 -2.6935 -7.31485 0
M  V30 4023 N 393.175 1.03435 -1.18907 0
M  V30 4024 C 394.421 1.77005 -0.989798 0
M  V30 4025 C 394.754 1.88205 0.478816 0
M  V30 4026 O 394.029 1.39481 1.35556 0
M  V30 4027 C 394.312 3.19925 -1.65287 0
M  V30 4028 C 394.165 3.1663 -3.19477 0
M  V30 4029 C 395.484 4.18189 -1.37134 0
M  V30 4030 H 392.603 0.642538 -0.360991 0
M  V30 4031 H 395.245 1.20784 -1.46667 0
M  V30 4032 H 393.395 3.67929 -1.24741 0
M  V30 4033 H 395.067 2.76567 -3.692 0
M  V30 4034 H 393.31 2.54491 -3.51307 0
M  V30 4035 H 393.981 4.1758 -3.61013 0
M  V30 4036 H 396.457 3.78761 -1.72276 0
M  V30 4037 H 395.333 5.16394 -1.86087 0
M  V30 4038 H 395.594 4.41112 -0.295424 0
M  V30 4039 N 394.653 0.992116 1.22453 0
M  V30 4040 C 396.069 0.702713 1.43297 0
M  V30 4041 C 396.269 -0.726909 1.87932 0
M  V30 4042 O 395.325 -1.49792 2.0327 0
M  V30 4043 C 396.638 1.70762 2.47509 0
M  V30 4044 C 398.186 1.72298 2.61309 0
M  V30 4045 C 398.661 2.71649 3.68742 0
M  V30 4046 N 400.152 2.70239 3.76199 0
M  V30 4047 C 400.887 3.43778 4.58917 0
M  V30 4048 N 400.383 4.26914 5.45633 0
M  V30 4049 N 402.176 3.32487 4.5322 0
M  V30 4050 H 394.327 1.91543 0.917871 0
M  V30 4051 H 396.59 0.826031 0.465162 0
M  V30 4052 H 396.296 2.73059 2.21657 0
M  V30 4053 H 396.17 1.49985 3.46099 0
M  V30 4054 H 398.557 0.706989 2.86506 0
M  V30 4055 H 398.638 1.97143 1.62997 0
M  V30 4056 H 398.282 3.73397 3.44292 0
M  V30 4057 H 398.212 2.44074 4.66622 0
M  V30 4058 H 400.703 2.09912 3.14237 0
M  V30 4059 H 401.016 4.79855 6.05771 0
M  V30 4060 H 399.361 4.31002 5.45218 0
M  V30 4061 H 402.552 2.6698 3.84499 0
M  V30 4062 H 402.725 3.90058 5.17454 0
M  V30 4063 N 396.131 -1.37776 0.765217 0
M  V30 4064 C 397.379 -1.99454 0.325943 0
M  V30 4065 C 397.7 -1.61049 -1.09947 0
M  V30 4066 O 396.97 -0.872821 -1.75381 0
M  V30 4067 H 395.55 -0.737697 0.117525 0
M  V30 4068 H 398.212 -1.68359 0.981895 0
M  V30 4069 H 397.308 -3.09547 0.398353 0
M  V30 4070 N 397.609 -0.515225 -1.4894 0
M  V30 4071 C 398.857 0.0241671 -2.02086 0
M  V30 4072 C 399.178 1.3616 -1.3959 0
M  V30 4073 O 398.448 1.87841 -0.556121 0
M  V30 4074 H 397.028 0.0119203 -0.746905 0
M  V30 4075 H 399.69 -0.675702 -1.82812 0
M  V30 4076 H 398.786 0.143385 -3.1177 0
M  V30 4077 N 399.087 1.5561 -0.249682 0
M  V30 4078 C 400.364 1.90932 0.424761 0
M  V30 4079 C 400.744 1.17078 1.75658 0
M  V30 4080 O 400.092 0.289176 2.26663 0
M  V30 4081 C 400.302 3.43975 0.590109 0
M  V30 4082 C 401.65 4.15281 0.884714 0
M  V30 4083 O 402.674 3.49729 0.67587 0
M  V30 4084 O 401.533 5.31236 1.28259 0
M  V30 4085 H 398.627 0.794815 0.228468 0
M  V30 4086 H 401.173 1.67135 -0.293954 0
M  V30 4087 H 399.945 3.89748 -0.34818 0
M  V30 4088 H 399.568 3.73644 1.35926 0
M  V30 4089 N 400.565 -0.0233959 1.57583 0
M  V30 4090 C 401.811 -0.714119 1.89811 0
M  V30 4091 C 402.144 -1.74702 0.848113 0
M  V30 4092 O 401.419 -1.94023 -0.136135 0
M  V30 4093 C 401.702 -1.37853 3.32669 0
M  V30 4094 C 401.555 -0.358764 4.48367 0
M  V30 4095 C 402.874 -2.31101 3.7454 0
M  V30 4096 H 399.993 -0.25814 0.690314 0
M  V30 4097 H 402.635 0.0230927 1.89986 0
M  V30 4098 H 400.785 -2.00689 3.3265 0
M  V30 4099 H 402.457 0.268115 4.6052 0
M  V30 4100 H 400.7 0.321387 4.32608 0
M  V30 4101 H 401.371 -0.862242 5.45224 0
M  V30 4102 H 403.847 -1.78304 3.75961 0
M  V30 4103 H 402.723 -2.74567 4.75294 0
M  V30 4104 H 402.984 -3.18018 3.0711 0
M  V30 4105 N 402.043 -1.548 -0.295768 0
M  V30 4106 C 403.29 -1.74329 -1.03032 0
M  V30 4107 C 403.618 -0.531915 -1.87085 0
M  V30 4108 O 402.873 0.486052 -1.89568 0
M  V30 4109 C 403.172 -2.98797 -1.961 0
M  V30 4110 C 402.838 -4.32356 -1.2798 0
M  V30 4111 C 401.5 -4.68661 -1.09135 0
M  V30 4112 C 403.852 -5.15128 -0.793243 0
M  V30 4113 C 401.18 -5.85312 -0.403269 0
M  V30 4114 C 403.532 -6.32488 -0.118854 0
M  V30 4115 C 402.196 -6.6745 0.0815043 0
M  V30 4116 H 401.466 -0.637916 -0.37702 0
M  V30 4117 H 404.113 -1.8906 -0.304696 0
M  V30 4118 H 402.418 -2.78869 -2.75207 0
M  V30 4119 H 404.115 -3.11102 -2.53015 0
M  V30 4120 H 400.705 -4.03808 -1.43655 0
M  V30 4121 H 404.889 -4.87575 -0.92653 0
M  V30 4122 H 400.145 -6.1094 -0.237098 0
M  V30 4123 H 404.319 -6.95892 0.266035 0
M  V30 4124 H 401.946 -7.57695 0.616685 0
M  V30 4125 N 403.521 0.559213 -1.47345 0
M  V30 4126 C 404.746 1.34676 -1.57725 0
M  V30 4127 C 405.171 1.86723 -0.227164 0
M  V30 4128 O 404.529 1.6286 0.796642 0
M  V30 4129 C 404.577 2.49399 -2.60447 0
M  V30 4130 O 403.681 3.51567 -2.15578 0
M  V30 4131 H 403.022 0.400115 -0.52991 0
M  V30 4132 H 405.552 0.676009 -1.93109 0
M  V30 4133 H 405.562 2.95996 -2.80803 0
M  V30 4134 H 404.237 2.10873 -3.58477 0
M  V30 4135 H 402.814 3.11289 -2.05313 0
M  V30 4136 N 404.999 1.35443 0.805782 0
M  V30 4137 C 406.41 1.25768 1.37983 0
M  V30 4138 C 406.761 -0.10958 1.95894 0
M  V30 4139 O 405.886 -1.01056 1.91355 0
M  V30 4140 C 406.481 2.27727 2.5085 0
M  V30 4141 C 405.04 2.2179 3.04115 0
M  V30 4142 C 404.187 2.13393 1.77084 0
M  V30 4143 H 407.138 1.4656 0.608752 0
M  V30 4144 H 407.159 1.90422 3.29424 0
M  V30 4145 H 406.671 3.27227 2.08671 0
M  V30 4146 H 404.772 1.25703 3.50756 0
M  V30 4147 H 404.885 3.13788 3.62042 0
M  V30 4148 H 403.249 1.59384 1.98668 0
M  V30 4149 H 404.032 3.14755 1.37056 0
M  V30 4150 N 406.477 -1.02803 1.19454 0
M  V30 4151 C 407.723 -1.76478 0.999171 0
M  V30 4152 C 408.056 -1.88456 -0.468828 0
M  V30 4153 O 407.331 -1.40198 -1.34814 0
M  V30 4154 C 407.614 -3.19044 1.66981 0
M  V30 4155 C 407.467 -3.14932 3.21151 0
M  V30 4156 C 408.786 -4.17456 1.39349 0
M  V30 4157 H 405.905 -0.640614 0.364393 0
M  V30 4158 H 408.547 -1.20005 1.47305 0
M  V30 4159 H 406.697 -3.67263 1.2669 0
M  V30 4160 H 408.369 -2.74605 3.70661 0
M  V30 4161 H 406.612 -2.52625 3.52652 0
M  V30 4162 H 407.283 -4.1566 3.63223 0
M  V30 4163 H 409.759 -3.77842 1.74283 0
M  V30 4164 H 408.635 -5.154 1.88823 0
M  V30 4165 H 408.896 -4.40949 0.318813 0
M  V30 4166 N 407.956 -0.998596 -1.21925 0
M  V30 4167 C 409.203 -0.677663 -1.90824 0
M  V30 4168 C 409.531 0.790905 -1.77693 0
M  V30 4169 O 408.786 1.58817 -1.14349 0
M  V30 4170 C 409.085 -1.03648 -3.42041 0
M  V30 4171 C 408.751 -2.49825 -3.75364 0
M  V30 4172 C 407.413 -2.8977 -3.8417 0
M  V30 4173 C 409.765 -3.44545 -3.91073 0
M  V30 4174 C 407.093 -4.23412 -4.06127 0
M  V30 4175 C 409.445 -4.77853 -4.14535 0
M  V30 4176 C 408.109 -5.17531 -4.21566 0
M  V30 4177 H 407.379 -0.247975 -0.698276 0
M  V30 4178 H 410.026 -1.25584 -1.44571 0
M  V30 4179 H 408.331 -0.376457 -3.89987 0
M  V30 4180 H 410.028 -0.766113 -3.93614 0
M  V30 4181 H 406.618 -2.17866 -3.69097 0
M  V30 4182 H 410.802 -3.14853 -3.83642 0
M  V30 4183 H 406.058 -4.53734 -4.09799 0
M  V30 4184 H 410.232 -5.51189 -4.25633 0
M  V30 4185 H 407.859 -6.21102 -4.38333 0
M  V30 4186 N 409.434 1.37368 -0.772513 0
M  V30 4187 C 410.344 2.34053 -0.160081 0
M  V30 4188 C 411.36 1.60216 0.678728 0
M  V30 4189 O 412.536 1.92303 0.59847 0
M  V30 4190 C 409.601 3.3939 0.708182 0
M  V30 4191 C 408.662 4.29048 -0.147172 0
M  V30 4192 C 407.895 5.29354 0.679744 0
M  V30 4193 O 408.118 5.3723 1.91678 0
M  V30 4194 O 407.052 6.01835 0.0885444 0
M  V30 4195 H 410.878 2.88159 -0.959053 0
M  V30 4196 H 408.463 1.39543 -0.533685 0
M  V30 4197 H 410.345 4.03839 1.20384 0
M  V30 4198 H 409.02 2.8761 1.48533 0
M  V30 4199 H 407.927 3.67697 -0.689205 0
M  V30 4200 H 409.26 4.84134 -0.887423 0
M  V30 4201 N 410.912 0.523116 1.48665 0
M  V30 4202 C 412.323 0.0808997 1.86525 0
M  V30 4203 C 412.674 -1.33975 1.43336 0
M  V30 4204 O 411.799 -2.00221 0.821009 0
M  V30 4205 C 412.394 0.140037 3.3851 0
M  V30 4206 C 410.953 -0.246948 3.75589 0
M  V30 4207 C 410.1 0.502845 2.72703 0
M  V30 4208 H 413.051 0.734736 1.40667 0
M  V30 4209 H 413.072 -0.649945 3.74908 0
M  V30 4210 H 412.584 1.17412 3.69914 0
M  V30 4211 H 410.685 -1.28343 3.49798 0
M  V30 4212 H 410.798 0.0878859 4.79019 0
M  V30 4213 H 409.162 -0.0500581 2.54651 0
M  V30 4214 H 409.945 1.53743 3.0695 0
M  V30 4215 N 412.39 -1.55475 0.257931 0
M  V30 4216 C 413.636 -1.99502 -0.364266 0
M  V30 4217 C 413.969 -1.146 -1.56782 0
M  V30 4218 O 413.244 -0.211968 -1.93342 0
M  V30 4219 C 413.527 -3.51917 -0.763333 0
M  V30 4220 C 413.38 -4.4758 0.446371 0
M  V30 4221 C 414.699 -4.09742 -1.60623 0
M  V30 4222 H 411.818 -0.725277 -0.130929 0
M  V30 4223 H 414.46 -1.8653 0.361446 0
M  V30 4224 H 412.61 -3.63101 -1.38166 0
M  V30 4225 H 414.282 -4.48362 1.08487 0
M  V30 4226 H 412.525 -4.19947 1.08753 0
M  V30 4227 H 413.196 -5.51862 0.123645 0
M  V30 4228 H 415.672 -4.01727 -1.08418 0
M  V30 4229 H 414.548 -5.16631 -1.85429 0
M  V30 4230 H 414.809 -3.58889 -2.58169 0
M  V30 4231 N 413.868 0.0150385 -1.57593 0
M  V30 4232 C 414.8 1.03912 -2.04291 0
M  V30 4233 C 415.813 1.31618 -0.958146 0
M  V30 4234 O 417.002 1.28859 -1.23522 0
M  V30 4235 C 414.102 2.37749 -2.41514 0
M  V30 4236 C 413.275 2.29198 -3.72541 0
M  V30 4237 C 412.334 3.45598 -3.96797 0
M  V30 4238 O 411.36 3.24461 -4.67668 0
M  V30 4239 N 412.562 4.67945 -3.43523 0
M  V30 4240 H 415.327 0.64099 -2.92765 0
M  V30 4241 H 412.888 0.20272 -1.60626 0
M  V30 4242 H 414.88 3.14364 -2.54867 0
M  V30 4243 H 413.45 2.69357 -1.58637 0
M  V30 4244 H 412.67 1.3759 -3.69408 0
M  V30 4245 H 413.958 2.20642 -4.5847 0
M  V30 4246 H 413.356 4.88017 -2.86104 0
M  V30 4247 H 411.913 5.41878 -3.62232 0
M  V30 4248 N 415.346 1.54954 0.287554 0
M  V30 4249 C 416.592 1.75132 1.02257 0
M  V30 4250 C 416.925 0.542858 1.86458 0
M  V30 4251 O 416.2 -0.459856 1.88986 0
M  V30 4252 C 416.483 3.04812 1.91733 0
M  V30 4253 C 416.336 4.35985 1.10622 0
M  V30 4254 C 417.655 3.30438 2.90687 0
M  V30 4255 H 414.774 0.637194 0.370341 0
M  V30 4256 H 417.416 1.87678 0.296111 0
M  V30 4257 H 415.566 2.94247 2.53675 0
M  V30 4258 H 417.238 4.58487 0.508636 0
M  V30 4259 H 415.481 4.31865 0.409271 0
M  V30 4260 H 416.152 5.23017 1.76513 0
M  V30 4261 H 418.628 3.40701 2.38877 0
M  V30 4262 H 417.504 4.22467 3.50447 0
M  V30 4263 H 417.765 2.49377 3.65053 0
M  V30 4264 N 416.824 -0.551391 1.4764 0
M  V30 4265 C 417.734 -1.68525 1.63207 0
M  V30 4266 C 418.75 -1.6621 0.514815 0
M  V30 4267 O 419.926 -1.85551 0.783113 0
M  V30 4268 C 416.991 -3.05025 1.64805 0
M  V30 4269 C 416.052 -3.18362 2.88 0
M  V30 4270 C 415.285 -4.4835 2.89513 0
M  V30 4271 O 415.508 -5.34163 2.00065 0
M  V30 4272 O 414.442 -4.65602 3.81443 0
M  V30 4273 H 418.268 -1.58333 2.59161 0
M  V30 4274 H 415.853 -0.722063 1.30792 0
M  V30 4275 H 417.735 -3.86245 1.68502 0
M  V30 4276 H 416.41 -3.15587 0.720197 0
M  V30 4277 H 415.317 -2.36518 2.89845 0
M  V30 4278 H 416.65 -3.12707 3.80099 0
M  V30 4279 N 418.302 -1.35869 -0.798587 0
M  V30 4280 C 419.548 -1.2978 -1.55836 0
M  V30 4281 C 419.881 0.125322 -1.93795 0
M  V30 4282 O 419.156 1.07658 -1.61987 0
M  V30 4283 C 419.439 -2.21188 -2.84162 0
M  V30 4284 C 419.292 -3.72155 -2.52628 0
M  V30 4285 C 420.611 -2.11545 -3.85923 0
M  V30 4286 H 417.73 -0.472769 -0.565383 0
M  V30 4287 H 420.372 -1.66341 -0.918192 0
M  V30 4288 H 418.522 -1.90139 -3.38791 0
M  V30 4289 H 420.194 -4.13682 -2.04121 0
M  V30 4290 H 418.437 -3.92042 -1.85704 0
M  V30 4291 H 419.108 -4.31511 -3.44242 0
M  V30 4292 H 421.584 -2.38855 -3.40716 0
M  V30 4293 H 420.46 -2.77688 -4.73477 0
M  V30 4294 H 420.721 -1.09987 -4.282 0
M  V30 4295 N 419.78 1.02168 -1.19998 0
M  V30 4296 C 421.028 1.75338 -1.00504 0
M  V30 4297 C 421.349 1.89387 0.464506 0
M  V30 4298 O 420.619 1.43268 1.33608 0
M  V30 4299 H 419.199 0.649564 -0.368885 0
M  V30 4300 H 421.861 1.23205 -1.51018 0
M  V30 4301 H 420.957 2.75892 -1.45912 0
M  V30 4302 N 421.258 1.00505 1.21394 0
M  V30 4303 C 422.505 0.687774 1.90462 0
M  V30 4304 C 422.833 -0.78147 1.7811 0
M  V30 4305 O 422.088 -1.58208 1.1519 0
M  V30 4306 C 422.387 1.0546 3.41486 0
M  V30 4307 C 422.053 2.51812 3.74034 0
M  V30 4308 C 420.715 2.91804 3.82628 0
M  V30 4309 C 423.067 3.46614 3.8924 0
M  V30 4310 C 420.395 4.2556 4.03876 0
M  V30 4311 C 422.747 4.80044 4.11995 0
M  V30 4312 C 421.411 5.19759 4.18816 0
M  V30 4313 H 420.681 0.251674 0.696951 0
M  V30 4314 H 423.328 1.26349 1.43903 0
M  V30 4315 H 421.633 0.397133 3.89782 0
M  V30 4316 H 423.33 0.786976 3.93202 0
M  V30 4317 H 419.92 2.1982 3.67936 0
M  V30 4318 H 424.104 3.16883 3.81967 0
M  V30 4319 H 419.36 4.55901 4.07387 0
M  V30 4320 H 423.534 5.53439 4.22704 0
M  V30 4321 H 421.161 6.23418 4.35033 0
M  V30 4322 N 422.737 -1.36956 0.779787 0
M  V30 4323 C 423.687 -2.27539 0.144892 0
M  V30 4324 C 424.671 -1.46493 -0.665488 0
M  V30 4325 O 425.863 -1.68968 -0.527141 0
M  V30 4326 C 422.992 -3.35512 -0.727082 0
M  V30 4327 C 422.078 -4.24001 0.0915642 0
M  V30 4328 N 422.469 -4.92757 1.14125 0
M  V30 4329 C 420.767 -4.45807 -0.131141 0
M  V30 4330 C 421.468 -5.58138 1.6388 0
M  V30 4331 N 420.444 -5.35241 0.94962 0
M  V30 4332 H 424.246 -2.78176 0.948446 0
M  V30 4333 H 421.76 -1.50169 0.618315 0
M  V30 4334 H 423.757 -3.99324 -1.19776 0
M  V30 4335 H 422.417 -2.86431 -1.52929 0
M  V30 4336 H 423.428 -4.94984 1.52353 0
M  V30 4337 H 420.105 -4.07582 -0.904621 0
M  V30 4338 H 421.495 -6.23071 2.51461 0
M  V30 4339 N 424.215 -0.530993 -1.48385 0
M  V30 4340 C 425.443 -0.00134122 -2.069 0
M  V30 4341 C 425.858 1.2805 -1.3874 0
M  V30 4342 O 425.215 1.76204 -0.475244 0
M  V30 4343 C 425.266 0.225256 -3.60798 0
M  V30 4344 O 424.987 -1.0058 -4.26398 0
M  V30 4345 C 426.488 0.795172 -4.3611 0
M  V30 4346 H 423.708 -0.0339704 -0.67014 0
M  V30 4347 H 426.252 -0.736926 -1.90761 0
M  V30 4348 H 424.407 0.910891 -3.76539 0
M  V30 4349 H 424.821 -0.787165 -5.1856 0
M  V30 4350 H 426.295 0.903143 -5.44562 0
M  V30 4351 H 426.772 1.80031 -4.00606 0
M  V30 4352 H 427.378 0.146069 -4.25049 0
M  V30 4353 N 425.693 1.55336 -0.266172 0
M  V30 4354 C 427.104 1.85236 0.233315 0
M  V30 4355 C 427.455 1.18816 1.56132 0
M  V30 4356 O 426.58 0.473307 2.11161 0
M  V30 4357 C 427.175 3.36059 0.430113 0
M  V30 4358 C 425.734 3.66116 0.873842 0
M  V30 4359 C 424.881 2.77274 -0.0380016 0
M  V30 4360 H 427.832 1.51004 -0.488214 0
M  V30 4361 H 427.853 3.58681 1.26998 0
M  V30 4362 H 427.365 3.84373 -0.536588 0
M  V30 4363 H 425.466 3.23295 1.85233 0
M  V30 4364 H 425.579 4.73699 0.717358 0
M  V30 4365 H 423.943 2.50198 0.476759 0
M  V30 4366 H 424.726 3.284 -1.00042 0
M  V30 4367 N 427.171 -0.0066808 1.57599 0
M  V30 4368 C 428.587 -0.36267 1.55425 0
M  V30 4369 C 428.787 -1.75209 0.995187 0
M  V30 4370 O 427.843 -2.44616 0.626058 0
M  V30 4371 C 429.156 -0.244017 2.99708 0
M  V30 4372 C 430.704 -0.319451 3.11366 0
M  V30 4373 C 431.179 -0.229998 4.57422 0
M  V30 4374 N 432.67 -0.288105 4.62303 0
M  V30 4375 C 433.405 -0.242127 5.72889 0
M  V30 4376 N 432.901 -0.147133 6.92644 0
M  V30 4377 N 434.694 -0.293502 5.61333 0
M  V30 4378 H 426.845 0.902314 1.92281 0
M  V30 4379 H 429.108 0.34525 0.882896 0
M  V30 4380 H 428.814 0.711678 3.44424 0
M  V30 4381 H 428.688 -1.02877 3.629 0
M  V30 4382 H 431.075 -1.26559 2.66584 0
M  V30 4383 H 431.156 0.495055 2.50964 0
M  V30 4384 H 430.8 0.712566 5.02877 0
M  V30 4385 H 430.73 -1.0629 5.15761 0
M  V30 4386 H 433.221 -0.363126 3.76151 0
M  V30 4387 H 433.534 -0.117763 7.7271 0
M  V30 4388 H 431.879 -0.112857 6.94908 0
M  V30 4389 H 435.07 -0.365864 4.66668 0
M  V30 4390 H 435.243 -0.254204 6.47501 0
M  V30 4391 N 428.649 -1.55105 -0.279332 0
M  V30 4392 C 429.579 -1.90557 -1.34945 0
M  V30 4393 C 430.56 -0.766738 -1.51839 0
M  V30 4394 O 431.745 -1.02434 -1.64988 0
M  V30 4395 C 428.875 -2.17193 -2.71006 0
M  V30 4396 C 427.829 -3.33021 -2.68851 0
M  V30 4397 C 427.155 -3.45123 -4.08405 0
M  V30 4398 C 428.455 -4.69578 -2.28678 0
M  V30 4399 H 430.149 -2.80188 -1.05522 0
M  V30 4400 H 427.695 -1.34811 -0.506173 0
M  V30 4401 H 429.648 -2.40581 -3.45975 0
M  V30 4402 H 428.372 -1.24355 -3.01999 0
M  V30 4403 H 427.031 -3.0959 -1.9634 0
M  V30 4404 H 426.679 -2.49762 -4.3661 0
M  V30 4405 H 426.379 -4.22995 -4.07859 0
M  V30 4406 H 427.903 -3.70796 -4.85121 0
M  V30 4407 H 429.317 -4.92553 -2.93368 0
M  V30 4408 H 427.714 -5.5032 -2.39306 0
M  V30 4409 H 428.784 -4.68828 -1.23807 0
M  V30 4410 N 430.127 0.543554 -1.4793 0
M  V30 4411 C 431.352 1.32995 -1.59145 0
M  V30 4412 C 431.777 1.86472 -0.246956 0
M  V30 4413 O 431.135 1.63696 0.779324 0
M  V30 4414 C 431.183 2.46623 -2.63077 0
M  V30 4415 O 430.287 3.49261 -2.19295 0
M  V30 4416 H 429.628 0.394472 -0.534124 0
M  V30 4417 H 432.158 0.655489 -1.93816 0
M  V30 4418 H 432.168 2.93001 -2.83926 0
M  V30 4419 H 430.843 2.07059 -3.60693 0
M  V30 4420 H 429.42 3.09094 -2.08603 0
M  V30 4421 N 431.605 1.3629 0.791371 0
M  V30 4422 C 432.882 1.20962 1.53712 0
M  V30 4423 C 433.262 -0.205021 2.10102 0
M  V30 4424 O 432.61 -1.21042 1.93807 0
M  V30 4425 C 432.82 2.29002 2.63361 0
M  V30 4426 C 434.168 2.65572 3.31295 0
M  V30 4427 O 435.192 2.2803 2.73643 0
M  V30 4428 O 434.051 3.3018 4.35481 0
M  V30 4429 H 431.145 0.47086 0.679867 0
M  V30 4430 H 433.691 1.48016 0.830021 0
M  V30 4431 H 432.463 3.2382 2.19674 0
M  V30 4432 H 432.086 2.03303 3.41692 0
M  V30 4433 N 433.083 -1.0153 1.20538 0
M  V30 4434 C 434.331 -1.74803 1.01432 0
M  V30 4435 C 434.652 -1.8963 -0.454456 0
M  V30 4436 O 433.922 -1.43975 -1.32846 0
M  V30 4437 H 432.502 -0.647598 0.372324 0
M  V30 4438 H 435.164 -1.22402 1.5167 0
M  V30 4439 H 434.26 -2.75114 1.47373 0
M  V30 4440 N 434.561 -1.01147 -1.20859 0
M  V30 4441 C 435.81 -0.693214 -1.89413 0
M  V30 4442 C 436.123 0.779969 -1.79376 0
M  V30 4443 O 437.329 1.21057 -2.43017 0
M  V30 4444 C 435.785 -1.18949 -3.39675 0
M  V30 4445 C 435.393 -2.68921 -3.58309 0
M  V30 4446 C 437.137 -0.94642 -4.13815 0
M  V30 4447 C 435.044 -3.12056 -5.0237 0
M  V30 4448 H 433.974 -0.255595 -0.709357 0
M  V30 4449 H 436.625 -1.22349 -1.36759 0
M  V30 4450 H 435.007 -0.587228 -3.91622 0
M  V30 4451 H 436.181 -3.34652 -3.16772 0
M  V30 4452 H 434.496 -2.91314 -2.97532 0
M  V30 4453 H 437.093 -1.24417 -5.20023 0
M  V30 4454 H 437.436 0.117219 -4.16135 0
M  V30 4455 H 437.969 -1.5118 -3.67953 0
M  V30 4456 H 434.708 -4.17674 -5.05202 0
M  V30 4457 H 434.228 -2.51041 -5.44737 0
M  V30 4458 H 435.907 -3.04403 -5.70918 0
M  V30 4459 N 436.039 1.36541 -0.78704 0
M  V30 4460 C 437.316 1.9355 -0.282424 0
M  V30 4461 C 437.696 1.71919 1.22503 0
M  V30 4462 O 437.044 1.07677 2.01539 0
M  V30 4463 C 437.254 3.4246 -0.672462 0
M  V30 4464 C 438.602 4.19582 -0.650863 0
M  V30 4465 O 439.626 3.50889 -0.612789 0
M  V30 4466 O 438.485 5.42106 -0.691623 0
M  V30 4467 H 435.579 0.824091 -0.0693 0
M  V30 4468 H 438.125 1.45736 -0.869423 0
M  V30 4469 H 436.897 3.51851 -1.71221 0
M  V30 4470 H 436.52 3.97556 -0.0592211 0
M  V30 4471 N 437.518 0.538854 1.48102 0
M  V30 4472 C 438.767 0.0059532 2.01699 0
M  V30 4473 C 439.08 -1.34476 1.42041 0
M  V30 4474 O 440.286 -1.96653 1.87189 0
M  V30 4475 C 438.742 -0.0397627 3.59878 0
M  V30 4476 C 438.35 1.30659 4.28523 0
M  V30 4477 C 440.094 -0.521024 4.2129 0
M  V30 4478 C 438.001 1.22098 5.78659 0
M  V30 4479 H 436.931 -0.00154456 0.753998 0
M  V30 4480 H 439.582 0.683963 1.70277 0
M  V30 4481 H 437.964 -0.783037 3.88181 0
M  V30 4482 H 439.138 2.06613 4.11883 0
M  V30 4483 H 437.453 1.7243 3.79021 0
M  V30 4484 H 440.05 -0.603184 5.31287 0
M  V30 4485 H 440.393 -1.52885 3.8721 0
M  V30 4486 H 440.926 0.166834 3.9745 0
M  V30 4487 H 437.665 2.20424 6.17328 0
M  V30 4488 H 437.185 0.50295 5.97688 0
M  V30 4489 H 438.864 0.915345 6.40492 0
M  V30 4490 N 438.996 -1.55193 0.274407 0
M  V30 4491 C 440.242 -1.99877 -0.343086 0
M  V30 4492 C 440.575 -1.16256 -1.55558 0
M  V30 4493 O 439.85 -0.232462 -1.93106 0
M  V30 4494 C 440.133 -3.52706 -0.725965 0
M  V30 4495 C 439.986 -4.47081 0.493818 0
M  V30 4496 C 441.305 -4.11422 -1.56268 0
M  V30 4497 H 438.424 -0.726625 -0.123229 0
M  V30 4498 H 441.066 -1.86136 0.38121 0
M  V30 4499 H 439.216 -3.64546 -1.34307 0
M  V30 4500 H 440.888 -4.47186 1.13237 0
M  V30 4501 H 439.131 -4.1877 1.13201 0
M  V30 4502 H 439.802 -5.51699 0.18217 0
M  V30 4503 H 442.278 -4.02855 -1.04151 0
M  V30 4504 H 441.154 -5.18568 -1.79939 0
M  V30 4505 H 441.415 -3.61607 -2.54348 0
M  V30 4506 N 440.474 -0.00167713 -1.576 0
M  V30 4507 C 441.437 0.974046 -2.07473 0
M  V30 4508 C 442.437 1.27143 -0.984444 0
M  V30 4509 O 443.627 1.21633 -1.24703 0
M  V30 4510 C 440.759 2.29849 -2.51759 0
M  V30 4511 H 441.952 0.54262 -2.9495 0
M  V30 4512 H 439.505 0.245829 -1.54355 0
M  V30 4513 H 440.24 2.77677 -1.67529 0
M  V30 4514 H 440.025 2.09584 -3.31386 0
M  V30 4515 H 441.515 2.9984 -2.90664 0
M  V30 4516 N 441.952 1.55251 0.271103 0
M  V30 4517 C 443.2 1.75599 1.00047 0
M  V30 4518 C 443.521 0.561188 1.8675 0
M  V30 4519 O 442.791 -0.423846 1.9126 0
M  V30 4520 H 441.371 0.647562 0.372387 0
M  V30 4521 H 444.033 1.92656 0.294876 0
M  V30 4522 H 443.129 2.65766 1.6363 0
M  V30 4523 N 443.43 -0.535701 1.48216 0
M  V30 4524 C 444.676 -1.2913 1.57153 0
M  V30 4525 C 445.031 -1.90899 0.239823 0
M  V30 4526 O 444.324 -1.76022 -0.756748 0
M  V30 4527 C 444.518 -2.4068 2.64212 0
M  V30 4528 C 444.347 -1.89844 4.07663 0
M  V30 4529 C 443.117 -1.72708 4.74869 0
M  V30 4530 C 445.315 -1.43031 4.94011 0
M  V30 4531 N 443.297 -1.16437 6.02757 0
M  V30 4532 C 444.668 -0.986691 6.12098 0
M  V30 4533 C 446.723 -1.3128 4.80281 0
M  V30 4534 C 445.426 -0.437231 7.1797 0
M  V30 4535 C 447.452 -0.777346 5.86269 0
M  V30 4536 C 446.814 -0.343774 7.03561 0
M  V30 4537 H 442.913 -0.463753 0.629648 0
M  V30 4538 H 445.497 -0.604736 1.8507 0
M  V30 4539 H 443.668 -3.06839 2.38126 0
M  V30 4540 H 445.4 -3.07706 2.62867 0
M  V30 4541 H 442.155 -1.96061 4.31111 0
M  V30 4542 H 442.579 -0.903281 6.70947 0
M  V30 4543 H 447.221 -1.63408 3.89946 0
M  V30 4544 H 444.939 -0.103621 8.08034 0
M  V30 4545 H 448.525 -0.689688 5.77698 0
M  V30 4546 H 447.405 0.0641219 7.84174 0
M  V30 4547 N 444.908 -1.36708 -0.784132 0
M  V30 4548 C 445.871 -1.31307 -1.87859 0
M  V30 4549 C 446.871 -0.219654 -1.59293 0
M  V30 4550 O 448.061 -0.47476 -1.67606 0
M  V30 4551 C 445.193 -1.03679 -3.24751 0
M  V30 4552 H 446.386 -2.28647 -1.94064 0
M  V30 4553 H 443.939 -1.21558 -0.98252 0
M  V30 4554 H 444.674 -0.0681936 -3.24228 0
M  V30 4555 H 444.459 -1.82811 -3.46876 0
M  V30 4556 H 445.949 -1.02518 -4.04821 0
M  V30 4557 N 446.386 1.0089 -1.21074 0
M  V30 4558 C 447.296 2.13039 -0.982425 0
M  V30 4559 C 448.312 1.73881 0.0642161 0
M  V30 4560 O 449.488 2.01012 -0.12496 0
M  V30 4561 C 446.553 3.42377 -0.545803 0
M  V30 4562 C 445.614 3.95731 -1.6642 0
M  V30 4563 C 444.847 5.18896 -1.24832 0
M  V30 4564 O 445.07 5.70273 -0.120265 0
M  V30 4565 O 444.004 5.65597 -2.05873 0
M  V30 4566 H 447.83 2.35175 -1.92163 0
M  V30 4567 H 445.415 1.1142 -0.995285 0
M  V30 4568 H 447.297 4.20244 -0.311912 0
M  V30 4569 H 445.972 3.21639 0.364727 0
M  V30 4570 H 444.879 3.19108 -1.95246 0
M  V30 4571 H 446.212 4.20872 -2.55201 0
M  V30 4572 N 447.864 1.01787 1.20321 0
M  V30 4573 C 448.811 0.589197 2.23153 0
M  V30 4574 C 449.781 -0.391367 1.61423 0
M  V30 4575 O 450.966 -0.290518 1.88575 0
M  V30 4576 C 448.106 -0.0650747 3.45039 0
M  V30 4577 C 447.219 0.960207 4.21194 0
M  V30 4578 C 446.354 0.276854 5.30478 0
M  V30 4579 C 445.393 1.2888 5.98378 0
M  V30 4580 N 444.53 0.632031 6.99249 0
M  V30 4581 H 449.37 1.47071 2.59179 0
M  V30 4582 H 446.907 0.736192 1.27352 0
M  V30 4583 H 448.865 -0.461552 4.14639 0
M  V30 4584 H 447.495 -0.910233 3.09701 0
M  V30 4585 H 446.547 1.47484 3.50646 0
M  V30 4586 H 447.859 1.72977 4.67847 0
M  V30 4587 H 447.013 -0.175056 6.06447 0
M  V30 4588 H 445.752 -0.525004 4.84866 0
M  V30 4589 H 444.757 1.75109 5.21169 0
M  V30 4590 H 445.982 2.09196 6.46076 0
M  V30 4591 H 443.928 -0.149935 6.55829 0
M  V30 4592 H 443.845 1.33964 7.44036 0
M  V30 4593 H 445.113 0.203755 7.79234 0
M  V30 4594 N 449.342 -1.36122 0.79427 0
M  V30 4595 C 450.305 -2.28309 0.201889 0
M  V30 4596 C 451.305 -1.49041 -0.603603 0
M  V30 4597 O 452.495 -1.68964 -0.423888 0
M  V30 4598 C 449.627 -3.3321 -0.719978 0
M  V30 4599 H 450.82 -2.82208 1.01481 0
M  V30 4600 H 448.373 -1.45768 0.564037 0
M  V30 4601 H 449.108 -2.84475 -1.55706 0
M  V30 4602 H 448.893 -3.91835 -0.144266 0
M  V30 4603 H 450.383 -4.02044 -1.12916 0
M  V30 4604 N 450.82 -0.546701 -1.47814 0
M  V30 4605 C 452.068 -0.0187037 -2.02091 0
M  V30 4606 C 452.389 1.33168 -1.42447 0
M  V30 4607 O 451.659 1.86619 -0.595839 0
M  V30 4608 H 450.239 -0.00392531 -0.74699 0
M  V30 4609 H 452.901 -0.714327 -1.81338 0
M  V30 4610 H 451.997 0.0772219 -3.12004 0
M  V30 4611 N 452.299 1.55045 -0.282633 0
M  V30 4612 C 453.229 2.2579 0.595066 0
M  V30 4613 C 454.21 1.25074 1.15284 0
M  V30 4614 O 455.395 1.5381 1.18559 0
M  V30 4615 C 452.525 2.98472 1.77572 0
M  V30 4616 C 451.479 4.0618 1.34914 0
M  V30 4617 C 450.805 4.66477 2.6135 0
M  V30 4618 C 452.105 5.1996 0.493821 0
M  V30 4619 H 453.799 2.994 0.00505653 0
M  V30 4620 H 451.345 1.44 0.000992001 0
M  V30 4621 H 453.298 3.46677 2.39568 0
M  V30 4622 H 452.022 2.2241 2.39168 0
M  V30 4623 H 450.681 3.58797 0.752338 0
M  V30 4624 H 450.329 3.87074 3.2122 0
M  V30 4625 H 450.029 5.39207 2.33516 0
M  V30 4626 H 451.553 5.17435 3.24181 0
M  V30 4627 H 452.967 5.64172 1.01898 0
M  V30 4628 H 451.364 5.99299 0.310047 0
M  V30 4629 H 452.434 4.82462 -0.485593 0
M  V30 4630 N 453.777 0.010035 1.57597 0
M  V30 4631 C 455.054 -0.710296 1.82248 0
M  V30 4632 C 455.434 -1.91426 0.889911 0
M  V30 4633 O 454.782 -2.28424 -0.0590292 0
M  V30 4634 C 454.992 -1.10655 3.30993 0
M  V30 4635 C 456.34 -1.50621 3.96987 0
M  V30 4636 O 457.364 -1.20007 3.35375 0
M  V30 4637 O 456.223 -2.07587 5.05539 0
M  V30 4638 H 453.317 -0.34673 0.750804 0
M  V30 4639 H 455.863 0.0362578 1.69661 0
M  V30 4640 H 454.635 -0.248826 3.90508 0
M  V30 4641 H 454.258 -1.91189 3.48615 0
M  V30 4642 N 455.255 -1.55392 -0.262866 0
M  V30 4643 C 456.501 -1.76737 -0.99458 0
M  V30 4644 C 456.834 -0.572453 -1.85571 0
M  V30 4645 O 456.109 0.429732 -1.89693 0
M  V30 4646 C 456.392 -3.07824 -1.8686 0
M  V30 4647 C 456.245 -4.3769 -1.03672 0
M  V30 4648 C 457.564 -3.35021 -2.85393 0
M  V30 4649 H 454.683 -0.643005 -0.360157 0
M  V30 4650 H 457.325 -1.88126 -0.266216 0
M  V30 4651 H 455.475 -2.98245 -2.48962 0
M  V30 4652 H 457.147 -4.59238 -0.43563 0
M  V30 4653 H 455.39 -4.32461 -0.340513 0
M  V30 4654 H 456.061 -5.25759 -1.6817 0
M  V30 4655 H 458.537 -3.44458 -2.33426 0
M  V30 4656 H 457.413 -4.27989 -3.43681 0
M  V30 4657 H 457.674 -2.55153 -3.61039 0
M  V30 4658 N 456.733 0.527833 -1.48498 0
M  V30 4659 C 457.696 1.61439 -1.62696 0
M  V30 4660 C 458.696 1.52824 -0.500136 0
M  V30 4661 O 459.886 1.56456 -0.765976 0
M  V30 4662 C 457.018 3.01063 -1.59918 0
M  V30 4663 H 458.211 1.50189 -2.59583 0
M  V30 4664 H 455.764 0.750055 -1.37127 0
M  V30 4665 H 456.499 3.17818 -0.645163 0
M  V30 4666 H 456.284 3.08725 -2.41726 0
M  V30 4667 H 457.774 3.80057 -1.73051 0
M  V30 4668 N 458.211 1.37122 0.776871 0
M  V30 4669 C 459.141 1.35164 1.90402 0
M  V30 4670 C 460.122 0.221069 1.68657 0
M  V30 4671 O 461.307 0.420642 1.8959 0
M  V30 4672 C 458.437 1.15274 3.27611 0
M  V30 4673 C 457.391 2.25289 3.63908 0
M  V30 4674 C 456.717 1.90527 4.99603 0
M  V30 4675 C 458.017 3.67446 3.71188 0
M  V30 4676 H 459.711 2.29482 1.92297 0
M  V30 4677 H 457.257 1.10465 0.923773 0
M  V30 4678 H 459.21 1.12536 4.06096 0
M  V30 4679 H 457.934 0.174102 3.26136 0
M  V30 4680 H 456.593 2.27174 2.87728 0
M  V30 4681 H 456.241 0.91206 4.94662 0
M  V30 4682 H 455.941 2.64193 5.24858 0
M  V30 4683 H 457.465 1.89367 5.80493 0
M  V30 4684 H 458.879 3.67719 4.39836 0
M  V30 4685 H 457.276 4.40123 4.07936 0
M  V30 4686 H 458.346 4.01443 2.71977 0
M  V30 4687 N 459.689 -1.00246 1.21608 0
M  V30 4688 C 460.652 -2.07233 0.979133 0
M  V30 4689 C 461.652 -1.6072 -0.0508219 0
M  V30 4690 O 462.842 -1.73196 0.186712 0
M  V30 4691 C 459.974 -3.37546 0.477016 0
M  V30 4692 H 461.167 -2.29687 1.92831 0
M  V30 4693 H 458.72 -1.17261 1.03342 0
M  V30 4694 H 459.455 -3.20773 -0.476966 0
M  V30 4695 H 459.24 -3.72638 1.21997 0
M  V30 4696 H 460.73 -4.16285 0.331181 0
M  V30 4697 N 461.167 -1.02423 -1.1978 0
M  V30 4698 C 462.583 -0.740459 -1.41384 0
M  V30 4699 C 462.783 0.676827 -1.89793 0
M  V30 4700 O 461.839 1.4435 -2.0717 0
M  V30 4701 C 463.152 -1.77264 -2.42895 0
M  V30 4702 C 464.7 -1.79165 -2.56649 0
M  V30 4703 C 465.175 -2.8133 -3.6141 0
M  V30 4704 N 466.666 -2.80118 -3.68901 0
M  V30 4705 C 467.401 -3.55824 -4.49641 0
M  V30 4706 N 466.897 -4.41231 -5.34123 0
M  V30 4707 N 468.69 -3.44387 -4.44246 0
M  V30 4708 H 460.841 -1.9391 -0.866764 0
M  V30 4709 H 463.104 -0.838074 -0.443098 0
M  V30 4710 H 462.81 -2.7884 -2.14339 0
M  V30 4711 H 462.684 -1.59108 -3.42001 0
M  V30 4712 H 465.071 -0.782702 -2.84531 0
M  V30 4713 H 465.152 -2.01396 -1.57713 0
M  V30 4714 H 464.796 -3.82394 -3.34271 0
M  V30 4715 H 464.726 -2.56359 -4.59986 0
M  V30 4716 H 467.217 -2.1817 -3.08562 0
M  V30 4717 H 467.53 -4.95747 -5.92836 0
M  V30 4718 H 465.875 -4.45306 -5.33599 0
M  V30 4719 H 469.066 -2.7708 -3.77285 0
M  V30 4720 H 469.239 -4.0364 -5.06931 0
M  V30 4721 N 462.645 1.35699 -0.801477 0
M  V30 4722 C 463.555 2.33661 -0.209691 0
M  V30 4723 C 464.571 1.6162 0.644591 0
M  V30 4724 O 465.747 1.93529 0.557545 0
M  V30 4725 C 462.812 3.40816 0.636033 0
M  V30 4726 C 461.873 4.28639 -0.238147 0
M  V30 4727 C 461.106 5.30676 0.567307 0
M  V30 4728 O 461.329 5.41174 1.8024 0
M  V30 4729 O 460.263 6.01887 -0.0391336 0
M  V30 4730 H 464.089 2.8606 -1.01996 0
M  V30 4731 H 461.674 1.38379 -0.563164 0
M  V30 4732 H 463.556 4.06301 1.11791 0
M  V30 4733 H 462.231 2.90696 1.42399 0
M  V30 4734 H 461.138 3.66152 -0.767044 0
M  V30 4735 H 462.471 4.82143 -0.989915 0
M  V30 4736 N 464.123 0.554532 1.47522 0
M  V30 4737 C 465.053 -0.182974 2.32782 0
M  V30 4738 C 466.034 -0.911377 1.43624 0
M  V30 4739 O 467.219 -0.892366 1.72483 0
M  V30 4740 C 464.349 -1.21513 3.25349 0
M  V30 4741 C 463.303 -0.603355 4.23726 0
M  V30 4742 C 462.629 -1.73995 5.05598 0
M  V30 4743 C 463.929 0.441121 5.20434 0
M  V30 4744 H 465.623 0.52882 2.94693 0
M  V30 4745 H 463.169 0.255759 1.41711 0
M  V30 4746 H 465.122 -1.73922 3.83835 0
M  V30 4747 H 463.846 -1.95683 2.61487 0
M  V30 4748 H 462.505 -0.10059 3.66462 0
M  V30 4749 H 462.153 -2.47063 4.38143 0
M  V30 4750 H 461.853 -1.3364 5.72201 0
M  V30 4751 H 463.377 -2.26735 5.66942 0
M  V30 4752 H 464.791 0.00319931 5.733 0
M  V30 4753 H 463.188 0.763402 5.95224 0
M  V30 4754 H 464.258 1.33799 4.66075 0
M  V30 4755 N 465.601 -1.54893 0.290851 0
M  V30 4756 C 466.564 -2.21824 -0.576784 0
M  V30 4757 C 467.564 -1.20104 -1.06919 0
M  V30 4758 O 468.754 -1.44906 -0.966843 0
M  V30 4759 C 465.886 -2.89662 -1.79747 0
M  V30 4760 H 467.079 -2.99899 0.00784051 0
M  V30 4761 H 464.632 -1.56245 0.0415934 0
M  V30 4762 H 465.367 -2.15639 -2.42219 0
M  V30 4763 H 465.152 -3.64219 -1.45214 0
M  V30 4764 H 466.642 -3.4075 -2.4141 0
M  V30 4765 N 467.08 -0.0183926 -1.57589 0
M  V30 4766 C 468.357 0.700621 -1.82622 0
M  V30 4767 C 468.737 1.90951 -0.90005 0
M  V30 4768 O 468.085 2.28452 0.0469145 0
M  V30 4769 C 468.295 1.08899 -3.31575 0
M  V30 4770 C 469.643 1.48514 -3.9778 0
M  V30 4771 O 470.667 1.18227 -3.36007 0
M  V30 4772 O 469.526 2.04903 -5.06633 0
M  V30 4773 H 466.62 0.342743 -0.752633 0
M  V30 4774 H 469.166 -0.0452548 -1.6964 0
M  V30 4775 H 467.938 0.228113 -3.90635 0
M  V30 4776 H 467.561 1.89338 -3.49624 0
M  V30 4777 N 468.558 1.5553 0.254621 0
M  V30 4778 C 469.521 1.88872 1.29846 0
M  V30 4779 C 470.521 0.764591 1.41459 0
M  V30 4780 O 471.711 1.03265 1.40293 0
M  V30 4781 C 468.843 2.11032 2.67728 0
M  V30 4782 H 470.036 2.82201 1.01502 0
M  V30 4783 H 467.589 1.48303 0.493556 0
M  V30 4784 H 468.324 1.20146 3.01223 0
M  V30 4785 H 468.109 2.92895 2.60682 0
M  V30 4786 H 469.599 2.38038 3.43115 0
M  V30 4787 N 470.036 -0.519951 1.48776 0
M  V30 4788 C 471.285 -1.27175 1.56555 0
M  V30 4789 C 471.598 -1.9401 0.248869 0
M  V30 4790 O 472.804 -2.70725 0.205004 0
M  V30 4791 C 471.26 -2.30811 2.76142 0
M  V30 4792 C 470.868 -1.7 4.14493 0
M  V30 4793 C 472.612 -3.06937 2.9324 0
M  V30 4794 C 470.519 -2.71635 5.25327 0
M  V30 4795 H 469.449 -0.478329 0.582853 0
M  V30 4796 H 472.1 -0.547916 1.75129 0
M  V30 4797 H 470.482 -3.06274 2.51023 0
M  V30 4798 H 471.656 -1.00658 4.49672 0
M  V30 4799 H 469.971 -1.06331 4.02595 0
M  V30 4800 H 472.568 -3.82905 3.73213 0
M  V30 4801 H 472.911 -3.63409 2.03075 0
M  V30 4802 H 473.444 -2.38589 3.18308 0
M  V30 4803 H 470.183 -2.1997 6.1749 0
M  V30 4804 H 469.703 -3.39275 4.94624 0
M  V30 4805 H 471.382 -3.34429 5.53865 0
M  V30 4806 N 471.514 -1.37532 -0.769588 0
M  V30 4807 C 472.444 -1.36172 -1.89682 0
M  V30 4808 C 473.425 -0.23001 -1.68538 0
M  V30 4809 O 474.61 -0.43069 -1.89364 0
M  V30 4810 C 471.74 -1.1701 -3.26995 0
M  V30 4811 C 470.694 -2.27216 -3.62708 0
M  V30 4812 C 470.02 -1.93174 -4.98586 0
M  V30 4813 C 471.32 -3.6941 -3.69234 0
M  V30 4814 H 473.014 -2.30499 -1.91078 0
M  V30 4815 H 470.56 -1.10953 -0.917902 0
M  V30 4816 H 472.513 -1.14688 -4.05493 0
M  V30 4817 H 471.237 -0.191395 -3.26039 0
M  V30 4818 H 469.896 -2.28697 -2.86519 0
M  V30 4819 H 469.544 -0.938281 -4.94171 0
M  V30 4820 H 469.244 -2.66973 -5.23449 0
M  V30 4821 H 470.768 -1.92443 -5.79481 0
M  V30 4822 H 472.182 -3.70047 -4.37879 0
M  V30 4823 H 470.579 -4.4228 -4.05597 0
M  V30 4824 H 471.649 -4.0288 -2.69844 0
M  V30 4825 N 472.992 0.995999 -1.22138 0
M  V30 4826 C 474.241 1.72928 -1.03821 0
M  V30 4827 C 474.554 1.90872 0.427444 0
M  V30 4828 O 475.76 2.61496 0.730212 0
M  V30 4829 C 474.216 3.11124 -1.80913 0
M  V30 4830 C 473.824 3.01122 -3.31707 0
M  V30 4831 C 475.568 3.8852 -1.71035 0
M  V30 4832 C 473.475 4.34453 -4.01253 0
M  V30 4833 H 472.405 0.648376 -0.384869 0
M  V30 4834 H 475.056 1.11213 -1.45959 0
M  V30 4835 H 473.438 3.73503 -1.31573 0
M  V30 4836 H 474.612 2.47926 -3.88419 0
M  V30 4837 H 472.927 2.3721 -3.42228 0
M  V30 4838 H 475.524 4.872 -2.20318 0
M  V30 4839 H 475.867 4.1087 -0.670196 0
M  V30 4840 H 476.4 3.32812 -2.17902 0
M  V30 4841 H 473.139 4.17303 -5.05508 0
M  V30 4842 H 472.659 4.87574 -3.49331 0
M  V30 4843 H 474.338 5.03215 -4.06674 0
M  V30 4844 N 474.47 1.03057 1.19235 0
M  V30 4845 C 475.886 0.747947 1.40989 0
M  V30 4846 C 476.086 -0.666752 1.90149 0
M  V30 4847 O 475.142 -1.43249 2.07933 0
M  V30 4848 C 476.455 1.7855 2.41951 0
M  V30 4849 C 478.003 1.80524 2.55695 0
M  V30 4850 C 478.478 2.83243 3.59913 0
M  V30 4851 N 479.969 2.8207 3.67411 0
M  V30 4852 C 480.704 3.58204 4.47747 0
M  V30 4853 N 480.2 4.44057 5.31775 0
M  V30 4854 N 481.993 3.46738 4.42413 0
M  V30 4855 H 474.144 1.94367 0.856468 0
M  V30 4856 H 476.407 0.840412 0.438647 0
M  V30 4857 H 476.113 2.79973 2.12857 0
M  V30 4858 H 475.987 1.6092 3.41152 0
M  V30 4859 H 478.374 0.79778 2.84112 0
M  V30 4860 H 478.455 2.02229 1.56643 0
M  V30 4861 H 478.099 3.84161 3.32239 0
M  V30 4862 H 478.029 2.58795 4.5862 0
M  V30 4863 H 480.52 2.19803 3.074 0
M  V30 4864 H 480.833 4.98884 5.90199 0
M  V30 4865 H 479.178 4.48129 5.3123 0
M  V30 4866 H 482.369 2.79077 3.75811 0
M  V30 4867 H 482.542 4.06322 5.04783 0
M  V30 4868 N 475.948 -1.35272 0.808662 0
M  V30 4869 C 476.895 -2.29764 0.218482 0
M  V30 4870 C 477.865 -1.52911 -0.648652 0
M  V30 4871 O 479.05 -1.81341 -0.593297 0
M  V30 4872 C 476.19 -3.39388 -0.625282 0
M  V30 4873 C 475.303 -4.31202 0.262516 0
M  V30 4874 C 474.438 -5.27919 -0.589451 0
M  V30 4875 C 473.477 -6.11371 0.298617 0
M  V30 4876 N 472.614 -7.0022 -0.513443 0
M  V30 4877 H 477.454 -2.79645 1.02968 0
M  V30 4878 H 474.991 -1.37629 0.519303 0
M  V30 4879 H 476.949 -4.01615 -1.12966 0
M  V30 4880 H 475.579 -2.90777 -1.40173 0
M  V30 4881 H 474.631 -3.69962 0.885013 0
M  V30 4882 H 475.943 -4.89748 0.945971 0
M  V30 4883 H 475.097 -5.95529 -1.15888 0
M  V30 4884 H 473.836 -4.69875 -1.30647 0
M  V30 4885 H 472.841 -5.42707 0.880301 0
M  V30 4886 H 474.066 -6.71494 1.01352 0
M  V30 4887 H 472.012 -6.44662 -1.21439 0
M  V30 4888 H 471.929 -7.55917 0.111922 0
M  V30 4889 H 473.197 -7.72175 -1.06608 0
M  V30 4890 N 477.426 -0.562348 -1.47226 0
M  V30 4891 C 478.672 -0.0402761 -2.0276 0
M  V30 4892 C 479.005 1.30823 -1.43523 0
M  V30 4893 O 478.28 1.85249 -0.592705 0
M  V30 4894 C 478.563 0.047311 -3.60069 0
M  V30 4895 C 478.416 -1.32865 -4.29729 0
M  V30 4896 C 479.735 0.758182 -4.3352 0
M  V30 4897 H 476.854 -0.0161105 -0.736824 0
M  V30 4898 H 479.496 -0.725628 -1.75598 0
M  V30 4899 H 477.646 0.630986 -3.83342 0
M  V30 4900 H 479.318 -1.95593 -4.17781 0
M  V30 4901 H 477.561 -1.90195 -3.89882 0
M  V30 4902 H 478.232 -1.22004 -5.38349 0
M  V30 4903 H 480.708 0.262546 -4.15271 0
M  V30 4904 H 479.584 0.78844 -5.43208 0
M  V30 4905 H 479.845 1.81537 -4.03109 0
M  V30 4906 N 478.904 1.54736 -0.299062 0
M  V30 4907 C 480.181 1.92187 0.363802 0
M  V30 4908 C 480.561 1.22607 1.71845 0
M  V30 4909 O 479.909 0.361141 2.25628 0
M  V30 4910 C 480.119 3.45678 0.480377 0
M  V30 4911 C 481.467 4.17885 0.752147 0
M  V30 4912 O 482.491 3.51702 0.564264 0
M  V30 4913 O 481.35 5.35048 1.11294 0
M  V30 4914 H 478.444 0.801681 0.203066 0
M  V30 4915 H 480.99 1.66115 -0.346978 0
M  V30 4916 H 479.762 3.88443 -0.471999 0
M  V30 4917 H 479.385 3.77779 1.2397 0
M  V30 4918 N 480.382 0.0267497 1.57577 0
M  V30 4919 C 481.628 -0.647596 1.92815 0
M  V30 4920 C 481.983 -1.69872 0.903396 0
M  V30 4921 O 481.276 -1.91429 -0.0808881 0
M  V30 4922 C 481.47 -1.30914 3.3256 0
M  V30 4923 C 481.299 -0.323621 4.48534 0
M  V30 4924 C 480.069 0.0756607 5.05243 0
M  V30 4925 C 482.267 0.42112 5.12573 0
M  V30 4926 N 480.249 1.0566 6.04739 0
M  V30 4927 C 481.62 1.25589 6.07147 0
M  V30 4928 C 483.675 0.482077 4.95561 0
M  V30 4929 C 482.378 2.1461 6.86538 0
M  V30 4930 C 484.404 1.35962 5.75559 0
M  V30 4931 C 483.766 2.18217 6.69747 0
M  V30 4932 H 479.865 -0.209357 0.753454 0
M  V30 4933 H 482.449 0.0933695 1.94476 0
M  V30 4934 H 480.62 -2.02026 3.31723 0
M  V30 4935 H 482.352 -1.94033 3.55153 0
M  V30 4936 H 479.107 -0.298294 4.7266 0
M  V30 4937 H 479.531 1.54324 6.59176 0
M  V30 4938 H 484.173 -0.139609 4.22569 0
M  V30 4939 H 481.891 2.77835 7.58837 0
M  V30 4940 H 485.477 1.41105 5.6443 0
M  V30 4941 H 484.357 2.85022 7.3057 0
M  V30 4942 N 481.861 -1.55662 -0.24637 0
M  V30 4943 C 483.107 -1.77782 -0.975779 0
M  V30 4944 C 483.44 -0.592103 -1.84953 0
M  V30 4945 O 482.715 0.409588 -1.90138 0
M  V30 4946 C 482.998 -3.09788 -1.83584 0
M  V30 4947 C 482.851 -4.38764 -0.990241 0
M  V30 4948 C 484.17 -3.38029 -2.81823 0
M  V30 4949 H 481.289 -0.646789 -0.353317 0
M  V30 4950 H 483.931 -1.88398 -0.246248 0
M  V30 4951 H 482.081 -3.00869 -2.45784 0
M  V30 4952 H 483.753 -4.59675 -0.386897 0
M  V30 4953 H 481.996 -4.32798 -0.294626 0
M  V30 4954 H 482.667 -5.27514 -1.62584 0
M  V30 4955 H 485.143 -3.46915 -2.2976 0
M  V30 4956 H 484.019 -4.3161 -3.39122 0
M  V30 4957 H 484.28 -2.58968 -3.58313 0
M  V30 4958 N 483.339 0.512053 -1.4905 0
M  V30 4959 C 484.616 1.27337 -1.48474 0
M  V30 4960 C 484.996 2.1009 -0.206301 0
M  V30 4961 O 484.344 2.136 0.811609 0
M  V30 4962 C 484.554 2.13954 -2.75726 0
M  V30 4963 C 485.902 2.73507 -3.24776 0
M  V30 4964 O 486.926 2.24229 -2.76767 0
M  V30 4965 O 485.785 3.63186 -4.08361 0
M  V30 4966 H 482.879 0.575652 -0.593762 0
M  V30 4967 H 485.425 0.527232 -1.61302 0
M  V30 4968 H 484.197 1.52709 -3.60272 0
M  V30 4969 H 483.82 2.95782 -2.65705 0
M  V30 4970 N 484.817 1.37938 0.762283 0
M  V30 4971 C 485.727 1.36681 1.90671 0
M  V30 4972 C 486.743 0.265078 1.71969 0
M  V30 4973 O 487.919 0.502055 1.95042 0
M  V30 4974 C 484.984 1.18211 3.25925 0
M  V30 4975 C 484.045 2.3811 3.57214 0
M  V30 4976 C 483.278 2.20512 4.86014 0
M  V30 4977 O 483.501 1.19429 5.57757 0
M  V30 4978 O 482.435 3.08911 5.16583 0
M  V30 4979 H 486.261 2.33091 1.94685 0
M  V30 4980 H 483.846 1.18767 0.906356 0
M  V30 4981 H 485.728 1.09937 4.06807 0
M  V30 4982 H 484.403 0.248807 3.22742 0
M  V30 4983 H 483.31 2.51958 2.76529 0
M  V30 4984 H 484.643 3.30041 3.65149 0
M  V30 4985 N 486.295 -0.989507 1.22664 0
M  V30 4986 C 487.544 -1.72375 1.04737 0
M  V30 4987 C 487.857 -1.91096 -0.417316 0
M  V30 4988 O 489.063 -2.6188 -0.716334 0
M  V30 4989 C 487.519 -3.10161 1.82561 0
M  V30 4990 C 487.127 -2.99358 3.333 0
M  V30 4991 C 488.871 -3.87607 1.73093 0
M  V30 4992 C 486.778 -4.32319 4.03552 0
M  V30 4993 H 485.708 -0.646326 0.388302 0
M  V30 4994 H 488.359 -1.10437 1.46546 0
M  V30 4995 H 486.741 -3.728 1.33552 0
M  V30 4996 H 487.915 -2.45863 3.89728 0
M  V30 4997 H 486.23 -2.35392 3.43481 0
M  V30 4998 H 488.827 -4.86025 2.22899 0
M  V30 4999 H 489.17 -4.10509 0.691976 0
M  V30 5000 H 489.703 -3.31652 2.19663 0
M  V30 5001 H 486.442 -4.14616 5.07714 0
M  V30 5002 H 485.962 -4.85714 3.51911 0
M  V30 5003 H 487.641 -5.01051 4.09337 0
M  V30 5004 N 487.773 -1.03688 -1.18687 0
M  V30 5005 C 489.001 -0.757918 -1.92518 0
M  V30 5006 C 489.416 0.684398 -1.75959 0
M  V30 5007 O 488.773 1.46617 -1.08673 0
M  V30 5008 C 488.824 -1.10985 -3.44042 0
M  V30 5009 O 488.545 -2.49554 -3.60076 0
M  V30 5010 C 490.046 -0.854844 -4.3498 0
M  V30 5011 H 487.266 -0.276699 -0.611293 0
M  V30 5012 H 489.81 -1.38352 -1.50595 0
M  V30 5013 H 487.965 -0.529279 -3.83767 0
M  V30 5014 H 488.379 -2.6291 -4.53849 0
M  V30 5015 H 489.853 -1.15098 -5.39867 0
M  V30 5016 H 490.33 0.210507 -4.38695 0
M  V30 5017 H 490.936 -1.41853 -4.00946 0
M  V30 5018 N 489.251 1.34841 -0.815825 0
M  V30 5019 C 490.667 1.51543 -0.500697 0
M  V30 5020 C 490.867 1.76261 0.976444 0
M  V30 5021 O 489.923 1.8094 1.76117 0
M  V30 5022 C 491.236 2.68487 -1.35407 0
M  V30 5023 C 492.784 2.82368 -1.35046 0
M  V30 5024 C 493.259 4.02347 -2.18816 0
M  V30 5025 N 494.75 4.09542 -2.16402 0
M  V30 5026 C 495.485 5.01517 -2.77971 0
M  V30 5027 N 494.981 5.98763 -3.48503 0
M  V30 5028 N 496.774 4.94334 -2.67563 0
M  V30 5029 H 488.925 1.17055 -1.77234 0
M  V30 5030 H 491.188 0.573481 -0.754866 0
M  V30 5031 H 490.894 2.56829 -2.40274 0
M  V30 5032 H 490.768 3.63321 -1.01377 0
M  V30 5033 H 493.155 2.93471 -0.309604 0
M  V30 5034 H 493.236 1.88363 -1.73069 0
M  V30 5035 H 492.88 3.92004 -3.22948 0
M  V30 5036 H 492.81 4.95551 -1.78148 0
M  V30 5037 H 495.301 3.39932 -1.65091 0
M  V30 5038 H 495.614 6.6556 -3.92747 0
M  V30 5039 H 493.959 5.98909 -3.52609 0
M  V30 5040 H 497.15 4.1732 -2.12041 0
M  V30 5041 H 497.323 5.6582 -3.15834 0
M  V30 5042 N 490.729 0.570148 1.46925 0
M  V30 5043 C 491.975 0.0510284 2.02736 0
M  V30 5044 C 492.308 -1.3006 1.44215 0
M  V30 5045 O 491.583 -1.84932 0.602521 0
M  V30 5046 C 491.866 -0.028215 3.60089 0
M  V30 5047 C 491.719 1.35142 4.29018 0
M  V30 5048 C 493.038 -0.735181 4.33916 0
M  V30 5049 H 490.157 0.0200178 0.736728 0
M  V30 5050 H 492.799 0.73493 1.75211 0
M  V30 5051 H 490.949 -0.610648 3.83671 0
M  V30 5052 H 492.621 1.97806 4.16738 0
M  V30 5053 H 490.864 1.9226 3.88868 0
M  V30 5054 H 491.535 1.24857 5.37694 0
M  V30 5055 H 494.011 -0.240519 4.15404 0
M  V30 5056 H 492.887 -0.759622 5.43618 0
M  V30 5057 H 493.148 -1.79397 4.04066 0
M  V30 5058 N 492.207 -1.54576 0.307264 0
M  V30 5059 C 493.157 -2.20467 -0.581249 0
M  V30 5060 C 494.141 -1.17972 -1.09414 0
M  V30 5061 O 495.333 -1.43667 -1.03387 0
M  V30 5062 C 492.462 -2.95369 -1.74963 0
M  V30 5063 C 491.548 -4.05186 -1.25241 0
M  V30 5064 N 491.939 -5.03577 -0.47364 0
M  V30 5065 C 490.237 -4.18841 -1.53259 0
M  V30 5066 C 490.938 -5.81328 -0.208083 0
M  V30 5067 N 489.914 -5.37834 -0.789651 0
M  V30 5068 H 493.716 -2.93892 0.0212221 0
M  V30 5069 H 491.23 -1.62011 0.112325 0
M  V30 5070 H 493.227 -3.41046 -2.39777 0
M  V30 5071 H 491.887 -2.23461 -2.35574 0
M  V30 5072 H 492.898 -5.17766 -0.117963 0
M  V30 5073 H 489.575 -3.58141 -2.14573 0
M  V30 5074 H 490.965 -6.706 0.417793 0
M  V30 5075 N 493.685 -0.035106 -1.57561 0
M  V30 5076 C 494.648 0.929819 -2.09492 0
M  V30 5077 C 495.648 1.25026 -1.01119 0
M  V30 5078 O 496.838 1.18961 -1.27255 0
M  V30 5079 C 493.97 2.24457 -2.56577 0
M  V30 5080 H 495.163 0.479935 -2.96035 0
M  V30 5081 H 492.716 0.213033 -1.54841 0
M  V30 5082 H 493.451 2.74061 -1.73382 0
M  V30 5083 H 493.236 2.02508 -3.35757 0
M  V30 5084 H 494.726 2.93607 -2.96959 0
M  V30 5085 N 495.163 1.55791 0.238111 0
M  V30 5086 C 496.126 1.90239 1.27835 0
M  V30 5087 C 497.126 0.779552 1.4064 0
M  V30 5088 O 498.316 1.04747 1.3919 0
M  V30 5089 C 495.448 2.13859 2.65475 0
M  V30 5090 H 496.641 2.83262 0.985034 0
M  V30 5091 H 494.194 1.48818 0.477799 0
M  V30 5092 H 494.929 1.23334 2.99932 0
M  V30 5093 H 494.714 2.95643 2.57561 0
M  V30 5094 H 496.204 2.41664 3.40571 0
M  V30 5095 N 496.642 -0.504142 1.49319 0
M  V30 5096 C 497.89 -1.25598 1.58334 0
M  V30 5097 C 498.211 -1.93114 0.270538 0
M  V30 5098 O 497.481 -1.82585 -0.709891 0
M  V30 5099 H 496.061 -0.466571 0.58337 0
M  V30 5100 H 498.723 -0.584547 1.85928 0
M  V30 5101 H 497.819 -2.02159 2.37778 0
M  V30 5102 N 498.12 -1.38341 -0.754957 0
M  V30 5103 C 499.083 -1.35262 -1.85032 0
M  V30 5104 C 500.083 -0.253393 -1.58791 0
M  V30 5105 O 501.273 -0.510205 -1.66561 0
M  V30 5106 C 498.405 -1.10544 -3.22479 0
M  V30 5107 H 499.598 -2.32712 -1.8917 0
M  V30 5108 H 497.151 -1.23614 -0.956515 0
M  V30 5109 H 497.886 -0.136952 -3.24011 0
M  V30 5110 H 497.671 -1.90127 -3.4292 0
M  V30 5111 H 499.161 -1.11082 -4.02555 0
M  V30 5112 N 499.598 0.982988 -1.23187 0
M  V30 5113 C 501.014 1.2487 -0.993967 0
M  V30 5114 C 501.214 1.99155 0.306498 0
M  V30 5115 O 500.27 2.30688 1.0266 0
M  V30 5116 C 501.583 2.05078 -2.19917 0
M  V30 5117 C 503.131 2.18227 -2.2438 0
M  V30 5118 C 503.606 3.01825 -3.44479 0
M  V30 5119 N 505.097 3.09411 -3.44702 0
M  V30 5120 C 505.832 3.74412 -4.34285 0
M  V30 5121 N 505.328 4.41259 -5.341 0
M  V30 5122 N 507.121 3.71273 -4.22035 0
M  V30 5123 H 499.272 0.485253 -2.06783 0
M  V30 5124 H 501.535 0.276979 -0.906635 0
M  V30 5125 H 501.241 1.57867 -3.14279 0
M  V30 5126 H 501.115 3.05829 -2.2079 0
M  V30 5127 H 503.502 2.64648 -1.30559 0
M  V30 5128 H 503.583 1.16873 -2.2754 0
M  V30 5129 H 503.227 2.56102 -4.38605 0
M  V30 5130 H 503.157 4.03342 -3.38559 0
M  V30 5131 H 505.648 2.61845 -2.7248 0
M  V30 5132 H 505.961 4.88629 -5.98717 0
M  V30 5133 H 504.306 4.39975 -5.38002 0
M  V30 5134 H 507.497 3.18217 -3.43301 0
M  V30 5135 H 507.67 4.21649 -4.92053 0
M  V30 5136 N 501.076 1.04316 1.18135 0
M  V30 5137 C 502.322 0.758899 1.88712 0
M  V30 5138 C 502.677 -0.705863 1.78984 0
M  V30 5139 O 501.97 -1.50874 1.18101 0
M  V30 5140 C 502.164 1.16271 3.37958 0
M  V30 5141 C 501.993 2.66518 3.62213 0
M  V30 5142 C 500.763 3.33702 3.79436 0
M  V30 5143 C 502.961 3.64739 3.62588 0
M  V30 5144 N 500.943 4.72904 3.91452 0
M  V30 5145 C 502.314 4.89627 3.80348 0
M  V30 5146 C 504.369 3.58333 3.4569 0
M  V30 5147 C 503.072 6.08879 3.8296 0
M  V30 5148 C 505.098 4.77016 3.49586 0
M  V30 5149 C 504.46 6.00724 3.67845 0
M  V30 5150 H 500.559 0.329795 0.709055 0
M  V30 5151 H 503.143 1.33334 1.4188 0
M  V30 5152 H 501.314 0.616319 3.83479 0
M  V30 5153 H 503.046 0.829205 3.96114 0
M  V30 5154 H 499.801 2.84105 3.78921 0
M  V30 5155 H 500.225 5.45258 4.01277 0
M  V30 5156 H 504.867 2.63663 3.30517 0
M  V30 5157 H 502.585 7.03903 3.96921 0
M  V30 5158 H 506.171 4.73703 3.37782 0
M  V30 5159 H 505.051 6.91022 3.70753 0
M  V30 5160 N 502.554 -1.34406 0.822964 0
M  V30 5161 C 503.803 -1.97542 0.407458 0
M  V30 5162 C 504.116 -1.65973 -1.035 0
M  V30 5163 O 505.322 -2.22598 -1.55442 0
M  V30 5164 C 503.778 -3.53463 0.677623 0
M  V30 5165 C 503.386 -3.93925 2.1337 0
M  V30 5166 C 505.13 -4.23229 0.328284 0
M  V30 5167 C 503.037 -5.42759 2.34876 0
M  V30 5168 H 501.967 -0.739207 0.148623 0
M  V30 5169 H 504.618 -1.53248 1.00932 0
M  V30 5170 H 503 -3.96 0.00558965 0
M  V30 5171 H 504.174 -3.62494 2.8449 0
M  V30 5172 H 502.489 -3.37097 2.44448 0
M  V30 5173 H 505.086 -5.32659 0.466794 0
M  V30 5174 H 505.429 -4.09899 -0.727224 0
M  V30 5175 H 505.962 -3.86169 0.954896 0
M  V30 5176 H 502.701 -5.61075 3.38932 0
M  V30 5177 H 502.221 -5.75704 1.68299 0
M  V30 5178 H 503.9 -6.0944 2.17236 0
M  V30 5179 N 504.032 -0.577932 -1.46621 0
M  V30 5180 C 504.962 0.145917 -2.33044 0
M  V30 5181 C 505.943 0.888412 -1.45056 0
M  V30 5182 O 507.128 0.864812 -1.73881 0
M  V30 5183 C 504.258 1.16322 -3.27241 0
M  V30 5184 C 503.212 0.535868 -4.24632 0
M  V30 5185 C 502.538 1.65929 -5.08303 0
M  V30 5186 C 503.838 -0.523861 -5.19666 0
M  V30 5187 H 505.532 -0.575636 -2.93814 0
M  V30 5188 H 503.078 -0.278272 -1.41286 0
M  V30 5189 H 505.031 1.67793 -3.86553 0
M  V30 5190 H 503.755 1.91498 -2.64567 0
M  V30 5191 H 502.414 0.0422759 -3.66576 0
M  V30 5192 H 502.062 2.40061 -4.42018 0
M  V30 5193 H 501.762 1.2452 -5.74255 0
M  V30 5194 H 503.286 2.17686 -5.70478 0
M  V30 5195 H 504.7 -0.0944059 -5.73222 0
M  V30 5196 H 503.097 -0.858 -5.93935 0
M  V30 5197 H 504.167 -1.41197 -4.63887 0
M  V30 5198 N 505.51 1.54411 -0.315457 0
M  V30 5199 C 506.787 1.92562 0.343398 0
M  V30 5200 C 507.167 1.24423 1.70535 0
M  V30 5201 O 506.515 0.385051 2.25232 0
M  V30 5202 C 506.725 3.46168 0.443687 0
M  V30 5203 C 508.073 4.18659 0.707783 0
M  V30 5204 O 509.097 3.52281 0.52693 0
M  V30 5205 O 507.956 5.36198 1.05612 0
M  V30 5206 H 505.05 0.80379 0.194552 0
M  V30 5207 H 507.596 1.65738 -0.364577 0
M  V30 5208 H 506.368 3.8792 -0.513172 0
M  V30 5209 H 505.991 3.79073 1.19956 0
M  V30 5210 N 506.988 0.0434614 1.5754 0
M  V30 5211 C 507.918 -0.931651 2.14109 0
M  V30 5212 C 508.899 -1.32971 1.06079 0
M  V30 5213 O 510.084 -1.40579 1.33982 0
M  V30 5214 C 507.214 -2.20914 2.67982 0
M  V30 5215 C 506.168 -1.95139 3.80926 0
M  V30 5216 C 505.494 -3.29276 4.21285 0
M  V30 5217 C 506.794 -1.27913 5.06395 0
M  V30 5218 H 508.488 -0.460497 2.95837 0
M  V30 5219 H 506.034 -0.220058 1.42309 0
M  V30 5220 H 507.987 -2.89522 3.06194 0
M  V30 5221 H 506.711 -2.70221 1.83434 0
M  V30 5222 H 505.37 -1.28945 3.43175 0
M  V30 5223 H 505.018 -3.76369 3.33699 0
M  V30 5224 H 504.718 -3.12831 4.97404 0
M  V30 5225 H 506.242 -3.99129 4.62091 0
M  V30 5226 H 507.656 -1.86544 5.42102 0
M  V30 5227 H 506.053 -1.2182 5.87605 0
M  V30 5228 H 507.123 -0.254066 4.84234 0
M  V30 5229 N 508.466 -1.55915 -0.229846 0
M  V30 5230 C 509.714 -1.7819 -0.953565 0
M  V30 5231 C 510.035 -0.610504 -1.85197 0
M  V30 5232 O 509.305 0.372988 -1.92316 0
M  V30 5233 H 507.885 -0.657208 -0.355087 0
M  V30 5234 H 510.547 -1.9337 -0.243693 0
M  V30 5235 H 509.643 -2.70011 -1.56527 0
M  V30 5236 N 509.944 0.496216 -1.49584 0
M  V30 5237 C 511.355 1.07765 -1.52459 0
M  V30 5238 C 511.706 1.93679 -0.31353 0
M  V30 5239 O 510.831 2.08588 0.576186 0
M  V30 5240 C 511.426 1.96111 -2.76271 0
M  V30 5241 C 509.985 2.49409 -2.81908 0
M  V30 5242 C 509.132 1.27142 -2.46435 0
M  V30 5243 H 512.083 0.279914 -1.56212 0
M  V30 5244 H 512.104 2.80862 -2.56704 0
M  V30 5245 H 511.616 1.33555 -3.64396 0
M  V30 5246 H 509.717 3.1559 -1.98074 0
M  V30 5247 H 509.83 2.86234 -3.84196 0
M  V30 5248 H 508.194 1.59818 -1.98319 0
M  V30 5249 H 508.977 0.662866 -3.3684 0
M  V30 5250 N 511.423 1.38739 0.74761 0
M  V30 5251 C 512.671 1.35007 1.50391 0
M  V30 5252 C 512.992 -0.0574274 1.94915 0
M  V30 5253 O 512.262 -1.00628 1.6808 0
M  V30 5254 H 510.842 0.496784 0.557866 0
M  V30 5255 H 513.504 1.73479 0.888319 0
M  V30 5256 H 512.6 2.00474 2.392 0
M  V30 5257 N 512.901 -0.976442 1.23707 0
M  V30 5258 C 514.178 -1.69296 0.979699 0
M  V30 5259 C 514.558 -2.0508 -0.500555 0
M  V30 5260 O 513.906 -1.74708 -1.47273 0
M  V30 5261 C 514.116 -2.93143 1.89389 0
M  V30 5262 C 515.464 -3.65572 2.15968 0
M  V30 5263 O 516.488 -3.03184 1.86971 0
M  V30 5264 O 515.347 -4.77859 2.65167 0
M  V30 5265 H 512.441 -0.739708 0.369812 0
M  V30 5266 H 514.987 -1.03131 1.34767 0
M  V30 5267 H 513.759 -2.63327 2.89439 0
M  V30 5268 H 513.382 -3.67044 1.52854 0
M  V30 5269 N 514.379 -1.04941 -1.1758 0
M  V30 5270 C 515.628 -0.753124 -1.87112 0
M  V30 5271 C 515.941 0.722507 -1.81767 0
M  V30 5272 O 517.147 1.13265 -2.46746 0
M  V30 5273 C 515.603 -1.29695 -3.35719 0
M  V30 5274 C 515.211 -2.80184 -3.49572 0
M  V30 5275 C 516.955 -1.07759 -4.10595 0
M  V30 5276 C 514.862 -3.2788 -4.92187 0
M  V30 5277 H 513.792 -0.278034 -0.700866 0
M  V30 5278 H 516.443 -1.26637 -1.32798 0
M  V30 5279 H 514.825 -0.711522 -3.89555 0
M  V30 5280 H 515.999 -3.44561 -3.05965 0
M  V30 5281 H 514.314 -3.00632 -2.88113 0
M  V30 5282 H 516.911 -1.40899 -5.15802 0
M  V30 5283 H 517.254 -0.0152302 -4.16297 0
M  V30 5284 H 517.787 -1.62809 -3.62957 0
M  V30 5285 H 514.526 -4.33535 -4.91658 0
M  V30 5286 H 514.046 -2.68245 -5.36475 0
M  V30 5287 H 515.725 -3.22412 -5.60945 0
M  V30 5288 N 515.857 1.33968 -0.830081 0
M  V30 5289 C 516.787 2.31911 -0.271911 0
M  V30 5290 C 517.768 1.58571 0.61556 0
M  V30 5291 O 518.953 1.86514 0.540946 0
M  V30 5292 C 516.083 3.42737 0.561146 0
M  V30 5293 C 515.037 4.27383 -0.229789 0
M  V30 5294 C 514.363 5.29742 0.726463 0
M  V30 5295 C 515.663 5.02 -1.44197 0
M  V30 5296 H 517.357 2.78844 -1.09025 0
M  V30 5297 H 514.903 1.34061 -0.52571 0
M  V30 5298 H 516.856 4.10276 0.961867 0
M  V30 5299 H 515.58 2.94471 1.41261 0
M  V30 5300 H 514.239 3.61456 -0.611964 0
M  V30 5301 H 513.887 4.77736 1.57408 0
M  V30 5302 H 513.587 5.87255 0.20142 0
M  V30 5303 H 515.111 6.00149 1.12489 0
M  V30 5304 H 516.525 5.62355 -1.11488 0
M  V30 5305 H 514.922 5.69122 -1.90317 0
M  V30 5306 H 515.992 4.31281 -2.2164 0
M  V30 5307 N 517.335 0.585699 1.46312 0
M  V30 5308 C 518.563 0.0781299 2.06752 0
M  V30 5309 C 518.978 -1.22812 1.43396 0
M  V30 5310 O 518.335 -1.74318 0.540314 0
M  V30 5311 C 518.386 -0.0911927 3.61385 0
M  V30 5312 O 518.107 1.16336 4.22371 0
M  V30 5313 C 519.608 -0.632765 4.38761 0
M  V30 5314 H 516.828 0.0588188 0.668417 0
M  V30 5315 H 519.372 0.807218 1.87894 0
M  V30 5316 H 517.527 -0.770514 3.7966 0
M  V30 5317 H 517.941 0.979082 5.15281 0
M  V30 5318 H 519.415 -0.70041 5.47538 0
M  V30 5319 H 519.892 -1.65039 4.07012 0
M  V30 5320 H 520.498 0.0117856 4.25298 0
M  V30 5321 N 518.813 -1.54241 0.323641 0
M  V30 5322 C 520.229 -1.59574 -0.0290018 0
M  V30 5323 C 520.429 -1.34017 -1.50472 0
M  V30 5324 O 519.485 -1.12464 -2.26071 0
M  V30 5325 C 520.798 -2.98169 0.389295 0
M  V30 5326 C 522.346 -3.11148 0.339958 0
M  V30 5327 C 522.821 -4.5209 0.733418 0
M  V30 5328 N 524.312 -4.5808 0.686827 0
M  V30 5329 C 525.047 -5.65248 0.963464 0
M  V30 5330 N 524.543 -6.80355 1.30724 0
M  V30 5331 N 526.336 -5.55025 0.88902 0
M  V30 5332 H 518.487 -1.6911 1.28512 0
M  V30 5333 H 520.75 -0.790972 0.522558 0
M  V30 5334 H 520.456 -3.21871 1.41746 0
M  V30 5335 H 520.33 -3.76399 -0.245657 0
M  V30 5336 H 522.717 -2.87182 -0.679002 0
M  V30 5337 H 522.798 -2.35023 1.00985 0
M  V30 5338 H 522.442 -4.76788 1.75029 0
M  V30 5339 H 522.372 -5.26584 0.0412189 0
M  V30 5340 H 524.863 -3.75411 0.43298 0
M  V30 5341 H 525.176 -7.58029 1.5037 0
M  V30 5342 H 523.521 -6.81851 1.3455 0
M  V30 5343 H 526.712 -4.63977 0.619939 0
M  V30 5344 H 526.885 -6.38458 1.10797 0
M  V30 5345 N 520.291 -0.0518155 -1.57515 0
M  V30 5346 C 521.221 0.920283 -2.146 0
M  V30 5347 C 522.202 1.32406 -1.06783 0
M  V30 5348 O 523.387 1.39866 -1.34726 0
M  V30 5349 C 520.517 2.1949 -2.6915 0
M  V30 5350 C 519.471 1.93116 -3.81956 0
M  V30 5351 C 518.797 3.27037 -4.23026 0
M  V30 5352 C 520.097 1.25225 -5.07066 0
M  V30 5353 H 521.791 0.444801 -2.96077 0
M  V30 5354 H 519.337 0.212508 -1.42423 0
M  V30 5355 H 521.29 2.87894 -3.07725 0
M  V30 5356 H 520.014 2.69244 -1.84865 0
M  V30 5357 H 518.673 1.27123 -3.43854 0
M  V30 5358 H 518.321 3.74595 -3.3569 0
M  V30 5359 H 518.021 3.10189 -4.99056 0
M  V30 5360 H 519.545 3.96673 -4.64202 0
M  V30 5361 H 520.959 1.83666 -5.43083 0
M  V30 5362 H 519.356 1.18702 -5.88243 0
M  V30 5363 H 520.426 0.228382 -4.84362 0
M  V30 5364 N 521.769 1.56035 0.221574 0
M  V30 5365 C 522.997 1.8313 0.962864 0
M  V30 5366 C 523.412 0.630934 1.77946 0
M  V30 5367 O 522.769 -0.400519 1.78051 0
M  V30 5368 C 522.82 3.08742 1.88045 0
M  V30 5369 O 522.541 4.24147 1.09686 0
M  V30 5370 C 524.042 3.48824 2.73563 0
M  V30 5371 H 521.262 0.608775 0.282194 0
M  V30 5372 H 523.806 2.03124 0.23681 0
M  V30 5373 H 521.961 2.90723 2.56045 0
M  V30 5374 H 522.375 4.95505 1.71974 0
M  V30 5375 H 523.849 4.39752 3.3365 0
M  V30 5376 H 524.326 2.70575 3.45956 0
M  V30 5377 H 524.932 3.69282 2.10976 0
M  V30 5378 N 523.247 -0.488276 1.49845 0
M  V30 5379 C 524.21 -1.57069 1.66919 0
M  V30 5380 C 525.21 -1.51445 0.540479 0
M  V30 5381 O 526.4 -1.5437 0.807188 0
M  V30 5382 C 523.532 -2.96718 1.67844 0
M  V30 5383 H 524.725 -1.43254 2.63474 0
M  V30 5384 H 522.278 -0.713435 1.39068 0
M  V30 5385 H 523.013 -3.15996 0.7292 0
M  V30 5386 H 522.798 -3.02208 2.49826 0
M  V30 5387 H 524.288 -3.75335 1.83066 0
M  V30 5388 N 524.725 -1.39134 -0.740242 0
M  V30 5389 C 526.136 -1.32208 -1.31825 0
M  V30 5390 C 526.487 0.0159919 -1.96193 0
M  V30 5391 O 525.612 0.918111 -1.95958 0
M  V30 5392 C 526.207 -2.39436 -2.39699 0
M  V30 5393 C 524.766 -2.36048 -2.93187 0
M  V30 5394 C 523.913 -2.21599 -1.66701 0
M  V30 5395 H 526.864 -1.49298 -0.538133 0
M  V30 5396 H 526.885 -2.05922 -3.19963 0
M  V30 5397 H 526.397 -3.36811 -1.92821 0
M  V30 5398 H 524.498 -1.42295 -3.44359 0
M  V30 5399 H 524.611 -3.30704 -3.46658 0
M  V30 5400 H 522.975 -1.68681 -1.90837 0
M  V30 5401 H 523.758 -3.20936 -1.21882 0
M  V30 5402 N 526.204 0.969867 -1.24223 0
M  V30 5403 C 527.45 1.7151 -1.08223 0
M  V30 5404 C 527.783 1.90478 0.37838 0
M  V30 5405 O 527.058 1.4647 1.27971 0
M  V30 5406 C 527.341 3.10714 -1.82013 0
M  V30 5407 C 527.194 2.9925 -3.35811 0
M  V30 5408 C 528.513 4.10332 -1.59108 0
M  V30 5409 H 525.632 0.622499 -0.394543 0
M  V30 5410 H 528.274 1.1284 -1.52863 0
M  V30 5411 H 526.424 3.608 -1.44068 0
M  V30 5412 H 528.096 2.56608 -3.83341 0
M  V30 5413 H 526.339 2.35512 -3.64303 0
M  V30 5414 H 527.01 3.97857 -3.82641 0
M  V30 5415 H 529.486 3.69097 -1.92111 0
M  V30 5416 H 528.362 5.05804 -2.13198 0
M  V30 5417 H 528.623 4.38926 -0.528832 0
M  V30 5418 N 527.682 1.05563 1.17022 0
M  V30 5419 C 528.931 0.763036 1.8671 0
M  V30 5420 C 529.244 -0.712857 1.82147 0
M  V30 5421 O 530.45 -1.11955 2.47343 0
M  V30 5422 C 528.906 1.31474 3.35026 0
M  V30 5423 C 528.514 2.82034 3.48081 0
M  V30 5424 C 530.258 1.09935 4.10018 0
M  V30 5425 C 528.165 3.30486 4.90442 0
M  V30 5426 H 527.095 0.281747 0.699382 0
M  V30 5427 H 529.746 1.2734 1.32124 0
M  V30 5428 H 528.128 0.732171 3.89173 0
M  V30 5429 H 529.302 3.46178 3.04133 0
M  V30 5430 H 527.617 3.02156 2.86515 0
M  V30 5431 H 530.214 1.43632 5.15048 0
M  V30 5432 H 530.557 0.0373072 4.16283 0
M  V30 5433 H 531.09 1.64732 3.62089 0
M  V30 5434 H 527.829 4.36137 4.89352 0
M  V30 5435 H 527.349 2.71086 5.35044 0
M  V30 5436 H 529.028 3.25382 5.59227 0
M  V30 5437 N 529.16 -1.33526 0.837174 0
M  V30 5438 C 530.576 -1.50727 0.524743 0
M  V30 5439 C 530.776 -1.77792 -0.948279 0
M  V30 5440 O 529.832 -1.83719 -1.73216 0
M  V30 5441 C 531.145 -2.66299 1.39661 0
M  V30 5442 C 532.693 -2.80183 1.39521 0
M  V30 5443 C 533.168 -3.98815 2.25189 0
M  V30 5444 N 534.659 -4.06047 2.2289 0
M  V30 5445 C 535.394 -4.97032 2.85915 0
M  V30 5446 N 534.89 -5.93143 3.57985 0
M  V30 5447 N 536.683 -4.90015 2.75394 0
M  V30 5448 H 528.834 -1.1422 1.79074 0
M  V30 5449 H 531.097 -0.561399 0.763894 0
M  V30 5450 H 530.803 -2.52974 2.4433 0
M  V30 5451 H 530.677 -3.61663 1.07145 0
M  V30 5452 H 533.064 -2.92942 0.356253 0
M  V30 5453 H 533.145 -1.85586 1.76044 0
M  V30 5454 H 532.789 -3.86817 3.29143 0
M  V30 5455 H 532.719 -4.92654 1.86009 0
M  V30 5456 H 535.21 -3.37262 1.70478 0
M  V30 5457 H 535.523 -6.59227 4.03286 0
M  V30 5458 H 533.868 -5.93223 3.62093 0
M  V30 5459 H 537.059 -4.13894 2.18654 0
M  V30 5460 H 537.232 -5.60724 3.24796 0
M  V30 5461 N 530.638 -0.59345 -1.46 0
M  V30 5462 C 531.886 -0.082988 -2.0193 0
M  V30 5463 C 532.207 1.28569 -1.46612 0
M  V30 5464 O 531.477 1.84629 -0.654909 0
M  V30 5465 H 530.057 -0.0276882 -0.746487 0
M  V30 5466 H 532.719 -0.771657 -1.78973 0
M  V30 5467 H 531.815 -0.022079 -3.12092 0
M  V30 5468 N 532.116 1.54067 -0.331816 0
M  V30 5469 C 533.046 2.27569 0.522932 0
M  V30 5470 C 534.027 1.28679 1.11247 0
M  V30 5471 O 535.212 1.57504 1.13605 0
M  V30 5472 C 532.342 3.0397 1.67987 0
M  V30 5473 C 531.296 4.10267 1.21924 0
M  V30 5474 C 530.622 4.74555 2.46377 0
M  V30 5475 C 531.922 5.21268 0.32815 0
M  V30 5476 H 533.616 2.99264 -0.0901977 0
M  V30 5477 H 531.162 1.4393 -0.044821 0
M  V30 5478 H 533.115 3.54123 2.28418 0
M  V30 5479 H 531.839 2.29906 2.31971 0
M  V30 5480 H 530.498 3.61009 0.637809 0
M  V30 5481 H 530.146 3.97098 3.08743 0
M  V30 5482 H 529.846 5.46363 2.16243 0
M  V30 5483 H 531.37 5.27487 3.07555 0
M  V30 5484 H 532.784 5.67128 0.838978 0
M  V30 5485 H 531.181 5.99982 0.119228 0
M  V30 5486 H 532.251 4.80673 -0.638839 0
M  V30 5487 N 533.594 0.0601682 1.57485 0
M  V30 5488 C 534.842 -0.610386 1.92662 0
M  V30 5489 C 535.163 -1.70849 0.939981 0
M  V30 5490 O 534.433 -1.95895 -0.0137455 0
M  V30 5491 H 533.013 -0.228457 0.711208 0
M  V30 5492 H 535.675 0.115288 1.94559 0
M  V30 5493 H 534.771 -1.0432 2.94149 0
M  V30 5494 N 535.072 -1.5615 -0.213296 0
M  V30 5495 C 536.321 -1.78743 -0.93455 0
M  V30 5496 C 536.634 -0.630199 -1.8517 0
M  V30 5497 O 537.84 -0.739966 -2.61222 0
M  V30 5498 C 536.296 -3.16571 -1.71203 0
M  V30 5499 C 535.904 -4.40043 -0.840617 0
M  V30 5500 C 537.648 -3.48485 -2.42401 0
M  V30 5501 C 535.555 -5.68895 -1.61592 0
M  V30 5502 H 534.485 -0.666426 -0.352692 0
M  V30 5503 H 537.136 -1.82532 -0.188227 0
M  V30 5504 H 535.518 -3.06981 -2.50157 0
M  V30 5505 H 536.692 -4.6071 -0.0910326 0
M  V30 5506 H 535.007 -4.15706 -0.240365 0
M  V30 5507 H 537.604 -4.41983 -3.00924 0
M  V30 5508 H 537.947 -2.71371 -3.15695 0
M  V30 5509 H 538.48 -3.59442 -1.7043 0
M  V30 5510 H 535.219 -6.48925 -0.926106 0
M  V30 5511 H 534.739 -5.52275 -2.33991 0
M  V30 5512 H 536.418 -6.09365 -2.17447 0
M  V30 5513 N 536.55 0.480323 -1.50102 0
M  V30 5514 C 537.798 1.23063 -1.60312 0
M  V30 5515 C 538.119 1.92659 -0.301226 0
M  V30 5516 O 537.389 1.83691 0.680753 0
M  V30 5517 H 535.969 0.457231 -0.590719 0
M  V30 5518 H 538.631 0.554893 -1.86834 0
M  V30 5519 H 537.727 1.9835 -2.40964 0
M  V30 5520 N 538.028 1.39524 0.732853 0
M  V30 5521 C 539.277 1.36175 1.48792 0
M  V30 5522 C 539.59 -0.0388195 1.95561 0
M  V30 5523 O 540.796 -0.194899 2.708 0
M  V30 5524 C 539.252 2.39242 2.68871 0
M  V30 5525 C 538.86 3.85024 2.29042 0
M  V30 5526 C 540.604 2.44972 3.46683 0
M  V30 5527 C 538.511 4.79727 3.45856 0
M  V30 5528 H 537.441 0.506267 0.558757 0
M  V30 5529 H 540.092 1.65181 0.799226 0
M  V30 5530 H 538.474 2.0331 3.39825 0
M  V30 5531 H 539.648 4.30008 1.6562 0
M  V30 5532 H 537.963 3.82609 1.64316 0
M  V30 5533 H 540.56 3.12918 4.33574 0
M  V30 5534 H 540.903 1.4749 3.89297 0
M  V30 5535 H 541.436 2.79808 2.82759 0
M  V30 5536 H 538.175 5.78479 3.08289 0
M  V30 5537 H 537.695 4.39421 4.08251 0
M  V30 5538 H 539.374 4.98731 4.12161 0
M  V30 5539 N 539.506 -0.963266 1.24736 0
M  V30 5540 C 540.752 -1.70933 1.09131 0
M  V30 5541 C 541.085 -1.90676 -0.368273 0
M  V30 5542 O 540.36 -1.47147 -1.27193 0
M  V30 5543 C 540.643 -3.09744 1.83658 0
M  V30 5544 C 540.496 -2.97465 3.37394 0
M  V30 5545 C 541.815 -4.09483 1.61282 0
M  V30 5546 H 538.934 -0.620398 0.397838 0
M  V30 5547 H 541.576 -1.12028 1.53459 0
M  V30 5548 H 539.726 -3.60031 1.4598 0
M  V30 5549 H 541.398 -2.54571 3.84696 0
M  V30 5550 H 539.641 -2.33576 3.65547 0
M  V30 5551 H 540.312 -3.95822 3.84745 0
M  V30 5552 H 542.788 -3.68073 1.94066 0
M  V30 5553 H 541.664 -5.04666 2.15878 0
M  V30 5554 H 541.925 -4.38639 0.552102 0
M  V30 5555 N 540.985 -1.06182 -1.16461 0
M  V30 5556 C 542.396 -0.802426 -1.68576 0
M  V30 5557 C 542.747 0.67412 -1.84255 0
M  V30 5558 O 541.872 1.52303 -1.5373 0
M  V30 5559 C 542.467 -1.45002 -3.06202 0
M  V30 5560 C 541.026 -1.23843 -3.55443 0
M  V30 5561 C 540.173 -1.52724 -2.31454 0
M  V30 5562 H 543.124 -1.22545 -1.00839 0
M  V30 5563 H 543.145 -0.864731 -3.70544 0
M  V30 5564 H 542.657 -2.52466 -2.94759 0
M  V30 5565 H 540.758 -0.183487 -3.72148 0
M  V30 5566 H 540.871 -1.95036 -4.37604 0
M  V30 5567 H 539.235 -0.947726 -2.36411 0
M  V30 5568 H 540.018 -2.61343 -2.22609 0
M  V30 5569 N 542.463 1.3308 -0.844243 0
M  V30 5570 C 543.426 2.27403 -0.286485 0
M  V30 5571 C 544.426 1.51179 0.547872 0
M  V30 5572 O 545.616 1.70421 0.360886 0
M  V30 5573 C 542.748 3.35653 0.595813 0
M  V30 5574 H 543.941 2.78248 -1.11885 0
M  V30 5575 H 541.494 1.43574 -0.617749 0
M  V30 5576 H 542.229 2.90058 1.4504 0
M  V30 5577 H 542.014 3.921 -0.00125994 0
M  V30 5578 H 543.504 4.05958 0.979168 0
M  V30 5579 N 543.941 0.601185 1.45683 0
M  V30 5580 C 544.904 -0.111398 2.28929 0
M  V30 5581 C 545.904 -0.801246 1.39416 0
M  V30 5582 O 547.094 -0.650383 1.61603 0
M  V30 5583 C 544.226 -1.16773 3.20276 0
M  V30 5584 H 545.419 0.620412 2.93413 0
M  V30 5585 H 542.972 0.359946 1.52099 0
M  V30 5586 H 543.707 -1.93051 2.60579 0
M  V30 5587 H 543.492 -0.677358 3.86205 0
M  V30 5588 H 544.982 -1.66698 3.82886 0
M  V30 5589 N 545.419 -1.53889 0.339982 0
M  V30 5590 C 546.647 -2.05271 -0.259114 0
M  V30 5591 C 547.062 -1.21517 -1.44496 0
M  V30 5592 O 546.419 -0.24966 -1.80784 0
M  V30 5593 C 546.47 -3.55092 -0.677634 0
M  V30 5594 O 546.191 -4.35667 0.461051 0
M  V30 5595 C 547.692 -4.22631 -1.33782 0
M  V30 5596 H 544.912 -0.669085 -0.0506566 0
M  V30 5597 H 547.456 -1.9852 0.490935 0
M  V30 5598 H 545.611 -3.62077 -1.37763 0
M  V30 5599 H 546.025 -5.24343 0.128144 0
M  V30 5600 H 547.499 -5.28861 -1.58145 0
M  V30 5601 H 547.976 -3.74758 -2.29027 0
M  V30 5602 H 548.582 -4.19829 -0.679957 0
M  V30 5603 N 546.897 -0.0685191 -1.57451 0
M  V30 5604 C 548.313 0.288101 -1.56978 0
M  V30 5605 C 548.513 1.70262 -1.07765 0
M  V30 5606 O 547.569 2.4135 -0.742054 0
M  V30 5607 C 548.882 0.100745 -3.00531 0
M  V30 5608 C 550.43 0.170531 -3.12535 0
M  V30 5609 C 550.905 0.0114944 -4.57999 0
M  V30 5610 N 552.396 0.0672065 -4.63151 0
M  V30 5611 C 553.131 -0.0314813 -5.73391 0
M  V30 5612 N 552.627 -0.183503 -6.92557 0
M  V30 5613 N 554.42 0.0253489 -5.62094 0
M  V30 5614 H 546.571 -0.993026 -1.87757 0
M  V30 5615 H 548.834 -0.386981 -0.865419 0
M  V30 5616 H 548.54 -0.875197 -3.40636 0
M  V30 5617 H 548.414 0.854457 -3.67395 0
M  V30 5618 H 550.801 1.13696 -2.72318 0
M  V30 5619 H 550.882 -0.614229 -2.48316 0
M  V30 5620 H 550.526 -0.951684 -4.98904 0
M  V30 5621 H 550.456 0.815617 -5.20245 0
M  V30 5622 H 552.947 0.183246 -3.77455 0
M  V30 5623 H 553.26 -0.251041 -7.72392 0
M  V30 5624 H 551.605 -0.218822 -6.94655 0
M  V30 5625 H 554.796 0.142794 -4.67882 0
M  V30 5626 H 554.969 -0.0550166 -6.47977 0
M  V30 5627 N 548.375 1.56261 0.205012 0
M  V30 5628 C 549.623 1.79684 0.925096 0
M  V30 5629 C 549.944 0.63989 1.84202 0
M  V30 5630 O 549.214 -0.342345 1.92885 0
M  V30 5631 H 547.794 0.662774 0.344587 0
M  V30 5632 H 550.456 1.93734 0.212899 0
M  V30 5633 H 549.552 2.72467 1.52211 0
M  V30 5634 N 549.853 -0.472356 1.50355 0
M  V30 5635 C 551.101 -1.22211 1.60962 0
M  V30 5636 C 551.422 -1.92497 0.311439 0
M  V30 5637 O 550.692 -1.8405 -0.671002 0
M  V30 5638 H 549.272 -0.454092 0.593135 0
M  V30 5639 H 551.934 -0.544977 1.87126 0
M  V30 5640 H 551.03 -1.9707 2.42012 0
M  V30 5641 N 551.331 -1.39911 -0.725443 0
M  V30 5642 C 552.263 -1.35301 -1.85003 0
M  V30 5643 C 553.276 -0.260102 -1.60709 0
M  V30 5644 O 554.465 -0.519749 -1.70766 0
M  V30 5645 C 551.565 -1.08039 -3.21218 0
M  V30 5646 C 550.738 -2.28793 -3.7279 0
M  V30 5647 C 549.797 -1.97841 -4.87591 0
M  V30 5648 O 548.823 -2.70616 -5.00755 0
M  V30 5649 N 550.025 -0.950367 -5.72668 0
M  V30 5650 H 552.79 -2.32218 -1.89459 0
M  V30 5651 H 550.351 -1.34137 -0.90658 0
M  V30 5652 H 552.343 -0.853354 -3.95601 0
M  V30 5653 H 550.913 -0.198229 -3.11971 0
M  V30 5654 H 550.133 -2.67388 -2.8965 0
M  V30 5655 H 551.421 -3.09317 -4.03981 0
M  V30 5656 H 550.819 -0.347436 -5.64632 0
M  V30 5657 H 549.376 -0.783232 -6.47077 0
M  V30 5658 N 552.809 0.956637 -1.25245 0
M  V30 5659 C 554.225 1.22733 -1.02023 0
M  V30 5660 C 554.425 1.99761 0.264186 0
M  V30 5661 O 553.481 2.32814 0.977436 0
M  V30 5662 C 554.794 2.00367 -2.24217 0
M  V30 5663 C 556.342 2.13418 -2.28958 0
M  V30 5664 C 556.817 2.9445 -3.50803 0
M  V30 5665 N 558.308 3.02029 -3.51187 0
M  V30 5666 C 559.043 3.65116 -4.42129 0
M  V30 5667 N 558.539 4.2983 -5.43339 0
M  V30 5668 N 560.332 3.62237 -4.29815 0
M  V30 5669 H 552.483 0.441282 -2.07765 0
M  V30 5670 H 554.746 0.257686 -0.912306 0
M  V30 5671 H 554.452 1.51165 -3.17556 0
M  V30 5672 H 554.326 3.01077 -2.27228 0
M  V30 5673 H 556.713 2.61819 -1.36143 0
M  V30 5674 H 556.794 1.1202 -2.29968 0
M  V30 5675 H 556.438 2.46741 -4.43939 0
M  V30 5676 H 556.368 3.9607 -3.47039 0
M  V30 5677 H 558.859 2.56007 -2.77973 0
M  V30 5678 H 559.172 4.75819 -6.08947 0
M  V30 5679 H 557.517 4.28465 -5.47214 0
M  V30 5680 H 560.708 3.10863 -3.49974 0
M  V30 5681 H 560.881 4.11117 -5.00886 0
M  V30 5682 N 554.287 1.06798 1.15896 0
M  V30 5683 C 555.235 0.677525 2.22514 0
M  V30 5684 C 556.229 -0.308994 1.66558 0
M  V30 5685 O 557.435 -0.173308 1.79164 0
M  V30 5686 H 553.81 0.200994 0.724642 0
M  V30 5687 H 555.781 1.5865 2.52731 0
M  V30 5688 C 554.53 0.0854153 3.47595 0
M  V30 5689 H 553.853 0.835645 3.90969 0
M  V30 5690 H 555.293 -0.150199 4.23734 0
M  V30 5691 C 553.752 -1.1724 3.15843 0
M  V30 5692 O 554.282 -2.25965 3.32119 0
M  V30 5693 N 552.488 -1.07636 2.69931 0
M  V30 5694 H 552.035 -0.191559 2.56887 0
M  V30 5695 H 551.993 -1.91876 2.4906 0
M  V30 5696 N 555.766 -1.3263 0.851289 0
M  V30 5697 C 556.696 -2.31449 0.308771 0
M  V30 5698 C 557.677 -1.59531 -0.590255 0
M  V30 5699 O 558.862 -1.87351 -0.511205 0
M  V30 5700 C 555.992 -3.43586 -0.506548 0
M  V30 5701 C 554.946 -4.26963 0.297753 0
M  V30 5702 C 554.272 -5.30831 -0.642094 0
M  V30 5703 C 555.572 -4.99643 1.52166 0
M  V30 5704 H 557.266 -2.77074 1.13447 0
M  V30 5705 H 554.812 -1.33207 0.546971 0
M  V30 5706 H 556.765 -4.11754 -0.896474 0
M  V30 5707 H 555.489 -2.96681 -1.36558 0
M  V30 5708 H 554.148 -3.60437 0.669391 0
M  V30 5709 H 553.796 -4.8018 -1.49788 0
M  V30 5710 H 553.496 -5.87501 -0.107968 0
M  V30 5711 H 555.02 -6.01862 -1.02927 0
M  V30 5712 H 556.434 -5.6051 1.20421 0
M  V30 5713 H 554.831 -5.66022 1.99347 0
M  V30 5714 H 555.901 -4.27701 2.28474 0
M  V30 5715 N 557.244 -0.608902 -1.45362 0
M  V30 5716 C 558.491 -0.104607 -2.0223 0
M  V30 5717 C 558.819 1.26534 -1.47714 0
M  V30 5718 O 558.074 1.84855 -0.642435 0
M  V30 5719 C 558.373 -0.0167296 -3.57396 0
M  V30 5720 C 558.039 -1.32251 -4.31069 0
M  V30 5721 C 556.701 -1.68019 -4.50914 0
M  V30 5722 C 559.053 -2.18542 -4.73169 0
M  V30 5723 C 556.381 -2.89828 -5.10114 0
M  V30 5724 C 558.733 -3.39602 -5.33717 0
M  V30 5725 C 557.397 -3.7562 -5.51784 0
M  V30 5726 H 556.667 -0.0382785 -0.740011 0
M  V30 5727 H 559.314 -0.790782 -1.7441 0
M  V30 5728 H 557.619 0.752715 -3.84502 0
M  V30 5729 H 559.316 0.389634 -3.99103 0
M  V30 5730 H 555.906 -1.03411 -4.15938 0
M  V30 5731 H 560.09 -1.92208 -4.5757 0
M  V30 5732 H 555.346 -3.17839 -5.22291 0
M  V30 5733 H 559.52 -4.06716 -5.65292 0
M  V30 5734 H 557.147 -4.70093 -5.97425 0
M  V30 5735 N 558.722 1.53707 -0.348139 0
M  V30 5736 C 559.95 2.05406 0.248224 0
M  V30 5737 C 560.365 1.22282 1.43849 0
M  V30 5738 O 559.722 0.259244 1.80649 0
M  V30 5739 C 559.773 3.55446 0.658793 0
M  V30 5740 O 559.494 4.35417 -0.484149 0
M  V30 5741 C 560.995 4.23335 1.31539 0
M  V30 5742 H 558.215 0.669344 0.0471075 0
M  V30 5743 H 560.759 1.98257 -0.501456 0
M  V30 5744 H 558.914 3.62803 1.35841 0
M  V30 5745 H 559.328 5.24268 -0.155949 0
M  V30 5746 H 560.802 5.29692 1.55338 0
M  V30 5747 H 561.279 3.75967 2.27036 0
M  V30 5748 H 561.885 4.20184 0.657683 0
M  V30 5749 N 560.2 0.0768682 1.57412 0
M  V30 5750 C 561.446 -0.591961 1.93968 0
M  V30 5751 C 561.779 -1.68954 0.9575 0
M  V30 5752 O 561.054 -1.94496 -0.0124675 0
M  V30 5753 C 561.337 -1.16418 3.40762 0
M  V30 5754 C 561.19 -0.0728933 4.49741 0
M  V30 5755 C 562.509 -2.06814 3.88479 0
M  V30 5756 H 559.628 -0.213716 0.705333 0
M  V30 5757 H 562.27 0.14387 1.89455 0
M  V30 5758 H 560.42 -1.79128 3.4474 0
M  V30 5759 H 562.092 0.560446 4.57883 0
M  V30 5760 H 560.335 0.595859 4.29688 0
M  V30 5761 H 561.006 -0.513755 5.49604 0
M  V30 5762 H 563.482 -1.54033 3.8654 0
M  V30 5763 H 562.358 -2.43785 4.91793 0
M  V30 5764 H 562.619 -2.97844 3.26713 0
M  V30 5765 N 561.678 -1.56367 -0.196722 0
M  V30 5766 C 562.926 -1.80172 -0.915554 0
M  V30 5767 C 563.247 -0.649649 -1.8386 0
M  V30 5768 O 562.517 0.332111 -1.93064 0
M  V30 5769 H 561.097 -0.664592 -0.341067 0
M  V30 5770 H 563.759 -1.93844 -0.202622 0
M  V30 5771 H 562.855 -2.7327 -1.50764 0
M  V30 5772 N 563.156 0.464375 -1.50603 0
M  V30 5773 C 564.119 1.54393 -1.69397 0
M  V30 5774 C 565.119 1.50566 -0.564504 0
M  V30 5775 O 566.309 1.53066 -0.831645 0
M  V30 5776 C 563.441 2.9401 -1.72543 0
M  V30 5777 H 564.634 1.39044 -2.65719 0
M  V30 5778 H 562.187 0.69122 -1.40185 0
M  V30 5779 H 562.922 3.14795 -0.77938 0
M  V30 5780 H 562.707 2.98195 -2.54602 0
M  V30 5781 H 564.197 3.72375 -1.89015 0
M  V30 5782 N 564.634 1.40294 0.718013 0
M  V30 5783 C 565.862 1.4175 1.50714 0
M  V30 5784 C 566.277 0.0165366 1.88793 0
M  V30 5785 O 565.634 -0.958942 1.55276 0
M  V30 5786 C 565.685 2.30598 2.784 0
M  V30 5787 O 565.406 3.6524 2.41932 0
M  V30 5788 C 566.907 2.4062 3.72313 0
M  V30 5789 H 564.127 0.483565 0.465194 0
M  V30 5790 H 566.671 1.84316 0.885889 0
M  V30 5791 H 564.826 1.91401 3.36815 0
M  V30 5792 H 565.24 4.12402 3.24076 0
M  V30 5793 H 566.714 3.07001 4.58753 0
M  V30 5794 H 567.191 1.4305 4.15251 0
M  V30 5795 H 567.797 2.80359 3.19811 0
M  V30 5796 N 566.112 -0.949982 1.2575 0
M  V30 5797 C 567.523 -1.50989 1.09815 0
M  V30 5798 C 567.874 -1.93497 -0.324556 0
M  V30 5799 O 566.999 -1.79068 -1.21506 0
M  V30 5800 C 567.594 -2.74394 1.98729 0
M  V30 5801 C 566.153 -3.26682 1.86965 0
M  V30 5802 C 565.3 -1.99498 1.92603 0
M  V30 5803 H 568.251 -0.766387 1.38968 0
M  V30 5804 H 568.272 -3.48383 1.53001 0
M  V30 5805 H 567.784 -2.43425 3.02268 0
M  V30 5806 H 565.885 -3.62461 0.863279 0
M  V30 5807 H 565.998 -3.94383 2.72027 0
M  V30 5808 H 564.362 -2.15005 1.36546 0
M  V30 5809 H 565.145 -1.70871 2.97755 0
M  V30 5810 N 567.59 -1.07411 -1.15328 0
M  V30 5811 C 568.5 -0.706438 -2.23711 0
M  V30 5812 C 569.516 0.282586 -1.7169 0
M  V30 5813 O 570.692 0.129066 -2.00986 0
M  V30 5814 C 567.757 -0.11048 -3.46524 0
M  V30 5815 C 566.818 -1.15282 -4.13532 0
M  V30 5816 C 566.051 -0.585205 -5.30482 0
M  V30 5817 O 566.274 0.598549 -5.67251 0
M  V30 5818 O 565.208 -1.33039 -5.87013 0
M  V30 5819 H 569.034 -1.61031 -2.57493 0
M  V30 5820 H 566.619 -0.847113 -1.23062 0
M  V30 5821 H 568.501 0.21957 -4.20828 0
M  V30 5822 H 567.176 0.766703 -3.14489 0
M  V30 5823 H 566.083 -1.53523 -3.41147 0
M  V30 5824 H 567.416 -2.00192 -4.49649 0
M  V30 5825 N 569.068 1.32177 -0.85831 0
M  V30 5826 C 570.314 1.97417 -0.46417 0
M  V30 5827 C 570.647 1.67746 0.978514 0
M  V30 5828 O 569.922 0.967654 1.68721 0
M  V30 5829 C 570.205 3.53069 -0.708094 0
M  V30 5830 C 570.058 3.92357 -2.19946 0
M  V30 5831 C 571.377 4.39783 -0.166881 0
M  V30 5832 H 568.496 0.717097 -0.17012 0
M  V30 5833 H 571.138 1.56499 -1.07741 0
M  V30 5834 H 569.288 3.88054 -0.186128 0
M  V30 5835 H 570.96 3.67533 -2.78779 0
M  V30 5836 H 569.203 3.41384 -2.67656 0
M  V30 5837 H 569.874 5.00841 -2.32082 0
M  V30 5838 H 572.35 4.11556 -0.613285 0
M  V30 5839 H 571.226 5.47671 -0.367093 0
M  V30 5840 H 571.487 4.32196 0.930559 0
M  V30 5841 N 570.547 0.616602 1.45037 0
M  V30 5842 C 571.51 -0.0871112 2.29034 0
M  V30 5843 C 572.51 -0.786414 1.40258 0
M  V30 5844 O 573.7 -0.633207 1.62284 0
M  V30 5845 C 570.832 -1.13369 3.21497 0
M  V30 5846 H 572.025 0.651497 2.92738 0
M  V30 5847 H 569.578 0.376058 1.51709 0
M  V30 5848 H 570.313 -1.90277 2.62612 0
M  V30 5849 H 570.098 -0.636358 3.86902 0
M  V30 5850 H 571.588 -1.62627 3.84633 0
M  V30 5851 N 572.025 -1.5352 0.356285 0
M  V30 5852 C 573.441 -1.59599 0.00485267 0
M  V30 5853 C 573.641 -1.37179 -1.47595 0
M  V30 5854 O 572.697 -1.17234 -2.23635 0
M  V30 5855 C 574.01 -2.97277 0.452454 0
M  V30 5856 C 575.558 -3.10357 0.405881 0
M  V30 5857 C 576.033 -4.50432 0.829148 0
M  V30 5858 N 577.524 -4.5652 0.783838 0
M  V30 5859 C 578.259 -5.63077 1.08315 0
M  V30 5860 N 577.755 -6.77429 1.45126 0
M  V30 5861 N 579.548 -5.53014 1.00655 0
M  V30 5862 H 571.699 -1.66346 1.32071 0
M  V30 5863 H 573.962 -0.77971 0.539218 0
M  V30 5864 H 573.668 -3.18792 1.48542 0
M  V30 5865 H 573.542 -3.76836 -0.165762 0
M  V30 5866 H 575.929 -2.88558 -0.617934 0
M  V30 5867 H 576.01 -2.32828 1.05947 0
M  V30 5868 H 575.654 -4.72968 1.85103 0
M  V30 5869 H 575.584 -5.26378 0.152906 0
M  V30 5870 H 578.075 -3.74408 0.512513 0
M  V30 5871 H 578.388 -7.54669 1.66415 0
M  V30 5872 H 576.733 -6.78844 1.48983 0
M  V30 5873 H 579.924 -4.62557 0.718215 0
M  V30 5874 H 580.097 -6.35964 1.24315 0
M  V30 5875 N 573.503 -0.0852151 -1.57369 0
M  V30 5876 C 574.466 0.8627 -2.12344 0
M  V30 5877 C 575.466 1.21746 -1.05046 0
M  V30 5878 O 576.656 1.14852 -1.30976 0
M  V30 5879 C 573.788 2.1618 -2.63589 0
M  V30 5880 H 574.981 0.385511 -2.97412 0
M  V30 5881 H 572.534 0.163663 -1.55441 0
M  V30 5882 H 573.269 2.68406 -1.82013 0
M  V30 5883 H 573.054 1.91723 -3.4203 0
M  V30 5884 H 574.544 2.84011 -3.06149 0
M  V30 5885 N 574.981 1.5647 0.188427 0
M  V30 5886 C 576.227 1.82181 0.904534 0
M  V30 5887 C 576.582 0.663258 1.80606 0
M  V30 5888 O 575.875 -0.341231 1.88537 0
M  V30 5889 C 576.069 3.11596 1.7505 0
M  V30 5890 C 575.898 4.39928 0.932372 0
M  V30 5891 C 574.668 5.01554 0.61417 0
M  V30 5892 C 576.866 5.13527 0.281936 0
M  V30 5893 N 574.848 6.13499 -0.221896 0
M  V30 5894 C 576.219 6.18603 -0.416037 0
M  V30 5895 C 578.274 4.97505 0.198345 0
M  V30 5896 C 576.977 7.09394 -1.18965 0
M  V30 5897 C 579.003 5.88725 -0.561887 0
M  V30 5898 C 578.365 6.93251 -1.24828 0
M  V30 5899 H 574.464 0.717858 0.310168 0
M  V30 5900 H 577.048 1.93932 0.172757 0
M  V30 5901 H 575.219 3.01068 2.45383 0
M  V30 5902 H 576.951 3.25369 2.4066 0
M  V30 5903 H 573.706 4.64174 0.940187 0
M  V30 5904 H 574.13 6.74065 -0.629735 0
M  V30 5905 H 578.772 4.16716 0.714665 0
M  V30 5906 H 576.49 7.8964 -1.71737 0
M  V30 5907 H 580.076 5.78401 -0.628009 0
M  V30 5908 H 578.956 7.62618 -1.82712 0
M  V30 5909 N 576.459 -0.456382 1.50847 0
M  V30 5910 C 577.684 -1.2349 1.66628 0
M  V30 5911 C 578.109 -1.84715 0.355254 0
M  V30 5912 O 577.467 -1.67961 -0.682559 0
M  V30 5913 C 577.515 -2.30865 2.77009 0
M  V30 5914 O 576.619 -3.35882 2.39285 0
M  V30 5915 H 575.96 -0.36266 0.556214 0
M  V30 5916 H 578.49 -0.541374 1.97308 0
M  V30 5917 H 578.5 -2.75949 3.00526 0
M  V30 5918 H 577.175 -1.85677 3.72152 0
M  V30 5919 H 575.752 -2.96406 2.26269 0
M  V30 5920 N 577.937 -1.40673 -0.710563 0
M  V30 5921 C 579.162 -1.42741 -1.50465 0
M  V30 5922 C 579.587 -0.0302116 -1.88076 0
M  V30 5923 O 578.945 0.962945 -1.53613 0
M  V30 5924 C 578.993 -2.32873 -2.75322 0
M  V30 5925 O 578.097 -1.77544 -3.72226 0
M  V30 5926 H 577.438 -0.485056 -0.45345 0
M  V30 5927 H 579.968 -1.84961 -0.874681 0
M  V30 5928 H 579.978 -2.48233 -3.23797 0
M  V30 5929 H 578.653 -3.34401 -2.47283 0
M  V30 5930 H 577.23 -1.71556 -3.31093 0
M  V30 5931 N 579.415 0.9433 -1.26252 0
M  V30 5932 C 580.645 1.72117 -1.14277 0
M  V30 5933 C 581.053 1.86726 0.304944 0
M  V30 5934 O 580.396 1.3727 1.22076 0
M  V30 5935 C 580.458 3.14778 -1.73651 0
M  V30 5936 C 580.122 3.23561 -3.22734 0
M  V30 5937 C 581.119 3.07001 -4.19579 0
M  V30 5938 C 578.804 3.47019 -3.63157 0
M  V30 5939 C 580.798 3.13763 -5.54826 0
M  V30 5940 C 578.485 3.53416 -4.98538 0
M  V30 5941 C 579.483 3.36804 -5.94182 0
M  V30 5942 O 579.171 3.42906 -7.27098 0
M  V30 5943 H 578.903 0.545781 -0.398873 0
M  V30 5944 H 581.457 1.19123 -1.67328 0
M  V30 5945 H 579.687 3.69186 -1.1506 0
M  V30 5946 H 581.376 3.74469 -1.56613 0
M  V30 5947 H 582.142 2.88736 -3.89688 0
M  V30 5948 H 578.021 3.59006 -2.89199 0
M  V30 5949 H 581.565 3.00714 -6.29458 0
M  V30 5950 H 577.462 3.71201 -5.28091 0
M  V30 5951 H 578.23 3.59463 -7.35342 0
M  V30 5952 N 580.893 1.08022 1.14757 0
M  V30 5953 C 581.856 0.71048 2.1791 0
M  V30 5954 C 582.856 -0.252731 1.58801 0
M  V30 5955 O 584.046 -0.0327915 1.74169 0
M  V30 5956 C 581.178 0.0483203 3.40866 0
M  V30 5957 H 582.371 1.62384 2.52134 0
M  V30 5958 H 579.924 0.877595 1.29337 0
M  V30 5959 H 580.659 -0.876959 3.12218 0
M  V30 5960 H 580.444 0.741189 3.85031 0
M  V30 5961 H 581.934 -0.195471 4.17142 0
M  V30 5962 N 582.371 -1.3172 0.865308 0
M  V30 5963 C 583.782 -1.79104 0.527126 0
M  V30 5964 C 584.133 -1.7135 -0.955695 0
M  V30 5965 O 583.258 -1.27845 -1.74598 0
M  V30 5966 C 583.853 -3.25207 0.950061 0
M  V30 5967 C 582.412 -3.70504 0.663611 0
M  V30 5968 C 581.559 -2.52605 1.14395 0
M  V30 5969 H 584.51 -1.18868 1.05148 0
M  V30 5970 H 584.531 -3.79535 0.270805 0
M  V30 5971 H 584.043 -3.30818 2.02931 0
M  V30 5972 H 582.144 -3.70398 -0.404474 0
M  V30 5973 H 582.257 -4.62845 1.23737 0
M  V30 5974 H 580.621 -2.4838 0.563859 0
M  V30 5975 H 581.404 -2.60964 2.23053 0
M  V30 5976 N 583.85 -0.624285 -1.44708 0
M  V30 5977 C 585.077 -0.132919 -2.06473 0
M  V30 5978 C 585.493 1.18967 -1.46602 0
M  V30 5979 O 584.85 1.72824 -0.586341 0
M  V30 5980 C 584.901 -0.00465418 -3.615 0
M  V30 5981 O 584.622 -1.27494 -4.19138 0
M  V30 5982 C 586.123 0.516213 -4.40284 0
M  V30 5983 H 583.343 -0.0765201 -0.666623 0
M  V30 5984 H 585.887 -0.856751 -1.85688 0
M  V30 5985 H 584.042 0.669583 -3.8157 0
M  V30 5986 H 584.456 -1.11536 -5.12504 0
M  V30 5987 H 585.93 0.554994 -5.49203 0
M  V30 5988 H 586.407 1.5419 -4.11245 0
M  V30 5989 H 587.013 -0.124542 -4.25118 0
M  V30 5990 N 585.328 1.53329 -0.364422 0
M  V30 5991 C 586.574 2.01537 0.225969 0
M  V30 5992 C 586.907 1.25128 1.48515 0
M  V30 5993 O 586.182 0.344653 1.91422 0
M  V30 5994 C 586.465 3.56339 0.519092 0
M  V30 5995 C 586.318 4.43441 -0.753639 0
M  V30 5996 C 587.637 4.19833 1.32015 0
M  V30 5997 H 584.756 0.732573 0.0806548 0
M  V30 5998 H 587.398 1.83597 -0.489084 0
M  V30 5999 H 585.548 3.71756 1.12825 0
M  V30 6000 H 587.22 4.39823 -1.39116 0
M  V30 6001 H 585.463 4.11457 -1.37424 0
M  V30 6002 H 586.134 5.49699 -0.503517 0
M  V30 6003 H 588.61 4.08242 0.804859 0
M  V30 6004 H 587.486 5.28177 1.49399 0
M  V30 6005 H 587.747 3.75821 2.32832 0
M  V30 6006 N 586.806 0.0935595 1.57322 0
M  V30 6007 C 588.052 -0.571355 1.94585 0
M  V30 6008 C 588.385 -1.67929 0.975366 0
M  V30 6009 O 587.66 -1.94498 0.00816206 0
M  V30 6010 C 587.943 -1.12797 3.41978 0
M  V30 6011 C 587.796 -0.0251881 4.49793 0
M  V30 6012 C 589.115 -2.02682 3.90651 0
M  V30 6013 H 586.234 -0.206223 0.70756 0
M  V30 6014 H 588.876 0.163956 1.89291 0
M  V30 6015 H 587.026 -1.75461 3.4662 0
M  V30 6016 H 588.698 0.608979 4.57263 0
M  V30 6017 H 586.941 0.641399 4.29032 0
M  V30 6018 H 587.612 -0.455433 5.50118 0
M  V30 6019 H 590.088 -1.49925 3.88152 0
M  V30 6020 H 588.964 -2.38555 4.94351 0
M  V30 6021 H 589.225 -2.94362 3.29854 0
M  V30 6022 N 588.284 -1.56567 -0.180126 0
M  V30 6023 C 589.7 -1.50488 -0.531559 0
M  V30 6024 C 589.9 -0.796267 -1.851 0
M  V30 6025 O 588.956 -0.352978 -2.50021 0
M  V30 6026 C 590.269 -2.95201 -0.572456 0
M  V30 6027 C 591.817 -3.05957 -0.660264 0
M  V30 6028 C 592.292 -4.5211 -0.732135 0
M  V30 6029 N 593.783 -4.56322 -0.795262 0
M  V30 6030 C 594.518 -5.66742 -0.871296 0
M  V30 6031 N 594.014 -6.86815 -0.908708 0
M  V30 6032 N 595.807 -5.54691 -0.909639 0
M  V30 6033 H 587.958 -2.01045 0.685165 0
M  V30 6034 H 590.221 -0.915536 0.245962 0
M  V30 6035 H 589.927 -3.50165 0.328208 0
M  V30 6036 H 589.801 -3.49369 -1.422 0
M  V30 6037 H 592.188 -2.51032 -1.55136 0
M  V30 6038 H 592.269 -2.54888 0.215783 0
M  V30 6039 H 591.913 -5.07664 0.154664 0
M  V30 6040 H 591.843 -5.00926 -1.6242 0
M  V30 6041 H 594.334 -3.69868 -0.77499 0
M  V30 6042 H 594.647 -7.66718 -0.967654 0
M  V30 6043 H 592.992 -6.89443 -0.877132 0
M  V30 6044 H 596.183 -4.59804 -0.877353 0
M  V30 6045 H 596.356 -6.40768 -0.965434 0
M  V30 6046 N 589.762 0.448376 -1.51087 0
M  V30 6047 C 590.692 1.55102 -1.74544 0
M  V30 6048 C 591.673 1.59357 -0.594932 0
M  V30 6049 O 592.858 1.75261 -0.836491 0
M  V30 6050 C 589.988 2.93268 -1.86041 0
M  V30 6051 C 588.942 3.03877 -3.01402 0
M  V30 6052 C 588.268 4.43914 -2.98068 0
M  V30 6053 C 589.568 2.7898 -4.41551 0
M  V30 6054 H 591.262 1.35724 -2.66869 0
M  V30 6055 H 588.808 0.651498 -1.28419 0
M  V30 6056 H 590.761 3.70356 -2.01034 0
M  V30 6057 H 589.485 3.13853 -0.903548 0
M  V30 6058 H 588.144 2.29227 -2.86096 0
M  V30 6059 H 587.792 4.6145 -2.00182 0
M  V30 6060 H 587.492 4.51944 -3.75527 0
M  V30 6061 H 589.016 5.22991 -3.1514 0
M  V30 6062 H 590.43 3.45805 -4.57265 0
M  V30 6063 H 588.827 2.98431 -5.20633 0
M  V30 6064 H 589.897 1.74663 -4.5235 0
M  V30 6065 N 591.24 1.41047 0.703093 0
M  V30 6066 C 592.651 1.35657 1.28274 0
M  V30 6067 C 593.002 0.0360309 1.96167 0
M  V30 6068 O 592.127 -0.865833 1.98324 0
M  V30 6069 C 592.722 2.45707 2.33267 0
M  V30 6070 C 591.281 2.43738 2.86825 0
M  V30 6071 C 590.428 2.25941 1.60767 0
M  V30 6072 H 593.379 1.50672 0.49836 0
M  V30 6073 H 593.4 2.14333 3.14391 0
M  V30 6074 H 592.912 3.41805 1.83824 0
M  V30 6075 H 591.013 1.51375 3.40465 0
M  V30 6076 H 591.126 3.39779 3.37768 0
M  V30 6077 H 589.49 1.73681 1.86298 0
M  V30 6078 H 590.273 3.24054 1.1333 0
M  V30 6079 N 592.718 -0.936591 1.26751 0
M  V30 6080 C 593.995 -1.66094 1.03306 0
M  V30 6081 C 594.375 -2.06568 -0.435058 0
M  V30 6082 O 593.723 -1.79305 -1.41641 0
M  V30 6083 C 593.933 -2.86969 1.98619 0
M  V30 6084 C 595.281 -3.58516 2.27489 0
M  V30 6085 O 596.305 -2.97082 1.96522 0
M  V30 6086 O 595.164 -4.69181 2.80235 0
M  V30 6087 H 592.258 -0.727568 0.393158 0
M  V30 6088 H 594.804 -0.987914 1.3798 0
M  V30 6089 H 593.576 -2.53985 2.9767 0
M  V30 6090 H 593.199 -3.61996 1.64454 0
M  V30 6091 N 594.196 -1.08629 -1.14182 0
M  V30 6092 C 595.444 -0.815731 -1.84906 0
M  V30 6093 C 595.765 0.660441 -1.83475 0
M  V30 6094 O 595.035 1.47888 -1.28476 0
M  V30 6095 H 593.615 -0.298773 -0.684648 0
M  V30 6096 H 596.277 -1.37274 -1.38354 0
M  V30 6097 H 595.373 -1.16193 -2.89665 0
M  V30 6098 N 595.674 1.31259 -0.872281 0
M  V30 6099 C 597.09 1.49283 -0.564521 0
M  V30 6100 C 597.29 1.80243 0.900807 0
M  V30 6101 O 596.346 1.88246 1.68284 0
M  V30 6102 C 597.659 2.62503 -1.46673 0
M  V30 6103 C 599.207 2.76386 -1.46901 0
M  V30 6104 C 599.682 3.92705 -2.35684 0
M  V30 6105 N 601.173 3.99995 -2.33577 0
M  V30 6106 C 601.908 4.89276 -2.98992 0
M  V30 6107 N 601.404 5.83443 -3.73585 0
M  V30 6108 N 603.197 4.82541 -2.88289 0
M  V30 6109 H 595.348 1.09432 -1.82039 0
M  V30 6110 H 597.611 0.540949 -0.77851 0
M  V30 6111 H 597.317 2.46407 -2.50951 0
M  V30 6112 H 597.191 3.58695 -1.16696 0
M  V30 6113 H 599.578 2.91894 -0.433796 0
M  V30 6114 H 599.659 1.80853 -1.80903 0
M  V30 6115 H 599.303 3.77954 -3.39283 0
M  V30 6116 H 599.233 4.87549 -1.99006 0
M  V30 6117 H 601.724 3.32624 -1.7936 0
M  V30 6118 H 602.037 6.48303 -4.20622 0
M  V30 6119 H 600.382 5.83415 -3.77694 0
M  V30 6120 H 603.573 4.07951 -2.2955 0
M  V30 6121 H 603.746 5.51916 -3.39549 0
M  V30 6122 N 597.152 0.631951 1.44375 0
M  V30 6123 C 598.398 0.13697 2.02337 0
M  V30 6124 C 598.731 -1.23826 1.49602 0
M  V30 6125 O 598.006 -1.8221 0.680415 0
M  V30 6126 C 598.289 0.124536 3.59885 0
M  V30 6127 C 598.142 1.53217 4.229 0
M  V30 6128 C 599.461 -0.550481 4.36644 0
M  V30 6129 H 596.58 0.051247 0.735216 0
M  V30 6130 H 599.222 0.808581 1.71936 0
M  V30 6131 H 597.372 -0.44737 3.85916 0
M  V30 6132 H 599.044 2.15303 4.07973 0
M  V30 6133 H 597.287 2.0858 3.80364 0
M  V30 6134 H 597.958 1.4755 5.31914 0
M  V30 6135 H 600.434 -0.0641154 4.16051 0
M  V30 6136 H 599.31 -0.528371 5.46351 0
M  V30 6137 H 599.571 -1.62097 4.11311 0
M  V30 6138 N 598.631 -1.53133 0.372548 0
M  V30 6139 C 599.578 -2.25951 -0.470631 0
M  V30 6140 C 600.548 -1.26895 -1.07176 0
M  V30 6141 O 601.733 -1.55691 -1.10294 0
M  V30 6142 C 598.873 -3.05726 -1.6008 0
M  V30 6143 C 597.986 -4.19684 -1.02416 0
M  V30 6144 C 597.121 -4.86888 -2.124 0
M  V30 6145 C 596.16 -5.92866 -1.52238 0
M  V30 6146 N 595.297 -6.53732 -2.56084 0
M  V30 6147 H 600.137 -2.97587 0.156816 0
M  V30 6148 H 597.674 -1.4683 0.0891571 0
M  V30 6149 H 599.632 -3.50258 -2.26661 0
M  V30 6150 H 598.262 -2.36331 -2.1988 0
M  V30 6151 H 597.314 -3.79588 -0.248426 0
M  V30 6152 H 598.626 -4.95821 -0.544366 0
M  V30 6153 H 597.78 -5.34638 -2.86787 0
M  V30 6154 H 596.519 -4.10239 -2.63734 0
M  V30 6155 H 595.524 -5.4447 -0.763685 0
M  V30 6156 H 596.749 -6.71439 -1.0172 0
M  V30 6157 H 594.695 -5.79932 -3.06618 0
M  V30 6158 H 594.612 -7.25429 -2.12811 0
M  V30 6159 H 595.88 -7.0613 -3.30152 0
M  V30 6160 N 600.109 -0.101901 -1.5727 0
M  V30 6161 C 601.039 0.851544 -2.17419 0
M  V30 6162 C 602.02 1.28942 -1.10941 0
M  V30 6163 O 603.205 1.35509 -1.39107 0
M  V30 6164 C 600.335 2.10816 -2.75996 0
M  V30 6165 C 599.289 1.80867 -3.87906 0
M  V30 6166 C 598.615 3.13413 -4.33216 0
M  V30 6167 C 599.915 1.0903 -5.10793 0
M  V30 6168 H 601.609 0.350381 -2.97343 0
M  V30 6169 H 599.155 0.16709 -1.43027 0
M  V30 6170 H 601.108 2.77959 -3.16729 0
M  V30 6171 H 599.832 2.63227 -1.93337 0
M  V30 6172 H 598.491 1.16119 -3.47724 0
M  V30 6173 H 598.139 3.63725 -3.47438 0
M  V30 6174 H 597.839 2.94155 -5.08671 0
M  V30 6175 H 599.363 3.81704 -4.76586 0
M  V30 6176 H 600.777 1.66295 -5.48652 0
M  V30 6177 H 599.174 0.99927 -5.91722 0
M  V30 6178 H 600.244 0.0741704 -4.84843 0
M  V30 6179 N 601.587 1.56661 0.17182 0
M  V30 6180 C 602.812 1.86459 0.908165 0
M  V30 6181 C 603.237 0.688181 1.75059 0
M  V30 6182 O 602.595 -0.362753 1.77634 0
M  V30 6183 C 602.643 3.14669 1.76112 0
M  V30 6184 O 601.747 2.96858 2.86268 0
M  V30 6185 H 601.088 0.613318 0.254434 0
M  V30 6186 H 603.618 2.03892 0.170113 0
M  V30 6187 H 603.628 3.46061 2.16115 0
M  V30 6188 H 602.303 3.99905 1.14233 0
M  V30 6189 H 600.88 2.76819 2.49852 0
M  V30 6190 N 603.065 -0.440357 1.51323 0
M  V30 6191 C 604.293 -1.21255 1.67645 0
M  V30 6192 C 604.708 -1.85088 0.37252 0
M  V30 6193 O 604.065 -1.70582 -0.648683 0
M  V30 6194 C 604.116 -2.29881 2.78993 0
M  V30 6195 O 603.837 -1.68659 4.04334 0
M  V30 6196 C 605.338 -3.20214 3.06558 0
M  V30 6197 H 602.558 -0.36558 0.562666 0
M  V30 6198 H 605.102 -0.52214 1.97722 0
M  V30 6199 H 603.257 -2.94643 2.51524 0
M  V30 6200 H 603.671 -2.40426 4.6615 0
M  V30 6201 H 605.145 -3.92575 3.88058 0
M  V30 6202 H 605.622 -3.80794 2.18844 0
M  V30 6203 H 606.228 -2.61156 3.35675 0
M  V30 6204 N 604.543 -1.41418 -0.695603 0
M  V30 6205 C 605.49 -1.43264 -1.80954 0
M  V30 6206 C 606.46 -0.287016 -1.63601 0
M  V30 6207 O 607.645 -0.488054 -1.84452 0
M  V30 6208 C 604.785 -1.32054 -3.18835 0
M  V30 6209 C 603.898 -2.56485 -3.4762 0
M  V30 6210 C 603.033 -2.3757 -4.75115 0
M  V30 6211 C 602.072 -3.57477 -4.96867 0
M  V30 6212 N 601.209 -3.37632 -6.15588 0
M  V30 6213 H 606.049 -2.38467 -1.78711 0
M  V30 6214 H 603.586 -1.18415 -0.872715 0
M  V30 6215 H 605.544 -1.23558 -3.98484 0
M  V30 6216 H 604.174 -0.404592 -3.20254 0
M  V30 6217 H 603.226 -2.75432 -2.62376 0
M  V30 6218 H 604.538 -3.45678 -3.59594 0
M  V30 6219 H 603.692 -2.2654 -5.62818 0
M  V30 6220 H 602.431 -1.45834 -4.65386 0
M  V30 6221 H 601.436 -3.68961 -4.07612 0
M  V30 6222 H 602.661 -4.50167 -5.08455 0
M  V30 6223 H 600.607 -2.48596 -6.07072 0
M  V30 6224 H 600.524 -4.20401 -6.2833 0
M  V30 6225 H 601.792 -3.30375 -7.06026 0
M  V30 6226 N 606.021 0.929856 -1.27246 0
M  V30 6227 C 607.268 1.67731 -1.13457 0
M  V30 6228 C 607.596 1.9185 0.319998 0
M  V30 6229 O 606.851 1.50524 1.25064 0
M  V30 6230 C 607.15 3.05116 -1.86115 0
M  V30 6231 C 606.816 3.00715 -3.35978 0
M  V30 6232 C 605.478 2.99222 -3.76855 0
M  V30 6233 C 607.83 2.92168 -4.3161 0
M  V30 6234 C 605.158 2.86962 -5.11732 0
M  V30 6235 C 607.51 2.81449 -5.66542 0
M  V30 6236 C 606.174 2.78305 -6.06715 0
M  V30 6237 H 605.444 0.613772 -0.415168 0
M  V30 6238 H 608.091 1.08456 -1.57827 0
M  V30 6239 H 606.396 3.68083 -1.34246 0
M  V30 6240 H 608.093 3.61822 -1.72876 0
M  V30 6241 H 604.683 3.02664 -3.03468 0
M  V30 6242 H 608.867 2.92421 -4.01003 0
M  V30 6243 H 604.123 2.82913 -5.42006 0
M  V30 6244 H 608.297 2.738 -6.40317 0
M  V30 6245 H 605.924 2.68561 -7.11181 0
M  V30 6246 N 607.499 1.09233 1.13605 0
M  V30 6247 C 608.727 0.848908 1.88683 0
M  V30 6248 C 609.142 -0.599667 1.79024 0
M  V30 6249 O 608.499 -1.41265 1.15544 0
M  V30 6250 C 608.55 1.27273 3.38355 0
M  V30 6251 O 608.271 2.66449 3.47759 0
M  V30 6252 C 609.772 1.0614 4.30406 0
M  V30 6253 H 606.992 0.305549 0.597395 0
M  V30 6254 H 609.536 1.4538 1.43823 0
M  V30 6255 H 607.691 0.711776 3.80805 0
M  V30 6256 H 608.105 2.84264 4.40788 0
M  V30 6257 H 609.579 1.40725 5.33761 0
M  V30 6258 H 610.056 -0.000960332 4.392 0
M  V30 6259 H 610.662 1.60821 3.93722 0
M  V30 6260 N 608.977 -1.30795 0.87923 0
M  V30 6261 C 610.393 -1.48981 0.57243 0
M  V30 6262 C 610.593 -1.80719 -0.891236 0
M  V30 6263 O 609.649 -1.89136 -1.67283 0
M  V30 6264 C 610.962 -2.61721 1.48063 0
M  V30 6265 C 612.51 -2.75603 1.48365 0
M  V30 6266 C 612.985 -3.91449 2.37763 0
M  V30 6267 N 614.476 -3.98751 2.35695 0
M  V30 6268 C 615.211 -4.87684 3.01583 0
M  V30 6269 N 614.707 -5.81454 3.76674 0
M  V30 6270 N 616.5 -4.81005 2.90844 0
M  V30 6271 H 608.651 -1.08465 1.82617 0
M  V30 6272 H 610.914 -0.536813 0.781368 0
M  V30 6273 H 610.62 -2.45073 2.52254 0
M  V30 6274 H 610.494 -3.58071 1.18596 0
M  V30 6275 H 612.881 -2.9166 0.44927 0
M  V30 6276 H 612.962 -1.79891 1.81859 0
M  V30 6277 H 612.606 -3.76149 3.41283 0
M  V30 6278 H 612.536 -4.86487 2.01589 0
M  V30 6279 H 615.027 -3.31668 1.81121 0
M  V30 6280 H 615.34 -6.46063 4.24054 0
M  V30 6281 H 613.685 -5.81403 3.80782 0
M  V30 6282 H 616.876 -4.06728 2.31711 0
M  V30 6283 H 617.049 -5.50107 3.42471 0
M  V30 6284 N 610.455 -0.639598 -1.44038 0
M  V30 6285 C 611.385 0.0469443 -2.33453 0
M  V30 6286 C 612.366 0.82609 -1.48694 0
M  V30 6287 O 613.551 0.790285 -1.77393 0
M  V30 6288 C 610.681 1.02338 -3.3188 0
M  V30 6289 C 609.635 0.355284 -4.26523 0
M  V30 6290 C 608.961 1.44221 -5.14883 0
M  V30 6291 C 610.261 -0.743798 -5.16977 0
M  V30 6292 H 611.955 -0.699735 -2.91108 0
M  V30 6293 H 609.501 -0.337946 -1.39978 0
M  V30 6294 H 611.454 1.51247 -3.93322 0
M  V30 6295 H 610.178 1.80105 -2.72451 0
M  V30 6296 H 608.837 -0.113239 -3.66425 0
M  V30 6297 H 608.485 2.21097 -4.51802 0
M  V30 6298 H 608.185 1.00052 -5.79019 0
M  V30 6299 H 609.709 1.93295 -5.79197 0
M  V30 6300 H 611.123 -0.337444 -5.72306 0
M  V30 6301 H 609.52 -1.10914 -5.89761 0
M  V30 6302 H 610.59 -1.60745 -4.57481 0
M  V30 6303 N 611.933 1.52934 -0.380664 0
M  V30 6304 C 613.161 2.05886 0.204599 0
M  V30 6305 C 613.576 1.25305 1.41223 0
M  V30 6306 O 612.933 0.297504 1.80059 0
M  V30 6307 C 612.984 3.56764 0.583249 0
M  V30 6308 O 612.705 4.34292 -0.576398 0
M  V30 6309 C 614.206 4.2603 1.2253 0
M  V30 6310 H 611.426 0.670193 0.0328991 0
M  V30 6311 H 613.97 1.97148 -0.543397 0
M  V30 6312 H 612.125 3.65603 1.28115 0
M  V30 6313 H 612.539 5.23819 -0.267119 0
M  V30 6314 H 614.013 5.32868 1.44068 0
M  V30 6315 H 614.49 3.80698 2.19011 0
M  V30 6316 H 615.096 4.21485 0.568407 0
M  V30 6317 N 613.412 0.11024 1.57214 0
M  V30 6318 C 614.66 -0.548783 1.94506 0
M  V30 6319 C 614.981 -1.67772 0.99386 0
M  V30 6320 O 614.251 -1.9584 0.0485841 0
M  V30 6321 H 612.831 -0.205715 0.718116 0
M  V30 6322 H 615.493 0.177127 1.94093 0
M  V30 6323 H 614.589 -0.949096 2.97319 0
M  V30 6324 N 614.89 -1.56749 -0.16351 0
M  V30 6325 C 616.306 -1.51043 -0.515567 0
M  V30 6326 C 616.506 -0.815855 -1.84245 0
M  V30 6327 O 615.562 -0.379477 -2.49632 0
M  V30 6328 C 616.875 -2.95791 -0.541114 0
M  V30 6329 C 618.423 -3.0664 -0.627776 0
M  V30 6330 C 618.898 -4.52861 -0.684141 0
M  V30 6331 N 620.389 -4.5714 -0.746818 0
M  V30 6332 C 621.124 -5.67634 -0.811137 0
M  V30 6333 N 620.62 -6.8774 -0.835811 0
M  V30 6334 N 622.413 -5.55624 -0.850756 0
M  V30 6335 H 614.564 -2.00307 0.70645 0
M  V30 6336 H 616.827 -0.912876 0.255659 0
M  V30 6337 H 616.533 -3.49797 0.365329 0
M  V30 6338 H 616.407 -3.50858 -1.38487 0
M  V30 6339 H 618.794 -2.52663 -1.52464 0
M  V30 6340 H 618.875 -2.54645 0.242805 0
M  V30 6341 H 618.519 -5.07472 0.2085 0
M  V30 6342 H 618.449 -5.02621 -1.57098 0
M  V30 6343 H 620.94 -3.70669 -0.735717 0
M  V30 6344 H 621.253 -7.67701 -0.886279 0
M  V30 6345 H 619.598 -6.90334 -0.803958 0
M  V30 6346 H 622.789 -4.60709 -0.828535 0
M  V30 6347 H 622.962 -6.41756 -0.897418 0
M  V30 6348 N 616.368 0.432326 -1.51554 0
M  V30 6349 C 617.593 1.20824 -1.68571 0
M  V30 6350 C 618.018 1.84126 -0.384596 0
M  V30 6351 O 617.376 1.69025 0.655751 0
M  V30 6352 C 617.424 2.26429 -2.80646 0
M  V30 6353 O 616.528 3.32032 -2.44598 0
M  V30 6354 H 615.869 0.353765 -0.561913 0
M  V30 6355 H 618.399 0.509916 -1.98144 0
M  V30 6356 H 618.409 2.71133 -3.04878 0
M  V30 6357 H 617.084 1.79733 -3.75058 0
M  V30 6358 H 615.661 2.92769 -2.30956 0
M  V30 6359 N 617.846 1.41785 0.688094 0
M  V30 6360 C 619.257 1.3701 1.26828 0
M  V30 6361 C 619.608 0.056835 1.96118 0
M  V30 6362 O 618.733 -0.84475 1.99231 0
M  V30 6363 C 619.328 2.48168 2.30648 0
M  V30 6364 C 617.887 2.46766 2.84224 0
M  V30 6365 C 617.034 2.27633 1.58361 0
M  V30 6366 H 619.985 1.51192 0.482351 0
M  V30 6367 H 620.006 2.17655 3.121 0
M  V30 6368 H 619.518 3.43735 1.80188 0
M  V30 6369 H 617.619 1.54978 3.3884 0
M  V30 6370 H 617.732 3.43342 3.34145 0
M  V30 6371 H 616.096 1.75648 1.84445 0
M  V30 6372 H 616.879 3.25238 1.09887 0
M  V30 6373 N 619.324 -0.923095 1.27737 0
M  V30 6374 C 620.573 -1.66581 1.13727 0
M  V30 6375 C 620.886 -1.9304 -0.315433 0
M  V30 6376 O 622.092 -2.65309 -0.57651 0
M  V30 6377 C 620.548 -3.00047 1.98745 0
M  V30 6378 C 620.156 -2.8127 3.48699 0
M  V30 6379 C 621.9 -3.77887 1.93395 0
M  V30 6380 C 619.807 -4.1032 4.25901 0
M  V30 6381 H 618.737 -0.624834 0.422017 0
M  V30 6382 H 621.388 -1.02514 1.52194 0
M  V30 6383 H 619.77 -3.65197 1.53125 0
M  V30 6384 H 620.944 -2.24859 4.02213 0
M  V30 6385 H 619.259 -2.16854 3.55476 0
M  V30 6386 H 621.856 -4.73526 2.48348 0
M  V30 6387 H 622.199 -4.06264 0.908605 0
M  V30 6388 H 622.732 -3.19541 2.36935 0
M  V30 6389 H 619.471 -3.8712 5.28978 0
M  V30 6390 H 618.991 -4.66377 3.77163 0
M  V30 6391 H 620.67 -4.78648 4.35321 0
M  V30 6392 N 620.802 -1.09834 -1.13024 0
M  V30 6393 C 621.732 -0.763451 -2.20666 0
M  V30 6394 C 622.713 0.260778 -1.68089 0
M  V30 6395 O 623.898 0.127915 -1.93778 0
M  V30 6396 C 621.028 -0.187744 -3.46792 0
M  V30 6397 C 619.982 -1.14196 -4.12484 0
M  V30 6398 C 619.308 -0.427755 -5.32986 0
M  V30 6399 C 620.608 -2.48607 -4.59338 0
M  V30 6400 H 622.302 -1.66347 -2.48936 0
M  V30 6401 H 619.848 -0.801261 -1.19649 0
M  V30 6402 H 621.801 0.0586375 -4.21359 0
M  V30 6403 H 620.525 0.747485 -3.17931 0
M  V30 6404 H 619.184 -1.37369 -3.3989 0
M  V30 6405 H 618.832 0.511747 -5.0039 0
M  V30 6406 H 618.532 -1.06403 -5.77886 0
M  V30 6407 H 620.056 -0.189772 -6.10305 0
M  V30 6408 H 621.47 -2.29618 -5.25308 0
M  V30 6409 H 619.867 -3.08062 -5.14993 0
M  V30 6410 H 620.937 -3.09062 -3.73642 0
M  V30 6411 N 622.28 1.30327 -0.886154 0
M  V30 6412 C 623.21 2.30549 -0.370028 0
M  V30 6413 C 624.191 1.61039 0.547751 0
M  V30 6414 O 625.376 1.8864 0.461353 0
M  V30 6415 C 622.506 3.44808 0.415275 0
M  V30 6416 C 621.46 4.26024 -0.41085 0
M  V30 6417 C 620.786 5.32347 0.501128 0
M  V30 6418 C 622.086 4.95433 -1.65359 0
M  V30 6419 H 623.78 2.73969 -1.20754 0
M  V30 6420 H 621.326 1.3171 -0.582097 0
M  V30 6421 H 623.279 4.13986 0.78699 0
M  V30 6422 H 622.003 3.00197 1.28644 0
M  V30 6423 H 620.662 3.58535 -0.764719 0
M  V30 6424 H 620.31 4.83982 1.37004 0
M  V30 6425 H 620.01 5.87581 -0.0478356 0
M  V30 6426 H 621.534 6.0438 0.869333 0
M  V30 6427 H 622.948 5.5712 -1.35239 0
M  V30 6428 H 621.345 5.60537 -2.14284 0
M  V30 6429 H 622.415 4.21493 -2.39733 0
M  V30 6430 N 623.758 0.647228 1.43697 0
M  V30 6431 C 624.721 -0.0385101 2.29168 0
M  V30 6432 C 625.721 -0.756487 1.41894 0
M  V30 6433 O 626.911 -0.598641 1.63591 0
M  V30 6434 C 624.043 -1.06524 3.23829 0
M  V30 6435 H 625.236 0.713445 2.9129 0
M  V30 6436 H 622.789 0.408153 1.50877 0
M  V30 6437 H 623.524 -1.84664 2.66589 0
M  V30 6438 H 623.309 -0.554147 3.88164 0
M  V30 6439 H 624.799 -1.54432 3.87996 0
M  V30 6440 N 625.236 -1.5273 0.388769 0
M  V30 6441 C 626.484 -2.01174 -0.193208 0
M  V30 6442 C 626.805 -1.27705 -1.47365 0
M  V30 6443 O 626.075 -0.396966 -1.91836 0
M  V30 6444 H 624.655 -0.743287 -0.0743871 0
M  V30 6445 H 627.317 -1.87826 0.520336 0
M  V30 6446 H 626.413 -3.09477 -0.403803 0
M  V30 6447 N 626.714 -0.118576 -1.57153 0
M  V30 6448 C 627.647 0.869046 -2.11004 0
M  V30 6449 C 628.625 1.26115 -1.02634 0
M  V30 6450 O 629.809 1.36228 -1.30285 0
M  V30 6451 C 626.936 2.16297 -2.6064 0
M  V30 6452 C 625.982 1.91896 -3.80891 0
M  V30 6453 S 626.815 1.13562 -5.2332 0
M  V30 6454 C 627.971 2.44135 -5.76324 0
M  V30 6455 H 628.204 0.411005 -2.94445 0
M  V30 6456 H 625.737 0.0951891 -1.54106 0
M  V30 6457 H 627.695 2.90642 -2.89892 0
M  V30 6458 H 626.356 2.59219 -1.77382 0
M  V30 6459 H 625.549 2.8777 -4.13768 0
M  V30 6460 H 625.151 1.25672 -3.52253 0
M  V30 6461 H 627.443 3.39976 -5.86022 0
M  V30 6462 H 628.386 2.15803 -6.74414 0
M  V30 6463 H 628.794 2.53483 -5.04387 0
M  V30 6464 N 628.193 1.56834 0.155195 0
M  V30 6465 C 629.421 1.87049 0.884326 0
M  V30 6466 C 629.836 0.705839 1.7511 0
M  V30 6467 O 629.193 -0.324641 1.79589 0
M  V30 6468 C 629.244 3.1644 1.74781 0
M  V30 6469 O 628.965 4.28417 0.915978 0
M  V30 6470 C 630.466 3.60113 2.58522 0
M  V30 6471 H 627.686 0.620196 0.25612 0
M  V30 6472 H 630.23 2.03946 0.150445 0
M  V30 6473 H 628.385 3.01321 2.43484 0
M  V30 6474 H 628.799 5.02353 1.50803 0
M  V30 6475 H 630.273 4.53508 3.14698 0
M  V30 6476 H 630.75 2.85005 3.34169 0
M  V30 6477 H 631.356 3.77898 1.95124 0
M  V30 6478 N 629.671 -0.424282 1.51781 0
M  V30 6479 C 631.082 -1.00368 1.57427 0
M  V30 6480 C 631.433 -1.91962 0.40558 0
M  V30 6481 O 630.558 -2.111 -0.47601 0
M  V30 6482 C 631.153 -1.82707 2.85313 0
M  V30 6483 C 629.712 -2.35675 2.93487 0
M  V30 6484 C 628.859 -1.1524 2.5222 0
M  V30 6485 H 631.81 -0.205064 1.5737 0
M  V30 6486 H 631.831 -2.68294 2.69812 0
M  V30 6487 H 631.343 -1.16017 3.70353 0
M  V30 6488 H 629.444 -3.05781 2.12906 0
M  V30 6489 H 629.557 -2.67578 3.97415 0
M  V30 6490 H 627.921 -1.50174 2.05718 0
M  V30 6491 H 628.704 -0.5014 3.39619 0
M  V30 6492 N 631.149 -1.42148 -0.680565 0
M  V30 6493 C 632.377 -1.45696 -1.46902 0
M  V30 6494 C 632.792 -0.0665858 -1.88683 0
M  V30 6495 O 632.149 0.917436 -1.57764 0
M  V30 6496 C 632.2 -2.37898 -2.72188 0
M  V30 6497 O 631.921 -3.71526 -2.32163 0
M  V30 6498 C 633.422 -2.50407 -3.65802 0
M  V30 6499 H 630.642 -0.495729 -0.45221 0
M  V30 6500 H 633.186 -1.866 -0.836709 0
M  V30 6501 H 631.341 -2.00263 -3.31622 0
M  V30 6502 H 631.755 -4.20849 -3.13027 0
M  V30 6503 H 633.229 -3.19056 -4.50452 0
M  V30 6504 H 633.706 -1.5401 -4.11312 0
M  V30 6505 H 634.312 -2.8874 -3.12265 0
M  V30 6506 N 632.627 0.916307 -1.28225 0
M  V30 6507 C 633.855 1.69901 -1.18073 0
M  V30 6508 C 634.27 1.86988 0.260968 0
M  V30 6509 O 633.627 1.39505 1.17663 0
M  V30 6510 C 633.678 3.09254 -1.87201 0
M  V30 6511 O 633.399 2.92959 -3.2574 0
M  V30 6512 C 634.9 4.0362 -1.83319 0
M  V30 6513 H 632.12 0.531181 -0.409985 0
M  V30 6514 H 634.664 1.14703 -1.69303 0
M  V30 6515 H 632.819 3.61277 -1.39848 0
M  V30 6516 H 633.233 3.81139 -3.60324 0
M  V30 6517 H 634.707 4.98873 -2.36282 0
M  V30 6518 H 635.184 4.3176 -0.805007 0
M  V30 6519 H 635.79 3.57524 -2.3034 0
M  V30 6520 N 634.105 1.10431 1.1244 0
M  V30 6521 C 635.351 0.847972 1.84221 0
M  V30 6522 C 635.684 -0.624903 1.83871 0
M  V30 6523 O 634.959 -1.46074 1.28423 0
M  V30 6524 C 635.242 1.39695 3.319 0
M  V30 6525 C 635.095 2.93668 3.40704 0
M  V30 6526 C 636.414 1.03924 4.27654 0
M  V30 6527 H 633.533 0.309502 0.668863 0
M  V30 6528 H 636.175 1.36745 1.31912 0
M  V30 6529 H 634.325 0.955095 3.76577 0
M  V30 6530 H 635.997 3.46379 3.04662 0
M  V30 6531 H 634.24 3.30272 2.81252 0
M  V30 6532 H 634.911 3.27162 4.446 0
M  V30 6533 H 637.387 1.42049 3.91102 0
M  V30 6534 H 636.263 1.45027 5.29394 0
M  V30 6535 H 636.524 -0.051336 4.4207 0
M  V30 6536 N 635.583 -1.29855 0.893053 0
M  V30 6537 C 636.86 -1.90694 0.435336 0
M  V30 6538 C 637.24 -1.8111 -1.08454 0
M  V30 6539 O 636.588 -1.23352 -1.92345 0
M  V30 6540 C 636.798 -3.36033 0.942472 0
M  V30 6541 C 638.146 -4.13083 0.982226 0
M  V30 6542 O 639.17 -3.4491 0.889686 0
M  V30 6543 O 638.029 -5.34896 1.12022 0
M  V30 6544 H 635.123 -0.815978 0.134567 0
M  V30 6545 H 637.669 -1.38367 0.982484 0
M  V30 6546 H 636.441 -3.37132 1.9864 0
M  V30 6547 H 636.064 -3.95828 0.374952 0
M  V30 6548 N 637.061 -0.65484 -1.43351 0
M  V30 6549 C 638.024 0.0263562 -2.29185 0
M  V30 6550 C 639.024 0.748951 -1.42293 0
M  V30 6551 O 640.214 0.589957 -1.63906 0
M  V30 6552 C 637.346 1.04806 -3.2439 0
M  V30 6553 H 638.539 -0.728883 -2.90908 0
M  V30 6554 H 636.092 -0.416149 -1.50658 0
M  V30 6555 H 636.827 1.83247 -2.67565 0
M  V30 6556 H 636.612 0.533554 -3.88453 0
M  V30 6557 H 638.102 1.52372 -3.88809 0
M  V30 6558 N 638.539 1.52521 -0.396863 0
M  V30 6559 C 639.486 2.26671 0.434624 0
M  V30 6560 C 640.456 1.28584 1.05144 0
M  V30 6561 O 641.641 1.57426 1.07804 0
M  V30 6562 C 638.781 3.08234 1.55196 0
M  V30 6563 C 637.894 4.21261 0.957262 0
M  V30 6564 C 637.029 4.90205 2.04627 0
M  V30 6565 C 636.068 5.95213 1.42787 0
M  V30 6566 N 635.205 6.57723 2.45651 0
M  V30 6567 H 640.045 2.973 -0.204139 0
M  V30 6568 H 637.582 1.46669 -0.112505 0
M  V30 6569 H 639.54 3.53819 2.2106 0
M  V30 6570 H 638.17 2.398 2.16092 0
M  V30 6571 H 637.222 3.79935 0.188005 0
M  V30 6572 H 638.534 4.96624 0.465416 0
M  V30 6573 H 637.688 5.39133 2.78246 0
M  V30 6574 H 636.427 4.14383 2.57174 0
M  V30 6575 H 635.432 5.45616 0.676968 0
M  V30 6576 H 636.657 6.72972 0.910255 0
M  V30 6577 H 634.603 5.84737 2.97353 0
M  V30 6578 H 634.52 7.28723 2.01243 0
M  V30 6579 H 635.788 7.11293 3.18876 0
M  V30 6580 N 640.017 0.126909 1.57088 0
M  V30 6581 C 641.266 -0.529024 1.94639 0
M  V30 6582 C 641.579 -1.67323 1.01304 0
M  V30 6583 O 642.785 -2.39245 1.28352 0
M  V30 6584 C 641.241 -0.992483 3.45945 0
M  V30 6585 C 640.849 0.123691 4.47829 0
M  V30 6586 C 642.593 -1.61934 3.924 0
M  V30 6587 C 640.5 -0.356911 5.90322 0
M  V30 6588 H 639.43 -0.201397 0.726605 0
M  V30 6589 H 642.081 0.208032 1.82317 0
M  V30 6590 H 640.463 -1.7842 3.53528 0
M  V30 6591 H 641.637 0.900168 4.51922 0
M  V30 6592 H 639.952 0.657699 4.11173 0
M  V30 6593 H 642.549 -1.9902 4.96281 0
M  V30 6594 H 642.892 -2.50075 3.32819 0
M  V30 6595 H 643.425 -0.892894 3.8765 0
M  V30 6596 H 640.164 0.488636 6.53676 0
M  V30 6597 H 639.684 -1.0997 5.89633 0
M  V30 6598 H 641.363 -0.815547 6.41839 0
M  V30 6599 N 641.495 -1.56914 -0.146875 0
M  V30 6600 C 642.741 -1.83628 -0.860741 0
M  V30 6601 C 643.074 -0.708528 -1.80813 0
M  V30 6602 O 642.349 0.287838 -1.92358 0
M  V30 6603 C 642.632 -3.20836 -1.63511 0
M  V30 6604 C 642.485 -4.44174 -0.709199 0
M  V30 6605 C 643.804 -3.55268 -2.59756 0
M  V30 6606 H 640.923 -0.667949 -0.311468 0
M  V30 6607 H 643.565 -1.89582 -0.125936 0
M  V30 6608 H 641.715 -3.15891 -2.26153 0
M  V30 6609 H 643.387 -4.61205 -0.0937781 0
M  V30 6610 H 641.63 -4.33796 -0.0187856 0
M  V30 6611 H 642.301 -5.36785 -1.28707 0
M  V30 6612 H 644.777 -3.60824 -2.07232 0
M  V30 6613 H 643.653 -4.52303 -3.10987 0
M  V30 6614 H 643.914 -2.81231 -3.41118 0
M  V30 6615 N 642.974 0.416227 -1.52004 0
M  V30 6616 C 643.937 1.48926 -1.74223 0
M  V30 6617 C 644.937 1.48693 -0.612119 0
M  V30 6618 O 646.127 1.50343 -0.879921 0
M  V30 6619 C 643.259 2.88372 -1.81809 0
M  V30 6620 H 644.452 1.3052 -2.70008 0
M  V30 6621 H 642.005 0.646271 -1.42313 0
M  V30 6622 H 642.74 3.12157 -0.879135 0
M  V30 6623 H 642.525 2.89944 -2.6396 0
M  V30 6624 H 644.015 3.66173 -2.00766 0
M  V30 6625 N 644.452 1.42507 0.673017 0
M  V30 6626 C 645.415 1.4582 1.76831 0
M  V30 6627 C 646.415 0.345542 1.57043 0
M  V30 6628 O 647.605 0.606447 1.63303 0
M  V30 6629 C 644.737 1.29158 3.15485 0
M  V30 6630 H 645.93 2.43345 1.7528 0
M  V30 6631 H 643.483 1.28981 0.882817 0
M  V30 6632 H 644.218 0.325626 3.22661 0
M  V30 6633 H 644.003 2.09797 3.31252 0
M  V30 6634 H 645.493 1.34363 3.95394 0
M  V30 6635 N 645.93 -0.909495 1.28709 0
M  V30 6636 C 646.893 -1.99399 1.13016 0
M  V30 6637 C 647.893 -1.60654 0.068536 0
M  V30 6638 O 649.083 -1.71334 0.314671 0
M  V30 6639 C 646.215 -3.33078 0.726085 0
M  V30 6640 H 647.408 -2.14751 2.09338 0
M  V30 6641 H 644.961 -1.09272 1.11756 0
M  V30 6642 H 645.696 -3.23428 -0.23771 0
M  V30 6643 H 645.481 -3.62562 1.49302 0
M  V30 6644 H 646.971 -4.12681 0.639058 0
M  V30 6645 N 647.408 -1.11026 -1.11852 0
M  V30 6646 C 648.371 -0.768006 -2.1595 0
M  V30 6647 C 649.371 0.210538 -1.59416 0
M  V30 6648 O 650.561 -0.0133978 -1.74195 0
M  V30 6649 C 647.693 -0.138678 -3.40618 0
M  V30 6650 H 648.886 -1.69012 -2.4774 0
M  V30 6651 H 646.439 -0.911578 -1.26964 0
M  V30 6652 H 647.174 0.793872 -3.14433 0
M  V30 6653 H 646.959 -0.843012 -3.8293 0
M  V30 6654 H 648.449 0.0848039 -4.17514 0
M  V30 6655 N 648.886 1.2938 -0.899927 0
M  V30 6656 C 649.834 2.29675 -0.367698 0
M  V30 6657 C 650.828 1.60787 0.533282 0
M  V30 6658 O 652.034 1.75126 0.416058 0
M  V30 6659 H 648.409 0.745284 -0.100279 0
M  V30 6660 H 650.38 2.72008 -1.22696 0
M  V30 6661 C 649.129 3.45512 0.389483 0
M  V30 6662 H 648.452 3.98713 -0.294575 0
M  V30 6663 H 649.892 4.17725 0.726744 0
M  V30 6664 C 648.351 2.969 1.59223 0
M  V30 6665 O 648.881 2.98195 2.69152 0
M  V30 6666 N 647.087 2.52728 1.43447 0
M  V30 6667 H 646.634 2.51873 0.540148 0
M  V30 6668 H 646.592 2.20561 2.24054 0
M  V30 6669 N 650.364 0.662433 1.43002 0
M  V30 6670 C 651.327 -0.0142016 2.29196 0
M  V30 6671 C 652.327 -0.741394 1.42688 0
M  V30 6672 O 653.517 -0.581257 1.64216 0
M  V30 6673 C 650.649 -1.03084 3.24941 0
M  V30 6674 H 651.842 0.7443 2.90517 0
M  V30 6675 H 649.395 0.424133 1.50435 0
M  V30 6676 H 650.13 -1.81826 2.68533 0
M  V30 6677 H 649.915 -0.512946 3.8873 0
M  V30 6678 H 651.405 -1.50308 3.89612 0
M  V30 6679 N 651.842 -1.52309 0.404946 0
M  V30 6680 C 653.09 -2.01368 -0.17186 0
M  V30 6681 C 653.411 -1.29261 -1.46002 0
M  V30 6682 O 652.681 -0.41729 -1.91404 0
M  V30 6683 H 651.261 -0.744034 -0.0664993 0
M  V30 6684 H 653.923 -1.87263 0.540228 0
M  V30 6685 H 653.019 -3.09888 -0.370957 0
M  V30 6686 N 653.32 -0.135238 -1.57019 0
M  V30 6687 C 654.27 0.820408 -2.12728 0
M  V30 6688 C 655.254 1.21735 -1.05211 0
M  V30 6689 O 656.446 1.18574 -1.31413 0
M  V30 6690 C 653.575 2.06414 -2.74314 0
M  V30 6691 C 652.661 1.69083 -3.88937 0
M  V30 6692 N 653.052 1.0251 -4.95303 0
M  V30 6693 C 651.35 1.98434 -3.99425 0
M  V30 6694 C 652.051 0.846749 -5.75504 0
M  V30 6695 N 651.027 1.3769 -5.25873 0
M  V30 6696 H 654.829 0.302426 -2.9234 0
M  V30 6697 H 652.343 0.0667009 -1.62263 0
M  V30 6698 H 654.34 2.75863 -3.12579 0
M  V30 6699 H 653 2.58741 -1.96171 0
M  V30 6700 H 654.011 0.687207 -5.1332 0
M  V30 6701 H 650.688 2.52693 -3.32344 0
M  V30 6702 H 652.078 0.322949 -6.71123 0
M  V30 6703 N 654.798 1.5699 0.138552 0
M  V30 6704 C 656.044 1.84966 0.846116 0
M  V30 6705 C 656.399 0.72038 1.78405 0
M  V30 6706 O 655.692 -0.281076 1.89527 0
M  V30 6707 C 655.886 3.17007 1.65049 0
M  V30 6708 C 655.715 4.42672 0.79194 0
M  V30 6709 C 654.485 5.03254 0.454293 0
M  V30 6710 C 656.683 5.14164 0.118419 0
M  V30 6711 N 654.665 6.12482 -0.416964 0
M  V30 6712 C 656.036 6.16966 -0.61263 0
M  V30 6713 C 658.091 4.97884 0.0399671 0
M  V30 6714 C 656.794 7.0525 -1.41473 0
M  V30 6715 C 658.82 5.86639 -0.748901 0
M  V30 6716 C 658.182 6.88929 -1.4682 0
M  V30 6717 H 654.281 0.727362 0.287172 0
M  V30 6718 H 656.865 1.94383 0.110972 0
M  V30 6719 H 655.036 3.08722 2.35681 0
M  V30 6720 H 656.768 3.3286 2.30187 0
M  V30 6721 H 653.523 4.6693 0.792038 0
M  V30 6722 H 653.947 6.7172 -0.843865 0
M  V30 6723 H 658.589 4.18779 0.581728 0
M  V30 6724 H 656.307 7.83777 -1.96772 0
M  V30 6725 H 659.893 5.7611 -0.811705 0
M  V30 6726 H 658.773 7.56419 -2.06882 0
M  V30 6727 N 656.276 -0.40816 1.52223 0
M  V30 6728 C 657.239 -1.48 1.7501 0
M  V30 6729 C 658.239 -1.48367 0.619996 0
M  V30 6730 O 659.429 -1.49874 0.887881 0
M  V30 6731 C 656.561 -2.87403 1.83336 0
M  V30 6732 H 657.754 -1.29086 2.70697 0
M  V30 6733 H 655.307 -0.638715 1.42654 0
M  V30 6734 H 656.042 -3.11686 0.895677 0
M  V30 6735 H 655.827 -2.8854 2.65494 0
M  V30 6736 H 657.317 -3.65103 2.02705 0
M  V30 6737 N 657.755 -1.42862 -0.66545 0
M  V30 6738 C 658.665 -1.49491 -1.80803 0
M  V30 6739 C 659.681 -0.382914 -1.69734 0
M  V30 6740 O 660.857 -0.635223 -1.9112 0
M  V30 6741 C 657.922 -1.40383 -3.17007 0
M  V30 6742 C 656.983 -2.62152 -3.39963 0
M  V30 6743 C 656.216 -2.53469 -4.69669 0
M  V30 6744 O 656.439 -1.57568 -5.48205 0
M  V30 6745 O 655.373 -3.43763 -4.94075 0
M  V30 6746 H 659.199 -2.45949 -1.78165 0
M  V30 6747 H 656.784 -1.24728 -0.822387 0
M  V30 6748 H 658.666 -1.377 -3.98267 0
M  V30 6749 H 657.341 -0.470546 -3.20262 0
M  V30 6750 H 656.248 -2.70409 -2.58515 0
M  V30 6751 H 657.581 -3.54411 -3.41546 0
M  V30 6752 N 659.233 0.902656 -1.29189 0
M  V30 6753 C 660.163 2.02294 -1.16616 0
M  V30 6754 C 661.144 1.6999 -0.0611175 0
M  V30 6755 O 662.329 1.9271 -0.240072 0
M  V30 6756 C 659.459 3.37018 -0.83882 0
M  V30 6757 C 658.413 3.83522 -1.89986 0
M  V30 6758 C 657.739 5.15337 -1.42589 0
M  V30 6759 C 659.039 4.04169 -3.30824 0
M  V30 6760 H 660.733 2.13071 -2.10336 0
M  V30 6761 H 658.279 1.02378 -1.01266 0
M  V30 6762 H 660.232 4.14895 -0.737584 0
M  V30 6763 H 658.956 3.26325 0.134071 0
M  V30 6764 H 657.615 3.07859 -1.99043 0
M  V30 6765 H 657.263 5.01056 -0.441759 0
M  V30 6766 H 656.963 5.47423 -2.13547 0
M  V30 6767 H 658.487 5.95758 -1.3381 0
M  V30 6768 H 659.901 4.72537 -3.24626 0
M  V30 6769 H 658.298 4.47604 -3.99713 0
M  V30 6770 H 659.368 3.08604 -3.74021 0
M  V30 6771 N 660.711 1.11618 1.11262 0
M  V30 6772 C 661.674 0.779447 2.15539 0
M  V30 6773 C 662.674 -0.202081 1.59525 0
M  V30 6774 O 663.864 0.0226356 1.74185 0
M  V30 6775 C 660.996 0.15674 3.40539 0
M  V30 6776 H 662.189 1.70324 2.4684 0
M  V30 6777 H 659.742 0.918298 1.26479 0
M  V30 6778 H 660.477 -0.777186 3.1485 0
M  V30 6779 H 660.262 0.863308 3.82478 0
M  V30 6780 H 661.752 -0.062661 4.17553 0
M  V30 6781 N 662.189 -1.289 0.906776 0
M  V30 6782 C 663.437 -1.94883 0.535266 0
M  V30 6783 C 663.758 -1.71784 -0.922791 0
M  V30 6784 O 663.028 -1.05359 -1.65156 0
M  V30 6785 H 661.608 -0.721109 0.194962 0
M  V30 6786 H 664.27 -1.57018 1.15461 0
M  V30 6787 H 663.366 -3.03591 0.723821 0
M  V30 6788 N 663.667 -0.670007 -1.42649 0
M  V30 6789 C 664.915 -0.18991 -2.01206 0
M  V30 6790 C 665.236 1.20617 -1.53221 0
M  V30 6791 O 664.506 1.80898 -0.751856 0
M  V30 6792 H 663.086 -0.0672189 -0.743969 0
M  V30 6793 H 665.748 -0.865442 -1.74631 0
M  V30 6794 H 664.844 -0.187481 -3.11536 0
M  V30 6795 N 665.145 1.52092 -0.413018 0
M  V30 6796 C 666.393 2.01456 0.161178 0
M  V30 6797 C 666.714 1.30034 1.45314 0
M  V30 6798 O 665.984 0.427435 1.9118 0
M  V30 6799 H 664.564 0.744376 0.0625526 0
M  V30 6800 H 667.226 1.86974 -0.550151 0
M  V30 6801 H 666.322 3.1008 0.354517 0
M  V30 6802 N 666.623 0.143563 1.56945 0
M  V30 6803 C 667.555 -0.828353 2.13708 0
M  V30 6804 C 668.568 -1.21313 1.08568 0
M  V30 6805 O 669.757 -1.1578 1.35857 0
M  V30 6806 C 666.857 -2.12248 2.64204 0
M  V30 6807 C 666.03 -1.90561 3.93707 0
M  V30 6808 C 665.089 -3.03931 4.29549 0
M  V30 6809 O 664.115 -2.75772 4.97934 0
M  V30 6810 N 665.317 -4.31016 3.88852 0
M  V30 6811 H 668.082 -0.343242 2.97728 0
M  V30 6812 H 665.643 -0.0401152 1.6185 0
M  V30 6813 H 667.635 -2.87132 2.85197 0
M  V30 6814 H 666.205 -2.52033 1.84928 0
M  V30 6815 H 665.425 -0.997327 3.81375 0
M  V30 6816 H 666.713 -1.73405 4.78339 0
M  V30 6817 H 666.111 -4.56762 3.33743 0
M  V30 6818 H 664.668 -5.02691 4.14903 0
M  V30 6819 N 668.101 -1.57061 -0.130224 0
M  V30 6820 C 669.347 -1.8453 -0.841216 0
M  V30 6821 C 669.68 -0.727666 -1.80052 0
M  V30 6822 O 668.955 0.267419 -1.92653 0
M  V30 6823 C 669.238 -3.22553 -1.60099 0
M  V30 6824 C 669.091 -4.44901 -0.662048 0
M  V30 6825 C 670.41 -3.58003 -2.55973 0
M  V30 6826 H 667.529 -0.671215 -0.304366 0
M  V30 6827 H 670.171 -1.89705 -0.105821 0
M  V30 6828 H 668.321 -3.18272 -2.22789 0
M  V30 6829 H 669.993 -4.61278 -0.0448559 0
M  V30 6830 H 668.236 -4.33791 0.0272253 0
M  V30 6831 H 668.907 -5.3812 -1.23006 0
M  V30 6832 H 671.383 -3.63002 -2.03393 0
M  V30 6833 H 670.259 -4.55576 -3.06172 0
M  V30 6834 H 670.52 -2.84833 -3.38116 0
M  V30 6835 N 669.579 0.400081 -1.52437 0
M  V30 6836 C 670.807 1.16768 -1.70801 0
M  V30 6837 C 671.222 1.84036 -0.421462 0
M  V30 6838 O 670.579 1.72242 0.603228 0
M  V30 6839 C 670.63 2.22403 -2.8499 0
M  V30 6840 O 670.351 1.57879 -4.08663 0
M  V30 6841 C 671.852 3.11974 -3.1494 0
M  V30 6842 H 669.072 0.350533 -0.57216 0
M  V30 6843 H 671.616 0.469534 -1.99037 0
M  V30 6844 H 669.771 2.87871 -2.59247 0
M  V30 6845 H 670.185 2.27982 -4.7236 0
M  V30 6846 H 671.659 3.82148 -3.9833 0
M  V30 6847 H 672.136 3.74858 -2.28863 0
M  V30 6848 H 672.742 2.52165 -3.42481 0
M  V30 6849 N 671.057 1.43213 0.657864 0
M  V30 6850 C 671.967 1.50448 1.80007 0
M  V30 6851 C 672.983 0.39191 1.69529 0
M  V30 6852 O 674.159 0.645349 1.90781 0
M  V30 6853 C 671.224 1.42062 3.16258 0
M  V30 6854 C 670.285 2.63951 3.38568 0
M  V30 6855 C 669.518 2.55956 4.68318 0
M  V30 6856 O 669.741 1.60473 5.47361 0
M  V30 6857 O 668.675 3.46378 4.92245 0
M  V30 6858 H 672.501 2.4689 1.76858 0
M  V30 6859 H 670.086 1.25163 0.81576 0
M  V30 6860 H 671.968 1.3981 3.97531 0
M  V30 6861 H 670.643 0.487524 3.20008 0
M  V30 6862 H 669.55 2.71776 2.57077 0
M  V30 6863 H 670.883 3.56217 3.39662 0
M  V30 6864 N 672.536 -0.895792 1.29666 0
M  V30 6865 C 673.446 -2.03329 1.17024 0
M  V30 6866 C 674.462 -1.73753 0.0925962 0
M  V30 6867 O 675.638 -1.99071 0.305431 0
M  V30 6868 C 672.703 -3.36072 0.851841 0
M  V30 6869 C 671.764 -3.7914 2.01373 0
M  V30 6870 C 670.997 -5.05549 1.71043 0
M  V30 6871 O 671.22 -5.66874 0.633213 0
M  V30 6872 O 670.154 -5.44764 2.5596 0
M  V30 6873 H 673.98 -2.16918 2.12556 0
M  V30 6874 H 671.565 -1.02007 1.09156 0
M  V30 6875 H 673.447 -4.15729 0.689006 0
M  V30 6876 H 672.122 -3.23616 -0.0736634 0
M  V30 6877 H 671.029 -3.00233 2.23183 0
M  V30 6878 H 672.362 -3.96186 2.92058 0
M  V30 6879 N 674.014 -1.12206 -1.10668 0
M  V30 6880 C 675.263 -0.870595 -1.81944 0
M  V30 6881 C 675.576 0.605447 -1.85994 0
M  V30 6882 O 676.782 0.973433 -2.53449 0
M  V30 6883 C 675.238 -1.50783 -3.26791 0
M  V30 6884 C 674.846 -3.01849 -3.31046 0
M  V30 6885 C 676.59 -1.33653 -4.02911 0
M  V30 6886 C 674.497 -3.58518 -4.70339 0
M  V30 6887 H 673.427 -0.322043 -0.681765 0
M  V30 6888 H 676.078 -1.34827 -1.24475 0
M  V30 6889 H 674.46 -0.957825 -3.84242 0
M  V30 6890 H 675.634 -3.63321 -2.83433 0
M  V30 6891 H 673.949 -3.18346 -2.68411 0
M  V30 6892 H 676.546 -1.73416 -5.05797 0
M  V30 6893 H 676.889 -0.279949 -4.15358 0
M  V30 6894 H 677.422 -1.85562 -3.51868 0
M  V30 6895 H 674.161 -4.63925 -4.63091 0
M  V30 6896 H 673.681 -3.01819 -5.18329 0
M  V30 6897 H 675.36 -3.57434 -5.39305 0
M  V30 6898 N 675.492 1.28418 -0.913599 0
M  V30 6899 C 676.739 1.94981 -0.546674 0
M  V30 6900 C 677.067 1.7192 0.909606 0
M  V30 6901 O 676.322 1.03314 1.66207 0
M  V30 6902 C 676.621 3.48283 -0.802099 0
M  V30 6903 C 676.287 3.91444 -2.2379 0
M  V30 6904 C 674.949 4.02939 -2.63046 0
M  V30 6905 C 677.301 4.13542 -3.17227 0
M  V30 6906 C 674.629 4.3391 -3.94891 0
M  V30 6907 C 676.981 4.45992 -4.48636 0
M  V30 6908 C 675.645 4.55698 -4.87746 0
M  V30 6909 H 674.915 0.713487 -0.200042 0
M  V30 6910 H 677.562 1.52756 -1.15489 0
M  V30 6911 H 675.867 3.91643 -0.111076 0
M  V30 6912 H 677.564 3.97903 -0.497375 0
M  V30 6913 H 674.154 3.83024 -1.9233 0
M  V30 6914 H 678.338 4.04114 -2.88107 0
M  V30 6915 H 673.594 4.39631 -4.24894 0
M  V30 6916 H 677.768 4.62038 -5.21051 0
M  V30 6917 H 675.395 4.79451 -5.89942 0
M  V30 6918 N 676.97 0.677563 1.42291 0
M  V30 6919 C 678.218 0.200578 2.01102 0
M  V30 6920 C 678.539 -1.19803 1.53858 0
M  V30 6921 O 677.809 -1.80496 0.761439 0
M  V30 6922 H 676.389 0.0711634 0.743603 0
M  V30 6923 H 679.051 0.874691 1.7417 0
M  V30 6924 H 678.147 0.204 3.11433 0
M  V30 6925 N 678.448 -1.51871 0.421078 0
M  V30 6926 C 679.396 -2.28903 -0.413066 0
M  V30 6927 C 680.39 -1.3408 -1.03532 0
M  V30 6928 O 681.596 -1.5149 -0.972146 0
M  V30 6929 H 677.971 -0.736478 -0.152003 0
M  V30 6930 H 679.942 -2.97285 0.257695 0
M  V30 6931 C 678.691 -3.13156 -1.51091 0
M  V30 6932 H 678.014 -3.85997 -1.04145 0
M  V30 6933 H 679.454 -3.7014 -2.06814 0
M  V30 6934 C 677.913 -2.27482 -2.48503 0
M  V30 6935 O 678.443 -1.92325 -3.52667 0
M  V30 6936 N 676.649 -1.91019 -2.18998 0
M  V30 6937 H 676.196 -2.19808 -1.34322 0
M  V30 6938 H 676.154 -1.3399 -2.84419 0
M  V30 6939 N 679.926 -0.151884 -1.56866 0
M  V30 6940 C 681.342 0.204486 -1.58285 0
M  V30 6941 C 681.542 1.6431 -1.16639 0
M  V30 6942 O 680.598 2.37077 -0.868946 0
M  V30 6943 C 681.911 -0.0587019 -3.00643 0
M  V30 6944 C 683.459 0.00462303 -3.13 0
M  V30 6945 C 683.934 -0.231297 -4.57416 0
M  V30 6946 N 685.425 -0.178394 -4.62856 0
M  V30 6947 C 686.16 -0.335379 -5.72418 0
M  V30 6948 N 685.656 -0.550355 -6.90611 0
M  V30 6949 N 687.449 -0.272641 -5.61438 0
M  V30 6950 H 679.6 -1.09116 -1.82229 0
M  V30 6951 H 681.863 -0.432311 -0.843689 0
M  V30 6952 H 681.569 -1.05453 -3.35518 0
M  V30 6953 H 681.443 0.658508 -3.71407 0
M  V30 6954 H 683.83 0.991009 -2.77962 0
M  V30 6955 H 683.911 -0.744992 -2.44711 0
M  V30 6956 H 683.555 -1.2148 -4.93158 0
M  V30 6957 H 683.485 0.5387 -5.23837 0
M  V30 6958 H 685.976 -0.0170923 -3.77896 0
M  V30 6959 H 686.289 -0.660116 -7.69976 0
M  V30 6960 H 684.634 -0.586736 -6.92519 0
M  V30 6961 H 687.825 -0.105421 -4.67981 0
M  V30 6962 H 687.998 -0.398418 -6.46774 0
M  V30 6963 N 681.404 1.57128 0.121893 0
M  V30 6964 C 682.653 1.83888 0.828748 0
M  V30 6965 C 682.966 0.737087 1.81181 0
M  V30 6966 O 684.172 0.891007 2.56463 0
M  V30 6967 C 682.628 3.26014 1.52455 0
M  V30 6968 C 682.236 4.44195 0.58263 0
M  V30 6969 C 683.98 3.62025 2.21671 0
M  V30 6970 C 681.887 5.77349 1.28149 0
M  V30 6971 H 680.817 0.685856 0.313238 0
M  V30 6972 H 683.468 1.83319 0.0814851 0
M  V30 6973 H 681.85 3.21044 2.31834 0
M  V30 6974 H 683.024 4.60457 -0.177729 0
M  V30 6975 H 681.339 4.164 -0.00241228 0
M  V30 6976 H 683.936 4.58776 2.74643 0
M  V30 6977 H 684.279 2.89315 2.99337 0
M  V30 6978 H 684.812 3.68767 1.49184 0
M  V30 6979 H 681.551 6.53221 0.546189 0
M  V30 6980 H 681.071 5.64978 2.01394 0
M  V30 6981 H 682.75 6.21006 1.81549 0
M  V30 6982 N 682.882 -0.391992 1.52647 0
M  V30 6983 C 683.792 -1.503 1.80131 0
M  V30 6984 C 684.808 -1.59825 0.687882 0
M  V30 6985 O 685.984 -1.76218 0.975149 0
M  V30 6986 C 683.049 -2.85863 1.96171 0
M  V30 6987 C 682.11 -2.86084 3.20085 0
M  V30 6988 C 681.343 -4.15181 3.35351 0
M  V30 6989 O 681.566 -5.09981 2.55491 0
M  V30 6990 O 680.5 -4.22603 4.28591 0
M  V30 6991 H 684.326 -1.30007 2.74466 0
M  V30 6992 H 681.911 -0.579539 1.37701 0
M  V30 6993 H 683.793 -3.66236 2.08445 0
M  V30 6994 H 682.468 -3.06189 1.05025 0
M  V30 6995 H 681.375 -2.04504 3.13256 0
M  V30 6996 H 682.708 -2.7071 4.11068 0
M  V30 6997 N 684.36 -1.4356 -0.65026 0
M  V30 6998 C 685.292 -1.44918 -1.77571 0
M  V30 6999 C 686.305 -0.344925 -1.59104 0
M  V30 7000 O 687.494 -0.609537 -1.6777 0
M  V30 7001 C 684.594 -1.24914 -3.15039 0
M  V30 7002 C 683.767 -2.48232 -3.60138 0
M  V30 7003 C 682.826 -2.23409 -4.76419 0
M  V30 7004 O 681.852 -2.9678 -4.85706 0
M  V30 7005 N 683.054 -1.25259 -5.66825 0
M  V30 7006 H 685.819 -2.41935 -1.76883 0
M  V30 7007 H 683.38 -1.38754 -0.834202 0
M  V30 7008 H 685.372 -1.06185 -3.90521 0
M  V30 7009 H 683.942 -0.363319 -3.10481 0
M  V30 7010 H 683.162 -2.82366 -2.75069 0
M  V30 7011 H 684.45 -3.30296 -3.87017 0
M  V30 7012 H 683.848 -0.646246 -5.61997 0
M  V30 7013 H 682.405 -1.12513 -6.42016 0
M  V30 7014 N 685.838 0.888903 -1.30139 0
M  V30 7015 C 686.771 1.99655 -1.10514 0
M  V30 7016 C 687.749 1.62594 -0.0138934 0
M  V30 7017 O 688.933 1.87762 -0.166689 0
M  V30 7018 C 686.06 3.31708 -0.684655 0
M  V30 7019 C 685.106 3.87755 -1.77619 0
M  V30 7020 S 685.939 4.15532 -3.37777 0
M  V30 7021 C 687.095 5.5061 -2.97622 0
M  V30 7022 H 687.328 2.15996 -2.04287 0
M  V30 7023 H 684.861 1.03682 -1.14409 0
M  V30 7024 H 686.819 4.08039 -0.448782 0
M  V30 7025 H 685.48 3.1323 0.233648 0
M  V30 7026 H 684.673 4.83164 -1.43417 0
M  V30 7027 H 684.275 3.18149 -1.96614 0
M  V30 7028 H 686.567 6.31518 -2.45338 0
M  V30 7029 H 687.51 5.89747 -3.91924 0
M  V30 7030 H 687.918 5.12983 -2.35603 0
M  V30 7031 N 687.317 1.12792 1.10072 0
M  V30 7032 C 688.28 0.802264 2.14701 0
M  V30 7033 C 689.28 -0.18515 1.59731 0
M  V30 7034 O 690.47 0.041109 1.74151 0
M  V30 7035 C 687.602 0.19285 3.40354 0
M  V30 7036 H 688.795 1.72932 2.45019 0
M  V30 7037 H 686.348 0.931662 1.25498 0
M  V30 7038 H 687.083 -0.743748 3.15656 0
M  V30 7039 H 686.868 0.903827 3.81541 0
M  V30 7040 H 688.358 -0.0183704 4.17596 0
M  V30 7041 N 688.795 -1.27931 0.920396 0
M  V30 7042 C 690.043 -1.94304 0.555906 0
M  V30 7043 C 690.364 -1.72753 -0.904519 0
M  V30 7044 O 689.634 -1.07104 -1.64029 0
M  V30 7045 H 688.214 -0.719001 0.202599 0
M  V30 7046 H 690.876 -1.55785 1.1712 0
M  V30 7047 H 689.972 -3.02806 0.755981 0
M  V30 7048 N 690.273 -0.685099 -1.4193 0
M  V30 7049 C 691.203 -0.0273506 -2.33484 0
M  V30 7050 C 692.184 0.778366 -1.51246 0
M  V30 7051 O 693.369 0.733449 -1.79817 0
M  V30 7052 C 690.499 0.917272 -3.34968 0
M  V30 7053 C 689.453 0.21941 -4.27437 0
M  V30 7054 C 688.779 1.27768 -5.1921 0
M  V30 7055 C 690.079 -0.907894 -5.14349 0
M  V30 7056 H 691.773 -0.791994 -2.88735 0
M  V30 7057 H 689.319 -0.382308 -1.38832 0
M  V30 7058 H 691.272 1.38657 -3.97935 0
M  V30 7059 H 689.996 1.71346 -2.78043 0
M  V30 7060 H 688.655 -0.229757 -3.65879 0
M  V30 7061 H 688.303 2.06612 -4.58607 0
M  V30 7062 H 688.003 0.815803 -5.81909 0
M  V30 7063 H 689.527 1.7477 -5.85054 0
M  V30 7064 H 690.941 -0.519348 -5.70943 0
M  V30 7065 H 689.338 -1.2962 -5.85934 0
M  V30 7066 H 690.408 -1.75218 -4.52136 0
M  V30 7067 N 691.751 1.51645 -0.429126 0
M  V30 7068 C 692.681 2.30434 0.377148 0
M  V30 7069 C 693.662 1.35493 1.02838 0
M  V30 7070 O 694.847 1.6441 1.03359 0
M  V30 7071 C 691.977 3.14038 1.48315 0
M  V30 7072 C 690.931 4.1719 0.955855 0
M  V30 7073 C 690.257 4.89263 2.15698 0
M  V30 7074 C 691.557 5.223 -0.00402136 0
M  V30 7075 H 693.251 2.98085 -0.280336 0
M  V30 7076 H 690.797 1.43354 -0.136265 0
M  V30 7077 H 692.75 3.67933 2.05435 0
M  V30 7078 H 691.474 2.44193 2.16881 0
M  V30 7079 H 690.133 3.64335 0.406929 0
M  V30 7080 H 689.781 4.15929 2.82864 0
M  V30 7081 H 689.481 5.59009 1.81059 0
M  V30 7082 H 691.005 5.45978 2.73387 0
M  V30 7083 H 692.419 5.71315 0.476607 0
M  V30 7084 H 690.816 5.99525 -0.26258 0
M  V30 7085 H 691.886 4.75638 -0.943236 0
M  V30 7086 N 693.229 0.160201 1.56784 0
M  V30 7087 C 694.139 -0.787167 2.21 0
M  V30 7088 C 695.155 -1.26167 1.19825 0
M  V30 7089 O 696.331 -1.31611 1.52448 0
M  V30 7090 C 693.396 -2.00364 2.8294 0
M  V30 7091 C 692.457 -1.5771 3.99282 0
M  V30 7092 C 691.69 -2.73558 4.58259 0
M  V30 7093 O 691.913 -3.90129 4.16119 0
M  V30 7094 O 690.847 -2.48271 5.48311 0
M  V30 7095 H 694.673 -0.270462 3.02493 0
M  V30 7096 H 692.258 -0.0674666 1.49248 0
M  V30 7097 H 694.14 -2.71529 3.22257 0
M  V30 7098 H 692.815 -2.50961 2.04451 0
M  V30 7099 H 691.722 -0.835274 3.64656 0
M  V30 7100 H 693.055 -1.11815 4.79331 0
M  V30 7101 N 694.707 -1.5719 -0.113559 0
M  V30 7102 C 696.118 -1.74259 -0.670116 0
M  V30 7103 C 696.469 -0.779694 -1.80042 0
M  V30 7104 O 695.594 0.0461353 -2.16351 0
M  V30 7105 C 696.189 -3.15981 -1.22236 0
M  V30 7106 C 694.748 -3.34537 -1.72516 0
M  V30 7107 C 693.895 -2.70116 -0.627098 0
M  V30 7108 H 696.846 -1.58301 0.112396 0
M  V30 7109 H 696.867 -3.17832 -2.09197 0
M  V30 7110 H 696.379 -3.86038 -0.39949 0
M  V30 7111 H 694.48 -2.6953 -2.57263 0
M  V30 7112 H 694.593 -4.42737 -1.83086 0
M  V30 7113 H 692.957 -2.31501 -1.06204 0
M  V30 7114 H 693.74 -3.42802 0.184889 0
M  V30 7115 N 696.185 0.383891 -1.52853 0
M  V30 7116 C 697.433 1.12619 -1.67814 0
M  V30 7117 C 697.754 1.90354 -0.423141 0
M  V30 7118 O 697.024 1.87649 0.562554 0
M  V30 7119 H 695.604 0.418738 -0.618601 0
M  V30 7120 H 698.266 0.43495 -1.89985 0
M  V30 7121 H 697.362 1.82624 -2.5309 0
M  V30 7122 N 697.663 1.43903 0.642637 0
M  V30 7123 C 699.079 1.27536 0.959519 0
M  V30 7124 C 699.279 0.202751 2.00477 0
M  V30 7125 O 698.335 -0.415256 2.49062 0
M  V30 7126 C 699.648 2.6432 1.43372 0
M  V30 7127 C 701.196 2.71937 1.54981 0
M  V30 7128 C 701.671 4.09164 2.05789 0
M  V30 7129 N 703.162 4.11282 2.13076 0
M  V30 7130 C 703.897 5.14303 2.53534 0
M  V30 7131 N 703.393 6.27693 2.93212 0
M  V30 7132 N 705.186 5.01657 2.53567 0
M  V30 7133 H 697.337 2.12344 -0.0488376 0
M  V30 7134 H 699.6 0.947124 0.0407559 0
M  V30 7135 H 699.306 3.43826 0.740048 0
M  V30 7136 H 699.18 2.90432 2.40685 0
M  V30 7137 H 701.567 1.92757 2.23448 0
M  V30 7138 H 701.648 2.49578 0.560739 0
M  V30 7139 H 701.292 4.88815 1.37921 0
M  V30 7140 H 701.222 4.28893 3.05546 0
M  V30 7141 H 703.713 3.2944 1.85143 0
M  V30 7142 H 704.026 7.02125 3.22863 0
M  V30 7143 H 702.371 6.31149 2.90991 0
M  V30 7144 H 705.562 4.12134 2.21952 0
M  V30 7145 H 705.735 5.82072 2.84774 0
M  V30 7146 N 699.141 -0.881989 1.30609 0
M  V30 7147 C 700.369 -1.66711 1.22536 0
M  V30 7148 C 700.784 -1.87614 -0.2113 0
M  V30 7149 O 700.141 -1.42576 -1.13923 0
M  V30 7150 C 700.192 -3.04182 1.95335 0
M  V30 7151 O 699.913 -2.8422 3.33393 0
M  V30 7152 C 701.414 -3.98617 1.93956 0
M  V30 7153 H 698.634 -0.520124 0.423925 0
M  V30 7154 H 701.178 -1.10174 1.72285 0
M  V30 7155 H 699.333 -3.57442 1.49378 0
M  V30 7156 H 699.747 -3.71452 3.70302 0
M  V30 7157 H 701.221 -4.92433 2.49426 0
M  V30 7158 H 701.698 -4.29473 0.919198 0
M  V30 7159 H 702.304 -3.51292 2.39738 0
M  V30 7160 N 700.619 -1.13374 -1.09472 0
M  V30 7161 C 701.849 -0.917019 -1.85133 0
M  V30 7162 C 702.257 0.537568 -1.81402 0
M  V30 7163 O 701.6 1.38385 -1.20811 0
M  V30 7164 C 701.662 -1.32646 -3.34134 0
M  V30 7165 C 701.326 -2.79437 -3.61613 0
M  V30 7166 C 702.323 -3.77596 -3.57375 0
M  V30 7167 C 700.008 -3.16586 -3.89973 0
M  V30 7168 C 702.002 -5.10916 -3.81108 0
M  V30 7169 C 699.689 -4.50085 -4.13361 0
M  V30 7170 C 700.687 -5.47059 -4.0892 0
M  V30 7171 O 700.375 -6.78149 -4.31705 0
M  V30 7172 H 700.107 -0.326997 -0.591649 0
M  V30 7173 H 702.661 -1.51002 -1.39239 0
M  V30 7174 H 700.891 -0.676719 -3.80733 0
M  V30 7175 H 702.58 -1.08229 -3.91205 0
M  V30 7176 H 703.346 -3.50242 -3.35493 0
M  V30 7177 H 699.225 -2.41707 -3.92554 0
M  V30 7178 H 702.769 -5.86597 -3.77558 0
M  V30 7179 H 698.666 -4.77163 -4.34724 0
M  V30 7180 H 699.434 -6.84244 -4.49168 0
M  V30 7181 N 702.098 1.27442 -0.927168 0
M  V30 7182 C 703.03 2.25975 -0.383158 0
M  V30 7183 C 704.043 1.55382 0.485832 0
M  V30 7184 O 705.232 1.75986 0.298541 0
M  V30 7185 C 702.332 3.35629 0.469688 0
M  V30 7186 C 701.505 4.35747 -0.379886 0
M  V30 7187 C 700.564 5.24598 0.410227 0
M  V30 7188 O 699.59 5.68909 -0.181888 0
M  V30 7189 N 700.792 5.54737 1.71017 0
M  V30 7190 H 703.557 2.7329 -1.23015 0
M  V30 7191 H 701.118 1.41063 -0.794539 0
M  V30 7192 H 703.11 3.92015 1.00532 0
M  V30 7193 H 701.68 2.87919 1.21744 0
M  V30 7194 H 700.9 3.78634 -1.09682 0
M  V30 7195 H 702.188 4.99648 -0.960717 0
M  V30 7196 H 701.586 5.20594 2.21356 0
M  V30 7197 H 700.143 6.13824 2.19234 0
M  V30 7198 N 703.576 0.692616 1.41565 0
M  V30 7199 C 704.823 0.222335 2.01276 0
M  V30 7200 C 705.151 -1.17706 1.5484 0
M  V30 7201 O 704.406 -1.80795 0.749118 0
M  V30 7202 C 704.705 0.225073 3.56691 0
M  V30 7203 C 704.371 1.57158 4.22625 0
M  V30 7204 C 703.033 1.94022 4.40351 0
M  V30 7205 C 705.385 2.45758 4.59622 0
M  V30 7206 C 702.713 3.19076 4.92349 0
M  V30 7207 C 705.065 3.70141 5.13009 0
M  V30 7208 C 703.729 4.07152 5.28946 0
M  V30 7209 H 702.999 0.0813581 0.73652 0
M  V30 7210 H 705.646 0.891123 1.69503 0
M  V30 7211 H 703.951 -0.527259 3.88236 0
M  V30 7212 H 705.648 -0.156283 4.00695 0
M  V30 7213 H 702.238 1.27486 4.09201 0
M  V30 7214 H 706.422 2.18558 4.45585 0
M  V30 7215 H 701.678 3.4775 5.02872 0
M  V30 7216 H 705.852 4.38983 5.40617 0
M  V30 7217 H 703.479 5.04125 5.69001 0
M  V30 7218 N 705.054 -1.51416 0.437162 0
M  V30 7219 C 706.002 -2.29328 -0.388765 0
M  V30 7220 C 706.996 -1.35171 -1.02104 0
M  V30 7221 O 708.202 -1.52513 -0.956024 0
M  V30 7222 H 704.577 -0.738048 -0.144183 0
M  V30 7223 H 706.548 -2.96995 0.289212 0
M  V30 7224 C 705.297 -3.14741 -1.47761 0
M  V30 7225 H 704.62 -3.8708 -1.00045 0
M  V30 7226 H 706.06 -3.72313 -2.02877 0
M  V30 7227 C 704.519 -2.30105 -2.46076 0
M  V30 7228 O 705.049 -1.96055 -3.50607 0
M  V30 7229 N 703.255 -1.93331 -2.1696 0
M  V30 7230 H 702.802 -2.2122 -1.31983 0
M  V30 7231 H 702.76 -1.36999 -2.82982 0
M  V30 7232 N 706.532 -0.168513 -1.56696 0
M  V30 7233 C 707.495 0.748928 -2.16619 0
M  V30 7234 C 708.495 1.16007 -1.11351 0
M  V30 7235 O 709.685 1.07748 -1.3688 0
M  V30 7236 C 706.817 2.01904 -2.74677 0
M  V30 7237 H 708.01 0.227317 -2.99037 0
M  V30 7238 H 705.563 0.0810372 -1.5609 0
M  V30 7239 H 706.298 2.58381 -1.95985 0
M  V30 7240 H 706.083 1.73323 -3.51712 0
M  V30 7241 H 707.573 2.67383 -3.20774 0
M  V30 7242 N 708.01 1.57248 0.105221 0
M  V30 7243 C 708.94 2.04374 1.12931 0
M  V30 7244 C 709.921 0.93074 1.42377 0
M  V30 7245 O 711.106 1.20136 1.52581 0
M  V30 7246 C 708.236 2.45967 2.45189 0
M  V30 7247 C 707.19 3.60838 2.30174 0
M  V30 7248 C 706.516 3.88374 3.67518 0
M  V30 7249 C 707.816 4.92084 1.75073 0
M  V30 7250 H 709.51 2.9018 0.737287 0
M  V30 7251 H 707.056 1.39601 0.353211 0
M  V30 7252 H 709.009 2.77542 3.17094 0
M  V30 7253 H 707.733 1.57148 2.86308 0
M  V30 7254 H 706.392 3.29493 1.60716 0
M  V30 7255 H 706.04 2.96739 4.06147 0
M  V30 7256 H 705.74 4.65703 3.58321 0
M  V30 7257 H 707.264 4.22415 4.40906 0
M  V30 7258 H 708.678 5.22106 2.36809 0
M  V30 7259 H 707.075 5.73507 1.76662 0
M  V30 7260 H 708.145 4.79684 0.709347 0
M  V30 7261 N 709.488 -0.375779 1.53054 0
M  V30 7262 C 710.735 -1.11948 1.68742 0
M  V30 7263 C 711.063 -1.89596 0.434015 0
M  V30 7264 O 710.318 -1.86787 -0.583867 0
M  V30 7265 C 710.617 -2.11356 2.88207 0
M  V30 7266 C 710.283 -1.50266 4.25124 0
M  V30 7267 C 708.945 -1.33333 4.62359 0
M  V30 7268 C 711.297 -1.05976 5.10312 0
M  V30 7269 C 708.625 -0.706765 5.82427 0
M  V30 7270 C 710.977 -0.447241 6.31017 0
M  V30 7271 C 709.641 -0.265314 6.66973 0
M  V30 7272 H 708.911 -0.409648 0.61747 0
M  V30 7273 H 711.558 -0.402492 1.87222 0
M  V30 7274 H 709.863 -2.89322 2.64197 0
M  V30 7275 H 711.56 -2.68833 2.97539 0
M  V30 7276 H 708.15 -1.64437 3.95801 0
M  V30 7277 H 712.334 -1.17855 4.82104 0
M  V30 7278 H 707.59 -0.554132 6.08884 0
M  V30 7279 H 711.764 -0.0958064 6.96334 0
M  V30 7280 H 709.391 0.222267 7.59875 0
M  V30 7281 N 710.966 -1.44241 -0.634997 0
M  V30 7282 C 711.896 -1.53632 -1.7584 0
M  V30 7283 C 712.877 -0.389603 -1.65578 0
M  V30 7284 O 714.062 -0.609219 -1.84397 0
M  V30 7285 C 711.192 -1.47644 -3.14354 0
M  V30 7286 C 710.146 -2.60752 -3.394 0
M  V30 7287 C 709.472 -2.39817 -4.77904 0
M  V30 7288 C 710.772 -4.02921 -3.32343 0
M  V30 7289 H 712.466 -2.47662 -1.68238 0
M  V30 7290 H 710.012 -1.19197 -0.807969 0
M  V30 7291 H 711.965 -1.52815 -3.92716 0
M  V30 7292 H 710.689 -0.501284 -3.2273 0
M  V30 7293 H 709.348 -2.54965 -2.63417 0
M  V30 7294 H 708.996 -1.40502 -4.82978 0
M  V30 7295 H 708.696 -3.15649 -4.9562 0
M  V30 7296 H 710.22 -2.46799 -5.585 0
M  V30 7297 H 711.634 -4.10098 -4.00615 0
M  V30 7298 H 710.031 -4.78925 -3.61595 0
M  V30 7299 H 711.101 -4.26766 -2.30215 0
M  V30 7300 N 712.444 0.87505 -1.31075 0
M  V30 7301 C 713.721 1.60976 -1.11113 0
M  V30 7302 C 714.101 2.08409 0.336006 0
M  V30 7303 O 713.449 1.85858 1.32924 0
M  V30 7304 C 713.659 2.77166 -2.12085 0
M  V30 7305 C 715.007 3.47254 -2.44335 0
M  V30 7306 O 716.031 2.87367 -2.10472 0
M  V30 7307 O 714.89 4.55276 -3.02301 0
M  V30 7308 H 711.984 0.707982 -0.427424 0
M  V30 7309 H 714.53 0.920957 -1.42536 0
M  V30 7310 H 713.302 2.39494 -3.09449 0
M  V30 7311 H 712.925 3.53737 -1.81538 0
M  V30 7312 N 713.922 1.13953 1.08869 0
M  V30 7313 C 715.333 0.916649 1.62648 0
M  V30 7314 C 715.684 -0.545589 1.88462 0
M  V30 7315 O 714.809 -1.41351 1.63856 0
M  V30 7316 C 715.404 1.65751 2.95486 0
M  V30 7317 C 713.963 1.48034 3.46068 0
M  V30 7318 C 713.11 1.68305 2.20383 0
M  V30 7319 H 716.061 1.292 0.921572 0
M  V30 7320 H 716.082 1.11794 3.63707 0
M  V30 7321 H 715.594 2.72171 2.76667 0
M  V30 7322 H 713.695 0.439416 3.7 0
M  V30 7323 H 713.808 2.24719 4.23129 0
M  V30 7324 H 712.172 1.10833 2.29321 0
M  V30 7325 H 712.955 2.76057 2.04077 0
M  V30 7326 N 715.4 -1.26948 0.933913 0
M  V30 7327 C 716.63 -1.97898 0.593279 0
M  V30 7328 C 717.038 -1.69806 -0.834412 0
M  V30 7329 O 716.381 -0.958704 -1.56699 0
M  V30 7330 C 716.443 -3.51657 0.746825 0
M  V30 7331 C 716.107 -4.03384 2.14779 0
M  V30 7332 C 717.104 -4.15682 3.12257 0
M  V30 7333 C 714.789 -4.37577 2.46641 0
M  V30 7334 C 716.783 -4.61455 4.39702 0
M  V30 7335 C 714.47 -4.8304 3.7432 0
M  V30 7336 C 715.468 -4.94939 4.70664 0
M  V30 7337 O 715.156 -5.39403 5.96071 0
M  V30 7338 H 714.888 -0.63814 0.223055 0
M  V30 7339 H 717.442 -1.62608 1.2549 0
M  V30 7340 H 715.672 -3.8669 0.0280889 0
M  V30 7341 H 717.361 -4.03821 0.410328 0
M  V30 7342 H 718.127 -3.89519 2.88964 0
M  V30 7343 H 714.006 -4.27554 1.72391 0
M  V30 7344 H 717.55 -4.70658 5.14905 0
M  V30 7345 H 713.447 -5.08646 3.97429 0
M  V30 7346 H 714.215 -5.57641 5.99148 0
M  V30 7347 N 716.879 -0.700114 -1.41195 0
M  V30 7348 C 717.809 -0.0521132 -2.33442 0
M  V30 7349 C 718.79 0.76228 -1.52063 0
M  V30 7350 O 719.975 0.714336 -1.80585 0
M  V30 7351 C 717.105 0.881693 -3.35922 0
M  V30 7352 C 716.059 0.174062 -4.27646 0
M  V30 7353 C 715.385 1.22254 -5.20536 0
M  V30 7354 C 716.685 -0.962396 -5.13357 0
M  V30 7355 H 718.379 -0.822574 -2.87879 0
M  V30 7356 H 715.925 -0.397011 -1.38419 0
M  V30 7357 H 717.878 1.34429 -3.99383 0
M  V30 7358 H 716.602 1.68387 -2.79845 0
M  V30 7359 H 715.261 -0.268551 -3.65615 0
M  V30 7360 H 714.909 2.01736 -4.60773 0
M  V30 7361 H 714.609 0.754038 -5.82742 0
M  V30 7362 H 716.133 1.68555 -5.86874 0
M  V30 7363 H 717.547 -0.579875 -5.7036 0
M  V30 7364 H 715.944 -1.35828 -5.84526 0
M  V30 7365 H 717.014 -1.80003 -4.50252 0
M  V30 7366 N 718.357 1.51182 -0.445186 0
M  V30 7367 C 719.603 2.03097 0.111049 0
M  V30 7368 C 719.958 1.32293 1.397 0
M  V30 7369 O 719.251 0.431529 1.86677 0
M  V30 7370 C 719.445 3.55408 0.376797 0
M  V30 7371 C 719.274 4.40969 -0.88185 0
M  V30 7372 C 718.044 4.85006 -1.41766 0
M  V30 7373 C 720.242 4.82876 -1.77017 0
M  V30 7374 N 718.224 5.54804 -2.62803 0
M  V30 7375 C 719.595 5.51821 -2.82654 0
M  V30 7376 C 721.65 4.64855 -1.78365 0
M  V30 7377 C 720.353 6.04655 -3.89595 0
M  V30 7378 C 722.379 5.18612 -2.84246 0
M  V30 7379 C 721.741 5.87509 -3.88603 0
M  V30 7380 H 717.84 0.781999 0.0012696 0
M  V30 7381 H 720.424 1.84976 -0.60761 0
M  V30 7382 H 718.595 3.73528 1.06449 0
M  V30 7383 H 720.327 3.93985 0.925082 0
M  V30 7384 H 717.082 4.6355 -0.970476 0
M  V30 7385 H 717.506 5.94326 -3.24201 0
M  V30 7386 H 722.148 4.11043 -0.990119 0
M  V30 7387 H 719.866 6.57518 -4.69782 0
M  V30 7388 H 723.452 5.06515 -2.86241 0
M  V30 7389 H 722.332 6.28358 -4.69186 0
M  V30 7390 N 719.835 0.176821 1.56605 0
M  V30 7391 C 720.782 -0.751312 2.18229 0
M  V30 7392 C 721.752 -1.22297 1.12395 0
M  V30 7393 O 722.937 -1.29015 1.40569 0
M  V30 7394 C 720.077 -1.97291 2.83143 0
M  V30 7395 C 719.19 -1.54431 4.03454 0
M  V30 7396 C 718.325 -2.72 4.56278 0
M  V30 7397 C 717.364 -2.25657 5.68986 0
M  V30 7398 N 716.501 -3.36338 6.16296 0
M  V30 7399 H 721.341 -0.219033 2.97194 0
M  V30 7400 H 718.878 -0.0963803 1.46784 0
M  V30 7401 H 720.836 -2.68949 3.1894 0
M  V30 7402 H 719.466 -2.4788 2.06773 0
M  V30 7403 H 718.518 -0.724273 3.73441 0
M  V30 7404 H 719.83 -1.16417 4.85024 0
M  V30 7405 H 718.984 -3.51806 4.94285 0
M  V30 7406 H 717.723 -3.13277 3.73777 0
M  V30 7407 H 716.728 -1.44299 5.30526 0
M  V30 7408 H 717.953 -1.85432 6.53293 0
M  V30 7409 H 715.899 -3.7718 5.36723 0
M  V30 7410 H 715.816 -3.02435 6.9287 0
M  V30 7411 H 717.084 -4.16413 6.58954 0
M  V30 7412 N 721.313 -1.57302 -0.09688 0
M  V30 7413 C 722.243 -2.0497 -1.11846 0
M  V30 7414 C 723.224 -0.938278 -1.41882 0
M  V30 7415 O 724.409 -1.20943 -1.51942 0
M  V30 7416 C 721.539 -2.47264 -2.43881 0
M  V30 7417 C 720.493 -3.62053 -2.28257 0
M  V30 7418 C 719.819 -3.90318 -3.65453 0
M  V30 7419 C 721.119 -4.93005 -1.72461 0
M  V30 7420 H 722.813 -2.90567 -0.721888 0
M  V30 7421 H 720.359 -1.39786 -0.345803 0
M  V30 7422 H 722.312 -2.7922 -3.15617 0
M  V30 7423 H 721.036 -1.58664 -2.8547 0
M  V30 7424 H 719.695 -3.30341 -1.58967 0
M  V30 7425 H 719.343 -2.98889 -4.04567 0
M  V30 7426 H 719.043 -4.67597 -3.55846 0
M  V30 7427 H 720.567 -4.24747 -4.3866 0
M  V30 7428 H 721.981 -5.23354 -2.34036 0
M  V30 7429 H 720.378 -5.74436 -1.73618 0
M  V30 7430 H 721.448 -4.80053 -0.683898 0
M  V30 7431 N 722.791 0.367657 -1.53252 0
M  V30 7432 C 723.723 1.47032 -1.75824 0
M  V30 7433 C 724.736 1.49736 -0.63898 0
M  V30 7434 O 725.925 1.53253 -0.915193 0
M  V30 7435 C 723.025 2.85805 -1.82122 0
M  V30 7436 C 722.198 3.06822 -3.11736 0
M  V30 7437 C 721.257 4.25698 -3.09302 0
M  V30 7438 O 720.283 4.20972 -3.83107 0
M  V30 7439 N 721.485 5.33002 -2.29977 0
M  V30 7440 H 724.25 1.28048 -2.70968 0
M  V30 7441 H 721.811 0.557363 -1.52004 0
M  V30 7442 H 723.803 3.63465 -1.77975 0
M  V30 7443 H 722.373 2.98046 -0.942716 0
M  V30 7444 H 721.593 2.1684 -3.29202 0
M  V30 7445 H 722.881 3.17731 -3.97397 0
M  V30 7446 H 722.279 5.39703 -1.69521 0
M  V30 7447 H 720.836 6.09247 -2.3165 0
M  V30 7448 N 724.269 1.44576 0.627338 0
M  V30 7449 C 725.515 1.47777 1.38888 0
M  V30 7450 C 725.848 0.111406 1.9388 0
M  V30 7451 O 725.123 -0.87149 1.73883 0
M  V30 7452 C 725.406 2.54119 2.55138 0
M  V30 7453 C 725.259 4.00128 2.0547 0
M  V30 7454 C 726.578 2.56929 3.57317 0
M  V30 7455 H 723.697 0.538048 0.50366 0
M  V30 7456 H 726.339 1.76277 0.708978 0
M  V30 7457 H 724.489 2.29948 3.13139 0
M  V30 7458 H 726.161 4.35444 1.5227 0
M  V30 7459 H 724.404 4.11724 1.36623 0
M  V30 7460 H 725.075 4.7019 2.89181 0
M  V30 7461 H 727.551 2.78536 3.09122 0
M  V30 7462 H 726.427 3.33234 4.36173 0
M  V30 7463 H 726.688 1.6127 4.11636 0
M  V30 7464 N 725.747 -0.868086 1.31537 0
M  V30 7465 C 726.995 -1.61807 1.21091 0
M  V30 7466 C 727.316 -1.93631 -0.230623 0
M  V30 7467 O 726.586 -1.5846 -1.15183 0
M  V30 7468 H 725.166 -0.599854 0.445178 0
M  V30 7469 H 727.828 -1.03915 1.64887 0
M  V30 7470 H 726.924 -2.56088 1.78396 0
M  V30 7471 N 727.225 -1.14528 -1.08264 0
M  V30 7472 C 728.473 -0.912599 -1.80322 0
M  V30 7473 C 728.794 0.562256 -1.86718 0
M  V30 7474 O 728.064 1.40869 -1.36135 0
M  V30 7475 H 726.644 -0.334645 -0.667849 0
M  V30 7476 H 729.306 -1.44415 -1.30883 0
M  V30 7477 H 728.402 -1.31384 -2.83098 0
M  V30 7478 N 728.703 1.26451 -0.940633 0
M  V30 7479 C 729.65 2.264 -0.448497 0
M  V30 7480 C 730.62 1.5866 0.491546 0
M  V30 7481 O 731.805 1.86389 0.407874 0
M  V30 7482 C 728.945 3.43956 0.280715 0
M  V30 7483 C 728.058 4.26374 -0.694937 0
M  V30 7484 C 727.193 5.31171 0.0554186 0
M  V30 7485 C 726.232 6.05266 -0.912091 0
M  V30 7486 N 725.369 7.01833 -0.193524 0
M  V30 7487 H 730.209 2.67869 -1.30576 0
M  V30 7488 H 727.746 1.31707 -0.655112 0
M  V30 7489 H 729.704 4.10941 0.71994 0
M  V30 7490 H 728.334 3.03403 1.10212 0
M  V30 7491 H 727.386 3.59183 -1.25267 0
M  V30 7492 H 728.698 4.77748 -1.43382 0
M  V30 7493 H 727.852 6.04166 0.553951 0
M  V30 7494 H 726.591 4.80634 0.827183 0
M  V30 7495 H 725.596 5.31099 -1.42175 0
M  V30 7496 H 726.821 6.57893 -1.68385 0
M  V30 7497 H 724.767 6.53607 0.559758 0
M  V30 7498 H 724.684 7.50957 -0.871744 0
M  V30 7499 H 725.952 7.78983 0.283932 0
M  V30 7500 N 730.181 0.707592 1.40822 0
M  V30 7501 C 731.597 0.38034 1.55002 0
M  V30 7502 C 731.797 -1.11163 1.68062 0
M  V30 7503 O 730.853 -1.89761 1.66574 0
M  V30 7504 C 732.166 1.1394 2.78277 0
M  V30 7505 C 733.714 1.12492 2.92087 0
M  V30 7506 C 734.189 1.86597 4.18265 0
M  V30 7507 N 735.68 1.83626 4.25248 0
M  V30 7508 C 736.415 2.37794 5.21768 0
M  V30 7509 N 735.911 3.00485 6.24244 0
M  V30 7510 N 737.704 2.27982 5.13791 0
M  V30 7511 H 729.855 1.67511 1.3059 0
M  V30 7512 H 732.118 0.707579 0.630901 0
M  V30 7513 H 731.824 2.19398 2.74877 0
M  V30 7514 H 731.698 0.725793 3.70151 0
M  V30 7515 H 734.085 0.0785564 2.94995 0
M  V30 7516 H 734.166 1.57768 2.01353 0
M  V30 7517 H 733.81 2.91219 4.16118 0
M  V30 7518 H 733.74 1.38746 5.07993 0
M  V30 7519 H 736.231 1.3793 3.51829 0
M  V30 7520 H 736.544 3.39355 6.94304 0
M  V30 7521 H 734.889 3.04567 6.24711 0
M  V30 7522 H 738.08 1.78669 4.3266 0
M  V30 7523 H 738.253 2.70499 5.88841 0
M  V30 7524 N 731.66 -1.50943 0.453197 0
M  V30 7525 C 732.59 -2.31005 -0.34044 0
M  V30 7526 C 733.571 -1.37112 -1.00669 0
M  V30 7527 O 734.756 -1.66033 -1.0073 0
M  V30 7528 C 731.886 -3.16358 -1.433 0
M  V30 7529 C 730.84 -4.18658 -0.889363 0
M  V30 7530 C 730.166 -4.92633 -2.07887 0
M  V30 7531 C 731.466 -5.22227 0.0871142 0
M  V30 7532 H 733.16 -2.97601 0.327723 0
M  V30 7533 H 730.706 -1.43119 0.159054 0
M  V30 7534 H 732.659 -3.71155 -1.99555 0
M  V30 7535 H 731.383 -2.47613 -2.12968 0
M  V30 7536 H 730.042 -3.64936 -0.348915 0
M  V30 7537 H 729.69 -4.20376 -2.76211 0
M  V30 7538 H 729.39 -5.61819 -1.72143 0
M  V30 7539 H 730.914 -5.50258 -2.64666 0
M  V30 7540 H 732.328 -5.72001 -0.385656 0
M  V30 7541 H 730.725 -5.99032 0.357926 0
M  V30 7542 H 731.795 -4.74077 1.01879 0
M  V30 7543 N 733.138 -0.185124 -1.56509 0
M  V30 7544 C 734.384 0.456934 -1.97585 0
M  V30 7545 C 734.717 1.61957 -1.07161 0
M  V30 7546 O 733.992 1.9412 -0.121546 0
M  V30 7547 C 734.275 0.926666 -3.47973 0
M  V30 7548 C 734.128 -0.237097 -4.49175 0
M  V30 7549 C 735.447 1.79561 -4.01803 0
M  V30 7550 H 732.566 0.164619 -0.71838 0
M  V30 7551 H 735.208 -0.274039 -1.88013 0
M  V30 7552 H 733.358 1.54954 -3.56261 0
M  V30 7553 H 735.03 -0.87454 -4.52934 0
M  V30 7554 H 733.273 -0.890446 -4.24563 0
M  V30 7555 H 733.944 0.133924 -5.51838 0
M  V30 7556 H 736.42 1.27039 -3.96232 0
M  V30 7557 H 735.296 2.09327 -5.07418 0
M  V30 7558 H 735.557 2.74629 -3.46455 0
M  V30 7559 N 734.616 1.57351 0.0885366 0
M  V30 7560 C 735.548 1.99221 1.13329 0
M  V30 7561 C 736.561 0.895705 1.35945 0
M  V30 7562 O 737.75 1.17376 1.34481 0
M  V30 7563 C 734.85 2.3016 2.48756 0
M  V30 7564 C 734.023 3.61444 2.46327 0
M  V30 7565 C 733.082 3.80244 3.63732 0
M  V30 7566 O 732.108 4.52024 3.45924 0
M  V30 7567 N 733.31 3.2132 4.8346 0
M  V30 7568 H 736.075 2.89456 0.776862 0
M  V30 7569 H 733.636 1.59505 0.277428 0
M  V30 7570 H 735.628 2.39925 3.25911 0
M  V30 7571 H 734.198 1.459 2.76464 0
M  V30 7572 H 733.418 3.62588 1.54673 0
M  V30 7573 H 734.706 4.47678 2.41789 0
M  V30 7574 H 734.104 2.63028 5.00832 0
M  V30 7575 H 732.661 3.3656 5.58185 0
M  V30 7576 N 736.094 -0.359525 1.53444 0
M  V30 7577 C 737.041 -1.44073 1.8031 0
M  V30 7578 C 738.011 -1.52946 0.647811 0
M  V30 7579 O 739.196 -1.68739 0.890614 0
M  V30 7580 C 736.336 -2.80941 2.00416 0
M  V30 7581 C 735.449 -2.80986 3.28132 0
M  V30 7582 C 734.584 -4.09468 3.38393 0
M  V30 7583 C 733.623 -4.03679 4.60119 0
M  V30 7584 N 732.76 -5.23821 4.675 0
M  V30 7585 H 737.6 -1.20464 2.72566 0
M  V30 7586 H 735.137 -0.583859 1.35017 0
M  V30 7587 H 737.095 -3.60459 2.1006 0
M  V30 7588 H 735.725 -3.02936 1.11489 0
M  V30 7589 H 734.777 -1.93666 3.27411 0
M  V30 7590 H 736.089 -2.72583 4.17732 0
M  V30 7591 H 735.243 -4.97404 3.47382 0
M  V30 7592 H 733.982 -4.20632 2.4682 0
M  V30 7593 H 732.987 -3.14129 4.51224 0
M  V30 7594 H 734.212 -3.94112 5.5304 0
M  V30 7595 H 732.158 -5.35559 3.7883 0
M  V30 7596 H 732.075 -5.17611 5.51013 0
M  V30 7597 H 733.343 -6.13572 4.8078 0
M  V30 7598 N 737.572 -1.44907 -0.619662 0
M  V30 7599 C 738.535 -1.52282 -1.71297 0
M  V30 7600 C 739.535 -0.40359 -1.55653 0
M  V30 7601 O 740.725 -0.666638 -1.6094 0
M  V30 7602 C 737.857 -1.40778 -3.10474 0
M  V30 7603 H 739.05 -2.49683 -1.66128 0
M  V30 7604 H 736.603 -1.32168 -0.834339 0
M  V30 7605 H 737.338 -0.445156 -3.2123 0
M  V30 7606 H 737.123 -2.21947 -3.23237 0
M  V30 7607 H 738.613 -1.48946 -3.90135 0
M  V30 7608 N 739.05 0.861098 -1.31996 0
M  V30 7609 C 740.466 1.14827 -1.10846 0
M  V30 7610 C 740.666 2.0117 0.11528 0
M  V30 7611 O 739.722 2.39423 0.802048 0
M  V30 7612 C 741.035 1.83183 -2.38462 0
M  V30 7613 C 742.583 1.95847 -2.44158 0
M  V30 7614 C 743.058 2.67617 -3.71679 0
M  V30 7615 N 744.549 2.75147 -3.72624 0
M  V30 7616 C 745.284 3.31314 -4.67994 0
M  V30 7617 N 744.78 3.88343 -5.73726 0
M  V30 7618 N 746.573 3.29356 -4.55501 0
M  V30 7619 H 738.724 0.285951 -2.10466 0
M  V30 7620 H 740.987 0.189303 -0.928907 0
M  V30 7621 H 740.693 1.27193 -3.27895 0
M  V30 7622 H 740.567 2.83393 -2.48935 0
M  V30 7623 H 742.954 2.50999 -1.55189 0
M  V30 7624 H 743.035 0.94653 -2.37644 0
M  V30 7625 H 742.679 2.13131 -4.61018 0
M  V30 7626 H 742.609 3.69237 -3.75462 0
M  V30 7627 H 745.1 2.34682 -2.96197 0
M  V30 7628 H 745.413 4.29338 -6.42564 0
M  V30 7629 H 743.758 3.86693 -5.77489 0
M  V30 7630 H 746.949 2.84047 -3.72069 0
M  V30 7631 H 747.122 3.7283 -5.30001 0
M  V30 7632 N 740.528 1.15101 1.07655 0
M  V30 7633 C 741.46 0.802722 2.14684 0
M  V30 7634 C 742.473 -0.183874 1.61758 0
M  V30 7635 O 743.662 0.0389349 1.78458 0
M  V30 7636 C 740.762 0.172135 3.38463 0
M  V30 7637 C 739.935 1.19538 4.20749 0
M  V30 7638 C 738.994 0.58714 5.22914 0
M  V30 7639 O 738.02 1.25224 5.55255 0
M  V30 7640 N 739.222 -0.632566 5.77043 0
M  V30 7641 H 741.987 1.72379 2.45164 0
M  V30 7642 H 739.548 1.04647 1.23534 0
M  V30 7643 H 741.54 -0.247465 4.03943 0
M  V30 7644 H 740.11 -0.652214 3.0572 0
M  V30 7645 H 739.33 1.79165 3.51132 0
M  V30 7646 H 740.618 1.88636 4.7254 0
M  V30 7647 H 740.016 -1.19135 5.53013 0
M  V30 7648 H 738.573 -0.994566 6.44167 0
M  V30 7649 N 742.006 -1.2595 0.947325 0
M  V30 7650 C 743.231 -1.98083 0.614633 0
M  V30 7651 C 743.656 -1.70013 -0.804815 0
M  V30 7652 O 743.014 -0.95175 -1.54309 0
M  V30 7653 C 743.062 -3.4993 0.870706 0
M  V30 7654 O 742.166 -4.12364 -0.0541451 0
M  V30 7655 H 741.507 -0.621232 0.234451 0
M  V30 7656 H 744.037 -1.60259 1.27193 0
M  V30 7657 H 744.047 -4.00198 0.794051 0
M  V30 7658 H 742.722 -3.69691 1.90529 0
M  V30 7659 H 741.299 -3.72826 0.0740917 0
M  V30 7660 N 743.484 -0.715051 -1.40445 0
M  V30 7661 C 744.732 -0.253826 -2.005 0
M  V30 7662 C 745.053 1.15681 -1.5698 0
M  V30 7663 O 744.323 1.78414 -0.809027 0
M  V30 7664 H 742.903 -0.0908537 -0.741454 0
M  V30 7665 H 745.565 -0.920561 -1.7179 0
M  V30 7666 H 744.661 -0.286499 -3.10782 0
M  V30 7667 N 744.962 1.50701 -0.461195 0
M  V30 7668 C 745.925 2.2686 0.326679 0
M  V30 7669 C 746.925 1.31243 0.929085 0
M  V30 7670 O 748.115 1.54754 0.799807 0
M  V30 7671 C 745.247 3.07844 1.46441 0
M  V30 7672 H 746.44 2.97954 -0.341095 0
M  V30 7673 H 743.993 1.54814 -0.214984 0
M  V30 7674 H 744.728 2.41223 2.16753 0
M  V30 7675 H 744.513 3.78101 1.03836 0
M  V30 7676 H 746.003 3.65469 2.02044 0
M  V30 7677 N 746.441 0.193421 1.56409 0
M  V30 7678 C 747.404 -0.714371 2.17783 0
M  V30 7679 C 748.404 -1.1422 1.13183 0
M  V30 7680 O 749.594 -1.05557 1.38576 0
M  V30 7681 C 746.726 -1.97509 2.77855 0
M  V30 7682 H 747.919 -0.179714 2.99361 0
M  V30 7683 H 745.472 -0.0561944 1.56199 0
M  V30 7684 H 746.207 -2.5523 2.0007 0
M  V30 7685 H 745.992 -1.67706 3.54425 0
M  V30 7686 H 747.482 -2.62246 3.24987 0
M  V30 7687 N 747.919 -1.57396 -0.0801906 0
M  V30 7688 C 749.168 -1.8602 -0.779702 0
M  V30 7689 C 749.481 -0.784864 -1.79163 0
M  V30 7690 O 750.687 -0.958691 -2.54011 0
M  V30 7691 C 749.143 -3.29942 -1.43758 0
M  V30 7692 C 748.751 -4.45584 -0.464654 0
M  V30 7693 C 750.495 -3.67775 -2.11995 0
M  V30 7694 C 748.402 -5.80544 -1.12797 0
M  V30 7695 H 747.332 -0.69392 -0.294943 0
M  V30 7696 H 749.983 -1.83471 -0.0328527 0
M  V30 7697 H 748.365 -3.27078 -2.2324 0
M  V30 7698 H 749.539 -4.59824 0.299749 0
M  V30 7699 H 747.854 -4.16247 0.112813 0
M  V30 7700 H 750.451 -4.65896 -2.62383 0
M  V30 7701 H 750.794 -2.9715 -2.91561 0
M  V30 7702 H 751.327 -3.72593 -1.39354 0
M  V30 7703 H 748.066 -6.54439 -0.372807 0
M  V30 7704 H 747.586 -5.70119 -1.86344 0
M  V30 7705 H 749.265 -6.25602 -1.6502 0
M  V30 7706 N 749.397 0.351382 -1.53633 0
M  V30 7707 C 750.674 1.10903 -1.6112 0
M  V30 7708 C 751.054 2.06725 -0.427556 0
M  V30 7709 O 750.402 2.20992 0.580916 0
M  V30 7710 C 750.612 1.83561 -2.96827 0
M  V30 7711 C 751.96 2.37587 -3.51906 0
M  V30 7712 O 752.984 1.93669 -2.9895 0
M  V30 7713 O 751.843 3.17913 -4.44515 0
M  V30 7714 H 748.937 0.509558 -0.651368 0
M  V30 7715 H 751.483 0.353504 -1.65977 0
M  V30 7716 H 750.255 1.1371 -3.74414 0
M  V30 7717 H 749.878 2.6599 -2.95525 0
M  V30 7718 N 750.875 1.45233 0.611969 0
M  V30 7719 C 752.123 1.48727 1.36838 0
M  V30 7720 C 752.444 0.128616 1.94575 0
M  V30 7721 O 751.714 -0.84149 1.76906 0
M  V30 7722 H 750.294 0.547695 0.507976 0
M  V30 7723 H 752.956 1.81156 0.718925 0
M  V30 7724 H 752.052 2.2236 2.19003 0
M  V30 7725 N 752.353 -0.854086 1.3245 0
M  V30 7726 C 753.599 -1.61069 1.23225 0
M  V30 7727 C 753.932 -1.93111 -0.205349 0
M  V30 7728 O 753.207 -1.57397 -1.14265 0
M  V30 7729 C 753.49 -2.93065 2.09249 0
M  V30 7730 C 753.343 -2.67801 3.6139 0
M  V30 7731 C 754.662 -3.94341 1.95406 0
M  V30 7732 H 751.781 -0.584449 0.448986 0
M  V30 7733 H 754.423 -0.986189 1.62402 0
M  V30 7734 H 752.573 -3.46364 1.75967 0
M  V30 7735 H 754.245 -2.21052 4.04887 0
M  V30 7736 H 752.488 -2.01756 3.84027 0
M  V30 7737 H 753.159 -3.6179 4.16907 0
M  V30 7738 H 755.635 -3.50301 2.24562 0
M  V30 7739 H 754.511 -4.84555 2.57872 0
M  V30 7740 H 754.772 -4.32382 0.921865 0
M  V30 7741 N 753.831 -1.1567 -1.07043 0
M  V30 7742 C 755.077 -0.9349 -1.79965 0
M  V30 7743 C 755.41 0.536464 -1.86643 0
M  V30 7744 O 754.685 1.39781 -1.35247 0
M  V30 7745 C 754.968 -1.55371 -3.24857 0
M  V30 7746 C 754.821 -3.09589 -3.26305 0
M  V30 7747 C 756.14 -1.24209 -4.22209 0
M  V30 7748 H 753.259 -0.341061 -0.653335 0
M  V30 7749 H 755.901 -1.42883 -1.25237 0
M  V30 7750 H 754.051 -1.13368 -3.71591 0
M  V30 7751 H 755.723 -3.60521 -2.87789 0
M  V30 7752 H 753.966 -3.43315 -2.65174 0
M  V30 7753 H 754.637 -3.48002 -4.28484 0
M  V30 7754 H 757.113 -1.60548 -3.8388 0
M  V30 7755 H 755.989 -1.70119 -5.21872 0
M  V30 7756 H 756.25 -0.15964 -4.41812 0
M  V30 7757 N 755.309 1.25446 -0.953992 0
M  V30 7758 C 756.558 1.92441 -0.604101 0
M  V30 7759 C 756.871 1.75543 0.862796 0
M  V30 7760 O 758.077 2.37106 1.32262 0
M  V30 7761 C 756.533 3.44854 -1.02974 0
M  V30 7762 C 756.141 3.70464 -2.51914 0
M  V30 7763 C 757.885 4.1778 -0.752352 0
M  V30 7764 C 755.792 5.1638 -2.88281 0
M  V30 7765 H 754.722 0.720508 -0.222227 0
M  V30 7766 H 757.373 1.42318 -1.15836 0
M  V30 7767 H 755.755 3.93935 -0.403904 0
M  V30 7768 H 756.929 3.32038 -3.19511 0
M  V30 7769 H 755.244 3.10797 -2.77117 0
M  V30 7770 H 757.841 5.25261 -1.00024 0
M  V30 7771 H 758.184 4.15135 0.311212 0
M  V30 7772 H 758.717 3.74605 -1.33851 0
M  V30 7773 H 755.456 5.24135 -3.93653 0
M  V30 7774 H 754.976 5.55855 -2.25357 0
M  V30 7775 H 756.655 5.84497 -2.77439 0
M  V30 7776 N 756.787 0.722489 1.40064 0
M  V30 7777 C 758.012 0.273446 2.05589 0
M  V30 7778 C 758.437 -1.07875 1.54093 0
M  V30 7779 O 757.795 -1.68095 0.679252 0
M  V30 7780 C 757.843 0.271023 3.5958 0
M  V30 7781 O 756.947 -0.745499 4.05606 0
M  V30 7782 H 756.288 0.126856 0.65177 0
M  V30 7783 H 758.818 0.984906 1.79334 0
M  V30 7784 H 758.828 0.111084 4.07849 0
M  V30 7785 H 757.503 1.25776 3.96425 0
M  V30 7786 H 756.08 -0.552719 3.68781 0
M  V30 7787 N 758.265 -1.50454 0.469181 0
M  V30 7788 C 759.228 -2.2703 -0.314643 0
M  V30 7789 C 760.228 -1.31734 -0.922111 0
M  V30 7790 O 761.418 -1.55176 -0.791588 0
M  V30 7791 C 758.55 -3.08616 -1.44806 0
M  V30 7792 H 759.743 -2.97769 0.356892 0
M  V30 7793 H 757.296 -1.54698 0.223191 0
M  V30 7794 H 758.031 -2.42369 -2.1547 0
M  V30 7795 H 757.816 -3.78647 -1.01829 0
M  V30 7796 H 759.306 -3.66536 -2.00103 0
M  V30 7797 N 759.743 -0.201713 -1.56304 0
M  V30 7798 C 760.991 0.434447 -1.97375 0
M  V30 7799 C 761.312 1.61692 -1.08998 0
M  V30 7800 O 760.582 1.95223 -0.162682 0
M  V30 7801 H 759.162 0.163497 -0.728888 0
M  V30 7802 H 761.824 -0.289988 -1.92731 0
M  V30 7803 H 760.92 0.774136 -3.02347 0
M  V30 7804 N 761.222 1.57436 0.0718424 0
M  V30 7805 C 762.471 1.86431 0.769826 0
M  V30 7806 C 762.784 0.794355 1.78744 0
M  V30 7807 O 763.99 0.972148 2.53499 0
M  V30 7808 C 762.446 3.307 1.42006 0
M  V30 7809 C 762.054 4.45824 0.441017 0
M  V30 7810 C 763.798 3.68894 2.10041 0
M  V30 7811 C 761.705 5.81134 1.09717 0
M  V30 7812 H 760.635 0.695474 0.291259 0
M  V30 7813 H 763.286 1.83485 0.0231224 0
M  V30 7814 H 761.668 3.28257 2.21502 0
M  V30 7815 H 762.842 4.59659 -0.32413 0
M  V30 7816 H 761.157 4.16181 -0.134886 0
M  V30 7817 H 763.754 4.67281 2.59908 0
M  V30 7818 H 764.097 2.98692 2.89981 0
M  V30 7819 H 764.63 3.73326 1.37376 0
M  V30 7820 H 761.369 6.54628 0.338095 0
M  V30 7821 H 760.889 5.711 1.83317 0
M  V30 7822 H 762.568 6.26468 1.617 0
M  V30 7823 N 762.7 -0.34323 1.53817 0
M  V30 7824 C 764.111 -0.918823 1.62525 0
M  V30 7825 C 764.462 -1.89542 0.506765 0
M  V30 7826 O 763.587 -2.13326 -0.363441 0
M  V30 7827 C 764.182 -1.67326 2.94597 0
M  V30 7828 C 762.741 -2.19786 3.05567 0
M  V30 7829 C 761.888 -1.01708 2.57974 0
M  V30 7830 H 764.839 -0.121358 1.58235 0
M  V30 7831 H 764.86 -2.53615 2.83654 0
M  V30 7832 H 764.372 -0.962223 3.75983 0
M  V30 7833 H 762.473 -2.94065 2.28816 0
M  V30 7834 H 762.586 -2.46135 4.1104 0
M  V30 7835 H 760.95 -1.39058 2.13389 0
M  V30 7836 H 761.733 -0.320671 3.41799 0
M  V30 7837 N 764.178 -1.45556 -0.604258 0
M  V30 7838 C 765.455 -1.40221 -1.36373 0
M  V30 7839 C 765.835 -0.0745195 -2.10968 0
M  V30 7840 O 765.183 0.943594 -2.08107 0
M  V30 7841 C 765.393 -2.61807 -2.30777 0
M  V30 7842 C 766.741 -3.07037 -2.93281 0
M  V30 7843 O 767.765 -2.62203 -2.41097 0
M  V30 7844 O 766.624 -3.8485 -3.88011 0
M  V30 7845 H 763.718 -0.556602 -0.611656 0
M  V30 7846 H 766.264 -1.57689 -0.627069 0
M  V30 7847 H 765.036 -3.50017 -1.74939 0
M  V30 7848 H 764.659 -2.46688 -3.11818 0
M  V30 7849 N 765.656 0.84705 -1.32902 0
M  V30 7850 C 766.586 1.97166 -1.25091 0
M  V30 7851 C 767.567 1.69578 -0.133161 0
M  V30 7852 O 768.752 1.91519 -0.321591 0
M  V30 7853 C 765.882 3.33157 -0.981006 0
M  V30 7854 C 764.836 3.75119 -2.06082 0
M  V30 7855 C 764.162 5.08826 -1.64318 0
M  V30 7856 C 765.462 3.89774 -3.47669 0
M  V30 7857 H 767.156 2.03958 -2.19184 0
M  V30 7858 H 764.702 0.979907 -1.05517 0
M  V30 7859 H 766.655 4.11393 -0.912891 0
M  V30 7860 H 765.379 3.266 -0.00445559 0
M  V30 7861 H 764.038 2.9914 -2.11921 0
M  V30 7862 H 763.686 4.98732 -0.653876 0
M  V30 7863 H 763.386 5.37873 -2.36572 0
M  V30 7864 H 764.91 5.89546 -1.58958 0
M  V30 7865 H 766.324 4.58343 -3.44376 0
M  V30 7866 H 764.721 4.30248 -4.18338 0
M  V30 7867 H 765.791 2.92463 -3.86773 0
M  V30 7868 N 767.134 1.16236 1.06428 0
M  V30 7869 C 768.411 0.853294 1.76006 0
M  V30 7870 C 768.791 -0.649162 2.00871 0
M  V30 7871 O 768.139 -1.59653 1.63472 0
M  V30 7872 C 768.349 1.67448 3.06206 0
M  V30 7873 C 769.697 1.8866 3.80385 0
M  V30 7874 O 770.721 1.64303 3.16043 0
M  V30 7875 O 769.58 2.29518 4.95968 0
M  V30 7876 H 766.674 0.314737 0.764767 0
M  V30 7877 H 769.22 1.26865 1.12709 0
M  V30 7878 H 767.992 2.69411 2.83784 0
M  V30 7879 H 767.615 1.25608 3.77238 0
M  V30 7880 N 768.612 -1.24939 0.960631 0
M  V30 7881 C 769.522 -2.29374 0.492435 0
M  V30 7882 C 770.538 -1.68262 -0.443154 0
M  V30 7883 O 771.714 -1.98875 -0.31793 0
M  V30 7884 C 768.779 -3.46023 -0.216626 0
M  V30 7885 C 767.84 -4.22557 0.757915 0
M  V30 7886 C 767.073 -5.33636 0.0825969 0
M  V30 7887 O 767.296 -5.59084 -1.13054 0
M  V30 7888 O 766.23 -5.96939 0.771177 0
M  V30 7889 H 770.056 -2.71525 1.36044 0
M  V30 7890 H 767.641 -1.30499 0.72735 0
M  V30 7891 H 769.523 -4.16885 -0.615241 0
M  V30 7892 H 768.198 -3.05862 -1.05971 0
M  V30 7893 H 767.105 -3.54099 1.20685 0
M  V30 7894 H 768.438 -4.66516 1.5692 0
M  V30 7895 N 770.09 -0.729906 -1.39679 0
M  V30 7896 C 771.053 -0.0951668 -2.29002 0
M  V30 7897 C 772.053 0.672471 -1.46063 0
M  V30 7898 O 773.243 0.502245 -1.66803 0
M  V30 7899 C 770.375 0.874631 -3.29489 0
M  V30 7900 H 771.568 -0.882062 -2.86635 0
M  V30 7901 H 769.121 -0.495424 -1.4824 0
M  V30 7902 H 769.856 1.68807 -2.76902 0
M  V30 7903 H 769.641 0.326893 -3.90735 0
M  V30 7904 H 771.131 1.31548 -3.96339 0
M  V30 7905 N 771.568 1.50203 -0.477153 0
M  V30 7906 C 772.814 2.02658 0.0758507 0
M  V30 7907 C 773.147 1.358 1.38824 0
M  V30 7908 O 772.422 0.485696 1.88338 0
M  V30 7909 C 772.705 3.59208 0.253339 0
M  V30 7910 C 772.558 4.36629 -1.0805 0
M  V30 7911 C 773.877 4.28469 1.00509 0
M  V30 7912 H 770.996 0.736538 0.0260921 0
M  V30 7913 H 773.638 1.79464 -0.623925 0
M  V30 7914 H 771.788 3.79101 0.849378 0
M  V30 7915 H 773.46 4.28292 -1.71358 0
M  V30 7916 H 771.703 4.0013 -1.67566 0
M  V30 7917 H 772.374 5.44449 -0.909883 0
M  V30 7918 H 774.85 4.13087 0.499818 0
M  V30 7919 H 773.726 5.37804 1.09808 0
M  V30 7920 H 773.987 3.92057 2.04314 0
M  V30 7921 N 773.046 0.209999 1.56195 0
M  V30 7922 C 773.956 -0.716459 2.23392 0
M  V30 7923 C 774.972 -1.22291 1.23778 0
M  V30 7924 O 776.148 -1.26694 1.56558 0
M  V30 7925 C 773.213 -1.91261 2.89172 0
M  V30 7926 C 772.274 -1.44927 4.04097 0
M  V30 7927 C 771.507 -2.5884 4.66731 0
M  V30 7928 O 771.73 -3.76693 4.2832 0
M  V30 7929 O 770.664 -2.30701 5.55932 0
M  V30 7930 H 774.49 -0.174089 3.03201 0
M  V30 7931 H 772.075 -0.0199505 1.49387 0
M  V30 7932 H 773.957 -2.6114 3.30733 0
M  V30 7933 H 772.632 -2.4433 2.12331 0
M  V30 7934 H 771.539 -0.718839 3.67129 0
M  V30 7935 H 772.872 -0.965084 4.82646 0
M  V30 7936 N 774.524 -1.57472 -0.0634922 0
M  V30 7937 C 775.454 -2.07297 -1.07473 0
M  V30 7938 C 776.435 -0.968162 -1.39859 0
M  V30 7939 O 777.62 -1.24139 -1.49343 0
M  V30 7940 C 774.75 -2.52381 -2.38581 0
M  V30 7941 C 773.704 -3.66813 -2.20526 0
M  V30 7942 C 773.03 -3.97982 -3.57092 0
M  V30 7943 C 774.33 -4.96553 -1.61965 0
M  V30 7944 H 776.024 -2.92033 -0.660092 0
M  V30 7945 H 773.57 -1.40488 -0.316074 0
M  V30 7946 H 775.523 -2.85852 -3.09624 0
M  V30 7947 H 774.247 -1.64684 -2.8204 0
M  V30 7948 H 772.906 -3.33639 -1.51924 0
M  V30 7949 H 772.554 -3.07403 -3.98136 0
M  V30 7950 H 772.254 -4.7504 -3.45848 0
M  V30 7951 H 773.778 -4.33956 -4.29552 0
M  V30 7952 H 775.192 -5.28201 -2.22883 0
M  V30 7953 H 773.589 -5.7799 -1.61394 0
M  V30 7954 H 774.659 -4.81396 -0.581918 0
M  V30 7955 N 776.003 0.335068 -1.53997 0
M  V30 7956 C 777.252 1.07182 -1.70865 0
M  V30 7957 C 777.565 1.89541 -0.483078 0
M  V30 7958 O 778.771 2.66219 -0.532879 0
M  V30 7959 C 777.227 1.95497 -3.02174 0
M  V30 7960 C 776.835 1.18304 -4.32097 0
M  V30 7961 C 778.579 2.68978 -3.28407 0
M  V30 7962 C 776.486 2.05699 -5.54474 0
M  V30 7963 H 775.416 0.403857 -0.636722 0
M  V30 7964 H 778.067 0.33076 -1.80494 0
M  V30 7965 H 776.449 2.73456 -2.86423 0
M  V30 7966 H 777.623 0.451969 -4.58578 0
M  V30 7967 H 775.938 0.565556 -4.12541 0
M  V30 7968 H 778.535 3.34651 -4.17029 0
M  V30 7969 H 778.878 3.36 -2.45784 0
M  V30 7970 H 779.411 1.98087 -3.44973 0
M  V30 7971 H 776.15 1.43204 -6.39666 0
M  V30 7972 H 775.67 2.76572 -5.32229 0
M  V30 7973 H 777.349 2.64554 -5.90441 0
M  V30 7974 N 777.481 1.45874 0.596531 0
M  V30 7975 C 778.758 1.40942 1.35627 0
M  V30 7976 C 779.138 0.0857066 2.10926 0
M  V30 7977 O 778.486 -0.932544 2.08605 0
M  V30 7978 C 778.696 2.63027 2.29386 0
M  V30 7979 C 780.044 3.08588 2.91649 0
M  V30 7980 O 781.068 2.63478 2.39704 0
M  V30 7981 O 779.927 3.86902 3.85965 0
M  V30 7982 H 777.021 0.559838 0.608696 0
M  V30 7983 H 779.567 1.5802 0.618698 0
M  V30 7984 H 778.339 3.5094 1.7308 0
M  V30 7985 H 777.962 2.48338 3.10506 0
M  V30 7986 N 778.959 -0.83999 1.33349 0
M  V30 7987 C 779.869 -1.98182 1.25543 0
M  V30 7988 C 780.885 -1.73204 0.166208 0
M  V30 7989 O 782.061 -1.97596 0.389589 0
M  V30 7990 C 779.126 -3.32157 0.993614 0
M  V30 7991 C 778.187 -3.70258 2.17273 0
M  V30 7992 C 777.42 -4.9784 1.92331 0
M  V30 7993 O 777.643 -5.63679 0.873074 0
M  V30 7994 O 776.577 -5.33418 2.78835 0
M  V30 7995 H 780.403 -2.07708 2.21565 0
M  V30 7996 H 777.988 -0.972852 1.13384 0
M  V30 7997 H 779.87 -4.12433 0.864711 0
M  V30 7998 H 778.545 -3.23637 0.0636596 0
M  V30 7999 H 777.452 -2.90497 2.35716 0
M  V30 8000 H 778.785 -3.83442 3.08598 0
M  V30 8001 N 780.437 -1.16799 -1.0581 0
M  V30 8002 C 781.367 -0.902241 -2.15364 0
M  V30 8003 C 782.348 0.153351 -1.69407 0
M  V30 8004 O 783.533 0.00442032 -1.94199 0
M  V30 8005 C 780.663 -0.407911 -3.44896 0
M  V30 8006 C 779.617 -1.40197 -4.04387 0
M  V30 8007 C 778.943 -0.765848 -5.29187 0
M  V30 8008 C 780.243 -2.77316 -4.42598 0
M  V30 8009 H 781.937 -1.81841 -2.37853 0
M  V30 8010 H 779.483 -0.875731 -1.14311 0
M  V30 8011 H 781.436 -0.20945 -4.20879 0
M  V30 8012 H 780.16 0.54378 -3.22041 0
M  V30 8013 H 778.819 -1.58707 -3.30466 0
M  V30 8014 H 778.467 0.192482 -5.02632 0
M  V30 8015 H 778.167 -1.42939 -5.69949 0
M  V30 8016 H 779.691 -0.577519 -6.07863 0
M  V30 8017 H 781.105 -2.62561 -5.09642 0
M  V30 8018 H 779.502 -3.4019 -4.94359 0
M  V30 8019 H 780.572 -3.32199 -3.53231 0
M  V30 8020 N 781.915 1.24427 -0.967243 0
M  V30 8021 C 783.163 1.92107 -0.627638 0
M  V30 8022 C 783.484 1.75991 0.83978 0
M  V30 8023 O 782.754 1.13118 1.59941 0
M  V30 8024 H 781.334 0.710986 -0.229145 0
M  V30 8025 H 783.996 1.51331 -1.22821 0
M  V30 8026 H 783.092 2.99791 -0.867844 0
M  V30 8027 N 783.393 0.737304 1.3929 0
M  V30 8028 C 784.67 0.212464 1.94443 0
M  V30 8029 C 785.05 -1.28621 1.67391 0
M  V30 8030 O 784.398 -2.0529 1.00342 0
M  V30 8031 C 784.608 0.548565 3.44662 0
M  V30 8032 C 785.956 0.499177 4.21656 0
M  V30 8033 O 786.98 0.485892 3.5287 0
M  V30 8034 O 785.839 0.495739 5.44247 0
M  V30 8035 H 782.933 0.0395457 0.826054 0
M  V30 8036 H 785.479 0.816319 1.48776 0
M  V30 8037 H 784.251 1.58426 3.57795 0
M  V30 8038 H 783.874 -0.0841399 3.97511 0
M  V30 8039 N 784.871 -1.49948 0.485112 0
M  V30 8040 C 786.12 -2.01589 -0.066765 0
M  V30 8041 C 786.433 -1.371 -1.39509 0
M  V30 8042 O 787.639 -1.79978 -2.03274 0
M  V30 8043 C 786.095 -3.59501 -0.169476 0
M  V30 8044 C 785.703 -4.32955 1.15126 0
M  V30 8045 C 787.447 -4.19138 -0.672564 0
M  V30 8046 C 785.354 -5.82684 1.01158 0
M  V30 8047 H 784.284 -0.753453 -0.0287259 0
M  V30 8048 H 786.935 -1.72632 0.622132 0
M  V30 8049 H 785.317 -3.85106 -0.922471 0
M  V30 8050 H 786.491 -4.19064 1.9163 0
M  V30 8051 H 784.806 -3.84991 1.58654 0
M  V30 8052 H 787.403 -5.28767 -0.794325 0
M  V30 8053 H 787.746 -3.81447 -1.66745 0
M  V30 8054 H 788.279 -3.97793 0.0234415 0
M  V30 8055 H 785.018 -6.24873 1.98025 0
M  V30 8056 H 784.538 -5.99112 0.287151 0
M  V30 8057 H 786.217 -6.43376 0.683847 0
M  V30 8058 N 786.349 -0.21828 -1.56081 0
M  V30 8059 C 787.597 0.413488 -1.97825 0
M  V30 8060 C 787.918 1.60527 -1.10707 0
M  V30 8061 O 787.188 1.9504 -0.183378 0
M  V30 8062 H 785.768 0.155757 -0.730581 0
M  V30 8063 H 788.43 -0.310413 -1.92412 0
M  V30 8064 H 787.526 0.742024 -3.03151 0
M  V30 8065 N 787.827 1.57504 0.0551401 0
M  V30 8066 C 789.076 1.87237 0.750009 0
M  V30 8067 C 789.389 0.813268 1.77891 0
M  V30 8068 O 790.595 0.99898 2.52453 0
M  V30 8069 C 789.051 3.32187 1.38491 0
M  V30 8070 C 788.659 4.46267 0.393707 0
M  V30 8071 C 790.403 3.71101 2.06117 0
M  V30 8072 C 788.31 5.82265 1.03547 0
M  V30 8073 H 787.24 0.698524 0.283866 0
M  V30 8074 H 789.891 1.835 0.00365997 0
M  V30 8075 H 788.273 3.30588 2.18008 0
M  V30 8076 H 789.447 4.59289 -0.372865 0
M  V30 8077 H 787.762 4.16015 -0.17902 0
M  V30 8078 H 790.359 4.70012 2.54937 0
M  V30 8079 H 790.702 3.01751 2.86796 0
M  V30 8080 H 791.235 3.74762 1.33409 0
M  V30 8081 H 787.974 6.54949 0.268644 0
M  V30 8082 H 787.494 5.73012 1.7725 0
M  V30 8083 H 789.173 6.28148 1.55047 0
M  V30 8084 N 789.305 -0.326896 1.54172 0
M  V30 8085 C 790.53 -1.08924 1.76494 0
M  V30 8086 C 790.955 -1.81039 0.510523 0
M  V30 8087 O 790.313 -1.73141 -0.537756 0
M  V30 8088 C 790.361 -2.06558 2.95578 0
M  V30 8089 O 789.465 -3.14394 2.6689 0
M  V30 8090 H 788.806 -0.314216 0.584948 0
M  V30 8091 H 791.336 -0.372207 2.01186 0
M  V30 8092 H 791.346 -2.49487 3.22832 0
M  V30 8093 H 790.021 -1.53469 3.86549 0
M  V30 8094 H 788.598 -2.76164 2.50576 0
M  V30 8095 N 790.784 -1.46188 -0.588786 0
M  V30 8096 C 791.734 -1.5271 -1.69303 0
M  V30 8097 C 792.718 -0.388578 -1.56137 0
M  V30 8098 O 793.91 -0.636616 -1.65155 0
M  V30 8099 C 791.039 -1.51457 -3.08084 0
M  V30 8100 C 790.125 -2.70581 -3.26568 0
M  V30 8101 N 790.516 -3.9555 -3.15236 0
M  V30 8102 C 788.814 -2.66676 -3.57491 0
M  V30 8103 C 789.515 -4.75157 -3.35561 0
M  V30 8104 N 788.491 -4.06927 -3.60432 0
M  V30 8105 H 792.293 -2.47136 -1.59063 0
M  V30 8106 H 789.807 -1.41743 -0.792632 0
M  V30 8107 H 791.804 -1.54216 -3.87328 0
M  V30 8108 H 790.464 -0.581036 -3.19459 0
M  V30 8109 H 791.475 -4.2689 -2.93232 0
M  V30 8110 H 788.152 -1.82317 -3.75588 0
M  V30 8111 H 789.542 -5.84126 -3.32034 0
M  V30 8112 N 792.262 0.832906 -1.33792 0
M  V30 8113 C 793.508 1.59089 -1.25772 0
M  V30 8114 C 793.841 1.93414 0.174601 0
M  V30 8115 O 793.116 1.59195 1.11746 0
M  V30 8116 C 793.399 2.89699 -2.13885 0
M  V30 8117 C 793.252 2.62017 -3.65605 0
M  V30 8118 C 794.571 3.91182 -2.01654 0
M  V30 8119 H 791.69 0.577232 -0.458227 0
M  V30 8120 H 794.332 0.960227 -1.6395 0
M  V30 8121 H 792.482 3.4352 -1.81456 0
M  V30 8122 H 794.154 2.14582 -4.08353 0
M  V30 8123 H 792.397 1.95621 -3.87189 0
M  V30 8124 H 793.068 3.55112 -4.2261 0
M  V30 8125 H 795.544 3.46684 -2.30107 0
M  V30 8126 H 794.42 4.80391 -2.65548 0
M  V30 8127 H 794.681 4.30861 -0.990536 0
M  V30 8128 N 793.74 1.17359 1.05189 0
M  V30 8129 C 794.986 0.963413 1.78455 0
M  V30 8130 C 795.319 -0.506703 1.87473 0
M  V30 8131 O 794.594 -1.37611 1.37453 0
M  V30 8132 C 794.877 1.60519 3.22344 0
M  V30 8133 C 794.73 3.14741 3.21338 0
M  V30 8134 C 796.049 1.3091 4.20179 0
M  V30 8135 H 793.168 0.351412 0.647826 0
M  V30 8136 H 795.81 1.44858 1.22948 0
M  V30 8137 H 793.96 1.19265 3.69741 0
M  V30 8138 H 795.632 3.65053 2.82017 0
M  V30 8139 H 793.875 3.4749 2.59679 0
M  V30 8140 H 794.546 3.54775 4.22894 0
M  V30 8141 H 797.022 1.66635 3.81277 0
M  V30 8142 H 795.898 1.784 5.191 0
M  V30 8143 H 796.159 0.229908 4.41502 0
M  V30 8144 N 795.218 -1.23913 0.973828 0
M  V30 8145 C 796.465 -1.92151 0.639079 0
M  V30 8146 C 796.793 -1.76064 -0.826545 0
M  V30 8147 O 796.048 -1.11126 -1.61088 0
M  V30 8148 C 796.347 -3.4406 0.967356 0
M  V30 8149 C 796.013 -3.80321 2.42212 0
M  V30 8150 C 794.675 -3.8993 2.81971 0
M  V30 8151 C 797.027 -3.97935 3.36596 0
M  V30 8152 C 794.355 -4.14575 4.15144 0
M  V30 8153 C 796.707 -4.24079 4.69404 0
M  V30 8154 C 795.371 -4.31908 5.08932 0
M  V30 8155 H 794.641 -0.70313 0.233856 0
M  V30 8156 H 797.288 -1.47072 1.22646 0
M  V30 8157 H 795.593 -3.90667 0.297807 0
M  V30 8158 H 797.29 -3.95077 0.686654 0
M  V30 8159 H 793.88 -3.73411 2.10385 0
M  V30 8160 H 798.064 -3.89908 3.07059 0
M  V30 8161 H 793.32 -4.18858 4.45385 0
M  V30 8162 H 797.494 -4.36652 5.42502 0
M  V30 8163 H 795.121 -4.50758 6.12145 0
M  V30 8164 N 796.696 -0.74468 -1.38897 0
M  V30 8165 C 797.643 -0.111064 -2.30533 0
M  V30 8166 C 798.613 0.719276 -1.49719 0
M  V30 8167 O 799.798 0.677244 -1.78376 0
M  V30 8168 C 796.938 0.78292 -3.36102 0
M  V30 8169 C 796.051 -0.0610817 -4.31957 0
M  V30 8170 C 795.186 0.835075 -5.24595 0
M  V30 8171 C 794.225 -0.0130974 -6.12099 0
M  V30 8172 N 793.362 0.839525 -6.97063 0
M  V30 8173 H 798.202 -0.898113 -2.84144 0
M  V30 8174 H 795.739 -0.454537 -1.39901 0
M  V30 8175 H 797.697 1.31578 -3.95908 0
M  V30 8176 H 796.327 1.53585 -2.83922 0
M  V30 8177 H 795.379 -0.711469 -3.73687 0
M  V30 8178 H 796.691 -0.716482 -4.93627 0
M  V30 8179 H 795.845 1.43542 -5.89475 0
M  V30 8180 H 794.584 1.52423 -4.63269 0
M  V30 8181 H 793.589 -0.626179 -5.46223 0
M  V30 8182 H 794.814 -0.699181 -6.75491 0
M  V30 8183 H 792.76 1.5138 -6.38295 0
M  V30 8184 H 792.677 0.240823 -7.55616 0
M  V30 8185 H 793.945 1.42513 -7.66362 0
M  V30 8186 N 798.174 1.49689 -0.493057 0
M  V30 8187 C 799.585 1.8665 -0.0433032 0
M  V30 8188 C 799.936 1.40607 1.36836 0
M  V30 8189 O 799.061 0.780503 2.01834 0
M  V30 8190 C 799.656 3.38724 -0.0718069 0
M  V30 8191 C 798.215 3.75015 0.32257 0
M  V30 8192 C 797.362 2.7366 -0.4478 0
M  V30 8193 H 800.313 1.42119 -0.706246 0
M  V30 8194 H 800.334 3.73522 0.725347 0
M  V30 8195 H 799.846 3.72204 -1.09935 0
M  V30 8196 H 797.947 3.47142 1.35364 0
M  V30 8197 H 798.06 4.79099 0.00864259 0
M  V30 8198 H 796.424 2.54498 0.101354 0
M  V30 8199 H 797.207 3.09985 -1.47527 0
M  V30 8200 N 799.652 0.226554 1.55963 0
M  V30 8201 C 800.9 -0.402991 1.98041 0
M  V30 8202 C 801.221 -1.59938 1.11557 0
M  V30 8203 O 800.491 -1.9494 0.193719 0
M  V30 8204 H 799.071 -0.15188 0.731397 0
M  V30 8205 H 801.733 0.320613 1.92245 0
M  V30 8206 H 800.829 -0.725937 3.0354 0
M  V30 8207 N 801.13 -1.57531 -0.0467866 0
M  V30 8208 C 802.358 -1.92696 -0.753371 0
M  V30 8209 C 802.773 -0.824792 -1.69831 0
M  V30 8210 O 802.13 0.200155 -1.81399 0
M  V30 8211 C 802.181 -3.27728 -1.52566 0
M  V30 8212 O 801.902 -4.3371 -0.618674 0
M  V30 8213 C 803.403 -3.77066 -2.33101 0
M  V30 8214 H 800.623 -0.636367 -0.212788 0
M  V30 8215 H 803.167 -2.04498 -0.00959361 0
M  V30 8216 H 801.322 -3.17378 -2.22148 0
M  V30 8217 H 801.736 -5.11548 -1.15839 0
M  V30 8218 H 803.21 -4.74109 -2.82709 0
M  V30 8219 H 803.687 -3.07348 -3.13741 0
M  V30 8220 H 804.293 -3.90442 -1.68628 0
M  V30 8221 N 802.608 0.318715 -1.54344 0
M  V30 8222 C 803.857 1.05363 -1.71993 0
M  V30 8223 C 804.17 1.89018 -0.503155 0
M  V30 8224 O 805.376 2.65639 -0.561085 0
M  V30 8225 C 803.832 1.92281 -3.0423 0
M  V30 8226 C 803.44 1.13715 -4.33328 0
M  V30 8227 C 805.184 2.65479 -3.31242 0
M  V30 8228 C 803.091 1.99806 -5.56625 0
M  V30 8229 H 802.021 0.397081 -0.64097 0
M  V30 8230 H 804.672 0.311598 -1.80835 0
M  V30 8231 H 803.054 2.70402 -2.89307 0
M  V30 8232 H 804.228 0.403305 -4.59032 0
M  V30 8233 H 802.543 0.521769 -4.13118 0
M  V30 8234 H 805.14 3.30209 -4.20555 0
M  V30 8235 H 805.483 3.33374 -2.49334 0
M  V30 8236 H 806.016 1.94417 -3.47054 0
M  V30 8237 H 802.755 1.36411 -6.41149 0
M  V30 8238 H 802.275 2.70911 -5.35133 0
M  V30 8239 H 803.954 2.58277 -5.93213 0
M  V30 8240 N 804.086 1.46499 0.581025 0
M  V30 8241 C 804.996 1.59778 1.71779 0
M  V30 8242 C 806.012 0.481223 1.67213 0
M  V30 8243 O 807.188 0.74557 1.87091 0
M  V30 8244 C 804.253 1.58626 3.08283 0
M  V30 8245 C 803.314 2.81527 3.241 0
M  V30 8246 C 802.547 2.80421 4.54092 0
M  V30 8247 O 802.77 1.89262 5.38085 0
M  V30 8248 O 801.704 3.71984 4.73193 0
M  V30 8249 H 805.53 2.55918 1.63523 0
M  V30 8250 H 803.115 1.29311 0.748267 0
M  V30 8251 H 804.997 1.60686 3.89561 0
M  V30 8252 H 803.672 0.656467 3.16973 0
M  V30 8253 H 802.579 2.85021 2.42309 0
M  V30 8254 H 803.912 3.73721 3.20302 0
M  V30 8255 N 805.565 -0.825799 1.34232 0
M  V30 8256 C 806.497 -1.94401 1.21413 0
M  V30 8257 C 807.51 -1.6218 0.141902 0
M  V30 8258 O 808.699 -1.74109 0.3935 0
M  V30 8259 C 805.799 -3.28257 0.842635 0
M  V30 8260 C 804.972 -3.88521 2.00924 0
M  V30 8261 C 804.031 -5.00752 1.61661 0
M  V30 8262 O 803.057 -5.19201 2.33279 0
M  V30 8263 N 804.259 -5.78084 0.52911 0
M  V30 8264 H 807.024 -2.05931 2.17744 0
M  V30 8265 H 804.585 -1.00223 1.27149 0
M  V30 8266 H 806.577 -4.00781 0.561822 0
M  V30 8267 H 805.147 -3.12585 -0.0304029 0
M  V30 8268 H 804.367 -3.08425 2.45495 0
M  V30 8269 H 805.655 -4.25516 2.78951 0
M  V30 8270 H 805.053 -5.65661 -0.0663322 0
M  V30 8271 H 803.61 -6.51072 0.308017 0
M  V30 8272 N 807.043 -1.17915 -1.04565 0
M  V30 8273 C 808.292 -0.965816 -1.77073 0
M  V30 8274 C 808.605 0.506005 -1.88942 0
M  V30 8275 O 809.811 0.837717 -2.58253 0
M  V30 8276 C 808.267 -1.67894 -3.18339 0
M  V30 8277 C 807.875 -3.18972 -3.1458 0
M  V30 8278 C 809.619 -1.54823 -3.9526 0
M  V30 8279 C 807.526 -3.82946 -4.50674 0
M  V30 8280 H 806.456 -0.357729 -0.663736 0
M  V30 8281 H 809.107 -1.41235 -1.17153 0
M  V30 8282 H 807.489 -1.16016 -3.78624 0
M  V30 8283 H 808.663 -3.77835 -2.63776 0
M  V30 8284 H 806.978 -3.32127 -2.51159 0
M  V30 8285 H 809.575 -1.99984 -4.95894 0
M  V30 8286 H 809.918 -0.499727 -4.1329 0
M  V30 8287 H 810.451 -2.03953 -3.41538 0
M  V30 8288 H 807.19 -4.8782 -4.37849 0
M  V30 8289 H 806.71 -3.2887 -5.01602 0
M  V30 8290 H 808.389 -3.85518 -5.196 0
M  V30 8291 N 808.521 1.23394 -0.980386 0
M  V30 8292 C 809.937 1.43961 -0.689008 0
M  V30 8293 C 810.137 1.87229 0.744809 0
M  V30 8294 O 809.193 2.01831 1.51725 0
M  V30 8295 C 810.506 2.49128 -1.68392 0
M  V30 8296 C 812.054 2.62941 -1.69796 0
M  V30 8297 C 812.529 3.71317 -2.68118 0
M  V30 8298 N 814.02 3.7876 -2.66636 0
M  V30 8299 C 814.755 4.62176 -3.39383 0
M  V30 8300 N 814.251 5.49682 -4.21688 0
M  V30 8301 N 816.044 4.56372 -3.28147 0
M  V30 8302 H 808.195 0.936106 -1.90659 0
M  V30 8303 H 810.458 0.473023 -0.821555 0
M  V30 8304 H 810.164 2.24252 -2.70931 0
M  V30 8305 H 810.038 3.47514 -1.46675 0
M  V30 8306 H 812.425 2.87168 -0.679617 0
M  V30 8307 H 812.506 1.64871 -1.95579 0
M  V30 8308 H 812.15 3.4784 -3.70095 0
M  V30 8309 H 812.08 4.68929 -2.3961 0
M  V30 8310 H 814.571 3.16226 -2.06904 0
M  V30 8311 H 814.884 6.10323 -4.74053 0
M  V30 8312 H 813.229 5.49306 -4.25779 0
M  V30 8313 H 816.42 3.87029 -2.63299 0
M  V30 8314 H 816.593 5.21153 -3.85102 0
M  V30 8315 N 809.999 0.752036 1.385 0
M  V30 8316 C 811.224 0.316993 2.04963 0
M  V30 8317 C 811.649 -1.04582 1.56346 0
M  V30 8318 O 811.007 -1.66616 0.714755 0
M  V30 8319 C 811.055 0.347235 3.58924 0
M  V30 8320 O 810.159 -0.659296 4.07096 0
M  V30 8321 H 809.5 0.140652 0.648932 0
M  V30 8322 H 812.03 1.02272 1.77205 0
M  V30 8323 H 812.04 0.19757 4.07521 0
M  V30 8324 H 810.715 1.34157 3.93668 0
M  V30 8325 H 809.292 -0.474371 3.6987 0
M  V30 8326 N 811.477 -1.49425 0.500989 0
M  V30 8327 C 812.723 -2.02753 -0.0436 0
M  V30 8328 C 813.056 -1.37991 -1.36646 0
M  V30 8329 O 812.331 -0.515597 -1.87542 0
M  V30 8330 C 812.614 -3.59565 -0.19616 0
M  V30 8331 C 812.467 -4.34855 1.14982 0
M  V30 8332 C 813.786 -4.30014 -0.936795 0
M  V30 8333 H 810.905 -0.73686 -0.0143711 0
M  V30 8334 H 813.547 -1.78448 0.652397 0
M  V30 8335 H 811.697 -3.80405 -0.788959 0
M  V30 8336 H 813.369 -4.25512 1.7815 0
M  V30 8337 H 811.612 -3.97414 1.73911 0
M  V30 8338 H 812.283 -5.42933 0.996385 0
M  V30 8339 H 814.759 -4.1383 -0.434036 0
M  V30 8340 H 813.635 -5.39483 -1.01238 0
M  V30 8341 H 813.896 -3.95257 -1.9805 0
M  V30 8342 N 812.955 -0.234822 -1.55841 0
M  V30 8343 C 814.204 0.393685 -1.97821 0
M  V30 8344 C 814.517 1.59947 -1.1259 0
M  V30 8345 O 815.723 2.29835 -1.44528 0
M  V30 8346 C 814.179 0.751811 -3.5196 0
M  V30 8347 C 813.787 -0.431898 -4.45913 0
M  V30 8348 C 815.531 1.34518 -4.02623 0
M  V30 8349 C 813.438 -0.0505976 -5.91378 0
M  V30 8350 H 812.368 0.150864 -0.738753 0
M  V30 8351 H 815.019 -0.333132 -1.80451 0
M  V30 8352 H 813.401 1.53642 -3.6498 0
M  V30 8353 H 814.575 -1.20935 -4.44647 0
M  V30 8354 H 812.89 -0.939385 -4.05666 0
M  V30 8355 H 815.487 1.64359 -5.08813 0
M  V30 8356 H 815.83 2.26554 -3.49255 0
M  V30 8357 H 816.363 0.623729 -3.9288 0
M  V30 8358 H 813.102 -0.937779 -6.48757 0
M  V30 8359 H 812.622 0.690898 -5.95808 0
M  V30 8360 H 814.301 0.37146 -6.45933 0
M  V30 8361 N 814.433 1.57553 0.0384317 0
M  V30 8362 C 815.849 1.54663 0.39391 0
M  V30 8363 C 816.049 0.959685 1.77179 0
M  V30 8364 O 815.105 0.576647 2.45827 0
M  V30 8365 C 816.418 2.99156 0.304352 0
M  V30 8366 C 817.966 3.10659 0.382119 0
M  V30 8367 C 818.441 4.56866 0.322111 0
M  V30 8368 N 819.932 4.61629 0.38119 0
M  V30 8369 C 820.667 5.72284 0.357501 0
M  V30 8370 N 820.163 6.92207 0.286654 0
M  V30 8371 N 821.956 5.60628 0.406538 0
M  V30 8372 H 814.107 1.9406 -0.86339 0
M  V30 8373 H 816.37 0.889673 -0.327392 0
M  V30 8374 H 816.076 3.45788 -0.642141 0
M  V30 8375 H 815.95 3.60753 1.10168 0
M  V30 8376 H 818.337 2.6398 1.31904 0
M  V30 8377 H 818.418 2.5191 -0.444391 0
M  V30 8378 H 818.062 5.0421 -0.611104 0
M  V30 8379 H 817.992 5.13515 1.1666 0
M  V30 8380 H 820.483 3.75343 0.438838 0
M  V30 8381 H 820.796 7.72316 0.273421 0
M  V30 8382 H 819.141 6.9454 0.252841 0
M  V30 8383 H 822.332 4.65836 0.459812 0
M  V30 8384 H 822.505 6.46858 0.384608 0
M  V30 8385 N 815.911 -0.310526 1.54511 0
M  V30 8386 C 817.16 -1.0445 1.72549 0
M  V30 8387 C 817.473 -1.88748 0.513172 0
M  V30 8388 O 818.679 -2.65338 0.575165 0
M  V30 8389 C 817.135 -1.90665 3.05246 0
M  V30 8390 C 816.743 -1.11415 4.33925 0
M  V30 8391 C 818.487 -2.63719 3.32645 0
M  V30 8392 C 816.394 -1.96852 5.57677 0
M  V30 8393 H 815.324 -0.393676 0.643067 0
M  V30 8394 H 817.975 -0.302003 1.80998 0
M  V30 8395 H 816.357 -2.68864 2.90737 0
M  V30 8396 H 817.531 -0.378956 4.59239 0
M  V30 8397 H 815.846 -0.499853 4.13389 0
M  V30 8398 H 818.443 -3.27974 4.223 0
M  V30 8399 H 818.786 -3.32047 2.51098 0
M  V30 8400 H 819.319 -1.92574 3.48081 0
M  V30 8401 H 816.058 -1.33009 6.41864 0
M  V30 8402 H 815.578 -2.68069 5.36562 0
M  V30 8403 H 817.257 -2.55127 5.94575 0
M  V30 8404 N 817.389 -1.46805 -0.573248 0
M  V30 8405 C 818.352 -1.57655 -1.66366 0
M  V30 8406 C 819.352 -0.452905 -1.5429 0
M  V30 8407 O 820.542 -0.717502 -1.58737 0
M  V30 8408 C 817.674 -1.50584 -3.05839 0
M  V30 8409 H 818.867 -2.54842 -1.581 0
M  V30 8410 H 816.42 -1.34756 -0.791868 0
M  V30 8411 H 817.155 -0.547127 -3.19651 0
M  V30 8412 H 816.94 -2.32118 -3.16012 0
M  V30 8413 H 818.43 -1.61282 -3.85199 0
M  V30 8414 N 818.867 0.818669 -1.34668 0
M  V30 8415 C 820.095 1.60674 -1.30351 0
M  V30 8416 C 820.51 1.88408 0.121546 0
M  V30 8417 O 819.867 1.47849 1.06991 0
M  V30 8418 C 819.918 2.94516 -2.09625 0
M  V30 8419 O 819.639 2.6799 -3.46573 0
M  V30 8420 C 821.14 3.8891 -2.12754 0
M  V30 8421 H 818.36 0.499306 -0.448258 0
M  V30 8422 H 820.904 1.01828 -1.77345 0
M  V30 8423 H 819.059 3.49908 -1.66262 0
M  V30 8424 H 819.473 3.53361 -3.87603 0
M  V30 8425 H 820.947 4.79972 -2.72637 0
M  V30 8426 H 821.424 4.24599 -1.12306 0
M  V30 8427 H 822.03 3.39453 -2.56225 0
M  V30 8428 N 820.346 1.18468 1.03938 0
M  V30 8429 C 821.256 0.927889 2.1547 0
M  V30 8430 C 822.272 -0.108447 1.73662 0
M  V30 8431 O 823.448 0.0737636 2.01265 0
M  V30 8432 C 820.513 0.458494 3.43655 0
M  V30 8433 C 819.574 1.56295 3.99838 0
M  V30 8434 C 818.807 1.11586 5.21904 0
M  V30 8435 O 819.03 -0.0249057 5.70395 0
M  V30 8436 O 817.964 1.91412 5.70653 0
M  V30 8437 H 821.79 1.86116 2.39989 0
M  V30 8438 H 819.375 0.966607 1.13917 0
M  V30 8439 H 821.257 0.204861 4.20902 0
M  V30 8440 H 819.932 -0.446464 3.20606 0
M  V30 8441 H 818.839 1.87061 3.23974 0
M  V30 8442 H 820.172 2.44408 4.2723 0
M  V30 8443 N 821.824 -1.22873 0.986916 0
M  V30 8444 C 823.07 -1.91746 0.660401 0
M  V30 8445 C 823.403 -1.76738 -0.804812 0
M  V30 8446 O 822.678 -1.13246 -1.58131 0
M  V30 8447 C 822.961 -3.44156 1.05966 0
M  V30 8448 C 822.814 -3.68242 2.58298 0
M  V30 8449 C 824.133 -4.35874 0.60842 0
M  V30 8450 H 821.252 -0.696347 0.241391 0
M  V30 8451 H 823.894 -1.44867 1.22937 0
M  V30 8452 H 822.044 -3.84213 0.575534 0
M  V30 8453 H 823.716 -3.37626 3.14335 0
M  V30 8454 H 821.959 -3.12728 3.00638 0
M  V30 8455 H 822.63 -4.74956 2.81285 0
M  V30 8456 H 825.106 -4.03299 1.02417 0
M  V30 8457 H 823.982 -5.41201 0.916142 0
M  V30 8458 H 824.243 -4.39364 -0.491086 0
M  V30 8459 N 823.302 -0.75937 -1.38099 0
M  V30 8460 C 824.713 -0.385078 -1.82686 0
M  V30 8461 C 825.064 1.0871 -1.6333 0
M  V30 8462 O 824.189 1.84084 -1.13762 0
M  V30 8463 C 824.784 -0.692161 -3.31654 0
M  V30 8464 C 823.343 -0.371077 -3.74566 0
M  V30 8465 C 822.49 -0.942375 -2.60796 0
M  V30 8466 H 825.441 -0.955048 -1.26746 0
M  V30 8467 H 825.462 0.0276001 -3.8049 0
M  V30 8468 H 824.974 -1.76369 -3.4571 0
M  V30 8469 H 823.075 0.693637 -3.66087 0
M  V30 8470 H 823.188 -0.870672 -4.71122 0
M  V30 8471 H 821.552 -0.367383 -2.52036 0
M  V30 8472 H 822.335 -2.01905 -2.77649 0
M  V30 8473 N 824.78 1.49157 -0.508906 0
M  V30 8474 C 826.008 2.06879 0.0293734 0
M  V30 8475 C 826.423 1.36823 1.30095 0
M  V30 8476 O 825.78 0.449034 1.7689 0
M  V30 8477 C 825.831 3.60423 0.278791 0
M  V30 8478 O 825.552 4.27844 -0.942389 0
M  V30 8479 C 827.053 4.34881 0.859825 0
M  V30 8480 H 824.273 0.67057 -0.0240184 0
M  V30 8481 H 826.817 1.91834 -0.708526 0
M  V30 8482 H 824.972 3.75145 0.966689 0
M  V30 8483 H 825.386 5.19671 -0.710097 0
M  V30 8484 H 826.86 5.43161 0.983884 0
M  V30 8485 H 827.337 3.9789 1.85958 0
M  V30 8486 H 827.943 4.24785 0.209152 0
M  V30 8487 N 826.258 0.243083 1.55714 0
M  V30 8488 C 827.205 -0.658078 2.21219 0
M  V30 8489 C 828.175 -1.1742 1.17481 0
M  V30 8490 O 829.36 -1.22937 1.45915 0
M  V30 8491 C 826.5 -1.85104 2.91257 0
M  V30 8492 C 825.613 -1.3718 4.09641 0
M  V30 8493 C 824.748 -2.52403 4.67404 0
M  V30 8494 C 823.787 -2.01321 5.78045 0
M  V30 8495 N 822.924 -3.09896 6.30007 0
M  V30 8496 H 827.764 -0.0927854 2.97856 0
M  V30 8497 H 825.301 -0.0340375 1.47061 0
M  V30 8498 H 827.259 -2.55179 3.3006 0
M  V30 8499 H 825.889 -2.38887 2.17101 0
M  V30 8500 H 824.941 -0.565232 3.76177 0
M  V30 8501 H 826.253 -0.957409 4.89525 0
M  V30 8502 H 825.407 -3.30525 5.08761 0
M  V30 8503 H 824.146 -2.97142 3.86728 0
M  V30 8504 H 823.151 -1.21667 5.36169 0
M  V30 8505 H 824.376 -1.57556 6.6057 0
M  V30 8506 H 822.322 -3.54077 5.52237 0
M  V30 8507 H 822.239 -2.72776 7.05074 0
M  V30 8508 H 823.507 -3.8809 6.76023 0
M  V30 8509 N 827.736 -1.57571 -0.0300757 0
M  V30 8510 C 829.147 -1.77567 -0.576802 0
M  V30 8511 C 829.498 -0.874034 -1.75656 0
M  V30 8512 O 828.623 -0.0686124 -2.16291 0
M  V30 8513 C 829.218 -3.22016 -1.05315 0
M  V30 8514 C 827.777 -3.43212 -1.5454 0
M  V30 8515 C 826.924 -2.73061 -0.483033 0
M  V30 8516 H 829.875 -1.57483 0.196151 0
M  V30 8517 H 829.896 -3.28474 -1.92055 0
M  V30 8518 H 829.408 -3.87613 -0.194298 0
M  V30 8519 H 827.509 -2.82788 -2.42615 0
M  V30 8520 H 827.622 -4.5182 -1.5936 0
M  V30 8521 H 825.986 -2.36805 -0.937835 0
M  V30 8522 H 826.769 -3.4134 0.366341 0
M  V30 8523 N 829.214 0.302327 -1.54673 0
M  V30 8524 C 830.46 1.03924 -1.74149 0
M  V30 8525 C 830.793 1.86968 -0.525041 0
M  V30 8526 O 830.068 1.88538 0.477868 0
M  V30 8527 C 830.351 1.94633 -3.02969 0
M  V30 8528 C 830.204 1.14778 -4.34909 0
M  V30 8529 C 831.523 2.93826 -3.27649 0
M  V30 8530 H 828.642 0.376405 -0.633631 0
M  V30 8531 H 831.284 0.314007 -1.87387 0
M  V30 8532 H 829.434 2.56471 -2.91813 0
M  V30 8533 H 831.106 0.552363 -4.57981 0
M  V30 8534 H 829.349 0.450462 -4.31455 0
M  V30 8535 H 830.02 1.81495 -5.21309 0
M  V30 8536 H 832.496 2.42117 -3.38406 0
M  V30 8537 H 831.372 3.54462 -4.19104 0
M  V30 8538 H 831.633 3.67416 -2.45882 0
M  V30 8539 N 830.692 1.47107 0.565454 0
M  V30 8540 C 831.941 1.5257 1.31929 0
M  V30 8541 C 832.254 0.189092 1.94684 0
M  V30 8542 O 833.46 0.121657 2.71227 0
M  V30 8543 C 831.916 2.68914 2.39193 0
M  V30 8544 C 831.524 4.09069 1.82665 0
M  V30 8545 C 833.268 2.83663 3.1581 0
M  V30 8546 C 831.175 5.16726 2.87661 0
M  V30 8547 H 830.105 0.567869 0.496025 0
M  V30 8548 H 832.756 1.73361 0.60151 0
M  V30 8549 H 831.138 2.41486 3.13848 0
M  V30 8550 H 832.312 4.46364 1.14438 0
M  V30 8551 H 830.627 3.99135 1.1866 0
M  V30 8552 H 833.224 3.61261 3.94201 0
M  V30 8553 H 833.567 1.91804 3.69482 0
M  V30 8554 H 834.1 3.10821 2.48265 0
M  V30 8555 H 830.839 6.10433 2.38854 0
M  V30 8556 H 830.359 4.83957 3.54324 0
M  V30 8557 H 832.038 5.43319 3.51303 0
M  V30 8558 N 832.17 -0.811516 1.35101 0
M  V30 8559 C 833.103 -1.92872 1.21966 0
M  V30 8560 C 834.081 -1.62236 0.108667 0
M  V30 8561 O 835.265 -1.8647 0.275875 0
M  V30 8562 C 832.392 -3.27152 0.876886 0
M  V30 8563 C 831.438 -3.7674 1.99924 0
M  V30 8564 S 832.271 -3.95132 3.61429 0
M  V30 8565 C 833.427 -5.32322 3.29218 0
M  V30 8566 H 833.66 -2.03718 2.16532 0
M  V30 8567 H 831.193 -0.968352 1.20259 0
M  V30 8568 H 833.151 -4.04729 0.685917 0
M  V30 8569 H 831.812 -3.14059 -0.0506289 0
M  V30 8570 H 831.005 -4.73981 1.71343 0
M  V30 8571 H 830.607 -3.06145 2.14829 0
M  V30 8572 H 832.899 -6.1614 2.8174 0
M  V30 8573 H 833.842 -5.65893 4.25641 0
M  V30 8574 H 834.25 -4.98374 2.65111 0
M  V30 8575 N 833.648 -1.19017 -1.03309 0
M  V30 8576 C 834.598 -0.89194 -2.0983 0
M  V30 8577 C 835.582 0.14151 -1.60277 0
M  V30 8578 O 836.774 -0.0635946 -1.76886 0
M  V30 8579 C 833.903 -0.427793 -3.40624 0
M  V30 8580 C 832.989 -1.49374 -3.96923 0
M  V30 8581 N 833.38 -2.71213 -4.26939 0
M  V30 8582 C 831.678 -1.35605 -4.24885 0
M  V30 8583 C 832.379 -3.39849 -4.72099 0
M  V30 8584 N 831.355 -2.67239 -4.73375 0
M  V30 8585 H 835.157 -1.81801 -2.30923 0
M  V30 8586 H 832.671 -1.08171 -1.21131 0
M  V30 8587 H 834.668 -0.195608 -4.16441 0
M  V30 8588 H 833.328 0.491848 -3.20953 0
M  V30 8589 H 834.339 -3.08014 -4.16351 0
M  V30 8590 H 831.016 -0.499537 -4.14501 0
M  V30 8591 H 832.406 -4.44018 -5.04279 0
M  V30 8592 N 835.127 1.22348 -0.993418 0
M  V30 8593 C 836.373 1.91393 -0.67056 0
M  V30 8594 C 836.706 1.77163 0.795428 0
M  V30 8595 O 835.981 1.14084 1.57528 0
M  V30 8596 C 836.264 3.43589 -1.0779 0
M  V30 8597 C 836.117 3.66867 -2.60248 0
M  V30 8598 C 837.436 4.35545 -0.631527 0
M  V30 8599 H 834.555 0.695057 -0.24508 0
M  V30 8600 H 837.197 1.44213 -1.23703 0
M  V30 8601 H 835.347 3.83903 -0.595902 0
M  V30 8602 H 837.019 3.35954 -3.16121 0
M  V30 8603 H 835.262 3.1113 -3.02293 0
M  V30 8604 H 835.933 4.73457 -2.838 0
M  V30 8605 H 838.409 4.0275 -1.04554 0
M  V30 8606 H 837.285 5.40707 -0.944831 0
M  V30 8607 H 837.546 4.39618 0.467779 0
M  V30 8608 N 836.605 0.766683 1.37694 0
M  V30 8609 C 837.515 0.150158 2.34119 0
M  V30 8610 C 838.531 -0.685513 1.59927 0
M  V30 8611 O 839.707 -0.606616 1.92047 0
M  V30 8612 C 836.772 -0.722562 3.39087 0
M  V30 8613 C 835.833 0.128983 4.29106 0
M  V30 8614 C 835.066 -0.702178 5.29061 0
M  V30 8615 O 835.289 -1.93954 5.36412 0
M  V30 8616 O 834.223 -0.114056 6.01792 0
M  V30 8617 H 838.049 0.946829 2.88563 0
M  V30 8618 H 835.634 0.527765 1.39768 0
M  V30 8619 H 837.516 -1.22095 4.03325 0
M  V30 8620 H 836.191 -1.49751 2.86978 0
M  V30 8621 H 835.098 0.673612 3.67985 0
M  V30 8622 H 836.431 0.866892 4.84506 0
M  V30 8623 N 838.083 -1.48885 0.516809 0
M  V30 8624 C 839.331 -2.02088 -0.0220166 0
M  V30 8625 C 839.652 -1.39735 -1.36011 0
M  V30 8626 O 838.922 -0.558119 -1.87781 0
M  V30 8627 H 837.502 -0.746917 -0.0111255 0
M  V30 8628 H 840.164 -1.8274 0.677647 0
M  V30 8629 H 839.26 -3.11786 -0.140067 0
M  V30 8630 N 839.561 -0.251338 -1.55583 0
M  V30 8631 C 840.809 0.371434 -1.98657 0
M  V30 8632 C 841.13 1.58143 -1.14087 0
M  V30 8633 O 840.4 1.94607 -0.224708 0
M  V30 8634 H 838.98 0.140225 -0.733721 0
M  V30 8635 H 841.642 -0.351157 -1.9171 0
M  V30 8636 H 840.738 0.677554 -3.04657 0
M  V30 8637 N 841.039 1.57585 0.0217189 0
M  V30 8638 C 842.455 1.55072 0.377484 0
M  V30 8639 C 842.655 0.978423 1.76151 0
M  V30 8640 O 841.711 0.602688 2.45202 0
M  V30 8641 C 843.024 2.99462 0.272605 0
M  V30 8642 C 844.572 3.11047 0.349148 0
M  V30 8643 C 845.047 4.57182 0.273636 0
M  V30 8644 N 846.538 4.62007 0.332206 0
M  V30 8645 C 847.273 5.72631 0.296782 0
M  V30 8646 N 846.769 6.92472 0.21322 0
M  V30 8647 N 848.562 5.61028 0.347053 0
M  V30 8648 H 840.713 1.93133 -0.883925 0
M  V30 8649 H 842.976 0.886151 -0.33681 0
M  V30 8650 H 842.682 3.45088 -0.67878 0
M  V30 8651 H 842.556 3.61901 1.06335 0
M  V30 8652 H 844.943 2.65364 1.29097 0
M  V30 8653 H 845.024 2.51425 -0.471085 0
M  V30 8654 H 844.668 5.03534 -0.664548 0
M  V30 8655 H 844.598 5.14724 1.11207 0
M  V30 8656 H 847.089 3.75788 0.399003 0
M  V30 8657 H 847.402 7.72563 0.191492 0
M  V30 8658 H 845.747 6.94769 0.179161 0
M  V30 8659 H 848.938 4.66298 0.410378 0
M  V30 8660 H 849.111 6.47229 0.315979 0
M  V30 8661 N 842.517 -0.29412 1.54831 0
M  V30 8662 C 843.48 -1.3461 1.85507 0
M  V30 8663 C 844.48 -1.43359 0.728343 0
M  V30 8664 O 845.67 -1.42875 0.996609 0
M  V30 8665 C 842.802 -2.73012 2.0415 0
M  V30 8666 H 843.995 -1.08651 2.79526 0
M  V30 8667 H 841.548 -0.531138 1.46999 0
M  V30 8668 H 842.283 -3.04183 1.12441 0
M  V30 8669 H 842.068 -2.68051 2.86166 0
M  V30 8670 H 843.558 -3.49061 2.29229 0
M  V30 8671 N 843.995 -1.47404 -0.557645 0
M  V30 8672 C 845.243 -1.53703 -1.31224 0
M  V30 8673 C 845.564 -0.200742 -1.93964 0
M  V30 8674 O 844.834 0.775253 -1.79907 0
M  V30 8675 H 843.414 -0.566171 -0.487299 0
M  V30 8676 H 846.076 -1.83699 -0.651195 0
M  V30 8677 H 845.172 -2.30335 -2.10599 0
M  V30 8678 N 845.473 0.80434 -1.35529 0
M  V30 8679 C 846.721 1.55845 -1.28673 0
M  V30 8680 C 847.042 1.94511 0.137976 0
M  V30 8681 O 846.312 1.63775 1.07492 0
M  V30 8682 H 844.892 0.577931 -0.473291 0
M  V30 8683 H 847.554 0.959293 -1.69657 0
M  V30 8684 H 846.65 2.47285 -1.90411 0
M  V30 8685 N 846.951 1.19563 1.02676 0
M  V30 8686 C 847.901 0.903055 2.09354 0
M  V30 8687 C 848.885 -0.133009 1.60349 0
M  V30 8688 O 850.077 0.0729744 1.7685 0
M  V30 8689 C 847.206 0.445852 3.40392 0
M  V30 8690 C 846.292 1.51477 3.96126 0
M  V30 8691 N 846.683 2.73474 4.25495 0
M  V30 8692 C 844.981 1.37856 4.2416 0
M  V30 8693 C 845.682 3.42348 4.7029 0
M  V30 8694 N 844.658 2.69746 4.71952 0
M  V30 8695 H 848.46 1.83023 2.29956 0
M  V30 8696 H 845.974 1.08812 1.20556 0
M  V30 8697 H 847.971 0.21769 4.16331 0
M  V30 8698 H 846.631 -0.47482 3.2121 0
M  V30 8699 H 847.642 3.10217 4.14711 0
M  V30 8700 H 844.319 0.521512 4.1423 0
M  V30 8701 H 845.709 4.46686 5.01917 0
M  V30 8702 N 848.429 -1.21819 0.999893 0
M  V30 8703 C 849.379 -2.21823 0.527104 0
M  V30 8704 C 850.363 -1.55628 -0.408515 0
M  V30 8705 O 851.555 -1.75444 -0.234196 0
M  V30 8706 C 848.684 -3.42972 -0.149986 0
M  V30 8707 C 847.77 -4.16364 0.806349 0
M  V30 8708 N 848.161 -4.66403 1.95708 0
M  V30 8709 C 846.459 -4.41618 0.623672 0
M  V30 8710 C 847.16 -5.22443 2.5579 0
M  V30 8711 N 846.136 -5.11514 1.83995 0
M  V30 8712 H 849.938 -2.58161 1.40464 0
M  V30 8713 H 847.452 -1.37569 0.863054 0
M  V30 8714 H 849.449 -4.13816 -0.50613 0
M  V30 8715 H 848.109 -3.08145 -1.02357 0
M  V30 8716 H 849.12 -4.62142 2.33763 0
M  V30 8717 H 845.797 -4.17005 -0.203257 0
M  V30 8718 H 847.187 -5.7165 3.5308 0
M  V30 8719 N 849.908 -0.773975 -1.37286 0
M  V30 8720 C 851.133 -0.349561 -2.04433 0
M  V30 8721 C 851.558 1.02082 -1.5799 0
M  V30 8722 O 850.916 1.65458 -0.741172 0
M  V30 8723 C 850.964 -0.404292 -3.58326 0
M  V30 8724 O 850.068 0.594447 -4.08093 0
M  V30 8725 H 849.409 -0.150959 -0.646612 0
M  V30 8726 H 851.939 -1.05079 -1.75555 0
M  V30 8727 H 851.949 -0.262378 -4.07155 0
M  V30 8728 H 850.624 -1.40403 -3.91484 0
M  V30 8729 H 849.201 0.415468 -3.70578 0
M  V30 8730 N 851.386 1.48609 -0.524698 0
M  V30 8731 C 852.632 2.034 0.00323579 0
M  V30 8732 C 852.987 1.39513 1.32491 0
M  V30 8733 O 852.28 0.529876 1.84127 0
M  V30 8734 C 852.474 3.56906 0.187873 0
M  V30 8735 C 852.303 4.35674 -1.11436 0
M  V30 8736 C 851.073 4.76809 -1.67276 0
M  V30 8737 C 853.271 4.72814 -2.02365 0
M  V30 8738 N 851.253 5.40093 -2.91843 0
M  V30 8739 C 852.624 5.36062 -3.11508 0
M  V30 8740 C 854.679 4.54747 -2.02755 0
M  V30 8741 C 853.382 5.83154 -4.21099 0
M  V30 8742 C 855.408 5.02815 -3.11337 0
M  V30 8743 C 854.77 5.66084 -4.19199 0
M  V30 8744 H 850.869 0.780967 -0.0401842 0
M  V30 8745 H 853.453 1.81495 -0.704808 0
M  V30 8746 H 851.624 3.78645 0.864996 0
M  V30 8747 H 853.356 3.98335 0.714938 0
M  V30 8748 H 850.111 4.57754 -1.21483 0
M  V30 8749 H 850.535 5.76305 -3.55249 0
M  V30 8750 H 855.177 4.05217 -1.20661 0
M  V30 8751 H 852.895 6.31692 -5.03975 0
M  V30 8752 H 856.481 4.9063 -3.12688 0
M  V30 8753 H 855.361 6.02604 -5.01834 0
M  V30 8754 N 852.864 0.259585 1.55447 0
M  V30 8755 C 853.774 -0.645026 2.25558 0
M  V30 8756 C 854.79 -1.18291 1.27606 0
M  V30 8757 O 855.966 -1.21649 1.6051 0
M  V30 8758 C 853.031 -1.81964 2.9511 0
M  V30 8759 C 852.092 -1.31997 4.08504 0
M  V30 8760 C 851.325 -2.43861 4.74729 0
M  V30 8761 O 851.548 -3.62876 4.40088 0
M  V30 8762 O 850.482 -2.12898 5.6299 0
M  V30 8763 H 854.308 -0.0775399 3.03601 0
M  V30 8764 H 851.893 0.0275859 1.49375 0
M  V30 8765 H 853.775 -2.50485 3.38873 0
M  V30 8766 H 852.45 -2.37451 2.19997 0
M  V30 8767 H 851.357 -0.601676 3.6923 0
M  V30 8768 H 852.69 -0.811045 4.85472 0
M  V30 8769 N 854.342 -1.57594 -0.0133615 0
M  V30 8770 C 855.619 -1.81173 -0.737273 0
M  V30 8771 C 855.999 -0.861395 -1.92726 0
M  V30 8772 O 855.347 0.0929324 -2.28311 0
M  V30 8773 C 855.557 -3.29314 -1.15557 0
M  V30 8774 C 856.905 -3.94707 -1.56498 0
M  V30 8775 O 857.929 -3.33557 -1.24973 0
M  V30 8776 O 856.788 -5.02402 -2.15069 0
M  V30 8777 H 853.882 -0.745575 -0.357837 0
M  V30 8778 H 856.428 -1.69696 0.0110674 0
M  V30 8779 H 855.2 -3.90096 -0.30677 0
M  V30 8780 H 854.823 -3.45739 -1.96343 0
M  V30 8781 N 855.82 0.285905 -1.54985 0
M  V30 8782 C 856.75 1.35752 -1.89983 0
M  V30 8783 C 857.731 1.52163 -0.760295 0
M  V30 8784 O 858.916 1.65421 -1.01733 0
M  V30 8785 C 856.046 2.71925 -2.16042 0
M  V30 8786 C 855 2.70261 -3.31878 0
M  V30 8787 C 854.326 4.09864 -3.43388 0
M  V30 8788 C 855.626 2.30667 -4.68604 0
M  V30 8789 H 857.32 1.06709 -2.79738 0
M  V30 8790 H 854.866 0.511884 -1.34595 0
M  V30 8791 H 856.819 3.46992 -2.39113 0
M  V30 8792 H 855.543 3.02523 -1.23074 0
M  V30 8793 H 854.202 1.97651 -3.08755 0
M  V30 8794 H 853.85 4.37664 -2.47909 0
M  V30 8795 H 853.55 4.09648 -4.21262 0
M  V30 8796 H 855.074 4.86689 -3.68736 0
M  V30 8797 H 856.488 2.95453 -4.91305 0
M  V30 8798 H 854.885 2.41637 -5.49301 0
M  V30 8799 H 855.955 1.25793 -4.68299 0
M  V30 8800 N 857.298 1.47698 0.54982 0
M  V30 8801 C 858.575 1.45185 1.31075 0
M  V30 8802 C 858.955 0.152768 2.10547 0
M  V30 8803 O 858.303 -0.865706 2.11466 0
M  V30 8804 C 858.513 2.70192 2.20902 0
M  V30 8805 C 859.861 3.1771 2.81683 0
M  V30 8806 O 860.885 2.70971 2.312 0
M  V30 8807 O 859.744 3.98986 3.7346 0
M  V30 8808 H 856.838 0.57892 0.590577 0
M  V30 8809 H 859.384 1.59908 0.568112 0
M  V30 8810 H 858.156 3.56269 1.61828 0
M  V30 8811 H 857.779 2.58091 3.02448 0
M  V30 8812 N 858.776 -0.797141 1.35954 0
M  V30 8813 C 860.053 -1.54224 1.2031 0
M  V30 8814 C 860.433 -2.10013 -0.213926 0
M  V30 8815 O 859.781 -1.93292 -1.21862 0
M  V30 8816 C 859.991 -2.6433 2.27883 0
M  V30 8817 C 861.339 -3.32418 2.64165 0
M  V30 8818 O 862.363 -2.74607 2.26868 0
M  V30 8819 O 861.222 -4.36876 3.28331 0
M  V30 8820 H 858.316 -0.681857 0.467974 0
M  V30 8821 H 860.862 -0.836288 1.47663 0
M  V30 8822 H 859.634 -2.21044 3.22885 0
M  V30 8823 H 859.257 -3.42551 2.01853 0
M  V30 8824 N 860.254 -1.20106 -1.0204 0
M  V30 8825 C 861.184 -0.970301 -2.12385 0
M  V30 8826 C 862.165 0.099378 -1.69809 0
M  V30 8827 O 863.35 -0.057365 -1.94115 0
M  V30 8828 C 860.48 -0.517431 -3.43424 0
M  V30 8829 C 859.434 -1.52992 -3.99722 0
M  V30 8830 C 858.76 -0.933817 -5.26483 0
M  V30 8831 C 860.06 -2.91257 -4.33551 0
M  V30 8832 H 861.754 -1.89316 -2.31948 0
M  V30 8833 H 859.3 -0.911655 -1.11467 0
M  V30 8834 H 861.253 -0.343243 -4.2 0
M  V30 8835 H 859.977 0.441049 -3.23608 0
M  V30 8836 H 858.636 -1.6914 -3.2525 0
M  V30 8837 H 858.284 0.0324763 -5.0299 0
M  V30 8838 H 857.984 -1.60999 -5.65113 0
M  V30 8839 H 859.508 -0.770614 -6.05718 0
M  V30 8840 H 860.922 -2.78642 -5.0103 0
M  V30 8841 H 859.319 -3.55745 -4.83286 0
M  V30 8842 H 860.389 -3.43269 -3.42483 0
M  V30 8843 N 861.732 1.21287 -1.00634 0
M  V30 8844 C 862.662 2.25973 -0.588089 0
M  V30 8845 C 863.643 1.65527 0.391764 0
M  V30 8846 O 864.828 1.92179 0.279452 0
M  V30 8847 C 861.958 3.47197 0.0847336 0
M  V30 8848 C 860.912 4.20168 -0.815039 0
M  V30 8849 C 860.238 5.34699 -0.00855393 0
M  V30 8850 C 861.538 4.77416 -2.11828 0
M  V30 8851 H 863.232 2.61212 -1.46317 0
M  V30 8852 H 860.778 1.25563 -0.704985 0
M  V30 8853 H 862.731 4.19602 0.388821 0
M  V30 8854 H 861.455 3.11092 0.994456 0
M  V30 8855 H 860.114 3.49614 -1.10297 0
M  V30 8856 H 859.762 4.94837 0.902499 0
M  V30 8857 H 859.462 5.84449 -0.607664 0
M  V30 8858 H 860.986 6.09914 0.289317 0
M  V30 8859 H 862.4 5.41694 -1.87725 0
M  V30 8860 H 860.797 5.37561 -2.66736 0
M  V30 8861 H 861.867 3.96724 -2.78816 0
M  V30 8862 N 863.21 0.781244 1.36873 0
M  V30 8863 C 864.14 0.188128 2.32741 0
M  V30 8864 C 865.121 -0.672326 1.56249 0
M  V30 8865 O 866.306 -0.607835 1.84442 0
M  V30 8866 C 863.436 -0.684341 3.40491 0
M  V30 8867 C 862.39 0.0755641 4.27933 0
M  V30 8868 C 861.716 -0.916968 5.26779 0
M  V30 8869 C 863.016 1.26006 5.06873 0
M  V30 8870 H 864.71 0.989016 2.82593 0
M  V30 8871 H 862.256 0.477038 1.35869 0
M  V30 8872 H 864.209 -1.10915 4.06541 0
M  V30 8873 H 862.933 -1.51785 2.89187 0
M  V30 8874 H 861.592 0.481258 3.63427 0
M  V30 8875 H 861.24 -1.74528 4.71751 0
M  V30 8876 H 860.94 -0.413 5.86147 0
M  V30 8877 H 862.464 -1.34052 5.95703 0
M  V30 8878 H 863.878 0.911425 5.66009 0
M  V30 8879 H 862.275 1.69676 5.75613 0
M  V30 8880 H 863.345 2.05948 4.38991 0
M  V30 8881 N 864.689 -1.48329 0.532571 0
M  V30 8882 C 865.652 -2.2816 -0.218069 0
M  V30 8883 C 866.652 -1.35526 -0.865409 0
M  V30 8884 O 867.842 -1.58394 -0.725061 0
M  V30 8885 C 864.974 -3.1448 -1.31586 0
M  V30 8886 H 866.167 -2.95987 0.482865 0
M  V30 8887 H 863.72 -1.53612 0.288603 0
M  V30 8888 H 864.455 -2.5129 -2.04997 0
M  V30 8889 H 864.24 -3.82625 -0.856779 0
M  V30 8890 H 865.73 -3.74693 -1.84377 0
M  V30 8891 N 866.167 -0.267825 -1.55308 0
M  V30 8892 C 867.395 0.354587 -2.03839 0
M  V30 8893 C 867.81 1.50007 -1.14644 0
M  V30 8894 O 867.167 1.81752 -0.165055 0
M  V30 8895 C 867.218 0.84254 -3.51544 0
M  V30 8896 O 866.939 -0.257318 -4.37344 0
M  V30 8897 C 868.44 1.53351 -4.15931 0
M  V30 8898 H 865.66 0.0818131 -0.665994 0
M  V30 8899 H 868.204 -0.397795 -2.00594 0
M  V30 8900 H 866.359 1.54503 -3.55257 0
M  V30 8901 H 866.773 0.116593 -5.2437 0
M  V30 8902 H 868.247 1.82643 -5.20908 0
M  V30 8903 H 868.724 2.4626 -3.63666 0
M  V30 8904 H 869.33 0.87506 -4.162 0
M  V30 8905 N 867.645 1.57599 0.00500368 0
M  V30 8906 C 868.875 1.94344 0.700998 0
M  V30 8907 C 869.283 0.868011 1.68114 0
M  V30 8908 O 868.626 -0.16214 1.82983 0
M  V30 8909 C 868.688 3.27046 1.49268 0
M  V30 8910 C 868.352 4.51992 0.674684 0
M  V30 8911 C 869.349 5.19888 -0.0354833 0
M  V30 8912 C 867.034 4.98432 0.622129 0
M  V30 8913 C 869.028 6.3252 -0.787246 0
M  V30 8914 C 866.715 6.10954 -0.133362 0
M  V30 8915 C 867.713 6.77855 -0.836788 0
M  V30 8916 O 867.401 7.88221 -1.57996 0
M  V30 8917 H 867.133 0.645572 0.20053 0
M  V30 8918 H 869.687 2.0536 -0.040718 0
M  V30 8919 H 867.917 3.12424 2.27877 0
M  V30 8920 H 869.606 3.4894 2.07355 0
M  V30 8921 H 870.372 4.85 -0.00400159 0
M  V30 8922 H 866.251 4.46189 1.15917 0
M  V30 8923 H 869.795 6.84671 -1.33683 0
M  V30 8924 H 865.692 6.45285 -0.166682 0
M  V30 8925 H 866.46 8.0471 -1.49615 0
M  V30 8926 N 869.123 -0.277682 1.55134 0
M  V30 8927 C 870.348 -1.03254 1.7987 0
M  V30 8928 C 870.773 -1.79324 0.567861 0
M  V30 8929 O 870.131 -1.74764 -0.4824 0
M  V30 8930 C 870.179 -1.9705 3.02 0
M  V30 8931 O 869.283 -3.05744 2.76757 0
M  V30 8932 H 868.624 -0.295447 0.594649 0
M  V30 8933 H 871.154 -0.308013 2.02268 0
M  V30 8934 H 871.164 -2.3909 3.30606 0
M  V30 8935 H 869.839 -1.41094 3.91236 0
M  V30 8936 H 868.416 -2.68052 2.59235 0
M  V30 8937 N 870.601 -1.47988 -0.541979 0
M  V30 8938 C 871.511 -1.64276 -1.67483 0
M  V30 8939 C 872.527 -0.525387 -1.65879 0
M  V30 8940 O 873.703 -0.794912 -1.85049 0
M  V30 8941 C 870.768 -1.66744 -3.03969 0
M  V30 8942 C 869.829 -2.90021 -3.16522 0
M  V30 8943 C 869.062 -2.92362 -4.46498 0
M  V30 8944 O 869.285 -2.03462 -5.32878 0
M  V30 8945 O 868.219 -3.84399 -4.63164 0
M  V30 8946 H 872.045 -2.60164 -1.5668 0
M  V30 8947 H 869.63 -1.31249 -0.71372 0
M  V30 8948 H 871.512 -1.70958 -3.85164 0
M  V30 8949 H 870.187 -0.740277 -3.15122 0
M  V30 8950 H 869.094 -2.91345 -2.34667 0
M  V30 8951 H 870.427 -3.82082 -3.10281 0
M  V30 8952 N 872.079 0.78992 -1.36375 0
M  V30 8953 C 873.009 1.91683 -1.33341 0
M  V30 8954 C 873.99 1.68861 -0.204965 0
M  V30 8955 O 875.175 1.89982 -0.402531 0
M  V30 8956 C 872.305 3.28696 -1.12143 0
M  V30 8957 C 871.259 3.66041 -2.21806 0
M  V30 8958 C 870.585 5.01399 -1.85751 0
M  V30 8959 C 871.885 3.74677 -3.63888 0
M  V30 8960 H 873.579 1.94478 -2.27637 0
M  V30 8961 H 871.125 0.934271 -1.09578 0
M  V30 8962 H 873.078 4.07151 -1.08656 0
M  V30 8963 H 871.802 3.26287 -0.142974 0
M  V30 8964 H 870.461 2.89883 -2.24418 0
M  V30 8965 H 870.109 4.9551 -0.864817 0
M  V30 8966 H 869.809 5.27355 -2.59173 0
M  V30 8967 H 871.333 5.82274 -1.83819 0
M  V30 8968 H 872.747 4.43324 -3.63506 0
M  V30 8969 H 871.144 4.12118 -4.3621 0
M  V30 8970 H 872.214 2.75795 -3.9883 0
M  V30 8971 N 873.557 1.20646 1.01402 0
M  V30 8972 C 874.973 0.961866 1.27359 0
M  V30 8973 C 875.173 -0.357083 1.98311 0
M  V30 8974 O 874.229 -1.08498 2.28001 0
M  V30 8975 C 875.542 2.14627 2.10609 0
M  V30 8976 C 877.09 2.18753 2.23866 0
M  V30 8977 C 877.565 3.36686 3.10494 0
M  V30 8978 N 879.056 3.36716 3.18083 0
M  V30 8979 C 879.791 4.24615 3.85343 0
M  V30 8980 N 879.287 5.22697 4.54708 0
M  V30 8981 N 881.08 4.12449 3.81893 0
M  V30 8982 H 873.231 2.05481 0.537721 0
M  V30 8983 H 875.494 0.899292 0.299963 0
M  V30 8984 H 875.2 3.10159 1.65814 0
M  V30 8985 H 875.074 2.12935 3.11349 0
M  V30 8986 H 877.461 1.23782 2.67885 0
M  V30 8987 H 877.542 2.24492 1.22626 0
M  V30 8988 H 877.186 4.31945 2.67181 0
M  V30 8989 H 877.116 3.28185 4.11828 0
M  V30 8990 H 879.607 2.65728 2.68695 0
M  V30 8991 H 879.92 5.86087 5.03708 0
M  V30 8992 H 878.265 5.26631 4.53525 0
M  V30 8993 H 881.456 3.35091 3.26851 0
M  V30 8994 H 881.629 4.81162 4.34035 0
M  V30 8995 N 875.035 -1.20752 1.01276 0
M  V30 8996 C 876.26 -1.94547 0.718769 0
M  V30 8997 C 876.685 -1.7404 -0.713563 0
M  V30 8998 O 876.043 -1.03221 -1.49047 0
M  V30 8999 C 876.091 -3.44823 1.05497 0
M  V30 9000 O 875.195 -4.12072 0.164516 0
M  V30 9001 H 874.536 -0.607931 0.267051 0
M  V30 9002 H 877.066 -1.53292 1.35509 0
M  V30 9003 H 877.076 -3.95427 1.00507 0
M  V30 9004 H 875.751 -3.59072 2.09858 0
M  V30 9005 H 874.328 -3.71909 0.271615 0
M  V30 9006 N 876.513 -0.788492 -1.36457 0
M  V30 9007 C 877.929 -0.470063 -1.52521 0
M  V30 9008 C 878.129 1.01176 -1.74258 0
M  V30 9009 O 877.185 1.79726 -1.77355 0
M  V30 9010 C 878.498 -1.2997 -2.71161 0
M  V30 9011 C 880.046 -1.2933 -2.85031 0
M  V30 9012 C 880.521 -2.10665 -4.06674 0
M  V30 9013 N 882.012 -2.08107 -4.13819 0
M  V30 9014 C 882.747 -2.6781 -5.07016 0
M  V30 9015 N 882.243 -3.36369 -6.05663 0
M  V30 9016 N 884.036 -2.57549 -4.99625 0
M  V30 9017 H 876.187 -1.7484 -1.20602 0
M  V30 9018 H 878.45 -0.743159 -0.588574 0
M  V30 9019 H 878.156 -2.35051 -2.61618 0
M  V30 9020 H 878.03 -0.940367 -3.6529 0
M  V30 9021 H 880.417 -0.250414 -2.94036 0
M  V30 9022 H 880.498 -1.69239 -1.91812 0
M  V30 9023 H 880.142 -3.14984 -3.98431 0
M  V30 9024 H 880.072 -1.68128 -4.9904 0
M  V30 9025 H 882.563 -1.58208 -3.43189 0
M  V30 9026 H 882.876 -3.79258 -6.73338 0
M  V30 9027 H 881.221 -3.40471 -6.05891 0
M  V30 9028 H 884.412 -2.0359 -4.21508 0
M  V30 9029 H 884.585 -3.0437 -5.72069 0
M  V30 9030 N 877.991 1.48044 -0.54043 0
M  V30 9031 C 878.954 2.28273 0.205966 0
M  V30 9032 C 879.954 1.35983 0.858209 0
M  V30 9033 O 881.144 1.58776 0.716651 0
M  V30 9034 C 878.276 3.15174 1.29917 0
M  V30 9035 H 879.469 2.95727 -0.498555 0
M  V30 9036 H 877.022 1.53457 -0.296745 0
M  V30 9037 H 877.757 2.52374 2.03661 0
M  V30 9038 H 877.542 3.83074 0.836475 0
M  V30 9039 H 879.032 3.75666 1.82387 0
M  V30 9040 N 879.47 0.276058 1.55163 0
M  V30 9041 C 880.418 -0.626978 2.2399 0
M  V30 9042 C 881.412 -1.15708 1.23725 0
M  V30 9043 O 882.618 -1.1106 1.41653 0
M  V30 9044 H 878.993 -0.220742 0.718872 0
M  V30 9045 H 880.964 -0.0236569 2.98391 0
M  V30 9046 C 879.713 -1.79935 2.97521 0
M  V30 9047 H 879.036 -1.40064 3.74463 0
M  V30 9048 H 880.476 -2.40781 3.48999 0
M  V30 9049 C 878.935 -2.68838 2.03046 0
M  V30 9050 O 879.465 -3.69224 1.58229 0
M  V30 9051 N 877.671 -2.36028 1.69527 0
M  V30 9052 H 877.218 -1.54442 2.06169 0
M  V30 9053 H 877.176 -2.95782 1.06586 0
M  V30 9054 N 880.948 -1.576 0.00335426 0
M  V30 9055 C 882.197 -1.89892 -0.680001 0
M  V30 9056 C 882.51 -0.878731 -1.7475 0
M  V30 9057 O 883.716 -1.09199 -2.48572 0
M  V30 9058 C 882.172 -3.37098 -1.26066 0
M  V30 9059 C 881.78 -4.4742 -0.227807 0
M  V30 9060 C 883.524 -3.78495 -1.92202 0
M  V30 9061 C 881.431 -5.85706 -0.81865 0
M  V30 9062 H 880.361 -0.708578 -0.257746 0
M  V30 9063 H 883.012 -1.83387 0.0644472 0
M  V30 9064 H 881.394 -3.38451 -2.05589 0
M  V30 9065 H 882.568 -4.57589 0.54307 0
M  V30 9066 H 880.883 -4.15064 0.333297 0
M  V30 9067 H 883.48 -4.7915 -2.37318 0
M  V30 9068 H 883.823 -3.12187 -2.75399 0
M  V30 9069 H 884.356 -3.79456 -1.19408 0
M  V30 9070 H 881.095 -6.55495 -0.0253787 0
M  V30 9071 H 880.615 -5.79196 -1.55861 0
M  V30 9072 H 882.294 -6.33469 -1.31627 0
M  V30 9073 N 882.426 0.269451 -1.5528 0
M  V30 9074 C 883.654 1.01872 -1.80082 0
M  V30 9075 C 884.069 1.79802 -0.575917 0
M  V30 9076 O 883.426 1.76735 0.455081 0
M  V30 9077 C 883.477 1.9745 -3.02813 0
M  V30 9078 O 883.198 1.22677 -4.20573 0
M  V30 9079 C 884.699 2.8416 -3.40247 0
M  V30 9080 H 881.919 0.300781 -0.59981 0
M  V30 9081 H 884.463 0.29916 -2.023 0
M  V30 9082 H 882.618 2.64864 -2.82712 0
M  V30 9083 H 883.032 1.87129 -4.89982 0
M  V30 9084 H 884.506 3.47014 -4.29284 0
M  V30 9085 H 884.983 3.54113 -2.59809 0
M  V30 9086 H 885.589 2.22232 -3.6262 0
M  V30 9087 N 883.904 1.48273 0.534124 0
M  V30 9088 C 885.15 1.56311 1.29208 0
M  V30 9089 C 885.483 0.234481 1.92779 0
M  V30 9090 O 884.758 -0.759143 1.79073 0
M  V30 9091 C 885.041 2.69831 2.3846 0
M  V30 9092 C 884.894 4.12385 1.79608 0
M  V30 9093 C 886.213 2.79133 3.40254 0
M  V30 9094 H 883.332 0.56899 0.468422 0
M  V30 9095 H 885.974 1.80429 0.595438 0
M  V30 9096 H 884.124 2.49397 2.97881 0
M  V30 9097 H 885.796 4.44246 1.24269 0
M  V30 9098 H 884.039 4.19579 1.10162 0
M  V30 9099 H 884.71 4.87629 2.58693 0
M  V30 9100 H 887.186 2.97632 2.90783 0
M  V30 9101 H 886.062 3.60298 4.14097 0
M  V30 9102 H 886.323 1.87122 4.00547 0
M  V30 9103 N 885.382 -0.782676 1.36792 0
M  V30 9104 C 886.622 -1.55396 1.32784 0
M  V30 9105 C 886.986 -1.91789 -0.0900272 0
M  V30 9106 O 888.187 -2.6759 -0.254725 0
M  V30 9107 C 886.458 -2.79227 2.23085 0
M  V30 9108 S 888.017 -3.69404 2.36825 0
M  V30 9109 H 884.835 -0.532139 0.471539 0
M  V30 9110 H 887.437 -0.921285 1.72431 0
M  V30 9111 H 886.141 -2.50553 3.25041 0
M  V30 9112 H 885.672 -3.47462 1.84482 0
M  V30 9113 H 887.687 -4.70683 1.57074 0
M  V30 9114 N 886.86 -1.21182 -1.00761 0
M  V30 9115 C 888.106 -1.02898 -1.74756 0
M  V30 9116 C 888.439 0.436774 -1.89225 0
M  V30 9117 O 887.714 1.32415 -1.42466 0
M  V30 9118 C 887.997 -1.72372 -3.16164 0
M  V30 9119 C 887.85 -3.2645 -3.09435 0
M  V30 9120 C 889.169 -1.46415 -4.15031 0
M  V30 9121 H 886.288 -0.375214 -0.634337 0
M  V30 9122 H 888.93 -1.49321 -1.17487 0
M  V30 9123 H 887.08 -1.32906 -3.65059 0
M  V30 9124 H 888.752 -3.75269 -2.68274 0
M  V30 9125 H 886.995 -3.56889 -2.46603 0
M  V30 9126 H 887.666 -3.70226 -4.09435 0
M  V30 9127 H 890.142 -1.80671 -3.7483 0
M  V30 9128 H 889.018 -1.97544 -5.12121 0
M  V30 9129 H 889.279 -0.39361 -4.40344 0
M  V30 9130 N 888.338 1.20213 -1.01915 0
M  V30 9131 C 889.586 1.89272 -0.708552 0
M  V30 9132 C 889.907 1.79394 0.76438 0
M  V30 9133 O 889.177 1.198 1.54999 0
M  V30 9134 H 887.757 0.700628 -0.259094 0
M  V30 9135 H 890.419 1.45985 -1.29129 0
M  V30 9136 H 889.515 2.95841 -0.994215 0
M  V30 9137 N 889.816 0.795718 1.36037 0
M  V30 9138 C 891.064 0.370291 1.98679 0
M  V30 9139 C 891.385 -1.06332 1.63458 0
M  V30 9140 O 890.655 -1.73394 0.911671 0
M  V30 9141 H 889.235 0.133928 0.734896 0
M  V30 9142 H 891.897 1.01915 1.6613 0
M  V30 9143 H 890.993 0.467207 3.08583 0
M  V30 9144 N 891.294 -1.47756 0.548274 0
M  V30 9145 C 892.542 -2.02089 0.0208542 0
M  V30 9146 C 892.863 -1.42589 -1.33017 0
M  V30 9147 O 892.133 -0.597825 -1.86555 0
M  V30 9148 H 890.713 -0.746985 0.00472023 0
M  V30 9149 H 893.375 -1.81262 0.716257 0
M  V30 9150 H 892.471 -3.12012 -0.0739016 0
M  V30 9151 N 892.772 -0.284283 -1.55015 0
M  V30 9152 C 894.021 0.33055 -1.98973 0
M  V30 9153 C 894.334 1.56284 -1.17621 0
M  V30 9154 O 895.54 2.2512 -1.51767 0
M  V30 9155 C 893.996 0.639457 -3.54174 0
M  V30 9156 C 893.604 -0.573543 -4.44313 0
M  V30 9157 C 895.348 1.21641 -4.06699 0
M  V30 9158 C 893.255 -0.238715 -5.90918 0
M  V30 9159 H 892.185 0.127285 -0.743179 0
M  V30 9160 H 894.836 -0.390372 -1.793 0
M  V30 9161 H 893.218 1.41953 -3.69683 0
M  V30 9162 H 894.392 -1.3502 -4.40575 0
M  V30 9163 H 892.707 -1.06797 -4.02472 0
M  V30 9164 H 895.304 1.48088 -5.13784 0
M  V30 9165 H 895.647 2.15328 -3.56286 0
M  V30 9166 H 896.18 0.498422 -3.94665 0
M  V30 9167 H 892.919 -1.1437 -6.45445 0
M  V30 9168 H 892.439 0.500997 -5.97704 0
M  V30 9169 H 894.118 0.165774 -6.46788 0
M  V30 9170 N 894.251 1.57596 -0.0117121 0
M  V30 9171 C 895.499 1.90694 0.669342 0
M  V30 9172 C 895.82 0.886999 1.73659 0
M  V30 9173 O 895.09 -0.0739779 1.9576 0
M  V30 9174 H 893.67 0.703846 0.250219 0
M  V30 9175 H 896.332 1.94821 -0.0554057 0
M  V30 9176 H 895.428 2.90802 1.13316 0
M  V30 9177 N 895.729 -0.261212 1.5542 0
M  V30 9178 C 896.957 -1.00916 1.8062 0
M  V30 9179 C 897.372 -1.79494 0.585444 0
M  V30 9180 O 896.729 -1.76974 -0.445702 0
M  V30 9181 C 896.78 -1.95841 3.03856 0
M  V30 9182 O 896.501 -1.20445 4.21218 0
M  V30 9183 C 898.002 -2.82352 3.41749 0
M  V30 9184 H 895.222 -0.297596 0.601397 0
M  V30 9185 H 897.766 -0.288427 2.02456 0
M  V30 9186 H 895.921 -2.63361 2.84112 0
M  V30 9187 H 896.335 -1.84528 4.90968 0
M  V30 9188 H 897.809 -3.44733 4.31118 0
M  V30 9189 H 898.286 -3.5273 2.61683 0
M  V30 9190 H 898.892 -2.20306 3.63793 0
M  V30 9191 N 897.207 -1.48554 -0.526253 0
M  V30 9192 C 898.618 -1.50256 -1.10815 0
M  V30 9193 C 898.969 -0.274445 -1.94271 0
M  V30 9194 O 898.094 0.618094 -2.07385 0
M  V30 9195 C 898.689 -2.72264 -2.01638 0
M  V30 9196 C 897.248 -2.76826 -2.55038 0
M  V30 9197 C 896.395 -2.43823 -1.32081 0
M  V30 9198 H 899.346 -1.55616 -0.31133 0
M  V30 9199 H 899.367 -2.50993 -2.85977 0
M  V30 9200 H 898.879 -3.61632 -1.4087 0
M  V30 9201 H 896.98 -1.91676 -3.19517 0
M  V30 9202 H 897.093 -3.78351 -2.93917 0
M  V30 9203 H 895.457 -1.95058 -1.63781 0
M  V30 9204 H 896.24 -3.35436 -0.730596 0
M  V30 9205 N 898.685 0.775411 -1.37205 0
M  V30 9206 C 900.101 1.07546 -1.17924 0
M  V30 9207 C 900.301 2.01496 -0.0128897 0
M  V30 9208 O 899.357 2.44039 0.64816 0
M  V30 9209 C 900.67 1.67647 -2.49629 0
M  V30 9210 C 902.218 1.79923 -2.56119 0
M  V30 9211 C 902.693 2.43438 -3.87946 0
M  V30 9212 N 904.184 2.50893 -3.89368 0
M  V30 9213 C 904.919 3.00881 -4.88117 0
M  V30 9214 N 904.415 3.5107 -5.97262 0
M  V30 9215 N 906.208 2.99722 -4.75524 0
M  V30 9216 H 898.359 0.151524 -2.11859 0
M  V30 9217 H 900.622 0.129845 -0.939066 0
M  V30 9218 H 900.328 1.06082 -3.3532 0
M  V30 9219 H 900.202 2.66988 -2.66453 0
M  V30 9220 H 902.589 2.40621 -1.70838 0
M  V30 9221 H 902.67 0.793482 -2.43182 0
M  V30 9222 H 902.314 1.8338 -4.73639 0
M  V30 9223 H 902.244 3.44611 -3.98184 0
M  V30 9224 H 904.735 2.1537 -3.10522 0
M  V30 9225 H 905.048 3.87604 -6.68568 0
M  V30 9226 H 903.393 3.49184 -6.00912 0
M  V30 9227 H 906.584 2.5981 -3.8938 0
M  V30 9228 H 906.757 3.38369 -5.52639 0
M  V30 9229 N 900.163 1.21714 1.00117 0
M  V30 9230 C 901.579 0.97532 1.26332 0
M  V30 9231 C 901.779 -0.336029 1.98678 0
M  V30 9232 O 900.835 -1.06073 2.29139 0
M  V30 9233 C 902.148 2.16848 2.0832 0
M  V30 9234 C 903.696 2.21115 2.21533 0
M  V30 9235 C 904.171 3.3996 3.06906 0
M  V30 9236 N 905.662 3.40071 3.14494 0
M  V30 9237 C 906.397 4.28678 3.80818 0
M  V30 9238 N 905.893 5.2749 4.49139 0
M  V30 9239 N 907.686 4.16476 3.77497 0
M  V30 9240 H 899.837 2.06039 0.515897 0
M  V30 9241 H 902.1 0.902423 0.290408 0
M  V30 9242 H 901.806 3.119 1.62515 0
M  V30 9243 H 901.68 2.16226 3.09073 0
M  V30 9244 H 904.067 1.26616 2.66557 0
M  V30 9245 H 904.148 2.2578 1.20238 0
M  V30 9246 H 903.792 4.34755 2.62585 0
M  V30 9247 H 903.722 3.32534 4.08324 0
M  V30 9248 H 906.213 2.68563 2.65861 0
M  V30 9249 H 906.526 5.91397 4.97463 0
M  V30 9250 H 904.871 5.31412 4.47914 0
M  V30 9251 H 908.062 3.38539 3.23278 0
M  V30 9252 H 908.235 4.85739 4.28908 0
M  V30 9253 N 901.641 -1.19671 1.02551 0
M  V30 9254 C 902.604 -2.20987 0.608055 0
M  V30 9255 C 903.604 -1.5745 -0.326534 0
M  V30 9256 O 904.794 -1.73827 -0.114003 0
M  V30 9257 C 901.926 -3.4072 -0.11074 0
M  V30 9258 H 903.119 -2.59434 1.50446 0
M  V30 9259 H 900.672 -1.3329 0.816307 0
M  V30 9260 H 901.407 -3.07787 -1.02165 0
M  V30 9261 H 901.192 -3.88069 0.560772 0
M  V30 9262 H 902.682 -4.15776 -0.389848 0
M  V30 9263 N 903.119 -0.802921 -1.35613 0
M  V30 9264 C 904.082 -0.216422 -2.28176 0
M  V30 9265 C 905.082 0.594101 -1.49422 0
M  V30 9266 O 906.272 0.41312 -1.6923 0
M  V30 9267 C 903.404 0.698746 -3.33662 0
M  V30 9268 H 904.597 -1.03276 -2.81557 0
M  V30 9269 H 902.15 -0.573307 -1.45406 0
M  V30 9270 H 902.885 1.53891 -2.85461 0
M  V30 9271 H 902.67 0.119314 -3.91918 0
M  V30 9272 H 904.16 1.10354 -4.02755 0
M  V30 9273 N 904.597 1.47463 -0.556102 0
M  V30 9274 C 905.507 2.33785 0.195378 0
M  V30 9275 C 906.523 1.48123 0.913 0
M  V30 9276 O 907.699 1.81053 0.882141 0
M  V30 9277 C 904.764 3.24795 1.21282 0
M  V30 9278 C 903.825 4.26346 0.502747 0
M  V30 9279 C 903.058 5.13007 1.47172 0
M  V30 9280 O 903.281 5.02103 2.70646 0
M  V30 9281 O 902.215 5.93588 0.996814 0
M  V30 9282 H 906.041 2.99341 -0.512676 0
M  V30 9283 H 903.626 1.46004 -0.31673 0
M  V30 9284 H 905.508 3.81015 1.80016 0
M  V30 9285 H 904.183 2.61868 1.90282 0
M  V30 9286 H 903.09 3.73889 -0.125757 0
M  V30 9287 H 904.423 4.91984 -0.145779 0
M  V30 9288 N 906.075 0.2925 1.54862 0
M  V30 9289 C 907.305 -0.321646 2.04081 0
M  V30 9290 C 907.713 -1.48712 1.16967 0
M  V30 9291 O 907.056 -1.82755 0.18609 0
M  V30 9292 C 907.118 -0.848678 3.49339 0
M  V30 9293 C 906.782 0.190416 4.56603 0
M  V30 9294 C 907.779 1.01595 5.09877 0
M  V30 9295 C 905.464 0.329666 5.01217 0
M  V30 9296 C 907.458 1.96676 6.06298 0
M  V30 9297 C 905.145 1.28393 5.9746 0
M  V30 9298 C 906.143 2.10097 6.49883 0
M  V30 9299 O 905.831 3.03907 7.44242 0
M  V30 9300 H 905.563 -0.075098 0.671816 0
M  V30 9301 H 908.117 0.427531 2.00901 0
M  V30 9302 H 906.347 -1.64823 3.49815 0
M  V30 9303 H 908.036 -1.37779 3.81801 0
M  V30 9304 H 908.802 0.919197 4.7621 0
M  V30 9305 H 904.681 -0.296317 4.60047 0
M  V30 9306 H 908.225 2.60488 6.47141 0
M  V30 9307 H 904.122 1.38144 6.30545 0
M  V30 9308 H 904.89 2.98787 7.62016 0
M  V30 9309 N 907.553 -1.57587 0.0200696 0
M  V30 9310 C 908.483 -2.12702 -0.963333 0
M  V30 9311 C 909.464 -1.04094 -1.34531 0
M  V30 9312 O 910.649 -1.31881 -1.42552 0
M  V30 9313 C 907.779 -2.64673 -2.24868 0
M  V30 9314 C 906.733 -3.77987 -2.00772 0
M  V30 9315 C 906.059 -4.16351 -3.35494 0
M  V30 9316 C 907.359 -5.0444 -1.35416 0
M  V30 9317 H 909.053 -2.95121 -0.504363 0
M  V30 9318 H 906.599 -1.41966 -0.24116 0
M  V30 9319 H 908.552 -3.01862 -2.94036 0
M  V30 9320 H 907.276 -1.79403 -2.72914 0
M  V30 9321 H 905.935 -3.41223 -1.34025 0
M  V30 9322 H 905.583 -3.28075 -3.81282 0
M  V30 9323 H 905.283 -4.92705 -3.20181 0
M  V30 9324 H 906.807 -4.56115 -4.05945 0
M  V30 9325 H 908.221 -5.39273 -1.94571 0
M  V30 9326 H 906.618 -5.85732 -1.30529 0
M  V30 9327 H 907.688 -4.83803 -0.325923 0
M  V30 9328 N 909.032 0.252966 -1.55557 0
M  V30 9329 C 910.257 1.0038 -1.8149 0
M  V30 9330 C 910.682 1.78397 -0.596318 0
M  V30 9331 O 910.04 1.7551 0.454535 0
M  V30 9332 C 910.088 1.9222 -3.05096 0
M  V30 9333 O 909.192 3.01302 -2.81587 0
M  V30 9334 H 908.533 0.285949 -0.599274 0
M  V30 9335 H 911.063 0.275795 -2.02733 0
M  V30 9336 H 911.073 2.338 -3.34368 0
M  V30 9337 H 909.748 1.34852 -3.93431 0
M  V30 9338 H 908.325 2.63894 -2.63466 0
M  V30 9339 N 910.51 1.48831 0.518367 0
M  V30 9340 C 911.758 1.57128 1.27103 0
M  V30 9341 C 912.079 0.252098 1.93364 0
M  V30 9342 O 911.349 -0.727281 1.819 0
M  V30 9343 H 909.929 0.578891 0.472116 0
M  V30 9344 H 912.591 1.85361 0.602262 0
M  V30 9345 H 911.687 2.35838 2.04418 0
M  V30 9346 N 911.988 -0.768124 1.37614 0
M  V30 9347 C 913.404 -1.06919 1.18493 0
M  V30 9348 C 913.604 -2.01486 0.0235753 0
M  V30 9349 O 912.66 -2.4438 -0.635209 0
M  V30 9350 C 913.973 -1.66321 2.50515 0
M  V30 9351 C 915.521 -1.78562 2.57069 0
M  V30 9352 C 915.996 -2.41377 3.89231 0
M  V30 9353 N 917.487 -2.48824 3.90693 0
M  V30 9354 C 918.222 -2.98288 4.89706 0
M  V30 9355 N 917.718 -3.47897 5.99115 0
M  V30 9356 N 919.511 -2.97196 4.77107 0
M  V30 9357 H 911.662 -0.140286 2.11936 0
M  V30 9358 H 913.925 -0.124863 0.939741 0
M  V30 9359 H 913.631 -1.04303 3.35878 0
M  V30 9360 H 913.505 -2.65571 2.67866 0
M  V30 9361 H 915.892 -2.39712 1.72111 0
M  V30 9362 H 915.973 -0.780574 2.43599 0
M  V30 9363 H 915.617 -1.80866 4.74605 0
M  V30 9364 H 915.547 -3.42495 4.00006 0
M  V30 9365 H 918.038 -2.1372 3.1166 0
M  V30 9366 H 918.351 -3.84053 6.70614 0
M  V30 9367 H 916.696 -3.45993 6.02755 0
M  V30 9368 H 919.887 -2.57741 3.90752 0
M  V30 9369 H 920.06 -3.35434 5.54426 0
M  V30 9370 N 913.466 -1.22244 -0.994698 0
M  V30 9371 C 914.712 -1.05752 -1.73747 0
M  V30 9372 C 915.067 0.403416 -1.88123 0
M  V30 9373 O 914.36 1.29511 -1.412 0
M  V30 9374 C 914.554 -1.70014 -3.14372 0
M  V30 9375 C 914.383 -3.22205 -3.1371 0
M  V30 9376 C 913.153 -3.91301 -3.19705 0
M  V30 9377 C 915.351 -4.19163 -2.98005 0
M  V30 9378 N 913.333 -5.30594 -3.08778 0
M  V30 9379 C 914.704 -5.45274 -2.95087 0
M  V30 9380 C 916.759 -4.10078 -2.82383 0
M  V30 9381 C 915.462 -6.63345 -2.78146 0
M  V30 9382 C 917.488 -5.27797 -2.66803 0
M  V30 9383 C 916.85 -6.52826 -2.6457 0
M  V30 9384 H 912.949 -0.441393 -0.64552 0
M  V30 9385 H 915.533 -1.54757 -1.18146 0
M  V30 9386 H 913.704 -1.23562 -3.68221 0
M  V30 9387 H 915.436 -1.46631 -3.77202 0
M  V30 9388 H 912.191 -3.42289 -3.27315 0
M  V30 9389 H 912.615 -6.0358 -3.06628 0
M  V30 9390 H 917.257 -3.14201 -2.82909 0
M  V30 9391 H 914.975 -7.59373 -2.76367 0
M  V30 9392 H 918.561 -5.22598 -2.557 0
M  V30 9393 H 917.441 -7.42383 -2.5266 0
M  V30 9394 N 914.944 1.19125 -1.03184 0
M  V30 9395 C 915.907 2.20662 -0.619766 0
M  V30 9396 C 916.907 1.57621 0.318179 0
M  V30 9397 O 918.097 1.73885 0.104783 0
M  V30 9398 C 915.229 3.40774 0.0926696 0
M  V30 9399 H 916.422 2.58633 -1.5182 0
M  V30 9400 H 913.975 1.32855 -0.823364 0
M  V30 9401 H 914.71 3.08324 1.00531 0
M  V30 9402 H 914.495 3.87766 -0.581344 0
M  V30 9403 H 915.985 4.15977 0.367792 0
M  V30 9404 N 916.422 0.810101 1.35185 0
M  V30 9405 C 917.354 0.180581 2.28488 0
M  V30 9406 C 918.367 -0.622154 1.50443 0
M  V30 9407 O 919.556 -0.453938 1.72632 0
M  V30 9408 C 916.656 -0.766447 3.30119 0
M  V30 9409 C 915.829 -0.00932028 4.37399 0
M  V30 9410 C 914.888 -0.875354 5.18868 0
M  V30 9411 O 913.914 -0.325012 5.68271 0
M  V30 9412 N 915.116 -2.19695 5.37321 0
M  V30 9413 H 917.881 0.98212 2.83151 0
M  V30 9414 H 915.442 0.665879 1.47573 0
M  V30 9415 H 917.434 -1.35012 3.81515 0
M  V30 9416 H 916.004 -1.46878 2.75945 0
M  V30 9417 H 915.224 0.755585 3.86891 0
M  V30 9418 H 916.512 0.512352 5.06214 0
M  V30 9419 H 915.91 -2.66797 4.98834 0
M  V30 9420 H 914.467 -2.72978 5.91884 0
M  V30 9421 N 917.9 -1.47166 0.563914 0
M  V30 9422 C 918.863 -2.28571 -0.169624 0
M  V30 9423 C 919.863 -1.37331 -0.836467 0
M  V30 9424 O 921.053 -1.59896 -0.6913 0
M  V30 9425 C 918.185 -3.17201 -1.24886 0
M  V30 9426 H 919.378 -2.94896 0.545539 0
M  V30 9427 H 916.931 -1.52966 0.321121 0
M  V30 9428 H 917.666 -2.55582 -1.99621 0
M  V30 9429 H 917.451 -3.84356 -0.775426 0
M  V30 9430 H 918.941 -3.7852 -1.76388 0
M  V30 9431 N 919.378 -0.300708 -1.54705 0
M  V30 9432 C 920.608 0.310819 -2.04249 0
M  V30 9433 C 921.016 1.4809 -1.17754 0
M  V30 9434 O 920.359 1.82654 -0.195779 0
M  V30 9435 C 920.421 0.83014 -3.49784 0
M  V30 9436 C 920.085 -0.214628 -4.56496 0
M  V30 9437 C 921.082 -1.04298 -5.09331 0
M  V30 9438 C 918.767 -0.356242 -5.01035 0
M  V30 9439 C 920.761 -1.99889 -6.05246 0
M  V30 9440 C 918.448 -1.3156 -5.96771 0
M  V30 9441 C 919.446 -2.1354 -6.4876 0
M  V30 9442 O 919.134 -3.07849 -7.4262 0
M  V30 9443 H 918.866 0.0715341 -0.672204 0
M  V30 9444 H 921.42 -0.438179 -2.00672 0
M  V30 9445 H 919.65 1.62966 -3.50684 0
M  V30 9446 H 921.339 1.35752 -3.82526 0
M  V30 9447 H 922.105 -0.944439 -4.75716 0
M  V30 9448 H 917.984 0.271916 -4.60197 0
M  V30 9449 H 921.528 -2.63917 -6.45751 0
M  V30 9450 H 917.425 -1.41486 -6.29803 0
M  V30 9451 H 918.193 -3.02824 -7.60421 0
M  V30 9452 N 920.856 1.57574 -0.0284266 0
M  V30 9453 C 922.104 1.91393 0.649079 0
M  V30 9454 C 922.425 0.905368 1.72708 0
M  V30 9455 O 921.695 -0.0532107 1.95828 0
M  V30 9456 H 920.275 0.70646 0.24274 0
M  V30 9457 H 922.937 1.94752 -0.076066 0
M  V30 9458 H 922.033 2.91988 1.10226 0
M  V30 9459 N 922.334 -0.244713 1.55689 0
M  V30 9460 C 923.581 -0.972446 1.77622 0
M  V30 9461 C 923.909 -1.85235 0.593137 0
M  V30 9462 O 923.164 -1.91064 -0.423464 0
M  V30 9463 C 923.463 -1.8617 3.05083 0
M  V30 9464 C 923.129 -1.13696 4.3633 0
M  V30 9465 C 921.791 -0.936679 4.71996 0
M  V30 9466 C 924.143 -0.623451 5.17458 0
M  V30 9467 C 921.471 -0.210612 5.86322 0
M  V30 9468 C 923.823 0.0891587 6.32537 0
M  V30 9469 C 922.487 0.300904 6.66821 0
M  V30 9470 H 921.757 -0.355843 0.649967 0
M  V30 9471 H 924.404 -0.242372 1.8996 0
M  V30 9472 H 922.709 -2.6589 2.87767 0
M  V30 9473 H 924.406 -2.4265 3.19253 0
M  V30 9474 H 920.996 -1.30301 4.08313 0
M  V30 9475 H 925.18 -0.765725 4.90357 0
M  V30 9476 H 920.436 -0.0361062 6.11389 0
M  V30 9477 H 924.61 0.494685 6.94641 0
M  V30 9478 H 922.237 0.865466 7.55257 0
M  V30 9479 N 923.813 -1.49104 -0.510467 0
M  V30 9480 C 925.224 -1.51423 -1.09215 0
M  V30 9481 C 925.575 -0.295035 -1.93969 0
M  V30 9482 O 924.7 0.596064 -2.08029 0
M  V30 9483 C 925.295 -2.74387 -1.98739 0
M  V30 9484 C 923.854 -2.79515 -2.52088 0
M  V30 9485 C 923.001 -2.4521 -1.29488 0
M  V30 9486 H 925.952 -1.55938 -0.294807 0
M  V30 9487 H 925.973 -2.54012 -2.83298 0
M  V30 9488 H 925.485 -3.63105 -1.37026 0
M  V30 9489 H 923.586 -1.95054 -3.17466 0
M  V30 9490 H 923.699 -3.81447 -2.89887 0
M  V30 9491 H 922.063 -1.96785 -1.61703 0
M  V30 9492 H 922.846 -3.36192 -0.694978 0
M  V30 9493 N 925.291 0.760815 -1.38019 0
M  V30 9494 C 926.221 1.88811 -1.37377 0
M  V30 9495 C 927.202 1.68388 -0.240737 0
M  V30 9496 O 928.387 1.89086 -0.442739 0
M  V30 9497 C 925.517 3.26244 -1.1909 0
M  V30 9498 C 924.471 3.61254 -2.29521 0
M  V30 9499 C 923.797 4.97346 -1.96345 0
M  V30 9500 C 925.097 3.66874 -3.71753 0
M  V30 9501 H 926.791 1.89606 -2.31711 0
M  V30 9502 H 924.337 0.910818 -1.11535 0
M  V30 9503 H 926.29 4.04755 -1.17267 0
M  V30 9504 H 925.014 3.2591 -0.212152 0
M  V30 9505 H 923.673 2.85057 -2.30517 0
M  V30 9506 H 923.321 4.93564 -0.969728 0
M  V30 9507 H 923.021 5.21739 -2.703 0
M  V30 9508 H 924.545 5.78244 -1.96129 0
M  V30 9509 H 925.959 4.35514 -3.72828 0
M  V30 9510 H 924.356 4.02772 -4.44853 0
M  V30 9511 H 925.426 2.67273 -4.0459 0
M  V30 9512 N 926.769 1.22769 0.988202 0
M  V30 9513 C 927.702 0.945196 2.07705 0
M  V30 9514 C 928.68 -0.11363 1.62202 0
M  V30 9515 O 929.864 0.0189624 1.8849 0
M  V30 9516 C 926.991 0.422474 3.36055 0
M  V30 9517 C 926.037 1.4667 4.00487 0
M  V30 9518 S 926.87 3.04158 4.40736 0
M  V30 9519 C 928.026 2.53536 5.7225 0
M  V30 9520 H 928.259 1.86723 2.31348 0
M  V30 9521 H 925.792 1.05928 1.12333 0
M  V30 9522 H 927.75 0.12748 4.10302 0
M  V30 9523 H 926.411 -0.478515 3.10434 0
M  V30 9524 H 925.604 1.05093 4.92921 0
M  V30 9525 H 925.206 1.71064 3.32585 0
M  V30 9526 H 927.498 1.95069 6.4881 0
M  V30 9527 H 928.441 3.44479 6.1866 0
M  V30 9528 H 928.849 1.94658 5.29876 0
M  V30 9529 N 928.247 -1.18576 1.03814 0
M  V30 9530 C 929.658 -1.70159 0.768299 0
M  V30 9531 C 930.009 -1.8286 -0.711106 0
M  V30 9532 O 929.134 -1.5063 -1.55369 0
M  V30 9533 C 929.729 -3.09062 1.38804 0
M  V30 9534 C 928.288 -3.57866 1.16656 0
M  V30 9535 C 927.435 -2.34484 1.48029 0
M  V30 9536 H 930.386 -1.03287 1.20488 0
M  V30 9537 H 930.407 -3.72211 0.7899 0
M  V30 9538 H 929.919 -2.99785 2.46476 0
M  V30 9539 H 928.02 -3.72442 0.108471 0
M  V30 9540 H 928.133 -4.41445 1.8618 0
M  V30 9541 H 926.497 -2.38273 0.899902 0
M  V30 9542 H 927.28 -2.27829 2.56805 0
M  V30 9543 N 929.725 -0.817259 -1.34754 0
M  V30 9544 C 930.974 -0.39908 -1.97713 0
M  V30 9545 C 931.287 1.04203 -1.65533 0
M  V30 9546 O 932.493 1.56384 -2.21937 0
M  V30 9547 C 930.949 -0.662634 -3.53747 0
M  V30 9548 C 930.557 -2.11699 -3.94826 0
M  V30 9549 C 932.301 -0.31034 -4.23364 0
M  V30 9550 C 930.208 -2.32573 -5.4375 0
M  V30 9551 H 929.138 -0.145488 -0.739831 0
M  V30 9552 H 931.789 -1.00282 -1.53674 0
M  V30 9553 H 930.171 0.0111972 -3.95998 0
M  V30 9554 H 931.345 -2.82951 -3.63697 0
M  V30 9555 H 929.66 -2.43017 -3.3813 0
M  V30 9556 H 932.257 -0.44421 -5.32852 0
M  V30 9557 H 932.6 0.744594 -4.09587 0
M  V30 9558 H 933.133 -0.938518 -3.8657 0
M  V30 9559 H 929.872 -3.36551 -5.62507 0
M  V30 9560 H 929.392 -1.65858 -5.76412 0
M  V30 9561 H 931.071 -2.14651 -6.10356 0
M  V30 9562 N 931.203 1.46865 -0.571711 0
M  V30 9563 C 932.48 1.95596 0.0132445 0
M  V30 9564 C 932.86 1.51438 1.47071 0
M  V30 9565 O 932.208 0.759917 2.15494 0
M  V30 9566 C 932.418 3.48689 -0.147335 0
M  V30 9567 C 933.766 4.24599 -0.00946329 0
M  V30 9568 O 934.79 3.5612 -0.0756112 0
M  V30 9569 O 933.649 5.46332 0.135361 0
M  V30 9570 H 930.743 0.825102 0.0560039 0
M  V30 9571 H 933.289 1.57199 -0.639256 0
M  V30 9572 H 932.061 3.73681 -1.16096 0
M  V30 9573 H 931.684 3.93887 0.542109 0
M  V30 9574 N 932.681 0.308908 1.54543 0
M  V30 9575 C 933.929 -0.297447 1.99899 0
M  V30 9576 C 934.25 -1.53799 1.19878 0
M  V30 9577 O 933.52 -1.93639 0.29678 0
M  V30 9578 H 932.1 -0.112897 0.738419 0
M  V30 9579 H 934.762 0.422067 1.90275 0
M  V30 9580 H 933.858 -0.564016 3.06961 0
M  V30 9581 N 934.159 -1.57557 0.0367827 0
M  V30 9582 C 935.408 -1.91291 -0.639569 0
M  V30 9583 C 935.721 -0.915601 -1.72847 0
M  V30 9584 O 936.927 -1.14447 -2.46199 0
M  V30 9585 C 935.383 -3.39697 -1.18888 0
M  V30 9586 C 934.991 -4.47803 -0.132851 0
M  V30 9587 C 936.735 -3.82487 -1.8413 0
M  V30 9588 C 934.642 -5.87311 -0.694229 0
M  V30 9589 H 933.572 -0.713886 -0.242658 0
M  V30 9590 H 936.223 -1.83209 0.103332 0
M  V30 9591 H 934.605 -3.42736 -1.98363 0
M  V30 9592 H 935.779 -4.56334 0.640009 0
M  V30 9593 H 934.094 -4.14264 0.421264 0
M  V30 9594 H 936.691 -4.84076 -2.27101 0
M  V30 9595 H 937.034 -3.17959 -2.68716 0
M  V30 9596 H 937.567 -3.81903 -1.11332 0
M  V30 9597 H 934.306 -6.55401 0.113667 0
M  V30 9598 H 933.826 -5.82371 -1.4354 0
M  V30 9599 H 935.505 -6.36119 -1.1816 0
M  V30 9600 N 935.637 0.236453 -1.55816 0
M  V30 9601 C 936.567 1.29639 -1.94206 0
M  V30 9602 C 937.548 1.49667 -0.808319 0
M  V30 9603 O 938.733 1.621 -1.06945 0
M  V30 9604 C 935.863 2.64914 -2.24584 0
M  V30 9605 C 934.817 2.59565 -3.40308 0
M  V30 9606 C 934.143 3.98732 -3.56254 0
M  V30 9607 C 935.443 2.15642 -4.75706 0
M  V30 9608 H 937.137 0.977552 -2.82992 0
M  V30 9609 H 934.683 0.468804 -1.36155 0
M  V30 9610 H 936.636 3.39209 -2.50031 0
M  V30 9611 H 935.36 2.98455 -1.32636 0
M  V30 9612 H 934.019 1.87728 -3.14887 0
M  V30 9613 H 933.667 4.29556 -2.61707 0
M  V30 9614 H 933.367 3.96039 -4.34082 0
M  V30 9615 H 934.891 4.74711 -3.84033 0
M  V30 9616 H 936.305 2.79673 -5.00456 0
M  V30 9617 H 934.702 2.24039 -5.56711 0
M  V30 9618 H 935.772 1.10831 -4.72064 0
M  V30 9619 N 937.115 1.49373 0.502552 0
M  V30 9620 C 938.361 1.59016 1.25864 0
M  V30 9621 C 938.694 0.27532 1.92238 0
M  V30 9622 O 937.969 -0.720988 1.80643 0
M  V30 9623 C 938.252 2.74828 2.32683 0
M  V30 9624 C 938.105 4.16102 1.7082 0
M  V30 9625 C 939.424 2.86288 3.34256 0
M  V30 9626 H 936.543 0.578798 0.456248 0
M  V30 9627 H 939.185 1.81651 0.557032 0
M  V30 9628 H 937.335 2.5566 2.92524 0
M  V30 9629 H 939.007 4.46782 1.14818 0
M  V30 9630 H 937.25 4.21822 1.01238 0
M  V30 9631 H 937.921 4.93006 2.48292 0
M  V30 9632 H 940.397 3.03733 2.84404 0
M  V30 9633 H 939.273 3.69001 4.06362 0
M  V30 9634 H 939.534 1.95576 3.96488 0
M  V30 9635 N 938.594 -0.753485 1.38421 0
M  V30 9636 C 939.842 -1.50962 1.34368 0
M  V30 9637 C 940.163 -1.94889 -0.0656895 0
M  V30 9638 O 939.433 -1.67652 -1.01339 0
M  V30 9639 H 938.013 -0.559967 0.494415 0
M  V30 9640 H 940.675 -0.895665 1.73101 0
M  V30 9641 H 939.771 -2.40048 1.99458 0
M  V30 9642 N 940.072 -1.23292 -0.981677 0
M  V30 9643 C 941.3 -1.09088 -1.75805 0
M  V30 9644 C 941.715 0.357746 -1.8538 0
M  V30 9645 O 941.072 1.24751 -1.33205 0
M  V30 9646 C 941.123 -1.70885 -3.1856 0
M  V30 9647 O 940.844 -3.10082 -3.09484 0
M  V30 9648 C 942.345 -1.62106 -4.12597 0
M  V30 9649 H 939.565 -0.38184 -0.55176 0
M  V30 9650 H 942.109 -1.63116 -1.23342 0
M  V30 9651 H 940.264 -1.20893 -3.68054 0
M  V30 9652 H 940.678 -3.40039 -3.99342 0
M  V30 9653 H 942.152 -2.10049 -5.10474 0
M  V30 9654 H 942.629 -0.579642 -4.35358 0
M  V30 9655 H 943.235 -2.11457 -3.69007 0
M  V30 9656 N 941.55 1.18024 -1.04442 0
M  V30 9657 C 942.513 2.19992 -0.643136 0
M  V30 9658 C 943.513 1.57949 0.301444 0
M  V30 9659 O 944.703 1.73986 0.0863341 0
M  V30 9660 C 941.835 3.40853 0.0565208 0
M  V30 9661 H 943.028 2.57008 -1.54554 0
M  V30 9662 H 940.581 1.31974 -0.837408 0
M  V30 9663 H 941.316 3.09373 0.972553 0
M  V30 9664 H 941.101 3.87128 -0.622439 0
M  V30 9665 H 942.591 4.16344 0.323652 0
M  V30 9666 N 943.028 0.824394 1.34319 0
M  V30 9667 C 943.991 0.252696 2.27803 0
M  V30 9668 C 944.991 -0.570254 1.50349 0
M  V30 9669 O 946.181 -0.386145 1.69866 0
M  V30 9670 C 943.313 -0.645575 3.34731 0
M  V30 9671 H 944.506 1.07742 2.79878 0
M  V30 9672 H 942.059 0.596367 1.44475 0
M  V30 9673 H 942.794 -1.4933 2.87873 0
M  V30 9674 H 942.579 -0.0569478 3.92059 0
M  V30 9675 H 944.069 -1.03933 4.0446 0
M  V30 9676 N 944.506 -1.46559 0.579492 0
M  V30 9677 C 945.439 -2.27287 -0.203894 0
M  V30 9678 C 946.417 -1.3543 -0.899865 0
M  V30 9679 O 947.601 -1.64836 -0.914398 0
M  V30 9680 C 944.728 -3.13077 -1.2923 0
M  V30 9681 C 943.774 -4.20675 -0.702505 0
M  V30 9682 S 944.607 -5.3345 0.468136 0
M  V30 9683 C 945.763 -6.22806 -0.621544 0
M  V30 9684 H 945.996 -2.93382 0.481083 0
M  V30 9685 H 943.529 -1.49992 0.366311 0
M  V30 9686 H 945.487 -3.63069 -1.91548 0
M  V30 9687 H 944.148 -2.46302 -1.94921 0
M  V30 9688 H 943.341 -4.80516 -1.52053 0
M  V30 9689 H 942.943 -3.73678 -0.155046 0
M  V30 9690 H 945.235 -6.60503 -1.50803 0
M  V30 9691 H 946.178 -7.08075 -0.059961 0
M  V30 9692 H 946.586 -5.56882 -0.924242 0
M  V30 9693 N 945.984 -0.3171 -1.54377 0
M  V30 9694 C 946.947 0.53905 -2.22771 0
M  V30 9695 C 947.947 1.04865 -1.21901 0
M  V30 9696 O 949.137 0.942108 -1.46526 0
M  V30 9697 C 946.269 1.74804 -2.92671 0
M  V30 9698 H 947.462 -0.0587417 -2.99842 0
M  V30 9699 H 945.015 -0.068107 -1.56152 0
M  V30 9700 H 945.75 2.38524 -2.1972 0
M  V30 9701 H 945.535 1.39011 -3.66631 0
M  V30 9702 H 947.025 2.35592 -3.44799 0
M  V30 9703 N 947.462 1.57535 -0.0451378 0
M  V30 9704 C 948.69 1.96761 0.639742 0
M  V30 9705 C 949.105 0.922405 1.64734 0
M  V30 9706 O 948.462 -0.0940535 1.82257 0
M  V30 9707 C 948.513 3.36066 1.33199 0
M  V30 9708 O 948.234 4.36579 0.364757 0
M  V30 9709 C 949.735 3.90015 2.1072 0
M  V30 9710 H 946.955 0.64769 0.175324 0
M  V30 9711 H 949.499 2.04206 -0.109651 0
M  V30 9712 H 947.654 3.2979 2.03266 0
M  V30 9713 H 948.068 5.17432 0.858168 0
M  V30 9714 H 949.542 4.89785 2.54586 0
M  V30 9715 H 950.019 3.25117 2.95288 0
M  V30 9716 H 950.625 3.99609 1.45577 0
M  V30 9717 N 948.94 -0.228186 1.55939 0
M  V30 9718 C 949.887 -1.28274 1.91871 0
M  V30 9719 C 950.857 -1.46906 0.775103 0
M  V30 9720 O 952.042 -1.60583 1.03042 0
M  V30 9721 C 949.182 -2.62945 2.23504 0
M  V30 9722 C 948.295 -2.52166 3.50766 0
M  V30 9723 C 947.43 -3.79316 3.71878 0
M  V30 9724 C 946.469 -3.63231 4.92676 0
M  V30 9725 N 945.606 -4.82315 5.10212 0
M  V30 9726 H 950.446 -0.96931 2.81795 0
M  V30 9727 H 947.983 -0.467331 1.39479 0
M  V30 9728 H 949.941 -3.41359 2.39854 0
M  V30 9729 H 948.571 -2.92397 1.36762 0
M  V30 9730 H 947.623 -1.65221 3.42646 0
M  V30 9731 H 948.935 -2.36199 4.39331 0
M  V30 9732 H 948.089 -4.66173 3.88288 0
M  V30 9733 H 946.828 -3.982 2.81581 0
M  V30 9734 H 945.833 -2.74757 4.76223 0
M  V30 9735 H 947.058 -3.45823 5.84451 0
M  V30 9736 H 945.004 -5.01526 4.22856 0
M  V30 9737 H 944.921 -4.6905 5.92898 0
M  V30 9738 H 946.189 -5.70618 5.31051 0
M  V30 9739 N 950.418 -1.49637 -0.494624 0
M  V30 9740 C 951.328 -1.69522 -1.62172 0
M  V30 9741 C 952.344 -0.577894 -1.64123 0
M  V30 9742 O 953.52 -0.853382 -1.82426 0
M  V30 9743 C 950.585 -1.7633 -2.9851 0
M  V30 9744 C 949.646 -2.99944 -3.07135 0
M  V30 9745 C 948.879 -3.06419 -4.36971 0
M  V30 9746 O 949.102 -2.20312 -5.26136 0
M  V30 9747 O 948.036 -3.9894 -4.507 0
M  V30 9748 H 951.862 -2.65017 -1.48324 0
M  V30 9749 H 949.447 -1.33454 -0.671603 0
M  V30 9750 H 951.329 -1.83125 -3.7953 0
M  V30 9751 H 950.004 -0.840155 -3.12607 0
M  V30 9752 H 948.911 -2.98664 -2.2528 0
M  V30 9753 H 950.244 -3.9176 -2.97968 0
M  V30 9754 N 951.896 0.746133 -1.38819 0
M  V30 9755 C 953.121 1.54049 -1.38866 0
M  V30 9756 C 953.546 1.88092 0.0176624 0
M  V30 9757 O 952.904 1.51113 1.00173 0
M  V30 9758 C 952.952 2.8116 -2.25791 0
M  V30 9759 O 952.056 3.76623 -1.68014 0
M  V30 9760 H 951.397 0.465648 -0.473359 0
M  V30 9761 H 953.927 0.921469 -1.82675 0
M  V30 9762 H 953.937 3.30009 -2.39913 0
M  V30 9763 H 952.612 2.55713 -3.27999 0
M  V30 9764 H 951.189 3.35352 -1.63074 0
M  V30 9765 N 953.375 1.23811 0.975125 0
M  V30 9766 C 954.603 1.10019 1.75224 0
M  V30 9767 C 955.018 -0.34791 1.85567 0
M  V30 9768 O 954.375 -1.24043 1.33864 0
M  V30 9769 C 954.426 1.72572 3.1765 0
M  V30 9770 O 954.147 3.11719 3.07836 0
M  V30 9771 C 955.648 1.64292 4.11732 0
M  V30 9772 H 952.868 0.38476 0.549728 0
M  V30 9773 H 955.412 1.63768 1.22476 0
M  V30 9774 H 953.567 1.22843 3.67408 0
M  V30 9775 H 953.981 3.42152 3.97533 0
M  V30 9776 H 955.455 2.12754 5.09352 0
M  V30 9777 H 955.932 0.602722 4.35045 0
M  V30 9778 H 956.538 2.13411 3.6788 0
M  V30 9779 N 954.853 -1.17469 1.05066 0
M  V30 9780 C 956.081 -1.9162 0.780334 0
M  V30 9781 C 956.496 -1.76745 -0.663817 0
M  V30 9782 O 955.853 -1.10377 -1.45338 0
M  V30 9783 C 955.904 -3.42723 1.14992 0
M  V30 9784 O 955.625 -3.57139 2.53739 0
M  V30 9785 C 957.126 -4.33952 0.905549 0
M  V30 9786 H 954.346 -0.608022 0.283814 0
M  V30 9787 H 956.89 -1.4897 1.401 0
M  V30 9788 H 955.045 -3.83124 0.57403 0
M  V30 9789 H 955.459 -4.5075 2.68189 0
M  V30 9790 H 956.933 -5.38487 1.21391 0
M  V30 9791 H 957.41 -4.38911 -0.159295 0
M  V30 9792 H 958.016 -3.99263 1.46522 0
M  V30 9793 N 956.331 -0.831506 -1.3388 0
M  V30 9794 C 957.556 -0.435954 -2.02766 0
M  V30 9795 C 957.981 0.952889 -1.62178 0
M  V30 9796 O 957.339 1.62166 -0.810681 0
M  V30 9797 C 957.387 -0.555907 -3.56289 0
M  V30 9798 O 956.491 0.420826 -4.10247 0
M  V30 9799 H 955.832 -0.178248 -0.639628 0
M  V30 9800 H 958.362 -1.1243 -1.70941 0
M  V30 9801 H 958.372 -0.434831 -4.05676 0
M  V30 9802 H 957.047 -1.56881 -3.85177 0
M  V30 9803 H 955.624 0.257919 -3.72007 0
M  V30 9804 N 957.809 1.4625 -0.587256 0
M  V30 9805 C 959.22 1.85997 -0.161918 0
M  V30 9806 C 959.571 1.49025 1.27616 0
M  V30 9807 O 958.696 0.907282 1.96462 0
M  V30 9808 C 959.291 3.37582 -0.287077 0
M  V30 9809 C 957.85 3.76308 0.0834211 0
M  V30 9810 C 956.997 2.70259 -0.620932 0
M  V30 9811 H 959.948 1.3734 -0.795199 0
M  V30 9812 H 959.969 3.77379 0.486333 0
M  V30 9813 H 959.481 3.64459 -1.33383 0
M  V30 9814 H 957.582 3.55047 1.13013 0
M  V30 9815 H 957.695 4.78184 -0.296064 0
M  V30 9816 H 956.059 2.54628 -0.0607027 0
M  V30 9817 H 956.842 2.99975 -1.66942 0
M  V30 9818 N 959.287 0.325282 1.54207 0
M  V30 9819 C 960.512 -0.281418 2.05482 0
M  V30 9820 C 960.937 -1.44869 1.19977 0
M  V30 9821 O 960.295 -1.80088 0.209275 0
M  V30 9822 C 960.343 -0.692029 3.53897 0
M  V30 9823 O 959.447 -1.7942 3.71325 0
M  V30 9824 H 958.788 -0.0504872 0.662078 0
M  V30 9825 H 961.318 0.474191 1.99029 0
M  V30 9826 H 961.328 -0.974219 3.96198 0
M  V30 9827 H 960.003 0.161709 4.15586 0
M  V30 9828 H 958.58 -1.51069 3.40929 0
M  V30 9829 N 960.765 -1.57509 0.0534917 0
M  V30 9830 C 962.011 -1.93068 -0.62069 0
M  V30 9831 C 962.344 -0.932313 -1.70357 0
M  V30 9832 O 961.619 0.0413393 -1.94456 0
M  V30 9833 C 961.902 -3.38997 -1.21463 0
M  V30 9834 C 961.755 -4.49583 -0.13965 0
M  V30 9835 C 963.074 -3.85366 -2.12558 0
M  V30 9836 H 960.193 -0.702083 -0.224163 0
M  V30 9837 H 962.835 -1.89647 0.115729 0
M  V30 9838 H 960.985 -3.42043 -1.84226 0
M  V30 9839 H 962.657 -4.58664 0.492411 0
M  V30 9840 H 960.9 -4.30525 0.532006 0
M  V30 9841 H 961.571 -5.48781 -0.595287 0
M  V30 9842 H 964.047 -3.8421 -1.59755 0
M  V30 9843 H 962.923 -4.8812 -2.51058 0
M  V30 9844 H 963.184 -3.22256 -3.02661 0
M  V30 9845 N 962.243 0.219913 -1.56058 0
M  V30 9846 C 963.19 1.27254 -1.92549 0
M  V30 9847 C 964.16 1.46493 -0.782883 0
M  V30 9848 O 965.345 1.60035 -1.03892 0
M  V30 9849 C 962.485 2.61756 -2.24896 0
M  V30 9850 C 961.598 2.50302 -3.52098 0
M  V30 9851 C 960.733 3.77338 -3.73884 0
M  V30 9852 C 959.772 3.60613 -4.94595 0
M  V30 9853 N 958.909 4.79603 -5.12763 0
M  V30 9854 H 963.749 0.954352 -2.82305 0
M  V30 9855 H 961.286 0.459928 -1.39725 0
M  V30 9856 H 963.244 3.40082 -2.4166 0
M  V30 9857 H 961.874 2.91668 -1.38311 0
M  V30 9858 H 960.926 1.63401 -3.43517 0
M  V30 9859 H 962.238 2.33866 -4.40577 0
M  V30 9860 H 961.392 4.64108 -3.90754 0
M  V30 9861 H 960.131 3.96702 -2.83689 0
M  V30 9862 H 959.136 2.72228 -4.77674 0
M  V30 9863 H 960.361 3.42719 -5.86277 0
M  V30 9864 H 958.307 4.99277 -4.2551 0
M  V30 9865 H 958.224 4.65899 -5.95377 0
M  V30 9866 H 959.492 5.67794 -5.34069 0
M  V30 9867 N 963.721 1.49897 0.486681 0
M  V30 9868 C 965.137 1.36977 0.819109 0
M  V30 9869 C 965.337 0.41385 1.97204 0
M  V30 9870 O 964.393 -0.149249 2.52059 0
M  V30 9871 C 965.706 2.78013 1.14584 0
M  V30 9872 C 967.254 2.86816 1.25321 0
M  V30 9873 C 967.729 4.28651 1.61316 0
M  V30 9874 N 969.22 4.31528 1.68337 0
M  V30 9875 C 969.955 5.38254 1.97662 0
M  V30 9876 N 969.451 6.55207 2.25113 0
M  V30 9877 N 971.244 5.25683 1.99033 0
M  V30 9878 H 963.395 2.10634 -0.273364 0
M  V30 9879 H 965.658 0.946116 -0.0597418 0
M  V30 9880 H 965.364 3.49728 0.371892 0
M  V30 9881 H 965.238 3.1428 2.08585 0
M  V30 9882 H 967.625 2.15329 2.01785 0
M  V30 9883 H 967.706 2.54112 0.293368 0
M  V30 9884 H 967.35 5.00669 0.853968 0
M  V30 9885 H 967.28 4.5883 2.58424 0
M  V30 9886 H 969.771 3.47189 1.49226 0
M  V30 9887 H 970.084 7.32359 2.46717 0
M  V30 9888 H 968.429 6.58408 2.22538 0
M  V30 9889 H 971.62 4.33316 1.77074 0
M  V30 9890 H 971.793 6.08949 2.21552 0
M  V30 9891 N 965.199 -0.738761 1.39212 0
M  V30 9892 C 966.132 -1.86135 1.32018 0
M  V30 9893 C 967.11 -1.61432 0.194512 0
M  V30 9894 O 968.294 -1.84746 0.374331 0
M  V30 9895 C 965.421 -3.22044 1.04907 0
M  V30 9896 C 964.467 -3.65612 2.19613 0
M  V30 9897 S 965.3 -3.75418 3.81866 0
M  V30 9898 C 966.456 -5.14122 3.56972 0
M  V30 9899 H 966.689 -1.91954 2.27027 0
M  V30 9900 H 964.222 -0.903244 1.25223 0
M  V30 9901 H 966.18 -4.00524 0.899491 0
M  V30 9902 H 964.841 -3.13886 0.115918 0
M  V30 9903 H 964.034 -4.64232 1.96227 0
M  V30 9904 H 963.636 -2.94327 2.30755 0
M  V30 9905 H 965.928 -6.00339 3.14005 0
M  V30 9906 H 966.871 -5.42535 4.55039 0
M  V30 9907 H 967.279 -4.8362 2.91156 0
M  V30 9908 N 966.677 -1.24326 -0.968545 0
M  V30 9909 C 967.607 -1.05951 -2.08079 0
M  V30 9910 C 968.588 0.0272666 -1.70078 0
M  V30 9911 O 969.773 -0.139644 -1.93697 0
M  V30 9912 C 966.903 -0.662623 -3.4092 0
M  V30 9913 C 965.857 -1.69807 -3.92873 0
M  V30 9914 C 965.183 -1.15628 -5.22048 0
M  V30 9915 C 966.483 -3.09383 -4.20808 0
M  V30 9916 H 968.177 -1.98984 -2.23709 0
M  V30 9917 H 965.723 -0.958112 -1.075 0
M  V30 9918 H 967.676 -0.521071 -4.18166 0
M  V30 9919 H 966.4 0.303399 -3.25188 0
M  V30 9920 H 965.059 -1.82783 -3.17783 0
M  V30 9921 H 964.707 -0.180888 -5.02675 0
M  V30 9922 H 964.407 -1.84822 -5.57776 0
M  V30 9923 H 965.931 -1.02683 -6.01904 0
M  V30 9924 H 967.345 -2.99642 -4.88761 0
M  V30 9925 H 965.742 -3.75923 -4.67763 0
M  V30 9926 H 966.812 -3.57486 -3.27616 0
M  V30 9927 N 968.156 1.1691 -1.05688 0
M  V30 9928 C 969.402 1.8757 -0.771071 0
M  V30 9929 C 969.735 1.8113 0.700399 0
M  V30 9930 O 969.01 1.22273 1.5126 0
M  V30 9931 C 969.293 3.37392 -1.25851 0
M  V30 9932 C 969.146 3.52556 -2.79329 0
M  V30 9933 C 970.465 4.31585 -0.861512 0
M  V30 9934 H 967.584 0.681089 -0.281579 0
M  V30 9935 H 970.226 1.37453 -1.31174 0
M  V30 9936 H 968.376 3.80204 -0.798563 0
M  V30 9937 H 970.048 3.18725 -3.33485 0
M  V30 9938 H 968.291 2.94668 -3.1836 0
M  V30 9939 H 968.962 4.57748 -3.08498 0
M  V30 9940 H 971.438 3.96642 -1.25756 0
M  V30 9941 H 970.314 5.34939 -1.23012 0
M  V30 9942 H 970.575 4.4148 0.234089 0
M  V30 9943 N 969.634 0.838594 1.33437 0
M  V30 9944 C 970.911 0.356112 1.92331 0
M  V30 9945 C 971.291 -1.1585 1.76471 0
M  V30 9946 O 970.639 -1.97281 1.15293 0
M  V30 9947 C 970.849 0.802715 3.39643 0
M  V30 9948 C 972.197 0.810575 4.16791 0
M  V30 9949 O 973.221 0.746304 3.48294 0
M  V30 9950 O 972.08 0.898082 5.3907 0
M  V30 9951 H 969.174 0.100711 0.820845 0
M  V30 9952 H 971.72 0.924428 1.42311 0
M  V30 9953 H 970.492 1.84529 3.45057 0
M  V30 9954 H 970.115 0.210956 3.9704 0
M  V30 9955 N 971.112 -1.45937 0.595003 0
M  V30 9956 C 972.34 -2.06698 0.091293 0
M  V30 9957 C 972.755 -1.44176 -1.21897 0
M  V30 9958 O 972.112 -0.551402 -1.73971 0
M  V30 9959 C 972.163 -3.61436 -0.0681801 0
M  V30 9960 O 971.884 -4.21622 1.19023 0
M  V30 9961 C 973.385 -4.39155 -0.604814 0
M  V30 9962 H 970.605 -0.668029 0.0630737 0
M  V30 9963 H 973.149 -1.87376 0.819165 0
M  V30 9964 H 971.304 -3.80143 -0.746324 0
M  V30 9965 H 971.718 -5.14647 1.01187 0
M  V30 9966 H 973.192 -5.47973 -0.665532 0
M  V30 9967 H 973.669 -4.08055 -1.62444 0
M  V30 9968 H 974.275 -4.25282 0.0388658 0
M  V30 9969 N 972.59 -0.333456 -1.54032 0
M  V30 9970 C 973.522 0.562174 -2.22199 0
M  V30 9971 C 974.535 1.07202 -1.22522 0
M  V30 9972 O 975.724 0.983897 -1.48935 0
M  V30 9973 C 972.824 1.78525 -2.88066 0
M  V30 9974 C 971.997 1.41242 -4.13968 0
M  V30 9975 C 971.056 2.49408 -4.63338 0
M  V30 9976 O 970.082 2.13138 -5.27789 0
M  V30 9977 N 971.284 3.805 -4.38406 0
M  V30 9978 H 974.049 -0.0215629 -2.99692 0
M  V30 9979 H 971.61 -0.157111 -1.61136 0
M  V30 9980 H 973.602 2.50298 -3.18014 0
M  V30 9981 H 972.172 2.2766 -2.14219 0
M  V30 9982 H 971.392 0.525887 -3.90676 0
M  V30 9983 H 972.68 1.13916 -4.95884 0
M  V30 9984 H 972.078 4.12761 -3.86839 0
M  V30 9985 H 970.635 4.48474 -4.72984 0
M  V30 9986 N 974.068 1.57479 -0.061844 0
M  V30 9987 C 975.316 1.92727 0.608336 0
M  V30 9988 C 975.637 0.941799 1.70749 0
M  V30 9989 O 974.907 -0.0116608 1.95897 0
M  V30 9990 H 973.487 0.71145 0.2277 0
M  V30 9991 H 976.149 1.94546 -0.117359 0
M  V30 9992 H 975.245 2.9426 1.04007 0
M  V30 9993 N 975.546 -0.211634 1.56173 0
M  V30 9994 C 976.774 -0.951184 1.83739 0
M  V30 9995 C 977.189 -1.7754 0.642252 0
M  V30 9996 O 976.546 -1.78302 -0.389174 0
M  V30 9997 C 976.597 -1.86075 3.09933 0
M  V30 9998 O 976.318 -1.06983 4.24837 0
M  V30 9999 C 977.819 -2.71337 3.50559 0
M  V30 10000 H 975.039 -0.278312 0.61056 0
M  V30 10001 H 977.583 -0.223871 2.03271 0
M  V30 10002 H 975.738 -2.54189 2.92347 0
M  V30 10003 H 976.152 -1.68815 4.9659 0
M  V30 10004 H 977.626 -3.30843 4.41868 0
M  V30 10005 H 978.103 -3.44226 2.72773 0
M  V30 10006 H 978.709 -2.0862 3.70618 0
M  V30 10007 N 977.024 -1.50153 -0.478725 0
M  V30 10008 C 978.301 -1.51274 -1.23999 0
M  V30 10009 C 978.681 -0.253048 -2.09578 0
M  V30 10010 O 978.029 0.763827 -2.15355 0
M  V30 10011 C 978.239 -2.80423 -2.07759 0
M  V30 10012 C 979.587 -3.30788 -2.66204 0
M  V30 10013 O 980.611 -2.81693 -2.18008 0
M  V30 10014 O 979.47 -4.1635 -3.53999 0
M  V30 10015 H 976.564 -0.606438 -0.562283 0
M  V30 10016 H 979.11 -1.62436 -0.491171 0
M  V30 10017 H 977.882 -3.63584 -1.44645 0
M  V30 10018 H 977.505 -2.72228 -2.89789 0
M  V30 10019 N 978.502 0.731368 -1.39602 0
M  V30 10020 C 979.434 1.85575 -1.34516 0
M  V30 10021 C 980.447 1.60818 -0.253287 0
M  V30 10022 O 981.636 1.70984 -0.512505 0
M  V30 10023 C 978.736 3.21673 -1.06676 0
M  V30 10024 C 977.909 3.73757 -2.27211 0
M  V30 10025 C 976.968 4.88426 -1.95773 0
M  V30 10026 O 975.994 5.01898 -2.68491 0
M  V30 10027 N 977.196 5.73065 -0.926083 0
M  V30 10028 H 979.961 1.90442 -2.31413 0
M  V30 10029 H 977.522 0.912258 -1.33752 0
M  V30 10030 H 979.514 3.95959 -0.836577 0
M  V30 10031 H 978.084 3.12052 -0.185003 0
M  V30 10032 H 977.304 2.90781 -2.66158 0
M  V30 10033 H 978.592 4.05289 -3.07601 0
M  V30 10034 H 977.99 5.64774 -0.323497 0
M  V30 10035 H 976.547 6.47403 -0.755795 0
M  V30 10036 N 979.98 1.24838 0.961938 0
M  V30 10037 C 981.226 1.10321 1.70883 0
M  V30 10038 C 981.581 -0.353397 1.89127 0
M  V30 10039 O 980.874 -1.25721 1.44584 0
M  V30 10040 C 981.068 1.78289 3.09754 0
M  V30 10041 C 980.897 3.30409 3.05057 0
M  V30 10042 C 979.667 3.9964 3.09218 0
M  V30 10043 C 981.865 4.26916 2.86787 0
M  V30 10044 N 979.847 5.38594 2.94601 0
M  V30 10045 C 981.218 5.52906 2.80526 0
M  V30 10046 C 983.273 4.17421 2.71412 0
M  V30 10047 C 981.976 6.70487 2.60461 0
M  V30 10048 C 984.002 5.34686 2.52715 0
M  V30 10049 C 983.364 6.59611 2.47168 0
M  V30 10050 H 979.463 0.458353 0.63359 0
M  V30 10051 H 982.047 1.57835 1.14001 0
M  V30 10052 H 980.218 1.33281 3.64816 0
M  V30 10053 H 981.95 1.5658 3.73182 0
M  V30 10054 H 978.705 3.50847 3.18125 0
M  V30 10055 H 979.129 6.11497 2.90517 0
M  V30 10056 H 983.771 3.21592 2.74479 0
M  V30 10057 H 981.489 7.66433 2.56136 0
M  V30 10058 H 985.075 5.29194 2.41754 0
M  V30 10059 H 983.955 7.48821 2.32888 0
M  V30 10060 N 981.458 -1.16348 1.06306 0
M  V30 10061 C 982.707 -1.8622 0.774909 0
M  V30 10062 C 983.02 -1.82598 -0.701245 0
M  V30 10063 O 984.226 -2.48051 -1.10377 0
M  V30 10064 C 982.682 -3.34182 1.33604 0
M  V30 10065 C 982.29 -3.46279 2.84245 0
M  V30 10066 C 984.034 -4.09309 1.12544 0
M  V30 10067 C 981.941 -4.88327 3.33602 0
M  V30 10068 H 980.871 -0.697574 0.286194 0
M  V30 10069 H 983.522 -1.31311 1.28179 0
M  V30 10070 H 981.904 -3.88698 0.756937 0
M  V30 10071 H 983.078 -3.01923 3.48108 0
M  V30 10072 H 981.393 -2.84585 3.03974 0
M  V30 10073 H 983.99 -5.14123 1.46909 0
M  V30 10074 H 984.333 -4.16251 0.0638129 0
M  V30 10075 H 984.866 -3.61032 1.67034 0
M  V30 10076 H 981.605 -4.86565 4.39244 0
M  V30 10077 H 981.125 -5.33307 2.74487 0
M  V30 10078 H 982.804 -5.57144 3.28937 0
M  V30 10079 N 982.937 -0.845659 -1.3299 0
M  V30 10080 C 984.162 -0.457435 -2.02293 0
M  V30 10081 C 984.587 0.935634 -1.63179 0
M  V30 10082 O 983.945 1.61297 -0.827835 0
M  V30 10083 C 983.993 -0.593665 -3.5568 0
M  V30 10084 O 983.097 0.37729 -4.10671 0
M  V30 10085 H 982.438 -0.185022 -0.637701 0
M  V30 10086 H 984.968 -1.14237 -1.69738 0
M  V30 10087 H 984.978 -0.477834 -4.05192 0
M  V30 10088 H 983.653 -1.60957 -3.83491 0
M  V30 10089 H 982.23 0.218448 -3.7226 0
M  V30 10090 N 984.415 1.45619 -0.602734 0
M  V30 10091 C 985.378 2.28941 0.108962 0
M  V30 10092 C 986.378 1.39501 0.799762 0
M  V30 10093 O 987.568 1.61673 0.648663 0
M  V30 10094 C 984.7 3.204 1.16432 0
M  V30 10095 H 985.893 2.93346 -0.623534 0
M  V30 10096 H 983.446 1.52061 -0.361565 0
M  V30 10097 H 984.181 2.60785 1.92774 0
M  V30 10098 H 983.966 3.86277 0.673248 0
M  V30 10099 H 985.456 3.83063 1.6629 0
M  V30 10100 N 985.893 0.34162 1.53853 0
M  V30 10101 C 987.141 -0.254979 2.00485 0
M  V30 10102 C 987.462 -1.51222 1.23114 0
M  V30 10103 O 986.732 -1.92966 0.337787 0
M  V30 10104 H 985.312 -0.0972084 0.740648 0
M  V30 10105 H 987.974 0.462332 1.89337 0
M  V30 10106 H 987.07 -0.498778 3.08089 0
M  V30 10107 N 987.371 -1.57444 0.0701946 0
M  V30 10108 C 988.318 -2.12631 -0.897599 0
M  V30 10109 C 989.288 -1.03841 -1.29639 0
M  V30 10110 O 990.473 -1.31495 -1.38253 0
M  V30 10111 C 987.613 -2.6911 -2.16041 0
M  V30 10112 C 986.726 -3.9205 -1.8144 0
M  V30 10113 C 985.861 -4.36778 -3.02321 0
M  V30 10114 C 984.9 -5.52371 -2.63729 0
M  V30 10115 N 984.037 -5.92065 -3.77364 0
M  V30 10116 H 988.877 -2.95024 -0.420104 0
M  V30 10117 H 986.414 -1.45792 -0.195716 0
M  V30 10118 H 988.372 -2.99963 -2.89962 0
M  V30 10119 H 987.002 -1.89484 -2.61334 0
M  V30 10120 H 986.054 -3.67669 -0.975896 0
M  V30 10121 H 987.366 -4.76011 -1.49046 0
M  V30 10122 H 986.52 -4.69285 -3.84521 0
M  V30 10123 H 985.259 -3.51668 -3.37907 0
M  V30 10124 H 984.264 -5.19517 -1.7995 0
M  V30 10125 H 985.489 -6.39212 -2.29315 0
M  V30 10126 H 983.435 -5.09904 -4.12715 0
M  V30 10127 H 983.352 -6.70762 -3.48733 0
M  V30 10128 H 984.62 -6.29193 -4.60148 0
M  V30 10129 N 988.849 0.203349 -1.56283 0
M  V30 10130 C 989.812 1.23566 -1.93039 0
M  V30 10131 C 990.812 1.38869 -0.810687 0
M  V30 10132 O 992.002 1.36822 -1.07821 0
M  V30 10133 C 989.134 2.60645 -2.1972 0
M  V30 10134 H 990.327 0.921692 -2.85385 0
M  V30 10135 H 987.88 0.44453 -1.49845 0
M  V30 10136 H 988.615 2.9711 -1.29985 0
M  V30 10137 H 988.4 2.50911 -3.01307 0
M  V30 10138 H 989.89 3.35103 -2.4919 0
M  V30 10139 N 990.327 1.50405 0.470755 0
M  V30 10140 C 991.259 1.65447 1.58619 0
M  V30 10141 C 992.272 0.535949 1.53725 0
M  V30 10142 O 993.461 0.80914 1.59107 0
M  V30 10143 C 990.561 1.62318 2.975 0
M  V30 10144 C 989.734 2.90207 3.27259 0
M  V30 10145 C 988.793 2.79717 4.45696 0
M  V30 10146 O 987.819 3.53672 4.45987 0
M  V30 10147 N 989.021 1.93296 5.47373 0
M  V30 10148 H 991.786 2.61659 1.46132 0
M  V30 10149 H 989.347 1.47873 0.659178 0
M  V30 10150 H 991.339 1.52912 3.747 0
M  V30 10151 H 989.909 0.738392 3.03754 0
M  V30 10152 H 989.129 3.13737 2.38669 0
M  V30 10153 H 990.417 3.74931 3.43953 0
M  V30 10154 H 989.815 1.32524 5.49958 0
M  V30 10155 H 988.372 1.89793 6.23556 0
M  V30 10156 N 991.805 -0.723954 1.39988 0
M  V30 10157 C 993.053 -1.48078 1.3754 0
M  V30 10158 C 993.374 -1.94985 -0.0243358 0
M  V30 10159 O 992.644 -1.69764 -0.977602 0
M  V30 10160 H 991.224 -0.549354 0.506181 0
M  V30 10161 H 993.886 -0.858746 1.74962 0
M  V30 10162 H 992.982 -2.35763 2.04505 0
M  V30 10163 N 993.283 -1.25346 -0.955304 0
M  V30 10164 C 994.531 -1.09837 -1.69647 0
M  V30 10165 C 994.852 0.361425 -1.91621 0
M  V30 10166 O 994.122 1.25666 -1.50283 0
M  V30 10167 H 992.702 -0.403467 -0.628668 0
M  V30 10168 H 995.364 -1.57459 -1.14859 0
M  V30 10169 H 994.46 -1.60616 -2.67598 0
M  V30 10170 N 994.761 1.15782 -1.06922 0
M  V30 10171 C 995.694 2.19336 -0.629837 0
M  V30 10172 C 996.672 1.58774 0.350663 0
M  V30 10173 O 997.856 1.86724 0.258124 0
M  V30 10174 C 994.983 3.38615 0.0757526 0
M  V30 10175 C 994.029 4.17688 -0.862503 0
M  V30 10176 S 994.862 4.80634 -2.36117 0
M  V30 10177 C 996.018 6.03286 -1.66725 0
M  V30 10178 H 996.251 2.56267 -1.50714 0
M  V30 10179 H 993.784 1.26674 -0.882776 0
M  V30 10180 H 995.742 4.07724 0.476611 0
M  V30 10181 H 994.403 3.00037 0.929332 0
M  V30 10182 H 993.596 5.03012 -0.315461 0
M  V30 10183 H 993.198 3.54106 -1.20354 0
M  V30 10184 H 995.49 6.70426 -0.976472 0
M  V30 10185 H 996.433 6.62551 -2.49864 0
M  V30 10186 H 996.841 5.52722 -1.14711 0
M  V30 10187 N 996.239 0.8527 1.3254 0
M  V30 10188 C 997.202 0.300959 2.27215 0
M  V30 10189 C 998.202 -0.538235 1.51525 0
M  V30 10190 O 999.392 -0.350027 1.70647 0
M  V30 10191 C 996.524 -0.574428 3.36025 0
M  V30 10192 H 997.717 1.13655 2.77529 0
M  V30 10193 H 995.27 0.626878 1.43178 0
M  V30 10194 H 996.005 -1.43191 2.90976 0
M  V30 10195 H 995.79 0.0262265 3.92091 0
M  V30 10196 H 997.28 -0.9533 4.06573 0
M  V30 10197 N 997.718 -1.45297 0.610449 0
M  V30 10198 C 998.943 -2.07101 0.111414 0
M  V30 10199 C 999.368 -1.45161 -1.19625 0
M  V30 10200 O 998.726 -0.545368 -1.72903 0
M  V30 10201 C 998.774 -3.60598 -0.0117372 0
M  V30 10202 O 997.878 -3.98512 -1.06122 0
M  V30 10203 H 997.219 -0.659709 0.075364 0
M  V30 10204 H 999.749 -1.86504 0.841269 0
M  V30 10205 H 999.759 -4.07464 -0.209028 0
M  V30 10206 H 998.434 -4.05067 0.943076 0
M  V30 10207 H 997.011 -3.63312 -0.840158 0
M  V30 10208 N 999.196 -0.349774 -1.5367 0
M  V30 10209 C 1000.42 0.248692 -2.05904 0
M  V30 10210 C 1000.85 1.42942 -1.22267 0
M  V30 10211 O 1000.2 1.79732 -0.237899 0
M  V30 10212 C 1000.25 0.635639 -3.54953 0
M  V30 10213 O 999.356 1.7349 -3.74132 0
M  V30 10214 H 998.697 0.0399477 -0.662797 0
M  V30 10215 H 1001.23 -0.505795 -1.9825 0
M  V30 10216 H 1001.24 0.911064 -3.97698 0
M  V30 10217 H 999.912 -0.227805 -4.15276 0
M  V30 10218 H 998.489 1.45626 -3.43289 0
M  V30 10219 N 1000.67 1.57404 -0.0785433 0
M  V30 10220 C 1002.09 1.57158 0.2781 0
M  V30 10221 C 1002.29 1.08847 1.69572 0
M  V30 10222 O 1001.35 0.757407 2.40873 0
M  V30 10223 C 1002.66 3.00589 0.0816067 0
M  V30 10224 C 1004.21 3.12637 0.150627 0
M  V30 10225 C 1004.68 4.57997 -0.0176685 0
M  V30 10226 N 1006.17 4.63185 0.0377145 0
M  V30 10227 C 1006.91 5.7336 -0.0679907 0
M  V30 10228 N 1006.4 6.92426 -0.227598 0
M  V30 10229 N 1008.2 5.62099 -0.0104424 0
M  V30 10230 H 1000.35 1.87121 -1.00496 0
M  V30 10231 H 1002.61 0.862937 -0.392484 0
M  V30 10232 H 1002.32 3.40072 -0.896869 0
M  V30 10233 H 1002.19 3.67931 0.831046 0
M  V30 10234 H 1004.58 2.73037 1.11959 0
M  V30 10235 H 1004.66 2.4792 -0.630028 0
M  V30 10236 H 1004.3 4.98288 -0.983431 0
M  V30 10237 H 1004.23 5.20754 0.782475 0
M  V30 10238 H 1006.72 3.77564 0.159208 0
M  V30 10239 H 1007.04 7.72217 -0.300217 0
M  V30 10240 H 1005.38 6.94502 -0.263049 0
M  V30 10241 H 1008.57 4.67964 0.112999 0
M  V30 10242 H 1008.75 6.47928 -0.0962747 0
M  V30 10243 N 1002.15 -0.195058 1.56388 0
M  V30 10244 C 1003.38 -0.935745 1.85091 0
M  V30 10245 C 1003.8 -1.76061 0.662118 0
M  V30 10246 O 1003.16 -1.77076 -0.389083 0
M  V30 10247 C 1003.21 -1.80764 3.1202 0
M  V30 10248 O 1002.31 -2.90643 2.92575 0
M  V30 10249 H 1001.65 -0.26351 0.609474 0
M  V30 10250 H 1004.18 -0.200362 2.03617 0
M  V30 10251 H 1004.19 -2.21229 3.42815 0
M  V30 10252 H 1002.87 -1.20157 3.98165 0
M  V30 10253 H 1001.44 -2.53934 2.73079 0
M  V30 10254 N 1003.63 -1.50653 -0.462772 0
M  V30 10255 C 1004.56 -1.66286 -1.5774 0
M  V30 10256 C 1005.57 -0.544094 -1.53439 0
M  V30 10257 O 1006.76 -0.817566 -1.58676 0
M  V30 10258 C 1003.86 -1.63893 -2.96635 0
M  V30 10259 C 1003.04 -2.91939 -3.25716 0
M  V30 10260 C 1002.1 -2.82076 -4.44206 0
M  V30 10261 O 1001.12 -3.56032 -4.44106 0
M  V30 10262 N 1002.32 -1.96196 -5.4634 0
M  V30 10263 H 1005.09 -2.6243 -1.44742 0
M  V30 10264 H 1002.65 -1.48221 -0.651326 0
M  V30 10265 H 1004.64 -1.54897 -3.73884 0
M  V30 10266 H 1003.21 -0.75449 -3.03358 0
M  V30 10267 H 1002.43 -3.14998 -2.37002 0
M  V30 10268 H 1003.72 -3.7675 -3.4196 0
M  V30 10269 H 1003.12 -1.35439 -5.49247 0
M  V30 10270 H 1001.67 -1.93097 -6.2254 0
M  V30 10271 N 1005.11 0.71652 -1.4037 0
M  V30 10272 C 1006.04 1.84345 -1.43315 0
M  V30 10273 C 1007.02 1.67537 -0.294186 0
M  V30 10274 O 1008.2 1.87582 -0.502671 0
M  V30 10275 C 1005.33 3.2229 -1.29408 0
M  V30 10276 C 1004.29 3.53769 -2.40897 0
M  V30 10277 C 1003.61 4.90847 -2.12068 0
M  V30 10278 C 1004.91 3.54862 -3.83237 0
M  V30 10279 H 1006.61 1.82138 -2.37626 0
M  V30 10280 H 1004.15 0.874873 -1.14376 0
M  V30 10281 H 1006.11 4.00819 -1.30085 0
M  V30 10282 H 1004.83 3.2507 -0.31573 0
M  V30 10283 H 1003.49 2.77579 -2.39469 0
M  V30 10284 H 1003.14 4.90229 -1.12626 0
M  V30 10285 H 1002.84 5.12875 -2.86762 0
M  V30 10286 H 1004.36 5.71711 -2.14426 0
M  V30 10287 H 1005.78 4.23432 -3.86494 0
M  V30 10288 H 1004.17 3.88416 -4.57442 0
M  V30 10289 H 1005.24 2.54266 -4.12888 0
M  V30 10290 N 1006.59 1.25851 0.948643 0
M  V30 10291 C 1007.83 1.10735 1.69062 0
M  V30 10292 C 1008.16 -0.351257 1.9181 0
M  V30 10293 O 1007.43 -1.24867 1.50947 0
M  V30 10294 H 1006.01 0.406796 0.626519 0
M  V30 10295 H 1008.67 1.58066 1.14022 0
M  V30 10296 H 1007.76 1.62033 2.66743 0
M  V30 10297 N 1008.06 -1.15214 1.07534 0
M  V30 10298 C 1009.03 -2.18209 0.701237 0
M  V30 10299 C 1010.03 -1.58693 -0.25946 0
M  V30 10300 O 1011.22 -1.74154 -0.0401744 0
M  V30 10301 C 1008.35 -3.40883 0.0338703 0
M  V30 10302 H 1009.54 -2.5282 1.61314 0
M  V30 10303 H 1007.1 -1.29707 0.872105 0
M  V30 10304 H 1007.83 -3.11843 -0.890187 0
M  V30 10305 H 1007.62 -3.85342 0.72486 0
M  V30 10306 H 1009.11 -4.17056 -0.213152 0
M  V30 10307 N 1009.54 -0.859717 -1.32086 0
M  V30 10308 C 1010.82 -0.386665 -1.9174 0
M  V30 10309 C 1011.2 1.13028 -1.78292 0
M  V30 10310 O 1010.55 1.95422 -1.18417 0
M  V30 10311 C 1010.76 -0.856648 -3.38323 0
M  V30 10312 C 1012.11 -0.87678 -4.15449 0
M  V30 10313 O 1013.13 -0.80162 -3.47063 0
M  V30 10314 O 1011.99 -0.98373 -5.37573 0
M  V30 10315 H 1009.08 -0.113758 -0.819139 0
M  V30 10316 H 1011.63 -0.946952 -1.40822 0
M  V30 10317 H 1010.4 -1.89996 -3.42078 0
M  V30 10318 H 1010.02 -0.274095 -3.96654 0
M  V30 10319 N 1011.02 1.44971 -0.618145 0
M  V30 10320 C 1012.27 2.01372 -0.115004 0
M  V30 10321 C 1012.58 1.49104 1.26599 0
M  V30 10322 O 1013.79 1.97549 1.86244 0
M  V30 10323 C 1012.24 3.59567 -0.154883 0
M  V30 10324 C 1011.85 4.20832 -1.53639 0
M  V30 10325 C 1013.6 4.23491 0.292468 0
M  V30 10326 C 1011.5 5.7121 -1.53208 0
M  V30 10327 H 1010.43 0.752979 -0.0392267 0
M  V30 10328 H 1013.08 1.66329 -0.775032 0
M  V30 10329 H 1011.47 3.91847 0.572001 0
M  V30 10330 H 1012.64 4.00109 -2.28582 0
M  V30 10331 H 1010.96 3.69143 -1.92672 0
M  V30 10332 H 1013.55 5.33771 0.315032 0
M  V30 10333 H 1013.9 3.9491 1.31725 0
M  V30 10334 H 1014.43 3.95967 -0.381493 0
M  V30 10335 H 1011.17 6.04506 -2.53481 0
M  V30 10336 H 1010.69 5.94094 -0.825387 0
M  V30 10337 H 1012.37 6.34606 -1.26032 0
M  V30 10338 N 1012.5 0.357919 1.53482 0
M  V30 10339 C 1013.45 -0.50845 2.22258 0
M  V30 10340 C 1014.43 -1.05476 1.21506 0
M  V30 10341 O 1015.62 -0.986075 1.46988 0
M  V30 10342 C 1012.75 -1.65157 3.00962 0
M  V30 10343 C 1011.84 -1.11851 4.09084 0
M  V30 10344 N 1012.23 -0.307818 5.04862 0
M  V30 10345 C 1010.53 -1.39405 4.23653 0
M  V30 10346 C 1011.23 -0.016842 5.81698 0
M  V30 10347 N 1010.21 -0.612396 5.40139 0
M  V30 10348 H 1014.01 0.117836 2.93664 0
M  V30 10349 H 1011.52 0.16553 1.61554 0
M  V30 10350 H 1013.52 -2.28435 3.48745 0
M  V30 10351 H 1012.18 -2.281 2.31086 0
M  V30 10352 H 1013.19 0.0523313 5.17874 0
M  V30 10353 H 1009.87 -2.02682 3.65002 0
M  V30 10354 H 1011.26 0.638046 6.68864 0
M  V30 10355 N 1013.98 -1.5736 0.0868897 0
M  V30 10356 C 1014.89 -2.17087 -0.889402 0
M  V30 10357 C 1015.9 -1.13809 -1.31619 0
M  V30 10358 O 1017.08 -1.46143 -1.38579 0
M  V30 10359 C 1014.14 -2.73286 -2.13344 0
M  V30 10360 C 1013.2 -3.91491 -1.76164 0
M  V30 10361 C 1012.44 -4.45 -2.94637 0
M  V30 10362 O 1012.66 -3.97467 -4.09116 0
M  V30 10363 O 1011.59 -5.36133 -2.73579 0
M  V30 10364 H 1015.42 -3.00902 -0.411275 0
M  V30 10365 H 1013.01 -1.4877 -0.137015 0
M  V30 10366 H 1014.89 -3.0924 -2.86266 0
M  V30 10367 H 1013.56 -1.92521 -2.60225 0
M  V30 10368 H 1012.47 -3.60363 -1.00447 0
M  V30 10369 H 1013.8 -4.73593 -1.34053 0
M  V30 10370 N 1015.45 0.186762 -1.56489 0
M  V30 10371 C 1016.7 0.904077 -1.80303 0
M  V30 10372 C 1017.02 1.84073 -0.661538 0
M  V30 10373 O 1018.22 2.59928 -0.784197 0
M  V30 10374 C 1016.68 1.65806 -3.19432 0
M  V30 10375 C 1016.29 0.765807 -4.41406 0
M  V30 10376 C 1018.03 2.36451 -3.52549 0
M  V30 10377 C 1015.94 1.51913 -5.71556 0
M  V30 10378 H 1014.87 0.34133 -0.672317 0
M  V30 10379 H 1017.52 0.157218 -1.82825 0
M  V30 10380 H 1015.9 2.44911 -3.11183 0
M  V30 10381 H 1017.07 0.0128225 -4.60798 0
M  V30 10382 H 1015.39 0.169772 -4.16054 0
M  V30 10383 H 1017.99 2.93378 -4.47027 0
M  V30 10384 H 1018.33 3.11044 -2.7669 0
M  V30 10385 H 1018.86 1.64305 -3.62283 0
M  V30 10386 H 1015.6 0.815829 -6.50403 0
M  V30 10387 H 1015.12 2.24583 -5.56168 0
M  V30 10388 H 1016.8 2.07073 -6.12968 0
M  V30 10389 N 1016.93 1.50896 0.454776 0
M  V30 10390 C 1018.21 1.53227 1.21576 0
M  V30 10391 C 1018.59 0.286358 2.09149 0
M  V30 10392 O 1017.94 -0.729469 2.16543 0
M  V30 10393 C 1018.15 2.83693 2.03271 0
M  V30 10394 C 1019.5 3.34981 2.60908 0
M  V30 10395 O 1020.52 2.85126 2.13499 0
M  V30 10396 O 1019.38 4.21929 3.4733 0
M  V30 10397 H 1016.47 0.615306 0.552564 0
M  V30 10398 H 1019.02 1.63197 0.465266 0
M  V30 10399 H 1017.79 3.65839 1.38843 0
M  V30 10400 H 1017.41 2.76803 2.85422 0
M  V30 10401 N 1018.41 -0.709066 1.40748 0
M  V30 10402 C 1019.36 -1.84445 1.41714 0
M  V30 10403 C 1020.35 -1.66779 0.296818 0
M  V30 10404 O 1021.56 -1.73805 0.468181 0
M  V30 10405 H 1017.93 -0.607581 0.443114 0
M  V30 10406 H 1019.9 -1.80747 2.3743 0
M  V30 10407 C 1018.65 -3.22362 1.303 0
M  V30 10408 H 1017.98 -3.36565 2.15787 0
M  V30 10409 H 1019.42 -4.01922 1.35036 0
M  V30 10410 C 1017.88 -3.36897 0.0139015 0
M  V30 10411 O 1018.41 -3.90389 -0.946553 0
M  V30 10412 N 1016.61 -2.90543 -0.0577491 0
M  V30 10413 H 1016.16 -2.472 0.724574 0
M  V30 10414 H 1016.12 -3.00647 -0.919721 0
M  V30 10415 N 1019.89 -1.26353 -0.941956 0
M  V30 10416 C 1021.11 -1.14731 -1.72776 0
M  V30 10417 C 1021.54 0.293766 -1.85792 0
M  V30 10418 O 1020.9 1.21284 -1.34759 0
M  V30 10419 C 1020.95 -1.82041 -3.11277 0
M  V30 10420 O 1020.05 -1.10867 -3.97218 0
M  V30 10421 H 1019.39 -0.399823 -0.53013 0
M  V30 10422 H 1021.92 -1.67157 -1.17981 0
M  V30 10423 H 1021.93 -1.88834 -3.61671 0
M  V30 10424 H 1020.61 -2.86879 -3.0112 0
M  V30 10425 H 1019.18 -1.12044 -3.55669 0
M  V30 10426 N 1021.37 1.14642 -1.08144 0
M  V30 10427 C 1022.33 2.17834 -0.712799 0
M  V30 10428 C 1023.33 1.58828 0.251041 0
M  V30 10429 O 1024.52 1.74173 0.0309381 0
M  V30 10430 C 1021.65 3.4086 -0.0519477 0
M  V30 10431 H 1022.85 2.51961 -1.62653 0
M  V30 10432 H 1020.4 1.29243 -0.878971 0
M  V30 10433 H 1021.13 3.12311 0.873636 0
M  V30 10434 H 1020.92 3.84952 -0.745286 0
M  V30 10435 H 1022.41 4.17163 0.191031 0
M  V30 10436 N 1022.85 0.866709 1.31628 0
M  V30 10437 C 1024.07 0.48956 2.01539 0
M  V30 10438 C 1024.5 -0.909556 1.64647 0
M  V30 10439 O 1023.85 -1.59959 0.853391 0
M  V30 10440 C 1023.9 0.650176 3.5469 0
M  V30 10441 O 1023.01 -0.311908 4.11219 0
M  V30 10442 H 1022.35 0.195144 0.634677 0
M  V30 10443 H 1024.88 1.16923 1.679 0
M  V30 10444 H 1024.89 0.542236 4.04381 0
M  V30 10445 H 1023.56 1.67038 3.80882 0
M  V30 10446 H 1022.14 -0.159197 3.7256 0
M  V30 10447 N 1024.32 -1.44642 0.625825 0
M  V30 10448 C 1025.74 -1.56925 0.290992 0
M  V30 10449 C 1025.94 -1.61424 -1.20601 0
M  V30 10450 O 1025 -1.55439 -1.98985 0
M  V30 10451 C 1026.31 -2.84343 0.978242 0
M  V30 10452 C 1027.86 -2.98047 0.955882 0
M  V30 10453 C 1028.33 -4.2826 1.62349 0
M  V30 10454 N 1029.82 -4.35062 1.58983 0
M  V30 10455 C 1030.56 -5.34524 2.07538 0
M  V30 10456 N 1030.05 -6.4042 2.6426 0
M  V30 10457 N 1031.85 -5.25998 1.98198 0
M  V30 10458 H 1024 -1.39965 1.59761 0
M  V30 10459 H 1026.26 -0.670368 0.670306 0
M  V30 10460 H 1025.97 -2.86985 2.03304 0
M  V30 10461 H 1025.84 -3.73699 0.512726 0
M  V30 10462 H 1028.23 -2.94961 -0.0904292 0
M  V30 10463 H 1028.31 -2.10053 1.45984 0
M  V30 10464 H 1027.95 -4.32105 2.66923 0
M  V30 10465 H 1027.88 -5.15102 1.09441 0
M  V30 10466 H 1030.37 -3.59147 1.17565 0
M  V30 10467 H 1030.69 -7.1259 2.99056 0
M  V30 10468 H 1029.03 -6.41121 2.68308 0
M  V30 10469 H 1032.22 -4.42178 1.5361 0
M  V30 10470 H 1032.4 -6.03359 2.3635 0
M  V30 10471 N 1025.8 -0.366053 -1.5329 0
M  V30 10472 C 1027.04 0.223558 -2.03174 0
M  V30 10473 C 1027.41 1.45955 -1.24745 0
M  V30 10474 O 1028.61 2.12481 -1.64637 0
M  V30 10475 C 1026.88 0.507899 -3.53773 0
M  V30 10476 S 1028.44 1.07111 -4.25526 0
M  V30 10477 H 1025.25 0.0650309 -0.70802 0
M  V30 10478 H 1027.86 -0.509028 -1.88757 0
M  V30 10479 H 1026.56 -0.39913 -4.08455 0
M  V30 10480 H 1026.09 1.26954 -3.72352 0
M  V30 10481 H 1028.11 2.35533 -4.36737 0
M  V30 10482 N 1027.28 1.57312 -0.0952337 0
M  V30 10483 C 1028.53 1.93974 0.567319 0
M  V30 10484 C 1028.85 0.977805 1.68713 0
M  V30 10485 O 1028.12 0.0298944 1.95877 0
M  V30 10486 H 1026.7 0.71612 0.212558 0
M  V30 10487 H 1029.36 1.94254 -0.158598 0
M  V30 10488 H 1028.46 2.964 0.977423 0
M  V30 10489 N 1028.76 -0.17846 1.56586 0
M  V30 10490 C 1030.17 -0.529957 1.50544 0
M  V30 10491 C 1030.37 -1.85015 0.798237 0
M  V30 10492 O 1029.43 -2.49983 0.355639 0
M  V30 10493 C 1030.74 -0.569314 2.95261 0
M  V30 10494 C 1032.29 -0.657008 3.06027 0
M  V30 10495 C 1032.77 -0.727323 4.52188 0
M  V30 10496 N 1034.26 -0.790406 4.56406 0
M  V30 10497 C 1034.99 -0.865265 5.66834 0
M  V30 10498 N 1034.49 -0.901398 6.86911 0
M  V30 10499 N 1036.28 -0.903736 5.54787 0
M  V30 10500 H 1028.43 0.687304 2.00972 0
M  V30 10501 H 1030.69 0.246936 0.915274 0
M  V30 10502 H 1030.4 0.331934 3.5013 0
M  V30 10503 H 1030.27 -1.41828 3.4952 0
M  V30 10504 H 1032.66 -1.54868 2.51197 0
M  V30 10505 H 1032.74 0.218495 2.54865 0
M  V30 10506 H 1032.39 0.160067 5.07648 0
M  V30 10507 H 1032.32 -1.61887 5.01099 0
M  V30 10508 H 1034.81 -0.771054 3.6995 0
M  V30 10509 H 1035.12 -0.959494 7.6682 0
M  V30 10510 H 1033.47 -0.869795 6.89536 0
M  V30 10511 H 1036.66 -0.872459 4.59898 0
M  V30 10512 H 1036.83 -0.958615 6.4087 0
M  V30 10513 N 1030.24 -1.51135 -0.446768 0
M  V30 10514 C 1031.17 -1.74709 -1.54916 0
M  V30 10515 C 1032.15 -0.596628 -1.59293 0
M  V30 10516 O 1033.33 -0.838356 -1.75172 0
M  V30 10517 C 1030.46 -1.86353 -2.9307 0
M  V30 10518 C 1029.42 -3.01725 -3.03556 0
M  V30 10519 C 1028.74 -2.9854 -4.43597 0
M  V30 10520 C 1030.04 -4.41848 -2.7851 0
M  V30 10521 H 1031.74 -2.67014 -1.3544 0
M  V30 10522 H 1029.28 -1.28489 -0.650131 0
M  V30 10523 H 1031.23 -2.01428 -3.70141 0
M  V30 10524 H 1029.96 -0.906887 -3.13756 0
M  V30 10525 H 1028.62 -2.86339 -2.28922 0
M  V30 10526 H 1028.27 -2.00673 -4.61237 0
M  V30 10527 H 1027.97 -3.76008 -4.51544 0
M  V30 10528 H 1029.49 -3.15696 -5.22655 0
M  V30 10529 H 1030.9 -4.57633 -3.45319 0
M  V30 10530 H 1029.3 -5.2095 -2.97877 0
M  V30 10531 H 1030.37 -4.52536 -1.74182 0
M  V30 10532 N 1031.71 0.701592 -1.41122 0
M  V30 10533 C 1032.64 1.82815 -1.45262 0
M  V30 10534 C 1033.62 1.67215 -0.311939 0
M  V30 10535 O 1034.81 1.87038 -0.522538 0
M  V30 10536 C 1031.94 3.20899 -1.32819 0
M  V30 10537 C 1030.89 3.51194 -2.44636 0
M  V30 10538 C 1030.22 4.8857 -2.17263 0
M  V30 10539 C 1031.52 3.50777 -3.86979 0
M  V30 10540 H 1033.21 1.79608 -2.39544 0
M  V30 10541 H 1030.76 0.862693 -1.15298 0
M  V30 10542 H 1032.71 3.99417 -1.34329 0
M  V30 10543 H 1031.44 3.24717 -0.350191 0
M  V30 10544 H 1030.1 2.75024 -2.42399 0
M  V30 10545 H 1029.74 4.89007 -1.17819 0
M  V30 10546 H 1029.44 5.09805 -2.92186 0
M  V30 10547 H 1030.97 5.69405 -2.20478 0
M  V30 10548 H 1032.38 4.19309 -3.90964 0
M  V30 10549 H 1030.78 3.83542 -4.61536 0
M  V30 10550 H 1031.85 2.49873 -4.15562 0
M  V30 10551 N 1033.19 1.2685 0.935242 0
M  V30 10552 C 1034.47 1.03483 1.65984 0
M  V30 10553 C 1034.85 -0.432859 2.06614 0
M  V30 10554 O 1034.2 -1.4145 1.79455 0
M  V30 10555 C 1034.41 1.98924 2.86758 0
M  V30 10556 C 1035.75 2.2787 3.58274 0
M  V30 10557 O 1036.78 1.96838 2.96873 0
M  V30 10558 O 1035.64 2.80734 4.68882 0
M  V30 10559 H 1032.73 0.393932 0.72715 0
M  V30 10560 H 1035.28 1.38085 0.986445 0
M  V30 10561 H 1034.05 2.9794 2.53668 0
M  V30 10562 H 1033.67 1.64839 3.6182 0
M  V30 10563 N 1034.67 -1.14067 1.0875 0
M  V30 10564 C 1035.58 -2.22871 0.732498 0
M  V30 10565 C 1036.6 -1.72008 -0.26253 0
M  V30 10566 O 1037.77 -2.01123 -0.105601 0
M  V30 10567 C 1034.84 -3.46371 0.150913 0
M  V30 10568 C 1033.9 -4.12158 1.201 0
M  V30 10569 C 1033.13 -5.29763 0.647075 0
M  V30 10570 O 1033.35 -5.67911 -0.532307 0
M  V30 10571 O 1032.29 -5.8542 1.3988 0
M  V30 10572 H 1036.11 -2.55596 1.64025 0
M  V30 10573 H 1033.7 -1.22065 0.861417 0
M  V30 10574 H 1035.58 -4.21055 -0.170442 0
M  V30 10575 H 1034.26 -3.15362 -0.729948 0
M  V30 10576 H 1033.16 -3.39332 1.57494 0
M  V30 10577 H 1034.5 -4.47282 2.05426 0
M  V30 10578 N 1036.15 -0.873678 -1.31166 0
M  V30 10579 C 1037.39 -0.487178 -1.96861 0
M  V30 10580 C 1037.73 0.95887 -1.68877 0
M  V30 10581 O 1037 1.6758 -0.987279 0
M  V30 10582 C 1037.29 -0.74925 -3.52219 0
M  V30 10583 C 1037.14 -2.2451 -3.89763 0
M  V30 10584 C 1038.46 -0.218194 -4.39559 0
M  V30 10585 H 1035.58 -0.178477 -0.715063 0
M  V30 10586 H 1038.22 -1.0956 -1.55231 0
M  V30 10587 H 1036.37 -0.231403 -3.8781 0
M  V30 10588 H 1038.04 -2.83049 -3.64254 0
M  V30 10589 H 1036.28 -2.71621 -3.38237 0
M  V30 10590 H 1036.95 -2.37911 -4.98099 0
M  V30 10591 H 1039.43 -0.661274 -4.10812 0
M  V30 10592 H 1038.31 -0.430983 -5.47205 0
M  V30 10593 H 1038.57 0.880056 -4.33252 0
M  V30 10594 N 1037.63 1.44308 -0.633487 0
M  V30 10595 C 1038.59 2.2912 0.060376 0
M  V30 10596 C 1039.59 1.41166 0.769992 0
M  V30 10597 O 1040.78 1.63012 0.614224 0
M  V30 10598 C 1037.91 3.22798 1.0961 0
M  V30 10599 H 1039.1 2.91958 -0.685617 0
M  V30 10600 H 1036.66 1.51259 -0.393738 0
M  V30 10601 H 1037.39 2.64815 1.87199 0
M  V30 10602 H 1037.18 3.87618 0.591161 0
M  V30 10603 H 1038.67 3.86504 1.58127 0
M  V30 10604 N 1039.1 0.374177 1.53094 0
M  V30 10605 C 1040.35 -0.212396 2.00981 0
M  V30 10606 C 1040.67 -1.48576 1.26293 0
M  V30 10607 O 1039.94 -1.92206 0.378642 0
M  V30 10608 H 1038.52 -0.0814763 0.742543 0
M  V30 10609 H 1041.19 0.502389 1.88314 0
M  V30 10610 H 1040.28 -0.433316 3.09077 0
M  V30 10611 N 1040.58 -1.57259 0.103575 0
M  V30 10612 C 1041.86 -1.86143 -0.600852 0
M  V30 10613 C 1042.24 -1.00198 -1.85805 0
M  V30 10614 O 1041.59 -0.0766791 -2.28371 0
M  V30 10615 C 1041.8 -3.36978 -0.908108 0
M  V30 10616 C 1043.15 -4.05228 -1.26788 0
M  V30 10617 O 1044.17 -3.41908 -0.998859 0
M  V30 10618 O 1043.03 -5.16971 -1.7721 0
M  V30 10619 H 1040.12 -0.770064 -0.301547 0
M  V30 10620 H 1042.67 -1.69147 0.136914 0
M  V30 10621 H 1041.44 -3.91296 -0.0165615 0
M  V30 10622 H 1041.06 -3.5935 -1.70156 0
M  V30 10623 N 1042.06 0.170153 -1.56679 0
M  V30 10624 C 1043.02 1.19443 -1.95617 0
M  V30 10625 C 1044.02 1.37118 -0.83996 0
M  V30 10626 O 1045.21 1.34504 -1.10699 0
M  V30 10627 C 1042.35 2.55926 -2.25199 0
M  V30 10628 H 1043.54 0.86095 -2.87276 0
M  V30 10629 H 1041.09 0.412646 -1.50755 0
M  V30 10630 H 1041.83 2.94286 -1.36257 0
M  V30 10631 H 1041.61 2.44464 -3.06562 0
M  V30 10632 H 1043.1 3.29742 -2.56242 0
M  V30 10633 N 1043.54 1.5137 0.438746 0
M  V30 10634 C 1044.45 1.75424 1.55768 0
M  V30 10635 C 1045.46 0.638409 1.61865 0
M  V30 10636 O 1046.64 0.9205 1.79133 0
M  V30 10637 C 1043.71 1.87288 2.9176 0
M  V30 10638 C 1042.77 3.11137 2.95791 0
M  V30 10639 C 1042 3.22425 4.25297 0
M  V30 10640 O 1042.22 2.39688 5.17596 0
M  V30 10641 O 1041.16 4.15393 4.35583 0
M  V30 10642 H 1044.98 2.70339 1.38386 0
M  V30 10643 H 1042.57 1.35854 0.621609 0
M  V30 10644 H 1044.45 1.97085 3.72472 0
M  V30 10645 H 1043.12 0.955599 3.09273 0
M  V30 10646 H 1042.03 3.06819 2.1404 0
M  V30 10647 H 1043.36 4.02549 2.83223 0
M  V30 10648 N 1045.02 -0.694098 1.41492 0
M  V30 10649 C 1045.98 -1.78976 1.43179 0
M  V30 10650 C 1046.98 -1.57539 0.322191 0
M  V30 10651 O 1048.17 -1.64185 0.582138 0
M  V30 10652 C 1045.3 -3.17368 1.2446 0
M  V30 10653 H 1046.49 -1.78874 2.40716 0
M  V30 10654 H 1044.05 -0.901867 1.27656 0
M  V30 10655 H 1044.78 -3.23109 0.277691 0
M  V30 10656 H 1044.57 -3.3433 2.04856 0
M  V30 10657 H 1046.06 -3.97345 1.28479 0
M  V30 10658 N 1046.49 -1.27344 -0.928501 0
M  V30 10659 C 1047.74 -1.13804 -1.67859 0
M  V30 10660 C 1048.07 0.31555 -1.91619 0
M  V30 10661 O 1047.35 1.23087 -1.50599 0
M  V30 10662 C 1047.63 -1.9213 -3.04562 0
M  V30 10663 C 1047.48 -3.45468 -2.88048 0
M  V30 10664 C 1048.8 -1.72513 -4.04879 0
M  V30 10665 H 1045.92 -0.414796 -0.609191 0
M  V30 10666 H 1048.56 -1.5649 -1.07753 0
M  V30 10667 H 1046.71 -1.55853 -3.55868 0
M  V30 10668 H 1048.39 -3.9157 -2.43865 0
M  V30 10669 H 1046.63 -3.71849 -2.23407 0
M  V30 10670 H 1047.3 -3.95515 -3.85061 0
M  V30 10671 H 1049.78 -2.04143 -3.62581 0
M  V30 10672 H 1048.65 -2.29713 -4.98521 0
M  V30 10673 H 1048.91 -0.672856 -4.3695 0
M  V30 10674 N 1047.97 1.13488 -1.09353 0
M  V30 10675 C 1048.94 2.17066 -0.735863 0
M  V30 10676 C 1049.94 1.59086 0.234181 0
M  V30 10677 O 1051.13 1.74196 0.012463 0
M  V30 10678 C 1048.26 3.40786 -0.0880975 0
M  V30 10679 H 1049.45 2.50221 -1.65316 0
M  V30 10680 H 1047 1.28304 -0.89263 0
M  V30 10681 H 1047.74 3.1322 0.840462 0
M  V30 10682 H 1047.52 3.8414 -0.786073 0
M  V30 10683 H 1049.01 4.17342 0.146775 0
M  V30 10684 N 1049.45 0.880621 1.30701 0
M  V30 10685 C 1050.36 0.348034 2.32004 0
M  V30 10686 C 1051.38 -0.547508 1.65162 0
M  V30 10687 O 1052.55 -0.441673 1.96497 0
M  V30 10688 C 1049.62 -0.432585 3.43991 0
M  V30 10689 C 1048.68 0.492189 4.26469 0
M  V30 10690 C 1047.91 -0.25127 5.33108 0
M  V30 10691 O 1048.14 -1.47795 5.5092 0
M  V30 10692 O 1047.07 0.396376 6.00593 0
M  V30 10693 H 1050.9 1.18798 2.79501 0
M  V30 10694 H 1048.48 0.64432 1.34792 0
M  V30 10695 H 1050.36 -0.874733 4.12221 0
M  V30 10696 H 1049.04 -1.2489 2.98637 0
M  V30 10697 H 1047.94 0.983058 3.60953 0
M  V30 10698 H 1049.28 1.27439 4.75416 0
M  V30 10699 N 1050.93 -1.4397 0.641131 0
M  V30 10700 C 1052.35 -1.56607 0.30762 0
M  V30 10701 C 1052.55 -1.62694 -1.18882 0
M  V30 10702 O 1051.6 -1.57541 -1.97325 0
M  V30 10703 C 1052.91 -2.83289 1.00834 0
M  V30 10704 C 1054.46 -2.97016 0.98744 0
M  V30 10705 C 1054.94 -4.26514 1.66882 0
M  V30 10706 N 1056.43 -4.33351 1.63589 0
M  V30 10707 C 1057.16 -5.32292 2.13196 0
M  V30 10708 N 1056.66 -6.37582 2.71038 0
M  V30 10709 N 1058.45 -5.23866 2.03766 0
M  V30 10710 H 1050.6 -1.38262 1.61237 0
M  V30 10711 H 1052.87 -0.663221 0.677378 0
M  V30 10712 H 1052.57 -2.84812 2.06337 0
M  V30 10713 H 1052.45 -3.73134 0.552333 0
M  V30 10714 H 1054.83 -2.95041 -0.0591395 0
M  V30 10715 H 1054.91 -2.08493 1.48203 0
M  V30 10716 H 1054.56 -4.2925 2.71491 0
M  V30 10717 H 1054.49 -5.13912 1.14898 0
M  V30 10718 H 1056.98 -3.5788 1.21368 0
M  V30 10719 H 1057.29 -7.09378 3.06597 0
M  V30 10720 H 1055.64 -6.38239 2.75093 0
M  V30 10721 H 1058.83 -4.40524 1.58291 0
M  V30 10722 H 1059 -6.00819 2.42737 0
M  V30 10723 N 1052.41 -0.382291 -1.52893 0
M  V30 10724 C 1053.82 -0.031941 -1.59568 0
M  V30 10725 C 1054.02 1.45245 -1.39664 0
M  V30 10726 O 1053.08 2.21612 -1.21013 0
M  V30 10727 C 1054.39 -0.502846 -2.96466 0
M  V30 10728 C 1055.94 -0.4585 -3.09624 0
M  V30 10729 C 1056.42 -0.905481 -4.4896 0
M  V30 10730 N 1057.91 -0.861211 -4.55124 0
M  V30 10731 C 1058.64 -1.17856 -5.61157 0
M  V30 10732 N 1058.14 -1.56603 -6.74868 0
M  V30 10733 N 1059.93 -1.10027 -5.51226 0
M  V30 10734 H 1052.08 -1.34875 -1.64081 0
M  V30 10735 H 1054.34 -0.552375 -0.770446 0
M  V30 10736 H 1054.05 -1.53931 -3.16225 0
M  V30 10737 H 1053.92 0.101777 -3.77063 0
M  V30 10738 H 1056.31 0.568868 -2.89565 0
M  V30 10739 H 1056.39 -1.09884 -2.30996 0
M  V30 10740 H 1056.04 -1.93105 -4.69759 0
M  V30 10741 H 1055.97 -0.242227 -5.26043 0
M  V30 10742 H 1058.46 -0.575988 -3.73485 0
M  V30 10743 H 1058.77 -1.792 -7.51736 0
M  V30 10744 H 1057.12 -1.60484 -6.76217 0
M  V30 10745 H 1060.31 -0.796623 -4.61272 0
M  V30 10746 H 1060.48 -1.35091 -6.33762 0
M  V30 10747 N 1053.89 1.57202 -0.111913 0
M  V30 10748 C 1055.16 1.86459 0.590972 0
M  V30 10749 C 1055.54 1.01182 1.85271 0
M  V30 10750 O 1054.89 0.0887891 2.28327 0
M  V30 10751 C 1055.1 3.37455 0.890225 0
M  V30 10752 C 1056.45 4.05895 1.24638 0
M  V30 10753 O 1057.47 3.42433 0.980713 0
M  V30 10754 O 1056.33 5.17903 1.74466 0
M  V30 10755 H 1053.43 0.771652 0.297459 0
M  V30 10756 H 1055.97 1.69072 -0.145882 0
M  V30 10757 H 1054.74 3.913 -0.00419012 0
M  V30 10758 H 1054.37 3.60248 1.68248 0
M  V30 10759 N 1055.36 -0.161842 1.56767 0
M  V30 10760 C 1056.27 -1.21996 2.00385 0
M  V30 10761 C 1057.29 -1.4789 0.916768 0
M  V30 10762 O 1058.47 -1.59852 1.22513 0
M  V30 10763 C 1055.53 -2.53695 2.36305 0
M  V30 10764 C 1054.59 -2.3558 3.58888 0
M  V30 10765 C 1053.82 -3.60998 3.93085 0
M  V30 10766 O 1054.05 -4.6657 3.28129 0
M  V30 10767 O 1052.98 -3.54544 4.86397 0
M  V30 10768 H 1056.81 -0.879701 2.9068 0
M  V30 10769 H 1054.39 -0.369437 1.4476 0
M  V30 10770 H 1056.27 -3.31366 2.60335 0
M  V30 10771 H 1054.95 -2.87281 1.49169 0
M  V30 10772 H 1053.86 -1.55908 3.40064 0
M  V30 10773 H 1055.19 -2.06915 4.46595 0
M  V30 10774 N 1056.84 -1.516 -0.430713 0
M  V30 10775 C 1058.09 -1.63829 -1.17657 0
M  V30 10776 C 1058.4 -0.363605 -1.92191 0
M  V30 10777 O 1059.61 -0.365358 -2.6903 0
M  V30 10778 C 1058.07 -2.89357 -2.14011 0
M  V30 10779 C 1057.67 -4.23854 -1.45094 0
M  V30 10780 C 1059.42 -3.10944 -2.88988 0
M  V30 10781 C 1057.32 -5.40526 -2.3997 0
M  V30 10782 H 1056.25 -0.610221 -0.442884 0
M  V30 10783 H 1058.91 -1.78073 -0.442984 0
M  V30 10784 H 1057.29 -2.68762 -2.90832 0
M  V30 10785 H 1058.46 -4.54854 -0.737853 0
M  V30 10786 H 1056.78 -4.08197 -0.822429 0
M  V30 10787 H 1059.37 -3.95286 -3.60074 0
M  V30 10788 H 1059.72 -2.24291 -3.50712 0
M  V30 10789 H 1060.25 -3.3191 -2.19272 0
M  V30 10790 H 1056.99 -6.29459 -1.82925 0
M  V30 10791 H 1056.51 -5.13893 -3.09313 0
M  V30 10792 H 1058.19 -5.72741 -3.00959 0
M  V30 10793 N 1058.32 0.686584 -1.41858 0
M  V30 10794 C 1059.57 1.44235 -1.40994 0
M  V30 10795 C 1059.88 1.95583 -0.0254979 0
M  V30 10796 O 1061.09 2.71294 0.10576 0
M  V30 10797 C 1059.54 2.6086 -2.47952 0
M  V30 10798 C 1059.15 2.16259 -3.92347 0
M  V30 10799 C 1060.9 3.38441 -2.56237 0
M  V30 10800 C 1058.8 3.29896 -4.90838 0
M  V30 10801 H 1057.73 0.54181 -0.524364 0
M  V30 10802 H 1060.38 0.744486 -1.67719 0
M  V30 10803 H 1058.77 3.32957 -2.14373 0
M  V30 10804 H 1059.94 1.51392 -4.35221 0
M  V30 10805 H 1058.25 1.51648 -3.87804 0
M  V30 10806 H 1060.85 4.23052 -3.27003 0
M  V30 10807 H 1061.19 3.84238 -1.6021 0
M  V30 10808 H 1061.73 2.73406 -2.88953 0
M  V30 10809 H 1058.47 2.89104 -5.88302 0
M  V30 10810 H 1057.99 3.93584 -4.52606 0
M  V30 10811 H 1059.67 3.95541 -5.12012 0
M  V30 10812 N 1059.8 1.27835 0.921735 0
M  V30 10813 C 1060.76 1.11108 2.00469 0
M  V30 10814 C 1061.76 0.053203 1.60712 0
M  V30 10815 O 1062.95 0.298308 1.71627 0
M  V30 10816 C 1060.08 0.694269 3.33755 0
M  V30 10817 H 1061.28 2.07279 2.16738 0
M  V30 10818 H 1058.83 1.10708 1.10333 0
M  V30 10819 H 1059.56 -0.268561 3.23186 0
M  V30 10820 H 1059.35 1.45836 3.6397 0
M  V30 10821 H 1060.84 0.59965 4.13272 0
M  V30 10822 N 1061.28 -1.12907 1.09954 0
M  V30 10823 C 1062.24 -2.16673 0.747364 0
M  V30 10824 C 1063.24 -1.59208 -0.225741 0
M  V30 10825 O 1064.43 -1.742 -0.00322482 0
M  V30 10826 C 1061.56 -3.40735 0.106169 0
M  V30 10827 H 1062.75 -2.49341 1.6664 0
M  V30 10828 H 1060.31 -1.27828 0.899421 0
M  V30 10829 H 1061.04 -3.13661 -0.82384 0
M  V30 10830 H 1060.83 -3.83717 0.806434 0
M  V30 10831 H 1062.32 -4.17414 -0.12464 0
M  V30 10832 N 1062.75 -0.88754 -1.30232 0
M  V30 10833 C 1063.69 -0.300814 -2.26209 0
M  V30 10834 C 1064.66 0.580088 -1.519 0
M  V30 10835 O 1065.85 0.529611 -1.80907 0
M  V30 10836 C 1062.98 0.572336 -3.33829 0
M  V30 10837 C 1062.02 -0.239589 -4.25827 0
M  V30 10838 S 1062.85 -1.62953 -5.10104 0
M  V30 10839 C 1064.01 -0.762979 -6.21232 0
M  V30 10840 H 1064.24 -1.11435 -2.75626 0
M  V30 10841 H 1061.78 -0.687123 -1.38268 0
M  V30 10842 H 1063.73 1.07036 -3.963 0
M  V30 10843 H 1062.4 1.35999 -2.83131 0
M  V30 10844 H 1061.59 0.426854 -5.02189 0
M  V30 10845 H 1061.19 -0.670325 -3.67944 0
M  V30 10846 H 1063.48 0.0189354 -6.77497 0
M  V30 10847 H 1064.43 -1.49829 -6.92067 0
M  V30 10848 H 1064.83 -0.322747 -5.63577 0
M  V30 10849 N 1064.23 1.43628 -0.648757 0
M  V30 10850 C 1065.2 2.29172 0.0360713 0
M  V30 10851 C 1066.2 1.41974 0.754976 0
M  V30 10852 O 1067.39 1.63654 0.5969 0
M  V30 10853 C 1064.52 3.23942 1.0618 0
M  V30 10854 H 1065.71 2.91214 -0.716544 0
M  V30 10855 H 1063.26 1.50833 -0.409759 0
M  V30 10856 H 1064 2.66786 1.8438 0
M  V30 10857 H 1063.78 3.88223 0.550016 0
M  V30 10858 H 1065.27 3.8816 1.54019 0
M  V30 10859 N 1065.71 0.390394 1.52688 0
M  V30 10860 C 1066.66 -0.444229 2.26485 0
M  V30 10861 C 1067.63 -1.05688 1.28138 0
M  V30 10862 O 1068.81 -1.0847 1.56968 0
M  V30 10863 C 1065.95 -1.56501 3.07574 0
M  V30 10864 C 1065.07 -0.975111 4.20851 0
M  V30 10865 C 1064.2 -2.06704 4.89333 0
M  V30 10866 C 1063.24 -1.45309 5.94602 0
M  V30 10867 N 1062.38 -2.48437 6.56676 0
M  V30 10868 H 1067.22 0.191535 2.97384 0
M  V30 10869 H 1064.75 0.106287 1.46716 0
M  V30 10870 H 1066.71 -2.22558 3.52879 0
M  V30 10871 H 1065.34 -2.17107 2.38881 0
M  V30 10872 H 1064.39 -0.204109 3.79852 0
M  V30 10873 H 1065.71 -0.486465 4.96422 0
M  V30 10874 H 1064.86 -2.80528 5.37949 0
M  V30 10875 H 1063.6 -2.58928 4.13289 0
M  V30 10876 H 1062.6 -0.700091 5.45324 0
M  V30 10877 H 1063.83 -0.938775 6.7258 0
M  V30 10878 H 1061.77 -2.99829 5.83471 0
M  V30 10879 H 1061.69 -2.04331 7.27863 0
M  V30 10880 H 1062.96 -3.21888 7.09935 0
M  V30 10881 N 1067.19 -1.57141 0.120249 0
M  V30 10882 C 1068.42 -1.99589 -0.545136 0
M  V30 10883 C 1068.83 -0.999951 -1.60145 0
M  V30 10884 O 1068.19 0.00698897 -1.82499 0
M  V30 10885 C 1068.24 -3.42038 -1.17014 0
M  V30 10886 O 1067.96 -4.37822 -0.156044 0
M  V30 10887 C 1069.46 -3.99625 -1.91872 0
M  V30 10888 H 1066.68 -0.655318 -0.144222 0
M  V30 10889 H 1069.23 -2.0345 0.206955 0
M  V30 10890 H 1067.38 -3.39113 -1.873 0
M  V30 10891 H 1067.79 -5.20937 -0.610317 0
M  V30 10892 H 1069.27 -5.01374 -2.30928 0
M  V30 10893 H 1069.75 -3.38836 -2.7944 0
M  V30 10894 H 1070.35 -4.061 -1.26345 0
M  V30 10895 N 1068.67 0.153526 -1.5685 0
M  V30 10896 C 1069.63 1.17362 -1.96873 0
M  V30 10897 C 1070.63 1.36219 -0.854456 0
M  V30 10898 O 1071.82 1.33322 -1.1212 0
M  V30 10899 C 1068.95 2.53523 -2.27901 0
M  V30 10900 H 1070.14 0.830432 -2.88173 0
M  V30 10901 H 1067.7 0.396633 -1.51184 0
M  V30 10902 H 1068.43 2.92824 -1.39371 0
M  V30 10903 H 1068.22 2.41198 -3.09137 0
M  V30 10904 H 1069.71 3.27006 -2.59725 0
M  V30 10905 N 1070.14 1.51827 0.422667 0
M  V30 10906 C 1071.09 1.74198 1.51406 0
M  V30 10907 C 1072.06 0.584013 1.55494 0
M  V30 10908 O 1073.25 0.820079 1.72277 0
M  V30 10909 C 1070.39 1.88627 2.88988 0
M  V30 10910 C 1069.5 3.16233 2.94314 0
M  V30 10911 C 1068.63 3.21172 4.2311 0
M  V30 10912 C 1067.67 4.43033 4.2236 0
M  V30 10913 N 1066.81 4.4544 5.42704 0
M  V30 10914 H 1071.65 2.67352 1.31632 0
M  V30 10915 H 1069.19 1.32487 0.63919 0
M  V30 10916 H 1071.15 1.94976 3.68837 0
M  V30 10917 H 1069.78 0.988673 3.07287 0
M  V30 10918 H 1068.83 3.19123 2.07039 0
M  V30 10919 H 1070.14 4.06104 2.89623 0
M  V30 10920 H 1069.29 3.26517 5.11343 0
M  V30 10921 H 1068.03 2.29216 4.30478 0
M  V30 10922 H 1067.04 4.37849 3.32518 0
M  V30 10923 H 1068.26 5.3627 4.16643 0
M  V30 10924 H 1066.21 3.56361 5.50766 0
M  V30 10925 H 1066.13 5.29138 5.39953 0
M  V30 10926 H 1067.39 4.54997 6.32928 0
M  V30 10927 N 1071.62 -0.679052 1.4222 0
M  V30 10928 C 1073.03 -1.25953 1.37815 0
M  V30 10929 C 1073.38 -1.96077 0.0693215 0
M  V30 10930 O 1072.51 -1.99765 -0.832047 0
M  V30 10931 C 1073.1 -2.29063 2.49631 0
M  V30 10932 C 1071.66 -2.82647 2.48571 0
M  V30 10933 C 1070.81 -1.56909 2.28637 0
M  V30 10934 H 1073.76 -0.472714 1.51496 0
M  V30 10935 H 1073.78 -3.10708 2.19638 0
M  V30 10936 H 1073.29 -1.77996 3.44876 0
M  V30 10937 H 1071.4 -3.37846 1.57132 0
M  V30 10938 H 1071.51 -3.31952 3.45463 0
M  V30 10939 H 1069.87 -1.83323 1.76819 0
M  V30 10940 H 1070.66 -1.07814 3.25931 0
M  V30 10941 N 1073.1 -1.28322 -0.914942 0
M  V30 10942 C 1074.33 -1.18083 -1.69529 0
M  V30 10943 C 1074.74 0.263274 -1.87359 0
M  V30 10944 O 1074.08 1.18988 -1.39955 0
M  V30 10945 C 1074.14 -1.8062 -3.10832 0
M  V30 10946 C 1073.81 -3.29861 -3.16292 0
M  V30 10947 C 1074.8 -4.26313 -2.97578 0
M  V30 10948 C 1072.49 -3.70797 -3.38843 0
M  V30 10949 C 1074.48 -5.61677 -3.01326 0
M  V30 10950 C 1072.17 -5.06287 -3.42223 0
M  V30 10951 C 1073.17 -6.01537 -3.23485 0
M  V30 10952 O 1072.86 -7.34556 -3.26624 0
M  V30 10953 H 1072.59 -0.410931 -0.53676 0
M  V30 10954 H 1075.14 -1.6994 -1.15367 0
M  V30 10955 H 1073.37 -1.23255 -3.66531 0
M  V30 10956 H 1075.06 -1.64915 -3.70888 0
M  V30 10957 H 1075.83 -3.96023 -2.79984 0
M  V30 10958 H 1071.71 -2.97124 -3.52475 0
M  V30 10959 H 1075.25 -6.36 -2.86618 0
M  V30 10960 H 1071.15 -5.36228 -3.59346 0
M  V30 10961 H 1071.92 -7.43167 -3.42994 0
M  V30 10962 N 1074.58 1.12322 -1.10551 0
M  V30 10963 C 1075.83 1.83858 -0.848674 0
M  V30 10964 C 1076.15 1.84159 0.62575 0
M  V30 10965 O 1075.41 1.28341 1.4774 0
M  V30 10966 C 1075.71 3.31177 -1.34375 0
M  V30 10967 C 1075.37 3.51046 -2.8298 0
M  V30 10968 C 1074.04 3.56177 -3.23561 0
M  V30 10969 C 1076.39 3.58061 -3.78737 0
M  V30 10970 C 1073.72 3.65868 -4.58647 0
M  V30 10971 C 1076.07 3.69283 -5.13627 0
M  V30 10972 C 1074.73 3.7267 -5.53781 0
M  V30 10973 H 1074 0.672784 -0.310552 0
M  V30 10974 H 1076.65 1.3253 -1.38232 0
M  V30 10975 H 1074.95 3.84937 -0.730144 0
M  V30 10976 H 1076.65 3.84998 -1.12148 0
M  V30 10977 H 1073.24 3.47716 -2.50582 0
M  V30 10978 H 1077.42 3.53366 -3.48491 0
M  V30 10979 H 1072.68 3.66763 -4.89178 0
M  V30 10980 H 1076.85 3.73654 -5.8767 0
M  V30 10981 H 1074.48 3.79932 -6.58449 0
M  V30 10982 N 1076.06 0.894434 1.2976 0
M  V30 10983 C 1077.3 0.516646 1.95385 0
M  V30 10984 C 1077.63 -0.939141 1.70895 0
M  V30 10985 O 1076.9 -1.66153 1.03778 0
M  V30 10986 H 1075.48 0.188072 0.722937 0
M  V30 10987 H 1078.14 1.13958 1.58113 0
M  V30 10988 H 1077.23 0.694819 3.04267 0
M  V30 10989 N 1077.53 -1.43282 0.656365 0
M  V30 10990 C 1078.81 -1.9534 0.100816 0
M  V30 10991 C 1079.19 -1.59755 -1.37992 0
M  V30 10992 O 1078.54 -0.884264 -2.10697 0
M  V30 10993 C 1078.75 -3.47237 0.35038 0
M  V30 10994 C 1080.1 -4.23822 0.257001 0
M  V30 10995 O 1081.12 -3.55073 0.283111 0
M  V30 10996 O 1079.98 -5.46192 0.183397 0
M  V30 10997 H 1077.07 -0.826963 -0.00780287 0
M  V30 10998 H 1079.62 -1.53205 0.72982 0
M  V30 10999 H 1078.39 -3.66276 1.37685 0
M  V30 11000 H 1078.02 -3.96378 -0.311539 0
M  V30 11001 N 1079.01 -0.398486 -1.52479 0
M  V30 11002 C 1080.26 0.181019 -2.0199 0
M  V30 11003 C 1080.59 1.45691 -1.28405 0
M  V30 11004 O 1079.87 1.90607 -0.387207 0
M  V30 11005 C 1080.15 0.439587 -3.57407 0
M  V30 11006 C 1080 -0.85223 -4.41653 0
M  V30 11007 C 1081.32 1.2263 -4.2267 0
M  V30 11008 H 1078.44 0.0643164 -0.734188 0
M  V30 11009 H 1081.08 -0.52986 -1.82462 0
M  V30 11010 H 1079.23 1.04516 -3.74177 0
M  V30 11011 H 1080.91 -1.48879 -4.36615 0
M  V30 11012 H 1079.15 -1.46555 -4.08294 0
M  V30 11013 H 1079.82 -0.625839 -5.48441 0
M  V30 11014 H 1082.3 0.713722 -4.09933 0
M  V30 11015 H 1081.17 1.37596 -5.31374 0
M  V30 11016 H 1081.43 2.24403 -3.80914 0
M  V30 11017 N 1080.49 1.57075 -0.12858 0
M  V30 11018 C 1081.45 2.14643 0.803813 0
M  V30 11019 C 1082.45 1.08363 1.18803 0
M  V30 11020 O 1083.64 1.34093 1.11197 0
M  V30 11021 C 1080.78 2.6945 2.08829 0
M  V30 11022 H 1081.97 2.98362 0.303347 0
M  V30 11023 H 1079.52 1.55833 0.120735 0
M  V30 11024 H 1080.26 1.89345 2.63285 0
M  V30 11025 H 1080.04 3.47187 1.82218 0
M  V30 11026 H 1081.53 3.13865 2.7546 0
M  V30 11027 N 1081.97 -0.145205 1.5693 0
M  V30 11028 C 1083.25 -0.88631 1.74367 0
M  V30 11029 C 1083.63 -1.99259 0.697081 0
M  V30 11030 O 1082.97 -2.26732 -0.28368 0
M  V30 11031 C 1083.18 -1.42712 3.18488 0
M  V30 11032 C 1084.53 -1.88982 3.80225 0
M  V30 11033 O 1085.56 -1.5245 3.21928 0
M  V30 11034 O 1084.42 -2.56361 4.8264 0
M  V30 11035 H 1081.51 -0.418979 0.713011 0
M  V30 11036 H 1084.06 -0.130991 1.69194 0
M  V30 11037 H 1082.83 -0.632165 3.8616 0
M  V30 11038 H 1082.45 -2.24589 3.28094 0
M  V30 11039 N 1083.45 -1.52049 -0.414609 0
M  V30 11040 C 1084.38 -1.69712 -1.52555 0
M  V30 11041 C 1085.36 -0.544681 -1.53206 0
M  V30 11042 O 1086.54 -0.771358 -1.71995 0
M  V30 11043 C 1083.67 -1.73145 -2.91099 0
M  V30 11044 C 1082.72 -2.94624 -3.08382 0
M  V30 11045 S 1083.55 -4.55062 -2.82274 0
M  V30 11046 C 1084.7 -4.61274 -4.23057 0
M  V30 11047 H 1084.94 -2.63675 -1.37342 0
M  V30 11048 H 1082.47 -1.42018 -0.605824 0
M  V30 11049 H 1084.43 -1.75808 -3.70947 0
M  V30 11050 H 1083.09 -0.803198 -3.03657 0
M  V30 11051 H 1082.28 -2.93492 -4.0973 0
M  V30 11052 H 1081.88 -2.8982 -2.36391 0
M  V30 11053 H 1084.18 -4.38313 -5.16612 0
M  V30 11054 H 1085.12 -5.63188 -4.29214 0
M  V30 11055 H 1085.53 -3.90361 -4.07773 0
M  V30 11056 N 1084.93 0.6715 -1.42579 0
M  V30 11057 C 1086.15 1.45972 -1.46628 0
M  V30 11058 C 1086.57 1.88636 -0.0785986 0
M  V30 11059 O 1085.93 1.58345 0.907372 0
M  V30 11060 C 1085.98 2.70668 -2.39627 0
M  V30 11061 O 1085.7 2.29793 -3.72997 0
M  V30 11062 C 1087.2 3.64201 -2.52731 0
M  V30 11063 H 1084.42 0.449044 -0.498598 0
M  V30 11064 H 1086.96 0.824811 -1.87129 0
M  V30 11065 H 1085.12 3.3034 -2.02371 0
M  V30 11066 H 1085.53 3.10341 -4.22834 0
M  V30 11067 H 1087.01 4.48412 -3.21918 0
M  V30 11068 H 1087.48 4.10323 -1.56626 0
M  V30 11069 H 1088.09 3.1042 -2.90722 0
M  V30 11070 N 1086.4 1.28806 0.908124 0
M  V30 11071 C 1087.63 1.1898 1.689 0
M  V30 11072 C 1088.04 -0.253334 1.87496 0
M  V30 11073 O 1087.38 -1.18245 1.40584 0
M  V30 11074 C 1087.45 1.82266 3.0987 0
M  V30 11075 C 1087.11 3.31534 3.14538 0
M  V30 11076 C 1088.11 4.27886 2.95313 0
M  V30 11077 C 1085.79 3.72589 3.36872 0
M  V30 11078 C 1087.79 5.63267 2.98343 0
M  V30 11079 C 1085.47 5.08095 3.39534 0
M  V30 11080 C 1086.47 6.03244 3.2029 0
M  V30 11081 O 1086.16 7.36277 3.22724 0
M  V30 11082 H 1085.89 0.413772 0.534574 0
M  V30 11083 H 1088.45 1.7055 1.14464 0
M  V30 11084 H 1086.68 1.25197 3.65872 0
M  V30 11085 H 1088.36 1.6688 3.70008 0
M  V30 11086 H 1089.13 3.97502 2.77879 0
M  V30 11087 H 1085.01 2.98989 3.50894 0
M  V30 11088 H 1088.55 6.37511 2.83241 0
M  V30 11089 H 1084.45 5.38126 3.56497 0
M  V30 11090 H 1085.22 7.44976 3.39048 0
M  V30 11091 N 1087.88 -1.11734 1.11145 0
M  V30 11092 C 1088.81 -2.1976 0.789152 0
M  V30 11093 C 1089.79 -1.68382 -0.241143 0
M  V30 11094 O 1090.98 -1.93914 -0.105292 0
M  V30 11095 C 1088.11 -3.46549 0.228204 0
M  V30 11096 C 1087.06 -4.11123 1.19002 0
M  V30 11097 C 1086.39 -5.32451 0.489928 0
M  V30 11098 C 1087.69 -4.56406 2.53951 0
M  V30 11099 H 1089.38 -2.46978 1.69241 0
M  V30 11100 H 1086.93 -1.18705 0.81517 0
M  V30 11101 H 1088.88 -4.21399 -0.00945908 0
M  V30 11102 H 1087.6 -3.18782 -0.71033 0
M  V30 11103 H 1086.26 -3.38264 1.41326 0
M  V30 11104 H 1085.91 -5.00953 -0.453315 0
M  V30 11105 H 1085.61 -5.76605 1.1314 0
M  V30 11106 H 1087.14 -6.10042 0.260984 0
M  V30 11107 H 1088.55 -5.22592 2.35733 0
M  V30 11108 H 1086.95 -5.11363 3.14051 0
M  V30 11109 H 1088.02 -3.7001 3.13402 0
M  V30 11110 N 1089.36 -0.901303 -1.29284 0
M  V30 11111 C 1090.29 -0.337552 -2.26701 0
M  V30 11112 C 1091.3 0.517039 -1.54371 0
M  V30 11113 O 1092.49 0.333937 -1.75349 0
M  V30 11114 C 1089.59 0.537214 -3.34615 0
M  V30 11115 C 1088.77 -0.292017 -4.36424 0
M  V30 11116 C 1087.83 0.515837 -5.23666 0
M  V30 11117 O 1086.85 -0.0672303 -5.6916 0
M  V30 11118 N 1088.05 1.82159 -5.51179 0
M  V30 11119 H 1090.82 -1.17484 -2.75713 0
M  V30 11120 H 1088.38 -0.765957 -1.42635 0
M  V30 11121 H 1090.37 1.0841 -3.8991 0
M  V30 11122 H 1088.94 1.2752 -2.85408 0
M  V30 11123 H 1088.16 -1.02031 -3.80767 0
M  V30 11124 H 1089.45 -0.859855 -5.01482 0
M  V30 11125 H 1088.85 2.318 -5.16028 0
M  V30 11126 H 1087.4 2.31556 -6.09282 0
M  V30 11127 N 1090.84 1.42931 -0.663954 0
M  V30 11128 C 1092.08 2.02505 -0.190647 0
M  V30 11129 C 1092.44 1.51506 1.18591 0
M  V30 11130 O 1091.73 0.702962 1.78239 0
M  V30 11131 C 1091.93 3.57072 -0.153163 0
M  V30 11132 C 1091.75 4.23069 -1.52454 0
M  V30 11133 C 1090.52 4.58694 -2.11961 0
M  V30 11134 C 1092.72 4.51373 -2.46509 0
M  V30 11135 N 1090.7 5.09818 -3.41993 0
M  V30 11136 C 1092.08 5.03931 -3.61184 0
M  V30 11137 C 1094.13 4.33351 -2.45176 0
M  V30 11138 C 1092.83 5.40362 -4.74765 0
M  V30 11139 C 1094.86 4.70851 -3.57845 0
M  V30 11140 C 1094.22 5.23551 -4.71246 0
M  V30 11141 H 1090.32 0.773581 -0.114438 0
M  V30 11142 H 1092.9 1.73951 -0.874589 0
M  V30 11143 H 1091.08 3.85166 0.500156 0
M  V30 11144 H 1092.81 4.03336 0.332015 0
M  V30 11145 H 1089.56 4.44091 -1.6456 0
M  V30 11146 H 1089.99 5.39821 -4.08561 0
M  V30 11147 H 1094.63 3.91871 -1.58735 0
M  V30 11148 H 1092.35 5.8078 -5.6189 0
M  V30 11149 H 1095.93 4.58593 -3.58028 0
M  V30 11150 H 1094.81 5.52029 -5.56986 0
M  V30 11151 N 1092.32 0.406567 1.52266 0
M  V30 11152 C 1093.25 -0.411314 2.29849 0
M  V30 11153 C 1094.23 -1.04838 1.33952 0
M  V30 11154 O 1095.41 -1.05788 1.62857 0
M  V30 11155 C 1092.54 -1.52961 3.11802 0
M  V30 11156 C 1091.5 -1.01768 4.15725 0
M  V30 11157 C 1090.82 -2.22938 4.86007 0
M  V30 11158 C 1092.12 -0.073515 5.22248 0
M  V30 11159 H 1093.82 0.236054 2.98468 0
M  V30 11160 H 1091.36 0.114968 1.4354 0
M  V30 11161 H 1093.31 -2.10874 3.64843 0
M  V30 11162 H 1092.04 -2.20482 2.40947 0
M  V30 11163 H 1090.7 -0.46097 3.6369 0
M  V30 11164 H 1090.35 -2.89007 4.11684 0
M  V30 11165 H 1090.05 -1.89338 5.5626 0
M  V30 11166 H 1091.57 -2.81462 5.41859 0
M  V30 11167 H 1092.98 -0.561367 5.70545 0
M  V30 11168 H 1091.38 0.173551 5.99849 0
M  V30 11169 H 1092.45 0.872524 4.76985 0
M  V30 11170 N 1093.79 -1.57004 0.136909 0
M  V30 11171 C 1095.21 -1.58082 -0.21958 0
M  V30 11172 C 1095.41 -1.15065 -1.65415 0
M  V30 11173 O 1094.47 -0.846284 -2.37896 0
M  V30 11174 C 1095.78 -3.00685 0.0300112 0
M  V30 11175 C 1097.33 -3.12981 -0.0344899 0
M  V30 11176 C 1097.8 -4.57615 0.187639 0
M  V30 11177 N 1099.29 -4.63005 0.134219 0
M  V30 11178 C 1100.03 -5.72712 0.280743 0
M  V30 11179 N 1099.52 -6.91104 0.48443 0
M  V30 11180 N 1101.32 -5.61673 0.219055 0
M  V30 11181 H 1093.47 -1.83262 1.07372 0
M  V30 11182 H 1095.73 -0.847776 0.424241 0
M  V30 11183 H 1095.44 -3.36509 1.02247 0
M  V30 11184 H 1095.31 -3.70762 -0.693918 0
M  V30 11185 H 1097.7 -2.77004 -1.01749 0
M  V30 11186 H 1097.78 -2.45411 0.721608 0
M  V30 11187 H 1097.42 -4.94295 1.16769 0
M  V30 11188 H 1097.35 -5.23299 -0.588661 0
M  V30 11189 H 1099.84 -3.77895 -0.0189681 0
M  V30 11190 H 1100.16 -7.7057 0.586613 0
M  V30 11191 H 1098.5 -6.93047 0.520627 0
M  V30 11192 H 1101.69 -4.68061 0.0607606 0
M  V30 11193 H 1101.87 -6.47125 0.336683 0
M  V30 11194 N 1095.27 0.136881 -1.57004 0
M  V30 11195 C 1096.69 0.489856 -1.51897 0
M  V30 11196 C 1096.89 1.82833 -0.847009 0
M  V30 11197 O 1095.94 2.48952 -0.421792 0
M  V30 11198 C 1097.26 0.490831 -2.96667 0
M  V30 11199 C 1098.81 0.575639 -3.07661 0
M  V30 11200 C 1099.28 0.607178 -4.53957 0
M  V30 11201 N 1100.77 0.66912 -4.58342 0
M  V30 11202 C 1101.51 0.714675 -5.68929 0
M  V30 11203 N 1101 0.718959 -6.89059 0
M  V30 11204 N 1102.8 0.756326 -5.56988 0
M  V30 11205 H 1094.95 -0.740347 -1.99079 0
M  V30 11206 H 1097.21 -0.271116 -0.908405 0
M  V30 11207 H 1096.92 -0.424648 -3.49127 0
M  V30 11208 H 1096.79 1.32512 -3.53158 0
M  V30 11209 H 1099.18 1.48154 -2.55215 0
M  V30 11210 H 1099.26 -0.285991 -2.54196 0
M  V30 11211 H 1098.9 -0.294604 -5.07045 0
M  V30 11212 H 1098.83 1.48544 -5.05215 0
M  V30 11213 H 1101.32 0.672697 -3.71864 0
M  V30 11214 H 1101.64 0.755848 -7.69095 0
M  V30 11215 H 1099.98 0.686671 -6.91599 0
M  V30 11216 H 1103.17 0.750219 -4.62049 0
M  V30 11217 H 1103.34 0.788363 -6.43186 0
M  V30 11218 N 1096.75 1.52266 0.40654 0
M  V30 11219 C 1097.98 1.70057 1.1732 0
M  V30 11220 C 1098.39 0.41084 1.84686 0
M  V30 11221 O 1097.73 -0.623187 1.72806 0
M  V30 11222 C 1097.79 2.78197 2.27698 0
M  V30 11223 C 1097.46 4.19866 1.80447 0
M  V30 11224 C 1098.45 5.03621 1.29082 0
M  V30 11225 C 1096.14 4.66112 1.87202 0
M  V30 11226 C 1098.13 6.31694 0.850973 0
M  V30 11227 C 1095.82 5.94174 1.42829 0
M  V30 11228 C 1096.82 6.76794 0.918621 0
M  V30 11229 O 1096.51 8.02458 0.481302 0
M  V30 11230 H 1096.24 0.573137 0.358455 0
M  V30 11231 H 1098.79 1.99615 0.484064 0
M  V30 11232 H 1097.02 2.44022 2.99983 0
M  V30 11233 H 1098.71 2.84562 2.89446 0
M  V30 11234 H 1099.48 4.69083 1.23234 0
M  V30 11235 H 1095.36 4.01905 2.25816 0
M  V30 11236 H 1098.9 6.96131 0.452471 0
M  V30 11237 H 1094.8 6.2822 1.48358 0
M  V30 11238 H 1095.57 8.16266 0.604376 0
M  V30 11239 N 1098.23 -0.663929 1.42933 0
M  V30 11240 C 1099.47 -1.42603 1.44195 0
M  V30 11241 C 1099.81 -1.94101 0.0620284 0
M  V30 11242 O 1099.08 -1.71609 -0.91546 0
M  V30 11243 C 1099.37 -2.61522 2.47544 0
M  V30 11244 C 1099.22 -2.15587 3.94769 0
M  V30 11245 C 1100.54 -3.6374 2.47753 0
M  V30 11246 H 1097.66 -0.517189 0.525056 0
M  V30 11247 H 1100.3 -0.75361 1.74415 0
M  V30 11248 H 1098.45 -3.1889 2.21904 0
M  V30 11249 H 1100.12 -1.63303 4.31428 0
M  V30 11250 H 1098.36 -1.47057 4.08114 0
M  V30 11251 H 1099.03 -3.01053 4.62678 0
M  V30 11252 H 1101.51 -3.16111 2.70579 0
M  V30 11253 H 1100.39 -4.44512 3.22025 0
M  V30 11254 H 1100.65 -4.15607 1.50742 0
M  V30 11255 N 1099.71 -1.29285 -0.901281 0
M  V30 11256 C 1100.62 -1.16161 -2.03823 0
M  V30 11257 C 1101.63 -0.0852298 -1.73791 0
M  V30 11258 O 1102.81 -0.29699 -1.99198 0
M  V30 11259 C 1099.87 -0.837586 -3.3643 0
M  V30 11260 C 1098.93 -1.99764 -3.7999 0
M  V30 11261 C 1098.17 -1.68898 -5.0627 0
M  V30 11262 O 1098.39 -0.609177 -5.67138 0
M  V30 11263 O 1097.32 -2.53648 -5.45845 0
M  V30 11264 H 1101.15 -2.11635 -2.17817 0
M  V30 11265 H 1098.74 -1.08722 -1.02468 0
M  V30 11266 H 1100.62 -0.671376 -4.16017 0
M  V30 11267 H 1099.29 0.0873811 -3.23582 0
M  V30 11268 H 1098.2 -2.21908 -3.01177 0
M  V30 11269 H 1099.53 -2.90376 -3.9742 0
M  V30 11270 N 1101.18 1.11143 -1.11736 0
M  V30 11271 C 1102.11 2.19339 -0.800795 0
M  V30 11272 C 1103.1 1.68508 0.23221 0
M  V30 11273 O 1104.28 1.93967 0.0950063 0
M  V30 11274 C 1101.41 3.46424 -0.246579 0
M  V30 11275 C 1100.36 4.10487 -1.21181 0
M  V30 11276 C 1099.69 5.32183 -0.518158 0
M  V30 11277 C 1100.99 4.55052 -2.56368 0
M  V30 11278 H 1102.68 2.46077 -1.70548 0
M  V30 11279 H 1100.23 1.18271 -0.821454 0
M  V30 11280 H 1102.18 4.21398 -0.0128889 0
M  V30 11281 H 1100.91 3.19154 0.693415 0
M  V30 11282 H 1099.57 3.3751 -1.43118 0
M  V30 11283 H 1099.21 5.01187 0.426742 0
M  V30 11284 H 1098.91 5.75997 -1.16196 0
M  V30 11285 H 1100.44 6.09895 -0.293333 0
M  V30 11286 H 1101.85 5.21335 -2.38501 0
M  V30 11287 H 1100.25 5.0969 -3.16758 0
M  V30 11288 H 1101.32 3.68343 -3.1536 0
M  V30 11289 N 1102.66 0.908147 1.28804 0
M  V30 11290 C 1103.63 0.397058 2.25735 0
M  V30 11291 C 1104.63 -0.473483 1.53671 0
M  V30 11292 O 1105.82 -0.277335 1.71978 0
M  V30 11293 C 1102.95 -0.431392 3.38159 0
M  V30 11294 H 1104.14 1.25323 2.72459 0
M  V30 11295 H 1101.69 0.687041 1.4039 0
M  V30 11296 H 1102.43 -1.3072 2.96787 0
M  V30 11297 H 1102.21 0.192502 3.91627 0
M  V30 11298 H 1103.7 -0.78 4.10251 0
M  V30 11299 N 1104.14 -1.42577 0.671525 0
M  V30 11300 C 1105.39 -2.00806 0.189663 0
M  V30 11301 C 1105.7 -1.537 -1.20978 0
M  V30 11302 O 1106.91 -2.04325 -1.78784 0
M  V30 11303 C 1105.36 -3.58744 0.288227 0
M  V30 11304 C 1104.97 -4.14839 1.69152 0
M  V30 11305 C 1106.72 -4.24285 -0.13509 0
M  V30 11306 C 1104.62 -5.65131 1.74302 0
M  V30 11307 H 1103.55 -0.751004 0.067146 0
M  V30 11308 H 1106.2 -1.63338 0.83623 0
M  V30 11309 H 1104.59 -3.937 -0.426175 0
M  V30 11310 H 1105.76 -3.91349 2.43274 0
M  V30 11311 H 1104.08 -3.61738 2.0624 0
M  V30 11312 H 1106.67 -5.34573 -0.116709 0
M  V30 11313 H 1107.02 -3.99527 -1.16977 0
M  V30 11314 H 1107.55 -3.94278 0.528191 0
M  V30 11315 H 1104.29 -5.94682 2.75742 0
M  V30 11316 H 1103.81 -5.90621 1.04531 0
M  V30 11317 H 1105.49 -6.29491 1.49498 0
M  V30 11318 N 1105.62 -0.414636 -1.52048 0
M  V30 11319 C 1106.87 0.159034 -2.01473 0
M  V30 11320 C 1107.19 1.45176 -1.30188 0
M  V30 11321 O 1106.46 1.91134 -0.429469 0
M  V30 11322 H 1105.04 0.0617604 -0.744443 0
M  V30 11323 H 1107.7 -0.552141 -1.86916 0
M  V30 11324 H 1106.8 0.351217 -3.10118 0
M  V30 11325 N 1107.1 1.56929 -0.145233 0
M  V30 11326 C 1108.01 2.20238 0.808219 0
M  V30 11327 C 1109.02 1.18615 1.27304 0
M  V30 11328 O 1110.2 1.51186 1.3306 0
M  V30 11329 C 1107.26 2.81016 2.03055 0
M  V30 11330 C 1106.32 3.97759 1.61512 0
M  V30 11331 C 1105.56 4.55628 2.77918 0
M  V30 11332 O 1105.78 4.12378 3.94082 0
M  V30 11333 O 1104.71 5.45917 2.53492 0
M  V30 11334 H 1108.54 3.02221 0.299314 0
M  V30 11335 H 1106.13 1.49176 0.0817051 0
M  V30 11336 H 1108.01 3.19652 2.74592 0
M  V30 11337 H 1106.68 2.02047 2.52901 0
M  V30 11338 H 1105.59 3.63842 0.870033 0
M  V30 11339 H 1106.92 4.78242 1.16383 0
M  V30 11340 N 1108.58 -0.128553 1.57075 0
M  V30 11341 C 1109.82 -0.836355 1.83982 0
M  V30 11342 C 1110.14 -1.80862 0.728971 0
M  V30 11343 O 1109.41 -1.94326 -0.247859 0
M  V30 11344 H 1107.99 -0.31185 0.678792 0
M  V30 11345 H 1110.66 -0.118153 1.94542 0
M  V30 11346 H 1109.75 -1.38741 2.79567 0
M  V30 11347 N 1110.05 -1.5248 -0.398459 0
M  V30 11348 C 1111 -1.77211 -1.50662 0
M  V30 11349 C 1112 -0.639638 -1.5686 0
M  V30 11350 O 1113.2 -0.821917 -1.60139 0
M  V30 11351 H 1109.58 -0.56057 -0.501264 0
M  V30 11352 H 1111.55 -2.70028 -1.26993 0
M  V30 11353 C 1110.3 -1.94944 -2.8791 0
M  V30 11354 H 1109.62 -2.8151 -2.83888 0
M  V30 11355 H 1111.06 -2.16243 -3.64712 0
M  V30 11356 C 1109.52 -0.719402 -3.29129 0
M  V30 11357 O 1110.05 0.107671 -4.01556 0
M  V30 11358 N 1108.25 -0.552228 -2.85305 0
M  V30 11359 H 1107.8 -1.22638 -2.26534 0
M  V30 11360 H 1107.76 0.269447 -3.13243 0
M  V30 11361 N 1111.53 0.65634 -1.43283 0
M  V30 11362 C 1112.76 1.44906 -1.48382 0
M  V30 11363 C 1113.18 1.87823 -0.101993 0
M  V30 11364 O 1112.54 1.57178 0.903597 0
M  V30 11365 C 1112.59 2.66231 -2.43215 0
M  V30 11366 O 1111.69 3.65176 -1.91625 0
M  V30 11367 H 1111.03 0.434601 -0.502014 0
M  V30 11368 H 1113.56 0.803429 -1.88165 0
M  V30 11369 H 1113.57 3.14083 -2.60414 0
M  V30 11370 H 1112.25 2.34336 -3.43598 0
M  V30 11371 H 1110.82 3.24302 -1.84072 0
M  V30 11372 N 1113.01 1.29761 0.894412 0
M  V30 11373 C 1114.24 1.2094 1.67872 0
M  V30 11374 C 1114.65 -0.229192 1.87404 0
M  V30 11375 O 1114.01 -1.15278 1.41482 0
M  V30 11376 C 1114.06 1.92424 3.06032 0
M  V30 11377 O 1113.78 3.30665 2.87388 0
M  V30 11378 C 1115.28 1.90144 4.0045 0
M  V30 11379 H 1112.5 0.418942 0.524145 0
M  V30 11380 H 1115.05 1.71226 1.11813 0
M  V30 11381 H 1113.2 1.4596 3.58851 0
M  V30 11382 H 1113.62 3.66741 3.74969 0
M  V30 11383 H 1115.09 2.44716 4.94791 0
M  V30 11384 H 1115.57 0.878175 4.30331 0
M  V30 11385 H 1116.17 2.36375 3.53563 0
M  V30 11386 N 1114.49 -1.10549 1.12324 0
M  V30 11387 C 1115.45 -2.15039 0.793156 0
M  V30 11388 C 1116.45 -1.59651 -0.19192 0
M  V30 11389 O 1117.64 -1.74167 0.0337262 0
M  V30 11390 C 1114.77 -3.40433 0.17842 0
M  V30 11391 H 1115.97 -2.4575 1.71892 0
M  V30 11392 H 1113.52 -1.25892 0.926333 0
M  V30 11393 H 1114.25 -3.15338 -0.757122 0
M  V30 11394 H 1114.04 -3.81921 0.887645 0
M  V30 11395 H 1115.53 -4.17584 -0.0360724 0
M  V30 11396 N 1115.97 -0.914965 -1.28321 0
M  V30 11397 C 1117.24 -0.46764 -1.89928 0
M  V30 11398 C 1117.62 1.05364 -1.82925 0
M  V30 11399 O 1116.97 1.90223 -1.26599 0
M  V30 11400 C 1117.18 -0.999372 -3.34385 0
M  V30 11401 C 1118.53 -1.0522 -4.11356 0
M  V30 11402 O 1119.55 -0.9481 -3.4335 0
M  V30 11403 O 1118.41 -1.21085 -5.32917 0
M  V30 11404 H 1115.51 -0.148398 -0.813577 0
M  V30 11405 H 1118.05 -1.00583 -1.36679 0
M  V30 11406 H 1116.82 -2.04333 -3.33712 0
M  V30 11407 H 1116.45 -0.442083 -3.95135 0
M  V30 11408 N 1117.44 1.42219 -0.679077 0
M  V30 11409 C 1118.67 2.05815 -0.211649 0
M  V30 11410 C 1119.09 1.51037 1.13284 0
M  V30 11411 O 1118.44 0.651894 1.7046 0
M  V30 11412 C 1118.49 3.61218 -0.142663 0
M  V30 11413 O 1118.22 4.13965 -1.43402 0
M  V30 11414 C 1119.72 4.41934 0.347746 0
M  V30 11415 H 1116.94 0.663215 -0.101914 0
M  V30 11416 H 1119.48 1.82282 -0.927017 0
M  V30 11417 H 1117.64 3.83848 0.52342 0
M  V30 11418 H 1118.05 5.07872 -1.31021 0
M  V30 11419 H 1119.52 5.50921 0.344916 0
M  V30 11420 H 1120 4.16832 1.38377 0
M  V30 11421 H 1120.61 4.24332 -0.286751 0
M  V30 11422 N 1118.92 0.422693 1.51826 0
M  V30 11423 C 1119.88 -0.384307 2.25955 0
M  V30 11424 C 1120.88 -0.962184 1.28836 0
M  V30 11425 O 1122.07 -0.838931 1.52668 0
M  V30 11426 C 1119.21 -1.54228 3.04018 0
M  V30 11427 H 1120.4 0.265157 2.98726 0
M  V30 11428 H 1117.95 0.175515 1.55311 0
M  V30 11429 H 1118.69 -2.22822 2.35629 0
M  V30 11430 H 1118.47 -1.13425 3.75336 0
M  V30 11431 H 1119.96 -2.1128 3.60209 0
M  V30 11432 N 1120.4 -1.5685 0.153553 0
M  V30 11433 C 1121.62 -2.01135 -0.505904 0
M  V30 11434 C 1122.05 -1.03301 -1.57196 0
M  V30 11435 O 1121.41 -0.00976022 -1.81297 0
M  V30 11436 C 1121.46 -3.44129 -1.0774 0
M  V30 11437 O 1120.56 -3.49318 -2.19205 0
M  V30 11438 H 1119.9 -0.652496 -0.123062 0
M  V30 11439 H 1122.43 -2.03039 0.252216 0
M  V30 11440 H 1122.44 -3.83066 -1.40444 0
M  V30 11441 H 1121.12 -4.1484 -0.296754 0
M  V30 11442 H 1119.69 -3.22227 -1.8768 0
M  V30 11443 N 1121.88 0.120221 -1.57141 0
M  V30 11444 C 1123.12 0.829449 -1.85062 0
M  V30 11445 C 1123.46 1.79585 -0.739116 0
M  V30 11446 O 1122.73 1.92819 0.255147 0
M  V30 11447 C 1123.01 1.58042 -3.23566 0
M  V30 11448 C 1122.87 0.633706 -4.45314 0
M  V30 11449 C 1124.19 2.53688 -3.59625 0
M  V30 11450 H 1121.31 0.300086 -0.67314 0
M  V30 11451 H 1123.95 0.0937393 -1.89769 0
M  V30 11452 H 1122.1 2.20758 -3.19684 0
M  V30 11453 H 1123.77 0.0154836 -4.61297 0
M  V30 11454 H 1122.01 -0.054846 -4.33765 0
M  V30 11455 H 1122.68 1.19577 -5.38893 0
M  V30 11456 H 1125.16 2.01078 -3.6429 0
M  V30 11457 H 1124.04 3.03265 -4.57516 0
M  V30 11458 H 1124.3 3.36296 -2.8698 0
M  V30 11459 N 1123.36 1.52689 0.390367 0
M  V30 11460 C 1124.6 1.67335 1.13329 0
M  V30 11461 C 1124.93 0.415068 1.90531 0
M  V30 11462 O 1124.2 -0.570504 1.87409 0
M  V30 11463 H 1122.78 0.616821 0.421356 0
M  V30 11464 H 1125.44 1.89799 0.443 0
M  V30 11465 H 1124.53 2.52314 1.83696 0
M  V30 11466 N 1124.83 -0.648732 1.43629 0
M  V30 11467 C 1126.06 -1.44117 1.49148 0
M  V30 11468 C 1126.48 -1.87767 0.111952 0
M  V30 11469 O 1125.84 -1.57655 -0.895249 0
M  V30 11470 C 1125.89 -2.64938 2.44623 0
M  V30 11471 O 1124.99 -3.64155 1.93559 0
M  V30 11472 H 1124.34 -0.431933 0.504312 0
M  V30 11473 H 1126.87 -0.793439 1.88589 0
M  V30 11474 H 1126.88 -3.12698 2.62076 0
M  V30 11475 H 1125.55 -2.3251 3.44836 0
M  V30 11476 H 1124.13 -3.23322 1.85789 0
M  V30 11477 N 1126.31 -1.30234 -0.887518 0
M  V30 11478 C 1127.72 -1.17048 -1.45453 0
M  V30 11479 C 1128.07 0.229793 -1.9485 0
M  V30 11480 O 1127.2 1.12628 -1.84781 0
M  V30 11481 C 1127.79 -2.11876 -2.64375 0
M  V30 11482 C 1126.35 -2.02676 -3.17174 0
M  V30 11483 C 1125.5 -2.02104 -1.89866 0
M  V30 11484 H 1128.45 -1.42541 -0.697694 0
M  V30 11485 H 1128.47 -1.69811 -3.40506 0
M  V30 11486 H 1127.98 -3.13781 -2.28392 0
M  V30 11487 H 1126.09 -1.03904 -3.57819 0
M  V30 11488 H 1126.2 -2.90939 -3.80646 0
M  V30 11489 H 1124.56 -1.4687 -2.0809 0
M  V30 11490 H 1125.35 -3.05735 -1.56145 0
M  V30 11491 N 1127.79 1.09952 -1.12909 0
M  V30 11492 C 1129.04 1.82467 -0.898733 0
M  V30 11493 C 1129.39 1.83788 0.569196 0
M  V30 11494 O 1128.68 1.29117 1.4156 0
M  V30 11495 C 1128.88 3.28252 -1.41369 0
M  V30 11496 C 1128.71 3.41133 -2.93015 0
M  V30 11497 C 1127.48 3.53253 -3.61304 0
M  V30 11498 C 1129.68 3.34118 -3.90986 0
M  V30 11499 N 1127.66 3.54762 -5.01016 0
M  V30 11500 C 1129.03 3.42431 -5.16857 0
M  V30 11501 C 1131.08 3.1775 -3.83327 0
M  V30 11502 C 1129.79 3.36063 -6.35967 0
M  V30 11503 C 1131.81 3.12705 -5.01966 0
M  V30 11504 C 1131.17 3.21605 -6.26697 0
M  V30 11505 H 1127.27 0.682232 -0.382208 0
M  V30 11506 H 1129.86 1.31446 -1.43631 0
M  V30 11507 H 1128.03 3.77755 -0.903097 0
M  V30 11508 H 1129.76 3.88752 -1.12489 0
M  V30 11509 H 1126.52 3.56472 -3.11809 0
M  V30 11510 H 1126.94 3.59115 -5.73904 0
M  V30 11511 H 1131.58 3.09742 -2.87784 0
M  V30 11512 H 1129.3 3.42835 -7.31772 0
M  V30 11513 H 1132.89 3.01183 -4.97775 0
M  V30 11514 H 1131.77 3.1771 -7.16959 0
M  V30 11515 N 1129.27 0.921757 1.27833 0
M  V30 11516 C 1130.2 0.433466 2.29441 0
M  V30 11517 C 1131.18 -0.503133 1.62489 0
M  V30 11518 O 1132.36 -0.409156 1.89841 0
M  V30 11519 C 1129.49 -0.320029 3.45822 0
M  V30 11520 C 1128.45 0.528178 4.24728 0
M  V30 11521 C 1127.77 -0.354132 5.33526 0
M  V30 11522 C 1129.07 1.78959 4.90684 0
M  V30 11523 H 1130.77 1.28263 2.70535 0
M  V30 11524 H 1128.31 0.618197 1.30055 0
M  V30 11525 H 1130.27 -0.672526 4.15999 0
M  V30 11526 H 1128.99 -1.20317 3.0363 0
M  V30 11527 H 1127.65 0.863302 3.5629 0
M  V30 11528 H 1127.3 -1.23605 4.87576 0
M  V30 11529 H 1127 0.209855 5.87225 0
M  V30 11530 H 1128.52 -0.702333 6.06547 0
M  V30 11531 H 1129.94 1.50552 5.53179 0
M  V30 11532 H 1128.33 2.29661 5.54415 0
M  V30 11533 H 1129.4 2.51265 4.14721 0
M  V30 11534 N 1130.75 -1.41857 0.686609 0
M  V30 11535 C 1131.71 -2.29187 0.0247022 0
M  V30 11536 C 1132.71 -1.43926 -0.717069 0
M  V30 11537 O 1133.9 -1.65179 -0.5533 0
M  V30 11538 C 1131.03 -3.26644 -0.975537 0
M  V30 11539 H 1132.22 -2.89212 0.793503 0
M  V30 11540 H 1129.78 -1.49694 0.449605 0
M  V30 11541 H 1130.51 -2.7158 -1.77242 0
M  V30 11542 H 1130.3 -3.89545 -0.446892 0
M  V30 11543 H 1131.79 -3.92107 -1.43673 0
M  V30 11544 N 1132.22 -0.430739 -1.51599 0
M  V30 11545 C 1133.5 0.197543 -1.946 0
M  V30 11546 C 1133.88 1.6069 -1.36901 0
M  V30 11547 O 1133.23 2.21697 -0.553422 0
M  V30 11548 C 1133.44 0.181976 -3.48525 0
M  V30 11549 C 1134.79 0.390783 -4.22798 0
M  V30 11550 O 1135.81 0.260384 -3.55247 0
M  V30 11551 O 1134.67 0.649701 -5.42624 0
M  V30 11552 H 1131.76 0.133524 -0.81615 0
M  V30 11553 H 1134.31 -0.488243 -1.62525 0
M  V30 11554 H 1133.08 -0.803584 -3.8296 0
M  V30 11555 H 1132.71 0.910952 -3.87024 0
M  V30 11556 N 1133.7 1.56767 -0.161869 0
M  V30 11557 C 1134.93 2.00964 0.492027 0
M  V30 11558 C 1135.35 1.04206 1.57437 0
M  V30 11559 O 1134.7 0.0413998 1.82453 0
M  V30 11560 C 1134.75 3.4502 1.07904 0
M  V30 11561 O 1134.47 4.38082 0.0399085 0
M  V30 11562 C 1135.98 4.04572 1.81209 0
M  V30 11563 H 1133.2 0.658911 0.126797 0
M  V30 11564 H 1135.74 2.0283 -0.260824 0
M  V30 11565 H 1133.89 3.43959 1.78243 0
M  V30 11566 H 1134.31 5.22372 0.471985 0
M  V30 11567 H 1135.78 5.07321 2.17554 0
M  V30 11568 H 1136.26 3.46126 2.70359 0
M  V30 11569 H 1136.87 4.09307 1.15534 0
M  V30 11570 N 1135.18 -0.111886 1.57202 0
M  V30 11571 C 1136.43 -0.8146 1.86376 0
M  V30 11572 C 1136.78 -1.77156 0.750558 0
M  V30 11573 O 1136.07 -1.89977 -0.248867 0
M  V30 11574 C 1136.27 -1.59644 3.19763 0
M  V30 11575 C 1136.1 -0.71669 4.43952 0
M  V30 11576 C 1134.87 -0.36881 5.03952 0
M  V30 11577 C 1137.07 -0.0311316 5.14291 0
M  V30 11578 N 1135.05 0.520861 6.11686 0
M  V30 11579 C 1136.42 0.71726 6.15837 0
M  V30 11580 C 1138.47 0.0445453 4.9788 0
M  V30 11581 C 1137.18 1.53423 7.02747 0
M  V30 11582 C 1139.2 0.848364 5.85283 0
M  V30 11583 C 1138.56 1.58493 6.86338 0
M  V30 11584 H 1134.66 -0.274785 0.732132 0
M  V30 11585 H 1137.25 -0.0779628 1.94544 0
M  V30 11586 H 1135.42 -2.30407 3.12678 0
M  V30 11587 H 1137.15 -2.24504 3.36719 0
M  V30 11588 H 1133.91 -0.712671 4.68207 0
M  V30 11589 H 1134.33 0.957756 6.70191 0
M  V30 11590 H 1138.97 -0.510564 4.19706 0
M  V30 11591 H 1136.69 2.10047 7.80324 0
M  V30 11592 H 1140.28 0.909372 5.74649 0
M  V30 11593 H 1139.16 2.19691 7.52798 0
M  V30 11594 N 1136.66 -1.52894 -0.382264 0
M  V30 11595 C 1138.07 -1.42295 -0.722802 0
M  V30 11596 C 1138.27 -0.548717 -1.93885 0
M  V30 11597 O 1137.33 -0.0247431 -2.52488 0
M  V30 11598 C 1138.64 -2.85246 -0.9516 0
M  V30 11599 C 1140.19 -2.94768 -1.05265 0
M  V30 11600 C 1140.67 -4.38745 -1.31404 0
M  V30 11601 N 1142.16 -4.421 -1.38211 0
M  V30 11602 C 1142.89 -5.50592 -1.60113 0
M  V30 11603 N 1142.39 -6.69158 -1.79442 0
M  V30 11604 N 1144.18 -5.38145 -1.62347 0
M  V30 11605 H 1136.33 -2.0825 0.417816 0
M  V30 11606 H 1138.6 -0.939753 0.124776 0
M  V30 11607 H 1138.3 -3.51459 -0.130088 0
M  V30 11608 H 1138.18 -3.27903 -1.86439 0
M  V30 11609 H 1140.56 -2.28718 -1.86472 0
M  V30 11610 H 1140.64 -2.55529 -0.117619 0
M  V30 11611 H 1140.29 -5.05363 -0.507038 0
M  V30 11612 H 1140.22 -4.75542 -2.26202 0
M  V30 11613 H 1142.71 -3.56644 -1.24954 0
M  V30 11614 H 1143.02 -7.47615 -1.95681 0
M  V30 11615 H 1141.37 -6.72175 -1.76653 0
M  V30 11616 H 1144.56 -4.44485 -1.46803 0
M  V30 11617 H 1144.73 -6.22764 -1.79077 0
M  V30 11618 N 1138.14 0.641106 -1.43971 0
M  V30 11619 C 1139.41 1.39897 -1.36704 0
M  V30 11620 C 1139.79 2.1109 -0.0208051 0
M  V30 11621 O 1139.14 2.05638 0.99625 0
M  V30 11622 C 1139.35 2.37366 -2.55849 0
M  V30 11623 C 1140.7 3.01 -2.99473 0
M  V30 11624 O 1141.72 2.47692 -2.55982 0
M  V30 11625 O 1140.58 3.9768 -3.74851 0
M  V30 11626 H 1137.68 0.625623 -0.540855 0
M  V30 11627 H 1140.22 0.666997 -1.56042 0
M  V30 11628 H 1139 1.8379 -3.45452 0
M  V30 11629 H 1138.62 3.17995 -2.38673 0
M  V30 11630 N 1139.62 1.30703 0.880598 0
M  V30 11631 C 1141.03 1.09129 1.1646 0
M  V30 11632 C 1141.23 -0.145131 2.00977 0
M  V30 11633 O 1140.29 -0.837502 2.38206 0
M  V30 11634 C 1141.6 2.35717 1.86703 0
M  V30 11635 C 1143.15 2.41224 1.9945 0
M  V30 11636 C 1143.62 3.67665 2.73105 0
M  V30 11637 N 1145.11 3.68498 2.80648 0
M  V30 11638 C 1145.85 4.63024 3.38225 0
M  V30 11639 N 1145.35 5.67898 3.96817 0
M  V30 11640 N 1147.14 4.50561 3.36082 0
M  V30 11641 H 1139.29 2.10019 0.317164 0
M  V30 11642 H 1141.55 0.925994 0.203072 0
M  V30 11643 H 1141.26 3.2597 1.32046 0
M  V30 11644 H 1141.13 2.447 2.87057 0
M  V30 11645 H 1143.52 1.51446 2.53275 0
M  V30 11646 H 1143.6 2.36212 0.981704 0
M  V30 11647 H 1143.24 4.57803 2.19951 0
M  V30 11648 H 1143.17 3.69939 3.7477 0
M  V30 11649 H 1145.67 2.92681 2.39053 0
M  V30 11650 H 1145.98 6.3612 4.3883 0
M  V30 11651 H 1144.32 5.71685 3.95223 0
M  V30 11652 H 1147.51 3.67811 2.89539 0
M  V30 11653 H 1147.69 5.24408 3.80657 0
M  V30 11654 N 1141.09 -1.09351 1.1349 0
M  V30 11655 C 1142.34 -1.81543 0.897123 0
M  V30 11656 C 1142.67 -1.85754 -0.576703 0
M  V30 11657 O 1141.92 -1.32213 -1.44285 0
M  V30 11658 C 1142.22 -3.27498 1.43108 0
M  V30 11659 C 1141.89 -3.4342 2.92188 0
M  V30 11660 C 1140.55 -3.47473 3.32891 0
M  V30 11661 C 1142.9 -3.47894 3.88097 0
M  V30 11662 C 1140.23 -3.5358 4.68186 0
M  V30 11663 C 1142.58 -3.55535 5.23238 0
M  V30 11664 C 1141.25 -3.57857 5.63467 0
M  V30 11665 H 1140.52 -0.664314 0.32828 0
M  V30 11666 H 1143.16 -1.28819 1.41697 0
M  V30 11667 H 1141.47 -3.82865 0.831946 0
M  V30 11668 H 1143.17 -3.8189 1.22316 0
M  V30 11669 H 1139.76 -3.4095 2.59713 0
M  V30 11670 H 1143.94 -3.44002 3.57737 0
M  V30 11671 H 1139.2 -3.53665 4.9873 0
M  V30 11672 H 1143.37 -3.57942 5.9737 0
M  V30 11673 H 1141 -3.62341 6.68291 0
M  V30 11674 N 1142.57 -0.928524 -1.27343 0
M  V30 11675 C 1143.48 -0.433901 -2.30553 0
M  V30 11676 C 1144.5 0.485832 -1.6708 0
M  V30 11677 O 1145.67 0.36844 -1.98001 0
M  V30 11678 C 1142.74 0.304617 -3.45359 0
M  V30 11679 C 1141.8 -0.650131 -4.24349 0
M  V30 11680 C 1141.03 0.0532372 -5.33673 0
M  V30 11681 O 1141.26 1.27246 -5.56026 0
M  V30 11682 O 1140.19 -0.619009 -5.98709 0
M  V30 11683 H 1144.02 -1.2909 -2.74899 0
M  V30 11684 H 1141.6 -0.693903 -1.32308 0
M  V30 11685 H 1143.48 0.721137 -4.15184 0
M  V30 11686 H 1142.16 1.13721 -3.03066 0
M  V30 11687 H 1141.06 -1.11635 -3.57055 0
M  V30 11688 H 1142.4 -1.44996 -4.70358 0
M  V30 11689 N 1144.05 1.41491 -0.694123 0
M  V30 11690 C 1144.98 2.29197 0.0112742 0
M  V30 11691 C 1145.99 1.44708 0.745877 0
M  V30 11692 O 1147.18 1.68227 0.596821 0
M  V30 11693 C 1144.28 3.22547 1.04004 0
M  V30 11694 C 1143.46 4.35787 0.375347 0
M  V30 11695 C 1142.52 5.09722 1.30652 0
M  V30 11696 O 1141.54 5.63558 0.799459 0
M  V30 11697 N 1142.74 5.1705 2.63893 0
M  V30 11698 H 1145.51 2.90377 -0.741705 0
M  V30 11699 H 1143.07 1.52628 -0.540039 0
M  V30 11700 H 1145.06 3.68878 1.66468 0
M  V30 11701 H 1143.63 2.62685 1.69456 0
M  V30 11702 H 1142.85 3.91857 -0.429145 0
M  V30 11703 H 1144.14 5.08726 -0.0869041 0
M  V30 11704 H 1143.54 4.74756 3.07609 0
M  V30 11705 H 1142.09 5.66962 3.21555 0
M  V30 11706 N 1145.53 0.438773 1.51369 0
M  V30 11707 C 1146.46 -0.417215 2.24354 0
M  V30 11708 C 1147.44 -1.02351 1.26345 0
M  V30 11709 O 1148.62 -1.06569 1.55484 0
M  V30 11710 C 1145.75 -1.58163 2.99503 0
M  V30 11711 C 1144.8 -1.09588 4.1218 0
M  V30 11712 S 1145.63 -0.0367491 5.35487 0
M  V30 11713 C 1146.78 -1.2058 6.14175 0
M  V30 11714 H 1147.02 0.202416 2.9661 0
M  V30 11715 H 1144.55 0.223306 1.52777 0
M  V30 11716 H 1146.51 -2.24917 3.43399 0
M  V30 11717 H 1145.17 -2.17268 2.26833 0
M  V30 11718 H 1144.36 -1.96667 4.64045 0
M  V30 11719 H 1143.96 -0.506564 3.70554 0
M  V30 11720 H 1146.26 -2.12387 6.43349 0
M  V30 11721 H 1147.2 -0.727087 7.04357 0
M  V30 11722 H 1147.61 -1.44501 5.45692 0
M  V30 11723 N 1147.01 -1.56678 0.170181 0
M  V30 11724 C 1147.94 -2.20916 -0.756213 0
M  V30 11725 C 1148.92 -1.16442 -1.23997 0
M  V30 11726 O 1150.1 -1.44867 -1.29333 0
M  V30 11727 C 1147.23 -2.84901 -1.98617 0
M  V30 11728 C 1146.19 -3.95403 -1.63831 0
M  V30 11729 C 1145.51 -4.46432 -2.94282 0
M  V30 11730 C 1146.81 -5.15051 -0.867195 0
M  V30 11731 H 1148.51 -2.98585 -0.220776 0
M  V30 11732 H 1146.05 -1.43619 -0.104748 0
M  V30 11733 H 1148 -3.28514 -2.63926 0
M  V30 11734 H 1146.73 -2.04598 -2.54572 0
M  V30 11735 H 1145.39 -3.52444 -1.00891 0
M  V30 11736 H 1145.04 -3.62923 -3.48276 0
M  V30 11737 H 1144.74 -5.20979 -2.71762 0
M  V30 11738 H 1146.26 -4.92731 -3.60622 0
M  V30 11739 H 1147.67 -5.55363 -1.42285 0
M  V30 11740 H 1146.07 -5.95507 -0.741065 0
M  V30 11741 H 1147.14 -4.84707 0.136693 0
M  V30 11742 N 1148.48 0.103547 -1.57259 0
M  V30 11743 C 1149.42 1.15225 -1.98131 0
M  V30 11744 C 1150.43 1.36793 -0.882692 0
M  V30 11745 O 1151.62 1.35595 -1.16088 0
M  V30 11746 C 1148.72 2.50941 -2.27776 0
M  V30 11747 C 1147.89 2.49765 -3.59077 0
M  V30 11748 C 1146.95 3.67344 -3.76756 0
M  V30 11749 O 1145.98 3.50221 -4.48702 0
M  V30 11750 N 1147.18 4.86504 -3.16692 0
M  V30 11751 H 1149.94 0.804448 -2.88702 0
M  V30 11752 H 1147.5 0.292636 -1.59233 0
M  V30 11753 H 1149.5 3.28186 -2.36804 0
M  V30 11754 H 1148.07 2.77843 -1.43255 0
M  V30 11755 H 1147.29 1.58125 -3.61096 0
M  V30 11756 H 1148.57 2.4605 -4.4535 0
M  V30 11757 H 1147.97 5.03319 -2.58236 0
M  V30 11758 H 1146.53 5.61371 -3.31218 0
M  V30 11759 N 1149.96 1.53094 0.37415 0
M  V30 11760 C 1151.38 1.42676 0.715246 0
M  V30 11761 C 1151.58 0.558992 1.93591 0
M  V30 11762 O 1150.63 0.0381328 2.52471 0
M  V30 11763 C 1151.95 2.85746 0.936459 0
M  V30 11764 C 1153.49 2.95322 1.03701 0
M  V30 11765 C 1153.97 4.39436 1.29075 0
M  V30 11766 N 1155.46 4.42826 1.35864 0
M  V30 11767 C 1156.2 5.51433 1.57191 0
M  V30 11768 N 1155.69 6.701 1.75891 0
M  V30 11769 N 1157.48 5.38998 1.59491 0
M  V30 11770 H 1149.64 2.08025 -0.428854 0
M  V30 11771 H 1151.9 0.939078 -0.129758 0
M  V30 11772 H 1151.6 3.51523 0.111448 0
M  V30 11773 H 1151.48 3.28887 1.84698 0
M  V30 11774 H 1153.87 2.29704 1.85257 0
M  V30 11775 H 1153.95 2.55588 0.104066 0
M  V30 11776 H 1153.59 5.05625 0.480231 0
M  V30 11777 H 1153.52 4.76735 2.23677 0
M  V30 11778 H 1156.01 3.57301 1.23061 0
M  V30 11779 H 1156.32 7.48643 1.91713 0
M  V30 11780 H 1154.67 6.73102 1.73086 0
M  V30 11781 H 1157.86 4.45257 1.44444 0
M  V30 11782 H 1158.03 6.23705 1.75771 0
M  V30 11783 N 1151.44 -0.633461 1.44309 0
M  V30 11784 C 1152.4 -1.72743 1.50641 0
M  V30 11785 C 1153.4 -1.56031 0.388718 0
M  V30 11786 O 1154.59 -1.61568 0.651251 0
M  V30 11787 C 1151.72 -3.11804 1.37809 0
M  V30 11788 H 1152.92 -1.68503 2.48086 0
M  V30 11789 H 1150.47 -0.846912 1.31366 0
M  V30 11790 H 1151.21 -3.2164 0.414483 0
M  V30 11791 H 1150.99 -3.2534 2.18852 0
M  V30 11792 H 1152.48 -3.91538 1.45216 0
M  V30 11793 N 1152.92 -1.31168 -0.873655 0
M  V30 11794 C 1153.83 -1.20458 -2.01313 0
M  V30 11795 C 1154.84 -0.122074 -1.73571 0
M  V30 11796 O 1156.02 -0.339176 -1.98523 0
M  V30 11797 C 1153.09 -0.90876 -3.34578 0
M  V30 11798 C 1152.15 -2.07779 -3.75668 0
M  V30 11799 C 1151.38 -1.79599 -5.02573 0
M  V30 11800 O 1151.6 -0.729338 -5.65718 0
M  V30 11801 O 1150.54 -2.65169 -5.40341 0
M  V30 11802 H 1154.36 -2.16207 -2.13279 0
M  V30 11803 H 1151.95 -1.10871 -1.00139 0
M  V30 11804 H 1153.83 -0.759469 -4.145 0
M  V30 11805 H 1152.5 0.0187249 -3.23695 0
M  V30 11806 H 1151.41 -2.28247 -2.96402 0
M  V30 11807 H 1152.74 -2.9874 -3.91172 0
M  V30 11808 N 1154.4 1.08748 -1.14068 0
M  V30 11809 C 1155.36 2.1375 -0.827266 0
M  V30 11810 C 1156.36 1.59936 0.166496 0
M  V30 11811 O 1157.55 1.74092 -0.0614305 0
M  V30 11812 C 1154.68 3.40106 -0.232557 0
M  V30 11813 H 1155.87 2.42985 -1.7578 0
M  V30 11814 H 1153.43 1.24402 -0.946244 0
M  V30 11815 H 1154.16 3.16503 0.706859 0
M  V30 11816 H 1153.95 3.8046 -0.948293 0
M  V30 11817 H 1155.44 4.17589 -0.0303662 0
M  V30 11818 N 1155.87 0.935264 1.26849 0
M  V30 11819 C 1157.29 0.636661 1.46352 0
M  V30 11820 C 1157.49 -0.811823 1.84423 0
M  V30 11821 O 1156.55 -1.58902 1.9623 0
M  V30 11822 C 1157.86 1.59301 2.55036 0
M  V30 11823 C 1159.41 1.60207 2.68892 0
M  V30 11824 C 1159.88 2.54558 3.80742 0
M  V30 11825 N 1161.37 2.52809 3.88126 0
M  V30 11826 C 1162.11 3.225 4.74111 0
M  V30 11827 N 1161.6 4.01598 5.64527 0
M  V30 11828 N 1163.4 3.11481 4.67906 0
M  V30 11829 H 1155.55 1.8716 1.00423 0
M  V30 11830 H 1157.81 0.803968 0.502334 0
M  V30 11831 H 1157.52 2.62671 2.33874 0
M  V30 11832 H 1157.39 1.34052 3.52576 0
M  V30 11833 H 1159.78 0.575649 2.89431 0
M  V30 11834 H 1159.86 1.89508 1.71815 0
M  V30 11835 H 1159.5 3.57314 3.60956 0
M  V30 11836 H 1159.43 2.22549 4.77263 0
M  V30 11837 H 1161.92 1.9537 3.2348 0
M  V30 11838 H 1162.24 4.51742 6.27016 0
M  V30 11839 H 1160.58 4.057 5.64298 0
M  V30 11840 H 1163.77 2.49175 3.9627 0
M  V30 11841 H 1163.95 3.66064 5.34697 0
M  V30 11842 N 1157.35 -1.41121 0.701616 0
M  V30 11843 C 1158.28 -2.33436 0.0545974 0
M  V30 11844 C 1159.26 -1.52144 -0.760662 0
M  V30 11845 O 1160.45 -1.80661 -0.712414 0
M  V30 11846 C 1157.58 -3.36015 -0.878117 0
M  V30 11847 C 1156.53 -4.27664 -0.169511 0
M  V30 11848 C 1155.86 -5.20666 -1.21699 0
M  V30 11849 C 1157.16 -5.13254 0.967859 0
M  V30 11850 H 1158.85 -2.87791 0.825637 0
M  V30 11851 H 1156.4 -1.38377 0.398484 0
M  V30 11852 H 1158.35 -3.99526 -1.34004 0
M  V30 11853 H 1157.08 -2.80024 -1.68089 0
M  V30 11854 H 1155.73 -3.65586 0.272441 0
M  V30 11855 H 1155.38 -4.60987 -2.01246 0
M  V30 11856 H 1155.08 -5.82822 -0.747836 0
M  V30 11857 H 1156.61 -5.87053 -1.6793 0
M  V30 11858 H 1158.02 -5.70298 0.585944 0
M  V30 11859 H 1156.42 -5.84381 1.3645 0
M  V30 11860 H 1157.49 -4.5006 1.80483 0
M  V30 11861 N 1158.83 -0.446794 -1.51134 0
M  V30 11862 C 1159.78 0.378002 -2.24845 0
M  V30 11863 C 1160.76 0.982126 -1.27448 0
M  V30 11864 O 1161.96 0.8987 -1.52487 0
M  V30 11865 C 1159.09 1.4733 -3.10079 0
M  V30 11866 C 1158.17 0.878102 -4.1491 0
M  V30 11867 N 1158.56 0.0129452 -5.05798 0
M  V30 11868 C 1156.86 1.14468 -4.3106 0
M  V30 11869 C 1157.56 -0.322333 -5.80806 0
M  V30 11870 N 1156.54 0.296438 -5.42791 0
M  V30 11871 H 1160.34 -0.28885 -2.92477 0
M  V30 11872 H 1157.85 -0.259439 -1.60314 0
M  V30 11873 H 1159.85 2.07713 -3.6147 0
M  V30 11874 H 1158.51 2.14239 -2.43992 0
M  V30 11875 H 1159.52 -0.354177 -5.16688 0
M  V30 11876 H 1156.2 1.81056 -3.76198 0
M  V30 11877 H 1157.59 -1.02693 -6.64006 0
M  V30 11878 N 1160.31 1.56586 -0.178487 0
M  V30 11879 C 1161.72 1.83633 0.337009 0
M  V30 11880 C 1162.07 1.09857 1.6256 0
M  V30 11881 O 1161.2 0.353933 2.13486 0
M  V30 11882 C 1161.79 3.33112 0.618225 0
M  V30 11883 C 1160.35 3.60629 1.07814 0
M  V30 11884 C 1159.5 2.7705 0.117825 0
M  V30 11885 H 1162.45 1.53508 -0.402612 0
M  V30 11886 H 1162.47 3.5098 1.46947 0
M  V30 11887 H 1161.98 3.8678 -0.319808 0
M  V30 11888 H 1160.08 3.12378 2.03103 0
M  V30 11889 H 1160.19 4.68921 0.982339 0
M  V30 11890 H 1158.56 2.47125 0.616563 0
M  V30 11891 H 1159.34 3.33501 -0.814356 0
M  V30 11892 N 1161.79 -0.095206 1.57312 0
M  V30 11893 C 1162.72 -1.14173 1.98739 0
M  V30 11894 C 1163.73 -1.36323 0.889934 0
M  V30 11895 O 1164.92 -1.34977 1.16805 0
M  V30 11896 C 1162.02 -2.49729 2.29104 0
M  V30 11897 C 1161.19 -2.47857 3.60396 0
M  V30 11898 C 1160.25 -3.65341 3.78699 0
M  V30 11899 O 1159.28 -3.47837 4.50553 0
M  V30 11900 N 1160.48 -4.84818 3.19268 0
M  V30 11901 H 1163.25 -0.789126 2.89124 0
M  V30 11902 H 1160.81 -0.284187 1.59386 0
M  V30 11903 H 1162.8 -3.26925 2.38541 0
M  V30 11904 H 1161.37 -2.7708 1.44726 0
M  V30 11905 H 1160.59 -1.56208 3.61929 0
M  V30 11906 H 1161.88 -2.43685 4.46649 0
M  V30 11907 H 1161.27 -5.01943 2.60902 0
M  V30 11908 H 1159.83 -5.59607 3.34191 0
M  V30 11909 N 1163.26 -1.53291 -0.366026 0
M  V30 11910 C 1164.54 -1.60055 -1.12436 0
M  V30 11911 C 1164.92 -0.407811 -2.07123 0
M  V30 11912 O 1164.27 0.601977 -2.20428 0
M  V30 11913 C 1164.48 -2.95062 -1.86385 0
M  V30 11914 C 1165.83 -3.49623 -2.40934 0
M  V30 11915 O 1166.85 -2.97088 -1.96512 0
M  V30 11916 O 1165.71 -4.41461 -3.2214 0
M  V30 11917 H 1162.8 -0.646476 -0.51575 0
M  V30 11918 H 1165.35 -1.65632 -0.369326 0
M  V30 11919 H 1164.12 -3.73312 -1.17277 0
M  V30 11920 H 1163.75 -2.92973 -2.68798 0
M  V30 11921 N 1164.74 0.6258 -1.44643 0
M  V30 11922 C 1165.99 1.38525 -1.47706 0
M  V30 11923 C 1166.32 1.94179 -0.111703 0
M  V30 11924 O 1165.57 1.74432 0.887237 0
M  V30 11925 C 1165.87 2.56466 -2.48917 0
M  V30 11926 C 1165.54 2.19069 -3.94106 0
M  V30 11927 C 1164.2 2.08583 -4.33643 0
M  V30 11928 C 1166.55 1.89608 -4.85488 0
M  V30 11929 C 1163.88 1.66831 -5.6248 0
M  V30 11930 C 1166.23 1.49347 -6.14718 0
M  V30 11931 C 1164.9 1.37406 -6.53204 0
M  V30 11932 H 1164.17 0.506899 -0.540494 0
M  V30 11933 H 1166.81 0.709128 -1.77887 0
M  V30 11934 H 1165.12 3.29335 -2.12239 0
M  V30 11935 H 1166.81 3.14695 -2.48532 0
M  V30 11936 H 1163.4 2.28151 -3.62829 0
M  V30 11937 H 1167.59 1.96616 -4.55693 0
M  V30 11938 H 1162.84 1.56195 -5.91112 0
M  V30 11939 H 1167.02 1.2559 -6.84982 0
M  V30 11940 H 1164.65 1.04826 -7.52938 0
M  V30 11941 N 1166.22 1.31629 0.866686 0
M  V30 11942 C 1167.47 1.21263 1.61678 0
M  V30 11943 C 1167.79 -0.228562 1.93656 0
M  V30 11944 O 1167.06 -1.15014 1.58583 0
M  V30 11945 H 1165.64 0.445817 0.59938 0
M  V30 11946 H 1168.3 1.64998 1.03739 0
M  V30 11947 H 1167.4 1.78669 2.55898 0
M  V30 11948 N 1167.7 -1.08142 1.14644 0
M  V30 11949 C 1169.11 -1.62061 0.926986 0
M  V30 11950 C 1169.46 -1.88805 -0.533578 0
M  V30 11951 O 1168.59 -1.64753 -1.40305 0
M  V30 11952 C 1169.18 -2.94425 1.67629 0
M  V30 11953 C 1167.74 -3.45118 1.50235 0
M  V30 11954 C 1166.89 -2.19307 1.69705 0
M  V30 11955 H 1169.84 -0.913326 1.29785 0
M  V30 11956 H 1169.86 -3.62987 1.14107 0
M  V30 11957 H 1169.37 -2.74928 2.73927 0
M  V30 11958 H 1167.47 -3.69713 0.462967 0
M  V30 11959 H 1167.59 -4.2169 2.27408 0
M  V30 11960 H 1165.95 -2.28611 1.12291 0
M  V30 11961 H 1166.73 -2.02315 2.77351 0
M  V30 11962 N 1169.18 -0.941978 -1.26351 0
M  V30 11963 C 1170.43 -0.585711 -1.93009 0
M  V30 11964 C 1170.74 0.879507 -1.74711 0
M  V30 11965 O 1171.95 1.34518 -2.35833 0
M  V30 11966 C 1170.4 -0.996787 -3.45821 0
M  V30 11967 C 1170.01 -2.48367 -3.72851 0
M  V30 11968 C 1171.75 -0.712452 -4.18479 0
M  V30 11969 C 1169.66 -2.83341 -5.19107 0
M  V30 11970 H 1168.59 -0.215342 -0.722595 0
M  V30 11971 H 1171.24 -1.14472 -1.43417 0
M  V30 11972 H 1169.62 -0.366295 -3.94302 0
M  V30 11973 H 1170.8 -3.16328 -3.35072 0
M  V30 11974 H 1169.11 -2.74139 -3.13427 0
M  V30 11975 H 1171.71 -0.95007 -5.26192 0
M  V30 11976 H 1172.05 0.350811 -4.14819 0
M  V30 11977 H 1172.59 -1.3027 -3.75865 0
M  V30 11978 H 1169.32 -3.88633 -5.27868 0
M  V30 11979 H 1168.84 -2.20043 -5.5798 0
M  V30 11980 H 1170.52 -2.71849 -5.87118 0
M  V30 11981 N 1170.66 1.40747 -0.709091 0
M  V30 11982 C 1171.59 2.29196 -0.0130359 0
M  V30 11983 C 1172.6 1.45491 0.730487 0
M  V30 11984 O 1173.79 1.6885 0.578944 0
M  V30 11985 C 1170.89 3.23632 1.00577 0
M  V30 11986 C 1170.06 4.3616 0.329105 0
M  V30 11987 C 1169.12 5.11079 1.25239 0
M  V30 11988 O 1168.15 5.64374 0.739641 0
M  V30 11989 N 1169.35 5.1982 2.58394 0
M  V30 11990 H 1172.11 2.89574 -0.772462 0
M  V30 11991 H 1169.68 1.52046 -0.556197 0
M  V30 11992 H 1171.67 3.70622 1.62546 0
M  V30 11993 H 1170.24 2.64467 1.66661 0
M  V30 11994 H 1169.46 3.9138 -0.470683 0
M  V30 11995 H 1170.75 5.08605 -0.140856 0
M  V30 11996 H 1170.14 4.77992 3.02556 0
M  V30 11997 H 1168.7 5.7034 3.15524 0
M  V30 11998 N 1172.13 0.454803 1.50895 0
M  V30 11999 C 1173.36 -0.103936 2.06639 0
M  V30 12000 C 1173.78 -1.34943 1.32044 0
M  V30 12001 O 1173.13 -1.78393 0.384972 0
M  V30 12002 C 1173.18 -0.408546 3.59184 0
M  V30 12003 O 1172.91 0.787535 4.30963 0
M  V30 12004 C 1174.41 -1.01605 4.31499 0
M  V30 12005 H 1171.63 -0.000171839 0.671 0
M  V30 12006 H 1174.17 0.638907 1.94263 0
M  V30 12007 H 1172.33 -1.1013 3.71416 0
M  V30 12008 H 1172.74 0.52229 5.21893 0
M  V30 12009 H 1174.21 -1.17906 5.39261 0
M  V30 12010 H 1174.69 -2.00182 3.90927 0
M  V30 12011 H 1175.3 -0.362155 4.23755 0
M  V30 12012 N 1173.61 -1.56489 0.186789 0
M  V30 12013 C 1174.54 -2.21705 -0.732739 0
M  V30 12014 C 1175.52 -1.17751 -1.22755 0
M  V30 12015 O 1176.71 -1.46231 -1.27789 0
M  V30 12016 C 1173.84 -2.86992 -1.95584 0
M  V30 12017 C 1172.79 -3.97118 -1.59628 0
M  V30 12018 C 1172.12 -4.49529 -2.89531 0
M  V30 12019 C 1173.42 -5.15941 -0.812518 0
M  V30 12020 H 1175.11 -2.98802 -0.189094 0
M  V30 12021 H 1172.66 -1.43722 -0.0895099 0
M  V30 12022 H 1174.61 -3.31295 -2.60426 0
M  V30 12023 H 1173.33 -2.07287 -2.52388 0
M  V30 12024 H 1171.99 -3.53494 -0.971475 0
M  V30 12025 H 1171.64 -3.66596 -3.44407 0
M  V30 12026 H 1171.34 -5.23832 -2.66221 0
M  V30 12027 H 1172.87 -4.96528 -3.55376 0
M  V30 12028 H 1174.28 -5.56841 -1.36386 0
M  V30 12029 H 1172.68 -5.96259 -0.677862 0
M  V30 12030 H 1173.75 -4.84535 0.188095 0
M  V30 12031 N 1175.09 0.086862 -1.5736 0
M  V30 12032 C 1176.34 0.78884 -1.86504 0
M  V30 12033 C 1176.66 1.78329 -0.77646 0
M  V30 12034 O 1175.92 1.94354 0.229122 0
M  V30 12035 C 1176.22 1.54537 -3.22263 0
M  V30 12036 C 1175.88 0.692284 -4.45554 0
M  V30 12037 C 1174.55 0.45714 -4.79024 0
M  V30 12038 C 1176.9 0.0997695 -5.21105 0
M  V30 12039 C 1174.23 -0.380247 -5.85466 0
M  V30 12040 C 1176.58 -0.724986 -6.28432 0
M  V30 12041 C 1175.24 -0.970144 -6.60412 0
M  V30 12042 H 1174.51 0.288657 -0.682465 0
M  V30 12043 H 1177.16 0.050059 -1.91435 0
M  V30 12044 H 1175.46 2.35594 -3.13053 0
M  V30 12045 H 1177.16 2.09305 -3.42042 0
M  V30 12046 H 1173.75 0.885675 -4.19349 0
M  V30 12047 H 1177.94 0.268583 -4.95573 0
M  V30 12048 H 1173.19 -0.579084 -6.08651 0
M  V30 12049 H 1177.37 -1.19093 -6.86141 0
M  V30 12050 H 1174.99 -1.6208 -7.42721 0
M  V30 12051 N 1176.57 1.53483 0.357892 0
M  V30 12052 C 1177.8 1.73956 1.12013 0
M  V30 12053 C 1178.21 0.472053 1.82803 0
M  V30 12054 O 1177.57 -0.555499 1.7384 0
M  V30 12055 C 1177.62 2.91015 2.14459 0
M  V30 12056 O 1177.34 4.12862 1.4655 0
M  V30 12057 C 1178.84 3.23423 3.0317 0
M  V30 12058 H 1176.06 0.58161 0.334621 0
M  V30 12059 H 1178.6 2.00256 0.414467 0
M  V30 12060 H 1176.76 2.67087 2.80612 0
M  V30 12061 H 1177.17 4.78468 2.14869 0
M  V30 12062 H 1178.65 4.08717 3.71018 0
M  V30 12063 H 1179.12 2.39114 3.68404 0
M  V30 12064 H 1179.73 3.49305 2.42624 0
M  V30 12065 N 1178.05 -0.61812 1.44973 0
M  V30 12066 C 1179.32 -1.37705 1.38913 0
M  V30 12067 C 1179.7 -2.1103 0.054385 0
M  V30 12068 O 1179.05 -2.07197 -0.963409 0
M  V30 12069 C 1179.26 -2.33265 2.59593 0
M  V30 12070 C 1180.61 -2.96197 3.04224 0
M  V30 12071 O 1181.63 -2.43589 2.59891 0
M  V30 12072 O 1180.49 -3.91666 3.8113 0
M  V30 12073 H 1177.59 -0.61694 0.55074 0
M  V30 12074 H 1180.13 -0.642088 1.57084 0
M  V30 12075 H 1178.9 -1.78271 3.48332 0
M  V30 12076 H 1178.53 -3.14158 2.43702 0
M  V30 12077 N 1179.52 -1.32087 -0.859693 0
M  V30 12078 C 1180.49 -1.20546 -1.94939 0
M  V30 12079 C 1181.49 -0.12982 -1.60275 0
M  V30 12080 O 1182.68 -0.379853 -1.70008 0
M  V30 12081 C 1179.81 -0.852717 -3.30063 0
M  V30 12082 H 1181 -2.17384 -2.06602 0
M  V30 12083 H 1178.55 -1.15846 -1.04926 0
M  V30 12084 H 1179.29 0.114059 -3.24099 0
M  V30 12085 H 1179.07 -1.63035 -3.56598 0
M  V30 12086 H 1180.56 -0.796145 -4.09941 0
M  V30 12087 N 1181 1.07532 -1.15215 0
M  V30 12088 C 1182.25 1.79737 -0.924062 0
M  V30 12089 C 1182.57 1.87072 0.550356 0
M  V30 12090 O 1181.84 1.37029 1.4 0
M  V30 12091 H 1180.42 0.665704 -0.338891 0
M  V30 12092 H 1183.08 1.29961 -1.45245 0
M  V30 12093 H 1182.18 2.82256 -1.33184 0
M  V30 12094 N 1182.48 0.948665 1.2585 0
M  V30 12095 C 1183.41 0.482036 2.2847 0
M  V30 12096 C 1184.39 -0.468553 1.63519 0
M  V30 12097 O 1185.58 -0.368796 1.90666 0
M  V30 12098 C 1182.71 -0.246603 3.46423 0
M  V30 12099 C 1181.66 0.61815 4.23513 0
M  V30 12100 C 1180.99 -0.240884 5.34157 0
M  V30 12101 C 1182.29 1.89327 4.86778 0
M  V30 12102 H 1183.98 1.33973 2.67753 0
M  V30 12103 H 1181.53 0.645645 1.28715 0
M  V30 12104 H 1183.48 -0.584135 4.17332 0
M  V30 12105 H 1182.2 -1.13849 3.06114 0
M  V30 12106 H 1180.86 0.938682 3.54379 0
M  V30 12107 H 1180.51 -1.13235 4.90089 0
M  V30 12108 H 1180.21 0.334367 5.86648 0
M  V30 12109 H 1181.73 -0.573517 6.07901 0
M  V30 12110 H 1183.15 1.62252 5.49861 0
M  V30 12111 H 1181.55 2.41369 5.49419 0
M  V30 12112 H 1182.62 2.60006 4.09298 0
M  V30 12113 N 1183.96 -1.40369 0.716545 0
M  V30 12114 C 1184.89 -2.33365 0.0793533 0
M  V30 12115 C 1185.87 -1.52943 -0.744482 0
M  V30 12116 O 1187.05 -1.81406 -0.693212 0
M  V30 12117 C 1184.18 -3.36928 -0.842429 0
M  V30 12118 C 1183.14 -4.2782 -0.124142 0
M  V30 12119 C 1182.46 -5.21928 -1.1617 0
M  V30 12120 C 1183.76 -5.12199 1.02224 0
M  V30 12121 H 1185.46 -2.86899 0.856115 0
M  V30 12122 H 1183 -1.37946 0.413138 0
M  V30 12123 H 1184.96 -4.00925 -1.29759 0
M  V30 12124 H 1183.68 -2.81791 -1.6511 0
M  V30 12125 H 1182.34 -3.65277 0.311201 0
M  V30 12126 H 1181.99 -4.63096 -1.96345 0
M  V30 12127 H 1181.69 -5.83582 -0.685978 0
M  V30 12128 H 1183.21 -5.88802 -1.61694 0
M  V30 12129 H 1184.63 -5.69644 0.646399 0
M  V30 12130 H 1183.02 -5.82901 1.4264 0
M  V30 12131 H 1184.09 -4.4812 1.85246 0
M  V30 12132 N 1185.44 -0.462799 -1.50652 0
M  V30 12133 C 1186.71 0.156221 -1.94975 0
M  V30 12134 C 1187.09 1.5775 -1.40279 0
M  V30 12135 O 1186.44 2.20473 -0.600323 0
M  V30 12136 C 1186.65 0.108008 -3.48833 0
M  V30 12137 C 1188 0.301013 -4.23532 0
M  V30 12138 O 1189.02 0.184973 -3.55719 0
M  V30 12139 O 1187.88 0.534457 -5.4388 0
M  V30 12140 H 1184.98 0.116182 -0.818798 0
M  V30 12141 H 1187.52 -0.522607 -1.61453 0
M  V30 12142 H 1186.29 -0.884634 -3.81169 0
M  V30 12143 H 1185.92 0.828653 -3.88869 0
M  V30 12144 N 1186.91 1.56388 -0.195085 0
M  V30 12145 C 1187.86 2.20431 0.742484 0
M  V30 12146 C 1188.86 1.17548 1.21979 0
M  V30 12147 O 1190.06 1.35693 1.18269 0
M  V30 12148 H 1186.44 0.706435 0.257786 0
M  V30 12149 H 1188.41 2.97865 0.178624 0
M  V30 12150 C 1187.16 2.87772 1.95147 0
M  V30 12151 H 1186.48 3.66681 1.59326 0
M  V30 12152 H 1187.92 3.36021 2.58585 0
M  V30 12153 C 1186.38 1.88807 2.79022 0
M  V30 12154 O 1186.91 1.38836 3.76945 0
M  V30 12155 N 1185.12 1.57037 2.44515 0
M  V30 12156 H 1184.66 1.97868 1.64943 0
M  V30 12157 H 1184.62 0.910776 3.00919 0
M  V30 12158 N 1188.39 -0.0785156 1.57404 0
M  V30 12159 C 1189.8 -0.631132 1.75709 0
M  V30 12160 C 1190.15 -1.78261 0.819605 0
M  V30 12161 O 1189.28 -2.164 0.00206912 0
M  V30 12162 C 1189.87 -1.15168 3.18625 0
M  V30 12163 C 1188.43 -1.65021 3.38297 0
M  V30 12164 C 1187.58 -0.566773 2.71446 0
M  V30 12165 H 1190.53 0.147631 1.58012 0
M  V30 12166 H 1190.55 -2.02065 3.22413 0
M  V30 12167 H 1190.06 -0.313399 3.86833 0
M  V30 12168 H 1188.17 -2.51196 2.75194 0
M  V30 12169 H 1188.28 -1.73179 4.46706 0
M  V30 12170 H 1186.64 -1.01021 2.33809 0
M  V30 12171 H 1187.43 0.261204 3.42305 0
M  V30 12172 N 1189.87 -1.5367 -0.349747 0
M  V30 12173 C 1190.8 -1.77528 -1.4497 0
M  V30 12174 C 1191.82 -0.656412 -1.4898 0
M  V30 12175 O 1193 -0.933016 -1.52174 0
M  V30 12176 C 1190.1 -1.85445 -2.8366 0
M  V30 12177 C 1189.28 -3.15295 -3.03163 0
M  V30 12178 C 1188.34 -3.1425 -4.22059 0
M  V30 12179 O 1187.36 -3.87994 -4.16472 0
M  V30 12180 N 1188.56 -2.36181 -5.30282 0
M  V30 12181 H 1191.33 -2.72444 -1.24877 0
M  V30 12182 H 1188.89 -1.52644 -0.539586 0
M  V30 12183 H 1190.88 -1.82204 -3.61364 0
M  V30 12184 H 1189.45 -0.977436 -2.96926 0
M  V30 12185 H 1188.67 -3.31711 -2.12983 0
M  V30 12186 H 1189.96 -4.01078 -3.13072 0
M  V30 12187 H 1189.36 -1.75808 -5.37688 0
M  V30 12188 H 1187.92 -2.38744 -6.06502 0
M  V30 12189 N 1191.35 0.610423 -1.45298 0
M  V30 12190 C 1192.28 1.73507 -1.4976 0
M  V30 12191 C 1193.29 1.58092 -0.38867 0
M  V30 12192 O 1194.48 1.66026 -0.655571 0
M  V30 12193 C 1191.58 3.11475 -1.33554 0
M  V30 12194 C 1190.76 3.53156 -2.5807 0
M  V30 12195 C 1189.81 4.70076 -2.36463 0
M  V30 12196 O 1188.84 4.77337 -3.10061 0
M  V30 12197 N 1190.04 5.63155 -1.40843 0
M  V30 12198 H 1192.81 1.70144 -2.46721 0
M  V30 12199 H 1190.37 0.79562 -1.41002 0
M  V30 12200 H 1192.36 3.87444 -1.16914 0
M  V30 12201 H 1190.93 3.09361 -0.448803 0
M  V30 12202 H 1190.15 2.67178 -2.89844 0
M  V30 12203 H 1191.44 3.77761 -3.40843 0
M  V30 12204 H 1190.84 5.60001 -0.800982 0
M  V30 12205 H 1189.39 6.38669 -1.30175 0
M  V30 12206 N 1192.83 1.32541 0.852676 0
M  V30 12207 C 1193.79 1.21578 1.94297 0
M  V30 12208 C 1194.79 0.138318 1.60204 0
M  V30 12209 O 1195.98 0.388864 1.69804 0
M  V30 12210 C 1193.11 0.870209 3.29606 0
M  V30 12211 H 1194.3 2.18476 2.05446 0
M  V30 12212 H 1191.86 1.16401 1.0431 0
M  V30 12213 H 1192.59 -0.0968698 3.24155 0
M  V30 12214 H 1192.38 1.64924 3.55728 0
M  V30 12215 H 1193.87 0.817874 4.09513 0
M  V30 12216 N 1194.3 -1.0692 1.15784 0
M  V30 12217 C 1195.55 -1.78983 0.929944 0
M  V30 12218 C 1195.87 -1.87884 -0.543969 0
M  V30 12219 O 1197.07 -2.56513 -0.889578 0
M  V30 12220 C 1195.53 -3.21657 1.61446 0
M  V30 12221 C 1195.14 -3.20943 3.12569 0
M  V30 12222 C 1196.88 -3.98299 1.46828 0
M  V30 12223 C 1194.79 -4.58298 3.73788 0
M  V30 12224 H 1193.72 -0.670809 0.344284 0
M  V30 12225 H 1196.37 -1.19975 1.38846 0
M  V30 12226 H 1194.75 -3.80885 1.08364 0
M  V30 12227 H 1195.92 -2.71334 3.72444 0
M  V30 12228 H 1194.24 -2.57799 3.26999 0
M  V30 12229 H 1196.84 -4.99822 1.89952 0
M  V30 12230 H 1197.18 -4.14213 0.416358 0
M  V30 12231 H 1197.71 -3.45577 1.97031 0
M  V30 12232 H 1194.45 -4.47588 4.789 0
M  V30 12233 H 1193.97 -5.08126 3.18698 0
M  V30 12234 H 1195.65 -5.27262 3.74972 0
M  V30 12235 N 1195.78 -0.955326 -1.25345 0
M  V30 12236 C 1196.75 -0.480564 -2.24105 0
M  V30 12237 C 1197.75 0.416123 -1.55322 0
M  V30 12238 O 1198.94 0.213315 -1.72889 0
M  V30 12239 C 1196.07 0.305589 -3.39528 0
M  V30 12240 H 1197.26 -1.35349 -2.6762 0
M  V30 12241 H 1194.81 -0.738673 -1.37744 0
M  V30 12242 H 1195.55 1.19615 -3.01434 0
M  V30 12243 H 1195.33 -0.337719 -3.90643 0
M  V30 12244 H 1196.82 0.627201 -4.12863 0
M  V30 12245 N 1197.26 1.39987 -0.723979 0
M  V30 12246 C 1198.22 2.29041 -0.0854583 0
M  V30 12247 C 1199.22 1.45777 0.678657 0
M  V30 12248 O 1200.41 1.66588 0.509311 0
M  V30 12249 C 1197.55 3.29115 0.88859 0
M  V30 12250 H 1198.74 2.87006 -0.869903 0
M  V30 12251 H 1196.29 1.48449 -0.489136 0
M  V30 12252 H 1197.03 2.76184 1.69979 0
M  V30 12253 H 1196.81 3.90593 0.343454 0
M  V30 12254 H 1198.3 3.95778 1.33227 0
M  V30 12255 N 1198.74 0.470782 1.50404 0
M  V30 12256 C 1199.67 -0.313458 2.31386 0
M  V30 12257 C 1200.65 -0.990623 1.38278 0
M  V30 12258 O 1201.84 -0.987854 1.67198 0
M  V30 12259 C 1198.97 -1.39599 3.18009 0
M  V30 12260 C 1197.92 -0.840443 4.19667 0
M  V30 12261 C 1197.25 -2.02124 4.95025 0
M  V30 12262 C 1198.55 0.148055 5.2209 0
M  V30 12263 H 1200.24 0.362432 2.97198 0
M  V30 12264 H 1197.79 0.175745 1.42924 0
M  V30 12265 H 1199.74 -1.9521 3.73458 0
M  V30 12266 H 1198.46 -2.10064 2.50081 0
M  V30 12267 H 1197.12 -0.306302 3.65318 0
M  V30 12268 H 1196.77 -2.71286 4.23571 0
M  V30 12269 H 1196.47 -1.65574 5.6379 0
M  V30 12270 H 1197.99 -2.58226 5.5331 0
M  V30 12271 H 1199.41 -0.318874 5.72413 0
M  V30 12272 H 1197.8 0.427811 5.98573 0
M  V30 12273 H 1198.87 1.07404 4.72855 0
M  V30 12274 N 1200.22 -1.56282 0.203376 0
M  V30 12275 C 1201.15 -2.2247 -0.709183 0
M  V30 12276 C 1202.13 -1.19046 -1.21499 0
M  V30 12277 O 1203.31 -1.47578 -1.26231 0
M  V30 12278 C 1200.44 -2.8905 -1.92529 0
M  V30 12279 C 1199.4 -3.98789 -1.55407 0
M  V30 12280 C 1198.72 -4.52574 -2.84747 0
M  V30 12281 C 1200.02 -5.16774 -0.75775 0
M  V30 12282 H 1201.72 -2.98986 -0.157392 0
M  V30 12283 H 1199.26 -1.43808 -0.0742613 0
M  V30 12284 H 1201.22 -3.34038 -2.56898 0
M  V30 12285 H 1199.94 -2.09952 -2.50175 0
M  V30 12286 H 1198.6 -3.54504 -0.933928 0
M  V30 12287 H 1198.25 -3.70229 -3.40499 0
M  V30 12288 H 1197.95 -5.26627 -2.6065 0
M  V30 12289 H 1199.47 -5.00269 -3.5009 0
M  V30 12290 H 1200.89 -5.58256 -1.30472 0
M  V30 12291 H 1199.28 -5.96945 -0.614583 0
M  V30 12292 H 1200.35 -4.84308 0.239476 0
M  V30 12293 N 1201.7 0.070167 -1.57444 0
M  V30 12294 C 1202.66 1.06761 -2.02817 0
M  V30 12295 C 1203.66 1.31498 -0.925462 0
M  V30 12296 O 1204.85 1.27192 -1.19029 0
M  V30 12297 C 1201.98 2.41086 -2.41019 0
M  V30 12298 H 1203.17 0.67651 -2.9217 0
M  V30 12299 H 1200.73 0.315936 -1.53074 0
M  V30 12300 H 1201.46 2.85025 -1.54697 0
M  V30 12301 H 1201.25 2.24472 -3.21488 0
M  V30 12302 H 1202.74 3.12778 -2.76694 0
M  V30 12303 N 1203.17 1.53854 0.341593 0
M  V30 12304 C 1204.59 1.44161 0.684821 0
M  V30 12305 C 1204.79 0.599929 1.92362 0
M  V30 12306 O 1203.85 0.0916771 2.52334 0
M  V30 12307 C 1205.16 2.87668 0.875637 0
M  V30 12308 C 1206.71 2.97455 0.974131 0
M  V30 12309 C 1207.18 4.42075 1.19725 0
M  V30 12310 N 1208.67 4.45609 1.2644 0
M  V30 12311 C 1209.41 5.54643 1.45459 0
M  V30 12312 N 1208.9 6.7368 1.61637 0
M  V30 12313 N 1210.7 5.4226 1.48022 0
M  V30 12314 H 1202.85 2.07069 -0.472883 0
M  V30 12315 H 1205.11 0.936114 -0.149648 0
M  V30 12316 H 1204.82 3.51681 0.0368595 0
M  V30 12317 H 1204.69 3.32731 1.7768 0
M  V30 12318 H 1207.08 2.33582 1.80343 0
M  V30 12319 H 1207.16 2.55751 0.0498282 0
M  V30 12320 H 1206.8 5.06529 0.372872 0
M  V30 12321 H 1206.73 4.81372 2.13515 0
M  V30 12322 H 1209.22 3.59831 1.15455 0
M  V30 12323 H 1209.54 7.52541 1.7579 0
M  V30 12324 H 1207.88 6.76622 1.5877 0
M  V30 12325 H 1211.07 4.48221 1.34966 0
M  V30 12326 H 1211.25 6.27293 1.62502 0
M  V30 12327 N 1204.65 -0.602709 1.4562 0
M  V30 12328 C 1205.88 -1.38608 1.53203 0
M  V30 12329 C 1206.29 -1.88478 0.165098 0
M  V30 12330 O 1205.63 -1.63142 -0.844421 0
M  V30 12331 C 1205.69 -2.62214 2.45935 0
M  V30 12332 C 1205.36 -2.3395 3.92577 0
M  V30 12333 C 1206.36 -1.94011 4.82344 0
M  V30 12334 C 1204.04 -2.46711 4.37537 0
M  V30 12335 C 1206.03 -1.67202 6.15079 0
M  V30 12336 C 1203.72 -2.19515 5.70313 0
M  V30 12337 C 1204.72 -1.79823 6.58903 0
M  V30 12338 O 1204.41 -1.52948 7.89216 0
M  V30 12339 H 1204.14 -0.43052 0.52118 0
M  V30 12340 H 1206.69 -0.741655 1.91543 0
M  V30 12341 H 1204.92 -3.29394 2.02575 0
M  V30 12342 H 1206.61 -3.24264 2.44147 0
M  V30 12343 H 1207.38 -1.83684 4.48871 0
M  V30 12344 H 1203.26 -2.76572 3.68821 0
M  V30 12345 H 1206.8 -1.36146 6.84186 0
M  V30 12346 H 1202.7 -2.2946 6.03339 0
M  V30 12347 H 1203.47 -1.6696 8.01291 0
M  V30 12348 N 1206.13 -1.32992 -0.845635 0
M  V30 12349 C 1207.54 -1.21616 -1.41656 0
M  V30 12350 C 1207.89 0.167687 -1.95482 0
M  V30 12351 O 1207.02 1.06692 -1.8827 0
M  V30 12352 C 1207.61 -2.2018 -2.575 0
M  V30 12353 C 1206.17 -2.12664 -3.10565 0
M  V30 12354 C 1205.32 -2.08042 -1.83341 0
M  V30 12355 H 1208.27 -1.44688 -0.651993 0
M  V30 12356 H 1208.29 -1.80558 -3.34931 0
M  V30 12357 H 1207.8 -3.20888 -2.18294 0
M  V30 12358 H 1205.9 -1.15235 -3.54333 0
M  V30 12359 H 1206.02 -3.02902 -3.71197 0
M  V30 12360 H 1204.38 -1.53416 -2.03312 0
M  V30 12361 H 1205.16 -3.10547 -1.46339 0
M  V30 12362 N 1207.61 1.06304 -1.1635 0
M  V30 12363 C 1208.88 1.75916 -0.855166 0
M  V30 12364 C 1209.26 2.0094 0.647024 0
M  V30 12365 O 1208.61 1.63642 1.59479 0
M  V30 12366 C 1208.82 3.06028 -1.67774 0
M  V30 12367 C 1210.17 3.80184 -1.89065 0
M  V30 12368 O 1211.19 3.15868 -1.64639 0
M  V30 12369 O 1210.05 4.95723 -2.30045 0
M  V30 12370 H 1207.15 0.764432 -0.315551 0
M  V30 12371 H 1209.69 1.12574 -1.26985 0
M  V30 12372 H 1208.47 2.83498 -2.69712 0
M  V30 12373 H 1208.09 3.77104 -1.26009 0
M  V30 12374 N 1209.09 0.96196 1.24836 0
M  V30 12375 C 1210.05 0.492443 2.23847 0
M  V30 12376 C 1211.05 -0.40788 1.55541 0
M  V30 12377 O 1212.24 -0.204143 1.73 0
M  V30 12378 C 1209.37 -0.287578 3.39685 0
M  V30 12379 H 1210.56 1.36767 2.66899 0
M  V30 12380 H 1208.12 0.745967 1.3735 0
M  V30 12381 H 1208.85 -1.18015 3.02064 0
M  V30 12382 H 1208.64 0.358431 3.90458 0
M  V30 12383 H 1210.13 -0.605297 4.1319 0
M  V30 12384 N 1210.56 -1.39601 0.731392 0
M  V30 12385 C 1211.47 -2.34425 0.090527 0
M  V30 12386 C 1212.49 -1.58131 -0.725992 0
M  V30 12387 O 1213.67 -1.90441 -0.655294 0
M  V30 12388 C 1210.73 -3.37138 -0.808624 0
M  V30 12389 C 1209.79 -4.29295 0.0197365 0
M  V30 12390 C 1209.02 -5.27102 -0.836593 0
M  V30 12391 O 1209.25 -5.31302 -2.07543 0
M  V30 12392 O 1208.18 -6.01307 -0.267172 0
M  V30 12393 H 1212.01 -2.9088 0.873084 0
M  V30 12394 H 1209.59 -1.41066 0.492024 0
M  V30 12395 H 1211.47 -4.00087 -1.32319 0
M  V30 12396 H 1210.15 -2.83074 -1.57006 0
M  V30 12397 H 1209.06 -3.69581 0.579744 0
M  V30 12398 H 1210.39 -4.86555 0.743308 0
M  V30 12399 N 1212.04 -0.478751 -1.50152 0
M  V30 12400 C 1213.27 0.0710485 -2.06778 0
M  V30 12401 C 1213.69 1.32826 -1.34174 0
M  V30 12402 O 1213.04 1.77758 -0.413304 0
M  V30 12403 C 1213.09 0.351351 -3.59789 0
M  V30 12404 O 1212.81 -0.855998 -4.29656 0
M  V30 12405 C 1214.32 0.947269 -4.33061 0
M  V30 12406 H 1211.54 -0.0105032 -0.670918 0
M  V30 12407 H 1214.08 -0.669732 -1.93222 0
M  V30 12408 H 1212.23 1.04207 -3.73121 0
M  V30 12409 H 1212.65 -0.605252 -5.20996 0
M  V30 12410 H 1214.12 1.09312 -5.41068 0
M  V30 12411 H 1214.6 1.93937 -3.94062 0
M  V30 12412 H 1215.21 0.294693 -4.24278 0
M  V30 12413 N 1213.52 1.56172 -0.211661 0
M  V30 12414 C 1214.77 1.98332 0.423332 0
M  V30 12415 C 1215.1 1.09895 1.60115 0
M  V30 12416 O 1214.37 0.154477 1.93886 0
M  V30 12417 C 1214.66 3.49495 0.86747 0
M  V30 12418 C 1214.51 4.48708 -0.313302 0
M  V30 12419 C 1215.83 4.04793 1.72716 0
M  V30 12420 H 1212.95 0.72107 0.152402 0
M  V30 12421 H 1215.59 1.87521 -0.305912 0
M  V30 12422 H 1213.74 3.58839 1.48885 0
M  V30 12423 H 1215.41 4.51385 -0.951291 0
M  V30 12424 H 1213.66 4.2299 -0.96238 0
M  V30 12425 H 1214.33 5.51985 0.0402402 0
M  V30 12426 H 1216.8 3.98332 1.20296 0
M  V30 12427 H 1215.68 5.10898 2.00684 0
M  V30 12428 H 1215.94 3.51067 2.68709 0
M  V30 12429 N 1215 -0.0618163 1.57479 0
M  V30 12430 C 1215.93 -1.09931 2.01116 0
M  V30 12431 C 1216.94 -1.34405 0.91865 0
M  V30 12432 O 1218.13 -1.32469 1.19642 0
M  V30 12433 C 1215.23 -2.44814 2.34349 0
M  V30 12434 C 1214.41 -2.40157 3.65573 0
M  V30 12435 C 1213.46 -3.57226 3.86363 0
M  V30 12436 O 1212.49 -3.38202 4.5783 0
M  V30 12437 N 1213.69 -4.77937 3.2948 0
M  V30 12438 H 1216.46 -0.727621 2.90733 0
M  V30 12439 H 1214.02 -0.250315 1.59953 0
M  V30 12440 H 1216.01 -3.21792 2.45422 0
M  V30 12441 H 1214.58 -2.73947 1.50571 0
M  V30 12442 H 1213.8 -1.48496 3.65161 0
M  V30 12443 H 1215.09 -2.34156 4.51717 0
M  V30 12444 H 1214.49 -4.96296 2.7149 0
M  V30 12445 H 1213.04 -5.52392 3.45986 0
M  V30 12446 N 1216.48 -1.54033 -0.333429 0
M  V30 12447 C 1217.41 -1.85719 -1.4153 0
M  V30 12448 C 1218.39 -0.713144 -1.54429 0
M  V30 12449 O 1219.57 -0.965984 -1.68471 0
M  V30 12450 C 1216.7 -2.07578 -2.78439 0
M  V30 12451 C 1215.66 -3.23411 -2.80338 0
M  V30 12452 C 1214.98 -3.30622 -4.2023 0
M  V30 12453 C 1216.28 -4.6129 -2.44968 0
M  V30 12454 H 1217.98 -2.76325 -1.15261 0
M  V30 12455 H 1215.52 -1.32957 -0.55303 0
M  V30 12456 H 1217.48 -2.28329 -3.5418 0
M  V30 12457 H 1216.2 -1.13713 -3.06165 0
M  V30 12458 H 1214.86 -3.02531 -2.07052 0
M  V30 12459 H 1214.51 -2.34333 -4.45081 0
M  V30 12460 H 1214.21 -4.08466 -4.22409 0
M  V30 12461 H 1215.73 -3.53596 -4.97798 0
M  V30 12462 H 1217.14 -4.81987 -3.10421 0
M  V30 12463 H 1215.54 -5.41611 -2.58414 0
M  V30 12464 H 1216.61 -4.6421 -1.40134 0
M  V30 12465 N 1217.95 0.594978 -1.45938 0
M  V30 12466 C 1218.9 1.69949 -1.51991 0
M  V30 12467 C 1219.89 1.56301 -0.381956 0
M  V30 12468 O 1221.08 1.65423 -0.62961 0
M  V30 12469 C 1218.21 3.08723 -1.5015 0
M  V30 12470 C 1217.3 3.27712 -2.69194 0
M  V30 12471 N 1217.69 3.1691 -3.9421 0
M  V30 12472 C 1215.98 3.58618 -2.65158 0
M  V30 12473 C 1216.69 3.37572 -4.7373 0
M  V30 12474 N 1215.66 3.62154 -4.05395 0
M  V30 12475 H 1219.46 1.60109 -2.46459 0
M  V30 12476 H 1216.98 0.798634 -1.41406 0
M  V30 12477 H 1218.97 3.87978 -1.52573 0
M  V30 12478 H 1217.63 3.19702 -0.567488 0
M  V30 12479 H 1218.65 2.95039 -4.25643 0
M  V30 12480 H 1215.32 3.76358 -1.80724 0
M  V30 12481 H 1216.71 3.34507 -5.82713 0
M  V30 12482 N 1219.43 1.33438 0.838571 0
M  V30 12483 C 1220.84 1.22366 1.41009 0
M  V30 12484 C 1221.19 -0.157317 1.95568 0
M  V30 12485 O 1220.32 -1.05692 1.88834 0
M  V30 12486 C 1220.91 2.21542 2.56329 0
M  V30 12487 C 1219.47 2.14309 3.09433 0
M  V30 12488 C 1218.62 2.09012 1.82235 0
M  V30 12489 H 1221.57 1.45032 0.64431 0
M  V30 12490 H 1221.59 1.82332 3.33969 0
M  V30 12491 H 1221.1 3.22042 2.16589 0
M  V30 12492 H 1219.21 1.17113 3.53717 0
M  V30 12493 H 1219.32 3.04866 3.69586 0
M  V30 12494 H 1217.68 1.54492 2.02495 0
M  V30 12495 H 1218.47 3.11319 1.4469 0
M  V30 12496 N 1220.91 -1.05686 1.16912 0
M  V30 12497 C 1221.87 -2.11481 0.883647 0
M  V30 12498 C 1222.87 -1.60321 -0.124034 0
M  V30 12499 O 1224.06 -1.73868 0.107566 0
M  V30 12500 C 1221.2 -3.3937 0.322649 0
M  V30 12501 H 1222.39 -2.38239 1.8216 0
M  V30 12502 H 1219.94 -1.2185 0.978895 0
M  V30 12503 H 1220.68 -3.18266 -0.622695 0
M  V30 12504 H 1220.46 -3.77812 1.04883 0
M  V30 12505 H 1221.95 -4.17362 0.141072 0
M  V30 12506 N 1222.39 -0.968567 -1.24324 0
M  V30 12507 C 1223.67 -0.547774 -1.87773 0
M  V30 12508 C 1224.05 0.975107 -1.87229 0
M  V30 12509 O 1223.39 1.84683 -1.34553 0
M  V30 12510 C 1223.6 -1.1403 -3.29846 0
M  V30 12511 C 1224.95 -1.22572 -4.06523 0
M  V30 12512 O 1225.98 -1.09287 -3.3902 0
M  V30 12513 O 1224.83 -1.43579 -5.27302 0
M  V30 12514 H 1221.93 -0.182771 -0.806551 0
M  V30 12515 H 1224.47 -1.06289 -1.3229 0
M  V30 12516 H 1223.25 -2.18303 -3.24745 0
M  V30 12517 H 1222.87 -0.609275 -3.92904 0
M  V30 12518 N 1223.87 1.39211 -0.738786 0
M  V30 12519 C 1225.11 2.00733 -0.288817 0
M  V30 12520 C 1225.45 1.58494 1.1222 0
M  V30 12521 O 1224.72 0.815579 1.76575 0
M  V30 12522 C 1225 3.57928 -0.394956 0
M  V30 12523 C 1224.86 4.10174 -1.84601 0
M  V30 12524 C 1226.18 4.39548 0.220395 0
M  V30 12525 H 1223.29 0.729276 -0.106418 0
M  V30 12526 H 1225.94 1.65365 -0.935652 0
M  V30 12527 H 1224.09 3.88188 0.155744 0
M  V30 12528 H 1225.76 3.90618 -2.45388 0
M  V30 12529 H 1224 3.63593 -2.36607 0
M  V30 12530 H 1224.67 5.19305 -1.87152 0
M  V30 12531 H 1227.15 4.15354 -0.249098 0
M  V30 12532 H 1226.02 5.48778 0.115806 0
M  V30 12533 H 1226.29 4.22341 1.30691 0
M  V30 12534 N 1225.34 0.486708 1.49896 0
M  V30 12535 C 1226.76 0.0353906 1.86666 0
M  V30 12536 C 1227.11 -1.3743 1.40026 0
M  V30 12537 O 1226.23 -2.02163 0.77194 0
M  V30 12538 C 1226.83 0.0574475 3.38751 0
M  V30 12539 C 1225.39 -0.338464 3.74875 0
M  V30 12540 C 1224.53 0.436196 2.73848 0
M  V30 12541 H 1227.48 0.700215 1.42417 0
M  V30 12542 H 1227.5 -0.741175 3.73212 0
M  V30 12543 H 1227.02 1.08356 3.72667 0
M  V30 12544 H 1225.12 -1.36835 3.46565 0
M  V30 12545 H 1225.23 -0.0289519 4.79091 0
M  V30 12546 H 1223.59 -0.112141 2.54453 0
M  V30 12547 H 1224.38 1.46212 3.10608 0
M  V30 12548 N 1226.82 -1.56058 0.219941 0
M  V30 12549 C 1228.07 -1.9826 -0.412197 0
M  V30 12550 C 1228.4 -1.10754 -1.59887 0
M  V30 12551 O 1227.65 -0.15212 -1.95108 0
M  V30 12552 C 1227.95 -3.46113 -0.8911 0
M  V30 12553 C 1227.62 -4.50521 0.184877 0
M  V30 12554 C 1226.28 -4.78795 0.480462 0
M  V30 12555 C 1228.63 -5.13147 0.912652 0
M  V30 12556 C 1225.96 -5.66979 1.50837 0
M  V30 12557 C 1228.31 -6.02444 1.92988 0
M  V30 12558 C 1226.98 -6.29063 2.2324 0
M  V30 12559 H 1226.25 -0.725486 -0.150834 0
M  V30 12560 H 1228.89 -1.88771 0.322122 0
M  V30 12561 H 1227.2 -3.52797 -1.70415 0
M  V30 12562 H 1228.9 -3.76137 -1.39003 0
M  V30 12563 H 1225.49 -4.28564 -0.0556594 0
M  V30 12564 H 1229.67 -4.91374 0.697532 0
M  V30 12565 H 1224.93 -5.85868 1.74839 0
M  V30 12566 H 1229.1 -6.50022 2.49889 0
M  V30 12567 H 1226.73 -6.97191 3.03032 0
M  V30 12568 N 1228.3 0.053464 -1.57509 0
M  V30 12569 C 1229.55 0.749102 -1.88135 0
M  V30 12570 C 1229.88 1.76642 -0.814111 0
M  V30 12571 O 1229.13 1.94796 0.187845 0
M  V30 12572 C 1229.43 1.47666 -3.25468 0
M  V30 12573 C 1229.1 0.597619 -4.46922 0
M  V30 12574 C 1227.76 0.355429 -4.79886 0
M  V30 12575 C 1230.11 -0.0107869 -5.21199 0
M  V30 12576 C 1227.44 -0.504347 -5.84528 0
M  V30 12577 C 1229.79 -0.858123 -6.26753 0
M  V30 12578 C 1228.45 -1.11001 -6.58206 0
M  V30 12579 H 1227.72 0.274116 -0.688434 0
M  V30 12580 H 1230.37 0.00944162 -1.91498 0
M  V30 12581 H 1228.68 2.28901 -3.1798 0
M  V30 12582 H 1230.37 2.02002 -3.46404 0
M  V30 12583 H 1226.96 0.796526 -4.21134 0
M  V30 12584 H 1231.15 0.163404 -4.96031 0
M  V30 12585 H 1226.4 -0.708057 -6.07286 0
M  V30 12586 H 1230.58 -1.3362 -6.83461 0
M  V30 12587 H 1228.2 -1.77798 -7.39116 0
M  V30 12588 N 1229.78 1.54207 0.325255 0
M  V30 12589 C 1231.03 1.72587 1.06497 0
M  V30 12590 C 1231.36 0.497228 1.87727 0
M  V30 12591 O 1230.63 -0.505804 1.87808 0
M  V30 12592 C 1230.92 3.00046 1.99109 0
M  V30 12593 C 1230.77 4.33158 1.21221 0
M  V30 12594 C 1232.09 3.23251 2.98658 0
M  V30 12595 H 1229.21 0.627974 0.38577 0
M  V30 12596 H 1231.85 1.869 0.34179 0
M  V30 12597 H 1230 2.87973 2.60775 0
M  V30 12598 H 1231.67 4.57111 0.620289 0
M  V30 12599 H 1229.91 4.30739 0.514462 0
M  V30 12600 H 1230.59 5.18558 1.89214 0
M  V30 12601 H 1233.06 3.34774 2.47114 0
M  V30 12602 H 1231.94 4.13796 3.60645 0
M  V30 12603 H 1232.2 2.40401 3.71026 0
M  V30 12604 N 1231.26 -0.58723 1.46251 0
M  V30 12605 C 1232.49 -1.37174 1.5489 0
M  V30 12606 C 1232.9 -1.87857 0.188445 0
M  V30 12607 O 1232.26 -1.63365 -0.813509 0
M  V30 12608 C 1232.31 -2.56237 2.55 0
M  V30 12609 O 1232.03 -2.07655 3.8576 0
M  V30 12610 C 1233.53 -3.48846 2.73535 0
M  V30 12611 H 1230.75 -0.419211 0.523931 0
M  V30 12612 H 1233.29 -0.714307 1.91619 0
M  V30 12613 H 1231.45 -3.1798 2.21287 0
M  V30 12614 H 1231.86 -2.85161 4.40208 0
M  V30 12615 H 1233.34 -4.2888 3.47514 0
M  V30 12616 H 1233.81 -4.00493 1.80282 0
M  V30 12617 H 1234.42 -2.92942 3.08326 0
M  V30 12618 N 1232.74 -1.33881 -0.831482 0
M  V30 12619 C 1233.67 -1.27384 -1.95693 0
M  V30 12620 C 1234.65 -0.152943 -1.69411 0
M  V30 12621 O 1235.83 -0.34392 -1.9113 0
M  V30 12622 C 1232.96 -1.01982 -3.31989 0
M  V30 12623 C 1231.92 -2.10445 -3.72689 0
M  V30 12624 C 1231.24 -1.70245 -5.06873 0
M  V30 12625 C 1232.54 -3.52194 -3.8569 0
M  V30 12626 H 1234.24 -2.21549 -2.01386 0
M  V30 12627 H 1231.78 -1.06653 -0.967526 0
M  V30 12628 H 1233.73 -0.960841 -4.103 0
M  V30 12629 H 1232.46 -0.0425709 -3.26572 0
M  V30 12630 H 1231.12 -2.15398 -2.96647 0
M  V30 12631 H 1230.77 -0.712036 -4.97935 0
M  V30 12632 H 1230.47 -2.42834 -5.35075 0
M  V30 12633 H 1231.99 -1.65827 -5.87651 0
M  V30 12634 H 1233.4 -3.49701 -4.54293 0
M  V30 12635 H 1231.8 -4.23331 -4.25336 0
M  V30 12636 H 1232.87 -3.9016 -2.87929 0
M  V30 12637 N 1234.21 1.05064 -1.1747 0
M  V30 12638 C 1235.45 1.79662 -0.974724 0
M  V30 12639 C 1235.82 1.85699 0.487857 0
M  V30 12640 O 1237.02 2.56401 0.806954 0
M  V30 12641 C 1235.29 3.19597 -1.59976 0
M  V30 12642 S 1236.85 4.10657 -1.54615 0
M  V30 12643 H 1233.67 0.618746 -0.350249 0
M  V30 12644 H 1236.27 1.2605 -1.49438 0
M  V30 12645 H 1234.97 3.12807 -2.65669 0
M  V30 12646 H 1234.5 3.78286 -1.07996 0
M  V30 12647 H 1236.52 4.93086 -0.555033 0
M  V30 12648 N 1235.69 0.975146 1.23809 0
M  V30 12649 C 1236.64 0.510761 2.25077 0
M  V30 12650 C 1237.61 -0.447605 1.59955 0
M  V30 12651 O 1238.79 -0.356318 1.87443 0
M  V30 12652 C 1235.93 -0.185755 3.446 0
M  V30 12653 C 1235.05 0.812254 4.24295 0
M  V30 12654 C 1234.18 0.0910835 5.31122 0
M  V30 12655 C 1233.22 1.07866 6.02521 0
M  V30 12656 N 1232.36 0.386995 7.01033 0
M  V30 12657 H 1237.2 1.37913 2.64166 0
M  V30 12658 H 1234.73 0.691184 1.2985 0
M  V30 12659 H 1236.69 -0.606341 4.1277 0
M  V30 12660 H 1235.32 -1.01803 3.06327 0
M  V30 12661 H 1234.37 1.35125 3.55592 0
M  V30 12662 H 1235.69 1.56502 4.73612 0
M  V30 12663 H 1234.84 -0.387129 6.05464 0
M  V30 12664 H 1233.58 -0.694324 4.82732 0
M  V30 12665 H 1232.58 1.56767 5.26976 0
M  V30 12666 H 1233.81 1.86464 6.52999 0
M  V30 12667 H 1231.76 -0.3793 6.54903 0
M  V30 12668 H 1231.67 1.0785 7.48268 0
M  V30 12669 H 1232.94 -0.0690036 7.79469 0
M  V30 12670 N 1237.17 -1.38817 0.746158 0
M  V30 12671 C 1238.4 -2.0457 0.309605 0
M  V30 12672 C 1238.81 -1.5627 -1.05948 0
M  V30 12673 O 1238.17 -0.73248 -1.67156 0
M  V30 12674 C 1238.22 -3.60126 0.314843 0
M  V30 12675 O 1237.94 -4.06652 1.6299 0
M  V30 12676 C 1239.44 -4.4309 -0.136497 0
M  V30 12677 H 1236.66 -0.657597 0.133441 0
M  V30 12678 H 1239.21 -1.77651 1.01293 0
M  V30 12679 H 1237.36 -3.85908 -0.339685 0
M  V30 12680 H 1237.78 -5.01042 1.55103 0
M  V30 12681 H 1239.25 -5.5194 -0.0816714 0
M  V30 12682 H 1239.73 -4.22959 -1.18332 0
M  V30 12683 H 1240.33 -4.22481 0.488879 0
M  V30 12684 N 1238.65 -0.49465 -1.49636 0
M  V30 12685 C 1239.58 0.276606 -2.31856 0
M  V30 12686 C 1240.56 0.968499 -1.39836 0
M  V30 12687 O 1241.74 0.96113 -1.68748 0
M  V30 12688 C 1238.87 1.34522 -3.20189 0
M  V30 12689 C 1237.83 0.773571 -4.20951 0
M  V30 12690 C 1237.15 1.94223 -4.98178 0
M  V30 12691 C 1238.45 -0.231096 -5.21788 0
M  V30 12692 H 1240.15 -0.409668 -2.96584 0
M  V30 12693 H 1237.69 -0.198461 -1.42626 0
M  V30 12694 H 1239.65 1.89244 -3.76517 0
M  V30 12695 H 1238.37 2.06059 -2.53392 0
M  V30 12696 H 1237.03 0.248144 -3.65759 0
M  V30 12697 H 1236.68 2.64514 -4.27834 0
M  V30 12698 H 1236.38 1.56584 -5.66353 0
M  V30 12699 H 1237.9 2.49391 -5.57348 0
M  V30 12700 H 1239.32 0.227768 -5.72847 0
M  V30 12701 H 1237.71 -0.522984 -5.97817 0
M  V30 12702 H 1238.78 -1.14914 -4.71087 0
M  V30 12703 N 1240.13 1.55939 -0.228214 0
M  V30 12704 C 1241.37 1.98084 0.400884 0
M  V30 12705 C 1241.69 1.11727 1.59819 0
M  V30 12706 O 1240.96 0.195794 1.94919 0
M  V30 12707 H 1239.54 0.731558 0.151102 0
M  V30 12708 H 1242.21 1.92211 -0.322659 0
M  V30 12709 H 1241.3 3.03617 0.722706 0
M  V30 12710 N 1241.6 -0.0451101 1.57535 0
M  V30 12711 C 1242.55 -1.05066 2.05499 0
M  V30 12712 C 1243.52 -1.36884 0.940843 0
M  V30 12713 O 1244.71 -1.47497 1.21034 0
M  V30 12714 C 1241.85 -2.35139 2.52594 0
M  V30 12715 C 1240.96 -2.0962 3.77735 0
M  V30 12716 C 1240.09 -3.33447 4.13505 0
M  V30 12717 C 1239.13 -3.03411 5.31609 0
M  V30 12718 N 1238.27 -4.19644 5.62888 0
M  V30 12719 H 1243.11 -0.63469 2.91163 0
M  V30 12720 H 1240.65 -0.30179 1.43971 0
M  V30 12721 H 1242.61 -3.11118 2.7796 0
M  V30 12722 H 1241.24 -2.74489 1.69869 0
M  V30 12723 H 1240.29 -1.24211 3.59549 0
M  V30 12724 H 1241.6 -1.83452 4.63839 0
M  V30 12725 H 1240.75 -4.17805 4.39914 0
M  V30 12726 H 1239.49 -3.62715 3.2602 0
M  V30 12727 H 1238.5 -2.17453 5.04969 0
M  V30 12728 H 1239.72 -2.75438 6.20734 0
M  V30 12729 H 1237.67 -4.48893 4.78363 0
M  V30 12730 H 1237.59 -3.96843 6.43468 0
M  V30 12731 H 1238.85 -5.04921 5.93865 0
M  V30 12732 N 1243.08 -1.54377 -0.317073 0
M  V30 12733 C 1244.49 -1.64062 -0.891105 0
M  V30 12734 C 1244.84 -0.538863 -1.88655 0
M  V30 12735 O 1243.97 0.32718 -2.13912 0
M  V30 12736 C 1244.56 -2.97395 -1.62302 0
M  V30 12737 C 1243.12 -3.09253 -2.14568 0
M  V30 12738 C 1242.27 -2.59664 -0.973146 0
M  V30 12739 H 1245.22 -1.58418 -0.0944829 0
M  V30 12740 H 1245.24 -2.87918 -2.48764 0
M  V30 12741 H 1244.75 -3.77562 -0.898268 0
M  V30 12742 H 1242.86 -2.33774 -2.90139 0
M  V30 12743 H 1242.97 -4.15159 -2.39123 0
M  V30 12744 H 1241.33 -2.15719 -1.35416 0
M  V30 12745 H 1242.12 -3.42294 -0.262611 0
M  V30 12746 N 1244.56 0.579466 -1.4656 0
M  V30 12747 C 1245.81 1.33954 -1.52264 0
M  V30 12748 C 1246.14 1.93409 -0.175089 0
M  V30 12749 O 1245.41 1.76654 0.81385 0
M  V30 12750 C 1245.7 2.46645 -2.6237 0
M  V30 12751 C 1245.55 1.92204 -4.06667 0
M  V30 12752 C 1246.87 3.48676 -2.68538 0
M  V30 12753 H 1243.99 0.485697 -0.554317 0
M  V30 12754 H 1246.63 0.650639 -1.78512 0
M  V30 12755 H 1244.78 3.0541 -2.40119 0
M  V30 12756 H 1246.45 1.37871 -4.40215 0
M  V30 12757 H 1244.7 1.23012 -4.15993 0
M  V30 12758 H 1245.37 2.73566 -4.79443 0
M  V30 12759 H 1247.84 2.99798 -2.88549 0
M  V30 12760 H 1246.72 4.24981 -3.47394 0
M  V30 12761 H 1246.98 4.06112 -1.74716 0
M  V30 12762 N 1246.04 1.3432 0.824371 0
M  V30 12763 C 1246.99 1.2578 1.95658 0
M  V30 12764 C 1247.98 0.156199 1.68678 0
M  V30 12765 O 1249.19 0.321081 1.77113 0
M  V30 12766 H 1245.56 0.390711 0.642533 0
M  V30 12767 H 1247.53 2.21471 1.99983 0
M  V30 12768 C 1246.28 1.02865 3.32136 0
M  V30 12769 H 1245.6 1.86863 3.53443 0
M  V30 12770 H 1247.04 1.00925 4.11813 0
M  V30 12771 C 1245.5 -0.268097 3.35832 0
M  V30 12772 O 1246.03 -1.26995 3.81097 0
M  V30 12773 N 1244.24 -0.300702 2.8904 0
M  V30 12774 H 1243.79 0.51515 2.52396 0
M  V30 12775 H 1243.74 -1.16811 2.91895 0
M  V30 12776 N 1247.52 -1.0444 1.18026 0
M  V30 12777 C 1248.76 -1.77575 0.973314 0
M  V30 12778 C 1249.09 -1.88032 -0.4974 0
M  V30 12779 O 1248.35 -1.38214 -1.38548 0
M  V30 12780 C 1248.65 -3.21134 1.56869 0
M  V30 12781 C 1248.31 -3.30718 3.0649 0
M  V30 12782 C 1246.97 -3.33041 3.47328 0
M  V30 12783 C 1249.33 -3.3112 4.02503 0
M  V30 12784 C 1246.65 -3.33404 4.82762 0
M  V30 12785 C 1249.01 -3.33023 5.37846 0
M  V30 12786 C 1247.67 -3.33636 5.78138 0
M  V30 12787 H 1246.94 -0.649793 0.356161 0
M  V30 12788 H 1249.59 -1.22693 1.47033 0
M  V30 12789 H 1247.89 -3.78992 0.993584 0
M  V30 12790 H 1249.59 -3.76358 1.38404 0
M  V30 12791 H 1246.18 -3.29628 2.7394 0
M  V30 12792 H 1250.36 -3.2852 3.72006 0
M  V30 12793 H 1245.62 -3.32194 5.13281 0
M  V30 12794 H 1249.79 -3.32283 6.12014 0
M  V30 12795 H 1247.42 -3.33671 6.83058 0
M  V30 12796 N 1248.99 -0.981699 -1.2329 0
M  V30 12797 C 1250.24 -0.652266 -1.92024 0
M  V30 12798 C 1250.57 0.812297 -1.76396 0
M  V30 12799 O 1249.85 1.5861 -1.12575 0
M  V30 12800 C 1250.13 -1.04506 -3.44602 0
M  V30 12801 C 1249.98 -2.56735 -3.69333 0
M  V30 12802 C 1251.3 -0.589937 -4.36128 0
M  V30 12803 H 1248.42 -0.238437 -0.697364 0
M  V30 12804 H 1251.06 -1.22322 -1.45387 0
M  V30 12805 H 1249.21 -0.559242 -3.84454 0
M  V30 12806 H 1250.89 -3.12901 -3.38955 0
M  V30 12807 H 1249.13 -2.9931 -3.14 0
M  V30 12808 H 1249.8 -2.79269 -4.76144 0
M  V30 12809 H 1252.28 -1.00706 -4.0373 0
M  V30 12810 H 1251.15 -0.893192 -5.41584 0
M  V30 12811 H 1251.41 0.509707 -4.39152 0
M  V30 12812 N 1250.47 1.3842 -0.753509 0
M  V30 12813 C 1251.88 1.82847 -0.377331 0
M  V30 12814 C 1252.23 1.62867 1.09401 0
M  V30 12815 O 1251.36 1.12981 1.84565 0
M  V30 12816 C 1251.95 3.31945 -0.678095 0
M  V30 12817 C 1250.51 3.7472 -0.355196 0
M  V30 12818 C 1249.66 2.61193 -0.931311 0
M  V30 12819 H 1252.61 1.2715 -0.949667 0
M  V30 12820 H 1252.63 3.80475 0.0437292 0
M  V30 12821 H 1252.14 3.46455 -1.74902 0
M  V30 12822 H 1250.25 3.65789 0.70915 0
M  V30 12823 H 1250.36 4.71487 -0.850693 0
M  V30 12824 H 1248.72 2.5219 -0.356695 0
M  V30 12825 H 1249.51 2.78503 -2.00727 0
M  V30 12826 N 1251.95 0.502579 1.49372 0
M  V30 12827 C 1253.2 -0.0414423 2.02758 0
M  V30 12828 C 1253.53 -1.36499 1.38136 0
M  V30 12829 O 1252.8 -1.87487 0.517593 0
M  V30 12830 C 1253.09 -0.192333 3.59586 0
M  V30 12831 C 1252.94 1.15445 4.34733 0
M  V30 12832 C 1254.26 -0.932218 4.30114 0
M  V30 12833 H 1251.38 -0.0135869 0.736875 0
M  V30 12834 H 1254.02 0.654296 1.78379 0
M  V30 12835 H 1252.17 -0.78491 3.80488 0
M  V30 12836 H 1253.84 1.78603 4.25322 0
M  V30 12837 H 1252.09 1.74333 3.97228 0
M  V30 12838 H 1252.76 1.00216 5.42827 0
M  V30 12839 H 1255.23 -0.429632 4.13876 0
M  V30 12840 H 1254.11 -1.00664 5.39591 0
M  V30 12841 H 1254.37 -1.9763 3.95468 0
M  V30 12842 N 1253.43 -1.55816 0.23648 0
M  V30 12843 C 1254.68 -1.97862 -0.391579 0
M  V30 12844 C 1254.99 -1.1276 -1.59827 0
M  V30 12845 O 1256.2 -1.44772 -2.29681 0
M  V30 12846 C 1254.65 -3.5204 -0.748065 0
M  V30 12847 C 1254.26 -4.45867 0.436643 0
M  V30 12848 C 1256 -4.02766 -1.3409 0
M  V30 12849 C 1253.91 -5.91373 0.0568909 0
M  V30 12850 H 1252.84 -0.738913 -0.150078 0
M  V30 12851 H 1255.49 -1.80415 0.335052 0
M  V30 12852 H 1253.87 -3.65143 -1.53254 0
M  V30 12853 H 1255.05 -4.44519 1.21408 0
M  V30 12854 H 1253.36 -4.05565 0.943702 0
M  V30 12855 H 1255.96 -5.08987 -1.63817 0
M  V30 12856 H 1256.3 -3.49496 -2.26182 0
M  V30 12857 H 1256.84 -3.92946 -0.619548 0
M  V30 12858 H 1253.58 -6.48657 0.944682 0
M  V30 12859 H 1253.1 -5.95881 -0.684557 0
M  V30 12860 H 1254.77 -6.45972 -0.364586 0
M  V30 12861 N 1254.91 0.036755 -1.57557 0
M  V30 12862 C 1256.18 0.764087 -1.80059 0
M  V30 12863 C 1256.56 1.93983 -0.83269 0
M  V30 12864 O 1255.91 2.28148 0.126815 0
M  V30 12865 C 1256.12 1.20433 -3.27562 0
M  V30 12866 C 1257.47 1.6234 -3.9234 0
M  V30 12867 O 1258.49 1.29911 -3.31665 0
M  V30 12868 O 1257.35 2.22504 -4.99154 0
M  V30 12869 H 1254.45 0.368866 -0.74018 0
M  V30 12870 H 1256.99 0.0141254 -1.69694 0
M  V30 12871 H 1255.76 0.364646 -3.89597 0
M  V30 12872 H 1255.39 2.01454 -3.42786 0
M  V30 12873 N 1256.39 1.54543 0.308881 0
M  V30 12874 C 1257.32 1.81309 1.40212 0
M  V30 12875 C 1258.33 0.69568 1.47187 0
M  V30 12876 O 1259.52 0.973034 1.49647 0
M  V30 12877 C 1256.62 1.92901 2.78644 0
M  V30 12878 C 1255.79 3.23222 2.94697 0
M  V30 12879 C 1254.85 3.25329 4.13579 0
M  V30 12880 O 1253.88 3.989 4.06039 0
M  V30 12881 N 1255.08 2.50158 5.23833 0
M  V30 12882 H 1257.84 2.75659 1.1761 0
M  V30 12883 H 1255.41 1.54021 0.498925 0
M  V30 12884 H 1257.4 1.91721 3.56406 0
M  V30 12885 H 1255.97 1.05582 2.9423 0
M  V30 12886 H 1255.19 3.37241 2.04113 0
M  V30 12887 H 1256.48 4.09238 3.02328 0
M  V30 12888 H 1255.87 1.90002 5.32838 0
M  V30 12889 H 1254.43 2.5474 5.99959 0
M  V30 12890 N 1257.86 -0.571685 1.46866 0
M  V30 12891 C 1259.14 -1.33216 1.43223 0
M  V30 12892 C 1259.52 -2.1075 0.121495 0
M  V30 12893 O 1258.87 -2.10157 -0.897003 0
M  V30 12894 C 1259.08 -2.24888 2.66882 0
M  V30 12895 C 1260.43 -2.86369 3.13493 0
M  V30 12896 O 1261.45 -2.35197 2.67509 0
M  V30 12897 O 1260.31 -3.79342 3.93398 0
M  V30 12898 H 1257.4 -0.599106 0.570089 0
M  V30 12899 H 1259.95 -0.591788 1.59047 0
M  V30 12900 H 1258.72 -1.67099 3.53827 0
M  V30 12901 H 1258.34 -3.06246 2.53573 0
M  V30 12902 N 1259.34 -1.34755 -0.817236 0
M  V30 12903 C 1260.59 -1.2762 -1.5761 0
M  V30 12904 C 1260.92 0.152017 -1.93604 0
M  V30 12905 O 1260.2 1.09881 -1.60488 0
M  V30 12906 C 1260.48 -2.17251 -2.87183 0
M  V30 12907 C 1260.33 -3.68638 -2.57733 0
M  V30 12908 C 1261.65 -2.06206 -3.88802 0
M  V30 12909 H 1258.77 -0.464933 -0.571845 0
M  V30 12910 H 1261.41 -1.6506 -0.941028 0
M  V30 12911 H 1259.56 -1.85452 -3.41379 0
M  V30 12912 H 1261.23 -4.10829 -2.09802 0
M  V30 12913 H 1259.48 -3.89445 -1.91089 0
M  V30 12914 H 1260.15 -4.26726 -3.50156 0
M  V30 12915 H 1262.62 -2.34137 -3.43975 0
M  V30 12916 H 1261.5 -2.71136 -4.77259 0
M  V30 12917 H 1261.76 -1.04075 -4.29675 0
M  V30 12918 N 1260.82 1.03812 -1.18578 0
M  V30 12919 C 1262.24 1.29271 -0.936011 0
M  V30 12920 C 1262.44 1.97551 0.396965 0
M  V30 12921 O 1261.49 2.25769 1.13069 0
M  V30 12922 C 1262.8 2.1489 -2.1034 0
M  V30 12923 C 1264.35 2.28228 -2.14198 0
M  V30 12924 C 1264.83 3.17214 -3.30362 0
M  V30 12925 N 1266.32 3.24802 -3.30239 0
M  V30 12926 C 1267.05 3.9382 -4.16765 0
M  V30 12927 N 1266.55 4.65147 -5.1343 0
M  V30 12928 N 1268.34 3.90125 -4.04671 0
M  V30 12929 H 1260.49 0.579011 -2.04356 0
M  V30 12930 H 1262.76 0.318021 -0.893066 0
M  V30 12931 H 1262.46 1.72029 -3.06755 0
M  V30 12932 H 1262.34 3.15576 -2.06619 0
M  V30 12933 H 1264.72 2.70324 -1.18359 0
M  V30 12934 H 1264.8 1.27124 -2.21976 0
M  V30 12935 H 1264.45 2.75829 -4.26475 0
M  V30 12936 H 1264.38 4.18356 -3.19821 0
M  V30 12937 H 1266.87 2.73994 -2.60261 0
M  V30 12938 H 1267.18 5.15414 -5.7582 0
M  V30 12939 H 1265.53 4.64043 -5.17387 0
M  V30 12940 H 1268.72 3.33536 -3.28438 0
M  V30 12941 H 1268.89 4.43641 -4.7232 0
M  V30 12942 N 1262.3 0.988223 1.22768 0
M  V30 12943 C 1263.71 0.69816 1.4352 0
M  V30 12944 C 1263.91 -0.732872 1.877 0
M  V30 12945 O 1262.97 -1.50436 2.02793 0
M  V30 12946 C 1264.28 1.69975 2.4805 0
M  V30 12947 C 1265.83 1.71467 2.61855 0
M  V30 12948 C 1266.31 2.70477 3.69603 0
M  V30 12949 N 1267.8 2.69043 3.77055 0
M  V30 12950 C 1268.53 3.42319 4.60006 0
M  V30 12951 N 1268.03 4.2518 5.46986 0
M  V30 12952 N 1269.82 3.31047 4.54274 0
M  V30 12953 H 1261.97 1.91251 0.923948 0
M  V30 12954 H 1264.23 0.82455 0.467783 0
M  V30 12955 H 1263.94 2.72354 2.22523 0
M  V30 12956 H 1263.81 1.48885 3.46573 0
M  V30 12957 H 1266.2 0.697889 2.86729 0
M  V30 12958 H 1266.28 1.96625 1.63622 0
M  V30 12959 H 1265.93 3.72302 3.45476 0
M  V30 12960 H 1265.86 2.42591 4.67394 0
M  V30 12961 H 1268.35 2.08914 3.14902 0
M  V30 12962 H 1268.66 4.77929 6.07292 0
M  V30 12963 H 1267.01 4.29268 5.46584 0
M  V30 12964 H 1270.2 2.65758 3.85345 0
M  V30 12965 H 1270.37 3.88413 5.1869 0
M  V30 12966 N 1263.78 -1.38018 0.760839 0
M  V30 12967 C 1265.02 -2.0071 0.329695 0
M  V30 12968 C 1265.38 -1.59315 -1.07872 0
M  V30 12969 O 1264.67 -0.824077 -1.72973 0
M  V30 12970 C 1264.86 -3.55168 0.398778 0
M  V30 12971 C 1264.69 -4.11562 1.81237 0
M  V30 12972 C 1263.46 -4.43003 2.43056 0
M  V30 12973 C 1265.66 -4.3332 2.77018 0
M  V30 12974 N 1263.64 -4.85048 3.76301 0
M  V30 12975 C 1265.01 -4.77853 3.9504 0
M  V30 12976 C 1267.07 -4.15432 2.74446 0
M  V30 12977 C 1265.77 -5.06373 5.10861 0
M  V30 12978 C 1267.8 -4.45081 3.89431 0
M  V30 12979 C 1267.16 -4.89845 5.06193 0
M  V30 12980 H 1263.26 -0.76386 0.167457 0
M  V30 12981 H 1265.84 -1.67513 0.992343 0
M  V30 12982 H 1264.01 -3.87697 -0.233635 0
M  V30 12983 H 1265.75 -4.04665 -0.0533765 0
M  V30 12984 H 1262.5 -4.317 1.94762 0
M  V30 12985 H 1262.92 -5.10394 4.44778 0
M  V30 12986 H 1267.57 -3.80006 1.85353 0
M  V30 12987 H 1265.28 -5.40693 6.00564 0
M  V30 12988 H 1268.87 -4.32839 3.88769 0
M  V30 12989 H 1267.75 -5.12348 5.93691 0
M  V30 12990 N 1265.25 -0.510493 -1.49103 0
M  V30 12991 C 1266.5 0.0226445 -2.03387 0
M  V30 12992 C 1266.85 1.33817 -1.38242 0
M  V30 12993 O 1266.15 1.84625 -0.512282 0
M  V30 12994 C 1266.34 0.221921 -3.5671 0
M  V30 12995 C 1266.17 -1.07273 -4.36718 0
M  V30 12996 C 1264.94 -1.62719 -4.78383 0
M  V30 12997 C 1267.14 -1.97844 -4.74723 0
M  V30 12998 N 1265.12 -2.86676 -5.42854 0
M  V30 12999 C 1266.49 -3.06378 -5.3901 0
M  V30 13000 C 1268.55 -1.98407 -4.56661 0
M  V30 13001 C 1267.25 -4.15515 -5.87145 0
M  V30 13002 C 1269.28 -3.06525 -5.05763 0
M  V30 13003 C 1268.64 -4.13778 -5.70059 0
M  V30 13004 H 1264.74 -0.0327303 -0.781315 0
M  V30 13005 H 1267.32 -0.687457 -1.8216 0
M  V30 13006 H 1265.49 0.901088 -3.77803 0
M  V30 13007 H 1267.22 0.752916 -3.97635 0
M  V30 13008 H 1263.98 -1.17109 -4.58893 0
M  V30 13009 H 1264.4 -3.49733 -5.79669 0
M  V30 13010 H 1269.04 -1.16789 -4.0635 0
M  V30 13011 H 1266.76 -4.97925 -6.36472 0
M  V30 13012 H 1270.35 -3.07992 -4.93591 0
M  V30 13013 H 1269.23 -4.96061 -6.07366 0
M  V30 13014 N 1266.73 1.55688 -0.24474 0
M  V30 13015 C 1268.15 1.59219 0.110159 0
M  V30 13016 C 1268.35 1.26187 1.57096 0
M  V30 13017 O 1267.4 1.00815 2.31501 0
M  V30 13018 C 1268.72 2.99764 -0.237075 0
M  V30 13019 C 1270.26 3.12475 -0.181198 0
M  V30 13020 C 1270.74 4.55236 -0.502435 0
M  V30 13021 N 1272.23 4.60981 -0.452855 0
M  V30 13022 C 1272.97 5.69418 -0.674605 0
M  V30 13023 N 1272.46 6.86125 -0.959366 0
M  V30 13024 N 1274.25 5.5883 -0.605459 0
M  V30 13025 H 1266.41 1.7543 -1.19741 0
M  V30 13026 H 1268.67 0.816537 -0.481634 0
M  V30 13027 H 1268.37 3.28666 -1.25185 0
M  V30 13028 H 1268.25 3.74662 0.436859 0
M  V30 13029 H 1270.64 2.83355 0.824248 0
M  V30 13030 H 1270.72 2.39857 -0.888952 0
M  V30 13031 H 1270.36 4.85077 -1.50543 0
M  V30 13032 H 1270.29 5.26111 0.226773 0
M  V30 13033 H 1272.78 3.77128 -0.241401 0
M  V30 13034 H 1273.09 7.64699 -1.11605 0
M  V30 13035 H 1271.44 6.87814 -0.996816 0
M  V30 13036 H 1274.63 4.6653 -0.383053 0
M  V30 13037 H 1274.8 6.43268 -0.781673 0
M  V30 13038 N 1268.21 -0.0283989 1.57574 0
M  V30 13039 C 1269.43 -0.734537 1.93957 0
M  V30 13040 C 1269.86 -1.68062 0.844787 0
M  V30 13041 O 1269.22 -1.802 -0.199432 0
M  V30 13042 C 1269.27 -1.46716 3.29404 0
M  V30 13043 O 1268.37 -2.58036 3.217 0
M  V30 13044 H 1267.71 -0.197507 0.633946 0
M  V30 13045 H 1270.24 0.0163258 2.04593 0
M  V30 13046 H 1270.25 -1.83693 3.64309 0
M  V30 13047 H 1268.93 -0.773292 4.08648 0
M  V30 13048 H 1267.5 -2.23597 2.98427 0
M  V30 13049 N 1269.69 -1.54705 -0.300681 0
M  V30 13050 C 1270.96 -1.6468 -1.05546 0
M  V30 13051 C 1271.34 -0.495292 -2.05207 0
M  V30 13052 O 1270.69 0.507944 -2.22783 0
M  V30 13053 C 1270.9 -3.02702 -1.73703 0
M  V30 13054 C 1272.25 -3.59527 -2.25888 0
M  V30 13055 O 1273.27 -3.05156 -1.83735 0
M  V30 13056 O 1272.13 -4.54727 -3.03126 0
M  V30 13057 H 1269.23 -0.667769 -0.487867 0
M  V30 13058 H 1271.77 -1.6705 -0.298743 0
M  V30 13059 H 1270.55 -3.7795 -1.01338 0
M  V30 13060 H 1270.17 -3.0411 -2.5613 0
M  V30 13061 N 1271.17 0.563888 -1.47167 0
M  V30 13062 C 1272.39 1.35176 -1.57297 0
M  V30 13063 C 1272.82 1.86794 -0.221235 0
M  V30 13064 O 1272.17 1.62606 0.801809 0
M  V30 13065 C 1272.22 2.50225 -2.59654 0
M  V30 13066 O 1271.33 3.5225 -2.14461 0
M  V30 13067 H 1270.67 0.401795 -0.528637 0
M  V30 13068 H 1273.2 0.682137 -1.92894 0
M  V30 13069 H 1273.21 2.96886 -2.79862 0
M  V30 13070 H 1271.88 2.1201 -3.57805 0
M  V30 13071 H 1270.46 3.1194 -2.04323 0
M  V30 13072 N 1272.64 1.35187 0.810078 0
M  V30 13073 C 1273.57 1.30481 1.93641 0
M  V30 13074 C 1274.56 0.179875 1.69146 0
M  V30 13075 O 1275.74 0.374284 1.90559 0
M  V30 13076 C 1272.87 1.07251 3.30325 0
M  V30 13077 C 1271.82 2.16348 3.69293 0
M  V30 13078 C 1271.15 1.78288 5.04101 0
M  V30 13079 C 1272.45 3.58285 3.80038 0
M  V30 13080 H 1274.14 2.24725 1.97836 0
M  V30 13081 H 1271.69 1.08179 0.950436 0
M  V30 13082 H 1273.64 1.02599 4.08719 0
M  V30 13083 H 1272.37 0.0945203 3.26463 0
M  V30 13084 H 1271.03 2.2009 2.93182 0
M  V30 13085 H 1270.67 0.791163 4.96739 0
M  V30 13086 H 1270.37 2.51315 5.31144 0
M  V30 13087 H 1271.9 1.75155 5.84938 0
M  V30 13088 H 1273.31 3.56884 4.48672 0
M  V30 13089 H 1271.71 4.30044 4.18548 0
M  V30 13090 H 1272.78 3.94691 2.81685 0
M  V30 13091 N 1274.12 -1.03182 1.19127 0
M  V30 13092 C 1275.37 -1.76917 1.00359 0
M  V30 13093 C 1275.72 -1.86794 -0.461075 0
M  V30 13094 O 1275.02 -1.37151 -1.33791 0
M  V30 13095 C 1275.21 -3.19452 1.60267 0
M  V30 13096 C 1275.04 -3.2347 3.12406 0
M  V30 13097 C 1273.81 -3.31587 3.81285 0
M  V30 13098 C 1276.01 -3.10754 4.09801 0
M  V30 13099 N 1273.99 -3.24948 5.20848 0
M  V30 13100 C 1275.36 -3.11715 5.35942 0
M  V30 13101 C 1277.42 -2.9486 4.01201 0
M  V30 13102 C 1276.12 -2.98413 6.54479 0
M  V30 13103 C 1278.14 -2.82907 5.19344 0
M  V30 13104 C 1277.51 -2.8452 6.44382 0
M  V30 13105 H 1273.61 -0.658788 0.421334 0
M  V30 13106 H 1276.19 -1.22849 1.51051 0
M  V30 13107 H 1274.36 -3.71847 1.1218 0
M  V30 13108 H 1276.09 -3.81533 1.34963 0
M  V30 13109 H 1272.85 -3.37686 3.32062 0
M  V30 13110 H 1273.27 -3.25043 5.93865 0
M  V30 13111 H 1277.91 -2.92437 3.05353 0
M  V30 13112 H 1275.63 -2.99587 7.50515 0
M  V30 13113 H 1279.22 -2.71649 5.14488 0
M  V30 13114 H 1278.1 -2.75369 7.34263 0
M  V30 13115 N 1275.6 -0.99472 -1.22242 0
M  V30 13116 C 1276.53 -0.504783 -2.23572 0
M  V30 13117 C 1277.55 0.401105 -1.57781 0
M  V30 13118 O 1278.73 0.202948 -1.77343 0
M  V30 13119 C 1275.83 0.287524 -3.37678 0
M  V30 13120 C 1275.01 -0.614941 -4.33056 0
M  V30 13121 C 1274.07 0.125974 -5.26049 0
M  V30 13122 O 1273.09 -0.489234 -5.67094 0
M  V30 13123 N 1274.29 1.40772 -5.63173 0
M  V30 13124 H 1277.06 -1.37612 -2.66238 0
M  V30 13125 H 1274.62 -0.86965 -1.3656 0
M  V30 13126 H 1276.61 0.791884 -3.96877 0
M  V30 13127 H 1275.18 1.05998 -2.9408 0
M  V30 13128 H 1274.4 -1.29994 -3.72149 0
M  V30 13129 H 1275.69 -1.22947 -4.93722 0
M  V30 13130 H 1275.09 1.92884 -5.31801 0
M  V30 13131 H 1273.65 1.85723 -6.2478 0
M  V30 13132 N 1277.08 1.37613 -0.768148 0
M  V30 13133 C 1278.04 2.28653 -0.158283 0
M  V30 13134 C 1279.04 1.47862 0.631936 0
M  V30 13135 O 1280.23 1.68124 0.456055 0
M  V30 13136 C 1277.36 3.31776 0.783435 0
M  V30 13137 H 1278.56 2.84094 -0.960772 0
M  V30 13138 H 1276.11 1.46818 -0.536116 0
M  V30 13139 H 1276.84 2.81452 1.61106 0
M  V30 13140 H 1276.63 3.91488 0.219016 0
M  V30 13141 H 1278.12 3.99816 1.20568 0
M  V30 13142 N 1278.56 0.518393 1.4883 0
M  V30 13143 C 1279.51 -0.270295 2.26392 0
M  V30 13144 C 1280.49 -0.9202 1.31989 0
M  V30 13145 O 1281.68 -0.824923 1.56601 0
M  V30 13146 C 1278.81 -1.32368 3.16755 0
M  V30 13147 C 1277.9 -0.679143 4.18627 0
M  V30 13148 N 1278.29 0.228392 5.05284 0
M  V30 13149 C 1276.59 -0.937712 4.36031 0
M  V30 13150 C 1277.29 0.599076 5.78607 0
M  V30 13151 N 1276.26 -0.0371273 5.43587 0
M  V30 13152 H 1280.07 0.428066 2.90766 0
M  V30 13153 H 1277.58 0.335632 1.58894 0
M  V30 13154 H 1279.58 -1.9023 3.70969 0
M  V30 13155 H 1278.24 -2.02354 2.53935 0
M  V30 13156 H 1279.25 0.600292 5.14409 0
M  V30 13157 H 1275.92 -1.62901 3.84408 0
M  V30 13158 H 1277.31 1.34256 6.5835 0
M  V30 13159 N 1280.03 -1.55556 0.252993 0
M  V30 13160 C 1281.31 -1.91022 -0.420696 0
M  V30 13161 C 1281.69 -1.17452 -1.75409 0
M  V30 13162 O 1281.04 -0.294 -2.26601 0
M  V30 13163 C 1281.25 -3.441 -0.582787 0
M  V30 13164 C 1282.6 -4.15468 -0.875873 0
M  V30 13165 O 1283.62 -3.49872 -0.668425 0
M  V30 13166 O 1282.48 -5.31508 -1.27128 0
M  V30 13167 H 1279.57 -0.7953 -0.226776 0
M  V30 13168 H 1282.12 -1.67072 0.297511 0
M  V30 13169 H 1280.89 -3.89673 0.356474 0
M  V30 13170 H 1280.52 -3.73933 -1.3513 0
M  V30 13171 N 1281.51 0.0200419 -1.57587 0
M  V30 13172 C 1282.48 1.00255 -2.06111 0
M  V30 13173 C 1283.48 1.28488 -0.966829 0
M  V30 13174 O 1284.67 1.2334 -1.23015 0
M  V30 13175 C 1281.8 2.33296 -2.48567 0
M  V30 13176 H 1282.99 0.583216 -2.94174 0
M  V30 13177 H 1280.54 0.267077 -1.54001 0
M  V30 13178 H 1281.28 2.79959 -1.63687 0
M  V30 13179 H 1281.06 2.14131 -3.28467 0
M  V30 13180 H 1282.55 3.03817 -2.86505 0
M  V30 13181 N 1282.99 1.54862 0.292472 0
M  V30 13182 C 1284.41 1.46267 0.638611 0
M  V30 13183 C 1284.61 0.660824 1.90356 0
M  V30 13184 O 1283.66 0.171909 2.51914 0
M  V30 13185 C 1284.98 2.90309 0.783675 0
M  V30 13186 C 1286.52 3.00404 0.879004 0
M  V30 13187 C 1287 4.4566 1.056 0
M  V30 13188 N 1288.49 4.49406 1.122 0
M  V30 13189 C 1289.22 5.5899 1.2774 0
M  V30 13190 N 1288.72 6.78482 1.40123 0
M  V30 13191 N 1290.51 5.46695 1.30696 0
M  V30 13192 H 1282.66 2.0546 -0.538521 0
M  V30 13193 H 1284.93 0.930879 -0.179354 0
M  V30 13194 H 1284.63 3.5162 -0.0750437 0
M  V30 13195 H 1284.51 3.38215 1.67004 0
M  V30 13196 H 1286.89 2.39201 1.7282 0
M  V30 13197 H 1286.98 2.55781 -0.0315624 0
M  V30 13198 H 1286.62 5.07459 0.211535 0
M  V30 13199 H 1286.55 4.87921 1.98092 0
M  V30 13200 H 1289.04 3.63322 1.03948 0
M  V30 13201 H 1289.35 7.57752 1.5176 0
M  V30 13202 H 1287.7 6.81331 1.37163 0
M  V30 13203 H 1290.89 4.52288 1.20638 0
M  V30 13204 H 1291.06 6.32146 1.42463 0
M  V30 13205 N 1284.47 -0.556076 1.47464 0
M  V30 13206 C 1285.7 -1.33664 1.57536 0
M  V30 13207 C 1286.11 -1.87858 0.224977 0
M  V30 13208 O 1285.45 -1.65746 -0.792091 0
M  V30 13209 C 1285.51 -2.54257 2.54152 0
M  V30 13210 C 1285.18 -2.21342 3.99821 0
M  V30 13211 C 1286.17 -1.78568 4.88272 0
M  V30 13212 C 1283.86 -2.32666 4.45165 0
M  V30 13213 C 1285.85 -1.47549 6.20087 0
M  V30 13214 C 1283.54 -2.0126 5.77008 0
M  V30 13215 C 1284.54 -1.58769 6.6429 0
M  V30 13216 O 1284.22 -1.27762 7.93683 0
M  V30 13217 H 1283.96 -0.413721 0.534613 0
M  V30 13218 H 1286.51 -0.680342 1.93805 0
M  V30 13219 H 1284.74 -3.22782 2.12952 0
M  V30 13220 H 1286.43 -3.16332 2.5434 0
M  V30 13221 H 1287.2 -1.69311 4.54487 0
M  V30 13222 H 1283.07 -2.64698 3.77433 0
M  V30 13223 H 1286.62 -1.1431 6.88171 0
M  V30 13224 H 1282.52 -2.10149 6.10334 0
M  V30 13225 H 1283.28 -1.41383 8.06197 0
M  V30 13226 N 1285.95 -1.35615 -0.802897 0
M  V30 13227 C 1287.22 -1.19655 -1.54732 0
M  V30 13228 C 1287.6 0.222827 -2.09921 0
M  V30 13229 O 1286.95 1.2268 -1.92774 0
M  V30 13230 C 1287.16 -2.26761 -2.65293 0
M  V30 13231 C 1288.51 -2.62754 -3.33535 0
M  V30 13232 O 1289.53 -2.25702 -2.75567 0
M  V30 13233 O 1288.39 -3.26476 -4.38264 0
M  V30 13234 H 1285.49 -0.465079 -0.683835 0
M  V30 13235 H 1288.03 -1.47307 -0.84254 0
M  V30 13236 H 1286.81 -3.21946 -2.22411 0
M  V30 13237 H 1286.43 -2.00399 -3.43404 0
M  V30 13238 N 1287.43 1.02549 -1.19673 0
M  V30 13239 C 1288.39 2.09064 -0.939407 0
M  V30 13240 C 1289.39 1.60593 0.0814837 0
M  V30 13241 O 1290.58 1.73521 -0.153626 0
M  V30 13242 C 1287.71 3.38395 -0.412513 0
M  V30 13243 H 1288.9 2.33325 -1.88413 0
M  V30 13244 H 1286.46 1.19211 -1.01086 0
M  V30 13245 H 1287.19 3.19805 0.538094 0
M  V30 13246 H 1286.98 3.74898 -1.14863 0
M  V30 13247 H 1288.47 4.16841 -0.251678 0
M  V30 13248 N 1288.9 1.00119 1.21713 0
M  V30 13249 C 1290.18 0.597366 1.86255 0
M  V30 13250 C 1290.56 -0.925124 1.89749 0
M  V30 13251 O 1289.91 -1.8105 1.39402 0
M  V30 13252 C 1290.12 1.22735 3.26707 0
M  V30 13253 C 1291.47 1.33307 4.03131 0
M  V30 13254 O 1292.49 1.18237 3.36003 0
M  V30 13255 O 1291.35 1.57509 5.2331 0
M  V30 13256 H 1288.44 0.204091 0.801421 0
M  V30 13257 H 1290.99 1.09759 1.29426 0
M  V30 13258 H 1289.76 2.26837 3.18843 0
M  V30 13259 H 1289.38 0.713232 3.91151 0
M  V30 13260 N 1290.38 -1.37203 0.775435 0
M  V30 13261 C 1291.34 -2.28566 0.170406 0
M  V30 13262 C 1292.34 -1.48195 -0.624085 0
M  V30 13263 O 1293.53 -1.68364 -0.447132 0
M  V30 13264 C 1290.67 -3.32186 -0.765829 0
M  V30 13265 H 1291.86 -2.8358 0.975824 0
M  V30 13266 H 1289.41 -1.46531 0.543895 0
M  V30 13267 H 1290.15 -2.82303 -1.59611 0
M  V30 13268 H 1289.93 -3.91598 -0.198251 0
M  V30 13269 H 1291.42 -4.0045 -1.18446 0
M  V30 13270 N 1291.86 -0.526279 -1.48553 0
M  V30 13271 C 1293.11 0.00918008 -2.02798 0
M  V30 13272 C 1293.44 1.34284 -1.4029 0
M  V30 13273 O 1292.71 1.86639 -0.547355 0
M  V30 13274 C 1293 0.135102 -3.59846 0
M  V30 13275 C 1292.85 -1.22347 -4.32841 0
M  V30 13276 C 1294.17 0.863673 -4.31542 0
M  V30 13277 H 1291.29 0.00186216 -0.736998 0
M  V30 13278 H 1293.93 -0.682591 -1.77315 0
M  V30 13279 H 1292.08 0.724279 -3.81689 0
M  V30 13280 H 1293.75 -1.85347 -4.22427 0
M  V30 13281 H 1291.99 -1.80631 -3.94405 0
M  V30 13282 H 1292.67 -1.08839 -5.41164 0
M  V30 13283 H 1295.14 0.363734 -4.14507 0
M  V30 13284 H 1294.02 0.92067 -5.41124 0
M  V30 13285 H 1294.28 1.91313 -3.98562 0
M  V30 13286 N 1293.34 1.5542 -0.261239 0
M  V30 13287 C 1294.58 2.0119 0.360848 0
M  V30 13288 C 1294.94 1.14558 1.5408 0
M  V30 13289 O 1296.14 1.49846 2.23158 0
M  V30 13290 C 1294.41 3.49513 0.74668 0
M  V30 13291 S 1295.97 4.17281 1.35726 0
M  V30 13292 H 1292.79 0.701978 0.112903 0
M  V30 13293 H 1295.39 1.91775 -0.379829 0
M  V30 13294 H 1294.1 4.10221 -0.121172 0
M  V30 13295 H 1293.63 3.62884 1.51917 0
M  V30 13296 H 1295.64 4.19756 2.64612 0
M  V30 13297 N 1294.82 -0.0116844 1.57596 0
M  V30 13298 C 1296.06 -0.698089 1.89234 0
M  V30 13299 C 1296.38 -1.75581 0.862016 0
M  V30 13300 O 1297.58 -2.49602 1.06822 0
M  V30 13301 C 1296.04 -1.29277 3.3588 0
M  V30 13302 C 1295.65 -0.27049 4.47183 0
M  V30 13303 C 1297.39 -1.95805 3.76644 0
M  V30 13304 C 1295.3 -0.874502 5.84899 0
M  V30 13305 H 1294.23 -0.264495 0.706087 0
M  V30 13306 H 1296.88 0.0469451 1.8344 0
M  V30 13307 H 1295.26 -2.08809 3.36474 0
M  V30 13308 H 1296.44 0.499381 4.58086 0
M  V30 13309 H 1294.75 0.293676 4.15363 0
M  V30 13310 H 1297.35 -2.41879 4.76863 0
M  V30 13311 H 1297.69 -2.78366 3.09545 0
M  V30 13312 H 1298.22 -1.23023 3.78299 0
M  V30 13313 H 1294.96 -0.0879263 6.55441 0
M  V30 13314 H 1294.48 -1.61381 5.77682 0
M  V30 13315 H 1296.16 -1.37665 6.32185 0
M  V30 13316 N 1296.29 -1.55015 -0.284256 0
M  V30 13317 C 1297.54 -1.74297 -1.01506 0
M  V30 13318 C 1297.86 -0.545134 -1.8785 0
M  V30 13319 O 1299.06 -0.620118 -2.64323 0
M  V30 13320 C 1297.52 -3.08438 -1.85456 0
M  V30 13321 C 1297.13 -4.35753 -1.04034 0
M  V30 13322 C 1298.87 -3.37073 -2.58035 0
M  V30 13323 C 1296.78 -5.60938 -1.87358 0
M  V30 13324 H 1295.71 -0.649656 -0.382705 0
M  V30 13325 H 1298.36 -1.81484 -0.271239 0
M  V30 13326 H 1296.74 -2.95259 -2.63891 0
M  V30 13327 H 1297.91 -4.59816 -0.300954 0
M  V30 13328 H 1296.23 -4.14178 -0.429616 0
M  V30 13329 H 1298.83 -4.27806 -3.20759 0
M  V30 13330 H 1299.17 -2.56698 -3.27738 0
M  V30 13331 H 1299.7 -3.51299 -1.86638 0
M  V30 13332 H 1296.44 -6.44029 -1.22096 0
M  V30 13333 H 1295.96 -5.41035 -2.58923 0
M  V30 13334 H 1297.64 -5.98819 -2.44999 0
M  V30 13335 N 1297.77 0.548248 -1.47757 0
M  V30 13336 C 1299.18 1.13033 -1.48595 0
M  V30 13337 C 1299.53 1.94657 -0.245575 0
M  V30 13338 O 1298.66 2.06445 0.648813 0
M  V30 13339 C 1299.25 2.05657 -2.69241 0
M  V30 13340 C 1297.81 2.59119 -2.73009 0
M  V30 13341 C 1296.96 1.35686 -2.41836 0
M  V30 13342 H 1299.91 0.334397 -1.55137 0
M  V30 13343 H 1299.93 2.89671 -2.4672 0
M  V30 13344 H 1299.44 1.46222 -3.595 0
M  V30 13345 H 1297.54 3.22327 -1.86912 0
M  V30 13346 H 1297.66 2.99501 -3.73946 0
M  V30 13347 H 1296.02 1.66659 -1.92606 0
M  V30 13348 H 1296.8 0.780311 -3.34314 0
M  V30 13349 N 1299.25 1.36039 0.795694 0
M  V30 13350 C 1300.5 1.29663 1.55023 0
M  V30 13351 C 1300.82 -0.125588 1.94595 0
M  V30 13352 O 1300.09 -1.06447 1.64456 0
M  V30 13353 H 1298.67 0.476962 0.574906 0
M  V30 13354 H 1301.33 1.70265 0.948471 0
M  V30 13355 H 1300.43 1.91982 2.46068 0
M  V30 13356 N 1300.73 -1.01913 1.20215 0
M  V30 13357 C 1301.96 -1.79076 1.03631 0
M  V30 13358 C 1302.37 -1.84192 -0.414583 0
M  V30 13359 O 1301.73 -1.29306 -1.28788 0
M  V30 13360 C 1301.78 -3.23665 1.61008 0
M  V30 13361 O 1301.5 -3.18873 3.00419 0
M  V30 13362 C 1303 -4.17387 1.49342 0
M  V30 13363 H 1300.22 -0.563241 0.364692 0
M  V30 13364 H 1302.77 -1.283 1.59246 0
M  V30 13365 H 1300.92 -3.71597 1.09518 0
M  V30 13366 H 1301.33 -4.09609 3.27598 0
M  V30 13367 H 1302.81 -5.16691 1.94253 0
M  V30 13368 H 1303.29 -4.36935 0.445493 0
M  V30 13369 H 1303.89 -3.75335 2.0001 0
M  V30 13370 N 1302.21 -1.00763 -1.2118 0
M  V30 13371 C 1303.17 -0.575183 -2.21865 0
M  V30 13372 C 1304.17 0.349871 -1.56948 0
M  V30 13373 O 1305.36 0.139795 -1.73638 0
M  V30 13374 C 1302.49 0.161308 -3.40518 0
M  V30 13375 H 1303.68 -1.46578 -2.61639 0
M  V30 13376 H 1301.24 -0.79643 -1.34487 0
M  V30 13377 H 1301.97 1.06723 -3.06236 0
M  V30 13378 H 1301.76 -0.503101 -3.88859 0
M  V30 13379 H 1303.25 0.451527 -4.15152 0
M  V30 13380 N 1303.68 1.3679 -0.7827 0
M  V30 13381 C 1304.91 2.04206 -0.362571 0
M  V30 13382 C 1305.33 1.58637 1.01074 0
M  V30 13383 O 1304.69 0.751692 1.64983 0
M  V30 13384 C 1304.74 3.58062 -0.4271 0
M  V30 13385 O 1303.84 4.08463 0.56845 0
M  V30 13386 H 1303.19 0.645638 -0.155073 0
M  V30 13387 H 1305.72 1.74883 -1.06194 0
M  V30 13388 H 1305.73 4.0698 -0.288298 0
M  V30 13389 H 1304.4 3.90582 -1.42893 0
M  V30 13390 H 1302.98 3.70835 0.391863 0
M  V30 13391 N 1305.16 0.53415 1.48272 0
M  V30 13392 C 1306.41 0.00157492 2.028 0
M  V30 13393 C 1306.74 -1.33538 1.41001 0
M  V30 13394 O 1306.02 -1.86347 0.557245 0
M  V30 13395 C 1306.3 -0.116016 3.59913 0
M  V30 13396 C 1306.15 1.2464 4.32186 0
M  V30 13397 C 1307.47 -0.840775 4.31994 0
M  V30 13398 H 1304.59 0.00204634 0.736997 0
M  V30 13399 H 1307.23 0.691985 1.76951 0
M  V30 13400 H 1305.38 -0.704027 3.82068 0
M  V30 13401 H 1307.05 1.87584 4.21438 0
M  V30 13402 H 1305.3 1.8272 3.93441 0
M  V30 13403 H 1305.97 1.11708 5.40579 0
M  V30 13404 H 1308.44 -0.341746 4.14694 0
M  V30 13405 H 1307.32 -0.89196 5.41604 0
M  V30 13406 H 1307.58 -1.89197 3.99571 0
M  V30 13407 N 1306.64 -1.55279 0.269478 0
M  V30 13408 C 1307.6 -2.21008 -0.607299 0
M  V30 13409 C 1308.6 -1.18619 -1.08564 0
M  V30 13410 O 1309.79 -1.4356 -0.986721 0
M  V30 13411 C 1306.93 -2.87157 -1.83721 0
M  V30 13412 H 1308.12 -2.99881 -0.0334894 0
M  V30 13413 H 1305.67 -1.56287 0.0200573 0
M  V30 13414 H 1306.41 -2.12281 -2.45168 0
M  V30 13415 H 1306.19 -3.62183 -1.5022 0
M  V30 13416 H 1307.68 -3.37391 -2.46083 0
M  V30 13417 N 1308.12 0.00332656 -1.576 0
M  V30 13418 C 1309.37 0.687508 -1.90047 0
M  V30 13419 C 1309.69 1.74497 -0.870388 0
M  V30 13420 O 1308.96 1.95681 0.0926544 0
M  V30 13421 H 1307.54 0.256924 -0.701426 0
M  V30 13422 H 1310.2 -0.0368129 -1.94865 0
M  V30 13423 H 1309.3 1.16086 -2.89707 0
M  V30 13424 N 1309.6 1.55164 0.276031 0
M  V30 13425 C 1310.85 1.74833 1.0058 0
M  V30 13426 C 1311.16 0.555089 1.87558 0
M  V30 13427 O 1312.36 0.634127 2.63991 0
M  V30 13428 C 1310.82 3.09417 1.83818 0
M  V30 13429 C 1310.43 4.36299 1.01721 0
M  V30 13430 C 1312.17 3.38437 2.56244 0
M  V30 13431 C 1310.08 5.61923 1.8438 0
M  V30 13432 H 1309.01 0.651676 0.379254 0
M  V30 13433 H 1311.66 1.81626 0.26161 0
M  V30 13434 H 1310.04 2.96654 2.62321 0
M  V30 13435 H 1311.22 4.59969 0.276565 0
M  V30 13436 H 1309.53 4.144 0.407645 0
M  V30 13437 H 1312.13 4.29501 3.18485 0
M  V30 13438 H 1312.47 2.58432 3.26372 0
M  V30 13439 H 1313 3.52284 1.84773 0
M  V30 13440 H 1309.74 6.44667 1.18679 0
M  V30 13441 H 1309.26 5.424 2.56051 0
M  V30 13442 H 1310.94 6.0011 2.4182 0
M  V30 13443 N 1311.07 -0.540404 1.48045 0
M  V30 13444 C 1312.3 -1.32177 1.59175 0
M  V30 13445 C 1312.72 -1.87163 0.248115 0
M  V30 13446 O 1312.07 -1.65871 -0.761124 0
M  V30 13447 C 1312.13 -2.47995 2.63023 0
M  V30 13448 O 1311.85 -1.95278 3.92171 0
M  V30 13449 C 1313.35 -3.39967 2.84495 0
M  V30 13450 H 1310.57 -0.40233 0.537002 0
M  V30 13451 H 1313.11 -0.652983 1.93795 0
M  V30 13452 H 1311.27 -3.10779 2.31291 0
M  V30 13453 H 1311.68 -2.71012 4.49058 0
M  V30 13454 H 1313.15 -4.17607 3.60982 0
M  V30 13455 H 1313.63 -3.94555 1.92932 0
M  V30 13456 H 1314.24 -2.82985 3.1749 0
M  V30 13457 N 1312.55 -1.36459 -0.788468 0
M  V30 13458 C 1313.97 -1.16893 -1.08666 0
M  V30 13459 C 1314.17 0.00633808 -2.01499 0
M  V30 13460 O 1313.22 0.671417 -2.4341 0
M  V30 13461 C 1314.54 -2.48018 -1.70022 0
M  V30 13462 C 1316.09 -2.5439 -1.82358 0
M  V30 13463 C 1316.56 -3.85605 -2.47129 0
M  V30 13464 N 1318.05 -3.86956 -2.54597 0
M  V30 13465 C 1318.79 -4.85224 -3.05525 0
M  V30 13466 N 1318.28 -5.93885 -3.56753 0
M  V30 13467 N 1320.08 -4.72643 -3.04246 0
M  V30 13468 H 1312.23 -2.11705 -0.171733 0
M  V30 13469 H 1314.49 -0.937784 -0.1388 0
M  V30 13470 H 1314.2 -3.34292 -1.09277 0
M  V30 13471 H 1314.07 -2.63894 -2.69518 0
M  V30 13472 H 1316.46 -1.68534 -2.4224 0
M  V30 13473 H 1316.54 -2.42414 -0.816651 0
M  V30 13474 H 1316.18 -4.71868 -1.87891 0
M  V30 13475 H 1316.11 -3.94878 -3.48395 0
M  V30 13476 H 1318.6 -3.08453 -2.18323 0
M  V30 13477 H 1318.92 -6.64839 -3.93966 0
M  V30 13478 H 1317.26 -5.97553 -3.54902 0
M  V30 13479 H 1320.45 -3.86883 -2.63513 0
M  V30 13480 H 1320.62 -5.49385 -3.43627 0
M  V30 13481 N 1314.03 1.01274 -1.20754 0
M  V30 13482 C 1314.96 2.09567 -0.903157 0
M  V30 13483 C 1315.94 1.61941 0.146287 0
M  V30 13484 O 1317.13 1.8849 0.0190177 0
M  V30 13485 C 1314.25 3.36838 -0.354682 0
M  V30 13486 C 1313.3 4.03361 -1.38572 0
M  V30 13487 S 1314.13 4.46775 -2.95216 0
M  V30 13488 C 1315.29 5.77242 -2.41955 0
M  V30 13489 H 1315.52 2.35063 -1.82024 0
M  V30 13490 H 1313.05 1.14444 -1.03643 0
M  V30 13491 H 1315.01 4.10476 -0.0447882 0
M  V30 13492 H 1313.67 3.09407 0.540962 0
M  V30 13493 H 1312.87 4.94939 -0.951408 0
M  V30 13494 H 1312.47 3.35964 -1.64329 0
M  V30 13495 H 1314.76 6.52608 -1.81958 0
M  V30 13496 H 1315.7 6.25475 -3.31944 0
M  V30 13497 H 1316.11 5.3369 -1.83942 0
M  V30 13498 N 1315.51 1.01404 1.20644 0
M  V30 13499 C 1316.79 0.617088 1.85611 0
M  V30 13500 C 1317.17 -0.904947 1.9072 0
M  V30 13501 O 1316.51 -1.79562 1.41315 0
M  V30 13502 C 1316.72 1.26193 3.25386 0
M  V30 13503 C 1318.07 1.37575 4.01694 0
M  V30 13504 O 1319.1 1.21795 3.34731 0
M  V30 13505 O 1317.96 1.6305 5.2161 0
M  V30 13506 H 1315.05 0.212579 0.799211 0
M  V30 13507 H 1317.6 1.11126 1.28254 0
M  V30 13508 H 1316.37 2.30206 3.16419 0
M  V30 13509 H 1315.99 0.754679 3.90372 0
M  V30 13510 N 1316.99 -1.36373 0.789944 0
M  V30 13511 C 1317.9 -2.3383 0.189873 0
M  V30 13512 C 1318.91 -1.61068 -0.65827 0
M  V30 13513 O 1320.09 -1.93049 -0.573932 0
M  V30 13514 C 1317.15 -3.40264 -0.664905 0
M  V30 13515 C 1316.22 -4.28825 0.201798 0
M  V30 13516 C 1315.45 -5.30176 -0.612278 0
M  V30 13517 O 1315.67 -5.39627 -1.84821 0
M  V30 13518 O 1314.61 -6.01899 -0.0118964 0
M  V30 13519 H 1318.43 -2.86915 0.995671 0
M  V30 13520 H 1316.02 -1.38852 0.551412 0
M  V30 13521 H 1317.9 -4.05339 -1.15231 0
M  V30 13522 H 1316.57 -2.89478 -1.44858 0
M  V30 13523 H 1315.48 -3.66789 0.735974 0
M  V30 13524 H 1316.81 -4.82965 0.949003 0
M  V30 13525 N 1318.47 -0.542005 -1.47987 0
M  V30 13526 C 1319.88 -0.104646 -1.86406 0
M  V30 13527 C 1320.23 1.32139 -1.4503 0
M  V30 13528 O 1319.35 1.99159 -0.846439 0
M  V30 13529 C 1319.95 -0.183133 -3.38305 0
M  V30 13530 C 1318.51 0.199098 -3.75873 0
M  V30 13531 C 1317.65 -0.537532 -2.7204 0
M  V30 13532 H 1320.6 -0.75259 -1.3972 0
M  V30 13533 H 1320.63 0.602149 -3.75705 0
M  V30 13534 H 1320.14 -1.22113 -3.68389 0
M  V30 13535 H 1318.24 1.23878 -3.51404 0
M  V30 13536 H 1318.35 -0.14888 -4.78869 0
M  V30 13537 H 1316.72 0.0176255 -2.54694 0
M  V30 13538 H 1317.5 -1.57639 -3.04967 0
M  V30 13539 N 1319.94 1.55134 -0.277709 0
M  V30 13540 C 1321.19 1.99949 0.338831 0
M  V30 13541 C 1321.52 1.16587 1.5531 0
M  V30 13542 O 1320.8 0.236572 1.93056 0
M  V30 13543 C 1321.08 3.5286 0.718457 0
M  V30 13544 C 1320.93 4.46975 -0.503332 0
M  V30 13545 C 1322.25 4.11754 1.55392 0
M  V30 13546 H 1319.37 0.726885 0.121682 0
M  V30 13547 H 1322.01 1.86055 -0.385171 0
M  V30 13548 H 1320.16 3.64831 1.33531 0
M  V30 13549 H 1321.84 4.46944 -1.14188 0
M  V30 13550 H 1320.08 4.18528 -1.14092 0
M  V30 13551 H 1320.75 5.51659 -0.193912 0
M  V30 13552 H 1323.23 4.03075 1.03293 0
M  V30 13553 H 1322.1 5.1895 1.78835 0
M  V30 13554 H 1322.36 3.62147 2.53578 0
M  V30 13555 N 1321.42 0.00503138 1.57599 0
M  V30 13556 C 1322.67 -0.67742 1.90409 0
M  V30 13557 C 1322.99 -1.74033 0.87963 0
M  V30 13558 O 1322.26 -1.95727 -0.0822757 0
M  V30 13559 H 1320.84 -0.2532 0.702779 0
M  V30 13560 H 1323.5 0.0471466 1.94843 0
M  V30 13561 H 1322.6 -1.14548 2.90319 0
M  V30 13562 N 1322.9 -1.55308 -0.267798 0
M  V30 13563 C 1323.81 -1.91649 -1.35307 0
M  V30 13564 C 1324.83 -0.814349 -1.53767 0
M  V30 13565 O 1326 -1.11388 -1.67793 0
M  V30 13566 C 1323.07 -2.18553 -2.69138 0
M  V30 13567 C 1322.13 -3.42083 -2.5938 0
M  V30 13568 C 1321.36 -3.67695 -3.86828 0
M  V30 13569 O 1321.58 -2.95728 -4.87751 0
M  V30 13570 O 1320.52 -4.61229 -3.86718 0
M  V30 13571 H 1324.34 -2.84044 -1.07483 0
M  V30 13572 H 1321.93 -1.41921 -0.466772 0
M  V30 13573 H 1323.81 -2.3726 -3.48261 0
M  V30 13574 H 1322.49 -1.2934 -2.96737 0
M  V30 13575 H 1321.39 -3.28706 -1.78614 0
M  V30 13576 H 1322.73 -4.31532 -2.36729 0
M  V30 13577 N 1324.38 0.532545 -1.4833 0
M  V30 13578 C 1325.31 1.64662 -1.65555 0
M  V30 13579 C 1326.29 1.62447 -0.50447 0
M  V30 13580 O 1327.47 1.79684 -0.736712 0
M  V30 13581 C 1324.6 3.03256 -1.69272 0
M  V30 13582 C 1323.56 3.20329 -2.83854 0
M  V30 13583 C 1322.88 4.59958 -2.72659 0
M  V30 13584 C 1324.18 3.03345 -4.25181 0
M  V30 13585 H 1325.88 1.50502 -2.58823 0
M  V30 13586 H 1323.42 0.722612 -1.24556 0
M  V30 13587 H 1325.38 3.81064 -1.79911 0
M  V30 13588 H 1324.1 3.18433 -0.725805 0
M  V30 13589 H 1322.76 2.44937 -2.72766 0
M  V30 13590 H 1322.41 4.71967 -1.73942 0
M  V30 13591 H 1322.11 4.72327 -3.49544 0
M  V30 13592 H 1323.63 5.39869 -2.85262 0
M  V30 13593 H 1325.05 3.70948 -4.37116 0
M  V30 13594 H 1323.44 3.27208 -5.03045 0
M  V30 13595 H 1324.51 1.998 -4.41824 0
M  V30 13596 N 1325.86 1.36875 0.78122 0
M  V30 13597 C 1326.79 1.34559 1.9083 0
M  V30 13598 C 1327.77 0.215713 1.68727 0
M  V30 13599 O 1328.95 0.41462 1.89722 0
M  V30 13600 C 1326.08 1.14233 3.27976 0
M  V30 13601 C 1325.04 2.24132 3.64621 0
M  V30 13602 C 1324.36 1.8894 5.00206 0
M  V30 13603 C 1325.66 3.66266 3.72353 0
M  V30 13604 H 1327.36 2.28871 1.93025 0
M  V30 13605 H 1324.9 1.10171 0.927275 0
M  V30 13606 H 1326.85 1.11246 4.06451 0
M  V30 13607 H 1325.58 0.163747 3.26189 0
M  V30 13608 H 1324.24 2.26259 2.88448 0
M  V30 13609 H 1323.89 0.896351 4.94949 0
M  V30 13610 H 1323.59 2.62525 5.25694 0
M  V30 13611 H 1325.11 1.87523 5.81092 0
M  V30 13612 H 1326.52 3.66321 4.41001 0
M  V30 13613 H 1324.92 4.38825 4.09332 0
M  V30 13614 H 1325.99 4.00578 2.7325 0
M  V30 13615 N 1327.33 -1.00632 1.21289 0
M  V30 13616 C 1328.61 -1.71635 0.938124 0
M  V30 13617 C 1328.99 -2.03798 -0.550416 0
M  V30 13618 O 1328.34 -1.71065 -1.5149 0
M  V30 13619 C 1328.55 -2.97674 1.82184 0
M  V30 13620 C 1329.9 -3.7073 2.06989 0
M  V30 13621 O 1330.92 -3.07653 1.79522 0
M  V30 13622 O 1329.78 -4.84183 2.53435 0
M  V30 13623 H 1326.87 -0.748506 0.351664 0
M  V30 13624 H 1329.42 -1.06387 1.32212 0
M  V30 13625 H 1328.19 -2.70306 2.82931 0
M  V30 13626 H 1327.81 -3.70663 1.43858 0
M  V30 13627 N 1328.81 -1.02043 -1.20104 0
M  V30 13628 C 1330.23 -0.735967 -1.41618 0
M  V30 13629 C 1330.43 0.68285 -1.89577 0
M  V30 13630 O 1329.48 1.45007 -2.06711 0
M  V30 13631 C 1330.8 -1.76492 -2.43457 0
M  V30 13632 C 1332.34 -1.78349 -2.57217 0
M  V30 13633 C 1332.82 -2.80181 -3.62302 0
M  V30 13634 N 1334.31 -2.78945 -3.69789 0
M  V30 13635 C 1335.05 -3.54395 -4.50768 0
M  V30 13636 N 1334.54 -4.39533 -5.35521 0
M  V30 13637 N 1336.33 -3.42974 -4.45337 0
M  V30 13638 H 1328.49 -1.93634 -0.872916 0
M  V30 13639 H 1330.75 -0.836663 -0.445757 0
M  V30 13640 H 1330.45 -2.78158 -2.15223 0
M  V30 13641 H 1330.33 -1.58022 -3.42504 0
M  V30 13642 H 1332.72 -0.773665 -2.84778 0
M  V30 13643 H 1332.8 -2.00894 -1.58352 0
M  V30 13644 H 1332.44 -3.81331 -3.35484 0
M  V30 13645 H 1332.37 -2.54898 -4.60798 0
M  V30 13646 H 1334.86 -2.17189 -3.09253 0
M  V30 13647 H 1335.17 -4.93863 -5.94407 0
M  V30 13648 H 1333.52 -4.43609 -5.3501 0
M  V30 13649 H 1336.71 -2.75881 -3.78163 0
M  V30 13650 H 1336.88 -4.02028 -5.0821 0
M  V30 13651 N 1330.29 1.35952 -0.797165 0
M  V30 13652 C 1331.54 1.99032 -0.373142 0
M  V30 13653 C 1331.87 1.63257 1.05723 0
M  V30 13654 O 1331.12 0.883022 1.74646 0
M  V30 13655 C 1331.42 3.53986 -0.492805 0
M  V30 13656 C 1331.09 4.09603 -1.88511 0
M  V30 13657 C 1329.75 4.24505 -2.26604 0
M  V30 13658 C 1332.1 4.39829 -2.79643 0
M  V30 13659 C 1329.43 4.66946 -3.55215 0
M  V30 13660 C 1331.78 4.83706 -4.0769 0
M  V30 13661 C 1330.44 4.96813 -4.45795 0
M  V30 13662 H 1329.71 0.728311 -0.136542 0
M  V30 13663 H 1332.36 1.62318 -1.01613 0
M  V30 13664 H 1330.67 3.91103 0.233661 0
M  V30 13665 H 1332.36 4.00735 -0.145638 0
M  V30 13666 H 1328.95 3.98449 -1.57912 0
M  V30 13667 H 1333.14 4.27878 -2.51464 0
M  V30 13668 H 1328.39 4.75282 -3.84599 0
M  V30 13669 H 1332.57 5.06057 -4.78414 0
M  V30 13670 H 1330.19 5.29458 -5.45507 0
M  V30 13671 N 1331.77 0.549846 1.47697 0
M  V30 13672 C 1332.68 -0.205286 2.337 0
M  V30 13673 C 1333.69 -0.919271 1.47734 0
M  V30 13674 O 1334.87 -0.889808 1.80678 0
M  V30 13675 C 1331.94 -1.22658 3.24278 0
M  V30 13676 C 1331 -0.520815 4.26129 0
M  V30 13677 C 1330.23 -1.49345 5.12378 0
M  V30 13678 O 1330.45 -2.72772 5.00951 0
M  V30 13679 O 1329.39 -1.02197 5.93161 0
M  V30 13680 H 1333.21 0.499982 2.99556 0
M  V30 13681 H 1330.8 0.310538 1.46137 0
M  V30 13682 H 1332.68 -1.8163 3.80248 0
M  V30 13683 H 1331.35 -1.9139 2.61059 0
M  V30 13684 H 1330.26 0.109906 3.73939 0
M  V30 13685 H 1331.59 0.124922 4.92041 0
M  V30 13686 N 1333.25 -1.54984 0.285932 0
M  V30 13687 C 1334.18 -2.20365 -0.630236 0
M  V30 13688 C 1335.19 -1.19168 -1.10918 0
M  V30 13689 O 1336.38 -1.45839 -1.02923 0
M  V30 13690 C 1333.48 -2.8244 -1.87299 0
M  V30 13691 C 1332.65 -4.09429 -1.53905 0
M  V30 13692 C 1331.71 -4.55449 -2.63538 0
M  V30 13693 O 1330.74 -5.20985 -2.29267 0
M  V30 13694 N 1331.94 -4.26498 -3.93802 0
M  V30 13695 H 1334.71 -2.99617 -0.0706044 0
M  V30 13696 H 1332.27 -1.61543 0.107486 0
M  V30 13697 H 1334.26 -3.10167 -2.59959 0
M  V30 13698 H 1332.83 -2.07117 -2.34139 0
M  V30 13699 H 1332.05 -3.88875 -0.645774 0
M  V30 13700 H 1333.34 -4.92146 -1.29111 0
M  V30 13701 H 1332.73 -3.73964 -4.24461 0
M  V30 13702 H 1331.29 -4.5897 -4.62807 0
M  V30 13703 N 1334.72 -0.0133892 -1.57594 0
M  V30 13704 C 1335.69 0.958601 -2.08191 0
M  V30 13705 C 1336.69 1.26408 -0.993865 0
M  V30 13706 O 1337.88 1.20703 -1.25604 0
M  V30 13707 C 1335.01 2.27971 -2.5346 0
M  V30 13708 H 1336.2 0.520686 -2.95345 0
M  V30 13709 H 1333.76 0.234351 -1.54533 0
M  V30 13710 H 1334.49 2.76424 -1.69588 0
M  V30 13711 H 1334.28 2.07116 -3.32935 0
M  V30 13712 H 1335.77 2.97672 -2.92884 0
M  V30 13713 N 1336.2 1.55448 0.259558 0
M  V30 13714 C 1337.17 1.88459 1.30445 0
M  V30 13715 C 1338.17 0.760096 1.41701 0
M  V30 13716 O 1339.36 1.02819 1.4062 0
M  V30 13717 C 1336.49 2.10181 2.68397 0
M  V30 13718 H 1337.68 2.81877 1.02398 0
M  V30 13719 H 1335.23 1.48145 0.498262 0
M  V30 13720 H 1335.97 1.19189 3.01603 0
M  V30 13721 H 1335.75 2.92066 2.6161 0
M  V30 13722 H 1337.24 2.36947 3.43869 0
M  V30 13723 N 1337.68 -0.524672 1.4861 0
M  V30 13724 C 1338.93 -1.27671 1.5615 0
M  V30 13725 C 1339.24 -1.94088 0.242709 0
M  V30 13726 O 1340.45 -2.70789 0.196407 0
M  V30 13727 C 1338.9 -2.31686 2.75408 0
M  V30 13728 C 1338.51 -1.71315 4.13951 0
M  V30 13729 C 1340.26 -3.07867 2.92264 0
M  V30 13730 C 1338.16 -2.73302 5.24462 0
M  V30 13731 H 1337.09 -0.480177 0.581332 0
M  V30 13732 H 1339.74 -0.553473 1.74954 0
M  V30 13733 H 1338.13 -3.07069 2.50049 0
M  V30 13734 H 1339.3 -1.02085 4.4935 0
M  V30 13735 H 1337.62 -1.07608 4.02255 0
M  V30 13736 H 1340.21 -3.84088 3.71995 0
M  V30 13737 H 1340.56 -3.64052 2.01921 0
M  V30 13738 H 1341.09 -2.39599 3.17549 0
M  V30 13739 H 1337.83 -2.21929 6.16788 0
M  V30 13740 H 1337.35 -3.40843 4.93544 0
M  V30 13741 H 1339.03 -3.36186 5.528 0
M  V30 13742 N 1339.16 -1.37287 -0.77395 0
M  V30 13743 C 1340.44 -1.2291 -1.52159 0
M  V30 13744 C 1340.82 0.178249 -2.10346 0
M  V30 13745 O 1340.16 1.18564 -1.95333 0
M  V30 13746 C 1340.37 -2.32337 -2.60424 0
M  V30 13747 C 1341.72 -2.69769 -3.27887 0
M  V30 13748 O 1342.75 -2.31497 -2.70717 0
M  V30 13749 O 1341.6 -3.35699 -4.31241 0
M  V30 13750 H 1338.7 -0.47948 -0.673816 0
M  V30 13751 H 1341.24 -1.49061 -0.811105 0
M  V30 13752 H 1340.02 -3.26591 -2.15532 0
M  V30 13753 H 1339.64 -2.07638 -3.39076 0
M  V30 13754 N 1340.64 0.999871 -1.21821 0
M  V30 13755 C 1341.55 2.12303 -0.99823 0
M  V30 13756 C 1342.56 1.73924 0.0512923 0
M  V30 13757 O 1343.74 2.00914 -0.139895 0
M  V30 13758 C 1340.8 3.41962 -0.571232 0
M  V30 13759 C 1339.86 3.94483 -1.69356 0
M  V30 13760 C 1339.1 5.17954 -1.28685 0
M  V30 13761 O 1339.32 5.70168 -0.162641 0
M  V30 13762 O 1338.25 5.64051 -2.10071 0
M  V30 13763 H 1342.08 2.3374 -1.93905 0
M  V30 13764 H 1339.67 1.10677 -1.00354 0
M  V30 13765 H 1341.55 4.20001 -0.343134 0
M  V30 13766 H 1340.22 3.21901 0.340814 0
M  V30 13767 H 1339.13 3.17648 -1.97612 0
M  V30 13768 H 1340.46 4.18964 -2.58322 0
M  V30 13769 N 1342.11 1.02678 1.19562 0
M  V30 13770 C 1343.36 0.723086 1.89471 0
M  V30 13771 C 1343.69 -0.746269 1.79289 0
M  V30 13772 O 1342.97 -1.54322 1.18384 0
M  V30 13773 C 1343.25 1.17224 3.40486 0
M  V30 13774 C 1343.1 2.70266 3.5955 0
M  V30 13775 C 1344.42 0.751397 4.33638 0
M  V30 13776 H 1341.54 0.264155 0.688034 0
M  V30 13777 H 1344.18 1.27633 1.40747 0
M  V30 13778 H 1342.33 0.701544 3.82113 0
M  V30 13779 H 1344.01 3.25266 3.27108 0
M  V30 13780 H 1342.25 3.10758 3.02675 0
M  V30 13781 H 1342.92 2.96748 4.65451 0
M  V30 13782 H 1345.4 1.15621 3.99714 0
M  V30 13783 H 1344.27 1.09358 5.37896 0
M  V30 13784 H 1344.53 -0.346367 4.40741 0
M  V30 13785 N 1343.59 -1.35528 0.804364 0
M  V30 13786 C 1344.52 -2.32388 0.227604 0
M  V30 13787 C 1345.5 -1.57368 -0.645709 0
M  V30 13788 O 1346.69 -1.85448 -0.576441 0
M  V30 13789 C 1343.82 -3.41603 -0.62645 0
M  V30 13790 C 1342.77 -4.27743 0.148187 0
M  V30 13791 C 1342.1 -5.28259 -0.827425 0
M  V30 13792 C 1343.4 -5.04661 1.34591 0
M  V30 13793 H 1345.09 -2.80874 1.03684 0
M  V30 13794 H 1342.64 -1.3504 0.500031 0
M  V30 13795 H 1344.59 -4.08365 -1.03999 0
M  V30 13796 H 1343.32 -2.91721 -1.46855 0
M  V30 13797 H 1341.97 -3.62558 0.542874 0
M  V30 13798 H 1341.62 -4.74645 -1.66496 0
M  V30 13799 H 1341.32 -5.86763 -0.313453 0
M  V30 13800 H 1342.85 -5.97893 -1.23921 0
M  V30 13801 H 1344.26 -5.6438 1.00736 0
M  V30 13802 H 1342.66 -5.7265 1.79422 0
M  V30 13803 H 1343.73 -4.35432 2.1337 0
M  V30 13804 N 1345.07 -0.557671 -1.47404 0
M  V30 13805 C 1346.32 -0.0337216 -2.02072 0
M  V30 13806 C 1346.64 1.32106 -1.43433 0
M  V30 13807 O 1345.91 1.86171 -0.609692 0
M  V30 13808 H 1344.49 -0.00947648 -0.74694 0
M  V30 13809 H 1347.15 -0.727784 -1.80802 0
M  V30 13810 H 1346.25 0.0540331 -3.12053 0
M  V30 13811 N 1346.55 1.54831 -0.294147 0
M  V30 13812 C 1347.51 2.21946 0.572061 0
M  V30 13813 C 1348.51 1.20331 1.06663 0
M  V30 13814 O 1349.7 1.45112 0.963757 0
M  V30 13815 C 1346.83 2.90044 1.7913 0
M  V30 13816 H 1348.03 2.99897 -0.0142234 0
M  V30 13817 H 1345.58 1.56235 -0.0449187 0
M  V30 13818 H 1346.32 2.16154 2.4176 0
M  V30 13819 H 1346.1 3.64527 1.44439 0
M  V30 13820 H 1347.59 3.41263 2.40684 0
M  V30 13821 N 1348.03 0.0217466 1.57585 0
M  V30 13822 C 1349.28 -0.657187 1.91116 0
M  V30 13823 C 1349.6 -1.7309 0.898039 0
M  V30 13824 O 1348.87 -1.95803 -0.0615116 0
M  V30 13825 H 1347.45 -0.245732 0.705425 0
M  V30 13826 H 1350.11 0.0678096 1.94782 0
M  V30 13827 H 1349.2 -1.11462 2.91518 0
M  V30 13828 N 1349.51 -1.55583 -0.251311 0
M  V30 13829 C 1350.75 -1.77471 -0.981418 0
M  V30 13830 C 1351.08 -0.586228 -1.85141 0
M  V30 13831 O 1350.36 0.415623 -1.90007 0
M  V30 13832 C 1350.64 -3.09204 -1.84567 0
M  V30 13833 C 1350.5 -4.38448 -1.00417 0
M  V30 13834 C 1351.81 -3.37133 -2.82895 0
M  V30 13835 H 1348.93 -0.645664 -0.355369 0
M  V30 13836 H 1351.58 -1.88318 -0.252228 0
M  V30 13837 H 1349.73 -3.00087 -2.46738 0
M  V30 13838 H 1351.4 -4.5955 -0.40149 0
M  V30 13839 H 1349.64 -4.32703 -0.308365 0
M  V30 13840 H 1350.31 -5.26995 -1.64258 0
M  V30 13841 H 1352.79 -3.46183 -2.3086 0
M  V30 13842 H 1351.66 -4.30531 -3.40491 0
M  V30 13843 H 1351.92 -2.57829 -3.59133 0
M  V30 13844 N 1350.98 0.516783 -1.48886 0
M  V30 13845 C 1351.89 1.6467 -1.67095 0
M  V30 13846 C 1352.91 1.64963 -0.553466 0
M  V30 13847 O 1354.09 1.83673 -0.826206 0
M  V30 13848 C 1351.15 3.01095 -1.71879 0
M  V30 13849 C 1350.21 3.11554 -2.95352 0
M  V30 13850 C 1349.44 4.41471 -2.99898 0
M  V30 13851 O 1349.67 5.29348 -2.12477 0
M  V30 13852 O 1348.6 4.56573 -3.92205 0
M  V30 13853 H 1352.43 1.52242 -2.62785 0
M  V30 13854 H 1350.01 0.69134 -1.32442 0
M  V30 13855 H 1351.89 3.82207 -1.77471 0
M  V30 13856 H 1350.57 3.1382 -0.793656 0
M  V30 13857 H 1349.48 2.29689 -2.95286 0
M  V30 13858 H 1350.81 3.03751 -3.87294 0
M  V30 13859 N 1352.46 1.37696 0.766659 0
M  V30 13860 C 1353.87 1.29668 1.34324 0
M  V30 13861 C 1354.22 -0.0534297 1.96127 0
M  V30 13862 O 1353.35 -0.95534 1.94171 0
M  V30 13863 C 1353.94 2.34818 2.44225 0
M  V30 13864 C 1352.5 2.3041 2.97638 0
M  V30 13865 C 1351.65 2.18378 1.70899 0
M  V30 13866 H 1354.6 1.48244 0.566526 0
M  V30 13867 H 1354.62 1.99778 3.23835 0
M  V30 13868 H 1354.13 3.3307 1.99214 0
M  V30 13869 H 1352.23 1.35698 3.47011 0
M  V30 13870 H 1352.35 3.24028 3.52906 0
M  V30 13871 H 1350.71 1.65008 1.94021 0
M  V30 13872 H 1351.49 3.18551 1.27985 0
M  V30 13873 N 1353.94 -0.993397 1.22349 0
M  V30 13874 C 1354.89 -2.0834 0.993123 0
M  V30 13875 C 1355.86 -1.65883 -0.0849717 0
M  V30 13876 O 1357.04 -1.90691 0.0645176 0
M  V30 13877 C 1354.18 -3.40252 0.576434 0
M  V30 13878 C 1353.29 -3.96055 1.72524 0
M  V30 13879 C 1352.43 -5.16123 1.25659 0
M  V30 13880 C 1351.47 -5.64062 2.37698 0
M  V30 13881 N 1350.61 -6.7537 1.91883 0
M  V30 13882 H 1355.45 -2.27381 1.92619 0
M  V30 13883 H 1352.98 -1.11476 0.959763 0
M  V30 13884 H 1354.94 -4.16001 0.316021 0
M  V30 13885 H 1353.57 -3.21214 -0.319626 0
M  V30 13886 H 1352.62 -3.17182 2.1 0
M  V30 13887 H 1353.93 -4.27614 2.56802 0
M  V30 13888 H 1353.09 -5.9916 0.953528 0
M  V30 13889 H 1351.83 -4.86186 0.384011 0
M  V30 13890 H 1350.83 -4.79614 2.68794 0
M  V30 13891 H 1352.06 -5.96025 3.25471 0
M  V30 13892 H 1350 -6.47217 1.06986 0
M  V30 13893 H 1349.92 -7.06246 2.69727 0
M  V30 13894 H 1351.19 -7.61914 1.64644 0
M  V30 13895 N 1355.42 -1.03311 -1.19015 0
M  V30 13896 C 1356.69 -0.646539 -1.84606 0
M  V30 13897 C 1357.07 0.87449 -1.92135 0
M  V30 13898 O 1356.42 1.77291 -1.44154 0
M  V30 13899 C 1356.63 -1.31354 -3.23338 0
M  V30 13900 C 1357.98 -1.43949 -3.99455 0
M  V30 13901 O 1359 -1.27104 -3.32751 0
M  V30 13902 O 1357.86 -1.71328 -5.1895 0
M  V30 13903 H 1354.96 -0.225267 -0.795728 0
M  V30 13904 H 1357.5 -1.13152 -1.2647 0
M  V30 13905 H 1356.28 -2.3521 -3.12717 0
M  V30 13906 H 1355.9 -0.816688 -3.89122 0
M  V30 13907 N 1356.9 1.35099 -0.81154 0
M  V30 13908 C 1358.14 1.9892 -0.394815 0
M  V30 13909 C 1358.47 1.6422 1.0366 0
M  V30 13910 O 1357.75 0.908031 1.72003 0
M  V30 13911 C 1358.03 3.55331 -0.58413 0
M  V30 13912 C 1357.89 3.99812 -2.06084 0
M  V30 13913 C 1359.2 4.40098 -0.0129096 0
M  V30 13914 H 1356.32 0.72261 -0.144926 0
M  V30 13915 H 1358.97 1.60173 -1.02199 0
M  V30 13916 H 1357.12 3.88468 -0.0502446 0
M  V30 13917 H 1358.79 3.77061 -2.65749 0
M  V30 13918 H 1357.03 3.50539 -2.55548 0
M  V30 13919 H 1357.7 5.08655 -2.14416 0
M  V30 13920 H 1360.18 4.13449 -0.468917 0
M  V30 13921 H 1359.05 5.4862 -0.175252 0
M  V30 13922 H 1359.31 4.28675 1.0812 0
M  V30 13923 N 1358.37 0.56548 1.47106 0
M  V30 13924 C 1359.34 -0.167191 2.28589 0
M  V30 13925 C 1360.34 -0.835005 1.3742 0
M  V30 13926 O 1361.53 -0.689598 1.59969 0
M  V30 13927 C 1358.66 -1.24548 3.17333 0
M  V30 13928 H 1359.85 0.548677 2.94838 0
M  V30 13929 H 1357.4 0.322749 1.52931 0
M  V30 13930 H 1358.14 -1.99348 2.55794 0
M  V30 13931 H 1357.92 -0.771335 3.84438 0
M  V30 13932 H 1359.41 -1.75985 3.78707 0
M  V30 13933 N 1359.85 -1.54672 0.302354 0
M  V30 13934 C 1361.08 -2.05041 -0.311891 0
M  V30 13935 C 1361.5 -1.17814 -1.46634 0
M  V30 13936 O 1360.86 -0.182517 -1.80379 0
M  V30 13937 C 1360.91 -3.52831 -0.744489 0
M  V30 13938 O 1360.01 -3.68621 -1.84913 0
M  V30 13939 H 1359.35 -0.661255 -0.0603102 0
M  V30 13940 H 1361.88 -1.99711 0.444593 0
M  V30 13941 H 1361.89 -3.94708 -1.03293 0
M  V30 13942 H 1360.57 -4.1578 0.0999976 0
M  V30 13943 H 1359.15 -3.38649 -1.56113 0
M  V30 13944 N 1361.33 -0.0301034 -1.57571 0
M  V30 13945 C 1362.75 0.326296 -1.56229 0
M  V30 13946 C 1362.95 1.72839 -1.03581 0
M  V30 13947 O 1362 2.43088 -0.682979 0
M  V30 13948 C 1363.32 0.174001 -3.00196 0
M  V30 13949 C 1364.86 0.246694 -3.12026 0
M  V30 13950 C 1365.34 0.123177 -4.57834 0
M  V30 13951 N 1366.83 0.180129 -4.6285 0
M  V30 13952 C 1367.56 0.108353 -5.73298 0
M  V30 13953 N 1367.06 -0.0145648 -6.92798 0
M  V30 13954 N 1368.85 0.162411 -5.61865 0
M  V30 13955 H 1361 -0.946945 -1.90123 0
M  V30 13956 H 1363.27 -0.365762 -0.874598 0
M  V30 13957 H 1362.97 -0.791871 -3.42669 0
M  V30 13958 H 1362.85 0.943794 -3.65202 0
M  V30 13959 H 1365.23 1.20303 -2.69465 0
M  V30 13960 H 1365.32 -0.553493 -2.4974 0
M  V30 13961 H 1364.96 -0.82974 -5.01077 0
M  V30 13962 H 1364.89 0.94224 -5.18102 0
M  V30 13963 H 1367.38 0.275236 -3.76896 0
M  V30 13964 H 1367.69 -0.062614 -7.72775 0
M  V30 13965 H 1366.04 -0.0493606 -6.94982 0
M  V30 13966 H 1369.23 0.256847 -4.67395 0
M  V30 13967 H 1369.4 0.103013 -6.47918 0
M  V30 13968 N 1362.81 1.55714 0.243056 0
M  V30 13969 C 1364.22 1.48224 0.591754 0
M  V30 13970 C 1364.42 0.72105 1.88157 0
M  V30 13971 O 1363.48 0.251966 2.5124 0
M  V30 13972 C 1364.79 2.92655 0.690918 0
M  V30 13973 C 1366.34 3.03048 0.782988 0
M  V30 13974 C 1366.82 4.48794 0.913682 0
M  V30 13975 N 1368.31 4.52748 0.978454 0
M  V30 13976 C 1369.04 5.62771 1.09891 0
M  V30 13977 N 1368.54 6.82596 1.18467 0
M  V30 13978 N 1370.33 5.50576 1.13237 0
M  V30 13979 H 1362.48 2.03642 -0.603614 0
M  V30 13980 H 1364.75 0.924702 -0.208878 0
M  V30 13981 H 1364.45 3.51203 -0.186871 0
M  V30 13982 H 1364.33 3.43357 1.5616 0
M  V30 13983 H 1366.71 2.44578 1.65123 0
M  V30 13984 H 1366.79 2.55551 -0.112921 0
M  V30 13985 H 1366.44 5.07875 0.0499835 0
M  V30 13986 H 1366.37 4.93976 1.82469 0
M  V30 13987 H 1368.86 3.66445 0.92337 0
M  V30 13988 H 1369.17 7.62197 1.27576 0
M  V30 13989 H 1367.52 6.85349 1.15418 0
M  V30 13990 H 1370.71 4.55897 1.06188 0
M  V30 13991 H 1370.88 6.36358 1.2228 0
M  V30 13992 N 1364.29 -0.50888 1.49158 0
M  V30 13993 C 1365.22 -1.62008 1.68154 0
M  V30 13994 C 1366.2 -1.61624 0.53025 0
M  V30 13995 O 1367.38 -1.78489 0.765205 0
M  V30 13996 C 1364.51 -3.00525 1.74075 0
M  V30 13997 C 1363.47 -3.15773 2.88915 0
M  V30 13998 C 1362.79 -4.55562 2.79942 0
M  V30 13999 C 1364.09 -2.96542 4.29953 0
M  V30 14000 H 1365.79 -1.46365 2.61185 0
M  V30 14001 H 1363.33 -0.702705 1.2569 0
M  V30 14002 H 1365.29 -3.78154 1.8595 0
M  V30 14003 H 1364.01 -3.17238 0.776373 0
M  V30 14004 H 1362.67 -2.40567 2.76628 0
M  V30 14005 H 1362.32 -4.6914 1.81429 0
M  V30 14006 H 1362.02 -4.66706 3.57015 0
M  V30 14007 H 1363.54 -5.35262 2.93814 0
M  V30 14008 H 1364.95 -3.63947 4.42963 0
M  V30 14009 H 1363.35 -3.19164 5.08187 0
M  V30 14010 H 1364.42 -1.92745 4.44946 0
M  V30 14011 N 1365.76 -1.381 -0.759346 0
M  V30 14012 C 1367.01 -1.33727 -1.5153 0
M  V30 14013 C 1367.33 0.0739504 -1.9486 0
M  V30 14014 O 1366.6 1.02049 -1.67221 0
M  V30 14015 H 1365.18 -0.492037 -0.562058 0
M  V30 14016 H 1367.85 -1.72719 -0.902995 0
M  V30 14017 H 1366.94 -1.98439 -2.40891 0
M  V30 14018 N 1367.24 0.986894 -1.22875 0
M  V30 14019 C 1368.66 1.25185 -0.989997 0
M  V30 14020 C 1368.86 1.99057 0.31282 0
M  V30 14021 O 1367.91 2.30361 1.03392 0
M  V30 14022 C 1369.23 2.05775 -2.19265 0
M  V30 14023 C 1370.78 2.18938 -2.23686 0
M  V30 14024 C 1371.25 3.02917 -3.43519 0
M  V30 14025 N 1372.74 3.10503 -3.43718 0
M  V30 14026 C 1373.48 3.75789 -4.33094 0
M  V30 14027 N 1372.97 4.42952 -5.32696 0
M  V30 14028 N 1374.77 3.72611 -4.20854 0
M  V30 14029 H 1366.92 0.491816 -2.06628 0
M  V30 14030 H 1369.18 0.279856 -0.905751 0
M  V30 14031 H 1368.89 1.58864 -3.13776 0
M  V30 14032 H 1368.76 3.06529 -2.19818 0
M  V30 14033 H 1371.15 2.65061 -1.29718 0
M  V30 14034 H 1371.23 1.17595 -2.27168 0
M  V30 14035 H 1370.87 2.57493 -4.3779 0
M  V30 14036 H 1370.8 4.04415 -3.37277 0
M  V30 14037 H 1373.29 2.62709 -2.71647 0
M  V30 14038 H 1373.61 4.90527 -5.97162 0
M  V30 14039 H 1371.95 4.41681 -5.36603 0
M  V30 14040 H 1375.14 3.19305 -3.42289 0
M  V30 14041 H 1375.31 4.2321 -4.90711 0
M  V30 14042 N 1368.72 1.0394 1.18466 0
M  V30 14043 C 1369.68 0.633804 2.20262 0
M  V30 14044 C 1370.68 -0.308136 1.5782 0
M  V30 14045 O 1371.87 -0.0937087 1.73948 0
M  V30 14046 C 1369.01 -0.0709693 3.40826 0
M  V30 14047 H 1370.2 1.53463 2.57661 0
M  V30 14048 H 1367.75 0.831806 1.32328 0
M  V30 14049 H 1368.49 -0.985659 3.08958 0
M  V30 14050 H 1368.27 0.606023 3.87388 0
M  V30 14051 H 1369.76 -0.341298 4.16203 0
M  V30 14052 N 1370.2 -1.34667 0.818693 0
M  V30 14053 C 1371.48 -1.92838 0.327521 0
M  V30 14054 C 1371.86 -1.74732 -1.18457 0
M  V30 14055 O 1371.2 -1.12352 -1.98971 0
M  V30 14056 C 1371.41 -3.40797 0.752207 0
M  V30 14057 C 1372.76 -4.17948 0.748613 0
M  V30 14058 O 1373.79 -3.49364 0.694517 0
M  V30 14059 O 1372.64 -5.40344 0.817958 0
M  V30 14060 H 1369.74 -0.822249 0.0885148 0
M  V30 14061 H 1372.28 -1.43668 0.9032 0
M  V30 14062 H 1371.06 -3.47759 1.79387 0
M  V30 14063 H 1370.68 -3.97309 0.151992 0
M  V30 14064 N 1371.68 -0.573274 -1.46804 0
M  V30 14065 C 1372.92 -0.0553432 -2.02724 0
M  V30 14066 C 1373.26 1.29753 -1.44492 0
M  V30 14067 O 1372.53 1.84804 -0.606455 0
M  V30 14068 C 1372.81 0.0205511 -3.60094 0
M  V30 14069 C 1372.67 -1.36055 -4.2873 0
M  V30 14070 C 1373.99 0.725944 -4.34071 0
M  V30 14071 H 1371.1 -0.0215858 -0.736684 0
M  V30 14072 H 1373.75 -0.738657 -1.75054 0
M  V30 14073 H 1371.9 0.602481 -3.838 0
M  V30 14074 H 1373.57 -1.98692 -4.16316 0
M  V30 14075 H 1371.81 -1.93087 -3.88458 0
M  V30 14076 H 1372.48 -1.26001 -5.37427 0
M  V30 14077 H 1374.96 0.231677 -4.15455 0
M  V30 14078 H 1373.83 0.74805 -5.43779 0
M  V30 14079 H 1374.1 1.78536 -4.04447 0
M  V30 14080 N 1373.15 1.5451 -0.310553 0
M  V30 14081 C 1374.12 2.2254 0.548489 0
M  V30 14082 C 1375.12 1.21456 1.05381 0
M  V30 14083 O 1376.31 1.46126 0.948311 0
M  V30 14084 C 1373.44 2.91927 1.76043 0
M  V30 14085 H 1374.63 2.99865 -0.0460306 0
M  V30 14086 H 1372.19 1.56179 -0.061487 0
M  V30 14087 H 1372.92 2.18706 2.39454 0
M  V30 14088 H 1372.71 3.66038 1.40564 0
M  V30 14089 H 1374.2 3.43797 2.37051 0
M  V30 14090 N 1374.63 0.0384594 1.57553 0
M  V30 14091 C 1375.88 -0.636879 1.91803 0
M  V30 14092 C 1376.2 -1.72128 0.916347 0
M  V30 14093 O 1375.47 -1.95858 -0.0407405 0
M  V30 14094 H 1374.05 -0.238237 0.707992 0
M  V30 14095 H 1376.71 0.0884651 1.94699 0
M  V30 14096 H 1375.81 -1.08364 2.92683 0
M  V30 14097 N 1376.11 -1.55841 -0.234795 0
M  V30 14098 C 1377.52 -1.68555 -0.802886 0
M  V30 14099 C 1377.87 -0.638107 -1.85533 0
M  V30 14100 O 1377 0.21333 -2.15346 0
M  V30 14101 C 1377.59 -3.0558 -1.46309 0
M  V30 14102 C 1376.15 -3.20192 -1.97874 0
M  V30 14103 C 1375.3 -2.64457 -0.834136 0
M  V30 14104 H 1378.25 -1.58697 -0.0103759 0
M  V30 14105 H 1378.27 -3.007 -2.33152 0
M  V30 14106 H 1377.78 -3.81792 -0.696868 0
M  V30 14107 H 1375.88 -2.48825 -2.77339 0
M  V30 14108 H 1376 -4.27251 -2.1678 0
M  V30 14109 H 1374.36 -2.22593 -1.23791 0
M  V30 14110 H 1375.14 -3.43205 -0.0807988 0
M  V30 14111 N 1377.59 0.500963 -1.49426 0
M  V30 14112 C 1378.52 1.61114 -1.69011 0
M  V30 14113 C 1379.5 1.61341 -0.538813 0
M  V30 14114 O 1380.69 1.78081 -0.77466 0
M  V30 14115 C 1377.82 2.99598 -1.75666 0
M  V30 14116 C 1376.77 3.14236 -2.90585 0
M  V30 14117 C 1376.1 4.54071 -2.82354 0
M  V30 14118 C 1377.4 2.94258 -4.3152 0
M  V30 14119 H 1379.09 1.44978 -2.61957 0
M  V30 14120 H 1376.64 0.69603 -1.26061 0
M  V30 14121 H 1378.59 3.77163 -1.87953 0
M  V30 14122 H 1377.31 3.16822 -0.793186 0
M  V30 14123 H 1375.97 2.39096 -2.779 0
M  V30 14124 H 1375.62 4.68172 -1.83914 0
M  V30 14125 H 1375.32 4.64806 -3.59485 0
M  V30 14126 H 1376.84 5.33696 -2.96649 0
M  V30 14127 H 1378.26 3.61592 -4.44886 0
M  V30 14128 H 1376.65 3.16464 -5.09873 0
M  V30 14129 H 1377.72 1.90383 -4.45962 0
M  V30 14130 N 1379.07 1.38501 0.752011 0
M  V30 14131 C 1380.03 1.35655 1.84744 0
M  V30 14132 C 1381.03 0.256772 1.58737 0
M  V30 14133 O 1382.22 0.513749 1.66452 0
M  V30 14134 C 1379.35 1.11231 3.22243 0
M  V30 14135 H 1380.55 2.33114 1.88674 0
M  V30 14136 H 1378.1 1.23818 0.953882 0
M  V30 14137 H 1378.83 0.143848 3.23981 0
M  V30 14138 H 1378.62 1.90857 3.42515 0
M  V30 14139 H 1380.11 1.11939 4.02318 0
M  V30 14140 N 1380.55 -0.980364 1.23396 0
M  V30 14141 C 1381.79 -1.72421 1.06765 0
M  V30 14142 C 1382.12 -1.90151 -0.394515 0
M  V30 14143 O 1381.4 -1.4538 -1.29209 0
M  V30 14144 C 1381.68 -3.12246 1.79372 0
M  V30 14145 C 1381.54 -3.02087 3.33262 0
M  V30 14146 C 1382.85 -4.11667 1.55624 0
M  V30 14147 H 1379.97 -0.625822 0.389251 0
M  V30 14148 H 1382.62 -1.14132 1.51901 0
M  V30 14149 H 1380.77 -3.62008 1.41004 0
M  V30 14150 H 1382.44 -2.59848 3.81152 0
M  V30 14151 H 1380.68 -2.38592 3.62293 0
M  V30 14152 H 1381.35 -4.01087 3.79254 0
M  V30 14153 H 1383.83 -3.70712 1.88975 0
M  V30 14154 H 1382.7 -5.07593 2.08902 0
M  V30 14155 H 1382.96 -4.39358 0.491601 0
M  V30 14156 N 1382.02 -1.04567 -1.17913 0
M  V30 14157 C 1383.27 -0.753137 -1.88297 0
M  V30 14158 C 1383.6 0.717651 -1.80453 0
M  V30 14159 O 1382.88 1.5242 -1.20824 0
M  V30 14160 C 1383.16 -1.22626 -3.38578 0
M  V30 14161 C 1383.01 -2.75952 -3.55205 0
M  V30 14162 C 1384.33 -0.82029 -4.32388 0
M  V30 14163 H 1381.45 -0.275067 -0.683745 0
M  V30 14164 H 1384.09 -1.29856 -1.38699 0
M  V30 14165 H 1382.24 -0.762246 -3.80949 0
M  V30 14166 H 1383.92 -3.30429 -3.21892 0
M  V30 14167 H 1382.16 -3.15534 -2.97693 0
M  V30 14168 H 1382.83 -3.04116 -4.60671 0
M  V30 14169 H 1385.31 -1.21965 -3.97824 0
M  V30 14170 H 1384.18 -1.17902 -5.36088 0
M  V30 14171 H 1384.44 0.276205 -4.41236 0
M  V30 14172 N 1383.5 1.34231 -0.825823 0
M  V30 14173 C 1384.43 2.31997 -0.264546 0
M  V30 14174 C 1385.41 1.58375 0.620592 0
M  V30 14175 O 1386.6 1.86341 0.546865 0
M  V30 14176 C 1383.73 3.42557 0.572025 0
M  V30 14177 C 1382.68 4.27454 -0.216219 0
M  V30 14178 C 1382.01 5.29509 0.743279 0
M  V30 14179 C 1383.31 5.02456 -1.42603 0
M  V30 14180 H 1385 2.79189 -1.08139 0
M  V30 14181 H 1382.55 1.34227 -0.521451 0
M  V30 14182 H 1384.5 4.09968 0.974889 0
M  V30 14183 H 1383.22 2.94021 1.42195 0
M  V30 14184 H 1381.88 3.61649 -0.600485 0
M  V30 14185 H 1381.53 4.77234 1.58924 0
M  V30 14186 H 1381.23 5.87188 0.220064 0
M  V30 14187 H 1382.76 5.99789 1.14394 0
M  V30 14188 H 1384.17 5.62706 -1.09702 0
M  V30 14189 H 1382.57 5.69723 -1.88509 0
M  V30 14190 H 1383.64 4.31983 -2.2027 0
M  V30 14191 N 1384.98 0.581051 1.46498 0
M  V30 14192 C 1386.26 -0.000789846 1.956 0
M  V30 14193 C 1386.64 -1.46104 1.52371 0
M  V30 14194 O 1385.98 -2.15005 0.773623 0
M  V30 14195 C 1386.19 0.169534 3.48588 0
M  V30 14196 C 1387.54 0.036499 4.24584 0
M  V30 14197 O 1388.57 0.0982852 3.56064 0
M  V30 14198 O 1387.43 -0.100571 5.46407 0
M  V30 14199 H 1384.52 -0.050749 0.825441 0
M  V30 14200 H 1387.07 0.649252 1.56789 0
M  V30 14201 H 1385.84 1.18473 3.72934 0
M  V30 14202 H 1385.46 -0.517017 3.94224 0
M  V30 14203 N 1386.46 -1.54343 0.318742 0
M  V30 14204 C 1387.42 -2.22828 -0.536679 0
M  V30 14205 C 1388.42 -1.22013 -1.04735 0
M  V30 14206 O 1389.61 -1.46626 -0.940549 0
M  V30 14207 C 1386.74 -2.92857 -1.74493 0
M  V30 14208 H 1387.94 -2.99836 0.0619325 0
M  V30 14209 H 1385.49 -1.56144 0.0697687 0
M  V30 14210 H 1386.22 -2.19973 -2.3829 0
M  V30 14211 H 1386.01 -3.66779 -1.38621 0
M  V30 14212 H 1387.5 -3.45049 -2.35225 0
M  V30 14213 N 1387.94 -0.0468143 -1.5753 0
M  V30 14214 C 1389.35 0.489509 -1.80169 0
M  V30 14215 C 1389.7 1.71184 -0.958669 0
M  V30 14216 O 1388.82 2.15699 -0.174025 0
M  V30 14217 C 1389.42 0.894838 -3.26769 0
M  V30 14218 C 1387.98 1.37617 -3.50341 0
M  V30 14219 C 1387.12 0.349275 -2.75092 0
M  V30 14220 H 1390.07 -0.272728 -1.56339 0
M  V30 14221 H 1390.1 1.75805 -3.3745 0
M  V30 14222 H 1389.61 0.00501096 -3.881 0
M  V30 14223 H 1387.71 2.28533 -2.94285 0
M  V30 14224 H 1387.82 1.37133 -4.59055 0
M  V30 14225 H 1386.19 0.821219 -2.41098 0
M  V30 14226 H 1386.97 -0.532391 -3.39147 0
M  V30 14227 N 1389.41 1.55964 0.226527 0
M  V30 14228 C 1390.69 1.69528 0.975689 0
M  V30 14229 C 1391.07 0.592635 2.02611 0
M  V30 14230 O 1390.42 -0.401073 2.24953 0
M  V30 14231 C 1390.63 3.10644 1.59063 0
M  V30 14232 C 1391.98 3.69895 2.08478 0
M  V30 14233 O 1393 3.13574 1.68966 0
M  V30 14234 O 1391.86 4.68672 2.81085 0
M  V30 14235 H 1388.95 0.690285 0.455451 0
M  V30 14236 H 1391.5 1.68285 0.218702 0
M  V30 14237 H 1390.27 3.82355 0.831903 0
M  V30 14238 H 1389.9 3.15984 2.41329 0
M  V30 14239 N 1390.89 -0.493031 1.4969 0
M  V30 14240 C 1392.14 -1.24849 1.59814 0
M  V30 14241 C 1392.47 -1.92059 0.287555 0
M  V30 14242 O 1391.75 -1.81099 -0.709471 0
M  V30 14243 C 1392.03 -2.30929 2.76304 0
M  V30 14244 C 1391.88 -1.68167 4.17181 0
M  V30 14245 C 1393.2 -3.32427 2.8841 0
M  V30 14246 H 1390.32 -0.452553 0.581691 0
M  V30 14247 H 1392.96 -0.545455 1.82002 0
M  V30 14248 H 1391.11 -2.9089 2.57517 0
M  V30 14249 H 1392.78 -1.11971 4.47504 0
M  V30 14250 H 1391.03 -0.985496 4.22458 0
M  V30 14251 H 1391.7 -2.45148 4.94577 0
M  V30 14252 H 1394.17 -2.82464 3.05537 0
M  V30 14253 H 1393.05 -4.04004 3.71581 0
M  V30 14254 H 1393.31 -3.95234 1.98097 0
M  V30 14255 N 1392.37 -1.38898 -0.744656 0
M  V30 14256 C 1393.79 -1.20291 -1.04892 0
M  V30 14257 C 1393.99 -0.0577705 -2.01417 0
M  V30 14258 O 1393.04 0.593638 -2.45422 0
M  V30 14259 C 1394.36 -2.53302 -1.62045 0
M  V30 14260 C 1395.9 -2.60063 -1.74173 0
M  V30 14261 C 1396.38 -3.93272 -2.34736 0
M  V30 14262 N 1397.87 -3.9486 -2.42157 0
M  V30 14263 C 1398.6 -4.94698 -2.89933 0
M  V30 14264 N 1398.1 -6.04934 -3.37678 0
M  V30 14265 N 1399.89 -4.82083 -2.89055 0
M  V30 14266 H 1392.04 -2.12144 -0.104294 0
M  V30 14267 H 1394.31 -0.941725 -0.108895 0
M  V30 14268 H 1394.01 -3.376 -0.985868 0
M  V30 14269 H 1393.89 -2.72335 -2.60986 0
M  V30 14270 H 1396.27 -1.76155 -2.36756 0
M  V30 14271 H 1396.36 -2.44889 -0.739115 0
M  V30 14272 H 1396 -4.77607 -1.72784 0
M  V30 14273 H 1395.93 -4.05762 -3.35656 0
M  V30 14274 H 1398.42 -3.15243 -2.08399 0
M  V30 14275 H 1398.73 -6.77036 -3.72616 0
M  V30 14276 H 1397.08 -6.08541 -3.35712 0
M  V30 14277 H 1400.27 -3.9507 -2.51072 0
M  V30 14278 H 1400.44 -5.60039 -3.25975 0
M  V30 14279 N 1393.85 0.973806 -1.23914 0
M  V30 14280 C 1395.09 1.71927 -1.08685 0
M  V30 14281 C 1395.45 1.88781 0.371428 0
M  V30 14282 O 1394.74 1.43378 1.27095 0
M  V30 14283 C 1394.94 3.11441 -1.75326 0
M  V30 14284 C 1394.77 3.08196 -3.27483 0
M  V30 14285 C 1393.54 3.13018 -3.96671 0
M  V30 14286 C 1395.73 2.90848 -4.2416 0
M  V30 14287 N 1393.72 2.99727 -5.35758 0
M  V30 14288 C 1395.09 2.85789 -5.50204 0
M  V30 14289 C 1397.14 2.75382 -4.14812 0
M  V30 14290 C 1395.84 2.66847 -6.67971 0
M  V30 14291 C 1397.87 2.57806 -5.3225 0
M  V30 14292 C 1397.23 2.53451 -6.57223 0
M  V30 14293 H 1393.33 0.637935 -0.452286 0
M  V30 14294 H 1395.92 1.15502 -1.5674 0
M  V30 14295 H 1394.09 3.66071 -1.29794 0
M  V30 14296 H 1395.82 3.74659 -1.53012 0
M  V30 14297 H 1392.57 3.21458 -3.47795 0
M  V30 14298 H 1393 2.96339 -6.08697 0
M  V30 14299 H 1397.64 2.77535 -3.18958 0
M  V30 14300 H 1395.36 2.63438 -7.63954 0
M  V30 14301 H 1398.94 2.46793 -5.26863 0
M  V30 14302 H 1397.82 2.40023 -7.46565 0
M  V30 14303 N 1395.33 1.05191 1.17357 0
M  V30 14304 C 1396.29 0.65713 2.19578 0
M  V30 14305 C 1397.29 -0.29138 1.58138 0
M  V30 14306 O 1398.48 -0.075254 1.74037 0
M  V30 14307 C 1395.61 -0.0348162 3.40882 0
M  V30 14308 H 1396.8 1.56188 2.56018 0
M  V30 14309 H 1394.36 0.845795 1.31438 0
M  V30 14310 H 1395.09 -0.952835 3.09986 0
M  V30 14311 H 1394.88 0.647076 3.86724 0
M  V30 14312 H 1396.37 -0.297135 4.16542 0
M  V30 14313 N 1396.8 -1.33791 0.83293 0
M  V30 14314 C 1398.05 -1.97582 0.42494 0
M  V30 14315 C 1398.37 -1.66328 -1.01784 0
M  V30 14316 O 1397.64 -0.959141 -1.70814 0
M  V30 14317 H 1396.22 -0.730923 0.154143 0
M  V30 14318 H 1398.89 -1.63257 1.06458 0
M  V30 14319 H 1397.98 -3.07177 0.552127 0
M  V30 14320 N 1398.28 -0.588812 -1.46187 0
M  V30 14321 C 1399.7 -0.250962 -1.57615 0
M  V30 14322 C 1399.9 1.2467 -1.58302 0
M  V30 14323 O 1398.95 2.02876 -1.50325 0
M  V30 14324 C 1400.27 -0.905561 -2.8674 0
M  V30 14325 C 1401.82 -0.879721 -3.00383 0
M  V30 14326 C 1402.29 -1.51398 -4.32253 0
M  V30 14327 N 1403.78 -1.4786 -4.38967 0
M  V30 14328 C 1404.52 -1.93868 -5.39632 0
M  V30 14329 N 1404.01 -2.47876 -6.46938 0
M  V30 14330 N 1405.81 -1.84748 -5.30872 0
M  V30 14331 H 1397.96 -1.56148 -1.43985 0
M  V30 14332 H 1400.22 -0.653028 -0.68721 0
M  V30 14333 H 1399.93 -1.95935 -2.92066 0
M  V30 14334 H 1399.8 -0.417456 -3.74883 0
M  V30 14335 H 1402.19 0.165466 -2.94636 0
M  V30 14336 H 1402.27 -1.40591 -2.137 0
M  V30 14337 H 1401.91 -2.55839 -4.38758 0
M  V30 14338 H 1401.84 -0.962965 -5.17721 0
M  V30 14339 H 1404.33 -1.08387 -3.62023 0
M  V30 14340 H 1404.65 -2.80824 -7.1997 0
M  V30 14341 H 1402.99 -2.51905 -6.47741 0
M  V30 14342 H 1406.18 -1.42307 -4.45944 0
M  V30 14343 H 1406.35 -2.20919 -6.09179 0
M  V30 14344 N 1399.76 1.54172 -0.326923 0
M  V30 14345 C 1400.99 2.05044 0.276508 0
M  V30 14346 C 1401.4 1.20288 1.45521 0
M  V30 14347 O 1400.76 0.234324 1.80989 0
M  V30 14348 C 1400.81 3.54505 0.707714 0
M  V30 14349 O 1400.53 4.36042 -0.424098 0
M  V30 14350 C 1402.03 4.21482 1.3736 0
M  V30 14351 H 1399.25 0.668632 0.0563273 0
M  V30 14352 H 1401.8 1.98929 -0.474087 0
M  V30 14353 H 1399.95 3.60896 1.40828 0
M  V30 14354 H 1400.37 5.24433 -0.0836846 0
M  V30 14355 H 1401.84 5.27501 1.62623 0
M  V30 14356 H 1402.32 3.72802 2.32196 0
M  V30 14357 H 1402.92 4.19238 0.715526 0
M  V30 14358 N 1401.24 0.0551678 1.57503 0
M  V30 14359 C 1402.48 -0.618636 1.93134 0
M  V30 14360 C 1402.82 -1.70258 0.934125 0
M  V30 14361 O 1402.09 -1.9446 -0.0392699 0
M  V30 14362 C 1402.38 -1.21103 3.39126 0
M  V30 14363 C 1402.23 -0.134865 4.49598 0
M  V30 14364 C 1403.55 -2.12148 3.85592 0
M  V30 14365 H 1400.67 -0.223416 0.702321 0
M  V30 14366 H 1403.31 0.117748 1.89635 0
M  V30 14367 H 1401.46 -1.83862 3.42238 0
M  V30 14368 H 1403.13 0.497292 4.58612 0
M  V30 14369 H 1401.37 0.536587 4.30469 0
M  V30 14370 H 1402.04 -0.589447 5.48844 0
M  V30 14371 H 1404.52 -1.59346 3.8438 0
M  V30 14372 H 1403.4 -2.50539 4.88387 0
M  V30 14373 H 1403.66 -3.02318 3.22578 0
M  V30 14374 N 1402.72 -1.56081 -0.218252 0
M  V30 14375 C 1403.94 -1.83334 -0.958964 0
M  V30 14376 C 1404.36 -0.63472 -1.77811 0
M  V30 14377 O 1403.72 0.396729 -1.78136 0
M  V30 14378 C 1403.77 -3.09141 -1.87387 0
M  V30 14379 O 1403.49 -4.24379 -1.08783 0
M  V30 14380 C 1404.99 -3.49405 -2.7282 0
M  V30 14381 H 1402.21 -0.609375 -0.280898 0
M  V30 14382 H 1404.75 -2.03174 -0.232486 0
M  V30 14383 H 1402.91 -2.91267 -2.55426 0
M  V30 14384 H 1403.32 -4.9587 -1.70919 0
M  V30 14385 H 1404.8 -4.40461 -3.32713 0
M  V30 14386 H 1405.27 -2.71311 -3.45379 0
M  V30 14387 H 1405.88 -3.6973 -2.1019 0
M  V30 14388 N 1404.2 0.485086 -1.49949 0
M  V30 14389 C 1405.14 1.60559 -1.68296 0
M  V30 14390 C 1406.14 1.60264 -0.548802 0
M  V30 14391 O 1407.34 1.64581 -0.728905 0
M  V30 14392 H 1403.72 0.532529 -0.530958 0
M  V30 14393 H 1405.69 1.42242 -2.62316 0
M  V30 14394 C 1404.44 2.98596 -1.78145 0
M  V30 14395 H 1403.76 2.99536 -2.64799 0
M  V30 14396 H 1405.2 3.76492 -1.95012 0
M  V30 14397 C 1403.66 3.32708 -0.529828 0
M  V30 14398 O 1404.19 4.00281 0.337347 0
M  V30 14399 N 1402.4 2.87998 -0.388012 0
M  V30 14400 H 1401.94 2.33182 -1.0947 0
M  V30 14401 H 1401.9 3.11187 0.448307 0
M  V30 14402 N 1405.67 1.39291 0.737279 0
M  V30 14403 C 1407.08 1.32489 1.31543 0
M  V30 14404 C 1407.44 -0.0118162 1.96196 0
M  V30 14405 O 1406.56 -0.913938 1.96153 0
M  V30 14406 C 1407.16 2.39946 2.39189 0
M  V30 14407 C 1405.71 2.36671 2.92684 0
M  V30 14408 C 1404.86 2.21953 1.66229 0
M  V30 14409 H 1407.81 1.49412 0.534954 0
M  V30 14410 H 1407.83 2.06603 3.19524 0
M  V30 14411 H 1407.35 3.3722 1.92104 0
M  V30 14412 H 1405.45 1.43028 3.44055 0
M  V30 14413 H 1405.56 3.31441 3.45953 0
M  V30 14414 H 1403.92 1.69087 1.90478 0
M  V30 14415 H 1404.71 3.21194 1.21199 0
M  V30 14416 N 1407.15 -0.967221 1.24429 0
M  V30 14417 C 1408.4 -1.71279 1.08588 0
M  V30 14418 C 1408.73 -1.90558 -0.374325 0
M  V30 14419 O 1408.01 -1.46742 -1.27659 0
M  V30 14420 C 1408.29 -3.10326 1.82674 0
M  V30 14421 C 1408.14 -2.98535 3.36447 0
M  V30 14422 C 1409.46 -4.09993 1.59981 0
M  V30 14423 H 1406.58 -0.621658 0.395867 0
M  V30 14424 H 1409.22 -1.12514 1.53103 0
M  V30 14425 H 1407.37 -3.60492 1.44836 0
M  V30 14426 H 1409.04 -2.55791 3.83886 0
M  V30 14427 H 1407.29 -2.34736 3.64803 0
M  V30 14428 H 1407.96 -3.97041 3.83487 0
M  V30 14429 H 1410.43 -3.68687 1.92897 0
M  V30 14430 H 1409.31 -5.05349 2.14274 0
M  V30 14431 H 1409.57 -4.38812 0.538173 0
M  V30 14432 N 1408.63 -1.05812 -1.16797 0
M  V30 14433 C 1409.58 -0.634669 -2.18988 0
M  V30 14434 C 1410.56 0.332122 -1.57435 0
M  V30 14435 O 1411.76 0.148346 -1.76377 0
M  V30 14436 C 1408.88 -0.0174742 -3.43296 0
M  V30 14437 C 1407.97 -1.00847 -4.11935 0
M  V30 14438 N 1408.36 -2.18223 -4.56303 0
M  V30 14439 C 1406.66 -0.838325 -4.3805 0
M  V30 14440 C 1407.36 -2.80967 -5.09345 0
M  V30 14441 N 1406.34 -2.08725 -5.01931 0
M  V30 14442 H 1410.14 -1.52888 -2.51003 0
M  V30 14443 H 1407.65 -0.929125 -1.33195 0
M  V30 14444 H 1409.65 0.303692 -4.15792 0
M  V30 14445 H 1408.31 0.872052 -3.1277 0
M  V30 14446 H 1409.32 -2.56025 -4.5019 0
M  V30 14447 H 1406 -0.000376066 -4.175 0
M  V30 14448 H 1407.39 -3.80541 -5.53749 0
M  V30 14449 N 1410.11 1.33347 -0.840014 0
M  V30 14450 C 1411.52 1.50615 -0.52795 0
M  V30 14451 C 1411.72 1.77993 0.944493 0
M  V30 14452 O 1410.78 1.84087 1.72824 0
M  V30 14453 C 1412.09 2.66001 -1.40228 0
M  V30 14454 C 1413.64 2.79886 -1.40117 0
M  V30 14455 C 1414.12 3.98335 -2.26038 0
M  V30 14456 N 1415.61 4.05572 -2.23753 0
M  V30 14457 C 1416.34 4.96422 -2.86972 0
M  V30 14458 N 1415.84 5.9238 -3.59247 0
M  V30 14459 N 1417.63 4.89428 -2.76436 0
M  V30 14460 H 1409.78 1.13839 -1.79317 0
M  V30 14461 H 1412.04 0.559772 -0.765088 0
M  V30 14462 H 1411.75 2.52453 -2.44868 0
M  V30 14463 H 1411.62 3.61434 -1.07914 0
M  V30 14464 H 1414.01 2.92865 -0.362487 0
M  V30 14465 H 1414.09 1.85211 -1.76439 0
M  V30 14466 H 1413.74 3.86115 -3.29966 0
M  V30 14467 H 1413.67 4.92257 -1.87057 0
M  V30 14468 H 1416.16 3.36899 -1.71195 0
M  V30 14469 H 1416.47 6.58367 -4.04688 0
M  V30 14470 H 1414.82 5.92451 -3.63354 0
M  V30 14471 H 1418.01 4.13428 -2.19534 0
M  V30 14472 H 1418.18 5.60032 -3.25989 0
M  V30 14473 N 1411.59 0.596556 1.45873 0
M  V30 14474 C 1412.83 0.0850976 2.0152 0
M  V30 14475 C 1413.15 -1.28799 1.47208 0
M  V30 14476 O 1414.35 -1.89156 1.94762 0
M  V30 14477 C 1412.81 0.101488 3.59757 0
M  V30 14478 C 1412.42 1.47374 4.23066 0
M  V30 14479 C 1414.16 -0.355303 4.2301 0
M  V30 14480 C 1412.07 1.44711 5.73422 0
M  V30 14481 H 1411 0.0280444 0.753478 0
M  V30 14482 H 1413.65 0.750255 1.67462 0
M  V30 14483 H 1412.03 -0.630108 3.90955 0
M  V30 14484 H 1413.21 2.22617 4.03458 0
M  V30 14485 H 1411.52 1.87171 3.71962 0
M  V30 14486 H 1414.12 -0.394236 5.33245 0
M  V30 14487 H 1414.46 -1.37573 3.92911 0
M  V30 14488 H 1414.99 0.32267 3.96489 0
M  V30 14489 H 1411.73 2.44479 6.08203 0
M  V30 14490 H 1411.25 0.737102 5.95254 0
M  V30 14491 H 1412.93 1.16598 6.36407 0
M  V30 14492 N 1413.06 -1.53996 0.335095 0
M  V30 14493 C 1414.03 -2.23385 -0.513015 0
M  V30 14494 C 1415.03 -1.23117 -1.03435 0
M  V30 14495 O 1416.22 -1.47616 -0.924944 0
M  V30 14496 C 1413.35 -2.94691 -1.71377 0
M  V30 14497 H 1414.54 -2.99753 0.0937306 0
M  V30 14498 H 1412.09 -1.56061 0.086326 0
M  V30 14499 H 1412.83 -2.22488 -2.35944 0
M  V30 14500 H 1412.61 -3.68228 -1.34723 0
M  V30 14501 H 1414.1 -3.47525 -2.31552 0
M  V30 14502 N 1414.54 -0.0635198 -1.57472 0
M  V30 14503 C 1415.82 0.648029 -1.84553 0
M  V30 14504 C 1416.2 1.88295 -0.954371 0
M  V30 14505 O 1415.55 2.28492 -0.0185351 0
M  V30 14506 C 1415.76 0.993573 -3.34558 0
M  V30 14507 C 1417.1 1.3706 -4.0187 0
M  V30 14508 O 1418.13 1.08555 -3.39255 0
M  V30 14509 O 1416.99 1.90309 -5.12294 0
M  V30 14510 H 1414.08 0.321047 -0.76214 0
M  V30 14511 H 1416.63 -0.0938223 -1.6944 0
M  V30 14512 H 1415.4 0.116139 -3.91128 0
M  V30 14513 H 1415.02 1.79246 -3.54904 0
M  V30 14514 N 1416.02 1.56195 0.209972 0
M  V30 14515 C 1417.43 1.69811 0.775969 0
M  V30 14516 C 1417.78 0.667543 1.84495 0
M  V30 14517 O 1416.91 -0.179043 2.15658 0
M  V30 14518 C 1417.5 3.07869 1.41429 0
M  V30 14519 C 1416.06 3.233 1.92755 0
M  V30 14520 C 1415.21 2.6575 0.791958 0
M  V30 14521 H 1418.16 1.58693 -0.0148727 0
M  V30 14522 H 1418.18 3.04371 2.28339 0
M  V30 14523 H 1417.69 3.82853 0.63604 0
M  V30 14524 H 1415.79 2.53206 2.73345 0
M  V30 14525 H 1415.91 4.30645 2.09956 0
M  V30 14526 H 1414.27 2.24535 1.20234 0
M  V30 14527 H 1415.05 3.4329 0.0261877 0
M  V30 14528 N 1417.5 -0.477127 1.50204 0
M  V30 14529 C 1418.46 -1.55824 1.68082 0
M  V30 14530 C 1419.46 -1.51039 0.551719 0
M  V30 14531 O 1420.65 -1.53766 0.818638 0
M  V30 14532 C 1417.78 -2.95462 1.70044 0
M  V30 14533 H 1418.98 -1.41292 2.64531 0
M  V30 14534 H 1416.53 -0.70308 1.39594 0
M  V30 14535 H 1417.26 -3.15445 0.752663 0
M  V30 14536 H 1417.05 -3.00343 2.52065 0
M  V30 14537 H 1418.54 -3.73964 1.85851 0
M  V30 14538 N 1418.98 -1.3968 -0.729882 0
M  V30 14539 C 1419.89 -1.41094 -1.87429 0
M  V30 14540 C 1420.9 -0.305142 -1.71303 0
M  V30 14541 O 1422.08 -0.54744 -1.93817 0
M  V30 14542 C 1419.14 -1.25786 -3.23077 0
M  V30 14543 C 1418.2 -2.46382 -3.5156 0
M  V30 14544 C 1417.44 -2.31795 -4.80735 0
M  V30 14545 O 1417.66 -1.32415 -5.54818 0
M  V30 14546 O 1416.59 -3.20883 -5.09232 0
M  V30 14547 H 1420.42 -2.37571 -1.89192 0
M  V30 14548 H 1418.01 -1.2085 -0.878389 0
M  V30 14549 H 1419.89 -1.19402 -4.0413 0
M  V30 14550 H 1418.56 -0.324065 -3.22074 0
M  V30 14551 H 1417.47 -2.58343 -2.70573 0
M  V30 14552 H 1418.8 -3.38473 -3.57347 0
M  V30 14553 N 1420.45 0.960609 -1.2494 0
M  V30 14554 C 1421.7 1.70765 -1.10503 0
M  V30 14555 C 1422.06 1.89164 0.351384 0
M  V30 14556 O 1421.35 1.44718 1.25568 0
M  V30 14557 C 1421.54 3.09564 -1.78619 0
M  V30 14558 C 1421.37 3.04705 -3.30734 0
M  V30 14559 C 1420.14 3.08793 -3.99969 0
M  V30 14560 C 1422.34 2.86333 -4.27221 0
M  V30 14561 N 1420.32 2.94028 -5.38907 0
M  V30 14562 C 1421.69 2.79938 -5.53204 0
M  V30 14563 C 1423.75 2.70967 -4.17709 0
M  V30 14564 C 1422.45 2.59747 -6.70764 0
M  V30 14565 C 1424.48 2.52146 -5.34954 0
M  V30 14566 C 1423.84 2.46466 -6.59874 0
M  V30 14567 H 1419.94 0.633102 -0.459027 0
M  V30 14568 H 1422.52 1.13833 -1.57956 0
M  V30 14569 H 1420.69 3.64674 -1.33669 0
M  V30 14570 H 1422.42 3.73015 -1.56978 0
M  V30 14571 H 1419.18 3.17751 -3.51185 0
M  V30 14572 H 1419.6 2.89867 -6.11806 0
M  V30 14573 H 1424.25 2.74137 -3.21883 0
M  V30 14574 H 1421.96 2.5532 -7.66705 0
M  V30 14575 H 1425.55 2.41191 -5.29451 0
M  V30 14576 H 1424.43 2.32091 -7.49068 0
M  V30 14577 N 1421.93 1.0643 1.16234 0
M  V30 14578 C 1422.86 0.634274 2.20249 0
M  V30 14579 C 1423.88 -0.308432 1.59852 0
M  V30 14580 O 1425.07 -0.0992067 1.78224 0
M  V30 14581 C 1422.17 -0.0901593 3.3878 0
M  V30 14582 C 1421.34 0.866379 4.28734 0
M  V30 14583 C 1420.4 0.180942 5.25889 0
M  V30 14584 O 1419.42 0.819034 5.63277 0
M  V30 14585 N 1420.63 -1.07698 5.70422 0
M  V30 14586 H 1423.39 1.52901 2.57762 0
M  V30 14587 H 1420.95 0.947789 1.31258 0
M  V30 14588 H 1422.94 -0.559147 4.00819 0
M  V30 14589 H 1421.51 -0.886715 2.9976 0
M  V30 14590 H 1420.73 1.51471 3.63937 0
M  V30 14591 H 1422.02 1.51524 4.85714 0
M  V30 14592 H 1421.42 -1.6155 5.42142 0
M  V30 14593 H 1419.98 -1.48981 6.34545 0
M  V30 14594 N 1423.41 -1.329 0.847073 0
M  V30 14595 C 1424.66 -1.97803 0.447417 0
M  V30 14596 C 1424.99 -1.6691 -0.9927 0
M  V30 14597 O 1424.26 -0.953315 -1.69535 0
M  V30 14598 C 1424.55 -3.53657 0.678135 0
M  V30 14599 C 1424.4 -3.94207 2.16612 0
M  V30 14600 C 1425.72 -4.39909 0.129589 0
M  V30 14601 H 1422.84 -0.718514 0.164034 0
M  V30 14602 H 1425.48 -1.57407 1.0641 0
M  V30 14603 H 1423.63 -3.88198 0.153222 0
M  V30 14604 H 1425.3 -3.69883 2.75653 0
M  V30 14605 H 1423.55 -3.43641 2.64752 0
M  V30 14606 H 1424.22 -5.02791 2.27827 0
M  V30 14607 H 1426.69 -4.12061 0.578371 0
M  V30 14608 H 1425.57 -5.47963 0.320648 0
M  V30 14609 H 1425.83 -4.31391 -0.967167 0
M  V30 14610 N 1424.89 -0.604284 -1.45555 0
M  V30 14611 C 1425.84 0.137842 -2.27583 0
M  V30 14612 C 1426.82 0.841681 -1.3713 0
M  V30 14613 O 1428.01 0.732216 -1.61145 0
M  V30 14614 C 1425.14 1.13675 -3.23934 0
M  V30 14615 C 1424.23 0.433916 -4.21874 0
M  V30 14616 N 1424.62 -0.522599 -5.03093 0
M  V30 14617 C 1422.92 0.681898 -4.40756 0
M  V30 14618 C 1423.62 -0.935401 -5.7413 0
M  V30 14619 N 1422.6 -0.279863 -5.42879 0
M  V30 14620 H 1426.4 -0.596862 -2.87776 0
M  V30 14621 H 1423.91 -0.427701 -1.56667 0
M  V30 14622 H 1425.91 1.68278 -3.81429 0
M  V30 14623 H 1424.57 1.87204 -2.65301 0
M  V30 14624 H 1425.58 -0.899187 -5.10034 0
M  V30 14625 H 1422.26 1.40212 -3.93252 0
M  V30 14626 H 1423.65 -1.72412 -6.49403 0
M  V30 14627 N 1426.37 1.53816 -0.343257 0
M  V30 14628 C 1427.64 1.9315 0.308609 0
M  V30 14629 C 1428.02 1.27479 1.68263 0
M  V30 14630 O 1427.37 0.425614 2.24501 0
M  V30 14631 C 1427.58 3.46912 0.381176 0
M  V30 14632 C 1428.93 4.19868 0.632153 0
M  V30 14633 O 1429.95 3.53174 0.463303 0
M  V30 14634 O 1428.81 5.38016 0.959237 0
M  V30 14635 H 1425.91 0.807169 0.180022 0
M  V30 14636 H 1428.45 1.65053 -0.394412 0
M  V30 14637 H 1427.22 3.86932 -0.583058 0
M  V30 14638 H 1426.85 3.81175 1.13099 0
M  V30 14639 N 1427.84 0.0718701 1.57436 0
M  V30 14640 C 1429.09 -0.596052 1.9311 0
M  V30 14641 C 1429.41 -1.70146 0.952652 0
M  V30 14642 O 1428.68 -1.959 0.000812941 0
M  V30 14643 H 1427.26 -0.223165 0.712886 0
M  V30 14644 H 1429.93 0.129744 1.94468 0
M  V30 14645 H 1429.02 -1.02132 2.94916 0
M  V30 14646 N 1429.32 -1.56304 -0.201686 0
M  V30 14647 C 1430.73 -1.7022 -0.766953 0
M  V30 14648 C 1431.08 -0.677318 -1.84138 0
M  V30 14649 O 1430.21 0.167604 -2.1575 0
M  V30 14650 C 1430.8 -3.08615 -1.39795 0
M  V30 14651 C 1429.36 -3.24317 -1.91037 0
M  V30 14652 C 1428.51 -2.66167 -0.777853 0
M  V30 14653 H 1431.46 -1.58683 0.0232884 0
M  V30 14654 H 1431.48 -3.05578 -2.26721 0
M  V30 14655 H 1430.99 -3.83185 -0.615728 0
M  V30 14656 H 1429.1 -2.54652 -2.71999 0
M  V30 14657 H 1429.21 -4.31753 -2.07669 0
M  V30 14658 H 1427.57 -2.25169 -1.19042 0
M  V30 14659 H 1428.36 -3.43299 -0.00798179 0
M  V30 14660 N 1430.8 0.469154 -1.50455 0
M  V30 14661 C 1431.71 1.59271 -1.7225 0
M  V30 14662 C 1432.73 1.63119 -0.605668 0
M  V30 14663 O 1433.9 1.80952 -0.884222 0
M  V30 14664 C 1430.97 2.95475 -1.81372 0
M  V30 14665 C 1430.03 3.02 -3.05114 0
M  V30 14666 C 1429.26 4.31707 -3.13791 0
M  V30 14667 O 1429.48 5.2232 -2.29211 0
M  V30 14668 O 1428.42 4.43864 -4.06532 0
M  V30 14669 H 1432.24 1.43804 -2.67496 0
M  V30 14670 H 1429.83 0.648855 -1.34574 0
M  V30 14671 H 1431.71 3.76367 -1.89541 0
M  V30 14672 H 1430.39 3.11136 -0.893094 0
M  V30 14673 H 1429.29 2.20178 -3.02444 0
M  V30 14674 H 1430.63 2.91275 -3.96761 0
M  V30 14675 N 1432.28 1.40065 0.722464 0
M  V30 14676 C 1433.23 1.39947 1.85789 0
M  V30 14677 C 1434.22 0.28089 1.67055 0
M  V30 14678 O 1435.43 0.451575 1.74244 0
M  V30 14679 H 1431.8 0.437296 0.611781 0
M  V30 14680 H 1433.77 2.35695 1.83004 0
M  V30 14681 C 1432.52 1.27218 3.2359 0
M  V30 14682 H 1431.84 2.12566 3.38609 0
M  V30 14683 H 1433.28 1.31194 4.03192 0
M  V30 14684 C 1431.74 -0.0182466 3.36895 0
M  V30 14685 O 1432.27 -0.983761 3.89468 0
M  V30 14686 N 1430.48 -0.0854707 2.90474 0
M  V30 14687 H 1430.03 0.700953 2.4788 0
M  V30 14688 H 1429.98 -0.948367 2.99755 0
M  V30 14689 N 1433.76 -0.95397 1.25448 0
M  V30 14690 C 1435.17 -1.51337 1.09335 0
M  V30 14691 C 1435.52 -1.93393 -0.330698 0
M  V30 14692 O 1434.64 -1.78681 -1.22074 0
M  V30 14693 C 1435.24 -2.75024 1.97857 0
M  V30 14694 C 1433.8 -3.27274 1.85927 0
M  V30 14695 C 1432.95 -2.00108 1.91969 0
M  V30 14696 H 1435.9 -0.770795 1.38724 0
M  V30 14697 H 1435.92 -3.48867 1.51894 0
M  V30 14698 H 1435.43 -2.44383 3.01494 0
M  V30 14699 H 1433.53 -3.62734 0.851767 0
M  V30 14700 H 1433.64 -3.95245 2.70773 0
M  V30 14701 H 1432.01 -2.15438 1.35862 0
M  V30 14702 H 1432.79 -1.71816 2.97211 0
M  V30 14703 N 1435.24 -1.07045 -1.15668 0
M  V30 14704 C 1436.65 -0.795369 -1.38369 0
M  V30 14705 C 1436.85 0.601829 -1.92303 0
M  V30 14706 O 1435.91 1.36109 -2.12675 0
M  V30 14707 C 1437.22 -1.86659 -2.35752 0
M  V30 14708 C 1438.77 -1.89098 -2.49421 0
M  V30 14709 C 1439.24 -2.95296 -3.50092 0
M  V30 14710 N 1440.73 -2.94378 -3.57625 0
M  V30 14711 C 1441.47 -3.73194 -4.35331 0
M  V30 14712 N 1440.97 -4.61851 -5.16397 0
M  V30 14713 N 1442.76 -3.61554 -4.30389 0
M  V30 14714 H 1434.91 -1.97162 -0.790004 0
M  V30 14715 H 1437.17 -0.854816 -0.40987 0
M  V30 14716 H 1436.88 -2.87036 -2.03232 0
M  V30 14717 H 1436.75 -1.72406 -3.35494 0
M  V30 14718 H 1439.14 -0.893752 -2.8124 0
M  V30 14719 H 1439.22 -2.07429 -1.49689 0
M  V30 14720 H 1438.86 -3.95217 -3.19008 0
M  V30 14721 H 1438.79 -2.74212 -4.49572 0
M  V30 14722 H 1441.29 -2.3011 -2.99763 0
M  V30 14723 H 1441.6 -5.18629 -5.72926 0
M  V30 14724 H 1439.94 -4.65902 -5.15714 0
M  V30 14725 H 1443.13 -2.91672 -3.66122 0
M  V30 14726 H 1443.31 -4.23221 -4.90701 0
M  V30 14727 N 1436.71 1.32449 -0.85411 0
M  V30 14728 C 1437.68 2.27183 -0.303377 0
M  V30 14729 C 1438.68 1.51582 0.536622 0
M  V30 14730 O 1439.87 1.70684 0.348211 0
M  V30 14731 C 1437 3.36086 0.570852 0
M  V30 14732 H 1438.19 2.77408 -1.1395 0
M  V30 14733 H 1435.74 1.43111 -0.628402 0
M  V30 14734 H 1436.48 2.91128 1.42881 0
M  V30 14735 H 1436.26 3.92088 -0.030399 0
M  V30 14736 H 1437.75 4.06675 0.948972 0
M  V30 14737 N 1438.19 0.611994 1.45232 0
M  V30 14738 C 1439.42 0.115409 2.06578 0
M  V30 14739 C 1439.83 -1.20206 1.45588 0
M  V30 14740 O 1439.19 -1.73315 0.571668 0
M  V30 14741 C 1439.24 -0.0259943 3.61491 0
M  V30 14742 O 1438.96 1.23936 4.20204 0
M  V30 14743 C 1440.46 -0.553522 4.39831 0
M  V30 14744 H 1437.68 0.0708656 0.667247 0
M  V30 14745 H 1440.23 0.840977 1.86408 0
M  V30 14746 H 1438.38 -0.701909 3.80988 0
M  V30 14747 H 1438.8 1.07187 5.13431 0
M  V30 14748 H 1440.27 -0.601536 5.48713 0
M  V30 14749 H 1440.75 -1.57671 4.09923 0
M  V30 14750 H 1441.35 0.0884954 4.25208 0
M  V30 14751 N 1439.67 -1.53632 0.351409 0
M  V30 14752 C 1440.62 -2.22041 -0.517867 0
M  V30 14753 C 1441.6 -1.21057 -1.0599 0
M  V30 14754 O 1442.8 -1.46569 -0.992298 0
M  V30 14755 C 1439.92 -3.00259 -1.66432 0
M  V30 14756 C 1439.01 -4.08607 -1.13584 0
M  V30 14757 N 1439.4 -5.04727 -0.329217 0
M  V30 14758 C 1437.7 -4.23059 -1.412 0
M  V30 14759 C 1438.4 -5.81685 -0.0415005 0
M  V30 14760 N 1437.38 -5.39875 -0.635288 0
M  V30 14761 H 1441.18 -2.93711 0.105386 0
M  V30 14762 H 1438.69 -1.61623 0.15868 0
M  V30 14763 H 1440.69 -3.47774 -2.29911 0
M  V30 14764 H 1439.35 -2.30117 -2.29077 0
M  V30 14765 H 1440.36 -5.17891 0.0303777 0
M  V30 14766 H 1437.04 -3.64139 -2.04227 0
M  V30 14767 H 1438.43 -6.69128 0.609686 0
M  V30 14768 N 1441.15 -0.0802183 -1.57396 0
M  V30 14769 C 1442.37 0.599179 -1.98556 0
M  V30 14770 C 1442.8 1.61844 -0.958555 0
M  V30 14771 O 1442.16 1.81146 0.0748226 0
M  V30 14772 C 1442.2 1.23675 -3.38728 0
M  V30 14773 O 1441.31 2.35262 -3.38712 0
M  V30 14774 H 1440.65 0.153366 -0.646045 0
M  V30 14775 H 1443.18 -0.157227 -2.03995 0
M  V30 14776 H 1443.19 1.5816 -3.76098 0
M  V30 14777 H 1441.86 0.489946 -4.13004 0
M  V30 14778 H 1440.44 2.02507 -3.13122 0
M  V30 14779 N 1442.63 1.56409 0.193394 0
M  V30 14780 C 1443.85 1.8519 0.933775 0
M  V30 14781 C 1444.28 0.663991 1.75991 0
M  V30 14782 O 1443.63 -0.387198 1.77117 0
M  V30 14783 C 1443.68 3.12212 1.80432 0
M  V30 14784 O 1442.79 2.92884 2.90332 0
M  V30 14785 H 1442.13 0.609754 0.262862 0
M  V30 14786 H 1444.66 2.03638 0.198195 0
M  V30 14787 H 1444.67 3.4305 2.20864 0
M  V30 14788 H 1443.34 3.98292 1.19733 0
M  V30 14789 H 1441.92 2.73349 2.53643 0
M  V30 14790 N 1444.1 -0.461169 1.50702 0
M  V30 14791 C 1445.33 -1.23554 1.65958 0
M  V30 14792 C 1445.75 -1.85584 0.346977 0
M  V30 14793 O 1445.1 -1.69672 -0.672129 0
M  V30 14794 C 1445.15 -2.33704 2.75799 0
M  V30 14795 O 1444.88 -1.74215 4.01971 0
M  V30 14796 C 1446.38 -3.24409 3.02116 0
M  V30 14797 H 1443.6 -0.373299 0.557574 0
M  V30 14798 H 1446.14 -0.549338 1.96984 0
M  V30 14799 H 1444.3 -2.98081 2.47439 0
M  V30 14800 H 1444.71 -2.46827 4.62792 0
M  V30 14801 H 1446.18 -3.97885 3.82611 0
M  V30 14802 H 1446.66 -3.83774 2.13576 0
M  V30 14803 H 1447.27 -2.65757 3.32044 0
M  V30 14804 N 1445.58 -1.40446 -0.715026 0
M  V30 14805 C 1446.83 -1.3848 -1.47199 0
M  V30 14806 C 1447.15 0.0119198 -1.94996 0
M  V30 14807 O 1446.42 0.966772 -1.70383 0
M  V30 14808 H 1445 -0.509669 -0.54612 0
M  V30 14809 H 1447.66 -1.75505 -0.847588 0
M  V30 14810 H 1446.76 -2.06002 -2.34456 0
M  V30 14811 N 1447.06 0.947303 -1.25952 0
M  V30 14812 C 1448.02 2.02667 -1.07046 0
M  V30 14813 C 1449.02 1.60787 -0.0208127 0
M  V30 14814 O 1450.21 1.72193 -0.263668 0
M  V30 14815 C 1447.34 3.35087 -0.626885 0
M  V30 14816 H 1448.54 2.20871 -2.0287 0
M  V30 14817 H 1446.09 1.12541 -1.08462 0
M  V30 14818 H 1446.83 3.22579 0.333621 0
M  V30 14819 H 1446.61 3.66835 -1.38473 0
M  V30 14820 H 1448.1 4.14397 -0.516264 0
M  V30 14821 N 1448.54 1.07657 1.15099 0
M  V30 14822 C 1449.95 0.802696 1.37945 0
M  V30 14823 C 1450.15 -0.591622 1.92619 0
M  V30 14824 O 1449.21 -1.34979 2.13394 0
M  V30 14825 C 1450.52 1.87907 2.34759 0
M  V30 14826 C 1452.07 1.90418 2.48415 0
M  V30 14827 C 1452.55 2.97148 3.48521 0
M  V30 14828 N 1454.04 2.96271 3.56059 0
M  V30 14829 C 1454.77 3.75498 4.33346 0
M  V30 14830 N 1454.27 4.64583 5.1394 0
M  V30 14831 N 1456.06 3.63831 4.28466 0
M  V30 14832 H 1448.21 1.97578 0.779537 0
M  V30 14833 H 1450.48 0.856978 0.405331 0
M  V30 14834 H 1450.18 2.8811 2.01707 0
M  V30 14835 H 1450.06 1.74183 3.34575 0
M  V30 14836 H 1452.44 0.908655 2.80762 0
M  V30 14837 H 1452.52 2.0822 1.48586 0
M  V30 14838 H 1452.17 3.96903 3.16908 0
M  V30 14839 H 1452.1 2.76593 4.48112 0
M  V30 14840 H 1454.59 2.31697 2.98538 0
M  V30 14841 H 1454.9 5.2166 5.70167 0
M  V30 14842 H 1453.25 4.6863 5.13236 0
M  V30 14843 H 1456.44 2.93609 3.6457 0
M  V30 14844 H 1456.61 4.25818 4.8845 0
M  V30 14845 N 1450.02 -1.31994 0.861122 0
M  V30 14846 C 1450.95 -2.31214 0.325963 0
M  V30 14847 C 1451.93 -1.59965 -0.578383 0
M  V30 14848 O 1453.11 -1.87726 -0.497268 0
M  V30 14849 C 1450.24 -3.43953 -0.481001 0
M  V30 14850 C 1449.2 -4.2673 0.329474 0
M  V30 14851 C 1448.52 -5.31293 -0.602627 0
M  V30 14852 C 1449.82 -4.98498 1.55874 0
M  V30 14853 H 1451.52 -2.76223 1.15503 0
M  V30 14854 H 1449.06 -1.32797 0.556856 0
M  V30 14855 H 1451.02 -4.12409 -0.86585 0
M  V30 14856 H 1449.74 -2.97687 -1.3435 0
M  V30 14857 H 1448.4 -3.59929 0.696159 0
M  V30 14858 H 1448.05 -4.8128 -1.46215 0
M  V30 14859 H 1447.75 -5.87565 -0.0643044 0
M  V30 14860 H 1449.27 -6.02611 -0.984512 0
M  V30 14861 H 1450.68 -5.596 1.24583 0
M  V30 14862 H 1449.08 -5.64525 2.03548 0
M  V30 14863 H 1450.15 -4.25991 2.31646 0
M  V30 14864 N 1451.49 -0.619688 -1.44906 0
M  V30 14865 C 1452.43 0.130316 -2.28829 0
M  V30 14866 C 1453.44 0.820039 -1.40639 0
M  V30 14867 O 1454.63 0.683401 -1.649 0
M  V30 14868 C 1451.73 1.20618 -3.16709 0
M  V30 14869 C 1450.9 0.60121 -4.33248 0
M  V30 14870 C 1449.96 1.56954 -5.02247 0
M  V30 14871 O 1448.99 1.09112 -5.58644 0
M  V30 14872 N 1450.19 2.90395 -5.02644 0
M  V30 14873 H 1452.95 -0.589867 -2.93838 0
M  V30 14874 H 1450.51 -0.460028 -1.55227 0
M  V30 14875 H 1452.51 1.85404 -3.59732 0
M  V30 14876 H 1451.08 1.82873 -2.53528 0
M  V30 14877 H 1450.3 -0.225015 -3.93557 0
M  V30 14878 H 1451.58 0.177471 -5.0849 0
M  V30 14879 H 1450.98 3.31855 -4.58136 0
M  V30 14880 H 1449.54 3.50572 -5.49493 0
M  V30 14881 N 1452.97 1.53444 -0.359552 0
M  V30 14882 C 1454.2 2.05584 0.232953 0
M  V30 14883 C 1454.62 1.23347 1.42937 0
M  V30 14884 O 1453.97 0.272662 1.80452 0
M  V30 14885 C 1454.02 3.55926 0.632359 0
M  V30 14886 O 1453.74 4.35045 -0.516494 0
M  V30 14887 C 1455.25 4.24301 1.28389 0
M  V30 14888 H 1452.47 0.669676 0.042132 0
M  V30 14889 H 1455.01 1.97878 -0.516176 0
M  V30 14890 H 1453.16 3.63802 1.33141 0
M  V30 14891 H 1453.58 5.24138 -0.194906 0
M  V30 14892 H 1455.05 5.30832 1.51397 0
M  V30 14893 H 1455.53 3.77644 2.24236 0
M  V30 14894 H 1456.14 4.20661 0.626438 0
M  V30 14895 N 1454.45 0.0885642 1.57351 0
M  V30 14896 C 1455.4 -0.883199 2.10199 0
M  V30 14897 C 1456.38 -1.24805 1.0155 0
M  V30 14898 O 1457.58 -1.22423 1.27835 0
M  V30 14899 C 1454.71 -2.14467 2.68065 0
M  V30 14900 C 1453.79 -1.80555 3.83746 0
M  V30 14901 N 1454.18 -1.17169 4.92042 0
M  V30 14902 C 1452.48 -2.10204 3.93358 0
M  V30 14903 C 1453.18 -1.01722 5.72737 0
M  V30 14904 N 1452.16 -1.53241 5.21553 0
M  V30 14905 H 1455.96 -0.38908 2.91313 0
M  V30 14906 H 1453.47 -0.114842 1.61993 0
M  V30 14907 H 1455.47 -2.85021 3.04251 0
M  V30 14908 H 1454.13 -2.64451 1.88403 0
M  V30 14909 H 1455.14 -0.839293 5.11054 0
M  V30 14910 H 1451.82 -2.62448 3.24696 0
M  V30 14911 H 1453.21 -0.522042 6.69869 0
M  V30 14912 N 1455.93 -1.56509 -0.185096 0
M  V30 14913 C 1457.18 -1.80848 -0.902139 0
M  V30 14914 C 1457.5 -0.663295 -1.83372 0
M  V30 14915 O 1456.77 0.317754 -1.93306 0
M  V30 14916 H 1455.35 -0.667108 -0.336119 0
M  V30 14917 H 1458.01 -1.93989 -0.188211 0
M  V30 14918 H 1457.11 -2.74383 -1.48729 0
M  V30 14919 N 1457.41 0.45317 -1.50944 0
M  V30 14920 C 1458.68 1.21413 -1.53357 0
M  V30 14921 C 1459.06 2.09118 -0.288584 0
M  V30 14922 O 1458.41 2.16621 0.727164 0
M  V30 14923 C 1458.62 2.02969 -2.83909 0
M  V30 14924 C 1459.97 2.60551 -3.35258 0
M  V30 14925 O 1460.99 2.13196 -2.85353 0
M  V30 14926 O 1459.85 3.46881 -4.22298 0
M  V30 14927 H 1456.95 0.551909 -0.615894 0
M  V30 14928 H 1459.49 0.463529 -1.63247 0
M  V30 14929 H 1458.26 1.38453 -3.65987 0
M  V30 14930 H 1457.89 2.85127 -2.77107 0
M  V30 14931 N 1458.88 1.40823 0.707568 0
M  V30 14932 C 1460.16 1.3003 1.46122 0
M  V30 14933 C 1460.54 -0.0776873 2.10957 0
M  V30 14934 O 1459.89 -1.09109 2.00767 0
M  V30 14935 C 1460.1 2.44498 2.49042 0
M  V30 14936 C 1461.45 2.85106 3.14642 0
M  V30 14937 O 1462.47 2.44149 2.59364 0
M  V30 14938 O 1461.33 3.55892 4.14733 0
M  V30 14939 H 1458.42 0.511082 0.650172 0
M  V30 14940 H 1460.97 1.52761 0.739062 0
M  V30 14941 H 1459.74 3.36502 1.99705 0
M  V30 14942 H 1459.37 2.23579 3.28783 0
M  V30 14943 N 1460.36 -0.94061 1.26453 0
M  V30 14944 C 1461.61 -1.68937 1.12197 0
M  V30 14945 C 1461.94 -1.91309 -0.33382 0
M  V30 14946 O 1461.22 -1.49417 -1.24518 0
M  V30 14947 C 1461.5 -3.06381 1.89215 0
M  V30 14948 C 1461.35 -2.91331 3.42704 0
M  V30 14949 C 1462.67 -4.06507 1.68642 0
M  V30 14950 H 1459.79 -0.613121 0.408964 0
M  V30 14951 H 1462.43 -1.09242 1.55455 0
M  V30 14952 H 1460.58 -3.57339 1.5245 0
M  V30 14953 H 1462.25 -2.47591 3.89226 0
M  V30 14954 H 1460.5 -2.26945 3.697 0
M  V30 14955 H 1461.17 -3.88818 3.91822 0
M  V30 14956 H 1463.64 -3.64512 2.00674 0
M  V30 14957 H 1462.52 -5.0069 2.24945 0
M  V30 14958 H 1462.78 -4.37572 0.631131 0
M  V30 14959 N 1461.84 -1.08266 -1.14527 0
M  V30 14960 C 1462.8 -0.715117 -2.17758 0
M  V30 14961 C 1463.8 0.24935 -1.58855 0
M  V30 14962 O 1464.99 0.0290846 -1.74176 0
M  V30 14963 C 1462.13 -0.055575 -3.40855 0
M  V30 14964 H 1463.32 -1.62921 -2.51787 0
M  V30 14965 H 1460.87 -0.880346 -1.2915 0
M  V30 14966 H 1461.61 0.870312 -3.12404 0
M  V30 14967 H 1461.39 -0.749382 -3.84872 0
M  V30 14968 H 1462.88 0.186592 -4.17183 0
M  V30 14969 N 1463.32 1.31536 -0.86811 0
M  V30 14970 C 1464.25 2.31037 -0.33822 0
M  V30 14971 C 1465.23 1.60269 0.569892 0
M  V30 14972 O 1466.42 1.87987 0.487305 0
M  V30 14973 C 1463.55 3.44203 0.462753 0
M  V30 14974 C 1462.5 4.26549 -0.3521 0
M  V30 14975 C 1461.83 5.31605 0.574443 0
M  V30 14976 C 1463.13 4.97665 -1.58516 0
M  V30 14977 H 1464.82 2.75607 -1.16967 0
M  V30 14978 H 1462.37 1.325 -0.56389 0
M  V30 14979 H 1464.32 4.12862 0.843967 0
M  V30 14980 H 1463.04 2.98396 1.32769 0
M  V30 14981 H 1461.7 3.59555 -0.715237 0
M  V30 14982 H 1461.35 4.82048 1.43661 0
M  V30 14983 H 1461.05 5.87591 0.0331436 0
M  V30 14984 H 1462.57 6.03124 0.952541 0
M  V30 14985 H 1463.99 5.58931 -1.27549 0
M  V30 14986 H 1462.38 5.63437 -2.06539 0
M  V30 14987 H 1463.45 4.24756 -2.33902 0
M  V30 14988 N 1464.8 0.627364 1.44575 0
M  V30 14989 C 1466.02 0.135576 2.06956 0
M  V30 14990 C 1466.45 -1.17922 1.46547 0
M  V30 14991 O 1465.81 -1.72255 0.565509 0
M  V30 14992 C 1465.85 0.030347 3.60587 0
M  V30 14993 O 1464.96 -1.01464 3.99724 0
M  V30 14994 H 1464.3 0.083058 0.658785 0
M  V30 14995 H 1466.83 0.862977 1.8551 0
M  V30 14996 H 1466.84 -0.161461 4.0768 0
M  V30 14997 H 1465.51 0.990285 4.03938 0
M  V30 14998 H 1464.09 -0.797701 3.64268 0
M  V30 14999 N 1466.28 -1.53251 0.367684 0
M  V30 15000 C 1467.52 -2.01585 -0.221679 0
M  V30 15001 C 1467.85 -1.25444 -1.48248 0
M  V30 15002 O 1467.13 -0.348726 -1.91348 0
M  V30 15003 C 1467.41 -3.56449 -0.511507 0
M  V30 15004 C 1467.27 -4.4328 0.763075 0
M  V30 15005 C 1468.58 -4.20113 -1.31121 0
M  V30 15006 H 1465.7 -0.732743 -0.0790954 0
M  V30 15007 H 1468.35 -1.83493 0.492991 0
M  V30 15008 H 1466.5 -3.71996 -1.12033 0
M  V30 15009 H 1468.17 -4.39526 1.40052 0
M  V30 15010 H 1466.41 -4.11164 1.38299 0
M  V30 15011 H 1467.08 -5.4959 0.515215 0
M  V30 15012 H 1469.56 -4.08412 -0.796169 0
M  V30 15013 H 1468.43 -5.28494 -1.48274 0
M  V30 15014 H 1468.69 -3.76316 -2.32032 0
M  V30 15015 N 1467.75 -0.0969077 -1.57302 0
M  V30 15016 C 1469.16 0.431942 -1.81635 0
M  V30 15017 C 1469.52 1.68047 -1.01264 0
M  V30 15018 O 1468.64 2.15036 -0.24256 0
M  V30 15019 C 1469.24 0.790426 -3.29451 0
M  V30 15020 C 1467.79 1.26401 -3.54542 0
M  V30 15021 C 1466.94 0.26158 -2.76063 0
M  V30 15022 H 1469.89 -0.322328 -1.55392 0
M  V30 15023 H 1469.91 1.64981 -3.42873 0
M  V30 15024 H 1469.43 -0.118463 -3.87919 0
M  V30 15025 H 1467.53 2.19055 -3.01406 0
M  V30 15026 H 1467.64 1.22459 -4.63185 0
M  V30 15027 H 1466 0.7441 -2.43588 0
M  V30 15028 H 1466.79 -0.640018 -3.37281 0
M  V30 15029 N 1469.23 1.56605 0.176793 0
M  V30 15030 C 1470.48 1.81952 0.895627 0
M  V30 15031 C 1470.81 0.673893 1.82133 0
M  V30 15032 O 1470.09 -0.324494 1.91774 0
M  V30 15033 C 1470.37 3.17658 1.69604 0
M  V30 15034 C 1470.22 4.4274 0.793834 0
M  V30 15035 C 1471.54 3.50246 2.66488 0
M  V30 15036 H 1468.66 0.661884 0.324159 0
M  V30 15037 H 1471.3 1.89307 0.162092 0
M  V30 15038 H 1469.45 3.11518 2.3214 0
M  V30 15039 H 1471.12 4.60942 0.181775 0
M  V30 15040 H 1469.37 4.33681 0.101566 0
M  V30 15041 H 1470.04 5.34231 1.38927 0
M  V30 15042 H 1472.51 3.56804 2.1408 0
M  V30 15043 H 1471.39 4.46286 3.19562 0
M  V30 15044 H 1471.65 2.7467 3.46423 0
M  V30 15045 N 1470.71 -0.445159 1.51182 0
M  V30 15046 C 1471.93 -1.22249 1.67541 0
M  V30 15047 C 1472.36 -1.84446 0.368972 0
M  V30 15048 O 1471.72 -1.68463 -0.670058 0
M  V30 15049 C 1471.77 -2.288 2.78717 0
M  V30 15050 O 1470.87 -3.34094 2.41775 0
M  V30 15051 H 1470.21 -0.358516 0.558894 0
M  V30 15052 H 1472.74 -0.526696 1.97704 0
M  V30 15053 H 1472.75 -2.73708 3.02569 0
M  V30 15054 H 1471.43 -1.82906 3.73521 0
M  V30 15055 H 1470 -2.94717 2.28466 0
M  V30 15056 N 1472.19 -1.41197 -0.700089 0
M  V30 15057 C 1473.44 -1.40034 -1.45722 0
M  V30 15058 C 1473.76 -0.00876281 -1.94998 0
M  V30 15059 O 1473.03 0.948647 -1.71399 0
M  V30 15060 H 1471.61 -0.515433 -0.540683 0
M  V30 15061 H 1474.27 -1.76394 -0.828926 0
M  V30 15062 H 1473.36 -2.08477 -2.32258 0
M  V30 15063 N 1473.67 0.933891 -1.2695 0
M  V30 15064 C 1474.89 1.71512 -1.15721 0
M  V30 15065 C 1475.31 1.8661 0.286712 0
M  V30 15066 O 1474.67 1.3787 1.19574 0
M  V30 15067 C 1474.72 3.11804 -1.82922 0
M  V30 15068 O 1474.44 2.97421 -3.21672 0
M  V30 15069 C 1475.94 4.06108 -1.7774 0
M  V30 15070 H 1473.16 0.53678 -0.402626 0
M  V30 15071 H 1475.7 1.17025 -1.67706 0
M  V30 15072 H 1473.86 3.6317 -1.34856 0
M  V30 15073 H 1474.27 3.86069 -3.55037 0
M  V30 15074 H 1475.75 5.02082 -2.29385 0
M  V30 15075 H 1476.22 4.32828 -0.74543 0
M  V30 15076 H 1476.83 3.60665 -2.25391 0
M  V30 15077 N 1475.14 1.08871 1.13951 0
M  V30 15078 C 1476.39 0.832367 1.85589 0
M  V30 15079 C 1476.74 -0.635083 1.81616 0
M  V30 15080 O 1476.04 -1.46123 1.2393 0
M  V30 15081 C 1476.23 1.29443 3.33135 0
M  V30 15082 C 1476.06 2.80527 3.51475 0
M  V30 15083 C 1474.83 3.48334 3.66048 0
M  V30 15084 C 1477.03 3.78686 3.47996 0
M  V30 15085 N 1475.01 4.87901 3.72593 0
M  V30 15086 C 1476.38 5.04176 3.60842 0
M  V30 15087 C 1478.44 3.71623 3.31362 0
M  V30 15088 C 1477.14 6.23438 3.58772 0
M  V30 15089 C 1479.17 4.90366 3.30598 0
M  V30 15090 C 1478.53 6.14696 3.43989 0
M  V30 15091 H 1474.63 0.357365 0.695568 0
M  V30 15092 H 1477.21 1.38799 1.36539 0
M  V30 15093 H 1475.38 0.766326 3.80765 0
M  V30 15094 H 1477.11 0.984006 3.92555 0
M  V30 15095 H 1473.87 2.98755 3.67481 0
M  V30 15096 H 1474.29 5.60584 3.79571 0
M  V30 15097 H 1478.93 2.7643 3.19916 0
M  V30 15098 H 1476.65 7.18937 3.68993 0
M  V30 15099 H 1480.24 4.86593 3.18933 0
M  V30 15100 H 1479.12 7.05039 3.43351 0
M  V30 15101 N 1476.62 -1.31073 0.875073 0
M  V30 15102 C 1477.87 -1.96809 0.489273 0
M  V30 15103 C 1478.2 -1.68979 -0.957073 0
M  V30 15104 O 1477.48 -0.989061 -1.67475 0
M  V30 15105 C 1477.76 -3.52139 0.752998 0
M  V30 15106 C 1477.61 -3.89524 2.24925 0
M  V30 15107 C 1478.93 -4.39535 0.222871 0
M  V30 15108 H 1476.05 -0.714873 0.179238 0
M  V30 15109 H 1478.69 -1.55114 1.09725 0
M  V30 15110 H 1476.84 -3.87785 0.23553 0
M  V30 15111 H 1478.51 -3.63953 2.83436 0
M  V30 15112 H 1476.76 -3.37948 2.71981 0
M  V30 15113 H 1477.43 -4.97845 2.38441 0
M  V30 15114 H 1479.9 -4.10741 0.665645 0
M  V30 15115 H 1478.78 -5.47159 0.436806 0
M  V30 15116 H 1479.04 -4.33346 -0.875445 0
M  V30 15117 N 1478.1 -0.635022 -1.4424 0
M  V30 15118 C 1479.38 -0.0718064 -1.95468 0
M  V30 15119 C 1479.76 1.40348 -1.57689 0
M  V30 15120 O 1479.11 2.11986 -0.852888 0
M  V30 15121 C 1479.32 -0.298793 -3.47719 0
M  V30 15122 C 1480.66 -0.194056 -4.24156 0
M  V30 15123 O 1481.69 -0.230368 -3.55454 0
M  V30 15124 O 1480.55 -0.102294 -5.46404 0
M  V30 15125 H 1477.64 0.0200784 -0.826756 0
M  V30 15126 H 1480.19 -0.706996 -1.54271 0
M  V30 15127 H 1478.96 -1.32233 -3.6828 0
M  V30 15128 H 1478.58 0.370347 -3.95871 0
M  V30 15129 N 1479.58 1.53054 -0.375806 0
M  V30 15130 C 1480.83 2.00584 0.211847 0
M  V30 15131 C 1481.14 1.26692 1.49025 0
M  V30 15132 O 1482.35 1.64863 2.15713 0
M  V30 15133 C 1480.8 3.57345 0.428074 0
M  V30 15134 C 1480.41 4.40125 -0.836299 0
M  V30 15135 C 1482.15 4.13203 0.972825 0
M  V30 15136 C 1480.06 5.88459 -0.589093 0
M  V30 15137 H 1478.99 0.749424 0.0829412 0
M  V30 15138 H 1481.64 1.76666 -0.496126 0
M  V30 15139 H 1480.02 3.77458 1.19756 0
M  V30 15140 H 1481.2 4.31782 -1.60936 0
M  V30 15141 H 1479.51 3.95422 -1.30501 0
M  V30 15142 H 1482.11 5.21669 1.17326 0
M  V30 15143 H 1482.45 3.68441 1.93797 0
M  V30 15144 H 1482.99 3.96928 0.263249 0
M  V30 15145 H 1479.73 6.37517 -1.52485 0
M  V30 15146 H 1479.25 5.99624 0.145285 0
M  V30 15147 H 1480.92 6.46631 -0.218485 0
M  V30 15148 N 1481.06 0.105248 1.57248 0
M  V30 15149 C 1482.47 -0.251385 1.57608 0
M  V30 15150 C 1482.67 -1.677 1.11709 0
M  V30 15151 O 1481.73 -2.39552 0.798182 0
M  V30 15152 C 1483.04 -0.0305755 3.00684 0
M  V30 15153 C 1484.59 -0.0975409 3.12848 0
M  V30 15154 C 1485.06 0.0954024 4.57901 0
M  V30 15155 N 1486.56 0.040908 4.63182 0
M  V30 15156 C 1487.29 0.165298 5.73162 0
M  V30 15157 N 1486.79 0.345091 6.9194 0
M  V30 15158 N 1488.58 0.105847 5.62 0
M  V30 15159 H 1480.73 1.03658 1.85388 0
M  V30 15160 H 1482.99 0.407074 0.856151 0
M  V30 15161 H 1482.7 0.954461 3.38501 0
M  V30 15162 H 1482.57 -0.768477 3.69289 0
M  V30 15163 H 1484.96 -1.07309 2.74898 0
M  V30 15164 H 1485.04 0.672017 2.46815 0
M  V30 15165 H 1484.69 1.06786 4.96547 0
M  V30 15166 H 1484.62 -0.693974 5.22007 0
M  V30 15167 H 1487.11 -0.0951009 3.7778 0
M  V30 15168 H 1487.42 0.431243 7.71596 0
M  V30 15169 H 1485.76 0.38089 6.93955 0
M  V30 15170 H 1488.96 -0.0335544 4.68088 0
M  V30 15171 H 1489.13 0.206235 6.47672 0
M  V30 15172 N 1482.53 -1.56697 -0.168486 0
M  V30 15173 C 1483.78 -1.82154 -0.884654 0
M  V30 15174 C 1484.11 -0.682778 -1.82122 0
M  V30 15175 O 1483.36 0.32977 -1.92902 0
M  V30 15176 C 1483.66 -3.138 -1.71068 0
M  V30 15177 C 1483.33 -4.41356 -0.922793 0
M  V30 15178 C 1481.99 -4.76002 -0.705352 0
M  V30 15179 C 1484.34 -5.19883 -0.370323 0
M  V30 15180 C 1481.67 -5.86651 0.0756121 0
M  V30 15181 C 1484.02 -6.31349 0.397568 0
M  V30 15182 C 1482.69 -6.6456 0.625782 0
M  V30 15183 H 1481.96 -0.666549 -0.323718 0
M  V30 15184 H 1484.6 -1.90916 -0.149432 0
M  V30 15185 H 1482.91 -3.00393 -2.51538 0
M  V30 15186 H 1484.61 -3.30708 -2.2679 0
M  V30 15187 H 1481.2 -4.14182 -1.10231 0
M  V30 15188 H 1485.38 -4.93509 -0.525646 0
M  V30 15189 H 1480.64 -6.10838 0.262137 0
M  V30 15190 H 1484.81 -6.91401 0.832902 0
M  V30 15191 H 1482.44 -7.50137 1.23281 0
M  V30 15192 N 1484.01 0.437135 -1.51416 0
M  V30 15193 C 1485.24 1.20898 -1.67903 0
M  V30 15194 C 1485.66 1.85009 -0.376458 0
M  V30 15195 O 1485.01 1.7072 0.645051 0
M  V30 15196 C 1485.06 2.29286 -2.79482 0
M  V30 15197 O 1484.78 1.67798 -4.04692 0
M  V30 15198 C 1486.29 3.19561 -3.07238 0
M  V30 15199 H 1483.51 0.364381 -0.563442 0
M  V30 15200 H 1486.05 0.517931 -1.97833 0
M  V30 15201 H 1484.2 2.94107 -2.5215 0
M  V30 15202 H 1484.62 2.39433 -4.6666 0
M  V30 15203 H 1486.09 3.91748 -3.88893 0
M  V30 15204 H 1486.57 3.80327 -2.19654 0
M  V30 15205 H 1487.18 2.60441 -3.3623 0
M  V30 15206 N 1485.49 1.41566 0.692592 0
M  V30 15207 C 1486.42 1.46423 1.81886 0
M  V30 15208 C 1487.4 0.32258 1.67013 0
M  V30 15209 O 1488.59 0.534437 1.86701 0
M  V30 15210 C 1485.72 1.3486 3.20047 0
M  V30 15211 C 1484.67 2.46867 3.49629 0
M  V30 15212 C 1484 2.20369 4.87177 0
M  V30 15213 C 1485.3 3.89205 3.48306 0
M  V30 15214 H 1486.99 2.40683 1.78079 0
M  V30 15215 H 1484.54 1.15845 0.855334 0
M  V30 15216 H 1486.49 1.36869 3.98553 0
M  V30 15217 H 1485.21 0.370859 3.24488 0
M  V30 15218 H 1483.87 2.44146 2.73475 0
M  V30 15219 H 1483.52 1.20931 4.88247 0
M  V30 15220 H 1483.22 2.95426 5.07934 0
M  V30 15221 H 1484.74 2.24099 5.6799 0
M  V30 15222 H 1486.16 3.93626 4.16811 0
M  V30 15223 H 1484.56 4.63969 3.80595 0
M  V30 15224 H 1485.63 4.17144 2.47222 0
M  V30 15225 N 1486.97 -0.927146 1.27443 0
M  V30 15226 C 1488.38 -1.48984 1.1252 0
M  V30 15227 C 1488.73 -1.94051 -0.289602 0
M  V30 15228 O 1487.86 -1.8123 -1.18257 0
M  V30 15229 C 1488.45 -2.70765 2.03646 0
M  V30 15230 C 1487.01 -3.23256 1.92827 0
M  V30 15231 C 1486.16 -1.95991 1.9617 0
M  V30 15232 H 1489.11 -0.741196 1.40328 0
M  V30 15233 H 1489.13 -3.45567 1.5926 0
M  V30 15234 H 1488.64 -2.37933 3.0661 0
M  V30 15235 H 1486.74 -3.60845 0.928516 0
M  V30 15236 H 1486.85 -3.89413 2.79096 0
M  V30 15237 H 1485.22 -2.12508 1.40402 0
M  V30 15238 H 1486 -1.65473 3.00788 0
M  V30 15239 N 1488.45 -1.09474 -1.13372 0
M  V30 15240 C 1489.41 -0.738173 -2.16988 0
M  V30 15241 C 1490.41 0.232488 -1.5911 0
M  V30 15242 O 1491.6 0.0106093 -1.74197 0
M  V30 15243 C 1488.73 -0.091724 -3.40777 0
M  V30 15244 H 1489.92 -1.65582 -2.50045 0
M  V30 15245 H 1487.48 -0.893994 -1.28209 0
M  V30 15246 H 1488.21 0.837129 -3.13309 0
M  V30 15247 H 1488 -0.790161 -3.84056 0
M  V30 15248 H 1489.49 0.142334 -4.17357 0
M  V30 15249 N 1489.92 1.30607 -0.882012 0
M  V30 15250 C 1490.87 2.3016 -0.336011 0
M  V30 15251 C 1491.87 1.60037 0.555389 0
M  V30 15252 O 1493.07 1.74536 0.440152 0
M  V30 15253 H 1489.45 0.746595 -0.0899982 0
M  V30 15254 H 1491.42 2.73673 -1.18936 0
M  V30 15255 C 1490.17 3.44942 0.437061 0
M  V30 15256 H 1489.49 3.99081 -0.2396 0
M  V30 15257 H 1490.93 4.16684 0.784242 0
M  V30 15258 C 1489.39 2.94678 1.633 0
M  V30 15259 O 1489.92 2.94457 2.73236 0
M  V30 15260 N 1488.13 2.50727 1.46917 0
M  V30 15261 H 1487.67 2.51105 0.574807 0
M  V30 15262 H 1487.63 2.17453 2.27072 0
M  V30 15263 N 1491.4 0.642663 1.43901 0
M  V30 15264 C 1492.63 0.159202 2.06287 0
M  V30 15265 C 1493.05 -1.17091 1.48105 0
M  V30 15266 O 1492.4 -1.72064 0.608302 0
M  V30 15267 C 1492.45 0.0506891 3.61464 0
M  V30 15268 O 1492.17 1.32821 4.17481 0
M  V30 15269 C 1493.68 -0.460103 4.40906 0
M  V30 15270 H 1490.9 0.085003 0.665594 0
M  V30 15271 H 1493.44 0.880328 1.84582 0
M  V30 15272 H 1491.59 -0.620938 3.82391 0
M  V30 15273 H 1492.01 1.18053 5.11042 0
M  V30 15274 H 1493.48 -0.48501 5.49865 0
M  V30 15275 H 1493.96 -1.4894 4.13175 0
M  V30 15276 H 1494.57 0.178668 4.24925 0
M  V30 15277 N 1492.88 -1.52852 0.383918 0
M  V30 15278 C 1494.13 -2.01809 -0.200285 0
M  V30 15279 C 1494.46 -1.27009 -1.46909 0
M  V30 15280 O 1493.74 -0.369002 -1.90968 0
M  V30 15281 C 1494.02 -3.56971 -0.473672 0
M  V30 15282 C 1493.87 -4.42446 0.810048 0
M  V30 15283 C 1495.19 -4.21481 -1.26658 0
M  V30 15284 H 1492.31 -0.733541 -0.0713192 0
M  V30 15285 H 1494.95 -1.8296 0.512425 0
M  V30 15286 H 1493.1 -3.73163 -1.08081 0
M  V30 15287 H 1494.77 -4.38016 1.44706 0
M  V30 15288 H 1493.02 -4.09674 1.42652 0
M  V30 15289 H 1493.69 -5.49013 0.573478 0
M  V30 15290 H 1496.16 -4.09233 -0.752806 0
M  V30 15291 H 1495.04 -5.30037 -1.42661 0
M  V30 15292 H 1495.3 -3.78756 -2.28028 0
M  V30 15293 N 1494.36 -0.113586 -1.5719 0
M  V30 15294 C 1495.64 0.588987 -1.86522 0
M  V30 15295 C 1496.02 1.85163 -1.01379 0
M  V30 15296 O 1495.36 2.28318 -0.0912188 0
M  V30 15297 C 1495.57 0.886633 -3.3755 0
M  V30 15298 C 1496.92 1.24206 -4.06027 0
M  V30 15299 O 1497.95 0.977068 -3.42537 0
M  V30 15300 O 1496.81 1.73914 -5.18089 0
M  V30 15301 H 1493.9 0.296637 -0.771968 0
M  V30 15302 H 1496.45 -0.147681 -1.69056 0
M  V30 15303 H 1495.22 -0.00835421 -3.91299 0
M  V30 15304 H 1494.84 1.67865 -3.60426 0
M  V30 15305 N 1495.84 1.56784 0.160173 0
M  V30 15306 C 1497.09 1.8226 0.873253 0
M  V30 15307 C 1497.41 0.692384 1.82294 0
M  V30 15308 O 1496.68 -0.286961 1.93787 0
M  V30 15309 H 1495.26 0.672371 0.325463 0
M  V30 15310 H 1497.92 1.94264 0.157325 0
M  V30 15311 H 1497.01 2.76714 1.44345 0
M  V30 15312 N 1497.32 -0.429099 1.51646 0
M  V30 15313 C 1498.56 -1.17551 1.64396 0
M  V30 15314 C 1498.88 -1.91526 0.366444 0
M  V30 15315 O 1498.15 -1.85896 -0.618013 0
M  V30 15316 H 1496.73 -0.436918 0.605898 0
M  V30 15317 H 1499.4 -0.491159 1.8861 0
M  V30 15318 H 1498.49 -1.90057 2.47557 0
M  V30 15319 N 1498.79 -1.41931 -0.685074 0
M  V30 15320 C 1500.02 -1.45229 -1.47364 0
M  V30 15321 C 1500.44 -0.060595 -1.88703 0
M  V30 15322 O 1499.79 0.92244 -1.57472 0
M  V30 15323 C 1499.84 -2.37033 -2.72942 0
M  V30 15324 O 1499.57 -3.70787 -2.33342 0
M  V30 15325 C 1501.07 -2.49244 -3.66596 0
M  V30 15326 H 1498.29 -0.494291 -0.453781 0
M  V30 15327 H 1500.83 -1.86333 -0.84263 0
M  V30 15328 H 1498.99 -1.9921 -3.32256 0
M  V30 15329 H 1499.4 -4.19853 -3.14362 0
M  V30 15330 H 1500.87 -3.17624 -4.51463 0
M  V30 15331 H 1501.35 -1.52703 -4.11799 0
M  V30 15332 H 1501.96 -2.87747 -3.1318 0
M  V30 15333 N 1500.27 0.920374 -1.27933 0
M  V30 15334 C 1501.68 1.48385 -1.13309 0
M  V30 15335 C 1502.03 1.94202 0.279307 0
M  V30 15336 O 1501.16 1.81855 1.17294 0
M  V30 15337 C 1501.75 2.69681 -2.05079 0
M  V30 15338 C 1500.31 3.22229 -1.94539 0
M  V30 15339 C 1499.46 1.94948 -1.97207 0
M  V30 15340 H 1502.41 0.733744 -1.40719 0
M  V30 15341 H 1502.43 3.44717 -1.6109 0
M  V30 15342 H 1501.94 2.36304 -3.07867 0
M  V30 15343 H 1500.04 3.60348 -0.94764 0
M  V30 15344 H 1500.16 3.87927 -2.81157 0
M  V30 15345 H 1498.52 2.1176 -1.41527 0
M  V30 15346 H 1499.3 1.63875 -3.01662 0
M  V30 15347 N 1501.75 1.10074 1.1279 0
M  V30 15348 C 1503 0.842118 1.84489 0
M  V30 15349 C 1503.33 -0.630737 1.83672 0
M  V30 15350 O 1502.6 -1.46481 1.27959 0
M  V30 15351 C 1502.89 1.3864 3.32342 0
M  V30 15352 C 1502.74 2.92585 3.41635 0
M  V30 15353 C 1504.06 1.02565 4.27982 0
M  V30 15354 H 1501.18 0.307376 0.669842 0
M  V30 15355 H 1503.82 1.36326 1.32345 0
M  V30 15356 H 1501.97 0.943134 3.76878 0
M  V30 15357 H 1503.64 3.4541 3.0576 0
M  V30 15358 H 1501.88 3.29378 2.82299 0
M  V30 15359 H 1502.56 3.25749 4.45636 0
M  V30 15360 H 1505.03 1.40807 3.91552 0
M  V30 15361 H 1503.91 1.43345 5.29852 0
M  V30 15362 H 1504.17 -0.0653712 4.42052 0
M  V30 15363 N 1503.23 -1.30138 0.888926 0
M  V30 15364 C 1504.48 -1.95265 0.5054 0
M  V30 15365 C 1504.79 -1.70925 -0.950998 0
M  V30 15366 O 1506 -2.30069 -1.44155 0
M  V30 15367 C 1504.45 -3.49647 0.852937 0
M  V30 15368 C 1504.06 -3.82802 2.32737 0
M  V30 15369 C 1505.8 -4.21067 0.538801 0
M  V30 15370 C 1503.71 -5.30379 2.61633 0
M  V30 15371 H 1502.64 -0.730882 0.185278 0
M  V30 15372 H 1505.29 -1.48027 1.08444 0
M  V30 15373 H 1503.67 -3.9548 0.202937 0
M  V30 15374 H 1504.85 -3.47866 3.02202 0
M  V30 15375 H 1503.16 -3.24495 2.60944 0
M  V30 15376 H 1505.76 -5.2967 0.731676 0
M  V30 15377 H 1506.1 -4.13014 -0.522039 0
M  V30 15378 H 1506.64 -3.8093 1.14617 0
M  V30 15379 H 1503.37 -5.43486 3.66473 0
M  V30 15380 H 1502.89 -5.66601 1.96782 0
M  V30 15381 H 1504.57 -5.97856 2.47339 0
M  V30 15382 N 1504.71 -0.650285 -1.43559 0
M  V30 15383 C 1505.67 0.0336325 -2.29175 0
M  V30 15384 C 1506.67 0.753465 -1.42055 0
M  V30 15385 O 1507.86 0.595158 -1.63718 0
M  V30 15386 C 1504.99 1.05835 -3.24055 0
M  V30 15387 H 1506.18 -0.719643 -2.91138 0
M  V30 15388 H 1503.74 -0.411363 -1.5079 0
M  V30 15389 H 1504.47 1.84096 -2.66982 0
M  V30 15390 H 1504.26 0.545884 -3.88281 0
M  V30 15391 H 1505.75 1.53606 -3.88323 0
M  V30 15392 N 1506.18 1.52647 -0.392018 0
M  V30 15393 C 1507.41 2.06032 0.189293 0
M  V30 15394 C 1507.83 1.26351 1.40288 0
M  V30 15395 O 1507.18 0.310877 1.79833 0
M  V30 15396 C 1507.23 3.57187 0.55672 0
M  V30 15397 O 1506.96 4.33851 -0.608657 0
M  V30 15398 C 1508.46 4.26929 1.1936 0
M  V30 15399 H 1505.68 0.670419 0.0279177 0
M  V30 15400 H 1508.22 1.96739 -0.558033 0
M  V30 15401 H 1506.38 3.66545 1.25394 0
M  V30 15402 H 1506.79 5.23606 -0.306039 0
M  V30 15403 H 1508.26 5.33924 1.40104 0
M  V30 15404 H 1508.74 3.82315 2.16175 0
M  V30 15405 H 1509.35 4.21895 0.537069 0
M  V30 15406 N 1507.66 0.121921 1.57128 0
M  V30 15407 C 1508.57 -0.840825 2.19014 0
M  V30 15408 C 1509.59 -1.29051 1.16712 0
M  V30 15409 O 1510.76 -1.35289 1.49194 0
M  V30 15410 C 1507.83 -2.07204 2.7797 0
M  V30 15411 C 1506.89 -1.67399 3.95318 0
M  V30 15412 C 1506.12 -2.84652 4.51452 0
M  V30 15413 O 1506.35 -4.00161 4.06482 0
M  V30 15414 O 1505.28 -2.61568 5.42094 0
M  V30 15415 H 1509.11 -0.344146 3.01744 0
M  V30 15416 H 1506.69 -0.103841 1.49039 0
M  V30 15417 H 1508.57 -2.79307 3.1554 0
M  V30 15418 H 1507.25 -2.55872 1.9827 0
M  V30 15419 H 1506.16 -0.92395 3.62511 0
M  V30 15420 H 1507.49 -1.2347 4.76462 0
M  V30 15421 N 1509.14 -1.56867 -0.151857 0
M  V30 15422 C 1510.42 -1.7399 -0.893694 0
M  V30 15423 C 1510.8 -0.688628 -1.99552 0
M  V30 15424 O 1510.15 0.293289 -2.2661 0
M  V30 15425 C 1510.36 -3.1788 -1.44061 0
M  V30 15426 C 1511.7 -3.7942 -1.90592 0
M  V30 15427 O 1512.73 -3.21279 -1.53813 0
M  V30 15428 O 1511.59 -4.81549 -2.58404 0
M  V30 15429 H 1508.68 -0.711229 -0.421998 0
M  V30 15430 H 1511.23 -1.69137 -0.138162 0
M  V30 15431 H 1510 -3.85888 -0.648529 0
M  V30 15432 H 1509.62 -3.27139 -2.25978 0
M  V30 15433 N 1510.62 0.421051 -1.51871 0
M  V30 15434 C 1511.58 1.49478 -1.73749 0
M  V30 15435 C 1512.58 1.48887 -0.607395 0
M  V30 15436 O 1513.77 1.50622 -0.875143 0
M  V30 15437 C 1510.9 2.88947 -1.80893 0
M  V30 15438 H 1512.1 1.31377 -2.69593 0
M  V30 15439 H 1509.65 0.650786 -1.42107 0
M  V30 15440 H 1510.38 3.12434 -0.86922 0
M  V30 15441 H 1510.17 2.90781 -2.63038 0
M  V30 15442 H 1511.66 3.66809 -1.99602 0
M  V30 15443 N 1512.1 1.42293 0.677538 0
M  V30 15444 C 1513.32 1.46008 1.46592 0
M  V30 15445 C 1513.74 0.0706015 1.88668 0
M  V30 15446 O 1513.1 -0.914076 1.57959 0
M  V30 15447 C 1513.15 2.38477 2.71682 0
M  V30 15448 O 1512.87 3.72019 2.31372 0
M  V30 15449 C 1514.37 2.51185 3.65269 0
M  V30 15450 H 1511.59 0.49669 0.451154 0
M  V30 15451 H 1514.13 1.86777 0.832736 0
M  V30 15452 H 1512.29 2.00969 3.31195 0
M  V30 15453 H 1512.7 4.21514 3.12131 0
M  V30 15454 H 1514.18 3.20014 4.49772 0
M  V30 15455 H 1514.65 1.54885 4.10983 0
M  V30 15456 H 1515.26 2.89404 3.1165 0
M  V30 15457 N 1513.57 -0.913576 1.28419 0
M  V30 15458 C 1514.8 -1.70178 1.18551 0
M  V30 15459 C 1515.22 -1.864 -0.252307 0
M  V30 15460 O 1514.58 -1.37427 -1.18252 0
M  V30 15461 C 1514.63 -3.07145 1.8893 0
M  V30 15462 O 1513.73 -3.9465 1.19688 0
M  V30 15463 H 1513.08 -0.521092 0.411533 0
M  V30 15464 H 1515.61 -1.14228 1.69744 0
M  V30 15465 H 1515.62 -3.57375 1.96843 0
M  V30 15466 H 1514.29 -2.94655 2.93515 0
M  V30 15467 H 1512.87 -3.53085 1.19939 0
M  V30 15468 N 1515.05 -1.1067 -1.12204 0
M  V30 15469 C 1516.02 -0.761145 -2.16193 0
M  V30 15470 C 1517.02 0.215599 -1.59348 0
M  V30 15471 O 1518.21 -0.00786723 -1.74198 0
M  V30 15472 C 1515.34 -0.127863 -3.4066 0
M  V30 15473 H 1516.53 -1.68225 -2.48275 0
M  V30 15474 H 1514.08 -0.907542 -1.27253 0
M  V30 15475 H 1514.82 0.803851 -3.14179 0
M  V30 15476 H 1514.6 -0.83085 -3.83196 0
M  V30 15477 H 1516.09 0.0980593 -4.17485 0
M  V30 15478 N 1516.53 1.29665 -0.895815 0
M  V30 15479 C 1517.46 2.26013 -0.315211 0
M  V30 15480 C 1518.44 1.52267 0.570404 0
M  V30 15481 O 1519.63 1.81241 0.518081 0
M  V30 15482 C 1516.75 3.34187 0.551068 0
M  V30 15483 C 1515.8 4.25665 -0.266698 0
M  V30 15484 S 1516.63 5.09056 -1.66198 0
M  V30 15485 C 1517.79 6.20734 -0.80252 0
M  V30 15486 H 1518.02 2.74911 -1.13187 0
M  V30 15487 H 1515.55 1.37827 -0.695913 0
M  V30 15488 H 1517.51 3.96973 1.04511 0
M  V30 15489 H 1516.17 2.83991 1.34193 0
M  V30 15490 H 1515.37 5.02451 0.394869 0
M  V30 15491 H 1514.97 3.6751 -0.69374 0
M  V30 15492 H 1517.26 6.77496 -0.0242039 0
M  V30 15493 H 1518.2 6.91099 -1.54233 0
M  V30 15494 H 1518.61 5.6336 -0.358625 0
M  V30 15495 N 1518.01 0.657889 1.43212 0
M  V30 15496 C 1519.42 0.325876 1.56238 0
M  V30 15497 C 1519.62 -1.16975 1.6407 0
M  V30 15498 O 1518.68 -1.95473 1.59833 0
M  V30 15499 C 1519.99 1.04134 2.82093 0
M  V30 15500 C 1521.54 1.02204 2.95844 0
M  V30 15501 C 1522.02 1.71849 4.24537 0
M  V30 15502 N 1523.51 1.68635 4.31412 0
M  V30 15503 C 1524.24 2.19393 5.29768 0
M  V30 15504 N 1523.74 2.7846 6.34375 0
M  V30 15505 N 1525.53 2.09866 5.21452 0
M  V30 15506 H 1517.68 1.62839 1.36371 0
M  V30 15507 H 1519.95 0.685072 0.655271 0
M  V30 15508 H 1519.65 2.09647 2.82385 0
M  V30 15509 H 1519.53 0.595842 3.72464 0
M  V30 15510 H 1521.91 -0.0247029 2.9509 0
M  V30 15511 H 1521.99 1.50627 2.06749 0
M  V30 15512 H 1521.64 2.76482 4.26052 0
M  V30 15513 H 1521.57 1.20888 5.12536 0
M  V30 15514 H 1524.06 1.25536 3.56439 0
M  V30 15515 H 1524.37 3.14855 7.05752 0
M  V30 15516 H 1522.72 2.82523 6.34985 0
M  V30 15517 H 1525.91 1.63422 4.38647 0
M  V30 15518 H 1526.08 2.49732 5.97945 0
M  V30 15519 N 1519.49 -1.52437 0.400108 0
M  V30 15520 C 1520.71 -2.0613 -0.178364 0
M  V30 15521 C 1521.13 -1.27094 -1.39616 0
M  V30 15522 O 1520.49 -0.320409 -1.79665 0
M  V30 15523 C 1520.54 -3.57478 -0.53777 0
M  V30 15524 O 1520.26 -4.33522 0.631657 0
M  V30 15525 C 1521.76 -4.27556 -1.17094 0
M  V30 15526 H 1518.98 -0.670558 -0.0243619 0
M  V30 15527 H 1521.52 -1.9644 0.568459 0
M  V30 15528 H 1519.68 -3.67205 -1.23449 0
M  V30 15529 H 1520.09 -5.23437 0.333803 0
M  V30 15530 H 1521.57 -5.3466 -1.3727 0
M  V30 15531 H 1522.04 -3.83456 -2.14145 0
M  V30 15532 H 1522.65 -4.22174 -0.514687 0
M  V30 15533 N 1520.96 -0.130252 -1.57061 0
M  V30 15534 C 1522.21 0.525784 -1.95866 0
M  V30 15535 C 1522.54 1.65607 -1.01429 0
M  V30 15536 O 1521.82 1.94426 -0.0535544 0
M  V30 15537 C 1522.1 1.04784 -3.44517 0
M  V30 15538 C 1521.95 -0.0797972 -4.49729 0
M  V30 15539 C 1523.27 1.9351 -3.95275 0
M  V30 15540 H 1520.39 0.189652 -0.71218 0
M  V30 15541 H 1523.03 -0.208091 -1.88857 0
M  V30 15542 H 1521.18 1.67324 -3.50621 0
M  V30 15543 H 1522.86 -0.715535 -4.55717 0
M  V30 15544 H 1521.1 -0.741358 -4.27418 0
M  V30 15545 H 1521.77 0.326915 -5.51031 0
M  V30 15546 H 1524.25 1.40825 -3.91545 0
M  V30 15547 H 1523.12 2.26952 -4.99784 0
M  V30 15548 H 1523.38 2.86583 -3.36634 0
M  V30 15549 N 1522.44 1.56945 0.143535 0
M  V30 15550 C 1523.37 2.0156 1.17881 0
M  V30 15551 C 1524.35 0.895744 1.44604 0
M  V30 15552 O 1525.54 1.16379 1.55466 0
M  V30 15553 C 1522.67 2.39915 2.51114 0
M  V30 15554 C 1521.62 3.55117 2.38905 0
M  V30 15555 C 1520.95 3.79296 3.7688 0
M  V30 15556 C 1522.25 4.87668 1.87021 0
M  V30 15557 H 1523.94 2.88296 0.80783 0
M  V30 15558 H 1521.49 1.38698 0.387149 0
M  V30 15559 H 1523.44 2.69727 3.23767 0
M  V30 15560 H 1522.17 1.5012 2.90055 0
M  V30 15561 H 1520.83 3.25476 1.68703 0
M  V30 15562 H 1520.47 2.86747 4.13262 0
M  V30 15563 H 1520.17 4.56827 3.69571 0
M  V30 15564 H 1521.7 4.11537 4.51076 0
M  V30 15565 H 1523.11 5.16176 2.4947 0
M  V30 15566 H 1521.51 5.69029 1.90594 0
M  V30 15567 H 1522.58 4.77811 0.82611 0
M  V30 15568 N 1523.92 -0.412991 1.52093 0
M  V30 15569 C 1524.88 -1.48555 1.7454 0
M  V30 15570 C 1525.88 -1.48563 0.615283 0
M  V30 15571 O 1527.07 -1.50155 0.883119 0
M  V30 15572 C 1524.21 -2.87984 1.82423 0
M  V30 15573 H 1525.4 -1.29945 2.70285 0
M  V30 15574 H 1522.95 -0.643241 1.4245 0
M  V30 15575 H 1523.69 -3.11969 0.885777 0
M  V30 15576 H 1523.47 -2.89381 2.64577 0
M  V30 15577 H 1524.96 -3.65745 2.01545 0
M  V30 15578 N 1525.4 -1.4265 -0.669982 0
M  V30 15579 C 1526.65 -1.42667 -1.42579 0
M  V30 15580 C 1526.96 -0.0483217 -1.9554 0
M  V30 15581 O 1528.17 0.0740917 -2.71399 0
M  V30 15582 C 1526.62 -2.5098 -2.57948 0
M  V30 15583 C 1526.23 -3.94844 -2.11666 0
M  V30 15584 C 1527.98 -2.6017 -3.35428 0
M  V30 15585 C 1525.88 -4.94655 -3.24146 0
M  V30 15586 H 1524.81 -0.530651 -0.535654 0
M  V30 15587 H 1527.46 -1.68576 -0.724861 0
M  V30 15588 H 1525.85 -2.18244 -3.30432 0
M  V30 15589 H 1527.02 -4.36958 -1.46303 0
M  V30 15590 H 1525.33 -3.89547 -1.47111 0
M  V30 15591 H 1527.93 -3.31918 -4.19207 0
M  V30 15592 H 1528.27 -1.64683 -3.82342 0
M  V30 15593 H 1528.81 -2.92124 -2.70016 0
M  V30 15594 H 1525.55 -5.91636 -2.82218 0
M  V30 15595 H 1525.07 -4.57168 -3.88275 0
M  V30 15596 H 1526.75 -5.16593 -3.89538 0
M  V30 15597 N 1526.88 0.906753 -1.28902 0
M  V30 15598 C 1527.84 1.99158 -1.1344 0
M  V30 15599 C 1528.84 1.60639 -0.0719551 0
M  V30 15600 O 1530.03 1.71267 -0.318317 0
M  V30 15601 C 1527.16 3.32923 -0.733172 0
M  V30 15602 H 1528.36 2.14305 -2.09794 0
M  V30 15603 H 1525.91 1.09034 -1.11988 0
M  V30 15604 H 1526.64 3.23477 0.230826 0
M  V30 15605 H 1526.43 3.62244 -1.50073 0
M  V30 15606 H 1527.92 4.12544 -0.64784 0
M  V30 15607 N 1528.36 1.11264 1.11616 0
M  V30 15608 C 1529.32 0.7726 2.15786 0
M  V30 15609 C 1530.32 -0.207145 1.5946 0
M  V30 15610 O 1531.51 0.0171053 1.74192 0
M  V30 15611 C 1528.64 0.145927 3.40588 0
M  V30 15612 H 1529.83 1.69539 2.47379 0
M  V30 15613 H 1527.39 0.914278 1.2677 0
M  V30 15614 H 1528.12 -0.787178 3.14601 0
M  V30 15615 H 1527.91 0.851161 3.8275 0
M  V30 15616 H 1529.4 -0.0759176 4.17531 0
M  V30 15617 N 1529.83 -1.29188 0.902679 0
M  V30 15618 C 1531.08 -1.95052 0.529076 0
M  V30 15619 C 1531.4 -1.7149 -0.92824 0
M  V30 15620 O 1530.67 -1.04834 -1.65489 0
M  V30 15621 H 1529.25 -0.721725 0.192671 0
M  V30 15622 H 1531.91 -1.57384 1.14962 0
M  V30 15623 H 1531.01 -3.03819 0.714179 0
M  V30 15624 N 1531.31 -0.665475 -1.42861 0
M  V30 15625 C 1532.56 -0.184156 -2.01962 0
M  V30 15626 C 1532.89 1.20301 -1.52451 0
M  V30 15627 O 1532.17 1.80573 -0.722756 0
M  V30 15628 C 1532.45 -0.208497 -3.59496 0
M  V30 15629 C 1532.3 -1.63045 -4.19209 0
M  V30 15630 C 1533.62 0.448421 -4.3781 0
M  V30 15631 H 1530.74 -0.0683924 -0.73382 0
M  V30 15632 H 1533.38 -0.84849 -1.70002 0
M  V30 15633 H 1531.53 0.357179 -3.86855 0
M  V30 15634 H 1533.2 -2.24766 -4.02837 0
M  V30 15635 H 1531.45 -2.17401 -3.75392 0
M  V30 15636 H 1532.12 -1.59924 -5.28326 0
M  V30 15637 H 1534.59 -0.0330053 -4.16087 0
M  V30 15638 H 1533.47 0.400713 -5.47435 0
M  V30 15639 H 1533.73 1.52454 -4.14982 0
M  V30 15640 N 1532.79 1.52222 -0.408187 0
M  V30 15641 C 1534.07 1.94285 0.22641 0
M  V30 15642 C 1534.45 1.34501 1.62705 0
M  V30 15643 O 1533.79 0.52045 2.22494 0
M  V30 15644 C 1534 3.48217 0.233695 0
M  V30 15645 C 1535.35 4.22171 0.453504 0
M  V30 15646 O 1536.38 3.54821 0.313093 0
M  V30 15647 O 1535.24 5.416 0.730183 0
M  V30 15648 H 1532.33 0.814078 0.145625 0
M  V30 15649 H 1534.88 1.63232 -0.464062 0
M  V30 15650 H 1533.65 3.84111 -0.746644 0
M  V30 15651 H 1533.27 3.85629 0.968305 0
M  V30 15652 N 1534.27 0.138579 1.5699 0
M  V30 15653 C 1535.49 -0.525074 2.00643 0
M  V30 15654 C 1535.92 -1.58174 1.01796 0
M  V30 15655 O 1535.28 -1.81298 -0.00754003 0
M  V30 15656 C 1535.32 -1.11019 3.43085 0
M  V30 15657 O 1534.43 -2.22529 3.4721 0
M  V30 15658 H 1533.77 -0.129283 0.651292 0
M  V30 15659 H 1536.3 0.23283 2.03271 0
M  V30 15660 H 1536.31 -1.44093 3.81708 0
M  V30 15661 H 1534.98 -0.336325 4.14538 0
M  V30 15662 H 1533.56 -1.90747 3.20422 0
M  V30 15663 N 1535.75 -1.57019 -0.13521 0
M  V30 15664 C 1537.16 -1.73319 -0.694067 0
M  V30 15665 C 1537.51 -0.754808 -1.811 0
M  V30 15666 O 1536.63 0.0759463 -2.16267 0
M  V30 15667 C 1537.23 -3.14266 -1.26579 0
M  V30 15668 C 1535.79 -3.32128 -1.7711 0
M  V30 15669 C 1534.93 -2.69226 -0.664263 0
M  V30 15670 H 1537.88 -1.58441 0.0905702 0
M  V30 15671 H 1537.91 -3.14919 -2.13557 0
M  V30 15672 H 1537.42 -3.85451 -0.452652 0
M  V30 15673 H 1535.52 -2.65959 -2.60953 0
M  V30 15674 H 1535.63 -4.40172 -1.8917 0
M  V30 15675 H 1534 -2.30016 -1.09384 0
M  V30 15676 H 1534.78 -3.43024 0.13763 0
M  V30 15677 N 1537.22 0.404919 -1.52309 0
M  V30 15678 C 1538.13 1.51822 -1.7885 0
M  V30 15679 C 1539.15 1.60403 -0.674307 0
M  V30 15680 O 1540.33 1.77038 -0.960175 0
M  V30 15681 C 1537.39 2.87516 -1.9374 0
M  V30 15682 C 1536.45 2.88787 -3.17648 0
M  V30 15683 C 1535.69 4.18009 -3.31819 0
M  V30 15684 O 1535.91 5.12129 -2.51158 0
M  V30 15685 O 1534.84 4.26222 -4.24992 0
M  V30 15686 H 1538.67 1.32329 -2.73354 0
M  V30 15687 H 1536.25 0.591193 -1.37205 0
M  V30 15688 H 1538.14 3.6799 -2.05333 0
M  V30 15689 H 1536.81 3.07068 -1.02425 0
M  V30 15690 H 1535.72 2.07152 -3.11511 0
M  V30 15691 H 1537.05 2.74185 -4.08758 0
M  V30 15692 N 1538.7 1.43003 0.662408 0
M  V30 15693 C 1539.95 1.44133 1.42239 0
M  V30 15694 C 1540.28 0.062249 1.944 0
M  V30 15695 O 1539.53 -0.931341 1.72118 0
M  V30 15696 C 1539.83 2.4231 2.62718 0
M  V30 15697 C 1539.5 3.88403 2.29028 0
M  V30 15698 C 1538.16 4.28194 2.19552 0
M  V30 15699 C 1540.51 4.80505 2.01902 0
M  V30 15700 C 1537.84 5.58052 1.81092 0
M  V30 15701 C 1540.19 6.10718 1.64943 0
M  V30 15702 C 1538.86 6.49496 1.53985 0
M  V30 15703 H 1538.13 0.527419 0.52049 0
M  V30 15704 H 1540.77 1.76024 0.75417 0
M  V30 15705 H 1539.08 2.03789 3.3463 0
M  V30 15706 H 1540.77 2.40442 3.20918 0
M  V30 15707 H 1537.36 3.56906 2.37311 0
M  V30 15708 H 1541.55 4.50542 2.08149 0
M  V30 15709 H 1536.8 5.86945 1.71187 0
M  V30 15710 H 1540.98 6.81564 1.42982 0
M  V30 15711 H 1538.61 7.50026 1.23954 0
M  V30 15712 N 1540.18 -0.899904 1.29381 0
M  V30 15713 C 1541.11 -2.02045 1.17047 0
M  V30 15714 C 1542.09 -1.69977 0.0647354 0
M  V30 15715 O 1543.28 -1.92659 0.244173 0
M  V30 15716 C 1540.41 -3.36839 0.845991 0
M  V30 15717 C 1539.36 -3.83117 1.90802 0
M  V30 15718 C 1538.69 -5.15032 1.43686 0
M  V30 15719 C 1539.99 -4.03464 3.31684 0
M  V30 15720 H 1541.68 -2.12623 2.10789 0
M  V30 15721 H 1539.23 -1.02162 1.01484 0
M  V30 15722 H 1541.18 -4.14737 0.746413 0
M  V30 15723 H 1539.9 -3.26352 -0.127125 0
M  V30 15724 H 1538.56 -3.07435 1.99698 0
M  V30 15725 H 1538.21 -5.00961 0.452422 0
M  V30 15726 H 1537.91 -5.46967 2.14711 0
M  V30 15727 H 1539.43 -5.95472 1.35078 0
M  V30 15728 H 1540.85 -4.71845 3.25631 0
M  V30 15729 H 1539.25 -4.46752 4.00665 0
M  V30 15730 H 1540.32 -3.07807 3.74677 0
M  V30 15731 N 1541.66 -1.11854 -1.11024 0
M  V30 15732 C 1543.07 -0.885443 -1.64368 0
M  V30 15733 C 1543.42 0.581455 -1.87386 0
M  V30 15734 O 1542.55 1.44452 -1.61129 0
M  V30 15735 C 1543.14 -1.60082 -2.98595 0
M  V30 15736 C 1541.7 -1.41403 -3.4883 0
M  V30 15737 C 1540.85 -1.64069 -2.23555 0
M  V30 15738 H 1543.8 -1.27418 -0.94606 0
M  V30 15739 H 1543.82 -1.04832 -3.65774 0
M  V30 15740 H 1543.33 -2.66842 -2.8181 0
M  V30 15741 H 1541.43 -0.368727 -3.70771 0
M  V30 15742 H 1541.54 -2.16603 -4.27341 0
M  V30 15743 H 1539.91 -1.06437 -2.31394 0
M  V30 15744 H 1540.69 -2.72112 -2.09308 0
M  V30 15745 N 1543.14 1.28707 -0.909517 0
M  V30 15746 C 1544.1 2.25692 -0.39946 0
M  V30 15747 C 1545.1 1.53721 0.471848 0
M  V30 15748 O 1546.29 1.72008 0.275504 0
M  V30 15749 C 1543.42 3.38205 0.427793 0
M  V30 15750 H 1544.61 2.72326 -1.25613 0
M  V30 15751 H 1542.17 1.40317 -0.688535 0
M  V30 15752 H 1542.9 2.96926 1.30404 0
M  V30 15753 H 1542.69 3.91606 -0.19667 0
M  V30 15754 H 1544.18 4.10334 0.775634 0
M  V30 15755 N 1544.61 0.673042 1.42506 0
M  V30 15756 C 1545.86 0.194864 2.01862 0
M  V30 15757 C 1546.19 -1.19491 1.53087 0
M  V30 15758 O 1545.47 -1.80187 0.732322 0
M  V30 15759 C 1545.75 0.227559 3.5938 0
M  V30 15760 C 1545.6 1.65266 4.18338 0
M  V30 15761 C 1546.92 -0.425197 4.38041 0
M  V30 15762 H 1544.04 0.0722831 0.733447 0
M  V30 15763 H 1546.68 0.857493 1.6955 0
M  V30 15764 H 1544.83 -0.336658 3.87039 0
M  V30 15765 H 1546.51 2.26899 4.0164 0
M  V30 15766 H 1544.75 2.19388 3.74234 0
M  V30 15767 H 1545.42 1.62724 5.2747 0
M  V30 15768 H 1547.9 0.0550709 4.16064 0
M  V30 15769 H 1546.77 -0.371675 5.4764 0
M  V30 15770 H 1547.03 -1.50251 4.15785 0
M  V30 15771 N 1546.09 -1.52004 0.416254 0
M  V30 15772 C 1547.06 -2.2579 -0.393882 0
M  V30 15773 C 1548.06 -1.28427 -0.967637 0
M  V30 15774 O 1549.25 -1.52311 -0.845396 0
M  V30 15775 C 1546.38 -3.03361 -1.55515 0
M  V30 15776 H 1547.57 -2.98835 0.252492 0
M  V30 15777 H 1545.12 -1.55384 0.168929 0
M  V30 15778 H 1545.86 -2.34682 -2.23818 0
M  V30 15779 H 1545.64 -3.74852 -1.15015 0
M  V30 15780 H 1547.13 -3.5931 -2.12805 0
M  V30 15781 N 1547.57 -0.146903 -1.56914 0
M  V30 15782 C 1548.52 0.809917 -2.18044 0
M  V30 15783 C 1549.51 1.25536 -1.13741 0
M  V30 15784 O 1550.72 1.22385 -1.31992 0
M  V30 15785 H 1547.09 0.279387 -0.698174 0
M  V30 15786 H 1549.06 0.270135 -2.97175 0
M  V30 15787 C 1547.81 2.03904 -2.81635 0
M  V30 15788 H 1547.14 1.70526 -3.61609 0
M  V30 15789 H 1548.58 2.68795 -3.2791 0
M  V30 15790 C 1547.04 2.84696 -1.80138 0
M  V30 15791 O 1547.57 3.81036 -1.27179 0
M  V30 15792 N 1545.77 2.49229 -1.49444 0
M  V30 15793 H 1545.32 1.70949 -1.92702 0
M  V30 15794 H 1545.28 3.03577 -0.817811 0
M  V30 15795 N 1549.05 1.57088 0.126881 0
M  V30 15796 C 1550.3 1.84071 0.834397 0
M  V30 15797 C 1550.62 0.730896 1.80784 0
M  V30 15798 O 1549.89 -0.245791 1.94352 0
M  V30 15799 H 1548.47 0.679123 0.311128 0
M  V30 15800 H 1551.13 1.94554 0.116083 0
M  V30 15801 H 1550.23 2.79714 1.38443 0
M  V30 15802 N 1550.53 -0.396836 1.52522 0
M  V30 15803 C 1551.75 -1.16404 1.71049 0
M  V30 15804 C 1552.17 -1.83946 0.425378 0
M  V30 15805 O 1551.53 -1.7237 -0.599561 0
M  V30 15806 C 1551.58 -2.21796 2.85463 0
M  V30 15807 O 1551.3 -1.57009 4.08998 0
M  V30 15808 C 1552.8 -3.11303 3.15603 0
M  V30 15809 H 1550.02 -0.349314 0.572905 0
M  V30 15810 H 1552.56 -0.465297 1.99136 0
M  V30 15811 H 1550.72 -2.87318 2.59859 0
M  V30 15812 H 1551.13 -2.26977 4.72844 0
M  V30 15813 H 1552.61 -3.81299 3.99143 0
M  V30 15814 H 1553.08 -3.7437 2.2966 0
M  V30 15815 H 1553.69 -2.51435 3.43017 0
M  V30 15816 N 1552.01 -1.43353 -0.654814 0
M  V30 15817 C 1552.97 -1.4806 -1.7496 0
M  V30 15818 C 1553.97 -0.365513 -1.56591 0
M  V30 15819 O 1555.16 -0.627194 -1.62517 0
M  V30 15820 C 1552.29 -1.33165 -3.13815 0
M  V30 15821 H 1553.48 -2.45557 -1.72167 0
M  V30 15822 H 1551.04 -1.30094 -0.86632 0
M  V30 15823 H 1551.77 -0.366689 -3.2222 0
M  V30 15824 H 1551.56 -2.13998 -3.28553 0
M  V30 15825 H 1553.05 -1.39388 -3.93651 0
M  V30 15826 N 1553.48 0.89303 -1.29857 0
M  V30 15827 C 1554.71 1.67744 -1.21119 0
M  V30 15828 C 1555.13 1.87428 0.227198 0
M  V30 15829 O 1554.48 1.41605 1.15128 0
M  V30 15830 C 1554.53 3.05827 -1.92749 0
M  V30 15831 O 1554.26 2.87036 -3.30971 0
M  V30 15832 C 1555.76 4.00248 -1.9057 0
M  V30 15833 H 1552.98 0.523699 -0.4195 0
M  V30 15834 H 1555.52 1.1163 -1.71344 0
M  V30 15835 H 1553.68 3.58696 -1.46342 0
M  V30 15836 H 1554.09 3.74578 -3.6714 0
M  V30 15837 H 1555.56 4.9453 -2.45242 0
M  V30 15838 H 1556.04 4.30237 -0.882753 0
M  V30 15839 H 1556.65 3.53312 -2.36751 0
M  V30 15840 N 1554.96 1.12442 1.10429 0
M  V30 15841 C 1555.89 0.814745 2.18824 0
M  V30 15842 C 1556.87 -0.221476 1.68652 0
M  V30 15843 O 1558.06 -0.0826537 1.94024 0
M  V30 15844 C 1555.19 0.268632 3.4626 0
M  V30 15845 C 1554.14 1.23792 4.09707 0
M  V30 15846 C 1553.47 0.552034 5.31843 0
M  V30 15847 C 1554.77 2.5926 4.53411 0
M  V30 15848 H 1556.46 1.72111 2.44986 0
M  V30 15849 H 1554.01 0.828968 1.17746 0
M  V30 15850 H 1555.96 0.0397207 4.21381 0
M  V30 15851 H 1554.68 -0.673079 3.19589 0
M  V30 15852 H 1553.34 1.45264 3.36592 0
M  V30 15853 H 1552.99 -0.394821 5.01448 0
M  V30 15854 H 1552.69 1.19861 5.75245 0
M  V30 15855 H 1554.22 0.332161 6.09696 0
M  V30 15856 H 1555.63 2.41816 5.19806 0
M  V30 15857 H 1554.03 3.19997 5.07663 0
M  V30 15858 H 1555.1 3.17699 3.66327 0
M  V30 15859 N 1556.44 -1.28223 0.91633 0
M  V30 15860 C 1557.67 -1.98986 0.566772 0
M  V30 15861 C 1558.08 -1.68455 -0.852553 0
M  V30 15862 O 1557.44 -0.938734 -1.56506 0
M  V30 15863 C 1557.49 -3.53217 0.769423 0
M  V30 15864 O 1557.21 -3.82674 2.1329 0
M  V30 15865 C 1558.71 -4.41238 0.427043 0
M  V30 15866 H 1555.93 -0.63534 0.215834 0
M  V30 15867 H 1558.48 -1.63357 1.23024 0
M  V30 15868 H 1556.63 -3.87098 0.152915 0
M  V30 15869 H 1557.05 -4.77302 2.17448 0
M  V30 15870 H 1558.52 -5.48512 0.619594 0
M  V30 15871 H 1559 -4.34558 -0.63686 0
M  V30 15872 H 1559.6 -4.12858 1.0212 0
M  V30 15873 N 1557.92 -0.68059 -1.42147 0
M  V30 15874 C 1559.16 -0.205567 -2.01755 0
M  V30 15875 C 1559.5 1.18677 -1.53718 0
M  V30 15876 O 1558.77 1.79796 -0.741867 0
M  V30 15877 C 1559.05 -0.246615 -3.59255 0
M  V30 15878 C 1558.91 -1.67483 -4.17456 0
M  V30 15879 C 1560.23 0.40196 -4.38261 0
M  V30 15880 H 1557.35 -0.0761717 -0.733053 0
M  V30 15881 H 1559.99 -0.866473 -1.69092 0
M  V30 15882 H 1558.14 0.316127 -3.87212 0
M  V30 15883 H 1559.81 -2.29026 -4.00431 0
M  V30 15884 H 1558.05 -2.2137 -3.73065 0
M  V30 15885 H 1558.72 -1.65519 -5.266 0
M  V30 15886 H 1561.2 -0.077135 -4.16028 0
M  V30 15887 H 1560.08 0.342627 -5.4783 0
M  V30 15888 H 1560.34 1.48044 -4.16576 0
M  V30 15889 N 1559.4 1.51781 -0.424309 0
M  V30 15890 C 1560.67 1.94514 0.205791 0
M  V30 15891 C 1561.05 1.36219 1.61269 0
M  V30 15892 O 1560.4 0.544019 2.21929 0
M  V30 15893 C 1560.61 3.48445 0.196749 0
M  V30 15894 C 1561.96 4.22628 0.408702 0
M  V30 15895 O 1562.98 3.55133 0.275441 0
M  V30 15896 O 1561.84 5.42344 0.672698 0
M  V30 15897 H 1558.94 0.815576 0.136983 0
M  V30 15898 H 1561.48 1.6273 -0.481349 0
M  V30 15899 H 1560.25 3.83297 -0.787342 0
M  V30 15900 H 1559.88 3.86634 0.92735 0
M  V30 15901 N 1560.87 0.155222 1.56834 0
M  V30 15902 C 1562.12 -0.488126 1.97456 0
M  V30 15903 C 1562.47 -1.61935 1.03898 0
M  V30 15904 O 1561.77 -1.91451 0.0755621 0
M  V30 15905 C 1561.96 -1.03346 3.42132 0
M  V30 15906 C 1561.79 0.0434014 4.49679 0
M  V30 15907 C 1560.56 0.487619 5.02942 0
M  V30 15908 C 1562.76 0.837907 5.07428 0
M  V30 15909 N 1560.74 1.54646 5.94102 0
M  V30 15910 C 1562.11 1.74705 5.94877 0
M  V30 15911 C 1564.17 0.884781 4.89976 0
M  V30 15912 C 1562.87 2.69907 6.6674 0
M  V30 15913 C 1564.9 1.82467 5.62548 0
M  V30 15914 C 1564.26 2.72132 6.4971 0
M  V30 15915 H 1560.36 -0.147187 0.768023 0
M  V30 15916 H 1562.94 0.251725 1.93066 0
M  V30 15917 H 1561.11 -1.74288 3.471 0
M  V30 15918 H 1562.84 -1.6441 3.69799 0
M  V30 15919 H 1559.6 0.0883276 4.73518 0
M  V30 15920 H 1560.02 2.07589 6.44388 0
M  V30 15921 H 1564.66 0.205617 4.223 0
M  V30 15922 H 1562.38 3.3882 7.33639 0
M  V30 15923 H 1565.97 1.86684 5.51036 0
M  V30 15924 H 1564.85 3.43676 7.0488 0
M  V30 15925 N 1562.35 -1.57153 -0.118549 0
M  V30 15926 C 1563.3 -1.96802 -1.15122 0
M  V30 15927 C 1564.29 -0.843066 -1.37045 0
M  V30 15928 O 1565.48 -1.10676 -1.38129 0
M  V30 15929 C 1562.61 -2.37625 -2.47768 0
M  V30 15930 C 1561.69 -3.56754 -2.29319 0
M  V30 15931 N 1562.08 -4.72427 -1.80683 0
M  V30 15932 C 1560.38 -3.62395 -2.59973 0
M  V30 15933 C 1561.08 -5.54451 -1.75952 0
M  V30 15934 N 1560.06 -4.96954 -2.20314 0
M  V30 15935 H 1563.86 -2.83695 -0.767744 0
M  V30 15936 H 1561.37 -1.59088 -0.326287 0
M  V30 15937 H 1563.37 -2.64247 -3.22458 0
M  V30 15938 H 1562.03 -1.52097 -2.86874 0
M  V30 15939 H 1563.04 -4.95634 -1.50223 0
M  V30 15940 H 1559.72 -2.87475 -3.02762 0
M  V30 15941 H 1561.11 -6.57238 -1.39599 0
M  V30 15942 N 1563.83 0.388742 -1.5273 0
M  V30 15943 C 1565.24 0.966667 -1.59726 0
M  V30 15944 C 1565.59 1.90963 -0.450272 0
M  V30 15945 O 1564.72 2.12153 0.426611 0
M  V30 15946 C 1565.31 1.75998 -2.895 0
M  V30 15947 C 1563.87 2.28761 -2.98907 0
M  V30 15948 C 1563.02 1.09322 -2.54841 0
M  V30 15949 H 1565.97 0.16828 -1.57805 0
M  V30 15950 H 1565.99 2.61924 -2.76 0
M  V30 15951 H 1565.5 1.07342 -3.7296 0
M  V30 15952 H 1563.6 3.00728 -2.19985 0
M  V30 15953 H 1563.72 2.58229 -4.03552 0
M  V30 15954 H 1562.08 1.45332 -2.09167 0
M  V30 15955 H 1562.86 0.421999 -3.40696 0
M  V30 15956 N 1565.31 1.43698 0.647203 0
M  V30 15957 C 1566.22 1.51781 1.78884 0
M  V30 15958 C 1567.23 0.404498 1.69233 0
M  V30 15959 O 1568.41 0.659509 1.90296 0
M  V30 15960 C 1565.47 1.44408 3.15194 0
M  V30 15961 C 1564.54 2.6646 3.36597 0
M  V30 15962 C 1563.77 2.59429 4.66403 0
M  V30 15963 O 1563.99 1.64537 5.46154 0
M  V30 15964 O 1562.93 3.50027 4.89658 0
M  V30 15965 H 1566.75 2.48198 1.75019 0
M  V30 15966 H 1564.34 1.25766 0.806436 0
M  V30 15967 H 1566.22 1.42761 3.96481 0
M  V30 15968 H 1564.89 0.511292 3.19637 0
M  V30 15969 H 1563.8 2.73679 2.5505 0
M  V30 15970 H 1565.13 3.58732 3.37005 0
M  V30 15971 N 1566.79 -0.886131 1.30328 0
M  V30 15972 C 1568.2 -1.16922 1.08634 0
M  V30 15973 C 1568.4 -2.00913 -0.15365 0
M  V30 15974 O 1567.46 -2.37849 -0.847592 0
M  V30 15975 C 1568.77 -1.87701 2.34923 0
M  V30 15976 C 1570.32 -2.0047 2.40376 0
M  V30 15977 C 1570.79 -2.74662 3.66504 0
M  V30 15978 N 1572.29 -2.82208 3.67305 0
M  V30 15979 C 1573.02 -3.40185 4.61586 0
M  V30 15980 N 1572.52 -3.99221 5.66211 0
M  V30 15981 N 1574.31 -3.37989 4.49132 0
M  V30 15982 H 1566.46 -0.326064 2.09882 0
M  V30 15983 H 1568.72 -0.206996 0.925125 0
M  V30 15984 H 1568.43 -1.33427 3.25408 0
M  V30 15985 H 1568.3 -2.88092 2.43481 0
M  V30 15986 H 1570.69 -2.53914 1.50371 0
M  V30 15987 H 1570.77 -0.991709 2.35794 0
M  V30 15988 H 1570.42 -2.2189 4.56867 0
M  V30 15989 H 1570.35 -3.76335 3.68347 0
M  V30 15990 H 1572.84 -2.40292 2.91665 0
M  V30 15991 H 1573.15 -4.41522 6.34254 0
M  V30 15992 H 1571.49 -3.97643 5.70004 0
M  V30 15993 H 1574.69 -2.91096 3.6658 0
M  V30 15994 H 1574.86 -3.82877 5.2279 0
M  V30 15995 N 1568.26 -1.13026 -1.09832 0
M  V30 15996 C 1569.51 -0.890736 -1.82191 0
M  V30 15997 C 1569.84 0.581818 -1.8528 0
M  V30 15998 O 1569.12 1.43037 -1.31798 0
M  V30 15999 C 1569.4 -1.47403 -3.28549 0
M  V30 16000 C 1569.25 -3.0154 -3.33757 0
M  V30 16001 C 1570.57 -1.13876 -4.25112 0
M  V30 16002 H 1567.69 -0.325028 -0.661457 0
M  V30 16003 H 1570.33 -1.39787 -1.28684 0
M  V30 16004 H 1568.48 -1.04272 -3.74245 0
M  V30 16005 H 1570.16 -3.53395 -2.96495 0
M  V30 16006 H 1568.4 -3.36746 -2.73467 0
M  V30 16007 H 1569.07 -3.37449 -4.36843 0
M  V30 16008 H 1571.55 -1.51139 -3.87681 0
M  V30 16009 H 1570.42 -1.57343 -5.25865 0
M  V30 16010 H 1570.68 -0.051854 -4.4207 0
M  V30 16011 N 1569.74 1.27735 -0.923117 0
M  V30 16012 C 1570.71 2.25256 -0.423375 0
M  V30 16013 C 1571.71 1.54213 0.455517 0
M  V30 16014 O 1572.9 1.7229 0.257245 0
M  V30 16015 C 1570.03 3.3864 0.391897 0
M  V30 16016 H 1571.22 2.70978 -1.28495 0
M  V30 16017 H 1568.77 1.39579 -0.703378 0
M  V30 16018 H 1569.51 2.98293 1.27248 0
M  V30 16019 H 1569.29 3.91376 -0.238194 0
M  V30 16020 H 1570.78 4.11133 0.732069 0
M  V30 16021 N 1571.22 0.688118 1.41784 0
M  V30 16022 C 1572.5 0.144304 1.95067 0
M  V30 16023 C 1572.88 -1.34399 1.62789 0
M  V30 16024 O 1572.23 -2.08675 0.930978 0
M  V30 16025 C 1572.44 0.427641 3.4637 0
M  V30 16026 C 1573.78 0.351345 4.23144 0
M  V30 16027 O 1574.81 0.362134 3.54354 0
M  V30 16028 O 1573.67 0.305018 5.45648 0
M  V30 16029 H 1570.76 0.01062 0.826932 0
M  V30 16030 H 1573.31 0.763766 1.51541 0
M  V30 16031 H 1572.08 1.4581 3.63119 0
M  V30 16032 H 1571.7 -0.223167 3.96973 0
M  V30 16033 N 1572.7 -1.51554 0.432352 0
M  V30 16034 C 1573.65 -2.24474 -0.39944 0
M  V30 16035 C 1574.63 -1.26505 -0.994242 0
M  V30 16036 O 1575.82 -1.51623 -0.913209 0
M  V30 16037 C 1572.95 -3.08659 -1.50282 0
M  V30 16038 C 1572.04 -4.14053 -0.917654 0
M  V30 16039 N 1572.43 -5.05763 -0.061209 0
M  V30 16040 C 1570.73 -4.29949 -1.18576 0
M  V30 16041 C 1571.43 -5.81087 0.266897 0
M  V30 16042 N 1570.41 -5.42484 -0.348218 0
M  V30 16043 H 1574.21 -2.92739 0.260928 0
M  V30 16044 H 1571.72 -1.60555 0.24413 0
M  V30 16045 H 1573.72 -3.59472 -2.11153 0
M  V30 16046 H 1572.38 -2.41936 -2.16557 0
M  V30 16047 H 1573.39 -5.17002 0.304858 0
M  V30 16048 H 1570.07 -3.74453 -1.84638 0
M  V30 16049 H 1571.46 -6.64956 0.963519 0
M  V30 16050 N 1574.18 -0.163538 -1.56749 0
M  V30 16051 C 1575.4 0.489888 -2.01017 0
M  V30 16052 C 1575.82 1.57327 -1.04373 0
M  V30 16053 O 1575.18 1.82449 -0.0433414 0
M  V30 16054 C 1575.23 1.07537 -3.45135 0
M  V30 16055 O 1574.95 0.0352465 -4.38086 0
M  V30 16056 C 1576.45 1.80779 -4.04764 0
M  V30 16057 H 1573.67 0.126095 -0.659046 0
M  V30 16058 H 1576.21 -0.262982 -2.02802 0
M  V30 16059 H 1574.37 1.77877 -3.44149 0
M  V30 16060 H 1574.78 0.466426 -5.22422 0
M  V30 16061 H 1576.26 2.17014 -5.07552 0
M  V30 16062 H 1576.73 2.6999 -3.46413 0
M  V30 16063 H 1577.34 1.15098 -4.09429 0
M  V30 16064 N 1575.65 1.57214 0.110213 0
M  V30 16065 C 1576.9 1.84946 0.814827 0
M  V30 16066 C 1577.22 0.750029 1.79999 0
M  V30 16067 O 1576.49 -0.225164 1.94602 0
M  V30 16068 H 1575.07 0.682385 0.303907 0
M  V30 16069 H 1577.74 1.94666 0.0954415 0
M  V30 16070 H 1576.83 2.81167 1.35469 0
M  V30 16071 N 1577.13 -0.380637 1.52934 0
M  V30 16072 C 1578.38 -1.1265 1.68635 0
M  V30 16073 C 1578.71 -1.89397 0.429227 0
M  V30 16074 O 1577.99 -1.85863 -0.573182 0
M  V30 16075 C 1578.27 -2.09797 2.92673 0
M  V30 16076 C 1578.12 -1.36758 4.28506 0
M  V30 16077 C 1579.44 -3.10117 3.12274 0
M  V30 16078 H 1576.56 -0.408158 0.613658 0
M  V30 16079 H 1579.2 -0.408947 1.85547 0
M  V30 16080 H 1577.35 -2.70987 2.78385 0
M  V30 16081 H 1579.02 -0.784679 4.54577 0
M  V30 16082 H 1577.27 -0.669413 4.28604 0
M  V30 16083 H 1577.94 -2.07786 5.11399 0
M  V30 16084 H 1580.41 -2.59022 3.25648 0
M  V30 16085 H 1579.29 -3.75328 4.00525 0
M  V30 16086 H 1579.55 -3.79451 2.26868 0
M  V30 16087 N 1578.61 -1.44039 -0.639573 0
M  V30 16088 C 1579.84 -1.49844 -1.42669 0
M  V30 16089 C 1580.25 -0.120599 -1.88414 0
M  V30 16090 O 1579.61 0.871875 -1.60327 0
M  V30 16091 C 1579.66 -2.45597 -2.65263 0
M  V30 16092 O 1579.38 -3.78023 -2.21427 0
M  V30 16093 C 1580.88 -2.60781 -3.5848 0
M  V30 16094 H 1578.1 -0.508477 -0.437826 0
M  V30 16095 H 1580.65 -1.88919 -0.782923 0
M  V30 16096 H 1578.8 -2.09679 -3.2575 0
M  V30 16097 H 1579.22 -4.29642 -3.00846 0
M  V30 16098 H 1580.69 -3.31826 -4.4113 0
M  V30 16099 H 1581.17 -1.65727 -4.06732 0
M  V30 16100 H 1581.77 -2.97565 -3.03867 0
M  V30 16101 N 1580.09 0.879207 -1.30796 0
M  V30 16102 C 1581.05 1.96707 -1.17639 0
M  V30 16103 C 1582.05 1.6045 -0.106013 0
M  V30 16104 O 1583.24 1.70553 -0.354573 0
M  V30 16105 C 1580.37 3.31292 -0.803625 0
M  V30 16106 H 1581.57 2.09806 -2.14293 0
M  V30 16107 H 1579.12 1.06634 -1.14276 0
M  V30 16108 H 1579.85 3.23894 0.162159 0
M  V30 16109 H 1579.64 3.58979 -1.57723 0
M  V30 16110 H 1581.13 4.11077 -0.735201 0
M  V30 16111 N 1581.57 1.13606 1.09231 0
M  V30 16112 C 1582.8 0.922295 1.85206 0
M  V30 16113 C 1583.21 -0.528954 1.81239 0
M  V30 16114 O 1582.57 -1.36622 1.20999 0
M  V30 16115 C 1582.62 1.40453 3.331 0
M  V30 16116 O 1582.34 2.7989 3.37036 0
M  V30 16117 C 1583.84 1.22948 4.25909 0
M  V30 16118 H 1581.06 0.328757 0.584945 0
M  V30 16119 H 1583.6 1.50911 1.38007 0
M  V30 16120 H 1581.76 0.86066 3.77719 0
M  V30 16121 H 1582.17 3.01342 4.29294 0
M  V30 16122 H 1583.65 1.61562 5.27827 0
M  V30 16123 H 1584.12 0.171387 4.38865 0
M  V30 16124 H 1584.73 1.76147 3.87108 0
M  V30 16125 N 1583.05 -1.27244 0.929878 0
M  V30 16126 C 1584.29 -1.94269 0.57146 0
M  V30 16127 C 1584.62 -1.73064 -0.887639 0
M  V30 16128 O 1583.88 -1.05422 -1.64878 0
M  V30 16129 C 1584.17 -3.47233 0.846386 0
M  V30 16130 C 1583.84 -3.88563 2.28757 0
M  V30 16131 C 1582.5 -3.99557 2.68156 0
M  V30 16132 C 1584.85 -4.09468 3.22467 0
M  V30 16133 C 1582.18 -4.28846 4.00385 0
M  V30 16134 C 1584.53 -4.40242 4.54279 0
M  V30 16135 C 1583.2 -4.4945 4.93509 0
M  V30 16136 H 1582.47 -0.710882 0.209112 0
M  V30 16137 H 1585.12 -1.51273 1.17425 0
M  V30 16138 H 1583.42 -3.91469 0.160941 0
M  V30 16139 H 1585.12 -3.97238 0.548006 0
M  V30 16140 H 1581.71 -3.80544 1.97192 0
M  V30 16141 H 1585.89 -4.00412 2.9323 0
M  V30 16142 H 1581.15 -4.34184 4.30458 0
M  V30 16143 H 1585.32 -4.55365 5.26892 0
M  V30 16144 H 1582.95 -4.71899 5.95999 0
M  V30 16145 N 1584.52 -0.695628 -1.41417 0
M  V30 16146 C 1585.77 -0.226171 -2.0083 0
M  V30 16147 C 1586.09 1.17833 -1.55371 0
M  V30 16148 O 1585.36 1.79512 -0.784362 0
M  V30 16149 H 1583.94 -0.0806271 -0.742636 0
M  V30 16150 H 1586.6 -0.8968 -1.73042 0
M  V30 16151 H 1585.7 -0.243643 -3.11148 0
M  V30 16152 N 1586 1.51322 -0.440383 0
M  V30 16153 C 1586.91 2.31574 0.37561 0
M  V30 16154 C 1587.93 1.40617 1.02483 0
M  V30 16155 O 1589.1 1.73688 1.01953 0
M  V30 16156 C 1586.17 3.14441 1.4604 0
M  V30 16157 C 1585.23 4.21181 0.830991 0
M  V30 16158 C 1584.46 5.00087 1.86409 0
M  V30 16159 O 1584.69 4.79666 3.08669 0
M  V30 16160 O 1583.62 5.84101 1.45293 0
M  V30 16161 H 1587.45 3.0241 -0.27962 0
M  V30 16162 H 1585.03 1.48016 -0.202857 0
M  V30 16163 H 1586.91 3.6595 2.08946 0
M  V30 16164 H 1585.59 2.46366 2.09965 0
M  V30 16165 H 1584.49 3.73741 0.163798 0
M  V30 16166 H 1585.83 4.91638 0.235174 0
M  V30 16167 N 1587.48 0.171848 1.5666 0
M  V30 16168 C 1588.89 -0.34479 1.83489 0
M  V30 16169 C 1589.24 -1.63025 1.09167 0
M  V30 16170 O 1588.37 -2.13634 0.34488 0
M  V30 16171 C 1588.96 -0.63234 3.32847 0
M  V30 16172 C 1587.52 -1.09342 3.60169 0
M  V30 16173 C 1586.67 -0.129569 2.76997 0
M  V30 16174 H 1589.62 0.396101 1.53677 0
M  V30 16175 H 1589.64 -1.48434 3.50354 0
M  V30 16176 H 1589.15 0.303409 3.86912 0
M  V30 16177 H 1587.25 -2.04425 3.11514 0
M  V30 16178 H 1587.37 -1.00221 4.685 0
M  V30 16179 H 1585.73 -0.627033 2.46861 0
M  V30 16180 H 1586.51 0.800211 3.33844 0
M  V30 16181 N 1588.96 -1.5727 -0.101874 0
M  V30 16182 C 1589.89 -2.04614 -1.12496 0
M  V30 16183 C 1590.87 -0.933768 -1.42179 0
M  V30 16184 O 1592.05 -1.2046 -1.52325 0
M  V30 16185 C 1589.18 -2.46488 -2.44665 0
M  V30 16186 C 1588.14 -3.61327 -2.29406 0
M  V30 16187 C 1587.46 -3.89155 -3.66691 0
M  V30 16188 C 1588.76 -4.92455 -1.74026 0
M  V30 16189 H 1590.46 -2.90336 -0.731109 0
M  V30 16190 H 1588 -1.39676 -0.350239 0
M  V30 16191 H 1589.96 -2.78216 -3.16502 0
M  V30 16192 H 1588.68 -1.57757 -2.85972 0
M  V30 16193 H 1587.34 -3.29835 -1.60015 0
M  V30 16194 H 1586.99 -2.97603 -4.05514 0
M  V30 16195 H 1586.69 -4.66465 -3.57329 0
M  V30 16196 H 1588.21 -4.23352 -4.40006 0
M  V30 16197 H 1589.63 -5.22609 -2.35697 0
M  V30 16198 H 1588.02 -5.73882 -1.75441 0
M  V30 16199 H 1589.09 -4.79833 -0.699136 0
M  V30 16200 N 1590.44 0.372521 -1.53134 0
M  V30 16201 C 1591.4 1.43875 -1.78417 0
M  V30 16202 C 1592.4 1.46879 -0.654455 0
M  V30 16203 O 1593.59 1.47761 -0.922619 0
M  V30 16204 C 1590.72 2.83046 -1.89994 0
M  V30 16205 H 1591.91 1.22733 -2.73636 0
M  V30 16206 H 1589.47 0.605247 -1.44106 0
M  V30 16207 H 1590.2 3.09511 -0.968179 0
M  V30 16208 H 1589.99 2.82265 -2.72156 0
M  V30 16209 H 1591.48 3.60273 -2.11171 0
M  V30 16210 N 1591.91 1.44376 0.631925 0
M  V30 16211 C 1593.32 1.41881 1.21353 0
M  V30 16212 C 1593.68 0.13375 1.95744 0
M  V30 16213 O 1592.8 -0.765919 2.02392 0
M  V30 16214 C 1593.4 2.57027 2.20732 0
M  V30 16215 C 1591.95 2.5773 2.74322 0
M  V30 16216 C 1591.1 2.33672 1.49307 0
M  V30 16217 H 1594.05 1.52968 0.42265 0
M  V30 16218 H 1594.07 2.29735 3.03319 0
M  V30 16219 H 1593.59 3.50541 1.66561 0
M  V30 16220 H 1591.69 1.68155 3.32498 0
M  V30 16221 H 1591.8 3.5619 3.20415 0
M  V30 16222 H 1590.16 1.8275 1.7741 0
M  V30 16223 H 1590.95 3.293 0.970395 0
M  V30 16224 N 1593.39 -0.872258 1.31261 0
M  V30 16225 C 1594.62 -1.6632 1.23905 0
M  V30 16226 C 1595.04 -1.87109 -0.192878 0
M  V30 16227 O 1594.4 -1.4112 -1.1382 0
M  V30 16228 C 1594.45 -3.00979 1.98606 0
M  V30 16229 O 1593.55 -3.90642 1.32183 0
M  V30 16230 H 1592.89 -0.507736 0.427902 0
M  V30 16231 H 1595.42 -1.0877 1.73292 0
M  V30 16232 H 1595.43 -3.50931 2.08113 0
M  V30 16233 H 1594.11 -2.85168 3.02741 0
M  V30 16234 H 1592.68 -3.4909 1.31112 0
M  V30 16235 N 1594.87 -1.14184 -1.08627 0
M  V30 16236 C 1595.8 -0.849455 -2.17501 0
M  V30 16237 C 1596.78 0.194617 -1.68983 0
M  V30 16238 O 1597.97 0.0517757 -1.94131 0
M  V30 16239 C 1595.1 -0.323685 -3.45788 0
M  V30 16240 C 1594.05 -1.30294 -4.07685 0
M  V30 16241 C 1593.38 -0.636575 -5.30897 0
M  V30 16242 C 1594.68 -2.66441 -4.49229 0
M  V30 16243 H 1596.37 -1.75987 -2.42217 0
M  V30 16244 H 1593.92 -0.847595 -1.16412 0
M  V30 16245 H 1595.87 -0.106754 -4.21265 0
M  V30 16246 H 1594.59 0.62215 -3.20619 0
M  V30 16247 H 1593.25 -1.50601 -3.34238 0
M  V30 16248 H 1592.9 0.314995 -5.02013 0
M  V30 16249 H 1592.6 -1.28998 -5.73266 0
M  V30 16250 H 1594.12 -0.429117 -6.0909 0
M  V30 16251 H 1595.54 -2.50055 -5.15893 0
M  V30 16252 H 1593.93 -3.28033 -5.02508 0
M  V30 16253 H 1595 -3.23486 -3.61226 0
M  V30 16254 N 1596.35 1.26749 -0.936613 0
M  V30 16255 C 1597.58 1.98059 -0.598357 0
M  V30 16256 C 1597.99 1.6979 0.825646 0
M  V30 16257 O 1597.35 0.963514 1.54992 0
M  V30 16258 C 1597.4 3.51948 -0.825519 0
M  V30 16259 O 1597.12 3.79232 -2.19351 0
M  V30 16260 C 1598.62 4.40503 -0.497186 0
M  V30 16261 H 1595.84 0.631826 -0.225914 0
M  V30 16262 H 1598.39 1.61379 -1.25607 0
M  V30 16263 H 1596.54 3.86806 -0.214479 0
M  V30 16264 H 1596.95 4.73782 -2.25014 0
M  V30 16265 H 1598.43 5.47457 -0.706779 0
M  V30 16266 H 1598.91 4.35516 0.567645 0
M  V30 16267 H 1599.51 4.11181 -1.08675 0
M  V30 16268 N 1597.83 0.703118 1.41046 0
M  V30 16269 C 1598.77 0.0312802 2.32579 0
M  V30 16270 C 1599.77 -0.760463 1.51371 0
M  V30 16271 O 1600.97 -0.665235 1.67256 0
M  V30 16272 H 1597.35 -0.00868655 0.75195 0
M  V30 16273 H 1599.32 0.820195 2.86907 0
M  V30 16274 C 1598.07 -0.885639 3.36232 0
M  V30 16275 H 1597.39 -0.285819 3.98777 0
M  V30 16276 H 1598.83 -1.3239 4.02801 0
M  V30 16277 C 1597.29 -2.00533 2.70718 0
M  V30 16278 O 1597.82 -3.09491 2.56082 0
M  V30 16279 N 1596.03 -1.78528 2.29295 0
M  V30 16280 H 1595.57 -0.899139 2.41399 0
M  V30 16281 H 1595.53 -2.53627 1.85797 0
M  V30 16282 N 1599.3 -1.51086 0.448402 0
M  V30 16283 C 1600.55 -2.02476 -0.114511 0
M  V30 16284 C 1600.88 -1.33126 -1.4139 0
M  V30 16285 O 1600.16 -0.449665 -1.89231 0
M  V30 16286 C 1600.44 -3.58659 -0.321842 0
M  V30 16287 C 1600.29 -4.38612 0.996975 0
M  V30 16288 C 1601.61 -4.26473 -1.08667 0
M  V30 16289 H 1598.73 -0.735906 -0.0401431 0
M  V30 16290 H 1601.37 -1.80622 0.589563 0
M  V30 16291 H 1599.52 -3.77411 -0.92157 0
M  V30 16292 H 1601.2 -4.31484 1.63154 0
M  V30 16293 H 1599.44 -4.03255 1.599 0
M  V30 16294 H 1600.11 -5.46087 0.805817 0
M  V30 16295 H 1602.59 -4.12058 -0.578559 0
M  V30 16296 H 1601.46 -5.35611 -1.20051 0
M  V30 16297 H 1601.72 -3.88086 -2.11758 0
M  V30 16298 N 1600.78 -0.180154 -1.56567 0
M  V30 16299 C 1602.19 0.335054 -1.83669 0
M  V30 16300 C 1602.54 1.62443 -1.1003 0
M  V30 16301 O 1601.67 2.13448 -0.356205 0
M  V30 16302 C 1602.26 0.61468 -3.33177 0
M  V30 16303 C 1600.82 1.0743 -3.60743 0
M  V30 16304 C 1599.97 0.114877 -2.77062 0
M  V30 16305 H 1602.92 -0.404245 -1.53465 0
M  V30 16306 H 1602.94 1.46574 -3.51136 0
M  V30 16307 H 1602.45 -0.323923 -3.86746 0
M  V30 16308 H 1600.56 2.0277 -3.12594 0
M  V30 16309 H 1600.67 0.977349 -4.69025 0
M  V30 16310 H 1599.03 0.613933 -2.4719 0
M  V30 16311 H 1599.82 -0.817904 -3.33414 0
M  V30 16312 N 1602.26 1.57322 0.0935319 0
M  V30 16313 C 1603.54 1.77187 0.828503 0
M  V30 16314 C 1603.92 0.762216 1.96859 0
M  V30 16315 O 1603.27 -0.208982 2.27542 0
M  V30 16316 C 1603.48 3.23007 1.32163 0
M  V30 16317 C 1604.82 3.86233 1.76379 0
M  V30 16318 O 1605.85 3.26766 1.41783 0
M  V30 16319 O 1604.71 4.90808 2.40354 0
M  V30 16320 H 1601.8 0.726401 0.395311 0
M  V30 16321 H 1604.35 1.69533 0.0752924 0
M  V30 16322 H 1603.12 3.88029 0.504863 0
M  V30 16323 H 1602.74 3.353 2.13681 0
M  V30 16324 N 1603.74 -0.364395 1.53329 0
M  V30 16325 C 1604.7 -1.42927 1.79178 0
M  V30 16326 C 1605.7 -1.4653 0.662235 0
M  V30 16327 O 1606.89 -1.4727 0.930442 0
M  V30 16328 C 1604.02 -2.82035 1.91492 0
M  V30 16329 H 1605.22 -1.21281 2.74283 0
M  V30 16330 H 1602.77 -0.597596 1.44425 0
M  V30 16331 H 1603.5 -3.08993 0.984579 0
M  V30 16332 H 1603.29 -2.80818 2.73649 0
M  V30 16333 H 1604.78 -3.59148 2.13078 0
M  V30 16334 N 1605.22 -1.44709 -0.62426 0
M  V30 16335 C 1606.15 -1.54934 -1.74693 0
M  V30 16336 C 1607.13 -0.401897 -1.65284 0
M  V30 16337 O 1608.31 -0.622906 -1.83939 0
M  V30 16338 C 1605.44 -1.49976 -3.13248 0
M  V30 16339 C 1604.4 -2.63267 -3.37453 0
M  V30 16340 C 1603.72 -2.43362 -4.76108 0
M  V30 16341 C 1605.02 -4.0538 -3.2934 0
M  V30 16342 H 1606.72 -2.48905 -1.66393 0
M  V30 16343 H 1604.26 -1.19794 -0.799088 0
M  V30 16344 H 1606.22 -1.55729 -3.91569 0
M  V30 16345 H 1604.94 -0.525254 -3.22349 0
M  V30 16346 H 1603.6 -2.56915 -2.61515 0
M  V30 16347 H 1603.25 -1.44088 -4.81921 0
M  V30 16348 H 1602.95 -3.19324 -4.93261 0
M  V30 16349 H 1604.47 -2.50943 -5.56651 0
M  V30 16350 H 1605.88 -4.13064 -3.97556 0
M  V30 16351 H 1604.28 -4.81599 -3.58025 0
M  V30 16352 H 1605.35 -4.28465 -2.27038 0
M  V30 16353 N 1606.69 0.865285 -1.31722 0
M  V30 16354 C 1607.94 1.62108 -1.21855 0
M  V30 16355 C 1608.27 1.9293 0.221714 0
M  V30 16356 O 1607.55 1.56423 1.15595 0
M  V30 16357 C 1607.83 2.94828 -2.06756 0
M  V30 16358 C 1607.68 2.70855 -3.59107 0
M  V30 16359 C 1609 3.95983 -1.92055 0
M  V30 16360 H 1606.12 0.588234 -0.444015 0
M  V30 16361 H 1608.76 0.999922 -1.6156 0
M  V30 16362 H 1606.91 3.47843 -1.73025 0
M  V30 16363 H 1608.59 2.24477 -4.02999 0
M  V30 16364 H 1606.83 2.05004 -3.82303 0
M  V30 16365 H 1607.5 3.65312 -4.13825 0
M  V30 16366 H 1609.98 3.52193 -2.21584 0
M  V30 16367 H 1608.85 4.86724 -2.53754 0
M  V30 16368 H 1609.11 4.33148 -0.885174 0
M  V30 16369 N 1608.17 1.14759 1.0802 0
M  V30 16370 C 1609.42 0.916435 1.80127 0
M  V30 16371 C 1609.74 -0.558281 1.86837 0
M  V30 16372 O 1609.01 -1.40579 1.36434 0
M  V30 16373 H 1607.59 0.336066 0.667135 0
M  V30 16374 H 1610.25 1.44693 1.30576 0
M  V30 16375 H 1609.35 1.31986 2.82818 0
M  V30 16376 N 1609.65 -1.26251 0.943322 0
M  V30 16377 C 1611.06 -1.75591 0.634391 0
M  V30 16378 C 1611.41 -1.76812 -0.850406 0
M  V30 16379 O 1610.54 -1.38162 -1.66554 0
M  V30 16380 C 1611.13 -3.18871 1.14484 0
M  V30 16381 C 1609.69 -3.65817 0.886285 0
M  V30 16382 C 1608.84 -2.4523 1.2945 0
M  V30 16383 H 1611.79 -1.12297 1.12139 0
M  V30 16384 H 1611.81 -3.77205 0.499654 0
M  V30 16385 H 1611.32 -3.17951 2.22551 0
M  V30 16386 H 1609.42 -3.72165 -0.179913 0
M  V30 16387 H 1609.54 -4.54523 1.5148 0
M  V30 16388 H 1607.9 -2.44519 0.712919 0
M  V30 16389 H 1608.68 -2.47009 2.38415 0
M  V30 16390 N 1611.13 -0.710588 -1.40671 0
M  V30 16391 C 1612.37 -0.252303 -2.02837 0
M  V30 16392 C 1612.73 1.13154 -1.55113 0
M  V30 16393 O 1613.93 1.68653 -2.09307 0
M  V30 16394 C 1612.21 -0.323902 -3.55929 0
M  V30 16395 S 1613.76 0.0581316 -4.38761 0
M  V30 16396 H 1610.58 -0.100448 -0.703869 0
M  V30 16397 H 1613.18 -0.931699 -1.71871 0
M  V30 16398 H 1611.89 -1.33279 -3.88156 0
M  V30 16399 H 1611.42 0.37414 -3.91617 0
M  V30 16400 H 1613.43 1.28162 -4.79363 0
M  V30 16401 N 1612.61 1.50847 -0.456408 0
M  V30 16402 C 1613.85 2.03174 0.0959527 0
M  V30 16403 C 1614.21 1.33328 1.38713 0
M  V30 16404 O 1613.5 0.44539 1.86351 0
M  V30 16405 C 1613.7 3.55678 0.350374 0
M  V30 16406 C 1613.52 4.40301 -0.914596 0
M  V30 16407 C 1612.29 4.83939 -1.45367 0
M  V30 16408 C 1614.49 4.81547 -1.80601 0
M  V30 16409 N 1612.47 5.52836 -2.66919 0
M  V30 16410 C 1613.85 5.49705 -2.86747 0
M  V30 16411 C 1615.9 4.63517 -1.81815 0
M  V30 16412 C 1614.6 6.01743 -3.94078 0
M  V30 16413 C 1616.63 5.16485 -2.88093 0
M  V30 16414 C 1615.99 5.84605 -3.92958 0
M  V30 16415 H 1612.09 0.781987 -0.00454189 0
M  V30 16416 H 1614.67 1.8452 -0.62134 0
M  V30 16417 H 1612.85 3.74309 1.0367 0
M  V30 16418 H 1614.58 3.94662 0.895777 0
M  V30 16419 H 1611.33 4.62816 -1.0049 0
M  V30 16420 H 1611.76 5.919 -3.28608 0
M  V30 16421 H 1616.4 4.10296 -1.02064 0
M  V30 16422 H 1614.12 6.54009 -4.74655 0
M  V30 16423 H 1617.7 5.04374 -2.89997 0
M  V30 16424 H 1616.58 6.24854 -4.73843 0
M  V30 16425 N 1614.09 0.188454 1.56469 0
M  V30 16426 C 1615.5 -0.325309 1.83844 0
M  V30 16427 C 1615.85 -1.61858 1.1089 0
M  V30 16428 O 1614.97 -2.13256 0.36752 0
M  V30 16429 C 1615.57 -0.597002 3.33499 0
M  V30 16430 C 1614.13 -1.05515 3.61308 0
M  V30 16431 C 1613.27 -0.100182 2.77119 0
M  V30 16432 H 1616.22 0.412378 1.53249 0
M  V30 16433 H 1616.25 -1.44709 3.51908 0
M  V30 16434 H 1615.76 0.344429 3.86569 0
M  V30 16435 H 1613.86 -2.01109 3.13665 0
M  V30 16436 H 1613.97 -0.952461 4.69537 0
M  V30 16437 H 1612.34 -0.600815 2.47512 0
M  V30 16438 H 1613.12 0.835574 3.32976 0
M  V30 16439 N 1615.56 -1.5737 -0.0851874 0
M  V30 16440 C 1616.53 -2.01789 -1.08692 0
M  V30 16441 C 1617.53 -0.912872 -1.32376 0
M  V30 16442 O 1618.72 -1.1781 -1.28322 0
M  V30 16443 C 1615.85 -2.38708 -2.43375 0
M  V30 16444 H 1617.04 -2.91511 -0.704359 0
M  V30 16445 H 1614.59 -1.52765 -0.330528 0
M  V30 16446 H 1615.33 -1.5197 -2.86488 0
M  V30 16447 H 1615.11 -3.19331 -2.2753 0
M  V30 16448 H 1616.6 -2.73697 -3.15404 0
M  V30 16449 N 1617.04 0.356258 -1.53521 0
M  V30 16450 C 1618.29 1.09953 -1.70406 0
M  V30 16451 C 1618.62 1.8869 -0.459304 0
M  V30 16452 O 1617.9 1.86751 0.54354 0
M  V30 16453 C 1618.18 2.05114 -2.95973 0
M  V30 16454 C 1618.03 1.29924 -4.30627 0
M  V30 16455 C 1619.35 3.0511 -3.17168 0
M  V30 16456 H 1616.47 0.398343 -0.620074 0
M  V30 16457 H 1619.11 0.379376 -1.86174 0
M  V30 16458 H 1617.26 2.66524 -2.82661 0
M  V30 16459 H 1618.93 0.71226 -4.55768 0
M  V30 16460 H 1617.18 0.601141 -4.29615 0
M  V30 16461 H 1617.85 1.99624 -5.1464 0
M  V30 16462 H 1620.32 2.53809 -3.29728 0
M  V30 16463 H 1619.2 3.68908 -4.06445 0
M  V30 16464 H 1619.46 3.75794 -2.32876 0
M  V30 16465 N 1618.52 1.45038 0.616577 0
M  V30 16466 C 1619.77 1.48585 1.37582 0
M  V30 16467 C 1620.09 0.124065 1.94104 0
M  V30 16468 O 1619.35 -0.876112 1.74994 0
M  V30 16469 C 1619.65 2.50545 2.54876 0
M  V30 16470 C 1619.31 3.95493 2.16555 0
M  V30 16471 C 1617.98 4.34963 2.05818 0
M  V30 16472 C 1620.33 4.86685 1.86512 0
M  V30 16473 C 1617.66 5.63531 1.63246 0
M  V30 16474 C 1620.01 6.15657 1.4543 0
M  V30 16475 C 1618.67 6.54066 1.33244 0
M  V30 16476 H 1617.94 0.543711 0.503447 0
M  V30 16477 H 1620.59 1.78334 0.697787 0
M  V30 16478 H 1618.89 2.14332 3.27977 0
M  V30 16479 H 1620.59 2.50531 3.13106 0
M  V30 16480 H 1617.18 3.64275 2.25836 0
M  V30 16481 H 1621.37 4.56936 1.9371 0
M  V30 16482 H 1616.62 5.92094 1.52427 0
M  V30 16483 H 1620.8 6.85768 1.21226 0
M  V30 16484 H 1618.42 7.5359 1.0003 0
M  V30 16485 N 1620 -0.858287 1.32179 0
M  V30 16486 C 1620.96 -1.94811 1.20753 0
M  V30 16487 C 1621.96 -1.60261 0.131526 0
M  V30 16488 O 1623.15 -1.69968 0.381662 0
M  V30 16489 C 1620.28 -3.29972 0.856229 0
M  V30 16490 H 1621.48 -2.06371 2.17603 0
M  V30 16491 H 1619.03 -1.04802 1.15958 0
M  V30 16492 H 1619.76 -3.24111 -0.11061 0
M  V30 16493 H 1619.55 -3.56424 1.63414 0
M  V30 16494 H 1621.04 -4.09856 0.800507 0
M  V30 16495 N 1621.48 -1.1533 -1.07409 0
M  V30 16496 C 1622.44 -0.852155 -2.1277 0
M  V30 16497 C 1623.44 0.14782 -1.60119 0
M  V30 16498 O 1624.63 -0.0817436 -1.74008 0
M  V30 16499 C 1621.76 -0.272233 -3.39811 0
M  V30 16500 H 1622.95 -1.78604 -2.40917 0
M  V30 16501 H 1620.51 -0.960698 -1.23289 0
M  V30 16502 H 1621.24 0.669873 -3.17306 0
M  V30 16503 H 1621.03 -0.992629 -3.79327 0
M  V30 16504 H 1622.52 -0.0790986 -4.17525 0
M  V30 16505 N 1622.95 1.25748 -0.950004 0
M  V30 16506 C 1624.2 1.92632 -0.597988 0
M  V30 16507 C 1624.52 1.75268 0.868365 0
M  V30 16508 O 1625.72 2.36684 1.33014 0
M  V30 16509 C 1624.18 3.45179 -1.01879 0
M  V30 16510 C 1623.79 3.71262 -2.50736 0
M  V30 16511 C 1625.53 4.18017 -0.739084 0
M  V30 16512 C 1623.44 5.17292 -2.8664 0
M  V30 16513 H 1622.37 0.72121 -0.219938 0
M  V30 16514 H 1625.02 1.42685 -1.15383 0
M  V30 16515 H 1623.4 3.94061 -0.391395 0
M  V30 16516 H 1624.57 3.33051 -3.18455 0
M  V30 16517 H 1622.89 3.11676 -2.76129 0
M  V30 16518 H 1625.49 5.25576 -0.983555 0
M  V30 16519 H 1625.83 4.15034 0.32439 0
M  V30 16520 H 1626.36 3.75028 -1.32661 0
M  V30 16521 H 1623.1 5.25383 -3.91987 0
M  V30 16522 H 1622.62 5.56567 -2.23591 0
M  V30 16523 H 1624.3 5.85375 -2.75582 0
M  V30 16524 N 1624.43 0.718038 1.40292 0
M  V30 16525 C 1625.68 0.258092 2.00445 0
M  V30 16526 C 1626 -1.15347 1.57226 0
M  V30 16527 O 1625.27 -1.78241 0.812822 0
M  V30 16528 H 1623.85 0.0924316 0.741259 0
M  V30 16529 H 1626.51 0.924216 1.71593 0
M  V30 16530 H 1625.61 0.293113 3.10721 0
M  V30 16531 N 1625.91 -1.50602 0.464402 0
M  V30 16532 C 1627.14 -2.07191 -0.0930678 0
M  V30 16533 C 1627.56 -1.32675 -1.33338 0
M  V30 16534 O 1626.92 -0.372453 -1.77433 0
M  V30 16535 C 1626.97 -3.5873 -0.366775 0
M  V30 16536 O 1626.07 -3.86125 -1.44849 0
M  V30 16537 H 1625.41 -0.663924 0.0100336 0
M  V30 16538 H 1627.94 -1.93882 0.653522 0
M  V30 16539 H 1627.95 -4.03425 -0.609258 0
M  V30 16540 H 1626.63 -4.12385 0.539608 0
M  V30 16541 H 1625.2 -3.53273 -1.19384 0
M  V30 16542 N 1627.39 -0.19675 -1.56367 0
M  V30 16543 C 1628.35 0.709734 -2.17934 0
M  V30 16544 C 1629.35 1.13979 -1.13426 0
M  V30 16545 O 1630.54 1.05261 -1.38801 0
M  V30 16546 C 1627.67 1.96917 -2.78274 0
M  V30 16547 H 1628.87 0.173342 -2.99399 0
M  V30 16548 H 1626.42 0.0528698 -1.56211 0
M  V30 16549 H 1627.15 2.54804 -2.00613 0
M  V30 16550 H 1626.94 1.66951 -3.54781 0
M  V30 16551 H 1628.43 2.61554 -3.25545 0
M  V30 16552 N 1628.87 1.57413 0.0768405 0
M  V30 16553 C 1630.11 1.87279 0.778099 0
M  V30 16554 C 1630.45 0.788359 1.77478 0
M  V30 16555 O 1629.72 -0.201876 1.9345 0
M  V30 16556 C 1630 3.27801 1.49059 0
M  V30 16557 C 1629.86 4.46892 0.510661 0
M  V30 16558 C 1631.18 3.66485 2.43674 0
M  V30 16559 H 1628.29 0.681159 0.281409 0
M  V30 16560 H 1630.94 1.89955 0.0413711 0
M  V30 16561 H 1629.09 3.2565 2.11859 0
M  V30 16562 H 1630.76 4.61165 -0.111734 0
M  V30 16563 H 1629 4.33449 -0.174445 0
M  V30 16564 H 1629.67 5.41985 1.04671 0
M  V30 16565 H 1632.15 3.69696 1.90955 0
M  V30 16566 H 1631.02 4.65706 2.90533 0
M  V30 16567 H 1631.29 2.96145 3.28254 0
M  V30 16568 N 1630.34 -0.348112 1.53707 0
M  V30 16569 C 1631.57 -1.10903 1.74666 0
M  V30 16570 C 1631.99 -1.82499 0.483683 0
M  V30 16571 O 1631.34 -1.74191 -0.544419 0
M  V30 16572 C 1631.4 -2.12602 2.92374 0
M  V30 16573 O 1631.12 -1.43918 4.13787 0
M  V30 16574 C 1632.62 -3.01105 3.25347 0
M  V30 16575 H 1629.84 -0.330911 0.583728 0
M  V30 16576 H 1632.38 -0.401707 2.00516 0
M  V30 16577 H 1630.54 -2.78906 2.68869 0
M  V30 16578 H 1630.95 -2.11818 4.79826 0
M  V30 16579 H 1632.42 -3.68408 4.11071 0
M  V30 16580 H 1632.9 -3.66874 2.41455 0
M  V30 16581 H 1633.51 -2.40395 3.50842 0
M  V30 16582 N 1631.82 -1.45363 -0.608876 0
M  V30 16583 C 1633.1 -1.39787 -1.36817 0
M  V30 16584 C 1633.48 -0.067821 -2.10991 0
M  V30 16585 O 1632.83 0.950196 -2.07806 0
M  V30 16586 C 1633.04 -2.61073 -2.31608 0
M  V30 16587 C 1634.39 -3.06104 -2.94254 0
M  V30 16588 O 1635.41 -2.61436 -2.41929 0
M  V30 16589 O 1634.27 -3.83616 -3.89231 0
M  V30 16590 H 1631.36 -0.554657 -0.61342 0
M  V30 16591 H 1633.91 -1.57489 -0.632073 0
M  V30 16592 H 1632.68 -3.4946 -1.76049 0
M  V30 16593 H 1632.3 -2.45697 -3.126 0
M  V30 16594 N 1633.3 0.851265 -1.32632 0
M  V30 16595 C 1634.53 1.63805 -1.26394 0
M  V30 16596 C 1634.94 1.88056 0.167454 0
M  V30 16597 O 1634.3 1.45196 1.10564 0
M  V30 16598 C 1634.35 2.9954 -2.02381 0
M  V30 16599 O 1634.07 2.76361 -3.39935 0
M  V30 16600 C 1635.57 3.93982 -2.03207 0
M  V30 16601 H 1632.79 0.510088 -0.435948 0
M  V30 16602 H 1635.34 1.06123 -1.74809 0
M  V30 16603 H 1633.49 3.53859 -1.5768 0
M  V30 16604 H 1633.91 3.62708 -3.78871 0
M  V30 16605 H 1635.38 4.86478 -2.60851 0
M  V30 16606 H 1635.86 4.27211 -1.01918 0
M  V30 16607 H 1636.46 3.45601 -2.47871 0
M  V30 16608 N 1634.78 1.15898 1.06796 0
M  V30 16609 C 1636.03 0.935488 1.79145 0
M  V30 16610 C 1636.35 -0.538433 1.87419 0
M  V30 16611 O 1635.62 -1.39124 1.37917 0
M  V30 16612 H 1634.2 0.343123 0.663533 0
M  V30 16613 H 1636.86 1.4607 1.29034 0
M  V30 16614 H 1635.96 1.34978 2.81402 0
M  V30 16615 N 1636.26 -1.25243 0.956659 0
M  V30 16616 C 1637.17 -2.29529 0.48515 0
M  V30 16617 C 1638.18 -1.68121 -0.448494 0
M  V30 16618 O 1639.36 -1.98773 -0.324243 0
M  V30 16619 C 1636.42 -3.45952 -0.227611 0
M  V30 16620 C 1635.48 -4.22795 0.744495 0
M  V30 16621 C 1634.72 -5.3366 0.0656539 0
M  V30 16622 O 1634.94 -5.58722 -1.14829 0
M  V30 16623 O 1633.87 -5.97181 0.75222 0
M  V30 16624 H 1637.7 -2.71955 1.35181 0
M  V30 16625 H 1635.29 -1.30729 0.723203 0
M  V30 16626 H 1637.17 -4.16687 -0.628474 0
M  V30 16627 H 1635.84 -3.05524 -1.06942 0
M  V30 16628 H 1634.75 -3.5448 1.1956 0
M  V30 16629 H 1636.08 -4.67012 1.55438 0
M  V30 16630 N 1637.73 -0.725468 -1.3991 0
M  V30 16631 C 1639.15 -0.340415 -1.8357 0
M  V30 16632 C 1639.5 1.1266 -1.6063 0
M  V30 16633 O 1638.62 1.86804 -1.0924 0
M  V30 16634 C 1639.22 -0.611079 -3.33244 0
M  V30 16635 C 1637.78 -0.279627 -3.7536 0
M  V30 16636 C 1636.92 -0.878498 -2.63017 0
M  V30 16637 H 1639.87 -0.923856 -1.29037 0
M  V30 16638 H 1639.89 0.120377 -3.8031 0
M  V30 16639 H 1639.41 -1.67886 -3.49908 0
M  V30 16640 H 1637.51 0.782703 -3.64286 0
M  V30 16641 H 1637.62 -0.755528 -4.73105 0
M  V30 16642 H 1635.98 -0.305813 -2.52857 0
M  V30 16643 H 1636.77 -1.95075 -2.8249 0
M  V30 16644 N 1639.21 1.50354 -0.472382 0
M  V30 16645 C 1640.46 2.02633 0.0822846 0
M  V30 16646 C 1640.79 1.35358 1.39254 0
M  V30 16647 O 1640.07 0.479714 1.88491 0
M  V30 16648 C 1640.35 3.59126 0.264742 0
M  V30 16649 C 1640.2 4.3697 -1.06663 0
M  V30 16650 C 1641.52 4.28148 1.01869 0
M  V30 16651 H 1638.64 0.736451 0.0284304 0
M  V30 16652 H 1641.28 1.79661 -0.618224 0
M  V30 16653 H 1639.43 3.7883 0.86141 0
M  V30 16654 H 1641.1 4.28834 -1.69997 0
M  V30 16655 H 1639.35 4.0066 -1.66295 0
M  V30 16656 H 1640.02 5.44736 -0.892592 0
M  V30 16657 H 1642.49 4.12926 0.512931 0
M  V30 16658 H 1641.37 5.37453 1.11515 0
M  V30 16659 H 1641.63 3.91406 2.05557 0
M  V30 16660 N 1640.69 0.205039 1.56261 0
M  V30 16661 C 1641.94 -0.431735 1.98151 0
M  V30 16662 C 1642.27 -1.60579 1.09215 0
M  V30 16663 O 1641.55 -1.93949 0.146257 0
M  V30 16664 C 1641.83 -0.882278 3.49124 0
M  V30 16665 C 1641.68 0.294278 4.48836 0
M  V30 16666 C 1643 -1.7443 4.04057 0
M  V30 16667 H 1640.12 -0.155457 0.720418 0
M  V30 16668 H 1642.76 0.29796 1.87649 0
M  V30 16669 H 1640.91 -1.50404 3.58205 0
M  V30 16670 H 1642.58 0.932148 4.51784 0
M  V30 16671 H 1640.83 0.94444 4.23394 0
M  V30 16672 H 1641.5 -0.063639 5.51963 0
M  V30 16673 H 1643.97 -1.21983 3.97818 0
M  V30 16674 H 1642.85 -2.02848 5.10043 0
M  V30 16675 H 1643.11 -2.70195 3.49924 0
M  V30 16676 N 1642.17 -1.57451 -0.0684915 0
M  V30 16677 C 1643.08 -2.07274 -1.09885 0
M  V30 16678 C 1644.1 -1.00295 -1.42186 0
M  V30 16679 O 1645.27 -1.31786 -1.52297 0
M  V30 16680 C 1642.34 -2.50949 -2.39219 0
M  V30 16681 C 1641.4 -3.7224 -2.13859 0
M  V30 16682 C 1640.63 -4.13823 -3.37026 0
M  V30 16683 O 1640.85 -3.55248 -4.46268 0
M  V30 16684 O 1639.79 -5.06587 -3.25044 0
M  V30 16685 H 1643.61 -2.9539 -0.705587 0
M  V30 16686 H 1641.2 -1.46698 -0.282849 0
M  V30 16687 H 1643.08 -2.79547 -3.15327 0
M  V30 16688 H 1641.76 -1.6596 -2.77919 0
M  V30 16689 H 1640.66 -3.4872 -1.35445 0
M  V30 16690 H 1642 -4.58091 -1.80038 0
M  V30 16691 N 1643.65 0.339955 -1.5389 0
M  V30 16692 C 1644.9 1.07766 -1.7097 0
M  V30 16693 C 1645.22 1.89064 -0.477486 0
M  V30 16694 O 1644.49 1.89183 0.508579 0
M  V30 16695 H 1643.07 0.400849 -0.630341 0
M  V30 16696 H 1645.73 0.380359 -1.91153 0
M  V30 16697 H 1644.82 1.75301 -2.58217 0
M  V30 16698 N 1645.13 1.45684 0.601159 0
M  V30 16699 C 1646.06 1.57694 1.72206 0
M  V30 16700 C 1647.04 0.428141 1.64624 0
M  V30 16701 O 1648.22 0.65209 1.82925 0
M  V30 16702 C 1645.35 1.54941 3.10822 0
M  V30 16703 C 1644.31 2.68603 3.33222 0
M  V30 16704 C 1643.63 2.50906 4.72176 0
M  V30 16705 C 1644.93 4.10568 3.22849 0
M  V30 16706 H 1646.63 2.51521 1.62412 0
M  V30 16707 H 1644.17 1.2105 0.779929 0
M  V30 16708 H 1646.12 1.61939 3.89042 0
M  V30 16709 H 1644.85 0.576471 3.21472 0
M  V30 16710 H 1643.51 2.61043 2.57394 0
M  V30 16711 H 1643.16 1.51736 4.79568 0
M  V30 16712 H 1642.86 3.27131 4.88118 0
M  V30 16713 H 1644.38 2.59767 5.52588 0
M  V30 16714 H 1645.79 4.19336 3.90935 0
M  V30 16715 H 1644.19 4.87234 3.50318 0
M  V30 16716 H 1645.26 4.32022 2.20192 0
M  V30 16717 N 1646.6 -0.84422 1.33082 0
M  V30 16718 C 1647.53 -1.96899 1.25511 0
M  V30 16719 C 1648.51 -1.69549 0.13677 0
M  V30 16720 O 1649.7 -1.9145 0.325667 0
M  V30 16721 C 1646.83 -3.32947 0.988094 0
M  V30 16722 C 1645.78 -3.7468 2.06879 0
M  V30 16723 C 1645.11 -5.08475 1.65401 0
M  V30 16724 C 1646.41 -3.89033 3.48498 0
M  V30 16725 H 1648.1 -2.03491 2.19617 0
M  V30 16726 H 1645.65 -0.977659 1.05725 0
M  V30 16727 H 1647.6 -4.11198 0.921645 0
M  V30 16728 H 1646.33 -3.26598 0.0114067 0
M  V30 16729 H 1644.99 -2.98689 2.12557 0
M  V30 16730 H 1644.63 -4.98592 0.66449 0
M  V30 16731 H 1644.33 -5.37368 2.37717 0
M  V30 16732 H 1645.86 -5.89207 1.60212 0
M  V30 16733 H 1647.27 -4.57609 3.4535 0
M  V30 16734 H 1645.67 -4.29357 4.19253 0
M  V30 16735 H 1646.74 -2.91639 3.87395 0
M  V30 16736 N 1648.08 -1.16463 -1.0618 0
M  V30 16737 C 1649.31 -0.97159 -1.83235 0
M  V30 16738 C 1649.73 0.475295 -1.81996 0
M  V30 16739 O 1649.09 1.33964 -1.22161 0
M  V30 16740 C 1649.14 -1.50504 -3.2769 0
M  V30 16741 O 1648.24 -0.712128 -4.06205 0
M  V30 16742 H 1647.58 -0.345676 -0.566925 0
M  V30 16743 H 1650.11 -1.54727 -1.33868 0
M  V30 16744 H 1650.12 -1.52301 -3.78508 0
M  V30 16745 H 1648.8 -2.55832 -3.27907 0
M  V30 16746 H 1647.37 -0.764756 -3.64974 0
M  V30 16747 N 1649.56 1.24734 -0.963288 0
M  V30 16748 C 1650.49 2.27892 -0.508667 0
M  V30 16749 C 1651.47 1.64055 0.449438 0
M  V30 16750 O 1652.66 1.91083 0.346519 0
M  V30 16751 C 1649.79 3.46688 0.206157 0
M  V30 16752 C 1648.74 4.22762 -0.667534 0
M  V30 16753 C 1648.07 5.34402 0.178529 0
M  V30 16754 C 1649.37 4.84535 -1.94995 0
M  V30 16755 H 1651.06 2.66171 -1.37088 0
M  V30 16756 H 1648.61 1.27952 -0.660622 0
M  V30 16757 H 1650.56 4.17985 0.535391 0
M  V30 16758 H 1649.28 3.07422 1.10269 0
M  V30 16759 H 1647.94 3.53259 -0.979976 0
M  V30 16760 H 1647.59 4.91377 1.07508 0
M  V30 16761 H 1647.29 5.86218 -0.402808 0
M  V30 16762 H 1648.81 6.08529 0.502533 0
M  V30 16763 H 1650.23 5.4793 -1.68658 0
M  V30 16764 H 1648.62 5.46564 -2.47765 0
M  V30 16765 H 1649.69 4.06236 -2.64765 0
M  V30 16766 N 1651.04 0.732878 1.39523 0
M  V30 16767 C 1652.28 0.280305 2.00854 0
M  V30 16768 C 1652.62 -1.12891 1.58017 0
M  V30 16769 O 1651.89 -1.76919 0.808086 0
M  V30 16770 C 1652.17 0.37978 3.58092 0
M  V30 16771 C 1652.03 1.82861 4.10953 0
M  V30 16772 C 1653.35 -0.239026 4.3945 0
M  V30 16773 H 1650.47 0.103326 0.729721 0
M  V30 16774 H 1653.11 0.928634 1.6576 0
M  V30 16775 H 1651.26 -0.172198 3.88118 0
M  V30 16776 H 1652.93 2.4373 3.91655 0
M  V30 16777 H 1651.17 2.35064 3.64592 0
M  V30 16778 H 1651.84 1.84949 5.20094 0
M  V30 16779 H 1654.32 0.231488 4.15456 0
M  V30 16780 H 1653.2 -0.139068 5.48724 0
M  V30 16781 H 1653.46 -1.32481 4.21783 0
M  V30 16782 N 1652.52 -1.50101 0.480349 0
M  V30 16783 C 1653.47 -2.25631 -0.327823 0
M  V30 16784 C 1654.45 -1.29605 -0.953492 0
M  V30 16785 O 1655.64 -1.54451 -0.86451 0
M  V30 16786 C 1652.77 -3.13284 -1.40386 0
M  V30 16787 C 1651.86 -4.16763 -0.785461 0
M  V30 16788 N 1652.25 -5.05702 0.0997266 0
M  V30 16789 C 1650.55 -4.33503 -1.04838 0
M  V30 16790 C 1651.25 -5.79944 0.45163 0
M  V30 16791 N 1650.22 -5.43317 -0.175455 0
M  V30 16792 H 1654.02 -2.91761 0.353929 0
M  V30 16793 H 1651.54 -1.59697 0.295085 0
M  V30 16794 H 1653.54 -3.66008 -1.9961 0
M  V30 16795 H 1652.2 -2.48703 -2.08751 0
M  V30 16796 H 1653.21 -5.1577 0.469184 0
M  V30 16797 H 1649.88 -3.80138 -1.72631 0
M  V30 16798 H 1651.27 -6.61554 1.17458 0
M  V30 16799 N 1653.99 -0.213323 -1.5615 0
M  V30 16800 C 1654.92 0.695003 -2.22917 0
M  V30 16801 C 1655.9 1.20738 -1.19818 0
M  V30 16802 O 1657.09 1.25289 -1.48379 0
M  V30 16803 C 1654.22 1.90685 -2.9027 0
M  V30 16804 C 1653.17 1.52865 -3.9977 0
M  V30 16805 C 1652.5 2.81859 -4.54378 0
M  V30 16806 C 1653.8 0.724829 -5.17246 0
M  V30 16807 H 1655.49 0.138351 -2.9908 0
M  V30 16808 H 1653.04 0.0651029 -1.43853 0
M  V30 16809 H 1654.99 2.54766 -3.35667 0
M  V30 16810 H 1653.72 2.48833 -2.11541 0
M  V30 16811 H 1652.38 0.911336 -3.55092 0
M  V30 16812 H 1652.02 3.38135 -3.72389 0
M  V30 16813 H 1651.72 2.57291 -5.28275 0
M  V30 16814 H 1653.25 3.46897 -5.02489 0
M  V30 16815 H 1654.66 1.26915 -5.59076 0
M  V30 16816 H 1653.06 0.57656 -5.97324 0
M  V30 16817 H 1654.13 -0.270309 -4.84146 0
M  V30 16818 N 1655.47 1.57485 0.0601405 0
M  V30 16819 C 1656.75 1.78904 0.790732 0
M  V30 16820 C 1657.13 0.803802 1.95198 0
M  V30 16821 O 1656.48 -0.16067 2.27934 0
M  V30 16822 C 1656.69 3.25738 1.25282 0
M  V30 16823 C 1658.04 3.89887 1.68147 0
M  V30 16824 O 1659.06 3.297 1.3482 0
M  V30 16825 O 1657.92 4.95796 2.29889 0
M  V30 16826 H 1655.01 0.734623 0.379814 0
M  V30 16827 H 1657.56 1.69654 0.0393151 0
M  V30 16828 H 1656.33 3.89013 0.422442 0
M  V30 16829 H 1655.95 3.39757 2.06521 0
M  V30 16830 N 1656.95 -0.331789 1.54068 0
M  V30 16831 C 1657.9 -1.40889 1.7926 0
M  V30 16832 C 1658.88 -1.47263 0.648266 0
M  V30 16833 O 1660.08 -1.51934 0.908021 0
M  V30 16834 C 1657.21 -2.77864 2.0161 0
M  V30 16835 C 1656.29 -2.75835 3.22142 0
M  V30 16836 N 1656.68 -2.43431 4.43368 0
M  V30 16837 C 1654.98 -3.06972 3.23549 0
M  V30 16838 C 1655.68 -2.49932 5.2527 0
M  V30 16839 N 1654.66 -2.86037 4.6226 0
M  V30 16840 H 1658.46 -1.14751 2.70572 0
M  V30 16841 H 1655.97 -0.540225 1.53151 0
M  V30 16842 H 1657.97 -3.55486 2.17796 0
M  V30 16843 H 1656.63 -3.04938 1.11547 0
M  V30 16844 H 1657.64 -2.16421 4.70513 0
M  V30 16845 H 1654.32 -3.39142 2.43493 0
M  V30 16846 H 1655.71 -2.27938 6.32055 0
M  V30 16847 N 1658.43 -1.46001 -0.593424 0
M  V30 16848 C 1659.39 -1.55347 -1.68523 0
M  V30 16849 C 1660.39 -0.431599 -1.549 0
M  V30 16850 O 1661.58 -0.695559 -1.59711 0
M  V30 16851 C 1658.71 -1.46355 -3.07885 0
M  V30 16852 H 1659.91 -2.52639 -1.61597 0
M  V30 16853 H 1657.46 -1.33652 -0.810363 0
M  V30 16854 H 1658.19 -0.503024 -3.20375 0
M  V30 16855 H 1657.98 -2.27741 -3.19181 0
M  V30 16856 H 1659.47 -1.55958 -3.87385 0
M  V30 16857 N 1659.91 0.83715 -1.33527 0
M  V30 16858 C 1660.87 1.92865 -1.23837 0
M  V30 16859 C 1661.87 1.60032 -0.157005 0
M  V30 16860 O 1663.06 1.69339 -0.408654 0
M  V30 16861 C 1660.19 3.28568 -0.908617 0
M  V30 16862 H 1661.38 2.02883 -2.20859 0
M  V30 16863 H 1658.94 1.02944 -1.1761 0
M  V30 16864 H 1659.67 3.24246 0.0590328 0
M  V30 16865 H 1659.46 3.53779 -1.69064 0
M  V30 16866 H 1660.95 4.0853 -0.86561 0
M  V30 16867 N 1661.38 1.17024 1.05561 0
M  V30 16868 C 1662.8 0.916718 1.30646 0
M  V30 16869 C 1663 -0.426248 1.9694 0
M  V30 16870 O 1662.06 -1.16408 2.24065 0
M  V30 16871 C 1663.37 2.07126 2.17989 0
M  V30 16872 C 1664.92 2.10787 2.31383 0
M  V30 16873 C 1665.39 3.25616 3.22084 0
M  V30 16874 N 1666.88 3.25381 3.29669 0
M  V30 16875 C 1667.62 4.10873 3.99964 0
M  V30 16876 N 1667.11 5.06468 4.72718 0
M  V30 16877 N 1668.91 3.98835 3.9609 0
M  V30 16878 H 1661.06 2.03474 0.609284 0
M  V30 16879 H 1663.32 0.888247 0.331243 0
M  V30 16880 H 1663.03 3.04168 1.76564 0
M  V30 16881 H 1662.9 2.01912 3.18609 0
M  V30 16882 H 1665.29 1.14333 2.72051 0
M  V30 16883 H 1665.37 2.20064 1.30405 0
M  V30 16884 H 1665.01 4.22333 2.8213 0
M  V30 16885 H 1664.94 3.13575 4.23058 0
M  V30 16886 H 1667.43 2.56164 2.77828 0
M  V30 16887 H 1667.75 5.68105 5.23905 0
M  V30 16888 H 1666.09 5.10441 4.71673 0
M  V30 16889 H 1669.28 3.23451 3.38375 0
M  V30 16890 H 1669.46 4.65682 4.50604 0
M  V30 16891 N 1662.86 -1.24221 0.969889 0
M  V30 16892 C 1664.11 -1.92638 0.633913 0
M  V30 16893 C 1664.44 -1.75612 -0.829092 0
M  V30 16894 O 1663.72 -1.11057 -1.59677 0
M  V30 16895 C 1664 -3.45583 1.01213 0
M  V30 16896 C 1663.85 -3.71766 2.53199 0
M  V30 16897 C 1665.17 -4.36671 0.548294 0
M  V30 16898 H 1662.29 -0.699608 0.231772 0
M  V30 16899 H 1664.93 -1.46548 1.20929 0
M  V30 16900 H 1663.08 -3.8497 0.522531 0
M  V30 16901 H 1664.75 -3.41925 3.09653 0
M  V30 16902 H 1663 -3.16842 2.963 0
M  V30 16903 H 1663.67 -4.78787 2.74713 0
M  V30 16904 H 1666.14 -4.04672 0.968489 0
M  V30 16905 H 1665.02 -5.42412 0.841472 0
M  V30 16906 H 1665.28 -4.38646 -0.551588 0
M  V30 16907 N 1664.34 -0.740267 -1.39132 0
M  V30 16908 C 1665.59 -0.290953 -2.00702 0
M  V30 16909 C 1665.92 1.12051 -1.58613 0
M  V30 16910 O 1665.19 1.76488 -0.817457 0
M  V30 16911 C 1665.48 -0.398765 -3.57885 0
M  V30 16912 C 1665.33 -1.85038 -4.09977 0
M  V30 16913 C 1666.65 0.215717 -4.39571 0
M  V30 16914 H 1663.77 -0.107194 -0.729163 0
M  V30 16915 H 1666.41 -0.937411 -1.65265 0
M  V30 16916 H 1664.56 0.151613 -3.88204 0
M  V30 16917 H 1666.23 -2.45804 -3.90357 0
M  V30 16918 H 1664.48 -2.36994 -3.63341 0
M  V30 16919 H 1665.15 -1.87705 -5.19106 0
M  V30 16920 H 1667.62 -0.253518 -4.15327 0
M  V30 16921 H 1666.5 0.109966 -5.4879 0
M  V30 16922 H 1666.76 1.30242 -4.2248 0
M  V30 16923 N 1665.82 1.49844 -0.488302 0
M  V30 16924 C 1667.07 2.02009 0.0605782 0
M  V30 16925 C 1667.39 1.37114 1.38653 0
M  V30 16926 O 1666.66 0.522182 1.88812 0
M  V30 16927 H 1665.24 0.746569 0.0253773 0
M  V30 16928 H 1667.9 1.84 -0.64265 0
M  V30 16929 H 1667 3.11461 0.199542 0
M  V30 16930 N 1667.3 0.221601 1.56034 0
M  V30 16931 C 1668.23 -0.720818 2.1757 0
M  V30 16932 C 1669.24 -1.15751 1.14479 0
M  V30 16933 O 1670.43 -1.08865 1.41459 0
M  V30 16934 C 1667.53 -1.98817 2.74454 0
M  V30 16935 C 1666.7 -1.70703 4.02715 0
M  V30 16936 C 1665.76 -2.82146 4.44162 0
M  V30 16937 O 1664.79 -2.50614 5.11059 0
M  V30 16938 N 1665.99 -4.11101 4.09849 0
M  V30 16939 H 1668.76 -0.194436 2.99069 0
M  V30 16940 H 1666.32 0.0405962 1.61849 0
M  V30 16941 H 1668.31 -2.72562 2.99152 0
M  V30 16942 H 1666.88 -2.42503 1.97258 0
M  V30 16943 H 1666.1 -0.806022 3.85872 0
M  V30 16944 H 1667.39 -1.49351 4.86387 0
M  V30 16945 H 1666.78 -4.39562 3.56092 0
M  V30 16946 H 1665.34 -4.81389 4.3944 0
M  V30 16947 N 1668.77 -1.57515 -0.0517878 0
M  V30 16948 C 1669.7 -2.0809 -1.05929 0
M  V30 16949 C 1670.69 -0.978529 -1.39136 0
M  V30 16950 O 1671.87 -1.25245 -1.48416 0
M  V30 16951 C 1669 -2.54147 -2.36699 0
M  V30 16952 C 1667.95 -3.68442 -2.17794 0
M  V30 16953 C 1667.28 -4.00624 -3.54125 0
M  V30 16954 C 1668.58 -4.97743 -1.5827 0
M  V30 16955 H 1670.27 -2.92515 -0.638371 0
M  V30 16956 H 1667.82 -1.40719 -0.305625 0
M  V30 16957 H 1669.77 -2.88145 -3.07491 0
M  V30 16958 H 1668.5 -1.66775 -2.80809 0
M  V30 16959 H 1667.16 -3.34758 -1.4944 0
M  V30 16960 H 1666.8 -3.10353 -3.95841 0
M  V30 16961 H 1666.5 -4.77597 -3.42308 0
M  V30 16962 H 1668.03 -4.37136 -4.26315 0
M  V30 16963 H 1669.44 -5.29843 -2.18951 0
M  V30 16964 H 1667.84 -5.79173 -1.57094 0
M  V30 16965 H 1668.91 -4.81815 -0.546127 0
M  V30 16966 N 1670.25 0.323614 -1.54242 0
M  V30 16967 C 1671.66 0.898051 -1.63682 0
M  V30 16968 C 1672.02 1.88882 -0.530861 0
M  V30 16969 O 1671.14 2.13772 0.336245 0
M  V30 16970 C 1671.74 1.63561 -2.96704 0
M  V30 16971 C 1670.29 2.15877 -3.08341 0
M  V30 16972 C 1669.44 0.984145 -2.59249 0
M  V30 16973 H 1672.39 0.101198 -1.58377 0
M  V30 16974 H 1672.41 2.49982 -2.86861 0
M  V30 16975 H 1671.93 0.914265 -3.77177 0
M  V30 16976 H 1670.03 2.91127 -2.32542 0
M  V30 16977 H 1670.14 2.40881 -4.14141 0
M  V30 16978 H 1668.5 1.3633 -2.15143 0
M  V30 16979 H 1669.29 0.277118 -3.4218 0
M  V30 16980 N 1671.73 1.46313 0.585673 0
M  V30 16981 C 1672.96 1.55035 1.3701 0
M  V30 16982 C 1673.37 0.190444 1.87837 0
M  V30 16983 O 1672.73 -0.81177 1.63452 0
M  V30 16984 C 1672.78 2.55272 2.55965 0
M  V30 16985 O 1672.5 3.85981 2.07245 0
M  V30 16986 C 1674 2.73906 3.48555 0
M  V30 16987 H 1671.22 0.524377 0.418653 0
M  V30 16988 H 1673.77 1.91695 0.712267 0
M  V30 16989 H 1671.92 2.21625 3.17744 0
M  V30 16990 H 1672.34 4.40512 2.84692 0
M  V30 16991 H 1673.81 3.4797 4.2851 0
M  V30 16992 H 1674.29 1.80708 4.00301 0
M  V30 16993 H 1674.89 3.08638 2.92614 0
M  V30 16994 N 1673.21 -0.830057 1.33969 0
M  V30 16995 C 1674.46 -1.58821 1.26111 0
M  V30 16996 C 1674.79 -1.9345 -0.170484 0
M  V30 16997 O 1674.06 -1.59433 -1.11407 0
M  V30 16998 C 1674.35 -2.89243 2.14501 0
M  V30 16999 C 1674.2 -2.61239 3.66162 0
M  V30 17000 C 1675.52 -3.90752 2.02487 0
M  V30 17001 H 1672.64 -0.576255 0.459455 0
M  V30 17002 H 1675.28 -0.956736 1.64154 0
M  V30 17003 H 1673.43 -3.43133 1.82186 0
M  V30 17004 H 1675.1 -2.13713 4.08809 0
M  V30 17005 H 1673.34 -1.94796 3.87604 0
M  V30 17006 H 1674.02 -3.54212 4.23365 0
M  V30 17007 H 1676.49 -3.46194 2.30844 0
M  V30 17008 H 1675.37 -4.79825 2.6657 0
M  V30 17009 H 1675.63 -4.30649 0.999704 0
M  V30 17010 N 1674.69 -1.17582 -1.04939 0
M  V30 17011 C 1676.1 -0.971326 -1.59443 0
M  V30 17012 C 1676.45 0.481308 -1.90205 0
M  V30 17013 O 1675.57 1.35708 -1.6856 0
M  V30 17014 C 1676.17 -1.75685 -2.8969 0
M  V30 17015 C 1674.73 -1.59695 -3.40844 0
M  V30 17016 C 1673.88 -1.75688 -2.14544 0
M  V30 17017 H 1676.83 -1.32254 -0.877188 0
M  V30 17018 H 1676.85 -1.24074 -3.59703 0
M  V30 17019 H 1676.36 -2.81405 -2.67269 0
M  V30 17020 H 1674.46 -0.564746 -3.68295 0
M  V30 17021 H 1674.57 -2.38951 -4.15258 0
M  V30 17022 H 1672.94 -1.18553 -2.25427 0
M  V30 17023 H 1673.72 -2.82825 -1.94589 0
M  V30 17024 N 1676.17 1.23705 -0.976463 0
M  V30 17025 C 1677.13 2.23257 -0.518533 0
M  V30 17026 C 1678.13 1.56006 0.3897 0
M  V30 17027 O 1679.32 1.73226 0.18394 0
M  V30 17028 C 1676.45 3.39997 0.247916 0
M  V30 17029 H 1677.64 2.65284 -1.39872 0
M  V30 17030 H 1675.2 1.3647 -0.761946 0
M  V30 17031 H 1675.93 3.03421 1.14482 0
M  V30 17032 H 1675.72 3.90013 -0.403975 0
M  V30 17033 H 1677.21 4.13868 0.557034 0
M  V30 17034 N 1677.64 0.747635 1.38738 0
M  V30 17035 C 1678.58 0.0762364 2.29073 0
M  V30 17036 C 1679.59 -0.690087 1.4745 0
M  V30 17037 O 1680.78 -0.53216 1.70383 0
M  V30 17038 C 1677.88 -0.916136 3.26282 0
M  V30 17039 C 1677.05 -0.2087 4.36902 0
M  V30 17040 C 1676.11 -1.11097 5.14338 0
M  V30 17041 O 1675.14 -0.583722 5.66199 0
M  V30 17042 N 1676.34 -2.43961 5.26748 0
M  V30 17043 H 1679.1 0.852024 2.87334 0
M  V30 17044 H 1676.66 0.597915 1.50455 0
M  V30 17045 H 1678.66 -1.52263 3.74964 0
M  V30 17046 H 1677.23 -1.59304 2.68963 0
M  V30 17047 H 1676.45 0.578435 3.89933 0
M  V30 17048 H 1677.73 0.281061 5.08023 0
M  V30 17049 H 1677.13 -2.89259 4.86154 0
M  V30 17050 H 1675.69 -2.99676 5.78824 0
M  V30 17051 N 1679.12 -1.49583 0.496242 0
M  V30 17052 C 1680.05 -2.31885 -0.274139 0
M  V30 17053 C 1681.03 -1.39939 -0.96701 0
M  V30 17054 O 1682.22 -1.6885 -0.959333 0
M  V30 17055 C 1679.35 -3.20332 -1.34181 0
M  V30 17056 C 1678.3 -4.21033 -0.769091 0
M  V30 17057 C 1677.63 -4.98385 -1.93693 0
M  V30 17058 C 1678.93 -5.21764 0.236648 0
M  V30 17059 H 1680.62 -2.9654 0.412824 0
M  V30 17060 H 1678.17 -1.42605 0.199979 0
M  V30 17061 H 1680.12 -3.76718 -1.88843 0
M  V30 17062 H 1678.84 -2.53611 -2.05789 0
M  V30 17063 H 1677.5 -3.65785 -0.244252 0
M  V30 17064 H 1677.15 -4.28115 -2.64058 0
M  V30 17065 H 1676.85 -5.66519 -1.55981 0
M  V30 17066 H 1678.38 -5.57613 -2.48798 0
M  V30 17067 H 1679.79 -5.72871 -0.221672 0
M  V30 17068 H 1678.19 -5.97761 0.529346 0
M  V30 17069 H 1679.26 -4.70964 1.15415 0
M  V30 17070 N 1680.6 -0.229873 -1.55915 0
M  V30 17071 C 1681.83 0.404189 -2.02914 0
M  V30 17072 C 1682.24 1.52758 -1.10952 0
M  V30 17073 O 1681.6 1.82101 -0.120685 0
M  V30 17074 C 1681.65 0.928016 -3.49385 0
M  V30 17075 O 1681.37 -0.150592 -4.37841 0
M  V30 17076 C 1682.87 1.63448 -4.12067 0
M  V30 17077 H 1680.09 0.0980294 -0.663801 0
M  V30 17078 H 1682.64 -0.34876 -2.01504 0
M  V30 17079 H 1680.79 1.63121 -3.51384 0
M  V30 17080 H 1681.21 0.244429 -5.2393 0
M  V30 17081 H 1682.68 1.95292 -5.16299 0
M  V30 17082 H 1683.16 2.55055 -3.57553 0
M  V30 17083 H 1683.76 0.976292 -4.13943 0
M  V30 17084 N 1682.08 1.5754 0.0434337 0
M  V30 17085 C 1683.32 1.88887 0.7382 0
M  V30 17086 C 1683.66 0.825827 1.75766 0
M  V30 17087 O 1682.93 -0.160797 1.93834 0
M  V30 17088 C 1683.21 3.30889 1.42072 0
M  V30 17089 C 1683.07 4.47874 0.415754 0
M  V30 17090 C 1684.39 3.71571 2.35846 0
M  V30 17091 H 1681.51 0.686975 0.266897 0
M  V30 17092 H 1684.15 1.9 0.00106957 0
M  V30 17093 H 1682.3 3.30071 2.04903 0
M  V30 17094 H 1683.97 4.60824 -0.209529 0
M  V30 17095 H 1682.21 4.32982 -0.266346 0
M  V30 17096 H 1682.88 5.44084 0.931509 0
M  V30 17097 H 1685.36 3.73663 1.83071 0
M  V30 17098 H 1684.24 4.71763 2.80589 0
M  V30 17099 H 1684.5 3.03041 3.21898 0
M  V30 17100 N 1683.56 -0.31543 1.54411 0
M  V30 17101 C 1684.78 -1.07173 1.76979 0
M  V30 17102 C 1685.2 -1.81432 0.522285 0
M  V30 17103 O 1684.56 -1.75306 -0.507348 0
M  V30 17104 C 1684.61 -2.06352 2.96818 0
M  V30 17105 O 1684.33 -1.35108 4.16746 0
M  V30 17106 C 1685.83 -2.94136 3.31661 0
M  V30 17107 H 1683.05 -0.318455 0.590616 0
M  V30 17108 H 1685.59 -0.359085 2.01323 0
M  V30 17109 H 1683.75 -2.7314 2.74724 0
M  V30 17110 H 1684.16 -2.01593 4.84211 0
M  V30 17111 H 1685.64 -3.59606 4.18793 0
M  V30 17112 H 1686.11 -3.6167 2.49182 0
M  V30 17113 H 1686.72 -2.32899 3.55863 0
M  V30 17114 N 1685.03 -1.46622 -0.577906 0
M  V30 17115 C 1686 -1.57126 -1.66865 0
M  V30 17116 C 1687 -0.448004 -1.54433 0
M  V30 17117 O 1688.19 -0.712459 -1.58964 0
M  V30 17118 C 1685.32 -1.49612 -3.06315 0
M  V30 17119 H 1686.51 -2.54338 -1.58909 0
M  V30 17120 H 1684.07 -1.34504 -0.796142 0
M  V30 17121 H 1684.8 -0.536976 -3.19823 0
M  V30 17122 H 1684.59 -2.31113 -3.16748 0
M  V30 17123 H 1686.08 -1.60058 -3.85709 0
M  V30 17124 N 1686.51 0.822941 -1.34408 0
M  V30 17125 C 1687.74 1.61087 -1.2984 0
M  V30 17126 C 1688.16 1.88369 0.127527 0
M  V30 17127 O 1687.51 1.47508 1.0746 0
M  V30 17128 C 1687.56 2.9518 -2.08689 0
M  V30 17129 O 1687.28 2.69089 -3.45721 0
M  V30 17130 C 1688.79 3.89583 -2.11518 0
M  V30 17131 H 1686.01 0.500726 -0.44667 0
M  V30 17132 H 1688.55 1.02391 -1.77021 0
M  V30 17133 H 1686.7 3.50434 -1.6515 0
M  V30 17134 H 1687.12 3.5459 -3.86479 0
M  V30 17135 H 1688.59 4.80835 -2.71111 0
M  V30 17136 H 1689.07 4.24953 -1.10957 0
M  V30 17137 H 1689.68 3.40265 -2.55146 0
M  V30 17138 N 1687.99 1.18137 1.04314 0
M  V30 17139 C 1688.95 0.908268 2.10436 0
M  V30 17140 C 1689.95 -0.105315 1.60455 0
M  V30 17141 O 1691.14 0.12785 1.7373 0
M  V30 17142 C 1688.28 0.362233 3.3897 0
M  V30 17143 H 1689.47 1.84928 2.36096 0
M  V30 17144 H 1687.02 0.993048 1.20699 0
M  V30 17145 H 1687.76 -0.58551 3.18971 0
M  V30 17146 H 1687.54 1.09285 3.76562 0
M  V30 17147 H 1689.03 0.18977 4.17169 0
M  V30 17148 N 1689.47 -1.23186 0.98301 0
M  V30 17149 C 1690.43 -2.22979 0.530366 0
M  V30 17150 C 1691.43 -1.56211 -0.381421 0
M  V30 17151 O 1692.62 -1.73321 -0.17475 0
M  V30 17152 C 1689.75 -3.40124 -0.229882 0
M  V30 17153 H 1690.95 -2.64539 1.41277 0
M  V30 17154 H 1688.5 -1.36064 0.769172 0
M  V30 17155 H 1689.23 -3.04024 -1.12871 0
M  V30 17156 H 1689.02 -3.89794 0.424653 0
M  V30 17157 H 1690.51 -4.14158 -0.535078 0
M  V30 17158 N 1690.95 -0.754982 -1.38339 0
M  V30 17159 C 1691.89 -0.117579 -2.32303 0
M  V30 17160 C 1692.89 0.703759 -1.5409 0
M  V30 17161 O 1694.09 0.602701 -1.6961 0
M  V30 17162 H 1690.47 -0.0192276 -0.751754 0
M  V30 17163 H 1692.44 -0.926113 -2.83665 0
M  V30 17164 C 1691.19 0.760239 -3.39287 0
M  V30 17165 H 1690.51 0.137619 -3.99563 0
M  V30 17166 H 1691.95 1.17349 -4.07437 0
M  V30 17167 C 1690.41 1.90347 -2.77974 0
M  V30 17168 O 1690.94 2.99773 -2.67393 0
M  V30 17169 N 1689.15 1.69895 -2.35763 0
M  V30 17170 H 1688.69 0.808926 -2.44569 0
M  V30 17171 H 1688.65 2.46557 -1.95082 0
M  V30 17172 N 1692.42 1.49318 -0.504168 0
M  V30 17173 C 1693.39 2.27703 0.26157 0
M  V30 17174 C 1694.39 1.3385 0.891114 0
M  V30 17175 O 1695.58 1.56981 0.755156 0
M  V30 17176 C 1692.71 3.11912 1.37564 0
M  V30 17177 H 1693.9 2.96855 -0.426292 0
M  V30 17178 H 1691.46 1.54135 -0.259236 0
M  V30 17179 H 1692.19 2.47332 2.09755 0
M  V30 17180 H 1691.98 3.8092 0.929641 0
M  V30 17181 H 1693.47 3.71106 1.91494 0
M  V30 17182 N 1693.9 0.238138 1.5579 0
M  V30 17183 C 1695.13 -0.393422 2.03125 0
M  V30 17184 C 1695.55 -1.52168 1.11761 0
M  V30 17185 O 1694.9 -1.82034 0.130341 0
M  V30 17186 C 1694.95 -0.909474 3.49873 0
M  V30 17187 O 1694.67 0.17381 4.37755 0
M  V30 17188 C 1696.18 -1.61261 4.12928 0
M  V30 17189 H 1693.4 -0.0945077 0.664311 0
M  V30 17190 H 1695.94 0.359442 2.01316 0
M  V30 17191 H 1694.09 -1.61255 3.52244 0
M  V30 17192 H 1694.51 -0.216641 5.24052 0
M  V30 17193 H 1695.98 -1.92551 5.17328 0
M  V30 17194 H 1696.46 -2.53155 3.589 0
M  V30 17195 H 1697.07 -0.954326 4.14455 0
M  V30 17196 N 1695.38 -1.57561 -0.0350783 0
M  V30 17197 C 1696.66 -1.8014 -0.76217 0
M  V30 17198 C 1697.04 -0.834754 -1.93894 0
M  V30 17199 O 1696.39 0.124387 -2.28161 0
M  V30 17200 C 1696.6 -3.2769 -1.20084 0
M  V30 17201 C 1697.94 -3.92513 -1.61923 0
M  V30 17202 O 1698.97 -3.31803 -1.29558 0
M  V30 17203 O 1697.83 -4.9939 -2.21972 0
M  V30 17204 H 1694.92 -0.740572 -0.368078 0
M  V30 17205 H 1697.47 -1.69696 -0.0123195 0
M  V30 17206 H 1696.24 -3.89636 -0.3605 0
M  V30 17207 H 1695.86 -3.43 -2.01089 0
M  V30 17208 N 1696.86 0.307236 -1.54576 0
M  V30 17209 C 1698.09 1.06233 -1.77545 0
M  V30 17210 C 1698.5 1.81153 -0.5319 0
M  V30 17211 O 1697.86 1.75573 0.498044 0
M  V30 17212 C 1697.91 2.04775 -2.97908 0
M  V30 17213 O 1697.63 1.32896 -4.17457 0
M  V30 17214 C 1699.13 2.92373 -3.33216 0
M  V30 17215 H 1696.35 0.315318 -0.592297 0
M  V30 17216 H 1698.9 0.348403 -2.0151 0
M  V30 17217 H 1697.05 2.71679 -2.76169 0
M  V30 17218 H 1697.46 1.99022 -4.85274 0
M  V30 17219 H 1698.94 3.5738 -4.20694 0
M  V30 17220 H 1699.42 3.60343 -2.51097 0
M  V30 17221 H 1700.02 2.31009 -3.57093 0
M  V30 17222 N 1698.34 1.46926 0.570122 0
M  V30 17223 C 1699.61 1.43365 1.33063 0
M  V30 17224 C 1699.99 0.123738 2.10737 0
M  V30 17225 O 1699.34 -0.894766 2.10253 0
M  V30 17226 C 1699.55 2.67122 2.24604 0
M  V30 17227 C 1700.9 3.13798 2.86035 0
M  V30 17228 O 1701.92 2.67759 2.34912 0
M  V30 17229 O 1700.78 3.93801 3.78923 0
M  V30 17230 H 1697.88 0.570726 0.598499 0
M  V30 17231 H 1700.42 1.5911 0.590095 0
M  V30 17232 H 1699.19 3.54005 1.66722 0
M  V30 17233 H 1698.82 2.53899 3.05976 0
M  V30 17234 N 1699.82 -0.815801 1.34842 0
M  V30 17235 C 1700.75 -1.93258 1.21353 0
M  V30 17236 C 1701.73 -1.6227 0.103515 0
M  V30 17237 O 1702.91 -1.86557 0.269954 0
M  V30 17238 C 1700.04 -3.27429 0.866494 0
M  V30 17239 C 1699.08 -3.77372 1.98727 0
M  V30 17240 S 1699.92 -3.96277 3.60173 0
M  V30 17241 C 1701.07 -5.33364 3.27526 0
M  V30 17242 H 1701.31 -2.04405 2.15884 0
M  V30 17243 H 1698.84 -0.972165 1.19951 0
M  V30 17244 H 1700.8 -4.04945 0.673064 0
M  V30 17245 H 1699.46 -3.14042 -0.0605998 0
M  V30 17246 H 1698.65 -4.74522 1.69837 0
M  V30 17247 H 1698.25 -3.06825 2.13855 0
M  V30 17248 H 1700.54 -6.17031 2.79783 0
M  V30 17249 H 1701.49 -5.67242 4.23842 0
M  V30 17250 H 1701.9 -4.99213 2.63527 0
M  V30 17251 N 1701.29 -1.18689 -1.03686 0
M  V30 17252 C 1702.54 -0.982656 -1.76602 0
M  V30 17253 C 1702.86 0.488553 -1.88781 0
M  V30 17254 O 1702.13 1.35419 -1.41558 0
M  V30 17255 H 1700.71 -0.360595 -0.654202 0
M  V30 17256 H 1703.37 -1.49439 -1.25115 0
M  V30 17257 H 1702.47 -1.42392 -2.77725 0
M  V30 17258 N 1702.77 1.22662 -0.989529 0
M  V30 17259 C 1704.19 1.43445 -0.699687 0
M  V30 17260 C 1704.39 1.87778 0.730875 0
M  V30 17261 O 1703.44 2.02953 1.5022 0
M  V30 17262 C 1704.76 2.47869 -1.70239 0
M  V30 17263 C 1706.3 2.61672 -1.71746 0
M  V30 17264 C 1706.78 3.69315 -2.7087 0
M  V30 17265 N 1708.27 3.76768 -2.69444 0
M  V30 17266 C 1709.01 4.59641 -3.42808 0
M  V30 17267 N 1708.5 5.46533 -4.25762 0
M  V30 17268 N 1710.29 4.53921 -3.3153 0
M  V30 17269 H 1702.45 0.921912 -1.91349 0
M  V30 17270 H 1704.71 0.466905 -0.825048 0
M  V30 17271 H 1704.41 2.22233 -2.7259 0
M  V30 17272 H 1704.29 3.46415 -1.49254 0
M  V30 17273 H 1706.68 2.86655 -0.70094 0
M  V30 17274 H 1706.76 1.63413 -1.96799 0
M  V30 17275 H 1706.4 3.4508 -3.72669 0
M  V30 17276 H 1706.33 4.67136 -2.43088 0
M  V30 17277 H 1708.82 3.1468 -2.09249 0
M  V30 17278 H 1709.13 6.06783 -4.78575 0
M  V30 17279 H 1707.48 5.46126 -4.2985 0
M  V30 17280 H 1710.67 3.85062 -2.66168 0
M  V30 17281 H 1710.84 5.18277 -3.88964 0
M  V30 17282 N 1704.25 0.762308 1.37937 0
M  V30 17283 C 1705.5 0.322846 2.00214 0
M  V30 17284 C 1705.83 -1.09513 1.60376 0
M  V30 17285 O 1705.1 -1.75165 0.845432 0
M  V30 17286 C 1705.39 0.455651 3.57206 0
M  V30 17287 C 1705.24 1.91537 4.06981 0
M  V30 17288 C 1706.56 -0.145758 4.39859 0
M  V30 17289 H 1703.68 0.118781 0.727365 0
M  V30 17290 H 1706.32 0.963585 1.63753 0
M  V30 17291 H 1704.47 -0.0898341 3.88396 0
M  V30 17292 H 1706.14 2.51983 3.86397 0
M  V30 17293 H 1704.38 2.42744 3.59524 0
M  V30 17294 H 1705.06 1.9594 5.16054 0
M  V30 17295 H 1707.53 0.31956 4.14871 0
M  V30 17296 H 1706.41 -0.0226441 5.48895 0
M  V30 17297 H 1706.67 -1.23504 4.24499 0
M  V30 17298 N 1705.73 -1.49049 0.51208 0
M  V30 17299 C 1706.97 -2.0278 -0.0285311 0
M  V30 17300 C 1707.31 -1.39003 -1.35617 0
M  V30 17301 O 1706.58 -0.52952 -1.87153 0
M  V30 17302 C 1706.86 -3.59701 -0.169433 0
M  V30 17303 C 1706.72 -4.33989 1.18211 0
M  V30 17304 C 1708.04 -4.30698 -0.904812 0
M  V30 17305 H 1705.16 -0.736946 -0.00889467 0
M  V30 17306 H 1707.8 -1.77959 0.66564 0
M  V30 17307 H 1705.95 -3.8098 -0.760667 0
M  V30 17308 H 1707.62 -4.24176 1.81307 0
M  V30 17309 H 1705.86 -3.9611 1.76859 0
M  V30 17310 H 1706.53 -5.42177 1.03671 0
M  V30 17311 H 1709.01 -4.14141 -0.40327 0
M  V30 17312 H 1707.89 -5.40221 -0.972264 0
M  V30 17313 H 1708.15 -3.96718 -1.95108 0
M  V30 17314 N 1707.21 -0.246397 -1.55662 0
M  V30 17315 C 1708.62 0.256853 -1.84925 0
M  V30 17316 C 1708.97 1.5763 -1.16821 0
M  V30 17317 O 1708.09 2.11745 -0.446415 0
M  V30 17318 C 1708.69 0.472815 -3.35485 0
M  V30 17319 C 1707.25 0.92033 -3.64975 0
M  V30 17320 C 1706.39 -0.00273772 -2.773 0
M  V30 17321 H 1709.34 -0.468971 -1.51612 0
M  V30 17322 H 1709.37 1.31549 -3.57037 0
M  V30 17323 H 1708.88 -0.487664 -3.85024 0
M  V30 17324 H 1706.98 1.89329 -3.20913 0
M  V30 17325 H 1707.09 0.77754 -4.72748 0
M  V30 17326 H 1705.46 0.508539 -2.49572 0
M  V30 17327 H 1706.24 -0.958581 -3.29645 0
M  V30 17328 N 1708.68 1.57577 0.026722 0
M  V30 17329 C 1709.93 1.8966 0.718124 0
M  V30 17330 C 1710.26 0.844423 1.7488 0
M  V30 17331 O 1709.54 -0.14023 1.93994 0
M  V30 17332 C 1709.82 3.32377 1.38555 0
M  V30 17333 C 1709.67 4.4829 0.368227 0
M  V30 17334 C 1710.99 3.74051 2.31891 0
M  V30 17335 H 1708.11 0.689767 0.259596 0
M  V30 17336 H 1710.75 1.8999 -0.0190825 0
M  V30 17337 H 1708.9 3.32226 2.01391 0
M  V30 17338 H 1710.58 4.60576 -0.258394 0
M  V30 17339 H 1708.82 4.32675 -0.312255 0
M  V30 17340 H 1709.49 5.45041 0.873749 0
M  V30 17341 H 1711.97 3.75584 1.79097 0
M  V30 17342 H 1710.84 4.74713 2.7557 0
M  V30 17343 H 1711.1 3.06438 3.18666 0
M  V30 17344 N 1710.16 -0.299034 1.54737 0
M  V30 17345 C 1711.39 -1.05723 1.7843 0
M  V30 17346 C 1711.81 -1.80089 0.543094 0
M  V30 17347 O 1711.17 -1.74083 -0.506438 0
M  V30 17348 C 1711.22 -2.01193 2.99255 0
M  V30 17349 O 1710.32 -3.09528 2.72518 0
M  V30 17350 H 1709.66 -0.303614 0.590521 0
M  V30 17351 H 1712.19 -0.335859 2.01825 0
M  V30 17352 H 1712.2 -2.43623 3.27279 0
M  V30 17353 H 1710.88 -1.46472 3.89254 0
M  V30 17354 H 1709.45 -2.71599 2.55516 0
M  V30 17355 N 1711.64 -1.47227 -0.562322 0
M  V30 17356 C 1712.89 -1.53816 -1.32168 0
M  V30 17357 C 1713.22 -0.197649 -1.93192 0
M  V30 17358 O 1712.49 0.793178 -1.77592 0
M  V30 17359 C 1712.78 -2.65231 -2.43566 0
M  V30 17360 C 1712.63 -4.08882 -1.87445 0
M  V30 17361 C 1713.95 -2.72589 -3.45519 0
M  V30 17362 H 1711.07 -0.559947 -0.479195 0
M  V30 17363 H 1713.71 -1.7926 -0.629762 0
M  V30 17364 H 1711.86 -2.43667 -3.02587 0
M  V30 17365 H 1713.53 -4.41794 -1.32725 0
M  V30 17366 H 1711.77 -4.17401 -1.18149 0
M  V30 17367 H 1712.45 -4.82603 -2.67952 0
M  V30 17368 H 1714.92 -2.92028 -2.9641 0
M  V30 17369 H 1713.8 -3.5233 -4.20898 0
M  V30 17370 H 1714.06 -1.79444 -4.04045 0
M  V30 17371 N 1713.12 0.808639 -1.35273 0
M  V30 17372 C 1714.36 1.56794 -1.28621 0
M  V30 17373 C 1714.7 1.93697 0.139686 0
M  V30 17374 O 1713.97 1.61185 1.08856 0
M  V30 17375 C 1714.25 2.85794 -2.19075 0
M  V30 17376 C 1714.11 2.5538 -3.70271 0
M  V30 17377 C 1715.43 3.87481 -2.08678 0
M  V30 17378 H 1712.55 0.568873 -0.468564 0
M  V30 17379 H 1715.19 0.930499 -1.65655 0
M  V30 17380 H 1713.34 3.40191 -1.87622 0
M  V30 17381 H 1715.01 2.07182 -4.12157 0
M  V30 17382 H 1713.25 1.88605 -3.90654 0
M  V30 17383 H 1713.92 3.47432 -4.28947 0
M  V30 17384 H 1716.4 3.42478 -2.36323 0
M  V30 17385 H 1715.28 4.75523 -2.7417 0
M  V30 17386 H 1715.54 4.29004 -1.06809 0
M  V30 17387 N 1714.6 1.19237 1.03055 0
M  V30 17388 C 1715.84 0.995444 1.76688 0
M  V30 17389 C 1716.18 -0.472805 1.88357 0
M  V30 17390 O 1715.45 -1.3511 1.39913 0
M  V30 17391 C 1715.73 1.66308 3.19396 0
M  V30 17392 C 1715.59 3.20486 3.15609 0
M  V30 17393 C 1716.91 1.38468 4.17749 0
M  V30 17394 H 1714.02 0.36304 0.641382 0
M  V30 17395 H 1716.67 1.47052 1.20315 0
M  V30 17396 H 1714.82 1.25915 3.67529 0
M  V30 17397 H 1716.49 3.70081 2.75387 0
M  V30 17398 H 1714.73 3.52118 2.53369 0
M  V30 17399 H 1715.4 3.62345 4.16426 0
M  V30 17400 H 1717.88 1.73485 3.78209 0
M  V30 17401 H 1716.75 1.87735 5.15797 0
M  V30 17402 H 1717.02 0.309505 4.41015 0
M  V30 17403 N 1716.07 -1.22136 0.99602 0
M  V30 17404 C 1717.3 -1.94978 0.692172 0
M  V30 17405 C 1717.72 -1.73536 -0.743696 0
M  V30 17406 O 1717.07 -1.03637 -1.50219 0
M  V30 17407 C 1717.13 -3.47609 0.992498 0
M  V30 17408 O 1716.85 -3.68334 2.37195 0
M  V30 17409 C 1718.35 -4.37629 0.70679 0
M  V30 17410 H 1715.57 -0.620327 0.255802 0
M  V30 17411 H 1718.11 -1.55202 1.33164 0
M  V30 17412 H 1716.27 -3.85342 0.398785 0
M  V30 17413 H 1716.68 -4.62506 2.47362 0
M  V30 17414 H 1718.15 -5.43461 0.967173 0
M  V30 17415 H 1718.63 -4.37729 -0.359208 0
M  V30 17416 H 1719.24 -4.05528 1.2817 0
M  V30 17417 N 1717.55 -0.769612 -1.37531 0
M  V30 17418 C 1718.8 -0.332309 -1.99349 0
M  V30 17419 C 1719.12 1.09432 -1.61399 0
M  V30 17420 O 1718.39 1.75102 -0.878415 0
M  V30 17421 H 1716.97 -0.119879 -0.737318 0
M  V30 17422 H 1719.63 -0.987265 -1.68045 0
M  V30 17423 H 1718.73 -0.408233 -3.09419 0
M  V30 17424 N 1719.03 1.48775 -0.519977 0
M  V30 17425 C 1719.99 2.27967 0.237405 0
M  V30 17426 C 1720.99 1.34787 0.876868 0
M  V30 17427 O 1722.18 1.57773 0.738463 0
M  V30 17428 C 1719.32 3.13353 1.34248 0
M  V30 17429 H 1720.51 2.96386 -0.457753 0
M  V30 17430 H 1718.06 1.53852 -0.275569 0
M  V30 17431 H 1718.8 2.49543 2.0712 0
M  V30 17432 H 1718.58 3.81885 0.889187 0
M  V30 17433 H 1720.07 3.73116 1.87547 0
M  V30 17434 N 1720.51 0.254649 1.55529 0
M  V30 17435 C 1721.79 -0.418663 1.91067 0
M  V30 17436 C 1722.17 -1.75284 1.17638 0
M  V30 17437 O 1721.51 -2.26569 0.296411 0
M  V30 17438 C 1721.72 -0.579125 3.44162 0
M  V30 17439 C 1723.07 -0.871451 4.15561 0
M  V30 17440 O 1724.1 -0.664702 3.49943 0
M  V30 17441 O 1722.95 -1.26563 5.31643 0
M  V30 17442 H 1720.05 -0.22593 0.795541 0
M  V30 17443 H 1722.59 0.299288 1.6704 0
M  V30 17444 H 1721.37 0.36062 3.89635 0
M  V30 17445 H 1720.99 -1.34732 3.74076 0
M  V30 17446 N 1721.99 -1.57589 -0.0183649 0
M  V30 17447 C 1723.23 -1.89382 -0.705612 0
M  V30 17448 C 1723.56 -0.853698 -1.7532 0
M  V30 17449 O 1722.83 0.111322 -1.95583 0
M  V30 17450 H 1721.41 -0.698943 -0.263605 0
M  V30 17451 H 1724.07 -1.94891 0.0182168 0
M  V30 17452 H 1723.16 -2.88587 -1.18845 0
M  V30 17453 N 1723.46 0.290824 -1.54893 0
M  V30 17454 C 1724.43 1.34215 -1.85793 0
M  V30 17455 C 1725.43 1.43204 -0.731393 0
M  V30 17456 O 1726.62 1.42663 -0.999647 0
M  V30 17457 C 1723.75 2.72577 -2.0473 0
M  V30 17458 H 1724.94 1.08056 -2.79757 0
M  V30 17459 H 1722.5 0.528008 -1.47111 0
M  V30 17460 H 1723.23 3.03943 -1.13088 0
M  V30 17461 H 1723.02 2.67442 -2.86736 0
M  V30 17462 H 1724.51 3.48573 -2.29971 0
M  V30 17463 N 1724.94 1.47523 0.554506 0
M  V30 17464 C 1726.19 1.54515 1.3135 0
M  V30 17465 C 1726.52 0.207892 1.93084 0
M  V30 17466 O 1725.8 -0.783749 1.7801 0
M  V30 17467 C 1726.08 2.66519 2.42156 0
M  V30 17468 C 1725.93 4.0987 1.85274 0
M  V30 17469 C 1727.25 2.74418 3.44068 0
M  V30 17470 H 1724.37 0.562481 0.476219 0
M  V30 17471 H 1727.01 1.79591 0.620246 0
M  V30 17472 H 1725.16 2.45268 3.0129 0
M  V30 17473 H 1726.83 4.42492 1.3038 0
M  V30 17474 H 1725.08 4.18021 1.15934 0
M  V30 17475 H 1725.75 4.84017 2.65389 0
M  V30 17476 H 1728.22 2.93596 2.94857 0
M  V30 17477 H 1727.1 3.54557 4.19023 0
M  V30 17478 H 1727.36 1.81584 4.03088 0
M  V30 17479 N 1726.42 -0.801453 1.357 0
M  V30 17480 C 1727.67 -1.55392 1.28594 0
M  V30 17481 C 1727.98 -1.95125 -0.136199 0
M  V30 17482 O 1729.19 -2.69492 -0.329568 0
M  V30 17483 C 1727.64 -2.80456 2.2555 0
M  V30 17484 C 1727.25 -2.47939 3.73135 0
M  V30 17485 C 1729 -3.58457 2.27396 0
M  V30 17486 C 1726.9 -3.69326 4.61901 0
M  V30 17487 H 1725.83 -0.583286 0.477801 0
M  V30 17488 H 1728.48 -0.880525 1.60994 0
M  V30 17489 H 1726.87 -3.49532 1.86127 0
M  V30 17490 H 1728.04 -1.86837 4.21223 0
M  V30 17491 H 1726.36 -1.83173 3.73947 0
M  V30 17492 H 1728.95 -4.48625 2.90929 0
M  V30 17493 H 1729.3 -3.96162 1.27912 0
M  V30 17494 H 1729.83 -2.96348 2.65373 0
M  V30 17495 H 1726.57 -3.36726 5.62402 0
M  V30 17496 H 1726.09 -4.29636 4.18536 0
M  V30 17497 H 1727.77 -4.36496 4.77578 0
M  V30 17498 N 1727.9 -1.19782 -1.02421 0
M  V30 17499 C 1728.86 -0.941631 -2.08964 0
M  V30 17500 C 1729.86 0.0797747 -1.60602 0
M  V30 17501 O 1731.05 -0.155473 -1.73505 0
M  V30 17502 C 1728.18 -0.416114 -3.38351 0
M  V30 17503 H 1729.38 -1.88661 -2.33125 0
M  V30 17504 H 1726.93 -1.01212 -1.19104 0
M  V30 17505 H 1727.66 0.53469 -3.19862 0
M  V30 17506 H 1727.45 -1.15262 -3.74776 0
M  V30 17507 H 1728.94 -0.256114 -4.16814 0
M  V30 17508 N 1729.38 1.21606 -1.00248 0
M  V30 17509 C 1730.61 1.94609 -0.702502 0
M  V30 17510 C 1731.02 1.73928 0.734483 0
M  V30 17511 O 1730.38 1.04432 1.49667 0
M  V30 17512 C 1730.43 3.47077 -1.01092 0
M  V30 17513 O 1730.15 3.67071 -2.39145 0
M  V30 17514 C 1731.65 4.37248 -0.729988 0
M  V30 17515 H 1728.87 0.618962 -0.259088 0
M  V30 17516 H 1731.41 1.54494 -1.33985 0
M  V30 17517 H 1729.57 3.85125 -0.419215 0
M  V30 17518 H 1729.98 4.61188 -2.49811 0
M  V30 17519 H 1731.46 5.4294 -0.99598 0
M  V30 17520 H 1731.93 4.37913 0.33599 0
M  V30 17521 H 1732.54 4.04842 -1.30318 0
M  V30 17522 N 1730.86 0.776895 1.37121 0
M  V30 17523 C 1731.79 0.180738 2.32799 0
M  V30 17524 C 1732.77 -0.677284 1.56035 0
M  V30 17525 O 1733.95 -0.613687 1.84249 0
M  V30 17526 C 1731.08 -0.695148 3.40272 0
M  V30 17527 C 1730.04 0.0619772 4.27955 0
M  V30 17528 C 1729.36 -0.933688 5.26485 0
M  V30 17529 C 1730.66 1.24396 5.0727 0
M  V30 17530 H 1732.36 0.980039 2.82906 0
M  V30 17531 H 1729.9 0.472722 1.3602 0
M  V30 17532 H 1731.85 -1.12205 4.06187 0
M  V30 17533 H 1730.58 -1.52702 2.88703 0
M  V30 17534 H 1729.24 0.469717 3.63578 0
M  V30 17535 H 1728.89 -1.76025 4.71194 0
M  V30 17536 H 1728.59 -0.431608 5.86013 0
M  V30 17537 H 1730.11 -1.35942 5.95275 0
M  V30 17538 H 1731.52 0.89345 5.66295 0
M  V30 17539 H 1729.92 1.67848 5.76149 0
M  V30 17540 H 1730.99 2.04553 4.39643 0
M  V30 17541 N 1732.33 -1.48497 0.527859 0
M  V30 17542 C 1733.24 -2.3337 -0.239957 0
M  V30 17543 C 1734.26 -1.46353 -0.941101 0
M  V30 17544 O 1735.44 -1.79337 -0.916532 0
M  V30 17545 C 1732.5 -3.22421 -1.27458 0
M  V30 17546 C 1731.56 -4.25309 -0.584017 0
M  V30 17547 C 1730.79 -5.10105 -1.56935 0
M  V30 17548 O 1731.02 -4.96846 -2.80178 0
M  V30 17549 O 1729.95 -5.91578 -1.10991 0
M  V30 17550 H 1733.78 -3.00265 0.455458 0
M  V30 17551 H 1731.36 -1.46582 0.288809 0
M  V30 17552 H 1733.24 -3.7751 -1.87254 0
M  V30 17553 H 1731.92 -2.58189 -1.95244 0
M  V30 17554 H 1730.83 -3.7406 0.0543828 0
M  V30 17555 H 1732.16 -4.92173 0.0518646 0
M  V30 17556 N 1733.81 -0.262893 -1.55392 0
M  V30 17557 C 1734.72 0.640223 -2.25695 0
M  V30 17558 C 1735.74 1.18019 -1.27857 0
M  V30 17559 O 1736.91 1.21308 -1.60768 0
M  V30 17560 C 1733.98 1.81336 -2.95497 0
M  V30 17561 C 1733.04 1.31128 -4.08784 0
M  V30 17562 C 1732.27 2.4285 -4.75247 0
M  V30 17563 O 1732.5 3.61939 -4.40859 0
M  V30 17564 O 1731.43 2.11699 -5.63442 0
M  V30 17565 H 1735.26 0.0710781 -3.03617 0
M  V30 17566 H 1732.84 -0.030765 -1.49368 0
M  V30 17567 H 1734.72 2.49764 -3.39406 0
M  V30 17568 H 1733.4 2.36982 -2.20502 0
M  V30 17569 H 1732.3 0.593816 -3.69357 0
M  V30 17570 H 1733.64 0.800711 -4.85643 0
M  V30 17571 N 1735.29 1.57597 0.0100073 0
M  V30 17572 C 1736.71 1.55348 0.365949 0
M  V30 17573 C 1736.91 0.991487 1.75419 0
M  V30 17574 O 1735.96 0.620894 2.44747 0
M  V30 17575 C 1737.27 2.99656 0.250343 0
M  V30 17576 C 1738.82 3.11297 0.326023 0
M  V30 17577 C 1739.3 4.57373 0.239653 0
M  V30 17578 N 1740.79 4.62241 0.297863 0
M  V30 17579 C 1741.52 5.72836 0.254219 0
M  V30 17580 N 1741.02 6.92611 0.161753 0
M  V30 17581 N 1742.81 5.6127 0.30535 0
M  V30 17582 H 1734.96 1.92471 -0.898253 0
M  V30 17583 H 1737.23 0.883623 -0.343386 0
M  V30 17584 H 1736.93 3.44574 -0.704407 0
M  V30 17585 H 1736.81 3.62682 1.03643 0
M  V30 17586 H 1739.19 2.66316 1.27121 0
M  V30 17587 H 1739.27 2.51068 -0.489756 0
M  V30 17588 H 1738.92 5.03026 -0.70195 0
M  V30 17589 H 1738.85 5.15536 1.07379 0
M  V30 17590 H 1741.34 3.76074 0.371065 0
M  V30 17591 H 1741.65 7.72684 0.134073 0
M  V30 17592 H 1740 6.94883 0.127524 0
M  V30 17593 H 1743.19 4.6659 0.375713 0
M  V30 17594 H 1743.36 6.47446 0.267871 0
M  V30 17595 N 1736.77 -0.282606 1.55045 0
M  V30 17596 C 1738.01 -1.01547 1.75198 0
M  V30 17597 C 1738.34 -1.86627 0.54779 0
M  V30 17598 O 1737.6 -1.89974 -0.46993 0
M  V30 17599 C 1737.9 -1.93554 3.00452 0
M  V30 17600 C 1737.56 -1.24303 4.33428 0
M  V30 17601 C 1736.22 -1.0515 4.69571 0
M  V30 17602 C 1738.58 -0.749451 5.15784 0
M  V30 17603 C 1735.9 -0.353528 5.85634 0
M  V30 17604 C 1738.26 -0.0651157 6.32566 0
M  V30 17605 C 1736.92 0.138206 6.67357 0
M  V30 17606 H 1736.19 -0.371587 0.641096 0
M  V30 17607 H 1738.84 -0.288623 1.89312 0
M  V30 17608 H 1737.14 -2.72828 2.81197 0
M  V30 17609 H 1738.84 -2.50363 3.1324 0
M  V30 17610 H 1735.43 -1.4022 4.05014 0
M  V30 17611 H 1739.61 -0.885074 4.88344 0
M  V30 17612 H 1734.87 -0.185186 6.11119 0
M  V30 17613 H 1739.04 0.325146 6.95641 0
M  V30 17614 H 1736.67 0.681034 7.57143 0
M  V30 17615 N 1738.25 -1.47815 -0.546675 0
M  V30 17616 C 1739.21 -1.6063 -1.63495 0
M  V30 17617 C 1740.21 -0.480661 -1.53448 0
M  V30 17618 O 1741.4 -0.746017 -1.57417 0
M  V30 17619 C 1738.53 -1.56076 -3.03073 0
M  V30 17620 H 1739.72 -2.57652 -1.53478 0
M  V30 17621 H 1737.28 -1.36162 -0.767433 0
M  V30 17622 H 1738.01 -0.604694 -3.18613 0
M  V30 17623 H 1737.8 -2.3778 -3.11774 0
M  V30 17624 H 1739.29 -1.68204 -3.82227 0
M  V30 17625 N 1739.72 0.794246 -1.36123 0
M  V30 17626 C 1740.97 1.54708 -1.29416 0
M  V30 17627 C 1741.29 1.95195 0.125849 0
M  V30 17628 O 1742.49 2.69663 0.315271 0
M  V30 17629 C 1740.95 2.79256 -2.27034 0
M  V30 17630 C 1740.56 2.45957 -3.74445 0
M  V30 17631 C 1742.3 3.57246 -2.29294 0
M  V30 17632 C 1740.21 3.66871 -4.63853 0
M  V30 17633 H 1739.14 0.580743 -0.480888 0
M  V30 17634 H 1741.79 0.871975 -1.61458 0
M  V30 17635 H 1740.17 3.4854 -1.87979 0
M  V30 17636 H 1741.34 1.846 -4.22208 0
M  V30 17637 H 1739.66 1.81187 -3.74913 0
M  V30 17638 H 1742.26 4.47076 -2.93304 0
M  V30 17639 H 1742.6 3.95478 -1.30011 0
M  V30 17640 H 1743.13 2.94936 -2.66941 0
M  V30 17641 H 1739.87 3.33739 -5.6418 0
M  V30 17642 H 1739.39 4.27411 -4.20809 0
M  V30 17643 H 1741.07 4.33957 -4.79886 0
M  V30 17644 N 1741.2 1.20323 1.01785 0
M  V30 17645 C 1742.13 0.974819 2.12178 0
M  V30 17646 C 1743.11 -0.0957637 1.6983 0
M  V30 17647 O 1744.3 0.0614963 1.94103 0
M  V30 17648 C 1741.43 0.524739 3.43313 0
M  V30 17649 C 1740.38 1.53842 3.99395 0
M  V30 17650 C 1739.71 0.945021 5.26283 0
M  V30 17651 C 1741.01 2.92179 4.3293 0
M  V30 17652 H 1742.7 1.8981 2.31544 0
M  V30 17653 H 1740.25 0.914025 1.11273 0
M  V30 17654 H 1742.2 0.352182 4.19926 0
M  V30 17655 H 1740.92 -0.434161 3.23701 0
M  V30 17656 H 1739.58 1.69832 3.24889 0
M  V30 17657 H 1739.23 -0.0217709 5.02995 0
M  V30 17658 H 1738.93 1.62201 5.64769 0
M  V30 17659 H 1740.46 0.783504 6.05552 0
M  V30 17660 H 1741.87 2.79708 5.00436 0
M  V30 17661 H 1740.27 3.56773 4.82528 0
M  V30 17662 H 1741.34 3.43997 3.41752 0
M  V30 17663 N 1742.68 -1.21073 1.00892 0
M  V30 17664 C 1743.93 -1.89866 0.69248 0
M  V30 17665 C 1744.25 -1.7874 -0.779562 0
M  V30 17666 O 1743.52 -1.18482 -1.56009 0
M  V30 17667 H 1742.1 -0.702799 0.253145 0
M  V30 17668 H 1744.76 -1.47075 1.27887 0
M  V30 17669 H 1743.86 -2.96673 0.969098 0
M  V30 17670 N 1744.16 -0.784156 -1.36707 0
M  V30 17671 C 1745.57 -0.465219 -1.52669 0
M  V30 17672 C 1745.77 1.01729 -1.73935 0
M  V30 17673 O 1744.83 1.80289 -1.76783 0
M  V30 17674 C 1746.14 -1.29109 -2.71572 0
M  V30 17675 C 1747.69 -1.28424 -2.8544 0
M  V30 17676 C 1748.17 -2.09373 -4.07341 0
M  V30 17677 N 1749.66 -2.06792 -4.14477 0
M  V30 17678 C 1750.39 -2.66199 -5.07864 0
M  V30 17679 N 1749.89 -3.34445 -6.06728 0
M  V30 17680 N 1751.68 -2.55962 -5.0044 0
M  V30 17681 H 1743.83 -1.74456 -1.21156 0
M  V30 17682 H 1746.1 -0.741286 -0.59093 0
M  V30 17683 H 1745.8 -2.34219 -2.62363 0
M  V30 17684 H 1745.68 -0.928764 -3.65587 0
M  V30 17685 H 1748.06 -0.241077 -2.94114 0
M  V30 17686 H 1748.14 -1.68629 -1.92348 0
M  V30 17687 H 1747.79 -3.13718 -3.99429 0
M  V30 17688 H 1747.72 -1.66542 -4.99571 0
M  V30 17689 H 1750.21 -1.57118 -3.43689 0
M  V30 17690 H 1750.52 -3.77118 -6.74538 0
M  V30 17691 H 1748.87 -3.38546 -6.06969 0
M  V30 17692 H 1752.06 -2.02251 -4.22152 0
M  V30 17693 H 1752.23 -3.02553 -5.73032 0
M  V30 17694 N 1745.64 1.48215 -0.535727 0
M  V30 17695 C 1746.86 2.06898 -0.0079465 0
M  V30 17696 C 1747.28 1.39148 1.27606 0
M  V30 17697 O 1746.64 0.480867 1.76051 0
M  V30 17698 C 1746.69 3.60868 0.213736 0
M  V30 17699 O 1746.41 4.26075 -1.01941 0
M  V30 17700 C 1747.91 4.36362 0.781245 0
M  V30 17701 H 1745.13 0.670028 -0.0361097 0
M  V30 17702 H 1747.67 1.90524 -0.743012 0
M  V30 17703 H 1745.83 3.76828 0.898866 0
M  V30 17704 H 1746.24 5.18306 -0.803716 0
M  V30 17705 H 1747.72 5.44847 0.885753 0
M  V30 17706 H 1748.19 4.01179 1.78751 0
M  V30 17707 H 1748.8 4.25094 0.132499 0
M  V30 17708 N 1747.11 0.27113 1.5525 0
M  V30 17709 C 1748.36 -0.346106 1.99114 0
M  V30 17710 C 1748.68 -1.56677 1.16092 0
M  V30 17711 O 1747.95 -1.94305 0.249472 0
M  V30 17712 H 1746.53 -0.13087 0.735447 0
M  V30 17713 H 1749.2 0.375542 1.91248 0
M  V30 17714 H 1748.29 -0.638703 3.05495 0
M  V30 17715 N 1748.59 -1.576 -0.00164943 0
M  V30 17716 C 1749.82 -1.95176 -0.701511 0
M  V30 17717 C 1750.24 -0.873191 -1.66604 0
M  V30 17718 O 1749.6 0.168818 -1.80512 0
M  V30 17719 C 1749.65 -3.31847 -1.41104 0
M  V30 17720 O 1748.75 -3.26034 -2.52539 0
M  V30 17721 H 1748.09 -0.637207 -0.186718 0
M  V30 17722 H 1750.62 -2.04536 0.0510494 0
M  V30 17723 H 1750.63 -3.67374 -1.77483 0
M  V30 17724 H 1749.31 -4.09901 -0.70382 0
M  V30 17725 H 1747.89 -3.0218 -2.18499 0
M  V30 17726 N 1750.07 0.274379 -1.55193 0
M  V30 17727 C 1751.03 1.32237 -1.87206 0
M  V30 17728 C 1752.03 1.4242 -0.74654 0
M  V30 17729 O 1753.22 1.41595 -1.01472 0
M  V30 17730 C 1750.36 2.7039 -2.0761 0
M  V30 17731 H 1751.55 1.05083 -2.80887 0
M  V30 17732 H 1749.1 0.512375 -1.47663 0
M  V30 17733 H 1749.84 3.02727 -1.16306 0
M  V30 17734 H 1749.62 2.64385 -2.89556 0
M  V30 17735 H 1751.11 3.46114 -2.33655 0
M  V30 17736 N 1751.55 1.48103 0.538828 0
M  V30 17737 C 1752.46 1.64632 1.67133 0
M  V30 17738 C 1753.47 0.528917 1.65766 0
M  V30 17739 O 1754.65 0.798849 1.84879 0
M  V30 17740 C 1751.72 1.67391 3.03614 0
M  V30 17741 C 1750.78 2.90694 3.15904 0
M  V30 17742 C 1750.01 2.93311 4.45875 0
M  V30 17743 O 1750.23 2.04596 5.32444 0
M  V30 17744 O 1749.17 3.85384 4.62345 0
M  V30 17745 H 1752.99 2.60496 1.56126 0
M  V30 17746 H 1750.58 1.31401 0.710925 0
M  V30 17747 H 1752.46 1.71777 3.84799 0
M  V30 17748 H 1751.13 0.746982 3.14963 0
M  V30 17749 H 1750.04 2.91844 2.34047 0
M  V30 17750 H 1751.37 3.82742 3.09467 0
M  V30 17751 N 1753.03 -0.787016 1.36542 0
M  V30 17752 C 1753.96 -1.91399 1.33749 0
M  V30 17753 C 1754.94 -1.68817 0.208559 0
M  V30 17754 O 1756.12 -1.89896 0.406574 0
M  V30 17755 C 1753.25 -3.28457 1.12842 0
M  V30 17756 C 1752.21 -3.65568 2.22585 0
M  V30 17757 C 1751.53 -5.01002 1.86818 0
M  V30 17758 C 1752.83 -3.73902 3.64684 0
M  V30 17759 H 1754.53 -1.93993 2.2805 0
M  V30 17760 H 1752.07 -0.931937 1.09777 0
M  V30 17761 H 1754.03 -4.06919 1.09522 0
M  V30 17762 H 1752.75 -3.26256 0.149918 0
M  V30 17763 H 1751.41 -2.89405 2.25035 0
M  V30 17764 H 1751.06 -4.95325 0.875361 0
M  V30 17765 H 1750.76 -5.26802 2.60294 0
M  V30 17766 H 1752.28 -5.81881 1.85058 0
M  V30 17767 H 1753.69 -4.4255 3.64448 0
M  V30 17768 H 1752.09 -4.11188 4.37086 0
M  V30 17769 H 1753.16 -2.74946 3.99416 0
M  V30 17770 N 1754.5 -1.20861 -1.01145 0
M  V30 17771 C 1755.47 -0.963742 -2.07954 0
M  V30 17772 C 1756.47 0.0627362 -1.60678 0
M  V30 17773 O 1757.66 -0.173867 -1.7333 0
M  V30 17774 C 1754.79 -0.451977 -3.3789 0
M  V30 17775 H 1755.98 -1.91123 -2.3111 0
M  V30 17776 H 1753.54 -1.0247 -1.18024 0
M  V30 17777 H 1754.27 0.500735 -3.20411 0
M  V30 17778 H 1754.06 -1.19231 -3.73532 0
M  V30 17779 H 1755.55 -0.300308 -4.16519 0
M  V30 17780 N 1755.98 1.20536 -1.01532 0
M  V30 17781 C 1757.26 1.85545 -0.619063 0
M  V30 17782 C 1757.64 1.90816 0.902916 0
M  V30 17783 O 1756.99 1.41506 1.79411 0
M  V30 17784 C 1757.2 3.25252 -1.26539 0
M  V30 17785 C 1758.55 4.01547 -1.38003 0
M  V30 17786 O 1759.57 3.34601 -1.22151 0
M  V30 17787 O 1758.43 5.21436 -1.63605 0
M  V30 17788 H 1755.52 0.798985 -0.21343 0
M  V30 17789 H 1758.07 1.28136 -1.11262 0
M  V30 17790 H 1756.84 3.16174 -2.30542 0
M  V30 17791 H 1756.46 3.90292 -0.758833 0
M  V30 17792 N 1757.46 0.791395 1.36289 0
M  V30 17793 C 1758.87 0.427611 1.81737 0
M  V30 17794 C 1759.22 -1.04868 1.65822 0
M  V30 17795 O 1758.35 -1.81379 1.18028 0
M  V30 17796 C 1758.94 0.769378 3.29949 0
M  V30 17797 C 1757.5 0.458397 3.73598 0
M  V30 17798 C 1756.65 1.00299 2.58526 0
M  V30 17799 H 1759.6 0.98437 1.24482 0
M  V30 17800 H 1759.62 0.061211 3.80451 0
M  V30 17801 H 1759.13 1.8439 3.415 0
M  V30 17802 H 1757.23 -0.608006 3.67606 0
M  V30 17803 H 1757.35 0.980392 4.68962 0
M  V30 17804 H 1755.71 0.426106 2.5111 0
M  V30 17805 H 1756.49 2.08331 2.72861 0
M  V30 17806 N 1758.94 -1.47929 0.54358 0
M  V30 17807 C 1759.9 -2.28316 -0.201107 0
M  V30 17808 C 1760.9 -1.36165 -0.855313 0
M  V30 17809 O 1762.09 -1.58928 -0.71327 0
M  V30 17810 C 1759.22 -3.1545 -1.29245 0
M  V30 17811 H 1760.42 -2.9562 0.504848 0
M  V30 17812 H 1757.97 -1.53394 0.300011 0
M  V30 17813 H 1758.71 -2.52807 -2.03124 0
M  V30 17814 H 1758.49 -3.83251 -0.82832 0
M  V30 17815 H 1759.98 -3.76053 -1.81587 0
M  V30 17816 N 1760.42 -0.27936 -1.55104 0
M  V30 17817 C 1761.83 0.074665 -1.59425 0
M  V30 17818 C 1762.03 1.54246 -1.29655 0
M  V30 17819 O 1761.09 2.29197 -1.05947 0
M  V30 17820 C 1762.4 -0.30379 -2.99162 0
M  V30 17821 C 1763.95 -0.250758 -3.11994 0
M  V30 17822 C 1764.43 -0.603715 -4.54004 0
M  V30 17823 N 1765.92 -0.555428 -4.59858 0
M  V30 17824 C 1766.65 -0.801278 -5.67774 0
M  V30 17825 N 1766.15 -1.11197 -6.83818 0
M  V30 17826 N 1767.94 -0.72979 -5.57342 0
M  V30 17827 H 1760.09 -1.23619 -1.7272 0
M  V30 17828 H 1762.35 -0.499704 -0.805606 0
M  V30 17829 H 1762.06 -1.32475 -3.25796 0
M  V30 17830 H 1761.93 0.353294 -3.75542 0
M  V30 17831 H 1764.32 0.760925 -2.85121 0
M  V30 17832 H 1764.4 -0.94216 -2.37817 0
M  V30 17833 H 1764.05 -1.6131 -4.81603 0
M  V30 17834 H 1763.98 0.109523 -5.26486 0
M  V30 17835 H 1766.47 -0.325348 -3.76497 0
M  V30 17836 H 1766.78 -1.28611 -7.62023 0
M  V30 17837 H 1765.13 -1.14978 -6.85423 0
M  V30 17838 H 1768.32 -0.48688 -4.65561 0
M  V30 17839 H 1768.49 -0.92477 -6.41367 0
M  V30 17840 N 1761.9 1.57599 -0.0067085 0
M  V30 17841 C 1762.86 2.07783 0.967417 0
M  V30 17842 C 1763.86 0.988498 1.26828 0
M  V30 17843 O 1765.05 1.25091 1.21235 0
M  V30 17844 C 1762.18 2.52491 2.29044 0
M  V30 17845 H 1763.37 2.95122 0.533201 0
M  V30 17846 H 1760.93 1.54432 0.2409 0
M  V30 17847 H 1761.66 1.68415 2.77141 0
M  V30 17848 H 1761.45 3.32054 2.08525 0
M  V30 17849 H 1762.94 2.9162 2.98911 0
M  V30 17850 N 1763.37 -0.266145 1.55336 0
M  V30 17851 C 1764.62 -0.994862 1.75917 0
M  V30 17852 C 1764.94 -1.8657 0.567147 0
M  V30 17853 O 1764.21 -1.91394 -0.417738 0
M  V30 17854 H 1762.79 -0.370318 0.648748 0
M  V30 17855 H 1765.45 -0.288724 1.9275 0
M  V30 17856 H 1764.55 -1.62781 2.66287 0
M  V30 17857 N 1764.85 -1.48386 -0.530967 0
M  V30 17858 C 1766.1 -1.56045 -1.28431 0
M  V30 17859 C 1766.42 -0.235695 -1.9357 0
M  V30 17860 O 1765.69 0.742677 -1.81276 0
M  V30 17861 H 1764.27 -0.574868 -0.477007 0
M  V30 17862 H 1766.93 -1.84844 -0.617955 0
M  V30 17863 H 1766.03 -2.34096 -2.0641 0
M  V30 17864 N 1766.33 0.779763 -1.36958 0
M  V30 17865 C 1767.29 1.87439 -1.31906 0
M  V30 17866 C 1768.29 1.59222 -0.224739 0
M  V30 17867 O 1769.48 1.67453 -0.480109 0
M  V30 17868 C 1766.61 3.24419 -1.04716 0
M  V30 17869 H 1767.81 1.93333 -2.29265 0
M  V30 17870 H 1765.36 0.978634 -1.21871 0
M  V30 17871 H 1766.1 3.24205 -0.0785442 0
M  V30 17872 H 1765.88 3.4629 -1.83917 0
M  V30 17873 H 1767.37 4.04491 -1.0381 0
M  V30 17874 N 1767.81 1.21396 1.00503 0
M  V30 17875 C 1769.05 1.0327 1.74537 0
M  V30 17876 C 1769.39 -0.432746 1.89317 0
M  V30 17877 O 1768.66 -1.32111 1.42747 0
M  V30 17878 C 1768.94 1.73045 3.15797 0
M  V30 17879 C 1768.8 3.27108 3.0874 0
M  V30 17880 C 1770.12 1.47298 4.14718 0
M  V30 17881 H 1767.24 0.376563 0.633537 0
M  V30 17882 H 1769.88 1.49571 1.17169 0
M  V30 17883 H 1768.03 1.33682 3.64776 0
M  V30 17884 H 1769.7 3.75839 2.67475 0
M  V30 17885 H 1767.94 3.57413 2.45843 0
M  V30 17886 H 1768.61 3.71096 4.08646 0
M  V30 17887 H 1771.09 1.81468 3.74444 0
M  V30 17888 H 1769.97 1.98633 5.11699 0
M  V30 17889 H 1770.23 0.402981 4.4026 0
M  V30 17890 N 1769.29 -1.19996 1.0217 0
M  V30 17891 C 1770.51 -1.94007 0.733207 0
M  V30 17892 C 1770.94 -1.74565 -0.70061 0
M  V30 17893 O 1770.29 -1.04326 -1.48276 0
M  V30 17894 C 1770.34 -3.44029 1.08057 0
M  V30 17895 O 1769.45 -4.11938 0.195135 0
M  V30 17896 H 1768.79 -0.605929 0.271562 0
M  V30 17897 H 1771.32 -1.5228 1.36645 0
M  V30 17898 H 1771.33 -3.94669 1.03443 0
M  V30 17899 H 1770 -3.57502 2.1252 0
M  V30 17900 H 1768.58 -3.71697 0.299246 0
M  V30 17901 N 1770.76 -0.798611 -1.35867 0
M  V30 17902 C 1771.73 -0.209177 -2.28243 0
M  V30 17903 C 1772.73 0.598842 -1.49233 0
M  V30 17904 O 1773.92 0.418491 -1.69098 0
M  V30 17905 C 1771.05 0.709336 -3.33438 0
M  V30 17906 H 1772.24 -1.02382 -2.81883 0
M  V30 17907 H 1769.79 -0.568687 -1.45587 0
M  V30 17908 H 1770.53 1.54797 -2.84971 0
M  V30 17909 H 1770.31 0.131756 -3.91879 0
M  V30 17910 H 1771.8 1.11632 -4.02403 0
M  V30 17911 N 1772.24 1.47639 -0.551417 0
M  V30 17912 C 1773.19 2.31626 0.212654 0
M  V30 17913 C 1774.18 1.42567 0.914925 0
M  V30 17914 O 1775.39 1.59363 0.836869 0
M  V30 17915 H 1771.76 0.746898 0.0874493 0
M  V30 17916 H 1773.74 2.93923 -0.514976 0
M  V30 17917 C 1772.48 3.25098 1.23316 0
M  V30 17918 H 1771.81 3.93585 0.702196 0
M  V30 17919 H 1773.25 3.86707 1.73878 0
M  V30 17920 C 1771.71 2.48209 2.27802 0
M  V30 17921 O 1772.24 2.22235 3.34626 0
M  V30 17922 N 1770.44 2.09321 2.01577 0
M  V30 17923 H 1769.99 2.30645 1.14719 0
M  V30 17924 H 1769.95 1.58191 2.71704 0
M  V30 17925 N 1773.72 0.287581 1.54954 0
M  V30 17926 C 1774.68 -0.581465 2.21702 0
M  V30 17927 C 1775.68 -1.07172 1.19878 0
M  V30 17928 O 1776.87 -0.969899 1.44702 0
M  V30 17929 C 1774.01 -1.80358 2.89282 0
M  V30 17930 H 1775.2 0.00151035 2.999 0
M  V30 17931 H 1772.75 0.0382953 1.56253 0
M  V30 17932 H 1773.49 -2.42674 2.15128 0
M  V30 17933 H 1773.27 -1.45983 3.63911 0
M  V30 17934 H 1774.76 -2.42129 3.4024 0
M  V30 17935 N 1775.2 -1.57593 0.0150662 0
M  V30 17936 C 1776.43 -1.95504 -0.677174 0
M  V30 17937 C 1776.84 -0.8908 -1.66464 0
M  V30 17938 O 1776.2 0.128818 -1.82045 0
M  V30 17939 C 1776.25 -3.33463 -1.39589 0
M  V30 17940 O 1775.97 -4.35803 -0.448005 0
M  V30 17941 C 1777.47 -3.85923 -2.18125 0
M  V30 17942 H 1774.69 -0.644226 -0.187652 0
M  V30 17943 H 1777.24 -2.04378 0.070661 0
M  V30 17944 H 1775.39 -3.25851 -2.09523 0
M  V30 17945 H 1775.8 -5.157 -0.956756 0
M  V30 17946 H 1777.28 -4.84838 -2.63887 0
M  V30 17947 H 1777.76 -3.19423 -3.01439 0
M  V30 17948 H 1778.36 -3.96758 -1.53176 0
M  V30 17949 N 1776.68 0.257904 -1.55475 0
M  V30 17950 C 1777.95 1.00965 -1.67528 0
M  V30 17951 C 1778.33 2.03763 -0.551694 0
M  V30 17952 O 1777.68 2.24099 0.446314 0
M  V30 17953 C 1777.89 1.65289 -3.07377 0
M  V30 17954 C 1779.24 2.15888 -3.65619 0
M  V30 17955 O 1780.26 1.7525 -3.10106 0
M  V30 17956 O 1779.12 2.90471 -4.62913 0
M  V30 17957 H 1776.22 0.469266 -0.680969 0
M  V30 17958 H 1778.76 0.252562 -1.6781 0
M  V30 17959 H 1777.53 0.908769 -3.80601 0
M  V30 17960 H 1777.16 2.47646 -3.11058 0
M  V30 17961 N 1778.15 1.48666 0.52309 0
M  V30 17962 C 1779.38 1.60707 1.30311 0
M  V30 17963 C 1779.8 0.269941 1.8686 0
M  V30 17964 O 1779.15 -0.741714 1.66748 0
M  V30 17965 C 1779.21 2.65899 2.44908 0
M  V30 17966 O 1778.93 3.94423 1.90688 0
M  V30 17967 C 1780.43 2.88443 3.36624 0
M  V30 17968 H 1777.65 0.541661 0.396035 0
M  V30 17969 H 1780.19 1.94544 0.630322 0
M  V30 17970 H 1778.35 2.34902 3.08058 0
M  V30 17971 H 1778.76 4.5219 2.65753 0
M  V30 17972 H 1780.23 3.65831 4.13366 0
M  V30 17973 H 1780.71 1.97524 3.92277 0
M  V30 17974 H 1781.32 3.20771 2.7926 0
M  V30 17975 N 1779.63 -0.772489 1.37369 0
M  V30 17976 C 1781.04 -1.34873 1.29098 0
M  V30 17977 C 1781.39 -1.96103 -0.0617433 0
M  V30 17978 O 1780.52 -1.93764 -0.963562 0
M  V30 17979 C 1781.11 -2.45218 2.33781 0
M  V30 17980 C 1779.67 -2.98612 2.29146 0
M  V30 17981 C 1778.82 -1.71823 2.17651 0
M  V30 17982 H 1781.77 -0.572805 1.48002 0
M  V30 17983 H 1781.79 -3.24679 1.98404 0
M  V30 17984 H 1781.3 -2.00624 3.32222 0
M  V30 17985 H 1779.41 -3.47583 1.34225 0
M  V30 17986 H 1779.52 -3.54276 3.22529 0
M  V30 17987 H 1777.88 -1.94719 1.64185 0
M  V30 17988 H 1778.67 -1.29334 3.18006 0
M  V30 17989 N 1781.11 -1.21927 -0.998575 0
M  V30 17990 C 1782.53 -0.978007 -1.26124 0
M  V30 17991 C 1782.73 0.3318 -1.98749 0
M  V30 17992 O 1781.78 1.05585 -2.29364 0
M  V30 17993 C 1783.1 -2.17291 -2.07858 0
M  V30 17994 C 1784.64 -2.21586 -2.21062 0
M  V30 17995 C 1785.12 -3.40613 -3.06181 0
M  V30 17996 N 1786.61 -3.40739 -3.13769 0
M  V30 17997 C 1787.34 -4.29488 -3.79905 0
M  V30 17998 N 1786.84 -5.28445 -4.48015 0
M  V30 17999 N 1788.63 -4.17279 -3.76609 0
M  V30 18000 H 1780.78 -2.06149 -0.51151 0
M  V30 18001 H 1783.05 -0.903039 -0.288487 0
M  V30 18002 H 1782.75 -3.12246 -1.61851 0
M  V30 18003 H 1782.63 -2.16883 -3.08612 0
M  V30 18004 H 1785.01 -1.27183 -2.66286 0
M  V30 18005 H 1785.1 -2.26035 -1.19757 0
M  V30 18006 H 1784.74 -4.35313 -2.61659 0
M  V30 18007 H 1784.67 -3.33403 -4.07615 0
M  V30 18008 H 1787.16 -2.69128 -2.65289 0
M  V30 18009 H 1787.47 -5.92454 -4.96203 0
M  V30 18010 H 1785.82 -5.32364 -4.46782 0
M  V30 18011 H 1789.01 -3.39226 -3.22557 0
M  V30 18012 H 1789.18 -4.86651 -4.27873 0
M  V30 18013 N 1782.59 1.19452 -1.02805 0
M  V30 18014 C 1784 1.41147 -0.744969 0
M  V30 18015 C 1784.2 1.90008 0.670765 0
M  V30 18016 O 1783.26 2.0763 1.43688 0
M  V30 18017 C 1784.57 2.42328 -1.78039 0
M  V30 18018 C 1786.12 2.56076 -1.79984 0
M  V30 18019 C 1786.6 3.6051 -2.82483 0
M  V30 18020 N 1788.09 3.68005 -2.81294 0
M  V30 18021 C 1788.82 4.48502 -3.57258 0
M  V30 18022 N 1788.32 5.32711 -4.42934 0
M  V30 18023 N 1790.11 4.43144 -3.45803 0
M  V30 18024 H 1782.26 0.860569 -1.94185 0
M  V30 18025 H 1784.53 0.44042 -0.839484 0
M  V30 18026 H 1784.23 2.13448 -2.79523 0
M  V30 18027 H 1784.11 3.41491 -1.60199 0
M  V30 18028 H 1786.49 2.84279 -0.791782 0
M  V30 18029 H 1786.57 1.57069 -2.01898 0
M  V30 18030 H 1786.22 3.33049 -3.83459 0
M  V30 18031 H 1786.15 4.59166 -2.57827 0
M  V30 18032 H 1788.64 3.07863 -2.19154 0
M  V30 18033 H 1788.95 5.9125 -4.97637 0
M  V30 18034 H 1787.3 5.32175 -4.47007 0
M  V30 18035 H 1790.49 3.76399 -2.78283 0
M  V30 18036 H 1790.66 5.0564 -4.05256 0
M  V30 18037 N 1784.07 0.805805 1.35442 0
M  V30 18038 C 1785.48 0.489448 1.5191 0
M  V30 18039 C 1785.68 -0.989485 1.75532 0
M  V30 18040 O 1784.74 -1.77453 1.79629 0
M  V30 18041 C 1786.05 1.33413 2.69484 0
M  V30 18042 C 1787.6 1.32949 2.83361 0
M  V30 18043 C 1788.07 2.15827 4.03959 0
M  V30 18044 N 1789.57 2.13359 4.11135 0
M  V30 18045 C 1790.3 2.74245 5.03564 0
M  V30 18046 N 1789.8 3.44055 6.0133 0
M  V30 18047 N 1791.59 2.63891 4.96304 0
M  V30 18048 H 1783.74 1.76361 1.18366 0
M  V30 18049 H 1786 0.750594 0.579062 0
M  V30 18050 H 1785.71 2.38364 2.58603 0
M  V30 18051 H 1785.58 0.986809 3.64063 0
M  V30 18052 H 1787.97 0.287837 2.93693 0
M  V30 18053 H 1788.05 1.71668 1.89641 0
M  V30 18054 H 1787.7 3.20033 3.94388 0
M  V30 18055 H 1787.63 1.74469 4.96858 0
M  V30 18056 H 1790.12 1.62566 3.41146 0
M  V30 18057 H 1790.43 3.87802 6.68453 0
M  V30 18058 H 1788.77 3.48159 6.01507 0
M  V30 18059 H 1791.97 2.08941 4.18881 0
M  V30 18060 H 1792.14 3.11631 5.68146 0
M  V30 18061 N 1785.54 -1.47344 0.559239 0
M  V30 18062 C 1786.96 -1.58088 0.219155 0
M  V30 18063 C 1787.16 -1.55758 -1.27834 0
M  V30 18064 O 1786.22 -1.46207 -2.05864 0
M  V30 18065 C 1787.53 -2.88507 0.847606 0
M  V30 18066 C 1789.08 -3.02094 0.819022 0
M  V30 18067 C 1789.55 -4.35216 1.42658 0
M  V30 18068 N 1791.04 -4.41857 1.38986 0
M  V30 18069 C 1791.78 -5.43429 1.82956 0
M  V30 18070 N 1791.27 -6.51801 2.34792 0
M  V30 18071 N 1793.07 -5.34486 1.74015 0
M  V30 18072 H 1785.22 -1.47102 1.53215 0
M  V30 18073 H 1787.48 -0.700228 0.63905 0
M  V30 18074 H 1787.19 -2.95954 1.90011 0
M  V30 18075 H 1787.06 -3.75648 0.341841 0
M  V30 18076 H 1789.45 -2.94243 -0.224794 0
M  V30 18077 H 1789.53 -2.1649 1.36257 0
M  V30 18078 H 1789.17 -4.43824 2.46947 0
M  V30 18079 H 1789.1 -5.19556 0.858462 0
M  V30 18080 H 1791.59 -3.64133 1.01071 0
M  V30 18081 H 1791.91 -7.25482 2.66262 0
M  V30 18082 H 1790.25 -6.52685 2.38804 0
M  V30 18083 H 1793.44 -4.48721 1.33294 0
M  V30 18084 H 1793.62 -6.13506 2.086 0
M  V30 18085 N 1787.02 -0.295795 -1.54799 0
M  V30 18086 C 1788.44 0.0577516 -1.59495 0
M  V30 18087 C 1788.64 1.52862 -1.31284 0
M  V30 18088 O 1787.69 2.28061 -1.08372 0
M  V30 18089 C 1789.01 -0.335503 -2.98822 0
M  V30 18090 C 1790.56 -0.283835 -3.1171 0
M  V30 18091 C 1791.03 -0.651835 -4.53338 0
M  V30 18092 N 1792.52 -0.604171 -4.59243 0
M  V30 18093 C 1793.26 -0.861453 -5.66892 0
M  V30 18094 N 1792.75 -1.18443 -6.826 0
M  V30 18095 N 1794.55 -0.788863 -5.56537 0
M  V30 18096 H 1786.7 -1.25444 -1.71399 0
M  V30 18097 H 1788.96 -0.50822 -0.80026 0
M  V30 18098 H 1788.67 -1.35923 -3.24373 0
M  V30 18099 H 1788.54 0.313443 -3.75895 0
M  V30 18100 H 1790.93 0.730641 -2.85912 0
M  V30 18101 H 1791.01 -0.967331 -2.36804 0
M  V30 18102 H 1790.65 -1.66409 -4.79865 0
M  V30 18103 H 1790.58 0.053676 -5.26573 0
M  V30 18104 H 1793.07 -0.365262 -3.76131 0
M  V30 18105 H 1793.39 -1.36686 -7.60616 0
M  V30 18106 H 1791.73 -1.22242 -6.84165 0
M  V30 18107 H 1794.92 -0.536231 -4.65018 0
M  V30 18108 H 1795.09 -0.992744 -6.4035 0
M  V30 18109 N 1788.5 1.57583 -0.0234236 0
M  V30 18110 C 1789.78 1.82844 0.694787 0
M  V30 18111 C 1790.16 0.906142 1.90663 0
M  V30 18112 O 1789.51 -0.039621 2.28466 0
M  V30 18113 C 1789.72 3.31921 1.07839 0
M  V30 18114 C 1791.06 3.98252 1.47243 0
M  V30 18115 O 1792.09 3.36383 1.17154 0
M  V30 18116 O 1790.95 5.07284 2.03285 0
M  V30 18117 H 1788.04 0.753723 0.340339 0
M  V30 18118 H 1790.59 1.69624 -0.0506703 0
M  V30 18119 H 1789.36 3.90705 0.215641 0
M  V30 18120 H 1788.98 3.50227 1.8822 0
M  V30 18121 N 1789.98 -0.249655 1.5561 0
M  V30 18122 C 1791.23 -0.979529 1.77576 0
M  V30 18123 C 1791.56 -1.85078 0.588198 0
M  V30 18124 O 1790.83 -1.90052 -0.4136 0
M  V30 18125 C 1791.12 -1.84238 3.094 0
M  V30 18126 C 1790.97 -0.9995 4.38554 0
M  V30 18127 C 1792.29 -2.82536 3.37433 0
M  V30 18128 H 1789.41 -0.354681 0.646042 0
M  V30 18129 H 1792.05 -0.250224 1.88345 0
M  V30 18130 H 1790.2 -2.46419 3.0035 0
M  V30 18131 H 1791.87 -0.396599 4.59592 0
M  V30 18132 H 1790.11 -0.30376 4.32735 0
M  V30 18133 H 1790.79 -1.63697 5.27169 0
M  V30 18134 H 1793.26 -2.30491 3.46429 0
M  V30 18135 H 1792.14 -3.40033 4.30893 0
M  V30 18136 H 1792.4 -3.58859 2.58211 0
M  V30 18137 N 1791.46 -1.48941 -0.515198 0
M  V30 18138 C 1792.69 -1.61396 -1.29457 0
M  V30 18139 C 1793.1 -0.279847 -1.86714 0
M  V30 18140 O 1792.46 0.732861 -1.67139 0
M  V30 18141 C 1792.51 -2.67194 -2.43494 0
M  V30 18142 O 1792.23 -3.95429 -1.88593 0
M  V30 18143 C 1793.73 -2.90224 -3.35089 0
M  V30 18144 H 1790.95 -0.543754 -0.393157 0
M  V30 18145 H 1793.49 -1.94875 -0.619996 0
M  V30 18146 H 1791.65 -2.36532 -3.06808 0
M  V30 18147 H 1792.06 -4.53593 -2.63351 0
M  V30 18148 H 1793.54 -3.68018 -4.1142 0
M  V30 18149 H 1794.01 -1.99601 -3.91224 0
M  V30 18150 H 1794.62 -3.22247 -2.77555 0
M  V30 18151 N 1792.94 0.765193 -1.37777 0
M  V30 18152 C 1794.18 1.51928 -1.32668 0
M  V30 18153 C 1794.5 1.95418 0.0844172 0
M  V30 18154 O 1795.7 2.70271 0.258001 0
M  V30 18155 C 1794.16 2.74377 -2.32906 0
M  V30 18156 C 1793.77 2.37959 -3.79578 0
M  V30 18157 C 1795.51 3.52302 -2.3682 0
M  V30 18158 C 1793.42 3.5695 -4.7153 0
M  V30 18159 H 1792.35 0.570412 -0.493098 0
M  V30 18160 H 1795 0.837531 -1.63272 0
M  V30 18161 H 1793.38 3.44474 -1.95329 0
M  V30 18162 H 1794.56 1.75603 -4.26028 0
M  V30 18163 H 1792.87 1.73194 -3.78672 0
M  V30 18164 H 1795.47 4.40754 -3.02721 0
M  V30 18165 H 1795.81 3.92631 -1.38371 0
M  V30 18166 H 1796.34 2.89207 -2.73137 0
M  V30 18167 H 1793.08 3.21697 -5.71132 0
M  V30 18168 H 1792.6 4.18388 -4.2978 0
M  V30 18169 H 1794.28 4.2368 -4.88983 0
M  V30 18170 N 1794.41 1.22455 0.992094 0
M  V30 18171 C 1795.64 1.07594 1.76723 0
M  V30 18172 C 1796.06 -0.37345 1.8507 0
M  V30 18173 O 1795.41 -1.25876 1.32142 0
M  V30 18174 C 1795.46 1.68178 3.19998 0
M  V30 18175 O 1795.19 3.07447 3.12102 0
M  V30 18176 C 1796.69 1.58602 4.13957 0
M  V30 18177 H 1793.91 0.377148 0.554978 0
M  V30 18178 H 1796.45 1.62065 1.24721 0
M  V30 18179 H 1794.61 1.17768 3.69066 0
M  V30 18180 H 1795.02 3.36641 4.0221 0
M  V30 18181 H 1796.49 2.05714 5.12236 0
M  V30 18182 H 1796.97 0.542712 4.35834 0
M  V30 18183 H 1797.58 2.08321 3.70786 0
M  V30 18184 N 1795.89 -1.18905 1.03437 0
M  V30 18185 C 1796.85 -2.20529 0.624461 0
M  V30 18186 C 1797.85 -1.57688 -0.314824 0
M  V30 18187 O 1799.04 -1.73906 -0.101082 0
M  V30 18188 C 1796.18 -3.40793 -0.0854166 0
M  V30 18189 H 1797.37 -2.58309 1.5237 0
M  V30 18190 H 1794.92 -1.32679 0.826189 0
M  V30 18191 H 1795.66 -3.08538 -0.998747 0
M  V30 18192 H 1795.44 -3.87642 0.589596 0
M  V30 18193 H 1796.93 -4.16055 -0.358938 0
M  V30 18194 N 1797.37 -0.812977 -1.35013 0
M  V30 18195 C 1798.78 -0.45647 -1.81034 0
M  V30 18196 C 1799.13 1.02217 -1.6747 0
M  V30 18197 O 1798.26 1.79478 -1.20898 0
M  V30 18198 C 1798.85 -0.821773 -3.28683 0
M  V30 18199 C 1797.41 -0.517776 -3.72822 0
M  V30 18200 C 1796.56 -1.04399 -2.56897 0
M  V30 18201 H 1799.51 -1.00405 -1.22901 0
M  V30 18202 H 1799.53 -0.12173 -3.80305 0
M  V30 18203 H 1799.04 -1.89799 -3.38523 0
M  V30 18204 H 1797.14 0.549446 -3.68527 0
M  V30 18205 H 1797.26 -1.05488 -4.67343 0
M  V30 18206 H 1795.62 -0.466002 -2.50401 0
M  V30 18207 H 1796.4 -2.12645 -2.69512 0
M  V30 18208 N 1798.85 1.47045 -0.567045 0
M  V30 18209 C 1800.09 2.02746 -0.046749 0
M  V30 18210 C 1800.43 1.4394 1.30364 0
M  V30 18211 O 1799.7 0.598616 1.85059 0
M  V30 18212 C 1799.98 3.60082 0.0358156 0
M  V30 18213 C 1799.84 4.29302 -1.34237 0
M  V30 18214 C 1801.16 4.3376 0.744338 0
M  V30 18215 H 1798.28 0.736769 -0.0184627 0
M  V30 18216 H 1800.92 1.75365 -0.73123 0
M  V30 18217 H 1799.07 3.83541 0.618745 0
M  V30 18218 H 1800.74 4.17155 -1.96926 0
M  V30 18219 H 1798.98 3.89273 -1.91439 0
M  V30 18220 H 1799.65 5.37956 -1.23722 0
M  V30 18221 H 1802.13 4.15353 0.249287 0
M  V30 18222 H 1801.01 5.43457 0.771095 0
M  V30 18223 H 1801.27 4.03686 1.80249 0
M  V30 18224 N 1800.33 0.304 1.5464 0
M  V30 18225 C 1801.6 -0.357665 1.92302 0
M  V30 18226 C 1801.98 -1.71453 1.23155 0
M  V30 18227 O 1801.33 -2.25512 0.368342 0
M  V30 18228 C 1801.54 -0.469339 3.4583 0
M  V30 18229 C 1802.89 -0.738803 4.18123 0
M  V30 18230 O 1803.91 -0.553033 3.51881 0
M  V30 18231 O 1802.77 -1.09585 5.354 0
M  V30 18232 H 1799.87 -0.200506 0.802326 0
M  V30 18233 H 1802.41 0.352279 1.66003 0
M  V30 18234 H 1801.18 0.484397 3.8829 0
M  V30 18235 H 1800.81 -1.22763 3.78173 0
M  V30 18236 N 1801.8 -1.57568 0.0317802 0
M  V30 18237 C 1802.74 -2.05894 -0.984021 0
M  V30 18238 C 1803.71 -0.955271 -1.3158 0
M  V30 18239 O 1804.9 -1.22579 -1.43201 0
M  V30 18240 C 1802.03 -2.48323 -2.30334 0
M  V30 18241 C 1801.07 -3.69736 -2.12598 0
M  V30 18242 S 1801.9 -5.16266 -1.42233 0
M  V30 18243 C 1803.06 -5.61992 -2.75528 0
M  V30 18244 H 1803.29 -2.91732 -0.572665 0
M  V30 18245 H 1800.83 -1.53347 -0.179981 0
M  V30 18246 H 1802.78 -2.73433 -3.06178 0
M  V30 18247 H 1801.45 -1.62825 -2.68602 0
M  V30 18248 H 1800.64 -3.97279 -3.10138 0
M  V30 18249 H 1800.24 -3.44792 -1.44896 0
M  V30 18250 H 1802.53 -5.66394 -3.71758 0
M  V30 18251 H 1803.48 -6.61495 -2.52646 0
M  V30 18252 H 1803.88 -4.8965 -2.80897 0
M  V30 18253 N 1803.28 0.241399 -1.5574 0
M  V30 18254 C 1804.7 0.590176 -1.48287 0
M  V30 18255 C 1804.9 1.8808 -0.723052 0
M  V30 18256 O 1803.95 2.51213 -0.25464 0
M  V30 18257 C 1805.27 0.687804 -2.92728 0
M  V30 18258 C 1806.82 0.779763 -3.03131 0
M  V30 18259 C 1807.29 0.908905 -4.48891 0
M  V30 18260 N 1808.78 0.973636 -4.52852 0
M  V30 18261 C 1809.52 1.09292 -5.62888 0
M  V30 18262 N 1809.01 1.1774 -6.82722 0
M  V30 18263 N 1810.81 1.12651 -5.50696 0
M  V30 18264 H 1802.96 -0.605781 -2.03578 0
M  V30 18265 H 1805.22 -0.209862 -0.924479 0
M  V30 18266 H 1804.93 -0.190608 -3.51183 0
M  V30 18267 H 1804.8 1.55794 -3.43523 0
M  V30 18268 H 1807.19 1.64863 -2.44754 0
M  V30 18269 H 1807.27 -0.115641 -2.55538 0
M  V30 18270 H 1806.91 0.0445788 -5.0788 0
M  V30 18271 H 1806.84 1.81943 -4.9417 0
M  V30 18272 H 1809.33 0.919469 -3.66544 0
M  V30 18273 H 1809.65 1.26764 -7.62332 0
M  V30 18274 H 1807.99 1.14688 -6.85472 0
M  V30 18275 H 1811.18 1.05703 -4.56009 0
M  V30 18276 H 1811.35 1.21602 -6.36488 0
M  V30 18277 N 1804.76 1.49212 0.507292 0
M  V30 18278 C 1806.17 1.51655 1.08892 0
M  V30 18279 C 1806.52 0.299163 1.93906 0
M  V30 18280 O 1805.65 -0.591635 2.08155 0
M  V30 18281 C 1806.24 2.7481 1.98154 0
M  V30 18282 C 1804.8 2.80051 2.51492 0
M  V30 18283 C 1803.95 2.45486 1.28966 0
M  V30 18284 H 1806.9 1.56 0.291488 0
M  V30 18285 H 1806.92 2.54615 2.82757 0
M  V30 18286 H 1806.43 3.63396 1.36253 0
M  V30 18287 H 1804.53 1.95729 3.1705 0
M  V30 18288 H 1804.65 3.82064 2.89075 0
M  V30 18289 H 1803.01 1.97128 1.61284 0
M  V30 18290 H 1803.79 3.36339 0.687821 0
M  V30 18291 N 1806.24 -0.757876 1.38181 0
M  V30 18292 C 1807.49 -1.51688 1.34153 0
M  V30 18293 C 1807.81 -1.94375 -0.0697487 0
M  V30 18294 O 1807.07 -1.65404 -1.04594 0
M  V30 18295 C 1807.37 -2.78548 2.23933 0
M  V30 18296 C 1807.03 -2.54845 3.71975 0
M  V30 18297 C 1805.7 -2.48089 4.12317 0
M  V30 18298 C 1808.05 -2.34027 4.65704 0
M  V30 18299 C 1805.38 -2.18526 5.44485 0
M  V30 18300 C 1807.73 -2.05986 5.98124 0
M  V30 18301 C 1806.39 -1.97683 6.37556 0
M  V30 18302 H 1805.66 -0.555064 0.490902 0
M  V30 18303 H 1808.31 -0.871823 1.70504 0
M  V30 18304 H 1806.61 -3.47682 1.80623 0
M  V30 18305 H 1808.31 -3.36487 2.18122 0
M  V30 18306 H 1804.9 -2.60972 3.39988 0
M  V30 18307 H 1809.08 -2.38228 4.35386 0
M  V30 18308 H 1804.34 -2.10603 5.73983 0
M  V30 18309 H 1808.51 -1.8888 6.70296 0
M  V30 18310 H 1806.14 -1.7454 7.39892 0
M  V30 18311 N 1807.72 -1.22979 -0.985586 0
M  V30 18312 C 1808.68 -1.00763 -2.05862 0
M  V30 18313 C 1809.68 0.02864 -1.60774 0
M  V30 18314 O 1810.87 -0.210593 -1.72922 0
M  V30 18315 C 1808 -0.523547 -3.36856 0
M  V30 18316 H 1809.19 -1.95982 -2.27004 0
M  V30 18317 H 1806.75 -1.0495 -1.15824 0
M  V30 18318 H 1807.48 0.432658 -3.21401 0
M  V30 18319 H 1807.27 -1.27127 -3.70919 0
M  V30 18320 H 1808.76 -0.388591 -4.15788 0
M  V30 18321 N 1809.19 1.18355 -1.04066 0
M  V30 18322 C 1810.44 1.88614 -0.745148 0
M  V30 18323 C 1810.77 1.80147 0.725294 0
M  V30 18324 O 1810.05 1.20177 1.5293 0
M  V30 18325 C 1810.33 3.39095 -1.2119 0
M  V30 18326 C 1810.18 3.56372 -2.74444 0
M  V30 18327 C 1811.5 4.32732 -0.801953 0
M  V30 18328 H 1808.62 0.684905 -0.272166 0
M  V30 18329 H 1811.26 1.39248 -1.29267 0
M  V30 18330 H 1809.41 3.81269 -0.746091 0
M  V30 18331 H 1811.09 3.2329 -3.29061 0
M  V30 18332 H 1809.33 2.99028 -3.14269 0
M  V30 18333 H 1810 4.61956 -3.0216 0
M  V30 18334 H 1812.48 3.98337 -1.20278 0
M  V30 18335 H 1811.35 5.36583 -1.15628 0
M  V30 18336 H 1811.61 4.41115 0.294907 0
M  V30 18337 N 1810.67 0.820125 1.3458 0
M  V30 18338 C 1811.92 0.407473 1.98664 0
M  V30 18339 C 1812.25 -1.02613 1.64877 0
M  V30 18340 O 1811.53 -1.71421 0.918964 0
M  V30 18341 C 1811.81 0.606744 3.54952 0
M  V30 18342 C 1811.66 2.08626 3.98491 0
M  V30 18343 C 1812.98 0.0409321 4.40081 0
M  V30 18344 H 1810.1 0.149524 0.721673 0
M  V30 18345 H 1812.74 1.03217 1.59519 0
M  V30 18346 H 1810.89 0.0749788 3.88428 0
M  V30 18347 H 1812.56 2.68144 3.75361 0
M  V30 18348 H 1810.81 2.57774 3.48905 0
M  V30 18349 H 1811.48 2.17651 5.07279 0
M  V30 18350 H 1813.95 0.495234 4.13142 0
M  V30 18351 H 1812.83 0.210182 5.48497 0
M  V30 18352 H 1813.09 -1.05389 4.29355 0
M  V30 18353 N 1812.15 -1.46743 0.574835 0
M  V30 18354 C 1813.38 -2.07311 0.0608779 0
M  V30 18355 C 1813.8 -1.422 -1.23129 0
M  V30 18356 O 1813.16 -0.503042 -1.74181 0
M  V30 18357 C 1813.21 -3.60462 -0.0996676 0
M  V30 18358 O 1812.31 -3.95806 -1.15808 0
M  V30 18359 H 1811.65 -0.661351 0.0592542 0
M  V30 18360 H 1814.18 -1.885 0.795538 0
M  V30 18361 H 1814.19 -4.06833 -0.308329 0
M  V30 18362 H 1812.87 -4.07246 0.844018 0
M  V30 18363 H 1811.44 -3.61155 -0.928504 0
M  V30 18364 N 1813.63 -0.312197 -1.54477 0
M  V30 18365 C 1814.88 0.293192 -1.99962 0
M  V30 18366 C 1815.2 1.53544 -1.20205 0
M  V30 18367 O 1814.47 1.93575 -0.300901 0
M  V30 18368 H 1813.05 0.111325 -0.738658 0
M  V30 18369 H 1815.71 -0.426116 -1.90185 0
M  V30 18370 H 1814.81 0.557482 -3.07081 0
M  V30 18371 N 1815.11 1.57549 -0.040136 0
M  V30 18372 C 1816.38 1.83571 0.675355 0
M  V30 18373 C 1816.76 0.926313 1.89691 0
M  V30 18374 O 1816.11 -0.0153869 2.28495 0
M  V30 18375 C 1816.32 3.33046 1.04313 0
M  V30 18376 C 1817.67 3.99791 1.43011 0
M  V30 18377 O 1818.69 3.37607 1.13579 0
M  V30 18378 O 1817.55 5.09412 1.97893 0
M  V30 18379 H 1814.65 0.75729 0.332325 0
M  V30 18380 H 1817.19 1.69561 -0.0686584 0
M  V30 18381 H 1815.96 3.90912 0.174189 0
M  V30 18382 H 1815.59 3.52203 1.84495 0
M  V30 18383 N 1816.58 -0.233136 1.55866 0
M  V30 18384 C 1817.53 -1.29204 1.87857 0
M  V30 18385 C 1818.52 -1.42842 0.740607 0
M  V30 18386 O 1819.71 -1.45852 1.00281 0
M  V30 18387 C 1816.84 -2.6448 2.18873 0
M  V30 18388 C 1815.93 -2.5479 3.39032 0
M  V30 18389 N 1816.32 -2.14742 4.57952 0
M  V30 18390 C 1814.61 -2.85774 3.42417 0
M  V30 18391 C 1815.32 -2.1602 5.40102 0
M  V30 18392 N 1814.29 -2.5606 4.79515 0
M  V30 18393 H 1818.09 -0.973116 2.77322 0
M  V30 18394 H 1815.61 -0.441733 1.56277 0
M  V30 18395 H 1817.6 -3.40916 2.39962 0
M  V30 18396 H 1816.26 -2.97227 1.30714 0
M  V30 18397 H 1817.28 -1.8606 4.83324 0
M  V30 18398 H 1813.95 -3.2297 2.64568 0
M  V30 18399 H 1815.34 -1.8728 6.45272 0
M  V30 18400 N 1818.06 -1.49479 -0.499372 0
M  V30 18401 C 1819.01 -1.66756 -1.62158 0
M  V30 18402 C 1820.01 -0.533485 -1.6078 0
M  V30 18403 O 1821.21 -0.713167 -1.65269 0
M  V30 18404 H 1817.59 -0.525853 -0.537571 0
M  V30 18405 H 1819.56 -2.60947 -1.44738 0
M  V30 18406 C 1818.31 -1.75287 -3.00283 0
M  V30 18407 H 1817.63 -2.61928 -3.02049 0
M  V30 18408 H 1819.07 -1.91411 -3.78336 0
M  V30 18409 C 1817.53 -0.498056 -3.33198 0
M  V30 18410 O 1818.06 0.375528 -3.99941 0
M  V30 18411 N 1816.26 -0.360513 -2.88355 0
M  V30 18412 H 1815.81 -1.0724 -2.34216 0
M  V30 18413 H 1815.77 0.477981 -3.10745 0
M  V30 18414 N 1819.54 0.750537 -1.38581 0
M  V30 18415 C 1820.95 1.32802 -1.31227 0
M  V30 18416 C 1821.3 1.96176 0.0305372 0
M  V30 18417 O 1820.43 1.95272 0.932614 0
M  V30 18418 C 1821.02 2.41468 -2.37652 0
M  V30 18419 C 1819.58 2.94929 -2.33867 0
M  V30 18420 C 1818.73 1.68339 -2.20357 0
M  V30 18421 H 1821.68 0.549187 -1.48895 0
M  V30 18422 H 1821.7 3.21481 -2.03544 0
M  V30 18423 H 1821.21 1.95313 -3.35372 0
M  V30 18424 H 1819.31 3.45404 -1.39738 0
M  V30 18425 H 1819.43 3.491 -3.28125 0
M  V30 18426 H 1817.79 1.92082 -1.67262 0
M  V30 18427 H 1818.57 1.24258 -3.20023 0
M  V30 18428 N 1821.02 1.235 0.979051 0
M  V30 18429 C 1822.27 1.06197 1.71479 0
M  V30 18430 C 1822.58 -0.401066 1.91444 0
M  V30 18431 O 1823.79 -0.69406 2.62479 0
M  V30 18432 C 1822.24 1.85189 3.08598 0
M  V30 18433 C 1821.85 3.35831 2.96516 0
M  V30 18434 C 1823.6 1.76379 3.86122 0
M  V30 18435 C 1821.5 4.0721 4.28875 0
M  V30 18436 H 1820.43 0.393779 0.643004 0
M  V30 18437 H 1823.08 1.47479 1.09188 0
M  V30 18438 H 1821.47 1.36714 3.71652 0
M  V30 18439 H 1822.64 3.91803 2.42543 0
M  V30 18440 H 1820.95 3.45469 2.32466 0
M  V30 18441 H 1823.55 2.2702 4.84114 0
M  V30 18442 H 1823.89 0.726826 4.09906 0
M  V30 18443 H 1824.43 2.22473 3.29773 0
M  V30 18444 H 1821.17 5.11218 4.10288 0
M  V30 18445 H 1820.69 3.56025 4.82707 0
M  V30 18446 H 1822.37 4.13579 4.97555 0
M  V30 18447 N 1822.5 -1.17802 1.04693 0
M  V30 18448 C 1823.45 -2.19584 0.613744 0
M  V30 18449 C 1824.43 -1.57111 -0.34713 0
M  V30 18450 O 1825.62 -1.76228 -0.16517 0
M  V30 18451 C 1822.75 -3.43297 -0.0152847 0
M  V30 18452 C 1821.84 -4.12879 0.969114 0
M  V30 18453 N 1822.23 -4.58364 2.13859 0
M  V30 18454 C 1820.53 -4.3883 0.796487 0
M  V30 18455 C 1821.23 -5.12003 2.76094 0
M  V30 18456 N 1820.2 -5.039 2.03926 0
M  V30 18457 H 1824.01 -2.5245 1.50486 0
M  V30 18458 H 1821.52 -1.34076 0.916373 0
M  V30 18459 H 1823.52 -4.15484 -0.343354 0
M  V30 18460 H 1822.18 -3.11924 -0.901858 0
M  V30 18461 H 1823.19 -4.52613 2.51718 0
M  V30 18462 H 1819.87 -4.17481 -0.0394627 0
M  V30 18463 H 1821.26 -5.57355 3.7524 0
M  V30 18464 N 1823.98 -0.827251 -1.34143 0
M  V30 18465 C 1825.2 -0.430502 -2.02372 0
M  V30 18466 C 1825.62 0.964846 -1.62284 0
M  V30 18467 O 1824.98 1.62512 -0.830421 0
M  V30 18468 C 1825.03 -0.528077 -3.57622 0
M  V30 18469 O 1824.75 -1.86843 -3.96259 0
M  V30 18470 C 1826.25 -0.126784 -4.43119 0
M  V30 18471 H 1823.47 -0.172244 -0.648516 0
M  V30 18472 H 1826.01 -1.11661 -1.71325 0
M  V30 18473 H 1824.17 0.109991 -3.87244 0
M  V30 18474 H 1824.58 -1.84573 -4.90951 0
M  V30 18475 H 1826.06 -0.246133 -5.51451 0
M  V30 18476 H 1826.53 0.930138 -4.29238 0
M  V30 18477 H 1827.14 -0.738824 -4.18833 0
M  V30 18478 N 1825.45 1.46436 -0.582609 0
M  V30 18479 C 1826.73 1.956 -0.00129167 0
M  V30 18480 C 1827.11 1.52526 1.45942 0
M  V30 18481 O 1826.46 0.775911 2.14923 0
M  V30 18482 C 1826.67 3.4857 -0.173243 0
M  V30 18483 C 1828.02 4.2458 -0.0410173 0
M  V30 18484 O 1829.04 3.56054 -0.102074 0
M  V30 18485 O 1827.9 5.46418 0.0947564 0
M  V30 18486 H 1824.99 0.825495 0.0498706 0
M  V30 18487 H 1827.54 1.5672 -0.650921 0
M  V30 18488 H 1826.31 3.72808 -1.1887 0
M  V30 18489 H 1825.93 3.94279 0.512822 0
M  V30 18490 N 1826.93 0.320385 1.54309 0
M  V30 18491 C 1828.35 -0.0323699 1.59567 0
M  V30 18492 C 1828.55 -1.50754 1.33699 0
M  V30 18493 O 1827.6 -2.26308 1.11987 0
M  V30 18494 C 1828.92 0.383001 2.98251 0
M  V30 18495 C 1830.46 0.33339 3.11219 0
M  V30 18496 C 1830.94 0.723874 4.52243 0
M  V30 18497 N 1832.43 0.677156 4.58224 0
M  V30 18498 C 1833.17 0.951531 5.6545 0
M  V30 18499 N 1832.66 1.29288 6.8063 0
M  V30 18500 N 1834.45 0.877303 5.55211 0
M  V30 18501 H 1826.61 1.28155 1.69381 0
M  V30 18502 H 1828.87 0.520887 0.792074 0
M  V30 18503 H 1828.57 1.41067 3.22169 0
M  V30 18504 H 1828.45 -0.253601 3.76347 0
M  V30 18505 H 1830.84 -0.685063 2.87038 0
M  V30 18506 H 1830.92 1.00488 2.35236 0
M  V30 18507 H 1830.56 1.74023 4.77157 0
M  V30 18508 H 1830.49 0.0301039 5.26591 0
M  V30 18509 H 1832.98 0.425055 3.75502 0
M  V30 18510 H 1833.29 1.4877 7.58345 0
M  V30 18511 H 1831.64 1.33111 6.82134 0
M  V30 18512 H 1834.83 0.610144 4.64107 0
M  V30 18513 H 1835 1.09449 6.3869 0
M  V30 18514 N 1828.41 -1.57525 0.0484906 0
M  V30 18515 C 1829.37 -2.10275 -0.911987 0
M  V30 18516 C 1830.37 -1.02178 -1.24163 0
M  V30 18517 O 1831.56 -1.28262 -1.17875 0
M  V30 18518 C 1828.69 -2.58475 -2.22269 0
M  V30 18519 H 1829.89 -2.96432 -0.454768 0
M  V30 18520 H 1827.44 -1.55017 -0.19987 0
M  V30 18521 H 1828.18 -1.75704 -2.72578 0
M  V30 18522 H 1827.96 -3.37466 -1.99648 0
M  V30 18523 H 1829.45 -2.99443 -2.91074 0
M  V30 18524 N 1829.89 0.224867 -1.55988 0
M  V30 18525 C 1830.85 1.26214 -1.91318 0
M  V30 18526 C 1831.85 1.39973 -0.791472 0
M  V30 18527 O 1833.04 1.38295 -1.05926 0
M  V30 18528 C 1830.17 2.63648 -2.16107 0
M  V30 18529 H 1831.37 0.960933 -2.84088 0
M  V30 18530 H 1828.92 0.465138 -1.49218 0
M  V30 18531 H 1829.65 2.98873 -1.25878 0
M  V30 18532 H 1829.44 2.5504 -2.97821 0
M  V30 18533 H 1830.93 3.38505 -2.44548 0
M  V30 18534 N 1831.37 1.49742 0.491438 0
M  V30 18535 C 1832.33 1.66587 1.57421 0
M  V30 18536 C 1833.33 0.537281 1.51558 0
M  V30 18537 O 1834.52 0.803928 1.5454 0
M  V30 18538 C 1831.65 1.67217 2.97071 0
M  V30 18539 H 1832.84 2.63171 1.4381 0
M  V30 18540 H 1830.4 1.38917 0.716368 0
M  V30 18541 H 1831.13 0.722529 3.16149 0
M  V30 18542 H 1830.92 2.49187 3.02734 0
M  V30 18543 H 1832.41 1.82274 3.75721 0
M  V30 18544 N 1832.84 -0.743177 1.38977 0
M  V30 18545 C 1833.77 -1.87047 1.3977 0
M  V30 18546 C 1834.76 -1.68068 0.262161 0
M  V30 18547 O 1835.94 -1.88507 0.466782 0
M  V30 18548 C 1833.07 -3.24701 1.23234 0
M  V30 18549 C 1832.02 -3.58302 2.34102 0
M  V30 18550 C 1831.35 -4.94805 2.02663 0
M  V30 18551 C 1832.65 -3.62111 3.76395 0
M  V30 18552 H 1834.34 -1.8664 2.34107 0
M  V30 18553 H 1831.89 -0.896541 1.12686 0
M  V30 18554 H 1833.84 -4.03228 1.22412 0
M  V30 18555 H 1832.57 -3.25614 0.253638 0
M  V30 18556 H 1831.23 -2.82099 2.34128 0
M  V30 18557 H 1830.87 -4.92289 1.0325 0
M  V30 18558 H 1830.57 -5.18254 2.76922 0
M  V30 18559 H 1832.1 -5.75699 2.03477 0
M  V30 18560 H 1833.51 -4.30731 3.78343 0
M  V30 18561 H 1831.91 -3.97075 4.49946 0
M  V30 18562 H 1832.98 -2.62099 4.07961 0
M  V30 18563 N 1834.32 -1.24018 -0.972487 0
M  V30 18564 C 1835.25 -1.0529 -2.08414 0
M  V30 18565 C 1836.23 0.0326663 -1.70069 0
M  V30 18566 O 1837.42 -0.133494 -1.93741 0
M  V30 18567 C 1834.55 -0.651796 -3.41129 0
M  V30 18568 C 1833.5 -1.68559 -3.9341 0
M  V30 18569 C 1832.83 -1.1397 -5.22413 0
M  V30 18570 C 1834.13 -3.08046 -4.21788 0
M  V30 18571 H 1835.82 -1.98272 -2.2434 0
M  V30 18572 H 1833.37 -0.954694 -1.07804 0
M  V30 18573 H 1835.32 -0.507792 -4.18329 0
M  V30 18574 H 1834.05 0.313722 -3.2509 0
M  V30 18575 H 1832.7 -1.81773 -3.18362 0
M  V30 18576 H 1832.35 -0.164928 -5.0273 0
M  V30 18577 H 1832.05 -1.83051 -5.5836 0
M  V30 18578 H 1833.58 -1.00771 -6.02227 0
M  V30 18579 H 1834.99 -2.98088 -4.8971 0
M  V30 18580 H 1833.39 -3.74436 -4.68954 0
M  V30 18581 H 1834.46 -3.56444 -3.28749 0
M  V30 18582 N 1835.8 1.17245 -1.05316 0
M  V30 18583 C 1836.76 2.19508 -0.659467 0
M  V30 18584 C 1837.76 1.58169 0.289697 0
M  V30 18585 O 1838.95 1.74045 0.0734019 0
M  V30 18586 C 1836.09 3.40886 0.0311886 0
M  V30 18587 H 1837.28 2.55852 -1.5646 0
M  V30 18588 H 1834.83 1.31348 -0.847193 0
M  V30 18589 H 1835.57 3.10088 0.949535 0
M  V30 18590 H 1835.35 3.86655 -0.651191 0
M  V30 18591 H 1836.84 4.16573 0.292702 0
M  V30 18592 N 1837.28 0.834353 1.33702 0
M  V30 18593 C 1838.53 0.427042 1.97537 0
M  V30 18594 C 1838.85 -1.01607 1.66436 0
M  V30 18595 O 1838.12 -1.70711 0.960958 0
M  V30 18596 H 1836.7 0.154921 0.730759 0
M  V30 18597 H 1839.36 1.06632 1.63143 0
M  V30 18598 H 1838.46 0.555396 3.07118 0
M  V30 18599 N 1838.76 -1.46125 0.590367 0
M  V30 18600 C 1839.69 -2.33159 -0.126114 0
M  V30 18601 C 1840.67 -1.45806 -0.876057 0
M  V30 18602 O 1841.85 -1.7461 -0.850009 0
M  V30 18603 C 1838.98 -3.28217 -1.13537 0
M  V30 18604 C 1837.94 -4.25072 -0.499773 0
M  V30 18605 C 1837.26 -5.09694 -1.61605 0
M  V30 18606 C 1838.56 -5.19202 0.567992 0
M  V30 18607 H 1840.26 -2.93315 0.600577 0
M  V30 18608 H 1837.8 -1.41044 0.290265 0
M  V30 18609 H 1839.76 -3.87965 -1.64503 0
M  V30 18610 H 1838.48 -2.66185 -1.89244 0
M  V30 18611 H 1837.14 -3.66598 -0.0111313 0
M  V30 18612 H 1836.79 -4.44041 -2.36297 0
M  V30 18613 H 1836.49 -5.75292 -1.19637 0
M  V30 18614 H 1838.01 -5.72307 -2.12832 0
M  V30 18615 H 1839.42 -5.73121 0.143102 0
M  V30 18616 H 1837.82 -5.93184 0.908428 0
M  V30 18617 H 1838.89 -4.62671 1.45133 0
M  V30 18618 N 1840.23 -0.328564 -1.54137 0
M  V30 18619 C 1841.14 0.543922 -2.28207 0
M  V30 18620 C 1842.16 1.1249 -1.32748 0
M  V30 18621 O 1843.34 1.1438 -1.65769 0
M  V30 18622 C 1840.4 1.6864 -3.02922 0
M  V30 18623 C 1839.46 1.13672 -4.13977 0
M  V30 18624 C 1838.7 2.22474 -4.85119 0
M  V30 18625 O 1838.92 3.42914 -4.55813 0
M  V30 18626 O 1837.85 1.87611 -5.71914 0
M  V30 18627 H 1841.68 -0.0577601 -3.03645 0
M  V30 18628 H 1839.26 -0.0940895 -1.49103 0
M  V30 18629 H 1841.15 2.35143 -3.49693 0
M  V30 18630 H 1839.82 2.27417 -2.30355 0
M  V30 18631 H 1838.73 0.436625 -3.71543 0
M  V30 18632 H 1840.06 0.594012 -4.88602 0
M  V30 18633 N 1841.71 1.57497 -0.0568439 0
M  V30 18634 C 1842.94 1.97645 0.628589 0
M  V30 18635 C 1843.36 0.934424 1.63249 0
M  V30 18636 O 1842.72 -0.101706 1.81015 0
M  V30 18637 C 1842.77 3.36855 1.2869 0
M  V30 18638 O 1841.87 3.35182 2.40264 0
M  V30 18639 H 1841.21 0.643698 0.16294 0
M  V30 18640 H 1843.74 2.04206 -0.126927 0
M  V30 18641 H 1843.75 3.73708 1.63726 0
M  V30 18642 H 1842.43 4.12231 0.551203 0
M  V30 18643 H 1841.01 3.10081 2.07133 0
M  V30 18644 N 1843.19 -0.216591 1.56105 0
M  V30 18645 C 1844.6 -0.783161 1.6948 0
M  V30 18646 C 1844.95 -1.84776 0.659716 0
M  V30 18647 O 1844.08 -2.1558 -0.188184 0
M  V30 18648 C 1844.67 -1.42733 3.07267 0
M  V30 18649 C 1843.23 -1.94123 3.2248 0
M  V30 18650 C 1842.38 -0.803216 2.65412 0
M  V30 18651 H 1845.33 0.00814542 1.58698 0
M  V30 18652 H 1845.35 -2.29627 3.034 0
M  V30 18653 H 1844.86 -0.652264 3.8258 0
M  V30 18654 H 1842.96 -2.74416 2.52045 0
M  V30 18655 H 1843.08 -2.1178 4.29751 0
M  V30 18656 H 1841.44 -1.21185 2.24023 0
M  V30 18657 H 1842.22 -0.0407398 3.43276 0
M  V30 18658 N 1844.67 -1.5 -0.48349 0
M  V30 18659 C 1845.92 -1.59612 -1.23317 0
M  V30 18660 C 1846.23 -0.29614 -1.93345 0
M  V30 18661 O 1847.44 -0.271008 -2.70144 0
M  V30 18662 C 1845.89 -2.81692 -2.24003 0
M  V30 18663 C 1845.5 -4.18518 -1.59834 0
M  V30 18664 C 1847.24 -3.00643 -2.9969 0
M  V30 18665 C 1845.15 -5.31799 -2.58735 0
M  V30 18666 H 1844.08 -0.594352 -0.463963 0
M  V30 18667 H 1846.73 -1.76414 -0.505016 0
M  V30 18668 H 1845.11 -2.58422 -3.00057 0
M  V30 18669 H 1846.29 -4.51994 -0.896542 0
M  V30 18670 H 1844.6 -4.0507 -0.964743 0
M  V30 18671 H 1847.2 -3.82445 -3.73684 0
M  V30 18672 H 1847.54 -2.11883 -3.58345 0
M  V30 18673 H 1848.08 -3.24035 -2.30751 0
M  V30 18674 H 1844.82 -6.22674 -2.04836 0
M  V30 18675 H 1844.34 -5.02756 -3.27103 0
M  V30 18676 H 1846.01 -5.61861 -3.20814 0
M  V30 18677 N 1846.15 0.735796 -1.39369 0
M  V30 18678 C 1847.39 1.49756 -1.36752 0
M  V30 18679 C 1847.73 1.94165 0.036815 0
M  V30 18680 O 1847 1.66728 1.00159 0
M  V30 18681 C 1847.28 2.73779 -2.33916 0
M  V30 18682 C 1847.14 2.35394 -3.83288 0
M  V30 18683 C 1848.46 3.75875 -2.28924 0
M  V30 18684 H 1845.57 0.543236 -0.49806 0
M  V30 18685 H 1848.22 0.841381 -1.70355 0
M  V30 18686 H 1846.37 3.29768 -2.05391 0
M  V30 18687 H 1848.04 1.85043 -4.2256 0
M  V30 18688 H 1846.28 1.67632 -4.00102 0
M  V30 18689 H 1846.95 3.24206 -4.4676 0
M  V30 18690 H 1849.43 3.29469 -2.54144 0
M  V30 18691 H 1848.3 4.60321 -2.98991 0
M  V30 18692 H 1848.57 4.22739 -1.29399 0
M  V30 18693 N 1847.63 1.24532 0.965897 0
M  V30 18694 C 1848.58 1.00627 2.04593 0
M  V30 18695 C 1849.56 -0.0529299 1.60813 0
M  V30 18696 O 1850.75 0.16102 1.76266 0
M  V30 18697 C 1847.88 0.614939 3.37748 0
M  V30 18698 C 1846.97 1.71031 3.88084 0
M  V30 18699 N 1847.36 2.94339 4.11337 0
M  V30 18700 C 1845.66 1.58823 4.16763 0
M  V30 18701 C 1846.36 3.65361 4.52644 0
M  V30 18702 N 1845.33 2.92931 4.57922 0
M  V30 18703 H 1849.13 1.94256 2.20549 0
M  V30 18704 H 1846.65 1.14685 1.14983 0
M  V30 18705 H 1848.65 0.424907 4.14729 0
M  V30 18706 H 1847.31 -0.314149 3.23177 0
M  V30 18707 H 1848.32 3.305 3.98736 0
M  V30 18708 H 1844.99 0.727304 4.11116 0
M  V30 18709 H 1846.38 4.71145 4.79032 0
M  V30 18710 N 1849.1 -1.16685 1.05936 0
M  V30 18711 C 1850.35 -1.86758 0.772386 0
M  V30 18712 C 1850.67 -1.81885 -0.703051 0
M  V30 18713 O 1849.94 -1.24992 -1.50844 0
M  V30 18714 H 1848.52 -0.69143 0.282725 0
M  V30 18715 H 1851.18 -1.41518 1.3401 0
M  V30 18716 H 1850.28 -2.92296 1.09405 0
M  V30 18717 N 1850.58 -0.841432 -1.33258 0
M  V30 18718 C 1851.51 -0.221485 -2.27123 0
M  V30 18719 C 1852.49 0.632879 -1.49778 0
M  V30 18720 O 1853.68 0.592581 -1.78943 0
M  V30 18721 C 1850.8 0.688784 -3.31622 0
M  V30 18722 C 1849.85 -0.0904563 -4.26404 0
M  V30 18723 S 1850.68 -1.45006 -5.15493 0
M  V30 18724 C 1851.84 -0.545159 -6.23521 0
M  V30 18725 H 1852.07 -1.01723 -2.79356 0
M  V30 18726 H 1849.6 -0.638326 -1.40587 0
M  V30 18727 H 1851.56 1.20836 -3.92312 0
M  V30 18728 H 1850.22 1.45821 -2.78199 0
M  V30 18729 H 1849.42 0.602296 -5.00388 0
M  V30 18730 H 1849.02 -0.541181 -3.70064 0
M  V30 18731 H 1851.31 0.255962 -6.77016 0
M  V30 18732 H 1852.25 -1.25524 -6.96885 0
M  V30 18733 H 1852.66 -0.125368 -5.64361 0
M  V30 18734 N 1852.06 1.4581 -0.598108 0
M  V30 18735 C 1853.31 2.03163 -0.0981368 0
M  V30 18736 C 1853.66 1.45942 1.25374 0
M  V30 18737 O 1852.95 0.620981 1.81258 0
M  V30 18738 C 1853.15 3.57399 0.00976809 0
M  V30 18739 C 1852.98 4.29579 -1.3301 0
M  V30 18740 C 1851.75 4.6788 -1.90831 0
M  V30 18741 C 1853.94 4.62141 -2.25677 0
M  V30 18742 N 1851.93 5.24878 -3.18397 0
M  V30 18743 C 1853.3 5.19872 -3.37836 0
M  V30 18744 C 1855.35 4.44077 -2.25167 0
M  V30 18745 C 1854.06 5.61443 -4.49639 0
M  V30 18746 C 1856.08 4.86674 -3.36009 0
M  V30 18747 C 1855.44 5.44489 -4.4689 0
M  V30 18748 H 1851.54 0.777994 -0.0790554 0
M  V30 18749 H 1854.13 1.77757 -0.794384 0
M  V30 18750 H 1852.3 3.82486 0.675215 0
M  V30 18751 H 1854.03 4.01403 0.515531 0
M  V30 18752 H 1850.78 4.51131 -1.44145 0
M  V30 18753 H 1851.21 5.57884 -3.83529 0
M  V30 18754 H 1855.85 3.987 -1.40706 0
M  V30 18755 H 1853.57 6.0579 -5.34831 0
M  V30 18756 H 1857.15 4.74437 -3.36751 0
M  V30 18757 H 1856.03 5.76846 -5.31243 0
M  V30 18758 N 1853.54 0.336733 1.53961 0
M  V30 18759 C 1854.47 -0.515664 2.27735 0
M  V30 18760 C 1855.45 -1.10835 1.29033 0
M  V30 18761 O 1856.63 -1.13102 1.57866 0
M  V30 18762 C 1853.76 -1.67015 3.04505 0
M  V30 18763 C 1852.72 -1.20613 4.10654 0
M  V30 18764 C 1852.04 -2.44861 4.75339 0
M  V30 18765 C 1853.34 -0.311507 5.2137 0
M  V30 18766 H 1855.04 0.0997513 2.99234 0
M  V30 18767 H 1852.58 0.0494157 1.43915 0
M  V30 18768 H 1854.54 -2.27286 3.54851 0
M  V30 18769 H 1853.26 -2.31236 2.30646 0
M  V30 18770 H 1851.92 -0.62628 3.61211 0
M  V30 18771 H 1851.57 -3.07474 3.98081 0
M  V30 18772 H 1851.27 -2.14498 5.47051 0
M  V30 18773 H 1852.79 -3.0587 5.28466 0
M  V30 18774 H 1854.21 -0.820868 5.67393 0
M  V30 18775 H 1852.6 -0.100073 6.00017 0
M  V30 18776 H 1853.67 0.654181 4.80467 0
M  V30 18777 N 1855.02 -1.57465 0.0651956 0
M  V30 18778 C 1856.24 -1.97975 -0.618099 0
M  V30 18779 C 1856.67 -0.943068 -1.62751 0
M  V30 18780 O 1856.02 0.0921045 -1.81066 0
M  V30 18781 C 1856.07 -3.37533 -1.26902 0
M  V30 18782 O 1855.18 -3.36451 -2.38483 0
M  V30 18783 H 1854.52 -0.644553 -0.159524 0
M  V30 18784 H 1857.05 -2.04136 0.137754 0
M  V30 18785 H 1857.06 -3.74571 -1.61742 0
M  V30 18786 H 1855.73 -4.12518 -0.529334 0
M  V30 18787 H 1854.31 -3.11175 -2.05486 0
M  V30 18788 N 1856.49 0.20831 -1.56217 0
M  V30 18789 C 1857.46 1.24178 -1.92646 0
M  V30 18790 C 1858.46 1.39125 -0.806274 0
M  V30 18791 O 1859.65 1.37163 -1.07386 0
M  V30 18792 C 1856.78 2.61342 -2.18891 0
M  V30 18793 H 1857.97 0.930748 -2.85091 0
M  V30 18794 H 1855.52 0.449285 -1.49703 0
M  V30 18795 H 1856.26 2.97521 -1.29041 0
M  V30 18796 H 1856.04 2.51866 -3.00509 0
M  V30 18797 H 1857.53 3.35892 -2.48125 0
M  V30 18798 N 1857.97 1.50255 0.475528 0
M  V30 18799 C 1858.93 1.68248 1.55645 0
M  V30 18800 C 1859.93 0.553326 1.5098 0
M  V30 18801 O 1861.12 0.820274 1.53679 0
M  V30 18802 C 1858.26 1.70358 2.95281 0
M  V30 18803 H 1859.45 2.64681 1.4101 0
M  V30 18804 H 1857 1.39669 0.701594 0
M  V30 18805 H 1857.74 0.75602 3.15365 0
M  V30 18806 H 1857.52 2.52384 3.00074 0
M  V30 18807 H 1859.01 1.86249 3.73766 0
M  V30 18808 N 1859.45 -0.728395 1.39758 0
M  V30 18809 C 1860.41 -1.82415 1.38772 0
M  V30 18810 C 1861.41 -1.58278 0.283678 0
M  V30 18811 O 1862.6 -1.65556 0.541927 0
M  V30 18812 C 1859.73 -3.20309 1.16684 0
M  V30 18813 H 1860.93 -1.8469 2.36283 0
M  V30 18814 H 1858.48 -0.932729 1.25419 0
M  V30 18815 H 1859.22 -3.2369 0.198817 0
M  V30 18816 H 1859 -3.39226 1.96643 0
M  V30 18817 H 1860.49 -4.0036 1.18751 0
M  V30 18818 N 1860.93 -1.25042 -0.959279 0
M  V30 18819 C 1861.86 -1.00807 -2.05841 0
M  V30 18820 C 1862.87 0.0253938 -1.6278 0
M  V30 18821 O 1864.06 -0.212625 -1.77229 0
M  V30 18822 C 1861.16 -0.501088 -3.35175 0
M  V30 18823 C 1860.33 -1.59964 -4.071 0
M  V30 18824 C 1859.39 -1.09383 -5.14705 0
M  V30 18825 O 1858.42 -1.78728 -5.40412 0
M  V30 18826 N 1859.62 0.0673296 -5.80461 0
M  V30 18827 H 1862.39 -1.95446 -2.27203 0
M  V30 18828 H 1859.95 -1.16185 -1.1275 0
M  V30 18829 H 1861.94 -0.147283 -4.04432 0
M  V30 18830 H 1860.51 0.351241 -3.1062 0
M  V30 18831 H 1859.73 -2.12524 -3.32005 0
M  V30 18832 H 1861.02 -2.3378 -4.51912 0
M  V30 18833 H 1860.42 0.646867 -5.61989 0
M  V30 18834 H 1858.97 0.362206 -6.50793 0
M  V30 18835 N 1862.41 1.16121 -1.06553 0
M  V30 18836 C 1863.36 2.1858 -0.6486 0
M  V30 18837 C 1864.34 1.57643 0.322091 0
M  V30 18838 O 1865.53 1.76468 0.137113 0
M  V30 18839 C 1862.66 3.43277 -0.0393328 0
M  V30 18840 C 1861.75 4.11285 -1.03468 0
M  V30 18841 N 1862.14 4.54904 -2.21124 0
M  V30 18842 C 1860.44 4.37508 -0.8662 0
M  V30 18843 C 1861.14 5.07546 -2.84205 0
M  V30 18844 N 1860.11 5.00592 -2.11917 0
M  V30 18845 H 1863.92 2.50024 -1.54483 0
M  V30 18846 H 1861.43 1.32601 -0.937587 0
M  V30 18847 H 1863.43 4.15977 0.277211 0
M  V30 18848 H 1862.09 3.13319 0.852119 0
M  V30 18849 H 1863.1 4.48551 -2.58887 0
M  V30 18850 H 1859.77 4.17491 -0.0269599 0
M  V30 18851 H 1861.16 5.51315 -3.8406 0
M  V30 18852 N 1863.88 0.848487 1.3281 0
M  V30 18853 C 1864.85 0.293744 2.2731 0
M  V30 18854 C 1865.85 -0.543043 1.51353 0
M  V30 18855 O 1867.04 -0.355443 1.70535 0
M  V30 18856 C 1864.17 -0.585094 3.35841 0
M  V30 18857 H 1865.36 1.12773 2.77889 0
M  V30 18858 H 1862.92 0.622329 1.43376 0
M  V30 18859 H 1863.65 -1.44114 2.9052 0
M  V30 18860 H 1863.44 0.0137777 3.92098 0
M  V30 18861 H 1864.93 -0.966203 4.06269 0
M  V30 18862 N 1865.36 -1.4549 0.605832 0
M  V30 18863 C 1866.61 -2.02551 0.100487 0
M  V30 18864 C 1866.94 -1.47346 -1.26502 0
M  V30 18865 O 1866.22 -0.647471 -1.83407 0
M  V30 18866 C 1866.5 -3.60051 0.0596664 0
M  V30 18867 C 1866.35 -4.25592 1.45572 0
M  V30 18868 C 1867.67 -4.35581 -0.629073 0
M  V30 18869 H 1864.79 -0.73602 0.0379904 0
M  V30 18870 H 1867.43 -1.73365 0.777468 0
M  V30 18871 H 1865.58 -3.85047 -0.516838 0
M  V30 18872 H 1867.25 -4.11787 2.07916 0
M  V30 18873 H 1865.5 -3.84061 2.01692 0
M  V30 18874 H 1866.17 -5.34487 1.37941 0
M  V30 18875 H 1868.64 -4.15868 -0.139076 0
M  V30 18876 H 1867.52 -5.4531 -0.626735 0
M  V30 18877 H 1867.78 -4.08323 -1.69483 0
M  V30 18878 N 1866.84 -0.344893 -1.5378 0
M  V30 18879 C 1868.07 0.252559 -2.05353 0
M  V30 18880 C 1868.48 1.44107 -1.21978 0
M  V30 18881 O 1867.84 1.80704 -0.25543 0
M  V30 18882 C 1867.89 0.666294 -3.55307 0
M  V30 18883 O 1867.61 -0.474957 -4.35518 0
M  V30 18884 C 1869.11 1.32432 -4.23056 0
M  V30 18885 H 1866.33 0.0485202 -0.669243 0
M  V30 18886 H 1868.88 -0.497271 -1.98362 0
M  V30 18887 H 1867.03 1.36606 -3.62515 0
M  V30 18888 H 1867.45 -0.144883 -5.243 0
M  V30 18889 H 1868.92 1.56456 -5.29363 0
M  V30 18890 H 1869.4 2.27829 -3.75487 0
M  V30 18891 H 1870 0.66655 -4.20044 0
M  V30 18892 N 1868.32 1.57428 -0.0735454 0
M  V30 18893 C 1869.28 2.11699 0.878419 0
M  V30 18894 C 1870.28 1.0414 1.22521 0
M  V30 18895 O 1871.47 1.30121 1.1582 0
M  V30 18896 C 1868.6 2.61979 2.18129 0
M  V30 18897 H 1869.8 2.97118 0.40755 0
M  V30 18898 H 1867.35 1.55315 0.175183 0
M  V30 18899 H 1868.08 1.80018 2.69748 0
M  V30 18900 H 1867.87 3.40599 1.94254 0
M  V30 18901 H 1869.36 3.04035 2.86273 0
M  V30 18902 N 1869.8 -0.200022 1.56326 0
M  V30 18903 C 1871.02 -0.937503 1.84441 0
M  V30 18904 C 1871.44 -1.77058 0.655428 0
M  V30 18905 O 1870.8 -1.78587 -0.375913 0
M  V30 18906 C 1870.85 -1.83766 3.11307 0
M  V30 18907 O 1870.57 -1.03823 4.2562 0
M  V30 18908 C 1872.07 -2.68724 3.52565 0
M  V30 18909 H 1869.29 -0.273767 0.612611 0
M  V30 18910 H 1871.83 -0.208759 2.03432 0
M  V30 18911 H 1869.99 -2.52009 2.94228 0
M  V30 18912 H 1870.4 -1.6512 4.97831 0
M  V30 18913 H 1871.88 -3.2755 4.44314 0
M  V30 18914 H 1872.35 -3.4219 2.75323 0
M  V30 18915 H 1872.96 -2.0586 3.72158 0
M  V30 18916 N 1871.27 -1.50505 -0.467553 0
M  V30 18917 C 1872.55 -1.52191 -1.22871 0
M  V30 18918 C 1872.93 -0.268616 -2.09384 0
M  V30 18919 O 1872.28 0.747802 -2.15917 0
M  V30 18920 C 1872.49 -2.8196 -2.05669 0
M  V30 18921 C 1873.84 -3.32757 -2.63739 0
M  V30 18922 O 1874.86 -2.83305 -2.15909 0
M  V30 18923 O 1873.72 -4.18969 -3.50895 0
M  V30 18924 H 1870.81 -0.610599 -0.557761 0
M  V30 18925 H 1873.36 -1.62797 -0.479085 0
M  V30 18926 H 1872.13 -3.64649 -1.41939 0
M  V30 18927 H 1871.76 -2.74374 -2.87758 0
M  V30 18928 N 1872.75 0.720973 -1.40142 0
M  V30 18929 C 1874 1.47785 -1.37855 0
M  V30 18930 C 1874.32 1.9499 0.0201858 0
M  V30 18931 O 1873.59 1.69972 0.973986 0
M  V30 18932 H 1872.17 0.548275 -0.507349 0
M  V30 18933 H 1874.83 0.85502 -1.75144 0
M  V30 18934 H 1873.93 2.35327 -2.05006 0
M  V30 18935 N 1874.23 1.25549 0.952634 0
M  V30 18936 C 1875.16 1.01898 2.05304 0
M  V30 18937 C 1876.18 -0.0167609 1.62791 0
M  V30 18938 O 1877.36 0.222021 1.77114 0
M  V30 18939 C 1874.46 0.518856 3.34905 0
M  V30 18940 C 1873.64 1.62121 4.06246 0
M  V30 18941 C 1872.7 1.12111 5.14118 0
M  V30 18942 O 1871.72 1.81591 5.39456 0
M  V30 18943 N 1872.92 -0.0365454 5.80488 0
M  V30 18944 H 1875.69 1.96648 2.26163 0
M  V30 18945 H 1873.25 1.16782 1.12132 0
M  V30 18946 H 1875.24 0.168729 4.04348 0
M  V30 18947 H 1873.81 -0.334763 3.10802 0
M  V30 18948 H 1873.03 2.14282 3.30873 0
M  V30 18949 H 1874.32 2.36173 4.50666 0
M  V30 18950 H 1873.72 -0.617055 5.62325 0
M  V30 18951 H 1872.28 -0.327688 6.50976 0
M  V30 18952 N 1875.71 -1.15554 1.07168 0
M  V30 18953 C 1876.67 -2.18431 0.694305 0
M  V30 18954 C 1877.67 -1.5861 -0.264497 0
M  V30 18955 O 1878.86 -1.7414 -0.0457035 0
M  V30 18956 C 1875.99 -3.40892 0.0230473 0
M  V30 18957 H 1877.19 -2.53331 1.60511 0
M  V30 18958 H 1874.74 -1.29984 0.867982 0
M  V30 18959 H 1875.47 -3.11559 -0.900083 0
M  V30 18960 H 1875.26 -3.8557 0.712622 0
M  V30 18961 H 1876.75 -4.16986 -0.226392 0
M  V30 18962 N 1877.19 -0.855519 -1.32358 0
M  V30 18963 C 1878.6 -0.545491 -1.49989 0
M  V30 18964 C 1878.8 0.923656 -1.79083 0
M  V30 18965 O 1877.86 1.70664 -1.86091 0
M  V30 18966 C 1879.17 -1.43323 -2.64347 0
M  V30 18967 C 1880.72 -1.43374 -2.78232 0
M  V30 18968 C 1881.2 -2.30671 -3.9567 0
M  V30 18969 N 1882.69 -2.28471 -4.02933 0
M  V30 18970 C 1883.42 -2.92746 -4.93039 0
M  V30 18971 N 1882.92 -3.66136 -5.88147 0
M  V30 18972 N 1884.71 -2.82129 -4.86168 0
M  V30 18973 H 1876.86 -1.80633 -1.11738 0
M  V30 18974 H 1879.12 -0.771568 -0.550805 0
M  V30 18975 H 1878.83 -2.47797 -2.49578 0
M  V30 18976 H 1878.7 -1.12125 -3.6015 0
M  V30 18977 H 1881.09 -0.396641 -2.92422 0
M  V30 18978 H 1881.17 -1.78588 -1.83139 0
M  V30 18979 H 1880.82 -3.3445 -3.82238 0
M  V30 18980 H 1880.75 -1.92789 -4.90041 0
M  V30 18981 H 1883.24 -1.75115 -3.34878 0
M  V30 18982 H 1883.55 -4.12344 -6.536 0
M  V30 18983 H 1881.9 -3.70244 -5.88171 0
M  V30 18984 H 1885.09 -2.24344 -4.10837 0
M  V30 18985 H 1885.26 -3.32502 -5.56189 0
M  V30 18986 N 1878.67 1.45167 -0.61354 0
M  V30 18987 C 1880.08 1.85674 -0.19544 0
M  V30 18988 C 1880.43 1.51303 1.24908 0
M  V30 18989 O 1879.55 0.94257 1.94794 0
M  V30 18990 C 1880.15 3.37009 -0.347921 0
M  V30 18991 C 1878.71 3.76397 0.0155323 0
M  V30 18992 C 1877.85 2.69095 -0.669578 0
M  V30 18993 H 1880.8 1.35883 -0.819842 0
M  V30 18994 H 1880.83 3.78195 0.418185 0
M  V30 18995 H 1880.34 3.61994 -1.39935 0
M  V30 18996 H 1878.44 3.57028 1.06591 0
M  V30 18997 H 1878.55 4.77573 -0.382267 0
M  V30 18998 H 1876.92 2.54477 -0.10662 0
M  V30 18999 H 1877.7 2.96915 -1.72326 0
M  V30 19000 N 1880.14 0.353044 1.53595 0
M  V30 19001 C 1881.55 -0.128852 1.86255 0
M  V30 19002 C 1881.91 -1.49209 1.27402 0
M  V30 19003 O 1881.03 -2.08167 0.591222 0
M  V30 19004 C 1881.63 -0.240583 3.37945 0
M  V30 19005 C 1880.18 -0.66672 3.70448 0
M  V30 19006 C 1879.33 0.193757 2.76622 0
M  V30 19007 H 1882.28 0.5723 1.48022 0
M  V30 19008 H 1882.3 -1.06641 3.65251 0
M  V30 19009 H 1881.82 0.75174 3.8075 0
M  V30 19010 H 1879.92 -1.66773 3.33193 0
M  V30 19011 H 1880.03 -0.450026 4.76982 0
M  V30 19012 H 1878.39 -0.335406 2.52482 0
M  V30 19013 H 1879.18 1.18339 3.22259 0
M  V30 19014 N 1881.62 -1.57387 0.0818932 0
M  V30 19015 C 1882.58 -2.12162 -0.86718 0
M  V30 19016 C 1883.58 -1.04788 -1.21967 0
M  V30 19017 O 1884.77 -1.30733 -1.15128 0
M  V30 19018 C 1881.91 -2.63132 -2.16736 0
M  V30 19019 H 1883.1 -2.9733 -0.391788 0
M  V30 19020 H 1880.65 -1.55406 -0.166944 0
M  V30 19021 H 1881.39 -1.81446 -2.6879 0
M  V30 19022 H 1881.17 -3.41625 -1.92445 0
M  V30 19023 H 1882.66 -3.05549 -2.84657 0
M  V30 19024 N 1883.1 0.191729 -1.56429 0
M  V30 19025 C 1884.52 0.542701 -1.5009 0
M  V30 19026 C 1884.72 1.85685 -0.782522 0
M  V30 19027 O 1883.77 2.50275 -0.334432 0
M  V30 19028 C 1885.08 0.594326 -2.94768 0
M  V30 19029 C 1886.63 0.682929 -3.05459 0
M  V30 19030 C 1887.11 0.765634 -4.51555 0
M  V30 19031 N 1888.6 0.829072 -4.5572 0
M  V30 19032 C 1889.33 0.91329 -5.6608 0
M  V30 19033 N 1888.83 0.959603 -6.86122 0
M  V30 19034 N 1890.62 0.950739 -5.54001 0
M  V30 19035 H 1882.77 -0.670241 -2.01548 0
M  V30 19036 H 1885.04 -0.239168 -0.917335 0
M  V30 19037 H 1884.74 -0.302238 -3.50399 0
M  V30 19038 H 1884.62 1.44787 -3.48305 0
M  V30 19039 H 1887 1.56992 -2.49875 0
M  V30 19040 H 1887.08 -0.19688 -2.55041 0
M  V30 19041 H 1886.73 -0.117022 -5.07765 0
M  V30 19042 H 1886.66 1.66129 -4.99709 0
M  V30 19043 H 1889.15 0.802391 -3.69283 0
M  V30 19044 H 1889.46 1.02447 -7.65979 0
M  V30 19045 H 1887.81 0.928223 -6.88774 0
M  V30 19046 H 1891 0.911418 -4.59141 0
M  V30 19047 H 1891.17 1.01291 -6.40034 0
M  V30 19048 N 1884.58 1.50751 0.459565 0
M  V30 19049 C 1885.51 1.73389 1.56392 0
M  V30 19050 C 1886.49 0.583101 1.59793 0
M  V30 19051 O 1887.67 0.823474 1.75876 0
M  V30 19052 C 1884.8 1.83861 2.94639 0
M  V30 19053 C 1883.76 2.9914 3.06103 0
M  V30 19054 C 1883.08 2.94768 4.46112 0
M  V30 19055 C 1884.38 4.39471 2.82246 0
M  V30 19056 H 1886.08 2.65856 1.37699 0
M  V30 19057 H 1883.62 1.27933 0.661001 0
M  V30 19058 H 1885.58 1.98283 3.71836 0
M  V30 19059 H 1884.3 0.880254 3.14514 0
M  V30 19060 H 1882.96 2.84388 2.31342 0
M  V30 19061 H 1882.61 1.96755 4.62922 0
M  V30 19062 H 1882.31 3.72166 4.54716 0
M  V30 19063 H 1883.83 3.11254 5.25313 0
M  V30 19064 H 1885.25 4.54689 3.49186 0
M  V30 19065 H 1883.64 5.18406 3.02283 0
M  V30 19066 H 1884.71 4.51043 1.78012 0
M  V30 19067 N 1886.06 -0.713531 1.40522 0
M  V30 19068 C 1887.3 -1.47561 1.39117 0
M  V30 19069 C 1887.63 -1.94199 -0.00592038 0
M  V30 19070 O 1886.91 -1.68301 -0.974941 0
M  V30 19071 C 1887.19 -2.70023 2.38242 0
M  V30 19072 C 1887.05 -2.29266 3.86984 0
M  V30 19073 C 1888.36 -3.72185 2.34875 0
M  V30 19074 H 1885.48 -0.535243 0.50664 0
M  V30 19075 H 1888.13 -0.814172 1.71672 0
M  V30 19076 H 1886.28 -3.26458 2.10611 0
M  V30 19077 H 1887.95 -1.78297 4.2545 0
M  V30 19078 H 1886.19 -1.61246 4.02719 0
M  V30 19079 H 1886.86 -3.17057 4.51862 0
M  V30 19080 H 1889.34 -3.25384 2.59354 0
M  V30 19081 H 1888.21 -4.55507 3.06276 0
M  V30 19082 H 1888.47 -4.20627 1.36108 0
M  V30 19083 N 1887.53 -1.26053 -0.945962 0
M  V30 19084 C 1888.78 -1.11095 -1.68826 0
M  V30 19085 C 1889.1 0.347174 -1.91885 0
M  V30 19086 O 1888.37 1.24545 -1.51213 0
M  V30 19087 H 1886.95 -0.408128 -0.625652 0
M  V30 19088 H 1889.61 -1.58309 -1.13686 0
M  V30 19089 H 1888.71 -1.626 -2.66397 0
M  V30 19090 N 1889.01 1.14984 -1.07779 0
M  V30 19091 C 1890.26 1.86375 -0.81462 0
M  V30 19092 C 1890.61 1.81002 0.652385 0
M  V30 19093 O 1889.91 1.2253 1.47299 0
M  V30 19094 C 1890.1 3.34355 -1.26259 0
M  V30 19095 C 1889.93 3.54136 -2.7716 0
M  V30 19096 C 1888.7 3.69356 -3.44825 0
M  V30 19097 C 1890.9 3.51594 -3.75348 0
M  V30 19098 N 1888.88 3.77232 -4.84323 0
M  V30 19099 C 1890.25 3.65637 -5.00709 0
M  V30 19100 C 1892.3 3.34893 -3.68444 0
M  V30 19101 C 1891.01 3.64705 -6.19986 0
M  V30 19102 C 1893.03 3.35262 -4.87189 0
M  V30 19103 C 1892.4 3.49839 -6.11386 0
M  V30 19104 H 1888.49 0.698946 -0.350711 0
M  V30 19105 H 1891.08 1.37857 -1.3749 0
M  V30 19106 H 1889.25 3.81479 -0.729958 0
M  V30 19107 H 1890.98 3.93476 -0.946503 0
M  V30 19108 H 1887.74 3.70315 -2.95235 0
M  V30 19109 H 1888.16 3.84903 -5.56937 0
M  V30 19110 H 1892.8 3.22539 -2.73365 0
M  V30 19111 H 1890.52 3.75836 -7.15383 0
M  V30 19112 H 1894.11 3.23561 -4.83528 0
M  V30 19113 H 1892.99 3.50063 -7.01731 0
M  V30 19114 N 1890.49 0.862526 1.31902 0
M  V30 19115 C 1891.72 0.484006 2.01159 0
M  V30 19116 C 1892.13 -0.92148 1.64785 0
M  V30 19117 O 1891.49 -1.60254 0.873216 0
M  V30 19118 C 1891.54 0.622709 3.56096 0
M  V30 19119 O 1891.26 1.97284 3.91166 0
M  V30 19120 C 1892.76 0.244225 4.42627 0
M  V30 19121 H 1889.98 0.189378 0.643721 0
M  V30 19122 H 1892.53 1.16164 1.68304 0
M  V30 19123 H 1890.68 -0.00728166 3.87399 0
M  V30 19124 H 1891.1 1.97525 4.85885 0
M  V30 19125 H 1892.57 0.392254 5.50605 0
M  V30 19126 H 1893.05 -0.816006 4.31553 0
M  V30 19127 H 1893.65 0.84961 4.16727 0
M  V30 19128 N 1891.97 -1.4484 0.62123 0
M  V30 19129 C 1892.93 -2.29061 -0.0797989 0
M  V30 19130 C 1893.93 -1.40508 -0.781932 0
M  V30 19131 O 1895.12 -1.62485 -0.628023 0
M  V30 19132 C 1892.25 -3.21857 -1.12342 0
M  V30 19133 H 1893.45 -2.92528 0.66084 0
M  V30 19134 H 1891 -1.51588 0.3809 0
M  V30 19135 H 1891.73 -2.63218 -1.89437 0
M  V30 19136 H 1891.52 -3.87103 -0.624003 0
M  V30 19137 H 1893.01 -3.8515 -1.61398 0
M  V30 19138 N 1893.45 -0.361184 -1.53405 0
M  V30 19139 C 1894.86 -0.00994785 -1.59597 0
M  V30 19140 C 1895.06 1.47156 -1.37649 0
M  V30 19141 O 1894.12 2.23259 -1.17947 0
M  V30 19142 C 1895.43 -0.461942 -2.97131 0
M  V30 19143 C 1896.98 -0.415787 -3.10226 0
M  V30 19144 C 1897.45 -0.843524 -4.50165 0
M  V30 19145 N 1898.95 -0.798408 -4.56267 0
M  V30 19146 C 1899.68 -1.10112 -5.62728 0
M  V30 19147 N 1899.18 -1.47288 -6.76962 0
M  V30 19148 N 1900.97 -1.0242 -5.5269 0
M  V30 19149 H 1893.12 -1.32601 -1.65924 0
M  V30 19150 H 1895.38 -0.541705 -0.777985 0
M  V30 19151 H 1895.09 -1.49559 -3.18316 0
M  V30 19152 H 1894.96 0.15373 -3.76887 0
M  V30 19153 H 1897.35 0.608719 -2.88754 0
M  V30 19154 H 1897.43 -1.0669 -2.32489 0
M  V30 19155 H 1897.08 -1.86612 -4.72375 0
M  V30 19156 H 1897.01 -0.16971 -5.26326 0
M  V30 19157 H 1899.5 -0.524463 -3.74243 0
M  V30 19158 H 1899.81 -1.68824 -7.54134 0
M  V30 19159 H 1898.15 -1.51149 -6.78365 0
M  V30 19160 H 1901.35 -0.732979 -4.62326 0
M  V30 19161 H 1901.52 -1.26344 -6.35564 0
M  V30 19162 N 1894.92 1.57341 -0.0902386 0
M  V30 19163 C 1896.17 1.94176 0.574609 0
M  V30 19164 C 1896.5 0.971636 1.68492 0
M  V30 19165 O 1895.75 -0.00961728 1.95698 0
M  V30 19166 C 1896.05 3.37566 1.17404 0
M  V30 19167 C 1895.72 4.50508 0.188019 0
M  V30 19168 C 1894.38 4.81128 -0.0831922 0
M  V30 19169 C 1896.73 5.18934 -0.485519 0
M  V30 19170 C 1894.06 5.77504 -1.03472 0
M  V30 19171 C 1896.41 6.1633 -1.42548 0
M  V30 19172 C 1895.08 6.45358 -1.70498 0
M  V30 19173 H 1894.35 0.710542 0.210264 0
M  V30 19174 H 1896.99 1.90788 -0.165039 0
M  V30 19175 H 1895.3 3.3751 1.98984 0
M  V30 19176 H 1897 3.63365 1.69607 0
M  V30 19177 H 1893.59 4.26638 0.40959 0
M  V30 19178 H 1897.77 4.95457 -0.289126 0
M  V30 19179 H 1893.03 5.98311 -1.25831 0
M  V30 19180 H 1897.2 6.68447 -1.95323 0
M  V30 19181 H 1894.83 7.19846 -2.44387 0
M  V30 19182 N 1896.4 -0.183431 1.56529 0
M  V30 19183 C 1897.33 -1.22973 1.98494 0
M  V30 19184 C 1898.31 -1.46837 0.858653 0
M  V30 19185 O 1899.5 -1.58377 1.12385 0
M  V30 19186 C 1896.63 -2.57138 2.33446 0
M  V30 19187 C 1895.58 -2.47865 3.48922 0
M  V30 19188 C 1894.91 -3.8641 3.69582 0
M  V30 19189 C 1896.21 -1.99371 4.82751 0
M  V30 19190 H 1897.9 -0.880938 2.86147 0
M  V30 19191 H 1895.45 -0.422321 1.37668 0
M  V30 19192 H 1897.4 -3.30527 2.614 0
M  V30 19193 H 1896.13 -2.93781 1.42689 0
M  V30 19194 H 1894.78 -1.76932 3.21077 0
M  V30 19195 H 1894.43 -4.20426 2.76136 0
M  V30 19196 H 1894.13 -3.81077 4.47274 0
M  V30 19197 H 1895.66 -4.61403 3.99924 0
M  V30 19198 H 1897.07 -2.62526 5.0966 0
M  V30 19199 H 1895.47 -2.05014 5.63994 0
M  V30 19200 H 1896.54 -0.947442 4.75554 0
M  V30 19201 N 1897.88 -1.50992 -0.451564 0
M  V30 19202 C 1899.13 -1.62633 -1.19978 0
M  V30 19203 C 1899.45 -0.337971 -1.92049 0
M  V30 19204 O 1898.72 0.645542 -1.84958 0
M  V30 19205 H 1897.3 -0.599345 -0.445864 0
M  V30 19206 H 1899.96 -1.8786 -0.519104 0
M  V30 19207 H 1899.06 -2.44709 -1.93711 0
M  V30 19208 N 1899.36 0.706069 -1.40899 0
M  V30 19209 C 1900.29 1.83004 -1.36327 0
M  V30 19210 C 1901.27 1.60934 -0.232136 0
M  V30 19211 O 1902.45 1.83822 -0.417348 0
M  V30 19212 C 1899.58 3.19508 -1.12395 0
M  V30 19213 C 1898.63 3.60387 -2.28086 0
M  V30 19214 S 1899.46 3.66403 -3.90524 0
M  V30 19215 C 1900.62 5.0565 -3.68874 0
M  V30 19216 H 1900.85 1.86603 -2.31445 0
M  V30 19217 H 1898.38 0.873772 -1.27297 0
M  V30 19218 H 1900.34 3.98315 -0.992725 0
M  V30 19219 H 1899 3.1353 -0.189145 0
M  V30 19220 H 1898.19 4.59526 -2.07008 0
M  V30 19221 H 1897.8 2.88861 -2.37561 0
M  V30 19222 H 1900.09 5.92847 -3.27931 0
M  V30 19223 H 1901.03 5.31767 -4.67578 0
M  V30 19224 H 1901.44 4.76693 -3.02364 0
M  V30 19225 N 1900.84 1.26553 0.939264 0
M  V30 19226 C 1902.08 1.12376 1.68818 0
M  V30 19227 C 1902.42 -0.331784 1.91345 0
M  V30 19228 O 1901.69 -1.24359 1.4955 0
M  V30 19229 C 1901.97 1.89541 3.0618 0
M  V30 19230 C 1901.83 3.43014 2.90966 0
M  V30 19231 C 1903.15 1.69074 4.06327 0
M  V30 19232 H 1900.26 0.409616 0.612686 0
M  V30 19233 H 1902.91 1.55571 1.09076 0
M  V30 19234 H 1901.06 1.5283 3.57177 0
M  V30 19235 H 1902.73 3.89489 2.47176 0
M  V30 19236 H 1900.97 3.69942 2.26551 0
M  V30 19237 H 1901.64 3.92236 3.88401 0
M  V30 19238 H 1904.12 2.01061 3.64299 0
M  V30 19239 H 1902.99 2.25478 5.00451 0
M  V30 19240 H 1903.26 0.635787 4.37504 0
M  V30 19241 N 1902.31 -1.14411 1.08387 0
M  V30 19242 C 1903.73 -1.37432 0.811464 0
M  V30 19243 C 1903.93 -1.92992 -0.579345 0
M  V30 19244 O 1902.99 -2.14249 -1.33618 0
M  V30 19245 C 1904.3 -2.33557 1.89398 0
M  V30 19246 C 1905.85 -2.47197 1.91996 0
M  V30 19247 C 1906.32 -3.46622 2.99361 0
M  V30 19248 N 1907.81 -3.54165 2.98532 0
M  V30 19249 C 1908.55 -4.30946 3.78249 0
M  V30 19250 N 1908.04 -5.10972 4.67846 0
M  V30 19251 N 1909.84 -4.26141 3.66552 0
M  V30 19252 H 1901.99 -0.76694 1.9807 0
M  V30 19253 H 1904.25 -0.399866 0.859541 0
M  V30 19254 H 1903.96 -1.99868 2.89388 0
M  V30 19255 H 1903.83 -3.33459 1.7631 0
M  V30 19256 H 1906.22 -2.80178 0.926513 0
M  V30 19257 H 1906.3 -1.47258 2.09162 0
M  V30 19258 H 1905.94 -3.14374 3.98913 0
M  V30 19259 H 1905.87 -4.46341 2.7944 0
M  V30 19260 H 1908.36 -2.97057 2.33593 0
M  V30 19261 H 1908.68 -5.66834 5.2528 0
M  V30 19262 H 1907.02 -5.10241 4.71889 0
M  V30 19263 H 1910.21 -3.62693 2.95925 0
M  V30 19264 H 1910.39 -4.85729 4.28919 0
M  V30 19265 N 1903.79 -0.869509 -1.31443 0
M  V30 19266 C 1905.2 -0.532842 -1.78935 0
M  V30 19267 C 1905.55 0.95022 -1.71654 0
M  V30 19268 O 1904.68 1.74189 -1.28402 0
M  V30 19269 C 1905.27 -0.960439 -3.24902 0
M  V30 19270 C 1903.83 -0.675436 -3.7029 0
M  V30 19271 C 1902.98 -1.15201 -2.52238 0
M  V30 19272 H 1905.93 -1.05527 -1.18531 0
M  V30 19273 H 1905.95 -0.282921 -3.79447 0
M  V30 19274 H 1905.46 -2.03986 -3.30168 0
M  V30 19275 H 1903.57 0.392647 -3.70525 0
M  V30 19276 H 1903.68 -1.25214 -4.62448 0
M  V30 19277 H 1902.04 -0.571786 -2.48199 0
M  V30 19278 H 1902.83 -2.23885 -2.60251 0
M  V30 19279 N 1905.27 1.44508 -0.628902 0
M  V30 19280 C 1906.52 2.01667 -0.13224 0
M  V30 19281 C 1906.84 1.49706 1.24953 0
M  V30 19282 O 1906.11 0.699769 1.82976 0
M  V30 19283 H 1904.69 0.745589 -0.0458966 0
M  V30 19284 H 1907.35 1.77037 -0.815102 0
M  V30 19285 H 1906.45 3.11945 -0.0982328 0
M  V30 19286 N 1906.75 0.369315 1.53212 0
M  V30 19287 C 1908.03 -0.275781 1.93646 0
M  V30 19288 C 1908.41 -1.66075 1.30316 0
M  V30 19289 O 1907.75 -2.23746 0.463658 0
M  V30 19290 C 1907.96 -0.322239 3.47509 0
M  V30 19291 C 1909.31 -0.560798 4.2088 0
M  V30 19292 O 1910.34 -0.403291 3.5391 0
M  V30 19293 O 1909.2 -0.86778 5.39566 0
M  V30 19294 H 1906.29 -0.166296 0.810108 0
M  V30 19295 H 1908.84 0.42237 1.6436 0
M  V30 19296 H 1907.61 0.648648 3.85886 0
M  V30 19297 H 1907.23 -1.06613 3.8304 0
M  V30 19298 N 1908.23 -1.57291 0.0985816 0
M  V30 19299 C 1909.14 -2.17742 -0.873245 0
M  V30 19300 C 1910.15 -1.14784 -1.3077 0
M  V30 19301 O 1911.33 -1.47169 -1.37489 0
M  V30 19302 C 1908.39 -2.74864 -2.11308 0
M  V30 19303 C 1907.46 -3.92789 -1.73249 0
M  V30 19304 C 1906.69 -4.47177 -2.91322 0
M  V30 19305 O 1906.91 -4.00497 -4.06151 0
M  V30 19306 O 1905.85 -5.38151 -2.69587 0
M  V30 19307 H 1909.67 -3.012 -0.388902 0
M  V30 19308 H 1907.26 -1.48868 -0.125955 0
M  V30 19309 H 1909.14 -3.11359 -2.8396 0
M  V30 19310 H 1907.81 -1.9445 -2.58787 0
M  V30 19311 H 1906.72 -3.61099 -0.977663 0
M  V30 19312 H 1908.05 -4.74577 -1.3053 0
M  V30 19313 N 1909.71 0.175127 -1.56624 0
M  V30 19314 C 1910.95 0.89369 -1.82047 0
M  V30 19315 C 1911.28 1.82061 -0.675831 0
M  V30 19316 O 1910.56 1.91808 0.322453 0
M  V30 19317 C 1910.84 1.69266 -3.17838 0
M  V30 19318 C 1910.7 0.789122 -4.42824 0
M  V30 19319 C 1912.01 2.66115 -3.50529 0
M  V30 19320 H 1909.13 0.323454 -0.662228 0
M  V30 19321 H 1911.78 0.160077 -1.89324 0
M  V30 19322 H 1909.93 2.31808 -3.11765 0
M  V30 19323 H 1911.6 0.17687 -4.60961 0
M  V30 19324 H 1909.84 0.0969508 -4.33692 0
M  V30 19325 H 1910.51 1.38358 -5.34379 0
M  V30 19326 H 1912.99 2.137 -3.57031 0
M  V30 19327 H 1911.86 3.19087 -4.46626 0
M  V30 19328 H 1912.12 3.4613 -2.75038 0
M  V30 19329 N 1911.18 1.5123 0.44355 0
M  V30 19330 C 1912.46 1.54127 1.20434 0
M  V30 19331 C 1912.84 0.301893 2.0893 0
M  V30 19332 O 1912.19 -0.713356 2.17079 0
M  V30 19333 C 1912.4 2.85196 2.01157 0
M  V30 19334 C 1913.75 3.3691 2.58411 0
M  V30 19335 O 1914.77 2.86704 2.11374 0
M  V30 19336 O 1913.63 4.24498 3.44185 0
M  V30 19337 H 1910.72 0.619396 0.547976 0
M  V30 19338 H 1913.27 1.63539 0.453125 0
M  V30 19339 H 1912.04 3.66861 1.3612 0
M  V30 19340 H 1911.66 2.78917 2.83357 0
M  V30 19341 N 1912.66 -0.698586 1.41271 0
M  V30 19342 C 1913.91 -1.45861 1.40466 0
M  V30 19343 C 1914.24 -1.94496 0.0127551 0
M  V30 19344 O 1913.49 -1.69692 -0.974843 0
M  V30 19345 C 1913.79 -2.688 2.35545 0
M  V30 19346 C 1913.46 -2.38839 3.82449 0
M  V30 19347 C 1912.12 -2.30378 4.22468 0
M  V30 19348 C 1914.47 -2.14065 4.75211 0
M  V30 19349 C 1911.8 -1.95236 5.53263 0
M  V30 19350 C 1914.15 -1.80432 6.06323 0
M  V30 19351 C 1912.81 -1.70465 6.45367 0
M  V30 19352 H 1912.08 -0.533744 0.514002 0
M  V30 19353 H 1914.73 -0.798723 1.74048 0
M  V30 19354 H 1913.04 -3.39708 1.95207 0
M  V30 19355 H 1914.73 -3.26933 2.32197 0
M  V30 19356 H 1911.32 -2.46317 3.50751 0
M  V30 19357 H 1915.51 -2.19548 4.45098 0
M  V30 19358 H 1910.76 -1.86069 5.82399 0
M  V30 19359 H 1914.94 -1.60281 6.77704 0
M  V30 19360 H 1912.56 -1.43002 7.46629 0
M  V30 19361 N 1914.14 -1.27049 -0.93254 0
M  V30 19362 C 1915.56 -1.04349 -1.20762 0
M  V30 19363 C 1915.76 0.225981 -2.00229 0
M  V30 19364 O 1914.81 0.932788 -2.34639 0
M  V30 19365 C 1916.12 -2.28004 -1.96048 0
M  V30 19366 C 1917.67 -2.32993 -2.09006 0
M  V30 19367 C 1918.15 -3.56364 -2.87696 0
M  V30 19368 N 1919.64 -3.56892 -2.95266 0
M  V30 19369 C 1920.37 -4.49022 -3.56604 0
M  V30 19370 N 1919.87 -5.51451 -4.19374 0
M  V30 19371 N 1921.66 -4.36656 -3.53961 0
M  V30 19372 H 1913.81 -2.0857 -0.401516 0
M  V30 19373 H 1916.08 -0.917061 -0.240213 0
M  V30 19374 H 1915.78 -3.20386 -1.45072 0
M  V30 19375 H 1915.66 -2.32937 -2.96682 0
M  V30 19376 H 1918.04 -1.41119 -2.5917 0
M  V30 19377 H 1918.12 -2.32065 -1.07607 0
M  V30 19378 H 1917.77 -4.48571 -2.38216 0
M  V30 19379 H 1917.7 -3.54541 -3.89369 0
M  V30 19380 H 1920.19 -2.82812 -2.5065 0
M  V30 19381 H 1920.5 -6.17924 -4.64101 0
M  V30 19382 H 1918.85 -5.55298 -4.17934 0
M  V30 19383 H 1922.04 -3.55848 -3.04122 0
M  V30 19384 H 1922.21 -5.08647 -4.01475 0
M  V30 19385 N 1915.62 1.13835 -1.08993 0
M  V30 19386 C 1916.86 1.85284 -0.824476 0
M  V30 19387 C 1917.2 1.83062 0.648235 0
M  V30 19388 O 1916.47 1.26555 1.47696 0
M  V30 19389 C 1916.75 3.33649 -1.35463 0
M  V30 19390 C 1916.61 3.44411 -2.89312 0
M  V30 19391 C 1917.93 4.28941 -0.984768 0
M  V30 19392 H 1915.05 0.672745 -0.300971 0
M  V30 19393 H 1917.69 1.3364 -1.35057 0
M  V30 19394 H 1915.84 3.77761 -0.907128 0
M  V30 19395 H 1917.51 3.09043 -3.42477 0
M  V30 19396 H 1915.75 2.85429 -3.26669 0
M  V30 19397 H 1916.42 4.48724 -3.21481 0
M  V30 19398 H 1918.9 3.92877 -1.37064 0
M  V30 19399 H 1917.78 5.31196 -1.38283 0
M  V30 19400 H 1918.04 4.41969 0.10755 0
M  V30 19401 N 1917.1 0.876467 1.3098 0
M  V30 19402 C 1918.01 0.340667 2.32113 0
M  V30 19403 C 1919.02 -0.552749 1.64987 0
M  V30 19404 O 1920.2 -0.447909 1.96356 0
M  V30 19405 C 1917.26 -0.443504 3.43852 0
M  V30 19406 C 1916.32 0.478646 4.26623 0
M  V30 19407 C 1915.56 -0.268194 5.33026 0
M  V30 19408 O 1915.78 -1.49543 5.50448 0
M  V30 19409 O 1914.71 0.377306 6.00716 0
M  V30 19410 H 1918.54 1.1791 2.79877 0
M  V30 19411 H 1916.12 0.640037 1.34996 0
M  V30 19412 H 1918.01 -0.887816 4.11941 0
M  V30 19413 H 1916.68 -1.25838 2.98239 0
M  V30 19414 H 1915.59 0.971593 3.61263 0
M  V30 19415 H 1916.92 1.25929 4.75818 0
M  V30 19416 N 1918.57 -1.44173 0.636557 0
M  V30 19417 C 1919.99 -1.56704 0.302646 0
M  V30 19418 C 1920.19 -1.62316 -1.19398 0
M  V30 19419 O 1919.25 -1.56914 -1.97824 0
M  V30 19420 C 1920.56 -2.83608 0.999346 0
M  V30 19421 C 1922.11 -2.97328 0.978005 0
M  V30 19422 C 1922.58 -4.27042 1.65527 0
M  V30 19423 N 1924.07 -4.33868 1.62212 0
M  V30 19424 C 1924.81 -5.32966 2.11505 0
M  V30 19425 N 1924.3 -6.38439 2.69012 0
M  V30 19426 N 1926.1 -5.24511 2.02102 0
M  V30 19427 H 1918.25 -1.38773 1.60797 0
M  V30 19428 H 1920.51 -0.665369 0.675269 0
M  V30 19429 H 1920.22 -2.85466 2.05432 0
M  V30 19430 H 1920.09 -3.73308 0.540484 0
M  V30 19431 H 1922.48 -2.9502 -0.0685065 0
M  V30 19432 H 1922.56 -2.08963 1.47541 0
M  V30 19433 H 1922.2 -4.30109 2.70126 0
M  V30 19434 H 1922.13 -5.14275 1.13266 0
M  V30 19435 H 1924.62 -3.58264 1.20231 0
M  V30 19436 H 1924.94 -7.10348 3.04344 0
M  V30 19437 H 1923.28 -6.39109 2.73066 0
M  V30 19438 H 1926.47 -4.41024 1.56892 0
M  V30 19439 H 1926.65 -6.01586 2.40828 0
M  V30 19440 N 1920.05 -0.377435 -1.53014 0
M  V30 19441 C 1921.3 0.208838 -2.01722 0
M  V30 19442 C 1921.63 1.47446 -1.26385 0
M  V30 19443 O 1920.91 1.91122 -0.360903 0
M  V30 19444 C 1921.19 0.4888 -3.56767 0
M  V30 19445 C 1921.04 -0.791285 -4.42785 0
M  V30 19446 C 1922.36 1.28443 -4.2094 0
M  V30 19447 H 1919.48 0.0744281 -0.733232 0
M  V30 19448 H 1922.12 -0.504664 -1.83175 0
M  V30 19449 H 1920.27 1.09662 -3.72702 0
M  V30 19450 H 1921.94 -1.42848 -4.38625 0
M  V30 19451 H 1920.19 -1.40914 -4.10275 0
M  V30 19452 H 1920.86 -0.550199 -5.49251 0
M  V30 19453 H 1923.33 0.770147 -4.08911 0
M  V30 19454 H 1922.21 1.44906 -5.29427 0
M  V30 19455 H 1922.47 2.29631 -3.77786 0
M  V30 19456 N 1921.53 1.57237 -0.106922 0
M  V30 19457 C 1922.78 1.9439 0.552888 0
M  V30 19458 C 1923.1 0.990316 1.67981 0
M  V30 19459 O 1922.37 0.0444502 1.9585 0
M  V30 19460 H 1920.95 0.71768 0.20723 0
M  V30 19461 H 1923.61 1.9413 -0.17303 0
M  V30 19462 H 1922.71 2.97118 0.955369 0
M  V30 19463 N 1923.01 -0.166818 1.56715 0
M  V30 19464 C 1924.26 -0.881043 1.8144 0
M  V30 19465 C 1924.57 -1.83216 0.684925 0
M  V30 19466 O 1925.78 -2.58908 0.817234 0
M  V30 19467 C 1924.23 -1.61724 3.21517 0
M  V30 19468 C 1923.84 -0.709534 4.42346 0
M  V30 19469 C 1925.58 -2.31943 3.55532 0
M  V30 19470 C 1923.49 -1.44622 5.73444 0
M  V30 19471 H 1922.42 -0.332741 0.676609 0
M  V30 19472 H 1925.07 -0.133924 1.83011 0
M  V30 19473 H 1923.45 -2.40928 3.14277 0
M  V30 19474 H 1924.63 0.0458591 4.60777 0
M  V30 19475 H 1922.94 -0.116776 4.16236 0
M  V30 19476 H 1925.54 -2.87662 4.50727 0
M  V30 19477 H 1925.88 -3.07495 2.80629 0
M  V30 19478 H 1926.42 -1.59678 3.64346 0
M  V30 19479 H 1923.16 -0.732937 6.51389 0
M  V30 19480 H 1922.68 -2.17483 5.58982 0
M  V30 19481 H 1924.35 -1.9925 6.15555 0
M  V30 19482 N 1924.49 -1.51463 -0.435524 0
M  V30 19483 C 1925.76 -1.54763 -1.19615 0
M  V30 19484 C 1926.14 -0.312969 -2.08767 0
M  V30 19485 O 1925.49 0.701834 -2.17455 0
M  V30 19486 C 1925.7 -2.86259 -1.99642 0
M  V30 19487 C 1927.05 -3.38276 -2.56621 0
M  V30 19488 O 1928.07 -2.87821 -2.09851 0
M  V30 19489 O 1926.93 -4.26318 -3.41929 0
M  V30 19490 H 1924.03 -0.622293 -0.544684 0
M  V30 19491 H 1926.57 -1.63777 -0.444446 0
M  V30 19492 H 1925.34 -3.67578 -1.34173 0
M  V30 19493 H 1924.97 -2.80416 -2.81874 0
M  V30 19494 N 1925.96 0.691085 -1.4164 0
M  V30 19495 C 1926.9 1.81646 -1.39776 0
M  V30 19496 C 1927.91 1.60026 -0.299243 0
M  V30 19497 O 1929.1 1.69446 -0.561266 0
M  V30 19498 C 1926.2 3.18486 -1.15845 0
M  V30 19499 C 1925.37 3.67096 -2.37822 0
M  V30 19500 C 1924.43 4.82618 -2.09681 0
M  V30 19501 O 1923.46 4.94002 -2.82756 0
M  V30 19502 N 1924.66 5.70178 -1.08983 0
M  V30 19503 H 1927.42 1.83736 -2.36773 0
M  V30 19504 H 1924.98 0.873576 -1.36309 0
M  V30 19505 H 1926.98 3.934 -0.949639 0
M  V30 19506 H 1925.55 3.11394 -0.274301 0
M  V30 19507 H 1924.77 2.83038 -2.74377 0
M  V30 19508 H 1926.05 3.96312 -3.19083 0
M  V30 19509 H 1925.45 5.63616 -0.48512 0
M  V30 19510 H 1924.01 6.44973 -0.940906 0
M  V30 19511 N 1927.44 1.27542 0.925789 0
M  V30 19512 C 1928.69 1.13767 1.67038 0
M  V30 19513 C 1929.01 -0.316603 1.92413 0
M  V30 19514 O 1928.28 -1.22124 1.53175 0
M  V30 19515 H 1926.86 0.41803 0.61908 0
M  V30 19516 H 1929.52 1.60097 1.11153 0
M  V30 19517 H 1928.62 1.66818 2.63777 0
M  V30 19518 N 1928.92 -1.13255 1.09595 0
M  V30 19519 C 1929.88 -2.16909 0.740481 0
M  V30 19520 C 1930.88 -1.59135 -0.230794 0
M  V30 19521 O 1932.07 -1.74198 -0.00875551 0
M  V30 19522 C 1929.21 -3.40767 0.0953504 0
M  V30 19523 H 1930.4 -2.49869 1.65848 0
M  V30 19524 H 1927.95 -1.28113 0.895358 0
M  V30 19525 H 1928.69 -3.13398 -0.833794 0
M  V30 19526 H 1928.47 -3.83972 0.794247 0
M  V30 19527 H 1929.96 -4.17372 -0.137892 0
M  V30 19528 N 1930.4 -0.883401 -1.30514 0
M  V30 19529 C 1931.31 -0.352971 -2.31929 0
M  V30 19530 C 1932.32 0.543992 -1.65278 0
M  V30 19531 O 1933.5 0.437489 -1.96591 0
M  V30 19532 C 1930.57 0.425263 -3.44082 0
M  V30 19533 C 1929.63 -0.501265 -4.26363 0
M  V30 19534 C 1928.86 0.239923 -5.3316 0
M  V30 19535 O 1929.08 1.46622 -5.51233 0
M  V30 19536 O 1928.02 -0.409158 -6.00508 0
M  V30 19537 H 1931.84 -1.19393 -2.79247 0
M  V30 19538 H 1929.43 -0.647187 -1.34655 0
M  V30 19539 H 1931.31 0.865957 -4.12407 0
M  V30 19540 H 1929.98 1.24255 -2.98902 0
M  V30 19541 H 1928.89 -0.990738 -3.60743 0
M  V30 19542 H 1930.22 -1.28451 -4.75143 0
M  V30 19543 N 1931.88 1.43833 -0.644194 0
M  V30 19544 C 1933.13 2.01132 -0.151307 0
M  V30 19545 C 1933.44 1.51363 1.23889 0
M  V30 19546 O 1934.64 2.00876 1.8265 0
M  V30 19547 C 1933.1 3.59229 -0.219714 0
M  V30 19548 C 1932.71 4.17992 -1.61204 0
M  V30 19549 C 1934.45 4.2395 0.216034 0
M  V30 19550 C 1932.36 5.68354 -1.63486 0
M  V30 19551 H 1931.29 0.752149 -0.052802 0
M  V30 19552 H 1933.94 1.64904 -0.804907 0
M  V30 19553 H 1932.32 3.92815 0.501229 0
M  V30 19554 H 1933.5 3.95921 -2.35761 0
M  V30 19555 H 1931.81 3.65608 -1.99299 0
M  V30 19556 H 1934.41 5.34253 0.218703 0
M  V30 19557 H 1934.75 3.97222 1.24581 0
M  V30 19558 H 1935.28 3.95214 -0.452852 0
M  V30 19559 H 1932.02 5.99836 -2.64343 0
M  V30 19560 H 1931.54 5.92508 -0.93241 0
M  V30 19561 H 1933.22 6.3223 -1.37458 0
M  V30 19562 N 1933.35 0.385544 1.52811 0
M  V30 19563 C 1934.6 -0.198138 2.0183 0
M  V30 19564 C 1934.93 -1.46774 1.27165 0
M  V30 19565 O 1934.21 -1.90928 0.371034 0
M  V30 19566 C 1934.49 -0.469873 3.57021 0
M  V30 19567 C 1934.34 0.814756 4.42359 0
M  V30 19568 C 1935.66 -1.26209 4.21615 0
M  V30 19569 H 1932.78 -0.0705386 0.733617 0
M  V30 19570 H 1935.42 0.514372 1.82905 0
M  V30 19571 H 1933.57 -1.07684 3.73278 0
M  V30 19572 H 1935.25 1.45172 4.37862 0
M  V30 19573 H 1933.49 1.43088 4.09522 0
M  V30 19574 H 1934.16 0.57932 5.48952 0
M  V30 19575 H 1936.64 -0.748451 4.09313 0
M  V30 19576 H 1935.51 -1.42096 5.30188 0
M  V30 19577 H 1935.77 -2.27624 3.78998 0
M  V30 19578 N 1934.83 -1.57178 0.115259 0
M  V30 19579 C 1936.11 -1.86584 -0.587002 0
M  V30 19580 C 1936.49 -1.01576 -1.85055 0
M  V30 19581 O 1935.84 -0.0936485 -2.28308 0
M  V30 19582 C 1936.05 -3.37644 -0.883041 0
M  V30 19583 C 1937.4 -4.06159 -1.23773 0
M  V30 19584 O 1938.42 -3.42641 -0.973422 0
M  V30 19585 O 1937.28 -5.18274 -1.73363 0
M  V30 19586 H 1934.37 -0.772284 -0.295816 0
M  V30 19587 H 1936.92 -1.6904 0.14948 0
M  V30 19588 H 1935.69 -3.91298 0.0125183 0
M  V30 19589 H 1935.31 -3.60605 -1.67481 0
M  V30 19590 N 1936.31 0.158505 -1.56801 0
M  V30 19591 C 1937.56 0.874331 -1.82984 0
M  V30 19592 C 1937.89 1.81334 -0.695103 0
M  V30 19593 O 1937.17 1.9214 0.302091 0
M  V30 19594 C 1937.45 1.65886 -3.19615 0
M  V30 19595 C 1937.3 0.74211 -4.43636 0
M  V30 19596 C 1938.62 2.62382 -3.53332 0
M  V30 19597 H 1935.74 0.316412 -0.665622 0
M  V30 19598 H 1938.38 0.139988 -1.89484 0
M  V30 19599 H 1936.53 2.28488 -3.14206 0
M  V30 19600 H 1938.2 0.127969 -4.61122 0
M  V30 19601 H 1936.45 0.0509465 -4.3377 0
M  V30 19602 H 1937.12 1.32683 -5.35816 0
M  V30 19603 H 1939.59 2.09902 -3.59278 0
M  V30 19604 H 1938.47 3.14332 -4.49985 0
M  V30 19605 H 1938.73 3.43194 -2.78694 0
M  V30 19606 N 1937.79 1.51692 0.427485 0
M  V30 19607 C 1938.75 1.73114 1.50214 0
M  V30 19608 C 1939.75 0.601079 1.49143 0
M  V30 19609 O 1940.94 0.86875 1.50991 0
M  V30 19610 C 1938.07 1.79666 2.89712 0
M  V30 19611 H 1939.27 2.69033 1.32518 0
M  V30 19612 H 1936.82 1.4183 0.656804 0
M  V30 19613 H 1937.56 0.855968 3.128 0
M  V30 19614 H 1937.34 2.61803 2.91893 0
M  V30 19615 H 1938.83 1.98045 3.67652 0
M  V30 19616 N 1939.27 -0.683564 1.42004 0
M  V30 19617 C 1940.23 -1.77907 1.44505 0
M  V30 19618 C 1941.23 -1.57295 0.333889 0
M  V30 19619 O 1942.42 -1.63748 0.594323 0
M  V30 19620 C 1939.55 -3.16434 1.26815 0
M  V30 19621 H 1940.75 -1.7708 2.42039 0
M  V30 19622 H 1938.3 -0.892355 1.28323 0
M  V30 19623 H 1939.03 -3.22894 0.301695 0
M  V30 19624 H 1938.82 -3.32798 2.07335 0
M  V30 19625 H 1940.31 -3.96379 1.31428 0
M  V30 19626 N 1940.75 -1.28031 -0.919012 0
M  V30 19627 C 1942.16 -1.05624 -1.19649 0
M  V30 19628 C 1942.36 0.204731 -2.00457 0
M  V30 19629 O 1941.42 0.907849 -2.35615 0
M  V30 19630 C 1942.73 -2.3007 -1.93619 0
M  V30 19631 C 1944.28 -2.35196 -2.06523 0
M  V30 19632 C 1944.75 -3.59395 -2.839 0
M  V30 19633 N 1946.24 -3.60004 -2.91464 0
M  V30 19634 C 1946.98 -4.52779 -3.51822 0
M  V30 19635 N 1946.48 -5.55868 -4.13501 0
M  V30 19636 N 1948.27 -4.40385 -3.4931 0
M  V30 19637 H 1940.42 -2.08985 -0.379372 0
M  V30 19638 H 1942.68 -0.919558 -0.230473 0
M  V30 19639 H 1942.39 -3.21907 -1.41665 0
M  V30 19640 H 1942.26 -2.36071 -2.94195 0
M  V30 19641 H 1944.65 -1.4386 -2.57659 0
M  V30 19642 H 1944.73 -2.33194 -1.0514 0
M  V30 19643 H 1944.37 -4.51072 -2.33445 0
M  V30 19644 H 1944.3 -3.58651 -3.85587 0
M  V30 19645 H 1946.8 -2.85455 -2.47637 0
M  V30 19646 H 1947.11 -6.22812 -4.57521 0
M  V30 19647 H 1945.45 -5.597 -4.12021 0
M  V30 19648 H 1948.64 -3.59053 -3.0033 0
M  V30 19649 H 1948.82 -5.12877 -3.96057 0
M  V30 19650 N 1942.22 1.12672 -1.10194 0
M  V30 19651 C 1943.47 1.84399 -0.844081 0
M  V30 19652 C 1943.8 1.83739 0.628782 0
M  V30 19653 O 1943.08 1.28115 1.46345 0
M  V30 19654 C 1943.36 3.32194 -1.38994 0
M  V30 19655 C 1943.21 3.41323 -2.92948 0
M  V30 19656 C 1944.53 4.27872 -1.03021 0
M  V30 19657 H 1941.65 0.669515 -0.308089 0
M  V30 19658 H 1944.29 1.322 -1.36467 0
M  V30 19659 H 1942.44 3.76778 -0.947144 0
M  V30 19660 H 1944.12 3.05393 -3.45735 0
M  V30 19661 H 1942.36 2.81948 -3.29678 0
M  V30 19662 H 1943.03 4.45289 -3.26223 0
M  V30 19663 H 1945.51 3.91401 -1.41224 0
M  V30 19664 H 1944.38 5.29699 -1.43909 0
M  V30 19665 H 1944.64 4.42058 0.0606669 0
M  V30 19666 N 1943.7 0.89031 1.30043 0
M  V30 19667 C 1944.95 0.51044 1.95548 0
M  V30 19668 C 1945.27 -0.944562 1.70596 0
M  V30 19669 O 1944.54 -1.66482 1.0325 0
M  V30 19670 H 1943.12 0.185776 0.723531 0
M  V30 19671 H 1945.78 1.13455 1.58474 0
M  V30 19672 H 1944.88 0.685155 3.04487 0
M  V30 19673 N 1945.18 -1.43489 0.651812 0
M  V30 19674 C 1946.4 -2.06696 0.170683 0
M  V30 19675 C 1946.83 -1.48527 -1.15418 0
M  V30 19676 O 1946.19 -0.594665 -1.7127 0
M  V30 19677 C 1946.24 -3.60484 0.0915457 0
M  V30 19678 O 1945.34 -4.01388 -0.946644 0
M  V30 19679 H 1944.68 -0.65728 0.0942276 0
M  V30 19680 H 1947.21 -1.84018 0.89434 0
M  V30 19681 H 1947.22 -4.07896 -0.0922419 0
M  V30 19682 H 1945.9 -4.02199 1.0587 0
M  V30 19683 H 1944.47 -3.65569 -0.735758 0
M  V30 19684 N 1946.66 -0.393643 -1.52605 0
M  V30 19685 C 1947.93 0.244939 -1.9406 0
M  V30 19686 C 1948.31 1.63981 -1.32942 0
M  V30 19687 O 1947.66 2.2298 -0.499195 0
M  V30 19688 C 1947.87 0.266912 -3.47978 0
M  V30 19689 C 1949.22 0.493768 -4.21719 0
M  V30 19690 O 1950.24 0.346936 -3.54506 0
M  V30 19691 O 1949.1 0.78183 -5.40879 0
M  V30 19692 H 1946.2 0.153387 -0.812651 0
M  V30 19693 H 1948.74 -0.448465 -1.63667 0
M  V30 19694 H 1947.52 -0.709958 -3.84806 0
M  V30 19695 H 1947.14 1.00506 -3.84687 0
M  V30 19696 N 1948.14 1.57115 -0.123593 0
M  V30 19697 C 1949.07 2.18573 0.821462 0
M  V30 19698 C 1950.05 1.1271 1.27399 0
M  V30 19699 O 1951.23 1.40964 1.33577 0
M  V30 19700 C 1948.36 2.78879 2.06987 0
M  V30 19701 C 1947.32 3.90365 1.75497 0
M  V30 19702 C 1946.64 4.37499 3.07406 0
M  V30 19703 C 1947.94 5.12249 1.01972 0
M  V30 19704 H 1949.64 2.97798 0.309319 0
M  V30 19705 H 1947.18 1.43244 0.147338 0
M  V30 19706 H 1949.13 3.20534 2.73562 0
M  V30 19707 H 1947.86 1.96951 2.60534 0
M  V30 19708 H 1946.52 3.49293 1.1131 0
M  V30 19709 H 1946.17 3.52424 3.58896 0
M  V30 19710 H 1945.87 5.12682 2.87108 0
M  V30 19711 H 1947.39 4.81808 3.75091 0
M  V30 19712 H 1948.8 5.50894 1.58709 0
M  V30 19713 H 1947.2 5.93044 0.917526 0
M  V30 19714 H 1948.27 4.84899 0.00726173 0
M  V30 19715 N 1949.61 -0.150187 1.56883 0
M  V30 19716 C 1950.86 -0.864615 1.83446 0
M  V30 19717 C 1951.19 -1.80963 0.70471 0
M  V30 19718 O 1950.47 -1.92297 -0.291897 0
M  V30 19719 C 1950.75 -1.64188 3.20491 0
M  V30 19720 C 1950.6 -0.718573 4.44023 0
M  V30 19721 C 1951.92 -2.60505 3.54719 0
M  V30 19722 H 1949.04 -0.312878 0.66729 0
M  V30 19723 H 1951.68 -0.129937 1.89555 0
M  V30 19724 H 1949.83 -2.26819 3.15413 0
M  V30 19725 H 1951.51 -0.103513 4.61184 0
M  V30 19726 H 1949.75 -0.0279419 4.33791 0
M  V30 19727 H 1950.42 -1.29839 5.36513 0
M  V30 19728 H 1952.9 -2.07993 3.60386 0
M  V30 19729 H 1951.77 -3.11941 4.51646 0
M  V30 19730 H 1952.03 -3.41711 2.8051 0
M  V30 19731 N 1951.09 -1.51916 -0.419434 0
M  V30 19732 C 1952.03 -1.69227 -1.53093 0
M  V30 19733 C 1953 -0.539814 -1.53378 0
M  V30 19734 O 1954.19 -0.765893 -1.72239 0
M  V30 19735 C 1951.31 -1.7222 -2.91647 0
M  V30 19736 C 1950.36 -2.93643 -3.09315 0
M  V30 19737 S 1951.19 -4.54164 -2.83717 0
M  V30 19738 C 1952.35 -4.59928 -4.2452 0
M  V30 19739 H 1952.58 -2.63237 -1.38179 0
M  V30 19740 H 1950.12 -1.41825 -0.61033 0
M  V30 19741 H 1952.07 -1.7463 -3.71503 0
M  V30 19742 H 1950.73 -0.793553 -3.0391 0
M  V30 19743 H 1949.93 -2.9219 -4.10659 0
M  V30 19744 H 1949.53 -2.89068 -2.3731 0
M  V30 19745 H 1951.82 -4.36671 -5.18001 0
M  V30 19746 H 1952.76 -5.61822 -4.31 0
M  V30 19747 H 1953.17 -3.89064 -4.0901 0
M  V30 19748 N 1952.57 0.676023 -1.42365 0
M  V30 19749 C 1953.8 1.46937 -1.46371 0
M  V30 19750 C 1954.22 1.87946 -0.076099 0
M  V30 19751 O 1953.58 1.55917 0.925172 0
M  V30 19752 C 1953.63 2.69558 -2.39523 0
M  V30 19753 O 1952.73 3.67782 -1.86575 0
M  V30 19754 H 1952.07 0.441478 -0.495977 0
M  V30 19755 H 1954.6 0.829284 -1.8704 0
M  V30 19756 H 1954.61 3.17642 -2.56061 0
M  V30 19757 H 1953.29 2.39049 -3.40336 0
M  V30 19758 H 1951.86 3.26808 -1.79585 0
M  V30 19759 N 1954.05 1.28517 0.912209 0
M  V30 19760 C 1955.01 1.12594 1.99637 0
M  V30 19761 C 1956.01 0.0651449 1.60668 0
M  V30 19762 O 1957.2 0.311054 1.714 0
M  V30 19763 C 1954.33 0.719053 3.3323 0
M  V30 19764 H 1955.53 2.08884 2.15192 0
M  V30 19765 H 1953.08 1.11525 1.09508 0
M  V30 19766 H 1953.81 -0.244536 3.23377 0
M  V30 19767 H 1953.6 1.48536 3.62876 0
M  V30 19768 H 1955.09 0.630346 4.12815 0
M  V30 19769 N 1955.53 -1.12086 1.1079 0
M  V30 19770 C 1956.75 -1.88034 0.875097 0
M  V30 19771 C 1957.18 -1.79281 -0.569191 0
M  V30 19772 O 1956.53 -1.15037 -1.40129 0
M  V30 19773 C 1956.58 -3.35066 1.33278 0
M  V30 19774 O 1955.69 -4.09356 0.500163 0
M  V30 19775 H 1955.03 -0.584116 0.31576 0
M  V30 19776 H 1957.56 -1.41725 1.47564 0
M  V30 19777 H 1957.57 -3.85908 1.32434 0
M  V30 19778 H 1956.24 -3.40753 2.38453 0
M  V30 19779 H 1954.82 -3.68454 0.574137 0
M  V30 19780 N 1957 -0.897194 -1.29569 0
M  V30 19781 C 1957.97 -0.377906 -2.26063 0
M  V30 19782 C 1958.97 0.486495 -1.53264 0
M  V30 19783 O 1960.16 0.291905 -1.71737 0
M  V30 19784 C 1957.29 0.460046 -3.37782 0
M  V30 19785 H 1958.48 -1.23009 -2.73512 0
M  V30 19786 H 1956.04 -0.675114 -1.40968 0
M  V30 19787 H 1956.77 1.33232 -2.95668 0
M  V30 19788 H 1956.56 -0.159293 -3.91776 0
M  V30 19789 H 1958.05 0.814753 -4.09575 0
M  V30 19790 N 1958.48 1.43142 -0.659413 0
M  V30 19791 C 1959.9 1.56203 -0.327538 0
M  V30 19792 C 1960.1 1.64194 1.16801 0
M  V30 19793 O 1959.15 1.60041 1.95303 0
M  V30 19794 C 1960.47 2.81982 -1.04434 0
M  V30 19795 C 1962.02 2.95735 -1.02518 0
M  V30 19796 C 1962.49 4.24354 -1.723 0
M  V30 19797 N 1963.98 4.31232 -1.69094 0
M  V30 19798 C 1964.72 5.29534 -2.19957 0
M  V30 19799 N 1964.21 6.34078 -2.79135 0
M  V30 19800 N 1966.01 5.21229 -2.10421 0
M  V30 19801 H 1958.16 1.36198 -1.62984 0
M  V30 19802 H 1960.42 0.654541 -0.685769 0
M  V30 19803 H 1960.13 2.82162 -2.09947 0
M  V30 19804 H 1960 3.72401 -0.599805 0
M  V30 19805 H 1962.39 2.95092 0.0215626 0
M  V30 19806 H 1962.47 2.06589 -1.50846 0
M  V30 19807 H 1962.11 4.25758 -2.76935 0
M  V30 19808 H 1962.04 5.12408 -1.21433 0
M  V30 19809 H 1964.53 3.56306 -1.25915 0
M  V30 19810 H 1964.85 7.05417 -3.15606 0
M  V30 19811 H 1963.19 6.34684 -2.83199 0
M  V30 19812 H 1966.38 4.38473 -1.63888 0
M  V30 19813 H 1966.55 5.97679 -2.50368 0
M  V30 19814 N 1959.96 0.40173 1.52394 0
M  V30 19815 C 1960.89 -0.41861 2.29717 0
M  V30 19816 C 1961.87 -1.05263 1.33618 0
M  V30 19817 O 1963.06 -1.06304 1.62521 0
M  V30 19818 C 1960.19 -1.5395 3.11314 0
M  V30 19819 C 1959.14 -1.03088 4.154 0
M  V30 19820 C 1958.47 -2.2448 4.85297 0
M  V30 19821 C 1959.77 -0.0900956 5.22222 0
M  V30 19822 H 1961.46 0.226577 2.98541 0
M  V30 19823 H 1959.01 0.110411 1.43576 0
M  V30 19824 H 1960.96 -2.12031 3.64171 0
M  V30 19825 H 1959.68 -2.21246 2.40246 0
M  V30 19826 H 1958.34 -0.472515 3.63542 0
M  V30 19827 H 1957.99 -2.90313 4.10764 0
M  V30 19828 H 1957.69 -1.91103 5.55656 0
M  V30 19829 H 1959.21 -2.83181 5.40963 0
M  V30 19830 H 1960.63 -0.579479 5.70364 0
M  V30 19831 H 1959.03 0.154505 5.99901 0
M  V30 19832 H 1960.1 0.857375 4.7726 0
M  V30 19833 N 1961.44 -1.57047 0.131923 0
M  V30 19834 C 1962.4 -2.14813 -0.799243 0
M  V30 19835 C 1963.4 -1.08616 -1.18572 0
M  V30 19836 O 1964.59 -1.3433 -1.10911 0
M  V30 19837 C 1961.72 -2.69894 -2.08255 0
M  V30 19838 H 1962.92 -2.98426 -0.296996 0
M  V30 19839 H 1960.47 -1.55858 -0.117418 0
M  V30 19840 H 1961.2 -1.89905 -2.62881 0
M  V30 19841 H 1960.99 -3.47574 -1.81479 0
M  V30 19842 H 1962.48 -3.14451 -2.74792 0
M  V30 19843 N 1962.92 0.141865 -1.5696 0
M  V30 19844 C 1963.88 1.15896 -1.97739 0
M  V30 19845 C 1964.88 1.3558 -0.864556 0
M  V30 19846 O 1966.07 1.32485 -1.13107 0
M  V30 19847 C 1963.2 2.51822 -2.29779 0
M  V30 19848 H 1964.39 0.808993 -2.88782 0
M  V30 19849 H 1961.95 0.385387 -1.51474 0
M  V30 19850 H 1962.68 2.91781 -1.41543 0
M  V30 19851 H 1962.47 2.38894 -3.10921 0
M  V30 19852 H 1963.96 3.25066 -2.62148 0
M  V30 19853 N 1964.39 1.52136 0.411372 0
M  V30 19854 C 1965.81 1.58274 0.990272 0
M  V30 19855 C 1966.16 0.421874 1.91611 0
M  V30 19856 O 1965.28 -0.458058 2.11497 0
M  V30 19857 C 1965.88 2.86855 1.80276 0
M  V30 19858 C 1964.44 2.95478 2.33173 0
M  V30 19859 C 1963.58 2.5319 1.13093 0
M  V30 19860 H 1966.53 1.57538 0.191687 0
M  V30 19861 H 1966.55 2.72082 2.65992 0
M  V30 19862 H 1966.07 3.71326 1.12866 0
M  V30 19863 H 1964.17 2.15496 3.03961 0
M  V30 19864 H 1964.28 3.99674 2.64192 0
M  V30 19865 H 1962.64 2.06986 1.48421 0
M  V30 19866 H 1963.43 3.40032 0.472529 0
M  V30 19867 N 1965.87 -0.668464 1.42721 0
M  V30 19868 C 1966.82 -1.78184 1.46694 0
M  V30 19869 C 1967.79 -1.63023 0.318213 0
M  V30 19870 O 1968.98 -1.83486 0.523198 0
M  V30 19871 C 1966.12 -3.16254 1.3812 0
M  V30 19872 C 1965.23 -3.42657 2.63078 0
M  V30 19873 C 1964.36 -4.7049 2.46602 0
M  V30 19874 C 1963.4 -4.89948 3.66902 0
M  V30 19875 N 1962.54 -6.09027 3.49329 0
M  V30 19876 H 1967.38 -1.74123 2.41837 0
M  V30 19877 H 1964.92 -0.849937 1.2006 0
M  V30 19878 H 1966.87 -3.96051 1.31146 0
M  V30 19879 H 1965.5 -3.19423 0.46569 0
M  V30 19880 H 1964.56 -2.57068 2.80393 0
M  V30 19881 H 1965.87 -3.52926 3.52484 0
M  V30 19882 H 1965.02 -5.58388 2.37249 0
M  V30 19883 H 1963.76 -4.62515 1.54696 0
M  V30 19884 H 1962.77 -4.0049 3.7668 0
M  V30 19885 H 1963.99 -4.99764 4.59797 0
M  V30 19886 H 1961.94 -6.02213 2.60146 0
M  V30 19887 H 1961.85 -6.20186 4.32326 0
M  V30 19888 H 1963.12 -6.99587 3.438 0
M  V30 19889 N 1967.35 -1.28999 -0.905381 0
M  V30 19890 C 1968.58 -1.19512 -1.68892 0
M  V30 19891 C 1968.99 0.245073 -1.87203 0
M  V30 19892 O 1968.35 1.16474 -1.405 0
M  V30 19893 C 1968.4 -1.89822 -3.07652 0
M  V30 19894 O 1968.12 -3.28217 -2.90181 0
M  V30 19895 C 1969.62 -1.86742 -4.02048 0
M  V30 19896 H 1966.84 -0.414483 -0.527678 0
M  V30 19897 H 1969.39 -1.70271 -1.1326 0
M  V30 19898 H 1967.54 -1.42913 -3.60076 0
M  V30 19899 H 1967.96 -3.63549 -3.78064 0
M  V30 19900 H 1969.43 -2.40512 -4.96848 0
M  V30 19901 H 1969.91 -0.841659 -4.3106 0
M  V30 19902 H 1970.51 -2.33369 -3.55555 0
M  V30 19903 N 1968.83 1.11497 -1.11383 0
M  V30 19904 C 1970.08 1.83494 -0.863592 0
M  V30 19905 C 1970.41 1.84395 0.609259 0
M  V30 19906 O 1969.68 1.2966 1.44978 0
M  V30 19907 C 1969.97 3.30701 -1.42509 0
M  V30 19908 C 1969.82 3.38197 -2.96552 0
M  V30 19909 C 1971.14 4.26756 -1.07553 0
M  V30 19910 H 1968.26 0.666209 -0.315173 0
M  V30 19911 H 1970.9 1.30745 -1.37861 0
M  V30 19912 H 1969.05 3.75752 -0.987053 0
M  V30 19913 H 1970.72 3.01709 -3.48955 0
M  V30 19914 H 1968.96 2.78436 -3.3265 0
M  V30 19915 H 1969.64 4.41804 -3.30927 0
M  V30 19916 H 1972.11 3.89882 -1.45367 0
M  V30 19917 H 1970.99 5.28143 -1.49519 0
M  V30 19918 H 1971.25 4.42098 0.0137773 0
M  V30 19919 N 1970.31 0.904053 1.29092 0
M  V30 19920 C 1971.54 0.546964 1.99228 0
M  V30 19921 C 1971.95 -0.873787 1.67814 0
M  V30 19922 O 1971.29 -1.58892 0.921898 0
M  V30 19923 C 1971.35 0.664609 3.53303 0
M  V30 19924 C 1971.01 2.05313 4.08284 0
M  V30 19925 C 1972.01 3.02478 4.22851 0
M  V30 19926 C 1969.7 2.36369 4.4321 0
M  V30 19927 C 1971.69 4.28821 4.71584 0
M  V30 19928 C 1969.38 3.62953 4.91638 0
M  V30 19929 C 1970.38 4.58993 5.05781 0
M  V30 19930 O 1970.06 5.83329 5.53157 0
M  V30 19931 H 1969.8 0.208111 0.643168 0
M  V30 19932 H 1972.35 1.21663 1.65491 0
M  V30 19933 H 1970.58 -0.0621014 3.8665 0
M  V30 19934 H 1972.27 0.316038 4.04668 0
M  V30 19935 H 1973.03 2.79801 3.96152 0
M  V30 19936 H 1968.91 1.62373 4.31458 0
M  V30 19937 H 1972.46 5.03789 4.82538 0
M  V30 19938 H 1968.35 3.85459 5.17776 0
M  V30 19939 H 1969.12 5.8598 5.71463 0
M  V30 19940 N 1971.79 -1.4279 0.666995 0
M  V30 19941 C 1972.75 -2.29199 -0.00688445 0
M  V30 19942 C 1973.75 -1.42924 -0.736835 0
M  V30 19943 O 1974.94 -1.64401 -0.576011 0
M  V30 19944 C 1972.07 -3.25268 -1.02046 0
M  V30 19945 H 1973.26 -2.90278 0.753571 0
M  V30 19946 H 1970.82 -1.50299 0.428933 0
M  V30 19947 H 1971.55 -2.69112 -1.80967 0
M  V30 19948 H 1971.34 -3.88892 -0.500533 0
M  V30 19949 H 1972.83 -3.9009 -1.49063 0
M  V30 19950 N 1973.26 -0.409806 -1.52179 0
M  V30 19951 C 1974.51 0.165758 -2.0182 0
M  V30 19952 C 1974.84 1.45086 -1.29539 0
M  V30 19953 O 1974.09 1.91766 -0.390424 0
M  V30 19954 C 1974.39 0.459582 -3.54433 0
M  V30 19955 C 1974.06 -0.7364 -4.44846 0
M  V30 19956 C 1972.72 -1.06445 -4.69279 0
M  V30 19957 C 1975.07 -1.53553 -4.98067 0
M  V30 19958 C 1972.4 -2.19281 -5.44181 0
M  V30 19959 C 1974.75 -2.65467 -5.74204 0
M  V30 19960 C 1973.42 -2.98757 -5.96909 0
M  V30 19961 H 1972.69 0.0606551 -0.738513 0
M  V30 19962 H 1975.33 -0.551364 -1.83391 0
M  V30 19963 H 1973.64 1.25828 -3.71045 0
M  V30 19964 H 1975.34 0.917888 -3.90353 0
M  V30 19965 H 1971.93 -0.470734 -4.26007 0
M  V30 19966 H 1976.11 -1.29532 -4.79098 0
M  V30 19967 H 1971.37 -2.4542 -5.59981 0
M  V30 19968 H 1975.54 -3.27776 -6.14439 0
M  V30 19969 H 1973.17 -3.86307 -6.5473 0
M  V30 19970 N 1974.74 1.56975 -0.14025 0
M  V30 19971 C 1976.15 1.82757 0.381688 0
M  V30 19972 C 1976.5 1.0586 1.65191 0
M  V30 19973 O 1975.63 0.301768 2.14286 0
M  V30 19974 C 1976.22 3.31505 0.699272 0
M  V30 19975 C 1974.78 3.57892 1.16576 0
M  V30 19976 C 1973.93 2.7668 0.185351 0
M  V30 19977 H 1976.88 1.54444 -0.365058 0
M  V30 19978 H 1976.9 3.47292 1.55462 0
M  V30 19979 H 1976.41 3.87445 -0.225394 0
M  V30 19980 H 1974.51 3.07332 2.1066 0
M  V30 19981 H 1974.63 4.66386 1.0964 0
M  V30 19982 H 1972.99 2.45548 0.676642 0
M  V30 19983 H 1973.77 3.35388 -0.732787 0
M  V30 19984 N 1976.22 -0.133539 1.57033 0
M  V30 19985 C 1977.47 -0.842192 1.83716 0
M  V30 19986 C 1977.79 -1.81092 0.723225 0
M  V30 19987 O 1977.06 -1.94246 -0.254028 0
M  V30 19988 H 1975.64 -0.314004 0.677798 0
M  V30 19989 H 1978.3 -0.124329 1.94503 0
M  V30 19990 H 1977.4 -1.39628 2.79125 0
M  V30 19991 N 1977.7 -1.52352 -0.403298 0
M  V30 19992 C 1978.63 -1.72347 -1.51093 0
M  V30 19993 C 1979.64 -0.603886 -1.51186 0
M  V30 19994 O 1980.83 -0.879203 -1.55346 0
M  V30 19995 C 1977.93 -1.75407 -2.89975 0
M  V30 19996 C 1977.1 -3.04495 -3.14009 0
M  V30 19997 C 1976.16 -2.9929 -4.32795 0
M  V30 19998 O 1975.19 -3.73185 -4.29792 0
M  V30 19999 N 1976.39 -2.17484 -5.3822 0
M  V30 20000 H 1979.16 -2.67908 -1.34333 0
M  V30 20001 H 1976.72 -1.50662 -0.592661 0
M  V30 20002 H 1978.71 -1.6945 -3.67517 0
M  V30 20003 H 1977.28 -0.87295 -3.00164 0
M  V30 20004 H 1976.5 -3.24056 -2.24458 0
M  V30 20005 H 1977.79 -3.89879 -3.26913 0
M  V30 20006 H 1977.19 -1.56888 -5.4351 0
M  V30 20007 H 1975.74 -2.17378 -6.14484 0
M  V30 20008 N 1979.18 0.660885 -1.43074 0
M  V30 20009 C 1980.42 1.41805 -1.43999 0
M  V30 20010 C 1980.74 1.949 -0.0625341 0
M  V30 20011 O 1980.01 1.7395 0.901019 0
M  V30 20012 H 1978.59 0.526263 -0.530147 0
M  V30 20013 H 1981.26 0.779967 -1.78613 0
M  V30 20014 H 1980.35 2.2642 -2.14803 0
M  V30 20015 N 1980.65 1.29477 0.898527 0
M  V30 20016 C 1981.9 1.16888 1.64378 0
M  V30 20017 C 1982.22 -0.278503 1.93607 0
M  V30 20018 O 1983.42 -0.525728 2.66361 0
M  V30 20019 C 1981.88 2.0444 2.96196 0
M  V30 20020 C 1981.49 3.54008 2.74558 0
M  V30 20021 C 1983.23 2.00578 3.74124 0
M  V30 20022 C 1981.14 4.33661 4.0211 0
M  V30 20023 H 1980.07 0.433875 0.616659 0
M  V30 20024 H 1982.72 1.54125 0.995881 0
M  V30 20025 H 1981.1 1.60073 3.62205 0
M  V30 20026 H 1982.27 4.06435 2.17135 0
M  V30 20027 H 1980.59 3.59553 2.10025 0
M  V30 20028 H 1983.19 2.57348 4.68696 0
M  V30 20029 H 1983.53 0.98604 4.04454 0
M  V30 20030 H 1984.06 2.42995 3.14957 0
M  V30 20031 H 1980.8 5.36276 3.76946 0
M  V30 20032 H 1980.32 3.86003 4.59088 0
M  V30 20033 H 1982 4.44385 4.70246 0
M  V30 20034 N 1982.13 -1.10905 1.11972 0
M  V30 20035 C 1983.06 -2.16893 0.740943 0
M  V30 20036 C 1984.08 -1.61166 -0.230099 0
M  V30 20037 O 1985.27 -1.78496 -0.0121612 0
M  V30 20038 C 1982.37 -3.38817 0.0751853 0
M  V30 20039 C 1981.54 -4.23998 1.07446 0
M  V30 20040 C 1980.6 -5.2438 0.437225 0
M  V30 20041 O 1979.62 -5.58611 1.09279 0
M  V30 20042 N 1980.83 -5.74996 -0.797475 0
M  V30 20043 H 1983.59 -2.49998 1.65291 0
M  V30 20044 H 1981.15 -1.26479 1.01068 0
M  V30 20045 H 1983.14 -4.03069 -0.362985 0
M  V30 20046 H 1981.71 -3.03728 -0.739454 0
M  V30 20047 H 1980.93 -3.56116 1.69041 0
M  V30 20048 H 1982.22 -4.77745 1.75034 0
M  V30 20049 H 1981.62 -5.49376 -1.34915 0
M  V30 20050 H 1980.18 -6.41057 -1.17854 0
M  V30 20051 N 1983.61 -0.910886 -1.2861 0
M  V30 20052 C 1984.56 -0.368294 -2.25006 0
M  V30 20053 C 1985.54 0.517969 -1.52335 0
M  V30 20054 O 1986.74 0.358159 -1.73338 0
M  V30 20055 C 1983.87 0.393096 -3.41042 0
M  V30 20056 C 1982.95 -0.508724 -4.21038 0
M  V30 20057 N 1983.34 -1.62102 -4.79121 0
M  V30 20058 C 1981.64 -0.308578 -4.44931 0
M  V30 20059 C 1982.34 -2.18055 -5.39284 0
M  V30 20060 N 1981.32 -1.47217 -5.23286 0
M  V30 20061 H 1985.12 -1.21781 -2.67482 0
M  V30 20062 H 1982.63 -0.763212 -1.43349 0
M  V30 20063 H 1984.63 0.798636 -4.09179 0
M  V30 20064 H 1983.29 1.23975 -3.00101 0
M  V30 20065 H 1984.3 -2.00364 -4.77572 0
M  V30 20066 H 1980.98 0.49879 -4.1451 0
M  V30 20067 H 1982.37 -3.11606 -5.95274 0
M  V30 20068 N 1985.09 1.42434 -0.674558 0
M  V30 20069 C 1986.04 2.308 0.00392457 0
M  V30 20070 C 1987.01 1.45949 0.792972 0
M  V30 20071 O 1988.19 1.74781 0.765269 0
M  V30 20072 C 1985.33 3.31784 0.949392 0
M  V30 20073 C 1984.44 4.31725 0.154193 0
M  V30 20074 C 1983.58 5.19783 1.09539 0
M  V30 20075 C 1982.62 6.11404 0.291864 0
M  V30 20076 N 1981.75 6.92015 1.18576 0
M  V30 20077 H 1986.59 2.88266 -0.755438 0
M  V30 20078 H 1984.13 1.41992 -0.384274 0
M  V30 20079 H 1986.09 3.88861 1.51138 0
M  V30 20080 H 1984.72 2.75918 1.67539 0
M  V30 20081 H 1983.77 3.76768 -0.524416 0
M  V30 20082 H 1985.08 4.96584 -0.469669 0
M  V30 20083 H 1984.24 5.81592 1.72732 0
M  V30 20084 H 1982.98 4.551 1.75314 0
M  V30 20085 H 1981.98 5.48664 -0.353276 0
M  V30 20086 H 1983.21 6.78136 -0.361786 0
M  V30 20087 H 1981.15 6.29961 1.82991 0
M  V30 20088 H 1981.07 7.53478 0.616968 0
M  V30 20089 H 1982.34 7.5831 1.80516 0
M  V30 20090 N 1986.57 0.417871 1.51959 0
M  V30 20091 C 1987.81 -0.154746 2.01507 0
M  V30 20092 C 1988.14 -1.44898 1.30497 0
M  V30 20093 O 1987.41 -1.91043 0.433536 0
M  V30 20094 H 1985.99 -0.0601759 0.744572 0
M  V30 20095 H 1988.65 0.556118 1.86798 0
M  V30 20096 H 1987.74 -0.344616 3.10192 0
M  V30 20097 N 1988.04 -1.56898 0.148573 0
M  V30 20098 C 1988.98 -2.12626 -0.828583 0
M  V30 20099 C 1989.96 -1.05024 -1.24132 0
M  V30 20100 O 1991.14 -1.32864 -1.33714 0
M  V30 20101 C 1988.27 -2.64724 -2.11279 0
M  V30 20102 C 1987.31 -3.84487 -1.84586 0
M  V30 20103 S 1988.15 -5.25394 -1.03545 0
M  V30 20104 C 1989.3 -5.80882 -2.33082 0
M  V30 20105 H 1989.53 -2.95177 -0.354688 0
M  V30 20106 H 1987.07 -1.5426 -0.0657356 0
M  V30 20107 H 1989.03 -2.95391 -2.85052 0
M  V30 20108 H 1987.69 -1.82301 -2.55784 0
M  V30 20109 H 1986.88 -4.1919 -2.79814 0
M  V30 20110 H 1986.48 -3.5459 -1.18921 0
M  V30 20111 H 1988.77 -5.9241 -3.28721 0
M  V30 20112 H 1989.72 -6.78413 -2.02882 0
M  V30 20113 H 1990.12 -5.09137 -2.43802 0
M  V30 20114 N 1989.52 0.125209 -1.57102 0
M  V30 20115 C 1990.77 0.832437 -1.8416 0
M  V30 20116 C 1991.09 1.80706 -0.732819 0
M  V30 20117 O 1990.36 1.94378 0.243723 0
M  V30 20118 H 1988.94 0.310405 -0.679454 0
M  V30 20119 H 1991.6 0.114013 -1.94566 0
M  V30 20120 H 1990.7 1.38145 -2.79861 0
M  V30 20121 N 1991 1.52564 0.395213 0
M  V30 20122 C 1991.93 1.71641 1.50382 0
M  V30 20123 C 1992.91 0.564147 1.525 0
M  V30 20124 O 1994.1 0.793198 1.70999 0
M  V30 20125 C 1991.22 1.76838 2.8887 0
M  V30 20126 C 1990.27 2.98527 3.04605 0
M  V30 20127 S 1991.1 4.5862 2.76456 0
M  V30 20128 C 1992.26 4.66624 4.17149 0
M  V30 20129 H 1992.49 2.65402 1.33973 0
M  V30 20130 H 1990.02 1.42778 0.587689 0
M  V30 20131 H 1991.98 1.80518 3.68678 0
M  V30 20132 H 1990.64 0.841802 3.02609 0
M  V30 20133 H 1989.84 2.98686 4.05959 0
M  V30 20134 H 1989.44 2.92806 2.32681 0
M  V30 20135 H 1991.73 4.44856 5.10988 0
M  V30 20136 H 1992.67 5.68608 4.22008 0
M  V30 20137 H 1993.08 3.95522 4.02768 0
M  V30 20138 N 1992.48 -0.653289 1.43422 0
M  V30 20139 C 1993.39 -1.79526 1.51022 0
M  V30 20140 C 1994.4 -1.69403 0.39732 0
M  V30 20141 O 1995.58 -1.90574 0.651437 0
M  V30 20142 C 1992.65 -3.15803 1.43071 0
M  V30 20143 C 1991.71 -3.37723 2.65031 0
M  V30 20144 C 1990.94 -4.67499 2.5745 0
M  V30 20145 O 1991.16 -5.46846 1.6222 0
M  V30 20146 O 1990.1 -4.91137 3.47948 0
M  V30 20147 H 1993.92 -1.76069 2.47454 0
M  V30 20148 H 1991.51 -0.81176 1.25423 0
M  V30 20149 H 1993.39 -3.97083 1.41079 0
M  V30 20150 H 1992.06 -3.1985 0.497738 0
M  V30 20151 H 1990.97 -2.56208 2.72595 0
M  V30 20152 H 1992.3 -3.38523 3.573 0
M  V30 20153 N 1993.96 -1.29952 -0.891648 0
M  V30 20154 C 1995.2 -1.18565 -1.6453 0
M  V30 20155 C 1995.54 0.260539 -1.92444 0
M  V30 20156 O 1994.81 1.18723 -1.54062 0
M  V30 20157 C 1995.09 -2.00774 -2.98934 0
M  V30 20158 C 1994.95 -3.53577 -2.78035 0
M  V30 20159 C 1996.27 -1.84038 -3.99772 0
M  V30 20160 H 1993.38 -0.432073 -0.597061 0
M  V30 20161 H 1996.03 -1.59512 -1.03227 0
M  V30 20162 H 1994.18 -1.65981 -3.51258 0
M  V30 20163 H 1995.85 -3.98394 -2.3255 0
M  V30 20164 H 1994.09 -3.78095 -2.12665 0
M  V30 20165 H 1994.76 -4.06381 -3.73575 0
M  V30 20166 H 1997.24 -2.14444 -3.56585 0
M  V30 20167 H 1996.11 -2.43896 -4.91737 0
M  V30 20168 H 1996.38 -0.797726 -4.34843 0
M  V30 20169 N 1995.44 1.1031 -1.12559 0
M  V30 20170 C 1996.85 1.34325 -0.861911 0
M  V30 20171 C 1997.05 1.95009 0.507319 0
M  V30 20172 O 1996.11 2.1906 1.25574 0
M  V30 20173 C 1997.42 2.26367 -1.97935 0
M  V30 20174 C 1998.97 2.39901 -2.01039 0
M  V30 20175 C 1999.44 3.35273 -3.1202 0
M  V30 20176 N 2000.93 3.42841 -3.11471 0
M  V30 20177 C 2001.67 4.16611 -3.93983 0
M  V30 20178 N 2001.17 4.93256 -4.86488 0
M  V30 20179 N 2002.96 4.12243 -3.82116 0
M  V30 20180 H 1995.11 0.692899 -2.0078 0
M  V30 20181 H 1997.37 0.367689 -0.87379 0
M  V30 20182 H 1997.08 1.8899 -2.96607 0
M  V30 20183 H 1996.95 3.26685 -1.88565 0
M  V30 20184 H 1999.34 2.76546 -1.02986 0
M  V30 20185 H 1999.42 1.39393 -2.14484 0
M  V30 20186 H 1999.06 2.99352 -4.10306 0
M  V30 20187 H 1998.99 4.35663 -2.95813 0
M  V30 20188 H 2001.49 2.88182 -2.44457 0
M  V30 20189 H 2001.8 5.46948 -5.45956 0
M  V30 20190 H 2000.14 4.92376 -4.90501 0
M  V30 20191 H 2003.33 3.5146 -3.09182 0
M  V30 20192 H 2003.51 4.69475 -4.46651 0
M  V30 20193 N 1996.91 0.917694 1.28125 0
M  V30 20194 C 1997.88 0.413823 2.25433 0
M  V30 20195 C 1998.88 -0.46205 1.54019 0
M  V30 20196 O 2000.07 -0.264546 1.7218 0
M  V30 20197 C 1997.2 -0.406249 3.38471 0
M  V30 20198 H 1998.39 1.27345 2.7152 0
M  V30 20199 H 1995.94 0.697455 1.39876 0
M  V30 20200 H 1996.68 -1.28511 2.97751 0
M  V30 20201 H 1996.46 0.221601 3.91473 0
M  V30 20202 H 1997.95 -0.749491 4.10819 0
M  V30 20203 N 1998.39 -1.42074 0.682102 0
M  V30 20204 C 1999.81 -1.55662 0.352347 0
M  V30 20205 C 2000.01 -1.66032 -1.14174 0
M  V30 20206 O 1999.06 -1.63128 -1.92732 0
M  V30 20207 C 2000.38 -2.80285 1.08907 0
M  V30 20208 C 2001.92 -2.94066 1.0721 0
M  V30 20209 C 2002.4 -4.2156 1.7903 0
M  V30 20210 N 2003.89 -4.28488 1.75933 0
M  V30 20211 C 2004.63 -5.25968 2.28354 0
M  V30 20212 N 2004.12 -6.29557 2.89188 0
M  V30 20213 N 2005.91 -5.17815 2.18686 0
M  V30 20214 H 1998.07 -1.33588 1.65131 0
M  V30 20215 H 2000.33 -0.643549 0.696096 0
M  V30 20216 H 2000.03 -2.78786 2.14409 0
M  V30 20217 H 1999.91 -3.71399 0.658975 0
M  V30 20218 H 2002.3 -2.95089 0.0253867 0
M  V30 20219 H 2002.38 -2.04163 1.54114 0
M  V30 20220 H 2002.02 -4.21298 2.83673 0
M  V30 20221 H 2001.95 -5.10411 1.2957 0
M  V30 20222 H 2004.44 -3.54257 1.31568 0
M  V30 20223 H 2004.75 -7.00306 3.26789 0
M  V30 20224 H 2003.1 -6.30098 2.9326 0
M  V30 20225 H 2006.29 -4.3581 1.70843 0
M  V30 20226 H 2006.46 -5.9362 2.59845 0
M  V30 20227 N 1999.87 -0.425924 -1.51735 0
M  V30 20228 C 2001.09 0.145767 -2.06887 0
M  V30 20229 C 2001.52 1.36671 -1.29239 0
M  V30 20230 O 2000.88 1.78323 -0.327176 0
M  V30 20231 C 2000.93 0.457951 -3.5768 0
M  V30 20232 O 2000.03 1.54629 -3.82314 0
M  V30 20233 H 1999.37 0.00686619 -0.663964 0
M  V30 20234 H 2001.9 -0.603968 -1.95482 0
M  V30 20235 H 2001.91 0.71173 -4.01744 0
M  V30 20236 H 2000.59 -0.434483 -4.13624 0
M  V30 20237 H 1999.16 1.28336 -3.5012 0
M  V30 20238 N 2001.35 1.56817 -0.156891 0
M  V30 20239 C 2002.29 2.17256 0.779004 0
M  V30 20240 C 2003.26 1.1083 1.23717 0
M  V30 20241 O 2004.45 1.38917 1.30793 0
M  V30 20242 C 2001.59 2.80612 2.00876 0
M  V30 20243 C 2000.7 4.01457 1.59549 0
M  V30 20244 C 1999.84 4.52782 2.7778 0
M  V30 20245 C 1998.88 5.66071 2.32874 0
M  V30 20246 N 1998.01 6.11969 3.44148 0
M  V30 20247 H 2002.85 2.96891 0.256809 0
M  V30 20248 H 2000.39 1.46649 0.115039 0
M  V30 20249 H 2002.35 3.15494 2.72983 0
M  V30 20250 H 2000.98 2.03604 2.5049 0
M  V30 20251 H 2000.03 3.7249 0.771705 0
M  V30 20252 H 2001.34 4.83505 1.22576 0
M  V30 20253 H 2000.5 4.89771 3.58064 0
M  V30 20254 H 1999.24 3.69763 3.18005 0
M  V30 20255 H 1998.24 5.28648 1.51034 0
M  V30 20256 H 1999.47 6.50882 1.93724 0
M  V30 20257 H 1997.41 5.31883 3.83975 0
M  V30 20258 H 1997.33 6.88968 3.11222 0
M  V30 20259 H 1998.6 6.53605 4.24759 0
M  V30 20260 N 2002.83 -0.116876 1.57166 0
M  V30 20261 C 2003.79 -1.12735 1.99558 0
M  V30 20262 C 2004.79 -1.34188 0.886016 0
M  V30 20263 O 2005.98 -1.30669 1.15201 0
M  V30 20264 C 2003.11 -2.48135 2.33756 0
M  V30 20265 H 2004.3 -0.762948 2.90033 0
M  V30 20266 H 2001.86 -0.36124 1.52068 0
M  V30 20267 H 2002.59 -2.89492 1.46167 0
M  V30 20268 H 2002.38 -2.33918 3.14682 0
M  V30 20269 H 2003.87 -3.20855 2.67286 0
M  V30 20270 N 2004.3 -1.52772 -0.387116 0
M  V30 20271 C 2005.27 -1.77036 -1.45571 0
M  V30 20272 C 2006.27 -0.64041 -1.47497 0
M  V30 20273 O 2007.46 -0.908478 -1.48635 0
M  V30 20274 C 2004.59 -1.87284 -2.84846 0
M  V30 20275 H 2005.78 -2.72452 -1.25339 0
M  V30 20276 H 2003.33 -1.43522 -0.61897 0
M  V30 20277 H 2004.07 -0.9386 -3.1042 0
M  V30 20278 H 2003.85 -2.6945 -2.84849 0
M  V30 20279 H 2005.34 -2.07723 -3.62272 0
M  V30 20280 N 2005.78 0.645673 -1.43767 0
M  V30 20281 C 2007.2 0.962209 -1.27333 0
M  V30 20282 C 2007.4 2.0052 -0.198519 0
M  V30 20283 O 2006.45 2.48974 0.420512 0
M  V30 20284 C 2007.77 1.4393 -2.64016 0
M  V30 20285 C 2009.31 1.55555 -2.71609 0
M  V30 20286 C 2009.79 2.06652 -4.08728 0
M  V30 20287 N 2011.28 2.13944 -4.10831 0
M  V30 20288 C 2012.02 2.54619 -5.13767 0
M  V30 20289 N 2011.51 2.94536 -6.27073 0
M  V30 20290 N 2013.3 2.54625 -5.01121 0
M  V30 20291 H 2005.46 -0.0443554 -2.12354 0
M  V30 20292 H 2007.72 0.042755 -0.947035 0
M  V30 20293 H 2007.42 0.747304 -3.43669 0
M  V30 20294 H 2007.3 2.41297 -2.89923 0
M  V30 20295 H 2009.69 2.23854 -1.92285 0
M  V30 20296 H 2009.77 0.566006 -2.49459 0
M  V30 20297 H 2009.41 1.38952 -4.88523 0
M  V30 20298 H 2009.34 3.06451 -4.28247 0
M  V30 20299 H 2011.83 1.85838 -3.29048 0
M  V30 20300 H 2012.14 3.24345 -7.01442 0
M  V30 20301 H 2010.49 2.92323 -6.30533 0
M  V30 20302 H 2013.68 2.22822 -4.11665 0
M  V30 20303 H 2013.85 2.86002 -5.81469 0
M  V30 20304 N 2007.26 1.30423 0.884744 0
M  V30 20305 C 2008.21 1.16824 1.9905 0
M  V30 20306 C 2009.18 0.0576868 1.66 0
M  V30 20307 O 2010.36 0.227913 1.89434 0
M  V30 20308 C 2007.5 0.866281 3.3405 0
M  V30 20309 C 2006.61 2.05874 3.79789 0
M  V30 20310 C 2005.75 1.69484 5.03437 0
M  V30 20311 C 2004.79 2.85224 5.41585 0
M  V30 20312 N 2003.93 2.49129 6.56414 0
M  V30 20313 H 2008.77 2.1142 2.10013 0
M  V30 20314 H 2006.3 1.05188 1.02829 0
M  V30 20315 H 2008.26 0.671829 4.11755 0
M  V30 20316 H 2006.89 -0.0428113 3.22772 0
M  V30 20317 H 2005.94 2.36443 2.97992 0
M  V30 20318 H 2007.25 2.92549 4.04001 0
M  V30 20319 H 2006.41 1.46416 5.88768 0
M  V30 20320 H 2005.15 0.799794 4.81097 0
M  V30 20321 H 2004.15 3.08958 4.5478 0
M  V30 20322 H 2005.38 3.75416 5.65897 0
M  V30 20323 H 2003.32 1.6213 6.35649 0
M  V30 20324 H 2003.24 3.29336 6.80495 0
M  V30 20325 H 2004.51 2.29417 7.44975 0
M  V30 20326 N 2008.74 -1.09711 1.13142 0
M  V30 20327 C 2009.98 -1.82097 0.892675 0
M  V30 20328 C 2010.32 -1.85341 -0.579846 0
M  V30 20329 O 2009.59 -1.3195 -1.42897 0
M  V30 20330 C 2009.87 -3.28392 1.47752 0
M  V30 20331 C 2009.73 -3.33436 3.01895 0
M  V30 20332 C 2011.05 -4.24991 1.14329 0
M  V30 20333 H 2008.17 -0.661111 0.325732 0
M  V30 20334 H 2010.81 -1.28535 1.39924 0
M  V30 20335 H 2008.96 -3.74134 1.04671 0
M  V30 20336 H 2010.63 -2.96119 3.53711 0
M  V30 20337 H 2008.87 -2.73109 3.37037 0
M  V30 20338 H 2009.54 -4.36484 3.37914 0
M  V30 20339 H 2012.02 -3.8752 1.51551 0
M  V30 20340 H 2010.9 -5.25698 1.57902 0
M  V30 20341 H 2011.16 -4.42064 0.0565583 0
M  V30 20342 N 2010.22 -0.924476 -1.27637 0
M  V30 20343 C 2011.46 -0.573533 -1.95147 0
M  V30 20344 C 2011.82 0.87504 -1.7135 0
M  V30 20345 O 2011.11 1.61551 -1.03014 0
M  V30 20346 C 2011.3 -0.831659 -3.47589 0
M  V30 20347 C 2011.13 -2.30377 -3.86208 0
M  V30 20348 C 2009.9 -2.95588 -4.09824 0
M  V30 20349 C 2012.1 -3.28104 -3.96046 0
M  V30 20350 N 2010.08 -4.32985 -4.35198 0
M  V30 20351 C 2011.45 -4.507 -4.25757 0
M  V30 20352 C 2013.51 -3.23357 -3.78609 0
M  V30 20353 C 2012.21 -5.69146 -4.39847 0
M  V30 20354 C 2014.24 -4.41111 -3.93922 0
M  V30 20355 C 2013.6 -5.62485 -4.24017 0
M  V30 20356 H 2009.7 -0.259939 -0.737534 0
M  V30 20357 H 2012.28 -1.19043 -1.54068 0
M  V30 20358 H 2010.45 -0.243948 -3.87633 0
M  V30 20359 H 2012.19 -0.443669 -4.02261 0
M  V30 20360 H 2008.94 -2.46272 -4.04533 0
M  V30 20361 H 2009.37 -5.04056 -4.51948 0
M  V30 20362 H 2014.01 -2.30589 -3.54385 0
M  V30 20363 H 2011.73 -6.62382 -4.62899 0
M  V30 20364 H 2015.31 -4.38952 -3.81854 0
M  V30 20365 H 2014.19 -6.52083 -4.35612 0
M  V30 20366 N 2011.69 1.41711 -0.689627 0
M  V30 20367 C 2012.97 1.95052 -0.146379 0
M  V30 20368 C 2013.35 1.62932 1.34225 0
M  V30 20369 O 2012.7 0.933198 2.08575 0
M  V30 20370 C 2012.91 3.46324 -0.431327 0
M  V30 20371 C 2014.26 4.23106 -0.355847 0
M  V30 20372 O 2015.28 3.54316 -0.365905 0
M  V30 20373 O 2014.14 5.45615 -0.310824 0
M  V30 20374 H 2011.23 0.82692 -0.0115 0
M  V30 20375 H 2013.78 1.5146 -0.765378 0
M  V30 20376 H 2012.55 3.62963 -1.46197 0
M  V30 20377 H 2012.18 3.96997 0.218942 0
M  V30 20378 N 2013.17 0.433965 1.51507 0
M  V30 20379 C 2014.4 -0.132403 2.06476 0
M  V30 20380 C 2014.82 -1.3675 1.30172 0
M  V30 20381 O 2014.17 -1.78907 0.360351 0
M  V30 20382 C 2014.22 -0.458007 3.58587 0
M  V30 20383 O 2013.94 0.728069 4.32008 0
M  V30 20384 C 2015.45 -1.07541 4.30058 0
M  V30 20385 H 2012.67 -0.00941889 0.670934 0
M  V30 20386 H 2015.21 0.612075 1.95125 0
M  V30 20387 H 2013.36 -1.15238 3.69863 0
M  V30 20388 H 2013.78 0.450318 5.22563 0
M  V30 20389 H 2015.25 -1.25326 5.37585 0
M  V30 20390 H 2015.73 -2.0555 3.88131 0
M  V30 20391 H 2016.34 -0.420519 4.23216 0
M  V30 20392 N 2014.65 -1.56732 0.165206 0
M  V30 20393 C 2015.61 -2.1646 -0.753498 0
M  V30 20394 C 2016.61 -1.11106 -1.16241 0
M  V30 20395 O 2017.8 -1.36652 -1.08037 0
M  V30 20396 C 2014.94 -2.7425 -2.02483 0
M  V30 20397 H 2016.13 -2.98989 -0.233629 0
M  V30 20398 H 2013.68 -1.56072 -0.0843317 0
M  V30 20399 H 2014.42 -1.95439 -2.58794 0
M  V30 20400 H 2014.2 -3.51345 -1.74065 0
M  V30 20401 H 2015.69 -3.20209 -2.6806 0
M  V30 20402 N 2016.13 0.10854 -1.57226 0
M  V30 20403 C 2017.41 0.845372 -1.76388 0
M  V30 20404 C 2017.79 1.97577 -0.743397 0
M  V30 20405 O 2017.13 2.27333 0.230685 0
M  V30 20406 C 2017.34 1.3524 -3.21732 0
M  V30 20407 C 2018.69 1.80056 -3.84532 0
M  V30 20408 O 2019.72 1.44895 -3.25398 0
M  V30 20409 O 2018.57 2.45026 -4.88492 0
M  V30 20410 H 2015.67 0.402224 -0.722596 0
M  V30 20411 H 2018.21 0.0914662 -1.69453 0
M  V30 20412 H 2016.99 0.541866 -3.8753 0
M  V30 20413 H 2016.61 2.16871 -3.33246 0
M  V30 20414 N 2017.61 1.52975 0.379009 0
M  V30 20415 C 2018.55 1.78463 1.46355 0
M  V30 20416 C 2019.52 0.628308 1.53758 0
M  V30 20417 O 2020.71 0.869084 1.69858 0
M  V30 20418 C 2017.85 1.96827 2.83467 0
M  V30 20419 C 2016.96 3.24533 2.85136 0
M  V30 20420 C 2016.1 3.33158 4.13738 0
M  V30 20421 C 2015.14 4.54948 4.09498 0
M  V30 20422 N 2014.27 4.60801 5.29724 0
M  V30 20423 H 2019.11 2.71012 1.23921 0
M  V30 20424 H 2016.65 1.34263 0.600982 0
M  V30 20425 H 2018.61 2.05459 3.63101 0
M  V30 20426 H 2017.24 1.07628 3.04329 0
M  V30 20427 H 2016.29 3.24921 1.97814 0
M  V30 20428 H 2017.6 4.14232 2.77873 0
M  V30 20429 H 2016.76 3.41029 5.01781 0
M  V30 20430 H 2015.49 2.41451 4.23737 0
M  V30 20431 H 2014.5 4.47193 3.19842 0
M  V30 20432 H 2015.72 5.47983 4.01113 0
M  V30 20433 H 2013.67 3.71989 5.40333 0
M  V30 20434 H 2013.59 5.44386 5.24576 0
M  V30 20435 H 2014.86 4.72938 6.19637 0
M  V30 20436 N 2019.08 -0.63804 1.44107 0
M  V30 20437 C 2020.33 -1.39772 1.46526 0
M  V30 20438 C 2020.66 -1.94267 0.0952359 0
M  V30 20439 O 2019.91 -1.73674 -0.901993 0
M  V30 20440 C 2020.21 -2.58567 2.46734 0
M  V30 20441 C 2019.88 -2.22403 3.92234 0
M  V30 20442 C 2018.54 -2.12252 4.31859 0
M  V30 20443 C 2020.89 -1.93717 4.83863 0
M  V30 20444 C 2018.22 -1.71594 5.61046 0
M  V30 20445 C 2020.57 -1.54553 6.1343 0
M  V30 20446 C 2019.24 -1.42939 6.52016 0
M  V30 20447 H 2018.51 -0.511463 0.536177 0
M  V30 20448 H 2021.15 -0.724184 1.77279 0
M  V30 20449 H 2019.46 -3.31123 2.0944 0
M  V30 20450 H 2021.16 -3.16791 2.45855 0
M  V30 20451 H 2017.75 -2.31219 3.60882 0
M  V30 20452 H 2021.93 -2.00472 4.5401 0
M  V30 20453 H 2017.19 -1.612 5.89766 0
M  V30 20454 H 2021.36 -1.31393 6.83892 0
M  V30 20455 H 2018.99 -1.11206 7.52022 0
M  V30 20456 N 2020.56 -1.3089 -0.877815 0
M  V30 20457 C 2021.79 -1.23068 -1.66319 0
M  V30 20458 C 2022.21 0.205309 -1.8768 0
M  V30 20459 O 2021.56 1.13467 -1.42939 0
M  V30 20460 C 2021.61 -1.96305 -3.03557 0
M  V30 20461 O 2021.33 -3.34298 -2.83154 0
M  V30 20462 C 2022.84 -1.95228 -3.97996 0
M  V30 20463 H 2020.06 -0.425583 -0.518768 0
M  V30 20464 H 2022.6 -1.72636 -1.09623 0
M  V30 20465 H 2020.75 -1.50518 -3.56964 0
M  V30 20466 H 2021.17 -3.71486 -3.70268 0
M  V30 20467 H 2022.64 -2.50997 -4.91635 0
M  V30 20468 H 2023.12 -0.932904 -4.29178 0
M  V30 20469 H 2023.73 -2.40858 -3.50525 0
M  V30 20470 N 2022.04 1.0911 -1.13723 0
M  V30 20471 C 2023.46 1.33403 -0.87611 0
M  V30 20472 C 2023.66 1.95536 0.486607 0
M  V30 20473 O 2022.71 2.2038 1.23243 0
M  V30 20474 C 2024.03 2.24255 -2.00325 0
M  V30 20475 C 2025.57 2.37755 -2.03572 0
M  V30 20476 C 2026.05 3.31944 -3.15558 0
M  V30 20477 N 2027.54 3.39519 -3.15089 0
M  V30 20478 C 2028.27 4.12409 -3.9838 0
M  V30 20479 N 2027.77 4.88068 -4.91692 0
M  V30 20480 N 2029.56 4.08167 -3.86467 0
M  V30 20481 H 2021.71 0.671565 -2.01504 0
M  V30 20482 H 2023.98 0.358401 -0.877641 0
M  V30 20483 H 2023.68 1.85834 -2.98595 0
M  V30 20484 H 2023.56 3.24667 -1.92019 0
M  V30 20485 H 2025.94 2.75438 -1.05913 0
M  V30 20486 H 2026.03 1.3711 -2.1595 0
M  V30 20487 H 2025.67 2.94984 -4.13458 0
M  V30 20488 H 2025.6 4.32501 -3.00418 0
M  V30 20489 H 2028.09 2.85573 -2.475 0
M  V30 20490 H 2028.4 5.41127 -5.51726 0
M  V30 20491 H 2026.75 4.87146 -4.95695 0
M  V30 20492 H 2029.94 3.48161 -3.12892 0
M  V30 20493 H 2030.11 4.64711 -4.51606 0
M  V30 20494 N 2023.52 0.931232 1.27145 0
M  V30 20495 C 2024.8 0.491789 1.89317 0
M  V30 20496 C 2025.18 -1.03026 1.84252 0
M  V30 20497 O 2024.52 -1.88596 1.29011 0
M  V30 20498 C 2024.73 1.04187 3.33086 0
M  V30 20499 C 2026.08 1.1045 4.09983 0
M  V30 20500 O 2027.11 0.991747 3.42115 0
M  V30 20501 O 2025.96 1.27861 5.31332 0
M  V30 20502 H 2023.06 0.158746 0.811621 0
M  V30 20503 H 2025.6 1.02315 1.35387 0
M  V30 20504 H 2024.38 2.08566 3.31083 0
M  V30 20505 H 2024 0.492365 3.9454 0
M  V30 20506 N 2025 -1.41343 0.697132 0
M  V30 20507 C 2026.23 -2.05528 0.237841 0
M  V30 20508 C 2026.64 -1.52468 -1.11351 0
M  V30 20509 O 2026 -0.673549 -1.69616 0
M  V30 20510 C 2026.05 -3.61007 0.188651 0
M  V30 20511 O 2025.77 -4.12106 1.48662 0
M  V30 20512 C 2027.27 -4.42341 -0.291439 0
M  V30 20513 H 2024.49 -0.661864 0.110352 0
M  V30 20514 H 2027.03 -1.81086 0.950155 0
M  V30 20515 H 2025.19 -3.84483 -0.474496 0
M  V30 20516 H 2025.6 -5.06162 1.37477 0
M  V30 20517 H 2027.08 -5.51316 -0.274731 0
M  V30 20518 H 2027.55 -4.1856 -1.33057 0
M  V30 20519 H 2028.16 -4.23933 0.340765 0
M  V30 20520 N 2026.48 -0.441993 -1.51275 0
M  V30 20521 C 2027.41 0.357557 -2.30746 0
M  V30 20522 C 2028.39 1.01683 -1.36362 0
M  V30 20523 O 2029.57 1.01958 -1.65282 0
M  V30 20524 C 2026.7 1.45642 -3.15287 0
M  V30 20525 C 2025.66 0.920377 -4.17987 0
M  V30 20526 C 2024.98 2.11534 -4.91078 0
M  V30 20527 C 2026.28 -0.0483941 -5.22278 0
M  V30 20528 H 2027.98 -0.30565 -2.97836 0
M  V30 20529 H 2025.52 -0.148438 -1.43233 0
M  V30 20530 H 2027.47 2.02301 -3.69665 0
M  V30 20531 H 2026.2 2.14798 -2.46027 0
M  V30 20532 H 2024.86 0.375962 -3.64667 0
M  V30 20533 H 2024.51 2.7932 -4.18317 0
M  V30 20534 H 2024.21 1.76303 -5.60527 0
M  V30 20535 H 2025.73 2.68738 -5.48281 0
M  V30 20536 H 2027.14 0.428053 -5.717 0
M  V30 20537 H 2025.54 -0.313504 -5.99281 0
M  V30 20538 H 2026.61 -0.983611 -4.74819 0
M  V30 20539 N 2027.95 1.56642 -0.173515 0
M  V30 20540 C 2029.2 1.9656 0.469943 0
M  V30 20541 C 2029.52 1.06067 1.6363 0
M  V30 20542 O 2028.79 0.127477 1.95485 0
M  V30 20543 H 2027.37 0.725824 0.176604 0
M  V30 20544 H 2030.03 1.93222 -0.255212 0
M  V30 20545 H 2029.13 3.00903 0.828491 0
M  V30 20546 N 2029.43 -0.1002 1.57281 0
M  V30 20547 C 2030.68 -0.804623 1.85828 0
M  V30 20548 C 2031.01 -1.78981 0.761313 0
M  V30 20549 O 2030.26 -1.94153 -0.245591 0
M  V30 20550 C 2030.56 -1.57263 3.20941 0
M  V30 20551 C 2030.23 -0.730033 4.44951 0
M  V30 20552 C 2028.89 -0.497735 4.78619 0
M  V30 20553 C 2031.24 -0.143946 5.21001 0
M  V30 20554 C 2028.57 0.330597 5.85768 0
M  V30 20555 C 2030.92 0.671681 6.29024 0
M  V30 20556 C 2029.58 0.914119 6.61211 0
M  V30 20557 H 2028.85 -0.294433 0.679993 0
M  V30 20558 H 2031.5 -0.0662872 1.91385 0
M  V30 20559 H 2029.81 -2.3824 3.11045 0
M  V30 20560 H 2031.5 -2.12197 3.40255 0
M  V30 20561 H 2028.09 -0.921196 4.18583 0
M  V30 20562 H 2032.28 -0.310588 4.95327 0
M  V30 20563 H 2027.53 0.527461 6.09121 0
M  V30 20564 H 2031.71 1.13271 6.87126 0
M  V30 20565 H 2029.33 1.55777 7.44068 0
M  V30 20566 N 2030.91 -1.53174 -0.370891 0
M  V30 20567 C 2032.13 -1.73304 -1.13932 0
M  V30 20568 C 2032.56 -0.458494 -1.82427 0
M  V30 20569 O 2031.92 0.587094 -1.71531 0
M  V30 20570 C 2031.97 -2.89544 -2.14933 0
M  V30 20571 O 2031.07 -2.57782 -3.21904 0
M  V30 20572 H 2030.41 -0.575715 -0.33083 0
M  V30 20573 H 2032.94 -2.00038 -0.429641 0
M  V30 20574 H 2032.95 -3.15559 -2.58625 0
M  V30 20575 H 2031.63 -3.81998 -1.64471 0
M  V30 20576 H 2030.2 -2.42568 -2.83223 0
M  V30 20577 N 2032.39 0.630389 -1.44443 0
M  V30 20578 C 2033.63 1.39199 -1.47484 0
M  V30 20579 C 2033.97 1.93903 -0.107313 0
M  V30 20580 O 2033.24 1.73699 0.875158 0
M  V30 20581 C 2033.52 2.55674 -2.5358 0
M  V30 20582 C 2033.38 2.06314 -3.99693 0
M  V30 20583 C 2034.7 3.57858 -2.56174 0
M  V30 20584 H 2031.82 0.504794 -0.536984 0
M  V30 20585 H 2034.46 0.712698 -1.76127 0
M  V30 20586 H 2032.61 3.13624 -2.29287 0
M  V30 20587 H 2034.28 1.53189 -4.35122 0
M  V30 20588 H 2032.52 1.37492 -4.11435 0
M  V30 20589 H 2033.19 2.90173 -4.69578 0
M  V30 20590 H 2035.67 3.0971 -2.77883 0
M  V30 20591 H 2034.55 4.36875 -3.32312 0
M  V30 20592 H 2034.81 4.11976 -1.60401 0
M  V30 20593 N 2033.87 1.31354 0.870861 0
M  V30 20594 C 2034.8 1.21518 1.99388 0
M  V30 20595 C 2035.78 0.102582 1.6979 0
M  V30 20596 O 2036.96 0.287028 1.92067 0
M  V30 20597 C 2034.09 0.920813 3.34871 0
M  V30 20598 C 2033.05 1.99289 3.78772 0
M  V30 20599 C 2032.37 1.55123 5.11704 0
M  V30 20600 C 2033.67 3.40589 3.95975 0
M  V30 20601 H 2035.37 2.15473 2.07875 0
M  V30 20602 H 2032.91 1.03734 0.998761 0
M  V30 20603 H 2034.86 0.838612 4.12971 0
M  V30 20604 H 2033.59 -0.0543971 3.26555 0
M  V30 20605 H 2032.25 2.06496 3.0291 0
M  V30 20606 H 2031.9 0.563901 4.99829 0
M  V30 20607 H 2031.6 2.26842 5.42048 0
M  V30 20608 H 2033.12 1.48308 5.92315 0
M  V30 20609 H 2034.53 3.36061 4.64474 0
M  V30 20610 H 2032.93 4.10517 4.37716 0
M  V30 20611 H 2034 3.8144 2.99385 0
M  V30 20612 N 2035.34 -1.08505 1.143 0
M  V30 20613 C 2036.29 -2.13593 0.797635 0
M  V30 20614 C 2037.28 -1.59488 -0.212729 0
M  V30 20615 O 2038.47 -1.76993 -0.0152218 0
M  V30 20616 C 2035.6 -3.42191 0.275716 0
M  V30 20617 C 2034.68 -4.0318 1.31554 0
M  V30 20618 N 2035.08 -4.38591 2.51936 0
M  V30 20619 C 2033.37 -4.30501 1.16553 0
M  V30 20620 C 2034.07 -4.86762 3.18494 0
M  V30 20621 N 2033.05 -4.84804 2.45898 0
M  V30 20622 H 2036.85 -2.38788 1.7134 0
M  V30 20623 H 2034.37 -1.25827 1.02671 0
M  V30 20624 H 2036.36 -4.16899 0.0100056 0
M  V30 20625 H 2035.02 -3.18445 -0.634256 0
M  V30 20626 H 2036.03 -4.29651 2.89171 0
M  V30 20627 H 2032.71 -4.16314 0.314497 0
M  V30 20628 H 2034.1 -5.23548 4.21126 0
M  V30 20629 N 2036.82 -0.937962 -1.26649 0
M  V30 20630 C 2038.07 -0.584683 -1.94189 0
M  V30 20631 C 2038.4 0.873516 -1.73446 0
M  V30 20632 O 2037.68 1.62451 -1.06957 0
M  V30 20633 C 2037.96 -0.923855 -3.48047 0
M  V30 20634 C 2037.81 -2.43656 -3.7809 0
M  V30 20635 C 2039.13 -0.436986 -4.37925 0
M  V30 20636 H 2036.25 -0.213892 -0.70528 0
M  V30 20637 H 2038.89 -1.1716 -1.49578 0
M  V30 20638 H 2037.04 -0.424389 -3.86175 0
M  V30 20639 H 2038.71 -3.00851 -3.49695 0
M  V30 20640 H 2036.96 -2.88141 -3.2428 0
M  V30 20641 H 2037.63 -2.62439 -4.85623 0
M  V30 20642 H 2040.1 -0.865189 -4.07006 0
M  V30 20643 H 2038.98 -0.703159 -5.44378 0
M  V30 20644 H 2039.24 0.663042 -4.371 0
M  V30 20645 N 2038.3 1.40971 -0.704618 0
M  V30 20646 C 2039.55 2.01377 -0.239781 0
M  V30 20647 C 2039.88 1.5571 1.16051 0
M  V30 20648 O 2039.15 0.772278 1.78511 0
M  V30 20649 C 2039.44 3.58784 -0.307556 0
M  V30 20650 C 2039.29 4.14553 -1.74544 0
M  V30 20651 C 2040.61 4.3888 0.327516 0
M  V30 20652 H 2037.73 0.731655 -0.088603 0
M  V30 20653 H 2040.37 1.67597 -0.895048 0
M  V30 20654 H 2038.52 3.87692 0.25036 0
M  V30 20655 H 2040.19 3.96486 -2.3579 0
M  V30 20656 H 2038.43 3.69254 -2.2767 0
M  V30 20657 H 2039.11 5.23715 -1.74433 0
M  V30 20658 H 2041.58 4.15838 -0.147737 0
M  V30 20659 H 2040.46 5.48332 0.249594 0
M  V30 20660 H 2040.72 4.19029 1.40952 0
M  V30 20661 N 2039.78 0.45001 1.51039 0
M  V30 20662 C 2041.19 0.10298 1.59267 0
M  V30 20663 C 2041.39 -1.38881 1.45995 0
M  V30 20664 O 2040.45 -2.16003 1.30763 0
M  V30 20665 C 2041.76 0.634392 2.93932 0
M  V30 20666 C 2043.31 0.59595 3.07274 0
M  V30 20667 C 2043.79 1.10455 4.44481 0
M  V30 20668 N 2045.28 1.06307 4.50836 0
M  V30 20669 C 2046.01 1.42733 5.55351 0
M  V30 20670 N 2045.51 1.86506 6.67224 0
M  V30 20671 N 2047.3 1.34469 5.45779 0
M  V30 20672 H 2039.45 1.42049 1.57911 0
M  V30 20673 H 2041.72 0.586142 0.745078 0
M  V30 20674 H 2041.42 1.67863 3.09055 0
M  V30 20675 H 2041.3 0.0662668 3.77142 0
M  V30 20676 H 2043.68 -0.439332 2.91811 0
M  V30 20677 H 2043.76 1.20063 2.25873 0
M  V30 20678 H 2043.41 2.13836 4.60692 0
M  V30 20679 H 2043.34 0.476284 5.24442 0
M  V30 20680 H 2045.83 0.741765 3.70549 0
M  V30 20681 H 2046.14 2.12505 7.43009 0
M  V30 20682 H 2044.49 1.90443 6.68398 0
M  V30 20683 H 2047.68 1.00128 4.57266 0
M  V30 20684 H 2047.85 1.63185 6.27116 0
M  V30 20685 N 2041.26 -1.56548 0.18182 0
M  V30 20686 C 2042.53 -1.88906 -0.507337 0
M  V30 20687 C 2042.91 -1.09334 -1.80581 0
M  V30 20688 O 2042.26 -0.190397 -2.27705 0
M  V30 20689 C 2042.47 -3.41085 -0.73904 0
M  V30 20690 C 2043.82 -4.11043 -1.06435 0
M  V30 20691 O 2044.84 -3.46461 -0.82722 0
M  V30 20692 O 2043.7 -5.2516 -1.51225 0
M  V30 20693 H 2040.8 -0.784135 -0.262794 0
M  V30 20694 H 2043.34 -1.68254 0.221041 0
M  V30 20695 H 2042.11 -3.90893 0.17847 0
M  V30 20696 H 2041.74 -3.67384 -1.52036 0
M  V30 20697 N 2042.73 0.0918577 -1.57332 0
M  V30 20698 C 2043.68 1.13005 -2.03304 0
M  V30 20699 C 2044.68 1.4128 -0.934688 0
M  V30 20700 O 2045.88 1.40923 -1.11986 0
M  V30 20701 H 2042.26 0.381664 -0.647948 0
M  V30 20702 H 2044.23 0.716022 -2.89682 0
M  V30 20703 C 2042.98 2.44114 -2.47595 0
M  V30 20704 H 2042.3 2.23203 -3.31694 0
M  V30 20705 H 2043.74 3.15252 -2.83535 0
M  V30 20706 C 2042.2 3.08644 -1.35057 0
M  V30 20707 O 2042.73 3.95877 -0.681498 0
M  V30 20708 N 2040.94 2.68946 -1.10074 0
M  V30 20709 H 2040.48 1.98101 -1.64662 0
M  V30 20710 H 2040.44 3.12448 -0.349761 0
M  V30 20711 N 2044.21 1.53368 0.362763 0
M  V30 20712 C 2045.62 1.61344 0.939417 0
M  V30 20713 C 2045.97 0.48262 1.90172 0
M  V30 20714 O 2045.1 -0.39054 2.12847 0
M  V30 20715 C 2045.69 2.92445 1.71059 0
M  V30 20716 C 2044.25 3.02747 2.23654 0
M  V30 20717 C 2043.4 2.5666 1.0498 0
M  V30 20718 H 2046.35 1.58068 0.141471 0
M  V30 20719 H 2046.37 2.80406 2.57201 0
M  V30 20720 H 2045.88 3.74728 1.00996 0
M  V30 20721 H 2043.99 2.25057 2.96951 0
M  V30 20722 H 2044.1 4.07877 2.51343 0
M  V30 20723 H 2042.46 2.11603 1.41761 0
M  V30 20724 H 2043.25 3.41364 0.364111 0
M  V30 20725 N 2045.69 -0.62272 1.44776 0
M  V30 20726 C 2046.92 -1.40911 1.51498 0
M  V30 20727 C 2047.33 -1.88261 0.142579 0
M  V30 20728 O 2046.69 -1.61333 -0.853105 0
M  V30 20729 C 2046.74 -2.62379 2.48676 0
M  V30 20730 O 2046.46 -2.17001 3.80582 0
M  V30 20731 C 2047.96 -3.55413 2.64947 0
M  V30 20732 H 2045.18 -0.431862 0.513552 0
M  V30 20733 H 2047.73 -0.760822 1.8982 0
M  V30 20734 H 2045.88 -3.23281 2.13467 0
M  V30 20735 H 2046.3 -2.95811 4.33124 0
M  V30 20736 H 2047.77 -4.37227 3.36952 0
M  V30 20737 H 2048.25 -4.04771 1.70462 0
M  V30 20738 H 2048.85 -3.00374 3.01091 0
M  V30 20739 N 2047.17 -1.31814 -0.863883 0
M  V30 20740 C 2048.39 -1.24961 -1.65528 0
M  V30 20741 C 2048.82 0.18096 -1.87228 0
M  V30 20742 O 2048.18 1.12919 -1.41842 0
M  V30 20743 C 2048.22 -2.00518 -2.99708 0
M  V30 20744 O 2047.33 -1.34668 -3.89793 0
M  V30 20745 H 2046.67 -0.431127 -0.505001 0
M  V30 20746 H 2049.2 -1.73981 -1.07665 0
M  V30 20747 H 2049.21 -2.10344 -3.49599 0
M  V30 20748 H 2047.88 -3.0455 -2.83235 0
M  V30 20749 H 2046.46 -1.33332 -3.48249 0
M  V30 20750 N 2048.65 1.07897 -1.14873 0
M  V30 20751 C 2049.9 1.79765 -0.914736 0
M  V30 20752 C 2050.21 1.87416 0.559879 0
M  V30 20753 O 2051.41 2.55749 0.911294 0
M  V30 20754 C 2049.87 3.23014 -1.58713 0
M  V30 20755 C 2049.48 3.23581 -3.09837 0
M  V30 20756 C 2051.22 3.99529 -1.43446 0
M  V30 20757 C 2049.13 4.6145 -3.69889 0
M  V30 20758 H 2048.06 0.673704 -0.338585 0
M  V30 20759 H 2050.71 1.21148 -1.37824 0
M  V30 20760 H 2049.09 3.8179 -1.05131 0
M  V30 20761 H 2050.27 2.74482 -3.7013 0
M  V30 20762 H 2048.58 2.60562 -3.24802 0
M  V30 20763 H 2051.18 5.01415 -1.85708 0
M  V30 20764 H 2051.52 4.14551 -0.381226 0
M  V30 20765 H 2052.05 3.47235 -1.94094 0
M  V30 20766 H 2048.79 4.51632 -4.75088 0
M  V30 20767 H 2048.31 5.10809 -3.14378 0
M  V30 20768 H 2049.99 5.30422 -3.70488 0
M  V30 20769 N 2050.12 0.944665 1.2615 0
M  V30 20770 C 2051.37 0.589817 1.92884 0
M  V30 20771 C 2051.69 -0.875787 1.74898 0
M  V30 20772 O 2052.89 -1.34016 2.36118 0
M  V30 20773 C 2051.35 1.00415 3.45608 0
M  V30 20774 C 2050.96 2.4916 3.72321 0
M  V30 20775 C 2052.7 0.721357 4.18326 0
M  V30 20776 C 2050.61 2.84445 5.18503 0
M  V30 20777 H 2049.54 0.216879 0.722135 0
M  V30 20778 H 2052.19 1.14777 1.43173 0
M  V30 20779 H 2050.57 0.374687 3.94223 0
M  V30 20780 H 2051.74 3.1704 3.34398 0
M  V30 20781 H 2050.06 2.74805 3.12843 0
M  V30 20782 H 2052.66 0.961267 5.25988 0
M  V30 20783 H 2053 -0.341981 4.14893 0
M  V30 20784 H 2053.53 1.3107 3.75587 0
M  V30 20785 H 2050.27 3.89756 5.2704 0
M  V30 20786 H 2049.79 2.2123 5.5751 0
M  V30 20787 H 2051.47 2.73098 5.86538 0
M  V30 20788 N 2051.6 -1.40596 0.712085 0
M  V30 20789 C 2052.57 -2.29105 0.0660369 0
M  V30 20790 C 2053.57 -1.45196 -0.690992 0
M  V30 20791 O 2054.76 -1.66151 -0.523417 0
M  V30 20792 C 2051.89 -3.2835 -0.916461 0
M  V30 20793 H 2053.08 -2.87734 0.845539 0
M  V30 20794 H 2050.63 -1.48859 0.476533 0
M  V30 20795 H 2051.37 -2.74733 -1.72314 0
M  V30 20796 H 2051.15 -3.90288 -0.376557 0
M  V30 20797 H 2052.64 -3.94634 -1.36578 0
M  V30 20798 N 2053.08 -0.458013 -1.50798 0
M  V30 20799 C 2054.31 0.10185 -2.0715 0
M  V30 20800 C 2054.73 1.33899 -1.32109 0
M  V30 20801 O 2054.09 1.77589 -0.364928 0
M  V30 20802 C 2054.14 0.381979 -3.58571 0
M  V30 20803 O 2053.24 1.46484 -3.85508 0
M  V30 20804 H 2052.58 -0.00721903 -0.663961 0
M  V30 20805 H 2055.11 -0.645297 -1.94157 0
M  V30 20806 H 2055.12 0.626354 -4.03163 0
M  V30 20807 H 2053.8 -0.522121 -4.1261 0
M  V30 20808 H 2052.37 1.20881 -3.52764 0
M  V30 20809 N 2054.56 1.56449 -0.190119 0
M  V30 20810 C 2055.81 1.97048 0.449068 0
M  V30 20811 C 2056.13 1.07797 1.62496 0
M  V30 20812 O 2055.4 0.148203 1.95339 0
M  V30 20813 H 2053.98 0.727656 0.168896 0
M  V30 20814 H 2056.64 1.9294 -0.275691 0
M  V30 20815 H 2055.74 3.01764 0.79653 0
M  V30 20816 N 2056.04 -0.0835127 1.57379 0
M  V30 20817 C 2057.28 -0.786031 1.86948 0
M  V30 20818 C 2057.62 -1.77811 0.780828 0
M  V30 20819 O 2056.89 -1.93362 -0.210075 0
M  V30 20820 C 2057.17 -1.50447 3.27166 0
M  V30 20821 C 2057.03 -0.529601 4.46671 0
M  V30 20822 C 2058.35 -2.45226 3.65448 0
M  V30 20823 H 2055.47 -0.284294 0.67996 0
M  V30 20824 H 2058.11 -0.0494231 1.89936 0
M  V30 20825 H 2056.26 -2.13237 3.24749 0
M  V30 20826 H 2057.93 0.0921842 4.61208 0
M  V30 20827 H 2056.17 0.156069 4.33519 0
M  V30 20828 H 2056.84 -1.06967 5.41537 0
M  V30 20829 H 2059.32 -1.92521 3.68883 0
M  V30 20830 H 2058.2 -2.92505 4.6447 0
M  V30 20831 H 2058.46 -3.29506 2.94751 0
M  V30 20832 N 2057.52 -1.53558 -0.354624 0
M  V30 20833 C 2058.47 -1.77149 -1.43535 0
M  V30 20834 C 2059.45 -0.626333 -1.48209 0
M  V30 20835 O 2060.64 -0.885366 -1.53265 0
M  V30 20836 C 2057.77 -1.97463 -2.80826 0
M  V30 20837 C 2056.86 -3.18012 -2.80587 0
M  V30 20838 N 2057.25 -4.39705 -2.49986 0
M  V30 20839 C 2055.55 -3.18957 -3.11741 0
M  V30 20840 C 2056.25 -5.21502 -2.57702 0
M  V30 20841 N 2055.22 -4.57963 -2.92867 0
M  V30 20842 H 2059.02 -2.68839 -1.18755 0
M  V30 20843 H 2056.54 -1.52332 -0.562901 0
M  V30 20844 H 2058.54 -2.12494 -3.58681 0
M  V30 20845 H 2057.2 -1.07008 -3.06561 0
M  V30 20846 H 2058.21 -4.67248 -2.23382 0
M  V30 20847 H 2054.88 -2.38432 -3.42719 0
M  V30 20848 H 2056.27 -6.28602 -2.37296 0
M  V30 20849 N 2058.99 0.615033 -1.45104 0
M  V30 20850 C 2060.22 1.39902 -1.52023 0
M  V30 20851 C 2060.63 1.88611 -0.149112 0
M  V30 20852 O 2059.97 1.6242 0.858222 0
M  V30 20853 C 2060.04 2.6429 -2.43703 0
M  V30 20854 C 2059.7 2.3727 -3.90579 0
M  V30 20855 C 2060.7 1.98094 -4.80682 0
M  V30 20856 C 2058.38 2.50412 -4.3543 0
M  V30 20857 C 2060.38 1.72411 -6.13639 0
M  V30 20858 C 2058.06 2.24342 -5.68431 0
M  V30 20859 C 2059.06 1.85402 -6.57354 0
M  V30 20860 O 2058.75 1.59633 -7.87891 0
M  V30 20861 H 2058.48 0.434923 -0.517511 0
M  V30 20862 H 2061.04 0.757868 -1.90907 0
M  V30 20863 H 2059.27 3.31099 -1.99775 0
M  V30 20864 H 2060.95 3.26322 -2.41389 0
M  V30 20865 H 2061.72 1.87483 -4.47297 0
M  V30 20866 H 2057.6 2.79689 -3.66463 0
M  V30 20867 H 2061.14 1.41942 -6.83007 0
M  V30 20868 H 2057.04 2.34567 -6.01372 0
M  V30 20869 H 2057.81 1.73747 -7.99846 0
M  V30 20870 N 2060.47 1.3227 0.85688 0
M  V30 20871 C 2061.42 1.17604 1.95329 0
M  V30 20872 C 2062.41 0.0835503 1.60683 0
M  V30 20873 O 2063.6 0.309827 1.74267 0
M  V30 20874 C 2060.73 0.89897 3.31321 0
M  V30 20875 C 2059.81 2.03306 3.72193 0
M  V30 20876 N 2060.2 3.28141 3.84911 0
M  V30 20877 C 2058.5 1.93573 4.01803 0
M  V30 20878 C 2059.2 4.02408 4.20051 0
M  V30 20879 N 2058.18 3.30686 4.31448 0
M  V30 20880 H 2061.98 2.12249 2.03292 0
M  V30 20881 H 2059.49 1.24017 1.0485 0
M  V30 20882 H 2061.49 0.774863 4.09636 0
M  V30 20883 H 2060.15 -0.0391247 3.24676 0
M  V30 20884 H 2061.16 3.63104 3.69291 0
M  V30 20885 H 2057.84 1.07311 4.03473 0
M  V30 20886 H 2059.23 5.10048 4.37379 0
M  V30 20887 N 2061.95 -1.07287 1.15444 0
M  V30 20888 C 2062.9 -2.12735 0.820244 0
M  V30 20889 C 2063.88 -1.59704 -0.195801 0
M  V30 20890 O 2065.08 -1.77 0.00355156 0
M  V30 20891 C 2062.2 -3.41879 0.311994 0
M  V30 20892 C 2061.29 -4.01762 1.35823 0
M  V30 20893 N 2061.68 -4.35894 2.56574 0
M  V30 20894 C 2059.98 -4.29241 1.21113 0
M  V30 20895 C 2060.68 -4.83356 3.23638 0
M  V30 20896 N 2059.66 -4.82169 2.51026 0
M  V30 20897 H 2063.46 -2.36958 1.73863 0
M  V30 20898 H 2060.97 -1.24731 1.03999 0
M  V30 20899 H 2062.97 -4.16865 0.0542227 0
M  V30 20900 H 2061.63 -3.191 -0.600445 0
M  V30 20901 H 2062.64 -4.2656 2.93712 0
M  V30 20902 H 2059.32 -4.15957 0.358635 0
M  V30 20903 H 2060.71 -5.19052 4.26655 0
M  V30 20904 N 2063.43 -0.951342 -1.25647 0
M  V30 20905 C 2064.84 -0.645559 -1.75184 0
M  V30 20906 C 2065.19 0.83913 -1.7735 0
M  V30 20907 O 2064.31 1.65671 -1.3922 0
M  V30 20908 C 2064.91 -1.16512 -3.18136 0
M  V30 20909 C 2063.47 -0.90956 -3.65245 0
M  V30 20910 C 2062.62 -1.31009 -2.44401 0
M  V30 20911 H 2065.57 -1.12852 -1.1158 0
M  V30 20912 H 2065.59 -0.523662 -3.76879 0
M  V30 20913 H 2065.1 -2.24571 -3.16527 0
M  V30 20914 H 2063.2 0.156212 -3.72272 0
M  V30 20915 H 2063.31 -1.54371 -4.53549 0
M  V30 20916 H 2061.68 -0.728474 -2.4406 0
M  V30 20917 H 2062.46 -2.39983 -2.45486 0
M  V30 20918 N 2064.91 1.40216 -0.719531 0
M  V30 20919 C 2066.18 1.94697 -0.18772 0
M  V30 20920 C 2066.56 1.65742 1.30739 0
M  V30 20921 O 2065.91 0.97723 2.06549 0
M  V30 20922 C 2066.12 3.45332 -0.50469 0
M  V30 20923 C 2067.47 4.22256 -0.445515 0
M  V30 20924 O 2068.49 3.5346 -0.440978 0
M  V30 20925 O 2067.35 5.44833 -0.426487 0
M  V30 20926 H 2064.45 0.82649 -0.0290376 0
M  V30 20927 H 2066.99 1.49802 -0.797333 0
M  V30 20928 H 2065.76 3.5978 -1.53863 0
M  V30 20929 H 2065.39 3.97372 0.134684 0
M  V30 20930 N 2066.38 0.466004 1.50553 0
M  V30 20931 C 2067.63 -0.09056 2.01897 0
M  V30 20932 C 2067.95 -1.40673 1.35041 0
M  V30 20933 O 2067.22 -1.89567 0.494095 0
M  V30 20934 H 2065.8 -0.0364574 0.74611 0
M  V30 20935 H 2068.46 0.615265 1.84934 0
M  V30 20936 H 2067.56 -0.245757 3.11131 0
M  V30 20937 N 2067.86 -1.56346 0.198413 0
M  V30 20938 C 2069.11 -1.97966 -0.440131 0
M  V30 20939 C 2069.44 -1.08533 -1.61041 0
M  V30 20940 O 2068.72 -0.138034 -1.9401 0
M  V30 20941 C 2069 -3.48747 -0.897069 0
M  V30 20942 C 2068.85 -4.48957 0.275249 0
M  V30 20943 C 2070.17 -4.03314 -1.76141 0
M  V30 20944 H 2067.29 -0.719752 -0.15851 0
M  V30 20945 H 2069.93 -1.87774 0.290003 0
M  V30 20946 H 2068.08 -3.57564 -1.51921 0
M  V30 20947 H 2069.75 -4.52175 0.912988 0
M  V30 20948 H 2068 -4.23791 0.926484 0
M  V30 20949 H 2068.67 -5.51931 -0.0870366 0
M  V30 20950 H 2071.14 -3.97297 -1.23669 0
M  V30 20951 H 2070.02 -5.09178 -2.05009 0
M  V30 20952 H 2070.28 -3.48776 -2.71676 0
M  V30 20953 N 2069.34 0.0751653 -1.57421 0
M  V30 20954 C 2070.27 1.09007 -2.06494 0
M  V30 20955 C 2071.25 1.40573 -0.957766 0
M  V30 20956 O 2072.44 1.50259 -1.23028 0
M  V30 20957 C 2069.57 2.40446 -2.50605 0
M  V30 20958 C 2068.52 2.2324 -3.65168 0
M  V30 20959 C 2067.85 3.60033 -3.95323 0
M  V30 20960 C 2069.15 1.65642 -4.95338 0
M  V30 20961 H 2070.84 0.681725 -2.91535 0
M  V30 20962 H 2068.39 0.326481 -1.4025 0
M  V30 20963 H 2070.34 3.11734 -2.83548 0
M  V30 20964 H 2069.06 2.83254 -1.62588 0
M  V30 20965 H 2067.72 1.54393 -3.32503 0
M  V30 20966 H 2067.37 4.00404 -3.04443 0
M  V30 20967 H 2067.07 3.4936 -4.72463 0
M  V30 20968 H 2068.59 4.32757 -4.30759 0
M  V30 20969 H 2070.01 2.26793 -5.26534 0
M  V30 20970 H 2068.41 1.65675 -5.76777 0
M  V30 20971 H 2069.48 0.617593 -4.80951 0
M  V30 20972 N 2070.82 1.53744 0.346476 0
M  V30 20973 C 2072.05 1.7453 1.10557 0
M  V30 20974 C 2072.46 0.482996 1.82931 0
M  V30 20975 O 2071.8 -0.554895 1.75119 0
M  V30 20976 C 2071.86 2.86918 2.16606 0
M  V30 20977 C 2071.53 4.26624 1.63832 0
M  V30 20978 C 2072.52 5.08298 1.0922 0
M  V30 20979 C 2070.21 4.73099 1.68767 0
M  V30 20980 C 2072.2 6.34547 0.602434 0
M  V30 20981 C 2069.89 5.99321 1.19403 0
M  V30 20982 C 2070.89 6.79878 0.652331 0
M  V30 20983 O 2070.57 8.03729 0.166038 0
M  V30 20984 H 2070.31 0.586761 0.335689 0
M  V30 20985 H 2072.86 2.0136 0.40536 0
M  V30 20986 H 2071.09 2.55606 2.90177 0
M  V30 20987 H 2072.78 2.95701 2.78057 0
M  V30 20988 H 2073.55 4.73557 1.04731 0
M  V30 20989 H 2069.42 4.10457 2.09871 0
M  V30 20990 H 2072.97 6.9737 0.178953 0
M  V30 20991 H 2068.87 6.33558 1.23591 0
M  V30 20992 H 2069.63 8.18009 0.283599 0
M  V30 20993 N 2072.3 -0.607329 1.45428 0
M  V30 20994 C 2073.23 -1.72873 1.56962 0
M  V30 20995 C 2074.21 -1.64804 0.421159 0
M  V30 20996 O 2075.39 -1.83199 0.64433 0
M  V30 20997 C 2072.52 -3.11476 1.53622 0
M  V30 20998 C 2071.48 -3.34357 2.67188 0
M  V30 20999 C 2070.8 -4.73236 2.48902 0
M  V30 21000 C 2072.1 -3.24586 4.09196 0
M  V30 21001 H 2073.8 -1.63477 2.5083 0
M  V30 21002 H 2071.34 -0.785054 1.20718 0
M  V30 21003 H 2073.3 -3.89725 1.60288 0
M  V30 21004 H 2072.02 -3.21714 0.562838 0
M  V30 21005 H 2070.68 -2.58499 2.5995 0
M  V30 21006 H 2070.33 -4.80206 1.49702 0
M  V30 21007 H 2070.03 -4.895 3.25059 0
M  V30 21008 H 2071.55 -5.53684 2.57422 0
M  V30 21009 H 2072.96 -3.92709 4.17676 0
M  V30 21010 H 2071.36 -3.52381 4.85745 0
M  V30 21011 H 2072.43 -2.22022 4.31085 0
M  V30 21012 N 2073.77 -1.32722 -0.849853 0
M  V30 21013 C 2075 -1.26568 -1.63671 0
M  V30 21014 C 2075.42 0.165453 -1.88074 0
M  V30 21015 O 2074.77 1.1041 -1.45313 0
M  V30 21016 C 2074.83 -2.027 -2.99324 0
M  V30 21017 O 2074.55 -3.40229 -2.75999 0
M  V30 21018 C 2076.05 -2.03626 -3.93766 0
M  V30 21019 H 2073.27 -0.436491 -0.509624 0
M  V30 21020 H 2075.81 -1.74922 -1.05937 0
M  V30 21021 H 2073.97 -1.58056 -3.53691 0
M  V30 21022 H 2074.38 -3.79256 -3.62305 0
M  V30 21023 H 2075.85 -2.61369 -4.862 0
M  V30 21024 H 2076.33 -1.02373 -4.27102 0
M  V30 21025 H 2076.94 -2.48239 -3.45337 0
M  V30 21026 N 2075.25 1.06673 -1.16011 0
M  V30 21027 C 2076.18 2.13994 -0.820931 0
M  V30 21028 C 2077.2 1.61909 0.170124 0
M  V30 21029 O 2078.39 1.78418 -0.0540947 0
M  V30 21030 C 2075.49 3.38304 -0.200883 0
M  V30 21031 C 2074.66 4.19718 -1.23108 0
M  V30 21032 C 2073.72 5.22396 -0.631544 0
M  V30 21033 O 2072.74 5.54171 -1.29936 0
M  V30 21034 N 2073.95 5.7756 0.583519 0
M  V30 21035 H 2076.71 2.43691 -1.74456 0
M  V30 21036 H 2074.27 1.2264 -1.05693 0
M  V30 21037 H 2076.26 4.04138 0.213139 0
M  V30 21038 H 2074.83 3.06263 0.626218 0
M  V30 21039 H 2074.05 3.49597 -1.82142 0
M  V30 21040 H 2075.34 4.7092 -1.92644 0
M  V30 21041 H 2074.74 5.54005 1.14432 0
M  V30 21042 H 2073.3 6.44989 0.939804 0
M  V30 21043 N 2076.73 0.957992 1.25141 0
M  V30 21044 C 2077.98 0.614592 1.92948 0
M  V30 21045 C 2078.31 -0.848868 1.74999 0
M  V30 21046 O 2077.56 -1.62488 1.09069 0
M  V30 21047 C 2077.86 0.923523 3.45262 0
M  V30 21048 C 2077.53 2.37356 3.83371 0
M  V30 21049 C 2076.19 2.7699 3.93484 0
M  V30 21050 C 2078.54 3.31508 4.02184 0
M  V30 21051 C 2075.87 4.09838 4.19821 0
M  V30 21052 C 2078.22 4.63973 4.30014 0
M  V30 21053 C 2076.88 5.03398 4.38345 0
M  V30 21054 H 2076.15 0.224895 0.706048 0
M  V30 21055 H 2078.8 1.20766 1.4862 0
M  V30 21056 H 2077.11 0.248102 3.91014 0
M  V30 21057 H 2078.8 0.636357 3.95919 0
M  V30 21058 H 2075.39 2.05619 3.76057 0
M  V30 21059 H 2079.58 3.02076 3.93781 0
M  V30 21060 H 2074.83 4.40023 4.24488 0
M  V30 21061 H 2079.01 5.36905 4.43516 0
M  V30 21062 H 2076.63 6.06363 4.58506 0
M  V30 21063 N 2078.21 -1.39832 0.726957 0
M  V30 21064 C 2079.44 -2.04978 0.281383 0
M  V30 21065 C 2079.85 -1.54795 -1.08092 0
M  V30 21066 O 2079.21 -0.709375 -1.68149 0
M  V30 21067 C 2079.26 -3.60526 0.265184 0
M  V30 21068 O 2078.98 -4.0886 1.5737 0
M  V30 21069 C 2080.48 -4.4286 -0.197547 0
M  V30 21070 H 2077.7 -0.659374 0.124366 0
M  V30 21071 H 2080.25 -1.7903 0.988352 0
M  V30 21072 H 2078.4 -3.85403 -0.392835 0
M  V30 21073 H 2078.81 -5.03132 1.48183 0
M  V30 21074 H 2080.29 -5.51775 -0.157727 0
M  V30 21075 H 2080.77 -4.21288 -1.24149 0
M  V30 21076 H 2081.37 -4.23114 0.430611 0
M  V30 21077 N 2079.69 -0.473982 -1.50304 0
M  V30 21078 C 2080.62 0.355019 -2.26434 0
M  V30 21079 C 2081.63 0.954546 -1.3188 0
M  V30 21080 O 2082.82 0.842462 -1.57368 0
M  V30 21081 C 2079.92 1.51219 -3.03292 0
M  V30 21082 C 2079.09 1.02492 -4.25222 0
M  V30 21083 C 2078.15 2.05649 -4.8435 0
M  V30 21084 O 2077.18 1.63594 -5.45184 0
M  V30 21085 N 2078.38 3.38481 -4.71605 0
M  V30 21086 H 2081.15 -0.297646 -2.98218 0
M  V30 21087 H 2078.71 -0.304934 -1.59002 0
M  V30 21088 H 2080.7 2.19927 -3.39726 0
M  V30 21089 H 2079.27 2.0695 -2.34287 0
M  V30 21090 H 2078.49 0.16363 -3.9386 0
M  V30 21091 H 2079.78 0.677339 -5.04271 0
M  V30 21092 H 2079.17 3.75356 -4.23231 0
M  V30 21093 H 2077.73 4.02979 -5.123 0
M  V30 21094 N 2081.16 1.56239 -0.206702 0
M  V30 21095 C 2082.41 1.98197 0.429627 0
M  V30 21096 C 2082.74 1.09386 1.60463 0
M  V30 21097 O 2082.02 0.148321 1.93934 0
M  V30 21098 C 2082.3 3.49218 0.878562 0
M  V30 21099 C 2082.15 4.48805 -0.299054 0
M  V30 21100 C 2083.47 4.04243 1.74 0
M  V30 21101 H 2080.59 0.720583 0.154691 0
M  V30 21102 H 2083.23 1.87617 -0.299957 0
M  V30 21103 H 2081.38 3.58365 1.50023 0
M  V30 21104 H 2083.06 4.51684 -0.936956 0
M  V30 21105 H 2081.3 4.23294 -0.948945 0
M  V30 21106 H 2081.97 5.5197 0.0577652 0
M  V30 21107 H 2084.45 3.97948 1.2156 0
M  V30 21108 H 2083.32 5.10259 2.02305 0
M  V30 21109 H 2083.58 3.50212 2.69823 0
M  V30 21110 N 2082.64 -0.0668159 1.57458 0
M  V30 21111 C 2083.61 -1.06329 2.03044 0
M  V30 21112 C 2084.61 -1.31301 0.928259 0
M  V30 21113 O 2085.8 -1.26938 1.193 0
M  V30 21114 C 2082.93 -2.40573 2.41532 0
M  V30 21115 H 2084.12 -0.67029 2.92313 0
M  V30 21116 H 2081.67 -0.312678 1.53141 0
M  V30 21117 H 2082.41 -2.84695 1.55303 0
M  V30 21118 H 2082.19 -2.23788 3.21965 0
M  V30 21119 H 2083.68 -3.12189 2.77359 0
M  V30 21120 N 2084.12 -1.53926 -0.338317 0
M  V30 21121 C 2085.05 -1.77104 -1.43908 0
M  V30 21122 C 2086.03 -0.620357 -1.50301 0
M  V30 21123 O 2087.22 -0.856117 -1.67937 0
M  V30 21124 C 2084.34 -1.87438 -2.82108 0
M  V30 21125 C 2083.39 -3.09626 -2.93315 0
M  V30 21126 S 2084.22 -4.68565 -2.59244 0
M  V30 21127 C 2085.38 -4.81784 -3.99543 0
M  V30 21128 H 2085.61 -2.70192 -1.24031 0
M  V30 21129 H 2083.14 -1.44861 -0.534293 0
M  V30 21130 H 2085.1 -1.94077 -3.61724 0
M  V30 21131 H 2083.76 -0.953534 -2.99277 0
M  V30 21132 H 2082.96 -3.13547 -3.94594 0
M  V30 21133 H 2082.56 -3.0124 -2.21653 0
M  V30 21134 H 2084.85 -4.63515 -4.94126 0
M  V30 21135 H 2085.79 -5.83879 -4.00613 0
M  V30 21136 H 2086.2 -4.10198 -3.87811 0
M  V30 21137 N 2085.6 0.599608 -1.45748 0
M  V30 21138 C 2086.56 1.6918 -1.54631 0
M  V30 21139 C 2087.56 1.55081 -0.425029 0
M  V30 21140 O 2088.75 1.60004 -0.688782 0
M  V30 21141 C 2085.88 3.08502 -1.45049 0
M  V30 21142 H 2087.08 1.62667 -2.51951 0
M  V30 21143 H 2084.63 0.816022 -1.33307 0
M  V30 21144 H 2085.37 3.20585 -0.489439 0
M  V30 21145 H 2085.15 3.20144 -2.26386 0
M  V30 21146 H 2086.64 3.88042 -1.54315 0
M  V30 21147 N 2087.08 1.33171 0.842803 0
M  V30 21148 C 2088.31 1.27434 1.62997 0
M  V30 21149 C 2088.72 -0.155477 1.88159 0
M  V30 21150 O 2088.08 -1.09638 1.45897 0
M  V30 21151 C 2088.13 2.04284 2.98245 0
M  V30 21152 O 2087.85 3.41688 2.74191 0
M  V30 21153 C 2089.35 2.05711 3.9268 0
M  V30 21154 H 2086.57 0.439188 0.507302 0
M  V30 21155 H 2089.11 1.75481 1.05007 0
M  V30 21156 H 2087.27 1.5993 3.52847 0
M  V30 21157 H 2087.68 3.81172 3.60288 0
M  V30 21158 H 2089.16 2.63943 4.84807 0
M  V30 21159 H 2089.63 1.04636 4.26553 0
M  V30 21160 H 2090.24 2.50067 3.44015 0
M  V30 21161 N 2088.56 -1.06056 1.16576 0
M  V30 21162 C 2089.8 -1.79164 0.950155 0
M  V30 21163 C 2090.13 -1.87092 -0.520588 0
M  V30 21164 O 2089.41 -1.36429 -1.38627 0
M  V30 21165 C 2089.69 -3.23525 1.58125 0
M  V30 21166 C 2089.55 -3.23663 3.1235 0
M  V30 21167 C 2090.86 -4.21138 1.27792 0
M  V30 21168 H 2087.98 -0.650413 0.3466 0
M  V30 21169 H 2090.63 -1.24019 1.43942 0
M  V30 21170 H 2088.78 -3.70615 1.16521 0
M  V30 21171 H 2090.45 -2.84716 3.62953 0
M  V30 21172 H 2088.69 -2.62248 3.45555 0
M  V30 21173 H 2089.36 -4.25512 3.51629 0
M  V30 21174 H 2091.84 -3.82502 1.63803 0
M  V30 21175 H 2090.71 -5.20408 1.74547 0
M  V30 21176 H 2090.97 -4.4166 0.197169 0
M  V30 21177 N 2090.03 -0.964615 -1.24631 0
M  V30 21178 C 2091 -0.497206 -2.23742 0
M  V30 21179 C 2092 0.404569 -1.55627 0
M  V30 21180 O 2093.19 0.200461 -1.73043 0
M  V30 21181 C 2090.32 0.280348 -3.39745 0
M  V30 21182 H 2091.51 -1.37334 -2.66607 0
M  V30 21183 H 2089.06 -0.748889 -1.37191 0
M  V30 21184 H 2089.8 1.17372 -3.02315 0
M  V30 21185 H 2089.58 -0.366741 -3.90381 0
M  V30 21186 H 2091.07 0.596501 -4.13318 0
M  V30 21187 N 2091.51 1.39445 -0.734362 0
M  V30 21188 C 2092.47 2.28971 -0.102477 0
M  V30 21189 C 2093.47 1.46277 0.667805 0
M  V30 21190 O 2094.66 1.66962 0.496917 0
M  V30 21191 C 2091.8 3.29767 0.864107 0
M  V30 21192 H 2092.99 2.86352 -0.891208 0
M  V30 21193 H 2090.54 1.48082 -0.500154 0
M  V30 21194 H 2091.28 2.7744 1.67922 0
M  V30 21195 H 2091.06 3.90837 0.314418 0
M  V30 21196 H 2092.55 3.96757 1.30282 0
M  V30 21197 N 2092.99 0.481946 1.5005 0
M  V30 21198 C 2093.95 -0.295344 2.27289 0
M  V30 21199 C 2094.95 -0.910886 1.32512 0
M  V30 21200 O 2096.14 -0.778377 1.55843 0
M  V30 21201 C 2093.27 -1.42179 3.09835 0
M  V30 21202 H 2094.47 0.382176 2.97455 0
M  V30 21203 H 2092.02 0.236325 1.54503 0
M  V30 21204 H 2092.76 -2.13404 2.44191 0
M  V30 21205 H 2092.54 -0.986087 3.79498 0
M  V30 21206 H 2094.03 -1.96982 3.68223 0
M  V30 21207 N 2094.47 -1.56127 0.214985 0
M  V30 21208 C 2095.4 -2.17263 -0.730035 0
M  V30 21209 C 2096.41 -1.13988 -1.16235 0
M  V30 21210 O 2097.6 -1.40996 -1.09464 0
M  V30 21211 C 2094.7 -2.73608 -1.99979 0
M  V30 21212 C 2093.87 -4.01988 -1.72409 0
M  V30 21213 C 2092.93 -4.42962 -2.84026 0
M  V30 21214 O 2091.96 -5.09992 -2.52778 0
M  V30 21215 N 2093.16 -4.08103 -4.12834 0
M  V30 21216 H 2095.93 -2.98984 -0.207112 0
M  V30 21217 H 2093.49 -1.61865 0.0337349 0
M  V30 21218 H 2095.48 -2.97994 -2.73828 0
M  V30 21219 H 2094.05 -1.96229 -2.43337 0
M  V30 21220 H 2093.27 -3.85527 -0.822372 0
M  V30 21221 H 2094.56 -4.85749 -1.51411 0
M  V30 21222 H 2093.96 -3.54226 -4.41067 0
M  V30 21223 H 2092.51 -4.37396 -4.83248 0
M  V30 21224 N 2095.95 0.0584645 -1.57492 0
M  V30 21225 C 2097.19 0.75619 -1.88174 0
M  V30 21226 C 2097.52 1.76546 -0.809018 0
M  V30 21227 O 2096.8 1.93672 0.179286 0
M  V30 21228 C 2097.08 1.45223 -3.29518 0
M  V30 21229 C 2096.94 0.458472 -4.47457 0
M  V30 21230 C 2098.25 2.39381 -3.69303 0
M  V30 21231 H 2095.37 0.27344 -0.684397 0
M  V30 21232 H 2098.02 0.0191997 -1.8999 0
M  V30 21233 H 2096.17 2.08044 -3.28101 0
M  V30 21234 H 2097.84 -0.165547 -4.61003 0
M  V30 21235 H 2096.08 -0.225018 -4.33216 0
M  V30 21236 H 2096.75 0.983384 -5.4317 0
M  V30 21237 H 2099.23 1.86628 -3.719 0
M  V30 21238 H 2098.1 2.85078 -4.69065 0
M  V30 21239 H 2098.36 3.24775 -2.99956 0
M  V30 21240 N 2097.42 1.54103 0.330149 0
M  V30 21241 C 2098.39 1.82317 1.389 0
M  V30 21242 C 2099.39 0.694711 1.45019 0
M  V30 21243 O 2100.58 0.963016 1.45161 0
M  V30 21244 C 2097.71 1.97727 2.77699 0
M  V30 21245 H 2098.9 2.76916 1.15141 0
M  V30 21246 H 2096.45 1.4572 0.565276 0
M  V30 21247 H 2097.19 1.05316 3.06723 0
M  V30 21248 H 2096.97 2.79837 2.74652 0
M  V30 21249 H 2098.46 2.21026 3.54313 0
M  V30 21250 N 2098.9 -0.59187 1.46064 0
M  V30 21251 C 2099.81 -1.72959 1.585 0
M  V30 21252 C 2100.83 -1.67565 0.468813 0
M  V30 21253 O 2102 -1.87639 0.731679 0
M  V30 21254 C 2099.07 -3.09451 1.56336 0
M  V30 21255 C 2098.13 -3.26179 2.79117 0
M  V30 21256 C 2097.36 -4.56159 2.77046 0
M  V30 21257 O 2097.59 -5.39474 1.85268 0
M  V30 21258 O 2096.52 -4.75937 3.68466 0
M  V30 21259 H 2100.35 -1.65416 2.54699 0
M  V30 21260 H 2097.93 -0.757834 1.28753 0
M  V30 21261 H 2099.81 -3.90742 1.57793 0
M  V30 21262 H 2098.49 -3.17451 0.632949 0
M  V30 21263 H 2097.4 -2.44416 2.83217 0
M  V30 21264 H 2098.73 -3.23064 3.71336 0
M  V30 21265 N 2100.38 -1.33616 -0.835729 0
M  V30 21266 C 2101.31 -1.18471 -1.95038 0
M  V30 21267 C 2102.29 -0.0794148 -1.62406 0
M  V30 21268 O 2103.48 -0.242229 -1.86937 0
M  V30 21269 C 2100.6 -0.817792 -3.28679 0
M  V30 21270 C 2099.65 -1.93103 -3.80281 0
M  V30 21271 S 2100.48 -3.5425 -4.0158 0
M  V30 21272 C 2101.64 -3.19572 -5.38167 0
M  V30 21273 H 2101.87 -2.12826 -2.07587 0
M  V30 21274 H 2099.4 -1.18495 -0.989865 0
M  V30 21275 H 2101.36 -0.612875 -4.05899 0
M  V30 21276 H 2100.02 0.107213 -3.13917 0
M  V30 21277 H 2099.22 -1.62774 -4.76991 0
M  V30 21278 H 2098.82 -2.09277 -3.09966 0
M  V30 21279 H 2101.11 -2.70592 -6.21117 0
M  V30 21280 H 2102.05 -4.15375 -5.73471 0
M  V30 21281 H 2102.46 -2.56087 -5.0307 0
M  V30 21282 N 2101.86 1.05436 -1.17136 0
M  V30 21283 C 2103.27 1.30549 -0.918108 0
M  V30 21284 C 2103.47 1.96985 0.424152 0
M  V30 21285 O 2102.53 2.24189 1.1617 0
M  V30 21286 C 2103.84 2.17768 -2.07358 0
M  V30 21287 C 2105.39 2.31158 -2.11033 0
M  V30 21288 C 2105.87 3.21737 -3.25959 0
M  V30 21289 N 2107.36 3.29322 -3.25731 0
M  V30 21290 C 2108.09 3.99526 -4.11299 0
M  V30 21291 N 2107.59 4.72178 -5.06971 0
M  V30 21292 N 2109.38 3.95665 -3.99256 0
M  V30 21293 H 2101.53 0.607118 -2.03538 0
M  V30 21294 H 2103.8 0.330298 -0.888599 0
M  V30 21295 H 2103.5 1.7624 -3.04356 0
M  V30 21296 H 2103.38 3.18394 -2.02251 0
M  V30 21297 H 2105.76 2.71929 -1.14623 0
M  V30 21298 H 2105.84 1.30171 -2.20203 0
M  V30 21299 H 2105.49 2.8168 -4.22633 0
M  V30 21300 H 2105.42 4.22724 -3.14025 0
M  V30 21301 H 2107.91 2.77555 -2.5646 0
M  V30 21302 H 2108.22 5.233 -5.68662 0
M  V30 21303 H 2106.57 4.71129 -5.10943 0
M  V30 21304 H 2109.76 3.3803 -3.2381 0
M  V30 21305 H 2109.93 4.50108 -4.66161 0
M  V30 21306 N 2103.34 0.971211 1.24118 0
M  V30 21307 C 2104.25 0.511904 2.28947 0
M  V30 21308 C 2105.26 -0.428843 1.68633 0
M  V30 21309 O 2106.44 -0.301023 1.99138 0
M  V30 21310 C 2103.5 -0.187222 3.46194 0
M  V30 21311 C 2102.56 0.793786 4.21898 0
M  V30 21312 C 2101.8 0.12793 5.33547 0
M  V30 21313 O 2102.02 -1.08301 5.60024 0
M  V30 21314 O 2100.95 0.821863 5.96263 0
M  V30 21315 H 2104.78 1.38346 2.70359 0
M  V30 21316 H 2102.37 0.738411 1.29876 0
M  V30 21317 H 2104.25 -0.579802 4.17392 0
M  V30 21318 H 2102.92 -1.03369 3.06752 0
M  V30 21319 H 2101.83 1.23689 3.53061 0
M  V30 21320 H 2103.16 1.60877 4.65166 0
M  V30 21321 N 2104.81 -1.39054 0.741747 0
M  V30 21322 C 2105.75 -2.29103 0.0665251 0
M  V30 21323 C 2106.76 -1.47157 -0.696331 0
M  V30 21324 O 2107.95 -1.70156 -0.539378 0
M  V30 21325 C 2105.05 -3.25891 -0.929959 0
M  V30 21326 C 2104.22 -4.36809 -0.227219 0
M  V30 21327 C 2103.28 -5.13863 -1.13276 0
M  V30 21328 O 2102.31 -5.65946 -0.607718 0
M  V30 21329 N 2103.51 -5.25709 -2.46192 0
M  V30 21330 H 2106.27 -2.87692 0.839836 0
M  V30 21331 H 2103.83 -1.50707 0.591532 0
M  V30 21332 H 2105.83 -3.74315 -1.53851 0
M  V30 21333 H 2104.4 -2.68285 -1.60443 0
M  V30 21334 H 2103.62 -3.90175 0.5619 0
M  V30 21335 H 2104.9 -5.08138 0.259523 0
M  V30 21336 H 2104.3 -4.84923 -2.91318 0
M  V30 21337 H 2102.86 -5.77549 -3.02127 0
M  V30 21338 N 2106.29 -0.489897 -1.49792 0
M  V30 21339 C 2107.54 0.0584284 -2.02016 0
M  V30 21340 C 2107.86 1.38507 -1.37262 0
M  V30 21341 O 2107.13 1.88757 -0.524191 0
M  V30 21342 H 2105.71 0.0245828 -0.746595 0
M  V30 21343 H 2108.37 -0.644608 -1.83932 0
M  V30 21344 H 2107.47 0.196227 -3.11483 0
M  V30 21345 N 2107.77 1.56011 -0.223262 0
M  V30 21346 C 2108.73 2.19108 0.672641 0
M  V30 21347 C 2109.73 1.15344 1.12038 0
M  V30 21348 O 2110.92 1.40567 1.0289 0
M  V30 21349 C 2108.06 2.81576 1.92165 0
M  V30 21350 H 2109.25 2.9965 0.1225 0
M  V30 21351 H 2106.8 1.56278 0.0263484 0
M  V30 21352 H 2107.54 2.04909 2.51362 0
M  V30 21353 H 2107.32 3.57564 1.60906 0
M  V30 21354 H 2108.81 3.29937 2.55991 0
M  V30 21355 N 2109.25 -0.0501116 1.5752 0
M  V30 21356 C 2110.5 -0.745096 1.88294 0
M  V30 21357 C 2110.82 -1.76469 0.817869 0
M  V30 21358 O 2110.08 -1.94836 -0.183698 0
M  V30 21359 C 2110.38 -1.46973 3.25782 0
M  V30 21360 C 2110.04 -0.588106 4.47048 0
M  V30 21361 C 2108.71 -0.345215 4.7996 0
M  V30 21362 C 2111.06 0.0218798 5.21195 0
M  V30 21363 C 2108.39 0.516787 5.8442 0
M  V30 21364 C 2110.74 0.87146 6.26569 0
M  V30 21365 C 2109.4 1.12402 6.57968 0
M  V30 21366 H 2108.67 -0.27265 0.689016 0
M  V30 21367 H 2111.32 -0.00536588 1.91499 0
M  V30 21368 H 2109.62 -2.28224 3.18467 0
M  V30 21369 H 2111.32 -2.01265 3.46834 0
M  V30 21370 H 2107.91 -0.787561 4.21302 0
M  V30 21371 H 2112.09 -0.152846 4.96065 0
M  V30 21372 H 2107.35 0.720981 6.07134 0
M  V30 21373 H 2111.52 1.35074 6.83175 0
M  V30 21374 H 2109.15 1.79371 7.38736 0
M  V30 21375 N 2110.73 -1.54276 -0.321972 0
M  V30 21376 C 2111.97 -1.72813 -1.0613 0
M  V30 21377 C 2112.31 -0.501222 -1.8762 0
M  V30 21378 O 2111.58 0.501806 -1.87915 0
M  V30 21379 C 2111.86 -3.00469 -1.9847 0
M  V30 21380 C 2111.72 -4.33415 -1.20299 0
M  V30 21381 C 2113.04 -3.23886 -2.97969 0
M  V30 21382 H 2110.15 -0.628793 -0.384432 0
M  V30 21383 H 2112.8 -1.86973 -0.337811 0
M  V30 21384 H 2110.95 -2.88528 -2.60161 0
M  V30 21385 H 2112.62 -4.57242 -0.610559 0
M  V30 21386 H 2110.86 -4.30847 -0.505293 0
M  V30 21387 H 2111.53 -5.18959 -1.8811 0
M  V30 21388 H 2114.01 -3.353 -2.46401 0
M  V30 21389 H 2112.88 -4.14562 -3.59763 0
M  V30 21390 H 2113.15 -2.4119 -3.70513 0
M  V30 21391 N 2112.2 0.584116 -1.46376 0
M  V30 21392 C 2113.11 1.72116 -1.59415 0
M  V30 21393 C 2114.13 1.67314 -0.477692 0
M  V30 21394 O 2115.31 1.87248 -0.74162 0
M  V30 21395 C 2112.37 3.08617 -1.57975 0
M  V30 21396 C 2111.43 3.24694 -2.80842 0
M  V30 21397 C 2110.67 4.54683 -2.79462 0
M  V30 21398 O 2110.89 5.38484 -1.88126 0
M  V30 21399 O 2109.82 4.73977 -3.70985 0
M  V30 21400 H 2113.65 1.64062 -2.55572 0
M  V30 21401 H 2111.23 0.750995 -1.29153 0
M  V30 21402 H 2113.12 3.899 -1.59863 0
M  V30 21403 H 2111.79 3.17111 -0.649775 0
M  V30 21404 H 2110.7 2.4291 -2.84509 0
M  V30 21405 H 2112.03 3.2109 -3.73044 0
M  V30 21406 N 2113.68 1.34058 0.828631 0
M  V30 21407 C 2114.93 1.25844 1.58138 0
M  V30 21408 C 2115.25 -0.173004 1.94231 0
M  V30 21409 O 2114.52 -1.10425 1.61812 0
M  V30 21410 H 2113.1 0.4628 0.586366 0
M  V30 21411 H 2115.76 1.67901 0.989709 0
M  V30 21412 H 2114.86 1.85925 2.50676 0
M  V30 21413 N 2115.16 -1.04814 1.17694 0
M  V30 21414 C 2116.12 -2.10819 0.899339 0
M  V30 21415 C 2117.12 -1.60409 -0.112116 0
M  V30 21416 O 2118.31 -1.73783 0.120484 0
M  V30 21417 C 2115.45 -3.39121 0.34786 0
M  V30 21418 H 2116.64 -2.36878 1.83926 0
M  V30 21419 H 2114.19 -1.21119 0.987923 0
M  V30 21420 H 2114.93 -3.1872 -0.599026 0
M  V30 21421 H 2114.71 -3.77022 1.07688 0
M  V30 21422 H 2116.2 -4.17245 0.172084 0
M  V30 21423 N 2116.64 -0.977779 -1.23601 0
M  V30 21424 C 2117.89 -0.640749 -1.91252 0
M  V30 21425 C 2118.2 0.829108 -1.77159 0
M  V30 21426 O 2119.41 1.27709 -2.39589 0
M  V30 21427 C 2117.86 -1.09542 -3.42824 0
M  V30 21428 C 2117.47 -2.58944 -3.65584 0
M  V30 21429 C 2119.22 -0.832015 -4.16266 0
M  V30 21430 C 2117.12 -2.98092 -5.10779 0
M  V30 21431 H 2116.05 -0.235949 -0.716131 0
M  V30 21432 H 2118.7 -1.18533 -1.40079 0
M  V30 21433 H 2117.09 -0.479076 -3.93091 0
M  V30 21434 H 2118.26 -3.25795 -3.25875 0
M  V30 21435 H 2116.57 -2.83003 -3.05447 0
M  V30 21436 H 2119.17 -1.10039 -5.23255 0
M  V30 21437 H 2119.51 0.231859 -4.15654 0
M  V30 21438 H 2120.05 -1.40982 -3.7198 0
M  V30 21439 H 2116.79 -4.03592 -5.16521 0
M  V30 21440 H 2116.31 -2.35933 -5.51449 0
M  V30 21441 H 2117.99 -2.88553 -5.79091 0
M  V30 21442 N 2118.12 1.38658 -0.749111 0
M  V30 21443 C 2119.08 2.28849 -0.126757 0
M  V30 21444 C 2120.08 1.46977 0.652253 0
M  V30 21445 O 2121.27 1.6748 0.479181 0
M  V30 21446 C 2118.4 3.30665 0.829083 0
M  V30 21447 H 2119.6 2.85391 -0.921529 0
M  V30 21448 H 2117.15 1.47543 -0.515832 0
M  V30 21449 H 2117.88 2.79205 1.6497 0
M  V30 21450 H 2117.67 3.91149 0.272946 0
M  V30 21451 H 2119.16 3.98117 1.26067 0
M  V30 21452 N 2119.6 0.497834 1.49531 0
M  V30 21453 C 2120.84 -0.0462138 2.04348 0
M  V30 21454 C 2121.2 -1.34566 1.36952 0
M  V30 21455 O 2122.4 -1.97376 1.82473 0
M  V30 21456 C 2120.67 -0.198653 3.56847 0
M  V30 21457 S 2122.23 -0.697405 4.33222 0
M  V30 21458 H 2119.05 -0.00327871 0.710992 0
M  V30 21459 H 2121.65 0.671079 1.83621 0
M  V30 21460 H 2120.35 0.75245 4.03443 0
M  V30 21461 H 2119.89 -0.941279 3.81973 0
M  V30 21462 H 2121.9 -1.96702 4.55546 0
M  V30 21463 N 2121.07 -1.5589 0.231532 0
M  V30 21464 C 2122.32 -1.98169 -0.396667 0
M  V30 21465 C 2122.64 -1.12067 -1.59581 0
M  V30 21466 O 2121.91 -0.199942 -1.94877 0
M  V30 21467 H 2120.49 -0.731878 -0.149544 0
M  V30 21468 H 2123.15 -1.92142 0.326749 0
M  V30 21469 H 2122.25 -3.0377 -0.716243 0
M  V30 21470 N 2122.55 0.0417572 -1.57545 0
M  V30 21471 C 2123.5 1.05387 -2.02182 0
M  V30 21472 C 2124.49 1.32769 -0.908905 0
M  V30 21473 O 2125.68 1.32567 -1.17282 0
M  V30 21474 C 2122.81 2.35884 -2.49427 0
M  V30 21475 C 2121.89 2.11646 -3.67514 0
M  V30 21476 N 2122.28 1.57426 -4.80677 0
M  V30 21477 C 2120.58 2.41988 -3.74643 0
M  V30 21478 C 2121.28 1.487 -5.62373 0
M  V30 21479 N 2120.26 1.95813 -5.07108 0
M  V30 21480 H 2124.06 0.62846 -2.87102 0
M  V30 21481 H 2121.57 0.248304 -1.60491 0
M  V30 21482 H 2123.57 3.09186 -2.7966 0
M  V30 21483 H 2122.23 2.79114 -1.65908 0
M  V30 21484 H 2123.24 1.25871 -5.02371 0
M  V30 21485 H 2119.92 2.8838 -3.01899 0
M  V30 21486 H 2121.31 1.07377 -6.63265 0
M  V30 21487 N 2124.03 1.54445 0.313786 0
M  V30 21488 C 2125.25 1.77413 1.07421 0
M  V30 21489 C 2125.68 0.525885 1.80599 0
M  V30 21490 O 2125.04 -0.523027 1.73592 0
M  V30 21491 C 2125.09 2.97322 2.04039 0
M  V30 21492 O 2124.19 2.69552 3.12115 0
M  V30 21493 H 2123.53 0.587597 0.309235 0
M  V30 21494 H 2126.06 2.01495 0.355102 0
M  V30 21495 H 2126.07 3.2494 2.46735 0
M  V30 21496 H 2124.75 3.87839 1.5018 0
M  V30 21497 H 2123.32 2.52913 2.74025 0
M  V30 21498 N 2125.51 -0.576345 1.46683 0
M  V30 21499 C 2126.75 -1.3363 1.52548 0
M  V30 21500 C 2127.09 -1.93371 0.179205 0
M  V30 21501 O 2126.36 -1.76827 -0.810088 0
M  V30 21502 C 2126.64 -2.46086 2.62895 0
M  V30 21503 C 2126.5 -1.91338 4.07075 0
M  V30 21504 C 2127.82 -3.48104 2.6928 0
M  V30 21505 H 2124.94 -0.484517 0.555349 0
M  V30 21506 H 2127.58 -0.646838 1.78651 0
M  V30 21507 H 2125.73 -3.04898 2.40769 0
M  V30 21508 H 2127.4 -1.36934 4.40507 0
M  V30 21509 H 2125.64 -1.22127 4.16254 0
M  V30 21510 H 2126.31 -2.72545 4.80024 0
M  V30 21511 H 2128.79 -2.99183 2.89187 0
M  V30 21512 H 2127.67 -4.2424 3.48298 0
M  V30 21513 H 2127.93 -4.05739 1.7558 0
M  V30 21514 N 2126.99 -1.34495 -0.82151 0
M  V30 21515 C 2128.23 -1.26681 -1.57469 0
M  V30 21516 C 2128.55 0.162701 -1.9432 0
M  V30 21517 O 2127.82 1.09566 -1.62395 0
M  V30 21518 H 2126.4 -0.465903 -0.583903 0
M  V30 21519 H 2129.07 -1.68424 -0.980791 0
M  V30 21520 H 2128.16 -1.87251 -2.49686 0
M  V30 21521 N 2128.46 1.04188 -1.18248 0
M  V30 21522 C 2129.37 2.15666 -0.923339 0
M  V30 21523 C 2130.39 1.73638 0.112112 0
M  V30 21524 O 2131.57 2.0128 -0.0695153 0
M  V30 21525 C 2128.63 3.43751 -0.451239 0
M  V30 21526 C 2127.69 4.00167 -1.55451 0
M  V30 21527 C 2126.93 5.22139 -1.10484 0
M  V30 21528 O 2127.15 5.70388 0.0369453 0
M  V30 21529 O 2126.08 5.71056 -1.90207 0
M  V30 21530 H 2129.91 2.40381 -1.85609 0
M  V30 21531 H 2127.49 1.14121 -0.9642 0
M  V30 21532 H 2129.38 4.20944 -0.195977 0
M  V30 21533 H 2128.05 3.20511 0.45323 0
M  V30 21534 H 2126.96 3.24368 -1.86377 0
M  V30 21535 H 2128.29 4.27745 -2.43506 0
M  V30 21536 N 2129.94 0.98432 1.23081 0
M  V30 21537 C 2131.17 0.672559 1.95346 0
M  V30 21538 C 2131.58 -0.765295 1.73031 0
M  V30 21539 O 2130.92 -1.52708 1.02108 0
M  V30 21540 C 2130.99 0.887951 3.48361 0
M  V30 21541 C 2130.65 2.30863 3.944 0
M  V30 21542 C 2131.65 3.28757 4.02759 0
M  V30 21543 C 2129.33 2.64077 4.27281 0
M  V30 21544 C 2131.33 4.57943 4.43358 0
M  V30 21545 C 2129.01 3.93485 4.67561 0
M  V30 21546 C 2130.01 4.9023 4.75567 0
M  V30 21547 O 2129.7 6.17327 5.1494 0
M  V30 21548 H 2129.43 0.248593 0.628631 0
M  V30 21549 H 2131.98 1.31942 1.57418 0
M  V30 21550 H 2130.21 0.183919 3.86262 0
M  V30 21551 H 2131.9 0.572752 4.01839 0
M  V30 21552 H 2132.67 3.04428 3.77556 0
M  V30 21553 H 2128.55 1.89483 4.20258 0
M  V30 21554 H 2132.09 5.33456 4.49522 0
M  V30 21555 H 2127.99 4.17607 4.92214 0
M  V30 21556 H 2128.76 6.21137 5.3304 0
M  V30 21557 N 2131.42 -1.38259 0.756453 0
M  V30 21558 C 2132.65 -2.04335 0.324799 0
M  V30 21559 C 2133.06 -1.57053 -1.04784 0
M  V30 21560 O 2132.42 -0.744882 -1.66607 0
M  V30 21561 C 2132.47 -3.59882 0.341597 0
M  V30 21562 O 2132.19 -4.0543 1.66008 0
M  V30 21563 C 2133.69 -4.43179 -0.103565 0
M  V30 21564 H 2130.91 -0.656588 0.138324 0
M  V30 21565 H 2133.46 -1.76894 1.02611 0
M  V30 21566 H 2131.61 -3.8615 -0.310997 0
M  V30 21567 H 2132.03 -4.99876 1.58822 0
M  V30 21568 H 2133.5 -5.51985 -0.0406515 0
M  V30 21569 H 2133.98 -4.23827 -1.15185 0
M  V30 21570 H 2134.58 -4.22106 0.520263 0
M  V30 21571 N 2132.9 -0.505757 -1.49264 0
M  V30 21572 C 2133.86 0.259147 -2.2773 0
M  V30 21573 C 2134.86 0.88969 -1.33945 0
M  V30 21574 O 2136.05 0.753485 -1.57061 0
M  V30 21575 C 2133.18 1.37232 -3.12058 0
M  V30 21576 H 2134.38 -0.42945 -2.96809 0
M  V30 21577 H 2131.93 -0.260876 -1.54108 0
M  V30 21578 H 2132.66 2.09492 -2.47555 0
M  V30 21579 H 2132.45 0.925587 -3.81019 0
M  V30 21580 H 2133.94 1.91099 -3.7131 0
M  V30 21581 N 2134.38 1.55765 -0.239796 0
M  V30 21582 C 2135.31 2.24064 0.657067 0
M  V30 21583 C 2136.29 1.2185 1.18687 0
M  V30 21584 O 2137.47 1.50484 1.22753 0
M  V30 21585 C 2134.6 2.93465 1.8573 0
M  V30 21586 C 2133.56 4.02307 1.46057 0
M  V30 21587 C 2132.88 4.59097 2.74106 0
M  V30 21588 C 2134.18 5.18402 0.636932 0
M  V30 21589 H 2135.88 2.99272 0.0875675 0
M  V30 21590 H 2133.42 1.43943 0.0406772 0
M  V30 21591 H 2135.38 3.39943 2.49032 0
M  V30 21592 H 2134.1 2.15734 2.45207 0
M  V30 21593 H 2132.76 3.56588 0.850935 0
M  V30 21594 H 2132.41 3.78075 3.31766 0
M  V30 21595 H 2132.11 5.32566 2.48288 0
M  V30 21596 H 2133.63 5.08304 3.38318 0
M  V30 21597 H 2135.04 5.61149 1.17408 0
M  V30 21598 H 2133.44 5.98216 0.475092 0
M  V30 21599 H 2134.51 4.83617 -0.352445 0
M  V30 21600 N 2135.85 -0.0334016 1.57565 0
M  V30 21601 C 2136.82 -1.01998 2.05253 0
M  V30 21602 C 2137.82 -1.29303 0.955901 0
M  V30 21603 O 2139.01 -1.24379 1.21965 0
M  V30 21604 C 2136.14 -2.35395 2.4658 0
M  V30 21605 H 2137.33 -0.608136 2.93669 0
M  V30 21606 H 2134.89 -0.280124 1.53769 0
M  V30 21607 H 2135.62 -2.81337 1.61307 0
M  V30 21608 H 2135.41 -2.16908 3.26639 0
M  V30 21609 H 2136.9 -3.06235 2.83918 0
M  V30 21610 N 2137.33 -1.54609 -0.305591 0
M  V30 21611 C 2138.57 -1.75406 -1.04938 0
M  V30 21612 C 2138.94 -0.526278 -1.84646 0
M  V30 21613 O 2140.14 -0.611906 -2.61743 0
M  V30 21614 C 2138.41 -3.00482 -1.93508 0
M  V30 21615 S 2139.97 -3.42262 -2.74595 0
M  V30 21616 H 2136.79 -0.616617 -0.353984 0
M  V30 21617 H 2139.39 -1.92808 -0.32331 0
M  V30 21618 H 2138.09 -3.8797 -1.33817 0
M  V30 21619 H 2137.62 -2.85654 -2.70491 0
M  V30 21620 H 2139.64 -2.98971 -3.96018 0
M  V30 21621 N 2138.81 0.568558 -1.46987 0
M  V30 21622 C 2140.06 1.32819 -1.53255 0
M  V30 21623 C 2140.39 1.93274 -0.189458 0
M  V30 21624 O 2139.66 1.77254 0.800699 0
M  V30 21625 C 2139.95 2.44688 -2.64196 0
M  V30 21626 C 2139.8 1.89176 -4.08084 0
M  V30 21627 C 2141.12 3.46671 -2.71122 0
M  V30 21628 H 2138.24 0.481565 -0.557911 0
M  V30 21629 H 2140.88 0.637355 -1.78991 0
M  V30 21630 H 2139.03 3.03617 -2.42382 0
M  V30 21631 H 2140.7 1.34596 -4.41227 0
M  V30 21632 H 2138.95 1.19918 -4.16896 0
M  V30 21633 H 2139.62 2.69995 -4.81463 0
M  V30 21634 H 2142.09 2.97645 -2.90769 0
M  V30 21635 H 2140.97 4.22387 -3.50543 0
M  V30 21636 H 2141.23 4.04802 -1.7773 0
M  V30 21637 N 2140.29 1.34929 0.814366 0
M  V30 21638 C 2141.52 1.30863 1.60257 0
M  V30 21639 C 2141.93 -0.11553 1.88446 0
M  V30 21640 O 2141.29 -1.06518 1.4819 0
M  V30 21641 C 2141.34 2.10565 2.93845 0
M  V30 21642 O 2141.06 3.47427 2.66882 0
M  V30 21643 C 2142.56 2.13994 3.88228 0
M  V30 21644 H 2139.78 0.449849 0.497872 0
M  V30 21645 H 2142.33 1.77669 1.01262 0
M  V30 21646 H 2140.48 1.67378 3.49376 0
M  V30 21647 H 2140.89 3.88729 3.52122 0
M  V30 21648 H 2142.37 2.74168 4.79099 0
M  V30 21649 H 2142.85 1.13661 4.24238 0
M  V30 21650 H 2143.45 2.57308 3.38634 0
M  V30 21651 N 2141.77 -1.0356 1.18799 0
M  V30 21652 C 2143.01 -1.76497 0.984535 0
M  V30 21653 C 2143.34 -1.88833 -0.486544 0
M  V30 21654 O 2142.61 -1.41702 -1.35268 0
M  V30 21655 H 2141.19 -0.653818 0.36129 0
M  V30 21656 H 2143.85 -1.24956 1.49573 0
M  V30 21657 H 2142.94 -2.77573 1.42687 0
M  V30 21658 N 2143.25 -0.990834 -1.22557 0
M  V30 21659 C 2144.49 -0.660998 -1.90562 0
M  V30 21660 C 2144.81 0.810271 -1.78028 0
M  V30 21661 O 2146.01 1.2516 -2.4093 0
M  V30 21662 C 2144.47 -1.13172 -3.41643 0
M  V30 21663 C 2144.08 -2.62807 -3.62817 0
M  V30 21664 C 2145.82 -0.876119 -4.15361 0
M  V30 21665 C 2143.73 -3.03493 -5.07588 0
M  V30 21666 H 2142.66 -0.243531 -0.713589 0
M  V30 21667 H 2145.31 -1.20012 -1.38814 0
M  V30 21668 H 2143.69 -0.520742 -3.92561 0
M  V30 21669 H 2144.87 -3.29233 -3.22401 0
M  V30 21670 H 2143.18 -2.86227 -3.02428 0
M  V30 21671 H 2145.78 -1.15582 -5.22058 0
M  V30 21672 H 2146.12 0.187761 -4.15876 0
M  V30 21673 H 2146.65 -1.44919 -3.70464 0
M  V30 21674 H 2143.39 -4.09048 -5.12211 0
M  V30 21675 H 2142.91 -2.41769 -5.48915 0
M  V30 21676 H 2144.59 -2.94679 -5.75998 0
M  V30 21677 N 2144.72 1.37856 -0.763775 0
M  V30 21678 C 2145.95 2.03864 -0.335144 0
M  V30 21679 C 2146.36 1.57732 1.04486 0
M  V30 21680 O 2145.7 0.750289 1.67679 0
M  V30 21681 C 2145.77 3.58323 -0.290657 0
M  V30 21682 C 2145.43 4.27554 -1.61391 0
M  V30 21683 C 2146.43 4.52225 -2.56494 0
M  V30 21684 C 2144.11 4.65542 -1.88615 0
M  V30 21685 C 2146.11 5.13931 -3.77033 0
M  V30 21686 C 2143.79 5.26971 -3.09426 0
M  V30 21687 C 2144.79 5.51102 -4.03455 0
M  V30 21688 O 2144.48 6.11248 -5.2214 0
M  V30 21689 H 2144.21 0.661438 -0.139556 0
M  V30 21690 H 2146.77 1.77331 -1.03648 0
M  V30 21691 H 2145 3.8387 0.467001 0
M  V30 21692 H 2146.68 4.05751 0.109828 0
M  V30 21693 H 2147.45 4.23296 -2.3674 0
M  V30 21694 H 2143.33 4.461 -1.16258 0
M  V30 21695 H 2146.87 5.32682 -4.5044 0
M  V30 21696 H 2142.77 5.55324 -3.29068 0
M  V30 21697 H 2143.54 6.29731 -5.22859 0
M  V30 21698 N 2146.2 0.513665 1.48994 0
M  V30 21699 C 2147.13 -0.29486 2.27295 0
M  V30 21700 C 2148.15 -0.919245 1.34364 0
M  V30 21701 O 2149.34 -0.800442 1.59547 0
M  V30 21702 C 2146.44 -1.43125 3.07195 0
M  V30 21703 C 2145.61 -0.911824 4.2779 0
M  V30 21704 C 2144.67 -1.92735 4.89632 0
M  V30 21705 O 2143.69 -1.49081 5.4933 0
M  V30 21706 N 2144.9 -3.25858 4.80413 0
M  V30 21707 H 2147.66 0.376609 2.97324 0
M  V30 21708 H 2145.22 0.346983 1.58138 0
M  V30 21709 H 2147.21 -2.10843 3.45438 0
M  V30 21710 H 2145.78 -2.00665 2.39692 0
M  V30 21711 H 2145 -0.059147 3.94156 0
M  V30 21712 H 2146.29 -0.543402 5.0589 0
M  V30 21713 H 2145.69 -3.64003 4.33034 0
M  V30 21714 H 2144.25 -3.89255 5.22804 0
M  V30 21715 N 2147.68 -1.55636 0.248053 0
M  V30 21716 C 2148.61 -2.2441 -0.645175 0
M  V30 21717 C 2149.59 -1.22477 -1.18039 0
M  V30 21718 O 2150.78 -1.51133 -1.21953 0
M  V30 21719 C 2147.91 -2.94446 -1.84171 0
M  V30 21720 C 2146.86 -4.03076 -1.43922 0
M  V30 21721 C 2146.19 -4.60544 -2.71668 0
M  V30 21722 C 2147.49 -5.18732 -0.609431 0
M  V30 21723 H 2149.18 -2.99314 -0.0716951 0
M  V30 21724 H 2146.73 -1.43962 -0.033043 0
M  V30 21725 H 2148.68 -3.41259 -2.47225 0
M  V30 21726 H 2147.4 -2.17031 -2.44059 0
M  V30 21727 H 2146.06 -3.57034 -0.832012 0
M  V30 21728 H 2145.71 -3.79829 -3.29756 0
M  V30 21729 H 2145.41 -5.33876 -2.4546 0
M  V30 21730 H 2146.93 -5.10091 -3.35618 0
M  V30 21731 H 2148.35 -5.61764 -1.1443 0
M  V30 21732 H 2146.74 -5.9846 -0.443361 0
M  V30 21733 H 2147.81 -4.83424 0.378087 0
M  V30 21734 N 2149.16 0.0250451 -1.5758 0
M  V30 21735 C 2150.07 1.04128 -2.10225 0
M  V30 21736 C 2151.08 1.39367 -1.04178 0
M  V30 21737 O 2152.26 1.48605 -1.35936 0
M  V30 21738 C 2149.32 2.32208 -2.5745 0
M  V30 21739 C 2148.39 2.03512 -3.77996 0
M  V30 21740 C 2147.62 3.25486 -4.22959 0
M  V30 21741 O 2147.84 4.36301 -3.6742 0
M  V30 21742 O 2146.78 3.1095 -5.15358 0
M  V30 21743 H 2150.6 0.623859 -2.97223 0
M  V30 21744 H 2148.19 0.242286 -1.47422 0
M  V30 21745 H 2150.07 3.07498 -2.88137 0
M  V30 21746 H 2148.74 2.73237 -1.73561 0
M  V30 21747 H 2147.65 1.25777 -3.52322 0
M  V30 21748 H 2148.98 1.67337 -4.62882 0
M  V30 21749 N 2150.64 1.54769 0.297388 0
M  V30 21750 C 2151.6 1.85222 1.35002 0
M  V30 21751 C 2152.6 0.725316 1.43512 0
M  V30 21752 O 2153.79 0.993591 1.43085 0
M  V30 21753 C 2150.92 2.03573 2.73443 0
M  V30 21754 H 2152.11 2.79296 1.09241 0
M  V30 21755 H 2149.67 1.46886 0.53424 0
M  V30 21756 H 2150.4 1.11799 3.0442 0
M  V30 21757 H 2150.19 2.85599 2.68655 0
M  V30 21758 H 2151.68 2.28492 3.49545 0
M  V30 21759 N 2152.11 -0.560755 1.47286 0
M  V30 21760 C 2153.04 -1.67792 1.62383 0
M  V30 21761 C 2154.02 -1.6338 0.473377 0
M  V30 21762 O 2155.21 -1.81057 0.702288 0
M  V30 21763 C 2152.34 -3.06431 1.63454 0
M  V30 21764 C 2151.29 -3.25688 2.7769 0
M  V30 21765 C 2150.62 -4.65078 2.63831 0
M  V30 21766 C 2151.92 -3.11404 4.19315 0
M  V30 21767 H 2153.61 -1.55414 2.55904 0
M  V30 21768 H 2151.16 -0.746251 1.23155 0
M  V30 21769 H 2153.11 -3.84428 1.72606 0
M  V30 21770 H 2151.84 -3.1976 0.664904 0
M  V30 21771 H 2150.5 -2.50098 2.68042 0
M  V30 21772 H 2150.14 -4.75201 1.64904 0
M  V30 21773 H 2149.84 -4.78911 3.40467 0
M  V30 21774 H 2151.37 -5.45214 2.74907 0
M  V30 21775 H 2152.78 -3.79222 4.29958 0
M  V30 21776 H 2151.18 -3.36749 4.9671 0
M  V30 21777 H 2152.25 -2.08195 4.3793 0
M  V30 21778 N 2153.59 -1.35359 -0.807199 0
M  V30 21779 C 2154.52 -1.30893 -1.93363 0
M  V30 21780 C 2155.5 -0.183475 -1.69108 0
M  V30 21781 O 2156.69 -0.378339 -1.90479 0
M  V30 21782 C 2153.82 -1.07954 -3.30096 0
M  V30 21783 C 2152.77 -2.17133 -3.68832 0
M  V30 21784 C 2152.1 -1.7936 -5.0372 0
M  V30 21785 C 2153.4 -3.59094 -3.79274 0
M  V30 21786 H 2155.09 -2.25145 -1.97357 0
M  V30 21787 H 2152.64 -1.08381 -0.948131 0
M  V30 21788 H 2154.59 -1.03469 -4.085 0
M  V30 21789 H 2153.31 -0.101468 -3.26442 0
M  V30 21790 H 2151.97 -2.20714 -2.92713 0
M  V30 21791 H 2151.62 -0.801733 -4.96569 0
M  V30 21792 H 2151.32 -2.52445 -5.30608 0
M  V30 21793 H 2152.85 -1.764 -5.84564 0
M  V30 21794 H 2154.26 -3.57839 -4.47911 0
M  V30 21795 H 2152.66 -4.30934 -4.17632 0
M  V30 21796 H 2153.73 -3.9529 -2.80845 0
M  V30 21797 N 2155.07 1.02928 -1.19346 0
M  V30 21798 C 2155.98 2.14674 -0.946161 0
M  V30 21799 C 2157 1.73748 0.0936895 0
M  V30 21800 O 2158.17 2.01195 -0.0908598 0
M  V30 21801 C 2155.24 3.43253 -0.487673 0
M  V30 21802 C 2154.3 3.98496 -1.59686 0
M  V30 21803 C 2153.53 5.20938 -1.16016 0
M  V30 21804 O 2153.75 5.70395 -0.0235541 0
M  V30 21805 O 2152.69 5.69006 -1.96254 0
M  V30 21806 H 2156.51 2.38399 -1.88148 0
M  V30 21807 H 2154.1 1.13092 -0.97625 0
M  V30 21808 H 2155.98 4.20713 -0.240612 0
M  V30 21809 H 2154.66 3.20974 0.41921 0
M  V30 21810 H 2153.56 3.22373 -1.89807 0
M  V30 21811 H 2154.9 4.25138 -2.48029 0
M  V30 21812 N 2156.55 0.997319 1.2203 0
M  V30 21813 C 2157.48 0.496186 2.2274 0
M  V30 21814 C 2158.46 -0.445938 1.56365 0
M  V30 21815 O 2159.64 -0.370453 1.84824 0
M  V30 21816 C 2156.77 -0.280171 3.37539 0
M  V30 21817 C 2155.82 0.608603 4.22135 0
M  V30 21818 S 2156.65 2.06651 4.9402 0
M  V30 21819 C 2157.8 1.29977 6.12256 0
M  V30 21820 H 2158.04 1.34957 2.64903 0
M  V30 21821 H 2155.57 0.80464 1.31776 0
M  V30 21822 H 2157.53 -0.722047 4.041 0
M  V30 21823 H 2156.19 -1.10889 2.93875 0
M  V30 21824 H 2155.38 0.0110161 5.03999 0
M  V30 21825 H 2154.98 0.987428 3.6073 0
M  V30 21826 H 2157.28 0.569685 6.75101 0
M  V30 21827 H 2158.22 2.09383 6.76435 0
M  V30 21828 H 2158.63 0.811111 5.58642 0
M  V30 21829 N 2158.03 -1.37449 0.771075 0
M  V30 21830 C 2159.27 -2.00004 0.335588 0
M  V30 21831 C 2159.61 -1.6107 -1.0849 0
M  V30 21832 O 2158.88 -0.856568 -1.74623 0
M  V30 21833 C 2159.16 -3.56908 0.478386 0
M  V30 21834 C 2159.02 -4.05753 1.94124 0
M  V30 21835 C 2160.34 -4.39942 -0.117748 0
M  V30 21836 H 2157.45 -0.726594 0.12341 0
M  V30 21837 H 2160.1 -1.63136 0.973992 0
M  V30 21838 H 2158.25 -3.88445 -0.0651015 0
M  V30 21839 H 2159.92 -3.84784 2.54438 0
M  V30 21840 H 2158.16 -3.57971 2.45029 0
M  V30 21841 H 2158.83 -5.14796 1.99222 0
M  V30 21842 H 2161.31 -4.14659 0.34597 0
M  V30 21843 H 2160.18 -5.48899 0.0123067 0
M  V30 21844 H 2160.45 -4.25276 -1.20799 0
M  V30 21845 N 2159.5 -0.52156 -1.4872 0
M  V30 21846 C 2160.75 0.0155956 -2.02494 0
M  V30 21847 C 2161.08 1.35077 -1.39944 0
M  V30 21848 O 2160.33 1.88342 -0.531596 0
M  V30 21849 C 2160.63 0.195406 -3.56865 0
M  V30 21850 C 2160.3 -1.06435 -4.38158 0
M  V30 21851 C 2158.96 -1.40962 -4.6009 0
M  V30 21852 C 2161.31 -1.90076 -4.85305 0
M  V30 21853 C 2158.64 -2.59043 -5.26416 0
M  V30 21854 C 2160.99 -3.07328 -5.5293 0
M  V30 21855 C 2159.66 -3.42211 -5.73104 0
M  V30 21856 H 2158.93 0.00570684 -0.740978 0
M  V30 21857 H 2161.57 -0.68588 -1.78796 0
M  V30 21858 H 2159.88 0.979581 -3.79357 0
M  V30 21859 H 2161.58 0.625805 -3.96087 0
M  V30 21860 H 2158.17 -0.785439 -4.21342 0
M  V30 21861 H 2162.35 -1.64713 -4.6817 0
M  V30 21862 H 2157.61 -2.86282 -5.40234 0
M  V30 21863 H 2161.78 -3.72451 -5.88433 0
M  V30 21864 H 2159.41 -4.33809 -6.24271 0
M  V30 21865 N 2160.98 1.55502 -0.256304 0
M  V30 21866 C 2161.93 2.18437 0.653381 0
M  V30 21867 C 2162.92 1.14313 1.13231 0
M  V30 21868 O 2164.11 1.40192 1.08052 0
M  V30 21869 C 2161.24 2.8946 1.84575 0
M  V30 21870 C 2160.32 4.00852 1.38487 0
M  V30 21871 N 2160.71 5.01749 0.638861 0
M  V30 21872 C 2159.01 4.13579 1.66939 0
M  V30 21873 C 2159.71 5.8033 0.398996 0
M  V30 21874 N 2158.69 5.34949 0.965959 0
M  V30 21875 H 2162.49 2.93803 0.0753632 0
M  V30 21876 H 2160.01 1.62293 -0.0590271 0
M  V30 21877 H 2162 3.32983 2.50855 0
M  V30 21878 H 2160.66 2.156 2.4279 0
M  V30 21879 H 2161.67 5.17098 0.288038 0
M  V30 21880 H 2158.35 3.50896 2.26225 0
M  V30 21881 H 2159.74 6.71611 -0.197206 0
M  V30 21882 N 2162.46 -0.0166879 1.57591 0
M  V30 21883 C 2163.88 -0.372531 1.55191 0
M  V30 21884 C 2164.08 -1.75838 0.984042 0
M  V30 21885 O 2163.13 -2.45008 0.610513 0
M  V30 21886 C 2164.45 -0.263043 2.99547 0
M  V30 21887 C 2165.99 -0.339216 3.11156 0
M  V30 21888 C 2166.47 -0.259039 4.57267 0
M  V30 21889 N 2167.96 -0.317455 4.62111 0
M  V30 21890 C 2168.69 -0.278499 5.72723 0
M  V30 21891 N 2168.19 -0.191112 6.92536 0
M  V30 21892 N 2169.98 -0.32914 5.61136 0
M  V30 21893 H 2162.13 0.890086 1.9285 0
M  V30 21894 H 2164.4 0.339637 0.885071 0
M  V30 21895 H 2164.1 0.689794 3.44869 0
M  V30 21896 H 2163.98 -1.0518 3.62239 0
M  V30 21897 H 2166.36 -1.28249 2.65775 0
M  V30 21898 H 2166.45 0.479109 2.51273 0
M  V30 21899 H 2166.09 0.68062 5.03319 0
M  V30 21900 H 2166.02 -1.09563 5.15076 0
M  V30 21901 H 2168.51 -0.387004 3.75913 0
M  V30 21902 H 2168.82 -0.166827 7.7262 0
M  V30 21903 H 2167.17 -0.15698 6.94823 0
M  V30 21904 H 2170.36 -0.395489 4.66426 0
M  V30 21905 H 2170.53 -0.295314 6.47327 0
M  V30 21906 N 2163.94 -1.54924 -0.289176 0
M  V30 21907 C 2165.19 -1.74421 -1.02087 0
M  V30 21908 C 2165.51 -0.539388 -1.87392 0
M  V30 21909 O 2164.78 0.446105 -1.90753 0
M  V30 21910 H 2163.36 -0.643179 -0.379908 0
M  V30 21911 H 2166.02 -1.923 -0.317306 0
M  V30 21912 H 2165.12 -2.63841 -1.66716 0
M  V30 21913 N 2165.42 0.552936 -1.47582 0
M  V30 21914 C 2166.64 1.34003 -1.58297 0
M  V30 21915 C 2167.07 1.86625 -0.23511 0
M  V30 21916 O 2166.42 1.63197 0.789702 0
M  V30 21917 C 2166.47 2.48288 -2.61506 0
M  V30 21918 O 2165.58 3.50647 -2.17073 0
M  V30 21919 H 2164.92 0.397855 -0.531608 0
M  V30 21920 H 2167.45 0.667783 -1.93395 0
M  V30 21921 H 2167.46 2.94798 -2.8206 0
M  V30 21922 H 2166.13 2.09345 -3.59371 0
M  V30 21923 H 2164.71 3.10413 -2.06636 0
M  V30 21924 N 2166.89 1.35785 0.800009 0
M  V30 21925 C 2167.84 1.29246 1.91217 0
M  V30 21926 C 2168.81 0.16314 1.65297 0
M  V30 21927 O 2170 0.347924 1.87601 0
M  V30 21928 C 2167.14 1.07697 3.27865 0
M  V30 21929 C 2166.25 2.2961 3.65928 0
M  V30 21930 C 2165.38 2.01158 4.91639 0
M  V30 21931 C 2164.42 3.19089 5.22349 0
M  V30 21932 N 2163.56 2.90371 6.39241 0
M  V30 21933 H 2168.4 2.24348 1.96142 0
M  V30 21934 H 2165.94 1.11515 0.959316 0
M  V30 21935 H 2167.9 0.93233 4.06649 0
M  V30 21936 H 2166.53 0.162546 3.2239 0
M  V30 21937 H 2165.58 2.54915 2.82351 0
M  V30 21938 H 2166.89 3.1765 3.84578 0
M  V30 21939 H 2166.04 1.83563 5.78264 0
M  V30 21940 H 2164.78 1.10413 4.75037 0
M  V30 21941 H 2163.79 3.37255 4.34211 0
M  V30 21942 H 2165.01 4.10645 5.40877 0
M  V30 21943 H 2162.96 2.02227 6.24052 0
M  V30 21944 H 2162.88 3.71946 6.58173 0
M  V30 21945 H 2164.14 2.76331 7.28877 0
M  V30 21946 N 2168.37 -1.02294 1.19891 0
M  V30 21947 C 2169.31 -2.10325 0.885357 0
M  V30 21948 C 2170.28 -1.61811 -0.160011 0
M  V30 21949 O 2171.47 -1.88468 -0.0349974 0
M  V30 21950 C 2168.59 -3.37126 0.326111 0
M  V30 21951 C 2167.64 -4.04521 1.35147 0
M  V30 21952 S 2168.47 -4.49261 2.91418 0
M  V30 21953 C 2169.63 -5.79273 2.37052 0
M  V30 21954 H 2169.86 -2.36598 1.80024 0
M  V30 21955 H 2167.4 -1.15319 1.02669 0
M  V30 21956 H 2169.35 -4.10499 0.00998612 0
M  V30 21957 H 2168.01 -3.08937 -0.567175 0
M  V30 21958 H 2167.21 -4.95727 0.909412 0
M  V30 21959 H 2166.81 -3.37345 1.61475 0
M  V30 21960 H 2169.1 -6.54127 1.76419 0
M  V30 21961 H 2170.04 -6.28267 3.26629 0
M  V30 21962 H 2170.45 -5.35231 1.79411 0
M  V30 21963 N 2169.85 -1.00378 -1.21499 0
M  V30 21964 C 2170.8 -0.534183 -2.21654 0
M  V30 21965 C 2171.78 0.403544 -1.55757 0
M  V30 21966 O 2172.98 0.228594 -1.75518 0
M  V30 21967 C 2170.11 0.139036 -3.43018 0
M  V30 21968 C 2169.19 -0.819638 -4.16104 0
M  V30 21969 N 2169.58 -1.97196 -4.65776 0
M  V30 21970 C 2167.88 -0.637767 -4.41417 0
M  V30 21971 C 2168.58 -2.57457 -5.21623 0
M  V30 21972 N 2167.56 -1.85627 -5.10924 0
M  V30 21973 H 2171.36 -1.41287 -2.57711 0
M  V30 21974 H 2168.87 -0.867442 -1.37292 0
M  V30 21975 H 2170.87 0.492917 -4.13976 0
M  V30 21976 H 2169.53 1.01372 -3.0847 0
M  V30 21977 H 2170.54 -2.35237 -4.61393 0
M  V30 21978 H 2167.22 0.189943 -4.17068 0
M  V30 21979 H 2168.61 -3.54903 -5.7052 0
M  V30 21980 N 2171.33 1.37038 -0.778354 0
M  V30 21981 C 2172.61 1.93726 -0.270129 0
M  V30 21982 C 2172.99 1.71138 1.23592 0
M  V30 21983 O 2172.33 1.06396 2.02218 0
M  V30 21984 C 2172.54 3.4288 -0.650703 0
M  V30 21985 C 2173.89 4.19987 -0.624207 0
M  V30 21986 O 2174.92 3.51271 -0.590496 0
M  V30 21987 O 2173.77 5.42534 -0.657186 0
M  V30 21988 H 2170.87 0.824515 -0.0640657 0
M  V30 21989 H 2173.41 1.46286 -0.860152 0
M  V30 21990 H 2172.19 3.52931 -1.68984 0
M  V30 21991 H 2171.81 3.97585 -0.0339758 0
M  V30 21992 N 2172.81 0.529439 1.48441 0
M  V30 21993 C 2174.06 -0.00685445 2.01699 0
M  V30 21994 C 2174.37 -1.35375 1.41184 0
M  V30 21995 O 2175.58 -1.97838 1.85937 0
M  V30 21996 C 2174.03 -0.0626135 3.59846 0
M  V30 21997 C 2173.64 1.27936 4.29344 0
M  V30 21998 C 2175.38 -0.547764 4.20951 0
M  V30 21999 C 2173.29 1.18421 5.79422 0
M  V30 22000 H 2172.22 -0.00633228 0.753973 0
M  V30 22001 H 2174.87 0.673137 1.70708 0
M  V30 22002 H 2173.25 -0.80767 3.87676 0
M  V30 22003 H 2174.43 2.03994 4.13187 0
M  V30 22004 H 2172.74 1.7002 3.80108 0
M  V30 22005 H 2175.34 -0.636907 5.30893 0
M  V30 22006 H 2175.68 -1.55341 3.86232 0
M  V30 22007 H 2176.22 0.141593 3.97548 0
M  V30 22008 H 2172.95 2.16499 6.18715 0
M  V30 22009 H 2172.47 0.464988 5.97995 0
M  V30 22010 H 2174.15 0.874656 6.41061 0
M  V30 22011 N 2174.29 -1.55364 0.264547 0
M  V30 22012 C 2175.53 -1.99655 -0.355771 0
M  V30 22013 C 2175.86 -1.15266 -1.56293 0
M  V30 22014 O 2175.14 -0.220196 -1.9325 0
M  V30 22015 C 2175.42 -3.52238 -0.748347 0
M  V30 22016 C 2175.28 -4.47386 0.465419 0
M  V30 22017 C 2176.59 -4.10422 -1.58877 0
M  V30 22018 H 2173.71 -0.725828 -0.12784 0
M  V30 22019 H 2176.36 -1.86375 0.369383 0
M  V30 22020 H 2174.51 -3.63686 -1.36619 0
M  V30 22021 H 2176.18 -4.47896 1.10395 0
M  V30 22022 H 2174.42 -4.1948 1.10539 0
M  V30 22023 H 2175.09 -5.51804 0.147135 0
M  V30 22024 H 2177.57 -4.02185 -1.06707 0
M  V30 22025 H 2176.44 -5.17415 -1.83228 0
M  V30 22026 H 2176.7 -3.59985 -2.56639 0
M  V30 22027 N 2175.76 0.00833021 -1.57598 0
M  V30 22028 C 2177.17 0.552246 -1.78346 0
M  V30 22029 C 2177.53 1.74433 -0.898189 0
M  V30 22030 O 2176.65 2.16176 -0.098451 0
M  V30 22031 C 2177.25 1.00862 -3.23438 0
M  V30 22032 C 2175.8 1.4979 -3.45311 0
M  V30 22033 C 2174.95 0.445309 -2.73701 0
M  V30 22034 H 2177.9 -0.217862 -1.57197 0
M  V30 22035 H 2177.92 1.87504 -3.31093 0
M  V30 22036 H 2177.44 0.140794 -3.87845 0
M  V30 22037 H 2175.54 2.38689 -2.86109 0
M  V30 22038 H 2175.65 1.53111 -4.53976 0
M  V30 22039 H 2174.01 0.90507 -2.38077 0
M  V30 22040 H 2174.8 -0.413406 -3.40802 0
M  V30 22041 N 2177.24 1.55075 0.280956 0
M  V30 22042 C 2178.66 1.46737 0.627723 0
M  V30 22043 C 2178.86 0.674952 1.8986 0
M  V30 22044 O 2177.91 0.190625 2.51779 0
M  V30 22045 C 2179.23 2.90883 0.762079 0
M  V30 22046 C 2180.77 3.01049 0.856656 0
M  V30 22047 C 2181.25 4.46432 1.02285 0
M  V30 22048 N 2182.74 4.50227 1.08857 0
M  V30 22049 C 2183.48 5.59924 1.23582 0
M  V30 22050 N 2182.97 6.79504 1.35077 0
M  V30 22051 N 2184.76 5.47651 1.26629 0
M  V30 22052 H 2176.92 2.05054 -0.553775 0
M  V30 22053 H 2179.18 0.929521 -0.186267 0
M  V30 22054 H 2178.88 3.51554 -0.101172 0
M  V30 22055 H 2178.76 3.39447 1.64486 0
M  V30 22056 H 2181.15 2.40479 1.71038 0
M  V30 22057 H 2181.23 2.5575 -0.05057 0
M  V30 22058 H 2180.87 5.07602 0.173817 0
M  V30 22059 H 2180.8 4.8938 1.94461 0
M  V30 22060 H 2183.29 3.64085 1.01245 0
M  V30 22061 H 2183.6 7.58859 1.46124 0
M  V30 22062 H 2181.95 6.82331 1.32096 0
M  V30 22063 H 2185.14 4.53172 1.17274 0
M  V30 22064 H 2185.31 6.33187 1.37761 0
M  V30 22065 N 2178.72 -0.545102 1.47873 0
M  V30 22066 C 2180 -1.30611 1.45603 0
M  V30 22067 C 2180.38 -2.10497 0.159489 0
M  V30 22068 O 2179.72 -2.11741 -0.85895 0
M  V30 22069 C 2179.93 -2.20038 2.70895 0
M  V30 22070 C 2181.28 -2.80668 3.18608 0
M  V30 22071 O 2182.31 -2.30334 2.71707 0
M  V30 22072 O 2181.17 -3.72185 4.00176 0
M  V30 22073 H 2178.26 -0.588726 0.580802 0
M  V30 22074 H 2180.81 -0.563004 1.60089 0
M  V30 22075 H 2179.58 -1.6069 3.56784 0
M  V30 22076 H 2179.2 -3.01622 2.59056 0
M  V30 22077 N 2180.2 -1.36208 -0.792797 0
M  V30 22078 C 2181.11 -1.32403 -1.93666 0
M  V30 22079 C 2182.12 -0.226736 -1.72516 0
M  V30 22080 O 2183.3 -0.458518 -1.96111 0
M  V30 22081 C 2180.36 -1.10928 -3.28475 0
M  V30 22082 C 2179.43 -2.301 -3.62426 0
M  V30 22083 C 2178.66 -2.0964 -4.90802 0
M  V30 22084 O 2178.88 -1.06985 -5.60277 0
M  V30 22085 O 2177.82 -2.97336 -5.23331 0
M  V30 22086 H 2181.64 -2.287 -1.99825 0
M  V30 22087 H 2179.23 -1.1672 -0.932566 0
M  V30 22088 H 2181.11 -1.00855 -4.09153 0
M  V30 22089 H 2179.78 -0.17691 -3.23216 0
M  V30 22090 H 2178.69 -2.45741 -2.82068 0
M  V30 22091 H 2180.02 -3.21832 -3.72405 0
M  V30 22092 N 2181.68 1.01656 -1.20431 0
M  V30 22093 C 2182.61 2.12074 -0.977076 0
M  V30 22094 C 2183.59 1.6984 0.0939563 0
M  V30 22095 O 2184.77 1.94096 -0.0635618 0
M  V30 22096 C 2181.9 3.43257 -0.528392 0
M  V30 22097 C 2180.86 3.99231 -1.54267 0
M  V30 22098 C 2180.18 5.26182 -0.950621 0
M  V30 22099 C 2181.48 4.32619 -2.92639 0
M  V30 22100 H 2183.18 2.31342 -1.90056 0
M  V30 22101 H 2180.72 1.11175 -0.915209 0
M  V30 22102 H 2182.67 4.19888 -0.35665 0
M  V30 22103 H 2181.4 3.23747 0.430716 0
M  V30 22104 H 2180.06 3.24708 -1.70177 0
M  V30 22105 H 2179.71 5.02997 0.0164182 0
M  V30 22106 H 2179.41 5.64597 -1.62802 0
M  V30 22107 H 2180.93 6.05469 -0.789947 0
M  V30 22108 H 2182.34 5.00138 -2.8024 0
M  V30 22109 H 2180.74 4.82148 -3.57286 0
M  V30 22110 H 2181.81 3.41386 -3.4436 0
M  V30 22111 N 2183.15 1.01021 1.20965 0
M  V30 22112 C 2184.4 0.6945 1.89792 0
M  V30 22113 C 2184.72 -0.77766 1.78822 0
M  V30 22114 O 2183.99 -1.55883 1.18648 0
M  V30 22115 H 2182.57 0.253892 0.702529 0
M  V30 22116 H 2185.23 1.28043 1.46938 0
M  V30 22117 H 2184.33 0.972254 2.9657 0
M  V30 22118 N 2184.63 -1.36623 0.78561 0
M  V30 22119 C 2186.05 -1.5262 0.466843 0
M  V30 22120 C 2186.25 -1.74044 -1.01543 0
M  V30 22121 O 2185.3 -1.76975 -1.801 0
M  V30 22122 C 2186.62 -2.71435 1.29398 0
M  V30 22123 C 2188.16 -2.85304 1.28728 0
M  V30 22124 C 2188.64 -4.07118 2.09807 0
M  V30 22125 N 2190.13 -4.14257 2.07233 0
M  V30 22126 C 2190.87 -5.0758 2.6674 0
M  V30 22127 N 2190.36 -6.06372 3.3509 0
M  V30 22128 N 2192.15 -5.00167 2.56494 0
M  V30 22129 H 2184.31 -1.20971 1.74585 0
M  V30 22130 H 2186.57 -0.590141 0.741915 0
M  V30 22131 H 2186.27 -2.62113 2.34498 0
M  V30 22132 H 2186.15 -3.65488 0.932654 0
M  V30 22133 H 2188.54 -2.94088 0.244207 0
M  V30 22134 H 2188.62 -1.92169 1.68834 0
M  V30 22135 H 2188.26 -3.99095 3.14143 0
M  V30 22136 H 2188.19 -4.99393 1.67074 0
M  V30 22137 H 2190.68 -3.43522 1.57483 0
M  V30 22138 H 2190.99 -6.74137 3.77836 0
M  V30 22139 H 2189.34 -6.06609 3.39191 0
M  V30 22140 H 2192.53 -4.21936 2.027 0
M  V30 22141 H 2192.7 -5.7271 3.03162 0
M  V30 22142 N 2186.11 -0.537304 -1.48158 0
M  V30 22143 C 2187.33 -0.00809879 -2.07398 0
M  V30 22144 C 2187.76 1.26708 -1.39021 0
M  V30 22145 O 2187.12 1.75405 -0.458551 0
M  V30 22146 C 2187.17 0.191371 -3.60092 0
M  V30 22147 O 2186.27 1.25844 -3.9273 0
M  V30 22148 H 2185.61 -0.042404 -0.662645 0
M  V30 22149 H 2188.14 -0.747308 -1.90464 0
M  V30 22150 H 2188.15 0.411766 -4.05917 0
M  V30 22151 H 2186.83 -0.740103 -4.09262 0
M  V30 22152 H 2185.4 1.02012 -3.58675 0
M  V30 22153 N 2187.59 1.55221 -0.272782 0
M  V30 22154 C 2188.54 2.23858 0.631705 0
M  V30 22155 C 2189.53 1.23481 1.15969 0
M  V30 22156 O 2190.74 1.41418 1.11359 0
M  V30 22157 H 2187.11 0.718404 0.222259 0
M  V30 22158 H 2189.08 2.98385 0.0299551 0
M  V30 22159 C 2187.83 2.9714 1.80563 0
M  V30 22160 H 2187.15 3.74166 1.40854 0
M  V30 22161 H 2188.59 3.4849 2.41517 0
M  V30 22162 C 2187.05 2.02478 2.69266 0
M  V30 22163 O 2187.58 1.57449 3.69557 0
M  V30 22164 N 2185.79 1.69028 2.36385 0
M  V30 22165 H 2185.34 2.05842 1.54877 0
M  V30 22166 H 2185.29 1.05961 2.96006 0
M  V30 22167 N 2189.07 2.77022e-05 1.576 0
M  V30 22168 C 2190.3 -0.69479 1.94567 0
M  V30 22169 C 2190.7 -1.67836 0.873374 0
M  V30 22170 O 2190.05 -1.83034 -0.156298 0
M  V30 22171 C 2190.11 -1.48224 3.27521 0
M  V30 22172 C 2189.77 -0.660251 4.52205 0
M  V30 22173 C 2190.77 0.0520805 5.19874 0
M  V30 22174 C 2188.46 -0.606213 4.98628 0
M  V30 22175 C 2190.45 0.807435 6.32265 0
M  V30 22176 C 2188.14 0.152866 6.10909 0
M  V30 22177 C 2189.13 0.858424 6.77584 0
M  V30 22178 O 2188.82 1.60512 7.87713 0
M  V30 22179 H 2188.55 -0.198468 0.646209 0
M  V30 22180 H 2191.11 0.0472739 2.05346 0
M  V30 22181 H 2189.34 -2.26878 3.1315 0
M  V30 22182 H 2191.03 -2.0624 3.496 0
M  V30 22183 H 2191.79 0.0194852 4.84996 0
M  V30 22184 H 2187.67 -1.14492 4.46556 0
M  V30 22185 H 2191.22 1.35868 6.84241 0
M  V30 22186 H 2187.11 0.187282 6.45228 0
M  V30 22187 H 2187.88 1.52183 8.04228 0
M  V30 22188 N 2190.54 -1.55222 -0.272728 0
M  V30 22189 C 2191.96 -1.47068 -0.619933 0
M  V30 22190 C 2192.16 -0.685012 -1.89499 0
M  V30 22191 O 2191.22 -0.203975 -2.51675 0
M  V30 22192 C 2192.53 -2.91283 -0.746642 0
M  V30 22193 C 2194.08 -3.01499 -0.840678 0
M  V30 22194 C 2194.55 -4.46968 -0.999161 0
M  V30 22195 N 2196.04 -4.50798 -1.06468 0
M  V30 22196 C 2196.78 -5.60572 -1.20611 0
M  V30 22197 N 2196.27 -6.80211 -1.31471 0
M  V30 22198 N 2198.07 -5.48315 -1.23723 0
M  V30 22199 H 2190.22 -2.04757 0.564642 0
M  V30 22200 H 2192.48 -0.92852 0.191194 0
M  V30 22201 H 2192.19 -3.51496 0.119815 0
M  V30 22202 H 2192.06 -3.40314 -1.62684 0
M  V30 22203 H 2194.45 -2.41382 -1.6976 0
M  V30 22204 H 2194.53 -2.5572 0.0641323 0
M  V30 22205 H 2194.17 -5.07688 -0.146895 0
M  V30 22206 H 2194.1 -4.90404 -1.91862 0
M  V30 22207 H 2196.59 -3.64617 -0.993132 0
M  V30 22208 H 2196.91 -7.59624 -1.42098 0
M  V30 22209 H 2195.25 -6.83022 -1.28475 0
M  V30 22210 H 2198.44 -4.53787 -1.14869 0
M  V30 22211 H 2198.62 -6.33909 -1.34401 0
M  V30 22212 N 2192.02 0.537252 -1.4816 0
M  V30 22213 C 2192.95 1.65187 -1.65032 0
M  V30 22214 C 2193.93 1.62607 -0.499309 0
M  V30 22215 O 2195.12 1.79917 -0.731003 0
M  V30 22216 C 2192.25 3.03792 -1.68308 0
M  V30 22217 C 2191.2 3.21229 -2.82836 0
M  V30 22218 C 2190.53 4.60821 -2.71197 0
M  V30 22219 C 2191.83 3.04693 -4.24216 0
M  V30 22220 H 2193.52 1.51323 -2.58344 0
M  V30 22221 H 2191.07 0.726563 -1.24326 0
M  V30 22222 H 2193.02 3.81634 -1.787 0
M  V30 22223 H 2191.75 3.18662 -0.715691 0
M  V30 22224 H 2190.4 2.45802 -2.71987 0
M  V30 22225 H 2190.05 4.72517 -1.72443 0
M  V30 22226 H 2189.75 4.73434 -3.48043 0
M  V30 22227 H 2191.28 5.40772 -2.83546 0
M  V30 22228 H 2192.69 3.72334 -4.35936 0
M  V30 22229 H 2191.09 3.28804 -5.02004 0
M  V30 22230 H 2192.16 2.01201 -4.41187 0
M  V30 22231 N 2193.5 1.36626 0.785562 0
M  V30 22232 C 2194.46 1.3111 1.87997 0
M  V30 22233 C 2195.46 0.217987 1.59316 0
M  V30 22234 O 2196.65 0.473006 1.67655 0
M  V30 22235 C 2193.79 1.03339 3.2486 0
M  V30 22236 H 2194.98 2.28444 1.94303 0
M  V30 22237 H 2192.53 1.21455 0.983792 0
M  V30 22238 H 2193.27 0.0648002 3.24235 0
M  V30 22239 H 2193.05 1.82447 3.47067 0
M  V30 22240 H 2194.54 1.02095 4.04928 0
M  V30 22241 N 2194.98 -1.01016 1.20969 0
M  V30 22242 C 2195.94 -2.07851 0.965954 0
M  V30 22243 C 2196.94 -1.60684 -0.0610263 0
M  V30 22244 O 2198.13 -1.73312 0.175711 0
M  V30 22245 C 2195.26 -3.37842 0.455573 0
M  V30 22246 H 2196.46 -2.30907 1.91369 0
M  V30 22247 H 2194.01 -1.17915 1.02596 0
M  V30 22248 H 2194.74 -3.20464 -0.497325 0
M  V30 22249 H 2194.53 -3.73405 1.19628 0
M  V30 22250 H 2196.02 -4.16487 0.304741 0
M  V30 22251 N 2196.46 -1.01661 -1.20428 0
M  V30 22252 C 2197.71 -0.70127 -1.89117 0
M  V30 22253 C 2198.02 0.772326 -1.79707 0
M  V30 22254 O 2199.22 1.20022 -2.4353 0
M  V30 22255 C 2197.68 -1.20394 -3.39166 0
M  V30 22256 C 2197.29 -2.70444 -3.57161 0
M  V30 22257 C 2199.03 -0.964026 -4.13409 0
M  V30 22258 C 2196.94 -3.14191 -5.01037 0
M  V30 22259 H 2195.87 -0.258613 -0.708262 0
M  V30 22260 H 2198.52 -1.2293 -1.36237 0
M  V30 22261 H 2196.9 -0.603893 -3.91368 0
M  V30 22262 H 2198.08 -3.35998 -3.15345 0
M  V30 22263 H 2196.39 -2.92578 -2.96289 0
M  V30 22264 H 2198.99 -1.2663 -5.19489 0
M  V30 22265 H 2199.33 0.0995048 -4.16181 0
M  V30 22266 H 2199.86 -1.52745 -3.67306 0
M  V30 22267 H 2196.6 -4.19821 -5.03419 0
M  V30 22268 H 2196.12 -2.53358 -5.43663 0
M  V30 22269 H 2197.8 -3.0683 -5.69618 0
M  V30 22270 N 2197.93 1.36205 -0.792844 0
M  V30 22271 C 2199.35 1.5237 -0.47493 0
M  V30 22272 C 2199.55 1.7458 1.00619 0
M  V30 22273 O 2198.61 1.77927 1.79159 0
M  V30 22274 C 2199.92 2.70745 -1.30835 0
M  V30 22275 C 2201.47 2.84617 -1.30239 0
M  V30 22276 C 2201.94 4.06 -2.11963 0
M  V30 22277 N 2203.43 4.13152 -2.09427 0
M  V30 22278 C 2204.17 5.06158 -2.69428 0
M  V30 22279 N 2203.66 6.04586 -3.38301 0
M  V30 22280 N 2205.46 4.988 -2.59143 0
M  V30 22281 H 2197.61 1.20043 -1.75224 0
M  V30 22282 H 2199.87 0.586198 -0.745034 0
M  V30 22283 H 2199.58 2.60866 -2.35885 0
M  V30 22284 H 2199.45 3.64988 -0.952024 0
M  V30 22285 H 2201.84 2.93954 -0.259799 0
M  V30 22286 H 2201.92 1.91271 -1.6985 0
M  V30 22287 H 2201.56 3.97423 -3.16255 0
M  V30 22288 H 2201.49 4.985 -1.6972 0
M  V30 22289 H 2203.98 3.42682 -1.59303 0
M  V30 22290 H 2204.3 6.72123 -3.81405 0
M  V30 22291 H 2202.64 6.04801 -3.42404 0
M  V30 22292 H 2205.83 4.20855 -2.04935 0
M  V30 22293 H 2206.01 5.71094 -3.06195 0
M  V30 22294 N 2199.41 0.545154 1.47871 0
M  V30 22295 C 2200.82 0.108613 1.86384 0
M  V30 22296 C 2201.17 -1.3183 1.45311 0
M  V30 22297 O 2200.3 -1.98979 0.850676 0
M  V30 22298 C 2200.89 0.190333 3.38265 0
M  V30 22299 C 2199.45 -0.191098 3.75915 0
M  V30 22300 C 2198.6 0.543321 2.71925 0
M  V30 22301 H 2201.55 0.755562 1.3956 0
M  V30 22302 H 2201.57 -0.594151 3.75833 0
M  V30 22303 H 2201.08 1.22896 3.68128 0
M  V30 22304 H 2199.19 -1.2313 3.51667 0
M  V30 22305 H 2199.3 0.159071 4.78836 0
M  V30 22306 H 2197.66 -0.0122047 2.54697 0
M  V30 22307 H 2198.45 1.58288 3.04631 0
M  V30 22308 N 2200.89 -1.55074 0.28101 0
M  V30 22309 C 2202.12 -2.04592 -0.340118 0
M  V30 22310 C 2202.54 -1.15782 -1.48244 0
M  V30 22311 O 2201.9 -0.157642 -1.80613 0
M  V30 22312 C 2201.95 -3.51772 -0.793042 0
M  V30 22313 O 2201.05 -3.66037 -1.89975 0
M  V30 22314 H 2200.39 -0.660361 -0.0694173 0
M  V30 22315 H 2202.92 -2.00305 0.417028 0
M  V30 22316 H 2202.93 -3.93247 -1.08722 0
M  V30 22317 H 2201.61 -4.15878 0.0426894 0
M  V30 22318 H 2200.18 -3.36465 -1.60765 0
M  V30 22319 N 2202.37 -0.00838561 -1.57598 0
M  V30 22320 C 2203.3 1.00865 -2.05813 0
M  V30 22321 C 2204.31 1.3018 -0.977602 0
M  V30 22322 O 2205.5 1.27009 -1.25423 0
M  V30 22323 C 2202.6 2.34133 -2.45021 0
M  V30 22324 C 2201.78 2.23636 -3.75907 0
M  V30 22325 C 2200.84 3.39663 -4.0189 0
M  V30 22326 O 2199.86 3.17474 -4.72439 0
M  V30 22327 N 2201.06 4.62787 -3.5044 0
M  V30 22328 H 2203.83 0.597407 -2.93685 0
M  V30 22329 H 2201.39 0.178824 -1.60909 0
M  V30 22330 H 2203.38 3.10542 -2.59511 0
M  V30 22331 H 2201.95 2.66969 -1.62623 0
M  V30 22332 H 2201.17 1.32084 -3.71413 0
M  V30 22333 H 2202.46 2.13804 -4.61698 0
M  V30 22334 H 2201.86 4.83711 -2.93326 0
M  V30 22335 H 2200.41 5.36434 -3.70246 0
M  V30 22336 N 2203.85 1.55365 0.264492 0
M  V30 22337 C 2205.1 1.75575 0.992781 0
M  V30 22338 C 2205.41 0.569012 1.87141 0
M  V30 22339 O 2206.62 0.653728 2.63512 0
M  V30 22340 C 2205.07 3.10775 1.81514 0
M  V30 22341 C 2204.68 4.37043 0.984762 0
M  V30 22342 C 2206.42 3.40332 2.53721 0
M  V30 22343 C 2204.33 5.63278 1.80199 0
M  V30 22344 H 2203.26 0.654477 0.374401 0
M  V30 22345 H 2205.91 1.81815 0.248106 0
M  V30 22346 H 2204.29 2.98595 2.60109 0
M  V30 22347 H 2205.47 4.60162 0.242374 0
M  V30 22348 H 2203.78 4.14691 0.376837 0
M  V30 22349 H 2206.38 4.31856 3.15285 0
M  V30 22350 H 2206.72 2.60851 3.24442 0
M  V30 22351 H 2207.26 3.53647 1.8215 0
M  V30 22352 H 2203.99 6.45531 1.13884 0
M  V30 22353 H 2203.51 5.44288 2.52013 0
M  V30 22354 H 2205.19 6.01891 2.37353 0
M  V30 22355 N 2205.33 -0.529387 1.48443 0
M  V30 22356 C 2206.6 -1.29059 1.4698 0
M  V30 22357 C 2206.98 -2.10316 0.181806 0
M  V30 22358 O 2206.33 -2.1264 -0.836444 0
M  V30 22359 C 2206.54 -2.17152 2.73214 0
M  V30 22360 C 2207.89 -2.77273 3.21566 0
M  V30 22361 O 2208.91 -2.27439 2.74135 0
M  V30 22362 O 2207.77 -3.67919 4.04101 0
M  V30 22363 H 2204.87 -0.582532 0.587014 0
M  V30 22364 H 2207.41 -0.545993 1.60677 0
M  V30 22365 H 2206.18 -1.56896 3.58468 0
M  V30 22366 H 2205.81 -2.98858 2.6224 0
M  V30 22367 N 2206.8 -1.37041 -0.778305 0
M  V30 22368 C 2207.73 -1.34965 -1.90543 0
M  V30 22369 C 2208.71 -0.219304 -1.6868 0
M  V30 22370 O 2209.9 -0.418657 -1.89634 0
M  V30 22371 C 2207.03 -1.14931 -3.27732 0
M  V30 22372 C 2205.98 -2.24908 -3.64143 0
M  V30 22373 C 2205.31 -1.90004 -4.99802 0
M  V30 22374 C 2206.61 -3.67058 -3.71572 0
M  V30 22375 H 2208.3 -2.29281 -1.92537 0
M  V30 22376 H 2205.85 -1.10368 -0.924928 0
M  V30 22377 H 2207.8 -1.12111 -4.06213 0
M  V30 22378 H 2206.53 -0.170689 -3.26154 0
M  V30 22379 H 2205.19 -2.26873 -2.87966 0
M  V30 22380 H 2204.83 -0.906883 -4.94757 0
M  V30 22381 H 2204.53 -2.63644 -5.25134 0
M  V30 22382 H 2206.06 -1.88759 -5.80691 0
M  V30 22383 H 2207.47 -3.67259 -4.4022 0
M  V30 22384 H 2205.87 -4.39695 -4.08397 0
M  V30 22385 H 2206.94 -4.01158 -2.72397 0
M  V30 22386 N 2208.28 1.00373 -1.21503 0
M  V30 22387 C 2209.56 1.71435 -0.941775 0
M  V30 22388 C 2209.94 2.03915 0.546078 0
M  V30 22389 O 2209.29 1.71387 1.51125 0
M  V30 22390 C 2209.5 2.97286 -1.82817 0
M  V30 22391 C 2210.84 3.70289 -2.07777 0
M  V30 22392 O 2211.87 3.0727 -1.80176 0
M  V30 22393 O 2210.73 4.83642 -2.54465 0
M  V30 22394 H 2207.82 0.747756 -0.353256 0
M  V30 22395 H 2210.37 1.06105 -1.32438 0
M  V30 22396 H 2209.14 2.69704 -2.83506 0
M  V30 22397 H 2208.76 3.70356 -1.44646 0
M  V30 22398 N 2209.76 1.02298 1.19887 0
M  V30 22399 C 2211.04 0.630864 1.85147 0
M  V30 22400 C 2211.42 -0.890748 1.91387 0
M  V30 22401 O 2210.76 -1.78506 1.42645 0
M  V30 22402 C 2210.97 1.28608 3.2444 0
M  V30 22403 C 2212.32 1.40557 4.00661 0
M  V30 22404 O 2213.35 1.24279 3.33816 0
M  V30 22405 O 2212.21 1.66922 5.20384 0
M  V30 22406 H 2209.3 0.218513 0.79761 0
M  V30 22407 H 2211.85 1.12076 1.27425 0
M  V30 22408 H 2210.62 2.32551 3.147 0
M  V30 22409 H 2210.24 0.783669 3.898 0
M  V30 22410 N 2211.24 -1.35782 0.800057 0
M  V30 22411 C 2212.2 -2.28221 0.211605 0
M  V30 22412 C 2213.2 -1.49297 -0.597254 0
M  V30 22413 O 2214.39 -1.69143 -0.416692 0
M  V30 22414 C 2211.52 -3.33514 -0.705787 0
M  V30 22415 H 2212.72 -2.81774 1.02682 0
M  V30 22416 H 2210.27 -1.45527 0.570236 0
M  V30 22417 H 2211 -2.85136 -1.54493 0
M  V30 22418 H 2210.79 -3.91892 -0.127586 0
M  V30 22419 H 2212.28 -4.02521 -1.11204 0
M  V30 22420 N 2212.72 -0.552988 -1.4758 0
M  V30 22421 C 2213.99 0.0381172 -1.95563 0
M  V30 22422 C 2214.37 1.48985 -1.49555 0
M  V30 22423 O 2213.72 2.16443 -0.732452 0
M  V30 22424 C 2213.93 -0.10298 -3.48848 0
M  V30 22425 C 2215.28 0.0445335 -4.24577 0
M  V30 22426 O 2216.3 -0.0303175 -3.56187 0
M  V30 22427 O 2215.16 0.204827 -5.46116 0
M  V30 22428 H 2212.26 0.0664922 -0.824323 0
M  V30 22429 H 2214.8 -0.619213 -1.57999 0
M  V30 22430 H 2213.57 -1.11335 -3.75127 0
M  V30 22431 H 2213.2 0.592155 -3.93166 0
M  V30 22432 N 2214.19 1.54923 -0.28923 0
M  V30 22433 C 2215.44 2.00196 0.323963 0
M  V30 22434 C 2215.77 1.17738 1.54439 0
M  V30 22435 O 2215.05 0.250912 1.92875 0
M  V30 22436 C 2215.33 3.53384 0.692214 0
M  V30 22437 C 2215.18 4.46589 -0.536535 0
M  V30 22438 C 2216.5 4.12898 1.52327 0
M  V30 22439 H 2213.62 0.72777 0.116277 0
M  V30 22440 H 2216.26 1.85764 -0.398987 0
M  V30 22441 H 2214.41 3.65813 1.30816 0
M  V30 22442 H 2216.09 4.46083 -1.17507 0
M  V30 22443 H 2214.33 4.17668 -1.17199 0
M  V30 22444 H 2215 5.515 -0.234903 0
M  V30 22445 H 2217.48 4.03832 1.00295 0
M  V30 22446 H 2216.35 5.20265 1.74973 0
M  V30 22447 H 2216.61 3.64022 2.50879 0
M  V30 22448 N 2215.67 0.0167433 1.57591 0
M  V30 22449 C 2217.08 -0.523803 1.79202 0
M  V30 22450 C 2217.43 -1.72982 0.925826 0
M  V30 22451 O 2216.56 -2.15992 0.13283 0
M  V30 22452 C 2217.15 -0.957034 3.25002 0
M  V30 22453 C 2215.71 -1.44277 3.47651 0
M  V30 22454 C 2214.86 -0.401709 2.74375 0
M  V30 22455 H 2217.81 0.242844 1.56831 0
M  V30 22456 H 2217.83 -1.82213 3.34034 0
M  V30 22457 H 2217.34 -0.0790733 3.88019 0
M  V30 22458 H 2215.44 -2.34107 2.8987 0
M  V30 22459 H 2215.56 -1.45869 4.56354 0
M  V30 22460 H 2213.92 -0.867079 2.39487 0
M  V30 22461 H 2214.7 0.467573 3.40101 0
M  V30 22462 N 2217.15 -1.55503 -0.256249 0
M  V30 22463 C 2218.11 -1.88736 -1.30043 0
M  V30 22464 C 2219.11 -0.76311 -1.41539 0
M  V30 22465 O 2220.3 -1.03118 -1.40401 0
M  V30 22466 C 2217.44 -2.10751 -2.67949 0
M  V30 22467 H 2218.63 -2.82094 -1.01798 0
M  V30 22468 H 2216.18 -1.48251 -0.495108 0
M  V30 22469 H 2216.92 -1.19831 -3.01349 0
M  V30 22470 H 2216.7 -2.92622 -2.60988 0
M  V30 22471 H 2218.19 -2.37679 -3.43364 0
M  V30 22472 N 2218.63 0.521507 -1.48721 0
M  V30 22473 C 2219.88 1.27687 -1.5717 0
M  V30 22474 C 2220.2 1.92896 -0.249309 0
M  V30 22475 O 2219.46 1.80292 0.761131 0
M  V30 22476 C 2219.76 2.38143 -2.66501 0
M  V30 22477 C 2219.42 1.9053 -4.08667 0
M  V30 22478 C 2218.09 1.77263 -4.4736 0
M  V30 22479 C 2220.44 1.54654 -4.97726 0
M  V30 22480 C 2217.77 1.26468 -5.72907 0
M  V30 22481 C 2220.12 1.05318 -6.23771 0
M  V30 22482 C 2218.78 0.906745 -6.61313 0
M  V30 22483 H 2218.05 0.467238 -0.575125 0
M  V30 22484 H 2220.7 0.581019 -1.82473 0
M  V30 22485 H 2219 3.13432 -2.3509 0
M  V30 22486 H 2220.7 2.96252 -2.70251 0
M  V30 22487 H 2217.29 2.0181 -3.78115 0
M  V30 22488 H 2221.47 1.6376 -4.68504 0
M  V30 22489 H 2216.73 1.13825 -6.00711 0
M  V30 22490 H 2220.9 0.766318 -6.92171 0
M  V30 22491 H 2218.53 0.51095 -7.58481 0
M  V30 22492 N 2220.11 1.37452 0.771027 0
M  V30 22493 C 2221.35 1.32896 1.53187 0
M  V30 22494 C 2221.69 -0.086217 1.94009 0
M  V30 22495 O 2220.96 -1.0437 1.64125 0
M  V30 22496 C 2221.24 2.26873 2.79644 0
M  V30 22497 C 2221.1 3.77173 2.45072 0
M  V30 22498 C 2222.42 2.19284 3.81579 0
M  V30 22499 H 2219.53 0.484074 0.555735 0
M  V30 22500 H 2222.18 1.68158 0.884463 0
M  V30 22501 H 2220.33 1.96932 3.34888 0
M  V30 22502 H 2222 4.17714 1.95737 0
M  V30 22503 H 2220.24 3.95707 1.7776 0
M  V30 22504 H 2220.91 4.38365 3.3547 0
M  V30 22505 H 2223.39 2.45677 3.3583 0
M  V30 22506 H 2222.26 2.87179 4.67782 0
M  V30 22507 H 2222.53 1.18599 4.25895 0
M  V30 22508 N 2221.58 -0.997276 1.22033 0
M  V30 22509 C 2222.55 -2.06815 0.987945 0
M  V30 22510 C 2223.55 -1.6074 -0.0439802 0
M  V30 22511 O 2224.74 -1.73115 0.194083 0
M  V30 22512 C 2221.87 -3.3734 0.49138 0
M  V30 22513 H 2223.06 -2.28864 1.93807 0
M  V30 22514 H 2220.62 -1.1682 1.0384 0
M  V30 22515 H 2221.35 -3.20973 -0.463307 0
M  V30 22516 H 2221.14 -3.72115 1.23582 0
M  V30 22517 H 2222.63 -4.1614 0.348897 0
M  V30 22518 N 2223.06 -1.02932 -1.19343 0
M  V30 22519 C 2224.31 -0.724607 -1.88663 0
M  V30 22520 C 2224.63 0.749112 -1.80037 0
M  V30 22521 O 2223.9 1.53976 -1.21113 0
M  V30 22522 H 2222.48 -0.265037 -0.698401 0
M  V30 22523 H 2225.14 -1.30365 -1.44883 0
M  V30 22524 H 2224.24 -1.01931 -2.94985 0
M  V30 22525 N 2224.54 1.35356 -0.807246 0
M  V30 22526 C 2225.79 1.98003 -0.384411 0
M  V30 22527 C 2226.1 1.64756 1.05427 0
M  V30 22528 O 2227.31 2.20772 1.58025 0
M  V30 22529 C 2225.76 3.54229 -0.636389 0
M  V30 22530 C 2225.37 3.96385 -2.08766 0
M  V30 22531 C 2227.12 4.23583 -0.278943 0
M  V30 22532 C 2225.02 5.45459 -2.28535 0
M  V30 22533 H 2223.95 0.740889 -0.139999 0
M  V30 22534 H 2226.6 1.54414 -0.991396 0
M  V30 22535 H 2224.99 3.95979 0.040556 0
M  V30 22536 H 2226.16 3.65785 -2.80247 0
M  V30 22537 H 2224.48 3.39922 -2.40503 0
M  V30 22538 H 2227.07 5.33166 -0.404693 0
M  V30 22539 H 2227.42 4.09024 0.77494 0
M  V30 22540 H 2227.95 3.87256 -0.909832 0
M  V30 22541 H 2224.69 5.64986 -3.32371 0
M  V30 22542 H 2224.21 5.77626 -1.61579 0
M  V30 22543 H 2225.89 6.1193 -2.1012 0
M  V30 22544 N 2226.02 0.560807 1.47284 0
M  V30 22545 C 2226.98 -0.174448 2.28535 0
M  V30 22546 C 2227.98 -0.839364 1.37154 0
M  V30 22547 O 2229.17 -0.694673 1.5975 0
M  V30 22548 C 2226.3 -1.25555 3.16936 0
M  V30 22549 H 2227.5 0.539313 2.95011 0
M  V30 22550 H 2225.05 0.317892 1.53033 0
M  V30 22551 H 2225.78 -2.0016 2.5516 0
M  V30 22552 H 2225.57 -0.783537 3.84192 0
M  V30 22553 H 2227.06 -1.77186 3.78146 0
M  V30 22554 N 2227.5 -1.54768 0.297442 0
M  V30 22555 C 2228.41 -2.27065 -0.58979 0
M  V30 22556 C 2229.42 -1.30455 -1.15142 0
M  V30 22557 O 2230.6 -1.63431 -1.17696 0
M  V30 22558 C 2227.66 -2.99463 -1.74708 0
M  V30 22559 C 2226.72 -4.11603 -1.21989 0
M  V30 22560 C 2225.96 -4.80539 -2.32203 0
M  V30 22561 O 2226.18 -4.48812 -3.52028 0
M  V30 22562 O 2225.11 -5.68018 -1.99096 0
M  V30 22563 H 2228.94 -3.037 -0.00342861 0
M  V30 22564 H 2226.53 -1.49263 0.0640297 0
M  V30 22565 H 2228.41 -3.44885 -2.42141 0
M  V30 22566 H 2227.08 -2.25726 -2.32012 0
M  V30 22567 H 2225.99 -3.70588 -0.511393 0
M  V30 22568 H 2227.32 -4.87306 -0.692333 0
M  V30 22569 N 2228.97 -0.0251005 -1.5758 0
M  V30 22570 C 2230.2 0.668282 -1.96338 0
M  V30 22571 C 2230.62 1.65098 -0.901343 0
M  V30 22572 O 2229.98 1.80773 0.138155 0
M  V30 22573 C 2230.03 1.35451 -3.34194 0
M  V30 22574 O 2229.13 2.46968 -3.30273 0
M  V30 22575 H 2228.48 0.175876 -0.640284 0
M  V30 22576 H 2231.01 -0.0857583 -2.0442 0
M  V30 22577 H 2231.02 1.71222 -3.70334 0
M  V30 22578 H 2229.69 0.634146 -4.11037 0
M  V30 22579 H 2228.27 2.13339 -3.05845 0
M  V30 22580 N 2230.45 1.55637 0.247999 0
M  V30 22581 C 2231.68 1.81471 0.993776 0
M  V30 22582 C 2232.1 0.600672 1.7899 0
M  V30 22583 O 2231.45 -0.430651 1.77346 0
M  V30 22584 C 2231.5 3.05509 1.93252 0
M  V30 22585 O 2231.22 4.22226 1.16862 0
M  V30 22586 C 2232.73 3.44135 2.79438 0
M  V30 22587 H 2229.95 0.603903 0.292476 0
M  V30 22588 H 2232.49 2.02694 0.271217 0
M  V30 22589 H 2230.64 2.8634 2.60938 0
M  V30 22590 H 2231.06 4.92518 1.80351 0
M  V30 22591 H 2232.53 4.34032 3.41058 0
M  V30 22592 H 2233.01 2.64671 3.50494 0
M  V30 22593 H 2233.62 3.65652 2.17207 0
M  V30 22594 N 2231.93 -0.513613 1.48996 0
M  V30 22595 C 2233.18 -1.26601 1.57533 0
M  V30 22596 C 2233.5 -1.93282 0.25827 0
M  V30 22597 O 2232.77 -1.82131 -0.72147 0
M  V30 22598 H 2231.35 -0.470266 0.580396 0
M  V30 22599 H 2234.01 -0.596341 1.85553 0
M  V30 22600 H 2233.11 -2.03664 2.36489 0
M  V30 22601 N 2233.41 -1.37859 -0.763727 0
M  V30 22602 C 2234.32 -1.36481 -1.90814 0
M  V30 22603 C 2235.34 -0.263278 -1.71997 0
M  V30 22604 O 2236.51 -0.500013 -1.95094 0
M  V30 22605 C 2233.58 -1.1787 -3.26048 0
M  V30 22606 C 2232.64 -2.37736 -3.57463 0
M  V30 22607 C 2231.87 -2.20003 -4.86245 0
M  V30 22608 O 2232.09 -1.18846 -5.57882 0
M  V30 22609 O 2231.03 -3.0837 -5.16906 0
M  V30 22610 H 2234.85 -2.32887 -1.94929 0
M  V30 22611 H 2232.44 -1.18672 -0.907598 0
M  V30 22612 H 2234.32 -1.09511 -4.06922 0
M  V30 22613 H 2233 -0.245429 -3.22768 0
M  V30 22614 H 2231.9 -2.51668 -2.76792 0
M  V30 22615 H 2233.24 -3.29658 -3.65494 0
M  V30 22616 N 2234.89 0.990791 -1.22561 0
M  V30 22617 C 2236.13 1.73064 -1.05144 0
M  V30 22618 C 2236.46 1.90061 0.413157 0
M  V30 22619 O 2235.72 1.44247 1.32254 0
M  V30 22620 C 2236.02 3.13828 -1.71017 0
M  V30 22621 C 2235.68 3.16739 -3.20916 0
M  V30 22622 C 2234.34 3.17241 -3.61817 0
M  V30 22623 C 2236.7 3.12864 -4.16852 0
M  V30 22624 C 2234.02 3.11571 -4.97132 0
M  V30 22625 C 2236.38 3.08737 -5.52145 0
M  V30 22626 C 2235.04 3.07555 -5.92424 0
M  V30 22627 H 2234.31 0.633284 -0.384749 0
M  V30 22628 H 2236.96 1.16022 -1.52352 0
M  V30 22629 H 2235.26 3.74191 -1.1614 0
M  V30 22630 H 2236.96 3.6982 -1.55029 0
M  V30 22631 H 2233.55 3.171 -2.8835 0
M  V30 22632 H 2237.73 3.11625 -3.86269 0
M  V30 22633 H 2232.99 3.09003 -5.27567 0
M  V30 22634 H 2237.16 3.04694 -6.26206 0
M  V30 22635 H 2234.79 3.02916 -6.97242 0
M  V30 22636 N 2236.37 1.03564 1.18795 0
M  V30 22637 C 2237.3 0.643058 2.24471 0
M  V30 22638 C 2238.28 -0.351253 1.66434 0
M  V30 22639 O 2239.46 -0.232471 1.92804 0
M  V30 22640 C 2236.59 1.85533e-05 3.473 0
M  V30 22641 C 2235.55 0.91733 4.18054 0
M  V30 22642 C 2234.87 0.139035 5.34519 0
M  V30 22643 C 2236.17 2.23415 4.72105 0
M  V30 22644 H 2237.87 1.52648 2.57564 0
M  V30 22645 H 2235.41 0.735416 1.23805 0
M  V30 22646 H 2237.36 -0.286309 4.20426 0
M  V30 22647 H 2236.09 -0.918243 3.13426 0
M  V30 22648 H 2234.75 1.18796 3.46818 0
M  V30 22649 H 2234.4 -0.781475 4.96892 0
M  V30 22650 H 2234.1 0.750107 5.82793 0
M  V30 22651 H 2235.62 -0.140393 6.10439 0
M  V30 22652 H 2237.03 2.00888 5.36951 0
M  V30 22653 H 2235.43 2.79774 5.30892 0
M  V30 22654 H 2236.5 2.88414 3.89802 0
M  V30 22655 N 2237.84 -1.34926 0.814413 0
M  V30 22656 C 2238.75 -2.3345 0.232019 0
M  V30 22657 C 2239.77 -1.62229 -0.629111 0
M  V30 22658 O 2240.95 -1.94053 -0.539018 0
M  V30 22659 C 2238.01 -3.41408 -0.603422 0
M  V30 22660 C 2237.07 -4.28392 0.279113 0
M  V30 22661 C 2236.3 -5.31194 -0.51655 0
M  V30 22662 O 2236.53 -5.42873 -1.75058 0
M  V30 22663 O 2235.46 -6.01822 0.096671 0
M  V30 22664 H 2239.29 -2.85072 1.04726 0
M  V30 22665 H 2236.87 -1.37835 0.576367 0
M  V30 22666 H 2238.75 -4.07352 -1.07901 0
M  V30 22667 H 2237.43 -2.92044 -1.39613 0
M  V30 22668 H 2236.34 -3.65402 0.802013 0
M  V30 22669 H 2237.67 -4.81174 1.03596 0
M  V30 22670 N 2239.32 -0.56861 -1.46985 0
M  V30 22671 C 2240.57 -0.0466248 -2.01646 0
M  V30 22672 C 2240.88 1.31584 -1.44723 0
M  V30 22673 O 2242.09 1.92838 -1.91117 0
M  V30 22674 C 2240.55 -0.0328152 -3.59885 0
M  V30 22675 C 2240.15 -1.39274 -4.25801 0
M  V30 22676 C 2241.9 0.435964 -4.22255 0
M  V30 22677 C 2239.8 -1.33742 -5.76079 0
M  V30 22678 H 2238.73 -0.0136602 -0.753876 0
M  V30 22679 H 2241.39 -0.718161 -1.68863 0
M  V30 22680 H 2239.77 0.704601 -3.89681 0
M  V30 22681 H 2240.94 -2.14877 -4.07633 0
M  V30 22682 H 2239.26 -1.80038 -3.75467 0
M  V30 22683 H 2241.85 0.495926 -5.32395 0
M  V30 22684 H 2242.2 1.45046 -3.90214 0
M  V30 22685 H 2242.73 -0.246947 -3.97033 0
M  V30 22686 H 2239.47 -2.32827 -6.12757 0
M  V30 22687 H 2238.99 -0.623372 -5.96552 0
M  V30 22688 H 2240.67 -1.04431 -6.38516 0
M  V30 22689 N 2240.8 1.54608 -0.305646 0
M  V30 22690 C 2242.05 2.00528 0.302711 0
M  V30 22691 C 2242.38 1.19369 1.53182 0
M  V30 22692 O 2241.65 0.271355 1.92598 0
M  V30 22693 C 2241.94 3.54099 0.654694 0
M  V30 22694 C 2241.79 4.45994 -0.583872 0
M  V30 22695 C 2243.11 4.1449 1.47939 0
M  V30 22696 H 2240.23 0.728962 0.108551 0
M  V30 22697 H 2242.87 1.8533 -0.418667 0
M  V30 22698 H 2241.02 3.6718 1.26929 0
M  V30 22699 H 2242.69 4.44811 -1.22231 0
M  V30 22700 H 2240.93 4.16402 -1.21622 0
M  V30 22701 H 2241.61 5.5122 -0.293384 0
M  V30 22702 H 2244.08 4.04873 0.960059 0
M  V30 22703 H 2242.96 5.22091 1.69445 0
M  V30 22704 H 2243.22 3.66662 2.47004 0
M  V30 22705 N 2242.28 0.033457 1.57564 0
M  V30 22706 C 2243.23 -0.964923 2.11641 0
M  V30 22707 C 2244.22 -1.33405 1.044 0
M  V30 22708 O 2245.43 -1.31578 1.2283 0
M  V30 22709 H 2241.8 -0.328968 0.676228 0
M  V30 22710 H 2243.77 -0.483562 2.94456 0
M  V30 22711 C 2242.52 -2.23667 2.66211 0
M  V30 22712 H 2241.84 -1.96139 3.48381 0
M  V30 22713 H 2243.28 -2.91724 3.0769 0
M  V30 22714 C 2241.74 -2.96936 1.59156 0
M  V30 22715 O 2242.27 -3.89209 0.993927 0
M  V30 22716 N 2240.48 -2.59349 1.31097 0
M  V30 22717 H 2240.03 -1.8439 1.79883 0
M  V30 22718 H 2239.98 -3.08681 0.596943 0
M  V30 22719 N 2243.76 -1.55766 -0.239741 0
M  V30 22720 C 2245 -1.77932 -0.96677 0
M  V30 22721 C 2245.33 -0.599047 -1.85045 0
M  V30 22722 O 2244.59 0.417362 -1.91198 0
M  V30 22723 C 2244.88 -3.05676 -1.85195 0
M  V30 22724 C 2244.55 -4.36691 -1.12303 0
M  V30 22725 C 2243.21 -4.72292 -0.921606 0
M  V30 22726 C 2245.56 -5.17654 -0.606928 0
M  V30 22727 C 2242.89 -5.86386 -0.191893 0
M  V30 22728 C 2245.24 -6.32505 0.109352 0
M  V30 22729 C 2243.91 -6.66722 0.32219 0
M  V30 22730 H 2243.18 -0.651099 -0.353766 0
M  V30 22731 H 2245.83 -1.90036 -0.236307 0
M  V30 22732 H 2244.13 -2.88614 -2.6497 0
M  V30 22733 H 2245.83 -3.20026 -2.41629 0
M  V30 22734 H 2242.42 -4.08727 -1.28997 0
M  V30 22735 H 2246.6 -4.90599 -0.750067 0
M  V30 22736 H 2241.86 -6.11398 -0.0165874 0
M  V30 22737 H 2246.03 -6.94479 0.516859 0
M  V30 22738 H 2243.66 -7.54977 0.889573 0
M  V30 22739 N 2245.23 0.505704 -1.49266 0
M  V30 22740 C 2246.18 1.62863 -1.66067 0
M  V30 22741 C 2247.18 1.61005 -0.526664 0
M  V30 22742 O 2248.38 1.6557 -0.706155 0
M  V30 22743 H 2244.76 0.539796 -0.523569 0
M  V30 22744 H 2246.73 1.45843 -2.60331 0
M  V30 22745 C 2245.48 3.01023 -1.74013 0
M  V30 22746 H 2244.8 3.03157 -2.60645 0
M  V30 22747 H 2246.24 3.79144 -1.89805 0
M  V30 22748 C 2244.7 3.33406 -0.483927 0
M  V30 22749 O 2245.23 3.99778 0.392478 0
M  V30 22750 N 2243.43 2.88505 -0.348287 0
M  V30 22751 H 2242.98 2.34669 -1.06247 0
M  V30 22752 H 2242.94 3.1054 0.491149 0
M  V30 22753 N 2246.71 1.38262 0.756405 0
M  V30 22754 C 2247.64 1.37979 1.88372 0
M  V30 22755 C 2248.62 0.246111 1.6831 0
M  V30 22756 O 2249.81 0.448773 1.88944 0
M  V30 22757 C 2246.94 1.2013 3.25862 0
M  V30 22758 C 2245.89 2.30673 3.60519 0
M  V30 22759 C 2245.22 1.97932 4.96716 0
M  V30 22760 C 2246.52 3.72923 3.65686 0
M  V30 22761 H 2248.21 2.32315 1.88865 0
M  V30 22762 H 2245.76 1.11825 0.907253 0
M  V30 22763 H 2247.71 1.18559 4.04378 0
M  V30 22764 H 2246.44 0.222555 3.25841 0
M  V30 22765 H 2245.09 2.31425 2.8432 0
M  V30 22766 H 2244.74 0.98548 4.93252 0
M  V30 22767 H 2244.44 2.71965 5.20873 0
M  V30 22768 H 2245.97 1.97974 5.77615 0
M  V30 22769 H 2247.38 3.74216 4.34322 0
M  V30 22770 H 2245.78 4.46137 4.0135 0
M  V30 22771 H 2246.85 4.05441 2.6598 0
M  V30 22772 N 2248.19 -0.984277 1.23084 0
M  V30 22773 C 2249.61 -1.24974 0.992659 0
M  V30 22774 C 2249.81 -1.99123 -0.308583 0
M  V30 22775 O 2248.86 -2.30581 -1.02901 0
M  V30 22776 C 2250.18 -2.05308 2.19702 0
M  V30 22777 C 2251.72 -2.18461 2.24151 0
M  V30 22778 C 2252.2 -3.02185 3.44163 0
M  V30 22779 N 2253.69 -3.09771 3.44378 0
M  V30 22780 C 2254.42 -3.74867 4.33892 0
M  V30 22781 N 2253.92 -4.41817 5.33638 0
M  V30 22782 N 2255.71 -3.71714 4.21646 0
M  V30 22783 H 2247.86 -0.487417 2.06732 0
M  V30 22784 H 2250.13 -0.277928 0.906344 0
M  V30 22785 H 2249.83 -1.58195 3.14113 0
M  V30 22786 H 2249.71 -3.0606 2.2047 0
M  V30 22787 H 2252.09 -2.64784 1.30282 0
M  V30 22788 H 2252.18 -1.17111 2.27417 0
M  V30 22789 H 2251.82 -2.56561 4.38337 0
M  V30 22790 H 2251.75 -4.03697 3.38137 0
M  V30 22791 H 2254.24 -2.6213 2.72206 0
M  V30 22792 H 2254.55 -4.89255 5.98205 0
M  V30 22793 H 2252.9 -4.40538 5.37542 0
M  V30 22794 H 2256.09 -3.18576 3.42968 0
M  V30 22795 H 2256.26 -4.22164 4.91611 0
M  V30 22796 N 2249.67 -1.04192 -1.18244 0
M  V30 22797 C 2250.92 -0.744576 -1.87884 0
M  V30 22798 C 2251.24 0.729975 -1.80821 0
M  V30 22799 O 2250.51 1.52682 -1.22739 0
M  V30 22800 H 2249.09 -0.27243 -0.695551 0
M  V30 22801 H 2251.75 -1.31894 -1.43492 0
M  V30 22802 H 2250.85 -1.05054 -2.93888 0
M  V30 22803 N 2251.15 1.34492 -0.821557 0
M  V30 22804 C 2252.37 2.03084 -0.420909 0
M  V30 22805 C 2252.8 1.61467 0.964887 0
M  V30 22806 O 2252.15 0.798636 1.62762 0
M  V30 22807 C 2252.2 3.56692 -0.529477 0
M  V30 22808 O 2251.31 4.09924 0.45123 0
M  V30 22809 H 2250.65 0.640932 -0.173501 0
M  V30 22810 H 2253.18 1.71769 -1.1116 0
M  V30 22811 H 2253.19 4.05987 -0.404742 0
M  V30 22812 H 2251.86 3.8633 -1.54021 0
M  V30 22813 H 2250.44 3.71806 0.285493 0
M  V30 22814 N 2252.62 0.576397 1.46681 0
M  V30 22815 C 2253.56 -0.198191 2.28342 0
M  V30 22816 C 2254.57 -0.861429 1.38142 0
M  V30 22817 O 2255.76 -0.732053 1.62798 0
M  V30 22818 C 2252.86 -1.29967 3.12989 0
M  V30 22819 C 2252.03 -0.729563 4.31273 0
M  V30 22820 C 2251.09 -1.71795 4.97366 0
M  V30 22821 O 2250.12 -1.25648 5.55159 0
M  V30 22822 N 2251.32 -3.05189 4.93801 0
M  V30 22823 H 2254.08 0.502376 2.95459 0
M  V30 22824 H 2251.64 0.413743 1.56524 0
M  V30 22825 H 2253.64 -1.96002 3.5407 0
M  V30 22826 H 2252.21 -1.90319 2.47987 0
M  V30 22827 H 2251.43 0.108081 3.94052 0
M  V30 22828 H 2252.71 -0.328348 5.07739 0
M  V30 22829 H 2252.11 -3.45309 4.48083 0
M  V30 22830 H 2250.67 -3.6673 5.38843 0
M  V30 22831 N 2254.1 -1.54444 0.313841 0
M  V30 22832 C 2255.33 -2.04505 -0.293455 0
M  V30 22833 C 2255.74 -1.19008 -1.47084 0
M  V30 22834 O 2255.08 -0.21129 -1.82481 0
M  V30 22835 C 2255.15 -3.50477 -0.800394 0
M  V30 22836 C 2254.81 -4.56297 0.253403 0
M  V30 22837 C 2255.81 -5.08426 1.08621 0
M  V30 22838 C 2253.49 -5.00714 0.398796 0
M  V30 22839 C 2255.49 -6.03526 2.05023 0
M  V30 22840 C 2253.17 -5.95631 1.36625 0
M  V30 22841 C 2254.17 -6.46922 2.19044 0
M  V30 22842 O 2253.86 -7.39978 3.14147 0
M  V30 22843 H 2253.59 -0.672788 -0.0658207 0
M  V30 22844 H 2256.14 -2.00292 0.455212 0
M  V30 22845 H 2254.37 -3.52056 -1.59981 0
M  V30 22846 H 2256.06 -3.83666 -1.32497 0
M  V30 22847 H 2256.83 -4.74896 0.98482 0
M  V30 22848 H 2252.71 -4.60412 -0.232809 0
M  V30 22849 H 2256.25 -6.43485 2.69393 0
M  V30 22850 H 2252.15 -6.28578 1.46831 0
M  V30 22851 H 2252.92 -7.57821 3.09274 0
M  V30 22852 N 2255.58 -0.0418125 -1.57545 0
M  V30 22853 C 2256.54 0.920893 -2.09886 0
M  V30 22854 C 2257.54 1.24595 -1.0165 0
M  V30 22855 O 2258.73 1.18418 -1.27761 0
M  V30 22856 C 2255.87 2.23363 -2.57531 0
M  V30 22857 H 2257.06 0.467329 -2.96236 0
M  V30 22858 H 2254.61 0.20644 -1.54931 0
M  V30 22859 H 2255.35 2.7332 -1.74547 0
M  V30 22860 H 2255.13 2.01077 -3.36616 0
M  V30 22861 H 2256.62 2.9234 -2.98206 0
M  V30 22862 N 2257.06 1.55891 0.231477 0
M  V30 22863 C 2258.31 1.77642 0.955315 0
M  V30 22864 C 2258.62 0.608579 1.85892 0
M  V30 22865 O 2259.83 0.709476 2.62066 0
M  V30 22866 C 2258.28 3.14555 1.74881 0
M  V30 22867 C 2257.89 4.39033 0.891838 0
M  V30 22868 C 2259.63 3.45637 2.46445 0
M  V30 22869 C 2257.54 5.66974 1.68211 0
M  V30 22870 H 2256.47 0.662271 0.360434 0
M  V30 22871 H 2259.12 1.823 0.209484 0
M  V30 22872 H 2257.5 3.04045 2.53717 0
M  V30 22873 H 2258.68 4.60573 0.144712 0
M  V30 22874 H 2256.99 4.15397 0.28879 0
M  V30 22875 H 2259.59 4.38447 3.06053 0
M  V30 22876 H 2259.93 2.67674 3.18836 0
M  V30 22877 H 2260.47 3.57431 1.74607 0
M  V30 22878 H 2257.21 6.47802 1.00166 0
M  V30 22879 H 2256.73 5.49511 2.40411 0
M  V30 22880 H 2258.4 6.0679 2.24533 0
M  V30 22881 N 2258.54 -0.497781 1.49532 0
M  V30 22882 C 2259.5 -1.58125 1.65919 0
M  V30 22883 C 2260.5 -1.51785 0.530851 0
M  V30 22884 O 2261.69 -1.54879 0.79737 0
M  V30 22885 C 2258.82 -2.97777 1.65956 0
M  V30 22886 H 2260.01 -1.44924 2.62559 0
M  V30 22887 H 2257.57 -0.722251 1.38612 0
M  V30 22888 H 2258.3 -3.16452 0.70912 0
M  V30 22889 H 2258.09 -3.03788 2.47902 0
M  V30 22890 H 2259.58 -3.7649 1.80679 0
M  V30 22891 N 2260.01 -1.38661 -0.749062 0
M  V30 22892 C 2261.26 -1.3485 -1.50532 0
M  V30 22893 C 2261.58 0.0594673 -1.94909 0
M  V30 22894 O 2260.85 1.00803 -1.67975 0
M  V30 22895 H 2259.43 -0.4962 -0.558386 0
M  V30 22896 H 2262.1 -1.73386 -0.890134 0
M  V30 22897 H 2261.19 -2.00223 -2.3941 0
M  V30 22898 N 2261.49 0.977736 -1.23605 0
M  V30 22899 C 2262.72 1.75456 -1.09649 0
M  V30 22900 C 2263.14 1.85493 0.351826 0
M  V30 22901 O 2262.49 1.33602 1.24325 0
M  V30 22902 C 2262.54 3.18013 -1.71901 0
M  V30 22903 O 2262.27 3.08493 -3.11069 0
M  V30 22904 C 2263.77 4.12078 -1.63422 0
M  V30 22905 H 2260.99 0.550538 -0.383599 0
M  V30 22906 H 2263.53 1.22821 -1.63509 0
M  V30 22907 H 2261.69 3.67666 -1.22067 0
M  V30 22908 H 2262.1 3.98254 -3.41312 0
M  V30 22909 H 2263.57 5.098 -2.11678 0
M  V30 22910 H 2264.05 4.35171 -0.593538 0
M  V30 22911 H 2264.66 3.6833 -2.12634 0
M  V30 22912 N 2262.97 1.04818 1.1769 0
M  V30 22913 C 2264.22 0.757143 1.88136 0
M  V30 22914 C 2264.55 -0.713809 1.80606 0
M  V30 22915 O 2263.83 -1.52162 1.21149 0
M  V30 22916 C 2264.11 1.23346 3.38316 0
M  V30 22917 C 2263.96 2.76707 3.54617 0
M  V30 22918 C 2265.28 0.829491 4.32212 0
M  V30 22919 H 2262.4 0.276522 0.683158 0
M  V30 22920 H 2265.04 1.30151 1.38422 0
M  V30 22921 H 2263.19 0.770352 3.80786 0
M  V30 22922 H 2264.86 3.31113 3.21188 0
M  V30 22923 H 2263.11 3.16167 2.9702 0
M  V30 22924 H 2263.78 3.05096 4.60022 0
M  V30 22925 H 2266.25 1.22812 3.97563 0
M  V30 22926 H 2265.13 1.19043 5.35836 0
M  V30 22927 H 2265.39 -0.266814 4.41294 0
M  V30 22928 N 2264.45 -1.34055 0.828678 0
M  V30 22929 C 2265.87 -1.51057 0.515161 0
M  V30 22930 C 2266.07 -1.77186 -0.959549 0
M  V30 22931 O 2265.12 -1.82615 -1.74379 0
M  V30 22932 C 2266.43 -2.67181 1.37968 0
M  V30 22933 C 2267.98 -2.81064 1.3774 0
M  V30 22934 C 2268.46 -4.00237 2.22653 0
M  V30 22935 N 2269.95 -4.07454 2.20307 0
M  V30 22936 C 2270.68 -4.98837 2.82753 0
M  V30 22937 N 2270.18 -5.95404 3.54212 0
M  V30 22938 N 2271.97 -4.91754 2.72277 0
M  V30 22939 H 2264.12 -1.15355 1.78345 0
M  V30 22940 H 2266.39 -0.566239 0.760314 0
M  V30 22941 H 2266.09 -2.5452 2.42719 0
M  V30 22942 H 2265.97 -3.62336 1.04846 0
M  V30 22943 H 2268.35 -2.93162 0.337645 0
M  V30 22944 H 2268.43 -1.867 1.74862 0
M  V30 22945 H 2268.08 -3.88899 3.26681 0
M  V30 22946 H 2268.01 -4.93825 1.82877 0
M  V30 22947 H 2270.5 -3.38338 1.68333 0
M  V30 22948 H 2270.81 -6.61775 3.99091 0
M  V30 22949 H 2269.16 -5.95511 3.58318 0
M  V30 22950 H 2272.35 -4.15274 2.16021 0
M  V30 22951 H 2272.52 -5.62775 3.21229 0
M  V30 22952 N 2265.93 -0.584167 -1.46374 0
M  V30 22953 C 2267.18 -0.0701642 -2.01978 0
M  V30 22954 C 2267.5 1.29497 -1.45792 0
M  V30 22955 O 2266.77 1.85041 -0.643172 0
M  V30 22956 H 2265.35 -0.0229476 -0.746647 0
M  V30 22957 H 2268.01 -0.760277 -1.7946 0
M  V30 22958 H 2267.1 -0.00226126 -3.121 0
M  V30 22959 N 2267.41 1.54275 -0.322027 0
M  V30 22960 C 2268.34 2.27232 0.537371 0
M  V30 22961 C 2269.32 1.2797 1.12061 0
M  V30 22962 O 2270.5 1.56779 1.14603 0
M  V30 22963 C 2267.63 3.02897 1.69913 0
M  V30 22964 C 2266.59 4.09484 1.24526 0
M  V30 22965 C 2265.91 4.72981 2.49385 0
M  V30 22966 C 2267.21 5.21049 0.361243 0
M  V30 22967 H 2268.91 2.99315 -0.0711932 0
M  V30 22968 H 2266.45 1.43956 -0.0356808 0
M  V30 22969 H 2268.4 3.52666 2.30662 0
M  V30 22970 H 2267.13 2.28429 2.33427 0
M  V30 22971 H 2265.79 3.60597 0.660719 0
M  V30 22972 H 2265.44 3.95129 3.11258 0
M  V30 22973 H 2265.14 5.44979 2.19708 0
M  V30 22974 H 2266.66 5.25523 3.10899 0
M  V30 22975 H 2268.07 5.66584 0.874972 0
M  V30 22976 H 2266.47 5.99894 0.157323 0
M  V30 22977 H 2267.54 4.81069 -0.608304 0
M  V30 22978 N 2268.88 0.0501669 1.5752 0
M  V30 22979 C 2269.79 -0.939789 2.14954 0
M  V30 22980 C 2270.81 -1.34237 1.10708 0
M  V30 22981 O 2271.99 -1.4195 1.42871 0
M  V30 22982 C 2269.05 -2.1966 2.68236 0
M  V30 22983 C 2268.11 -1.85246 3.87276 0
M  V30 22984 C 2267.34 -3.04935 4.38007 0
M  V30 22985 O 2267.57 -4.18274 3.87818 0
M  V30 22986 O 2266.5 -2.86008 5.29607 0
M  V30 22987 H 2270.33 -0.481339 2.99861 0
M  V30 22988 H 2267.91 -0.171673 1.4841 0
M  V30 22989 H 2269.79 -2.93401 3.0248 0
M  V30 22990 H 2268.47 -2.64645 1.864 0
M  V30 22991 H 2267.38 -1.08824 3.57922 0
M  V30 22992 H 2268.71 -1.45061 4.70338 0
M  V30 22993 N 2270.36 -1.56011 -0.223207 0
M  V30 22994 C 2271.32 -1.91452 -1.26011 0
M  V30 22995 C 2272.32 -0.792961 -1.39888 0
M  V30 22996 O 2273.51 -1.06073 -1.38182 0
M  V30 22997 C 2270.65 -2.16388 -2.63418 0
M  V30 22998 H 2271.84 -2.8419 -0.95791 0
M  V30 22999 H 2269.39 -1.49268 -0.46355 0
M  V30 23000 H 2270.13 -1.26196 -2.98739 0
M  V30 23001 H 2269.91 -2.98092 -2.54723 0
M  V30 23002 H 2271.4 -2.44909 -3.38245 0
M  V30 23003 N 2271.84 0.489844 -1.49794 0
M  V30 23004 C 2272.77 1.59853 -1.70203 0
M  V30 23005 C 2273.75 1.60936 -0.550789 0
M  V30 23006 O 2274.94 1.775 -0.787872 0
M  V30 23007 C 2272.07 2.98284 -1.77888 0
M  V30 23008 C 2271.02 3.12068 -2.92912 0
M  V30 23009 C 2270.35 4.5196 -2.8572 0
M  V30 23010 C 2271.65 2.91043 -4.33695 0
M  V30 23011 H 2273.34 1.43027 -2.63028 0
M  V30 23012 H 2270.89 0.686642 -1.26575 0
M  V30 23013 H 2272.84 3.75755 -1.90751 0
M  V30 23014 H 2271.56 3.16224 -0.816708 0
M  V30 23015 H 2270.22 2.37024 -2.79669 0
M  V30 23016 H 2269.87 4.66792 -1.87388 0
M  V30 23017 H 2269.57 4.62122 -3.62929 0
M  V30 23018 H 2271.09 5.31477 -3.00607 0
M  V30 23019 H 2272.51 3.58276 -4.47561 0
M  V30 23020 H 2270.9 3.12666 -5.12211 0
M  V30 23021 H 2271.97 1.87063 -4.47365 0
M  V30 23022 N 2273.32 1.39056 0.741698 0
M  V30 23023 C 2274.23 1.395 1.88619 0
M  V30 23024 C 2275.24 0.290608 1.71556 0
M  V30 23025 O 2276.42 0.530988 1.94274 0
M  V30 23026 C 2273.48 1.23042 3.24132 0
M  V30 23027 C 2272.55 2.43393 3.53636 0
M  V30 23028 C 2271.78 2.27711 4.82683 0
M  V30 23029 O 2272 1.27706 5.5592 0
M  V30 23030 O 2270.94 3.16554 5.11935 0
M  V30 23031 H 2274.76 2.35959 1.91199 0
M  V30 23032 H 2272.35 1.20101 0.888604 0
M  V30 23033 H 2274.23 1.15971 4.05128 0
M  V30 23034 H 2272.9 0.296747 3.22337 0
M  V30 23035 H 2271.81 2.5604 2.72753 0
M  V30 23036 H 2273.14 3.35431 3.60204 0
M  V30 23037 N 2274.8 -0.971167 1.24121 0
M  V30 23038 C 2275.76 -2.04673 1.03159 0
M  V30 23039 C 2276.76 -1.60797 -0.00987496 0
M  V30 23040 O 2277.95 -1.72665 0.23076 0
M  V30 23041 C 2275.08 -3.36222 0.562824 0
M  V30 23042 H 2276.27 -2.24702 1.98618 0
M  V30 23043 H 2273.83 -1.14591 1.06295 0
M  V30 23044 H 2274.56 -3.21884 -0.39512 0
M  V30 23045 H 2274.35 -3.6941 1.31447 0
M  V30 23046 H 2275.84 -4.15306 0.437088 0
M  V30 23047 N 2276.27 -1.05441 -1.17133 0
M  V30 23048 C 2277.18 -0.668405 -2.24877 0
M  V30 23049 C 2278.2 0.311657 -1.71186 0
M  V30 23050 O 2279.38 0.163126 -2.00738 0
M  V30 23051 C 2276.44 -0.0517089 -3.46661 0
M  V30 23052 C 2275.5 -1.08254 -4.15427 0
M  V30 23053 C 2274.74 -0.495175 -5.31398 0
M  V30 23054 O 2274.96 0.694643 -5.66154 0
M  V30 23055 O 2273.89 -1.23066 -5.89184 0
M  V30 23056 H 2277.72 -1.56642 -2.60187 0
M  V30 23057 H 2275.3 -0.826125 -1.24481 0
M  V30 23058 H 2277.19 0.290892 -4.20395 0
M  V30 23059 H 2275.86 0.819916 -3.13144 0
M  V30 23060 H 2274.77 -1.47717 -3.43701 0
M  V30 23061 H 2276.1 -1.9254 -4.52978 0
M  V30 23062 N 2277.75 1.33613 -0.835776 0
M  V30 23063 C 2279 1.98175 -0.430631 0
M  V30 23064 C 2279.33 1.66063 1.00682 0
M  V30 23065 O 2278.61 0.938907 1.70337 0
M  V30 23066 C 2278.89 3.54219 -0.648127 0
M  V30 23067 C 2278.74 3.96029 -2.13262 0
M  V30 23068 C 2280.06 4.40003 -0.0922887 0
M  V30 23069 H 2277.18 0.719879 -0.157936 0
M  V30 23070 H 2279.82 1.58303 -1.05072 0
M  V30 23071 H 2277.97 3.88314 -0.120305 0
M  V30 23072 H 2279.64 3.72207 -2.72507 0
M  V30 23073 H 2277.89 3.45873 -2.61829 0
M  V30 23074 H 2278.56 5.04704 -2.23556 0
M  V30 23075 H 2281.03 4.12536 -0.543416 0
M  V30 23076 H 2279.91 5.48215 -0.274179 0
M  V30 23077 H 2280.17 4.30556 1.00371 0
M  V30 23078 N 2279.23 0.591922 1.46062 0
M  V30 23079 C 2280.14 -0.138269 2.34192 0
M  V30 23080 C 2281.16 -0.876582 1.50306 0
M  V30 23081 O 2282.33 -0.837696 1.83152 0
M  V30 23082 C 2279.4 -1.1332 3.27658 0
M  V30 23083 C 2278.46 -0.398555 4.27446 0
M  V30 23084 C 2277.69 -1.34609 5.16446 0
M  V30 23085 O 2277.91 -2.58312 5.08558 0
M  V30 23086 O 2276.85 -0.851663 5.95844 0
M  V30 23087 H 2280.67 0.585572 2.98001 0
M  V30 23088 H 2278.26 0.352265 1.45188 0
M  V30 23089 H 2280.14 -1.70664 3.85294 0
M  V30 23090 H 2278.82 -1.83835 2.66433 0
M  V30 23091 H 2277.72 0.21696 3.7347 0
M  V30 23092 H 2279.06 0.265795 4.91482 0
M  V30 23093 N 2280.71 -1.54102 0.330204 0
M  V30 23094 C 2282.12 -1.59585 -0.022209 0
M  V30 23095 C 2282.32 -1.34656 -1.499 0
M  V30 23096 O 2281.38 -1.13425 -2.2559 0
M  V30 23097 C 2282.69 -2.98001 0.401984 0
M  V30 23098 C 2284.24 -3.11001 0.353199 0
M  V30 23099 C 2284.72 -4.51773 0.752656 0
M  V30 23100 N 2286.21 -4.57783 0.706319 0
M  V30 23101 C 2286.94 -5.64832 0.987516 0
M  V30 23102 N 2286.44 -6.79792 1.33619 0
M  V30 23103 N 2288.23 -5.54642 0.912638 0
M  V30 23104 H 2280.38 -1.68562 1.29231 0
M  V30 23105 H 2282.65 -0.788741 0.52592 0
M  V30 23106 H 2282.35 -3.21265 1.43115 0
M  V30 23107 H 2282.23 -3.765 -0.229633 0
M  V30 23108 H 2284.61 -2.87469 -0.666772 0
M  V30 23109 H 2284.69 -2.34591 1.01984 0
M  V30 23110 H 2284.34 -4.76039 1.77057 0
M  V30 23111 H 2284.27 -5.26562 0.0636335 0
M  V30 23112 H 2286.76 -3.75224 0.448956 0
M  V30 23113 H 2287.07 -7.57383 1.53595 0
M  V30 23114 H 2285.42 -6.81272 1.37451 0
M  V30 23115 H 2288.61 -4.63709 0.639683 0
M  V30 23116 H 2288.78 -6.3798 1.13514 0
M  V30 23117 N 2282.19 -0.0585199 -1.57491 0
M  V30 23118 C 2283.6 0.298063 -1.56792 0
M  V30 23119 C 2283.8 1.70942 -1.06682 0
M  V30 23120 O 2282.86 2.41816 -0.726714 0
M  V30 23121 C 2284.17 0.119826 -3.00461 0
M  V30 23122 C 2285.72 0.190373 -3.12421 0
M  V30 23123 C 2286.19 0.0405762 -4.57982 0
M  V30 23124 N 2287.69 0.0966144 -4.63099 0
M  V30 23125 C 2288.42 0.00492864 -5.734 0
M  V30 23126 N 2287.92 -0.139524 -6.92659 0
M  V30 23127 N 2289.71 0.0610403 -5.62067 0
M  V30 23128 H 2281.86 -0.981084 -1.88384 0
M  V30 23129 H 2284.12 -0.381478 -0.867858 0
M  V30 23130 H 2283.83 -0.85355 -3.41185 0
M  V30 23131 H 2283.7 0.877769 -3.66845 0
M  V30 23132 H 2286.09 1.15423 -2.71591 0
M  V30 23133 H 2286.17 -0.598449 -2.48701 0
M  V30 23134 H 2285.82 -0.919985 -4.99498 0
M  V30 23135 H 2285.75 0.848636 -5.19717 0
M  V30 23136 H 2288.24 0.20721 -3.77331 0
M  V30 23137 H 2288.55 -0.20199 -7.72536 0
M  V30 23138 H 2286.89 -0.174708 -6.9478 0
M  V30 23139 H 2290.09 0.1725 -4.67782 0
M  V30 23140 H 2290.26 -0.0138701 -6.47999 0
M  V30 23141 N 2283.66 1.56128 0.21493 0
M  V30 23142 C 2285.08 1.49268 0.564922 0
M  V30 23143 C 2285.28 0.754871 1.86826 0
M  V30 23144 O 2284.34 0.297242 2.50744 0
M  V30 23145 C 2285.65 2.93853 0.638019 0
M  V30 23146 C 2287.2 3.04411 0.7282 0
M  V30 23147 C 2287.67 4.50369 0.832584 0
M  V30 23148 N 2289.16 4.54439 0.896632 0
M  V30 23149 C 2289.9 5.64662 0.997225 0
M  V30 23150 N 2289.39 6.84622 1.06135 0
M  V30 23151 N 2291.19 5.52529 1.03288 0
M  V30 23152 H 2283.34 2.02521 -0.640247 0
M  V30 23153 H 2285.6 0.920784 -0.225523 0
M  V30 23154 H 2285.31 3.50809 -0.250188 0
M  V30 23155 H 2285.18 3.46118 1.49941 0
M  V30 23156 H 2287.57 2.47517 1.60685 0
M  V30 23157 H 2287.65 2.55305 -0.158997 0
M  V30 23158 H 2287.29 5.07883 -0.041631 0
M  V30 23159 H 2287.22 4.97187 1.73529 0
M  V30 23160 H 2289.71 3.68051 0.857123 0
M  V30 23161 H 2290.03 7.64374 1.13807 0
M  V30 23162 H 2288.37 6.8732 1.03037 0
M  V30 23163 H 2291.56 4.57738 0.979478 0
M  V30 23164 H 2291.74 6.3846 1.10782 0
M  V30 23165 N 2285.14 -0.481893 1.50052 0
M  V30 23166 C 2286.05 -1.60725 1.70893 0
M  V30 23167 C 2287.07 -1.63626 0.591817 0
M  V30 23168 O 2288.24 -1.81695 0.868849 0
M  V30 23169 C 2285.31 -2.97002 1.7886 0
M  V30 23170 C 2284.37 -3.04576 3.02543 0
M  V30 23171 C 2283.6 -4.34352 3.1012 0
M  V30 23172 O 2283.83 -5.24245 2.24774 0
M  V30 23173 O 2282.76 -4.47294 4.02755 0
M  V30 23174 H 2286.59 -1.46067 2.66267 0
M  V30 23175 H 2284.17 -0.660241 1.34019 0
M  V30 23176 H 2286.05 -3.77961 1.86343 0
M  V30 23177 H 2284.73 -3.11882 0.866683 0
M  V30 23178 H 2283.64 -2.22734 3.00567 0
M  V30 23179 H 2284.97 -2.94629 3.94277 0
M  V30 23180 N 2286.62 -1.39448 -0.734313 0
M  V30 23181 C 2287.55 -1.40959 -1.86153 0
M  V30 23182 C 2288.53 -0.272857 -1.67897 0
M  V30 23183 O 2289.72 -0.478776 -1.88206 0
M  V30 23184 C 2286.85 -1.25299 -3.23909 0
M  V30 23185 C 2285.8 -2.36379 -3.56804 0
M  V30 23186 C 2285.13 -2.05809 -4.93504 0
M  V30 23187 C 2286.43 -3.78693 -3.59707 0
M  V30 23188 H 2288.12 -2.3529 -1.85146 0
M  V30 23189 H 2285.67 -1.13255 -0.889347 0
M  V30 23190 H 2287.62 -1.24977 -4.02441 0
M  V30 23191 H 2286.34 -0.274366 -3.25446 0
M  V30 23192 H 2285 -2.35919 -2.80602 0
M  V30 23193 H 2284.65 -1.06383 -4.91622 0
M  V30 23194 H 2284.35 -2.80217 -5.16481 0
M  V30 23195 H 2285.87 -2.07138 -5.74392 0
M  V30 23196 H 2287.29 -3.81078 -4.28313 0
M  V30 23197 H 2285.69 -4.52466 -3.94201 0
M  V30 23198 H 2286.76 -4.09621 -2.59496 0
M  V30 23199 N 2288.1 0.964571 -1.24635 0
M  V30 23200 C 2289.33 1.74283 -1.11504 0
M  V30 23201 C 2289.74 1.85856 0.332133 0
M  V30 23202 O 2289.1 1.34913 1.22901 0
M  V30 23203 C 2289.15 3.16172 -1.75264 0
M  V30 23204 O 2288.87 3.05176 -3.14323 0
M  V30 23205 C 2290.37 4.10321 -1.67784 0
M  V30 23206 H 2287.59 0.546439 -0.389417 0
M  V30 23207 H 2290.14 1.2108 -1.64803 0
M  V30 23208 H 2288.29 3.66351 -1.2596 0
M  V30 23209 H 2288.7 3.94612 -3.45517 0
M  V30 23210 H 2290.18 5.07527 -2.17073 0
M  V30 23211 H 2290.66 4.34517 -0.639661 0
M  V30 23212 H 2291.26 3.66054 -2.16529 0
M  V30 23213 N 2289.58 1.0606 1.16572 0
M  V30 23214 C 2290.82 0.774373 1.86676 0
M  V30 23215 C 2291.15 -0.701115 1.8196 0
M  V30 23216 O 2290.42 -1.5071 1.25153 0
M  V30 23217 H 2289 0.283461 0.691129 0
M  V30 23218 H 2291.66 1.3416 1.41375 0
M  V30 23219 H 2290.75 1.09716 2.92179 0
M  V30 23220 N 2291.06 -1.33168 0.84285 0
M  V30 23221 C 2292.3 -1.97261 0.439612 0
M  V30 23222 C 2292.62 -1.6708 -1.00545 0
M  V30 23223 O 2291.89 -0.971809 -1.70096 0
M  V30 23224 H 2290.47 -0.729758 0.159571 0
M  V30 23225 H 2293.14 -1.62461 1.07668 0
M  V30 23226 H 2292.23 -3.06759 0.57494 0
M  V30 23227 N 2292.53 -0.599659 -1.45746 0
M  V30 23228 C 2293.95 -0.262668 -1.57424 0
M  V30 23229 C 2294.15 1.2349 -1.59224 0
M  V30 23230 O 2293.21 2.01753 -1.51828 0
M  V30 23231 C 2294.52 -0.926845 -2.8606 0
M  V30 23232 C 2296.07 -0.90202 -2.99721 0
M  V30 23233 C 2296.54 -1.54606 -4.31116 0
M  V30 23234 N 2298.03 -1.51118 -4.37856 0
M  V30 23235 C 2298.77 -1.97873 -5.38177 0
M  V30 23236 N 2298.26 -2.52677 -6.45078 0
M  V30 23237 N 2300.06 -1.88688 -5.29484 0
M  V30 23238 H 2292.21 -1.57213 -1.42821 0
M  V30 23239 H 2294.47 -0.658117 -0.682338 0
M  V30 23240 H 2294.18 -1.981 -2.90602 0
M  V30 23241 H 2294.05 -0.445304 -3.74562 0
M  V30 23242 H 2296.44 0.143565 -2.94751 0
M  V30 23243 H 2296.52 -1.42175 -2.1265 0
M  V30 23244 H 2296.16 -2.59093 -4.36845 0
M  V30 23245 H 2296.09 -1.00141 -5.16991 0
M  V30 23246 H 2298.58 -1.11074 -3.61208 0
M  V30 23247 H 2298.9 -2.86167 -7.17864 0
M  V30 23248 H 2297.24 -2.56712 -6.45851 0
M  V30 23249 H 2300.43 -1.45617 -4.44874 0
M  V30 23250 H 2300.61 -2.2544 -6.0752 0
M  V30 23251 N 2294.01 1.53925 -0.338371 0
M  V30 23252 C 2295.43 1.59594 0.0137455 0
M  V30 23253 C 2295.63 1.35449 1.49183 0
M  V30 23254 O 2294.68 1.1462 2.24985 0
M  V30 23255 C 2296 2.97784 -0.417782 0
M  V30 23256 C 2297.54 3.10809 -0.369688 0
M  V30 23257 C 2298.02 4.51368 -0.776604 0
M  V30 23258 N 2299.51 4.57402 -0.730587 0
M  V30 23259 C 2300.25 5.64301 -1.01746 0
M  V30 23260 N 2299.74 6.79074 -1.37222 0
M  V30 23261 N 2301.53 5.5415 -0.942039 0
M  V30 23262 H 2293.69 1.67874 -1.30123 0
M  V30 23263 H 2295.95 0.785941 -0.530096 0
M  V30 23264 H 2295.65 3.20501 -1.44817 0
M  V30 23265 H 2295.53 3.76617 0.209663 0
M  V30 23266 H 2297.92 2.87818 0.651517 0
M  V30 23267 H 2298 2.34047 -1.03227 0
M  V30 23268 H 2297.64 4.75093 -1.79579 0
M  V30 23269 H 2297.57 5.2652 -0.0915574 0
M  V30 23270 H 2300.06 3.7498 -0.468849 0
M  V30 23271 H 2300.37 7.56557 -1.5761 0
M  V30 23272 H 2298.72 6.80534 -1.41062 0
M  V30 23273 H 2301.91 4.63363 -0.664266 0
M  V30 23274 H 2302.08 6.37369 -1.16896 0
M  V30 23275 N 2295.49 0.0668712 1.57458 0
M  V30 23276 C 2296.71 -0.615992 1.98041 0
M  V30 23277 C 2297.14 -1.6265 0.944799 0
M  V30 23278 O 2296.5 -1.81076 -0.0901776 0
M  V30 23279 C 2296.55 -1.26543 3.37667 0
M  V30 23280 O 2295.65 -2.38125 3.36705 0
M  V30 23281 H 2294.99 -0.158838 0.644722 0
M  V30 23282 H 2297.52 0.139927 2.04121 0
M  V30 23283 H 2297.53 -1.61343 3.74743 0
M  V30 23284 H 2296.21 -0.524944 4.12574 0
M  V30 23285 H 2294.78 -2.05155 3.11394 0
M  V30 23286 N 2296.97 -1.56239 -0.206647 0
M  V30 23287 C 2298.21 -1.79943 -0.92881 0
M  V30 23288 C 2298.54 -0.638163 -1.83733 0
M  V30 23289 O 2297.8 0.376712 -1.9204 0
M  V30 23290 C 2298.1 -3.09535 -1.78669 0
M  V30 23291 C 2297.76 -4.38975 -1.03015 0
M  V30 23292 C 2296.42 -4.74141 -0.821218 0
M  V30 23293 C 2298.78 -5.18825 -0.49699 0
M  V30 23294 C 2296.1 -5.86661 -0.0674687 0
M  V30 23295 C 2298.46 -6.32131 0.243491 0
M  V30 23296 C 2297.12 -6.65889 0.463539 0
M  V30 23297 H 2296.39 -0.658457 -0.339876 0
M  V30 23298 H 2299.04 -1.90495 -0.195944 0
M  V30 23299 H 2297.34 -2.9417 -2.58788 0
M  V30 23300 H 2299.04 -3.25079 -2.34787 0
M  V30 23301 H 2295.63 -4.11371 -1.20298 0
M  V30 23302 H 2299.81 -4.9208 -0.645834 0
M  V30 23303 H 2295.07 -6.11295 0.113103 0
M  V30 23304 H 2299.24 -6.93227 0.664052 0
M  V30 23305 H 2296.87 -7.5292 1.04951 0
M  V30 23306 N 2298.45 0.473929 -1.50305 0
M  V30 23307 C 2299.69 1.22298 -1.60394 0
M  V30 23308 C 2300.01 1.93153 -0.308445 0
M  V30 23309 O 2301.21 2.69966 -0.288204 0
M  V30 23310 C 2299.67 2.22205 -2.83113 0
M  V30 23311 C 2299.28 1.57166 -4.19527 0
M  V30 23312 C 2301.02 2.9777 -3.02545 0
M  V30 23313 C 2298.93 2.55343 -5.33436 0
M  V30 23314 H 2297.86 0.460169 -0.597294 0
M  V30 23315 H 2300.51 0.493772 -1.76732 0
M  V30 23316 H 2298.89 2.98405 -2.60327 0
M  V30 23317 H 2300.07 0.867744 -4.52556 0
M  V30 23318 H 2298.38 0.938931 -4.05676 0
M  V30 23319 H 2300.98 3.71241 -3.84817 0
M  V30 23320 H 2301.32 3.56989 -2.14161 0
M  V30 23321 H 2301.85 2.28683 -3.25498 0
M  V30 23322 H 2298.59 2.00867 -6.23965 0
M  V30 23323 H 2298.11 3.23895 -5.04829 0
M  V30 23324 H 2299.79 3.1723 -5.63892 0
M  V30 23325 N 2299.92 1.39835 0.726907 0
M  V30 23326 C 2300.85 1.41944 1.85403 0
M  V30 23327 C 2301.83 0.281757 1.6775 0
M  V30 23328 O 2303.02 0.48875 1.87949 0
M  V30 23329 C 2300.15 1.27015 3.2324 0
M  V30 23330 C 2299.1 2.38268 3.55545 0
M  V30 23331 C 2298.43 2.08423 4.92406 0
M  V30 23332 C 2299.73 3.80595 3.57693 0
M  V30 23333 H 2301.42 2.36269 1.83895 0
M  V30 23334 H 2298.97 1.13725 0.883329 0
M  V30 23335 H 2300.92 1.2711 4.01772 0
M  V30 23336 H 2299.65 0.291621 3.25295 0
M  V30 23337 H 2298.31 2.37404 2.79347 0
M  V30 23338 H 2297.95 1.08988 4.9105 0
M  V30 23339 H 2297.65 2.82952 5.14987 0
M  V30 23340 H 2299.18 2.10181 5.73285 0
M  V30 23341 H 2300.59 3.83344 4.26286 0
M  V30 23342 H 2298.99 4.5455 3.91796 0
M  V30 23343 H 2300.06 4.10992 2.5732 0
M  V30 23344 N 2301.4 -0.957948 1.25144 0
M  V30 23345 C 2302.65 -1.70467 1.09858 0
M  V30 23346 C 2302.98 -1.90831 -0.360153 0
M  V30 23347 O 2302.26 -1.47687 -1.26565 0
M  V30 23348 C 2302.54 -3.0896 1.84975 0
M  V30 23349 C 2302.39 -2.96026 3.38657 0
M  V30 23350 C 2303.71 -4.08793 1.63024 0
M  V30 23351 H 2300.83 -0.618699 0.400476 0
M  V30 23352 H 2303.47 -1.11373 1.53935 0
M  V30 23353 H 2301.62 -3.59406 1.47511 0
M  V30 23354 H 2303.29 -2.52931 3.85777 0
M  V30 23355 H 2301.54 -2.32018 3.66538 0
M  V30 23356 H 2302.21 -3.94181 3.86427 0
M  V30 23357 H 2304.68 -3.67243 1.95631 0
M  V30 23358 H 2303.56 -5.03743 2.18024 0
M  V30 23359 H 2303.82 -4.384 0.570769 0
M  V30 23360 N 2302.88 -1.06677 -1.16008 0
M  V30 23361 C 2304.29 -0.809595 -1.68233 0
M  V30 23362 C 2304.64 0.666271 -1.84541 0
M  V30 23363 O 2303.77 1.51647 -1.54377 0
M  V30 23364 C 2304.36 -1.46304 -3.05582 0
M  V30 23365 C 2302.92 -1.25355 -3.54913 0
M  V30 23366 C 2302.07 -1.53707 -2.30801 0
M  V30 23367 H 2305.02 -1.22973 -1.00316 0
M  V30 23368 H 2305.04 -0.880496 -3.70172 0
M  V30 23369 H 2304.55 -2.53718 -2.93681 0
M  V30 23370 H 2302.65 -0.199327 -3.72066 0
M  V30 23371 H 2302.77 -1.96897 -4.3677 0
M  V30 23372 H 2301.13 -0.95778 -2.36006 0
M  V30 23373 H 2301.91 -2.62288 -2.21494 0
M  V30 23374 N 2304.36 1.32719 -0.8499 0
M  V30 23375 C 2305.61 1.97025 -0.450067 0
M  V30 23376 C 2305.93 1.67611 0.996574 0
M  V30 23377 O 2305.2 0.980815 1.69578 0
M  V30 23378 H 2303.78 0.728901 -0.163439 0
M  V30 23379 H 2306.44 1.61888 -1.08528 0
M  V30 23380 H 2305.53 3.06449 -0.5912 0
M  V30 23381 N 2305.84 0.60738 1.45426 0
M  V30 23382 C 2307.09 0.100071 2.01452 0
M  V30 23383 C 2307.4 -1.27701 1.48161 0
M  V30 23384 O 2308.6 -1.87703 1.96162 0
M  V30 23385 C 2307.06 0.128221 3.59672 0
M  V30 23386 C 2306.67 1.50514 4.21959 0
M  V30 23387 C 2308.41 -0.323857 4.23263 0
M  V30 23388 C 2306.32 1.48969 5.72331 0
M  V30 23389 H 2305.25 0.0336431 0.753249 0
M  V30 23390 H 2307.9 0.762679 1.669 0
M  V30 23391 H 2306.28 -0.601036 3.91412 0
M  V30 23392 H 2307.46 2.25609 4.01792 0
M  V30 23393 H 2305.77 1.8993 3.70561 0
M  V30 23394 H 2308.37 -0.354597 5.33523 0
M  V30 23395 H 2308.71 -1.34649 3.93923 0
M  V30 23396 H 2309.24 0.352126 3.96238 0
M  V30 23397 H 2305.98 2.48992 6.06369 0
M  V30 23398 H 2305.5 0.781318 5.94689 0
M  V30 23399 H 2307.18 1.21324 6.35523 0
M  V30 23400 N 2307.31 -1.53743 0.34653 0
M  V30 23401 C 2308.59 -1.93215 -0.304498 0
M  V30 23402 C 2308.97 -1.27837 -1.67991 0
M  V30 23403 O 2308.32 -0.430391 -2.2441 0
M  V30 23404 C 2308.53 -3.46993 -0.373791 0
M  V30 23405 C 2309.88 -4.20001 -0.623216 0
M  V30 23406 O 2310.9 -3.53272 -0.455785 0
M  V30 23407 O 2309.76 -5.38219 -0.947784 0
M  V30 23408 H 2306.85 -0.80755 -0.178304 0
M  V30 23409 H 2309.4 -1.64969 0.397924 0
M  V30 23410 H 2308.17 -3.86807 0.591292 0
M  V30 23411 H 2307.8 -3.81415 -1.12288 0
M  V30 23412 N 2308.79 -0.0752207 -1.5742 0
M  V30 23413 C 2310.04 0.593991 -1.93906 0
M  V30 23414 C 2310.37 1.69055 -0.955731 0
M  V30 23415 O 2309.65 1.94495 0.0145031 0
M  V30 23416 C 2309.93 1.16774 -3.4064 0
M  V30 23417 C 2309.78 0.0776002 -4.49733 0
M  V30 23418 C 2311.1 2.07221 -3.88262 0
M  V30 23419 H 2308.22 0.214454 -0.705109 0
M  V30 23420 H 2310.86 -0.141887 -1.89469 0
M  V30 23421 H 2309.01 1.79488 -3.44552 0
M  V30 23422 H 2310.68 -0.555653 -4.57941 0
M  V30 23423 H 2308.93 -0.591361 -4.2975 0
M  V30 23424 H 2309.6 0.519507 -5.4955 0
M  V30 23425 H 2312.07 1.54438 -3.86378 0
M  V30 23426 H 2310.95 2.44299 -4.91537 0
M  V30 23427 H 2311.21 2.98185 -3.26402 0
M  V30 23428 N 2310.27 1.56347 0.198358 0
M  V30 23429 C 2311.68 1.70382 0.763328 0
M  V30 23430 C 2312.03 0.681236 1.83994 0
M  V30 23431 O 2311.16 -0.163012 2.15785 0
M  V30 23432 C 2311.75 3.08911 1.39137 0
M  V30 23433 C 2310.31 3.24723 1.90347 0
M  V30 23434 C 2309.46 2.66332 0.772187 0
M  V30 23435 H 2312.41 1.58678 -0.0266656 0
M  V30 23436 H 2312.43 3.06059 2.2607 0
M  V30 23437 H 2311.94 3.83315 0.607571 0
M  V30 23438 H 2310.04 2.5523 2.71456 0
M  V30 23439 H 2310.16 4.32194 2.0675 0
M  V30 23440 H 2308.52 2.25422 1.18562 0
M  V30 23441 H 2309.3 3.433 0.000675217 0
M  V30 23442 N 2311.75 -0.465951 1.50554 0
M  V30 23443 C 2313 -1.21765 1.61801 0
M  V30 23444 C 2313.32 -1.91837 0.320729 0
M  V30 23445 O 2312.58 -1.82993 -0.693692 0
M  V30 23446 C 2312.88 -2.28088 2.75156 0
M  V30 23447 C 2312.54 -1.75232 4.15457 0
M  V30 23448 C 2311.21 -1.60538 4.53631 0
M  V30 23449 C 2313.56 -1.36075 5.03123 0
M  V30 23450 C 2310.89 -1.05118 5.77206 0
M  V30 23451 C 2313.24 -0.820946 6.27251 0
M  V30 23452 C 2311.9 -0.660678 6.64222 0
M  V30 23453 H 2311.17 -0.445571 0.59207 0
M  V30 23454 H 2313.82 -0.512895 1.84504 0
M  V30 23455 H 2312.12 -3.04491 2.46561 0
M  V30 23456 H 2313.82 -2.86018 2.8106 0
M  V30 23457 H 2310.41 -1.87637 3.85344 0
M  V30 23458 H 2314.59 -1.46259 4.74259 0
M  V30 23459 H 2309.85 -0.914513 6.04522 0
M  V30 23460 H 2314.02 -0.508895 6.94538 0
M  V30 23461 H 2311.65 -0.229092 7.59855 0
M  V30 23462 N 2313.23 -1.40218 -0.719481 0
M  V30 23463 C 2314.18 -1.36656 -1.82508 0
M  V30 23464 C 2315.16 -0.24476 -1.59027 0
M  V30 23465 O 2316.35 -0.483554 -1.70267 0
M  V30 23466 C 2313.48 -1.22769 -3.20597 0
M  V30 23467 C 2312.57 -2.39714 -3.49854 0
M  V30 23468 N 2312.96 -3.65196 -3.49951 0
M  V30 23469 C 2311.26 -2.33009 -3.80293 0
M  V30 23470 C 2311.96 -4.42621 -3.77441 0
M  V30 23471 N 2310.93 -3.72409 -3.95996 0
M  V30 23472 H 2314.74 -2.31622 -1.8091 0
M  V30 23473 H 2312.25 -1.33935 -0.918432 0
M  V30 23474 H 2314.25 -1.18299 -3.99764 0
M  V30 23475 H 2312.91 -0.287671 -3.23423 0
M  V30 23476 H 2313.92 -3.9841 -3.30893 0
M  V30 23477 H 2310.59 -1.47353 -3.90632 0
M  V30 23478 H 2311.98 -5.51458 -3.83854 0
M  V30 23479 N 2314.7 0.951297 -1.25651 0
M  V30 23480 C 2315.93 1.73622 -1.13446 0
M  V30 23481 C 2316.35 1.85569 0.307532 0
M  V30 23482 O 2315.71 1.33856 1.22279 0
M  V30 23483 C 2315.76 3.12618 -1.79728 0
M  V30 23484 O 2314.86 3.98029 -1.07919 0
M  V30 23485 H 2314.21 0.533079 -0.395882 0
M  V30 23486 H 2316.74 1.19217 -1.66278 0
M  V30 23487 H 2316.75 3.63061 -1.86147 0
M  V30 23488 H 2315.42 3.03239 -2.84638 0
M  V30 23489 H 2314 3.5649 -1.09404 0
M  V30 23490 N 2316.18 1.07291 1.1544 0
M  V30 23491 C 2317.6 0.798313 1.382 0
M  V30 23492 C 2317.8 -0.597735 1.9243 0
M  V30 23493 O 2316.85 -1.35656 2.12964 0
M  V30 23494 C 2318.17 1.8716 2.35354 0
M  V30 23495 C 2319.72 1.89629 2.49018 0
M  V30 23496 C 2320.19 2.9604 3.49463 0
M  V30 23497 N 2321.68 2.95139 3.56998 0
M  V30 23498 C 2322.42 3.7412 4.34536 0
M  V30 23499 N 2321.91 4.62949 5.15413 0
M  V30 23500 N 2323.71 3.62469 4.29619 0
M  V30 23501 H 2315.86 1.97329 0.785806 0
M  V30 23502 H 2318.12 0.855687 0.40805 0
M  V30 23503 H 2317.83 2.87468 2.02621 0
M  V30 23504 H 2317.7 1.7312 3.35126 0
M  V30 23505 H 2320.09 0.899736 2.81049 0
M  V30 23506 H 2320.17 2.07748 1.49247 0
M  V30 23507 H 2319.81 3.95895 3.18166 0
M  V30 23508 H 2319.74 2.75169 4.48988 0
M  V30 23509 H 2322.23 2.30748 2.99272 0
M  V30 23510 H 2322.55 5.19847 5.71821 0
M  V30 23511 H 2320.89 4.66998 5.14721 0
M  V30 23512 H 2324.08 2.9245 3.655 0
M  V30 23513 H 2324.25 4.24265 4.89799 0
M  V30 23514 N 2317.66 -1.32267 0.856927 0
M  V30 23515 C 2318.91 -1.97465 0.462104 0
M  V30 23516 C 2319.24 -1.67644 -0.980269 0
M  V30 23517 O 2318.51 -0.965888 -1.68822 0
M  V30 23518 C 2318.8 -3.53143 0.704398 0
M  V30 23519 C 2318.65 -3.92587 2.19536 0
M  V30 23520 C 2319.97 -4.39801 0.162278 0
M  V30 23521 H 2317.09 -0.717275 0.169369 0
M  V30 23522 H 2319.73 -1.56612 1.07577 0
M  V30 23523 H 2317.88 -3.88073 0.182067 0
M  V30 23524 H 2319.55 -3.67824 2.78394 0
M  V30 23525 H 2317.8 -3.41664 2.67298 0
M  V30 23526 H 2318.47 -5.01084 2.31557 0
M  V30 23527 H 2320.94 -4.1162 0.608978 0
M  V30 23528 H 2319.82 -5.47709 0.361361 0
M  V30 23529 H 2320.08 -4.32098 -0.935082 0
M  V30 23530 N 2319.14 -0.615084 -1.45102 0
M  V30 23531 C 2320.07 0.0865209 -2.3334 0
M  V30 23532 C 2321.05 0.851183 -1.47271 0
M  V30 23533 O 2322.23 0.82025 -1.76027 0
M  V30 23534 C 2319.36 1.0795 -3.30097 0
M  V30 23535 C 2318.32 0.427553 -4.25859 0
M  V30 23536 C 2317.64 1.52931 -5.12363 0
M  V30 23537 C 2318.94 -0.656035 -5.18164 0
M  V30 23538 H 2320.64 -0.650275 -2.92253 0
M  V30 23539 H 2318.18 -0.314163 -1.40531 0
M  V30 23540 H 2320.14 1.57894 -3.90701 0
M  V30 23541 H 2318.86 1.84699 -2.69359 0
M  V30 23542 H 2317.52 -0.0510936 -3.66564 0
M  V30 23543 H 2317.17 2.28726 -4.47988 0
M  V30 23544 H 2316.87 1.09855 -5.7724 0
M  V30 23545 H 2318.39 2.03087 -5.75837 0
M  V30 23546 H 2319.81 -0.240358 -5.72796 0
M  V30 23547 H 2318.2 -1.00898 -5.91557 0
M  V30 23548 H 2319.27 -1.52965 -4.60141 0
M  V30 23549 N 2320.62 1.53557 -0.354678 0
M  V30 23550 C 2322.03 1.596 -0.00318231 0
M  V30 23551 C 2322.23 1.37024 1.47738 0
M  V30 23552 O 2321.29 1.17 2.23757 0
M  V30 23553 C 2322.6 2.97324 -0.449342 0
M  V30 23554 C 2324.15 3.104 -0.402632 0
M  V30 23555 C 2324.63 4.50519 -0.824434 0
M  V30 23556 N 2326.12 4.56601 -0.779059 0
M  V30 23557 C 2326.85 5.6319 -1.07725 0
M  V30 23558 N 2326.35 6.77581 -1.44417 0
M  V30 23559 N 2328.14 5.5312 -1.00076 0
M  V30 23560 H 2320.29 1.66485 -1.31896 0
M  V30 23561 H 2322.55 0.780274 -0.538402 0
M  V30 23562 H 2322.26 3.18947 -1.48208 0
M  V30 23563 H 2322.13 3.76818 0.169706 0
M  V30 23564 H 2324.52 2.88493 0.620954 0
M  V30 23565 H 2324.6 2.32939 -1.05703 0
M  V30 23566 H 2324.25 4.73162 -1.84608 0
M  V30 23567 H 2324.18 5.26394 -0.147397 0
M  V30 23568 H 2326.67 3.74462 -0.508594 0
M  V30 23569 H 2326.98 7.54843 -1.65625 0
M  V30 23570 H 2325.33 6.78999 -1.48272 0
M  V30 23571 H 2328.52 4.62632 -0.713374 0
M  V30 23572 H 2328.69 6.36093 -1.23649 0
M  V30 23573 N 2322.1 0.083568 1.57378 0
M  V30 23574 C 2323.34 -0.583699 1.94218 0
M  V30 23575 C 2323.67 -1.68545 0.964683 0
M  V30 23576 O 2322.95 -1.945 -0.00418839 0
M  V30 23577 C 2323.23 -1.14966 3.41255 0
M  V30 23578 C 2323.09 -0.0537487 4.49768 0
M  V30 23579 C 2324.4 -2.05159 3.89356 0
M  V30 23580 H 2321.52 -0.210711 0.706236 0
M  V30 23581 H 2324.17 0.151933 1.89392 0
M  V30 23582 H 2322.32 -1.77659 3.45499 0
M  V30 23583 H 2323.99 0.579931 4.5764 0
M  V30 23584 H 2322.23 0.614144 4.29431 0
M  V30 23585 H 2322.9 -0.490355 5.49818 0
M  V30 23586 H 2325.38 -1.52387 3.87192 0
M  V30 23587 H 2324.25 -2.41689 4.92826 0
M  V30 23588 H 2324.51 -2.9645 3.27978 0
M  V30 23589 N 2323.57 -1.5645 -0.190064 0
M  V30 23590 C 2324.82 -1.8056 -0.907876 0
M  V30 23591 C 2325.14 -0.65747 -1.83582 0
M  V30 23592 O 2324.41 0.32389 -1.93204 0
M  V30 23593 H 2322.99 -0.666038 -0.338235 0
M  V30 23594 H 2325.65 -1.93928 -0.194369 0
M  V30 23595 H 2324.75 -2.73909 -1.496 0
M  V30 23596 N 2325.05 0.45796 -1.50799 0
M  V30 23597 C 2326.3 1.21085 -1.62685 0
M  V30 23598 C 2326.63 1.91336 -0.332301 0
M  V30 23599 O 2325.91 1.82705 0.667011 0
M  V30 23600 C 2326.19 2.24417 -2.81619 0
M  V30 23601 C 2326.04 1.58384 -4.20992 0
M  V30 23602 C 2327.36 3.25605 -2.9609 0
M  V30 23603 H 2324.48 0.438853 -0.592095 0
M  V30 23604 H 2327.12 0.502828 -1.83226 0
M  V30 23605 H 2325.27 2.84801 -2.64236 0
M  V30 23606 H 2326.94 1.01496 -4.49996 0
M  V30 23607 H 2325.19 0.886629 -4.24643 0
M  V30 23608 H 2325.86 2.33538 -5.00164 0
M  V30 23609 H 2328.33 2.75256 -3.12047 0
M  V30 23610 H 2327.21 3.95221 -3.80909 0
M  V30 23611 H 2327.47 3.90503 -2.07267 0
M  V30 23612 N 2326.53 1.40598 0.712035 0
M  V30 23613 C 2327.49 1.40891 1.80783 0
M  V30 23614 C 2328.49 0.30213 1.57936 0
M  V30 23615 O 2329.68 0.561211 1.64912 0
M  V30 23616 C 2326.81 1.20414 3.18925 0
M  V30 23617 H 2328.01 2.38422 1.8192 0
M  V30 23618 H 2325.56 1.26499 0.918028 0
M  V30 23619 H 2326.3 0.236579 3.23436 0
M  V30 23620 H 2326.08 2.00588 3.36908 0
M  V30 23621 H 2327.57 1.23415 3.98947 0
M  V30 23622 N 2328.01 -0.94462 1.26153 0
M  V30 23623 C 2328.92 -2.07646 1.0918 0
M  V30 23624 C 2329.93 -1.7398 0.0262241 0
M  V30 23625 O 2331.11 -2.00091 0.229243 0
M  V30 23626 C 2328.17 -3.39078 0.722974 0
M  V30 23627 C 2327.24 -3.86549 1.86758 0
M  V30 23628 C 2326.47 -5.11708 1.51626 0
M  V30 23629 O 2326.69 -5.68878 0.416431 0
M  V30 23630 O 2325.63 -5.54135 2.34985 0
M  V30 23631 H 2329.45 -2.24872 2.04124 0
M  V30 23632 H 2327.04 -1.06098 1.05184 0
M  V30 23633 H 2328.92 -4.18056 0.529861 0
M  V30 23634 H 2327.59 -3.23099 -0.197102 0
M  V30 23635 H 2326.5 -3.08531 2.11564 0
M  V30 23636 H 2327.83 -4.07042 2.76726 0
M  V30 23637 N 2329.49 -1.07901 -1.1487 0
M  V30 23638 C 2330.73 -0.805565 -1.85787 0
M  V30 23639 C 2331.06 0.668529 -1.8265 0
M  V30 23640 O 2330.32 1.50693 -1.24861 0
M  V30 23641 C 2330.61 -1.26614 -3.34221 0
M  V30 23642 C 2330.28 -2.74716 -3.5755 0
M  V30 23643 C 2328.94 -3.15166 -3.63626 0
M  V30 23644 C 2331.29 -3.70283 -3.66797 0
M  V30 23645 C 2328.62 -4.4999 -3.76465 0
M  V30 23646 C 2330.97 -5.04875 -3.81161 0
M  V30 23647 C 2329.64 -5.44939 -3.85484 0
M  V30 23648 H 2328.91 -0.294777 -0.679844 0
M  V30 23649 H 2331.56 -1.35103 -1.35718 0
M  V30 23650 H 2329.86 -0.640171 -3.86535 0
M  V30 23651 H 2331.56 -1.03139 -3.87509 0
M  V30 23652 H 2328.15 -2.42405 -3.53466 0
M  V30 23653 H 2332.33 -3.40155 -3.61398 0
M  V30 23654 H 2327.59 -4.80491 -3.78072 0
M  V30 23655 H 2331.76 -5.78796 -3.87258 0
M  V30 23656 H 2329.39 -6.49409 -3.95185 0
M  V30 23657 N 2330.96 1.31811 -0.863929 0
M  V30 23658 C 2332.38 1.49638 -0.55503 0
M  V30 23659 C 2332.58 1.79668 0.912234 0
M  V30 23660 O 2331.64 1.87174 1.69476 0
M  V30 23661 C 2332.95 2.63429 -1.45003 0
M  V30 23662 C 2334.5 2.77313 -1.45143 0
M  V30 23663 C 2334.97 3.94193 -2.33186 0
M  V30 23664 N 2336.46 4.0147 -2.31032 0
M  V30 23665 C 2337.2 4.91165 -2.95879 0
M  V30 23666 N 2336.69 5.85803 -3.69873 0
M  V30 23667 N 2338.49 4.84362 -2.85219 0
M  V30 23668 H 2330.64 1.10586 -1.81341 0
M  V30 23669 H 2332.9 0.545881 -0.77506 0
M  V30 23670 H 2332.61 2.47996 -2.49381 0
M  V30 23671 H 2332.48 3.59429 -1.14416 0
M  V30 23672 H 2334.87 2.92164 -0.415253 0
M  V30 23673 H 2334.95 1.81998 -1.79751 0
M  V30 23674 H 2334.59 3.80101 -3.36877 0
M  V30 23675 H 2334.52 4.88803 -1.95906 0
M  V30 23676 H 2337.01 3.33756 -1.77244 0
M  V30 23677 H 2337.33 6.50961 -4.16497 0
M  V30 23678 H 2335.67 5.85801 -3.73981 0
M  V30 23679 H 2338.86 4.09401 -2.26955 0
M  V30 23680 H 2339.04 5.5406 -3.36037 0
M  V30 23681 N 2332.44 0.62277 1.44773 0
M  V30 23682 C 2333.86 0.287679 1.56986 0
M  V30 23683 C 2334.06 -1.20942 1.61169 0
M  V30 23684 O 2333.11 -1.99312 1.55019 0
M  V30 23685 C 2334.43 0.972238 2.84549 0
M  V30 23686 C 2335.97 0.949588 2.98248 0
M  V30 23687 C 2336.45 1.61445 4.28602 0
M  V30 23688 N 2337.94 1.58065 4.35396 0
M  V30 23689 C 2338.68 2.0641 5.3496 0
M  V30 23690 N 2338.17 2.62908 6.40977 0
M  V30 23691 N 2339.96 1.97088 5.26415 0
M  V30 23692 H 2332.12 1.59465 1.40302 0
M  V30 23693 H 2334.38 0.66889 0.671782 0
M  V30 23694 H 2334.08 2.02698 2.87413 0
M  V30 23695 H 2333.96 0.504837 3.73806 0
M  V30 23696 H 2336.35 -0.0966549 2.94942 0
M  V30 23697 H 2336.43 1.4554 2.10361 0
M  V30 23698 H 2336.07 2.6601 4.32667 0
M  V30 23699 H 2336 1.08354 5.15332 0
M  V30 23700 H 2338.49 1.16807 3.59395 0
M  V30 23701 H 2338.8 2.97552 7.1322 0
M  V30 23702 H 2337.15 2.66955 6.41685 0
M  V30 23703 H 2340.34 1.52677 4.42501 0
M  V30 23704 H 2340.51 2.35076 6.03857 0
M  V30 23705 N 2333.92 -1.53367 0.362817 0
M  V30 23706 C 2335.14 -2.06107 -0.23119 0
M  V30 23707 C 2335.57 -1.23477 -1.41898 0
M  V30 23708 O 2334.93 -0.25316 -1.79524 0
M  V30 23709 C 2334.98 -3.55481 -0.605461 0
M  V30 23710 O 2334.08 -3.75593 -1.70305 0
M  V30 23711 H 2333.42 -0.663113 -0.0343154 0
M  V30 23712 H 2335.95 -1.97813 0.522619 0
M  V30 23713 H 2335.96 -3.98458 -0.877244 0
M  V30 23714 H 2334.64 -4.15067 0.263077 0
M  V30 23715 H 2333.21 -3.44514 -1.42704 0
M  V30 23716 N 2335.4 -0.091913 -1.57332 0
M  V30 23717 C 2336.33 0.865333 -2.16874 0
M  V30 23718 C 2337.31 1.29644 -1.1012 0
M  V30 23719 O 2338.49 1.3639 -1.38244 0
M  V30 23720 C 2335.62 2.12564 -2.74652 0
M  V30 23721 C 2334.58 1.83326 -3.8675 0
M  V30 23722 C 2333.9 3.16158 -4.31217 0
M  V30 23723 C 2335.2 1.12271 -5.10091 0
M  V30 23724 H 2336.9 0.369255 -2.97114 0
M  V30 23725 H 2334.44 0.176168 -1.42918 0
M  V30 23726 H 2336.4 2.79964 -3.14957 0
M  V30 23727 H 2335.12 2.64449 -1.91662 0
M  V30 23728 H 2333.78 1.18325 -3.4698 0
M  V30 23729 H 2333.43 3.65924 -3.45121 0
M  V30 23730 H 2333.13 2.97379 -5.06793 0
M  V30 23731 H 2334.65 3.84722 -4.74153 0
M  V30 23732 H 2336.07 1.69776 -5.47585 0
M  V30 23733 H 2334.46 1.03682 -5.91075 0
M  V30 23734 H 2335.53 0.104956 -4.84786 0
M  V30 23735 N 2336.88 1.56548 0.181765 0
M  V30 23736 C 2338.15 1.72253 0.926734 0
M  V30 23737 C 2338.53 0.650421 2.0083 0
M  V30 23738 O 2337.88 -0.336481 2.26009 0
M  V30 23739 C 2338.09 3.15073 1.50101 0
M  V30 23740 C 2339.44 3.75714 1.97798 0
M  V30 23741 O 2340.46 3.18285 1.59916 0
M  V30 23742 O 2339.32 4.7653 2.67547 0
M  V30 23743 H 2336.42 0.703046 0.435494 0
M  V30 23744 H 2338.96 1.68842 0.170414 0
M  V30 23745 H 2337.73 3.8458 0.722053 0
M  V30 23746 H 2337.36 3.22767 2.3218 0
M  V30 23747 N 2338.35 -0.449957 1.5104 0
M  V30 23748 C 2339.77 -0.785438 1.38935 0
M  V30 23749 C 2339.97 -1.96136 0.461851 0
M  V30 23750 O 2339.03 -2.52348 -0.0876945 0
M  V30 23751 C 2340.34 -1.07765 2.80726 0
M  V30 23752 C 2341.89 -1.18285 2.89789 0
M  V30 23753 C 2342.36 -1.50807 4.32459 0
M  V30 23754 N 2343.85 -1.57757 4.35508 0
M  V30 23755 C 2344.59 -1.84468 5.42917 0
M  V30 23756 N 2344.08 -2.09056 6.60505 0
M  V30 23757 N 2345.88 -1.86146 5.30383 0
M  V30 23758 H 2338.03 0.324684 2.09904 0
M  V30 23759 H 2340.29 0.0828123 0.944376 0
M  V30 23760 H 2340 -0.286437 3.50532 0
M  V30 23761 H 2339.87 -2.00853 3.19277 0
M  V30 23762 H 2342.26 -1.96471 2.20189 0
M  V30 23763 H 2342.34 -0.231269 2.54752 0
M  V30 23764 H 2341.98 -0.731534 5.02604 0
M  V30 23765 H 2341.91 -2.4715 4.64999 0
M  V30 23766 H 2344.4 -1.40709 3.50727 0
M  V30 23767 H 2344.72 -2.28772 7.38162 0
M  V30 23768 H 2343.06 -2.06405 6.63643 0
M  V30 23769 H 2346.25 -1.66447 4.37508 0
M  V30 23770 H 2346.43 -2.06626 6.14174 0
M  V30 23771 N 2339.83 -1.40974 -0.704569 0
M  V30 23772 C 2341.08 -1.40054 -1.46672 0
M  V30 23773 C 2341.41 -0.00644516 -1.94199 0
M  V30 23774 O 2340.69 0.964205 -1.68918 0
M  V30 23775 C 2340.97 -2.39957 -2.68501 0
M  V30 23776 C 2340.82 -3.88436 -2.26798 0
M  V30 23777 C 2342.14 -2.3724 -3.70682 0
M  V30 23778 H 2339.26 -0.510038 -0.532006 0
M  V30 23779 H 2341.9 -1.72187 -0.803225 0
M  V30 23780 H 2340.05 -2.12686 -3.25111 0
M  V30 23781 H 2341.72 -4.26577 -1.75585 0
M  V30 23782 H 2339.97 -4.03737 -1.58678 0
M  V30 23783 H 2340.64 -4.53871 -3.14173 0
M  V30 23784 H 2343.11 -2.6142 -3.23726 0
M  V30 23785 H 2341.99 -3.0917 -4.53547 0
M  V30 23786 H 2342.25 -1.38784 -4.19752 0
M  V30 23787 N 2341.31 0.937917 -1.26653 0
M  V30 23788 C 2342.24 2.03726 -1.02814 0
M  V30 23789 C 2343.22 1.62529 0.0481629 0
M  V30 23790 O 2344.41 1.88261 -0.094917 0
M  V30 23791 C 2341.53 3.34079 -0.557576 0
M  V30 23792 C 2340.58 3.9425 -1.62693 0
M  V30 23793 S 2341.41 4.28119 -3.21674 0
M  V30 23794 C 2342.57 5.61567 -2.76394 0
M  V30 23795 H 2342.8 2.23634 -1.95895 0
M  V30 23796 H 2340.33 1.07972 -1.10369 0
M  V30 23797 H 2342.29 4.09455 -0.292746 0
M  V30 23798 H 2340.95 3.1211 0.353007 0
M  V30 23799 H 2340.15 4.88285 -1.24875 0
M  V30 23800 H 2339.75 3.2542 -1.8433 0
M  V30 23801 H 2342.04 6.4042 -2.21061 0
M  V30 23802 H 2342.98 6.04273 -3.69133 0
M  V30 23803 H 2343.39 5.216 -2.15856 0
M  V30 23804 N 2342.79 1.08509 1.14296 0
M  V30 23805 C 2344.2 0.836257 1.66924 0
M  V30 23806 C 2344.55 -0.636828 1.85577 0
M  V30 23807 O 2343.68 -1.49172 1.5677 0
M  V30 23808 C 2344.27 1.51147 3.03216 0
M  V30 23809 C 2342.83 1.30985 3.52874 0
M  V30 23810 C 2341.98 1.5736 2.28327 0
M  V30 23811 H 2344.93 1.24553 0.983469 0
M  V30 23812 H 2344.95 0.939276 3.68725 0
M  V30 23813 H 2344.46 2.58358 2.89608 0
M  V30 23814 H 2342.56 0.258494 3.71702 0
M  V30 23815 H 2342.67 2.03821 4.33582 0
M  V30 23816 H 2341.04 0.995206 2.34452 0
M  V30 23817 H 2341.82 2.65779 2.17294 0
M  V30 23818 N 2344.27 -1.31351 0.870907 0
M  V30 23819 C 2345.68 -1.49342 0.562958 0
M  V30 23820 C 2345.88 -1.80149 -0.902693 0
M  V30 23821 O 2344.94 -1.8807 -1.68481 0
M  V30 23822 C 2346.25 -2.62656 1.46398 0
M  V30 23823 C 2347.8 -2.76539 1.46612 0
M  V30 23824 C 2348.27 -3.92951 2.35273 0
M  V30 23825 N 2349.77 -4.00239 2.33158 0
M  V30 23826 C 2350.5 -4.89589 2.9848 0
M  V30 23827 N 2350 -5.83834 3.72975 0
M  V30 23828 N 2351.79 -4.82843 2.87784 0
M  V30 23829 H 2343.94 -1.09623 1.81925 0
M  V30 23830 H 2346.2 -0.541763 0.777944 0
M  V30 23831 H 2345.91 -2.4667 2.50693 0
M  V30 23832 H 2345.78 -3.58817 1.1632 0
M  V30 23833 H 2348.17 -2.91939 0.430741 0
M  V30 23834 H 2348.25 -1.81043 1.80713 0
M  V30 23835 H 2347.9 -3.78309 3.38888 0
M  V30 23836 H 2347.83 -4.87757 1.98495 0
M  V30 23837 H 2350.32 -3.32811 1.79011 0
M  V30 23838 H 2350.63 -6.48743 4.19943 0
M  V30 23839 H 2348.97 -5.8381 3.77083 0
M  V30 23840 H 2352.17 -4.08191 2.29123 0
M  V30 23841 H 2352.34 -5.52271 3.38971 0
M  V30 23842 N 2345.74 -0.630439 -1.44441 0
M  V30 23843 C 2347.02 -0.0656 -1.9549 0
M  V30 23844 C 2347.4 1.40848 -1.57242 0
M  V30 23845 O 2346.75 2.12256 -0.846154 0
M  V30 23846 C 2346.96 -0.287752 -3.47812 0
M  V30 23847 C 2348.31 -0.180588 -4.24216 0
M  V30 23848 O 2349.33 -0.219082 -3.55526 0
M  V30 23849 O 2348.19 -0.0849453 -5.46434 0
M  V30 23850 H 2345.28 0.0227031 -0.826688 0
M  V30 23851 H 2347.83 -0.702095 -1.54495 0
M  V30 23852 H 2346.6 -1.31063 -3.68698 0
M  V30 23853 H 2346.23 0.382914 -3.95752 0
M  V30 23854 N 2347.22 1.53172 -0.370945 0
M  V30 23855 C 2348.19 2.24521 0.460739 0
M  V30 23856 C 2349.19 1.25498 1.00534 0
M  V30 23857 O 2350.38 1.49734 0.89024 0
M  V30 23858 C 2347.51 2.98611 1.64452 0
M  V30 23859 H 2348.7 2.99453 -0.163665 0
M  V30 23860 H 2346.25 1.55817 -0.122726 0
M  V30 23861 H 2346.99 2.27934 2.30687 0
M  V30 23862 H 2346.77 3.71272 1.26092 0
M  V30 23863 H 2348.26 3.52834 2.23378 0
M  V30 23864 N 2348.7 0.100255 1.57281 0
M  V30 23865 C 2349.98 -0.604779 1.86016 0
M  V30 23866 C 2350.36 -1.86016 0.998057 0
M  V30 23867 O 2349.71 -2.28387 0.0718585 0
M  V30 23868 C 2349.92 -0.915219 3.36786 0
M  V30 23869 C 2351.26 -1.27643 4.0496 0
M  V30 23870 O 2352.29 -1.00607 3.41697 0
M  V30 23871 O 2351.15 -1.783 5.16596 0
M  V30 23872 H 2348.24 -0.303171 0.769426 0
M  V30 23873 H 2350.79 0.133343 1.69175 0
M  V30 23874 H 2349.56 -0.0248208 3.91292 0
M  V30 23875 H 2349.18 -1.70914 3.5899 0
M  V30 23876 N 2350.18 -1.56643 -0.17346 0
M  V30 23877 C 2351.59 -1.71575 -0.736125 0
M  V30 23878 C 2351.94 -0.710421 -1.82886 0
M  V30 23879 O 2351.07 0.128662 -2.16017 0
M  V30 23880 C 2351.66 -3.11086 -1.34205 0
M  V30 23881 C 2350.22 -3.2771 -1.85156 0
M  V30 23882 C 2349.37 -2.67526 -0.729718 0
M  V30 23883 H 2352.32 -1.58615 0.0519065 0
M  V30 23884 H 2352.34 -3.09617 -2.21173 0
M  V30 23885 H 2351.85 -3.84233 -0.546512 0
M  V30 23886 H 2349.95 -2.59516 -2.67361 0
M  V30 23887 H 2350.07 -4.35428 -1.99848 0
M  V30 23888 H 2348.43 -2.2728 -1.14961 0
M  V30 23889 H 2349.21 -3.43258 0.0539409 0
M  V30 23890 N 2351.66 0.44194 -1.51277 0
M  V30 23891 C 2352.93 1.2027 -1.54255 0
M  V30 23892 C 2353.31 2.08898 -0.304116 0
M  V30 23893 O 2352.66 2.17155 0.711046 0
M  V30 23894 C 2352.87 2.00854 -2.8541 0
M  V30 23895 C 2354.22 2.58053 -3.37185 0
M  V30 23896 O 2355.24 2.11069 -2.86929 0
M  V30 23897 O 2354.1 3.43733 -4.24864 0
M  V30 23898 H 2351.2 0.547317 -0.619978 0
M  V30 23899 H 2353.74 0.451385 -1.63587 0
M  V30 23900 H 2352.52 1.3573 -3.67006 0
M  V30 23901 H 2352.14 2.8306 -2.79218 0
M  V30 23902 N 2353.14 1.41345 0.697083 0
M  V30 23903 C 2354.07 1.45845 1.8235 0
M  V30 23904 C 2355.05 0.317276 1.67115 0
M  V30 23905 O 2356.23 0.528507 1.8687 0
M  V30 23906 C 2353.36 1.33843 3.20474 0
M  V30 23907 C 2352.32 2.45756 3.50411 0
M  V30 23908 C 2351.64 2.18821 4.87874 0
M  V30 23909 C 2352.94 3.88097 3.4954 0
M  V30 23910 H 2354.64 2.40116 1.78842 0
M  V30 23911 H 2352.18 1.15573 0.859007 0
M  V30 23912 H 2354.13 1.35603 3.98986 0
M  V30 23913 H 2352.86 0.360555 3.24604 0
M  V30 23914 H 2351.52 2.43276 2.74249 0
M  V30 23915 H 2351.17 1.1938 4.88628 0
M  V30 23916 H 2350.87 2.93812 5.0887 0
M  V30 23917 H 2352.39 2.22294 5.68698 0
M  V30 23918 H 2353.8 3.923 4.18059 0
M  V30 23919 H 2352.2 4.62758 3.82067 0
M  V30 23920 H 2353.27 4.16357 2.48545 0
M  V30 23921 N 2354.61 -0.931187 1.27148 0
M  V30 23922 C 2355.86 -1.673 1.12667 0
M  V30 23923 C 2356.18 -1.92836 -0.327685 0
M  V30 23924 O 2357.38 -2.64937 -0.593345 0
M  V30 23925 C 2355.84 -3.01303 1.96836 0
M  V30 23926 C 2355.45 -2.83478 3.46906 0
M  V30 23927 C 2357.19 -3.79107 1.90992 0
M  V30 23928 C 2355.1 -4.13016 4.23287 0
M  V30 23929 H 2354.03 -0.627501 0.418041 0
M  V30 23930 H 2356.68 -1.03478 1.5154 0
M  V30 23931 H 2355.06 -3.66162 1.50803 0
M  V30 23932 H 2356.23 -2.27408 4.00777 0
M  V30 23933 H 2354.55 -2.19107 3.54092 0
M  V30 23934 H 2357.15 -4.75094 2.45337 0
M  V30 23935 H 2357.49 -4.06832 0.88279 0
M  V30 23936 H 2358.02 -3.2104 2.34901 0
M  V30 23937 H 2354.76 -3.90471 5.2651 0
M  V30 23938 H 2354.28 -4.68763 3.74194 0
M  V30 23939 H 2355.96 -4.81403 4.32273 0
M  V30 23940 N 2356.09 -1.09114 -1.13719 0
M  V30 23941 C 2357.34 -0.820122 -1.84274 0
M  V30 23942 C 2357.65 0.656476 -1.84255 0
M  V30 23943 O 2358.86 1.04291 -2.5067 0
M  V30 23944 C 2357.32 -1.4172 -3.30823 0
M  V30 23945 C 2356.92 -2.9261 -3.39239 0
M  V30 23946 C 2358.67 -1.22499 -4.06441 0
M  V30 23947 C 2356.57 -3.45419 -4.80041 0
M  V30 23948 H 2355.5 -0.303132 -0.690382 0
M  V30 23949 H 2358.16 -1.31345 -1.28144 0
M  V30 23950 H 2356.54 -0.851566 -3.86736 0
M  V30 23951 H 2357.71 -3.55372 -2.93338 0
M  V30 23952 H 2356.03 -3.10828 -2.77083 0
M  V30 23953 H 2358.62 -1.59411 -5.10384 0
M  V30 23954 H 2358.97 -0.165372 -4.15971 0
M  V30 23955 H 2359.5 -1.75795 -3.56849 0
M  V30 23956 H 2356.24 -4.50986 -4.75701 0
M  V30 23957 H 2355.76 -2.8742 -5.2645 0
M  V30 23958 H 2357.44 -3.42435 -5.48951 0
M  V30 23959 N 2357.57 1.30887 -0.877861 0
M  V30 23960 C 2358.82 1.96026 -0.491757 0
M  V30 23961 C 2359.14 1.69687 0.960797 0
M  V30 23962 O 2358.41 1.01656 1.6746 0
M  V30 23963 H 2356.99 0.72527 -0.178863 0
M  V30 23964 H 2359.65 1.59549 -1.11938 0
M  V30 23965 H 2358.75 3.05126 -0.656069 0
M  V30 23966 N 2359.05 0.638091 1.44105 0
M  V30 23967 C 2360.46 0.304314 1.56672 0
M  V30 23968 C 2360.66 -1.19225 1.62442 0
M  V30 23969 O 2359.72 -1.97657 1.57124 0
M  V30 23970 C 2361.03 1.00236 2.83502 0
M  V30 23971 C 2362.58 0.981168 2.97224 0
M  V30 23972 C 2363.06 1.65982 4.26865 0
M  V30 23973 N 2364.55 1.62674 4.33695 0
M  V30 23974 C 2365.28 2.12072 5.32741 0
M  V30 23975 N 2364.78 2.69692 6.38152 0
M  V30 23976 N 2366.57 2.0266 5.24295 0
M  V30 23977 H 2358.72 1.60945 1.38602 0
M  V30 23978 H 2360.98 0.675977 0.66465 0
M  V30 23979 H 2360.69 2.05735 2.85247 0
M  V30 23980 H 2360.56 0.544456 3.7325 0
M  V30 23981 H 2362.95 -0.065367 2.95028 0
M  V30 23982 H 2363.03 1.47763 2.08806 0
M  V30 23983 H 2362.68 2.70584 4.29822 0
M  V30 23984 H 2362.61 1.13813 5.14154 0
M  V30 23985 H 2365.1 1.20612 3.58136 0
M  V30 23986 H 2365.41 3.05099 7.10024 0
M  V30 23987 H 2363.76 2.73746 6.38818 0
M  V30 23988 H 2366.95 1.57361 4.40857 0
M  V30 23989 H 2367.12 2.41468 6.0133 0
M  V30 23990 N 2360.53 -1.52973 0.379063 0
M  V30 23991 C 2361.76 -2.05566 -0.206454 0
M  V30 23992 C 2362.16 -1.25139 -1.41904 0
M  V30 23993 O 2361.51 -0.288496 -1.8142 0
M  V30 23994 C 2361.57 -3.53556 -0.651024 0
M  V30 23995 C 2361.23 -4.54812 0.446706 0
M  V30 23996 C 2362.23 -5.03362 1.30087 0
M  V30 23997 C 2359.91 -4.98572 0.610807 0
M  V30 23998 C 2361.91 -5.94288 2.30436 0
M  V30 23999 C 2359.6 -5.89301 1.61765 0
M  V30 24000 C 2360.59 -6.3705 2.46285 0
M  V30 24001 O 2360.28 -7.25988 3.45249 0
M  V30 24002 H 2360.01 -0.674974 -0.0372262 0
M  V30 24003 H 2362.57 -1.98181 0.539753 0
M  V30 24004 H 2360.8 -3.58524 -1.44905 0
M  V30 24005 H 2362.49 -3.8894 -1.16105 0
M  V30 24006 H 2363.25 -4.70292 1.18535 0
M  V30 24007 H 2359.13 -4.60985 -0.0373234 0
M  V30 24008 H 2362.68 -6.3148 2.96443 0
M  V30 24009 H 2358.57 -6.21785 1.73359 0
M  V30 24010 H 2359.34 -7.44021 3.41137 0
M  V30 24011 N 2362 -0.108595 -1.57225 0
M  V30 24012 C 2363.25 0.551669 -1.94009 0
M  V30 24013 C 2363.57 1.68492 -0.993471 0
M  V30 24014 O 2364.77 2.40724 -1.25555 0
M  V30 24015 C 2363.23 1.03273 -3.44765 0
M  V30 24016 C 2362.84 -0.071498 -4.47943 0
M  V30 24017 C 2364.58 1.66496 -3.90486 0
M  V30 24018 C 2362.49 0.425676 -5.89866 0
M  V30 24019 H 2361.42 0.20985 -0.724209 0
M  V30 24020 H 2364.07 -0.186773 -1.82547 0
M  V30 24021 H 2362.45 1.82527 -3.51425 0
M  V30 24022 H 2363.62 -0.847445 -4.5294 0
M  V30 24023 H 2361.94 -0.609741 -4.11912 0
M  V30 24024 H 2364.54 2.04789 -4.93929 0
M  V30 24025 H 2364.88 2.53936 -3.29882 0
M  V30 24026 H 2365.41 0.938006 -3.86583 0
M  V30 24027 H 2362.15 -0.412431 -6.54201 0
M  V30 24028 H 2361.67 1.16833 -5.88311 0
M  V30 24029 H 2363.35 0.890285 -6.40845 0
M  V30 24030 N 2363.48 1.56732 0.16515 0
M  V30 24031 C 2364.89 1.71963 0.727016 0
M  V30 24032 C 2365.24 0.72011 1.82507 0
M  V30 24033 O 2364.37 -0.117204 2.16082 0
M  V30 24034 C 2364.96 3.11793 1.32554 0
M  V30 24035 C 2363.52 3.28688 1.83416 0
M  V30 24036 C 2362.67 2.6791 0.71552 0
M  V30 24037 H 2365.62 1.58585 -0.0603175 0
M  V30 24038 H 2365.64 3.10786 2.19528 0
M  V30 24039 H 2365.15 3.84517 0.526127 0
M  V30 24040 H 2363.25 2.6093 2.65981 0
M  V30 24041 H 2363.37 4.36482 1.97536 0
M  V30 24042 H 2361.73 2.27886 1.13754 0
M  V30 24043 H 2362.51 3.43224 -0.0721439 0
M  V30 24044 N 2364.96 -0.433911 1.51509 0
M  V30 24045 C 2365.91 -1.54754 1.73649 0
M  V30 24046 C 2366.9 -1.58309 0.602882 0
M  V30 24047 O 2368.11 -1.62012 0.784346 0
M  V30 24048 H 2364.48 -0.514201 0.548727 0
M  V30 24049 H 2366.45 -1.33256 2.66993 0
M  V30 24050 C 2365.2 -2.92378 1.88177 0
M  V30 24051 H 2364.53 -2.90376 2.74813 0
M  V30 24052 H 2365.97 -3.69656 2.07678 0
M  V30 24053 C 2364.43 -3.30718 0.642448 0
M  V30 24054 O 2364.95 -4.01195 -0.201292 0
M  V30 24055 N 2363.16 -2.86515 0.485539 0
M  V30 24056 H 2362.71 -2.29332 1.17322 0
M  V30 24057 H 2362.67 -3.1253 -0.342427 0
M  V30 24058 N 2366.44 -1.41713 -0.689577 0
M  V30 24059 C 2367.37 -1.4681 -1.81574 0
M  V30 24060 C 2368.35 -0.326134 -1.66944 0
M  V30 24061 O 2369.53 -0.53841 -1.86587 0
M  V30 24062 C 2366.66 -1.35541 -3.19759 0
M  V30 24063 C 2365.62 -2.47611 -3.49103 0
M  V30 24064 C 2364.94 -2.21405 -4.86707 0
M  V30 24065 C 2366.24 -3.89945 -3.47477 0
M  V30 24066 H 2367.94 -2.41061 -1.77566 0
M  V30 24067 H 2365.48 -1.16027 -0.852866 0
M  V30 24068 H 2367.44 -1.37717 -3.98261 0
M  V30 24069 H 2366.16 -0.377765 -3.24408 0
M  V30 24070 H 2364.82 -2.44727 -2.72955 0
M  V30 24071 H 2364.47 -1.21969 -4.87988 0
M  V30 24072 H 2364.17 -2.96506 -5.07304 0
M  V30 24073 H 2365.69 -2.25307 -5.67511 0
M  V30 24074 H 2367.11 -3.94512 -4.15973 0
M  V30 24075 H 2365.5 -4.64778 -3.79607 0
M  V30 24076 H 2366.57 -4.1767 -2.46333 0
M  V30 24077 N 2367.92 0.924431 -1.2764 0
M  V30 24078 C 2369.16 1.67495 -1.14339 0
M  V30 24079 C 2369.5 1.91719 0.309431 0
M  V30 24080 O 2368.77 1.50991 1.22605 0
M  V30 24081 C 2369.05 3.03947 -1.93102 0
M  V30 24082 C 2368.91 2.86943 -3.46386 0
M  V30 24083 C 2370.23 4.04327 -1.73805 0
M  V30 24084 H 2367.34 0.607864 -0.416738 0
M  V30 24085 H 2369.99 1.07253 -1.56834 0
M  V30 24086 H 2368.14 3.55369 -1.56988 0
M  V30 24087 H 2369.81 2.42614 -3.92347 0
M  V30 24088 H 2368.05 2.22219 -3.72561 0
M  V30 24089 H 2368.72 3.83797 -3.96742 0
M  V30 24090 H 2371.2 3.61927 -2.05299 0
M  V30 24091 H 2370.07 4.97785 -2.31303 0
M  V30 24092 H 2370.34 4.36733 -0.686802 0
M  V30 24093 N 2369.39 1.09715 1.13139 0
M  V30 24094 C 2370.81 0.853914 1.66028 0
M  V30 24095 C 2371.16 -0.617109 1.86242 0
M  V30 24096 O 2370.28 -1.47501 1.58343 0
M  V30 24097 C 2370.88 1.54355 3.01596 0
M  V30 24098 C 2369.44 1.34721 3.51465 0
M  V30 24099 C 2368.58 1.59773 2.26645 0
M  V30 24100 H 2371.53 1.2559 0.970204 0
M  V30 24101 H 2371.55 0.978331 3.67708 0
M  V30 24102 H 2371.07 2.61415 2.86851 0
M  V30 24103 H 2369.17 0.297903 3.71407 0
M  V30 24104 H 2369.28 2.08408 4.31396 0
M  V30 24105 H 2367.64 1.02002 2.33383 0
M  V30 24106 H 2368.43 2.68069 2.14462 0
M  V30 24107 N 2370.87 -1.30419 0.88479 0
M  V30 24108 C 2372.29 -1.48736 0.578766 0
M  V30 24109 C 2372.49 -1.81096 -0.883535 0
M  V30 24110 O 2371.54 -1.89847 -1.66477 0
M  V30 24111 C 2372.86 -2.61088 1.49175 0
M  V30 24112 C 2374.41 -2.74969 1.49536 0
M  V30 24113 C 2374.88 -3.90434 2.39428 0
M  V30 24114 N 2376.37 -3.97744 2.3739 0
M  V30 24115 C 2377.11 -4.86396 3.03656 0
M  V30 24116 N 2376.6 -5.79845 3.79146 0
M  V30 24117 N 2378.4 -4.79763 2.92889 0
M  V30 24118 H 2370.55 -1.07687 1.83077 0
M  V30 24119 H 2372.81 -0.533482 0.783646 0
M  V30 24120 H 2372.52 -2.43997 2.53295 0
M  V30 24121 H 2372.39 -3.57563 1.20119 0
M  V30 24122 H 2374.78 -2.91466 0.461681 0
M  V30 24123 H 2374.86 -1.79116 1.82623 0
M  V30 24124 H 2374.5 -3.74693 3.42881 0
M  V30 24125 H 2374.43 -4.85625 2.03658 0
M  V30 24126 H 2376.92 -3.30894 1.82531 0
M  V30 24127 H 2377.24 -6.44252 4.268 0
M  V30 24128 H 2375.58 -5.79777 3.83254 0
M  V30 24129 H 2378.77 -4.05738 2.3344 0
M  V30 24130 H 2378.94 -5.48644 3.44809 0
M  V30 24131 N 2372.35 -0.645724 -1.43764 0
M  V30 24132 C 2373.28 0.0370066 -2.33471 0
M  V30 24133 C 2374.26 0.819753 -1.49044 0
M  V30 24134 O 2375.45 0.782727 -1.77727 0
M  V30 24135 C 2372.58 1.00924 -3.32313 0
M  V30 24136 C 2371.53 0.337126 -4.2667 0
M  V30 24137 C 2370.86 1.42028 -5.15492 0
M  V30 24138 C 2372.16 -0.765797 -5.16655 0
M  V30 24139 H 2373.85 -0.71212 -2.90808 0
M  V30 24140 H 2371.4 -0.343901 -1.39833 0
M  V30 24141 H 2373.35 1.49571 -3.93962 0
M  V30 24142 H 2372.07 1.78943 -2.73216 0
M  V30 24143 H 2370.73 -0.128836 -3.66374 0
M  V30 24144 H 2370.38 2.19172 -4.52739 0
M  V30 24145 H 2370.08 0.975864 -5.7944 0
M  V30 24146 H 2371.6 1.90827 -5.80015 0
M  V30 24147 H 2373.02 -0.361802 -5.72157 0
M  V30 24148 H 2371.42 -1.13423 -5.89284 0
M  V30 24149 H 2372.49 -1.62691 -4.56793 0
M  V30 24150 N 2373.83 1.5277 -0.38717 0
M  V30 24151 C 2375.08 2.01552 0.1957 0
M  V30 24152 C 2375.4 1.27371 1.46993 0
M  V30 24153 O 2374.66 0.361913 1.92324 0
M  V30 24154 C 2374.96 3.53711 0.512147 0
M  V30 24155 C 2374.62 4.4589 -0.670281 0
M  V30 24156 C 2373.29 4.70808 -0.994669 0
M  V30 24157 C 2375.64 5.00292 -1.46143 0
M  V30 24158 C 2372.97 5.47376 -2.11179 0
M  V30 24159 C 2375.32 5.78082 -2.56913 0
M  V30 24160 C 2373.98 6.01278 -2.89863 0
M  V30 24161 H 2373.25 0.737532 0.0716117 0
M  V30 24162 H 2375.9 1.84189 -0.524079 0
M  V30 24163 H 2374.2 3.69136 1.31322 0
M  V30 24164 H 2375.9 3.88948 0.975736 0
M  V30 24165 H 2372.49 4.26659 -0.407441 0
M  V30 24166 H 2376.67 4.80968 -1.22405 0
M  V30 24167 H 2371.93 5.63563 -2.3708 0
M  V30 24168 H 2376.1 6.19238 -3.18619 0
M  V30 24169 H 2373.73 6.60392 -3.76545 0
M  V30 24170 N 2375.31 0.116931 1.57166 0
M  V30 24171 C 2376.53 -0.549348 1.99474 0
M  V30 24172 C 2376.95 -1.60356 0.996569 0
M  V30 24173 O 2376.31 -1.82497 -0.0108411 0
M  V30 24174 C 2376.36 -1.17735 3.4179 0
M  V30 24175 O 2376.08 -0.165285 4.37788 0
M  V30 24176 C 2377.58 -1.92715 3.99219 0
M  V30 24177 H 2374.8 -0.145605 0.655012 0
M  V30 24178 H 2377.34 0.20266 2.03493 0
M  V30 24179 H 2375.5 -1.88016 3.38717 0
M  V30 24180 H 2375.91 -0.621312 5.20807 0
M  V30 24181 H 2377.39 -2.31986 5.00886 0
M  V30 24182 H 2377.86 -2.80155 3.38245 0
M  V30 24183 H 2378.47 -1.27202 4.05832 0
M  V30 24184 N 2376.78 -1.56818 -0.156836 0
M  V30 24185 C 2377.71 -2.00553 -1.19586 0
M  V30 24186 C 2378.7 -0.883452 -1.45359 0
M  V30 24187 O 2379.88 -1.15057 -1.56447 0
M  V30 24188 C 2377.01 -2.37777 -2.53139 0
M  V30 24189 C 2375.96 -3.53079 -2.41907 0
M  V30 24190 C 2375.29 -3.76088 -3.80082 0
M  V30 24191 C 2376.59 -4.86065 -1.91149 0
M  V30 24192 H 2378.28 -2.87601 -0.832243 0
M  V30 24193 H 2375.83 -1.38365 -0.398894 0
M  V30 24194 H 2377.78 -2.66972 -3.26042 0
M  V30 24195 H 2376.51 -1.47655 -2.91317 0
M  V30 24196 H 2375.17 -3.24034 -1.71457 0
M  V30 24197 H 2374.81 -2.83233 -4.15678 0
M  V30 24198 H 2374.51 -4.53677 -3.73431 0
M  V30 24199 H 2376.04 -4.07698 -4.54549 0
M  V30 24200 H 2377.45 -5.14042 -2.53837 0
M  V30 24201 H 2375.85 -5.67392 -1.95412 0
M  V30 24202 H 2376.92 -4.77094 -0.866589 0
M  V30 24203 N 2378.26 0.425871 -1.51737 0
M  V30 24204 C 2379.54 1.18627 -1.55522 0
M  V30 24205 C 2379.92 2.08564 -0.326256 0
M  V30 24206 O 2379.27 2.17897 0.687974 0
M  V30 24207 C 2379.48 1.97815 -2.87524 0
M  V30 24208 C 2380.83 2.54462 -3.39903 0
M  V30 24209 O 2381.85 2.08014 -2.89152 0
M  V30 24210 O 2380.71 3.39208 -4.28486 0
M  V30 24211 H 2377.8 0.54071 -0.625749 0
M  V30 24212 H 2380.35 0.434009 -1.64056 0
M  V30 24213 H 2379.12 1.3183 -3.68425 0
M  V30 24214 H 2378.74 2.80083 -2.82205 0
M  V30 24215 N 2379.74 1.42077 0.682052 0
M  V30 24216 C 2381.16 1.24843 0.994302 0
M  V30 24217 C 2381.36 0.147424 2.0096 0
M  V30 24218 O 2380.41 -0.483739 2.47823 0
M  V30 24219 C 2381.73 2.60268 1.50602 0
M  V30 24220 C 2383.27 2.67563 1.62417 0
M  V30 24221 C 2383.75 4.03337 2.16987 0
M  V30 24222 N 2385.24 4.05254 2.2433 0
M  V30 24223 C 2385.97 5.07121 2.67612 0
M  V30 24224 N 2385.47 6.19374 3.104 0
M  V30 24225 N 2387.26 4.94479 2.67296 0
M  V30 24226 H 2379.41 2.12398 0.00970174 0
M  V30 24227 H 2381.68 0.945641 0.0668427 0
M  V30 24228 H 2381.38 3.41656 0.834523 0
M  V30 24229 H 2381.26 2.83689 2.48597 0
M  V30 24230 H 2383.64 1.86525 2.28675 0
M  V30 24231 H 2383.73 2.47938 0.629309 0
M  V30 24232 H 2383.37 4.84828 1.5134 0
M  V30 24233 H 2383.3 4.20309 3.1725 0
M  V30 24234 H 2385.79 3.24212 1.94152 0
M  V30 24235 H 2386.1 6.9296 3.42091 0
M  V30 24236 H 2384.45 6.2289 3.08275 0
M  V30 24237 H 2387.64 4.05861 2.33226 0
M  V30 24238 H 2387.81 5.74002 3.00708 0
M  V30 24239 N 2381.22 -0.917649 1.28129 0
M  V30 24240 C 2382.5 -1.6454 1.05764 0
M  V30 24241 C 2382.88 -2.07192 -0.404308 0
M  V30 24242 O 2382.22 -1.8139 -1.3896 0
M  V30 24243 C 2382.43 -2.83986 2.02862 0
M  V30 24244 C 2383.78 -3.55096 2.32792 0
M  V30 24245 O 2384.81 -2.94128 2.00915 0
M  V30 24246 O 2383.67 -4.64964 2.87178 0
M  V30 24247 H 2380.76 -0.721645 0.403928 0
M  V30 24248 H 2383.31 -0.967298 1.39433 0
M  V30 24249 H 2382.08 -2.49533 3.01412 0
M  V30 24250 H 2381.7 -3.59511 1.69816 0
M  V30 24251 N 2382.7 -1.10314 -1.12555 0
M  V30 24252 C 2383.94 -0.844792 -1.84037 0
M  V30 24253 C 2384.27 0.629636 -1.84027 0
M  V30 24254 O 2383.53 1.4801 -1.28029 0
M  V30 24255 C 2383.83 -1.33675 -3.3146 0
M  V30 24256 C 2383.49 -2.82238 -3.51643 0
M  V30 24257 C 2382.15 -3.22808 -3.56859 0
M  V30 24258 C 2384.51 -3.7798 -3.5886 0
M  V30 24259 C 2381.83 -4.57874 -3.66836 0
M  V30 24260 C 2384.19 -5.12847 -3.70366 0
M  V30 24261 C 2382.85 -5.52993 -3.73838 0
M  V30 24262 H 2382.12 -0.309131 -0.673438 0
M  V30 24263 H 2384.77 -1.37952 -1.32822 0
M  V30 24264 H 2383.07 -0.722017 -3.8509 0
M  V30 24265 H 2384.77 -1.11335 -3.85234 0
M  V30 24266 H 2381.36 -2.49848 -3.48244 0
M  V30 24267 H 2385.54 -3.47744 -3.54101 0
M  V30 24268 H 2380.8 -4.88402 -3.67795 0
M  V30 24269 H 2384.97 -5.8688 -3.74893 0
M  V30 24270 H 2382.6 -6.57646 -3.81321 0
M  V30 24271 N 2384.18 1.29948 -0.891694 0
M  V30 24272 C 2385.42 1.95157 -0.509555 0
M  V30 24273 C 2385.74 1.71127 0.947358 0
M  V30 24274 O 2386.94 2.30375 1.43665 0
M  V30 24275 C 2385.4 3.49465 -0.860377 0
M  V30 24276 C 2385.01 3.82306 -2.33552 0
M  V30 24277 C 2386.75 4.20951 -0.547761 0
M  V30 24278 C 2384.66 5.29821 -2.62762 0
M  V30 24279 H 2383.59 0.730486 -0.186833 0
M  V30 24280 H 2386.24 1.47796 -1.08759 0
M  V30 24281 H 2384.62 3.95436 -0.211354 0
M  V30 24282 H 2385.8 3.47222 -3.02942 0
M  V30 24283 H 2384.11 3.23939 -2.61634 0
M  V30 24284 H 2386.71 5.29513 -0.742947 0
M  V30 24285 H 2387.05 4.13124 0.513248 0
M  V30 24286 H 2387.58 3.80685 -1.15427 0
M  V30 24287 H 2384.32 5.42705 -3.67629 0
M  V30 24288 H 2383.84 5.66181 -1.97987 0
M  V30 24289 H 2385.52 5.97329 -2.48611 0
M  V30 24290 N 2385.65 0.653339 1.4342 0
M  V30 24291 C 2386.59 -0.0768731 2.29071 0
M  V30 24292 C 2387.6 -0.786992 1.42514 0
M  V30 24293 O 2388.79 -0.644728 1.6645 0
M  V30 24294 C 2385.89 -1.13193 3.19438 0
M  V30 24295 C 2385.06 -0.49993 4.34534 0
M  V30 24296 C 2384.12 -1.45189 5.05773 0
M  V30 24297 O 2383.15 -0.960439 5.61039 0
M  V30 24298 N 2384.35 -2.78585 5.09285 0
M  V30 24299 H 2387.11 0.658286 2.92381 0
M  V30 24300 H 2384.67 0.496131 1.54111 0
M  V30 24301 H 2386.67 -1.76958 3.63962 0
M  V30 24302 H 2385.24 -1.76906 2.57727 0
M  V30 24303 H 2384.46 0.316807 3.92925 0
M  V30 24304 H 2385.74 -0.058745 5.08766 0
M  V30 24305 H 2385.14 -3.21072 4.65757 0
M  V30 24306 H 2383.7 -3.37652 5.57525 0
M  V30 24307 N 2387.13 -1.52563 0.395266 0
M  V30 24308 C 2388.04 -2.30356 -0.444191 0
M  V30 24309 C 2389.06 -1.37513 -1.06612 0
M  V30 24310 O 2390.23 -1.70585 -1.07064 0
M  V30 24311 C 2387.3 -3.09967 -1.5531 0
M  V30 24312 C 2386.36 -4.18528 -0.95566 0
M  V30 24313 C 2385.59 -4.94333 -2.01173 0
M  V30 24314 O 2385.82 -4.70291 -3.22773 0
M  V30 24315 O 2384.75 -5.7953 -1.62569 0
M  V30 24316 H 2388.58 -3.03107 0.18972 0
M  V30 24317 H 2386.16 -1.48553 0.158826 0
M  V30 24318 H 2388.04 -3.59586 -2.19718 0
M  V30 24319 H 2386.72 -2.40024 -2.17187 0
M  V30 24320 H 2385.62 -3.7309 -0.274678 0
M  V30 24321 H 2386.96 -4.90723 -0.381023 0
M  V30 24322 N 2388.61 -0.125265 -1.57101 0
M  V30 24323 C 2389.86 0.531061 -1.94583 0
M  V30 24324 C 2390.17 1.67429 -1.01129 0
M  V30 24325 O 2391.38 2.39379 -1.28101 0
M  V30 24326 C 2389.83 0.996103 -3.45841 0
M  V30 24327 C 2389.44 -0.119004 -4.47842 0
M  V30 24328 C 2391.19 1.62345 -3.9223 0
M  V30 24329 C 2389.09 0.363089 -5.90284 0
M  V30 24330 H 2388.02 0.202157 -0.726394 0
M  V30 24331 H 2390.67 -0.206124 -1.82339 0
M  V30 24332 H 2389.06 1.7879 -3.53342 0
M  V30 24333 H 2390.23 -0.895437 -4.52016 0
M  V30 24334 H 2388.54 -0.653396 -4.11242 0
M  V30 24335 H 2391.14 1.99539 -4.96073 0
M  V30 24336 H 2391.48 2.50423 -3.32557 0
M  V30 24337 H 2392.02 0.896951 -3.87556 0
M  V30 24338 H 2388.76 -0.481794 -6.53727 0
M  V30 24339 H 2388.28 1.10587 -5.89517 0
M  V30 24340 H 2389.96 0.822264 -6.41754 0
M  V30 24341 N 2390.09 1.56899 0.148518 0
M  V30 24342 C 2391.5 1.51529 0.501104 0
M  V30 24343 C 2391.7 0.833431 1.83456 0
M  V30 24344 O 2390.76 0.403324 2.49258 0
M  V30 24345 C 2392.07 2.96295 0.512812 0
M  V30 24346 C 2393.62 3.07226 0.598433 0
M  V30 24347 C 2394.1 4.53495 0.640818 0
M  V30 24348 N 2395.59 4.57833 0.703082 0
M  V30 24349 C 2396.32 5.68383 0.756835 0
M  V30 24350 N 2395.82 6.88507 0.770026 0
M  V30 24351 N 2397.61 5.56412 0.7976 0
M  V30 24352 H 2389.76 1.99623 -0.725567 0
M  V30 24353 H 2392.02 0.91039 -0.264374 0
M  V30 24354 H 2391.73 3.49432 -0.398753 0
M  V30 24355 H 2391.6 3.52166 1.35126 0
M  V30 24356 H 2393.99 2.54109 1.50042 0
M  V30 24357 H 2394.07 2.54401 -0.267137 0
M  V30 24358 H 2393.72 5.07249 -0.257004 0
M  V30 24359 H 2393.65 5.041 1.52286 0
M  V30 24360 H 2396.14 3.71356 0.700248 0
M  V30 24361 H 2396.45 7.68513 0.812848 0
M  V30 24362 H 2394.8 6.91071 0.737927 0
M  V30 24363 H 2397.99 4.6148 0.784454 0
M  V30 24364 H 2398.16 6.42584 0.836027 0
M  V30 24365 N 2391.57 -0.417818 1.51961 0
M  V30 24366 C 2392.84 -1.17801 1.56148 0
M  V30 24367 C 2393.22 -2.08388 0.337312 0
M  V30 24368 O 2392.57 -2.18259 -0.676408 0
M  V30 24369 C 2392.78 -1.96288 2.88569 0
M  V30 24370 C 2394.13 -2.52656 3.41248 0
M  V30 24371 O 2395.15 -2.06478 2.90251 0
M  V30 24372 O 2394.01 -3.36931 4.30279 0
M  V30 24373 H 2391.11 -0.537384 0.628607 0
M  V30 24374 H 2393.65 -0.425302 1.64284 0
M  V30 24375 H 2392.42 -1.29874 3.69119 0
M  V30 24376 H 2392.05 -2.78582 2.83686 0
M  V30 24377 N 2393.04 -1.42436 -0.674508 0
M  V30 24378 C 2393.97 -1.48727 -1.80007 0
M  V30 24379 C 2394.95 -0.343822 -1.66589 0
M  V30 24380 O 2396.14 -0.558169 -1.86006 0
M  V30 24381 C 2393.27 -1.38925 -3.18304 0
M  V30 24382 C 2392.22 -2.513 -3.46457 0
M  V30 24383 C 2391.55 -2.26555 -4.84331 0
M  V30 24384 C 2392.85 -3.93609 -3.43321 0
M  V30 24385 H 2394.54 -2.42931 -1.74999 0
M  V30 24386 H 2392.09 -1.16925 -0.840512 0
M  V30 24387 H 2394.04 -1.41934 -3.96778 0
M  V30 24388 H 2392.77 -0.412151 -3.23989 0
M  V30 24389 H 2391.43 -2.47608 -2.70344 0
M  V30 24390 H 2391.07 -1.27138 -4.86667 0
M  V30 24391 H 2390.77 -3.0187 -5.04131 0
M  V30 24392 H 2392.3 -2.31314 -5.6509 0
M  V30 24393 H 2393.71 -3.98902 -4.11765 0
M  V30 24394 H 2392.11 -4.68778 -3.74656 0
M  V30 24395 H 2393.18 -4.20259 -2.41889 0
M  V30 24396 N 2394.52 0.910841 -1.28614 0
M  V30 24397 C 2395.77 1.66272 -1.16109 0
M  V30 24398 C 2396.1 1.92036 0.289079 0
M  V30 24399 O 2395.38 1.52283 1.20997 0
M  V30 24400 C 2395.66 3.01882 -1.96315 0
M  V30 24401 C 2395.51 2.83253 -3.4941 0
M  V30 24402 C 2396.83 4.0246 -1.78083 0
M  V30 24403 H 2393.95 0.603409 -0.423162 0
M  V30 24404 H 2396.59 1.05584 -1.57962 0
M  V30 24405 H 2394.74 3.53684 -1.60749 0
M  V30 24406 H 2396.41 2.38439 -3.94898 0
M  V30 24407 H 2394.66 2.18255 -3.74897 0
M  V30 24408 H 2395.33 3.79567 -4.0079 0
M  V30 24409 H 2397.8 3.5973 -2.09126 0
M  V30 24410 H 2396.68 4.95304 -2.3657 0
M  V30 24411 H 2396.94 4.3598 -0.733085 0
M  V30 24412 N 2396 1.10909 1.11969 0
M  V30 24413 C 2397.41 0.871475 1.65113 0
M  V30 24414 C 2397.76 -0.597321 1.86886 0
M  V30 24415 O 2396.89 -1.45813 1.59899 0
M  V30 24416 C 2397.48 1.57545 2.99942 0
M  V30 24417 C 2396.04 1.38441 3.50016 0
M  V30 24418 C 2395.19 1.62168 2.24938 0
M  V30 24419 H 2398.14 1.26612 0.956829 0
M  V30 24420 H 2398.16 1.01728 3.66649 0
M  V30 24421 H 2397.67 2.64443 2.84062 0
M  V30 24422 H 2395.77 0.337279 3.7107 0
M  V30 24423 H 2395.89 2.12972 4.29162 0
M  V30 24424 H 2394.25 1.04471 2.32288 0
M  V30 24425 H 2395.03 2.70328 2.11607 0
M  V30 24426 N 2397.48 -1.29474 0.898573 0
M  V30 24427 C 2398.44 -2.26023 0.380311 0
M  V30 24428 C 2399.44 -1.53316 -0.484864 0
M  V30 24429 O 2400.63 -1.71768 -0.290077 0
M  V30 24430 C 2397.76 -3.3783 -0.456451 0
M  V30 24431 H 2398.96 -2.73381 1.233 0
M  V30 24432 H 2396.51 -1.40896 0.676614 0
M  V30 24433 H 2397.24 -2.9581 -1.32917 0
M  V30 24434 H 2397.03 -3.91759 0.163462 0
M  V30 24435 H 2398.52 -4.09661 -0.810394 0
M  V30 24436 N 2398.96 -0.660936 -1.43071 0
M  V30 24437 C 2399.87 0.026375 -2.34585 0
M  V30 24438 C 2400.88 0.80387 -1.54318 0
M  V30 24439 O 2402.06 0.749358 -1.8694 0
M  V30 24440 C 2399.12 0.975581 -3.32691 0
M  V30 24441 C 2398.18 0.194161 -4.28861 0
M  V30 24442 C 2397.42 1.09815 -5.2228 0
M  V30 24443 O 2397.64 2.33754 -5.20303 0
M  V30 24444 O 2396.57 0.566408 -5.99229 0
M  V30 24445 H 2400.4 -0.727085 -2.94868 0
M  V30 24446 H 2397.99 -0.421135 -1.43342 0
M  V30 24447 H 2399.87 1.52087 -3.92998 0
M  V30 24448 H 2398.54 1.70913 -2.74901 0
M  V30 24449 H 2397.45 -0.394901 -3.7201 0
M  V30 24450 H 2398.78 -0.499985 -4.89654 0
M  V30 24451 N 2400.43 1.52351 -0.403352 0
M  V30 24452 C 2401.85 1.86578 0.0675454 0
M  V30 24453 C 2402.2 1.32239 1.44939 0
M  V30 24454 O 2401.32 0.659343 2.06111 0
M  V30 24455 C 2401.92 3.38553 0.129344 0
M  V30 24456 C 2400.48 3.7244 0.544564 0
M  V30 24457 C 2399.62 2.75836 -0.2846 0
M  V30 24458 H 2402.57 1.4606 -0.620657 0
M  V30 24459 H 2402.59 3.68559 0.945746 0
M  V30 24460 H 2402.11 3.78072 -0.876516 0
M  V30 24461 H 2400.21 3.38496 1.55728 0
M  V30 24462 H 2400.32 4.78203 0.292961 0
M  V30 24463 H 2398.68 2.53448 0.252214 0
M  V30 24464 H 2399.47 3.18194 -1.2887 0
M  V30 24465 N 2401.91 0.133594 1.57033 0
M  V30 24466 C 2402.84 -0.807528 2.19092 0
M  V30 24467 C 2403.82 -1.26679 1.13519 0
M  V30 24468 O 2405.01 -1.32677 1.41812 0
M  V30 24469 C 2402.14 -2.05207 2.80191 0
M  V30 24470 C 2401.09 -1.73008 3.91475 0
M  V30 24471 C 2400.42 -3.04614 4.39448 0
M  V30 24472 C 2401.72 -0.987077 5.12888 0
M  V30 24473 H 2403.41 -0.290351 2.97989 0
M  V30 24474 H 2400.96 -0.138214 1.43335 0
M  V30 24475 H 2402.91 -2.71515 3.22269 0
M  V30 24476 H 2401.64 -2.59275 1.98606 0
M  V30 24477 H 2400.29 -1.09083 3.49995 0
M  V30 24478 H 2399.94 -3.56645 3.54702 0
M  V30 24479 H 2399.64 -2.83838 5.145 0
M  V30 24480 H 2401.17 -3.72016 4.84187 0
M  V30 24481 H 2402.58 -1.55198 5.51894 0
M  V30 24482 H 2400.98 -0.879746 5.93616 0
M  V30 24483 H 2402.05 0.0236139 4.84894 0
M  V30 24484 N 2403.39 -1.56975 -0.140195 0
M  V30 24485 C 2404.67 -1.74649 -0.880739 0
M  V30 24486 C 2405.05 -0.703439 -1.99035 0
M  V30 24487 O 2404.4 0.27644 -2.26822 0
M  V30 24488 C 2404.61 -3.18942 -1.41694 0
M  V30 24489 C 2405.95 -3.80826 -1.87767 0
M  V30 24490 O 2406.98 -3.22413 -1.51421 0
M  V30 24491 O 2405.84 -4.83456 -2.54819 0
M  V30 24492 H 2402.93 -0.714345 -0.416701 0
M  V30 24493 H 2405.48 -1.69235 -0.125588 0
M  V30 24494 H 2404.25 -3.8636 -0.619834 0
M  V30 24495 H 2403.87 -3.28809 -2.23541 0
M  V30 24496 N 2404.87 0.409753 -1.5218 0
M  V30 24497 C 2405.78 1.52389 -1.78367 0
M  V30 24498 C 2406.79 1.60616 -0.669211 0
M  V30 24499 O 2407.97 1.77342 -0.954549 0
M  V30 24500 C 2405.04 2.8813 -1.92827 0
M  V30 24501 C 2404.1 2.89794 -3.1673 0
M  V30 24502 C 2403.33 4.19061 -3.3049 0
M  V30 24503 O 2403.55 5.12924 -2.49531 0
M  V30 24504 O 2402.49 4.27569 -4.23637 0
M  V30 24505 H 2406.31 1.33197 -2.72933 0
M  V30 24506 H 2403.9 0.595546 -1.37017 0
M  V30 24507 H 2405.78 3.6864 -2.04164 0
M  V30 24508 H 2404.45 3.07392 -1.0145 0
M  V30 24509 H 2403.36 2.0814 -3.10851 0
M  V30 24510 H 2404.69 2.75482 -4.07886 0
M  V30 24511 N 2406.35 1.42792 0.666944 0
M  V30 24512 C 2407.6 1.42971 1.42275 0
M  V30 24513 C 2407.91 0.0524833 1.9553 0
M  V30 24514 O 2409.11 -0.0683153 2.71414 0
M  V30 24515 C 2407.57 2.51528 2.57413 0
M  V30 24516 C 2407.18 3.95293 2.10825 0
M  V30 24517 C 2408.92 2.60883 3.34874 0
M  V30 24518 C 2406.83 4.95344 3.23092 0
M  V30 24519 H 2405.76 0.53179 0.534523 0
M  V30 24520 H 2408.41 1.6873 0.721272 0
M  V30 24521 H 2406.79 2.18947 3.29967 0
M  V30 24522 H 2407.97 4.37268 1.45373 0
M  V30 24523 H 2406.28 3.8986 1.46282 0
M  V30 24524 H 2408.88 3.3281 4.18499 0
M  V30 24525 H 2409.22 1.65496 3.8199 0
M  V30 24526 H 2409.75 2.92698 2.69393 0
M  V30 24527 H 2406.49 5.92235 2.80958 0
M  V30 24528 H 2406.01 4.57994 3.87301 0
M  V30 24529 H 2407.69 5.17421 3.88438 0
M  V30 24530 N 2407.82 -0.904008 1.29095 0
M  V30 24531 C 2408.75 -2.02416 1.16405 0
M  V30 24532 C 2409.74 -1.69996 0.0593384 0
M  V30 24533 O 2410.92 -1.92735 0.238055 0
M  V30 24534 C 2408.05 -3.37106 0.835292 0
M  V30 24535 C 2407 -3.83721 1.89585 0
M  V30 24536 C 2406.33 -5.15486 1.4205 0
M  V30 24537 C 2407.63 -4.04515 3.30401 0
M  V30 24538 H 2409.32 -2.13291 2.10113 0
M  V30 24539 H 2406.87 -1.02484 1.01159 0
M  V30 24540 H 2408.82 -4.14972 0.733241 0
M  V30 24541 H 2407.55 -3.2631 -0.137486 0
M  V30 24542 H 2406.21 -3.08068 1.98721 0
M  V30 24543 H 2405.85 -5.01102 0.436514 0
M  V30 24544 H 2405.55 -5.47646 2.12974 0
M  V30 24545 H 2407.08 -5.95897 1.33186 0
M  V30 24546 H 2408.49 -4.72876 3.24131 0
M  V30 24547 H 2406.89 -4.48022 3.99245 0
M  V30 24548 H 2407.96 -3.08995 3.73698 0
M  V30 24549 N 2409.3 -1.11501 -1.11379 0
M  V30 24550 C 2410.27 -0.777191 -2.15621 0
M  V30 24551 C 2411.27 0.203751 -1.59504 0
M  V30 24552 O 2412.46 -0.0208126 -1.74188 0
M  V30 24553 C 2409.59 -0.153176 -3.40556 0
M  V30 24554 H 2410.78 -1.70065 -2.47018 0
M  V30 24555 H 2408.33 -0.916974 -1.26575 0
M  V30 24556 H 2409.07 0.780481 -3.14768 0
M  V30 24557 H 2408.85 -0.859305 -3.82568 0
M  V30 24558 H 2410.34 0.067031 -4.17546 0
M  V30 24559 N 2410.78 1.28995 -0.905426 0
M  V30 24560 C 2412.06 1.90269 -0.453546 0
M  V30 24561 C 2412.44 1.82139 1.06717 0
M  V30 24562 O 2411.79 1.25185 1.91157 0
M  V30 24563 C 2412 3.35117 -0.974553 0
M  V30 24564 C 2413.34 4.12125 -1.02167 0
M  V30 24565 O 2414.37 3.44044 -0.922618 0
M  V30 24566 O 2413.23 5.338 -1.1713 0
M  V30 24567 H 2410.32 0.814655 -0.142362 0
M  V30 24568 H 2412.87 1.37421 -0.995666 0
M  V30 24569 H 2411.64 3.35218 -2.01854 0
M  V30 24570 H 2411.26 3.95452 -0.412775 0
M  V30 24571 N 2412.26 0.668514 1.42719 0
M  V30 24572 C 2413.49 0.196099 2.05667 0
M  V30 24573 C 2413.9 -1.14944 1.50282 0
M  V30 24574 O 2413.24 -1.72382 0.63483 0
M  V30 24575 C 2413.3 0.0469511 3.59469 0
M  V30 24576 C 2412.97 1.3202 4.37515 0
M  V30 24577 C 2413.96 2.2523 4.6858 0
M  V30 24578 C 2411.65 1.56605 4.77263 0
M  V30 24579 C 2413.64 3.41307 5.3832 0
M  V30 24580 C 2411.33 2.72971 5.46745 0
M  V30 24581 C 2412.33 3.65147 5.77197 0
M  V30 24582 O 2412.02 4.79479 6.45256 0
M  V30 24583 H 2411.75 0.0943716 0.66938 0
M  V30 24584 H 2414.3 0.913821 1.83952 0
M  V30 24585 H 2412.53 -0.72629 3.79818 0
M  V30 24586 H 2414.22 -0.384781 4.04072 0
M  V30 24587 H 2414.99 2.07484 4.38378 0
M  V30 24588 H 2410.87 0.857328 4.52958 0
M  V30 24589 H 2414.41 4.13273 5.62007 0
M  V30 24590 H 2410.31 2.90645 5.76364 0
M  V30 24591 H 2411.07 4.78942 6.63744 0
M  V30 24592 N 2413.74 -1.52135 0.411426 0
M  V30 24593 C 2415.01 -1.94333 -0.222274 0
M  V30 24594 C 2415.39 -1.34847 -1.62418 0
M  V30 24595 O 2414.74 -0.525184 -2.22383 0
M  V30 24596 C 2414.95 -3.48266 -0.226284 0
M  V30 24597 C 2416.3 -4.22267 -0.444518 0
M  V30 24598 O 2417.32 -3.54887 -0.30554 0
M  V30 24599 O 2416.18 -5.41754 -0.718654 0
M  V30 24600 H 2413.28 -0.814386 -0.143892 0
M  V30 24601 H 2415.82 -1.63132 0.467535 0
M  V30 24602 H 2414.6 -3.83951 0.754818 0
M  V30 24603 H 2414.22 -3.85834 -0.960096 0
M  V30 24604 N 2415.22 -0.14192 -1.5696 0
M  V30 24605 C 2416.44 0.517544 -2.00322 0
M  V30 24606 C 2416.86 1.5875 -1.02195 0
M  V30 24607 O 2416.22 1.82491 -0.018194 0
M  V30 24608 C 2416.27 1.12283 -3.4362 0
M  V30 24609 O 2415.99 0.0956159 -4.37996 0
M  V30 24610 C 2417.49 1.86339 -4.02234 0
M  V30 24611 H 2414.71 0.135166 -0.657245 0
M  V30 24612 H 2417.25 -0.235009 -2.03145 0
M  V30 24613 H 2415.41 1.82603 -3.41665 0
M  V30 24614 H 2415.82 0.538377 -5.2173 0
M  V30 24615 H 2417.3 2.23988 -5.04513 0
M  V30 24616 H 2417.77 2.74738 -3.42659 0
M  V30 24617 H 2418.38 1.2073 -4.07804 0
M  V30 24618 N 2416.69 1.57047 0.131868 0
M  V30 24619 C 2417.94 1.85325 0.838235 0
M  V30 24620 C 2418.29 0.727968 1.78097 0
M  V30 24621 O 2417.59 -0.273006 1.89645 0
M  V30 24622 C 2417.78 3.17707 1.63698 0
M  V30 24623 C 2417.61 4.43005 0.77309 0
M  V30 24624 C 2416.38 5.03442 0.432867 0
M  V30 24625 C 2418.58 5.14209 0.0965312 0
M  V30 24626 N 2416.56 6.12299 -0.443031 0
M  V30 24627 C 2417.93 6.16699 -0.638887 0
M  V30 24628 C 2419.99 4.97896 0.0187735 0
M  V30 24629 C 2418.69 7.04642 -1.44474 0
M  V30 24630 C 2420.72 5.86315 -0.773865 0
M  V30 24631 C 2420.08 6.88298 -1.49752 0
M  V30 24632 H 2416.18 0.728578 0.284074 0
M  V30 24633 H 2418.76 1.94429 0.102697 0
M  V30 24634 H 2416.93 3.09722 2.34364 0
M  V30 24635 H 2418.66 3.33837 2.28768 0
M  V30 24636 H 2415.42 4.67263 0.772155 0
M  V30 24637 H 2415.84 6.71355 -0.87245 0
M  V30 24638 H 2420.48 4.19023 0.563897 0
M  V30 24639 H 2418.2 7.82932 -2.00107 0
M  V30 24640 H 2421.79 5.75759 -0.836221 0
M  V30 24641 H 2420.67 7.55531 -2.101 0
M  V30 24642 N 2418.17 -0.401677 1.52395 0
M  V30 24643 C 2419.1 -1.49658 1.79234 0
M  V30 24644 C 2420.08 -1.57451 0.643682 0
M  V30 24645 O 2421.27 -1.72604 0.89002 0
M  V30 24646 C 2418.4 -2.87405 1.94976 0
M  V30 24647 C 2417.35 -2.94459 3.10609 0
M  V30 24648 C 2416.68 -4.34533 3.11585 0
M  V30 24649 C 2417.98 -2.65262 4.49926 0
M  V30 24650 H 2419.67 -1.27449 2.70919 0
M  V30 24651 H 2417.22 -0.611677 1.30363 0
M  V30 24652 H 2419.17 -3.63995 2.12334 0
M  V30 24653 H 2417.89 -3.10924 0.999687 0
M  V30 24654 H 2416.55 -2.20316 2.93013 0
M  V30 24655 H 2416.2 -4.55072 2.14285 0
M  V30 24656 H 2415.9 -4.40176 3.89255 0
M  V30 24657 H 2417.43 -5.13047 3.31082 0
M  V30 24658 H 2418.84 -3.31573 4.67689 0
M  V30 24659 H 2417.24 -2.82271 5.29569 0
M  V30 24660 H 2418.31 -1.60663 4.5751 0
M  V30 24661 N 2419.65 -1.43144 -0.659362 0
M  V30 24662 C 2421.07 -1.26409 -0.974315 0
M  V30 24663 C 2421.27 -0.179376 -2.007 0
M  V30 24664 O 2420.32 0.444251 -2.48561 0
M  V30 24665 C 2421.63 -2.62631 -1.46443 0
M  V30 24666 C 2423.18 -2.70113 -1.5814 0
M  V30 24667 C 2423.66 -4.06738 -2.10543 0
M  V30 24668 N 2425.15 -4.08771 -2.17854 0
M  V30 24669 C 2425.88 -5.11314 -2.5951 0
M  V30 24670 N 2425.38 -6.24234 -3.00507 0
M  V30 24671 N 2427.17 -4.98669 -2.59395 0
M  V30 24672 H 2419.32 -2.12386 0.0240901 0
M  V30 24673 H 2421.59 -0.946584 -0.0517899 0
M  V30 24674 H 2421.29 -3.4294 -0.780063 0
M  V30 24675 H 2421.17 -2.87608 -2.44053 0
M  V30 24676 H 2423.55 -1.9014 -2.25679 0
M  V30 24677 H 2423.63 -2.48908 -0.589784 0
M  V30 24678 H 2423.28 -4.87175 -1.43608 0
M  V30 24679 H 2423.21 -4.25303 -3.10523 0
M  V30 24680 H 2425.7 -3.2726 -1.88969 0
M  V30 24681 H 2426.01 -6.98315 -3.31023 0
M  V30 24682 H 2424.36 -6.27715 -2.98326 0
M  V30 24683 H 2427.55 -4.0952 -2.2674 0
M  V30 24684 H 2427.72 -5.78714 -2.91538 0
M  V30 24685 N 2421.13 0.897149 -1.29572 0
M  V30 24686 C 2422.04 2.03451 -1.16811 0
M  V30 24687 C 2423.05 1.73763 -0.0907777 0
M  V30 24688 O 2424.23 1.99102 -0.303347 0
M  V30 24689 C 2421.29 3.36161 -0.848323 0
M  V30 24690 C 2420.36 3.79351 -2.00976 0
M  V30 24691 C 2419.59 5.05728 -1.70514 0
M  V30 24692 O 2419.81 5.6694 -0.62728 0
M  V30 24693 O 2418.75 5.45032 -2.55389 0
M  V30 24694 H 2422.57 2.17141 -2.12329 0
M  V30 24695 H 2420.16 1.02121 -1.09049 0
M  V30 24696 H 2422.04 4.15801 -0.684654 0
M  V30 24697 H 2420.71 3.23608 0.0770503 0
M  V30 24698 H 2419.62 3.00467 -2.22869 0
M  V30 24699 H 2420.95 3.96491 -2.91643 0
M  V30 24700 N 2422.61 1.1209 1.10786 0
M  V30 24701 C 2424.02 0.856209 1.34689 0
M  V30 24702 C 2424.22 -0.515581 1.94792 0
M  V30 24703 O 2423.28 -1.26501 2.18526 0
M  V30 24704 C 2424.59 1.96974 2.27204 0
M  V30 24705 C 2426.14 2.0002 2.40751 0
M  V30 24706 C 2426.61 3.10596 3.36592 0
M  V30 24707 N 2428.1 3.10015 3.44159 0
M  V30 24708 C 2428.84 3.92214 4.18277 0
M  V30 24709 N 2428.34 4.84392 4.95314 0
M  V30 24710 N 2430.13 3.80365 4.13859 0
M  V30 24711 H 2422.28 2.00485 0.701405 0
M  V30 24712 H 2424.54 0.872223 0.37139 0
M  V30 24713 H 2424.25 2.95803 1.90246 0
M  V30 24714 H 2424.12 1.87178 3.27482 0
M  V30 24715 H 2426.51 1.01813 2.7698 0
M  V30 24716 H 2426.59 2.13891 1.40301 0
M  V30 24717 H 2426.23 4.09033 3.01089 0
M  V30 24718 H 2426.16 2.93964 4.36913 0
M  V30 24719 H 2428.66 2.43233 2.89216 0
M  V30 24720 H 2428.97 5.43632 5.49257 0
M  V30 24721 H 2427.31 4.88409 4.94451 0
M  V30 24722 H 2430.5 3.07689 3.52767 0
M  V30 24723 H 2430.68 4.44657 4.71364 0
M  V30 24724 N 2424.08 -1.28513 0.912254 0
M  V30 24725 C 2425.49 -1.77086 0.591383 0
M  V30 24726 C 2425.85 -1.74686 -0.89327 0
M  V30 24727 O 2424.97 -1.34059 -1.69874 0
M  V30 24728 C 2425.57 -3.21568 1.06674 0
M  V30 24729 C 2424.12 -3.67869 0.796814 0
M  V30 24730 C 2423.27 -2.48314 1.23432 0
M  V30 24731 H 2426.22 -1.14998 1.09367 0
M  V30 24732 H 2426.24 -3.78311 0.407522 0
M  V30 24733 H 2425.76 -3.23283 2.14731 0
M  V30 24734 H 2423.86 -3.71616 -0.270614 0
M  V30 24735 H 2423.97 -4.58081 1.40351 0
M  V30 24736 H 2422.33 -2.46185 0.653079 0
M  V30 24737 H 2423.12 -2.52749 2.3232 0
M  V30 24738 N 2425.56 -0.676073 -1.42362 0
M  V30 24739 C 2426.98 -0.345745 -1.5581 0
M  V30 24740 C 2427.18 1.14877 -1.65546 0
M  V30 24741 O 2426.23 1.93422 -1.62309 0
M  V30 24742 C 2427.55 -1.07718 -2.80744 0
M  V30 24743 C 2429.1 -1.05963 -2.94518 0
M  V30 24744 C 2429.57 -1.77241 -4.22315 0
M  V30 24745 N 2431.06 -1.74115 -4.2923 0
M  V30 24746 C 2431.8 -2.26122 -5.26931 0
M  V30 24747 N 2431.29 -2.86516 -6.30777 0
M  V30 24748 N 2433.09 -2.16489 -5.18738 0
M  V30 24749 H 2425.24 -1.64563 -1.34286 0
M  V30 24750 H 2427.5 -0.693361 -0.646494 0
M  V30 24751 H 2427.21 -2.13226 -2.79692 0
M  V30 24752 H 2427.08 -0.643225 -3.71675 0
M  V30 24753 H 2429.47 -0.0128774 -2.95097 0
M  V30 24754 H 2429.55 -1.53247 -2.04814 0
M  V30 24755 H 2429.19 -2.81885 -4.22497 0
M  V30 24756 H 2429.12 -1.27405 -5.10955 0
M  V30 24757 H 2431.61 -1.30065 -3.54812 0
M  V30 24758 H 2431.93 -3.23817 -7.01685 0
M  V30 24759 H 2430.27 -2.90586 -6.31335 0
M  V30 24760 H 2433.46 -1.68994 -4.3653 0
M  V30 24761 H 2433.63 -2.57326 -5.94716 0
M  V30 24762 N 2427.04 1.51915 -0.419488 0
M  V30 24763 C 2427.95 2.31034 0.407487 0
M  V30 24764 C 2428.97 1.39192 1.04411 0
M  V30 24765 O 2430.14 1.72266 1.04337 0
M  V30 24766 C 2427.21 3.12399 1.50359 0
M  V30 24767 C 2426.27 4.19995 0.888955 0
M  V30 24768 C 2425.5 4.97471 1.93283 0
M  V30 24769 O 2425.72 4.75367 3.1525 0
M  V30 24770 O 2424.66 5.82043 1.53329 0
M  V30 24771 H 2428.48 3.02767 -0.237918 0
M  V30 24772 H 2426.07 1.48282 -0.182439 0
M  V30 24773 H 2427.95 3.63036 2.13969 0
M  V30 24774 H 2426.63 2.43449 2.13341 0
M  V30 24775 H 2425.53 3.7348 0.215287 0
M  V30 24776 H 2426.87 4.91267 0.302905 0
M  V30 24777 N 2428.52 0.150242 1.56882 0
M  V30 24778 C 2429.45 -0.82632 2.12714 0
M  V30 24779 C 2430.43 -1.2402 1.05156 0
M  V30 24780 O 2431.61 -1.33573 1.33006 0
M  V30 24781 C 2428.74 -2.10997 2.64949 0
M  V30 24782 C 2427.79 -1.84177 3.84683 0
M  V30 24783 S 2428.62 -1.02986 5.25504 0
M  V30 24784 C 2429.78 -2.32463 5.8113 0
M  V30 24785 H 2430.01 -0.351546 2.95214 0
M  V30 24786 H 2427.54 -0.064094 1.54267 0
M  V30 24787 H 2429.5 -2.84737 2.95694 0
M  V30 24788 H 2428.16 -2.55589 1.82573 0
M  V30 24789 H 2427.35 -2.79368 4.19487 0
M  V30 24790 H 2426.96 -1.18543 3.54716 0
M  V30 24791 H 2429.25 -3.2809 5.92759 0
M  V30 24792 H 2430.19 -2.02159 6.78629 0
M  V30 24793 H 2430.6 -2.4326 5.09396 0
M  V30 24794 N 2430 -1.57115 -0.123538 0
M  V30 24795 C 2430.96 -1.99078 -1.1358 0
M  V30 24796 C 2431.96 -0.88032 -1.34562 0
M  V30 24797 O 2433.15 -1.14646 -1.31156 0
M  V30 24798 C 2430.28 -2.32702 -2.49124 0
M  V30 24799 H 2431.47 -2.89707 -0.775236 0
M  V30 24800 H 2429.03 -1.51914 -0.367683 0
M  V30 24801 H 2429.76 -1.44939 -2.90109 0
M  V30 24802 H 2429.55 -3.13688 -2.35249 0
M  V30 24803 H 2431.04 -2.65924 -3.21985 0
M  V30 24804 N 2431.47 0.393589 -1.52606 0
M  V30 24805 C 2432.89 0.733332 -1.41755 0
M  V30 24806 C 2433.09 1.94286 -0.534328 0
M  V30 24807 O 2432.15 2.52499 -0.00602308 0
M  V30 24808 C 2433.46 0.972722 -2.84532 0
M  V30 24809 C 2435.01 1.07448 -2.9398 0
M  V30 24810 C 2435.48 1.34653 -4.37759 0
M  V30 24811 N 2436.97 1.41484 -4.41063 0
M  V30 24812 C 2437.71 1.64191 -5.4939 0
M  V30 24813 N 2437.2 1.84398 -6.67809 0
M  V30 24814 N 2439 1.66333 -5.36926 0
M  V30 24815 H 2431.15 -0.402365 -2.08554 0
M  V30 24816 H 2433.41 -0.117805 -0.940652 0
M  V30 24817 H 2433.12 0.156142 -3.51353 0
M  V30 24818 H 2432.99 1.88865 -3.26511 0
M  V30 24819 H 2435.38 1.88163 -2.27329 0
M  V30 24820 H 2435.46 0.13656 -2.55435 0
M  V30 24821 H 2435.1 0.544492 -5.04973 0
M  V30 24822 H 2435.03 2.29722 -4.73852 0
M  V30 24823 H 2437.52 1.27595 -3.55708 0
M  V30 24824 H 2437.84 2.01218 -7.46144 0
M  V30 24825 H 2436.18 1.81632 -6.70846 0
M  V30 24826 H 2439.37 1.50094 -4.43384 0
M  V30 24827 H 2439.55 1.83689 -6.2142 0
M  V30 24828 N 2432.95 1.43492 0.651762 0
M  V30 24829 C 2434.18 1.48629 1.43934 0
M  V30 24830 C 2434.6 0.10462 1.8851 0
M  V30 24831 O 2433.95 -0.885436 1.59582 0
M  V30 24832 C 2434 2.43339 2.67336 0
M  V30 24833 O 2433.72 3.76132 2.24624 0
M  V30 24834 C 2435.23 2.57732 3.60679 0
M  V30 24835 H 2432.45 0.504747 0.442121 0
M  V30 24836 H 2434.99 1.88249 0.798911 0
M  V30 24837 H 2433.14 2.0691 3.27516 0
M  V30 24838 H 2433.56 4.27076 3.04477 0
M  V30 24839 H 2435.03 3.28074 4.43927 0
M  V30 24840 H 2435.51 1.62272 4.08123 0
M  V30 24841 H 2436.12 2.94978 3.06379 0
M  V30 24842 N 2434.43 -0.890264 1.30046 0
M  V30 24843 C 2435.68 -1.64404 1.1874 0
M  V30 24844 C 2436.01 -1.92472 -0.258491 0
M  V30 24845 O 2435.28 -1.54188 -1.18559 0
M  V30 24846 C 2435.57 -2.9872 2.01092 0
M  V30 24847 C 2435.42 -2.77659 3.53872 0
M  V30 24848 C 2436.74 -3.99576 1.84464 0
M  V30 24849 H 2433.86 -0.596601 0.432708 0
M  V30 24850 H 2436.5 -1.03057 1.59622 0
M  V30 24851 H 2434.65 -3.51082 1.66355 0
M  V30 24852 H 2436.32 -2.32126 3.98641 0
M  V30 24853 H 2434.57 -2.12263 3.78321 0
M  V30 24854 H 2435.24 -3.73143 4.06778 0
M  V30 24855 H 2437.71 -3.56357 2.14823 0
M  V30 24856 H 2436.59 -4.91478 2.4442 0
M  V30 24857 H 2436.85 -4.34758 0.802353 0
M  V30 24858 N 2435.91 -1.12676 -1.1019 0
M  V30 24859 C 2437.16 -0.883638 -1.82203 0
M  V30 24860 C 2437.48 0.590459 -1.85321 0
M  V30 24861 O 2436.74 1.45261 -1.3114 0
M  V30 24862 C 2437.04 -1.40676 -3.2855 0
M  V30 24863 C 2436.7 -2.89633 -3.45577 0
M  V30 24864 C 2435.37 -3.30305 -3.49931 0
M  V30 24865 C 2437.72 -3.85507 -3.50762 0
M  V30 24866 C 2435.05 -4.65552 -3.57041 0
M  V30 24867 C 2437.4 -5.20587 -3.59404 0
M  V30 24868 C 2436.06 -5.60798 -3.62024 0
M  V30 24869 H 2435.33 -0.323346 -0.66673 0
M  V30 24870 H 2437.98 -1.40738 -1.29866 0
M  V30 24871 H 2436.28 -0.803538 -3.83472 0
M  V30 24872 H 2437.98 -1.19482 -3.82786 0
M  V30 24873 H 2434.57 -2.57178 -3.42866 0
M  V30 24874 H 2438.75 -3.55177 -3.46645 0
M  V30 24875 H 2434.01 -4.96094 -3.57353 0
M  V30 24876 H 2438.18 -5.947 -3.62361 0
M  V30 24877 H 2435.81 -6.65586 -3.67286 0
M  V30 24878 N 2437.39 1.28028 -0.919057 0
M  V30 24879 C 2438.64 1.94033 -0.550836 0
M  V30 24880 C 2438.95 1.73098 0.910847 0
M  V30 24881 O 2440.15 2.3337 1.38746 0
M  V30 24882 C 2438.61 3.47561 -0.93431 0
M  V30 24883 C 2438.22 3.77266 -2.41608 0
M  V30 24884 C 2439.96 4.19695 -0.636928 0
M  V30 24885 C 2437.87 5.24128 -2.73941 0
M  V30 24886 H 2436.8 0.726358 -0.202286 0
M  V30 24887 H 2439.45 1.45456 -1.1187 0
M  V30 24888 H 2437.83 3.94898 -0.295184 0
M  V30 24889 H 2439.01 3.40718 -3.10239 0
M  V30 24890 H 2437.32 3.18316 -2.68447 0
M  V30 24891 H 2439.92 5.27818 -0.855098 0
M  V30 24892 H 2440.26 4.1412 0.425502 0
M  V30 24893 H 2440.79 3.78151 -1.23476 0
M  V30 24894 H 2437.53 5.34785 -3.79058 0
M  V30 24895 H 2437.05 5.61854 -2.09952 0
M  V30 24896 H 2438.73 5.91921 -2.61225 0
M  V30 24897 N 2438.86 0.683613 1.42002 0
M  V30 24898 C 2439.77 0.0109488 2.34597 0
M  V30 24899 C 2440.79 -0.779218 1.55577 0
M  V30 24900 O 2441.97 -0.719522 1.88109 0
M  V30 24901 C 2439.03 -0.922529 3.34201 0
M  V30 24902 C 2438.09 -0.125908 4.29115 0
M  V30 24903 C 2437.33 -1.01493 5.23961 0
M  V30 24904 O 2437.55 -2.25447 5.23956 0
M  V30 24905 O 2436.48 -0.471004 6.00054 0
M  V30 24906 H 2440.31 0.773904 2.93674 0
M  V30 24907 H 2437.89 0.443886 1.42653 0
M  V30 24908 H 2439.78 -1.45816 3.95368 0
M  V30 24909 H 2438.45 -1.66518 2.77585 0
M  V30 24910 H 2437.36 0.454034 3.71335 0
M  V30 24911 H 2438.69 0.577822 4.88797 0
M  V30 24912 N 2440.34 -1.5169 0.427538 0
M  V30 24913 C 2441.27 -2.30394 -0.379559 0
M  V30 24914 C 2442.25 -1.35385 -1.0298 0
M  V30 24915 O 2443.44 -1.64302 -1.03531 0
M  V30 24916 C 2440.57 -3.13883 -1.48644 0
M  V30 24917 C 2439.52 -4.1709 -0.960221 0
M  V30 24918 C 2438.85 -4.89037 -2.1621 0
M  V30 24919 C 2440.15 -5.223 -0.00144499 0
M  V30 24920 H 2441.84 -2.98114 0.277216 0
M  V30 24921 H 2439.39 -1.43368 0.134764 0
M  V30 24922 H 2441.34 -3.67718 -2.0582 0
M  V30 24923 H 2440.07 -2.43966 -2.17136 0
M  V30 24924 H 2438.73 -3.64292 -0.410742 0
M  V30 24925 H 2438.37 -4.15633 -2.83299 0
M  V30 24926 H 2438.07 -5.58819 -1.81644 0
M  V30 24927 H 2439.6 -5.45692 -2.73958 0
M  V30 24928 H 2441.01 -5.71265 -0.482586 0
M  V30 24929 H 2439.41 -5.99552 0.256305 0
M  V30 24930 H 2440.48 -4.75736 0.938258 0
M  V30 24931 N 2441.82 -0.15856 -1.568 0
M  V30 24932 C 2442.75 0.77257 -2.20349 0
M  V30 24933 C 2443.73 1.24857 -1.1552 0
M  V30 24934 O 2444.92 1.30404 -1.43905 0
M  V30 24935 C 2442.05 2.00724 -2.83421 0
M  V30 24936 C 2441 1.66758 -3.94177 0
M  V30 24937 C 2440.33 2.97584 -4.44238 0
M  V30 24938 C 2441.63 0.905357 -5.14393 0
M  V30 24939 H 2443.32 0.242906 -2.98413 0
M  V30 24940 H 2440.87 0.115393 -1.43537 0
M  V30 24941 H 2442.82 2.66354 -3.26548 0
M  V30 24942 H 2441.54 2.56082 -2.02705 0
M  V30 24943 H 2440.2 1.03502 -3.51686 0
M  V30 24944 H 2439.85 3.50957 -3.60331 0
M  V30 24945 H 2439.55 2.75617 -5.1895 0
M  V30 24946 H 2441.08 3.64266 -4.90044 0
M  V30 24947 H 2442.49 1.46398 -5.54293 0
M  V30 24948 H 2440.89 0.785195 -5.94941 0
M  V30 24949 H 2441.96 -0.100753 -4.84795 0
M  V30 24950 N 2443.3 1.57178 0.115204 0
M  V30 24951 C 2444.26 1.99678 1.12523 0
M  V30 24952 C 2445.26 0.887444 1.34094 0
M  V30 24953 O 2446.45 1.1534 1.30546 0
M  V30 24954 C 2443.58 2.3402 2.47886 0
M  V30 24955 H 2444.78 2.90114 0.759861 0
M  V30 24956 H 2442.33 1.52107 0.359621 0
M  V30 24957 H 2443.07 1.46475 2.89336 0
M  V30 24958 H 2442.85 3.14931 2.33583 0
M  V30 24959 H 2444.34 2.67628 3.2057 0
M  V30 24960 N 2444.78 -0.38549 1.52813 0
M  V30 24961 C 2446.02 -1.12844 1.69227 0
M  V30 24962 C 2446.38 -1.87564 0.428673 0
M  V30 24963 O 2445.67 -1.82681 -0.577758 0
M  V30 24964 C 2445.87 -2.13182 2.86859 0
M  V30 24965 C 2445.69 -1.48318 4.24537 0
M  V30 24966 C 2444.46 -1.24576 4.89703 0
M  V30 24967 C 2446.66 -0.931412 5.05796 0
M  V30 24968 N 2444.64 -0.558537 6.11354 0
M  V30 24969 C 2446.02 -0.372443 6.1888 0
M  V30 24970 C 2448.07 -0.828162 4.90964 0
M  V30 24971 C 2446.77 0.279682 7.18756 0
M  V30 24972 C 2448.8 -0.189852 5.91095 0
M  V30 24973 C 2448.16 0.358331 7.03488 0
M  V30 24974 H 2444.26 -0.398768 0.672687 0
M  V30 24975 H 2446.84 -0.417494 1.90171 0
M  V30 24976 H 2445.02 -2.8161 2.67489 0
M  V30 24977 H 2446.75 -2.80009 2.92193 0
M  V30 24978 H 2443.5 -1.5217 4.48488 0
M  V30 24979 H 2443.93 -0.230864 6.76606 0
M  V30 24980 H 2448.57 -1.23777 4.04276 0
M  V30 24981 H 2446.29 0.701294 8.05051 0
M  V30 24982 H 2449.87 -0.111162 5.81694 0
M  V30 24983 H 2448.75 0.844451 7.7964 0
M  V30 24984 N 2446.26 -1.43835 -0.644143 0
M  V30 24985 C 2447.19 -1.45672 -1.76953 0
M  V30 24986 C 2448.2 -0.351694 -1.58956 0
M  V30 24987 O 2449.39 -0.616673 -1.67509 0
M  V30 24988 C 2446.49 -1.26254 -3.14505 0
M  V30 24989 C 2445.66 -2.49763 -3.59078 0
M  V30 24990 C 2444.72 -2.25435 -4.75463 0
M  V30 24991 O 2443.75 -2.98844 -4.84438 0
M  V30 24992 N 2444.95 -1.27671 -5.66287 0
M  V30 24993 H 2447.71 -2.42685 -1.75852 0
M  V30 24994 H 2445.28 -1.39108 -0.828288 0
M  V30 24995 H 2447.27 -1.07847 -3.90066 0
M  V30 24996 H 2445.84 -0.376532 -3.10324 0
M  V30 24997 H 2445.06 -2.83535 -2.73865 0
M  V30 24998 H 2446.35 -3.3194 -3.85607 0
M  V30 24999 H 2445.74 -0.670163 -5.61716 0
M  V30 25000 H 2444.3 -1.15245 -6.41531 0
M  V30 25001 N 2447.73 0.883355 -1.30517 0
M  V30 25002 C 2448.98 1.6353 -1.19433 0
M  V30 25003 C 2449.31 1.92879 0.250593 0
M  V30 25004 O 2448.56 1.54937 1.19553 0
M  V30 25005 C 2448.86 2.98205 -1.96999 0
M  V30 25006 C 2448.53 2.88402 -3.46605 0
M  V30 25007 C 2447.19 2.85435 -3.87402 0
M  V30 25008 C 2449.54 2.7641 -4.41867 0
M  V30 25009 C 2446.87 2.68318 -5.21749 0
M  V30 25010 C 2449.22 2.60831 -5.76324 0
M  V30 25011 C 2447.89 2.5624 -6.16358 0
M  V30 25012 H 2447.16 0.598398 -0.437036 0
M  V30 25013 H 2449.8 1.02693 -1.61637 0
M  V30 25014 H 2448.11 3.63002 -1.47435 0
M  V30 25015 H 2449.81 3.55351 -1.85814 0
M  V30 25016 H 2446.4 2.91521 -3.14187 0
M  V30 25017 H 2450.58 2.77767 -4.11289 0
M  V30 25018 H 2445.84 2.63179 -5.51857 0
M  V30 25019 H 2450.01 2.50527 -6.49776 0
M  V30 25020 H 2447.64 2.42735 -7.20405 0
M  V30 25021 N 2449.21 1.13259 1.09591 0
M  V30 25022 C 2450.17 0.811396 2.14357 0
M  V30 25023 C 2451.17 -0.178349 1.59808 0
M  V30 25024 O 2452.36 0.0485217 1.74132 0
M  V30 25025 C 2449.5 0.207336 3.40269 0
M  V30 25026 H 2450.69 1.73973 2.44281 0
M  V30 25027 H 2448.24 0.936995 1.251 0
M  V30 25028 H 2448.98 -0.730305 3.1597 0
M  V30 25029 H 2448.76 0.920059 3.81153 0
M  V30 25030 H 2450.25 -0.00059454 4.176 0
M  V30 25031 N 2450.69 -1.27539 0.925834 0
M  V30 25032 C 2451.91 -1.99097 0.580959 0
M  V30 25033 C 2452.34 -1.68624 -0.833526 0
M  V30 25034 O 2451.7 -0.925449 -1.55901 0
M  V30 25035 C 2451.75 -3.51356 0.811248 0
M  V30 25036 O 2450.85 -4.12213 -0.124056 0
M  V30 25037 H 2450.19 -0.625118 0.223884 0
M  V30 25038 H 2452.72 -1.62393 1.24458 0
M  V30 25039 H 2452.73 -4.01487 0.726081 0
M  V30 25040 H 2451.41 -3.72869 1.84233 0
M  V30 25041 H 2449.98 -3.72898 0.0108661 0
M  V30 25042 N 2452.17 -0.691135 -1.41637 0
M  V30 25043 C 2453.58 -0.295549 -1.84346 0
M  V30 25044 C 2453.93 1.16544 -1.57835 0
M  V30 25045 O 2453.05 1.89412 -1.04652 0
M  V30 25046 C 2453.65 -0.529634 -3.34635 0
M  V30 25047 C 2452.21 -0.18801 -3.7593 0
M  V30 25048 C 2451.36 -0.814099 -2.65081 0
M  V30 25049 H 2454.31 -0.892115 -1.31252 0
M  V30 25050 H 2454.33 0.213082 -3.79903 0
M  V30 25051 H 2453.84 -1.59304 -3.53898 0
M  V30 25052 H 2451.94 0.871304 -3.62269 0
M  V30 25053 H 2452.05 -0.639933 -4.74807 0
M  V30 25054 H 2450.42 -0.244061 -2.53528 0
M  V30 25055 H 2451.2 -1.88128 -2.87163 0
M  V30 25056 N 2453.65 1.51461 -0.435577 0
M  V30 25057 C 2454.89 2.02372 0.131673 0
M  V30 25058 C 2455.22 1.31922 1.42514 0
M  V30 25059 O 2454.5 0.433606 1.89605 0
M  V30 25060 C 2454.78 3.58373 0.352238 0
M  V30 25061 C 2454.64 4.39441 -0.959754 0
M  V30 25062 C 2455.95 4.25537 1.12279 0
M  V30 25063 H 2453.07 0.735539 0.0463807 0
M  V30 25064 H 2455.72 1.81115 -0.574229 0
M  V30 25065 H 2453.87 3.76616 0.953534 0
M  V30 25066 H 2455.54 4.32852 -1.5949 0
M  V30 25067 H 2453.78 4.04596 -1.56475 0
M  V30 25068 H 2454.45 5.4675 -0.75949 0
M  V30 25069 H 2456.93 4.11553 0.613473 0
M  V30 25070 H 2455.8 5.34574 1.24588 0
M  V30 25071 H 2456.06 3.86277 2.15041 0
M  V30 25072 N 2455.12 0.166873 1.56714 0
M  V30 25073 C 2456.54 -0.189345 1.58473 0
M  V30 25074 C 2456.74 -1.63187 1.18204 0
M  V30 25075 O 2455.8 -2.36236 0.89157 0
M  V30 25076 C 2457.11 0.0874401 3.00573 0
M  V30 25077 C 2458.66 0.0252993 3.1299 0
M  V30 25078 C 2459.13 0.275014 4.57174 0
M  V30 25079 N 2460.62 0.222634 4.62665 0
M  V30 25080 C 2461.36 0.390086 5.72072 0
M  V30 25081 N 2460.85 0.616351 6.90053 0
M  V30 25082 N 2462.65 0.326301 5.61152 0
M  V30 25083 H 2454.8 1.10853 1.81178 0
M  V30 25084 H 2457.06 0.440357 0.839518 0
M  V30 25085 H 2456.77 1.08656 3.34495 0
M  V30 25086 H 2456.64 -0.622972 3.7202 0
M  V30 25087 H 2459.03 -0.964391 2.78897 0
M  V30 25088 H 2459.11 0.768352 2.43988 0
M  V30 25089 H 2458.75 1.26189 4.91974 0
M  V30 25090 H 2458.68 -0.488597 5.24328 0
M  V30 25091 H 2461.17 0.0532177 3.77863 0
M  V30 25092 H 2461.49 0.733694 7.69309 0
M  V30 25093 H 2459.83 0.652912 6.91926 0
M  V30 25094 H 2463.02 0.150154 4.67859 0
M  V30 25095 H 2463.2 0.46023 6.46364 0
M  V30 25096 N 2456.6 -1.57237 -0.106866 0
M  V30 25097 C 2457.85 -1.86635 -0.808646 0
M  V30 25098 C 2458.2 -0.756209 -1.76916 0
M  V30 25099 O 2457.5 0.242801 -1.90055 0
M  V30 25100 C 2457.69 -3.20271 -1.58622 0
M  V30 25101 C 2457.52 -4.44179 -0.702514 0
M  V30 25102 C 2456.29 -5.04067 -0.352719 0
M  V30 25103 C 2458.49 -5.14298 -0.0147127 0
M  V30 25104 N 2456.47 -6.11517 0.540387 0
M  V30 25105 C 2457.84 -6.15605 0.736917 0
M  V30 25106 C 2459.9 -4.97863 0.0604399 0
M  V30 25107 C 2458.6 -7.02254 1.55666 0
M  V30 25108 C 2460.62 -5.8501 0.867045 0
M  V30 25109 C 2459.99 -6.85828 1.60683 0
M  V30 25110 H 2456.09 -0.733005 -0.272447 0
M  V30 25111 H 2458.67 -1.94568 -0.0717516 0
M  V30 25112 H 2456.84 -3.13412 -2.29407 0
M  V30 25113 H 2458.57 -3.37434 -2.23428 0
M  V30 25114 H 2455.33 -4.68432 -0.69772 0
M  V30 25115 H 2455.75 -6.69882 0.979147 0
M  V30 25116 H 2460.39 -4.19867 -0.497162 0
M  V30 25117 H 2458.11 -7.7965 2.12537 0
M  V30 25118 H 2461.7 -5.74356 0.927713 0
M  V30 25119 H 2460.58 -7.52093 2.22093 0
M  V30 25120 N 2458.08 0.377381 -1.53015 0
M  V30 25121 C 2459.33 1.1185 -1.67847 0
M  V30 25122 C 2459.64 1.908 -0.430659 0
M  V30 25123 O 2460.85 2.67587 -0.459308 0
M  V30 25124 C 2459.3 2.0375 -2.96671 0
M  V30 25125 C 2458.91 1.30168 -4.28673 0
M  V30 25126 C 2460.66 2.77926 -3.2087 0
M  V30 25127 C 2458.56 2.20902 -5.48595 0
M  V30 25128 H 2457.49 0.421252 -0.62535 0
M  V30 25129 H 2460.14 0.380378 -1.79514 0
M  V30 25130 H 2458.53 2.81245 -2.78778 0
M  V30 25131 H 2459.7 0.578179 -4.57158 0
M  V30 25132 H 2458.02 0.679035 -4.10826 0
M  V30 25133 H 2460.61 3.46017 -4.07648 0
M  V30 25134 H 2460.96 3.42646 -2.3643 0
M  V30 25135 H 2461.49 2.07519 -3.39383 0
M  V30 25136 H 2458.23 1.60778 -6.35477 0
M  V30 25137 H 2457.75 2.91134 -5.24405 0
M  V30 25138 H 2459.43 2.80726 -5.82925 0
M  V30 25139 N 2459.56 1.44175 0.636506 0
M  V30 25140 C 2460.47 1.53107 1.77751 0
M  V30 25141 C 2461.48 0.417063 1.68928 0
M  V30 25142 O 2462.66 0.673633 1.898 0
M  V30 25143 C 2459.73 1.46747 3.14112 0
M  V30 25144 C 2458.79 2.68954 3.34607 0
M  V30 25145 C 2458.02 2.62888 4.64463 0
M  V30 25146 O 2458.24 1.68591 5.44916 0
M  V30 25147 O 2457.18 3.53656 4.87043 0
M  V30 25148 H 2461 2.49492 1.73169 0
M  V30 25149 H 2458.59 1.26361 0.797068 0
M  V30 25150 H 2460.47 1.45703 3.95409 0
M  V30 25151 H 2459.14 0.535032 3.19248 0
M  V30 25152 H 2458.05 2.75567 2.53009 0
M  V30 25153 H 2459.38 3.61226 3.3433 0
M  V30 25154 N 2461.04 -0.876421 1.30983 0
M  V30 25155 C 2462.26 -1.66188 1.23245 0
M  V30 25156 C 2462.68 -1.87702 -0.203312 0
M  V30 25157 O 2462.04 -1.43059 -1.13315 0
M  V30 25158 C 2462.09 -3.03347 1.96628 0
M  V30 25159 O 2461.81 -2.82798 3.34599 0
M  V30 25160 C 2463.31 -3.97788 1.95651 0
M  V30 25161 H 2460.53 -0.518315 0.426135 0
M  V30 25162 H 2463.07 -1.09439 1.72752 0
M  V30 25163 H 2461.23 -3.56803 1.50898 0
M  V30 25164 H 2461.64 -3.69872 3.7188 0
M  V30 25165 H 2463.12 -4.91367 2.5152 0
M  V30 25166 H 2463.59 -4.29078 0.937471 0
M  V30 25167 H 2464.2 -3.50268 2.41231 0
M  V30 25168 N 2462.51 -1.13839 -1.08989 0
M  V30 25169 C 2463.45 -0.77765 -2.15604 0
M  V30 25170 C 2464.46 0.202711 -1.61533 0
M  V30 25171 O 2465.65 -0.0181369 -1.78491 0
M  V30 25172 C 2462.75 -0.132682 -3.3864 0
M  V30 25173 C 2461.92 -1.14627 -4.22113 0
M  V30 25174 C 2460.98 -0.526166 -5.23563 0
M  V30 25175 O 2460.01 -1.18745 -5.56676 0
M  V30 25176 N 2461.21 0.699765 -5.76267 0
M  V30 25177 H 2463.97 -1.6951 -2.47156 0
M  V30 25178 H 2461.53 -1.032 -1.24745 0
M  V30 25179 H 2463.53 0.294519 -4.03627 0
M  V30 25180 H 2462.1 0.687795 -3.0494 0
M  V30 25181 H 2461.32 -1.75061 -3.53196 0
M  V30 25182 H 2462.6 -1.83117 -4.74706 0
M  V30 25183 H 2462 1.25571 -5.51587 0
M  V30 25184 H 2460.56 1.06956 -6.42965 0
M  V30 25185 N 2463.99 1.27046 -0.932584 0
M  V30 25186 C 2465.27 1.89264 -0.493803 0
M  V30 25187 C 2465.65 1.84362 1.0283 0
M  V30 25188 O 2465 1.29212 1.88458 0
M  V30 25189 C 2465.21 3.32975 -1.04542 0
M  V30 25190 C 2466.56 4.09865 -1.10886 0
M  V30 25191 O 2467.58 3.42009 -0.995387 0
M  V30 25192 O 2466.44 5.31196 -1.28427 0
M  V30 25193 H 2463.53 0.811452 -0.15961 0
M  V30 25194 H 2466.08 1.35278 -1.02459 0
M  V30 25195 H 2464.85 3.30861 -2.08919 0
M  V30 25196 H 2464.47 3.94487 -0.496564 0
M  V30 25197 N 2465.47 0.698636 1.41269 0
M  V30 25198 C 2466.4 0.04967 2.33447 0
M  V30 25199 C 2467.38 -0.763871 1.51984 0
M  V30 25200 O 2468.57 -0.716225 1.8051 0
M  V30 25201 C 2465.7 -0.885208 3.35829 0
M  V30 25202 C 2464.65 -0.178537 4.27627 0
M  V30 25203 C 2463.98 -1.22798 5.20408 0
M  V30 25204 C 2465.28 0.957023 5.13457 0
M  V30 25205 H 2466.97 0.819561 2.87965 0
M  V30 25206 H 2464.52 0.395562 1.3846 0
M  V30 25207 H 2466.47 -1.34847 3.99242 0
M  V30 25208 H 2465.19 -1.6868 2.79669 0
M  V30 25209 H 2463.85 0.264724 3.65643 0
M  V30 25210 H 2463.5 -2.02218 4.60561 0
M  V30 25211 H 2463.2 -0.760136 5.82663 0
M  V30 25212 H 2464.72 -1.69169 5.86698 0
M  V30 25213 H 2466.14 0.573905 5.7042 0
M  V30 25214 H 2464.54 1.35216 5.84668 0
M  V30 25215 H 2465.61 1.79532 4.5044 0
M  V30 25216 N 2466.95 -1.51228 0.443603 0
M  V30 25217 C 2467.88 -2.30784 -0.355102 0
M  V30 25218 C 2468.86 -1.3647 -1.01538 0
M  V30 25219 O 2470.04 -1.65391 -1.01782 0
M  V30 25220 C 2467.17 -3.15442 -1.45306 0
M  V30 25221 C 2466.13 -4.18085 -0.915929 0
M  V30 25222 C 2465.45 -4.91303 -2.11011 0
M  V30 25223 C 2466.75 -5.22272 0.053952 0
M  V30 25224 H 2468.45 -2.97803 0.308819 0
M  V30 25225 H 2465.99 -1.43217 0.149963 0
M  V30 25226 H 2467.95 -3.6988 -2.01908 0
M  V30 25227 H 2466.67 -2.46255 -2.14536 0
M  V30 25228 H 2465.33 -3.64707 -0.372081 0
M  V30 25229 H 2464.98 -4.18614 -2.78875 0
M  V30 25230 H 2464.68 -5.60715 -1.75707 0
M  V30 25231 H 2466.2 -5.48567 -2.68155 0
M  V30 25232 H 2467.62 -5.71745 -0.421969 0
M  V30 25233 H 2466.01 -5.99247 0.319881 0
M  V30 25234 H 2467.08 -4.74714 0.988663 0
M  V30 25235 N 2468.43 -0.175182 -1.56623 0
M  V30 25236 C 2469.67 0.468777 -1.96999 0
M  V30 25237 C 2470 1.62992 -1.06132 0
M  V30 25238 O 2469.26 1.95463 -0.0962114 0
M  V30 25239 C 2469.56 0.989803 -3.43421 0
M  V30 25240 C 2469.22 -0.055848 -4.50865 0
M  V30 25241 C 2467.88 -0.343219 -4.79974 0
M  V30 25242 C 2470.24 -0.765399 -5.15549 0
M  V30 25243 C 2467.56 -1.34546 -5.71064 0
M  V30 25244 C 2469.92 -1.75665 -6.07721 0
M  V30 25245 C 2468.58 -2.05143 -6.35195 0
M  V30 25246 H 2467.85 0.171538 -0.720872 0
M  V30 25247 H 2470.5 -0.267957 -1.89616 0
M  V30 25248 H 2468.8 1.80443 -3.47775 0
M  V30 25249 H 2470.5 1.49712 -3.72004 0
M  V30 25250 H 2467.09 0.178305 -4.28229 0
M  V30 25251 H 2471.27 -0.556599 -4.93169 0
M  V30 25252 H 2466.53 -1.57998 -5.90632 0
M  V30 25253 H 2470.7 -2.31181 -6.56908 0
M  V30 25254 H 2468.33 -2.82952 -7.05579 0
M  V30 25255 N 2469.91 1.57292 0.0985263 0
M  V30 25256 C 2471.15 1.85099 0.801326 0
M  V30 25257 C 2471.47 0.763934 1.80065 0
M  V30 25258 O 2472.67 0.929026 2.5511 0
M  V30 25259 C 2471.13 3.28244 1.47593 0
M  V30 25260 C 2470.74 4.45012 0.516546 0
M  V30 25261 C 2472.48 3.6528 2.16266 0
M  V30 25262 C 2470.39 5.7919 1.19554 0
M  V30 25263 H 2469.32 0.690436 0.30301 0
M  V30 25264 H 2471.97 1.8342 0.0542301 0
M  V30 25265 H 2470.35 3.24454 2.27036 0
M  V30 25266 H 2471.53 4.60142 -0.246146 0
M  V30 25267 H 2469.84 4.1635 -0.0643001 0
M  V30 25268 H 2472.44 4.62807 2.67794 0
M  V30 25269 H 2472.78 2.93732 2.95003 0
M  V30 25270 H 2473.31 3.70943 1.43686 0
M  V30 25271 H 2470.05 6.5396 0.449042 0
M  V30 25272 H 2469.57 5.67909 1.92974 0
M  V30 25273 H 2471.25 6.23636 1.72299 0
M  V30 25274 N 2471.38 -0.369261 1.53213 0
M  V30 25275 C 2472.29 -1.47606 1.82345 0
M  V30 25276 C 2473.31 -1.58785 0.71156 0
M  V30 25277 O 2474.49 -1.74749 1.00123 0
M  V30 25278 C 2471.55 -2.82916 2.00398 0
M  V30 25279 C 2470.61 -2.81295 3.24302 0
M  V30 25280 C 2469.84 -4.10151 3.41485 0
M  V30 25281 O 2470.07 -5.06127 2.63042 0
M  V30 25282 O 2469 -4.16187 4.34824 0
M  V30 25283 H 2472.83 -1.25913 2.76368 0
M  V30 25284 H 2470.41 -0.559009 1.38548 0
M  V30 25285 H 2472.29 -3.63097 2.13866 0
M  V30 25286 H 2470.97 -3.04594 1.09564 0
M  V30 25287 H 2469.88 -1.99825 3.1626 0
M  V30 25288 H 2471.21 -2.64571 4.15046 0
M  V30 25289 N 2472.86 -1.4451 -0.628851 0
M  V30 25290 C 2473.77 -1.54047 -1.76937 0
M  V30 25291 C 2474.79 -0.426016 -1.68704 0
M  V30 25292 O 2475.96 -0.683689 -1.8944 0
M  V30 25293 C 2473.03 -1.4841 -3.13329 0
M  V30 25294 C 2472.09 -2.70725 -3.33176 0
M  V30 25295 C 2471.32 -2.65348 -4.63062 0
M  V30 25296 O 2471.55 -1.71478 -5.44014 0
M  V30 25297 O 2470.48 -3.56234 -4.85161 0
M  V30 25298 H 2474.31 -2.50406 -1.71844 0
M  V30 25299 H 2471.89 -1.26782 -0.790355 0
M  V30 25300 H 2473.77 -1.47798 -3.94631 0
M  V30 25301 H 2472.45 -0.551955 -3.18959 0
M  V30 25302 H 2471.35 -2.76905 -2.51544 0
M  V30 25303 H 2472.69 -3.62994 -3.32409 0
M  V30 25304 N 2474.34 0.869463 -1.31446 0
M  V30 25305 C 2475.3 1.95828 -1.19097 0
M  V30 25306 C 2476.3 1.60367 -0.117934 0
M  V30 25307 O 2477.49 1.70285 -0.367238 0
M  V30 25308 C 2474.62 3.30686 -0.828223 0
M  V30 25309 H 2475.82 2.08208 -2.15846 0
M  V30 25310 H 2473.37 1.05782 -1.15065 0
M  V30 25311 H 2474.11 3.24006 0.138085 0
M  V30 25312 H 2473.89 3.57797 -1.60387 0
M  V30 25313 H 2475.38 4.1052 -0.76573 0
M  V30 25314 N 2475.82 1.14415 1.08383 0
M  V30 25315 C 2476.78 0.834086 2.13485 0
M  V30 25316 C 2477.78 -0.161389 1.59988 0
M  V30 25317 O 2478.97 0.0669881 1.74071 0
M  V30 25318 C 2476.1 0.243414 3.4003 0
M  V30 25319 H 2477.3 1.76555 2.42422 0
M  V30 25320 H 2474.85 0.950211 1.24099 0
M  V30 25321 H 2475.58 -0.696751 3.16727 0
M  V30 25322 H 2475.37 0.960434 3.80155 0
M  V30 25323 H 2476.86 0.0436976 4.17577 0
M  V30 25324 N 2477.3 -1.26549 0.939309 0
M  V30 25325 C 2478.54 -1.93456 0.584724 0
M  V30 25326 C 2478.86 -1.74078 -0.878743 0
M  V30 25327 O 2478.13 -1.0953 -1.62419 0
M  V30 25328 H 2476.71 -0.715911 0.213263 0
M  V30 25329 H 2479.38 -1.54027 1.19423 0
M  V30 25330 H 2478.47 -3.01649 0.800902 0
M  V30 25331 N 2478.77 -0.706118 -1.40896 0
M  V30 25332 C 2480.02 -0.241089 -2.00657 0
M  V30 25333 C 2480.34 1.16676 -1.56243 0
M  V30 25334 O 2479.61 1.78924 -0.797681 0
M  V30 25335 H 2478.19 -0.0861438 -0.742016 0
M  V30 25336 H 2480.85 -0.909635 -1.72371 0
M  V30 25337 H 2479.95 -0.266759 -3.10958 0
M  V30 25338 N 2480.25 1.50991 -0.451617 0
M  V30 25339 C 2481.18 2.30969 0.342857 0
M  V30 25340 C 2482.16 1.37007 1.00813 0
M  V30 25341 O 2483.35 1.65928 1.00904 0
M  V30 25342 C 2480.48 3.16208 1.43631 0
M  V30 25343 C 2479.43 4.18564 0.893744 0
M  V30 25344 C 2478.76 4.92415 2.08403 0
M  V30 25345 C 2480.06 5.22236 -0.0816486 0
M  V30 25346 H 2481.75 2.97635 -0.324608 0
M  V30 25347 H 2479.3 1.43135 -0.157556 0
M  V30 25348 H 2481.25 3.70945 1.99944 0
M  V30 25349 H 2479.97 2.4739 2.13227 0
M  V30 25350 H 2478.63 3.64899 0.352734 0
M  V30 25351 H 2478.28 4.20087 2.76651 0
M  V30 25352 H 2477.98 5.61639 1.72731 0
M  V30 25353 H 2479.51 5.49981 2.65242 0
M  V30 25354 H 2480.92 5.71961 0.391642 0
M  V30 25355 H 2479.32 5.99069 -0.351656 0
M  V30 25356 H 2480.39 4.74183 -1.01382 0
M  V30 25357 N 2481.73 0.183486 1.56528 0
M  V30 25358 C 2482.98 -0.457417 1.96856 0
M  V30 25359 C 2483.3 -1.62951 1.07107 0
M  V30 25360 O 2482.57 -1.954 0.139921 0
M  V30 25361 H 2481.15 -0.171979 0.726933 0
M  V30 25362 H 2483.81 0.26751 1.93055 0
M  V30 25363 H 2482.91 -0.809315 3.01424 0
M  V30 25364 N 2483.21 -1.57342 -0.0901833 0
M  V30 25365 C 2484.45 -1.86613 -0.793949 0
M  V30 25366 C 2484.79 -0.773284 -1.7814 0
M  V30 25367 O 2484.06 0.21827 -1.93271 0
M  V30 25368 C 2484.34 -3.26525 -1.51833 0
M  V30 25369 C 2484.2 -4.46443 -0.548531 0
M  V30 25370 C 2485.52 -3.64405 -2.46773 0
M  V30 25371 H 2482.64 -0.678749 -0.287174 0
M  V30 25372 H 2485.28 -1.89913 -0.0574742 0
M  V30 25373 H 2483.43 -3.23843 -2.14612 0
M  V30 25374 H 2485.1 -4.61243 0.0726324 0
M  V30 25375 H 2483.34 -4.33581 0.13769 0
M  V30 25376 H 2484.01 -5.41078 -1.09262 0
M  V30 25377 H 2486.49 -3.68064 -1.94083 0
M  V30 25378 H 2485.37 -4.63226 -2.94471 0
M  V30 25379 H 2485.63 -2.93352 -3.30753 0
M  V30 25380 N 2484.69 0.36113 -1.53407 0
M  V30 25381 C 2485.6 1.46637 -1.83125 0
M  V30 25382 C 2486.61 1.58406 -0.719971 0
M  V30 25383 O 2487.79 1.74216 -1.01049 0
M  V30 25384 C 2484.85 2.81849 -2.01896 0
M  V30 25385 C 2483.91 2.79571 -3.25789 0
M  V30 25386 C 2483.15 4.08334 -3.43655 0
M  V30 25387 O 2483.37 5.04725 -2.65723 0
M  V30 25388 O 2482.3 4.13875 -4.37025 0
M  V30 25389 H 2486.13 1.24446 -2.77032 0
M  V30 25390 H 2483.72 0.551654 -1.38842 0
M  V30 25391 H 2485.6 3.61958 -2.15788 0
M  V30 25392 H 2484.27 3.04008 -1.11178 0
M  V30 25393 H 2483.18 1.98145 -3.17316 0
M  V30 25394 H 2484.51 2.62366 -4.16443 0
M  V30 25395 N 2486.16 1.44842 0.621179 0
M  V30 25396 C 2487.58 1.28948 0.940458 0
M  V30 25397 C 2487.78 0.232525 2.00154 0
M  V30 25398 O 2486.84 -0.378193 2.49652 0
M  V30 25399 C 2488.15 2.66421 1.39428 0
M  V30 25400 C 2489.7 2.74211 1.50922 0
M  V30 25401 C 2490.17 4.12177 1.99685 0
M  V30 25402 N 2491.66 4.14403 2.0694 0
M  V30 25403 C 2492.4 5.18015 2.45862 0
M  V30 25404 N 2491.89 6.31982 2.83851 0
M  V30 25405 N 2493.69 5.05371 2.46083 0
M  V30 25406 H 2485.84 2.12248 -0.0803921 0
M  V30 25407 H 2488.1 0.947625 0.0266747 0
M  V30 25408 H 2487.81 3.44888 0.688864 0
M  V30 25409 H 2487.68 2.93977 2.36341 0
M  V30 25410 H 2490.07 1.96057 2.20558 0
M  V30 25411 H 2490.15 2.50384 0.523583 0
M  V30 25412 H 2489.79 4.90811 1.30641 0
M  V30 25413 H 2489.72 4.33387 2.99138 0
M  V30 25414 H 2492.21 3.32155 1.80226 0
M  V30 25415 H 2492.53 7.06846 3.12392 0
M  V30 25416 H 2490.87 6.35404 2.81578 0
M  V30 25417 H 2494.06 4.15388 2.15802 0
M  V30 25418 H 2494.24 5.8624 2.76092 0
M  V30 25419 N 2487.64 -0.862479 1.31905 0
M  V30 25420 C 2488.89 -1.61609 1.22019 0
M  V30 25421 C 2489.22 -1.93253 -0.219876 0
M  V30 25422 O 2488.47 -1.56819 -1.17073 0
M  V30 25423 C 2488.77 -2.95033 2.01718 0
M  V30 25424 C 2488.44 -2.82851 3.5115 0
M  V30 25425 C 2487.1 -2.79236 3.91894 0
M  V30 25426 C 2489.45 -2.69346 4.46209 0
M  V30 25427 C 2486.78 -2.59983 5.25952 0
M  V30 25428 C 2489.13 -2.51629 5.80401 0
M  V30 25429 C 2487.8 -2.46402 6.20357 0
M  V30 25430 H 2487.07 -0.59137 0.446501 0
M  V30 25431 H 2489.71 -1.00109 1.6325 0
M  V30 25432 H 2488.02 -3.6061 1.53191 0
M  V30 25433 H 2489.71 -3.5235 1.91444 0
M  V30 25434 H 2486.3 -2.86486 3.18785 0
M  V30 25435 H 2490.49 -2.71189 4.15656 0
M  V30 25436 H 2485.74 -2.54366 5.55975 0
M  V30 25437 H 2489.92 -2.40158 6.5368 0
M  V30 25438 H 2487.55 -2.31243 7.24176 0
M  V30 25439 N 2489.12 -1.14988 -1.07775 0
M  V30 25440 C 2490.37 -0.923454 -1.80555 0
M  V30 25441 C 2490.7 0.548304 -1.86299 0
M  V30 25442 O 2489.97 1.40637 -1.34356 0
M  V30 25443 C 2490.26 -1.53305 -3.25837 0
M  V30 25444 C 2490.11 -3.07511 -3.28264 0
M  V30 25445 C 2491.43 -1.21526 -4.22989 0
M  V30 25446 H 2488.55 -0.336906 -0.655487 0
M  V30 25447 H 2491.19 -1.42085 -1.26142 0
M  V30 25448 H 2489.34 -1.11006 -3.72304 0
M  V30 25449 H 2491.01 -3.58686 -2.90073 0
M  V30 25450 H 2489.26 -3.41624 -2.67349 0
M  V30 25451 H 2489.93 -3.45274 -4.30685 0
M  V30 25452 H 2492.4 -1.58107 -3.84891 0
M  V30 25453 H 2491.28 -1.66802 -5.22942 0
M  V30 25454 H 2491.54 -0.131582 -4.41904 0
M  V30 25455 N 2490.6 1.26049 -0.946007 0
M  V30 25456 C 2491.51 2.29932 -0.465673 0
M  V30 25457 C 2492.52 1.67734 0.462731 0
M  V30 25458 O 2493.7 1.98491 0.341083 0
M  V30 25459 C 2490.77 3.45747 0.256933 0
M  V30 25460 C 2489.83 4.23411 -0.708623 0
M  V30 25461 C 2489.06 5.33696 -0.0204074 0
M  V30 25462 O 2489.28 5.57729 1.19562 0
M  V30 25463 O 2488.22 5.97797 -0.701564 0
M  V30 25464 H 2492.04 2.73092 -1.32871 0
M  V30 25465 H 2489.63 1.31338 -0.712094 0
M  V30 25466 H 2491.51 4.16139 0.663779 0
M  V30 25467 H 2490.18 3.04607 1.09528 0
M  V30 25468 H 2489.09 3.55481 -1.16551 0
M  V30 25469 H 2490.42 4.68313 -1.51473 0
M  V30 25470 N 2492.08 0.71358 1.4052 0
M  V30 25471 C 2493.33 0.249228 2.00154 0
M  V30 25472 C 2493.64 -1.16359 1.57226 0
M  V30 25473 O 2494.84 -1.72635 2.09545 0
M  V30 25474 C 2493.3 0.394663 3.5773 0
M  V30 25475 C 2492.91 1.814 4.09632 0
M  V30 25476 C 2494.65 -0.00899903 4.24499 0
M  V30 25477 C 2492.56 1.91012 5.59704 0
M  V30 25478 H 2491.49 0.0894246 0.748678 0
M  V30 25479 H 2494.14 0.88438 1.60782 0
M  V30 25480 H 2492.52 -0.30904 3.94792 0
M  V30 25481 H 2493.7 2.54791 3.8395 0
M  V30 25482 H 2492.01 2.16894 3.55452 0
M  V30 25483 H 2494.61 0.0421344 5.34683 0
M  V30 25484 H 2494.95 -1.05058 4.02826 0
M  V30 25485 H 2495.48 0.645076 3.92535 0
M  V30 25486 H 2492.22 2.93285 5.86229 0
M  V30 25487 H 2491.74 1.22029 5.87255 0
M  V30 25488 H 2493.42 1.68131 6.24773 0
M  V30 25489 N 2493.55 -1.50749 0.459618 0
M  V30 25490 C 2494.8 -2.01857 -0.0991177 0
M  V30 25491 C 2495.12 -1.34443 -1.41245 0
M  V30 25492 O 2494.39 -0.486055 -1.89774 0
M  V30 25493 H 2492.97 -0.745949 -0.0396199 0
M  V30 25494 H 2495.64 -1.85193 0.60742 0
M  V30 25495 H 2494.73 -3.11024 -0.258943 0
M  V30 25496 N 2495.03 -0.191784 -1.56429 0
M  V30 25497 C 2496.28 0.448519 -1.97778 0
M  V30 25498 C 2496.61 1.61499 -1.0785 0
M  V30 25499 O 2495.89 1.94066 -0.129808 0
M  V30 25500 C 2496.17 0.911845 -3.48364 0
M  V30 25501 C 2496.02 -0.256215 -4.4907 0
M  V30 25502 C 2497.34 1.77849 -4.02564 0
M  V30 25503 H 2494.46 0.16156 -0.719074 0
M  V30 25504 H 2497.1 -0.28204 -1.87895 0
M  V30 25505 H 2495.25 1.53436 -3.56917 0
M  V30 25506 H 2496.92 -0.893812 -4.52558 0
M  V30 25507 H 2495.17 -0.90851 -4.2418 0
M  V30 25508 H 2495.84 0.110433 -5.5189 0
M  V30 25509 H 2498.31 1.25352 -3.9677 0
M  V30 25510 H 2497.19 2.07165 -5.08305 0
M  V30 25511 H 2497.45 2.73152 -3.47621 0
M  V30 25512 N 2496.51 1.57387 0.0818378 0
M  V30 25513 C 2497.46 2.02992 1.0983 0
M  V30 25514 C 2498.43 0.908663 1.39041 0
M  V30 25515 O 2499.61 1.17561 1.5028 0
M  V30 25516 C 2496.75 2.47041 2.40966 0
M  V30 25517 C 2495.87 3.72743 2.18372 0
M  V30 25518 C 2495 4.05616 3.43 0
M  V30 25519 C 2494.04 5.24389 3.15726 0
M  V30 25520 N 2493.18 5.52948 4.32657 0
M  V30 25521 H 2498.02 2.89603 0.702421 0
M  V30 25522 H 2495.55 1.43228 0.335285 0
M  V30 25523 H 2497.51 2.70628 3.17516 0
M  V30 25524 H 2496.14 1.63422 2.78376 0
M  V30 25525 H 2495.19 3.56555 1.32562 0
M  V30 25526 H 2496.51 4.59435 1.94219 0
M  V30 25527 H 2495.66 4.3005 4.27951 0
M  V30 25528 H 2494.4 3.17472 3.7022 0
M  V30 25529 H 2493.4 4.99761 2.29171 0
M  V30 25530 H 2494.63 6.14142 2.8984 0
M  V30 25531 H 2492.57 4.67764 4.59927 0
M  V30 25532 H 2492.49 6.34038 4.11742 0
M  V30 25533 H 2493.76 5.81927 5.18634 0
M  V30 25534 N 2497.99 -0.35299 1.53596 0
M  V30 25535 C 2499.21 -1.11901 1.74622 0
M  V30 25536 C 2499.64 -1.81879 0.479753 0
M  V30 25537 O 2499 -1.72205 -0.567035 0
M  V30 25538 C 2499.04 -2.1154 2.92033 0
M  V30 25539 O 2498.15 -3.18874 2.61521 0
M  V30 25540 H 2497.49 -0.324089 0.579537 0
M  V30 25541 H 2500.02 -0.406266 2.00526 0
M  V30 25542 H 2500.03 -2.54925 3.18555 0
M  V30 25543 H 2498.7 -1.60001 3.83891 0
M  V30 25544 H 2497.28 -2.80373 2.45857 0
M  V30 25545 N 2499.47 -1.45169 -0.613489 0
M  V30 25546 C 2500.69 -1.5262 -1.40434 0
M  V30 25547 C 2501.12 -0.15774 -1.87437 0
M  V30 25548 O 2500.48 0.856509 -1.59792 0
M  V30 25549 C 2500.52 -2.51016 -2.58889 0
M  V30 25550 O 2499.63 -2.02388 -3.59323 0
M  V30 25551 H 2498.97 -0.514702 -0.419497 0
M  V30 25552 H 2501.5 -1.90469 -0.747181 0
M  V30 25553 H 2501.51 -2.69629 -3.06209 0
M  V30 25554 H 2500.18 -3.50407 -2.24026 0
M  V30 25555 H 2498.76 -1.93624 -3.18692 0
M  V30 25556 N 2500.95 0.855472 -1.32361 0
M  V30 25557 C 2502.36 1.42553 -1.20563 0
M  V30 25558 C 2502.71 1.95352 0.182175 0
M  V30 25559 O 2501.83 1.87474 1.08085 0
M  V30 25560 C 2502.43 2.59125 -2.18265 0
M  V30 25561 C 2500.99 3.12133 -2.10356 0
M  V30 25562 C 2500.13 1.84878 -2.06677 0
M  V30 25563 H 2503.08 0.662702 -1.44201 0
M  V30 25564 H 2503.11 3.36261 -1.7807 0
M  V30 25565 H 2502.62 2.20667 -3.19261 0
M  V30 25566 H 2500.72 3.55177 -1.12605 0
M  V30 25567 H 2500.83 3.73433 -3.00141 0
M  V30 25568 H 2499.2 2.04444 -1.51904 0
M  V30 25569 H 2499.98 1.48638 -3.09454 0
M  V30 25570 N 2502.42 1.15558 1.07164 0
M  V30 25571 C 2503.65 0.955551 1.83512 0
M  V30 25572 C 2504.07 -0.496178 1.82163 0
M  V30 25573 O 2503.42 -1.34417 1.23443 0
M  V30 25574 C 2503.47 1.46438 3.30512 0
M  V30 25575 O 2503.2 2.85924 3.31932 0
M  V30 25576 C 2504.7 1.3061 4.23622 0
M  V30 25577 H 2501.92 0.339254 0.57892 0
M  V30 25578 H 2504.46 1.53376 1.35263 0
M  V30 25579 H 2502.62 0.92865 3.76105 0
M  V30 25580 H 2503.03 3.09036 4.23789 0
M  V30 25581 H 2504.5 1.71056 5.24828 0
M  V30 25582 H 2504.98 0.250518 4.38485 0
M  V30 25583 H 2505.59 1.83101 3.83867 0
M  V30 25584 N 2503.9 -1.25546 0.952678 0
M  V30 25585 C 2505.15 -1.93493 0.607306 0
M  V30 25586 C 2505.48 -1.74453 -0.853214 0
M  V30 25587 O 2504.76 -1.08845 -1.61192 0
M  V30 25588 C 2505.04 -3.46945 0.964411 0
M  V30 25589 C 2504.89 -3.7522 2.48052 0
M  V30 25590 C 2506.21 -4.37385 0.488064 0
M  V30 25591 H 2503.33 -0.702735 0.222108 0
M  V30 25592 H 2505.97 -1.482 1.18898 0
M  V30 25593 H 2504.12 -3.85653 0.469429 0
M  V30 25594 H 2505.79 -3.4616 3.04911 0
M  V30 25595 H 2504.04 -3.20895 2.91906 0
M  V30 25596 H 2504.71 -4.82527 2.68089 0
M  V30 25597 H 2507.18 -4.05968 0.912629 0
M  V30 25598 H 2506.06 -5.4352 0.766643 0
M  V30 25599 H 2506.32 -4.37844 -0.611986 0
M  V30 25600 N 2505.38 -0.721022 -1.40139 0
M  V30 25601 C 2506.34 -0.0806236 -2.29058 0
M  V30 25602 C 2507.34 0.681733 -1.45633 0
M  V30 25603 O 2508.53 0.512827 -1.6648 0
M  V30 25604 C 2505.66 0.895535 -3.28927 0
M  V30 25605 H 2506.86 -0.863843 -2.87189 0
M  V30 25606 H 2504.41 -0.486001 -1.48552 0
M  V30 25607 H 2505.15 1.70561 -2.75825 0
M  V30 25608 H 2504.93 0.351698 -3.9052 0
M  V30 25609 H 2506.42 1.34062 -3.95496 0
M  V30 25610 N 2506.86 1.50503 -0.467606 0
M  V30 25611 C 2508.11 2.01907 0.0884114 0
M  V30 25612 C 2508.43 1.3519 1.4053 0
M  V30 25613 O 2507.7 0.496112 1.89514 0
M  V30 25614 H 2506.28 0.746148 0.0356634 0
M  V30 25615 H 2508.94 1.84868 -0.617232 0
M  V30 25616 H 2508.03 3.11157 0.242445 0
M  V30 25617 N 2508.34 0.200077 1.56325 0
M  V30 25618 C 2509.27 -0.713877 2.2232 0
M  V30 25619 C 2510.25 -1.2175 1.1879 0
M  V30 25620 O 2511.43 -1.26543 1.47311 0
M  V30 25621 C 2508.56 -1.93139 2.88643 0
M  V30 25622 C 2507.52 -1.56248 3.9846 0
M  V30 25623 C 2506.84 -2.85701 4.51972 0
M  V30 25624 C 2508.14 -0.768656 5.16613 0
M  V30 25625 H 2509.84 -0.163702 2.98952 0
M  V30 25626 H 2507.38 -0.0772966 1.43792 0
M  V30 25627 H 2509.33 -2.57602 3.33495 0
M  V30 25628 H 2508.06 -2.50618 2.09424 0
M  V30 25629 H 2506.72 -0.941409 3.54306 0
M  V30 25630 H 2506.37 -3.4128 3.69509 0
M  V30 25631 H 2506.07 -2.61761 5.26075 0
M  V30 25632 H 2507.59 -3.51145 4.99529 0
M  V30 25633 H 2509 -1.3165 5.57979 0
M  V30 25634 H 2507.4 -0.627181 5.96814 0
M  V30 25635 H 2508.47 0.229253 4.84358 0
M  V30 25636 N 2509.81 -1.57429 -0.0734901 0
M  V30 25637 C 2510.78 -2.02591 -1.07189 0
M  V30 25638 C 2511.78 -0.922684 -1.31694 0
M  V30 25639 O 2512.97 -1.1876 -1.27443 0
M  V30 25640 C 2510.1 -2.4051 -2.41594 0
M  V30 25641 H 2511.29 -2.92027 -0.682676 0
M  V30 25642 H 2508.84 -1.53007 -0.319167 0
M  V30 25643 H 2509.58 -1.54095 -2.85351 0
M  V30 25644 H 2509.36 -3.21013 -2.25151 0
M  V30 25645 H 2510.85 -2.76033 -3.13362 0
M  V30 25646 N 2511.29 0.344839 -1.53781 0
M  V30 25647 C 2512.52 1.10531 -1.74901 0
M  V30 25648 C 2512.93 1.82396 -0.487566 0
M  V30 25649 O 2512.29 1.74306 0.54071 0
M  V30 25650 C 2512.34 2.11979 -2.92826 0
M  V30 25651 O 2512.06 1.43037 -4.14092 0
M  V30 25652 C 2513.56 3.00412 -3.25987 0
M  V30 25653 H 2510.78 0.329668 -0.584431 0
M  V30 25654 H 2513.33 0.397439 -2.00601 0
M  V30 25655 H 2511.48 2.78333 -2.69462 0
M  V30 25656 H 2511.9 2.10797 -4.80276 0
M  V30 25657 H 2513.37 3.67532 -4.11854 0
M  V30 25658 H 2513.85 3.66359 -2.42235 0
M  V30 25659 H 2514.45 2.39648 -3.51353 0
M  V30 25660 N 2512.77 1.45492 0.605781 0
M  V30 25661 C 2513.72 1.54639 1.73752 0
M  V30 25662 C 2514.71 0.416248 1.64206 0
M  V30 25663 O 2515.92 0.592229 1.69978 0
M  V30 25664 H 2512.29 0.485751 0.574064 0
M  V30 25665 H 2514.26 2.4984 1.63165 0
M  V30 25666 C 2513.01 1.53195 3.12132 0
M  V30 25667 H 2512.34 2.39483 3.20137 0
M  V30 25668 H 2513.78 1.63652 3.91144 0
M  V30 25669 C 2512.23 0.256675 3.35921 0
M  V30 25670 O 2512.76 -0.662728 3.96195 0
M  V30 25671 N 2510.97 0.151802 2.90203 0
M  V30 25672 H 2510.52 0.900852 2.41335 0
M  V30 25673 H 2510.48 -0.700646 3.06494 0
M  V30 25674 N 2514.25 -0.848441 1.32813 0
M  V30 25675 C 2515.48 -1.63536 1.26742 0
M  V30 25676 C 2515.89 -1.88091 -0.163451 0
M  V30 25677 O 2515.25 -1.45431 -1.10255 0
M  V30 25678 C 2515.3 -2.99108 2.03018 0
M  V30 25679 O 2515.02 -2.75637 3.40523 0
M  V30 25680 C 2516.52 -3.93549 2.04045 0
M  V30 25681 H 2513.74 -0.509159 0.437033 0
M  V30 25682 H 2516.29 -1.0575 1.75035 0
M  V30 25683 H 2514.44 -3.53522 1.58432 0
M  V30 25684 H 2514.85 -3.61901 3.79642 0
M  V30 25685 H 2516.33 -4.85922 2.61886 0
M  V30 25686 H 2516.81 -4.26993 1.02827 0
M  V30 25687 H 2517.41 -3.45072 2.48606 0
M  V30 25688 N 2515.73 -1.16125 -1.06549 0
M  V30 25689 C 2516.66 -0.888548 -2.15933 0
M  V30 25690 C 2517.64 0.164105 -1.69307 0
M  V30 25691 O 2518.82 0.0167515 -1.94193 0
M  V30 25692 C 2515.95 -0.386003 -3.45148 0
M  V30 25693 C 2514.91 -1.37627 -4.05269 0
M  V30 25694 C 2514.23 -0.73223 -5.29663 0
M  V30 25695 C 2515.53 -2.745 -4.4435 0
M  V30 25696 H 2517.23 -1.80327 -2.39003 0
M  V30 25697 H 2514.77 -0.868455 -1.14865 0
M  V30 25698 H 2516.73 -0.182721 -4.21004 0
M  V30 25699 H 2515.45 0.564218 -3.2169 0
M  V30 25700 H 2514.11 -1.56605 -3.31467 0
M  V30 25701 H 2513.76 0.224394 -5.02499 0
M  V30 25702 H 2513.46 -1.39317 -5.70846 0
M  V30 25703 H 2514.98 -0.538909 -6.08217 0
M  V30 25704 H 2516.39 -2.5932 -5.11299 0
M  V30 25705 H 2514.79 -3.37044 -4.96509 0
M  V30 25706 H 2515.86 -3.29949 -3.55333 0
M  V30 25707 N 2517.2 1.25039 -0.959323 0
M  V30 25708 C 2518.15 2.25709 -0.482097 0
M  V30 25709 C 2519.12 1.59373 0.467911 0
M  V30 25710 O 2520.31 1.86975 0.380126 0
M  V30 25711 C 2517.45 3.44336 0.229562 0
M  V30 25712 C 2516.56 4.25294 -0.758231 0
M  V30 25713 C 2515.69 5.31195 -0.0235337 0
M  V30 25714 C 2514.73 6.03844 -1.00195 0
M  V30 25715 N 2513.87 7.01468 -0.297814 0
M  V30 25716 H 2518.71 2.65899 -1.34543 0
M  V30 25717 H 2516.25 1.30719 -0.674615 0
M  V30 25718 H 2518.21 4.11966 0.658784 0
M  V30 25719 H 2516.84 3.05007 1.05691 0
M  V30 25720 H 2515.89 3.57281 -1.30592 0
M  V30 25721 H 2517.2 4.75564 -1.50467 0
M  V30 25722 H 2516.35 6.04922 0.464095 0
M  V30 25723 H 2515.09 4.8181 0.755657 0
M  V30 25724 H 2514.1 5.28927 -1.50053 0
M  V30 25725 H 2515.32 6.55318 -1.78145 0
M  V30 25726 H 2513.27 6.54367 0.462553 0
M  V30 25727 H 2513.19 7.49579 -0.98326 0
M  V30 25728 H 2514.45 7.79319 0.168123 0
M  V30 25729 N 2518.68 0.728444 1.39755 0
M  V30 25730 C 2519.61 0.0991764 2.33289 0
M  V30 25731 C 2520.59 -0.731462 1.5357 0
M  V30 25732 O 2521.78 -0.677775 1.81989 0
M  V30 25733 C 2518.91 -0.813774 3.37631 0
M  V30 25734 C 2517.86 -0.0877911 4.2791 0
M  V30 25735 C 2517.19 -1.11732 5.22896 0
M  V30 25736 C 2518.49 1.06572 5.11312 0
M  V30 25737 H 2520.18 0.880458 2.86161 0
M  V30 25738 H 2517.73 0.424843 1.3759 0
M  V30 25739 H 2519.68 -1.26348 4.02013 0
M  V30 25740 H 2518.41 -1.6271 2.83184 0
M  V30 25741 H 2517.06 0.342223 3.64999 0
M  V30 25742 H 2516.71 -1.92403 4.64747 0
M  V30 25743 H 2516.41 -0.636374 5.84144 0
M  V30 25744 H 2517.94 -1.56686 5.90154 0
M  V30 25745 H 2519.35 0.694771 5.69075 0
M  V30 25746 H 2517.75 1.47587 5.81668 0
M  V30 25747 H 2518.82 1.89046 4.46531 0
M  V30 25748 N 2520.16 -1.50253 0.475581 0
M  V30 25749 C 2521.57 -1.86688 0.0215502 0
M  V30 25750 C 2521.92 -1.39003 -1.38465 0
M  V30 25751 O 2521.05 -0.75693 -2.0273 0
M  V30 25752 C 2521.64 -3.38785 0.032331 0
M  V30 25753 C 2520.2 -3.74614 -0.366248 0
M  V30 25754 C 2519.35 -2.74164 0.415881 0
M  V30 25755 H 2522.3 -1.42932 0.689637 0
M  V30 25756 H 2522.32 -3.72652 -0.768824 0
M  V30 25757 H 2521.83 -3.7346 1.0559 0
M  V30 25758 H 2519.93 -3.45541 -1.394 0
M  V30 25759 H 2520.05 -4.79057 -0.0644708 0
M  V30 25760 H 2518.41 -2.54363 -0.131003 0
M  V30 25761 H 2519.19 -3.11683 1.43905 0
M  V30 25762 N 2521.64 -0.208365 -1.56217 0
M  V30 25763 C 2522.55 0.718796 -2.23317 0
M  V30 25764 C 2523.56 1.2242 -1.2365 0
M  V30 25765 O 2524.74 1.26858 -1.56426 0
M  V30 25766 C 2521.81 1.91563 -2.88971 0
M  V30 25767 C 2520.87 1.4535 -4.03945 0
M  V30 25768 C 2520.1 2.59329 -4.66459 0
M  V30 25769 O 2520.32 3.77141 -4.27926 0
M  V30 25770 O 2519.26 2.31283 -5.5569 0
M  V30 25771 H 2523.08 0.177262 -3.03182 0
M  V30 25772 H 2520.67 0.0215139 -1.49385 0
M  V30 25773 H 2522.55 2.61486 -3.30459 0
M  V30 25774 H 2521.22 2.44552 -2.12076 0
M  V30 25775 H 2520.13 0.722681 -3.67053 0
M  V30 25776 H 2521.46 0.970134 -4.82545 0
M  V30 25777 N 2523.12 1.57465 0.0651402 0
M  V30 25778 C 2524.35 1.91527 0.77465 0
M  V30 25779 C 2524.75 0.803227 1.71304 0
M  V30 25780 O 2524.1 -0.231849 1.82231 0
M  V30 25781 C 2524.16 3.21112 1.6164 0
M  V30 25782 C 2523.82 4.49088 0.846674 0
M  V30 25783 C 2524.82 5.19645 0.162933 0
M  V30 25784 C 2522.51 4.95695 0.811879 0
M  V30 25785 C 2524.5 6.35063 -0.545301 0
M  V30 25786 C 2522.19 6.11018 0.0998762 0
M  V30 25787 C 2523.18 6.80554 -0.577507 0
M  V30 25788 O 2522.87 7.93676 -1.27803 0
M  V30 25789 H 2522.6 0.63745 0.225019 0
M  V30 25790 H 2525.16 2.05365 0.0376773 0
M  V30 25791 H 2523.39 3.03501 2.39633 0
M  V30 25792 H 2525.08 3.40773 2.20519 0
M  V30 25793 H 2525.84 4.84662 0.181078 0
M  V30 25794 H 2521.72 4.4144 1.32859 0
M  V30 25795 H 2525.27 6.89274 -1.07458 0
M  V30 25796 H 2521.16 6.45451 0.0796811 0
M  V30 25797 H 2521.93 8.09833 -1.18798 0
M  V30 25798 N 2524.59 -0.336679 1.53962 0
M  V30 25799 C 2525.56 -1.39672 1.81726 0
M  V30 25800 C 2526.56 -1.45312 0.688558 0
M  V30 25801 O 2527.75 -1.45568 0.956854 0
M  V30 25802 C 2524.88 -2.78535 1.96548 0
M  V30 25803 H 2526.07 -1.16314 2.76426 0
M  V30 25804 H 2523.63 -0.571448 1.45479 0
M  V30 25805 H 2524.36 -3.07167 1.04015 0
M  V30 25806 H 2524.15 -2.75836 2.7867 0
M  V30 25807 H 2525.64 -3.55246 2.19522 0
M  V30 25808 N 2526.07 -1.45812 -0.598057 0
M  V30 25809 C 2527.02 -1.51632 -1.7027 0
M  V30 25810 C 2528.01 -0.378656 -1.56381 0
M  V30 25811 O 2529.2 -0.626116 -1.65556 0
M  V30 25812 C 2526.33 -1.49498 -3.09039 0
M  V30 25813 C 2525.41 -2.68502 -3.2828 0
M  V30 25814 N 2525.8 -3.93541 -3.17741 0
M  V30 25815 C 2524.1 -2.64401 -3.59177 0
M  V30 25816 C 2524.8 -4.73016 -3.38571 0
M  V30 25817 N 2523.78 -4.0463 -3.63009 0
M  V30 25818 H 2527.58 -2.46121 -1.60629 0
M  V30 25819 H 2525.1 -1.41237 -0.801617 0
M  V30 25820 H 2527.09 -1.51754 -3.88299 0
M  V30 25821 H 2525.75 -0.560739 -3.19822 0
M  V30 25822 H 2526.76 -4.2502 -2.95937 0
M  V30 25823 H 2523.44 -1.79929 -3.76738 0
M  V30 25824 H 2524.83 -5.82006 -3.35736 0
M  V30 25825 N 2527.55 0.841385 -1.33261 0
M  V30 25826 C 2528.78 1.63383 -1.27753 0
M  V30 25827 C 2529.2 1.87508 0.149155 0
M  V30 25828 O 2528.56 1.43738 1.10495 0
M  V30 25829 C 2528.61 2.96261 -2.05576 0
M  V30 25830 O 2527.71 3.87451 -1.41264 0
M  V30 25831 H 2527.05 0.49761 -0.439636 0
M  V30 25832 H 2529.58 1.04696 -1.75784 0
M  V30 25833 H 2529.59 3.45979 -2.16247 0
M  V30 25834 H 2528.27 2.78025 -3.09314 0
M  V30 25835 H 2526.84 3.45935 -1.39223 0
M  V30 25836 N 2529.03 1.16688 1.05932 0
M  V30 25837 C 2530.26 0.974961 1.82489 0
M  V30 25838 C 2530.67 -0.476829 1.82679 0
M  V30 25839 O 2530.03 -1.331 1.24862 0
M  V30 25840 C 2530.08 1.49935 3.2894 0
M  V30 25841 O 2529.8 2.89428 3.28881 0
M  V30 25842 C 2531.3 1.35096 4.22213 0
M  V30 25843 H 2528.52 0.345375 0.575289 0
M  V30 25844 H 2531.07 1.54802 1.33628 0
M  V30 25845 H 2529.22 0.968489 3.75099 0
M  V30 25846 H 2529.64 3.13514 4.20487 0
M  V30 25847 H 2531.11 1.76613 5.22984 0
M  V30 25848 H 2531.59 0.297012 4.38195 0
M  V30 25849 H 2532.19 1.87162 3.81904 0
M  V30 25850 N 2530.51 -1.24529 0.96594 0
M  V30 25851 C 2531.75 -1.92838 0.627794 0
M  V30 25852 C 2532.09 -1.75348 -0.834663 0
M  V30 25853 O 2531.36 -1.10549 -1.60029 0
M  V30 25854 C 2531.64 -3.45903 1.00115 0
M  V30 25855 C 2531.5 -3.72568 2.52018 0
M  V30 25856 C 2532.82 -4.36843 0.534427 0
M  V30 25857 H 2529.94 -0.70034 0.229549 0
M  V30 25858 H 2532.58 -1.46931 1.20463 0
M  V30 25859 H 2530.73 -3.85134 0.510306 0
M  V30 25860 H 2532.4 -3.42907 3.08565 0
M  V30 25861 H 2530.64 -3.17781 2.95293 0
M  V30 25862 H 2531.31 -4.79657 2.73191 0
M  V30 25863 H 2533.79 -4.04978 0.955636 0
M  V30 25864 H 2532.67 -5.42676 0.824247 0
M  V30 25865 H 2532.93 -4.38468 -0.565512 0
M  V30 25866 N 2531.99 -0.735845 -1.39367 0
M  V30 25867 C 2532.9 -0.0980105 -2.34395 0
M  V30 25868 C 2533.91 0.72094 -1.58362 0
M  V30 25869 O 2535.09 0.649211 -1.90649 0
M  V30 25870 C 2532.15 0.797857 -3.37395 0
M  V30 25871 C 2531.21 -0.0334417 -4.29287 0
M  V30 25872 C 2530.45 0.819761 -5.27367 0
M  V30 25873 O 2530.67 2.05845 -5.31962 0
M  V30 25874 O 2529.6 0.247973 -6.01389 0
M  V30 25875 H 2533.43 -0.882366 -2.90599 0
M  V30 25876 H 2531.01 -0.496525 -1.40908 0
M  V30 25877 H 2532.9 1.31041 -4.00507 0
M  V30 25878 H 2531.57 1.56101 -2.83574 0
M  V30 25879 H 2530.48 -0.59154 -3.69394 0
M  V30 25880 H 2531.81 -0.758837 -4.86315 0
M  V30 25881 N 2533.46 1.49999 -0.483543 0
M  V30 25882 C 2534.71 2.02689 0.0672236 0
M  V30 25883 C 2535.04 1.36389 1.38245 0
M  V30 25884 O 2534.32 0.493708 1.8813 0
M  V30 25885 C 2534.6 3.59312 0.238046 0
M  V30 25886 C 2534.45 4.36166 -1.09907 0
M  V30 25887 C 2535.77 4.28893 0.98684 0
M  V30 25888 H 2532.89 0.736642 0.0229566 0
M  V30 25889 H 2535.53 1.79196 -0.631558 0
M  V30 25890 H 2533.68 3.79459 0.833233 0
M  V30 25891 H 2535.36 4.27559 -1.7318 0
M  V30 25892 H 2533.6 3.99413 -1.69268 0
M  V30 25893 H 2534.27 5.44057 -0.93305 0
M  V30 25894 H 2536.75 4.13296 0.48223 0
M  V30 25895 H 2535.62 5.38267 1.07518 0
M  V30 25896 H 2535.88 3.92923 2.02643 0
M  V30 25897 N 2534.94 0.216646 1.56104 0
M  V30 25898 C 2535.87 -0.690257 2.23064 0
M  V30 25899 C 2536.85 -1.20483 1.20074 0
M  V30 25900 O 2538.04 -1.24973 1.48645 0
M  V30 25901 C 2535.17 -1.90066 2.90675 0
M  V30 25902 C 2534.12 -1.52013 4.00095 0
M  V30 25903 C 2533.45 -2.80891 4.54977 0
M  V30 25904 C 2534.75 -0.713819 5.17399 0
M  V30 25905 H 2536.44 -0.131985 2.99109 0
M  V30 25906 H 2533.99 -0.0620411 1.43866 0
M  V30 25907 H 2535.94 -2.54051 3.36209 0
M  V30 25908 H 2534.66 -2.48382 2.1207 0
M  V30 25909 H 2533.32 -0.903777 3.55285 0
M  V30 25910 H 2532.97 -3.37342 3.73108 0
M  V30 25911 H 2532.67 -2.56166 5.28822 0
M  V30 25912 H 2534.2 -3.45827 5.03226 0
M  V30 25913 H 2535.61 -1.25725 5.59344 0
M  V30 25914 H 2534.01 -0.563846 5.97445 0
M  V30 25915 H 2535.08 0.280613 4.84087 0
M  V30 25916 N 2536.42 -1.57498 -0.0567885 0
M  V30 25917 C 2537.37 -2.05771 -1.08449 0
M  V30 25918 C 2538.36 -0.965927 -1.39163 0
M  V30 25919 O 2539.57 -1.15097 -1.38393 0
M  V30 25920 H 2535.94 -0.656289 -0.367136 0
M  V30 25921 H 2537.91 -2.91205 -0.651317 0
M  V30 25922 C 2536.66 -2.52972 -2.38538 0
M  V30 25923 H 2535.99 -3.36583 -2.15759 0
M  V30 25924 H 2537.43 -2.90487 -3.08858 0
M  V30 25925 C 2535.88 -1.41898 -3.05559 0
M  V30 25926 O 2536.41 -0.769512 -3.94261 0
M  V30 25927 N 2534.62 -1.16037 -2.66428 0
M  V30 25928 H 2534.17 -1.69034 -1.94384 0
M  V30 25929 H 2534.13 -0.419274 -3.11592 0
M  V30 25930 N 2537.9 0.328509 -1.54138 0
M  V30 25931 C 2538.86 1.38706 -1.82465 0
M  V30 25932 C 2539.86 1.44945 -0.696254 0
M  V30 25933 O 2541.05 1.45058 -0.964561 0
M  V30 25934 C 2538.18 2.77488 -1.98023 0
M  V30 25935 H 2539.38 1.14846 -2.77039 0
M  V30 25936 H 2536.93 0.563725 -1.4578 0
M  V30 25937 H 2537.66 3.06611 -1.05643 0
M  V30 25938 H 2537.45 2.74354 -2.80129 0
M  V30 25939 H 2538.94 3.54077 -2.21403 0
M  V30 25940 N 2539.38 1.46127 0.590316 0
M  V30 25941 C 2540.29 1.58684 1.7279 0
M  V30 25942 C 2541.3 0.470595 1.67515 0
M  V30 25943 O 2542.48 0.733675 1.87561 0
M  V30 25944 C 2539.54 1.56666 3.09284 0
M  V30 25945 C 2538.6 2.79463 3.25881 0
M  V30 25946 C 2537.84 2.77532 4.55864 0
M  V30 25947 O 2538.06 1.85842 5.39276 0
M  V30 25948 O 2536.99 3.68972 4.75545 0
M  V30 25949 H 2540.82 2.54875 1.65144 0
M  V30 25950 H 2538.4 1.28833 0.756463 0
M  V30 25951 H 2540.29 1.58209 3.90574 0
M  V30 25952 H 2538.96 0.636327 3.17384 0
M  V30 25953 H 2537.87 2.83477 2.44114 0
M  V30 25954 H 2539.2 3.7168 3.22668 0
M  V30 25955 N 2540.85 -0.834306 1.33705 0
M  V30 25956 C 2542.27 -1.12569 1.13139 0
M  V30 25957 C 2542.47 -2.01362 -0.0746907 0
M  V30 25958 O 2541.53 -2.40992 -0.753605 0
M  V30 25959 C 2542.84 -1.78338 2.42108 0
M  V30 25960 C 2544.39 -1.90883 2.48058 0
M  V30 25961 C 2544.86 -2.60068 3.77 0
M  V30 25962 N 2546.35 -2.67577 3.78096 0
M  V30 25963 C 2547.09 -3.2181 4.7458 0
M  V30 25964 N 2546.58 -3.76694 5.81441 0
M  V30 25965 N 2548.38 -3.20104 4.62049 0
M  V30 25966 H 2540.53 -0.243452 2.11 0
M  V30 25967 H 2542.79 -0.170533 0.932535 0
M  V30 25968 H 2542.5 -1.20555 3.30393 0
M  V30 25969 H 2542.37 -2.78315 2.54599 0
M  V30 25970 H 2544.76 -2.47818 1.60219 0
M  V30 25971 H 2544.84 -0.898417 2.39504 0
M  V30 25972 H 2544.48 -2.03791 4.65222 0
M  V30 25973 H 2544.41 -3.6159 3.82832 0
M  V30 25974 H 2546.9 -2.28661 3.00869 0
M  V30 25975 H 2547.22 -4.16294 6.51091 0
M  V30 25976 H 2545.56 -3.74969 5.85169 0
M  V30 25977 H 2548.75 -2.76486 3.77721 0
M  V30 25978 H 2548.93 -3.62067 5.37412 0
M  V30 25979 N 2542.33 -1.17248 -1.05312 0
M  V30 25980 C 2543.61 -0.870081 -1.75183 0
M  V30 25981 C 2543.99 0.62993 -2.01482 0
M  V30 25982 O 2543.34 1.58083 -1.64991 0
M  V30 25983 C 2543.55 -1.70368 -3.04591 0
M  V30 25984 C 2544.89 -1.92288 -3.78564 0
M  V30 25985 O 2545.92 -1.67316 -3.14458 0
M  V30 25986 O 2544.78 -2.34249 -4.93751 0
M  V30 25987 H 2541.87 -0.322034 -0.761724 0
M  V30 25988 H 2544.42 -1.27937 -1.11491 0
M  V30 25989 H 2543.19 -2.72111 -2.81196 0
M  V30 25990 H 2542.81 -1.29208 -3.7602 0
M  V30 25991 N 2543.81 1.24015 -0.972531 0
M  V30 25992 C 2544.77 2.23421 -0.511442 0
M  V30 25993 C 2545.77 1.55882 0.394651 0
M  V30 25994 O 2546.96 1.73167 0.189438 0
M  V30 25995 C 2544.1 3.39917 0.258709 0
M  V30 25996 H 2545.29 2.65727 -1.39029 0
M  V30 25997 H 2542.84 1.36711 -0.757609 0
M  V30 25998 H 2543.58 3.03056 1.15445 0
M  V30 25999 H 2543.36 3.9014 -0.391591 0
M  V30 26000 H 2544.85 4.13689 0.570172 0
M  V30 26001 N 2545.29 0.743226 1.38974 0
M  V30 26002 C 2546.25 0.117055 2.28901 0
M  V30 26003 C 2547.25 -0.658477 1.46699 0
M  V30 26004 O 2548.44 -0.486276 1.67275 0
M  V30 26005 C 2545.57 -0.843092 3.3031 0
M  V30 26006 H 2546.77 0.909423 2.85779 0
M  V30 26007 H 2544.32 0.509573 1.4776 0
M  V30 26008 H 2545.05 -1.66152 2.78503 0
M  V30 26009 H 2544.84 -0.289525 3.9103 0
M  V30 26010 H 2546.33 -1.27753 3.97579 0
M  V30 26011 N 2546.77 -1.4974 0.491491 0
M  V30 26012 C 2548.01 -2.02721 -0.0564735 0
M  V30 26013 C 2548.35 -1.37121 -1.37519 0
M  V30 26014 O 2547.62 -0.503678 -1.87865 0
M  V30 26015 C 2547.9 -3.59434 -0.218988 0
M  V30 26016 C 2547.76 -4.35577 1.12219 0
M  V30 26017 C 2549.08 -4.29411 -0.964081 0
M  V30 26018 H 2546.19 -0.736754 -0.0190497 0
M  V30 26019 H 2548.84 -1.78859 0.641053 0
M  V30 26020 H 2546.99 -3.79896 -0.813098 0
M  V30 26021 H 2548.66 -4.26634 1.75445 0
M  V30 26022 H 2546.9 -3.9851 1.71384 0
M  V30 26023 H 2547.57 -5.43555 0.961889 0
M  V30 26024 H 2550.05 -4.13546 -0.460305 0
M  V30 26025 H 2548.92 -5.38829 -1.04662 0
M  V30 26026 H 2549.19 -3.93992 -2.00556 0
M  V30 26027 N 2548.24 -0.224922 -1.55987 0
M  V30 26028 C 2549.17 0.678418 -2.23427 0
M  V30 26029 C 2550.16 1.19845 -1.20712 0
M  V30 26030 O 2551.34 1.24183 -1.49306 0
M  V30 26031 C 2548.47 1.88522 -2.91679 0
M  V30 26032 C 2547.42 1.49889 -4.00895 0
M  V30 26033 C 2546.75 2.78475 -4.5646 0
M  V30 26034 C 2548.05 0.68637 -5.1777 0
M  V30 26035 H 2549.74 0.116121 -2.99175 0
M  V30 26036 H 2547.29 0.0544107 -1.43897 0
M  V30 26037 H 2549.24 2.52264 -3.37551 0
M  V30 26038 H 2547.97 2.47254 -2.13384 0
M  V30 26039 H 2546.63 0.884922 -3.55759 0
M  V30 26040 H 2546.27 3.35358 -3.74892 0
M  V30 26041 H 2545.97 2.53358 -5.30173 0
M  V30 26042 H 2547.5 3.43153 -5.05053 0
M  V30 26043 H 2548.91 1.22757 -5.60003 0
M  V30 26044 H 2547.31 0.532154 -5.97736 0
M  V30 26045 H 2548.38 -0.306281 -4.83932 0
M  V30 26046 N 2549.72 1.57526 0.0484352 0
M  V30 26047 C 2550.97 1.88373 0.743092 0
M  V30 26048 C 2551.3 0.819746 1.76381 0
M  V30 26049 O 2550.55 -0.181625 1.94855 0
M  V30 26050 C 2550.85 3.25938 1.46627 0
M  V30 26051 C 2550.52 4.47111 0.583348 0
M  V30 26052 C 2549.18 4.79997 0.340107 0
M  V30 26053 C 2551.53 5.21193 -0.0274261 0
M  V30 26054 C 2548.86 5.84364 -0.523006 0
M  V30 26055 C 2551.21 6.26476 -0.878127 0
M  V30 26056 C 2549.88 6.57848 -1.13102 0
M  V30 26057 H 2549.15 0.689306 0.271917 0
M  V30 26058 H 2551.79 1.915 0.003328 0
M  V30 26059 H 2550.1 3.1871 2.27885 0
M  V30 26060 H 2551.79 3.47048 2.00895 0
M  V30 26061 H 2548.38 4.21386 0.783077 0
M  V30 26062 H 2552.57 4.96081 0.147567 0
M  V30 26063 H 2547.82 6.07057 -0.727441 0
M  V30 26064 H 2552 6.83031 -1.35801 0
M  V30 26065 H 2549.63 7.38544 -1.80157 0
M  V30 26066 N 2551.2 -0.32033 1.5431 0
M  V30 26067 C 2552.16 -1.37736 1.83198 0
M  V30 26068 C 2553.16 -1.44573 0.703931 0
M  V30 26069 O 2554.35 -1.44545 0.97224 0
M  V30 26070 C 2551.49 -2.76434 1.99491 0
M  V30 26071 H 2552.68 -1.13375 2.77644 0
M  V30 26072 H 2550.23 -0.555986 1.46077 0
M  V30 26073 H 2550.97 -3.06046 1.07267 0
M  V30 26074 H 2550.75 -2.72865 2.8158 0
M  V30 26075 H 2552.24 -3.52898 2.23277 0
M  V30 26076 N 2552.68 -1.46438 -0.582558 0
M  V30 26077 C 2553.91 -1.55327 -1.36679 0
M  V30 26078 C 2554.32 -0.194442 -1.87796 0
M  V30 26079 O 2553.68 0.80829 -1.63624 0
M  V30 26080 C 2553.73 -2.55817 -2.55421 0
M  V30 26081 O 2553.45 -3.86421 -2.06423 0
M  V30 26082 C 2554.95 -2.74647 -3.47971 0
M  V30 26083 H 2552.17 -0.525266 -0.417536 0
M  V30 26084 H 2554.72 -1.91846 -0.708185 0
M  V30 26085 H 2552.87 -2.22301 -3.17272 0
M  V30 26086 H 2553.28 -4.41116 -2.83754 0
M  V30 26087 H 2554.76 -3.48881 -4.27769 0
M  V30 26088 H 2555.24 -1.8156 -3.99916 0
M  V30 26089 H 2555.84 -3.0926 -2.91956 0
M  V30 26090 N 2554.16 0.827204 -1.34146 0
M  V30 26091 C 2555.43 1.56863 -1.16847 0
M  V30 26092 C 2555.81 2.09485 0.260617 0
M  V30 26093 O 2555.16 1.90532 1.26134 0
M  V30 26094 C 2555.37 2.69336 -2.21943 0
M  V30 26095 C 2556.72 3.38216 -2.56701 0
M  V30 26096 O 2557.74 2.79589 -2.207 0
M  V30 26097 O 2556.6 4.44076 -3.18526 0
M  V30 26098 H 2553.7 0.692105 -0.452681 0
M  V30 26099 H 2556.24 0.868948 -1.45765 0
M  V30 26100 H 2555.01 2.28176 -3.17886 0
M  V30 26101 H 2554.64 3.46959 -1.94178 0
M  V30 26102 N 2555.63 1.17805 1.04688 0
M  V30 26103 C 2556.86 0.994262 1.81444 0
M  V30 26104 C 2557.28 -0.457427 1.83175 0
M  V30 26105 O 2556.63 -1.31768 1.26267 0
M  V30 26106 C 2556.69 1.53416 3.27332 0
M  V30 26107 O 2556.41 2.929 3.25793 0
M  V30 26108 C 2557.91 1.39567 4.20756 0
M  V30 26109 H 2555.13 0.351457 0.571593 0
M  V30 26110 H 2557.67 1.56211 1.31979 0
M  V30 26111 H 2555.83 1.00822 3.7405 0
M  V30 26112 H 2556.24 3.17956 4.17138 0
M  V30 26113 H 2557.71 1.8215 5.21081 0
M  V30 26114 H 2558.19 0.343471 4.37855 0
M  V30 26115 H 2558.8 1.91202 3.79897 0
M  V30 26116 N 2557.11 -1.23497 0.979094 0
M  V30 26117 C 2558.39 -1.87301 0.563707 0
M  V30 26118 C 2558.77 -1.88051 -0.959166 0
M  V30 26119 O 2558.12 -1.36117 -1.83533 0
M  V30 26120 C 2558.33 -3.28865 1.16828 0
M  V30 26121 C 2559.68 -4.05467 1.26021 0
M  V30 26122 O 2560.7 -3.3808 1.12164 0
M  V30 26123 O 2559.56 -5.26063 1.48053 0
M  V30 26124 H 2556.65 -0.804969 0.189616 0
M  V30 26125 H 2559.2 -1.31382 1.07409 0
M  V30 26126 H 2557.97 -3.22879 2.21054 0
M  V30 26127 H 2557.59 -3.92372 0.642633 0
M  V30 26128 N 2558.59 -0.750586 -1.38578 0
M  V30 26129 C 2560 -0.37347 -1.82926 0
M  V30 26130 C 2560.35 1.09745 -1.62636 0
M  V30 26131 O 2559.48 1.84803 -1.12591 0
M  V30 26132 C 2560.07 -0.671087 -3.32087 0
M  V30 26133 C 2558.63 -0.347286 -3.74794 0
M  V30 26134 C 2557.78 -0.925796 -2.61389 0
M  V30 26135 H 2560.73 -0.946981 -1.2735 0
M  V30 26136 H 2560.75 0.05176 -3.80465 0
M  V30 26137 H 2560.26 -1.7417 -3.46823 0
M  V30 26138 H 2558.36 0.716869 -3.65639 0
M  V30 26139 H 2558.48 -0.840739 -4.71666 0
M  V30 26140 H 2556.84 -0.351372 -2.52265 0
M  V30 26141 H 2557.62 -2.00138 -2.78926 0
M  V30 26142 N 2560.07 1.49477 -0.499425 0
M  V30 26143 C 2560.98 2.32869 0.284448 0
M  V30 26144 C 2562 1.44531 0.968859 0
M  V30 26145 O 2563.17 1.77555 0.950589 0
M  V30 26146 C 2560.24 3.1993 1.33588 0
M  V30 26147 C 2559.3 4.24117 0.665075 0
M  V30 26148 C 2558.53 5.07017 1.66641 0
M  V30 26149 O 2558.75 4.91409 2.89609 0
M  V30 26150 O 2557.69 5.89352 1.2226 0
M  V30 26151 H 2561.51 3.0108 -0.398073 0
M  V30 26152 H 2559.1 1.47106 -0.260784 0
M  V30 26153 H 2560.98 3.73868 1.94424 0
M  V30 26154 H 2559.66 2.54416 2.00136 0
M  V30 26155 H 2558.56 3.74096 0.0170112 0
M  V30 26156 H 2559.9 4.92182 0.042069 0
M  V30 26157 N 2561.55 0.233191 1.55865 0
M  V30 26158 C 2562.96 -0.272521 1.847 0
M  V30 26159 C 2563.31 -1.58615 1.1548 0
M  V30 26160 O 2562.43 -2.12116 0.428447 0
M  V30 26161 C 2563.03 -0.50124 3.35072 0
M  V30 26162 C 2561.59 -0.95124 3.64182 0
M  V30 26163 C 2560.74 -0.0207721 2.77292 0
M  V30 26164 H 2563.69 0.456101 1.52005 0
M  V30 26165 H 2563.71 -1.34571 3.55909 0
M  V30 26166 H 2563.22 0.455004 3.85424 0
M  V30 26167 H 2561.32 -1.92043 3.19296 0
M  V30 26168 H 2561.43 -0.817592 4.72072 0
M  V30 26169 H 2559.8 -0.529679 2.49131 0
M  V30 26170 H 2560.58 0.930599 3.30446 0
M  V30 26171 N 2563.03 -1.57549 -0.0400806 0
M  V30 26172 C 2563.94 -2.09222 -1.06129 0
M  V30 26173 C 2564.95 -1.02843 -1.40354 0
M  V30 26174 O 2566.13 -1.34512 -1.49895 0
M  V30 26175 C 2563.19 -2.55223 -2.34654 0
M  V30 26176 C 2562.25 -3.76037 -2.0711 0
M  V30 26177 C 2561.49 -4.19834 -3.29507 0
M  V30 26178 O 2561.71 -3.6324 -4.39787 0
M  V30 26179 O 2560.64 -5.12367 -3.15854 0
M  V30 26180 H 2564.47 -2.96614 -0.652192 0
M  V30 26181 H 2562.05 -1.47184 -0.256343 0
M  V30 26182 H 2563.94 -2.85189 -3.10234 0
M  V30 26183 H 2562.61 -1.70946 -2.7488 0
M  V30 26184 H 2561.52 -3.51106 -1.29133 0
M  V30 26185 H 2562.85 -4.61264 -1.71746 0
M  V30 26186 N 2564.5 0.312142 -1.54478 0
M  V30 26187 C 2565.91 0.885862 -1.64345 0
M  V30 26188 C 2566.27 1.88482 -0.544883 0
M  V30 26189 O 2565.39 2.14016 0.32035 0
M  V30 26190 C 2565.99 1.61351 -2.97911 0
M  V30 26191 C 2564.54 2.1358 -3.09937 0
M  V30 26192 C 2563.69 0.964852 -2.59973 0
M  V30 26193 H 2566.64 0.0894249 -1.58448 0
M  V30 26194 H 2566.66 2.47843 -2.88711 0
M  V30 26195 H 2566.18 0.88621 -3.77846 0
M  V30 26196 H 2564.28 2.89391 -2.34699 0
M  V30 26197 H 2564.39 2.37797 -4.1592 0
M  V30 26198 H 2562.75 1.34727 -2.1615 0
M  V30 26199 H 2563.54 0.251682 -3.42376 0
M  V30 26200 N 2565.98 1.46745 0.574784 0
M  V30 26201 C 2566.89 1.60508 1.71098 0
M  V30 26202 C 2567.91 0.488336 1.67007 0
M  V30 26203 O 2569.08 0.753528 1.86772 0
M  V30 26204 C 2566.15 1.59937 3.07605 0
M  V30 26205 C 2565.21 2.82904 3.22899 0
M  V30 26206 C 2564.44 2.82351 4.52895 0
M  V30 26207 O 2564.67 1.91551 5.37275 0
M  V30 26208 O 2563.6 3.73995 4.71605 0
M  V30 26209 H 2567.43 2.56612 1.62432 0
M  V30 26210 H 2565.01 1.29628 0.742756 0
M  V30 26211 H 2566.89 1.62343 3.88874 0
M  V30 26212 H 2565.57 0.669954 3.16691 0
M  V30 26213 H 2564.47 2.8605 2.41094 0
M  V30 26214 H 2565.81 3.75081 3.18708 0
M  V30 26215 N 2567.46 -0.820078 1.34583 0
M  V30 26216 C 2568.37 -1.96294 1.28474 0
M  V30 26217 C 2569.39 -1.72938 0.191932 0
M  V30 26218 O 2570.56 -1.96995 0.418914 0
M  V30 26219 C 2567.63 -3.30643 1.04287 0
M  V30 26220 C 2566.69 -3.66988 2.22752 0
M  V30 26221 C 2565.92 -4.94926 1.99709 0
M  V30 26222 O 2566.14 -5.62319 0.956755 0
M  V30 26223 O 2565.08 -5.29215 2.86732 0
M  V30 26224 H 2568.9 -2.04392 2.24628 0
M  V30 26225 H 2566.49 -0.955893 1.14817 0
M  V30 26226 H 2568.37 -4.11102 0.925914 0
M  V30 26227 H 2567.05 -3.23507 0.111754 0
M  V30 26228 H 2565.95 -2.86962 2.40008 0
M  V30 26229 H 2567.29 -3.78813 3.14263 0
M  V30 26230 N 2568.94 -1.18359 -1.04062 0
M  V30 26231 C 2570.21 -0.888612 -1.7425 0
M  V30 26232 C 2570.59 0.608524 -2.02139 0
M  V30 26233 O 2569.94 1.56324 -1.66658 0
M  V30 26234 C 2570.15 -1.73589 -3.02767 0
M  V30 26235 C 2571.5 -1.96292 -3.76503 0
M  V30 26236 O 2572.52 -1.70642 -3.12665 0
M  V30 26237 O 2571.38 -2.39472 -4.91239 0
M  V30 26238 H 2568.48 -0.330095 -0.758265 0
M  V30 26239 H 2571.02 -1.29112 -1.10128 0
M  V30 26240 H 2569.8 -2.75078 -2.78294 0
M  V30 26241 H 2569.42 -1.33189 -3.74628 0
M  V30 26242 N 2570.42 1.22976 -0.98563 0
M  V30 26243 C 2571.33 2.28334 -0.538588 0
M  V30 26244 C 2572.34 1.69122 0.409134 0
M  V30 26245 O 2573.52 1.99475 0.277762 0
M  V30 26246 C 2570.58 3.46389 0.146807 0
M  V30 26247 C 2569.64 4.20942 -0.84297 0
M  V30 26248 C 2568.88 5.33361 -0.190188 0
M  V30 26249 O 2569.1 5.6125 1.01757 0
M  V30 26250 O 2568.03 5.95263 -0.891393 0
M  V30 26251 H 2571.86 2.68726 -1.41492 0
M  V30 26252 H 2569.44 1.29006 -0.753517 0
M  V30 26253 H 2571.33 4.1804 0.531051 0
M  V30 26254 H 2570 3.07937 0.997817 0
M  V30 26255 H 2568.91 3.51593 -1.27801 0
M  V30 26256 H 2570.24 4.63257 -1.66295 0
M  V30 26257 N 2571.89 0.757924 1.38178 0
M  V30 26258 C 2573.3 0.383166 1.82726 0
M  V30 26259 C 2573.66 -1.08881 1.63216 0
M  V30 26260 O 2572.78 -1.84203 1.1357 0
M  V30 26261 C 2573.38 0.688689 3.31727 0
M  V30 26262 C 2571.93 0.367157 3.74605 0
M  V30 26263 C 2571.08 0.939645 2.60895 0
M  V30 26264 H 2574.03 0.953721 1.26846 0
M  V30 26265 H 2574.05 -0.0315823 3.80487 0
M  V30 26266 H 2573.57 1.76007 3.45895 0
M  V30 26267 H 2571.67 -0.697468 3.66014 0
M  V30 26268 H 2571.78 0.865741 4.71213 0
M  V30 26269 H 2570.14 0.364745 2.52075 0
M  V30 26270 H 2570.93 2.01615 2.7786 0
M  V30 26271 N 2573.37 -1.4921 0.507345 0
M  V30 26272 C 2574.62 -2.0277 -0.0349691 0
M  V30 26273 C 2574.95 -1.38571 -1.36057 0
M  V30 26274 O 2574.23 -0.523575 -1.8732 0
M  V30 26275 C 2574.51 -3.59646 -0.180852 0
M  V30 26276 C 2574.36 -4.34362 1.16832 0
M  V30 26277 C 2575.68 -4.30409 -0.918482 0
M  V30 26278 H 2572.8 -0.736914 -0.0112344 0
M  V30 26279 H 2575.44 -1.78169 0.659987 0
M  V30 26280 H 2573.59 -3.80737 -0.772759 0
M  V30 26281 H 2575.26 -4.2475 1.7996 0
M  V30 26282 H 2573.51 -3.9667 1.75601 0
M  V30 26283 H 2574.18 -5.42504 1.01949 0
M  V30 26284 H 2576.65 -4.14011 -0.416417 0
M  V30 26285 H 2575.53 -5.39909 -0.98941 0
M  V30 26286 H 2575.79 -3.96097 -1.96366 0
M  V30 26287 N 2574.85 -0.241454 -1.55739 0
M  V30 26288 C 2575.81 0.647025 -2.19878 0
M  V30 26289 C 2576.81 1.10684 -1.16644 0
M  V30 26290 O 2578 1.01243 -1.41759 0
M  V30 26291 C 2575.14 1.88866 -2.838 0
M  V30 26292 H 2576.33 0.0875213 -2.99772 0
M  V30 26293 H 2573.88 0.00810826 -1.56298 0
M  V30 26294 H 2574.62 2.48953 -2.07829 0
M  V30 26295 H 2574.4 1.56722 -3.59417 0
M  V30 26296 H 2575.89 2.52123 -3.32902 0
M  V30 26297 N 2576.33 1.57568 0.0317248 0
M  V30 26298 C 2577.24 2.09782 1.05018 0
M  V30 26299 C 2578.25 1.03586 1.39807 0
M  V30 26300 O 2579.43 1.35305 1.4918 0
M  V30 26301 C 2576.5 2.56463 2.33297 0
M  V30 26302 C 2575.56 3.7713 2.05113 0
M  V30 26303 C 2574.79 4.21576 3.27276 0
M  V30 26304 O 2575.01 3.65567 4.37855 0
M  V30 26305 O 2573.95 5.14035 3.13132 0
M  V30 26306 H 2577.77 2.96956 0.636453 0
M  V30 26307 H 2575.36 1.47318 0.248533 0
M  V30 26308 H 2577.24 2.86831 3.08717 0
M  V30 26309 H 2575.91 1.72401 2.7397 0
M  V30 26310 H 2574.82 3.51786 1.27269 0
M  V30 26311 H 2576.15 4.62168 1.69297 0
M  V30 26312 N 2577.81 -0.303946 1.54641 0
M  V30 26313 C 2579.03 -1.06289 1.78094 0
M  V30 26314 C 2579.46 -1.80261 0.537374 0
M  V30 26315 O 2578.81 -1.73921 -0.511963 0
M  V30 26316 C 2578.86 -2.02142 2.98615 0
M  V30 26317 O 2577.97 -3.10392 2.71534 0
M  V30 26318 H 2577.31 -0.305487 0.589554 0
M  V30 26319 H 2579.84 -0.342265 2.01717 0
M  V30 26320 H 2579.85 -2.44661 3.26504 0
M  V30 26321 H 2578.52 -1.47707 3.88787 0
M  V30 26322 H 2577.1 -2.72409 2.54652 0
M  V30 26323 N 2579.28 -1.47047 -0.566994 0
M  V30 26324 C 2580.7 -1.47145 -1.14914 0
M  V30 26325 C 2581.05 -0.220801 -1.94954 0
M  V30 26326 O 2580.17 0.675014 -2.05603 0
M  V30 26327 C 2580.77 -2.66604 -2.09065 0
M  V30 26328 C 2579.33 -2.69692 -2.6257 0
M  V30 26329 C 2578.47 -2.40091 -1.38751 0
M  V30 26330 H 2581.42 -1.54699 -0.354099 0
M  V30 26331 H 2581.44 -2.43017 -2.92785 0
M  V30 26332 H 2580.96 -3.57612 -1.50782 0
M  V30 26333 H 2579.06 -1.82797 -3.24678 0
M  V30 26334 H 2579.17 -3.70107 -3.04232 0
M  V30 26335 H 2577.53 -1.90471 -1.69095 0
M  V30 26336 H 2578.32 -3.33295 -0.822763 0
M  V30 26337 N 2580.76 0.812929 -1.35016 0
M  V30 26338 C 2581.73 1.906 -1.27296 0
M  V30 26339 C 2582.73 1.59722 -0.185845 0
M  V30 26340 O 2583.92 1.68574 -0.439132 0
M  V30 26341 C 2581.05 3.26876 -0.967733 0
M  V30 26342 H 2582.24 1.98866 -2.24482 0
M  V30 26343 H 2579.79 1.00806 -1.19448 0
M  V30 26344 H 2580.53 3.243 0.000538396 0
M  V30 26345 H 2580.31 3.50672 -1.75418 0
M  V30 26346 H 2581.8 4.06902 -0.939156 0
M  V30 26347 N 2582.24 1.18909 1.03433 0
M  V30 26348 C 2583.65 0.991551 1.58193 0
M  V30 26349 C 2584 -0.457047 1.90802 0
M  V30 26350 O 2583.13 -1.3355 1.70274 0
M  V30 26351 C 2583.72 1.7936 2.87429 0
M  V30 26352 C 2582.28 1.64023 3.38782 0
M  V30 26353 C 2581.43 1.78406 2.12289 0
M  V30 26354 H 2584.38 1.3336 0.860275 0
M  V30 26355 H 2584.4 1.28645 3.58093 0
M  V30 26356 H 2583.91 2.84786 2.63664 0
M  V30 26357 H 2582.01 0.611601 3.67546 0
M  V30 26358 H 2582.13 2.4422 4.12181 0
M  V30 26359 H 2580.49 1.21414 2.23899 0
M  V30 26360 H 2581.27 2.8528 1.90972 0
M  V30 26361 N 2583.72 -1.22452 0.992137 0
M  V30 26362 C 2585 -1.86693 0.583541 0
M  V30 26363 C 2585.38 -1.89058 -0.939166 0
M  V30 26364 O 2584.72 -1.38056 -1.82079 0
M  V30 26365 C 2584.93 -3.27607 1.20309 0
M  V30 26366 C 2586.28 -4.04108 1.30315 0
M  V30 26367 O 2587.31 -3.36871 1.15743 0
M  V30 26368 O 2586.16 -5.24463 1.53625 0
M  V30 26369 H 2583.26 -0.802912 0.198143 0
M  V30 26370 H 2585.8 -1.30236 1.08797 0
M  V30 26371 H 2584.58 -3.20516 2.24467 0
M  V30 26372 H 2584.2 -3.91669 0.684213 0
M  V30 26373 N 2585.2 -0.765242 -1.37774 0
M  V30 26374 C 2586.44 -0.327107 -2.00145 0
M  V30 26375 C 2586.78 1.09172 -1.60609 0
M  V30 26376 O 2586.05 1.74984 -0.849158 0
M  V30 26377 C 2586.33 -0.463252 -3.57108 0
M  V30 26378 C 2586.19 -1.92402 -4.06573 0
M  V30 26379 C 2587.51 0.136396 -4.39889 0
M  V30 26380 H 2584.62 -0.120329 -0.727111 0
M  V30 26381 H 2587.27 -0.967068 -1.63548 0
M  V30 26382 H 2585.42 0.0815675 -3.88414 0
M  V30 26383 H 2587.09 -2.52805 -3.85859 0
M  V30 26384 H 2585.33 -2.43509 -3.59007 0
M  V30 26385 H 2586 -1.97038 -5.15636 0
M  V30 26386 H 2588.48 -0.328389 -4.14802 0
M  V30 26387 H 2587.35 0.0109617 -5.48899 0
M  V30 26388 H 2587.62 1.226 -4.24761 0
M  V30 26389 N 2586.67 1.48939 -0.515251 0
M  V30 26390 C 2587.92 2.02786 0.0242152 0
M  V30 26391 C 2588.25 1.39291 1.35321 0
M  V30 26392 O 2587.53 0.533502 1.8704 0
M  V30 26393 C 2587.81 3.59736 0.161777 0
M  V30 26394 C 2587.66 4.33736 -1.19134 0
M  V30 26395 C 2588.98 4.3089 0.895644 0
M  V30 26396 H 2586.1 0.736964 0.00732618 0
M  V30 26397 H 2588.74 1.77816 -0.669426 0
M  V30 26398 H 2586.89 3.81141 0.752557 0
M  V30 26399 H 2588.57 4.23789 -1.8221 0
M  V30 26400 H 2586.81 3.95733 -1.77702 0
M  V30 26401 H 2587.48 5.41956 -1.04824 0
M  V30 26402 H 2589.96 4.14226 0.394455 0
M  V30 26403 H 2588.83 5.40426 0.960764 0
M  V30 26404 H 2589.09 3.97133 1.94263 0
M  V30 26405 N 2588.15 0.249709 1.55609 0
M  V30 26406 C 2589.38 -0.381269 2.03865 0
M  V30 26407 C 2589.8 -1.50546 1.12771 0
M  V30 26408 O 2589.16 -1.80894 0.121221 0
M  V30 26409 C 2589.21 -0.863754 3.50102 0
M  V30 26410 O 2588.31 -1.97311 3.62135 0
M  V30 26411 H 2587.65 -0.0827079 0.658829 0
M  V30 26412 H 2590.18 0.376587 2.01104 0
M  V30 26413 H 2590.19 -1.16623 3.90977 0
M  V30 26414 H 2588.87 -0.0411085 4.1588 0
M  V30 26415 H 2587.45 -1.67512 3.33158 0
M  V30 26416 N 2589.63 -1.57583 -0.0233682 0
M  V30 26417 C 2590.54 -2.10336 -1.03904 0
M  V30 26418 C 2591.56 -1.04326 -1.39256 0
M  V30 26419 O 2592.73 -1.36094 -1.4846 0
M  V30 26420 C 2589.8 -2.57697 -2.31933 0
M  V30 26421 C 2588.86 -3.78213 -2.0311 0
M  V30 26422 C 2588.09 -4.23306 -3.25036 0
M  V30 26423 O 2588.32 -3.67884 -4.3591 0
M  V30 26424 O 2587.25 -5.15688 -3.10402 0
M  V30 26425 H 2591.08 -2.9729 -0.620695 0
M  V30 26426 H 2588.66 -1.47448 -0.240717 0
M  V30 26427 H 2590.54 -2.88464 -3.07191 0
M  V30 26428 H 2589.22 -1.73852 -2.73052 0
M  V30 26429 H 2588.12 -3.52456 -1.25402 0
M  V30 26430 H 2589.46 -4.63059 -1.66844 0
M  V30 26431 N 2591.11 0.29574 -1.548 0
M  V30 26432 C 2592.07 1.34804 -1.85366 0
M  V30 26433 C 2593.07 1.43435 -0.726842 0
M  V30 26434 O 2594.26 1.4298 -0.995113 0
M  V30 26435 C 2591.39 2.73226 -2.03864 0
M  V30 26436 H 2592.59 1.08944 -2.79412 0
M  V30 26437 H 2590.14 0.532676 -1.46943 0
M  V30 26438 H 2590.88 3.04301 -1.12123 0
M  V30 26439 H 2590.66 2.68351 -2.85885 0
M  V30 26440 H 2592.15 3.49301 -2.28863 0
M  V30 26441 N 2592.59 1.47346 0.559187 0
M  V30 26442 C 2593.55 1.59238 1.64851 0
M  V30 26443 C 2594.55 0.467634 1.5385 0
M  V30 26444 O 2595.74 0.732645 1.58044 0
M  V30 26445 C 2592.87 1.53501 3.04385 0
M  V30 26446 H 2594.07 2.56341 1.55657 0
M  V30 26447 H 2591.62 1.35507 0.778949 0
M  V30 26448 H 2592.35 0.57766 3.19114 0
M  V30 26449 H 2592.14 2.35128 3.13779 0
M  V30 26450 H 2593.63 1.64957 3.83639 0
M  V30 26451 N 2594.07 -0.805758 1.35445 0
M  V30 26452 C 2595.48 -1.37981 1.25771 0
M  V30 26453 C 2595.83 -1.95894 -0.109546 0
M  V30 26454 O 2594.95 -1.91357 -1.01053 0
M  V30 26455 C 2595.55 -2.50846 2.27732 0
M  V30 26456 C 2594.11 -3.04111 2.21796 0
M  V30 26457 C 2593.25 -1.7708 2.13396 0
M  V30 26458 H 2596.2 -0.608726 1.46561 0
M  V30 26459 H 2596.23 -3.2942 1.90427 0
M  V30 26460 H 2595.74 -2.08666 3.27231 0
M  V30 26461 H 2593.84 -3.50753 1.2571 0
M  V30 26462 H 2593.95 -3.62036 3.13794 0
M  V30 26463 H 2592.32 -1.98665 1.59387 0
M  V30 26464 H 2593.1 -1.3705 3.14757 0
M  V30 26465 N 2595.54 -1.19456 -1.02801 0
M  V30 26466 C 2596.79 -0.999202 -1.76476 0
M  V30 26467 C 2597.12 0.468795 -1.88457 0
M  V30 26468 O 2596.4 1.34812 -1.402 0
M  V30 26469 C 2596.68 -1.66987 -3.19041 0
M  V30 26470 C 2596.53 -3.21157 -3.14926 0
M  V30 26471 C 2597.85 -1.39357 -4.17454 0
M  V30 26472 H 2594.97 -0.364404 -0.640608 0
M  V30 26473 H 2597.61 -1.47307 -1.20002 0
M  V30 26474 H 2595.76 -1.26697 -3.6726 0
M  V30 26475 H 2597.44 -3.70666 -2.74598 0
M  V30 26476 H 2595.68 -3.52656 -2.52619 0
M  V30 26477 H 2596.35 -3.6323 -4.15654 0
M  V30 26478 H 2598.83 -1.74289 -3.77839 0
M  V30 26479 H 2597.7 -1.88832 -5.15397 0
M  V30 26480 H 2597.96 -0.318891 -4.40948 0
M  V30 26481 N 2597.02 1.21924 -0.998617 0
M  V30 26482 C 2597.98 2.22286 -0.558718 0
M  V30 26483 C 2598.98 1.56684 0.361498 0
M  V30 26484 O 2600.17 1.7353 0.152665 0
M  V30 26485 C 2597.31 3.40389 0.18655 0
M  V30 26486 H 2598.5 2.62718 -1.44634 0
M  V30 26487 H 2596.05 1.35074 -0.786437 0
M  V30 26488 H 2596.79 3.05437 1.0899 0
M  V30 26489 H 2596.57 3.89221 -0.474257 0
M  V30 26490 H 2598.06 4.14806 0.482294 0
M  V30 26491 N 2598.5 0.772537 1.37367 0
M  V30 26492 C 2599.91 0.402525 1.82309 0
M  V30 26493 C 2600.26 -1.07144 1.64362 0
M  V30 26494 O 2599.39 -1.82988 1.15517 0
M  V30 26495 C 2599.98 0.723835 3.30977 0
M  V30 26496 C 2598.54 0.406868 3.74195 0
M  V30 26497 C 2597.69 0.967264 2.59883 0
M  V30 26498 H 2600.64 0.967121 1.25827 0
M  V30 26499 H 2600.66 0.0087752 3.80499 0
M  V30 26500 H 2600.17 1.79666 3.44008 0
M  V30 26501 H 2598.27 -0.658608 3.66733 0
M  V30 26502 H 2598.39 0.915671 4.70268 0
M  V30 26503 H 2596.75 0.39146 2.51674 0
M  V30 26504 H 2597.53 2.04551 2.75706 0
M  V30 26505 N 2599.98 -1.48664 0.523142 0
M  V30 26506 C 2600.94 -2.28017 -0.232552 0
M  V30 26507 C 2601.94 -1.34974 -0.873997 0
M  V30 26508 O 2603.13 -1.5793 -0.735104 0
M  V30 26509 C 2600.26 -3.13638 -1.3358 0
M  V30 26510 H 2601.46 -2.96288 0.46406 0
M  V30 26511 H 2599.01 -1.53793 0.278843 0
M  V30 26512 H 2599.74 -2.49983 -2.06588 0
M  V30 26513 H 2599.53 -3.82073 -0.881057 0
M  V30 26514 H 2601.02 -3.73515 -1.86753 0
M  V30 26515 N 2601.46 -0.257958 -1.55475 0
M  V30 26516 C 2602.42 0.623667 -2.20552 0
M  V30 26517 C 2603.42 1.0944 -1.17811 0
M  V30 26518 O 2604.61 0.997337 -1.42824 0
M  V30 26519 C 2601.74 1.85845 -2.85787 0
M  V30 26520 H 2602.93 0.0557216 -2.99848 0
M  V30 26521 H 2600.49 -0.00846967 -1.56298 0
M  V30 26522 H 2601.22 2.46735 -2.10457 0
M  V30 26523 H 2601.01 1.52901 -3.61059 0
M  V30 26524 H 2602.5 2.48578 -3.35557 0
M  V30 26525 N 2602.93 1.57593 0.0150108 0
M  V30 26526 C 2604.16 1.94574 0.718033 0
M  V30 26527 C 2604.58 0.859035 1.67339 0
M  V30 26528 O 2603.94 -0.184116 1.80363 0
M  V30 26529 C 2603.99 3.30638 1.43912 0
M  V30 26530 O 2603.09 3.23881 2.55294 0
M  V30 26531 H 2602.44 0.635601 0.192114 0
M  V30 26532 H 2604.97 2.04572 -0.0337068 0
M  V30 26533 H 2604.98 3.65856 1.80591 0
M  V30 26534 H 2603.65 4.0929 0.738547 0
M  V30 26535 H 2602.23 3.00316 2.21053 0
M  V30 26536 N 2604.41 -0.287527 1.54955 0
M  V30 26537 C 2605.64 -1.04394 1.79211 0
M  V30 26538 C 2606.06 -1.79681 0.556463 0
M  V30 26539 O 2605.42 -1.74455 -0.493487 0
M  V30 26540 C 2605.47 -1.98963 3.00742 0
M  V30 26541 O 2604.57 -3.07495 2.7481 0
M  V30 26542 H 2603.91 -0.299217 0.592761 0
M  V30 26543 H 2606.44 -0.320851 2.02069 0
M  V30 26544 H 2606.45 -2.41184 3.29081 0
M  V30 26545 H 2605.13 -1.43575 3.90332 0
M  V30 26546 H 2603.71 -2.69693 2.57527 0
M  V30 26547 N 2605.89 -1.47641 -0.551365 0
M  V30 26548 C 2606.85 -1.6011 -1.64004 0
M  V30 26549 C 2607.85 -0.475787 -1.536 0
M  V30 26550 O 2609.04 -0.741016 -1.57653 0
M  V30 26551 C 2606.18 -1.55113 -3.03567 0
M  V30 26552 H 2607.37 -2.57163 -1.54295 0
M  V30 26553 H 2604.92 -1.35918 -0.771752 0
M  V30 26554 H 2605.66 -0.594576 -3.18803 0
M  V30 26555 H 2605.44 -2.36789 -3.12527 0
M  V30 26556 H 2606.93 -1.66989 -3.82759 0
M  V30 26557 N 2607.37 0.798563 -1.3587 0
M  V30 26558 C 2608.62 1.55296 -1.29335 0
M  V30 26559 C 2608.94 1.94568 0.129695 0
M  V30 26560 O 2608.21 1.64231 1.06793 0
M  V30 26561 H 2606.79 0.575911 -0.475747 0
M  V30 26562 H 2609.45 0.952063 -1.70064 0
M  V30 26563 H 2608.55 2.46472 -1.91462 0
M  V30 26564 N 2608.85 1.19999 1.02166 0
M  V30 26565 C 2610.26 1.00827 1.57133 0
M  V30 26566 C 2610.61 -0.436784 1.91276 0
M  V30 26567 O 2609.73 -1.31737 1.71681 0
M  V30 26568 C 2610.33 1.82398 2.85511 0
M  V30 26569 C 2608.89 1.67607 3.37024 0
M  V30 26570 C 2608.03 1.80648 2.10385 0
M  V30 26571 H 2610.99 1.34265 0.846082 0
M  V30 26572 H 2611.01 1.32435 3.56709 0
M  V30 26573 H 2610.52 2.87566 2.60629 0
M  V30 26574 H 2608.62 0.65055 3.66877 0
M  V30 26575 H 2608.73 2.48578 4.09568 0
M  V30 26576 H 2607.1 1.23782 2.22599 0
M  V30 26577 H 2607.88 2.87289 1.87935 0
M  V30 26578 N 2610.32 -1.21392 1.00507 0
M  V30 26579 C 2611.74 -1.42543 0.717898 0
M  V30 26580 C 2611.94 -1.88693 -0.706903 0
M  V30 26581 O 2611 -2.0485 -1.47624 0
M  V30 26582 C 2612.31 -2.45681 1.73382 0
M  V30 26583 C 2613.86 -2.59464 1.75064 0
M  V30 26584 C 2614.33 -3.65835 2.75551 0
M  V30 26585 N 2615.82 -3.73306 2.7422 0
M  V30 26586 C 2616.56 -4.55239 3.48634 0
M  V30 26587 N 2616.05 -5.41067 4.32687 0
M  V30 26588 N 2617.85 -4.49662 3.37283 0
M  V30 26589 H 2610 -0.89747 1.92508 0
M  V30 26590 H 2612.26 -0.45636 0.830927 0
M  V30 26591 H 2611.97 -2.18743 2.75398 0
M  V30 26592 H 2611.84 -3.44486 1.53653 0
M  V30 26593 H 2614.23 -2.85739 0.737387 0
M  V30 26594 H 2614.31 -1.60894 1.98864 0
M  V30 26595 H 2613.95 -3.40306 3.77034 0
M  V30 26596 H 2613.88 -4.64002 2.49017 0
M  V30 26597 H 2616.37 -3.1199 2.13239 0
M  V30 26598 H 2616.69 -6.00639 4.86264 0
M  V30 26599 H 2615.03 -5.40608 4.3677 0
M  V30 26600 H 2618.22 -3.81641 2.7105 0
M  V30 26601 H 2618.4 -5.13281 3.95533 0
M  V30 26602 N 2611.8 -0.779811 -1.36955 0
M  V30 26603 C 2613.21 -0.412188 -1.82093 0
M  V30 26604 C 2613.56 1.0627 -1.64927 0
M  V30 26605 O 2612.69 1.82373 -1.16486 0
M  V30 26606 C 2613.28 -0.741377 -3.30589 0
M  V30 26607 C 2611.84 -0.426707 -3.73973 0
M  V30 26608 C 2610.99 -0.981032 -2.59367 0
M  V30 26609 H 2613.94 -0.97378 -1.25312 0
M  V30 26610 H 2613.96 -0.0289539 -3.80489 0
M  V30 26611 H 2613.47 -1.81488 -3.43051 0
M  V30 26612 H 2611.58 0.63915 -3.67077 0
M  V30 26613 H 2611.69 -0.940597 -4.69776 0
M  V30 26614 H 2610.05 -0.404802 -2.51463 0
M  V30 26615 H 2610.84 -2.0601 -2.74618 0
M  V30 26616 N 2613.28 1.48384 -0.531019 0
M  V30 26617 C 2614.56 1.95485 0.0671445 0
M  V30 26618 C 2614.94 1.47327 1.51189 0
M  V30 26619 O 2614.29 0.70024 2.17506 0
M  V30 26620 C 2614.5 3.48962 -0.0511819 0
M  V30 26621 C 2615.84 4.24464 0.107557 0
M  V30 26622 O 2616.87 3.56193 0.0225622 0
M  V30 26623 O 2615.73 5.45752 0.285876 0
M  V30 26624 H 2612.82 0.823245 0.078722 0
M  V30 26625 H 2615.37 1.58901 -0.59569 0
M  V30 26626 H 2614.14 3.76738 -1.05754 0
M  V30 26627 H 2613.76 3.92243 0.650456 0
M  V30 26628 N 2614.76 0.2662 1.55336 0
M  V30 26629 C 2616.04 -0.404452 1.91373 0
M  V30 26630 C 2616.42 -1.74405 1.18938 0
M  V30 26631 O 2615.76 -2.26343 0.31324 0
M  V30 26632 C 2615.97 -0.553532 3.44582 0
M  V30 26633 C 2617.32 -0.840545 4.16197 0
M  V30 26634 O 2618.35 -0.638677 3.50427 0
M  V30 26635 O 2617.2 -1.22608 5.32569 0
M  V30 26636 H 2614.3 -0.220011 0.797198 0
M  V30 26637 H 2616.84 0.311694 1.66813 0
M  V30 26638 H 2615.62 0.389566 3.89356 0
M  V30 26639 H 2615.24 -1.31949 3.75067 0
M  V30 26640 N 2616.24 -1.57599 -0.0066531 0
M  V30 26641 C 2617.17 -2.11038 -0.999259 0
M  V30 26642 C 2618.15 -1.01798 -1.36276 0
M  V30 26643 O 2619.33 -1.29445 -1.44768 0
M  V30 26644 C 2616.46 -2.60822 -2.29323 0
M  V30 26645 C 2615.42 -3.74529 -2.07153 0
M  V30 26646 C 2614.74 -4.10602 -3.42505 0
M  V30 26647 C 2616.04 -5.02071 -1.4395 0
M  V30 26648 H 2617.74 -2.94224 -0.55433 0
M  V30 26649 H 2615.28 -1.41537 -0.265197 0
M  V30 26650 H 2617.24 -2.96833 -2.99112 0
M  V30 26651 H 2615.96 -1.7475 -2.75917 0
M  V30 26652 H 2614.62 -3.38901 -1.39791 0
M  V30 26653 H 2614.27 -3.21563 -3.8679 0
M  V30 26654 H 2613.97 -4.87205 -3.28489 0
M  V30 26655 H 2615.49 -4.49167 -4.1362 0
M  V30 26656 H 2616.9 -5.35896 -2.03686 0
M  V30 26657 H 2615.3 -5.83435 -1.40442 0
M  V30 26658 H 2616.37 -4.83181 -0.407908 0
M  V30 26659 N 2617.72 0.279305 -1.55105 0
M  V30 26660 C 2618.96 1.01324 -1.75674 0
M  V30 26661 C 2619.29 1.86167 -0.552771 0
M  V30 26662 O 2618.57 1.89228 0.449794 0
M  V30 26663 C 2618.85 1.90109 -3.05828 0
M  V30 26664 C 2618.71 1.08301 -4.36567 0
M  V30 26665 C 2620.02 2.88924 -3.3198 0
M  V30 26666 H 2617.14 0.366946 -0.639156 0
M  V30 26667 H 2619.79 0.286121 -1.87833 0
M  V30 26668 H 2617.94 2.52106 -2.95593 0
M  V30 26669 H 2619.61 0.484233 -4.58751 0
M  V30 26670 H 2617.85 0.386286 -4.32077 0
M  V30 26671 H 2618.52 1.73727 -5.23949 0
M  V30 26672 H 2621 2.37061 -3.41967 0
M  V30 26673 H 2619.87 3.48194 -4.24326 0
M  V30 26674 H 2620.13 3.63721 -2.51316 0
M  V30 26675 N 2619.19 1.47931 0.543528 0
M  V30 26676 C 2620.44 1.55257 1.30006 0
M  V30 26677 C 2620.77 0.220646 1.93244 0
M  V30 26678 O 2620.02 -0.787811 1.79142 0
M  V30 26679 C 2620.32 2.62936 2.42073 0
M  V30 26680 C 2619.99 4.05794 1.96576 0
M  V30 26681 C 2618.65 4.44679 1.83885 0
M  V30 26682 C 2621 4.95376 1.62026 0
M  V30 26683 C 2618.33 5.70967 1.34959 0
M  V30 26684 C 2620.68 6.22139 1.14566 0
M  V30 26685 C 2619.35 6.59894 1.00482 0
M  V30 26686 H 2618.62 0.568126 0.475725 0
M  V30 26687 H 2621.26 1.8159 0.608043 0
M  V30 26688 H 2619.57 2.30411 3.16888 0
M  V30 26689 H 2621.27 2.65823 3.00231 0
M  V30 26690 H 2617.86 3.75077 2.07401 0
M  V30 26691 H 2622.04 4.66022 1.70697 0
M  V30 26692 H 2617.3 5.98955 1.2273 0
M  V30 26693 H 2621.47 6.90957 0.868987 0
M  V30 26694 H 2619.1 7.57639 0.62349 0
M  V30 26695 N 2620.67 -0.791347 1.36292 0
M  V30 26696 C 2621.95 -1.5371 1.20965 0
M  V30 26697 C 2622.33 -2.10102 -0.204984 0
M  V30 26698 O 2621.68 -1.93809 -1.21038 0
M  V30 26699 C 2621.89 -2.63357 2.29006 0
M  V30 26700 C 2623.23 -3.31291 2.65578 0
M  V30 26701 O 2624.26 -2.73639 2.28035 0
M  V30 26702 O 2623.12 -4.35475 3.30188 0
M  V30 26703 H 2620.21 -0.679859 0.470872 0
M  V30 26704 H 2622.76 -0.829995 1.48017 0
M  V30 26705 H 2621.53 -2.19668 3.23823 0
M  V30 26706 H 2621.15 -3.41689 2.03309 0
M  V30 26707 N 2622.15 -1.2054 -1.01528 0
M  V30 26708 C 2623.11 -0.957134 -2.08258 0
M  V30 26709 C 2624.11 0.0678373 -1.60657 0
M  V30 26710 O 2625.3 -0.168363 -1.73384 0
M  V30 26711 C 2622.43 -0.441247 -3.38032 0
M  V30 26712 H 2623.63 -1.90388 -2.31716 0
M  V30 26713 H 2621.18 -1.02095 -1.18348 0
M  V30 26714 H 2621.92 0.510905 -3.2025 0
M  V30 26715 H 2621.7 -1.18044 -3.73909 0
M  V30 26716 H 2623.19 -0.287083 -4.16612 0
M  V30 26717 N 2623.63 1.20858 -1.01149 0
M  V30 26718 C 2624.59 2.21681 -0.582263 0
M  V30 26719 C 2625.59 1.57058 0.344859 0
M  V30 26720 O 2626.78 1.73682 0.134251 0
M  V30 26721 C 2623.91 3.40568 0.150437 0
M  V30 26722 H 2625.11 2.6117 -1.47413 0
M  V30 26723 H 2622.66 1.34232 -0.800719 0
M  V30 26724 H 2623.39 3.06576 1.05745 0
M  V30 26725 H 2623.18 3.88696 -0.515512 0
M  V30 26726 H 2624.67 4.15294 0.438271 0
M  V30 26727 N 2625.11 0.787064 1.3654 0
M  V30 26728 C 2626.38 0.282458 1.9355 0
M  V30 26729 C 2626.76 -1.225 1.71922 0
M  V30 26730 O 2626.11 -2.01537 1.07681 0
M  V30 26731 C 2626.32 0.672522 3.42459 0
M  V30 26732 C 2627.67 0.650936 4.19581 0
M  V30 26733 O 2628.69 0.612851 3.50888 0
M  V30 26734 O 2627.55 0.691718 5.42105 0
M  V30 26735 H 2624.65 0.0693144 0.82409 0
M  V30 26736 H 2627.19 0.869449 1.45735 0
M  V30 26737 H 2625.96 1.71228 3.51848 0
M  V30 26738 H 2625.59 0.059291 3.97556 0
M  V30 26739 N 2626.58 -1.48101 0.53888 0
M  V30 26740 C 2627.55 -2.28251 -0.208355 0
M  V30 26741 C 2628.55 -1.35893 -0.859632 0
M  V30 26742 O 2629.74 -1.58701 -0.718312 0
M  V30 26743 C 2626.87 -3.15038 -1.30246 0
M  V30 26744 H 2628.06 -2.95779 0.495459 0
M  V30 26745 H 2625.61 -1.53488 0.295139 0
M  V30 26746 H 2626.35 -2.52161 -2.03925 0
M  V30 26747 H 2626.13 -3.82986 -0.840484 0
M  V30 26748 H 2627.62 -3.75474 -1.8278 0
M  V30 26749 N 2628.06 -0.274434 -1.55192 0
M  V30 26750 C 2629.29 0.345907 -2.03988 0
M  V30 26751 C 2629.7 1.49518 -1.15282 0
M  V30 26752 O 2629.06 1.8168 -0.17279 0
M  V30 26753 C 2629.11 0.827569 -3.519 0
M  V30 26754 O 2628.83 -0.275932 -4.3723 0
M  V30 26755 C 2630.33 1.5158 -4.1658 0
M  V30 26756 H 2627.55 0.0789774 -0.666336 0
M  V30 26757 H 2630.1 -0.40633 -2.00423 0
M  V30 26758 H 2628.25 1.5299 -3.55911 0
M  V30 26759 H 2628.67 0.0942716 -5.24415 0
M  V30 26760 H 2630.14 1.80424 -5.21681 0
M  V30 26761 H 2630.62 2.44709 -3.64711 0
M  V30 26762 H 2631.22 0.857336 -4.16569 0
M  V30 26763 N 2629.54 1.576 -0.00170483 0
M  V30 26764 C 2630.47 2.11565 0.988053 0
M  V30 26765 C 2631.45 1.02519 1.35735 0
M  V30 26766 O 2632.64 1.3021 1.44079 0
M  V30 26767 C 2629.77 2.62035 2.27937 0
M  V30 26768 C 2628.72 3.75622 2.05163 0
M  V30 26769 C 2628.05 4.12413 3.40323 0
M  V30 26770 C 2629.35 5.02828 1.41285 0
M  V30 26771 H 2631.04 2.94513 0.538719 0
M  V30 26772 H 2628.59 1.41676 0.257687 0
M  V30 26773 H 2630.54 2.98415 2.97533 0
M  V30 26774 H 2629.26 1.7621 2.74986 0
M  V30 26775 H 2627.92 3.39638 1.37992 0
M  V30 26776 H 2627.57 3.2361 3.85079 0
M  V30 26777 H 2627.27 4.8894 3.25901 0
M  V30 26778 H 2628.79 4.51354 4.11232 0
M  V30 26779 H 2630.21 5.36969 2.00841 0
M  V30 26780 H 2628.6 5.84171 1.37346 0
M  V30 26781 H 2629.67 4.83391 0.382278 0
M  V30 26782 N 2631.02 -0.271076 1.55251 0
M  V30 26783 C 2631.98 -1.31838 1.87487 0
M  V30 26784 C 2632.98 -1.42261 0.74957 0
M  V30 26785 O 2634.17 -1.41378 1.01773 0
M  V30 26786 C 2631.3 -2.69948 2.08185 0
M  V30 26787 H 2632.5 -1.04485 2.8111 0
M  V30 26788 H 2630.05 -0.509232 1.47772 0
M  V30 26789 H 2630.78 -3.02479 1.1695 0
M  V30 26790 H 2630.57 -2.63769 2.90118 0
M  V30 26791 H 2632.06 -3.45616 2.34392 0
M  V30 26792 N 2632.5 -1.48217 -0.535675 0
M  V30 26793 C 2633.43 -1.65207 -1.65012 0
M  V30 26794 C 2634.41 -0.50104 -1.62553 0
M  V30 26795 O 2635.59 -0.732917 -1.79839 0
M  V30 26796 C 2632.72 -1.68631 -3.03613 0
M  V30 26797 C 2631.68 -2.83178 -3.20927 0
M  V30 26798 C 2631 -2.71687 -4.60532 0
M  V30 26799 C 2632.3 -4.2454 -3.04242 0
M  V30 26800 H 2634 -2.58505 -1.51048 0
M  V30 26801 H 2631.54 -1.24404 -0.72524 0
M  V30 26802 H 2633.5 -1.79106 -3.81443 0
M  V30 26803 H 2632.22 -0.719082 -3.18586 0
M  V30 26804 H 2630.88 -2.72249 -2.45512 0
M  V30 26805 H 2630.53 -1.72946 -4.72333 0
M  V30 26806 H 2630.23 -3.48547 -4.73063 0
M  V30 26807 H 2631.75 -2.84121 -5.4047 0
M  V30 26808 H 2633.16 -4.36332 -3.71869 0
M  V30 26809 H 2631.56 -5.02354 -3.28269 0
M  V30 26810 H 2632.63 -4.41401 -2.00732 0
M  V30 26811 N 2633.97 0.784108 -1.3671 0
M  V30 26812 C 2635.22 1.53742 -1.30562 0
M  V30 26813 C 2635.54 1.95283 0.11134 0
M  V30 26814 O 2636.74 2.6989 0.295222 0
M  V30 26815 C 2635.2 2.77561 -2.29103 0
M  V30 26816 C 2634.81 2.43168 -3.76263 0
M  V30 26817 C 2636.55 3.55532 -2.31942 0
M  V30 26818 C 2634.46 3.63414 -4.66566 0
M  V30 26819 H 2633.39 0.577154 -0.48519 0
M  V30 26820 H 2636.04 0.859952 -1.62102 0
M  V30 26821 H 2634.42 3.47133 -1.90564 0
M  V30 26822 H 2635.59 1.81458 -4.23568 0
M  V30 26823 H 2633.91 1.78396 -3.7625 0
M  V30 26824 H 2636.51 4.44884 -2.96618 0
M  V30 26825 H 2636.85 3.94501 -1.32947 0
M  V30 26826 H 2637.38 2.92944 -2.69126 0
M  V30 26827 H 2634.12 3.29537 -5.66644 0
M  V30 26828 H 2633.64 4.24272 -4.23974 0
M  V30 26829 H 2635.32 4.30378 -4.83098 0
M  V30 26830 N 2635.45 1.21076 1.00888 0
M  V30 26831 C 2636.42 0.968165 2.07748 0
M  V30 26832 C 2637.42 -0.0593163 1.60691 0
M  V30 26833 O 2638.61 0.177555 1.73293 0
M  V30 26834 C 2635.74 0.459168 3.37794 0
M  V30 26835 H 2636.93 1.91614 2.30703 0
M  V30 26836 H 2634.48 1.02721 1.17805 0
M  V30 26837 H 2635.22 -0.493914 3.20517 0
M  V30 26838 H 2635 1.20025 3.73278 0
M  V30 26839 H 2636.49 0.309173 4.16454 0
M  V30 26840 N 2636.93 -1.2032 1.01789 0
M  V30 26841 C 2637.86 -2.254 0.609664 0
M  V30 26842 C 2638.84 -1.65894 -0.375922 0
M  V30 26843 O 2640.03 -1.92437 -0.261067 0
M  V30 26844 C 2637.16 -3.47262 -0.0515384 0
M  V30 26845 C 2636.11 -4.1937 0.855169 0
M  V30 26846 C 2635.44 -5.34667 0.0596697 0
M  V30 26847 C 2636.74 -4.75369 2.16382 0
M  V30 26848 H 2638.43 -2.59801 1.48807 0
M  V30 26849 H 2635.98 -1.24883 0.716956 0
M  V30 26850 H 2637.93 -4.19955 -0.34869 0
M  V30 26851 H 2636.65 -3.12028 -0.964671 0
M  V30 26852 H 2635.31 -3.48544 1.13634 0
M  V30 26853 H 2634.96 -4.95677 -0.855153 0
M  V30 26854 H 2634.66 -5.83842 0.663508 0
M  V30 26855 H 2636.18 -6.10163 -0.230998 0
M  V30 26856 H 2637.6 -5.39874 1.92895 0
M  V30 26857 H 2636 -5.34987 2.71863 0
M  V30 26858 H 2637.07 -3.9404 2.82596 0
M  V30 26859 N 2638.41 -0.794293 -1.3612 0
M  V30 26860 C 2639.63 -0.379907 -2.03891 0
M  V30 26861 C 2640.06 0.997223 -1.5949 0
M  V30 26862 O 2639.42 1.64338 -0.765681 0
M  V30 26863 C 2639.46 -0.457505 -3.57686 0
M  V30 26864 O 2638.57 0.533728 -4.08932 0
M  V30 26865 H 2637.91 -0.160552 -0.644297 0
M  V30 26866 H 2640.44 -1.07676 -1.73974 0
M  V30 26867 H 2640.45 -0.322864 -4.06721 0
M  V30 26868 H 2639.12 -1.46206 -3.89354 0
M  V30 26869 H 2637.7 0.360344 -3.71155 0
M  V30 26870 N 2639.89 1.47813 -0.546727 0
M  V30 26871 C 2640.85 2.28358 0.196247 0
M  V30 26872 C 2641.85 1.36347 0.852413 0
M  V30 26873 O 2643.04 1.59079 0.709885 0
M  V30 26874 C 2640.17 3.15724 1.28574 0
M  V30 26875 H 2641.36 2.95512 -0.511138 0
M  V30 26876 H 2638.92 1.53329 -0.303275 0
M  V30 26877 H 2639.65 2.53238 2.02585 0
M  V30 26878 H 2639.44 3.83426 0.820161 0
M  V30 26879 H 2640.93 3.76438 1.80787 0
M  V30 26880 N 2641.36 0.28266 1.55044 0
M  V30 26881 C 2642.31 -0.601526 2.22823 0
M  V30 26882 C 2643.28 -1.1439 1.20433 0
M  V30 26883 O 2644.47 -1.19181 1.48998 0
M  V30 26884 C 2641.61 -1.77627 2.95876 0
M  V30 26885 C 2640.72 -1.26703 4.13002 0
M  V30 26886 C 2639.85 -2.40418 4.7368 0
M  V30 26887 C 2638.89 -1.86535 5.82985 0
M  V30 26888 N 2638.03 -2.93751 6.37695 0
M  V30 26889 H 2642.87 -0.0169004 2.97995 0
M  V30 26890 H 2640.41 0.0034255 1.471 0
M  V30 26891 H 2642.37 -2.46691 3.36451 0
M  V30 26892 H 2641 -2.33281 2.23114 0
M  V30 26893 H 2640.05 -0.469247 3.77495 0
M  V30 26894 H 2641.36 -0.832431 4.91805 0
M  V30 26895 H 2640.51 -3.17461 5.17014 0
M  V30 26896 H 2639.25 -2.87196 3.94169 0
M  V30 26897 H 2638.26 -1.07973 5.39094 0
M  V30 26898 H 2639.48 -1.40683 6.64368 0
M  V30 26899 H 2637.43 -3.39898 5.61075 0
M  V30 26900 H 2637.35 -2.54731 7.11792 0
M  V30 26901 H 2638.61 -3.70748 6.85687 0
M  V30 26902 N 2642.84 -1.57597 0.0100627 0
M  V30 26903 C 2643.78 -2.04518 -1.0123 0
M  V30 26904 C 2644.75 -0.937047 -1.32884 0
M  V30 26905 O 2645.94 -1.20594 -1.44877 0
M  V30 26906 C 2643.06 -2.45125 -2.33734 0
M  V30 26907 C 2642.11 -3.66771 -2.17673 0
M  V30 26908 S 2642.94 -5.14256 -1.49334 0
M  V30 26909 C 2644.1 -5.58142 -2.83247 0
M  V30 26910 H 2644.33 -2.90916 -0.612815 0
M  V30 26911 H 2641.87 -1.53085 -0.201097 0
M  V30 26912 H 2643.82 -2.69187 -3.09917 0
M  V30 26913 H 2642.48 -1.59108 -2.7082 0
M  V30 26914 H 2641.68 -3.92967 -3.15583 0
M  V30 26915 H 2641.28 -3.42762 -1.49634 0
M  V30 26916 H 2643.57 -5.61217 -3.79529 0
M  V30 26917 H 2644.51 -6.57951 -2.61738 0
M  V30 26918 H 2644.92 -4.85732 -2.87618 0
M  V30 26919 N 2644.32 0.262839 -1.55393 0
M  V30 26920 C 2645.74 0.610556 -1.4746 0
M  V30 26921 C 2645.94 1.89059 -0.697064 0
M  V30 26922 O 2644.99 2.5154 -0.219996 0
M  V30 26923 C 2646.31 0.728079 -2.91752 0
M  V30 26924 C 2647.85 0.821463 -3.02028 0
M  V30 26925 C 2648.33 0.970681 -4.47596 0
M  V30 26926 N 2649.82 1.03595 -4.51467 0
M  V30 26927 C 2650.55 1.17039 -5.61328 0
M  V30 26928 N 2650.05 1.27138 -6.81034 0
M  V30 26929 N 2651.84 1.20229 -5.49091 0
M  V30 26930 H 2643.99 -0.577668 -2.04394 0
M  V30 26931 H 2646.26 -0.197102 -0.927284 0
M  V30 26932 H 2645.96 -0.142193 -3.51412 0
M  V30 26933 H 2645.84 1.60514 -3.41343 0
M  V30 26934 H 2648.22 1.6822 -2.42458 0
M  V30 26935 H 2648.31 -0.0804137 -2.55674 0
M  V30 26936 H 2647.95 0.114566 -5.07771 0
M  V30 26937 H 2647.88 1.88736 -4.91616 0
M  V30 26938 H 2650.37 0.969896 -3.65242 0
M  V30 26939 H 2650.68 1.37258 -7.60513 0
M  V30 26940 H 2649.03 1.24124 -6.83826 0
M  V30 26941 H 2652.22 1.11977 -4.54509 0
M  V30 26942 H 2652.39 1.30362 -6.34752 0
M  V30 26943 N 2645.8 1.48499 0.527807 0
M  V30 26944 C 2647.05 1.55881 1.28001 0
M  V30 26945 C 2647.36 0.238611 1.94139 0
M  V30 26946 O 2648.57 0.190691 2.7083 0
M  V30 26947 C 2647.02 2.74918 2.32267 0
M  V30 26948 C 2646.63 4.13588 1.72188 0
M  V30 26949 C 2648.37 2.91613 3.08483 0
M  V30 26950 C 2646.28 5.23884 2.74408 0
M  V30 26951 H 2645.21 0.580317 0.481403 0
M  V30 26952 H 2647.86 1.74837 0.557165 0
M  V30 26953 H 2646.24 2.494 3.07596 0
M  V30 26954 H 2647.42 4.49133 1.03033 0
M  V30 26955 H 2645.73 4.02027 1.08457 0
M  V30 26956 H 2648.33 3.71183 3.84873 0
M  V30 26957 H 2648.67 2.01152 3.64477 0
M  V30 26958 H 2649.21 3.17042 2.40269 0
M  V30 26959 H 2645.95 6.16318 2.23231 0
M  V30 26960 H 2645.47 4.92824 3.41884 0
M  V30 26961 H 2647.14 5.52089 3.37352 0
M  V30 26962 N 2647.28 -0.776847 1.37123 0
M  V30 26963 C 2648.55 -1.52419 1.22588 0
M  V30 26964 C 2648.93 -2.10308 -0.182689 0
M  V30 26965 O 2648.28 -1.95082 -1.18976 0
M  V30 26966 C 2648.49 -2.60914 2.31787 0
M  V30 26967 C 2649.84 -3.28455 2.69077 0
M  V30 26968 O 2650.86 -2.71205 2.30925 0
M  V30 26969 O 2649.72 -4.31948 3.34788 0
M  V30 26970 H 2646.82 -0.674827 0.478056 0
M  V30 26971 H 2649.36 -0.814249 1.48889 0
M  V30 26972 H 2648.14 -2.16221 3.26135 0
M  V30 26973 H 2647.76 -3.39513 2.06922 0
M  V30 26974 N 2648.76 -1.2161 -1.00244 0
M  V30 26975 C 2649.69 -0.935438 -2.09242 0
M  V30 26976 C 2650.7 0.0823308 -1.62592 0
M  V30 26977 O 2651.89 -0.150487 -1.77865 0
M  V30 26978 C 2648.99 -0.383512 -3.36723 0
M  V30 26979 C 2648.16 -1.45623 -4.12447 0
M  V30 26980 C 2647.22 -0.913082 -5.18217 0
M  V30 26981 O 2646.25 -1.59711 -5.46334 0
M  V30 26982 N 2647.45 0.270377 -5.7987 0
M  V30 26983 H 2650.21 -1.87377 -2.33902 0
M  V30 26984 H 2647.78 -1.12169 -1.16746 0
M  V30 26985 H 2649.77 -0.0056927 -4.047 0
M  V30 26986 H 2648.34 0.459704 -3.09201 0
M  V30 26987 H 2647.56 -2.00778 -3.39237 0
M  V30 26988 H 2648.85 -2.17825 -4.59815 0
M  V30 26989 H 2648.24 0.843097 -5.59382 0
M  V30 26990 H 2646.8 0.58968 -6.49127 0
M  V30 26991 N 2650.23 1.19778 -1.02425 0
M  V30 26992 C 2651.48 1.88666 -0.713298 0
M  V30 26993 C 2651.8 1.80195 0.760868 0
M  V30 26994 O 2653 2.4429 1.18469 0
M  V30 26995 C 2651.46 3.38392 -1.22551 0
M  V30 26996 C 2651.07 3.55432 -2.72713 0
M  V30 26997 C 2652.81 4.12787 -0.99033 0
M  V30 26998 C 2650.72 4.99026 -3.17375 0
M  V30 26999 H 2649.65 0.706601 -0.263117 0
M  V30 27000 H 2652.3 1.35452 -1.23795 0
M  V30 27001 H 2650.68 3.90976 -0.628801 0
M  V30 27002 H 2651.85 3.13199 -3.37999 0
M  V30 27003 H 2650.17 2.9442 -2.94458 0
M  V30 27004 H 2652.77 5.18672 -1.29935 0
M  V30 27005 H 2653.11 4.16236 0.0730029 0
M  V30 27006 H 2653.64 3.66326 -1.5508 0
M  V30 27007 H 2650.38 5.00736 -4.23018 0
M  V30 27008 H 2649.9 5.42039 -2.56814 0
M  V30 27009 H 2651.58 5.67652 -3.10451 0
M  V30 27010 N 2651.71 0.801501 1.35697 0
M  V30 27011 C 2652.62 0.209732 2.33661 0
M  V30 27012 C 2653.64 -0.644562 1.61621 0
M  V30 27013 O 2654.81 -0.557511 1.9353 0
M  V30 27014 C 2651.88 -0.635973 3.40817 0
M  V30 27015 C 2650.94 0.238222 4.28639 0
M  V30 27016 C 2650.17 -0.567214 5.30677 0
M  V30 27017 O 2650.4 -1.8023 5.41178 0
M  V30 27018 O 2649.33 0.0392394 6.01887 0
M  V30 27019 H 2653.16 1.02001 2.86059 0
M  V30 27020 H 2650.74 0.563188 1.38378 0
M  V30 27021 H 2652.62 -1.11783 4.06303 0
M  V30 27022 H 2651.3 -1.42394 2.90699 0
M  V30 27023 H 2650.2 0.767109 3.66151 0
M  V30 27024 H 2651.54 0.99 4.82141 0
M  V30 27025 N 2653.19 -1.47521 0.554558 0
M  V30 27026 C 2654.1 -2.33764 -0.197824 0
M  V30 27027 C 2655.12 -1.48027 -0.91455 0
M  V30 27028 O 2656.29 -1.80961 -0.884036 0
M  V30 27029 C 2653.36 -3.24667 -1.21622 0
M  V30 27030 C 2652.42 -4.26293 -0.507208 0
M  V30 27031 C 2651.65 -5.12853 -1.47709 0
M  V30 27032 O 2651.87 -5.01819 -2.71171 0
M  V30 27033 O 2650.81 -5.93484 -1.00303 0
M  V30 27034 H 2654.63 -2.99395 0.509543 0
M  V30 27035 H 2652.22 -1.46037 0.315202 0
M  V30 27036 H 2654.1 -3.80826 -1.80415 0
M  V30 27037 H 2652.78 -2.61668 -1.90556 0
M  V30 27038 H 2651.68 -3.73902 0.121844 0
M  V30 27039 H 2653.02 -4.91999 0.14063 0
M  V30 27040 N 2654.67 -0.290879 -1.54892 0
M  V30 27041 C 2655.6 0.583044 -2.26104 0
M  V30 27042 C 2656.58 1.14617 -1.25686 0
M  V30 27043 O 2657.76 1.17739 -1.54439 0
M  V30 27044 C 2654.89 1.75982 -2.99412 0
M  V30 27045 C 2653.85 1.32751 -4.06892 0
M  V30 27046 C 2653.17 2.58864 -4.67861 0
M  V30 27047 C 2654.47 0.466148 -5.20216 0
M  V30 27048 H 2656.17 -0.0108741 -2.99398 0
M  V30 27049 H 2653.71 -0.00666999 -1.43998 0
M  V30 27050 H 2655.67 2.3772 -3.47947 0
M  V30 27051 H 2654.39 2.37981 -2.23679 0
M  V30 27052 H 2653.05 0.733236 -3.59192 0
M  V30 27053 H 2652.7 3.19156 -3.88778 0
M  V30 27054 H 2652.4 2.30644 -5.40442 0
M  V30 27055 H 2653.92 3.21424 -5.19152 0
M  V30 27056 H 2655.34 0.988948 -5.64706 0
M  V30 27057 H 2653.73 0.278155 -5.99455 0
M  V30 27058 H 2654.8 -0.511257 -4.82197 0
M  V30 27059 N 2656.15 1.57589 -0.0184203 0
M  V30 27060 C 2657.42 1.82623 0.700589 0
M  V30 27061 C 2657.8 0.900084 1.90949 0
M  V30 27062 O 2657.15 -0.0468744 2.28452 0
M  V30 27063 C 2657.36 3.31577 1.08893 0
M  V30 27064 C 2658.71 3.97782 1.48507 0
M  V30 27065 O 2659.73 3.36009 1.18221 0
M  V30 27066 O 2658.59 5.06636 2.04894 0
M  V30 27067 H 2655.69 0.752639 0.34273 0
M  V30 27068 H 2658.23 1.6964 -0.0452846 0
M  V30 27069 H 2657 3.90635 0.228044 0
M  V30 27070 H 2656.63 3.49628 1.89331 0
M  V30 27071 N 2657.62 -0.254594 1.5553 0
M  V30 27072 C 2658.85 -1.00569 1.81385 0
M  V30 27073 C 2659.27 -1.7846 0.59445 0
M  V30 27074 O 2658.63 -1.75462 -0.456372 0
M  V30 27075 C 2658.68 -1.92539 3.04895 0
M  V30 27076 O 2657.78 -3.01596 2.81271 0
M  V30 27077 H 2657.12 -0.286576 0.598974 0
M  V30 27078 H 2659.65 -0.277917 2.02704 0
M  V30 27079 H 2659.66 -2.3415 3.34123 0
M  V30 27080 H 2658.34 -1.35263 3.9329 0
M  V30 27081 H 2656.92 -2.64169 2.6319 0
M  V30 27082 N 2659.1 -1.48777 -0.519925 0
M  V30 27083 C 2660.35 -1.56557 -1.27172 0
M  V30 27084 C 2660.66 -0.248904 -1.9401 0
M  V30 27085 O 2661.87 -0.205051 -2.70725 0
M  V30 27086 C 2660.33 -2.76146 -2.30806 0
M  V30 27087 C 2659.93 -4.14496 -1.69992 0
M  V30 27088 C 2661.68 -2.93245 -3.06932 0
M  V30 27089 C 2659.58 -5.25332 -2.71626 0
M  V30 27090 H 2658.51 -0.582862 -0.478318 0
M  V30 27091 H 2661.17 -1.7513 -0.547885 0
M  V30 27092 H 2659.55 -2.51028 -3.06269 0
M  V30 27093 H 2660.72 -4.49674 -1.0065 0
M  V30 27094 H 2659.04 -4.02597 -1.06323 0
M  V30 27095 H 2661.63 -3.73219 -3.82899 0
M  V30 27096 H 2661.98 -2.03082 -3.63405 0
M  V30 27097 H 2662.51 -3.18312 -2.38584 0
M  V30 27098 H 2659.25 -6.17493 -2.19959 0
M  V30 27099 H 2658.77 -4.9463 -3.39266 0
M  V30 27100 H 2660.45 -5.53871 -3.3442 0
M  V30 27101 N 2660.58 0.769564 -1.37534 0
M  V30 27102 C 2661.49 1.91391 -1.35671 0
M  V30 27103 C 2662.51 1.72107 -0.255985 0
M  V30 27104 O 2663.68 1.95305 -0.491739 0
M  V30 27105 C 2660.75 3.26545 -1.16487 0
M  V30 27106 C 2659.81 3.58468 -2.36219 0
M  V30 27107 C 2659.04 4.87173 -2.1794 0
M  V30 27108 O 2659.26 5.5838 -1.1648 0
M  V30 27109 O 2658.2 5.18208 -3.06176 0
M  V30 27110 H 2662.02 1.95914 -2.32059 0
M  V30 27111 H 2659.61 0.912621 -1.18286 0
M  V30 27112 H 2661.49 4.07382 -1.07785 0
M  V30 27113 H 2660.17 3.22869 -0.231744 0
M  V30 27114 H 2659.07 2.77856 -2.50493 0
M  V30 27115 H 2660.41 3.66889 -3.28106 0
M  V30 27116 N 2662.06 1.22139 0.995977 0
M  V30 27117 C 2663.28 1.07113 1.77599 0
M  V30 27118 C 2663.71 -0.374232 1.8434 0
M  V30 27119 O 2663.07 -1.27026 1.29361 0
M  V30 27120 C 2663.11 1.68341 3.18894 0
M  V30 27121 O 2662.22 0.934998 4.01661 0
M  V30 27122 H 2661.56 0.376406 0.547005 0
M  V30 27123 H 2664.09 1.61872 1.25134 0
M  V30 27124 H 2664.1 1.72937 3.69536 0
M  V30 27125 H 2662.77 2.73521 3.13303 0
M  V30 27126 H 2661.35 0.964814 3.60202 0
M  V30 27127 N 2663.54 -1.19233 1.03059 0
M  V30 27128 C 2664.79 -1.88285 0.723293 0
M  V30 27129 C 2665.1 -1.80596 -0.751301 0
M  V30 27130 O 2666.3 -2.44914 -1.17172 0
M  V30 27131 C 2664.76 -3.37738 1.24344 0
M  V30 27132 C 2664.37 -3.53981 2.74594 0
M  V30 27133 C 2666.11 -4.12256 1.01221 0
M  V30 27134 C 2664.02 -4.97336 3.20017 0
M  V30 27135 H 2662.95 -0.705196 0.266861 0
M  V30 27136 H 2665.6 -1.34793 1.24511 0
M  V30 27137 H 2663.98 -3.90637 0.649526 0
M  V30 27138 H 2665.16 -3.11402 3.39655 0
M  V30 27139 H 2663.47 -2.92854 2.96016 0
M  V30 27140 H 2666.07 -5.17976 1.32684 0
M  V30 27141 H 2666.41 -4.16269 -0.0509279 0
M  V30 27142 H 2666.94 -3.65499 1.57021 0
M  V30 27143 H 2663.68 -4.98485 4.25667 0
M  V30 27144 H 2663.2 -5.4067 2.59685 0
M  V30 27145 H 2664.88 -5.65998 3.13457 0
M  V30 27146 N 2665.01 -0.808686 -1.3527 0
M  V30 27147 C 2666.24 -0.402572 -2.02946 0
M  V30 27148 C 2666.66 0.987119 -1.60939 0
M  V30 27149 O 2666.01 1.63641 -0.807946 0
M  V30 27150 C 2666.07 -0.478743 -3.58316 0
M  V30 27151 O 2665.79 -1.81365 -3.98796 0
M  V30 27152 C 2667.29 -0.065706 -4.43251 0
M  V30 27153 H 2664.51 -0.163291 -0.650828 0
M  V30 27154 H 2667.05 -1.09289 -1.72847 0
M  V30 27155 H 2665.21 0.163347 -3.87055 0
M  V30 27156 H 2665.62 -1.7779 -4.93448 0
M  V30 27157 H 2667.09 -0.170114 -5.51738 0
M  V30 27158 H 2667.57 0.989203 -4.27915 0
M  V30 27159 H 2668.18 -0.681034 -4.19812 0
M  V30 27160 N 2666.49 1.47225 -0.562374 0
M  V30 27161 C 2667.77 1.95583 0.0256641 0
M  V30 27162 C 2668.15 1.50501 1.4803 0
M  V30 27163 O 2667.5 0.746219 2.15972 0
M  V30 27164 C 2667.71 3.48775 -0.12519 0
M  V30 27165 C 2669.06 4.24596 0.0174982 0
M  V30 27166 O 2670.08 3.56161 -0.0529967 0
M  V30 27167 O 2668.94 5.46235 0.170049 0
M  V30 27168 H 2666.03 0.824729 0.061242 0
M  V30 27169 H 2668.58 1.57602 -0.629261 0
M  V30 27170 H 2667.35 3.7441 -1.13721 0
M  V30 27171 H 2666.97 3.93535 0.567109 0
M  V30 27172 N 2667.97 0.299089 1.54736 0
M  V30 27173 C 2669.22 -0.310135 1.99706 0
M  V30 27174 C 2669.54 -1.54557 1.18899 0
M  V30 27175 O 2668.81 -1.93823 0.284479 0
M  V30 27176 H 2667.39 -0.117583 0.737688 0
M  V30 27177 H 2670.05 0.409976 1.90539 0
M  V30 27178 H 2669.15 -0.583496 3.06597 0
M  V30 27179 N 2669.45 -1.57577 0.0267774 0
M  V30 27180 C 2670.41 -2.08998 -0.940879 0
M  V30 27181 C 2671.41 -1.00457 -1.25559 0
M  V30 27182 O 2672.6 -1.26625 -1.19632 0
M  V30 27183 C 2669.73 -2.55387 -2.2581 0
M  V30 27184 H 2670.93 -2.95777 -0.495576 0
M  V30 27185 H 2668.48 -1.54727 -0.221214 0
M  V30 27186 H 2669.21 -1.71931 -2.74973 0
M  V30 27187 H 2669 -3.34682 -2.0428 0
M  V30 27188 H 2670.49 -2.95403 -2.95173 0
M  V30 27189 N 2670.93 0.246342 -1.55663 0
M  V30 27190 C 2672.15 0.996061 -1.81916 0
M  V30 27191 C 2672.58 1.78142 -0.603906 0
M  V30 27192 O 2671.93 1.75702 0.44706 0
M  V30 27193 C 2671.98 1.9092 -3.05912 0
M  V30 27194 O 2671.09 3.001 -2.82866 0
M  V30 27195 H 2670.43 0.283396 -0.600486 0
M  V30 27196 H 2672.96 0.267163 -2.02848 0
M  V30 27197 H 2672.97 2.32374 -3.3536 0
M  V30 27198 H 2671.64 1.33176 -3.94001 0
M  V30 27199 H 2670.22 2.6277 -2.64587 0
M  V30 27200 N 2672.4 1.4905 0.512027 0
M  V30 27201 C 2673.63 1.61932 1.29587 0
M  V30 27202 C 2674.05 0.286487 1.85906 0
M  V30 27203 O 2673.41 -0.744397 1.65313 0
M  V30 27204 C 2673.46 2.68254 2.40982 0
M  V30 27205 O 2672.56 2.2666 3.44527 0
M  V30 27206 H 2671.91 0.542377 0.383044 0
M  V30 27207 H 2674.44 1.95163 0.614196 0
M  V30 27208 H 2674.45 2.90083 2.86908 0
M  V30 27209 H 2673.12 3.65007 1.99355 0
M  V30 27210 H 2671.7 2.15118 3.04596 0
M  V30 27211 N 2673.88 -0.762259 1.3794 0
M  V30 27212 C 2675.3 -1.06413 1.18947 0
M  V30 27213 C 2675.5 -2.01474 0.0321517 0
M  V30 27214 O 2674.55 -2.44648 -0.624801 0
M  V30 27215 C 2675.87 -1.65253 2.51221 0
M  V30 27216 C 2677.42 -1.77466 2.57827 0
M  V30 27217 C 2677.89 -2.39718 3.90255 0
M  V30 27218 N 2679.38 -2.47159 3.91748 0
M  V30 27219 C 2680.12 -2.96201 4.90971 0
M  V30 27220 N 2679.61 -3.45344 6.00591 0
M  V30 27221 N 2681.41 -2.95162 4.78368 0
M  V30 27222 H 2673.56 -0.131263 2.11994 0
M  V30 27223 H 2675.82 -0.120862 0.940264 0
M  V30 27224 H 2675.53 -1.02872 3.36319 0
M  V30 27225 H 2675.4 -2.64428 2.68994 0
M  V30 27226 H 2677.79 -2.38977 1.7313 0
M  V30 27227 H 2677.87 -0.770198 2.43929 0
M  V30 27228 H 2677.51 -1.78844 4.75371 0
M  V30 27229 H 2677.44 -3.40789 4.0146 0
M  V30 27230 H 2679.93 -2.12392 3.12567 0
M  V30 27231 H 2680.25 -3.81195 6.72242 0
M  V30 27232 H 2678.59 -3.43424 6.04223 0
M  V30 27233 H 2681.78 -2.56075 3.91846 0
M  V30 27234 H 2681.95 -3.33071 5.55849 0
M  V30 27235 N 2675.36 -1.22666 -0.989486 0
M  V30 27236 C 2676.78 -0.987353 -1.25393 0
M  V30 27237 C 2676.98 0.317021 -1.98991 0
M  V30 27238 O 2676.03 1.03878 -2.30143 0
M  V30 27239 C 2677.35 -2.1883 -2.06238 0
M  V30 27240 C 2678.89 -2.23223 -2.1941 0
M  V30 27241 C 2679.37 -3.42879 -3.03642 0
M  V30 27242 N 2680.86 -3.43062 -3.11228 0
M  V30 27243 C 2681.59 -4.32299 -3.76702 0
M  V30 27244 N 2681.09 -5.3176 -4.44076 0
M  V30 27245 N 2682.88 -4.20066 -3.73498 0
M  V30 27246 H 2675.03 -2.06523 -0.496176 0
M  V30 27247 H 2677.3 -0.905158 -0.281768 0
M  V30 27248 H 2677 -3.1344 -1.59526 0
M  V30 27249 H 2676.88 -2.19171 -3.06992 0
M  V30 27250 H 2679.26 -1.29158 -2.65334 0
M  V30 27251 H 2679.35 -2.26919 -1.18074 0
M  V30 27252 H 2678.99 -4.37245 -2.58416 0
M  V30 27253 H 2678.92 -3.36423 -4.05126 0
M  V30 27254 H 2681.41 -2.71092 -2.63282 0
M  V30 27255 H 2681.72 -5.96126 -4.91787 0
M  V30 27256 H 2680.07 -5.35669 -4.42813 0
M  V30 27257 H 2683.26 -3.41614 -3.20027 0
M  V30 27258 H 2683.43 -4.89817 -4.24244 0
M  V30 27259 N 2676.84 1.18685 -1.0369 0
M  V30 27260 C 2677.79 2.24231 -0.618331 0
M  V30 27261 C 2678.78 1.65681 0.353016 0
M  V30 27262 O 2679.99 1.78642 0.220718 0
M  V30 27263 H 2676.36 0.729713 -0.181723 0
M  V30 27264 H 2678.33 2.56846 -1.51898 0
M  V30 27265 C 2677.08 3.47699 0.00671231 0
M  V30 27266 H 2676.41 3.93046 -0.731761 0
M  V30 27267 H 2677.85 4.23187 0.262417 0
M  V30 27268 C 2676.3 3.12625 1.25567 0
M  V30 27269 O 2676.83 3.26015 2.34685 0
M  V30 27270 N 2675.04 2.66984 1.1475 0
M  V30 27271 H 2674.59 2.56289 0.259556 0
M  V30 27272 H 2674.55 2.43888 1.98408 0
M  V30 27273 N 2678.32 0.815849 1.34839 0
M  V30 27274 C 2679.25 0.190305 2.28409 0
M  V30 27275 C 2680.26 -0.615744 1.50706 0
M  V30 27276 O 2681.45 -0.446585 1.72823 0
M  V30 27277 C 2678.55 -0.752388 3.30443 0
M  V30 27278 C 2677.72 0.00929841 4.37399 0
M  V30 27279 C 2676.78 -0.85326 5.19236 0
M  V30 27280 O 2675.81 -0.30082 5.68405 0
M  V30 27281 N 2677.01 -2.17406 5.38252 0
M  V30 27282 H 2679.78 0.994164 2.8273 0
M  V30 27283 H 2677.34 0.672155 1.47288 0
M  V30 27284 H 2679.33 -1.33387 3.82086 0
M  V30 27285 H 2677.9 -1.45702 2.76568 0
M  V30 27286 H 2677.12 0.772047 3.86566 0
M  V30 27287 H 2678.41 0.533896 5.05991 0
M  V30 27288 H 2677.81 -2.64672 4.99965 0
M  V30 27289 H 2676.36 -2.70456 5.9304 0
M  V30 27290 N 2679.8 -1.46924 0.570174 0
M  V30 27291 C 2680.73 -2.32963 -0.158233 0
M  V30 27292 C 2681.71 -1.44584 -0.896067 0
M  V30 27293 O 2682.89 -1.73422 -0.873991 0
M  V30 27294 C 2680.02 -3.26621 -1.1805 0
M  V30 27295 C 2678.98 -4.24343 -0.558305 0
M  V30 27296 C 2678.3 -5.07418 -1.68614 0
M  V30 27297 C 2679.6 -5.19936 0.496386 0
M  V30 27298 H 2681.3 -2.94114 0.560098 0
M  V30 27299 H 2678.84 -1.41431 0.2708 0
M  V30 27300 H 2680.79 -3.85661 -1.69834 0
M  V30 27301 H 2679.52 -2.63552 -1.92894 0
M  V30 27302 H 2678.18 -3.66548 -0.0616513 0
M  V30 27303 H 2677.83 -4.40743 -2.42394 0
M  V30 27304 H 2677.53 -5.73589 -1.27554 0
M  V30 27305 H 2679.05 -5.69319 -2.20699 0
M  V30 27306 H 2680.46 -5.73264 0.064106 0
M  V30 27307 H 2678.86 -5.9438 0.826595 0
M  V30 27308 H 2679.93 -4.64627 1.38743 0
M  V30 27309 N 2681.27 -0.307291 -1.54575 0
M  V30 27310 C 2682.2 0.55903 -2.26709 0
M  V30 27311 C 2683.18 1.13277 -1.26895 0
M  V30 27312 O 2684.37 1.16094 -1.55679 0
M  V30 27313 C 2681.5 1.72796 -3.01262 0
M  V30 27314 C 2680.45 1.28428 -4.08277 0
M  V30 27315 C 2679.78 2.53887 -4.7058 0
M  V30 27316 C 2681.08 0.410946 -5.20681 0
M  V30 27317 H 2682.77 -0.0426286 -2.9937 0
M  V30 27318 H 2680.32 -0.0219426 -1.43983 0
M  V30 27319 H 2682.27 2.34017 -3.50448 0
M  V30 27320 H 2681 2.35596 -2.26191 0
M  V30 27321 H 2679.66 0.695098 -3.5995 0
M  V30 27322 H 2679.3 3.15015 -3.92141 0
M  V30 27323 H 2679 2.24899 -5.42858 0
M  V30 27324 H 2680.53 3.15899 -5.22532 0
M  V30 27325 H 2681.94 0.928997 -5.65723 0
M  V30 27326 H 2680.34 0.214559 -5.99716 0
M  V30 27327 H 2681.41 -0.562372 -4.81628 0
M  V30 27328 N 2682.75 1.57561 -0.0351337 0
M  V30 27329 C 2684 1.92332 0.643146 0
M  V30 27330 C 2684.33 0.912398 1.71432 0
M  V30 27331 O 2683.61 -0.0639962 1.94395 0
M  V30 27332 C 2683.89 3.37558 1.25405 0
M  V30 27333 C 2683.74 4.4939 0.19203 0
M  V30 27334 C 2685.06 3.82863 2.17035 0
M  V30 27335 H 2682.18 0.699423 0.232329 0
M  V30 27336 H 2684.82 1.89769 -0.0936222 0
M  V30 27337 H 2682.97 3.39873 1.88199 0
M  V30 27338 H 2684.64 4.59207 -0.43893 0
M  V30 27339 H 2682.89 4.31116 -0.481801 0
M  V30 27340 H 2683.56 5.4805 0.659196 0
M  V30 27341 H 2686.03 3.82323 1.64221 0
M  V30 27342 H 2684.91 4.85161 2.56729 0
M  V30 27343 H 2685.17 3.18707 3.06395 0
M  V30 27344 N 2684.23 -0.238084 1.55791 0
M  V30 27345 C 2685.51 -0.988231 1.688 0
M  V30 27346 C 2685.89 -2.03044 0.577597 0
M  V30 27347 O 2685.23 -2.24649 -0.41774 0
M  V30 27348 C 2685.44 -1.61362 3.09457 0
M  V30 27349 C 2686.79 -2.11214 3.68339 0
M  V30 27350 O 2687.82 -1.71287 3.12313 0
M  V30 27351 O 2686.68 -2.84552 4.66575 0
M  V30 27352 H 2683.77 -0.460556 0.686889 0
M  V30 27353 H 2686.32 -0.231172 1.68118 0
M  V30 27354 H 2685.09 -0.860228 3.81727 0
M  V30 27355 H 2684.71 -2.43665 3.14186 0
M  V30 27356 N 2685.71 -1.4932 -0.504115 0
M  V30 27357 C 2686.64 -1.6867 -1.6147 0
M  V30 27358 C 2687.62 -0.535407 -1.61454 0
M  V30 27359 O 2688.8 -0.770899 -1.78244 0
M  V30 27360 C 2685.93 -1.75033 -2.99968 0
M  V30 27361 C 2684.89 -2.89921 -3.14849 0
M  V30 27362 C 2684.21 -2.81395 -4.54666 0
M  V30 27363 C 2685.51 -4.30898 -2.95168 0
M  V30 27364 H 2687.21 -2.61651 -1.45531 0
M  V30 27365 H 2684.75 -1.25914 -0.698689 0
M  V30 27366 H 2686.71 -1.87157 -3.77558 0
M  V30 27367 H 2685.43 -0.786496 -3.16989 0
M  V30 27368 H 2684.09 -2.77395 -2.39682 0
M  V30 27369 H 2683.74 -1.82926 -4.68559 0
M  V30 27370 H 2683.44 -3.58503 -4.65564 0
M  V30 27371 H 2684.96 -2.95522 -5.34321 0
M  V30 27372 H 2686.38 -4.44122 -3.62531 0
M  V30 27373 H 2684.77 -5.09204 -3.1754 0
M  V30 27374 H 2685.84 -4.45559 -1.91324 0
M  V30 27375 N 2687.19 0.754933 -1.38342 0
M  V30 27376 C 2688.43 1.51103 -1.3421 0
M  V30 27377 C 2688.75 1.94882 0.0677291 0
M  V30 27378 O 2688.02 1.67546 1.01515 0
M  V30 27379 H 2686.6 0.560484 -0.493828 0
M  V30 27380 H 2689.27 0.897476 -1.73007 0
M  V30 27381 H 2688.36 2.40256 -1.99207 0
M  V30 27382 N 2688.66 1.23189 0.982967 0
M  V30 27383 C 2689.89 1.08991 1.76453 0
M  V30 27384 C 2690.31 -0.354659 1.84726 0
M  V30 27385 O 2689.67 -1.25646 1.30701 0
M  V30 27386 C 2689.72 1.71714 3.17091 0
M  V30 27387 O 2688.82 0.977547 4.00647 0
M  V30 27388 H 2688.16 0.382187 0.542982 0
M  V30 27389 H 2690.69 1.6319 1.2341 0
M  V30 27390 H 2690.7 1.76847 3.67681 0
M  V30 27391 H 2689.38 2.76829 3.10385 0
M  V30 27392 H 2687.96 1.00296 3.59159 0
M  V30 27393 N 2690.14 -1.18133 1.04318 0
M  V30 27394 C 2691.05 -2.25504 0.646916 0
M  V30 27395 C 2692.07 -1.70881 -0.327977 0
M  V30 27396 O 2693.24 -2.00573 -0.182273 0
M  V30 27397 C 2690.31 -3.46695 0.0186273 0
M  V30 27398 C 2689.37 -4.16441 1.04285 0
M  V30 27399 C 2688.6 -5.31846 0.444445 0
M  V30 27400 O 2688.83 -5.65466 -0.748636 0
M  V30 27401 O 2687.76 -5.90332 1.17439 0
M  V30 27402 H 2691.59 -2.61669 1.54152 0
M  V30 27403 H 2689.17 -1.25264 0.81421 0
M  V30 27404 H 2691.05 -4.20098 -0.330994 0
M  V30 27405 H 2689.73 -3.12347 -0.84976 0
M  V30 27406 H 2688.63 -3.45095 1.44431 0
M  V30 27407 H 2689.97 -4.54795 1.88208 0
M  V30 27408 N 2691.62 -0.822988 -1.34405 0
M  V30 27409 C 2692.55 -0.259649 -2.32052 0
M  V30 27410 C 2693.53 0.623933 -1.58244 0
M  V30 27411 O 2694.72 0.550797 -1.86225 0
M  V30 27412 C 2691.85 0.579254 -3.42435 0
M  V30 27413 C 2690.8 -0.207196 -4.27498 0
M  V30 27414 C 2690.13 0.754453 -5.29351 0
M  V30 27415 C 2691.43 -1.41542 -5.02756 0
M  V30 27416 H 2693.12 -1.0755 -2.79416 0
M  V30 27417 H 2690.67 -0.518617 -1.34337 0
M  V30 27418 H 2692.62 0.98354 -4.09761 0
M  V30 27419 H 2691.34 1.42815 -2.9372 0
M  V30 27420 H 2690 -0.59285 -3.61775 0
M  V30 27421 H 2689.65 1.59931 -4.76897 0
M  V30 27422 H 2689.35 0.232458 -5.8714 0
M  V30 27423 H 2690.87 1.1566 -5.99546 0
M  V30 27424 H 2692.29 -1.08514 -5.62937 0
M  V30 27425 H 2690.69 -1.87306 -5.7012 0
M  V30 27426 H 2691.76 -2.19358 -4.32447 0
M  V30 27427 N 2693.1 1.4662 -0.577957 0
M  V30 27428 C 2694.05 2.31972 0.170841 0
M  V30 27429 C 2695.04 1.44195 0.889061 0
M  V30 27430 O 2696.25 1.60846 0.807989 0
M  V30 27431 H 2692.62 0.748354 0.0739632 0
M  V30 27432 H 2694.59 2.92946 -0.567907 0
M  V30 27433 C 2693.34 3.27269 1.17432 0
M  V30 27434 H 2692.66 3.94788 0.631091 0
M  V30 27435 H 2694.1 3.8978 1.66875 0
M  V30 27436 C 2692.56 2.52278 2.23288 0
M  V30 27437 O 2693.09 2.28234 3.30563 0
M  V30 27438 N 2691.3 2.12923 1.97768 0
M  V30 27439 H 2690.85 2.32677 1.1054 0
M  V30 27440 H 2690.8 1.63066 2.68806 0
M  V30 27441 N 2694.58 0.315484 1.5441 0
M  V30 27442 C 2695.51 -0.546999 2.27003 0
M  V30 27443 C 2696.49 -1.12603 1.27494 0
M  V30 27444 O 2697.67 -1.15267 1.56292 0
M  V30 27445 C 2694.8 -1.71196 3.02174 0
M  V30 27446 C 2693.76 -1.26261 4.08952 0
M  V30 27447 C 2693.08 -2.51388 4.7192 0
M  V30 27448 C 2694.38 -0.383327 5.20891 0
M  V30 27449 H 2696.08 0.0585043 2.99343 0
M  V30 27450 H 2693.62 0.0295781 1.4397 0
M  V30 27451 H 2695.58 -2.32155 3.51685 0
M  V30 27452 H 2694.3 -2.34393 2.27437 0
M  V30 27453 H 2692.96 -0.675999 3.60313 0
M  V30 27454 H 2692.61 -3.12931 3.93806 0
M  V30 27455 H 2692.31 -2.22017 5.44043 0
M  V30 27456 H 2693.83 -3.13124 5.242 0
M  V30 27457 H 2695.24 -0.898983 5.66208 0
M  V30 27458 H 2693.64 -0.182752 5.99822 0
M  V30 27459 H 2694.71 0.587906 4.81323 0
M  V30 27460 N 2696.05 -1.5754 0.0434891 0
M  V30 27461 C 2697.3 -1.92005 -0.630753 0
M  V30 27462 C 2697.62 -0.921838 -1.71835 0
M  V30 27463 O 2696.89 0.0344876 -1.9587 0
M  V30 27464 H 2695.47 -0.708749 -0.235975 0
M  V30 27465 H 2698.14 -1.9467 0.0946804 0
M  V30 27466 H 2697.23 -2.93028 -1.07429 0
M  V30 27467 N 2697.53 0.229818 -1.55915 0
M  V30 27468 C 2698.5 1.26821 -1.90916 0
M  V30 27469 C 2699.5 1.40223 -0.787024 0
M  V30 27470 O 2700.69 1.3863 -1.05486 0
M  V30 27471 C 2697.82 2.64333 -2.15269 0
M  V30 27472 H 2699.01 0.969948 -2.83782 0
M  V30 27473 H 2696.56 0.469873 -1.4907 0
M  V30 27474 H 2697.3 2.99272 -1.24928 0
M  V30 27475 H 2697.08 2.55984 -2.9701 0
M  V30 27476 H 2698.57 3.3928 -2.43473 0
M  V30 27477 N 2699.01 1.49585 0.49619 0
M  V30 27478 C 2700.26 1.58561 1.24665 0
M  V30 27479 C 2700.57 0.279737 1.93589 0
M  V30 27480 O 2701.78 0.248095 2.70364 0
M  V30 27481 C 2700.23 2.79783 2.26384 0
M  V30 27482 C 2699.84 4.17148 1.63377 0
M  V30 27483 C 2701.59 2.98091 3.02228 0
M  V30 27484 C 2699.49 5.29587 2.63234 0
M  V30 27485 H 2698.42 0.590397 0.468985 0
M  V30 27486 H 2701.07 1.75979 0.519954 0
M  V30 27487 H 2699.46 2.55869 3.02237 0
M  V30 27488 H 2700.63 4.51218 0.934831 0
M  V30 27489 H 2698.95 4.04237 0.99905 0
M  V30 27490 H 2701.54 3.79264 3.76913 0
M  V30 27491 H 2701.89 2.08838 3.60129 0
M  V30 27492 H 2702.42 3.22067 2.3349 0
M  V30 27493 H 2699.16 6.20915 2.10108 0
M  V30 27494 H 2698.68 4.99965 3.31354 0
M  V30 27495 H 2700.36 5.59121 3.25566 0
M  V30 27496 N 2700.49 -0.747586 1.3874 0
M  V30 27497 C 2701.77 -1.49784 1.25794 0
M  V30 27498 C 2702.15 -2.10648 -0.138038 0
M  V30 27499 O 2701.49 -1.97562 -1.14811 0
M  V30 27500 C 2701.7 -2.55938 2.37269 0
M  V30 27501 C 2703.05 -3.22674 2.75983 0
M  V30 27502 O 2704.08 -2.66246 2.36625 0
M  V30 27503 O 2702.93 -4.2475 3.43875 0
M  V30 27504 H 2700.03 -0.664535 0.492263 0
M  V30 27505 H 2702.57 -0.782484 1.50583 0
M  V30 27506 H 2701.35 -2.09255 3.30648 0
M  V30 27507 H 2700.97 -3.35048 2.14077 0
M  V30 27508 N 2701.97 -1.23709 -0.97642 0
M  V30 27509 C 2703.21 -1.06945 -1.71485 0
M  V30 27510 C 2703.54 0.393863 -1.90981 0
M  V30 27511 O 2702.81 1.28196 -1.48131 0
M  V30 27512 H 2701.39 -0.39275 -0.635418 0
M  V30 27513 H 2704.05 -1.55489 -1.17512 0
M  V30 27514 H 2703.14 -1.56056 -2.70283 0
M  V30 27515 N 2703.44 1.17579 -1.04943 0
M  V30 27516 C 2704.41 2.19716 -0.652494 0
M  V30 27517 C 2705.41 1.58076 0.294717 0
M  V30 27518 O 2706.6 1.74021 0.0789273 0
M  V30 27519 C 2703.73 3.40874 0.0420113 0
M  V30 27520 H 2704.92 2.56348 -1.55647 0
M  V30 27521 H 2702.48 1.31616 -0.843019 0
M  V30 27522 H 2703.21 3.09785 0.959376 0
M  V30 27523 H 2703 3.8686 -0.638912 0
M  V30 27524 H 2704.49 4.16478 0.305927 0
M  V30 27525 N 2704.92 0.830104 1.33967 0
M  V30 27526 C 2705.89 0.26239 2.27693 0
M  V30 27527 C 2706.89 -0.563849 1.5059 0
M  V30 27528 O 2708.08 -0.378911 1.70029 0
M  V30 27529 C 2705.21 -0.631321 3.35003 0
M  V30 27530 H 2706.4 1.08933 2.79417 0
M  V30 27531 H 2703.95 0.602512 1.4422 0
M  V30 27532 H 2704.69 -1.48104 2.88506 0
M  V30 27533 H 2704.47 -0.0402587 3.92079 0
M  V30 27534 H 2705.96 -1.0221 4.04899 0
M  V30 27535 N 2706.4 -1.46311 0.585725 0
M  V30 27536 C 2707.31 -2.34131 -0.148195 0
M  V30 27537 C 2708.33 -1.49934 -0.882946 0
M  V30 27538 O 2709.5 -1.82795 -0.845452 0
M  V30 27539 C 2706.57 -3.27174 -1.14708 0
M  V30 27540 C 2705.63 -4.27273 -0.416671 0
M  V30 27541 C 2704.86 -5.1587 -1.36797 0
M  V30 27542 O 2705.09 -5.07458 -2.60466 0
M  V30 27543 O 2704.02 -5.95478 -0.876914 0
M  V30 27544 H 2707.85 -2.98247 0.572934 0
M  V30 27545 H 2705.43 -1.45336 0.346107 0
M  V30 27546 H 2707.31 -3.84567 -1.72296 0
M  V30 27547 H 2705.99 -2.65651 -1.84962 0
M  V30 27548 H 2704.89 -3.73559 0.201127 0
M  V30 27549 H 2706.23 -4.9159 0.244959 0
M  V30 27550 N 2707.88 -0.323668 -1.54241 0
M  V30 27551 C 2709.1 0.283568 -2.05452 0
M  V30 27552 C 2709.53 1.44995 -1.19826 0
M  V30 27553 O 2708.89 1.8011 -0.20739 0
M  V30 27554 C 2708.94 0.695732 -3.53825 0
M  V30 27555 O 2708.04 1.79809 -3.71137 0
M  V30 27556 H 2707.38 0.0511801 -0.662025 0
M  V30 27557 H 2709.91 -0.472108 -1.99079 0
M  V30 27558 H 2709.92 0.978365 -3.96096 0
M  V30 27559 H 2708.6 -0.15736 -4.15602 0
M  V30 27560 H 2707.17 1.51425 -3.40771 0
M  V30 27561 N 2709.36 1.57515 -0.0518432 0
M  V30 27562 C 2710.63 1.84068 0.661694 0
M  V30 27563 C 2711.01 0.940384 1.88997 0
M  V30 27564 O 2710.36 0.0015942 2.285 0
M  V30 27565 C 2710.57 3.33812 1.01835 0
M  V30 27566 C 2711.92 4.00843 1.40036 0
M  V30 27567 O 2712.94 3.38441 1.11067 0
M  V30 27568 O 2711.8 5.10869 1.94102 0
M  V30 27569 H 2708.9 0.759739 0.326688 0
M  V30 27570 H 2711.44 1.69505 -0.0812575 0
M  V30 27571 H 2710.22 3.91031 0.145134 0
M  V30 27572 H 2709.84 3.53565 1.81873 0
M  V30 27573 N 2710.84 -0.221546 1.56035 0
M  V30 27574 C 2711.77 -1.27776 1.95436 0
M  V30 27575 C 2712.75 -1.48887 0.82259 0
M  V30 27576 O 2713.93 -1.61071 1.08489 0
M  V30 27577 C 2711.06 -2.62755 2.27106 0
M  V30 27578 C 2710.02 -2.563 3.42774 0
M  V30 27579 C 2709.34 -3.95308 3.60049 0
M  V30 27580 C 2710.64 -2.11084 4.77745 0
M  V30 27581 H 2712.34 -0.950454 2.83913 0
M  V30 27582 H 2709.88 -0.455767 1.36597 0
M  V30 27583 H 2711.83 -3.36803 2.53262 0
M  V30 27584 H 2710.56 -2.97173 1.35483 0
M  V30 27585 H 2709.22 -1.84709 3.16667 0
M  V30 27586 H 2708.87 -4.27034 2.65802 0
M  V30 27587 H 2708.57 -3.91871 4.37848 0
M  V30 27588 H 2710.09 -4.71018 3.88554 0
M  V30 27589 H 2711.5 -2.74876 5.03106 0
M  V30 27590 H 2709.9 -2.18707 5.58827 0
M  V30 27591 H 2710.97 -1.06313 4.73102 0
M  V30 27592 N 2712.31 -1.49846 -0.48825 0
M  V30 27593 C 2713.28 -1.66922 -1.57066 0
M  V30 27594 C 2714.28 -0.540505 -1.51444 0
M  V30 27595 O 2715.47 -0.807215 -1.54369 0
M  V30 27596 C 2712.6 -1.67849 -2.96715 0
M  V30 27597 H 2713.79 -2.63476 -1.43249 0
M  V30 27598 H 2711.34 -1.39069 -0.71341 0
M  V30 27599 H 2712.08 -0.729256 -3.15994 0
M  V30 27600 H 2711.86 -2.49831 -3.02203 0
M  V30 27601 H 2713.35 -1.83073 -3.75332 0
M  V30 27602 N 2713.79 0.740218 -1.39135 0
M  V30 27603 C 2715.04 1.49671 -1.35805 0
M  V30 27604 C 2715.36 1.94943 0.0470554 0
M  V30 27605 O 2714.63 1.68613 0.997318 0
M  V30 27606 H 2713.21 0.555215 -0.499745 0
M  V30 27607 H 2715.87 0.879076 -1.73949 0
M  V30 27608 H 2714.97 2.3813 -2.01744 0
M  V30 27609 N 2715.27 1.24225 0.969846 0
M  V30 27610 C 2716.2 1.05733 2.08189 0
M  V30 27611 C 2717.18 -0.0290466 1.70075 0
M  V30 27612 O 2718.37 0.137617 1.93712 0
M  V30 27613 C 2715.5 0.659055 3.40989 0
M  V30 27614 C 2714.45 1.69396 3.93051 0
M  V30 27615 C 2713.78 1.15081 5.22169 0
M  V30 27616 C 2715.08 3.08943 4.21132 0
M  V30 27617 H 2716.77 1.9875 2.23917 0
M  V30 27618 H 2714.32 0.956986 1.076 0
M  V30 27619 H 2716.27 0.516694 4.1822 0
M  V30 27620 H 2714.99 -0.306802 3.25156 0
M  V30 27621 H 2713.65 1.8245 3.17974 0
M  V30 27622 H 2713.3 0.175627 5.02693 0
M  V30 27623 H 2713 1.84238 5.57969 0
M  V30 27624 H 2714.52 1.02053 6.02011 0
M  V30 27625 H 2715.94 2.9913 4.89075 0
M  V30 27626 H 2714.33 3.75433 4.68156 0
M  V30 27627 H 2715.4 3.57142 3.2799 0
M  V30 27628 N 2716.75 -1.1702 1.05565 0
M  V30 27629 C 2718.16 -1.39369 0.777709 0
M  V30 27630 C 2718.36 -1.91522 -0.626235 0
M  V30 27631 O 2717.42 -2.10927 -1.38803 0
M  V30 27632 C 2718.73 -2.38106 1.83646 0
M  V30 27633 C 2720.28 -2.51805 1.85911 0
M  V30 27634 C 2720.76 -3.53819 2.9082 0
M  V30 27635 N 2722.25 -3.6134 2.89806 0
M  V30 27636 C 2722.98 -4.40042 3.67628 0
M  V30 27637 N 2722.48 -5.22229 4.55246 0
M  V30 27638 N 2724.27 -4.34952 3.56052 0
M  V30 27639 H 2716.42 -0.815013 1.96141 0
M  V30 27640 H 2718.68 -0.420707 0.849535 0
M  V30 27641 H 2718.39 -2.06866 2.84428 0
M  V30 27642 H 2718.26 -3.37659 1.68126 0
M  V30 27643 H 2720.65 -2.82354 0.857915 0
M  V30 27644 H 2720.73 -1.52314 2.05509 0
M  V30 27645 H 2720.38 -3.24008 3.91128 0
M  V30 27646 H 2720.31 -4.53023 2.68473 0
M  V30 27647 H 2722.8 -3.02665 2.2628 0
M  V30 27648 H 2723.11 -5.79475 5.11301 0
M  V30 27649 H 2721.46 -5.21597 4.59306 0
M  V30 27650 H 2724.65 -3.69801 2.86992 0
M  V30 27651 H 2724.82 -4.96044 4.16947 0
M  V30 27652 N 2718.23 -0.837197 -1.33524 0
M  V30 27653 C 2719.45 -0.444581 -2.02579 0
M  V30 27654 C 2719.88 0.945977 -1.62582 0
M  V30 27655 O 2719.23 1.61819 -0.817576 0
M  V30 27656 C 2719.28 -0.571068 -3.56049 0
M  V30 27657 O 2718.39 0.403359 -4.10423 0
M  V30 27658 H 2717.73 -0.180969 -0.638863 0
M  V30 27659 H 2720.26 -1.13157 -1.7046 0
M  V30 27660 H 2720.27 -0.452095 -4.05487 0
M  V30 27661 H 2718.94 -1.58519 -3.84506 0
M  V30 27662 H 2717.52 0.242082 -3.72113 0
M  V30 27663 N 2719.7 1.45999 -0.593476 0
M  V30 27664 C 2720.64 2.28557 0.171529 0
M  V30 27665 C 2721.65 1.39138 0.845248 0
M  V30 27666 O 2722.84 1.63641 0.713004 0
M  V30 27667 C 2719.94 3.14484 1.26305 0
M  V30 27668 C 2719.11 4.32095 0.679182 0
M  V30 27669 C 2718.17 4.99337 1.65978 0
M  V30 27670 O 2717.2 5.56587 1.19161 0
M  V30 27671 N 2718.4 4.9733 2.99405 0
M  V30 27672 H 2721.16 2.94853 -0.536823 0
M  V30 27673 H 2718.72 1.56031 -0.431982 0
M  V30 27674 H 2720.72 3.56333 1.91856 0
M  V30 27675 H 2719.29 2.50191 1.87412 0
M  V30 27676 H 2718.51 3.93899 -0.154061 0
M  V30 27677 H 2719.79 5.08088 0.26907 0
M  V30 27678 H 2719.19 4.52082 3.40056 0
M  V30 27679 H 2717.75 5.43086 3.60417 0
M  V30 27680 N 2721.18 0.331843 1.54067 0
M  V30 27681 C 2722.43 -0.268631 2.01013 0
M  V30 27682 C 2722.76 -1.51133 1.21952 0
M  V30 27683 O 2722.04 -1.92109 0.304006 0
M  V30 27684 C 2722.32 -0.594498 3.55159 0
M  V30 27685 C 2722.17 0.659487 4.44939 0
M  V30 27686 C 2723.49 -1.40883 4.16941 0
M  V30 27687 H 2720.61 -0.0961627 0.730699 0
M  V30 27688 H 2723.25 0.450063 1.84593 0
M  V30 27689 H 2721.4 -1.20678 3.69282 0
M  V30 27690 H 2723.07 1.29764 4.42673 0
M  V30 27691 H 2721.32 1.28672 4.14277 0
M  V30 27692 H 2721.99 0.386901 5.50642 0
M  V30 27693 H 2724.46 -0.891201 4.06444 0
M  V30 27694 H 2723.34 -1.60559 5.24892 0
M  V30 27695 H 2723.6 -2.40745 3.70802 0
M  V30 27696 N 2722.66 -1.57485 0.0601958 0
M  V30 27697 C 2723.89 -1.97364 -0.620903 0
M  V30 27698 C 2724.3 -0.938111 -1.63844 0
M  V30 27699 O 2723.66 0.0766257 -1.82339 0
M  V30 27700 C 2723.71 -3.37324 -1.29981 0
M  V30 27701 O 2723.43 -4.36908 -0.323004 0
M  V30 27702 C 2724.93 -3.92012 -2.06982 0
M  V30 27703 H 2722.15 -0.649337 -0.169124 0
M  V30 27704 H 2724.7 -2.04092 0.129167 0
M  V30 27705 H 2722.85 -3.31718 -2.00104 0
M  V30 27706 H 2723.27 -5.18229 -0.808663 0
M  V30 27707 H 2724.74 -4.92197 -2.49893 0
M  V30 27708 H 2725.22 -3.27926 -2.92167 0
M  V30 27709 H 2725.82 -4.00983 -1.4175 0
M  V30 27710 N 2724.14 0.213268 -1.5615 0
M  V30 27711 C 2725.09 1.26434 -1.93089 0
M  V30 27712 C 2726.06 1.46158 -0.789111 0
M  V30 27713 O 2727.24 1.59591 -1.04572 0
M  V30 27714 C 2724.38 2.60796 -2.26008 0
M  V30 27715 C 2723.49 2.48801 -3.5316 0
M  V30 27716 C 2722.63 3.75743 -3.75487 0
M  V30 27717 C 2721.67 3.58505 -4.96126 0
M  V30 27718 N 2720.8 4.77416 -5.14799 0
M  V30 27719 H 2725.64 0.942326 -2.82709 0
M  V30 27720 H 2723.18 0.453976 -1.3992 0
M  V30 27721 H 2725.14 3.39051 -2.43106 0
M  V30 27722 H 2723.77 2.91076 -1.39551 0
M  V30 27723 H 2722.82 1.61938 -3.4421 0
M  V30 27724 H 2724.13 2.31988 -4.41569 0
M  V30 27725 H 2723.29 4.6244 -3.92726 0
M  V30 27726 H 2722.03 3.9549 -2.85375 0
M  V30 27727 H 2721.03 2.70192 -4.78828 0
M  V30 27728 H 2722.26 3.4022 -5.8773 0
M  V30 27729 H 2720.2 4.97461 -4.27631 0
M  V30 27730 H 2720.12 4.6336 -5.97355 0
M  V30 27731 H 2721.39 5.65516 -5.36481 0
M  V30 27732 N 2725.62 1.50103 0.480296 0
M  V30 27733 C 2726.55 1.71218 1.58766 0
M  V30 27734 C 2727.53 0.561025 1.60582 0
M  V30 27735 O 2728.71 0.799158 1.76995 0
M  V30 27736 C 2725.84 1.79783 2.97145 0
M  V30 27737 C 2724.8 2.94894 3.10196 0
M  V30 27738 C 2724.12 2.88592 4.50132 0
M  V30 27739 C 2725.42 4.35539 2.88276 0
M  V30 27740 H 2727.12 2.63933 1.4135 0
M  V30 27741 H 2724.66 1.2701 0.678569 0
M  V30 27742 H 2726.62 1.9314 3.74533 0
M  V30 27743 H 2725.34 0.836827 3.15697 0
M  V30 27744 H 2724 2.81173 2.35239 0
M  V30 27745 H 2723.65 1.90357 4.65589 0
M  V30 27746 H 2723.35 3.65864 4.59801 0
M  V30 27747 H 2724.87 3.03985 5.29552 0
M  V30 27748 H 2726.28 4.49834 3.55419 0
M  V30 27749 H 2724.68 5.14191 3.09399 0
M  V30 27750 H 2725.75 4.48547 1.84211 0
M  V30 27751 N 2727.09 -0.732829 1.39526 0
M  V30 27752 C 2728.06 -1.82854 1.38192 0
M  V30 27753 C 2729.06 -1.58367 0.278651 0
M  V30 27754 O 2730.25 -1.65727 0.536668 0
M  V30 27755 C 2727.38 -3.20678 1.15666 0
M  V30 27756 H 2728.57 -1.8544 2.35695 0
M  V30 27757 H 2726.13 -0.936706 1.25122 0
M  V30 27758 H 2726.86 -3.23751 0.188539 0
M  V30 27759 H 2726.65 -3.39848 1.95565 0
M  V30 27760 H 2728.14 -4.00735 1.17479 0
M  V30 27761 N 2728.57 -1.24737 -0.963244 0
M  V30 27762 C 2729.99 -1.01373 -1.23271 0
M  V30 27763 C 2730.19 0.274741 -1.99618 0
M  V30 27764 O 2729.24 0.989728 -2.32294 0
M  V30 27765 C 2730.56 -2.23155 -2.0155 0
M  V30 27766 C 2732.11 -2.27827 -2.14625 0
M  V30 27767 C 2732.58 -3.49242 -2.963 0
M  V30 27768 N 2734.07 -3.49586 -3.03881 0
M  V30 27769 C 2734.81 -4.40193 -3.67448 0
M  V30 27770 N 2734.3 -5.4106 -4.32696 0
M  V30 27771 N 2736.1 -4.27894 -3.64504 0
M  V30 27772 H 2728.25 -2.07529 -0.452258 0
M  V30 27773 H 2730.51 -0.910931 -0.262504 0
M  V30 27774 H 2730.22 -3.16753 -1.52841 0
M  V30 27775 H 2730.09 -2.25633 -3.02274 0
M  V30 27776 H 2732.48 -1.34757 -2.62535 0
M  V30 27777 H 2732.56 -2.29372 -1.13234 0
M  V30 27778 H 2732.2 -4.42628 -2.49084 0
M  V30 27779 H 2732.13 -3.4494 -3.97899 0
M  V30 27780 H 2734.62 -2.76616 -2.57472 0
M  V30 27781 H 2734.94 -6.06423 -4.79031 0
M  V30 27782 H 2733.28 -5.44942 -4.31351 0
M  V30 27783 H 2736.47 -3.48326 -3.12709 0
M  V30 27784 H 2736.64 -4.98706 -4.13759 0
M  V30 27785 N 2730.05 1.16459 -1.06184 0
M  V30 27786 C 2731.28 1.90866 -0.798617 0
M  V30 27787 C 2731.69 1.77372 0.64689 0
M  V30 27788 O 2731.05 1.11761 1.44277 0
M  V30 27789 C 2731.1 3.41608 -1.18264 0
M  V30 27790 O 2730.82 3.54697 -2.57141 0
M  V30 27791 C 2732.32 4.33067 -0.946993 0
M  V30 27792 H 2729.54 0.605281 -0.289614 0
M  V30 27793 H 2732.09 1.47624 -1.41518 0
M  V30 27794 H 2730.24 3.82557 -0.61063 0
M  V30 27795 H 2730.66 4.48165 -2.72485 0
M  V30 27796 H 2732.13 5.37302 -1.26533 0
M  V30 27797 H 2732.61 4.39043 0.117329 0
M  V30 27798 H 2733.21 3.97844 -1.50333 0
M  V30 27799 N 2731.53 0.844266 1.33079 0
M  V30 27800 C 2732.76 0.455577 2.01514 0
M  V30 27801 C 2733.17 -0.949377 1.63657 0
M  V30 27802 O 2732.51 -1.62929 0.848509 0
M  V30 27803 C 2732.57 0.502864 3.55966 0
M  V30 27804 C 2732.24 1.86488 4.17218 0
M  V30 27805 C 2733.23 2.82888 4.362 0
M  V30 27806 C 2730.92 2.15919 4.53524 0
M  V30 27807 C 2732.91 4.06877 4.90642 0
M  V30 27808 C 2730.6 3.40164 5.07673 0
M  V30 27809 C 2731.6 4.3546 5.26178 0
M  V30 27810 O 2731.28 5.57506 5.79173 0
M  V30 27811 H 2731.02 0.178576 0.651987 0
M  V30 27812 H 2733.57 1.13993 1.70865 0
M  V30 27813 H 2731.8 -0.238292 3.85965 0
M  V30 27814 H 2733.49 0.131241 4.05688 0
M  V30 27815 H 2734.26 2.61452 4.08495 0
M  V30 27816 H 2730.13 1.42536 4.38411 0
M  V30 27817 H 2733.68 4.81268 5.05002 0
M  V30 27818 H 2729.58 3.61455 5.34809 0
M  V30 27819 H 2730.34 5.59321 5.97581 0
M  V30 27820 N 2733.01 -1.45682 0.60121 0
M  V30 27821 C 2733.95 -2.30481 -0.121356 0
M  V30 27822 C 2734.92 -1.41725 -0.866207 0
M  V30 27823 O 2736.11 -1.7066 -0.85321 0
M  V30 27824 C 2733.25 -3.26523 -1.11698 0
M  V30 27825 C 2732.36 -4.30381 -0.373665 0
M  V30 27826 C 2731.5 -5.13536 -1.35845 0
M  V30 27827 C 2730.54 -6.09127 -0.602582 0
M  V30 27828 N 2729.67 -6.85085 -1.53633 0
M  V30 27829 H 2734.51 -2.91736 0.607783 0
M  V30 27830 H 2732.05 -1.43763 0.311527 0
M  V30 27831 H 2734.01 -3.80667 -1.70729 0
M  V30 27832 H 2732.64 -2.67036 -1.81361 0
M  V30 27833 H 2731.69 -3.78948 0.332028 0
M  V30 27834 H 2733 -4.9833 0.216388 0
M  V30 27835 H 2732.16 -5.72049 -2.02101 0
M  V30 27836 H 2730.89 -4.45591 -1.98243 0
M  V30 27837 H 2729.9 -5.49751 0.0736448 0
M  V30 27838 H 2731.12 -6.79098 0.016266 0
M  V30 27839 H 2729.07 -6.19833 -2.14808 0
M  V30 27840 H 2728.99 -7.49363 -0.999557 0
M  V30 27841 H 2730.26 -7.48143 -2.18867 0
M  V30 27842 N 2734.48 -0.340009 -1.53889 0
M  V30 27843 C 2735.9 0.144638 -1.86139 0
M  V30 27844 C 2736.25 1.50283 -1.26132 0
M  V30 27845 O 2735.37 2.08661 -0.573552 0
M  V30 27846 C 2735.97 0.269226 -3.37729 0
M  V30 27847 C 2734.53 0.698103 -3.6987 0
M  V30 27848 C 2733.67 -0.170298 -2.76777 0
M  V30 27849 H 2736.62 -0.55973 -1.48502 0
M  V30 27850 H 2736.64 1.09734 -3.64333 0
M  V30 27851 H 2736.16 -0.719433 -3.81374 0
M  V30 27852 H 2734.26 1.69591 -3.31767 0
M  V30 27853 H 2734.37 0.490449 -4.76583 0
M  V30 27854 H 2732.73 0.356799 -2.52188 0
M  V30 27855 H 2733.52 -1.15603 -3.23251 0
M  V30 27856 N 2735.96 1.57451 -0.0685468 0
M  V30 27857 C 2737.19 1.97404 0.609542 0
M  V30 27858 C 2737.6 0.945517 1.6388 0
M  V30 27859 O 2736.94 -0.076573 1.8354 0
M  V30 27860 C 2737.01 3.33656 1.33844 0
M  V30 27861 C 2736.67 4.54648 0.463023 0
M  V30 27862 C 2737.67 5.19156 -0.278055 0
M  V30 27863 C 2735.35 5.00793 0.388853 0
M  V30 27864 C 2737.35 6.28157 -1.08156 0
M  V30 27865 C 2735.03 6.09667 -0.418324 0
M  V30 27866 C 2736.03 6.73211 -1.1522 0
M  V30 27867 O 2735.72 7.79989 -1.94607 0
M  V30 27868 H 2735.45 0.654227 0.170186 0
M  V30 27869 H 2738.01 2.04946 -0.136507 0
M  V30 27870 H 2736.24 3.22718 2.13049 0
M  V30 27871 H 2737.92 3.58236 1.90845 0
M  V30 27872 H 2738.69 4.84453 -0.230327 0
M  V30 27873 H 2734.57 4.51112 0.94969 0
M  V30 27874 H 2738.11 6.77687 -1.65488 0
M  V30 27875 H 2734.01 6.43804 -0.467628 0
M  V30 27876 H 2734.78 7.96851 -1.87004 0
M  V30 27877 N 2737.44 -0.204984 1.56261 0
M  V30 27878 C 2738.69 -0.925064 1.79686 0
M  V30 27879 C 2739.01 -1.84201 0.639922 0
M  V30 27880 O 2738.28 -1.92886 -0.342311 0
M  V30 27881 H 2736.86 -0.344575 0.66278 0
M  V30 27882 H 2739.52 -0.212865 1.93734 0
M  V30 27883 H 2738.62 -1.52206 2.72469 0
M  V30 27884 N 2738.92 -1.50356 -0.472329 0
M  V30 27885 C 2740.33 -1.54156 -1.05323 0
M  V30 27886 C 2740.68 -0.344337 -1.93155 0
M  V30 27887 O 2739.81 0.542892 -2.09479 0
M  V30 27888 C 2740.4 -2.7936 -1.91686 0
M  V30 27889 C 2738.96 -2.85845 -2.44887 0
M  V30 27890 C 2738.11 -2.48429 -1.23201 0
M  V30 27891 H 2741.06 -1.56638 -0.254999 0
M  V30 27892 H 2741.08 -2.61145 -2.76738 0
M  V30 27893 H 2740.59 -3.66477 -1.27734 0
M  V30 27894 H 2738.69 -2.03076 -3.12396 0
M  V30 27895 H 2738.81 -3.88706 -2.80079 0
M  V30 27896 H 2737.17 -2.00839 -1.56639 0
M  V30 27897 H 2737.95 -3.37853 -0.609134 0
M  V30 27898 N 2740.4 0.725419 -1.39912 0
M  V30 27899 C 2741.64 1.48735 -1.37861 0
M  V30 27900 C 2741.98 1.94187 0.0223846 0
M  V30 27901 O 2741.25 1.67468 0.989175 0
M  V30 27902 C 2741.53 2.72033 -2.35945 0
M  V30 27903 C 2741.39 2.32539 -3.85027 0
M  V30 27904 C 2742.71 3.74163 -2.31711 0
M  V30 27905 H 2739.83 0.539519 -0.502084 0
M  V30 27906 H 2742.47 0.828697 -1.70975 0
M  V30 27907 H 2740.62 3.28232 -2.07836 0
M  V30 27908 H 2742.29 1.81898 -4.23923 0
M  V30 27909 H 2740.53 1.64654 -4.01337 0
M  V30 27910 H 2741.2 3.20877 -4.49157 0
M  V30 27911 H 2743.68 3.27571 -2.56586 0
M  V30 27912 H 2742.56 4.58087 -3.02403 0
M  V30 27913 H 2742.82 4.21766 -1.32537 0
M  V30 27914 N 2741.88 1.25246 0.956615 0
M  V30 27915 C 2742.81 1.07935 2.07056 0
M  V30 27916 C 2743.79 -0.0110062 1.70096 0
M  V30 27917 O 2744.97 0.158155 1.93555 0
M  V30 27918 C 2742.1 0.695184 3.40271 0
M  V30 27919 C 2741.06 1.73555 3.91232 0
M  V30 27920 C 2740.38 1.20613 5.20919 0
M  V30 27921 C 2741.68 3.13392 4.17831 0
M  V30 27922 H 2743.38 2.01113 2.21797 0
M  V30 27923 H 2740.92 0.968345 1.06579 0
M  V30 27924 H 2742.87 0.561023 4.17649 0
M  V30 27925 H 2741.6 -0.272298 3.25463 0
M  V30 27926 H 2740.26 1.85812 3.16021 0
M  V30 27927 H 2739.91 0.228934 5.02479 0
M  V30 27928 H 2739.61 1.90146 5.55984 0
M  V30 27929 H 2741.13 1.08432 6.00895 0
M  V30 27930 H 2742.54 3.043 4.85875 0
M  V30 27931 H 2740.94 3.80377 4.64148 0
M  V30 27932 H 2742.01 3.60601 3.24183 0
M  V30 27933 N 2743.35 -1.15894 1.068 0
M  V30 27934 C 2744.58 -1.90981 0.808773 0
M  V30 27935 C 2745 -1.7718 -0.631568 0
M  V30 27936 O 2744.36 -1.10064 -1.44068 0
M  V30 27937 C 2744.41 -3.39524 1.21474 0
M  V30 27938 O 2743.51 -4.10855 0.356634 0
M  V30 27939 H 2742.85 -0.594806 0.29513 0
M  V30 27940 H 2745.38 -1.46801 1.42515 0
M  V30 27941 H 2745.39 -3.90306 1.18851 0
M  V30 27942 H 2744.07 -3.48888 2.26385 0
M  V30 27943 H 2742.65 -3.70237 0.444874 0
M  V30 27944 N 2744.83 -0.851312 -1.32629 0
M  V30 27945 C 2746.11 -0.374482 -1.91982 0
M  V30 27946 C 2746.49 1.14158 -1.7757 0
M  V30 27947 O 2745.84 1.9617 -1.17174 0
M  V30 27948 C 2746.05 -0.835148 -3.3886 0
M  V30 27949 C 2747.39 -0.850383 -4.15997 0
M  V30 27950 O 2748.42 -0.779566 -3.47565 0
M  V30 27951 O 2747.28 -0.949575 -5.38187 0
M  V30 27952 H 2744.37 -0.108554 -0.819845 0
M  V30 27953 H 2746.92 -0.937991 -1.41421 0
M  V30 27954 H 2745.69 -1.8782 -3.43278 0
M  V30 27955 H 2745.31 -0.248902 -3.9682 0
M  V30 27956 N 2746.31 1.45361 -0.608928 0
M  V30 27957 C 2747.27 2.28985 0.099216 0
M  V30 27958 C 2748.27 1.3984 0.793817 0
M  V30 27959 O 2749.46 1.61947 0.641776 0
M  V30 27960 C 2746.59 3.20893 1.15067 0
M  V30 27961 H 2747.79 2.93078 -0.636015 0
M  V30 27962 H 2745.34 1.51905 -0.368034 0
M  V30 27963 H 2746.08 2.61603 1.91662 0
M  V30 27964 H 2745.86 3.8656 0.656799 0
M  V30 27965 H 2747.35 3.83768 1.64658 0
M  V30 27966 N 2747.79 0.348166 1.53706 0
M  V30 27967 C 2749.04 -0.247957 2.0017 0
M  V30 27968 C 2749.35 -1.51284 1.23986 0
M  V30 27969 O 2750.56 -2.18649 1.6095 0
M  V30 27970 C 2749.01 -0.492396 3.56516 0
M  V30 27971 C 2748.62 0.756854 4.41561 0
M  V30 27972 C 2750.36 -1.04712 4.11382 0
M  V30 27973 C 2748.27 0.48296 5.89425 0
M  V30 27974 H 2747.2 -0.096432 0.747808 0
M  V30 27975 H 2749.85 0.464211 1.77531 0
M  V30 27976 H 2748.23 -1.26538 3.75239 0
M  V30 27977 H 2749.41 1.5313 4.34612 0
M  V30 27978 H 2747.72 1.23355 3.97709 0
M  V30 27979 H 2750.32 -1.26708 5.1947 0
M  V30 27980 H 2750.66 -2.00405 3.64889 0
M  V30 27981 H 2751.2 -0.334731 3.96389 0
M  V30 27982 H 2747.93 1.40973 6.40162 0
M  V30 27983 H 2747.45 -0.253311 5.99265 0
M  V30 27984 H 2749.13 0.10193 6.4692 0
M  V30 27985 N 2749.27 -1.57412 0.0768958 0
M  V30 27986 C 2750.21 -2.14222 -0.906192 0
M  V30 27987 C 2751.21 -1.08039 -1.30476 0
M  V30 27988 O 2752.41 -1.26412 -1.28141 0
M  V30 27989 H 2748.79 -0.685043 -0.310195 0
M  V30 27990 H 2750.76 -2.95677 -0.402176 0
M  V30 27991 C 2749.51 -2.72278 -2.16241 0
M  V30 27992 H 2748.83 -3.53658 -1.86457 0
M  V30 27993 H 2750.27 -3.15618 -2.83128 0
M  V30 27994 C 2748.73 -1.67284 -2.92434 0
M  V30 27995 O 2749.26 -1.10088 -3.8632 0
M  V30 27996 N 2747.47 -1.382 -2.55635 0
M  V30 27997 H 2747.01 -1.849 -1.79359 0
M  V30 27998 H 2746.97 -0.681841 -3.06917 0
M  V30 27999 N 2750.74 0.196695 -1.56368 0
M  V30 28000 C 2752.02 0.943129 -1.71361 0
M  V30 28001 C 2752.4 2.01442 -0.631228 0
M  V30 28002 O 2751.75 2.25678 0.358032 0
M  V30 28003 C 2751.96 1.531 -3.13626 0
M  V30 28004 C 2753.31 2.01374 -3.7381 0
M  V30 28005 O 2754.33 1.62946 -3.16744 0
M  V30 28006 O 2753.19 2.72082 -4.73955 0
M  V30 28007 H 2750.28 0.442183 -0.698859 0
M  V30 28008 H 2752.83 0.186517 -1.68672 0
M  V30 28009 H 2751.6 0.758717 -3.83874 0
M  V30 28010 H 2751.23 2.35249 -3.20536 0
M  V30 28011 N 2752.22 1.50604 0.464349 0
M  V30 28012 C 2753.15 1.6612 1.57913 0
M  V30 28013 C 2754.17 0.542487 1.53496 0
M  V30 28014 O 2755.36 0.815905 1.58762 0
M  V30 28015 C 2752.46 1.63583 2.96806 0
M  V30 28016 C 2751.63 2.91598 3.26021 0
M  V30 28017 C 2750.69 2.81611 4.44501 0
M  V30 28018 O 2749.71 3.55567 4.44478 0
M  V30 28019 N 2750.92 1.95624 5.46545 0
M  V30 28020 H 2753.68 2.62279 1.45017 0
M  V30 28021 H 2751.24 1.48152 0.652877 0
M  V30 28022 H 2753.23 1.54506 3.74045 0
M  V30 28023 H 2751.8 0.751315 3.03437 0
M  V30 28024 H 2751.02 3.1475 2.37331 0
M  V30 28025 H 2752.31 3.76392 3.42354 0
M  V30 28026 H 2751.71 1.34864 5.49389 0
M  V30 28027 H 2750.27 1.92446 6.22742 0
M  V30 28028 N 2753.7 -0.717989 1.40295 0
M  V30 28029 C 2754.63 -1.84495 1.43122 0
M  V30 28030 C 2755.61 -1.67567 0.292433 0
M  V30 28031 O 2756.8 -1.87634 0.500707 0
M  V30 28032 C 2753.93 -3.22425 1.29071 0
M  V30 28033 C 2752.88 -3.54021 2.40527 0
M  V30 28034 C 2752.21 -4.91069 2.11555 0
M  V30 28035 C 2753.51 -3.55262 3.82865 0
M  V30 28036 H 2755.2 -1.82387 2.37435 0
M  V30 28037 H 2752.75 -0.87607 1.14285 0
M  V30 28038 H 2754.7 -4.00955 1.29665 0
M  V30 28039 H 2753.42 -3.25103 0.312328 0
M  V30 28040 H 2752.08 -2.7783 2.39178 0
M  V30 28041 H 2751.73 -4.90347 1.12113 0
M  V30 28042 H 2751.43 -5.13175 2.86225 0
M  V30 28043 H 2752.95 -5.71935 2.13827 0
M  V30 28044 H 2754.37 -4.23837 3.86051 0
M  V30 28045 H 2752.77 -3.88894 4.57035 0
M  V30 28046 H 2753.84 -2.54698 4.12622 0
M  V30 28047 N 2755.18 -1.25752 -0.94996 0
M  V30 28048 C 2756.59 -1.02675 -1.22189 0
M  V30 28049 C 2756.79 0.253553 -1.99898 0
M  V30 28050 O 2755.85 0.965035 -2.33331 0
M  V30 28051 C 2757.16 -2.2528 -1.99171 0
M  V30 28052 C 2758.71 -2.3009 -2.12197 0
M  V30 28053 C 2759.19 -3.52365 -2.9258 0
M  V30 28054 N 2760.68 -3.52789 -3.00156 0
M  V30 28055 C 2761.41 -4.44065 -3.62759 0
M  V30 28056 N 2760.91 -5.45619 -4.26933 0
M  V30 28057 N 2762.7 -4.31736 -3.59945 0
M  V30 28058 H 2754.85 -2.07997 -0.430221 0
M  V30 28059 H 2757.12 -0.913664 -0.252828 0
M  V30 28060 H 2756.82 -3.18356 -1.49473 0
M  V30 28061 H 2756.7 -2.28826 -2.99864 0
M  V30 28062 H 2759.08 -1.37534 -2.61091 0
M  V30 28063 H 2759.16 -2.3056 -1.10795 0
M  V30 28064 H 2758.81 -4.45245 -2.44375 0
M  V30 28065 H 2758.74 -3.49141 -3.94218 0
M  V30 28066 H 2761.23 -2.79331 -2.54524 0
M  V30 28067 H 2761.54 -6.1147 -4.72572 0
M  V30 28068 H 2759.89 -5.49486 -4.25547 0
M  V30 28069 H 2763.08 -3.51623 -3.08997 0
M  V30 28070 H 2763.25 -5.03066 -4.08446 0
M  V30 28071 N 2756.66 1.15326 -1.07413 0
M  V30 28072 C 2757.88 1.90008 -0.818816 0
M  V30 28073 C 2758.3 1.78048 0.628041 0
M  V30 28074 O 2757.66 1.13285 1.43083 0
M  V30 28075 C 2757.71 3.40334 -1.2188 0
M  V30 28076 O 2757.43 3.5195 -2.60889 0
M  V30 28077 C 2758.93 4.32038 -0.992872 0
M  V30 28078 H 2756.15 0.602175 -0.296017 0
M  V30 28079 H 2758.69 1.46115 -1.43076 0
M  V30 28080 H 2756.85 3.81888 -0.651171 0
M  V30 28081 H 2757.26 4.4525 -2.77223 0
M  V30 28082 H 2758.74 5.3593 -1.32225 0
M  V30 28083 H 2759.21 4.39143 0.0707559 0
M  V30 28084 H 2759.82 3.96228 -1.54544 0
M  V30 28085 N 2758.13 0.858334 1.32176 0
M  V30 28086 C 2759.38 0.464205 1.97416 0
M  V30 28087 C 2759.71 -0.978484 1.67748 0
M  V30 28088 O 2758.99 -1.68719 0.967684 0
M  V30 28089 C 2759.27 0.708156 3.53068 0
M  V30 28090 C 2759.12 2.19953 3.92353 0
M  V30 28091 C 2760.44 0.166958 4.39783 0
M  V30 28092 H 2757.56 0.170132 0.717094 0
M  V30 28093 H 2760.2 1.07743 1.56497 0
M  V30 28094 H 2758.35 0.186197 3.88054 0
M  V30 28095 H 2760.03 2.78785 3.67528 0
M  V30 28096 H 2758.27 2.67662 3.41379 0
M  V30 28097 H 2758.94 2.32091 5.00837 0
M  V30 28098 H 2761.42 0.613358 4.11555 0
M  V30 28099 H 2760.29 0.367189 5.4767 0
M  V30 28100 H 2760.55 -0.930483 4.32197 0
M  V30 28101 N 2759.61 -1.45036 0.616628 0
M  V30 28102 C 2760.54 -2.33349 -0.0840377 0
M  V30 28103 C 2761.52 -1.47362 -0.849615 0
M  V30 28104 O 2762.71 -1.76114 -0.818376 0
M  V30 28105 C 2759.84 -3.30212 -1.07599 0
M  V30 28106 C 2758.79 -4.25904 -0.423021 0
M  V30 28107 C 2758.12 -5.12526 -1.52385 0
M  V30 28108 C 2759.42 -5.18093 0.661549 0
M  V30 28109 H 2761.11 -2.92184 0.653385 0
M  V30 28110 H 2758.66 -1.40498 0.315658 0
M  V30 28111 H 2760.61 -3.90869 -1.57479 0
M  V30 28112 H 2759.34 -2.69555 -1.84412 0
M  V30 28113 H 2757.99 -3.66559 0.0549944 0
M  V30 28114 H 2757.64 -4.48231 -2.28249 0
M  V30 28115 H 2757.34 -5.77356 -1.09241 0
M  V30 28116 H 2758.87 -5.76052 -2.02474 0
M  V30 28117 H 2760.28 -5.7277 0.246453 0
M  V30 28118 H 2758.68 -5.91449 1.01527 0
M  V30 28119 H 2759.75 -4.59978 1.53454 0
M  V30 28120 N 2761.09 -0.356312 -1.53519 0
M  V30 28121 C 2762.34 0.235801 -2.0072 0
M  V30 28122 C 2762.66 1.50038 -1.24554 0
M  V30 28123 O 2761.93 1.92634 -0.356219 0
M  V30 28124 H 2760.51 0.0901235 -0.741543 0
M  V30 28125 H 2763.17 -0.480411 -1.88886 0
M  V30 28126 H 2762.27 0.469303 -3.08551 0
M  V30 28127 N 2762.57 1.57369 -0.0852427 0
M  V30 28128 C 2763.98 1.81309 0.445397 0
M  V30 28129 C 2764.33 1.00016 1.68794 0
M  V30 28130 O 2763.46 0.226611 2.1521 0
M  V30 28131 C 2764.05 3.28856 0.814829 0
M  V30 28132 C 2762.61 3.53595 1.29026 0
M  V30 28133 C 2761.76 2.75862 0.28204 0
M  V30 28134 H 2764.71 1.55627 -0.310799 0
M  V30 28135 H 2764.73 3.4164 1.67518 0
M  V30 28136 H 2764.24 3.87996 -0.0896991 0
M  V30 28137 H 2762.34 2.99774 2.21284 0
M  V30 28138 H 2762.45 4.62265 1.2589 0
M  V30 28139 H 2760.82 2.4303 0.762139 0
M  V30 28140 H 2761.6 3.37747 -0.614995 0
M  V30 28141 N 2764.05 -0.188399 1.5647 0
M  V30 28142 C 2765.27 -0.927858 1.85487 0
M  V30 28143 C 2765.7 -1.75778 0.669606 0
M  V30 28144 O 2765.05 -1.7724 -0.381542 0
M  V30 28145 C 2765.1 -1.79434 3.12787 0
M  V30 28146 O 2764.21 -2.89395 2.9381 0
M  V30 28147 H 2763.55 -0.260914 0.61059 0
M  V30 28148 H 2766.08 -0.191693 2.037 0
M  V30 28149 H 2766.09 -2.19768 3.43753 0
M  V30 28150 H 2764.76 -1.18461 3.98673 0
M  V30 28151 H 2763.34 -2.52769 2.74157 0
M  V30 28152 N 2765.53 -1.50848 -0.456355 0
M  V30 28153 C 2766.77 -1.62252 -1.20494 0
M  V30 28154 C 2767.09 -0.331872 -1.92155 0
M  V30 28155 O 2766.36 0.651411 -1.84752 0
M  V30 28156 H 2764.94 -0.597926 -0.447765 0
M  V30 28157 H 2767.61 -1.87694 -0.525066 0
M  V30 28158 H 2766.7 -2.44092 -1.94487 0
M  V30 28159 N 2767 0.710538 -1.40674 0
M  V30 28160 C 2767.95 1.8246 -1.4134 0
M  V30 28161 C 2768.92 1.63896 -0.269676 0
M  V30 28162 O 2770.11 1.84959 -0.468496 0
M  V30 28163 C 2767.25 3.20215 -1.28671 0
M  V30 28164 C 2766.36 3.50316 -2.5279 0
M  V30 28165 C 2765.49 4.77604 -2.32526 0
M  V30 28166 C 2764.53 5.00624 -3.52196 0
M  V30 28167 N 2763.67 6.19129 -3.31095 0
M  V30 28168 H 2768.51 1.81226 -2.36561 0
M  V30 28169 H 2766.05 0.885205 -1.17484 0
M  V30 28170 H 2768 3.9977 -1.19331 0
M  V30 28171 H 2766.63 3.20665 -0.370658 0
M  V30 28172 H 2765.69 2.65278 -2.72638 0
M  V30 28173 H 2767 3.63235 -3.41851 0
M  V30 28174 H 2766.15 5.65186 -2.20568 0
M  V30 28175 H 2764.89 4.66904 -1.40898 0
M  V30 28176 H 2763.9 4.11496 -3.64625 0
M  V30 28177 H 2765.12 5.13193 -4.44758 0
M  V30 28178 H 2763.07 6.0967 -2.42154 0
M  V30 28179 H 2762.98 6.32747 -4.13724 0
M  V30 28180 H 2764.25 7.09485 -3.2288 0
M  V30 28181 N 2768.48 1.26254 0.943277 0
M  V30 28182 C 2769.9 1.03321 1.21643 0
M  V30 28183 C 2770.1 -0.242948 2.0003 0
M  V30 28184 O 2769.15 -0.952647 2.33839 0
M  V30 28185 C 2770.47 2.26333 1.97974 0
M  V30 28186 C 2772.01 2.31212 2.10974 0
M  V30 28187 C 2772.49 3.53912 2.90707 0
M  V30 28188 N 2773.98 3.54376 2.98281 0
M  V30 28189 C 2774.72 4.45983 3.60398 0
M  V30 28190 N 2774.21 5.47875 4.24034 0
M  V30 28191 N 2776 4.33639 3.5765 0
M  V30 28192 H 2768.16 2.08222 0.419184 0
M  V30 28193 H 2770.42 0.914992 0.247979 0
M  V30 28194 H 2770.12 3.19144 1.47783 0
M  V30 28195 H 2770 2.30413 2.98646 0
M  V30 28196 H 2772.39 1.38917 2.60358 0
M  V30 28197 H 2772.47 2.31145 1.09571 0
M  V30 28198 H 2772.11 4.46535 2.4201 0
M  V30 28199 H 2772.04 3.51227 3.92361 0
M  V30 28200 H 2774.53 2.80677 2.53039 0
M  V30 28201 H 2774.84 6.13967 4.69323 0
M  V30 28202 H 2773.19 5.51735 4.22627 0
M  V30 28203 H 2776.38 3.53256 3.07128 0
M  V30 28204 H 2776.55 5.05225 4.05773 0
M  V30 28205 N 2769.96 -1.14755 1.08024 0
M  V30 28206 C 2771.37 -1.67277 0.829173 0
M  V30 28207 C 2771.72 -1.85306 -0.644689 0
M  V30 28208 O 2770.85 -1.56136 -1.49835 0
M  V30 28209 C 2771.44 -3.03854 1.49861 0
M  V30 28210 C 2770 -3.53426 1.29488 0
M  V30 28211 C 2769.15 -2.28992 1.5639 0
M  V30 28212 H 2772.1 -0.988741 1.24135 0
M  V30 28213 H 2772.12 -3.69119 0.923637 0
M  V30 28214 H 2771.63 -2.907 2.57128 0
M  V30 28215 H 2769.73 -3.71808 0.242735 0
M  V30 28216 H 2769.85 -4.34443 2.01981 0
M  V30 28217 H 2768.21 -2.34872 0.985258 0
M  V30 28218 H 2768.99 -2.18418 2.64855 0
M  V30 28219 N 2771.44 -0.865331 -1.31719 0
M  V30 28220 C 2772.69 -0.47303 -1.96486 0
M  V30 28221 C 2773.01 0.976946 -1.68762 0
M  V30 28222 O 2772.28 1.68422 -1.00054 0
M  V30 28223 H 2770.86 -0.171934 -0.726944 0
M  V30 28224 H 2773.52 -1.1041 -1.6061 0
M  V30 28225 H 2772.61 -0.626924 -3.05739 0
M  V30 28226 N 2772.92 1.44707 -0.624311 0
M  V30 28227 C 2773.88 2.29078 0.0749235 0
M  V30 28228 C 2774.88 1.40674 0.77894 0
M  V30 28229 O 2776.07 1.62619 0.624563 0
M  V30 28230 C 2773.2 3.22095 1.11657 0
M  V30 28231 H 2774.39 2.92387 -0.667064 0
M  V30 28232 H 2771.95 1.51506 -0.384125 0
M  V30 28233 H 2772.68 2.63621 1.88877 0
M  V30 28234 H 2772.47 3.87235 0.615762 0
M  V30 28235 H 2773.96 3.85492 1.60578 0
M  V30 28236 N 2774.39 0.364449 1.53328 0
M  V30 28237 C 2775.64 -0.226712 2.00422 0
M  V30 28238 C 2775.96 -1.49961 1.25583 0
M  V30 28239 O 2777.16 -2.1693 1.6326 0
M  V30 28240 C 2775.62 -0.454555 3.57018 0
M  V30 28241 C 2775.23 0.803645 4.40733 0
M  V30 28242 C 2776.97 -1.00343 4.1247 0
M  V30 28243 C 2774.88 0.545449 5.88879 0
M  V30 28244 H 2773.81 -0.0884951 0.748789 0
M  V30 28245 H 2776.46 0.483014 1.77029 0
M  V30 28246 H 2774.84 -1.22551 3.7656 0
M  V30 28247 H 2776.01 1.57731 4.32964 0
M  V30 28248 H 2774.33 1.27566 3.96378 0
M  V30 28249 H 2776.93 -1.21191 5.20785 0
M  V30 28250 H 2777.27 -1.96523 3.66994 0
M  V30 28251 H 2777.8 -0.29267 3.96722 0
M  V30 28252 H 2774.54 1.47755 6.3863 0
M  V30 28253 H 2774.06 -0.189737 5.995 0
M  V30 28254 H 2775.74 0.170538 6.46775 0
M  V30 28255 N 2775.87 -1.57322 0.0935872 0
M  V30 28256 C 2776.83 -2.128 -0.851389 0
M  V30 28257 C 2777.83 -1.05692 -1.21185 0
M  V30 28258 O 2779.02 -1.31585 -1.14154 0
M  V30 28259 C 2776.16 -2.64735 -2.14775 0
M  V30 28260 H 2777.35 -2.97613 -0.369681 0
M  V30 28261 H 2774.9 -1.55526 -0.15539 0
M  V30 28262 H 2775.64 -1.83438 -2.67434 0
M  V30 28263 H 2775.42 -3.43045 -1.89901 0
M  V30 28264 H 2776.91 -3.07656 -2.82378 0
M  V30 28265 N 2777.35 0.180099 -1.56568 0
M  V30 28266 C 2778.26 1.24323 -1.9895 0
M  V30 28267 C 2779.28 1.48948 -0.899473 0
M  V30 28268 O 2780.45 1.61269 -1.20642 0
M  V30 28269 C 2777.52 2.56431 -2.33332 0
M  V30 28270 C 2776.58 2.39746 -3.56118 0
M  V30 28271 C 2775.81 3.65554 -3.88852 0
M  V30 28272 O 2776.03 4.70362 -3.2267 0
M  V30 28273 O 2774.97 3.60188 -4.82232 0
M  V30 28274 H 2778.79 0.913514 -2.89635 0
M  V30 28275 H 2776.38 0.386281 -1.4432 0
M  V30 28276 H 2778.26 3.34378 -2.56456 0
M  V30 28277 H 2776.94 2.89 -1.45811 0
M  V30 28278 H 2775.84 1.5986 -3.38224 0
M  V30 28279 H 2777.18 2.12105 -4.44153 0
M  V30 28280 N 2778.83 1.51088 0.448349 0
M  V30 28281 C 2780.24 1.39019 0.783959 0
M  V30 28282 C 2780.44 0.463938 1.96086 0
M  V30 28283 O 2779.5 -0.0850091 2.52357 0
M  V30 28284 C 2780.81 2.80841 1.07467 0
M  V30 28285 C 2782.36 2.89915 1.17976 0
M  V30 28286 C 2782.84 4.3262 1.50347 0
M  V30 28287 N 2784.33 4.35675 1.57293 0
M  V30 28288 C 2785.06 5.43113 1.8389 0
M  V30 28289 N 2784.56 6.60727 2.08353 0
M  V30 28290 N 2786.35 5.30581 1.85581 0
M  V30 28291 H 2778.5 2.09869 -0.326918 0
M  V30 28292 H 2780.76 0.944287 -0.0838172 0
M  V30 28293 H 2780.47 3.50562 0.282706 0
M  V30 28294 H 2780.34 3.1949 2.00514 0
M  V30 28295 H 2782.73 2.20398 1.96236 0
M  V30 28296 H 2782.81 2.54777 0.228558 0
M  V30 28297 H 2782.46 5.02682 0.726185 0
M  V30 28298 H 2782.39 4.65262 2.46655 0
M  V30 28299 H 2784.88 3.50876 1.40336 0
M  V30 28300 H 2785.19 7.38405 2.27986 0
M  V30 28301 H 2783.54 6.63862 2.05698 0
M  V30 28302 H 2786.73 4.37685 1.65981 0
M  V30 28303 H 2786.9 6.14394 2.05972 0
M  V30 28304 N 2780.31 -0.703068 1.41049 0
M  V30 28305 C 2781.55 -1.46523 1.4021 0
M  V30 28306 C 2781.89 -1.94198 0.00851176 0
M  V30 28307 O 2781.16 -1.69021 -0.962407 0
M  V30 28308 C 2781.44 -2.68245 2.40243 0
M  V30 28309 C 2781.3 -2.26384 3.88678 0
M  V30 28310 C 2782.62 -3.7043 2.37634 0
M  V30 28311 H 2779.73 -0.531463 0.510603 0
M  V30 28312 H 2782.38 -0.801392 1.72272 0
M  V30 28313 H 2780.53 -3.24884 2.13032 0
M  V30 28314 H 2782.2 -1.75131 4.26763 0
M  V30 28315 H 2780.44 -1.58248 4.03906 0
M  V30 28316 H 2781.11 -3.1369 4.54205 0
M  V30 28317 H 2783.59 -3.23448 2.61765 0
M  V30 28318 H 2782.46 -4.53218 3.09653 0
M  V30 28319 H 2782.73 -4.19604 1.39231 0
M  V30 28320 N 2781.78 -1.26752 -0.936569 0
M  V30 28321 C 2782.73 -1.0871 -2.03595 0
M  V30 28322 C 2783.7 0.00923623 -1.66097 0
M  V30 28323 O 2784.89 -0.151411 -1.90198 0
M  V30 28324 C 2782.03 -0.730999 -3.37269 0
M  V30 28325 C 2781.14 -1.90406 -3.87775 0
M  V30 28326 C 2780.27 -1.49065 -5.09856 0
M  V30 28327 C 2779.31 -2.63173 -5.52636 0
M  V30 28328 N 2778.45 -2.22482 -6.65917 0
M  V30 28329 H 2783.29 -2.02788 -2.1836 0
M  V30 28330 H 2780.83 -1.0096 -1.06984 0
M  V30 28331 H 2782.79 -0.505401 -4.14127 0
M  V30 28332 H 2781.42 0.172811 -3.22337 0
M  V30 28333 H 2780.47 -2.24246 -3.07275 0
M  V30 28334 H 2781.78 -2.76035 -4.15459 0
M  V30 28335 H 2780.93 -1.22577 -5.94188 0
M  V30 28336 H 2779.67 -0.605326 -4.83929 0
M  V30 28337 H 2778.68 -2.90386 -4.66858 0
M  V30 28338 H 2779.9 -3.52313 -5.80562 0
M  V30 28339 H 2777.85 -1.3639 -6.41665 0
M  V30 28340 H 2777.77 -3.01653 -6.93211 0
M  V30 28341 H 2779.03 -1.99218 -7.53613 0
M  V30 28342 N 2783.26 1.1418 -1.08631 0
M  V30 28343 C 2784.21 2.19337 -0.718338 0
M  V30 28344 C 2785.18 1.63431 0.296558 0
M  V30 28345 O 2786.36 1.89949 0.180046 0
M  V30 28346 C 2783.5 3.44831 -0.136264 0
M  V30 28347 C 2782.62 4.14877 -1.20421 0
M  V30 28348 C 2781.75 5.27961 -0.585759 0
M  V30 28349 C 2780.79 5.89843 -1.63559 0
M  V30 28350 N 2779.93 6.94373 -1.03876 0
M  V30 28351 H 2784.77 2.50161 -1.61937 0
M  V30 28352 H 2782.31 1.22842 -0.809211 0
M  V30 28353 H 2784.26 4.16625 0.218948 0
M  V30 28354 H 2782.89 3.14482 0.728065 0
M  V30 28355 H 2781.95 3.41448 -1.67682 0
M  V30 28356 H 2783.26 4.56962 -1.99967 0
M  V30 28357 H 2782.41 6.06436 -0.178924 0
M  V30 28358 H 2781.15 4.87103 0.241334 0
M  V30 28359 H 2780.16 5.10069 -2.05206 0
M  V30 28360 H 2781.38 6.32775 -2.4652 0
M  V30 28361 H 2779.33 6.55587 -0.232803 0
M  V30 28362 H 2779.24 7.34957 -1.77129 0
M  V30 28363 H 2780.51 7.76719 -0.65786 0
M  V30 28364 N 2784.74 0.872304 1.31258 0
M  V30 28365 C 2785.97 0.498942 2.00794 0
M  V30 28366 C 2786.38 -0.909209 1.65466 0
M  V30 28367 O 2785.74 -1.596 0.885101 0
M  V30 28368 C 2785.79 0.649155 3.55624 0
M  V30 28369 O 2785.51 2.00185 3.89689 0
M  V30 28370 C 2787.01 0.277112 4.42433 0
M  V30 28371 H 2784.23 0.194157 0.642296 0
M  V30 28372 H 2786.78 1.17411 1.67436 0
M  V30 28373 H 2784.93 0.0215083 3.87394 0
M  V30 28374 H 2785.35 2.01131 4.84403 0
M  V30 28375 H 2786.82 0.433161 5.50298 0
M  V30 28376 H 2787.3 -0.783913 4.32147 0
M  V30 28377 H 2787.9 0.880556 4.16084 0
M  V30 28378 N 2786.22 -1.44374 0.631976 0
M  V30 28379 C 2787.46 -2.02879 0.145527 0
M  V30 28380 C 2787.82 -1.48829 -1.21934 0
M  V30 28381 O 2787.11 -0.663116 -1.79759 0
M  V30 28382 C 2787.31 -3.57324 0.0736489 0
M  V30 28383 C 2787.14 -4.26358 1.43 0
M  V30 28384 C 2785.91 -4.63299 2.01699 0
M  V30 28385 C 2788.1 -4.56748 2.36401 0
M  V30 28386 N 2786.09 -5.17304 3.30561 0
M  V30 28387 C 2787.46 -5.11845 3.49878 0
M  V30 28388 C 2789.51 -4.38701 2.3547 0
M  V30 28389 C 2788.21 -5.50795 4.6262 0
M  V30 28390 C 2790.24 -4.78699 3.47276 0
M  V30 28391 C 2789.6 -5.33911 4.59477 0
M  V30 28392 H 2785.7 -0.775937 0.0971917 0
M  V30 28393 H 2788.29 -1.75855 0.835655 0
M  V30 28394 H 2786.46 -3.83958 -0.585762 0
M  V30 28395 H 2788.19 -4.02497 -0.421706 0
M  V30 28396 H 2784.94 -4.47644 1.54635 0
M  V30 28397 H 2785.37 -5.48781 3.96445 0
M  V30 28398 H 2790.01 -3.95307 1.49973 0
M  V30 28399 H 2787.73 -5.93143 5.48824 0
M  V30 28400 H 2791.31 -4.66448 3.47732 0
M  V30 28401 H 2790.19 -5.6429 5.44561 0
M  V30 28402 N 2787.7 -0.372575 -1.53133 0
M  V30 28403 C 2788.61 0.478339 -2.29672 0
M  V30 28404 C 2789.62 1.08642 -1.35915 0
M  V30 28405 O 2790.8 1.09585 -1.68977 0
M  V30 28406 C 2787.86 1.59894 -3.07627 0
M  V30 28407 C 2786.92 1.01769 -4.17063 0
M  V30 28408 C 2786.16 2.08489 -4.91292 0
M  V30 28409 O 2786.38 3.29719 -4.65448 0
M  V30 28410 O 2785.31 1.71154 -5.77053 0
M  V30 28411 H 2789.14 -0.144703 -3.03355 0
M  V30 28412 H 2786.73 -0.136755 -1.48773 0
M  V30 28413 H 2788.61 2.25031 -3.56285 0
M  V30 28414 H 2787.28 2.20726 -2.36774 0
M  V30 28415 H 2786.19 0.330033 -3.72641 0
M  V30 28416 H 2787.52 0.453829 -4.90103 0
M  V30 28417 N 2789.17 1.5727 -0.101929 0
M  V30 28418 C 2790.1 2.1742 0.851506 0
M  V30 28419 C 2791.09 1.10944 1.2894 0
M  V30 28420 O 2792.27 1.3911 1.35507 0
M  V30 28421 C 2789.4 2.76 2.10811 0
M  V30 28422 C 2788.35 3.87909 1.8086 0
M  V30 28423 C 2787.68 4.33221 3.13406 0
M  V30 28424 C 2788.98 5.10795 1.09021 0
M  V30 28425 H 2790.67 2.97343 0.350329 0
M  V30 28426 H 2788.22 1.43028 0.167065 0
M  V30 28427 H 2790.17 3.16733 2.77953 0
M  V30 28428 H 2788.9 1.93342 2.63223 0
M  V30 28429 H 2787.56 3.47726 1.16113 0
M  V30 28430 H 2787.2 3.47444 3.63719 0
M  V30 28431 H 2786.9 5.08677 2.94146 0
M  V30 28432 H 2788.43 4.76593 3.81695 0
M  V30 28433 H 2789.84 5.48655 1.66286 0
M  V30 28434 H 2788.24 5.91723 0.999166 0
M  V30 28435 H 2789.31 4.84843 0.0740852 0
M  V30 28436 N 2790.65 -0.171793 1.56661 0
M  V30 28437 C 2791.9 -0.886742 1.81608 0
M  V30 28438 C 2792.22 -1.82802 0.67885 0
M  V30 28439 O 2791.49 -1.93569 -0.30132 0
M  V30 28440 H 2790.07 -0.330439 0.66994 0
M  V30 28441 H 2792.73 -0.171723 1.94142 0
M  V30 28442 H 2791.83 -1.46393 2.75637 0
M  V30 28443 N 2792.13 -1.51324 -0.44033 0
M  V30 28444 C 2793.04 -1.75261 -1.55952 0
M  V30 28445 C 2794.06 -0.636715 -1.61932 0
M  V30 28446 O 2795.23 -0.918625 -1.7923 0
M  V30 28447 C 2792.3 -1.86982 -2.91956 0
M  V30 28448 C 2791.36 -3.10827 -2.96117 0
M  V30 28449 C 2790.59 -3.2198 -4.25634 0
M  V30 28450 O 2790.81 -2.39146 -5.17847 0
M  V30 28451 O 2789.75 -4.14937 -4.36017 0
M  V30 28452 H 2793.57 -2.70194 -1.38668 0
M  V30 28453 H 2791.16 -1.35789 -0.623031 0
M  V30 28454 H 2793.04 -1.96695 -3.72678 0
M  V30 28455 H 2791.72 -0.952361 -3.09373 0
M  V30 28456 H 2790.62 -3.06595 -2.14361 0
M  V30 28457 H 2791.96 -4.02252 -2.83644 0
M  V30 28458 N 2793.61 0.695578 -1.41419 0
M  V30 28459 C 2794.86 1.45274 -1.40498 0
M  V30 28460 C 2795.18 1.94994 -0.0149881 0
M  V30 28461 O 2794.45 1.71701 0.94317 0
M  V30 28462 H 2793.03 0.539035 -0.517156 0
M  V30 28463 H 2795.69 0.82329 -1.76658 0
M  V30 28464 H 2794.79 2.31591 -2.09218 0
M  V30 28465 N 2795.09 1.27247 0.929833 0
M  V30 28466 C 2796.33 1.14637 1.68018 0
M  V30 28467 C 2796.69 -0.305118 1.89965 0
M  V30 28468 O 2795.98 -1.21999 1.47739 0
M  V30 28469 C 2796.18 1.8612 3.05113 0
M  V30 28470 C 2796 3.38071 2.96543 0
M  V30 28471 C 2794.77 4.07385 2.9894 0
M  V30 28472 C 2796.97 4.34082 2.75822 0
M  V30 28473 N 2794.95 5.45922 2.80789 0
M  V30 28474 C 2796.33 5.59871 2.66354 0
M  V30 28475 C 2798.38 4.24197 2.60693 0
M  V30 28476 C 2797.08 6.76903 2.43301 0
M  V30 28477 C 2799.11 5.40948 2.39017 0
M  V30 28478 C 2798.47 6.65692 2.3029 0
M  V30 28479 H 2794.57 0.47434 0.621712 0
M  V30 28480 H 2797.15 1.60687 1.09945 0
M  V30 28481 H 2795.33 1.42529 3.61303 0
M  V30 28482 H 2797.06 1.66033 3.69073 0
M  V30 28483 H 2793.81 3.58835 3.09087 0
M  V30 28484 H 2794.24 6.18697 2.7485 0
M  V30 28485 H 2798.88 3.28477 2.662 0
M  V30 28486 H 2796.6 7.72708 2.36534 0
M  V30 28487 H 2800.18 5.35179 2.28199 0
M  V30 28488 H 2799.06 7.54509 2.13742 0
M  V30 28489 N 2796.57 -1.13603 1.09235 0
M  V30 28490 C 2797.53 -2.17143 0.733591 0
M  V30 28491 C 2798.53 -1.59061 -0.235845 0
M  V30 28492 O 2799.72 -1.74194 -0.0142861 0
M  V30 28493 C 2796.85 -3.40795 0.0845309 0
M  V30 28494 H 2798.04 -2.50394 1.65054 0
M  V30 28495 H 2795.6 -1.28397 0.891286 0
M  V30 28496 H 2796.33 -3.13132 -0.84374 0
M  V30 28497 H 2796.12 -3.84222 0.782052 0
M  V30 28498 H 2797.61 -4.17326 -0.151143 0
M  V30 28499 N 2798.04 -0.879253 -1.30793 0
M  V30 28500 C 2798.99 -0.340008 -2.28282 0
M  V30 28501 C 2799.96 0.566658 -1.56135 0
M  V30 28502 O 2801.15 0.496306 -1.84232 0
M  V30 28503 C 2798.29 0.444441 -3.42226 0
M  V30 28504 C 2797.4 -0.490793 -4.29203 0
M  V30 28505 C 2796.53 0.308691 -5.30302 0
M  V30 28506 C 2795.57 -0.622379 -6.08928 0
M  V30 28507 N 2794.71 0.141427 -7.01958 0
M  V30 28508 H 2799.55 -1.17652 -2.73792 0
M  V30 28509 H 2797.09 -0.591551 -1.34681 0
M  V30 28510 H 2799.04 0.915114 -4.0704 0
M  V30 28511 H 2797.67 1.24557 -2.97801 0
M  V30 28512 H 2796.73 -1.07994 -3.64748 0
M  V30 28513 H 2798.04 -1.20433 -4.84043 0
M  V30 28514 H 2797.19 0.84147 -6.00836 0
M  V30 28515 H 2795.93 1.05547 -4.76142 0
M  V30 28516 H 2794.94 -1.16683 -5.37276 0
M  V30 28517 H 2796.16 -1.36816 -6.65175 0
M  V30 28518 H 2794.11 0.870851 -6.50194 0
M  V30 28519 H 2794.02 -0.512592 -7.5426 0
M  V30 28520 H 2795.29 0.655135 -7.76742 0
M  V30 28521 N 2799.52 1.44037 -0.639624 0
M  V30 28522 C 2800.47 2.27852 0.0822637 0
M  V30 28523 C 2801.46 1.39143 0.807967 0
M  V30 28524 O 2802.65 1.62883 0.692674 0
M  V30 28525 C 2799.78 3.26611 1.05736 0
M  V30 28526 C 2798.86 4.22808 0.330837 0
M  V30 28527 N 2799.25 5.01668 -0.645214 0
M  V30 28528 C 2797.55 4.42289 0.574137 0
M  V30 28529 C 2798.25 5.71676 -1.07523 0
M  V30 28530 N 2797.23 5.42034 -0.412259 0
M  V30 28531 H 2801.03 2.86233 -0.666911 0
M  V30 28532 H 2798.54 1.55576 -0.465805 0
M  V30 28533 H 2800.54 3.85422 1.5892 0
M  V30 28534 H 2799.2 2.6979 1.80674 0
M  V30 28535 H 2800.21 5.07688 -1.02338 0
M  V30 28536 H 2796.89 3.96556 1.30574 0
M  V30 28537 H 2798.28 6.45002 -1.88208 0
M  V30 28538 N 2801 0.380691 1.52933 0
M  V30 28539 C 2802.25 -0.204545 2.01766 0
M  V30 28540 C 2802.58 -1.47177 1.26699 0
M  V30 28541 O 2801.85 -1.91045 0.36497 0
M  V30 28542 C 2802.14 -0.481206 3.5687 0
M  V30 28543 C 2801.99 0.800707 4.42616 0
M  V30 28544 C 2803.31 -1.27547 4.21212 0
M  V30 28545 H 2800.43 -0.0728674 0.733389 0
M  V30 28546 H 2803.07 0.508562 1.83067 0
M  V30 28547 H 2801.22 -1.08869 3.72934 0
M  V30 28548 H 2802.89 1.43781 4.3832 0
M  V30 28549 H 2801.13 1.41787 4.09974 0
M  V30 28550 H 2801.81 0.561888 5.49133 0
M  V30 28551 H 2804.28 -0.761442 4.09074 0
M  V30 28552 H 2803.16 -1.43779 5.29735 0
M  V30 28553 H 2803.42 -2.28827 3.78273 0
M  V30 28554 N 2802.48 -1.57214 0.110268 0
M  V30 28555 C 2803.71 -1.99239 -0.557799 0
M  V30 28556 C 2804.12 -0.989762 -1.60777 0
M  V30 28557 O 2803.48 0.0185772 -1.82491 0
M  V30 28558 C 2803.53 -3.41288 -1.19183 0
M  V30 28559 O 2803.25 -4.37714 -0.183842 0
M  V30 28560 C 2804.75 -3.98398 -1.94406 0
M  V30 28561 H 2801.97 -0.654389 -0.14838 0
M  V30 28562 H 2804.51 -2.03577 0.194032 0
M  V30 28563 H 2802.67 -3.37917 -1.8945 0
M  V30 28564 H 2803.08 -5.20539 -0.643383 0
M  V30 28565 H 2804.56 -4.99898 -2.34107 0
M  V30 28566 H 2805.03 -3.37055 -2.81586 0
M  V30 28567 H 2805.64 -4.05289 -1.28921 0
M  V30 28568 N 2803.96 0.163482 -1.5675 0
M  V30 28569 C 2805.2 0.880136 -1.82706 0
M  V30 28570 C 2805.53 1.81554 -0.689342 0
M  V30 28571 O 2804.81 1.92043 0.30819 0
M  V30 28572 C 2805.09 1.66899 -3.19087 0
M  V30 28573 C 2804.95 0.756191 -4.43398 0
M  V30 28574 C 2806.26 2.63503 -3.52497 0
M  V30 28575 H 2803.38 0.318524 -0.664614 0
M  V30 28576 H 2806.03 0.146003 -1.89438 0
M  V30 28577 H 2804.18 2.29485 -3.13479 0
M  V30 28578 H 2805.85 0.142609 -4.6108 0
M  V30 28579 H 2804.09 0.0647181 -4.33752 0
M  V30 28580 H 2804.76 1.34383 -5.35392 0
M  V30 28581 H 2807.24 2.11041 -3.5861 0
M  V30 28582 H 2806.11 3.15759 -4.48985 0
M  V30 28583 H 2806.37 3.44077 -2.77603 0
M  V30 28584 N 2805.43 1.51555 0.432299 0
M  V30 28585 C 2806.34 1.76085 1.5502 0
M  V30 28586 C 2807.36 0.645294 1.61592 0
M  V30 28587 O 2808.54 0.928117 1.7874 0
M  V30 28588 C 2805.6 1.88528 2.90961 0
M  V30 28589 C 2804.66 3.12393 2.94464 0
M  V30 28590 C 2803.89 3.24233 4.23921 0
M  V30 28591 O 2804.12 2.41889 5.16571 0
M  V30 28592 O 2803.05 4.17243 4.33811 0
M  V30 28593 H 2806.88 2.70925 1.37234 0
M  V30 28594 H 2804.46 1.36118 0.615821 0
M  V30 28595 H 2806.34 1.98669 3.7163 0
M  V30 28596 H 2805.02 0.968755 3.08864 0
M  V30 28597 H 2803.93 3.07727 2.12732 0
M  V30 28598 H 2805.26 4.03751 2.81507 0
M  V30 28599 N 2806.91 -0.688069 1.41786 0
M  V30 28600 C 2808.16 -1.45028 1.41756 0
M  V30 28601 C 2808.49 -1.94178 0.0291086 0
M  V30 28602 O 2807.77 -1.70032 -0.944426 0
M  V30 28603 C 2808.05 -2.65682 2.43074 0
M  V30 28604 C 2807.9 -2.22249 3.91057 0
M  V30 28605 C 2809.22 -3.67888 2.41549 0
M  V30 28606 H 2806.34 -0.526018 0.516212 0
M  V30 28607 H 2808.98 -0.783075 1.73112 0
M  V30 28608 H 2807.13 -3.22606 2.16466 0
M  V30 28609 H 2808.8 -1.70594 4.28597 0
M  V30 28610 H 2807.05 -1.53955 4.05562 0
M  V30 28611 H 2807.72 -3.08855 4.57507 0
M  V30 28612 H 2810.19 -3.20653 2.65181 0
M  V30 28613 H 2809.07 -4.49908 3.14442 0
M  V30 28614 H 2809.33 -4.18103 1.43673 0
M  V30 28615 N 2808.39 -1.27739 -0.923072 0
M  V30 28616 C 2809.35 -1.10898 -2.00585 0
M  V30 28617 C 2810.35 -0.0515209 -1.60717 0
M  V30 28618 O 2811.54 -0.296511 -1.71658 0
M  V30 28619 C 2808.67 -0.690776 -3.33828 0
M  V30 28620 H 2809.87 -2.07052 -2.16955 0
M  V30 28621 H 2807.42 -1.10592 -1.10449 0
M  V30 28622 H 2808.16 0.271944 -3.23158 0
M  V30 28623 H 2807.94 -1.45455 -3.64123 0
M  V30 28624 H 2809.43 -0.595324 -4.13335 0
M  V30 28625 N 2809.87 1.13022 -1.09836 0
M  V30 28626 C 2810.8 2.20665 -0.76349 0
M  V30 28627 C 2811.78 1.6809 0.260748 0
M  V30 28628 O 2812.96 1.93778 0.127881 0
M  V30 28629 C 2810.09 3.46792 -0.187805 0
M  V30 28630 C 2809.05 4.12482 -1.14203 0
M  V30 28631 C 2808.37 5.32986 -0.427849 0
M  V30 28632 C 2809.67 4.59334 -2.48615 0
M  V30 28633 H 2811.37 2.48933 -1.66351 0
M  V30 28634 H 2808.91 1.19647 -0.801282 0
M  V30 28635 H 2810.87 4.21359 0.0585635 0
M  V30 28636 H 2809.59 3.17932 0.747429 0
M  V30 28637 H 2808.25 3.39888 -1.37375 0
M  V30 28638 H 2807.9 5.00391 0.511659 0
M  V30 28639 H 2807.6 5.77884 -1.06413 0
M  V30 28640 H 2809.12 6.10305 -0.189879 0
M  V30 28641 H 2810.54 5.25304 -2.29628 0
M  V30 28642 H 2808.93 5.14988 -3.08071 0
M  V30 28643 H 2810 3.73637 -3.09069 0
M  V30 28644 N 2811.35 0.886177 1.30325 0
M  V30 28645 C 2812.59 0.504229 1.95709 0
M  V30 28646 C 2812.92 -0.949973 1.70295 0
M  V30 28647 O 2812.19 -1.66809 1.02721 0
M  V30 28648 H 2810.77 0.183478 0.724117 0
M  V30 28649 H 2813.43 1.12951 1.58833 0
M  V30 28650 H 2812.52 0.675485 3.04702 0
M  V30 28651 N 2812.82 -1.43695 0.647253 0
M  V30 28652 C 2814.05 -2.06235 0.165787 0
M  V30 28653 C 2814.47 -1.48478 -1.16617 0
M  V30 28654 O 2813.82 -0.613792 -1.71869 0
M  V30 28655 C 2813.88 -3.61446 0.0622286 0
M  V30 28656 O 2813.6 -4.17055 1.34153 0
M  V30 28657 C 2815.1 -4.4105 -0.446025 0
M  V30 28658 H 2812.32 -0.665319 0.0871275 0
M  V30 28659 H 2814.86 -1.843 0.886216 0
M  V30 28660 H 2813.02 -3.82588 -0.608727 0
M  V30 28661 H 2813.43 -5.10662 1.19684 0
M  V30 28662 H 2814.9 -5.50017 -0.467454 0
M  V30 28663 H 2815.38 -4.13648 -1.4762 0
M  V30 28664 H 2815.99 -4.24865 0.192233 0
M  V30 28665 N 2814.3 -0.388796 -1.52729 0
M  V30 28666 C 2815.72 -0.038733 -1.59553 0
M  V30 28667 C 2815.92 1.4465 -1.40281 0
M  V30 28668 O 2814.97 2.21095 -1.21955 0
M  V30 28669 C 2816.29 -0.515461 -2.96249 0
M  V30 28670 C 2817.84 -0.471675 -3.09426 0
M  V30 28671 C 2818.31 -0.924584 -4.4857 0
M  V30 28672 N 2819.8 -0.880576 -4.54753 0
M  V30 28673 C 2820.54 -1.20244 -5.60651 0
M  V30 28674 N 2820.03 -1.59474 -6.74196 0
M  V30 28675 N 2821.83 -1.12372 -5.50753 0
M  V30 28676 H 2813.98 -1.35572 -1.63505 0
M  V30 28677 H 2816.24 -0.555649 -0.768087 0
M  V30 28678 H 2815.95 -1.55276 -3.15567 0
M  V30 28679 H 2815.82 0.0857258 -3.77103 0
M  V30 28680 H 2818.21 0.556537 -2.89805 0
M  V30 28681 H 2818.29 -1.10866 -2.30526 0
M  V30 28682 H 2817.93 -1.95102 -4.68932 0
M  V30 28683 H 2817.86 -0.264616 -5.25935 0
M  V30 28684 H 2820.35 -0.591881 -3.73236 0
M  V30 28685 H 2820.67 -1.82399 -7.50966 0
M  V30 28686 H 2819.01 -1.63361 -6.75528 0
M  V30 28687 H 2822.2 -0.81625 -4.60928 0
M  V30 28688 H 2822.37 -1.37788 -6.33181 0
M  V30 28689 N 2815.78 1.57153 -0.118604 0
M  V30 28690 C 2816.69 2.18836 0.845446 0
M  V30 28691 C 2817.71 1.1644 1.29297 0
M  V30 28692 O 2818.88 1.48908 1.35604 0
M  V30 28693 C 2815.95 2.77532 2.0779 0
M  V30 28694 C 2815.01 3.94963 1.68233 0
M  V30 28695 C 2814.24 4.5085 2.85604 0
M  V30 28696 O 2814.46 4.05636 4.01018 0
M  V30 28697 O 2813.4 5.4154 2.62712 0
M  V30 28698 H 2817.22 3.0167 0.350515 0
M  V30 28699 H 2814.81 1.49016 0.106987 0
M  V30 28700 H 2816.69 3.1495 2.79972 0
M  V30 28701 H 2815.37 1.9773 2.5629 0
M  V30 28702 H 2814.27 3.62315 0.931599 0
M  V30 28703 H 2815.61 4.762 1.24475 0
M  V30 28704 N 2817.26 -0.155167 1.56834 0
M  V30 28705 C 2818.51 -0.86743 1.82538 0
M  V30 28706 C 2818.83 -1.82072 0.6982 0
M  V30 28707 O 2818.1 -1.93877 -0.280773 0
M  V30 28708 H 2816.68 -0.323315 0.673407 0
M  V30 28709 H 2819.34 -0.151122 1.94313 0
M  V30 28710 H 2818.44 -1.43461 2.77174 0
M  V30 28711 N 2818.74 -1.51782 -0.424256 0
M  V30 28712 C 2819.96 -1.69212 -1.19925 0
M  V30 28713 C 2820.39 -0.394387 -1.83919 0
M  V30 28714 O 2819.74 0.646749 -1.69372 0
M  V30 28715 C 2819.79 -2.81847 -2.24932 0
M  V30 28716 O 2818.9 -2.46362 -3.30726 0
M  V30 28717 H 2818.24 -0.563787 -0.35077 0
M  V30 28718 H 2820.77 -1.98412 -0.499366 0
M  V30 28719 H 2820.78 -3.06317 -2.69507 0
M  V30 28720 H 2819.45 -3.76009 -1.77735 0
M  V30 28721 H 2818.03 -2.3251 -2.91536 0
M  V30 28722 N 2820.21 0.68054 -1.42149 0
M  V30 28723 C 2821.44 1.47401 -1.45903 0
M  V30 28724 C 2821.86 1.87969 -0.0701315 0
M  V30 28725 O 2821.22 1.55623 0.930117 0
M  V30 28726 C 2821.27 2.70317 -2.38666 0
M  V30 28727 O 2820.37 3.68373 -1.85406 0
M  V30 28728 H 2819.72 0.443051 -0.494573 0
M  V30 28729 H 2822.25 0.835218 -1.86776 0
M  V30 28730 H 2822.26 3.18454 -2.55051 0
M  V30 28731 H 2820.93 2.40128 -3.39575 0
M  V30 28732 H 2819.51 3.27377 -1.78546 0
M  V30 28733 N 2821.69 1.28226 0.916285 0
M  V30 28734 C 2822.94 1.15403 1.66763 0
M  V30 28735 C 2823.27 -0.297217 1.91912 0
M  V30 28736 O 2822.55 -1.21641 1.51768 0
M  V30 28737 C 2822.83 1.95033 3.02711 0
M  V30 28738 C 2822.68 3.48206 2.84732 0
M  V30 28739 C 2824 1.76376 4.03212 0
M  V30 28740 H 2821.12 0.4206 0.605198 0
M  V30 28741 H 2823.76 1.57513 1.06252 0
M  V30 28742 H 2821.91 1.59248 3.54362 0
M  V30 28743 H 2823.58 3.93884 2.40111 0
M  V30 28744 H 2821.83 3.73968 2.19842 0
M  V30 28745 H 2822.5 3.99178 3.81263 0
M  V30 28746 H 2824.97 2.076 3.60613 0
M  V30 28747 H 2823.85 2.34468 4.96302 0
M  V30 28748 H 2824.11 0.714597 4.36287 0
M  V30 28749 N 2823.17 -1.12438 1.10433 0
M  V30 28750 C 2824.59 -1.35946 0.83612 0
M  V30 28751 C 2824.79 -1.94005 -0.544441 0
M  V30 28752 O 2823.84 -2.16624 -1.29732 0
M  V30 28753 C 2825.16 -2.30103 1.93579 0
M  V30 28754 C 2826.7 -2.43694 1.96424 0
M  V30 28755 C 2827.18 -3.41166 3.05565 0
M  V30 28756 N 2828.67 -3.48723 3.04871 0
M  V30 28757 C 2829.4 -4.24054 3.85961 0
M  V30 28758 N 2828.9 -5.0245 4.76986 0
M  V30 28759 N 2830.69 -4.1946 3.74179 0
M  V30 28760 H 2822.84 -0.731089 1.99421 0
M  V30 28761 H 2825.11 -0.384297 0.866614 0
M  V30 28762 H 2824.81 -1.94616 2.92946 0
M  V30 28763 H 2824.69 -3.30224 1.82296 0
M  V30 28764 H 2827.07 -2.78461 0.976899 0
M  V30 28765 H 2827.16 -1.43461 2.11784 0
M  V30 28766 H 2826.8 -3.07128 4.04518 0
M  V30 28767 H 2826.73 -4.41229 2.87446 0
M  V30 28768 H 2829.22 -2.92795 2.38913 0
M  V30 28769 H 2829.53 -5.57267 5.35419 0
M  V30 28770 H 2827.88 -5.01647 4.81015 0
M  V30 28771 H 2831.07 -3.57296 3.02419 0
M  V30 28772 H 2831.24 -4.77913 4.37611 0
M  V30 28773 N 2824.65 -0.893076 -1.29853 0
M  V30 28774 C 2825.9 -0.514601 -1.95439 0
M  V30 28775 C 2826.22 0.940929 -1.70797 0
M  V30 28776 O 2825.49 1.66262 -1.03604 0
M  V30 28777 H 2824.07 -0.187315 -0.723133 0
M  V30 28778 H 2826.73 -1.13792 -1.58232 0
M  V30 28779 H 2825.83 -0.691634 -3.0434 0
M  V30 28780 N 2826.13 1.4335 -0.654865 0
M  V30 28781 C 2827.38 2.01396 -0.168594 0
M  V30 28782 C 2827.7 1.51935 1.22232 0
M  V30 28783 O 2826.97 0.732659 1.81684 0
M  V30 28784 H 2825.55 0.74464 -0.0593375 0
M  V30 28785 H 2828.21 1.75538 -0.846902 0
M  V30 28786 H 2827.3 3.11717 -0.154483 0
M  V30 28787 N 2827.61 0.39689 1.52521 0
M  V30 28788 C 2828.57 -0.422564 2.25271 0
M  V30 28789 C 2829.57 -0.983891 1.27186 0
M  V30 28790 O 2830.76 -0.864697 1.51224 0
M  V30 28791 C 2827.89 -1.5936 3.01359 0
M  V30 28792 H 2829.08 0.214469 2.99132 0
M  V30 28793 H 2826.64 0.149156 1.55587 0
M  V30 28794 H 2827.37 -2.26785 2.31817 0
M  V30 28795 H 2827.16 -1.19772 3.73359 0
M  V30 28796 H 2828.65 -2.17357 3.56575 0
M  V30 28797 N 2829.08 -1.57088 0.126936 0
M  V30 28798 C 2830.02 -2.11464 -0.857807 0
M  V30 28799 C 2830.99 -1.03304 -1.25567 0
M  V30 28800 O 2832.18 -1.31008 -1.35532 0
M  V30 28801 C 2829.31 -2.61787 -2.14907 0
M  V30 28802 C 2828.35 -3.81907 -1.89867 0
M  V30 28803 S 2829.18 -5.23917 -1.10776 0
M  V30 28804 C 2830.34 -5.77615 -2.41065 0
M  V30 28805 H 2830.57 -2.9466 -0.395332 0
M  V30 28806 H 2828.11 -1.54155 -0.086988 0
M  V30 28807 H 2830.06 -2.91434 -2.89096 0
M  V30 28808 H 2828.73 -1.78758 -2.58272 0
M  V30 28809 H 2827.92 -4.15294 -2.85565 0
M  V30 28810 H 2827.52 -3.52917 -1.23796 0
M  V30 28811 H 2829.81 -5.87823 -3.36853 0
M  V30 28812 H 2830.76 -6.75553 -2.12212 0
M  V30 28813 H 2831.16 -5.05729 -2.50795 0
M  V30 28814 N 2830.56 0.146848 -1.56914 0
M  V30 28815 C 2831.81 0.857738 -1.82995 0
M  V30 28816 C 2832.13 1.81699 -0.707846 0
M  V30 28817 O 2831.4 1.94024 0.270487 0
M  V30 28818 H 2829.98 0.319739 -0.675112 0
M  V30 28819 H 2832.64 0.140815 -1.94391 0
M  V30 28820 H 2831.74 1.41989 -2.77931 0
M  V30 28821 N 2832.04 1.52005 0.4162 0
M  V30 28822 C 2832.99 1.71223 1.50555 0
M  V30 28823 C 2833.97 0.566116 1.50612 0
M  V30 28824 O 2835.17 0.822901 1.56708 0
M  V30 28825 C 2832.29 1.85989 2.88553 0
M  V30 28826 C 2831.38 3.0645 2.93171 0
M  V30 28827 N 2831.77 4.29277 2.67497 0
M  V30 28828 C 2830.07 3.06139 3.24338 0
M  V30 28829 C 2830.77 5.10697 2.78502 0
M  V30 28830 N 2829.75 4.45792 3.11079 0
M  V30 28831 H 2833.55 2.63836 1.2949 0
M  V30 28832 H 2831.06 1.49941 0.623814 0
M  V30 28833 H 2833.06 1.97872 3.6695 0
M  V30 28834 H 2831.72 0.945709 3.10623 0
M  V30 28835 H 2832.73 4.57869 2.42025 0
M  V30 28836 H 2829.41 2.24431 3.52047 0
M  V30 28837 H 2830.8 6.18532 2.62428 0
M  V30 28838 N 2833.52 -0.672992 1.42508 0
M  V30 28839 C 2834.45 -1.79848 1.48919 0
M  V30 28840 C 2835.43 -1.66552 0.345595 0
M  V30 28841 O 2836.61 -1.85946 0.560148 0
M  V30 28842 C 2833.74 -3.18156 1.39263 0
M  V30 28843 C 2832.7 -3.46189 2.51668 0
M  V30 28844 C 2832.02 -4.8409 2.2707 0
M  V30 28845 C 2833.32 -3.42902 3.93974 0
M  V30 28846 H 2835.02 -1.74741 2.43117 0
M  V30 28847 H 2832.56 -0.839267 1.17014 0
M  V30 28848 H 2834.52 -3.96627 1.42356 0
M  V30 28849 H 2833.24 -3.23945 0.415599 0
M  V30 28850 H 2831.9 -2.7008 2.47896 0
M  V30 28851 H 2831.55 -4.86532 1.27656 0
M  V30 28852 H 2831.25 -5.03809 3.02407 0
M  V30 28853 H 2832.77 -5.64843 2.31915 0
M  V30 28854 H 2834.19 -4.1134 3.9934 0
M  V30 28855 H 2832.58 -3.74157 4.69176 0
M  V30 28856 H 2833.65 -2.41442 4.20516 0
M  V30 28857 N 2835 -1.2871 -0.909472 0
M  V30 28858 C 2835.95 -1.0964 -1.99908 0
M  V30 28859 C 2836.93 -0.0187483 -1.60889 0
M  V30 28860 O 2838.12 -0.239369 -1.75374 0
M  V30 28861 C 2835.25 -0.764761 -3.34673 0
M  V30 28862 C 2834.34 -1.88146 -3.80081 0
M  V30 28863 N 2834.73 -3.12368 -3.97819 0
M  V30 28864 C 2833.03 -1.77228 -4.09275 0
M  V30 28865 C 2833.73 -3.85159 -4.35922 0
M  V30 28866 N 2832.7 -3.13036 -4.4442 0
M  V30 28867 H 2836.5 -2.03887 -2.11678 0
M  V30 28868 H 2834.02 -1.19692 -1.09761 0
M  V30 28869 H 2836.02 -0.609205 -4.12425 0
M  V30 28870 H 2834.68 0.169895 -3.24255 0
M  V30 28871 H 2835.69 -3.47931 -3.8362 0
M  V30 28872 H 2832.36 -0.909692 -4.07469 0
M  V30 28873 H 2833.75 -4.92014 -4.57572 0
M  V30 28874 N 2836.47 1.1185 -1.11028 0
M  V30 28875 C 2837.38 2.21349 -0.777291 0
M  V30 28876 C 2838.4 1.72502 0.227791 0
M  V30 28877 O 2839.58 2.01295 0.0650233 0
M  V30 28878 C 2836.64 3.45997 -0.220729 0
M  V30 28879 C 2835.7 4.09653 -1.28387 0
M  V30 28880 C 2834.93 5.2835 -0.753771 0
M  V30 28881 O 2835.16 5.68869 0.417679 0
M  V30 28882 O 2834.09 5.82481 -1.51657 0
M  V30 28883 H 2837.92 2.52237 -1.69146 0
M  V30 28884 H 2835.5 1.20304 -0.885857 0
M  V30 28885 H 2837.38 4.21313 0.0855016 0
M  V30 28886 H 2836.06 3.1677 0.666207 0
M  V30 28887 H 2834.97 3.36087 -1.64305 0
M  V30 28888 H 2836.3 4.43048 -2.14404 0
M  V30 28889 N 2837.95 0.89995 1.29378 0
M  V30 28890 C 2839.2 0.524958 1.95163 0
M  V30 28891 C 2839.52 -0.931858 1.71293 0
M  V30 28892 O 2838.79 -1.6571 1.04484 0
M  V30 28893 H 2837.37 0.191148 0.72213 0
M  V30 28894 H 2840.03 1.1463 1.57626 0
M  V30 28895 H 2839.13 0.707765 3.03969 0
M  V30 28896 N 2839.43 -1.43001 0.662458 0
M  V30 28897 C 2840.39 -2.29196 -0.0141613 0
M  V30 28898 C 2841.39 -1.4269 -0.741369 0
M  V30 28899 O 2842.58 -1.64217 -0.581228 0
M  V30 28900 C 2839.72 -3.24943 -1.03078 0
M  V30 28901 H 2840.91 -2.90516 0.744351 0
M  V30 28902 H 2838.46 -1.50435 0.424159 0
M  V30 28903 H 2839.2 -2.68536 -1.81821 0
M  V30 28904 H 2838.98 -3.88731 -0.512877 0
M  V30 28905 H 2840.47 -3.89614 -1.50301 0
M  V30 28906 N 2840.91 -0.404973 -1.52308 0
M  V30 28907 C 2841.84 0.41372 -2.29806 0
M  V30 28908 C 2842.82 1.04978 -1.33842 0
M  V30 28909 O 2844 1.05958 -1.62747 0
M  V30 28910 C 2841.13 1.53287 -3.11641 0
M  V30 28911 C 2840.09 1.02203 -4.15618 0
M  V30 28912 C 2839.41 2.23446 -4.85774 0
M  V30 28913 C 2840.71 0.0789807 -5.2224 0
M  V30 28914 H 2842.41 -0.23293 -2.98493 0
M  V30 28915 H 2839.95 -0.113466 -1.43552 0
M  V30 28916 H 2841.91 2.11256 -3.64622 0
M  V30 28917 H 2840.63 2.20734 -2.40716 0
M  V30 28918 H 2839.29 0.464776 -3.63642 0
M  V30 28919 H 2838.94 2.89438 -4.11381 0
M  V30 28920 H 2838.64 1.8992 -5.56061 0
M  V30 28921 H 2840.16 2.82029 -5.41565 0
M  V30 28922 H 2841.58 0.567338 -5.70486 0
M  V30 28923 H 2839.97 -0.167272 -5.99867 0
M  V30 28924 H 2841.04 -0.867531 -4.77076 0
M  V30 28925 N 2842.39 1.57018 -0.135265 0
M  V30 28926 C 2843.35 2.14983 0.794669 0
M  V30 28927 C 2844.35 1.08868 1.1834 0
M  V30 28928 O 2845.54 1.34565 1.10625 0
M  V30 28929 C 2842.67 2.70336 2.0768 0
M  V30 28930 H 2843.86 2.98488 0.290644 0
M  V30 28931 H 2841.42 1.55883 0.114101 0
M  V30 28932 H 2842.15 1.90464 2.62476 0
M  V30 28933 H 2841.94 3.4796 1.80739 0
M  V30 28934 H 2843.43 3.15035 2.74122 0
M  V30 28935 N 2843.86 -0.138524 1.5699 0
M  V30 28936 C 2845.14 -0.87888 1.74743 0
M  V30 28937 C 2845.52 -1.9896 0.705557 0
M  V30 28938 O 2844.87 -2.26851 -0.274026 0
M  V30 28939 C 2845.08 -1.41355 3.19092 0
M  V30 28940 C 2846.43 -1.87362 3.81026 0
M  V30 28941 O 2847.45 -1.51078 3.22574 0
M  V30 28942 O 2846.31 -2.54304 4.83727 0
M  V30 28943 H 2843.4 -0.41594 0.714788 0
M  V30 28944 H 2845.95 -0.123787 1.69248 0
M  V30 28945 H 2844.72 -0.615722 3.86425 0
M  V30 28946 H 2844.35 -2.23191 3.29047 0
M  V30 28947 N 2845.34 -1.52224 -0.408133 0
M  V30 28948 C 2846.31 -1.75013 -1.47997 0
M  V30 28949 C 2847.31 -0.620023 -1.48366 0
M  V30 28950 O 2848.5 -0.887908 -1.49873 0
M  V30 28951 C 2845.63 -1.83341 -2.874 0
M  V30 28952 H 2846.82 -2.70699 -1.29082 0
M  V30 28953 H 2844.37 -1.42655 -0.63869 0
M  V30 28954 H 2845.11 -0.895732 -3.11684 0
M  V30 28955 H 2844.89 -2.65499 -2.88535 0
M  V30 28956 H 2846.38 -2.02711 -3.651 0
M  V30 28957 N 2846.82 0.665425 -1.42863 0
M  V30 28958 C 2847.78 1.76053 -1.46759 0
M  V30 28959 C 2848.78 1.56857 -0.353893 0
M  V30 28960 O 2849.97 1.62978 -0.615128 0
M  V30 28961 C 2847.11 3.14794 -1.30835 0
M  V30 28962 H 2848.3 1.73983 -2.44274 0
M  V30 28963 H 2845.85 0.875942 -1.29449 0
M  V30 28964 H 2846.59 3.22483 -0.34279 0
M  V30 28965 H 2846.37 3.30131 -2.11556 0
M  V30 28966 H 2847.86 3.94673 -1.36465 0
M  V30 28967 N 2848.3 1.29191 0.902633 0
M  V30 28968 C 2849.52 1.19992 1.69164 0
M  V30 28969 C 2849.95 -0.236462 1.86608 0
M  V30 28970 O 2849.31 -1.1708 1.38427 0
M  V30 28971 C 2849.35 1.91532 3.05529 0
M  V30 28972 O 2848.46 1.23036 3.93619 0
M  V30 28973 H 2847.8 0.415945 0.517577 0
M  V30 28974 H 2850.33 1.70708 1.12782 0
M  V30 28975 H 2850.34 1.99872 3.5569 0
M  V30 28976 H 2849.01 2.96008 2.92151 0
M  V30 28977 H 2847.59 1.22935 3.52053 0
M  V30 28978 N 2849.78 -1.1126 1.1162 0
M  V30 28979 C 2851.02 -1.83309 0.867495 0
M  V30 28980 C 2851.36 -1.84525 -0.605333 0
M  V30 28981 O 2850.63 -1.29968 -1.44702 0
M  V30 28982 C 2850.91 -3.30397 1.43213 0
M  V30 28983 C 2850.77 -3.37565 2.97271 0
M  V30 28984 C 2852.09 -4.26526 1.08461 0
M  V30 28985 H 2849.2 -0.665537 0.31659 0
M  V30 28986 H 2851.85 -1.30452 1.38139 0
M  V30 28987 H 2850 -3.75541 0.995048 0
M  V30 28988 H 2851.67 -3.00965 3.49596 0
M  V30 28989 H 2849.91 -2.77727 3.33242 0
M  V30 28990 H 2850.58 -4.41099 3.31867 0
M  V30 28991 H 2853.06 -3.89571 1.46196 0
M  V30 28992 H 2851.93 -5.27824 1.50643 0
M  V30 28993 H 2852.2 -4.421 -0.00436797 0
M  V30 28994 N 2851.25 -0.906798 -1.28899 0
M  V30 28995 C 2852.53 -0.455571 -1.90221 0
M  V30 28996 C 2852.91 1.06523 -1.82252 0
M  V30 28997 O 2852.26 1.91023 -1.25389 0
M  V30 28998 C 2852.47 -0.978119 -3.35013 0
M  V30 28999 C 2853.82 -1.02606 -4.12016 0
M  V30 29000 O 2854.84 -0.926279 -3.43946 0
M  V30 29001 O 2853.7 -1.17698 -5.33675 0
M  V30 29002 H 2850.79 -0.143229 -0.814503 0
M  V30 29003 H 2853.34 -0.997128 -1.37315 0
M  V30 29004 H 2852.11 -2.0221 -3.35003 0
M  V30 29005 H 2851.74 -0.416983 -3.95407 0
M  V30 29006 N 2852.73 1.42648 -0.670032 0
M  V30 29007 C 2853.68 2.30797 0.0112523 0
M  V30 29008 C 2854.65 1.45697 0.797601 0
M  V30 29009 O 2855.83 1.74537 0.770814 0
M  V30 29010 C 2852.97 3.31481 0.959921 0
M  V30 29011 C 2852.09 4.31674 0.167899 0
M  V30 29012 C 2851.22 5.19433 1.11189 0
M  V30 29013 C 2850.26 6.11308 0.311274 0
M  V30 29014 N 2849.4 6.91635 1.20772 0
M  V30 29015 H 2854.24 2.88504 -0.746282 0
M  V30 29016 H 2851.78 1.42113 -0.379764 0
M  V30 29017 H 2853.73 3.88379 1.52372 0
M  V30 29018 H 2852.36 2.75384 1.68414 0
M  V30 29019 H 2851.42 3.76932 -0.512451 0
M  V30 29020 H 2852.73 4.9673 -0.453901 0
M  V30 29021 H 2851.88 5.8104 1.74577 0
M  V30 29022 H 2850.62 4.54541 1.76758 0
M  V30 29023 H 2849.63 5.48773 -0.335854 0
M  V30 29024 H 2850.85 6.78247 -0.340254 0
M  V30 29025 H 2848.8 6.29376 1.8499 0
M  V30 29026 H 2848.71 7.53279 0.640888 0
M  V30 29027 H 2849.98 7.57733 1.82922 0
M  V30 29028 N 2854.21 0.413044 1.52091 0
M  V30 29029 C 2855.46 -0.161701 2.02154 0
M  V30 29030 C 2855.79 -1.44457 1.29792 0
M  V30 29031 O 2855.07 -1.90228 0.405411 0
M  V30 29032 C 2855.35 -0.4054 3.57811 0
M  V30 29033 C 2855.2 0.894412 4.40818 0
M  V30 29034 C 2856.52 -1.18584 4.23823 0
M  V30 29035 H 2853.64 -0.0572948 0.73477 0
M  V30 29036 H 2856.28 0.547279 1.81947 0
M  V30 29037 H 2854.43 -1.00934 3.75159 0
M  V30 29038 H 2856.1 1.53046 4.35172 0
M  V30 29039 H 2854.35 1.50452 4.06874 0
M  V30 29040 H 2855.02 0.678241 5.47817 0
M  V30 29041 H 2857.49 -0.674501 4.10597 0
M  V30 29042 H 2856.37 -1.3251 5.32665 0
M  V30 29043 H 2856.63 -2.20751 3.83042 0
M  V30 29044 N 2855.69 -1.56945 0.143591 0
M  V30 29045 C 2856.94 -1.9519 -0.508316 0
M  V30 29046 C 2857.25 -1.03076 -1.66237 0
M  V30 29047 O 2858.46 -1.30886 -2.37868 0
M  V30 29048 C 2856.91 -3.4698 -0.955674 0
M  V30 29049 C 2856.52 -4.47673 0.171261 0
M  V30 29050 C 2858.27 -3.94098 -1.57756 0
M  V30 29051 C 2856.17 -5.90668 -0.294175 0
M  V30 29052 H 2855.1 -0.728704 -0.193666 0
M  V30 29053 H 2857.75 -1.82086 0.227389 0
M  V30 29054 H 2856.14 -3.55404 -1.74654 0
M  V30 29055 H 2857.31 -4.5094 0.948129 0
M  V30 29056 H 2855.62 -4.10451 0.701345 0
M  V30 29057 H 2858.22 -4.98368 -1.93736 0
M  V30 29058 H 2858.56 -3.35457 -2.46525 0
M  V30 29059 H 2859.1 -3.88576 -0.85166 0
M  V30 29060 H 2855.84 -6.5312 0.558054 0
M  V30 29061 H 2855.36 -5.90768 -1.03699 0
M  V30 29062 H 2857.04 -6.4267 -0.747313 0
M  V30 29063 N 2857.17 0.130197 -1.57061 0
M  V30 29064 C 2858.44 0.8696 -1.75206 0
M  V30 29065 C 2858.82 1.98583 -0.716098 0
M  V30 29066 O 2858.17 2.26993 0.261992 0
M  V30 29067 C 2858.38 1.39661 -3.19837 0
M  V30 29068 C 2859.73 1.85338 -3.82014 0
M  V30 29069 O 2860.75 1.49365 -3.23371 0
M  V30 29070 O 2859.61 2.51735 -4.85069 0
M  V30 29071 H 2856.71 0.412144 -0.716984 0
M  V30 29072 H 2859.25 0.11481 -1.69311 0
M  V30 29073 H 2858.03 0.59522 -3.86746 0
M  V30 29074 H 2857.65 2.21442 -3.30226 0
M  V30 29075 N 2858.65 1.52438 0.400055 0
M  V30 29076 C 2859.61 1.75795 1.47067 0
M  V30 29077 C 2860.61 0.627882 1.48035 0
M  V30 29078 O 2861.8 0.895843 1.494 0
M  V30 29079 C 2858.93 1.84863 2.86424 0
M  V30 29080 H 2860.12 2.7138 1.27644 0
M  V30 29081 H 2857.68 1.42992 0.631116 0
M  V30 29082 H 2858.41 0.912249 3.11205 0
M  V30 29083 H 2858.2 2.67026 2.87123 0
M  V30 29084 H 2859.69 2.04645 3.6402 0
M  V30 29085 N 2860.12 -0.657839 1.43214 0
M  V30 29086 C 2861.09 -1.75272 1.4769 0
M  V30 29087 C 2862.09 -1.56667 0.362207 0
M  V30 29088 O 2863.28 -1.62649 0.623762 0
M  V30 29089 C 2860.41 -3.14095 1.32502 0
M  V30 29090 H 2861.6 -1.72685 2.45193 0
M  V30 29091 H 2859.15 -0.869065 1.29911 0
M  V30 29092 H 2859.89 -3.22297 0.359887 0
M  V30 29093 H 2859.67 -3.29004 2.13304 0
M  V30 29094 H 2861.16 -3.93944 1.38556 0
M  V30 29095 N 2861.6 -1.29668 -0.895769 0
M  V30 29096 C 2862.85 -1.18042 -1.64906 0
M  V30 29097 C 2863.18 0.266648 -1.92361 0
M  V30 29098 O 2862.46 1.19211 -1.53684 0
M  V30 29099 C 2862.74 -1.99824 -2.9957 0
M  V30 29100 C 2862.59 -3.52692 -2.79156 0
M  V30 29101 C 2863.91 -1.82768 -4.00355 0
M  V30 29102 H 2861.03 -0.430175 -0.59843 0
M  V30 29103 H 2863.67 -1.59184 -1.03733 0
M  V30 29104 H 2861.82 -1.64865 -3.51784 0
M  V30 29105 H 2863.49 -3.97654 -2.33814 0
M  V30 29106 H 2861.74 -3.77418 -2.13864 0
M  V30 29107 H 2862.41 -4.05193 -3.74864 0
M  V30 29108 H 2864.88 -2.1331 -3.57265 0
M  V30 29109 H 2863.76 -2.42334 -4.92509 0
M  V30 29110 H 2864.02 -0.783916 -4.35094 0
M  V30 29111 N 2863.08 1.10667 -1.12208 0
M  V30 29112 C 2864.04 2.15122 -0.790905 0
M  V30 29113 C 2865.04 1.5963 0.19359 0
M  V30 29114 O 2866.23 1.74171 -0.0319034 0
M  V30 29115 C 2863.36 3.40451 -0.174857 0
M  V30 29116 H 2864.56 2.4593 -1.71635 0
M  V30 29117 H 2862.11 1.25989 -0.925015 0
M  V30 29118 H 2862.85 3.15259 0.760422 0
M  V30 29119 H 2862.63 3.82013 -0.883647 0
M  V30 29120 H 2864.12 4.1758 0.0404428 0
M  V30 29121 N 2864.56 0.913621 1.28416 0
M  V30 29122 C 2865.78 0.561934 1.99642 0
M  V30 29123 C 2866.21 -0.849578 1.67821 0
M  V30 29124 O 2865.57 -1.56777 0.910531 0
M  V30 29125 C 2865.61 0.777684 3.52114 0
M  V30 29126 O 2864.72 -0.163385 4.12076 0
M  V30 29127 H 2864.06 0.217909 0.627226 0
M  V30 29128 H 2866.59 1.22902 1.63573 0
M  V30 29129 H 2866.6 0.687737 4.02162 0
M  V30 29130 H 2865.27 1.80667 3.7461 0
M  V30 29131 H 2863.85 -0.0247172 3.72892 0
M  V30 29132 N 2866.04 -1.4229 0.677588 0
M  V30 29133 C 2867.28 -2.01798 0.201308 0
M  V30 29134 C 2867.61 -1.53467 -1.19002 0
M  V30 29135 O 2866.89 -0.738071 -1.79952 0
M  V30 29136 C 2867.17 -3.59306 0.239031 0
M  V30 29137 C 2867.03 -4.17809 1.66601 0
M  V30 29138 C 2868.34 -4.38175 -0.41121 0
M  V30 29139 H 2865.46 -0.733212 0.0746243 0
M  V30 29140 H 2868.11 -1.69275 0.862902 0
M  V30 29141 H 2866.26 -3.87144 -0.3243 0
M  V30 29142 H 2867.93 -4.00913 2.2818 0
M  V30 29143 H 2866.17 -3.73532 2.20582 0
M  V30 29144 H 2866.84 -5.26948 1.64407 0
M  V30 29145 H 2869.32 -4.16044 0.0683535 0
M  V30 29146 H 2868.19 -5.47756 -0.35419 0
M  V30 29147 H 2868.45 -4.16263 -1.48923 0
M  V30 29148 N 2867.51 -0.421104 -1.5187 0
M  V30 29149 C 2868.48 0.386672 -2.25915 0
M  V30 29150 C 2869.48 0.963532 -1.28735 0
M  V30 29151 O 2870.67 0.840529 -1.5258 0
M  V30 29152 C 2867.8 1.54546 -3.03856 0
M  V30 29153 H 2868.99 -0.262031 -2.98753 0
M  V30 29154 H 2866.54 -0.173889 -1.5533 0
M  V30 29155 H 2867.28 2.23068 -2.35396 0
M  V30 29156 H 2867.06 1.13817 -3.75217 0
M  V30 29157 H 2868.55 2.11657 -3.59988 0
M  V30 29158 N 2868.99 1.56866 -0.151912 0
M  V30 29159 C 2869.96 2.15814 0.771823 0
M  V30 29160 C 2870.96 1.10117 1.17179 0
M  V30 29161 O 2872.15 1.35731 1.09191 0
M  V30 29162 C 2869.28 2.72524 2.04801 0
M  V30 29163 H 2870.47 2.9878 0.258969 0
M  V30 29164 H 2868.02 1.55995 0.0975606 0
M  V30 29165 H 2868.76 1.93238 2.60441 0
M  V30 29166 H 2868.54 3.49857 1.77038 0
M  V30 29167 H 2870.03 3.17925 2.70765 0
M  V30 29168 N 2870.47 -0.121866 1.57128 0
M  V30 29169 C 2871.89 -0.475313 1.52358 0
M  V30 29170 C 2872.09 -1.82015 0.864449 0
M  V30 29171 O 2871.14 -2.48538 0.445572 0
M  V30 29172 C 2872.46 -0.462448 2.97123 0
M  V30 29173 C 2874 -0.546201 3.08197 0
M  V30 29174 C 2874.48 -0.563753 4.54517 0
M  V30 29175 N 2875.97 -0.625272 4.5896 0
M  V30 29176 C 2876.7 -0.660254 5.69586 0
M  V30 29177 N 2876.2 -0.653054 6.89715 0
M  V30 29178 N 2877.99 -0.703045 5.57686 0
M  V30 29179 H 2870.14 0.759344 1.98363 0
M  V30 29180 H 2872.41 0.279788 0.905772 0
M  V30 29181 H 2872.11 0.458005 3.48705 0
M  V30 29182 H 2871.99 -1.2913 3.54409 0
M  V30 29183 H 2874.37 -1.45707 2.56619 0
M  V30 29184 H 2874.46 0.310279 2.53911 0
M  V30 29185 H 2874.1 0.343063 5.0674 0
M  V30 29186 H 2874.03 -1.43708 5.06612 0
M  V30 29187 H 2876.52 -0.637117 3.72491 0
M  V30 29188 H 2876.83 -0.68229 7.69782 0
M  V30 29189 H 2875.18 -0.620524 6.92224 0
M  V30 29190 H 2878.37 -0.706013 4.62745 0
M  V30 29191 H 2878.54 -0.726839 6.43911 0
M  V30 29192 N 2871.95 -1.52648 -0.391965 0
M  V30 29193 C 2872.88 -1.73465 -1.49808 0
M  V30 29194 C 2873.89 -0.615104 -1.50733 0
M  V30 29195 O 2875.08 -0.890723 -1.54688 0
M  V30 29196 C 2872.18 -1.77557 -2.88663 0
M  V30 29197 C 2871.36 -3.0682 -3.11737 0
M  V30 29198 C 2870.41 -3.02498 -4.30559 0
M  V30 29199 O 2869.44 -3.76369 -4.27007 0
M  V30 29200 N 2870.64 -2.21477 -5.36589 0
M  V30 29201 H 2873.41 -2.68899 -1.32338 0
M  V30 29202 H 2870.97 -1.51099 -0.581448 0
M  V30 29203 H 2872.96 -1.72176 -3.66248 0
M  V30 29204 H 2871.53 -0.895233 -2.99507 0
M  V30 29205 H 2870.75 -3.25715 -2.22044 0
M  V30 29206 H 2872.04 -3.92298 -3.24006 0
M  V30 29207 H 2871.44 -1.60923 -5.42329 0
M  V30 29208 H 2869.99 -2.21938 -6.12851 0
M  V30 29209 N 2873.43 0.650235 -1.43561 0
M  V30 29210 C 2874.67 1.40731 -1.45049 0
M  V30 29211 C 2875 1.94848 -0.0770164 0
M  V30 29212 O 2874.27 1.74614 0.888067 0
M  V30 29213 H 2872.85 0.522309 -0.534043 0
M  V30 29214 H 2875.51 0.766671 -1.79188 0
M  V30 29215 H 2874.6 2.24818 -2.1648 0
M  V30 29216 N 2874.9 1.30141 0.88888 0
M  V30 29217 C 2876.15 1.18915 1.64278 0
M  V30 29218 C 2876.48 -0.256443 1.92499 0
M  V30 29219 O 2875.76 -1.18395 1.54314 0
M  V30 29220 C 2876.04 2.0141 2.98506 0
M  V30 29221 C 2875.89 3.54168 2.77282 0
M  V30 29222 C 2877.21 1.84889 3.9938 0
M  V30 29223 H 2874.33 0.433343 0.59614 0
M  V30 29224 H 2876.97 1.59732 1.02887 0
M  V30 29225 H 2875.12 1.66729 3.50904 0
M  V30 29226 H 2876.8 3.98888 2.31702 0
M  V30 29227 H 2875.04 3.78547 2.1186 0
M  V30 29228 H 2875.71 4.07175 3.7271 0
M  V30 29229 H 2878.19 2.15202 3.56128 0
M  V30 29230 H 2877.06 2.44943 4.91217 0
M  V30 29231 H 2877.32 0.806979 4.34673 0
M  V30 29232 N 2876.38 -1.1007 1.12794 0
M  V30 29233 C 2877.61 -1.86425 0.90887 0
M  V30 29234 C 2878.03 -1.80279 -0.536761 0
M  V30 29235 O 2877.39 -1.17546 -1.38031 0
M  V30 29236 C 2877.44 -3.32608 1.393 0
M  V30 29237 O 2876.54 -4.08387 0.573918 0
M  V30 29238 H 2875.88 -0.578326 0.326245 0
M  V30 29239 H 2878.41 -1.3904 1.50097 0
M  V30 29240 H 2878.42 -3.83457 1.39373 0
M  V30 29241 H 2877.1 -3.36397 2.44561 0
M  V30 29242 H 2875.68 -3.67358 0.640503 0
M  V30 29243 N 2877.86 -0.920419 -1.2793 0
M  V30 29244 C 2879.11 -0.557866 -1.94976 0
M  V30 29245 C 2879.44 0.897335 -1.72225 0
M  V30 29246 O 2878.71 1.6391 -1.04708 0
M  V30 29247 C 2879 -0.875803 -3.49287 0
M  V30 29248 C 2878.85 -2.38422 -3.81412 0
M  V30 29249 C 2880.17 -0.376594 -4.38486 0
M  V30 29250 H 2877.29 -0.204152 -0.70816 0
M  V30 29251 H 2879.93 -1.15087 -1.51178 0
M  V30 29252 H 2878.08 -0.37113 -3.86723 0
M  V30 29253 H 2879.75 -2.96003 -3.53808 0
M  V30 29254 H 2878 -2.83644 -3.2822 0
M  V30 29255 H 2878.67 -2.55722 -4.89194 0
M  V30 29256 H 2881.14 -0.809017 -4.08159 0
M  V30 29257 H 2880.02 -0.628072 -5.45295 0
M  V30 29258 H 2880.28 0.723216 -4.36144 0
M  V30 29259 N 2879.34 1.41929 -0.685124 0
M  V30 29260 C 2880.3 2.29189 -0.0223035 0
M  V30 29261 C 2881.3 1.43851 0.718575 0
M  V30 29262 O 2882.49 1.65121 0.555029 0
M  V30 29263 C 2879.62 3.26541 0.978955 0
M  V30 29264 H 2880.82 2.89295 -0.790475 0
M  V30 29265 H 2878.37 1.49741 -0.448038 0
M  V30 29266 H 2879.1 2.71395 1.77526 0
M  V30 29267 H 2878.89 3.89498 0.450969 0
M  V30 29268 H 2880.38 3.91956 1.44084 0
M  V30 29269 N 2880.82 0.429152 1.51644 0
M  V30 29270 C 2881.75 -0.377107 2.30435 0
M  V30 29271 C 2882.73 -1.02836 1.35495 0
M  V30 29272 O 2883.91 -1.03356 1.64412 0
M  V30 29273 C 2881.04 -1.4831 3.14041 0
M  V30 29274 C 2880 -0.955782 4.17192 0
M  V30 29275 C 2879.32 -2.1569 4.89267 0
M  V30 29276 C 2880.62 0.00411317 5.223 0
M  V30 29277 H 2882.32 0.280388 2.98084 0
M  V30 29278 H 2879.86 0.13629 1.43354 0
M  V30 29279 H 2881.82 -2.05428 3.67936 0
M  V30 29280 H 2880.54 -2.16876 2.44197 0
M  V30 29281 H 2879.2 -0.406865 3.64335 0
M  V30 29282 H 2878.85 -2.82857 4.15934 0
M  V30 29283 H 2878.55 -1.81049 5.59012 0
M  V30 29284 H 2880.07 -2.73377 5.45983 0
M  V30 29285 H 2881.48 -0.476507 5.71316 0
M  V30 29286 H 2879.88 0.262685 5.99525 0
M  V30 29287 H 2880.95 0.94332 4.75636 0
M  V30 29288 N 2882.29 -1.56783 0.160229 0
M  V30 29289 C 2883.71 -1.83228 -0.358384 0
M  V30 29290 C 2884.06 -1.07955 -1.6383 0
M  V30 29291 O 2883.18 -0.329032 -2.13884 0
M  V30 29292 C 2883.78 -3.32369 -0.657 0
M  V30 29293 C 2882.34 -3.59348 -1.12009 0
M  V30 29294 C 2881.48 -2.76893 -0.150102 0
M  V30 29295 H 2884.43 -1.53967 0.384696 0
M  V30 29296 H 2884.45 -3.49244 -1.51027 0
M  V30 29297 H 2883.97 -3.87126 0.274715 0
M  V30 29298 H 2882.07 -3.0999 -2.06729 0
M  V30 29299 H 2882.18 -4.67744 -1.03692 0
M  V30 29300 H 2880.54 -2.46389 -0.645318 0
M  V30 29301 H 2881.33 -3.34428 0.775438 0
M  V30 29302 N 2883.77 0.113531 -1.57191 0
M  V30 29303 C 2885 0.838303 -1.89703 0
M  V30 29304 C 2885.42 1.72383 -0.75271 0
M  V30 29305 O 2884.78 1.78858 0.296544 0
M  V30 29306 C 2884.83 1.64307 -3.20992 0
M  V30 29307 O 2883.93 2.75048 -3.07282 0
M  V30 29308 H 2883.27 0.231485 -0.622343 0
M  V30 29309 H 2885.8 0.0942869 -2.04383 0
M  V30 29310 H 2885.81 2.03116 -3.53847 0
M  V30 29311 H 2884.49 0.993048 -4.0387 0
M  V30 29312 H 2883.07 2.39401 -2.85905 0
M  V30 29313 N 2885.25 1.52854 0.383864 0
M  V30 29314 C 2886.21 1.77345 1.45194 0
M  V30 29315 C 2887.21 0.643548 1.4736 0
M  V30 29316 O 2888.4 0.911639 1.48441 0
M  V30 29317 C 2885.54 1.8789 2.84447 0
M  V30 29318 H 2886.73 2.72718 1.24759 0
M  V30 29319 H 2884.28 1.43653 0.615914 0
M  V30 29320 H 2885.02 0.945205 3.1022 0
M  V30 29321 H 2884.8 2.70056 2.84275 0
M  V30 29322 H 2886.29 2.08494 3.61829 0
M  V30 29323 N 2886.73 -0.642612 1.43904 0
M  V30 29324 C 2887.98 -1.3996 1.45793 0
M  V30 29325 C 2888.3 -1.94804 0.0873486 0
M  V30 29326 O 2887.57 -1.75083 -0.878794 0
M  V30 29327 H 2886.15 -0.51947 0.536806 0
M  V30 29328 H 2888.81 -0.757158 1.79592 0
M  V30 29329 H 2887.91 -2.23666 2.17669 0
M  V30 29330 N 2888.21 -1.30611 -0.881966 0
M  V30 29331 C 2889.43 -1.22668 -1.67234 0
M  V30 29332 C 2889.86 0.206745 -1.8696 0
M  V30 29333 O 2889.22 1.14863 -1.40272 0
M  V30 29334 C 2889.26 -1.96369 -3.02443 0
M  V30 29335 O 2888.37 -1.29283 -3.91612 0
M  V30 29336 H 2887.71 -0.424126 -0.510894 0
M  V30 29337 H 2890.24 -1.72481 -1.10052 0
M  V30 29338 H 2890.25 -2.05506 -3.52465 0
M  V30 29339 H 2888.92 -3.00618 -2.87405 0
M  V30 29340 H 2887.5 -1.2852 -3.50053 0
M  V30 29341 N 2889.69 1.0947 -1.13376 0
M  V30 29342 C 2890.93 1.81278 -0.893454 0
M  V30 29343 C 2891.25 1.86112 0.581996 0
M  V30 29344 O 2890.52 1.34635 1.42303 0
M  V30 29345 H 2889.1 0.671355 -0.327555 0
M  V30 29346 H 2891.77 1.32405 -1.43021 0
M  V30 29347 H 2890.86 2.84474 -1.28379 0
M  V30 29348 N 2891.16 0.92719 1.2744 0
M  V30 29349 C 2892.41 0.566237 1.94006 0
M  V30 29350 C 2892.73 -0.895314 1.73231 0
M  V30 29351 O 2892 -1.63457 1.07976 0
M  V30 29352 H 2890.58 0.206422 0.717913 0
M  V30 29353 H 2893.24 1.17947 1.55159 0
M  V30 29354 H 2892.34 0.772082 3.02399 0
M  V30 29355 N 2892.64 -1.41564 0.692641 0
M  V30 29356 C 2893.89 -2.00878 0.221931 0
M  V30 29357 C 2894.21 -1.55122 -1.18161 0
M  V30 29358 O 2893.48 -0.780572 -1.79677 0
M  V30 29359 H 2892.06 -0.742805 0.0790594 0
M  V30 29360 H 2894.72 -1.73231 0.893145 0
M  V30 29361 H 2893.82 -3.11198 0.237075 0
M  V30 29362 N 2894.12 -0.437188 -1.51415 0
M  V30 29363 C 2895.08 0.362689 -2.26312 0
M  V30 29364 C 2896.08 0.949824 -1.2975 0
M  V30 29365 O 2897.27 0.824298 -1.53463 0
M  V30 29366 C 2894.4 1.51314 -3.05478 0
M  V30 29367 H 2895.6 -0.293703 -2.98458 0
M  V30 29368 H 2893.15 -0.190354 -1.55137 0
M  V30 29369 H 2893.89 2.20559 -2.37748 0
M  V30 29370 H 2893.67 1.09831 -3.76403 0
M  V30 29371 H 2895.16 2.07827 -3.62212 0
M  V30 29372 N 2895.6 1.56696 -0.168541 0
M  V30 29373 C 2896.83 2.01172 0.483468 0
M  V30 29374 C 2897.24 1.04875 1.56992 0
M  V30 29375 O 2896.6 0.0491658 1.82434 0
M  V30 29376 C 2896.65 3.45476 1.06434 0
M  V30 29377 O 2896.37 4.38095 0.0212604 0
M  V30 29378 C 2897.87 4.05339 1.79485 0
M  V30 29379 H 2895.09 0.659445 0.123991 0
M  V30 29380 H 2897.63 2.02717 -0.269455 0
M  V30 29381 H 2895.79 3.44715 1.76778 0
M  V30 29382 H 2896.2 5.22568 0.449745 0
M  V30 29383 H 2897.68 5.08242 2.15392 0
M  V30 29384 H 2898.15 3.47273 2.68883 0
M  V30 29385 H 2898.76 4.09795 1.1379 0
M  V30 29386 N 2897.08 -0.105193 1.57249 0
M  V30 29387 C 2898.32 -0.809165 1.84758 0
M  V30 29388 C 2898.64 -1.80387 0.756294 0
M  V30 29389 O 2899.84 -2.55502 0.918203 0
M  V30 29390 C 2898.3 -1.48983 3.27616 0
M  V30 29391 C 2897.91 -0.535406 4.44789 0
M  V30 29392 C 2899.65 -2.17812 3.6436 0
M  V30 29393 C 2897.56 -1.22008 5.78678 0
M  V30 29394 H 2896.49 -0.305934 0.689145 0
M  V30 29395 H 2899.14 -0.0620049 1.83395 0
M  V30 29396 H 2897.52 -2.2841 3.23489 0
M  V30 29397 H 2898.7 0.226638 4.60242 0
M  V30 29398 H 2897.01 0.0466501 4.16374 0
M  V30 29399 H 2899.61 -2.69753 4.61668 0
M  V30 29400 H 2899.95 -2.96246 2.92479 0
M  V30 29401 H 2900.48 -1.45258 3.70331 0
M  V30 29402 H 2897.22 -0.47676 6.53764 0
M  V30 29403 H 2896.74 -1.9538 5.67086 0
M  V30 29404 H 2898.42 -1.74941 6.229 0
M  V30 29405 N 2898.55 -1.53055 -0.375752 0
M  V30 29406 C 2899.83 -1.59338 -1.1345 0
M  V30 29407 C 2900.21 -0.394651 -2.07378 0
M  V30 29408 O 2899.56 0.615962 -2.20041 0
M  V30 29409 C 2899.77 -2.93872 -1.88255 0
M  V30 29410 C 2901.12 -3.48086 -2.43149 0
M  V30 29411 O 2902.14 -2.95834 -1.98395 0
M  V30 29412 O 2901 -4.39407 -3.24937 0
M  V30 29413 H 2898.09 -0.643188 -0.519845 0
M  V30 29414 H 2900.64 -1.65394 -0.379836 0
M  V30 29415 H 2899.41 -3.7256 -1.19645 0
M  V30 29416 H 2899.04 -2.91261 -2.70653 0
M  V30 29417 N 2900.03 0.634971 -1.44242 0
M  V30 29418 C 2901 1.729 -1.5046 0
M  V30 29419 C 2902 1.56071 -0.387085 0
M  V30 29420 O 2903.19 1.61637 -0.649559 0
M  V30 29421 C 2900.32 3.11948 -1.37483 0
M  V30 29422 H 2901.51 1.68763 -2.4791 0
M  V30 29423 H 2899.06 0.848287 -1.31278 0
M  V30 29424 H 2899.8 3.21684 -0.411116 0
M  V30 29425 H 2899.58 3.25569 -2.18511 0
M  V30 29426 H 2901.07 3.9169 -1.44806 0
M  V30 29427 N 2901.51 1.31076 0.875027 0
M  V30 29428 C 2902.47 1.18266 1.96331 0
M  V30 29429 C 2903.47 0.111135 1.60415 0
M  V30 29430 O 2904.66 0.360017 1.70439 0
M  V30 29431 C 2901.8 0.814198 3.31034 0
M  V30 29432 H 2902.99 2.14961 2.09121 0
M  V30 29433 H 2900.54 1.14615 1.06269 0
M  V30 29434 H 2901.28 -0.151818 3.23944 0
M  V30 29435 H 2901.06 1.58869 3.58473 0
M  V30 29436 H 2902.55 0.748321 4.10841 0
M  V30 29437 N 2902.99 -1.08867 1.13955 0
M  V30 29438 C 2903.95 -2.13836 0.825028 0
M  V30 29439 C 2904.95 -1.59918 -0.16817 0
M  V30 29440 O 2906.14 -1.74098 0.0596084 0
M  V30 29441 C 2903.27 -3.4013 0.228998 0
M  V30 29442 H 2904.47 -2.43168 1.75525 0
M  V30 29443 H 2902.02 -1.24501 0.944942 0
M  V30 29444 H 2902.75 -3.16429 -0.710171 0
M  V30 29445 H 2902.54 -3.80559 0.94431 0
M  V30 29446 H 2904.03 -4.17592 0.0259957 0
M  V30 29447 N 2904.47 -0.933936 -1.26946 0
M  V30 29448 C 2905.4 -0.45538 -2.29016 0
M  V30 29449 C 2906.38 0.487576 -1.62962 0
M  V30 29450 O 2907.56 0.390989 -1.90223 0
M  V30 29451 C 2904.69 0.286954 -3.46113 0
M  V30 29452 C 2903.65 -0.568757 -4.24204 0
M  V30 29453 C 2902.97 0.303112 -5.3384 0
M  V30 29454 C 2904.27 -1.83642 -4.88951 0
M  V30 29455 H 2905.97 -1.30843 -2.69296 0
M  V30 29456 H 2903.51 -0.630602 -1.29458 0
M  V30 29457 H 2905.47 0.632726 -4.16623 0
M  V30 29458 H 2904.19 1.17409 -3.04767 0
M  V30 29459 H 2902.85 -0.897323 -3.55449 0
M  V30 29460 H 2902.5 1.18938 -4.88736 0
M  V30 29461 H 2902.2 -0.265983 -5.86998 0
M  V30 29462 H 2903.72 0.644316 -6.07191 0
M  V30 29463 H 2905.13 -1.55833 -5.51715 0
M  V30 29464 H 2903.53 -2.3495 -5.52194 0
M  V30 29465 H 2904.6 -2.55219 -4.123 0
M  V30 29466 N 2905.94 1.41194 -0.700139 0
M  V30 29467 C 2907.17 2.05998 -0.240741 0
M  V30 29468 C 2907.59 1.52359 1.1031 0
M  V30 29469 O 2906.95 0.652454 1.69153 0
M  V30 29470 C 2907 3.59965 -0.213846 0
M  V30 29471 O 2906.1 4.0437 0.809862 0
M  V30 29472 H 2905.45 0.653703 -0.116482 0
M  V30 29473 H 2907.98 1.80877 -0.956283 0
M  V30 29474 H 2907.99 4.07974 -0.0462569 0
M  V30 29475 H 2906.66 3.98374 -1.19461 0
M  V30 29476 H 2905.24 3.67856 0.611255 0
M  V30 29477 N 2907.42 0.445212 1.51181 0
M  V30 29478 C 2908.33 -0.368215 2.31692 0
M  V30 29479 C 2909.35 -1.02033 1.40944 0
M  V30 29480 O 2910.52 -1.01398 1.74013 0
M  V30 29481 C 2907.59 -1.45035 3.14906 0
M  V30 29482 C 2906.65 -0.81754 4.21444 0
M  V30 29483 C 2905.88 -1.84811 5.0068 0
M  V30 29484 O 2906.11 -3.07136 4.80649 0
M  V30 29485 O 2905.04 -1.43427 5.84562 0
M  V30 29486 H 2908.87 0.289273 3.02319 0
M  V30 29487 H 2906.45 0.207581 1.47951 0
M  V30 29488 H 2908.33 -2.07776 3.66616 0
M  V30 29489 H 2907.01 -2.09178 2.47035 0
M  V30 29490 H 2905.92 -0.151865 3.73792 0
M  V30 29491 H 2907.25 -0.219478 4.9171 0
M  V30 29492 N 2908.9 -1.56605 0.176849 0
M  V30 29493 C 2910.15 -1.97049 -0.46668 0
M  V30 29494 C 2910.48 -1.06305 -1.62879 0
M  V30 29495 O 2909.73 -0.0982914 -1.95453 0
M  V30 29496 C 2910.03 -3.43526 -0.986148 0
M  V30 29497 C 2909.7 -4.50859 0.0606459 0
M  V30 29498 C 2908.36 -4.79938 0.348326 0
M  V30 29499 C 2910.71 -5.15468 0.770885 0
M  V30 29500 C 2908.04 -5.70921 1.35154 0
M  V30 29501 C 2910.39 -6.07533 1.76312 0
M  V30 29502 C 2909.05 -6.34976 2.05819 0
M  V30 29503 H 2908.32 -0.721054 -0.17077 0
M  V30 29504 H 2910.97 -1.89587 0.269975 0
M  V30 29505 H 2909.28 -3.47967 -1.80073 0
M  V30 29506 H 2910.97 -3.72164 -1.49316 0
M  V30 29507 H 2907.56 -4.28248 -0.173748 0
M  V30 29508 H 2911.75 -4.93109 0.561847 0
M  V30 29509 H 2907 -5.90464 1.58626 0
M  V30 29510 H 2911.18 -6.56662 2.3188 0
M  V30 29511 H 2908.8 -7.05278 2.83703 0
M  V30 29512 N 2910.38 0.0968524 -1.57302 0
M  V30 29513 C 2911.61 0.814261 -1.90204 0
M  V30 29514 C 2912.02 1.72368 -0.770374 0
M  V30 29515 O 2911.38 1.80671 0.257732 0
M  V30 29516 C 2911.43 1.6291 -3.22711 0
M  V30 29517 O 2911.15 0.756267 -4.31523 0
M  V30 29518 C 2912.65 2.44972 -3.69464 0
M  V30 29519 H 2909.87 0.232914 -0.629279 0
M  V30 29520 H 2912.42 0.0746122 -2.04364 0
M  V30 29521 H 2910.57 2.32128 -3.10154 0
M  V30 29522 H 2910.98 1.32046 -5.07606 0
M  V30 29523 H 2912.46 2.97641 -4.6488 0
M  V30 29524 H 2912.94 3.23355 -2.97217 0
M  V30 29525 H 2913.54 1.80957 -3.84883 0
M  V30 29526 N 2911.86 1.53252 0.36763 0
M  V30 29527 C 2913.13 1.59937 1.12603 0
M  V30 29528 C 2913.51 0.405643 2.07166 0
M  V30 29529 O 2912.86 -0.604284 2.20365 0
M  V30 29530 C 2913.07 2.94867 1.86694 0
M  V30 29531 C 2914.42 3.4937 2.413 0
M  V30 29532 O 2915.44 2.96882 1.96823 0
M  V30 29533 O 2914.3 4.41124 3.22602 0
M  V30 29534 H 2911.4 0.645936 0.516426 0
M  V30 29535 H 2913.94 1.65594 0.371059 0
M  V30 29536 H 2912.71 3.73189 1.17668 0
M  V30 29537 H 2912.34 2.92692 2.69104 0
M  V30 29538 N 2913.34 -0.627313 1.44577 0
M  V30 29539 C 2914.27 -1.7524 1.47728 0
M  V30 29540 C 2915.28 -1.58535 0.370221 0
M  V30 29541 O 2916.47 -1.66778 0.63618 0
M  V30 29542 C 2913.57 -3.1301 1.29916 0
M  V30 29543 C 2912.74 -3.56139 2.53937 0
M  V30 29544 C 2911.8 -4.728 2.30969 0
M  V30 29545 O 2910.83 -4.80918 3.04478 0
M  V30 29546 N 2912.03 -5.64758 1.34271 0
M  V30 29547 H 2914.79 -1.73008 2.44721 0
M  V30 29548 H 2912.36 -0.811997 1.40065 0
M  V30 29549 H 2914.35 -3.8878 1.12392 0
M  V30 29550 H 2912.92 -3.09863 0.412723 0
M  V30 29551 H 2912.14 -2.70537 2.86711 0
M  V30 29552 H 2913.43 -3.81707 3.36418 0
M  V30 29553 H 2912.82 -5.60896 0.735672 0
M  V30 29554 H 2911.38 -6.40142 1.22724 0
M  V30 29555 N 2914.81 -1.31539 -0.868063 0
M  V30 29556 C 2916.06 -1.20692 -1.61605 0
M  V30 29557 C 2916.38 0.23324 -1.94204 0
M  V30 29558 O 2917.58 0.463418 -2.67516 0
M  V30 29559 C 2916.04 -2.11297 -2.91344 0
M  V30 29560 C 2915.65 -3.6032 -2.66221 0
M  V30 29561 C 2917.39 -2.09255 -3.69341 0
M  V30 29562 C 2915.3 -4.42927 -3.91879 0
M  V30 29563 H 2914.23 -0.448149 -0.606365 0
M  V30 29564 H 2916.88 -1.56407 -0.959638 0
M  V30 29565 H 2915.26 -1.68483 -3.58371 0
M  V30 29566 H 2916.43 -4.11392 -2.0759 0
M  V30 29567 H 2914.75 -3.64357 -2.01576 0
M  V30 29568 H 2917.35 -2.68217 -4.62562 0
M  V30 29569 H 2917.69 -1.08017 -4.02042 0
M  V30 29570 H 2918.22 -2.5028 -3.092 0
M  V30 29571 H 2914.96 -5.44928 -3.64327 0
M  V30 29572 H 2914.48 -3.96612 -4.49954 0
M  V30 29573 H 2916.16 -4.55239 -4.59746 0
M  V30 29574 N 2916.29 1.08262 -1.1453 0
M  V30 29575 C 2917.52 1.84416 -0.937996 0
M  V30 29576 C 2917.93 1.81682 0.513538 0
M  V30 29577 O 2917.29 1.22155 1.35589 0
M  V30 29578 C 2917.34 3.31894 -1.43277 0
M  V30 29579 O 2917.06 3.34646 -2.82744 0
M  V30 29580 C 2918.56 4.24849 -1.26562 0
M  V30 29581 H 2915.78 0.58213 -0.333714 0
M  V30 29582 H 2918.33 1.3672 -1.52078 0
M  V30 29583 H 2916.48 3.76974 -0.892719 0
M  V30 29584 H 2916.9 4.26718 -3.04978 0
M  V30 29585 H 2918.37 5.26436 -1.6604 0
M  V30 29586 H 2918.85 4.38704 -0.208666 0
M  V30 29587 H 2919.45 3.85597 -1.7943 0
M  V30 29588 N 2917.77 0.940655 1.26449 0
M  V30 29589 C 2919.02 0.586782 1.93394 0
M  V30 29590 C 2919.34 -0.87689 1.74171 0
M  V30 29591 O 2918.61 -1.62302 1.09703 0
M  V30 29592 H 2917.19 0.214025 0.715683 0
M  V30 29593 H 2919.85 1.19586 1.539 0
M  V30 29594 H 2918.95 0.804112 3.01563 0
M  V30 29595 N 2919.25 -1.40821 0.707617 0
M  V30 29596 C 2920.66 -1.55001 0.380367 0
M  V30 29597 C 2920.86 -1.68064 -1.1116 0
M  V30 29598 O 2919.92 -1.66578 -1.89758 0
M  V30 29599 C 2921.23 -2.78275 1.13945 0
M  V30 29600 C 2922.78 -2.92085 1.12497 0
M  V30 29601 C 2923.26 -4.18262 1.86604 0
M  V30 29602 N 2924.75 -4.25245 1.83633 0
M  V30 29603 C 2925.48 -5.21763 2.37804 0
M  V30 29604 N 2924.98 -6.24239 3.00496 0
M  V30 29605 N 2926.77 -5.13787 2.27991 0
M  V30 29606 H 2918.92 -1.30587 1.67513 0
M  V30 29607 H 2921.18 -0.630888 0.70759 0
M  V30 29608 H 2920.89 -2.74873 2.19403 0
M  V30 29609 H 2920.76 -3.7015 0.725858 0
M  V30 29610 H 2923.15 -2.94995 0.0786083 0
M  V30 29611 H 2923.23 -2.0135 1.57771 0
M  V30 29612 H 2922.88 -4.16113 2.91226 0
M  V30 29613 H 2922.81 -5.07991 1.38755 0
M  V30 29614 H 2925.3 -3.51827 1.37936 0
M  V30 29615 H 2925.61 -6.94298 3.39367 0
M  V30 29616 H 2923.96 -6.24706 3.04578 0
M  V30 29617 H 2927.15 -4.32657 1.78676 0
M  V30 29618 H 2927.32 -5.88837 2.7051 0
M  V30 29619 N 2920.73 -0.453223 -1.50943 0
M  V30 29620 C 2921.64 0.355922 -2.31884 0
M  V30 29621 C 2922.65 1.01285 -1.41483 0
M  V30 29622 O 2923.83 1.00474 -1.74548 0
M  V30 29623 C 2920.89 1.43363 -3.15671 0
M  V30 29624 C 2919.95 0.795179 -4.21871 0
M  V30 29625 C 2919.19 1.82153 -5.01653 0
M  V30 29626 O 2919.41 3.04583 -4.82271 0
M  V30 29627 O 2918.34 1.40325 -5.85314 0
M  V30 29628 H 2922.17 -0.305301 -3.02162 0
M  V30 29629 H 2919.75 -0.215424 -1.47839 0
M  V30 29630 H 2921.64 2.05829 -3.67712 0
M  V30 29631 H 2920.31 2.07865 -2.48141 0
M  V30 29632 H 2919.22 0.13204 -3.73867 0
M  V30 29633 H 2920.55 0.193398 -4.9182 0
M  V30 29634 N 2922.2 1.56509 -0.185151 0
M  V30 29635 C 2923.45 1.96904 0.455322 0
M  V30 29636 C 2923.77 1.0728 1.62837 0
M  V30 29637 O 2923.04 0.142001 1.95385 0
M  V30 29638 H 2921.62 0.727116 0.171206 0
M  V30 29639 H 2924.28 1.93027 -0.269564 0
M  V30 29640 H 2923.38 3.0151 0.806107 0
M  V30 29641 N 2923.68 -0.0885089 1.57351 0
M  V30 29642 C 2924.93 -0.791963 1.86697 0
M  V30 29643 C 2925.26 -1.78058 0.775179 0
M  V30 29644 O 2924.54 -1.93295 -0.216213 0
M  V30 29645 C 2924.82 -1.51485 3.26687 0
M  V30 29646 C 2924.67 -0.543779 4.46501 0
M  V30 29647 C 2925.99 -2.46385 3.64668 0
M  V30 29648 H 2923.11 -0.286451 0.679054 0
M  V30 29649 H 2925.75 -0.0554532 1.89919 0
M  V30 29650 H 2923.9 -2.14267 3.24071 0
M  V30 29651 H 2925.57 0.0775407 4.61235 0
M  V30 29652 H 2923.82 0.142304 4.33567 0
M  V30 29653 H 2924.49 -1.08686 5.41194 0
M  V30 29654 H 2926.96 -1.93691 3.6827 0
M  V30 29655 H 2925.84 -2.93978 4.63539 0
M  V30 29656 H 2926.1 -3.3044 2.93703 0
M  V30 29657 N 2925.16 -1.53445 -0.359498 0
M  V30 29658 C 2926.09 -1.83293 -1.44658 0
M  V30 29659 C 2927.07 -0.686857 -1.55616 0
M  V30 29660 O 2928.26 -0.93728 -1.70084 0
M  V30 29661 C 2925.39 -2.02827 -2.81919 0
M  V30 29662 C 2924.34 -3.18611 -2.85782 0
M  V30 29663 C 2923.67 -3.2345 -4.25775 0
M  V30 29664 C 2924.97 -4.5707 -2.52754 0
M  V30 29665 H 2926.66 -2.74331 -1.19929 0
M  V30 29666 H 2924.21 -1.32 -0.575494 0
M  V30 29667 H 2926.16 -2.22291 -3.58001 0
M  V30 29668 H 2924.88 -1.08505 -3.08049 0
M  V30 29669 H 2923.54 -2.98977 -2.12151 0
M  V30 29670 H 2923.19 -2.26753 -4.4899 0
M  V30 29671 H 2922.89 -4.01245 -4.29274 0
M  V30 29672 H 2924.41 -3.45105 -5.03721 0
M  V30 29673 H 2925.83 -4.76654 -3.18549 0
M  V30 29674 H 2924.22 -5.37151 -2.6756 0
M  V30 29675 H 2925.29 -4.61767 -1.47985 0
M  V30 29676 N 2926.64 0.619637 -1.44908 0
M  V30 29677 C 2927.6 1.71295 -1.52285 0
M  V30 29678 C 2928.6 1.55652 -0.403617 0
M  V30 29679 O 2929.79 1.60938 -0.666667 0
M  V30 29680 C 2926.92 3.10472 -1.40783 0
M  V30 29681 H 2928.12 1.66124 -2.49686 0
M  V30 29682 H 2925.67 0.834315 -1.3217 0
M  V30 29683 H 2926.4 3.21229 -0.445212 0
M  V30 29684 H 2926.19 3.23233 -2.21952 0
M  V30 29685 H 2927.68 3.90132 -1.48952 0
M  V30 29686 N 2928.12 1.31997 0.861075 0
M  V30 29687 C 2929.34 1.25313 1.65261 0
M  V30 29688 C 2929.77 -0.176975 1.87266 0
M  V30 29689 O 2929.12 -1.12617 1.42082 0
M  V30 29690 C 2929.17 2.01155 2.99281 0
M  V30 29691 O 2928.28 1.35497 3.89505 0
M  V30 29692 H 2927.62 0.432201 0.504082 0
M  V30 29693 H 2930.15 1.7421 1.07294 0
M  V30 29694 H 2930.16 2.11087 3.49151 0
M  V30 29695 H 2928.83 3.05153 2.82586 0
M  V30 29696 H 2927.41 1.34073 3.47964 0
M  V30 29697 N 2929.59 -1.07653 1.15103 0
M  V30 29698 C 2930.56 -2.12949 0.847662 0
M  V30 29699 C 2931.56 -1.60088 -0.151199 0
M  V30 29700 O 2932.75 -1.74025 0.0780705 0
M  V30 29701 C 2929.88 -3.39868 0.26506 0
M  V30 29702 H 2931.07 -2.41293 1.78095 0
M  V30 29703 H 2928.63 -1.23492 0.958094 0
M  V30 29704 H 2929.36 -3.17164 -0.67657 0
M  V30 29705 H 2929.15 -3.79536 0.98462 0
M  V30 29706 H 2930.64 -4.17541 0.0702855 0
M  V30 29707 N 2931.07 -0.947348 -1.25949 0
M  V30 29708 C 2932.04 -0.466324 -2.24406 0
M  V30 29709 C 2933.04 0.425978 -1.55055 0
M  V30 29710 O 2934.23 0.224289 -1.7275 0
M  V30 29711 C 2931.36 0.327142 -3.39327 0
M  V30 29712 H 2932.55 -1.33647 -2.68474 0
M  V30 29713 H 2930.1 -0.729911 -1.3821 0
M  V30 29714 H 2930.84 1.21527 -3.00669 0
M  V30 29715 H 2930.62 -0.312907 -3.90849 0
M  V30 29716 H 2932.11 0.653404 -4.12457 0
M  V30 29717 N 2932.55 1.40444 -0.715075 0
M  V30 29718 C 2933.97 1.54797 -0.388582 0
M  V30 29719 C 2934.17 1.68651 1.10268 0
M  V30 29720 O 2933.22 1.67582 1.88872 0
M  V30 29721 C 2934.54 2.77667 -1.15419 0
M  V30 29722 C 2936.08 2.91484 -1.14044 0
M  V30 29723 C 2936.56 4.17266 -1.8882 0
M  V30 29724 N 2938.05 4.24265 -1.85886 0
M  V30 29725 C 2938.78 5.20495 -2.40567 0
M  V30 29726 N 2938.28 6.22636 -3.03802 0
M  V30 29727 N 2940.07 5.1257 -2.30712 0
M  V30 29728 H 2932.22 1.29697 -1.68203 0
M  V30 29729 H 2934.49 0.627127 -0.710926 0
M  V30 29730 H 2934.19 2.73706 -2.20858 0
M  V30 29731 H 2934.07 3.6976 -0.745477 0
M  V30 29732 H 2936.45 2.94949 -0.0942515 0
M  V30 29733 H 2936.54 2.0051 -1.58837 0
M  V30 29734 H 2936.18 4.14562 -2.93429 0
M  V30 29735 H 2936.11 5.07248 -1.41447 0
M  V30 29736 H 2938.6 3.5109 -1.398 0
M  V30 29737 H 2938.91 6.92488 -3.43044 0
M  V30 29738 H 2937.26 6.23082 -3.07886 0
M  V30 29739 H 2940.45 4.31704 -1.80968 0
M  V30 29740 H 2940.62 5.87394 -2.73629 0
M  V30 29741 N 2934.03 0.461222 1.507 0
M  V30 29742 C 2934.96 -0.328144 2.31183 0
M  V30 29743 C 2935.94 -0.999384 1.37646 0
M  V30 29744 O 2937.12 -0.998451 1.66567 0
M  V30 29745 C 2934.25 -1.41615 3.17116 0
M  V30 29746 C 2933.21 -0.867074 4.19125 0
M  V30 29747 C 2932.53 -2.05263 4.93732 0
M  V30 29748 C 2933.83 0.1149 5.22174 0
M  V30 29749 H 2935.53 0.343553 2.97422 0
M  V30 29750 H 2933.07 0.166666 1.43032 0
M  V30 29751 H 2935.03 -1.97578 3.72211 0
M  V30 29752 H 2933.75 -2.11648 2.48742 0
M  V30 29753 H 2932.41 -0.329493 3.65116 0
M  V30 29754 H 2932.06 -2.73971 4.2184 0
M  V30 29755 H 2931.76 -1.69151 5.62727 0
M  V30 29756 H 2933.28 -2.61734 5.51659 0
M  V30 29757 H 2934.7 -0.355215 5.72198 0
M  V30 29758 H 2933.09 0.389794 5.98833 0
M  V30 29759 H 2934.16 1.044 4.73528 0
M  V30 29760 N 2935.51 -1.56408 0.193449 0
M  V30 29761 C 2936.75 -1.97826 -0.446414 0
M  V30 29762 C 2937.09 -1.08022 -1.61385 0
M  V30 29763 O 2936.36 -0.131873 -1.94052 0
M  V30 29764 C 2936.64 -3.48461 -0.908137 0
M  V30 29765 C 2936.5 -4.49042 0.260993 0
M  V30 29766 C 2937.82 -4.02753 -1.77421 0
M  V30 29767 H 2934.93 -0.719246 -0.160794 0
M  V30 29768 H 2937.58 -1.87865 0.284039 0
M  V30 29769 H 2935.73 -3.5708 -1.53056 0
M  V30 29770 H 2937.4 -4.52463 0.898628 0
M  V30 29771 H 2935.64 -4.24083 0.913024 0
M  V30 29772 H 2936.31 -5.51901 -0.10456 0
M  V30 29773 H 2938.79 -3.96903 -1.24929 0
M  V30 29774 H 2937.66 -5.08525 -2.06624 0
M  V30 29775 H 2937.93 -3.47911 -2.72782 0
M  V30 29776 N 2936.98 0.0801629 -1.57396 0
M  V30 29777 C 2937.91 1.09662 -2.06147 0
M  V30 29778 C 2938.9 1.40877 -0.953298 0
M  V30 29779 O 2940.08 1.50649 -1.2255 0
M  V30 29780 C 2937.21 2.4124 -2.49841 0
M  V30 29781 C 2936.16 2.24398 -3.64458 0
M  V30 29782 C 2935.49 3.61286 -3.94178 0
M  V30 29783 C 2936.79 1.67214 -4.9481 0
M  V30 29784 H 2938.48 0.690977 -2.91317 0
M  V30 29785 H 2936.03 0.330932 -1.40146 0
M  V30 29786 H 2937.98 3.12633 -2.82557 0
M  V30 29787 H 2936.71 2.83768 -1.61688 0
M  V30 29788 H 2935.37 1.55448 -3.32011 0
M  V30 29789 H 2935.01 4.01369 -3.0317 0
M  V30 29790 H 2934.71 3.50859 -4.71351 0
M  V30 29791 H 2936.24 4.34123 -4.29383 0
M  V30 29792 H 2937.65 2.28463 -5.25811 0
M  V30 29793 H 2936.05 1.67505 -5.76248 0
M  V30 29794 H 2937.12 0.632859 -4.80752 0
M  V30 29795 N 2938.46 1.53634 0.351355 0
M  V30 29796 C 2939.71 1.70167 1.09031 0
M  V30 29797 C 2940.03 0.463456 1.89412 0
M  V30 29798 O 2939.3 -0.522591 1.88801 0
M  V30 29799 H 2937.88 0.627351 0.405511 0
M  V30 29800 H 2940.54 1.90865 0.39452 0
M  V30 29801 H 2939.64 2.5691 1.7721 0
M  V30 29802 N 2939.94 -0.611943 1.45234 0
M  V30 29803 C 2940.87 -1.73664 1.49578 0
M  V30 29804 C 2941.89 -1.58133 0.387015 0
M  V30 29805 O 2943.07 -1.66094 0.653833 0
M  V30 29806 C 2940.17 -3.11614 1.33228 0
M  V30 29807 C 2939.35 -3.53426 2.577 0
M  V30 29808 C 2938.41 -4.70324 2.35971 0
M  V30 29809 O 2937.43 -4.77661 3.09561 0
M  V30 29810 N 2938.63 -5.63302 1.40253 0
M  V30 29811 H 2941.4 -1.70402 2.46542 0
M  V30 29812 H 2938.96 -0.797096 1.40918 0
M  V30 29813 H 2940.95 -3.87566 1.16509 0
M  V30 29814 H 2939.52 -3.09408 0.445565 0
M  V30 29815 H 2938.74 -2.67481 2.89565 0
M  V30 29816 H 2940.03 -3.78118 3.40448 0
M  V30 29817 H 2939.43 -5.60084 0.795121 0
M  V30 29818 H 2937.99 -6.38805 1.29507 0
M  V30 29819 N 2941.42 -1.32452 -0.854063 0
M  V30 29820 C 2942.35 -1.24048 -1.97824 0
M  V30 29821 C 2943.33 -0.124196 -1.69646 0
M  V30 29822 O 2944.51 -0.311464 -1.91686 0
M  V30 29823 C 2941.64 -0.963383 -3.33671 0
M  V30 29824 C 2940.6 -2.04096 -3.76203 0
M  V30 29825 C 2939.92 -1.61627 -5.09687 0
M  V30 29826 C 2941.22 -3.45604 -3.91606 0
M  V30 29827 H 2942.92 -2.18102 -2.05114 0
M  V30 29828 H 2940.46 -1.04998 -0.98547 0
M  V30 29829 H 2942.42 -0.891134 -4.1187 0
M  V30 29830 H 2941.14 0.0128074 -3.26597 0
M  V30 29831 H 2939.8 -2.10337 -3.00256 0
M  V30 29832 H 2939.45 -0.627506 -4.9907 0
M  V30 29833 H 2939.15 -2.33726 -5.39116 0
M  V30 29834 H 2940.67 -1.55839 -5.90378 0
M  V30 29835 H 2942.09 -3.41948 -4.60157 0
M  V30 29836 H 2940.48 -4.16058 -4.32453 0
M  V30 29837 H 2941.55 -3.85222 -2.94503 0
M  V30 29838 N 2942.9 1.07041 -1.15672 0
M  V30 29839 C 2944.15 1.79342 -0.931705 0
M  V30 29840 C 2944.47 1.87305 0.542388 0
M  V30 29841 O 2943.74 1.37624 1.39415 0
M  V30 29842 H 2942.32 0.664256 -0.341721 0
M  V30 29843 H 2944.98 1.29342 -1.45797 0
M  V30 29844 H 2944.07 2.81687 -1.34384 0
M  V30 29845 N 2944.38 0.954014 1.25445 0
M  V30 29846 C 2945.31 0.491757 2.28263 0
M  V30 29847 C 2946.29 -0.461588 1.63717 0
M  V30 29848 O 2947.47 -0.360676 1.90821 0
M  V30 29849 C 2944.6 -0.231854 3.46525 0
M  V30 29850 C 2943.56 0.636172 4.23246 0
M  V30 29851 C 2942.88 -0.218144 5.34255 0
M  V30 29852 C 2944.18 1.91397 4.85968 0
M  V30 29853 H 2945.88 1.35111 2.6718 0
M  V30 29854 H 2943.42 0.651118 1.28439 0
M  V30 29855 H 2945.37 -0.566365 4.17577 0
M  V30 29856 H 2944.1 -1.12545 3.06596 0
M  V30 29857 H 2942.76 0.953758 3.53976 0
M  V30 29858 H 2942.41 -1.11148 4.90566 0
M  V30 29859 H 2942.11 0.359335 5.865 0
M  V30 29860 H 2943.63 -0.547636 6.08139 0
M  V30 29861 H 2945.04 1.64591 5.49166 0
M  V30 29862 H 2943.44 2.43706 5.48386 0
M  V30 29863 H 2944.51 2.61746 4.08188 0
M  V30 29864 N 2945.85 -1.40063 0.722513 0
M  V30 29865 C 2947.13 -1.94657 0.191863 0
M  V30 29866 C 2947.51 -1.6602 -1.30386 0
M  V30 29867 O 2946.86 -0.981624 -2.0634 0
M  V30 29868 C 2947.07 -3.45223 0.512039 0
M  V30 29869 C 2948.42 -4.2216 0.454501 0
M  V30 29870 O 2949.44 -3.53365 0.4485 0
M  V30 29871 O 2948.3 -5.44741 0.438082 0
M  V30 29872 H 2945.39 -0.826426 0.0307966 0
M  V30 29873 H 2947.94 -1.49632 0.800519 0
M  V30 29874 H 2946.71 -3.59452 1.54628 0
M  V30 29875 H 2946.33 -3.974 -0.126227 0
M  V30 29876 N 2947.33 -0.469207 -1.50453 0
M  V30 29877 C 2948.61 0.14792 -1.9504 0
M  V30 29878 C 2948.99 1.57151 -1.40949 0
M  V30 29879 O 2948.34 2.20216 -0.609702 0
M  V30 29880 C 2948.55 0.0931585 -3.48876 0
M  V30 29881 C 2949.89 0.282982 -4.23656 0
M  V30 29882 O 2950.92 0.169829 -3.55795 0
M  V30 29883 O 2949.78 0.511301 -5.44103 0
M  V30 29884 H 2946.87 0.112696 -0.819285 0
M  V30 29885 H 2949.42 -0.529474 -1.61229 0
M  V30 29886 H 2948.19 -0.900851 -3.80789 0
M  V30 29887 H 2947.81 0.812093 -3.89218 0
M  V30 29888 N 2948.81 1.56303 -0.201741 0
M  V30 29889 C 2950.22 1.84114 0.309679 0
M  V30 29890 C 2950.57 1.12261 1.6091 0
M  V30 29891 O 2949.7 0.385624 2.12936 0
M  V30 29892 C 2950.29 3.33994 0.568647 0
M  V30 29893 C 2948.85 3.62191 1.02442 0
M  V30 29894 C 2948 2.77194 0.0766355 0
M  V30 29895 H 2950.95 1.52893 -0.425383 0
M  V30 29896 H 2950.97 3.53125 1.41714 0
M  V30 29897 H 2950.48 3.86262 -0.377258 0
M  V30 29898 H 2948.58 3.15362 1.98437 0
M  V30 29899 H 2948.7 4.70329 0.912537 0
M  V30 29900 H 2947.06 2.48014 0.579766 0
M  V30 29901 H 2947.84 3.32254 -0.863833 0
M  V30 29902 N 2950.29 -0.0718147 1.57436 0
M  V30 29903 C 2951.53 -0.772116 1.87527 0
M  V30 29904 C 2951.87 -1.77226 0.794021 0
M  V30 29905 O 2951.14 -1.93513 -0.195699 0
M  V30 29906 C 2951.42 -1.48012 3.28275 0
M  V30 29907 C 2951.28 -0.496391 4.47053 0
M  V30 29908 C 2952.6 -2.42503 3.67261 0
M  V30 29909 H 2949.72 -0.279233 0.682054 0
M  V30 29910 H 2952.36 -0.0353066 1.89967 0
M  V30 29911 H 2950.51 -2.10818 3.26325 0
M  V30 29912 H 2952.18 0.126456 4.61127 0
M  V30 29913 H 2950.42 0.188282 4.33391 0
M  V30 29914 H 2951.09 -1.0294 5.42317 0
M  V30 29915 H 2953.57 -1.89774 3.70304 0
M  V30 29916 H 2952.45 -2.89045 4.66631 0
M  V30 29917 H 2952.71 -3.27307 2.97192 0
M  V30 29918 N 2951.77 -1.53818 -0.343203 0
M  V30 29919 C 2952.71 -1.82529 -1.44173 0
M  V30 29920 C 2953.71 -0.695799 -1.54451 0
M  V30 29921 O 2954.91 -0.879142 -1.5707 0
M  V30 29922 H 2951.29 -0.578285 -0.480719 0
M  V30 29923 H 2953.26 -2.74433 -1.17171 0
M  V30 29924 C 2952.01 -2.05202 -2.80691 0
M  V30 29925 H 2951.33 -2.91566 -2.73549 0
M  V30 29926 H 2952.77 -2.29257 -3.56675 0
M  V30 29927 C 2951.23 -0.837646 -3.26321 0
M  V30 29928 O 2951.76 -0.0372337 -4.01683 0
M  V30 29929 N 2949.97 -0.654773 -2.83127 0
M  V30 29930 H 2949.51 -1.30729 -2.21963 0
M  V30 29931 H 2949.47 0.156289 -3.14011 0
M  V30 29932 N 2953.24 0.604233 -1.45557 0
M  V30 29933 C 2954.21 1.6967 -1.54094 0
M  V30 29934 C 2955.21 1.55215 -0.420103 0
M  V30 29935 O 2956.4 1.60222 -0.683699 0
M  V30 29936 C 2953.53 3.08961 -1.44068 0
M  V30 29937 H 2954.72 1.63466 -2.51434 0
M  V30 29938 H 2952.27 0.82025 -1.33047 0
M  V30 29939 H 2953.01 3.20739 -0.479258 0
M  V30 29940 H 2952.79 3.20861 -2.25368 0
M  V30 29941 H 2954.28 3.8853 -1.53082 0
M  V30 29942 N 2954.72 1.32903 0.847027 0
M  V30 29943 C 2955.65 1.25095 1.97164 0
M  V30 29944 C 2956.63 0.133191 1.69578 0
M  V30 29945 O 2957.82 0.321625 1.91518 0
M  V30 29946 C 2954.95 0.981064 3.33155 0
M  V30 29947 C 2953.9 2.06088 3.75116 0
M  V30 29948 C 2953.23 1.64327 5.08823 0
M  V30 29949 C 2954.53 3.47676 3.89768 0
M  V30 29950 H 2956.22 2.19187 2.03954 0
M  V30 29951 H 2953.77 1.05519 0.979888 0
M  V30 29952 H 2955.72 0.912964 4.11391 0
M  V30 29953 H 2954.44 0.00451299 3.266 0
M  V30 29954 H 2953.1 2.11927 2.99137 0
M  V30 29955 H 2952.75 0.653964 4.98731 0
M  V30 29956 H 2952.45 2.36582 5.37869 0
M  V30 29957 H 2953.98 1.58968 5.89543 0
M  V30 29958 H 2955.39 3.44384 4.58337 0
M  V30 29959 H 2953.79 4.18346 4.30241 0
M  V30 29960 H 2954.86 3.86778 2.92456 0
M  V30 29961 N 2956.2 -1.06426 1.16238 0
M  V30 29962 C 2957.61 -1.60666 0.950971 0
M  V30 29963 C 2957.96 -1.89577 -0.505457 0
M  V30 29964 O 2957.09 -1.6682 -1.3784 0
M  V30 29965 C 2957.68 -2.91901 1.71987 0
M  V30 29966 C 2956.24 -3.42847 1.55348 0
M  V30 29967 C 2955.39 -2.1676 1.72946 0
M  V30 29968 H 2958.34 -0.893936 1.31128 0
M  V30 29969 H 2958.36 -3.61251 1.1949 0
M  V30 29970 H 2957.87 -2.70826 2.77983 0
M  V30 29971 H 2955.97 -3.68984 0.517865 0
M  V30 29972 H 2956.09 -4.18263 2.33651 0
M  V30 29973 H 2954.45 -2.26916 1.15677 0
M  V30 29974 H 2955.23 -1.9817 2.80327 0
M  V30 29975 N 2957.68 -0.960653 -1.24937 0
M  V30 29976 C 2958.64 -0.490099 -2.23899 0
M  V30 29977 C 2959.64 0.409508 -1.55498 0
M  V30 29978 O 2960.83 0.205954 -1.72978 0
M  V30 29979 C 2957.96 0.291133 -3.39655 0
M  V30 29980 H 2959.16 -1.36487 -2.67042 0
M  V30 29981 H 2956.71 -0.744529 -1.37428 0
M  V30 29982 H 2957.44 1.18331 -3.01941 0
M  V30 29983 H 2957.23 -0.354345 -3.90496 0
M  V30 29984 H 2958.72 0.609621 -4.13126 0
M  V30 29985 N 2959.16 1.39677 -0.729931 0
M  V30 29986 C 2960.12 2.29002 -0.095207 0
M  V30 29987 C 2961.12 1.46064 0.672446 0
M  V30 29988 O 2962.31 1.66804 0.502216 0
M  V30 29989 C 2959.44 3.29491 0.874573 0
M  V30 29990 H 2960.63 2.86634 -0.882112 0
M  V30 29991 H 2958.19 1.4824 -0.49545 0
M  V30 29992 H 2958.92 2.76905 1.68802 0
M  V30 29993 H 2958.71 3.90736 0.326825 0
M  V30 29994 H 2960.2 3.96342 1.31541 0
M  V30 29995 N 2960.63 0.47718 1.50202 0
M  V30 29996 C 2962.05 0.0235369 1.86685 0
M  V30 29997 C 2962.4 -1.38317 1.39151 0
M  V30 29998 O 2961.52 -2.0265 0.759087 0
M  V30 29999 C 2962.12 0.0359362 3.38781 0
M  V30 30000 C 2960.68 -0.362261 3.74653 0
M  V30 30001 C 2959.82 0.418798 2.74119 0
M  V30 30002 H 2962.77 0.691158 1.42859 0
M  V30 30003 H 2962.79 -0.764858 3.72733 0
M  V30 30004 H 2962.31 1.05988 3.73347 0
M  V30 30005 H 2960.41 -1.39033 3.45689 0
M  V30 30006 H 2960.52 -0.0593728 4.79063 0
M  V30 30007 H 2958.88 -0.128296 2.54377 0
M  V30 30008 H 2959.67 1.44236 3.1153 0
M  V30 30009 N 2962.11 -1.56194 0.210027 0
M  V30 30010 C 2963.39 -1.8979 -0.473181 0
M  V30 30011 C 2963.77 -1.12573 -1.78579 0
M  V30 30012 O 2963.12 -0.231438 -2.27325 0
M  V30 30013 C 2963.33 -3.42363 -0.677397 0
M  V30 30014 C 2964.68 -4.12896 -0.990041 0
M  V30 30015 O 2965.7 -3.47897 -0.764594 0
M  V30 30016 O 2964.56 -5.27802 -1.41728 0
M  V30 30017 H 2961.65 -0.788748 -0.248608 0
M  V30 30018 H 2964.2 -1.67828 0.251354 0
M  V30 30019 H 2962.97 -3.90507 0.248947 0
M  V30 30020 H 2962.59 -3.70066 -1.45384 0
M  V30 30021 N 2963.59 0.0634645 -1.57472 0
M  V30 30022 C 2964.82 0.777526 -1.92274 0
M  V30 30023 C 2965.24 1.69901 -0.807171 0
M  V30 30024 O 2964.6 1.79711 0.239491 0
M  V30 30025 C 2964.65 1.54011 -3.26057 0
M  V30 30026 O 2963.75 2.65133 -3.15877 0
M  V30 30027 H 2963.09 0.211568 -0.629393 0
M  V30 30028 H 2965.62 0.0292164 -2.04579 0
M  V30 30029 H 2965.63 1.91756 -3.6013 0
M  V30 30030 H 2964.31 0.864057 -4.06825 0
M  V30 30031 H 2962.88 2.30184 -2.93377 0
M  V30 30032 N 2965.07 1.53998 0.33504 0
M  V30 30033 C 2965.98 1.85587 1.43508 0
M  V30 30034 C 2966.99 0.746754 1.57161 0
M  V30 30035 O 2968.17 1.03991 1.72476 0
M  V30 30036 C 2965.24 2.0665 2.78382 0
M  V30 30037 C 2964.3 3.30487 2.74001 0
M  V30 30038 C 2963.53 3.50536 4.02443 0
M  V30 30039 O 2963.75 2.74251 5.00142 0
M  V30 30040 O 2962.69 4.43987 4.06398 0
M  V30 30041 H 2966.51 2.79105 1.19726 0
M  V30 30042 H 2964.1 1.39758 0.528009 0
M  V30 30043 H 2965.98 2.21901 3.58243 0
M  V30 30044 H 2964.65 1.16322 3.02078 0
M  V30 30045 H 2963.56 3.20633 1.92731 0
M  V30 30046 H 2964.89 4.20837 2.5526 0
M  V30 30047 N 2966.55 -0.596505 1.45875 0
M  V30 30048 C 2967.48 -1.71702 1.58243 0
M  V30 30049 C 2968.46 -1.64486 0.433395 0
M  V30 30050 O 2969.64 -1.82716 0.657927 0
M  V30 30051 C 2966.77 -3.10326 1.55932 0
M  V30 30052 C 2965.73 -3.32362 2.69665 0
M  V30 30053 C 2965.05 -4.71373 2.52412 0
M  V30 30054 C 2966.35 -3.21536 4.11597 0
M  V30 30055 H 2968.05 -1.61608 2.52038 0
M  V30 30056 H 2965.59 -0.776061 1.21298 0
M  V30 30057 H 2967.55 -3.88523 1.6318 0
M  V30 30058 H 2966.27 -3.21287 0.586731 0
M  V30 30059 H 2964.93 -2.5656 2.61864 0
M  V30 30060 H 2964.58 -4.79081 1.53267 0
M  V30 30061 H 2964.28 -4.87071 3.28687 0
M  V30 30062 H 2965.8 -5.51756 2.6153 0
M  V30 30063 H 2967.21 -3.89594 4.20582 0
M  V30 30064 H 2965.61 -3.48761 4.8835 0
M  V30 30065 H 2966.68 -2.18812 4.32723 0
M  V30 30066 N 2968.02 -1.3335 -0.839967 0
M  V30 30067 C 2969.27 -1.24093 -1.59009 0
M  V30 30068 C 2969.59 0.191994 -1.94655 0
M  V30 30069 O 2970.79 0.40657 -2.68439 0
M  V30 30070 C 2969.25 -2.1743 -2.86797 0
M  V30 30071 C 2968.86 -3.65886 -2.58518 0
M  V30 30072 C 2970.6 -2.17043 -3.64819 0
M  V30 30073 C 2968.51 -4.5114 -3.82396 0
M  V30 30074 H 2967.44 -0.46091 -0.596723 0
M  V30 30075 H 2970.09 -1.58407 -0.926246 0
M  V30 30076 H 2968.47 -1.76047 -3.54716 0
M  V30 30077 H 2969.64 -4.15702 -1.98817 0
M  V30 30078 H 2967.96 -3.68551 -1.93802 0
M  V30 30079 H 2970.56 -2.77968 -4.56769 0
M  V30 30080 H 2970.9 -1.1652 -3.99661 0
M  V30 30081 H 2971.43 -2.56782 -3.03822 0
M  V30 30082 H 2968.17 -5.52533 -3.52686 0
M  V30 30083 H 2967.69 -4.06067 -4.4144 0
M  V30 30084 H 2969.37 -4.64888 -4.49987 0
M  V30 30085 N 2969.5 1.05808 -1.16801 0
M  V30 30086 C 2970.78 1.7555 -0.862647 0
M  V30 30087 C 2971.16 2.01213 0.638465 0
M  V30 30088 O 2970.51 1.64319 1.58781 0
M  V30 30089 C 2970.72 3.05311 -1.69075 0
M  V30 30090 C 2972.07 3.79375 -1.90682 0
M  V30 30091 O 2973.09 3.15164 -1.65982 0
M  V30 30092 O 2971.95 4.94739 -2.32153 0
M  V30 30093 H 2969.04 0.763082 -0.318802 0
M  V30 30094 H 2971.59 1.12032 -1.27463 0
M  V30 30095 H 2970.36 2.82347 -2.70917 0
M  V30 30096 H 2969.98 3.76564 -1.27613 0
M  V30 30097 N 2970.98 0.967265 1.24426 0
M  V30 30098 C 2971.91 0.515939 2.27729 0
M  V30 30099 C 2972.89 -0.444198 1.64198 0
M  V30 30100 O 2974.08 -0.340417 1.91193 0
M  V30 30101 C 2971.21 -0.195088 3.46752 0
M  V30 30102 C 2970.16 0.681027 4.22547 0
M  V30 30103 C 2969.49 -0.161467 5.34456 0
M  V30 30104 C 2970.79 1.96541 4.8391 0
M  V30 30105 H 2972.48 1.37937 2.65732 0
M  V30 30106 H 2970.03 0.664704 1.27741 0
M  V30 30107 H 2971.98 -0.522044 4.18154 0
M  V30 30108 H 2970.7 -1.09287 3.07773 0
M  V30 30109 H 2969.36 0.991248 3.52945 0
M  V30 30110 H 2969.01 -1.05938 4.91717 0
M  V30 30111 H 2968.71 0.421521 5.86086 0
M  V30 30112 H 2970.23 -0.483104 6.08686 0
M  V30 30113 H 2971.65 1.70406 5.47389 0
M  V30 30114 H 2970.05 2.49508 5.45771 0
M  V30 30115 H 2971.12 2.6606 4.05389 0
M  V30 30116 N 2972.46 -1.39288 0.737328 0
M  V30 30117 C 2973.71 -2.00763 0.286716 0
M  V30 30118 C 2974.04 -1.58377 -1.12385 0
M  V30 30119 O 2973.31 -0.81373 -1.7666 0
M  V30 30120 C 2973.6 -3.57969 0.39121 0
M  V30 30121 C 2973.45 -4.10367 1.84172 0
M  V30 30122 C 2974.77 -4.39524 -0.224995 0
M  V30 30123 H 2971.89 -0.729387 0.105655 0
M  V30 30124 H 2974.53 -1.65463 0.933921 0
M  V30 30125 H 2972.68 -3.88171 -0.159807 0
M  V30 30126 H 2974.35 -3.90875 2.44979 0
M  V30 30127 H 2972.59 -3.6384 2.36226 0
M  V30 30128 H 2973.27 -5.19501 1.86609 0
M  V30 30129 H 2975.74 -4.1538 0.24475 0
M  V30 30130 H 2974.62 -5.48765 -0.121549 0
M  V30 30131 H 2974.88 -4.22204 -1.31133 0
M  V30 30132 N 2973.94 -0.485139 -1.49947 0
M  V30 30133 C 2975.17 0.062246 -2.06806 0
M  V30 30134 C 2975.58 1.32253 -1.34739 0
M  V30 30135 O 2974.94 1.77581 -0.420867 0
M  V30 30136 C 2974.99 0.336033 -3.59935 0
M  V30 30137 O 2974.71 -0.874279 -4.29288 0
M  V30 30138 C 2976.21 0.928826 -4.3346 0
M  V30 30139 H 2973.43 -0.013359 -0.670867 0
M  V30 30140 H 2975.97 -0.677951 -1.92935 0
M  V30 30141 H 2974.13 1.02618 -3.73562 0
M  V30 30142 H 2974.54 -0.627424 -5.20734 0
M  V30 30143 H 2976.02 1.07008 -5.41529 0
M  V30 30144 H 2976.49 1.92258 -3.94884 0
M  V30 30145 H 2977.1 0.276631 -4.24399 0
M  V30 30146 N 2975.42 1.56081 -0.218307 0
M  V30 30147 C 2976.38 2.18893 0.679594 0
M  V30 30148 C 2977.38 1.14988 1.12403 0
M  V30 30149 O 2978.57 1.4024 1.03336 0
M  V30 30150 C 2975.7 2.80965 1.93058 0
M  V30 30151 H 2976.89 2.99609 0.132013 0
M  V30 30152 H 2974.45 1.56269 0.0313099 0
M  V30 30153 H 2975.18 2.0411 2.52011 0
M  V30 30154 H 2974.97 3.57051 1.6204 0
M  V30 30155 H 2976.46 3.29123 2.57037 0
M  V30 30156 N 2976.89 -0.0551124 1.57504 0
M  V30 30157 C 2977.8 -1.0812 2.082 0
M  V30 30158 C 2978.82 -1.41329 1.01499 0
M  V30 30159 O 2980 -1.51172 1.33075 0
M  V30 30160 C 2977.06 -2.37078 2.52972 0
M  V30 30161 C 2976.12 -2.10689 3.74044 0
M  V30 30162 C 2975.35 -3.33498 4.16671 0
M  V30 30163 O 2975.58 -4.43233 3.59027 0
M  V30 30164 O 2974.51 -3.20729 5.0933 0
M  V30 30165 H 2978.34 -0.680466 2.95979 0
M  V30 30166 H 2975.92 -0.270376 1.46933 0
M  V30 30167 H 2977.8 -3.12941 2.82216 0
M  V30 30168 H 2976.48 -2.76499 1.68315 0
M  V30 30169 H 2975.39 -1.32478 3.49858 0
M  V30 30170 H 2976.72 -1.7614 4.59604 0
M  V30 30171 N 2978.37 -1.54173 -0.326869 0
M  V30 30172 C 2979.3 -1.8632 -1.40738 0
M  V30 30173 C 2980.28 -0.719711 -1.54124 0
M  V30 30174 O 2981.47 -0.973147 -1.68058 0
M  V30 30175 C 2978.6 -2.08762 -2.77553 0
M  V30 30176 C 2977.55 -3.24601 -2.78959 0
M  V30 30177 C 2976.88 -3.32408 -4.18819 0
M  V30 30178 C 2978.18 -4.62328 -2.43002 0
M  V30 30179 H 2979.87 -2.76813 -1.14083 0
M  V30 30180 H 2977.42 -1.33191 -0.547366 0
M  V30 30181 H 2979.37 -2.29835 -3.53205 0
M  V30 30182 H 2978.09 -1.15015 -3.05678 0
M  V30 30183 H 2976.75 -3.0341 -2.05762 0
M  V30 30184 H 2976.4 -2.36226 -4.44079 0
M  V30 30185 H 2976.1 -4.1026 -4.20666 0
M  V30 30186 H 2977.63 -3.55712 -4.96288 0
M  V30 30187 H 2979.04 -4.83304 -3.08367 0
M  V30 30188 H 2977.44 -5.42706 -2.56106 0
M  V30 30189 H 2978.51 -4.64802 -1.38157 0
M  V30 30190 N 2979.85 0.58876 -1.4619 0
M  V30 30191 C 2981.1 1.34452 -1.50887 0
M  V30 30192 C 2981.42 1.94346 -0.159589 0
M  V30 30193 O 2980.69 1.78224 0.813208 0
M  V30 30194 H 2979.27 0.499189 -0.555716 0
M  V30 30195 H 2981.93 0.689982 -1.82278 0
M  V30 30196 H 2981.03 2.15434 -2.2582 0
M  V30 30197 N 2981.33 1.33794 0.832883 0
M  V30 30198 C 2982.29 1.24452 1.92469 0
M  V30 30199 C 2983.29 0.162113 1.59981 0
M  V30 30200 O 2984.48 0.414058 1.69208 0
M  V30 30201 C 2981.61 0.919102 3.28276 0
M  V30 30202 H 2982.81 2.21506 2.02176 0
M  V30 30203 H 2980.36 1.17938 1.02568 0
M  V30 30204 H 2981.09 -0.048681 3.24263 0
M  V30 30205 H 2980.88 1.70193 3.53238 0
M  V30 30206 H 2982.37 0.878648 4.08252 0
M  V30 30207 N 2982.81 -1.05187 1.1736 0
M  V30 30208 C 2984.08 -1.7509 0.871944 0
M  V30 30209 C 2984.46 -2.01549 -0.627785 0
M  V30 30210 O 2983.81 -1.65159 -1.57907 0
M  V30 30211 C 2984.02 -3.0441 1.70692 0
M  V30 30212 C 2985.37 -3.78359 1.92691 0
M  V30 30213 O 2986.39 -3.14279 1.67651 0
M  V30 30214 O 2985.25 -4.93501 2.34774 0
M  V30 30215 H 2982.35 -0.761381 0.322845 0
M  V30 30216 H 2984.89 -1.11355 1.28056 0
M  V30 30217 H 2983.66 -2.80906 2.7241 0
M  V30 30218 H 2983.29 -3.75882 1.29608 0
M  V30 30219 N 2984.28 -0.97385 -1.23911 0
M  V30 30220 C 2985.53 -0.649669 -1.92746 0
M  V30 30221 C 2985.88 0.807126 -1.74652 0
M  V30 30222 O 2985.18 1.57384 -1.09274 0
M  V30 30223 C 2985.37 -0.967416 -3.44058 0
M  V30 30224 C 2985.2 -2.45355 -3.7687 0
M  V30 30225 C 2983.97 -3.11442 -3.97909 0
M  V30 30226 C 2986.17 -3.43393 -3.82865 0
M  V30 30227 N 2984.15 -4.49729 -4.17872 0
M  V30 30228 C 2985.52 -4.67061 -4.07743 0
M  V30 30229 C 2987.58 -3.37965 -3.65628 0
M  V30 30230 C 2986.28 -5.85968 -4.17174 0
M  V30 30231 C 2988.31 -4.5623 -3.76309 0
M  V30 30232 C 2987.67 -5.7869 -4.01618 0
M  V30 30233 H 2983.77 -0.28868 -0.726765 0
M  V30 30234 H 2986.35 -1.24997 -1.49278 0
M  V30 30235 H 2984.52 -0.395872 -3.86377 0
M  V30 30236 H 2986.25 -0.601178 -4.0021 0
M  V30 30237 H 2983.01 -2.61956 -3.94558 0
M  V30 30238 H 2983.43 -5.21402 -4.3182 0
M  V30 30239 H 2988.07 -2.44318 -3.45063 0
M  V30 30240 H 2985.79 -6.80037 -4.3655 0
M  V30 30241 H 2989.38 -4.53598 -3.64335 0
M  V30 30242 H 2988.26 -6.68675 -4.09688 0
M  V30 30243 N 2985.76 1.38895 -0.744705 0
M  V30 30244 C 2987.17 1.83083 -0.365713 0
M  V30 30245 C 2987.52 1.62169 1.10433 0
M  V30 30246 O 2986.65 1.11807 1.85279 0
M  V30 30247 C 2987.24 3.32369 -0.657004 0
M  V30 30248 C 2985.8 3.74938 -0.331395 0
M  V30 30249 C 2984.95 2.61779 -0.914707 0
M  V30 30250 H 2987.9 1.2775 -0.941574 0
M  V30 30251 H 2987.92 3.80439 0.0678878 0
M  V30 30252 H 2987.43 3.47558 -1.72699 0
M  V30 30253 H 2985.53 3.65332 0.732362 0
M  V30 30254 H 2985.65 4.72018 -0.820738 0
M  V30 30255 H 2984.01 2.52411 -0.340675 0
M  V30 30256 H 2984.79 2.79772 -1.98954 0
M  V30 30257 N 2987.24 0.493084 1.49688 0
M  V30 30258 C 2988.66 0.148554 1.58907 0
M  V30 30259 C 2988.86 -1.34642 1.49912 0
M  V30 30260 O 2987.91 -2.12169 1.36896 0
M  V30 30261 C 2989.23 0.718316 2.91994 0
M  V30 30262 C 2990.77 0.683711 3.05441 0
M  V30 30263 C 2991.25 1.2314 4.41136 0
M  V30 30264 N 2992.74 1.19175 4.47606 0
M  V30 30265 C 2993.47 1.5858 5.51035 0
M  V30 30266 N 2992.97 2.0554 6.61608 0
M  V30 30267 N 2994.76 1.50045 5.41704 0
M  V30 30268 H 2986.91 1.46514 1.53777 0
M  V30 30269 H 2989.18 0.607241 0.727985 0
M  V30 30270 H 2988.88 1.76646 3.0412 0
M  V30 30271 H 2988.76 0.174256 3.76797 0
M  V30 30272 H 2991.14 -0.355574 2.9295 0
M  V30 30273 H 2991.23 1.26483 2.22341 0
M  V30 30274 H 2990.87 2.26943 4.54378 0
M  V30 30275 H 2990.8 0.626293 5.22862 0
M  V30 30276 H 2993.29 0.847589 3.68272 0
M  V30 30277 H 2993.6 2.33698 7.36617 0
M  V30 30278 H 2991.95 2.09508 6.6267 0
M  V30 30279 H 2995.14 1.13183 4.5421 0
M  V30 30280 H 2995.31 1.81079 6.22185 0
M  V30 30281 N 2988.72 -1.55963 0.226582 0
M  V30 30282 C 2989.65 -2.23499 -0.67604 0
M  V30 30283 C 2990.63 -1.20839 -1.19716 0
M  V30 30284 O 2991.81 -1.49438 -1.24024 0
M  V30 30285 C 2988.94 -2.91879 -1.88212 0
M  V30 30286 C 2987.9 -4.01055 -1.49463 0
M  V30 30287 C 2987.22 -4.56756 -2.77989 0
M  V30 30288 C 2988.52 -5.17843 -0.68086 0
M  V30 30289 H 2990.22 -2.99187 -0.112937 0
M  V30 30290 H 2987.76 -1.43903 -0.0528793 0
M  V30 30291 H 2989.72 -3.37819 -2.51905 0
M  V30 30292 H 2988.44 -2.13647 -2.47027 0
M  V30 30293 H 2987.1 -3.55853 -0.881136 0
M  V30 30294 H 2986.75 -3.75248 -3.34959 0
M  V30 30295 H 2986.45 -5.30442 -2.52794 0
M  V30 30296 H 2987.97 -5.05417 -3.42616 0
M  V30 30297 H 2989.39 -5.60134 -1.22161 0
M  V30 30298 H 2987.78 -5.97792 -0.525793 0
M  V30 30299 H 2988.85 -4.83899 0.311431 0
M  V30 30300 N 2990.2 0.0467589 -1.57531 0
M  V30 30301 C 2991.44 0.742185 -1.88731 0
M  V30 30302 C 2991.78 1.7594 -0.822115 0
M  V30 30303 O 2991.05 1.938 0.164888 0
M  V30 30304 C 2991.33 1.42771 -3.30588 0
M  V30 30305 C 2991.19 0.425206 -4.47786 0
M  V30 30306 C 2992.51 2.36629 -3.71072 0
M  V30 30307 H 2989.62 0.268347 -0.68641 0
M  V30 30308 H 2992.27 0.00508001 -1.89999 0
M  V30 30309 H 2990.42 2.056 -3.29638 0
M  V30 30310 H 2992.09 -0.199802 -4.60867 0
M  V30 30311 H 2990.33 -0.257207 -4.33037 0
M  V30 30312 H 2991 0.942991 -5.43886 0
M  V30 30313 H 2993.48 1.83859 -3.73276 0
M  V30 30314 H 2992.35 2.81585 -4.7117 0
M  V30 30315 H 2992.62 3.22537 -3.02361 0
M  V30 30316 N 2991.67 1.54344 0.318688 0
M  V30 30317 C 2992.64 1.83344 1.37541 0
M  V30 30318 C 2993.64 0.705469 1.44498 0
M  V30 30319 O 2994.83 0.973778 1.44441 0
M  V30 30320 C 2991.96 1.99785 2.76222 0
M  V30 30321 H 2993.15 2.77764 1.1308 0
M  V30 30322 H 2990.71 1.46136 0.554431 0
M  V30 30323 H 2991.44 1.07593 3.05932 0
M  V30 30324 H 2991.23 2.8187 2.72565 0
M  V30 30325 H 2992.72 2.23653 3.5266 0
M  V30 30326 N 2993.15 -0.580999 1.465 0
M  V30 30327 C 2994.56 -1.16312 1.46042 0
M  V30 30328 C 2994.91 -1.95155 0.202188 0
M  V30 30329 O 2994.04 -2.04949 -0.694602 0
M  V30 30330 C 2994.63 -2.11599 2.64596 0
M  V30 30331 C 2993.19 -2.65132 2.67174 0
M  V30 30332 C 2992.34 -1.41036 2.38756 0
M  V30 30333 H 2995.29 -0.368844 1.54354 0
M  V30 30334 H 2995.31 -2.95091 2.40212 0
M  V30 30335 H 2994.82 -1.54188 3.56157 0
M  V30 30336 H 2992.93 -3.26408 1.79691 0
M  V30 30337 H 2993.04 -3.0775 3.67188 0
M  V30 30338 H 2991.4 -1.70905 1.88848 0
M  V30 30339 H 2992.19 -0.854529 3.32495 0
M  V30 30340 N 2994.63 -1.34234 -0.825776 0
M  V30 30341 C 2995.88 -1.26617 -1.58417 0
M  V30 30342 C 2996.21 0.164307 -1.93504 0
M  V30 30343 O 2995.48 1.10897 -1.59787 0
M  V30 30344 C 2995.77 -2.15423 -2.88557 0
M  V30 30345 C 2995.62 -3.66994 -2.60068 0
M  V30 30346 C 2996.94 -2.03733 -3.90104 0
M  V30 30347 H 2994.06 -0.461292 -0.574786 0
M  V30 30348 H 2996.7 -1.64459 -0.95149 0
M  V30 30349 H 2994.85 -1.83281 -3.4255 0
M  V30 30350 H 2996.52 -4.09489 -2.12407 0
M  V30 30351 H 2994.77 -3.88224 -1.93558 0
M  V30 30352 H 2995.44 -4.24494 -3.52858 0
M  V30 30353 H 2997.91 -2.31948 -3.45455 0
M  V30 30354 H 2996.79 -2.681 -4.78971 0
M  V30 30355 H 2997.05 -1.01345 -4.30327 0
M  V30 30356 N 2996.11 1.04563 -1.17917 0
M  V30 30357 C 2997.36 1.77677 -0.971455 0
M  V30 30358 C 2997.68 1.8798 0.499368 0
M  V30 30359 O 2996.94 1.38069 1.38692 0
M  V30 30360 C 2997.24 3.21298 -1.56533 0
M  V30 30361 C 2996.9 3.31039 -3.06144 0
M  V30 30362 C 2995.57 3.33404 -3.4698 0
M  V30 30363 C 2997.92 3.31541 -4.02156 0
M  V30 30364 C 2995.25 3.33909 -4.82412 0
M  V30 30365 C 2997.6 3.33585 -5.37497 0
M  V30 30366 C 2996.26 3.34241 -5.77788 0
M  V30 30367 H 2995.53 0.650165 -0.355481 0
M  V30 30368 H 2998.18 1.22847 -1.46905 0
M  V30 30369 H 2996.48 3.79096 -0.989617 0
M  V30 30370 H 2998.18 3.76503 -1.3801 0
M  V30 30371 H 2994.77 3.29915 -2.73595 0
M  V30 30372 H 2998.95 3.28909 -3.71662 0
M  V30 30373 H 2994.21 3.32731 -5.12933 0
M  V30 30374 H 2998.38 3.32923 -6.11666 0
M  V30 30375 H 2996.01 3.34385 -6.82708 0
M  V30 30376 N 2997.59 0.980408 1.23393 0
M  V30 30377 C 2998.86 0.5657 1.87241 0
M  V30 30378 C 2999.24 -0.957164 1.88153 0
M  V30 30379 O 2998.59 -1.83388 1.36313 0
M  V30 30380 C 2998.8 1.17178 3.28741 0
M  V30 30381 C 3000.15 1.26453 4.05333 0
M  V30 30382 O 3001.17 1.12523 3.3796 0
M  V30 30383 O 3000.03 1.48613 5.25905 0
M  V30 30384 H 2997.13 0.190473 0.804766 0
M  V30 30385 H 2999.67 1.07549 1.31268 0
M  V30 30386 H 2998.44 2.21398 3.22643 0
M  V30 30387 H 2998.07 0.646808 3.92304 0
M  V30 30388 N 2999.06 -1.38498 0.75206 0
M  V30 30389 C 3000.48 -1.82887 0.375417 0
M  V30 30390 C 3000.83 -1.62753 -1.09572 0
M  V30 30391 O 2999.95 -1.12788 -1.84683 0
M  V30 30392 C 3000.55 -3.32016 0.674621 0
M  V30 30393 C 2999.11 -3.74757 0.351274 0
M  V30 30394 C 2998.25 -2.61291 0.928577 0
M  V30 30395 H 3001.2 -1.27249 0.948335 0
M  V30 30396 H 3001.22 -3.8047 -0.0477112 0
M  V30 30397 H 3000.74 -3.46638 1.74539 0
M  V30 30398 H 2998.84 -3.65715 -0.712978 0
M  V30 30399 H 2998.95 -4.71576 0.845758 0
M  V30 30400 H 2997.31 -2.52227 0.354056 0
M  V30 30401 H 2998.1 -2.78713 2.00435 0
M  V30 30402 N 3000.54 -0.501015 -1.49424 0
M  V30 30403 C 3001.49 0.277403 -2.29127 0
M  V30 30404 C 3002.46 0.960339 -1.35524 0
M  V30 30405 O 3003.64 0.966998 -1.6448 0
M  V30 30406 C 3000.78 1.33588 -3.18195 0
M  V30 30407 C 2999.9 0.664716 -4.26855 0
M  V30 30408 C 2999.03 1.70363 -5.0314 0
M  V30 30409 C 2998.07 1.01434 -6.03637 0
M  V30 30410 N 2997.21 1.99746 -6.73087 0
M  V30 30411 H 3002.05 -0.40851 -2.95187 0
M  V30 30412 H 2999.59 -0.213301 -1.45545 0
M  V30 30413 H 3001.54 1.96155 -3.68211 0
M  V30 30414 H 3000.17 1.99055 -2.5412 0
M  V30 30415 H 2999.23 -0.0742377 -3.80328 0
M  V30 30416 H 3000.54 0.122109 -4.98651 0
M  V30 30417 H 2999.69 2.40435 -5.57024 0
M  V30 30418 H 2998.43 2.28009 -4.31118 0
M  V30 30419 H 2997.44 0.2994 -5.48984 0
M  V30 30420 H 2998.66 0.444378 -6.77645 0
M  V30 30421 H 2996.61 2.56354 -6.03836 0
M  V30 30422 H 2996.52 1.50552 -7.40858 0
M  V30 30423 H 2997.79 2.69106 -7.31575 0
M  V30 30424 N 3002.02 1.5584 -0.234849 0
M  V30 30425 C 3002.97 2.20868 0.669762 0
M  V30 30426 C 3003.94 1.16858 1.1804 0
M  V30 30427 O 3005.12 1.45263 1.23707 0
M  V30 30428 C 3002.26 2.90274 1.86641 0
M  V30 30429 C 3001.38 4.0891 1.39343 0
M  V30 30430 C 3000.51 4.66063 2.5487 0
M  V30 30431 C 2999.55 5.76973 2.04374 0
M  V30 30432 N 2998.69 6.2836 3.13222 0
M  V30 30433 H 3003.53 2.97802 0.108528 0
M  V30 30434 H 3001.06 1.47041 0.0418101 0
M  V30 30435 H 3003.02 3.28706 2.5692 0
M  V30 30436 H 3001.65 2.15835 2.40032 0
M  V30 30437 H 3000.7 3.75873 0.585107 0
M  V30 30438 H 3002.02 4.89013 0.98327 0
M  V30 30439 H 3001.17 5.07007 3.3321 0
M  V30 30440 H 2999.91 3.85152 2.99181 0
M  V30 30441 H 2998.91 5.35518 1.245 0
M  V30 30442 H 3000.14 6.59728 1.61046 0
M  V30 30443 H 2998.09 5.50358 3.56991 0
M  V30 30444 H 2998 7.03622 2.76499 0
M  V30 30445 H 2999.27 6.73962 3.91658 0
M  V30 30446 N 3003.5 -0.038404 1.57553 0
M  V30 30447 C 3004.46 -1.0265 2.04929 0
M  V30 30448 C 3005.46 -1.29606 0.951791 0
M  V30 30449 O 3006.65 -1.24765 1.2157 0
M  V30 30450 C 3003.78 -2.36177 2.45832 0
M  V30 30451 H 3004.98 -0.617456 2.93475 0
M  V30 30452 H 3002.53 -0.285004 1.5368 0
M  V30 30453 H 3003.27 -2.81848 1.60413 0
M  V30 30454 H 3003.05 -2.17944 3.25949 0
M  V30 30455 H 3004.54 -3.07135 2.82945 0
M  V30 30456 N 3004.98 -1.54511 -0.310498 0
M  V30 30457 C 3006.22 -1.73597 -1.04843 0
M  V30 30458 C 3006.56 -0.515151 -1.87243 0
M  V30 30459 O 3005.83 0.487827 -1.88283 0
M  V30 30460 C 3006.11 -3.01936 -1.96232 0
M  V30 30461 C 3005.97 -4.34297 -1.17075 0
M  V30 30462 C 3007.29 -3.26092 -2.95554 0
M  V30 30463 H 3004.41 -0.631633 -0.379749 0
M  V30 30464 H 3007.05 -1.87219 -0.323907 0
M  V30 30465 H 3005.2 -2.90453 -2.5801 0
M  V30 30466 H 3006.87 -4.57683 -0.576562 0
M  V30 30467 H 3005.11 -4.31211 -0.473261 0
M  V30 30468 H 3005.78 -5.20343 -1.84248 0
M  V30 30469 H 3008.26 -3.37122 -2.43902 0
M  V30 30470 H 3007.14 -4.17224 -3.56672 0
M  V30 30471 H 3007.4 -2.43936 -3.6871 0
M  V30 30472 N 3006.46 0.573222 -1.46806 0
M  V30 30473 C 3007.7 1.33305 -1.52832 0
M  V30 30474 C 3008.03 1.93333 -0.183321 0
M  V30 30475 O 3007.31 1.76999 0.806323 0
M  V30 30476 C 3007.59 2.45526 -2.63418 0
M  V30 30477 C 3007.45 1.90471 -4.07481 0
M  V30 30478 C 3008.76 3.4753 -2.7002 0
M  V30 30479 H 3005.88 0.483333 -0.556379 0
M  V30 30480 H 3008.53 0.643035 -1.78788 0
M  V30 30481 H 3006.68 3.04385 -2.41417 0
M  V30 30482 H 3008.35 1.35996 -4.40798 0
M  V30 30483 H 3006.59 1.21241 -4.16513 0
M  V30 30484 H 3007.26 2.71523 -4.80603 0
M  V30 30485 H 3009.74 2.98567 -2.89823 0
M  V30 30486 H 3008.61 4.23498 -3.492 0
M  V30 30487 H 3008.87 4.05364 -1.76444 0
M  V30 30488 N 3007.93 1.3467 0.818645 0
M  V30 30489 C 3009.18 1.27267 1.5751 0
M  V30 30490 C 3009.51 -0.156219 1.93872 0
M  V30 30491 O 3008.76 -1.11854 1.60584 0
M  V30 30492 C 3009.06 2.11309 2.88242 0
M  V30 30493 C 3008.73 3.60259 2.71153 0
M  V30 30494 C 3007.39 4.00863 2.662 0
M  V30 30495 C 3009.74 4.54823 2.5453 0
M  V30 30496 C 3007.07 5.34215 2.42551 0
M  V30 30497 C 3009.42 5.8836 2.32411 0
M  V30 30498 C 3008.09 6.28122 2.25873 0
M  V30 30499 H 3007.36 0.465702 0.57637 0
M  V30 30500 H 3010 1.66453 0.946871 0
M  V30 30501 H 3008.31 1.64965 3.55379 0
M  V30 30502 H 3010.01 2.02925 3.45865 0
M  V30 30503 H 3006.6 3.28032 2.7585 0
M  V30 30504 H 3010.78 4.24348 2.57376 0
M  V30 30505 H 3006.04 5.64037 2.3595 0
M  V30 30506 H 3010.21 6.61222 2.18536 0
M  V30 30507 H 3007.84 7.31387 2.07309 0
M  V30 30508 N 3009.41 -1.03936 1.1847 0
M  V30 30509 C 3010.69 -1.74155 0.890466 0
M  V30 30510 C 3011.07 -2.02204 -0.606373 0
M  V30 30511 O 3010.42 -1.66825 -1.56147 0
M  V30 30512 C 3010.63 -3.02582 1.73911 0
M  V30 30513 C 3011.97 -3.76294 1.96693 0
M  V30 30514 O 3013 -3.12484 1.70975 0
M  V30 30515 O 3011.86 -4.90983 2.39995 0
M  V30 30516 H 3008.95 -0.757914 0.330902 0
M  V30 30517 H 3011.5 -1.0999 1.2923 0
M  V30 30518 H 3010.27 -2.78001 2.75374 0
M  V30 30519 H 3009.89 -3.74486 1.33588 0
M  V30 30520 N 3010.89 -0.986938 -1.22871 0
M  V30 30521 C 3012.17 -0.575622 -1.86938 0
M  V30 30522 C 3012.55 0.947172 -1.88658 0
M  V30 30523 O 3011.89 1.82662 -1.37283 0
M  V30 30524 C 3012.1 -1.18919 -3.28115 0
M  V30 30525 C 3013.45 -1.28601 -4.04657 0
M  V30 30526 O 3014.48 -1.14314 -3.37358 0
M  V30 30527 O 3013.34 -1.514 -5.2511 0
M  V30 30528 H 3010.43 -0.194738 -0.803745 0
M  V30 30529 H 3012.98 -1.08244 -1.30696 0
M  V30 30530 H 3011.75 -2.23106 -3.21465 0
M  V30 30531 H 3011.37 -0.667604 -3.91955 0
M  V30 30532 N 3012.37 1.38098 -0.759394 0
M  V30 30533 C 3013.78 1.53483 -0.437633 0
M  V30 30534 C 3013.98 1.72074 1.04846 0
M  V30 30535 O 3013.04 1.73506 1.83445 0
M  V30 30536 C 3014.35 2.73855 -1.24194 0
M  V30 30537 C 3015.9 2.87708 -1.2326 0
M  V30 30538 C 3016.38 4.11048 -2.01999 0
M  V30 30539 N 3017.87 4.18136 -1.99289 0
M  V30 30540 C 3018.6 5.12578 -2.57005 0
M  V30 30541 N 3018.1 6.12656 -3.23457 0
M  V30 30542 N 3019.89 5.04971 -2.46903 0
M  V30 30543 H 3012.04 1.2428 -1.72245 0
M  V30 30544 H 3014.3 0.604192 -0.730518 0
M  V30 30545 H 3014.01 2.66541 -2.29454 0
M  V30 30546 H 3013.88 3.67201 -0.862736 0
M  V30 30547 H 3016.27 2.945 -0.18804 0
M  V30 30548 H 3016.35 1.95356 -1.65136 0
M  V30 30549 H 3016 4.05017 -3.06469 0
M  V30 30550 H 3015.93 5.02491 -1.57513 0
M  V30 30551 H 3018.42 3.46465 -1.50899 0
M  V30 30552 H 3018.73 6.81224 -3.64902 0
M  V30 30553 H 3017.08 6.12971 -3.27553 0
M  V30 30554 H 3020.27 4.25728 -1.94611 0
M  V30 30555 H 3020.44 5.78391 -2.92178 0
M  V30 30556 N 3013.85 0.508932 1.49156 0
M  V30 30557 C 3015.09 -0.0247731 2.03385 0
M  V30 30558 C 3015.45 -1.33961 1.38102 0
M  V30 30559 O 3014.74 -1.84678 0.510349 0
M  V30 30560 C 3014.93 -0.225654 3.56687 0
M  V30 30561 C 3014.76 1.06816 4.3683 0
M  V30 30562 C 3013.53 1.62218 4.78553 0
M  V30 30563 C 3015.73 1.97347 4.7493 0
M  V30 30564 N 3013.71 2.86108 5.43153 0
M  V30 30565 C 3015.08 3.05814 5.39331 0
M  V30 30566 C 3017.14 1.97929 4.56868 0
M  V30 30567 C 3015.84 4.14901 5.8758 0
M  V30 30568 C 3017.87 3.05996 5.06084 0
M  V30 30569 C 3017.23 4.13182 5.70491 0
M  V30 30570 H 3013.33 0.0319125 0.781349 0
M  V30 30571 H 3015.91 0.68555 1.82231 0
M  V30 30572 H 3014.08 -0.905041 3.77708 0
M  V30 30573 H 3015.82 -0.757077 3.97556 0
M  V30 30574 H 3012.57 1.16629 4.59015 0
M  V30 30575 H 3012.99 3.49126 5.80034 0
M  V30 30576 H 3017.64 1.16364 4.06472 0
M  V30 30577 H 3015.35 4.97258 6.36993 0
M  V30 30578 H 3018.94 3.07475 4.93913 0
M  V30 30579 H 3017.82 4.95425 6.07884 0
M  V30 30580 N 3015.32 -1.55714 0.243111 0
M  V30 30581 C 3016.29 -2.19946 -0.644684 0
M  V30 30582 C 3017.29 -1.16761 -1.1056 0
M  V30 30583 O 3018.48 -1.41866 -1.01092 0
M  V30 30584 C 3015.61 -2.84001 -1.88564 0
M  V30 30585 H 3016.8 -2.99781 -0.0843312 0
M  V30 30586 H 3014.35 -1.56299 -0.00644499 0
M  V30 30587 H 3015.09 -2.08093 -2.48732 0
M  V30 30588 H 3014.87 -3.59584 -1.56339 0
M  V30 30589 H 3016.36 -3.3317 -2.51769 0
M  V30 30590 N 3016.8 0.030048 -1.57571 0
M  V30 30591 C 3018.03 0.736567 -1.9388 0
M  V30 30592 C 3018.45 1.68151 -0.843028 0
M  V30 30593 O 3017.81 1.80179 0.201318 0
M  V30 30594 C 3017.86 1.47061 -3.2925 0
M  V30 30595 O 3016.96 2.58373 -3.2143 0
M  V30 30596 H 3016.3 0.19817 -0.633739 0
M  V30 30597 H 3018.83 -0.0141845 -2.04595 0
M  V30 30598 H 3018.84 1.84074 -3.64116 0
M  V30 30599 H 3017.52 0.777569 -4.08567 0
M  V30 30600 H 3016.1 2.23909 -2.98193 0
M  V30 30601 N 3018.28 1.54674 0.3023 0
M  V30 30602 C 3019.24 1.84793 1.35589 0
M  V30 30603 C 3020.24 0.720756 1.43742 0
M  V30 30604 O 3021.43 0.989043 1.434 0
M  V30 30605 C 3018.57 2.02704 2.74087 0
M  V30 30606 H 3019.76 2.78948 1.10127 0
M  V30 30607 H 3017.31 1.46716 0.538901 0
M  V30 30608 H 3018.05 1.10832 3.04773 0
M  V30 30609 H 3017.83 2.84745 2.6956 0
M  V30 30610 H 3019.32 2.27381 3.50268 0
M  V30 30611 N 3019.76 -0.565428 1.47108 0
M  V30 30612 C 3021.17 -0.890543 1.32444 0
M  V30 30613 C 3021.37 -1.9912 0.30877 0
M  V30 30614 O 3020.43 -2.50914 -0.282606 0
M  V30 30615 C 3021.74 -1.29155 2.7155 0
M  V30 30616 C 3023.29 -1.40344 2.79773 0
M  V30 30617 C 3023.77 -1.83803 4.195 0
M  V30 30618 N 3025.26 -1.90968 4.22002 0
M  V30 30619 C 3025.99 -2.25906 5.27024 0
M  V30 30620 N 3025.49 -2.59516 6.42358 0
M  V30 30621 N 3027.28 -2.2661 5.14397 0
M  V30 30622 H 3019.43 0.161365 2.11786 0
M  V30 30623 H 3021.7 0.00952297 0.947952 0
M  V30 30624 H 3021.4 -0.556692 3.47266 0
M  V30 30625 H 3021.28 -2.24946 3.02786 0
M  V30 30626 H 3023.66 -2.12912 2.04334 0
M  V30 30627 H 3023.74 -0.427611 2.52201 0
M  V30 30628 H 3023.39 -1.11807 4.95441 0
M  V30 30629 H 3023.32 -2.82374 4.44491 0
M  V30 30630 H 3025.81 -1.67414 3.38793 0
M  V30 30631 H 3026.12 -2.85179 7.18257 0
M  V30 30632 H 3024.47 -2.57115 6.45691 0
M  V30 30633 H 3027.66 -1.99786 4.23324 0
M  V30 30634 H 3027.83 -2.53509 5.96353 0
M  V30 30635 N 3021.24 -1.35102 -0.811492 0
M  V30 30636 C 3022.15 -1.29722 -1.95472 0
M  V30 30637 C 3023.16 -0.20294 -1.72812 0
M  V30 30638 O 3024.34 -0.431449 -1.96724 0
M  V30 30639 C 3021.4 -1.0639 -3.29973 0
M  V30 30640 C 3020.46 -2.25084 -3.65562 0
M  V30 30641 C 3019.7 -2.02856 -4.93645 0
M  V30 30642 O 3019.92 -0.992541 -5.61698 0
M  V30 30643 O 3018.85 -2.90096 -5.27378 0
M  V30 30644 H 3022.68 -2.25925 -2.02958 0
M  V30 30645 H 3020.27 -1.15424 -0.948563 0
M  V30 30646 H 3022.15 -0.952071 -4.10504 0
M  V30 30647 H 3020.82 -0.13235 -3.23429 0
M  V30 30648 H 3019.73 -2.4183 -2.85428 0
M  V30 30649 H 3021.06 -3.16669 -3.76804 0
M  V30 30650 N 3022.71 1.03306 -1.19019 0
M  V30 30651 C 3023.99 1.73681 -0.899689 0
M  V30 30652 C 3024.37 2.02522 0.595641 0
M  V30 30653 O 3023.72 1.6765 1.5526 0
M  V30 30654 C 3023.93 3.01656 -1.75513 0
M  V30 30655 C 3025.28 3.75245 -1.98686 0
M  V30 30656 O 3026.3 3.11573 -1.7263 0
M  V30 30657 O 3025.16 4.89704 -2.42595 0
M  V30 30658 H 3022.25 0.756148 -0.334917 0
M  V30 30659 H 3024.8 1.09303 -1.29811 0
M  V30 30660 H 3023.57 2.76537 -2.76845 0
M  V30 30661 H 3023.2 3.73773 -1.35572 0
M  V30 30662 N 3024.19 0.99344 1.22346 0
M  V30 30663 C 3025.12 0.564128 2.26583 0
M  V30 30664 C 3026.1 -0.409269 1.65103 0
M  V30 30665 O 3027.29 -0.299785 1.91872 0
M  V30 30666 C 3024.42 -0.121493 3.47087 0
M  V30 30667 C 3023.37 0.770503 4.21007 0
M  V30 30668 C 3022.7 -0.0480646 5.34678 0
M  V30 30669 C 3024 2.06761 4.79632 0
M  V30 30670 H 3025.69 1.43543 2.62747 0
M  V30 30671 H 3023.24 0.69165 1.26302 0
M  V30 30672 H 3025.19 -0.43323 4.19167 0
M  V30 30673 H 3023.92 -1.02734 3.10021 0
M  V30 30674 H 3022.57 1.06589 3.50763 0
M  V30 30675 H 3022.22 -0.954846 4.93854 0
M  V30 30676 H 3021.92 0.545744 5.8506 0
M  V30 30677 H 3023.45 -0.353884 6.09574 0
M  V30 30678 H 3024.86 1.81979 5.43651 0
M  V30 30679 H 3023.26 2.61029 5.40355 0
M  V30 30680 H 3024.33 2.74599 3.99654 0
M  V30 30681 N 3025.67 -1.37693 0.766707 0
M  V30 30682 C 3026.92 -2.0011 0.329236 0
M  V30 30683 C 3027.25 -1.60725 -1.09001 0
M  V30 30684 O 3026.52 -0.851019 -1.74894 0
M  V30 30685 C 3026.81 -3.57058 0.467052 0
M  V30 30686 C 3026.66 -4.06368 1.92835 0
M  V30 30687 C 3027.98 -4.39903 -0.131715 0
M  V30 30688 H 3025.1 -0.726982 0.121103 0
M  V30 30689 H 3027.74 -1.63445 0.968808 0
M  V30 30690 H 3025.89 -3.88423 -0.0774341 0
M  V30 30691 H 3027.56 -3.8559 2.53215 0
M  V30 30692 H 3025.81 -3.58747 2.43891 0
M  V30 30693 H 3026.48 -5.15426 1.97586 0
M  V30 30694 H 3028.95 -4.14767 0.332803 0
M  V30 30695 H 3027.83 -5.489 -0.00512051 0
M  V30 30696 H 3028.09 -4.24891 -1.22148 0
M  V30 30697 N 3027.15 -0.516835 -1.48884 0
M  V30 30698 C 3028.1 0.253085 -2.29408 0
M  V30 30699 C 3029.07 0.945911 -1.36535 0
M  V30 30700 O 3030.25 0.949498 -1.65497 0
M  V30 30701 C 3027.39 1.30205 -3.19594 0
M  V30 30702 C 3026.5 0.619404 -4.27536 0
M  V30 30703 C 3025.64 1.65017 -5.04919 0
M  V30 30704 C 3024.68 0.950261 -6.04679 0
M  V30 30705 N 3023.81 1.92596 -6.75168 0
M  V30 30706 H 3028.65 -0.439796 -2.94737 0
M  V30 30707 H 3026.19 -0.228726 -1.45311 0
M  V30 30708 H 3028.15 1.92238 -3.7027 0
M  V30 30709 H 3026.78 1.96349 -2.56217 0
M  V30 30710 H 3025.83 -0.114572 -3.80227 0
M  V30 30711 H 3027.14 0.069214 -4.98752 0
M  V30 30712 H 3026.3 2.34514 -5.59543 0
M  V30 30713 H 3025.04 2.23424 -4.33512 0
M  V30 30714 H 3024.04 0.241156 -5.49271 0
M  V30 30715 H 3025.27 0.37248 -6.78078 0
M  V30 30716 H 3023.21 2.49935 -6.06521 0
M  V30 30717 H 3023.13 1.42686 -7.42413 0
M  V30 30718 H 3024.4 2.61332 -7.34388 0
M  V30 30719 N 3028.63 1.55583 -0.251365 0
M  V30 30720 C 3029.56 2.24547 0.640397 0
M  V30 30721 C 3030.54 1.22728 1.17778 0
M  V30 30722 O 3031.72 1.51392 1.21631 0
M  V30 30723 C 3028.85 2.94837 1.83544 0
M  V30 30724 C 3027.81 4.03382 1.43063 0
M  V30 30725 C 3027.13 4.61121 2.70687 0
M  V30 30726 C 3028.43 5.18861 0.598389 0
M  V30 30727 H 3030.13 2.99329 0.0653245 0
M  V30 30728 H 3027.67 1.43969 0.0299789 0
M  V30 30729 H 3029.63 3.41784 2.46499 0
M  V30 30730 H 3028.35 2.1755 2.43597 0
M  V30 30731 H 3027.01 3.5721 0.824411 0
M  V30 30732 H 3026.66 3.8053 3.28947 0
M  V30 30733 H 3026.36 5.34397 2.44323 0
M  V30 30734 H 3027.88 5.10804 3.34532 0
M  V30 30735 H 3029.29 5.62006 1.13234 0
M  V30 30736 H 3027.69 5.98553 0.430623 0
M  V30 30737 H 3028.76 4.83342 -0.388375 0
M  V30 30738 N 3030.1 -0.0216912 1.57585 0
M  V30 30739 C 3031.35 -0.706548 1.90734 0
M  V30 30740 C 3031.71 -1.72568 0.850762 0
M  V30 30741 O 3031 -1.9109 -0.139682 0
M  V30 30742 C 3031.19 -1.41073 3.2838 0
M  V30 30743 C 3031.02 -0.461316 4.47328 0
M  V30 30744 C 3029.79 -0.0796516 5.05237 0
M  V30 30745 C 3031.99 0.263392 5.13625 0
M  V30 30746 N 3029.97 0.870246 6.07701 0
M  V30 30747 C 3031.34 1.0687 6.1072 0
M  V30 30748 C 3033.4 0.329549 4.96808 0
M  V30 30749 C 3032.1 1.9341 6.9281 0
M  V30 30750 C 3034.13 1.18209 5.79466 0
M  V30 30751 C 3033.49 1.97531 6.76137 0
M  V30 30752 H 3029.59 -0.232414 0.746664 0
M  V30 30753 H 3032.17 0.033557 1.94671 0
M  V30 30754 H 3030.34 -2.12125 3.25357 0
M  V30 30755 H 3032.07 -2.04856 3.49022 0
M  V30 30756 H 3028.83 -0.443415 4.7152 0
M  V30 30757 H 3029.25 1.33992 6.63608 0
M  V30 30758 H 3033.9 -0.269411 4.21941 0
M  V30 30759 H 3031.61 2.54382 7.67017 0
M  V30 30760 H 3035.2 1.23691 5.685 0
M  V30 30761 H 3034.08 2.62434 7.38984 0
M  V30 30762 N 3031.58 -1.54832 -0.294093 0
M  V30 30763 C 3032.51 -1.89263 -1.36754 0
M  V30 30764 C 3033.49 -0.752241 -1.52563 0
M  V30 30765 O 3034.68 -1.00858 -1.65956 0
M  V30 30766 C 3031.81 -2.14602 -2.73063 0
M  V30 30767 C 3030.76 -3.30445 -2.72011 0
M  V30 30768 C 3030.09 -3.41217 -4.11673 0
M  V30 30769 C 3031.39 -4.67379 -2.3314 0
M  V30 30770 H 3033.08 -2.7917 -1.08186 0
M  V30 30771 H 3030.63 -1.34322 -0.518991 0
M  V30 30772 H 3032.58 -2.37275 -3.48251 0
M  V30 30773 H 3031.31 -1.21473 -3.0317 0
M  V30 30774 H 3029.97 -3.07706 -1.9928 0
M  V30 30775 H 3029.61 -2.45592 -4.38969 0
M  V30 30776 H 3029.31 -4.19091 -4.11869 0
M  V30 30777 H 3030.84 -3.66159 -4.88631 0
M  V30 30778 H 3032.25 -4.89736 -2.98046 0
M  V30 30779 H 3030.65 -5.48016 -2.44537 0
M  V30 30780 H 3031.72 -4.67628 -1.28266 0
M  V30 30781 N 3033.06 0.557619 -1.47405 0
M  V30 30782 C 3034.29 1.34023 -1.57624 0
M  V30 30783 C 3034.7 1.87439 -0.226289 0
M  V30 30784 O 3034.06 1.64973 0.780401 0
M  V30 30785 C 3034.11 2.51043 -2.60115 0
M  V30 30786 O 3033.83 1.99834 -3.89869 0
M  V30 30787 C 3035.33 3.43259 -2.80514 0
M  V30 30788 H 3032.55 0.40856 -0.532278 0
M  V30 30789 H 3035.1 0.675521 -1.93021 0
M  V30 30790 H 3033.25 3.13453 -2.27654 0
M  V30 30791 H 3033.67 2.76226 -4.45869 0
M  V30 30792 H 3035.14 4.21785 -3.56091 0
M  V30 30793 H 3035.62 3.96777 -1.88321 0
M  V30 30794 H 3036.22 2.86665 -3.14171 0
M  V30 30795 N 3034.54 1.35531 0.804316 0
M  V30 30796 C 3035.82 1.19493 1.54857 0
M  V30 30797 C 3036.2 -0.225023 2.09897 0
M  V30 30798 O 3035.54 -1.22882 1.92645 0
M  V30 30799 C 3035.75 2.26483 2.65531 0
M  V30 30800 C 3037.1 2.62405 3.3381 0
M  V30 30801 O 3038.13 2.25414 2.75803 0
M  V30 30802 O 3036.99 3.26017 4.38606 0
M  V30 30803 H 3034.08 0.464363 0.684321 0
M  V30 30804 H 3036.63 1.47219 0.844082 0
M  V30 30805 H 3035.4 3.21713 2.22748 0
M  V30 30806 H 3035.02 2.00039 3.43613 0
M  V30 30807 N 3036.02 -1.02674 1.19565 0
M  V30 30808 C 3036.93 -2.14472 0.950728 0
M  V30 30809 C 3037.94 -1.73767 -0.0899914 0
M  V30 30810 O 3039.12 -2.01175 0.0951417 0
M  V30 30811 C 3036.18 -3.43148 0.494977 0
M  V30 30812 C 3035.25 -3.98155 1.60534 0
M  V30 30813 C 3034.48 -5.2069 1.17124 0
M  V30 30814 O 3034.7 -5.70389 0.0356939 0
M  V30 30815 O 3033.64 -5.68587 1.97464 0
M  V30 30816 H 3037.46 -2.37998 1.88655 0
M  V30 30817 H 3035.05 -1.12884 0.978655 0
M  V30 30818 H 3036.93 -4.2066 0.249566 0
M  V30 30819 H 3035.6 -3.21063 -0.412378 0
M  V30 30820 H 3034.51 -3.21968 1.90493 0
M  V30 30821 H 3035.84 -4.24609 2.48933 0
M  V30 30822 N 3037.5 -0.999914 -1.21817 0
M  V30 30823 C 3038.74 -0.678385 -1.90374 0
M  V30 30824 C 3039.06 0.792792 -1.78157 0
M  V30 30825 O 3038.33 1.56883 -1.17322 0
M  V30 30826 H 3036.91 -0.247927 -0.704657 0
M  V30 30827 H 3039.58 -1.26793 -1.48019 0
M  V30 30828 H 3038.67 -0.947076 -2.97383 0
M  V30 30829 N 3038.97 1.37284 -0.773999 0
M  V30 30830 C 3040.25 1.93811 -0.263977 0
M  V30 30831 C 3040.63 1.70745 1.24135 0
M  V30 30832 O 3039.98 1.05753 2.02555 0
M  V30 30833 C 3040.19 3.43085 -0.639813 0
M  V30 30834 C 3041.54 4.20183 -0.61087 0
M  V30 30835 O 3042.56 3.51457 -0.57934 0
M  V30 30836 O 3041.42 5.4274 -0.639958 0
M  V30 30837 H 3038.51 0.824714 -0.0614476 0
M  V30 30838 H 3041.06 1.46558 -0.855503 0
M  V30 30839 H 3039.83 3.53466 -1.67862 0
M  V30 30840 H 3039.45 3.97594 -0.0213526 0
M  V30 30841 N 3040.45 0.524724 1.48608 0
M  V30 30842 C 3041.7 -0.0132582 2.01696 0
M  V30 30843 C 3042.01 -1.35823 1.40753 0
M  V30 30844 O 3043.22 -1.98427 1.85308 0
M  V30 30845 C 3041.68 -0.074038 3.59824 0
M  V30 30846 C 3041.28 1.26572 4.29748 0
M  V30 30847 C 3043.03 -0.561126 4.20775 0
M  V30 30848 C 3040.93 1.16581 5.79796 0
M  V30 30849 H 3039.86 -0.00872605 0.75395 0
M  V30 30850 H 3042.52 0.667714 1.70921 0
M  V30 30851 H 3040.9 -0.819975 3.87418 0
M  V30 30852 H 3042.07 2.02681 4.13832 0
M  V30 30853 H 3040.39 1.68813 3.80646 0
M  V30 30854 H 3042.98 -0.653759 5.30688 0
M  V30 30855 H 3043.33 -1.56566 3.85736 0
M  V30 30856 H 3043.86 0.128971 3.97591 0
M  V30 30857 H 3040.6 2.14534 6.19399 0
M  V30 30858 H 3040.12 0.445999 5.9814 0
M  V30 30859 H 3041.8 0.854299 6.41335 0
M  V30 30860 N 3041.93 -1.55447 0.259613 0
M  V30 30861 C 3043.21 -1.912 -0.412561 0
M  V30 30862 C 3043.59 -1.18197 -1.74907 0
M  V30 30863 O 3042.93 -0.303643 -2.26474 0
M  V30 30864 C 3043.14 -3.44345 -0.568134 0
M  V30 30865 C 3044.49 -4.15837 -0.85818 0
M  V30 30866 O 3045.52 -3.50154 -0.653526 0
M  V30 30867 O 3044.38 -5.32044 -1.24865 0
M  V30 30868 H 3041.47 -0.796258 -0.223389 0
M  V30 30869 H 3044.02 -1.66944 0.30462 0
M  V30 30870 H 3042.79 -3.89518 0.373058 0
M  V30 30871 H 3042.41 -3.74504 -1.33537 0
M  V30 30872 N 3043.41 0.0133338 -1.57594 0
M  V30 30873 C 3044.37 0.993763 -2.06536 0
M  V30 30874 C 3045.37 1.28075 -0.972289 0
M  V30 30875 O 3046.56 1.22816 -1.23539 0
M  V30 30876 C 3043.69 2.32236 -2.49558 0
M  V30 30877 H 3044.89 0.570689 -2.9442 0
M  V30 30878 H 3042.44 0.260519 -1.54114 0
M  V30 30879 H 3043.17 2.7926 -1.64877 0
M  V30 30880 H 3042.96 2.12731 -3.29375 0
M  V30 30881 H 3044.45 3.02595 -2.87795 0
M  V30 30882 N 3044.89 1.54985 0.285878 0
M  V30 30883 C 3046.16 1.65681 1.03967 0
M  V30 30884 C 3046.54 0.514887 2.04725 0
M  V30 30885 O 3045.89 -0.486624 2.23258 0
M  V30 30886 C 3046.1 3.04348 1.70801 0
M  V30 30887 C 3047.45 3.6167 2.22441 0
M  V30 30888 O 3048.47 3.06898 1.80809 0
M  V30 30889 O 3047.33 4.57604 2.98765 0
M  V30 30890 H 3044.43 0.672402 0.481461 0
M  V30 30891 H 3046.97 1.67328 0.28276 0
M  V30 30892 H 3045.74 3.78902 0.977204 0
M  V30 30893 H 3045.37 3.06545 2.53211 0
M  V30 30894 N 3046.36 -0.549794 1.47699 0
M  V30 30895 C 3047.61 -1.30621 1.55916 0
M  V30 30896 C 3047.97 -1.91119 0.22163 0
M  V30 30897 O 3047.26 -1.75294 -0.773479 0
M  V30 30898 C 3047.45 -2.43185 2.61908 0
M  V30 30899 C 3047.28 -1.93718 4.05837 0
M  V30 30900 C 3046.05 -1.77223 4.73202 0
M  V30 30901 C 3048.25 -1.47729 4.92626 0
M  V30 30902 N 3046.23 -1.22172 6.0162 0
M  V30 30903 C 3047.6 -1.04495 6.11131 0
M  V30 30904 C 3049.66 -1.35849 4.79009 0
M  V30 30905 C 3048.36 -0.505596 7.17521 0
M  V30 30906 C 3050.39 -0.833151 5.85502 0
M  V30 30907 C 3049.75 -0.41077 7.03201 0
M  V30 30908 H 3045.85 -0.46973 0.625202 0
M  V30 30909 H 3048.43 -0.622336 1.84486 0
M  V30 30910 H 3046.6 -3.09094 2.35193 0
M  V30 30911 H 3048.33 -3.10196 2.59924 0
M  V30 30912 H 3045.09 -2.00159 4.29224 0
M  V30 30913 H 3045.51 -0.967146 6.70056 0
M  V30 30914 H 3050.16 -1.67115 3.88372 0
M  V30 30915 H 3047.87 -0.180579 8.07898 0
M  V30 30916 H 3051.46 -0.74468 5.77015 0
M  V30 30917 H 3050.34 -0.0105708 7.84199 0
M  V30 30918 N 3047.84 -1.35955 -0.797117 0
M  V30 30919 C 3049.25 -1.26647 -1.37177 0
M  V30 30920 C 3049.6 0.0970702 -1.9596 0
M  V30 30921 O 3048.73 0.998321 -1.91996 0
M  V30 30922 C 3049.32 -2.29324 -2.49391 0
M  V30 30923 C 3047.88 -2.23728 -3.02693 0
M  V30 30924 C 3047.03 -2.1452 -1.75717 0
M  V30 30925 H 3049.98 -1.46946 -0.599381 0
M  V30 30926 H 3050 -1.92521 -3.28201 0
M  V30 30927 H 3049.51 -3.28553 -2.06578 0
M  V30 30928 H 3047.62 -1.2794 -3.49946 0
M  V30 30929 H 3047.73 -3.16093 -3.60031 0
M  V30 30930 H 3046.09 -1.60649 -1.97646 0
M  V30 30931 H 3046.88 -3.15624 -1.35043 0
M  V30 30932 N 3049.32 1.02038 -1.20108 0
M  V30 30933 C 3050.74 1.27866 -0.955121 0
M  V30 30934 C 3050.94 1.98119 0.36756 0
M  V30 30935 O 3049.99 2.27424 1.09701 0
M  V30 30936 C 3051.31 2.1174 -2.1351 0
M  V30 30937 C 3052.85 2.25019 -2.17567 0
M  V30 30938 C 3053.33 3.12269 -3.3504 0
M  V30 30939 N 3054.82 3.19858 -3.3503 0
M  V30 30940 C 3055.55 3.87582 -4.22573 0
M  V30 30941 N 3055.05 4.57465 -5.20286 0
M  V30 30942 N 3056.84 3.84068 -4.10425 0
M  V30 30943 H 3048.99 0.548574 -2.05194 0
M  V30 30944 H 3051.26 0.304712 -0.897694 0
M  V30 30945 H 3050.96 1.67451 -3.09278 0
M  V30 30946 H 3050.84 3.1247 -2.11287 0
M  V30 30947 H 3053.22 2.68535 -1.22364 0
M  V30 30948 H 3053.31 1.23811 -2.23841 0
M  V30 30949 H 3052.95 2.6946 -4.30527 0
M  V30 30950 H 3052.88 4.13557 -3.26004 0
M  V30 30951 H 3055.37 2.70096 -2.64304 0
M  V30 30952 H 3055.68 5.06798 -5.83417 0
M  V30 30953 H 3054.03 4.56302 -5.24227 0
M  V30 30954 H 3057.22 3.28617 -3.33359 0
M  V30 30955 H 3057.39 4.36573 -4.78862 0
M  V30 30956 N 3050.8 1.00636 1.21285 0
M  V30 30957 C 3051.73 0.588128 2.25972 0
M  V30 30958 C 3052.71 -0.391735 1.65528 0
M  V30 30959 O 3053.89 -0.279418 1.92179 0
M  V30 30960 C 3051.02 -0.0846726 3.47197 0
M  V30 30961 C 3049.98 0.815113 4.20167 0
M  V30 30962 C 3049.3 0.00864792 5.34699 0
M  V30 30963 C 3050.6 2.11836 4.77412 0
M  V30 30964 H 3052.3 1.46322 2.61209 0
M  V30 30965 H 3049.84 0.705007 1.25561 0
M  V30 30966 H 3051.8 -0.388747 4.19603 0
M  V30 30967 H 3050.52 -0.994401 3.11094 0
M  V30 30968 H 3049.18 1.10303 3.49612 0
M  V30 30969 H 3048.83 -0.902412 4.94839 0
M  V30 30970 H 3048.53 0.607767 5.84448 0
M  V30 30971 H 3050.05 -0.28921 6.09915 0
M  V30 30972 H 3051.47 1.87735 5.41691 0
M  V30 30973 H 3049.86 2.66745 5.37557 0
M  V30 30974 H 3050.93 2.78823 3.96719 0
M  V30 30975 N 3052.28 -1.36872 0.781268 0
M  V30 30976 C 3053.24 -2.28491 0.180134 0
M  V30 30977 C 3054.24 -1.48459 -0.617772 0
M  V30 30978 O 3055.43 -1.68553 -0.439962 0
M  V30 30979 C 3052.56 -3.32509 -0.751682 0
M  V30 30980 H 3053.75 -2.83162 0.987887 0
M  V30 30981 H 3051.31 -1.46299 0.550127 0
M  V30 30982 H 3052.04 -2.82979 -1.58408 0
M  V30 30983 H 3051.83 -3.91679 -0.181581 0
M  V30 30984 H 3053.32 -4.00951 -1.1674 0
M  V30 30985 N 3053.75 -0.532597 -1.48328 0
M  V30 30986 C 3054.66 0.232505 -2.33445 0
M  V30 30987 C 3055.68 0.936424 -1.46653 0
M  V30 30988 O 3056.86 0.910802 -1.79628 0
M  V30 30989 C 3053.92 1.26428 -3.22826 0
M  V30 30990 C 3052.98 0.570436 -4.25493 0
M  V30 30991 C 3052.22 1.55306 -5.10603 0
M  V30 30992 O 3052.44 2.78591 -4.97738 0
M  V30 30993 O 3051.37 1.09102 -5.91929 0
M  V30 30994 H 3055.2 -0.465041 -3.00118 0
M  V30 30995 H 3052.78 -0.293487 -1.46489 0
M  V30 30996 H 3054.67 1.86048 -3.78106 0
M  V30 30997 H 3053.34 1.94419 -2.58811 0
M  V30 30998 H 3052.25 -0.0663244 -3.74041 0
M  V30 30999 H 3053.58 -0.0675769 -4.92154 0
M  V30 31000 N 3055.23 1.55307 -0.267853 0
M  V30 31001 C 3056.65 1.59366 0.0864827 0
M  V30 31002 C 3056.85 1.28508 1.55203 0
M  V30 31003 O 3055.9 1.04245 2.29977 0
M  V30 31004 C 3057.22 2.99379 -0.281602 0
M  V30 31005 C 3058.77 3.12171 -0.22762 0
M  V30 31006 C 3059.24 4.54439 -0.570039 0
M  V30 31007 N 3060.73 4.60257 -0.521319 0
M  V30 31008 C 3061.47 5.68352 -0.759161 0
M  V30 31009 N 3060.96 6.84624 -1.06124 0
M  V30 31010 N 3062.76 5.57868 -0.688449 0
M  V30 31011 H 3054.91 1.73631 -1.22335 0
M  V30 31012 H 3057.17 0.809288 -0.493717 0
M  V30 31013 H 3056.88 3.26769 -1.30056 0
M  V30 31014 H 3056.75 3.7527 0.381126 0
M  V30 31015 H 3059.14 2.84549 0.782043 0
M  V30 31016 H 3059.22 2.38509 -0.924503 0
M  V30 31017 H 3058.86 4.82786 -1.57735 0
M  V30 31018 H 3058.79 5.2639 0.148554 0
M  V30 31019 H 3061.28 3.76728 -0.297426 0
M  V30 31020 H 3061.6 7.62956 -1.22958 0
M  V30 31021 H 3059.94 6.86257 -1.09893 0
M  V30 31022 H 3063.13 4.65909 -0.45235 0
M  V30 31023 H 3063.3 6.42035 -0.877194 0
M  V30 31024 N 3056.71 -0.00497598 1.57599 0
M  V30 31025 C 3057.96 -0.690862 1.90351 0
M  V30 31026 C 3058.29 -1.74054 0.868075 0
M  V30 31027 O 3057.54 -1.95282 -0.12782 0
M  V30 31028 C 3057.84 -1.37582 3.29857 0
M  V30 31029 C 3057.51 -0.459827 4.48549 0
M  V30 31030 C 3056.17 -0.207609 4.80752 0
M  V30 31031 C 3058.52 0.171145 5.20919 0
M  V30 31032 C 3055.85 0.683957 5.827 0
M  V30 31033 C 3058.2 1.05056 6.23816 0
M  V30 31034 C 3056.86 1.312 6.54479 0
M  V30 31035 H 3056.13 -0.252804 0.696542 0
M  V30 31036 H 3058.78 0.0494832 1.91436 0
M  V30 31037 H 3057.09 -2.19009 3.24873 0
M  V30 31038 H 3058.78 -1.91249 3.52456 0
M  V30 31039 H 3055.37 -0.666574 4.23385 0
M  V30 31040 H 3059.56 -0.0107069 4.96299 0
M  V30 31041 H 3054.81 0.894573 6.0482 0
M  V30 31042 H 3058.99 1.54586 6.79026 0
M  V30 31043 H 3056.61 2.00455 7.33295 0
M  V30 31044 N 3058.19 -1.55135 -0.277654 0
M  V30 31045 C 3059.1 -1.90786 -1.36521 0
M  V30 31046 C 3060.11 -0.804569 -1.54281 0
M  V30 31047 O 3061.29 -1.10321 -1.68497 0
M  V30 31048 C 3058.36 -2.1684 -2.7052 0
M  V30 31049 C 3057.42 -3.40429 -2.61546 0
M  V30 31050 C 3056.65 -3.65231 -3.89155 0
M  V30 31051 O 3056.87 -2.92625 -4.89619 0
M  V30 31052 O 3055.81 -4.58764 -3.89639 0
M  V30 31053 H 3059.63 -2.83356 -1.09285 0
M  V30 31054 H 3057.22 -1.41622 -0.475774 0
M  V30 31055 H 3059.1 -2.35044 -3.4976 0
M  V30 31056 H 3057.77 -1.27453 -2.97552 0
M  V30 31057 H 3056.68 -3.27565 -1.80698 0
M  V30 31058 H 3058.01 -4.3002 -2.39465 0
M  V30 31059 N 3059.67 0.541953 -1.47989 0
M  V30 31060 C 3060.91 1.29584 -1.55088 0
M  V30 31061 C 3061.24 1.9374 -0.221338 0
M  V30 31062 O 3060.51 1.80721 0.756096 0
M  V30 31063 H 3059.09 0.481256 -0.571316 0
M  V30 31064 H 3061.75 0.631642 -1.84381 0
M  V30 31065 H 3060.84 2.0814 -2.3256 0
M  V30 31066 N 3061.15 1.36376 0.789896 0
M  V30 31067 C 3062.11 1.30513 1.88412 0
M  V30 31068 C 3063.11 0.212928 1.59384 0
M  V30 31069 O 3064.3 0.467681 1.67805 0
M  V30 31070 C 3061.43 1.02307 3.25186 0
M  V30 31071 H 3062.62 2.27826 1.95027 0
M  V30 31072 H 3060.18 1.21142 0.987643 0
M  V30 31073 H 3060.91 0.0545056 3.24254 0
M  V30 31074 H 3060.7 1.81345 3.47644 0
M  V30 31075 H 3062.19 1.00809 4.0525 0
M  V30 31076 N 3062.62 -1.014 1.20647 0
M  V30 31077 C 3063.87 -1.74693 1.01621 0
M  V30 31078 C 3064.19 -1.89679 -0.452405 0
M  V30 31079 O 3063.46 -1.44118 -1.3269 0
M  V30 31080 H 3062.04 -0.647195 0.373025 0
M  V30 31081 H 3064.7 -1.22238 1.51802 0
M  V30 31082 H 3063.8 -2.74954 1.4767 0
M  V30 31083 N 3064.1 -1.01278 -1.2075 0
M  V30 31084 C 3065.05 -0.550641 -2.21251 0
M  V30 31085 C 3066.04 0.391958 -1.56053 0
M  V30 31086 O 3067.23 0.215544 -1.75683 0
M  V30 31087 C 3064.36 0.113541 -3.43112 0
M  V30 31088 C 3063.44 -0.850538 -4.15484 0
M  V30 31089 N 3063.83 -2.00652 -4.64298 0
M  V30 31090 C 3062.13 -0.670554 -4.4093 0
M  V30 31091 C 3062.83 -2.61326 -5.19696 0
M  V30 31092 N 3061.81 -1.89419 -5.0953 0
M  V30 31093 H 3065.61 -1.43198 -2.56654 0
M  V30 31094 H 3063.12 -0.877621 -1.36644 0
M  V30 31095 H 3065.12 0.462138 -4.14331 0
M  V30 31096 H 3063.78 0.990771 -3.09215 0
M  V30 31097 H 3064.79 -2.38659 -4.59633 0
M  V30 31098 H 3061.47 0.158943 -4.17197 0
M  V30 31099 H 3062.86 -3.59133 -5.67867 0
M  V30 31100 N 3065.58 1.36456 -0.788516 0
M  V30 31101 C 3066.83 1.99561 -0.361031 0
M  V30 31102 C 3067.16 1.62439 1.0643 0
M  V30 31103 O 3066.43 0.878736 1.73518 0
M  V30 31104 C 3066.72 3.5627 -0.523798 0
M  V30 31105 C 3066.57 4.03248 -1.99275 0
M  V30 31106 C 3067.89 4.40057 0.0617135 0
M  V30 31107 H 3065.01 0.724964 -0.132653 0
M  V30 31108 H 3067.65 1.61883 -0.994688 0
M  V30 31109 H 3065.8 3.88497 0.0156296 0
M  V30 31110 H 3067.47 3.81513 -2.59317 0
M  V30 31111 H 3065.71 3.54822 -2.49567 0
M  V30 31112 H 3066.39 5.12217 -2.05761 0
M  V30 31113 H 3068.86 4.14185 -0.398747 0
M  V30 31114 H 3067.74 5.48838 -0.0822053 0
M  V30 31115 H 3068 4.2678 1.15373 0
M  V30 31116 N 3067.06 0.540456 1.48043 0
M  V30 31117 C 3068.3 0.0102074 2.02797 0
M  V30 31118 C 3068.64 -1.32937 1.41568 0
M  V30 31119 O 3067.91 -1.86108 0.565172 0
M  V30 31120 C 3068.19 -0.100695 3.59959 0
M  V30 31121 C 3068.05 1.26479 4.31652 0
M  V30 31122 C 3069.37 -0.822379 4.32348 0
M  V30 31123 H 3066.49 0.00518347 0.736982 0
M  V30 31124 H 3069.13 0.699511 1.76655 0
M  V30 31125 H 3067.28 -0.687757 3.82364 0
M  V30 31126 H 3068.95 1.89377 4.20635 0
M  V30 31127 H 3067.19 1.84393 3.9266 0
M  V30 31128 H 3067.86 1.14008 5.40098 0
M  V30 31129 H 3070.34 -0.324091 4.14836 0
M  V30 31130 H 3069.22 -0.868898 5.41979 0
M  V30 31131 H 3069.48 -1.87494 4.00373 0
M  V30 31132 N 3068.54 -1.55163 0.276085 0
M  V30 31133 C 3069.5 -2.21264 -0.597886 0
M  V30 31134 C 3070.5 -1.1908 -1.08058 0
M  V30 31135 O 3071.69 -1.43979 -0.980601 0
M  V30 31136 C 3068.82 -2.87937 -1.82497 0
M  V30 31137 H 3070.01 -2.99893 -0.0207242 0
M  V30 31138 H 3067.57 -1.56277 0.0267097 0
M  V30 31139 H 3068.3 -2.13323 -2.44262 0
M  V30 31140 H 3068.09 -3.62819 -1.48677 0
M  V30 31141 H 3069.58 -3.38436 -2.44645 0
M  V30 31142 N 3070.01 -0.00338196 -1.576 0
M  V30 31143 C 3071.24 0.69165 -1.94997 0
M  V30 31144 C 3071.66 1.6712 -0.878434 0
M  V30 31145 O 3071.01 1.81944 0.142311 0
M  V30 31146 C 3071.06 1.42057 -3.32419 0
M  V30 31147 O 3070.79 0.480303 -4.35459 0
M  V30 31148 C 3072.29 2.2098 -3.84295 0
M  V30 31149 H 3069.51 0.192423 -0.642818 0
M  V30 31150 H 3072.05 -0.0555066 -2.04425 0
M  V30 31151 H 3070.21 2.11933 -3.24289 0
M  V30 31152 H 3070.62 0.994964 -5.14976 0
M  V30 31153 H 3072.09 2.67474 -4.82868 0
M  V30 31154 H 3072.57 3.03799 -3.17179 0
M  V30 31155 H 3073.18 1.56114 -3.95612 0
M  V30 31156 N 3071.49 1.5528 0.269423 0
M  V30 31157 C 3072.42 1.84821 1.3555 0
M  V30 31158 C 3073.44 0.732939 1.45368 0
M  V30 31159 O 3074.63 1.01083 1.47121 0
M  V30 31160 C 3071.73 1.99935 2.73641 0
M  V30 31161 C 3070.9 3.30622 2.8637 0
M  V30 31162 C 3069.96 3.35756 4.05159 0
M  V30 31163 O 3068.98 4.09111 3.95749 0
M  V30 31164 N 3070.19 2.63417 5.17293 0
M  V30 31165 H 3072.95 2.78565 1.10552 0
M  V30 31166 H 3070.51 1.55241 0.459539 0
M  V30 31167 H 3072.5 2.00736 3.51408 0
M  V30 31168 H 3071.07 1.13041 2.91446 0
M  V30 31169 H 3070.29 3.4233 1.95459 0
M  V30 31170 H 3071.58 4.16804 2.91808 0
M  V30 31171 H 3070.98 2.0351 5.27826 0
M  V30 31172 H 3069.54 2.69937 5.93277 0
M  V30 31173 N 3072.97 -0.534097 1.48274 0
M  V30 31174 C 3073.93 -1.62124 1.62013 0
M  V30 31175 C 3074.93 -1.53034 0.49368 0
M  V30 31176 O 3076.12 -1.56778 0.759364 0
M  V30 31177 C 3073.25 -3.01736 1.58645 0
M  V30 31178 H 3074.45 -1.51284 2.58946 0
M  V30 31179 H 3072 -0.755837 1.36809 0
M  V30 31180 H 3072.74 -3.18087 0.631741 0
M  V30 31181 H 3072.52 -3.09743 2.4042 0
M  V30 31182 H 3074.01 -3.80784 1.71445 0
M  V30 31183 N 3074.45 -1.36793 -0.782652 0
M  V30 31184 C 3075.68 -1.34568 -1.5716 0
M  V30 31185 C 3076.09 0.0715169 -1.88664 0
M  V30 31186 O 3075.45 1.0303 -1.50635 0
M  V30 31187 C 3075.5 -2.17365 -2.8885 0
M  V30 31188 O 3075.22 -3.53561 -2.587 0
M  V30 31189 C 3076.72 -2.22997 -3.83128 0
M  V30 31190 H 3073.94 -0.461347 -0.487237 0
M  V30 31191 H 3076.48 -1.79984 -0.970873 0
M  V30 31192 H 3074.64 -1.75487 -3.45374 0
M  V30 31193 H 3075.05 -3.96841 -3.42954 0
M  V30 31194 H 3076.53 -2.85275 -4.7257 0
M  V30 31195 H 3077 -1.23531 -4.2147 0
M  V30 31196 H 3077.61 -2.65141 -3.32536 0
M  V30 31197 N 3075.93 1.00759 -1.21184 0
M  V30 31198 C 3077.17 1.74857 -1.03906 0
M  V30 31199 C 3077.53 1.87685 0.423314 0
M  V30 31200 O 3076.82 1.39821 1.30999 0
M  V30 31201 C 3077.01 3.16155 -1.66676 0
M  V30 31202 C 3076.84 3.17104 -3.18865 0
M  V30 31203 C 3075.61 3.23831 -3.87894 0
M  V30 31204 C 3077.81 3.02427 -4.15984 0
M  V30 31205 N 3075.79 3.14379 -5.27294 0
M  V30 31206 C 3077.16 3.00844 -5.42119 0
M  V30 31207 C 3079.22 2.8671 -4.07065 0
M  V30 31208 C 3077.92 2.85155 -6.60363 0
M  V30 31209 C 3079.95 2.72377 -5.24943 0
M  V30 31210 C 3079.31 2.71468 -6.49988 0
M  V30 31211 H 3075.41 0.650158 -0.434533 0
M  V30 31212 H 3077.99 1.19778 -1.53497 0
M  V30 31213 H 3076.16 3.69509 -1.19656 0
M  V30 31214 H 3077.9 3.78734 -1.42629 0
M  V30 31215 H 3074.65 3.30921 -3.38804 0
M  V30 31216 H 3075.08 3.13002 -6.00299 0
M  V30 31217 H 3079.72 2.8622 -3.11188 0
M  V30 31218 H 3077.44 2.84392 -7.56404 0
M  V30 31219 H 3081.02 2.61219 -5.19861 0
M  V30 31220 H 3079.9 2.60507 -7.39666 0
M  V30 31221 N 3077.4 1.01917 1.20211 0
M  V30 31222 C 3078.65 0.720757 1.90202 0
M  V30 31223 C 3079.01 -0.741749 1.77527 0
M  V30 31224 O 3078.3 -1.5322 1.1504 0
M  V30 31225 C 3078.49 1.09444 3.4023 0
M  V30 31226 C 3078.32 2.59173 3.67504 0
M  V30 31227 C 3077.09 3.25996 3.86076 0
M  V30 31228 C 3079.29 3.57366 3.69857 0
M  V30 31229 N 3077.27 4.64929 4.00892 0
M  V30 31230 C 3078.64 4.81872 3.90128 0
M  V30 31231 C 3080.7 3.51302 3.52833 0
M  V30 31232 C 3079.4 6.01047 3.95139 0
M  V30 31233 C 3081.43 4.69882 3.59117 0
M  V30 31234 C 3080.79 5.93198 3.79863 0
M  V30 31235 H 3076.89 0.315455 0.71555 0
M  V30 31236 H 3079.47 1.30451 1.44536 0
M  V30 31237 H 3077.64 0.539 3.84642 0
M  V30 31238 H 3079.37 0.7493 3.97703 0
M  V30 31239 H 3076.13 2.76419 3.84564 0
M  V30 31240 H 3076.55 5.3707 4.12171 0
M  V30 31241 H 3081.2 2.56957 3.35758 0
M  V30 31242 H 3078.91 6.95771 4.1101 0
M  V30 31243 H 3082.5 4.66808 3.47249 0
M  V30 31244 H 3081.38 6.83419 3.84588 0
M  V30 31245 N 3078.88 -1.36036 0.795742 0
M  V30 31246 C 3079.81 -2.28666 0.156377 0
M  V30 31247 C 3080.83 -1.49776 -0.638049 0
M  V30 31248 O 3082.02 -1.72141 -0.472192 0
M  V30 31249 C 3079.12 -3.29289 -0.801359 0
M  V30 31250 C 3078.29 -4.37365 -0.0556349 0
M  V30 31251 C 3077.35 -5.17912 -0.930247 0
M  V30 31252 O 3076.37 -5.67895 -0.385167 0
M  V30 31253 N 3077.58 -5.34965 -2.25373 0
M  V30 31254 H 3080.34 -2.84175 0.952083 0
M  V30 31255 H 3077.9 -1.48269 0.650216 0
M  V30 31256 H 3079.89 -3.80064 -1.39044 0
M  V30 31257 H 3078.46 -2.74374 -1.49792 0
M  V30 31258 H 3077.68 -3.87669 0.714576 0
M  V30 31259 H 3078.97 -5.06728 0.458722 0
M  V30 31260 H 3078.37 -4.95981 -2.72064 0
M  V30 31261 H 3076.93 -5.8896 -2.7923 0
M  V30 31262 N 3080.36 -0.5483 -1.47755 0
M  V30 31263 C 3081.61 -0.0208898 -2.02089 0
M  V30 31264 C 3081.93 1.33014 -1.42591 0
M  V30 31265 O 3081.2 1.86554 -0.597858 0
M  V30 31266 H 3079.78 -0.00473336 -0.746985 0
M  V30 31267 H 3082.44 -0.716288 -1.8126 0
M  V30 31268 H 3081.54 0.0738468 -3.12013 0
M  V30 31269 N 3081.84 1.55014 -0.28431 0
M  V30 31270 C 3082.79 2.22887 0.599155 0
M  V30 31271 C 3083.76 1.20555 1.14262 0
M  V30 31272 O 3084.94 1.49125 1.19023 0
M  V30 31273 C 3082.08 2.96065 1.77312 0
M  V30 31274 C 3081.19 4.13136 1.26264 0
M  V30 31275 C 3080.33 4.73936 2.39913 0
M  V30 31276 C 3079.37 5.83183 1.85914 0
M  V30 31277 N 3078.5 6.38007 2.93072 0
M  V30 31278 H 3083.34 2.97997 0.0137292 0
M  V30 31279 H 3080.88 1.47099 -0.00499088 0
M  V30 31280 H 3082.84 3.36714 2.46333 0
M  V30 31281 H 3081.47 2.23362 2.33043 0
M  V30 31282 H 3080.52 3.77544 0.46523 0
M  V30 31283 H 3081.83 4.91893 0.827197 0
M  V30 31284 H 3080.99 5.17351 3.16911 0
M  V30 31285 H 3079.73 3.94475 2.86777 0
M  V30 31286 H 3078.73 5.39208 1.074 0
M  V30 31287 H 3079.96 6.64518 1.39975 0
M  V30 31288 H 3077.9 5.61437 3.39301 0
M  V30 31289 H 3077.82 7.12063 2.53974 0
M  V30 31290 H 3079.09 6.86081 3.70018 0
M  V30 31291 N 3083.32 0.0117398 1.57596 0
M  V30 31292 C 3084.54 -0.684904 1.95765 0
M  V30 31293 C 3084.97 -1.65856 0.887314 0
M  V30 31294 O 3084.32 -1.80649 -0.153476 0
M  V30 31295 C 3084.37 -1.38279 3.33033 0
M  V30 31296 O 3083.48 -2.4976 3.28167 0
M  V30 31297 H 3082.82 -0.181298 0.63877 0
M  V30 31298 H 3085.35 0.0684243 2.04486 0
M  V30 31299 H 3085.36 -1.74356 3.68869 0
M  V30 31300 H 3084.03 -0.668971 4.10485 0
M  V30 31301 H 3082.61 -2.15924 3.04025 0
M  V30 31302 N 3084.79 -1.55421 -0.261185 0
M  V30 31303 C 3085.72 -1.92121 -1.32709 0
M  V30 31304 C 3086.71 -0.784433 -1.50933 0
M  V30 31305 O 3087.89 -1.04355 -1.63779 0
M  V30 31306 C 3085.02 -2.20346 -2.68449 0
M  V30 31307 C 3083.97 -3.36141 -2.64941 0
M  V30 31308 C 3083.3 -3.49872 -4.04343 0
M  V30 31309 C 3084.6 -4.72219 -2.23174 0
M  V30 31310 H 3086.29 -2.81402 -1.0224 0
M  V30 31311 H 3083.84 -1.35393 -0.490382 0
M  V30 31312 H 3085.79 -2.44609 -3.43139 0
M  V30 31313 H 3084.52 -1.27876 -3.00525 0
M  V30 31314 H 3083.18 -3.11864 -1.92708 0
M  V30 31315 H 3082.82 -2.54848 -4.33661 0
M  V30 31316 H 3082.52 -4.27733 -4.02887 0
M  V30 31317 H 3084.05 -3.76441 -4.80754 0
M  V30 31318 H 3085.46 -4.95948 -2.87591 0
M  V30 31319 H 3083.86 -5.5308 -2.32858 0
M  V30 31320 H 3084.93 -4.70243 -1.18318 0
M  V30 31321 N 3086.27 0.526227 -1.48555 0
M  V30 31322 C 3087.24 1.61263 -1.62871 0
M  V30 31323 C 3088.24 1.5277 -0.501789 0
M  V30 31324 O 3089.43 1.56373 -0.767668 0
M  V30 31325 C 3086.56 3.0089 -1.60243 0
M  V30 31326 H 3087.75 1.49908 -2.59745 0
M  V30 31327 H 3085.3 0.748571 -1.37208 0
M  V30 31328 H 3086.04 3.17748 -0.648601 0
M  V30 31329 H 3085.82 3.08463 -2.42059 0
M  V30 31330 H 3087.31 3.79869 -1.73462 0
M  V30 31331 N 3087.75 1.37206 0.775387 0
M  V30 31332 C 3088.71 1.32504 1.87017 0
M  V30 31333 C 3089.71 0.229821 1.59149 0
M  V30 31334 O 3090.9 0.485452 1.67299 0
M  V30 31335 C 3088.04 1.05751 3.24083 0
M  V30 31336 H 3089.23 2.29881 1.926 0
M  V30 31337 H 3086.78 1.22182 0.974739 0
M  V30 31338 H 3087.52 0.0888941 3.24178 0
M  V30 31339 H 3087.3 1.85022 3.45701 0
M  V30 31340 H 3088.79 1.05101 4.04158 0
M  V30 31341 N 3089.23 -1.00115 1.21716 0
M  V30 31342 C 3090.48 -1.73605 1.03468 0
M  V30 31343 C 3090.8 -1.90149 -0.432261 0
M  V30 31344 O 3090.07 -1.45518 -1.31154 0
M  V30 31345 H 3088.65 -0.643202 0.379868 0
M  V30 31346 H 3091.31 -1.20621 1.5309 0
M  V30 31347 H 3090.41 -2.73373 1.50578 0
M  V30 31348 N 3090.71 -1.02553 -1.19669 0
M  V30 31349 C 3092.12 -0.741988 -1.41304 0
M  V30 31350 C 3092.32 0.674774 -1.89866 0
M  V30 31351 O 3091.38 1.44126 -2.07326 0
M  V30 31352 C 3092.69 -1.77527 -2.42703 0
M  V30 31353 C 3094.24 -1.79443 -2.56455 0
M  V30 31354 C 3094.72 -2.81721 -3.61106 0
M  V30 31355 N 3096.21 -2.80517 -3.68598 0
M  V30 31356 C 3096.94 -3.5631 -4.49256 0
M  V30 31357 N 3096.44 -4.41808 -5.33645 0
M  V30 31358 N 3098.23 -3.44867 -4.43873 0
M  V30 31359 H 3090.38 -1.94003 -0.864666 0
M  V30 31360 H 3092.64 -0.838553 -0.442191 0
M  V30 31361 H 3092.35 -2.79071 -2.14037 0
M  V30 31362 H 3092.22 -1.59478 -3.41828 0
M  V30 31363 H 3094.61 -0.78578 -2.84446 0
M  V30 31364 H 3094.69 -2.01566 -1.57495 0
M  V30 31365 H 3094.34 -3.82755 -3.33857 0
M  V30 31366 H 3094.27 -2.56857 -4.59709 0
M  V30 31367 H 3096.76 -2.18504 -3.08325 0
M  V30 31368 H 3097.07 -4.96388 -5.92299 0
M  V30 31369 H 3095.42 -4.45883 -5.33117 0
M  V30 31370 H 3098.61 -2.77488 -3.76985 0
M  V30 31371 H 3098.78 -4.04188 -5.06494 0
M  V30 31372 N 3092.19 1.35612 -0.802945 0
M  V30 31373 C 3093.12 2.2858 -0.168501 0
M  V30 31374 C 3094.13 1.50112 0.630097 0
M  V30 31375 O 3095.32 1.72389 0.463056 0
M  V30 31376 C 3092.42 3.2971 0.783885 0
M  V30 31377 C 3091.59 4.37388 0.0324396 0
M  V30 31378 C 3090.65 5.18398 0.902767 0
M  V30 31379 O 3089.68 5.68092 0.355044 0
M  V30 31380 N 3090.88 5.36153 2.22532 0
M  V30 31381 H 3093.64 2.83666 -0.96714 0
M  V30 31382 H 3091.21 1.47922 -0.658069 0
M  V30 31383 H 3093.2 3.80796 1.37027 0
M  V30 31384 H 3091.77 2.75165 1.48334 0
M  V30 31385 H 3090.99 3.87285 -0.735125 0
M  V30 31386 H 3092.28 5.06478 -0.485589 0
M  V30 31387 H 3091.67 4.97417 2.6943 0
M  V30 31388 H 3090.23 5.90432 2.76103 0
M  V30 31389 N 3093.66 0.556128 1.47462 0
M  V30 31390 C 3094.91 0.0295274 2.01678 0
M  V30 31391 C 3095.23 -1.32807 1.43603 0
M  V30 31392 O 3096.43 -1.94452 1.89475 0
M  V30 31393 C 3094.89 0.00230263 3.599 0
M  V30 31394 C 3094.5 1.35659 4.26967 0
M  V30 31395 C 3096.24 -0.471748 4.21871 0
M  V30 31396 C 3094.15 1.28853 5.77192 0
M  V30 31397 H 3093.08 0.0072683 0.753965 0
M  V30 31398 H 3095.73 0.703819 1.69466 0
M  V30 31399 H 3094.11 -0.737613 3.8907 0
M  V30 31400 H 3095.28 2.11413 4.0944 0
M  V30 31401 H 3093.6 1.76849 3.76979 0
M  V30 31402 H 3096.2 -0.541045 5.31956 0
M  V30 31403 H 3096.54 -1.48349 3.88971 0
M  V30 31404 H 3097.07 0.213277 3.97228 0
M  V30 31405 H 3093.81 2.27624 6.14709 0
M  V30 31406 H 3093.33 0.572773 5.97059 0
M  V30 31407 H 3095.01 0.990143 6.39379 0
M  V30 31408 N 3095.14 -1.54861 0.292527 0
M  V30 31409 C 3096.09 -2.19903 -0.602221 0
M  V30 31410 C 3097.08 -1.16925 -1.10533 0
M  V30 31411 O 3098.27 -1.42676 -1.04751 0
M  V30 31412 C 3095.4 -2.93689 -1.77769 0
M  V30 31413 C 3094.48 -4.03975 -1.29094 0
M  V30 31414 N 3094.87 -5.03104 -0.521582 0
M  V30 31415 C 3093.17 -4.17362 -1.57241 0
M  V30 31416 C 3093.87 -5.81103 -0.263443 0
M  V30 31417 N 3092.85 -5.37058 -0.840842 0
M  V30 31418 H 3096.65 -2.93899 -0.00677108 0
M  V30 31419 H 3094.16 -1.62111 0.0968889 0
M  V30 31420 H 3096.16 -3.38747 -2.43015 0
M  V30 31421 H 3094.82 -2.21207 -2.37692 0
M  V30 31422 H 3095.83 -5.1763 -0.167273 0
M  V30 31423 H 3092.51 -3.56081 -2.17974 0
M  V30 31424 H 3093.9 -6.70967 0.353901 0
M  V30 31425 N 3096.62 -0.0200973 -1.57587 0
M  V30 31426 C 3097.58 0.94973 -2.08597 0
M  V30 31427 C 3098.58 1.25984 -0.999237 0
M  V30 31428 O 3099.77 1.20168 -1.26117 0
M  V30 31429 C 3096.9 2.2689 -2.54428 0
M  V30 31430 H 3098.1 0.50811 -2.95564 0
M  V30 31431 H 3095.65 0.227771 -1.54631 0
M  V30 31432 H 3096.39 2.757 -1.70763 0
M  V30 31433 H 3096.17 2.05696 -3.33813 0
M  V30 31434 H 3097.66 2.96422 -2.94149 0
M  V30 31435 N 3098.1 1.55557 0.252939 0
M  V30 31436 C 3099.32 1.81492 1.00376 0
M  V30 31437 C 3099.75 0.596349 1.78396 0
M  V30 31438 O 3099.11 -0.454504 1.75511 0
M  V30 31439 C 3099.15 3.051 1.92215 0
M  V30 31440 O 3098.26 2.81592 3.01297 0
M  V30 31441 H 3097.6 0.599279 0.285939 0
M  V30 31442 H 3100.13 2.02733 0.275759 0
M  V30 31443 H 3100.14 3.34372 2.33794 0
M  V30 31444 H 3098.81 3.93433 1.34845 0
M  V30 31445 H 3097.39 2.63471 2.63889 0
M  V30 31446 N 3099.58 -0.518341 1.48832 0
M  V30 31447 C 3100.51 -1.63072 1.67122 0
M  V30 31448 C 3101.49 -1.61958 0.519976 0
M  V30 31449 O 3102.67 -1.78971 0.753855 0
M  V30 31450 C 3099.8 -3.01624 1.72163 0
M  V30 31451 C 3098.76 -3.17601 2.86904 0
M  V30 31452 C 3098.08 -4.5733 2.77043 0
M  V30 31453 C 3099.38 -2.99266 4.28062 0
M  V30 31454 H 3101.08 -1.48021 2.6025 0
M  V30 31455 H 3098.62 -0.710672 1.25242 0
M  V30 31456 H 3100.57 -3.79327 1.83545 0
M  V30 31457 H 3099.3 -3.17725 0.756213 0
M  V30 31458 H 3097.96 -2.42318 2.75095 0
M  V30 31459 H 3097.61 -4.70283 1.78446 0
M  V30 31460 H 3097.31 -4.68963 3.54044 0
M  V30 31461 H 3098.83 -5.37117 2.9041 0
M  V30 31462 H 3100.24 -3.66752 4.40643 0
M  V30 31463 H 3098.64 -3.22384 5.06151 0
M  V30 31464 H 3099.71 -1.95567 4.43714 0
M  V30 31465 N 3101.05 -1.37615 -0.7681 0
M  V30 31466 C 3102.28 -1.3603 -1.55498 0
M  V30 31467 C 3102.69 0.0553941 -1.89119 0
M  V30 31468 O 3102.03 1.02856 -1.52205 0
M  V30 31469 C 3102.1 -2.13744 -2.89057 0
M  V30 31470 C 3101.76 -3.62679 -2.78052 0
M  V30 31471 C 3102.76 -4.56485 -2.48833 0
M  V30 31472 C 3100.44 -4.05849 -2.95959 0
M  V30 31473 C 3102.44 -5.91438 -2.37655 0
M  V30 31474 C 3100.12 -5.40887 -2.84402 0
M  V30 31475 C 3101.12 -6.33495 -2.5529 0
M  V30 31476 O 3100.81 -7.66051 -2.43765 0
M  V30 31477 H 3100.54 -0.467529 -0.488254 0
M  V30 31478 H 3103.1 -1.81609 -0.959551 0
M  V30 31479 H 3101.33 -1.6286 -3.50733 0
M  V30 31480 H 3103.01 -2.04747 -3.50476 0
M  V30 31481 H 3103.78 -4.24441 -2.3468 0
M  V30 31482 H 3099.66 -3.34124 -3.17619 0
M  V30 31483 H 3103.2 -6.6369 -2.14853 0
M  V30 31484 H 3099.1 -5.72532 -2.98123 0
M  V30 31485 H 3099.87 -7.76412 -2.59087 0
M  V30 31486 N 3102.53 0.994677 -1.22245 0
M  V30 31487 C 3103.78 1.73054 -1.04387 0
M  V30 31488 C 3104.1 1.90375 0.422171 0
M  V30 31489 O 3103.37 1.46211 1.30381 0
M  V30 31490 H 3101.95 0.641179 -0.383274 0
M  V30 31491 H 3104.61 1.19808 -1.53728 0
M  V30 31492 H 3103.71 2.7257 -1.52026 0
M  V30 31493 N 3104.01 1.03186 1.19123 0
M  V30 31494 C 3105.43 0.749471 1.40908 0
M  V30 31495 C 3105.63 -0.664695 1.90221 0
M  V30 31496 O 3104.68 -1.43024 2.08087 0
M  V30 31497 C 3105.99 1.78811 2.41758 0
M  V30 31498 C 3107.54 1.808 2.555 0
M  V30 31499 C 3108.02 2.83632 3.59607 0
M  V30 31500 N 3109.51 2.82468 3.67105 0
M  V30 31501 C 3110.24 3.58688 4.4736 0
M  V30 31502 N 3109.74 4.44632 5.31295 0
M  V30 31503 N 3111.53 3.47216 4.42038 0
M  V30 31504 H 3103.68 1.94459 0.854365 0
M  V30 31505 H 3105.95 0.840886 0.437738 0
M  V30 31506 H 3105.65 2.80203 2.12554 0
M  V30 31507 H 3105.53 1.61289 3.40978 0
M  V30 31508 H 3107.91 0.800853 2.84025 0
M  V30 31509 H 3107.99 2.02399 1.56424 0
M  V30 31510 H 3107.64 3.8452 3.31823 0
M  V30 31511 H 3107.57 2.59291 4.5834 0
M  V30 31512 H 3110.06 2.20136 3.07162 0
M  V30 31513 H 3110.37 4.99522 5.89659 0
M  V30 31514 H 3108.72 4.48704 5.30745 0
M  V30 31515 H 3111.91 2.79484 3.75508 0
M  V30 31516 H 3112.08 4.06868 5.04343 0
M  V30 31517 N 3105.49 -1.35184 0.810125 0
M  V30 31518 C 3106.74 -1.97921 0.388624 0
M  V30 31519 C 3107.05 -1.6498 -1.05076 0
M  V30 31520 O 3108.26 -2.21108 -1.57555 0
M  V30 31521 C 3106.71 -3.54093 0.643926 0
M  V30 31522 C 3106.32 -3.9594 2.09609 0
M  V30 31523 C 3108.06 -4.23522 0.287958 0
M  V30 31524 C 3105.97 -5.44972 2.29695 0
M  V30 31525 H 3104.9 -0.740589 0.141575 0
M  V30 31526 H 3107.55 -1.54202 0.99468 0
M  V30 31527 H 3105.93 -3.95987 -0.0321282 0
M  V30 31528 H 3107.11 -3.65187 2.81025 0
M  V30 31529 H 3105.42 -3.3941 2.41226 0
M  V30 31530 H 3108.02 -5.33079 0.416039 0
M  V30 31531 H 3108.36 -4.09188 -0.766233 0
M  V30 31532 H 3108.9 -3.87061 0.918072 0
M  V30 31533 H 3105.64 -5.64278 3.33573 0
M  V30 31534 H 3105.16 -5.77281 1.62808 0
M  V30 31535 H 3106.83 -6.11482 2.11422 0
M  V30 31536 N 3106.97 -0.56394 -1.47165 0
M  V30 31537 C 3107.93 0.169583 -2.28572 0
M  V30 31538 C 3108.93 0.836443 -1.37333 0
M  V30 31539 O 3110.12 0.691272 -1.59897 0
M  V30 31540 C 3107.25 1.2488 -3.17203 0
M  V30 31541 H 3108.44 -0.545591 -2.94895 0
M  V30 31542 H 3106 -0.321148 -1.52965 0
M  V30 31543 H 3106.73 1.99616 -2.55585 0
M  V30 31544 H 3106.52 0.775358 -3.84357 0
M  V30 31545 H 3108.01 1.76381 -3.78523 0
M  V30 31546 N 3108.44 1.54704 -0.300735 0
M  V30 31547 C 3109.41 2.22188 0.562609 0
M  V30 31548 C 3110.41 1.20784 1.0615 0
M  V30 31549 O 3111.6 1.45521 0.957571 0
M  V30 31550 C 3108.73 2.90804 1.77894 0
M  V30 31551 H 3109.92 2.99888 -0.0269888 0
M  V30 31552 H 3107.48 1.56215 -0.0515687 0
M  V30 31553 H 3108.21 2.17182 2.40837 0
M  V30 31554 H 3108 3.65138 1.42886 0
M  V30 31555 H 3109.49 3.42285 2.3923 0
M  V30 31556 N 3109.92 0.0284543 1.57574 0
M  V30 31557 C 3111.17 -0.649046 1.91394 0
M  V30 31558 C 3111.49 -1.72706 0.905399 0
M  V30 31559 O 3110.76 -1.95828 -0.0531763 0
M  V30 31560 H 3109.34 -0.242727 0.706465 0
M  V30 31561 H 3112 0.0761002 1.94751 0
M  V30 31562 H 3111.1 -1.10221 2.91989 0
M  V30 31563 N 3111.4 -1.55689 -0.244686 0
M  V30 31564 C 3112.36 -1.89697 -1.28637 0
M  V30 31565 C 3113.36 -0.773608 -1.40968 0
M  V30 31566 O 3114.55 -1.04158 -1.39631 0
M  V30 31567 C 3111.69 -2.12737 -2.66375 0
M  V30 31568 H 3112.88 -2.82843 -0.996983 0
M  V30 31569 H 3110.43 -1.48615 -0.484077 0
M  V30 31570 H 3111.17 -1.22067 -3.0045 0
M  V30 31571 H 3110.95 -2.94553 -2.58806 0
M  V30 31572 H 3112.44 -2.40224 -3.41588 0
M  V30 31573 N 3112.88 0.510441 -1.49105 0
M  V30 31574 C 3113.79 1.63957 -1.67795 0
M  V30 31575 C 3114.8 1.64726 -0.560483 0
M  V30 31576 O 3115.98 1.8332 -0.834017 0
M  V30 31577 C 3113.05 3.00361 -1.7316 0
M  V30 31578 C 3112.11 3.10294 -2.96675 0
M  V30 31579 C 3111.34 4.40191 -3.01774 0
M  V30 31580 O 3111.56 5.28439 -2.14729 0
M  V30 31581 O 3110.5 4.54899 -3.94145 0
M  V30 31582 H 3114.32 1.51122 -2.63431 0
M  V30 31583 H 3111.91 0.685696 -1.32735 0
M  V30 31584 H 3113.79 3.81448 -1.79096 0
M  V30 31585 H 3112.46 3.13479 -0.807007 0
M  V30 31586 H 3111.37 2.28429 -2.96261 0
M  V30 31587 H 3112.7 3.02099 -3.88583 0
M  V30 31588 N 3114.36 1.38021 0.760791 0
M  V30 31589 C 3115.3 1.34774 1.89575 0
M  V30 31590 C 3116.3 0.234744 1.67766 0
M  V30 31591 O 3117.5 0.403383 1.75422 0
M  V30 31592 H 3113.88 0.420269 0.623601 0
M  V30 31593 H 3115.85 2.30562 1.8943 0
M  V30 31594 C 3114.6 1.18252 3.26974 0
M  V30 31595 H 3113.92 2.03153 3.44338 0
M  V30 31596 H 3115.36 1.20033 4.06655 0
M  V30 31597 C 3113.82 -0.111086 3.36717 0
M  V30 31598 O 3114.35 -1.09072 3.86608 0
M  V30 31599 N 3112.56 -0.165491 2.90128 0
M  V30 31600 H 3112.1 0.632372 2.49717 0
M  V30 31601 H 3112.06 -1.03062 2.97028 0
M  V30 31602 N 3115.83 -0.98818 1.22771 0
M  V30 31603 C 3117.25 -1.54293 1.05122 0
M  V30 31604 C 3117.6 -1.92408 -0.38387 0
M  V30 31605 O 3116.72 -1.75249 -1.26952 0
M  V30 31606 C 3117.32 -2.80372 1.90203 0
M  V30 31607 C 3115.88 -3.32273 1.76837 0
M  V30 31608 C 3115.02 -2.05323 1.86381 0
M  V30 31609 H 3117.97 -0.808734 1.36547 0
M  V30 31610 H 3117.99 -3.52921 1.42222 0
M  V30 31611 H 3117.51 -2.52599 2.94644 0
M  V30 31612 H 3115.61 -3.64943 0.751476 0
M  V30 31613 H 3115.72 -4.02557 2.59778 0
M  V30 31614 H 3114.08 -2.191 1.29873 0
M  V30 31615 H 3114.87 -1.79941 2.92363 0
M  V30 31616 N 3117.31 -1.03816 -1.18575 0
M  V30 31617 C 3118.22 -0.637351 -2.25776 0
M  V30 31618 C 3119.24 0.335218 -1.7074 0
M  V30 31619 O 3120.41 0.190774 -2.00494 0
M  V30 31620 C 3117.48 -0.00393047 -3.467 0
M  V30 31621 C 3116.54 -1.02518 -4.16879 0
M  V30 31622 C 3115.77 -0.421896 -5.3203 0
M  V30 31623 O 3116 0.772599 -5.65143 0
M  V30 31624 O 3114.93 -1.14935 -5.90824 0
M  V30 31625 H 3118.76 -1.53041 -2.62321 0
M  V30 31626 H 3116.34 -0.808892 -1.25608 0
M  V30 31627 H 3118.22 0.348799 -4.19954 0
M  V30 31628 H 3116.9 0.862993 -3.11984 0
M  V30 31629 H 3115.81 -1.42966 -3.45704 0
M  V30 31630 H 3117.14 -1.86279 -4.55589 0
M  V30 31631 N 3118.79 1.34753 -0.817283 0
M  V30 31632 C 3120.2 1.80887 -0.462247 0
M  V30 31633 C 3120.55 1.67795 1.01682 0
M  V30 31634 O 3119.68 1.21471 1.79092 0
M  V30 31635 C 3120.27 3.28419 -0.832262 0
M  V30 31636 C 3118.83 3.72655 -0.529675 0
M  V30 31637 C 3117.98 2.56563 -1.05218 0
M  V30 31638 H 3120.93 1.22579 -1.00797 0
M  V30 31639 H 3120.95 3.80264 -0.13387 0
M  V30 31640 H 3120.46 3.37915 -1.90879 0
M  V30 31641 H 3118.56 3.687 0.537678 0
M  V30 31642 H 3118.68 4.67004 -1.06979 0
M  V30 31643 H 3117.04 2.50251 -0.473993 0
M  V30 31644 H 3117.82 2.68832 -2.13505 0
M  V30 31645 N 3120.27 0.571737 1.46864 0
M  V30 31646 C 3121.52 0.0530378 2.0203 0
M  V30 31647 C 3121.84 -1.30729 1.44689 0
M  V30 31648 O 3121.11 -1.85579 0.627461 0
M  V30 31649 H 3119.69 0.0166166 0.746815 0
M  V30 31650 H 3122.35 0.745035 1.80098 0
M  V30 31651 H 3121.45 -0.0241989 3.12091 0
M  V30 31652 N 3121.75 -1.54542 0.308935 0
M  V30 31653 C 3123.16 -1.59539 -0.0441993 0
M  V30 31654 C 3123.36 -1.32578 -1.51741 0
M  V30 31655 O 3122.42 -1.10306 -2.27132 0
M  V30 31656 C 3123.73 -2.98527 0.360878 0
M  V30 31657 C 3125.28 -3.11458 0.310307 0
M  V30 31658 C 3125.76 -4.52768 0.690325 0
M  V30 31659 N 3127.25 -4.58713 0.643165 0
M  V30 31660 C 3127.98 -5.6614 0.909583 0
M  V30 31661 N 3127.48 -6.81569 1.24238 0
M  V30 31662 N 3129.27 -5.55847 0.836116 0
M  V30 31663 H 3121.42 -1.70327 1.26896 0
M  V30 31664 H 3123.68 -0.795914 0.515 0
M  V30 31665 H 3123.39 -3.23206 1.38674 0
M  V30 31666 H 3123.26 -3.76148 -0.281496 0
M  V30 31667 H 3125.65 -2.86522 -0.706325 0
M  V30 31668 H 3125.73 -2.35974 0.987414 0
M  V30 31669 H 3125.38 -4.78434 1.7048 0
M  V30 31670 H 3125.31 -5.26599 -0.00893818 0
M  V30 31671 H 3127.8 -3.75807 0.397204 0
M  V30 31672 H 3128.11 -7.59427 1.43143 0
M  V30 31673 H 3126.46 -6.83102 1.2805 0
M  V30 31674 H 3129.65 -4.64546 0.575718 0
M  V30 31675 H 3129.82 -6.39484 1.04711 0
M  V30 31676 N 3123.23 -0.0368104 -1.57557 0
M  V30 31677 C 3124.46 0.64919 -1.96135 0
M  V30 31678 C 3124.86 1.65752 -0.912308 0
M  V30 31679 O 3124.21 1.83349 0.113536 0
M  V30 31680 C 3124.27 1.40539 -3.30891 0
M  V30 31681 C 3123.93 0.55453 -4.53623 0
M  V30 31682 C 3124.93 -0.173401 -5.19611 0
M  V30 31683 C 3122.61 0.489672 -4.99907 0
M  V30 31684 C 3124.61 -0.954781 -6.30208 0
M  V30 31685 C 3122.3 -0.295407 -6.10386 0
M  V30 31686 C 3123.29 -1.01633 -6.75396 0
M  V30 31687 O 3122.98 -1.78853 -7.83752 0
M  V30 31688 H 3122.71 0.183332 -0.650665 0
M  V30 31689 H 3125.27 -0.0951873 -2.05179 0
M  V30 31690 H 3123.5 2.19508 -3.1836 0
M  V30 31691 H 3125.19 1.98024 -3.54318 0
M  V30 31692 H 3125.95 -0.132675 -4.84818 0
M  V30 31693 H 3121.83 1.04038 -4.49107 0
M  V30 31694 H 3125.38 -1.51801 -6.80884 0
M  V30 31695 H 3121.27 -0.337823 -6.44615 0
M  V30 31696 H 3122.04 -1.70912 -8.00457 0
M  V30 31697 N 3124.7 1.55817 0.236426 0
M  V30 31698 C 3125.95 1.77786 0.961079 0
M  V30 31699 C 3126.27 0.60268 1.85453 0
M  V30 31700 O 3125.54 -0.381104 1.92157 0
M  V30 31701 H 3124.12 0.655703 0.357859 0
M  V30 31702 H 3126.78 1.93266 0.251854 0
M  V30 31703 H 3125.88 2.69348 1.57665 0
M  V30 31704 N 3126.18 -0.502526 1.49373 0
M  V30 31705 C 3127.43 -1.25427 1.5847 0
M  V30 31706 C 3127.75 -1.93085 0.272626 0
M  V30 31707 O 3127.02 -1.82662 -0.707915 0
M  V30 31708 H 3125.6 -0.46594 0.583874 0
M  V30 31709 H 3128.26 -0.582535 1.85991 0
M  V30 31710 H 3127.36 -2.01901 2.37996 0
M  V30 31711 N 3127.66 -1.38422 -0.75346 0
M  V30 31712 C 3128.57 -1.37896 -1.89795 0
M  V30 31713 C 3129.59 -0.276053 -1.71796 0
M  V30 31714 O 3130.76 -0.514498 -1.94717 0
M  V30 31715 C 3127.83 -1.2029 -3.25163 0
M  V30 31716 C 3126.89 -2.40386 -3.55687 0
M  V30 31717 C 3126.12 -2.23611 -4.84597 0
M  V30 31718 O 3126.34 -1.22988 -5.56983 0
M  V30 31719 O 3125.28 -3.12203 -5.146 0
M  V30 31720 H 3129.1 -2.34329 -1.93193 0
M  V30 31721 H 3126.69 -1.19343 -0.898754 0
M  V30 31722 H 3128.57 -1.12532 -4.06097 0
M  V30 31723 H 3127.25 -0.269409 -3.22577 0
M  V30 31724 H 3126.15 -2.53718 -2.74914 0
M  V30 31725 H 3127.49 -3.32366 -3.63034 0
M  V30 31726 N 3129.14 0.981655 -1.23294 0
M  V30 31727 C 3130.38 1.72533 -1.06585 0
M  V30 31728 C 3130.72 1.90109 0.396505 0
M  V30 31729 O 3129.99 1.45245 1.29361 0
M  V30 31730 C 3130.27 3.12434 -1.79045 0
M  V30 31731 C 3130.13 3.02435 -3.32946 0
M  V30 31732 C 3131.45 4.11829 -1.55193 0
M  V30 31733 H 3128.57 0.626229 -0.388596 0
M  V30 31734 H 3131.21 1.14291 -1.51781 0
M  V30 31735 H 3129.36 3.62156 -1.40625 0
M  V30 31736 H 3131.03 2.60247 -3.80879 0
M  V30 31737 H 3129.27 2.38971 -3.62043 0
M  V30 31738 H 3129.94 4.01483 -3.78834 0
M  V30 31739 H 3132.42 3.7091 -1.88587 0
M  V30 31740 H 3131.3 5.07812 -2.08371 0
M  V30 31741 H 3131.56 4.39409 -0.487002 0
M  V30 31742 N 3130.62 1.04444 1.18022 0
M  V30 31743 C 3131.58 0.643174 2.19991 0
M  V30 31744 C 3132.58 -0.301416 1.5795 0
M  V30 31745 O 3133.77 -0.0863035 1.73986 0
M  V30 31746 C 3130.9 -0.0564609 3.40853 0
M  V30 31747 H 3132.09 1.54559 2.57005 0
M  V30 31748 H 3129.65 0.837432 1.31973 0
M  V30 31749 H 3130.38 -0.972499 3.09375 0
M  V30 31750 H 3130.17 0.622507 3.87127 0
M  V30 31751 H 3131.66 -0.323579 4.16344 0
M  V30 31752 N 3132.09 -1.34317 0.824418 0
M  V30 31753 C 3133.34 -1.98533 0.413814 0
M  V30 31754 C 3133.67 -1.65203 -1.02086 0
M  V30 31755 O 3132.95 -0.924432 -1.71127 0
M  V30 31756 C 3133.23 -3.54756 0.618073 0
M  V30 31757 C 3133.08 -3.97823 2.09897 0
M  V30 31758 C 3134.4 -4.40066 0.0549815 0
M  V30 31759 H 3131.52 -0.721192 0.151828 0
M  V30 31760 H 3134.16 -1.59188 1.03726 0
M  V30 31761 H 3132.31 -3.88402 0.087379 0
M  V30 31762 H 3133.99 -3.74504 2.69341 0
M  V30 31763 H 3132.23 -3.4808 2.58887 0
M  V30 31764 H 3132.9 -5.06582 2.19269 0
M  V30 31765 H 3135.38 -4.12982 0.508421 0
M  V30 31766 H 3134.25 -5.48428 0.227691 0
M  V30 31767 H 3134.51 -4.29689 -1.04017 0
M  V30 31768 N 3133.57 -0.579517 -1.46558 0
M  V30 31769 C 3134.82 -0.063972 -2.02699 0
M  V30 31770 C 3135.15 1.29137 -1.45043 0
M  V30 31771 O 3134.43 1.84544 -0.614316 0
M  V30 31772 C 3134.71 0.00522288 -3.601 0
M  V30 31773 C 3134.56 -1.37879 -4.28146 0
M  V30 31774 C 3135.88 0.70746 -4.34377 0
M  V30 31775 H 3133 -0.0247214 -0.736585 0
M  V30 31776 H 3135.64 -0.746102 -1.74738 0
M  V30 31777 H 3133.79 0.586138 -3.84053 0
M  V30 31778 H 3135.46 -2.00462 -4.15467 0
M  V30 31779 H 3133.71 -1.94739 -3.87633 0
M  V30 31780 H 3134.38 -1.28288 -5.36886 0
M  V30 31781 H 3136.85 0.213991 -4.15549 0
M  V30 31782 H 3135.73 0.724896 -5.44092 0
M  V30 31783 H 3135.99 1.76813 -4.05203 0
M  V30 31784 N 3135.05 1.54376 -0.317127 0
M  V30 31785 C 3136.28 2.04864 0.289522 0
M  V30 31786 C 3136.69 1.19361 1.46282 0
M  V30 31787 O 3136.05 0.222827 1.81135 0
M  V30 31788 C 3136.1 3.54048 0.73021 0
M  V30 31789 O 3135.82 4.36303 -0.396402 0
M  V30 31790 C 3137.32 4.20601 1.40034 0
M  V30 31791 H 3134.54 0.66826 0.0605719 0
M  V30 31792 H 3137.09 1.99226 -0.461446 0
M  V30 31793 H 3135.24 3.59995 1.43117 0
M  V30 31794 H 3135.66 5.24476 -0.0503823 0
M  V30 31795 H 3137.13 5.26458 1.65969 0
M  V30 31796 H 3137.61 3.7132 2.34559 0
M  V30 31797 H 3138.21 4.18775 0.742132 0
M  V30 31798 N 3136.53 0.0451655 1.57535 0
M  V30 31799 C 3137.78 -0.628709 1.92072 0
M  V30 31800 C 3138.1 -1.71736 0.923666 0
M  V30 31801 O 3137.37 -1.95873 -0.0324032 0
M  V30 31802 H 3135.95 -0.235221 0.708999 0
M  V30 31803 H 3138.61 0.096752 1.9466 0
M  V30 31804 H 3137.71 -1.07117 2.93142 0
M  V30 31805 N 3138.01 -1.5594 -0.228159 0
M  V30 31806 C 3138.97 -1.91051 -1.26618 0
M  V30 31807 C 3139.97 -0.788516 -1.40139 0
M  V30 31808 O 3141.16 -1.05633 -1.38518 0
M  V30 31809 C 3138.29 -2.1555 -2.64104 0
M  V30 31810 H 3139.48 -2.83885 -0.966928 0
M  V30 31811 H 3137.04 -1.4912 -0.468287 0
M  V30 31812 H 3137.77 -1.25247 -2.99138 0
M  V30 31813 H 3137.56 -2.97282 -2.55668 0
M  V30 31814 H 3139.05 -2.43833 -3.39021 0
M  V30 31815 N 3139.48 0.494597 -1.49638 0
M  V30 31816 C 3140.71 1.27688 -1.63433 0
M  V30 31817 C 3141.13 1.85559 -0.308163 0
M  V30 31818 O 3140.49 1.66171 0.725054 0
M  V30 31819 C 3140.54 2.37835 -2.71048 0
M  V30 31820 O 3139.64 3.41858 -2.30666 0
M  V30 31821 H 3138.99 0.376688 -0.546811 0
M  V30 31822 H 3141.52 0.591378 -1.95867 0
M  V30 31823 H 3141.53 2.83503 -2.93411 0
M  V30 31824 H 3140.2 1.95082 -3.67309 0
M  V30 31825 H 3138.78 3.02065 -2.18658 0
M  V30 31826 N 3140.96 1.3882 0.746109 0
M  V30 31827 C 3141.91 1.3665 1.85998 0
M  V30 31828 C 3142.88 0.227878 1.64529 0
M  V30 31829 O 3144.06 0.421273 1.86091 0
M  V30 31830 C 3141.2 1.2048 3.23386 0
M  V30 31831 C 3140.32 2.43793 3.56636 0
M  V30 31832 C 3139.45 2.20296 4.83367 0
M  V30 31833 C 3138.49 3.39341 5.09425 0
M  V30 31834 N 3137.63 3.15231 6.27354 0
M  V30 31835 H 3142.47 2.31872 1.87188 0
M  V30 31836 H 3140.01 1.15193 0.914817 0
M  V30 31837 H 3141.96 1.09119 4.02677 0
M  V30 31838 H 3140.59 0.288931 3.21504 0
M  V30 31839 H 3139.65 2.65799 2.72131 0
M  V30 31840 H 3140.96 3.32496 3.71817 0
M  V30 31841 H 3140.11 2.06113 5.70616 0
M  V30 31842 H 3138.85 1.28969 4.70338 0
M  V30 31843 H 3137.86 3.54034 4.20642 0
M  V30 31844 H 3139.08 4.31553 5.24346 0
M  V30 31845 H 3137.03 2.26559 6.15635 0
M  V30 31846 H 3136.94 3.97487 6.43071 0
M  V30 31847 H 3138.21 3.0472 7.17472 0
M  V30 31848 N 3142.44 -0.975103 1.23812 0
M  V30 31849 C 3143.69 -1.71371 1.07127 0
M  V30 31850 C 3144.01 -1.91023 -0.391831 0
M  V30 31851 O 3143.28 -1.48267 -1.28038 0
M  V30 31852 H 3141.86 -0.635 0.393426 0
M  V30 31853 H 3144.52 -1.17347 1.55614 0
M  V30 31854 H 3143.62 -2.70117 1.56343 0
M  V30 31855 N 3143.92 -1.05068 -1.17467 0
M  V30 31856 C 3145.14 -0.780332 -1.9216 0
M  V30 31857 C 3145.57 0.657801 -1.76223 0
M  V30 31858 O 3144.93 1.45686 -1.07913 0
M  V30 31859 C 3144.97 -1.1642 -3.4129 0
M  V30 31860 O 3144.08 -0.295603 -4.11339 0
M  V30 31861 H 3143.42 -0.286268 -0.599122 0
M  V30 31862 H 3145.95 -1.4032 -1.48901 0
M  V30 31863 H 3145.96 -1.13043 -3.92027 0
M  V30 31864 H 3144.63 -2.21181 -3.5221 0
M  V30 31865 H 3143.21 -0.389863 -3.70856 0
M  V30 31866 N 3145.4 1.33878 -0.831529 0
M  V30 31867 C 3146.65 1.97277 -0.420062 0
M  V30 31868 C 3146.96 1.66631 1.02438 0
M  V30 31869 O 3148.16 2.23586 1.54017 0
M  V30 31870 C 3146.62 3.53023 -0.700178 0
M  V30 31871 C 3146.23 3.92555 -2.15881 0
M  V30 31872 C 3147.97 4.2301 -0.3553 0
M  V30 31873 C 3145.88 5.41248 -2.38336 0
M  V30 31874 H 3144.81 0.738243 -0.153339 0
M  V30 31875 H 3147.46 1.526 -1.01909 0
M  V30 31876 H 3145.84 3.95988 -0.030874 0
M  V30 31877 H 3147.02 3.6067 -2.86799 0
M  V30 31878 H 3145.33 3.35529 -2.46596 0
M  V30 31879 H 3147.93 5.3235 -0.500795 0
M  V30 31880 H 3148.27 4.10355 0.701038 0
M  V30 31881 H 3148.8 3.85552 -0.979534 0
M  V30 31882 H 3145.54 5.589 -3.42508 0
M  V30 31883 H 3145.06 5.74618 -1.71972 0
M  V30 31884 H 3146.74 6.08041 -2.21123 0
M  V30 31885 N 3146.87 0.587281 1.46249 0
M  V30 31886 C 3147.84 -0.133198 2.28813 0
M  V30 31887 C 3148.84 -0.814489 1.38646 0
M  V30 31888 O 3150.03 -0.665746 1.60977 0
M  V30 31889 C 3147.16 -1.19818 3.1915 0
M  V30 31890 H 3148.35 0.592437 2.9399 0
M  V30 31891 H 3145.91 0.345443 1.52435 0
M  V30 31892 H 3146.64 -1.95525 2.58729 0
M  V30 31893 H 3146.43 -0.714112 3.85542 0
M  V30 31894 H 3147.92 -1.70337 3.81281 0
M  V30 31895 N 3148.35 -1.54206 0.325309 0
M  V30 31896 C 3149.32 -2.23055 -0.527189 0
M  V30 31897 C 3150.32 -1.22458 -1.04215 0
M  V30 31898 O 3151.51 -1.47026 -0.934299 0
M  V30 31899 C 3148.64 -2.93597 -1.73245 0
M  V30 31900 H 3149.83 -2.99807 0.074695 0
M  V30 31901 H 3147.38 -1.56113 0.0764146 0
M  V30 31902 H 3148.12 -2.20986 -2.37352 0
M  V30 31903 H 3147.9 -3.67365 -1.37059 0
M  V30 31904 H 3149.39 -3.46047 -2.33754 0
M  V30 31905 N 3149.83 -0.0535194 -1.57509 0
M  V30 31906 C 3151.06 0.63276 -1.97512 0
M  V30 31907 C 3151.48 1.63446 -0.930976 0
M  V30 31908 O 3150.84 1.80993 0.105526 0
M  V30 31909 C 3150.89 1.29401 -3.36582 0
M  V30 31910 O 3149.99 2.40971 -3.34674 0
M  V30 31911 H 3149.33 0.164298 -0.643352 0
M  V30 31912 H 3151.86 -0.122616 -2.04232 0
M  V30 31913 H 3151.87 1.64514 -3.73362 0
M  V30 31914 H 3150.55 0.559903 -4.12114 0
M  V30 31915 H 3149.12 2.07787 -3.09643 0
M  V30 31916 N 3151.31 1.56059 0.219886 0
M  V30 31917 C 3152.56 1.79414 0.945431 0
M  V30 31918 C 3152.89 0.623443 1.83921 0
M  V30 31919 O 3152.16 -0.377223 1.90807 0
M  V30 31920 C 3152.45 3.12863 1.78294 0
M  V30 31921 C 3152.3 4.40384 0.915549 0
M  V30 31922 C 3153.62 3.42769 2.76039 0
M  V30 31923 H 3150.74 0.652699 0.342277 0
M  V30 31924 H 3153.38 1.88789 0.214202 0
M  V30 31925 H 3151.53 3.05002 2.40637 0
M  V30 31926 H 3153.2 4.60266 0.308739 0
M  V30 31927 H 3151.44 4.33236 0.221047 0
M  V30 31928 H 3152.12 5.302 1.53597 0
M  V30 31929 H 3154.59 3.50768 2.23832 0
M  V30 31930 H 3153.47 4.3731 3.3174 0
M  V30 31931 H 3153.73 2.65018 3.53861 0
M  V30 31932 N 3152.79 -0.486655 1.49898 0
M  V30 31933 C 3154.03 -1.24167 1.60344 0
M  V30 31934 C 3154.37 -1.91935 0.295727 0
M  V30 31935 O 3153.64 -1.81399 -0.701756 0
M  V30 31936 C 3153.92 -2.2975 2.77285 0
M  V30 31937 C 3153.78 -1.6639 4.17893 0
M  V30 31938 C 3155.1 -3.31196 2.89823 0
M  V30 31939 H 3152.22 -0.450073 0.583612 0
M  V30 31940 H 3154.86 -0.537702 1.82233 0
M  V30 31941 H 3153.01 -2.89792 2.58753 0
M  V30 31942 H 3154.68 -1.10065 4.47977 0
M  V30 31943 H 3152.92 -0.967505 4.22873 0
M  V30 31944 H 3153.59 -2.4304 4.95616 0
M  V30 31945 H 3156.07 -2.81161 3.06737 0
M  V30 31946 H 3154.95 -4.02418 3.73297 0
M  V30 31947 H 3155.21 -3.94387 1.99777 0
M  V30 31948 N 3154.27 -1.39214 -0.738737 0
M  V30 31949 C 3155.23 -1.37415 -1.83438 0
M  V30 31950 C 3156.23 -0.271936 -1.58484 0
M  V30 31951 O 3157.42 -0.529638 -1.65953 0
M  V30 31952 C 3154.55 -1.14306 -3.21165 0
M  V30 31953 H 3155.74 -2.34907 -1.86437 0
M  V30 31954 H 3153.3 -1.24724 -0.942002 0
M  V30 31955 H 3154.03 -0.174813 -3.23828 0
M  V30 31956 H 3153.82 -1.94122 -3.40674 0
M  V30 31957 H 3155.31 -1.1578 -4.01229 0
M  V30 31958 N 3155.74 0.968523 -1.24328 0
M  V30 31959 C 3157.16 1.23699 -1.00849 0
M  V30 31960 C 3157.36 1.995 0.2832 0
M  V30 31961 O 3156.42 2.31873 0.999567 0
M  V30 31962 C 3157.73 2.02494 -2.22299 0
M  V30 31963 C 3159.28 2.15589 -2.26915 0
M  V30 31964 C 3159.75 2.97778 -3.47983 0
M  V30 31965 N 3161.24 3.05361 -3.48295 0
M  V30 31966 C 3161.98 3.69311 -4.38631 0
M  V30 31967 N 3161.47 4.34986 -5.39221 0
M  V30 31968 N 3163.27 3.66314 -4.26345 0
M  V30 31969 H 3155.42 0.461051 -2.07336 0
M  V30 31970 H 3157.68 0.266364 -0.90981 0
M  V30 31971 H 3157.39 1.54183 -3.16102 0
M  V30 31972 H 3157.26 3.03228 -2.2435 0
M  V30 31973 H 3159.65 2.63104 -1.33643 0
M  V30 31974 H 3159.73 1.14205 -2.2889 0
M  V30 31975 H 3159.37 2.50958 -4.41568 0
M  V30 31976 H 3159.3 3.99358 -3.43251 0
M  V30 31977 H 3161.79 2.58643 -2.75522 0
M  V30 31978 H 3162.11 4.81598 -6.04387 0
M  V30 31979 H 3160.45 4.33657 -5.43108 0
M  V30 31980 H 3163.64 3.14183 -3.46997 0
M  V30 31981 H 3163.82 4.1587 -4.96947 0
M  V30 31982 N 3157.22 1.0569 1.16908 0
M  V30 31983 C 3158.15 0.683442 2.23274 0
M  V30 31984 C 3159.13 -0.321176 1.6704 0
M  V30 31985 O 3160.32 -0.197657 1.93192 0
M  V30 31986 C 3157.45 0.0626616 3.47243 0
M  V30 31987 C 3156.4 0.992586 4.16331 0
M  V30 31988 C 3155.73 0.235424 5.34181 0
M  V30 31989 C 3157.03 2.31894 4.67998 0
M  V30 31990 H 3158.72 1.57269 2.54768 0
M  V30 31991 H 3156.27 0.757627 1.22458 0
M  V30 31992 H 3158.22 -0.210429 4.20874 0
M  V30 31993 H 3156.94 -0.861561 3.15031 0
M  V30 31994 H 3155.6 1.25032 3.44619 0
M  V30 31995 H 3155.25 -0.691722 4.98221 0
M  V30 31996 H 3154.95 0.855104 5.81345 0
M  V30 31997 H 3156.48 -0.0302644 6.10592 0
M  V30 31998 H 3157.89 2.10541 5.33241 0
M  V30 31999 H 3156.29 2.89305 5.25759 0
M  V30 32000 H 3157.36 2.95398 3.84536 0
M  V30 32001 N 3158.7 -1.33435 0.838617 0
M  V30 32002 C 3159.63 -2.31733 0.286713 0
M  V30 32003 C 3160.61 -1.58961 -0.605423 0
M  V30 32004 O 3161.8 -1.86855 -0.529026 0
M  V30 32005 C 3158.93 -3.43088 -0.539251 0
M  V30 32006 C 3157.88 -4.27227 0.257072 0
M  V30 32007 C 3157.21 -5.30195 -0.692625 0
M  V30 32008 C 3158.51 -5.01069 1.474 0
M  V30 32009 H 3160.2 -2.78142 1.10803 0
M  V30 32010 H 3157.75 -1.33722 0.534259 0
M  V30 32011 H 3159.7 -4.10881 -0.935652 0
M  V30 32012 H 3158.42 -2.95367 -1.39378 0
M  V30 32013 H 3157.08 -3.61058 0.63503 0
M  V30 32014 H 3156.73 -4.78731 -1.54354 0
M  V30 32015 H 3156.43 -5.87371 -0.16392 0
M  V30 32016 H 3157.95 -6.00855 -1.08655 0
M  V30 32017 H 3159.37 -5.61632 1.15077 0
M  V30 32018 H 3157.76 -5.67895 1.93947 0
M  V30 32019 H 3158.83 -4.29857 2.2439 0
M  V30 32020 N 3160.18 -0.595029 -1.45935 0
M  V30 32021 C 3161.45 -0.0179092 -1.95592 0
M  V30 32022 C 3161.83 1.4464 -1.53761 0
M  V30 32023 O 3161.18 2.14256 -0.794142 0
M  V30 32024 C 3161.39 -0.202851 -3.4841 0
M  V30 32025 C 3162.74 -0.0770867 -4.2453 0
M  V30 32026 O 3163.76 -0.13232 -3.55954 0
M  V30 32027 O 3162.62 0.0483311 -5.46479 0
M  V30 32028 H 3159.72 0.0428557 -0.825889 0
M  V30 32029 H 3162.26 -0.664212 -1.56161 0
M  V30 32030 H 3161.04 -1.22033 -3.71784 0
M  V30 32031 H 3160.66 0.479307 -3.947 0
M  V30 32032 N 3161.66 1.54031 -0.333483 0
M  V30 32033 C 3162.9 2.00348 0.265572 0
M  V30 32034 C 3163.22 1.22312 1.51871 0
M  V30 32035 O 3162.49 0.327583 1.93142 0
M  V30 32036 H 3161.07 0.740124 0.101122 0
M  V30 32037 H 3163.74 1.89579 -0.452318 0
M  V30 32038 H 3162.83 3.07821 0.515056 0
M  V30 32039 N 3163.13 0.0618717 1.57479 0
M  V30 32040 C 3164.38 -0.608302 1.92728 0
M  V30 32041 C 3164.7 -1.70747 0.941829 0
M  V30 32042 O 3163.97 -1.95897 -0.0116264 0
M  V30 32043 H 3162.55 -0.227688 0.711454 0
M  V30 32044 H 3165.21 0.117393 1.94546 0
M  V30 32045 H 3164.31 -1.04002 2.94262 0
M  V30 32046 N 3164.61 -1.56173 -0.211607 0
M  V30 32047 C 3165.58 -1.92383 -1.24584 0
M  V30 32048 C 3166.58 -0.803335 -1.39295 0
M  V30 32049 O 3167.77 -1.07097 -1.3739 0
M  V30 32050 C 3164.9 -2.18339 -2.61803 0
M  V30 32051 H 3166.09 -2.84894 -0.936764 0
M  V30 32052 H 3163.64 -1.49608 -0.452444 0
M  V30 32053 H 3164.38 -1.28412 -2.97793 0
M  V30 32054 H 3164.16 -2.99977 -2.525 0
M  V30 32055 H 3165.65 -2.47415 -3.36415 0
M  V30 32056 N 3166.09 0.478699 -1.50154 0
M  V30 32057 C 3167.32 1.25479 -1.64507 0
M  V30 32058 C 3167.73 1.85976 -0.325328 0
M  V30 32059 O 3167.09 1.68878 0.691855 0
M  V30 32060 C 3167.14 2.36902 -2.73057 0
M  V30 32061 O 3166.86 1.78887 -3.99914 0
M  V30 32062 C 3168.36 3.27907 -2.98315 0
M  V30 32063 H 3165.58 0.379771 -0.553186 0
M  V30 32064 H 3168.13 0.572255 -1.9633 0
M  V30 32065 H 3166.28 3.00945 -2.43949 0
M  V30 32066 H 3166.7 2.52203 -4.59884 0
M  V30 32067 H 3168.17 4.02317 -3.77949 0
M  V30 32068 H 3168.65 3.86236 -2.09089 0
M  V30 32069 H 3169.25 2.69609 -3.28924 0
M  V30 32070 N 3167.57 1.39603 0.731343 0
M  V30 32071 C 3168.81 1.37229 1.49318 0
M  V30 32072 C 3169.15 -0.0306161 1.94176 0
M  V30 32073 O 3168.42 -0.996265 1.67047 0
M  V30 32074 C 3168.71 2.34789 2.73031 0
M  V30 32075 C 3168.56 3.84038 2.34169 0
M  V30 32076 C 3169.88 2.30122 3.75142 0
M  V30 32077 H 3167 0.499792 0.541643 0
M  V30 32078 H 3169.64 1.70623 0.835938 0
M  V30 32079 H 3167.79 2.06443 3.2911 0
M  V30 32080 H 3169.46 4.23148 1.83693 0
M  V30 32081 H 3167.7 4.00636 1.66354 0
M  V30 32082 H 3168.37 4.47793 3.22778 0
M  V30 32083 H 3170.85 2.55195 3.28656 0
M  V30 32084 H 3169.73 3.00459 4.59365 0
M  V30 32085 H 3169.99 1.30748 4.22324 0
M  V30 32086 N 3169.05 -0.961916 1.2484 0
M  V30 32087 C 3170.3 -1.69997 1.08553 0
M  V30 32088 C 3170.61 -1.91979 -0.374611 0
M  V30 32089 O 3171.81 -2.63411 -0.657775 0
M  V30 32090 C 3170.27 -3.06014 1.8943 0
M  V30 32091 C 3169.88 -2.91854 3.3989 0
M  V30 32092 C 3171.62 -3.83652 1.81691 0
M  V30 32093 C 3169.53 -4.23215 4.13089 0
M  V30 32094 H 3168.46 -0.637509 0.402614 0
M  V30 32095 H 3171.11 -1.07143 1.48972 0
M  V30 32096 H 3169.49 -3.6973 1.41829 0
M  V30 32097 H 3170.67 -2.37114 3.95112 0
M  V30 32098 H 3168.98 -2.27677 3.48644 0
M  V30 32099 H 3171.58 -4.80935 2.33678 0
M  V30 32100 H 3171.92 -4.08864 0.783319 0
M  V30 32101 H 3172.45 -3.26672 2.27002 0
M  V30 32102 H 3169.19 -4.03194 5.16831 0
M  V30 32103 H 3168.71 -4.77749 3.62652 0
M  V30 32104 H 3170.39 -4.91801 4.20405 0
M  V30 32105 N 3170.52 -1.06308 -1.16346 0
M  V30 32106 C 3171.49 -0.678092 -2.1894 0
M  V30 32107 C 3172.49 0.276249 -1.58409 0
M  V30 32108 O 3173.68 0.0586129 -1.74101 0
M  V30 32109 C 3170.81 0.00222692 -3.409 0
M  V30 32110 H 3172 -1.58628 -2.54514 0
M  V30 32111 H 3169.56 -0.858321 -1.30624 0
M  V30 32112 H 3170.29 0.923157 -3.10883 0
M  V30 32113 H 3170.08 -0.684017 -3.86088 0
M  V30 32114 H 3171.57 0.257301 -4.16807 0
M  V30 32115 N 3172 1.32989 -0.845682 0
M  V30 32116 C 3173.23 2.01758 -0.458386 0
M  V30 32117 C 3173.65 1.636 0.942361 0
M  V30 32118 O 3173 0.852766 1.61351 0
M  V30 32119 C 3173.05 3.56859 -0.577374 0
M  V30 32120 O 3172.77 3.93643 -1.92294 0
M  V30 32121 C 3174.28 4.42902 -0.187917 0
M  V30 32122 H 3171.5 0.646077 -0.181176 0
M  V30 32123 H 3174.04 1.69768 -1.14014 0
M  V30 32124 H 3172.19 3.87359 0.0565465 0
M  V30 32125 H 3172.61 4.88357 -1.9133 0
M  V30 32126 H 3174.08 5.51059 -0.322202 0
M  V30 32127 H 3174.56 4.3048 0.870821 0
M  V30 32128 H 3175.17 4.17774 -0.796546 0
M  V30 32129 N 3173.48 0.60276 1.45618 0
M  V30 32130 C 3174.71 0.10229 2.06647 0
M  V30 32131 C 3175.12 -1.21128 1.44822 0
M  V30 32132 O 3174.48 -1.73675 0.560651 0
M  V30 32133 C 3174.53 -0.0489478 3.61467 0
M  V30 32134 O 3174.25 1.21265 4.20983 0
M  V30 32135 C 3175.75 -0.581439 4.3947 0
M  V30 32136 H 3172.97 0.0666273 0.667684 0
M  V30 32137 H 3175.52 0.829123 1.86938 0
M  V30 32138 H 3173.67 -0.726087 3.80535 0
M  V30 32139 H 3174.09 1.03924 5.14101 0
M  V30 32140 H 3175.56 -0.636366 5.4832 0
M  V30 32141 H 3176.04 -1.6027 4.08913 0
M  V30 32142 H 3176.64 0.0614937 4.25256 0
M  V30 32143 N 3174.96 -1.53852 0.341647 0
M  V30 32144 C 3176.18 -2.05769 -0.259572 0
M  V30 32145 C 3176.61 -1.2151 -1.43586 0
M  V30 32146 O 3175.97 -0.228395 -1.79856 0
M  V30 32147 C 3176.01 -3.54613 -0.654392 0
M  V30 32148 O 3175.12 -3.7321 -1.75465 0
M  V30 32149 H 3174.46 -0.662577 -0.0434505 0
M  V30 32150 H 3176.99 -1.98514 0.495309 0
M  V30 32151 H 3177 -3.97211 -0.932072 0
M  V30 32152 H 3175.67 -4.1539 0.205852 0
M  V30 32153 H 3174.25 -3.42515 -1.47438 0
M  V30 32154 N 3176.44 -0.0702223 -1.57443 0
M  V30 32155 C 3177.38 0.897561 -2.12632 0
M  V30 32156 C 3178.35 1.29637 -1.03843 0
M  V30 32157 O 3179.54 1.3825 -1.31497 0
M  V30 32158 C 3176.68 2.16037 -2.69114 0
M  V30 32159 C 3175.79 1.81433 -3.92054 0
M  V30 32160 C 3174.93 3.02313 -4.36784 0
M  V30 32161 C 3173.97 2.6372 -5.52375 0
M  V30 32162 N 3173.1 3.77354 -5.92071 0
M  V30 32163 H 3177.94 0.420052 -2.95025 0
M  V30 32164 H 3175.48 0.195691 -1.45793 0
M  V30 32165 H 3177.44 2.89956 -2.99969 0
M  V30 32166 H 3176.07 2.61331 -1.89489 0
M  V30 32167 H 3175.12 0.975831 -3.67671 0
M  V30 32168 H 3176.43 1.49038 -4.76014 0
M  V30 32169 H 3175.59 3.84513 -4.69291 0
M  V30 32170 H 3174.32 3.37901 -3.51674 0
M  V30 32171 H 3173.33 1.79941 -5.1952 0
M  V30 32172 H 3174.55 2.29304 -6.39216 0
M  V30 32173 H 3172.5 4.12706 -5.09911 0
M  V30 32174 H 3172.42 3.48721 -6.70768 0
M  V30 32175 H 3173.69 4.60137 -6.29201 0
M  V30 32176 N 3177.91 1.56283 0.203321 0
M  V30 32177 C 3178.84 1.96914 1.25487 0
M  V30 32178 C 3179.83 0.83991 1.47917 0
M  V30 32179 O 3181.01 1.10362 1.59793 0
M  V30 32180 C 3178.14 2.30157 2.60086 0
M  V30 32181 C 3177.09 3.45742 2.52282 0
M  V30 32182 C 3176.42 3.64638 3.91079 0
M  V30 32183 C 3177.72 4.80176 2.05494 0
M  V30 32184 H 3179.41 2.85003 0.917256 0
M  V30 32185 H 3176.96 1.3712 0.439794 0
M  V30 32186 H 3178.91 2.57176 3.33824 0
M  V30 32187 H 3177.64 1.38942 2.95572 0
M  V30 32188 H 3176.3 3.18801 1.81001 0
M  V30 32189 H 3175.94 2.70767 4.23903 0
M  V30 32190 H 3175.64 4.42391 3.86735 0
M  V30 32191 H 3177.17 3.94024 4.66452 0
M  V30 32192 H 3178.58 5.0628 2.68986 0
M  V30 32193 H 3176.98 5.61341 2.1217 0
M  V30 32194 H 3178.05 4.74311 1.00784 0
M  V30 32195 N 3179.39 -0.470729 1.50406 0
M  V30 32196 C 3180.67 -1.23192 1.51931 0
M  V30 32197 C 3181.05 -2.0944 0.264196 0
M  V30 32198 O 3180.4 -2.15759 -0.752357 0
M  V30 32199 C 3180.61 -2.06264 2.81525 0
M  V30 32200 C 3181.96 -2.6444 3.32199 0
M  V30 32201 O 3182.98 -2.16506 2.82849 0
M  V30 32202 O 3181.84 -3.51779 4.18227 0
M  V30 32203 H 3178.93 -0.559049 0.609421 0
M  V30 32204 H 3181.48 -0.482521 1.62696 0
M  V30 32205 H 3180.25 -1.42709 3.64349 0
M  V30 32206 H 3179.87 -2.88337 2.73766 0
M  V30 32207 N 3180.87 -1.39989 -0.72393 0
M  V30 32208 C 3181.78 -1.4189 -1.86827 0
M  V30 32209 C 3182.8 -0.312431 -1.71172 0
M  V30 32210 O 3183.97 -0.555685 -1.93582 0
M  V30 32211 C 3181.04 -1.2716 -3.22539 0
M  V30 32212 C 3180.1 -2.47877 -3.50508 0
M  V30 32213 C 3179.33 -2.3384 -4.79744 0
M  V30 32214 O 3179.56 -1.34775 -5.54249 0
M  V30 32215 O 3178.49 -3.23048 -5.07862 0
M  V30 32216 H 3182.32 -2.38375 -1.88179 0
M  V30 32217 H 3179.9 -1.21223 -0.873237 0
M  V30 32218 H 3181.78 -1.21121 -4.03618 0
M  V30 32219 H 3180.46 -0.337771 -3.21933 0
M  V30 32220 H 3179.36 -2.59493 -2.69471 0
M  V30 32221 H 3180.7 -3.39991 -3.55903 0
M  V30 32222 N 3182.35 0.955282 -1.25348 0
M  V30 32223 C 3183.26 2.08564 -1.07415 0
M  V30 32224 C 3184.28 1.73996 -0.0114729 0
M  V30 32225 O 3185.45 2.00278 -0.212271 0
M  V30 32226 C 3182.52 3.39679 -0.694201 0
M  V30 32227 C 3181.58 3.88118 -1.83475 0
M  V30 32228 C 3180.81 5.12975 -1.47283 0
M  V30 32229 O 3181.03 5.6921 -0.368186 0
M  V30 32230 O 3179.97 5.56107 -2.30279 0
M  V30 32231 H 3183.79 2.26594 -2.0221 0
M  V30 32232 H 3181.38 1.06986 -1.0428 0
M  V30 32233 H 3183.26 4.1849 -0.494399 0
M  V30 32234 H 3181.94 3.22921 0.224488 0
M  V30 32235 H 3180.84 3.10314 -2.0894 0
M  V30 32236 H 3182.18 4.09374 -2.73265 0
M  V30 32237 N 3183.83 1.06924 1.1578 0
M  V30 32238 C 3185.24 0.793921 1.38452 0
M  V30 32239 C 3185.44 -0.603841 1.92239 0
M  V30 32240 O 3184.5 -1.36331 2.12532 0
M  V30 32241 C 3185.81 1.86412 2.35947 0
M  V30 32242 C 3187.36 1.88837 2.49619 0
M  V30 32243 C 3187.84 2.94929 3.50401 0
M  V30 32244 N 3189.33 2.94004 3.57933 0
M  V30 32245 C 3190.06 3.72739 4.35722 0
M  V30 32246 N 3189.56 4.6131 5.1688 0
M  V30 32247 N 3191.35 3.61103 4.30768 0
M  V30 32248 H 3183.5 1.97079 0.792067 0
M  V30 32249 H 3185.76 0.854387 0.410764 0
M  V30 32250 H 3185.47 2.86823 2.03532 0
M  V30 32251 H 3185.34 1.72055 3.35674 0
M  V30 32252 H 3187.73 0.890808 2.81334 0
M  V30 32253 H 3187.81 2.07273 1.49906 0
M  V30 32254 H 3187.46 3.94882 3.19422 0
M  V30 32255 H 3187.39 2.73742 4.49859 0
M  V30 32256 H 3189.88 2.29796 3.00003 0
M  V30 32257 H 3190.19 5.18029 5.73468 0
M  V30 32258 H 3188.54 4.65362 5.16201 0
M  V30 32259 H 3191.73 2.91289 3.66427 0
M  V30 32260 H 3191.9 4.22708 4.91144 0
M  V30 32261 N 3185.31 -1.32538 0.852723 0
M  V30 32262 C 3186.24 -2.31416 0.311275 0
M  V30 32263 C 3187.22 -1.59594 -0.588529 0
M  V30 32264 O 3188.4 -1.87406 -0.509178 0
M  V30 32265 C 3185.53 -3.43641 -0.502831 0
M  V30 32266 C 3184.49 -4.26931 0.302371 0
M  V30 32267 C 3183.81 -5.309 -0.636351 0
M  V30 32268 C 3185.11 -4.99478 1.52706 0
M  V30 32269 H 3186.81 -2.76951 1.13747 0
M  V30 32270 H 3184.35 -1.33148 0.548412 0
M  V30 32271 H 3186.3 -4.11851 -0.89202 0
M  V30 32272 H 3185.03 -2.96828 -1.36237 0
M  V30 32273 H 3183.69 -3.60364 0.67329 0
M  V30 32274 H 3183.34 -4.80342 -1.49268 0
M  V30 32275 H 3183.04 -5.87512 -0.101612 0
M  V30 32276 H 3184.56 -6.01973 -1.02276 0
M  V30 32277 H 3185.97 -5.6038 1.21027 0
M  V30 32278 H 3184.37 -5.65806 1.99959 0
M  V30 32279 H 3185.44 -4.27453 2.28936 0
M  V30 32280 N 3186.78 -0.610474 -1.45296 0
M  V30 32281 C 3187.75 0.0967792 -2.28996 0
M  V30 32282 C 3188.75 0.792328 -1.39924 0
M  V30 32283 O 3189.94 0.640052 -1.62015 0
M  V30 32284 C 3187.07 1.14726 -3.21015 0
M  V30 32285 H 3188.26 -0.639134 -2.9301 0
M  V30 32286 H 3185.81 -0.36965 -1.51866 0
M  V30 32287 H 3186.55 1.91384 -2.61807 0
M  V30 32288 H 3186.33 0.652685 -3.8663 0
M  V30 32289 H 3187.82 1.64249 -3.83943 0
M  V30 32290 N 3188.26 1.53669 -0.349801 0
M  V30 32291 C 3189.51 2.01015 0.244791 0
M  V30 32292 C 3189.84 1.23749 1.50055 0
M  V30 32293 O 3189.09 0.314906 1.9315 0
M  V30 32294 C 3189.39 3.52357 0.598249 0
M  V30 32295 C 3189.06 4.47392 -0.561349 0
M  V30 32296 C 3187.72 4.73093 -0.879564 0
M  V30 32297 C 3190.07 5.03707 -1.33899 0
M  V30 32298 C 3187.4 5.52363 -1.97768 0
M  V30 32299 C 3189.75 5.84175 -2.4274 0
M  V30 32300 C 3188.41 6.08168 -2.75114 0
M  V30 32301 H 3187.68 0.735566 0.0895755 0
M  V30 32302 H 3190.33 1.85412 -0.479007 0
M  V30 32303 H 3188.64 3.65824 1.40285 0
M  V30 32304 H 3190.33 3.86453 1.07029 0
M  V30 32305 H 3186.92 4.27526 -0.303277 0
M  V30 32306 H 3191.11 4.8381 -1.1064 0
M  V30 32307 H 3186.36 5.69176 -2.23267 0
M  V30 32308 H 3190.54 6.26823 -3.03423 0
M  V30 32309 H 3188.16 6.69378 -3.60329 0
M  V30 32310 N 3189.74 0.0785709 1.57404 0
M  V30 32311 C 3190.97 -0.59696 1.97788 0
M  V30 32312 C 3191.38 -1.63274 0.955933 0
M  V30 32313 O 3190.72 -1.83585 -0.0648847 0
M  V30 32314 C 3190.78 -1.31717 3.34501 0
M  V30 32315 C 3190.45 -0.434064 4.54934 0
M  V30 32316 C 3191.44 0.311106 5.18968 0
M  V30 32317 C 3189.13 -0.356958 5.0103 0
M  V30 32318 C 3191.12 1.12153 6.27455 0
M  V30 32319 C 3188.81 0.457136 6.09388 0
M  V30 32320 C 3189.81 1.19505 6.72464 0
M  V30 32321 O 3189.5 1.9957 7.78734 0
M  V30 32322 H 3189.23 -0.166016 0.655297 0
M  V30 32323 H 3191.78 0.149553 2.04855 0
M  V30 32324 H 3190.01 -2.1099 3.24068 0
M  V30 32325 H 3191.7 -1.8856 3.59444 0
M  V30 32326 H 3192.47 0.261169 4.84296 0
M  V30 32327 H 3188.35 -0.920946 4.51707 0
M  V30 32328 H 3191.89 1.698 6.76619 0
M  V30 32329 H 3187.79 0.508612 6.43493 0
M  V30 32330 H 3188.55 1.92074 7.95644 0
M  V30 32331 N 3191.22 -1.56389 -0.19503 0
M  V30 32332 C 3192.63 -1.49975 -0.545868 0
M  V30 32333 C 3192.83 -0.778601 -1.8585 0
M  V30 32334 O 3191.89 -0.329149 -2.50345 0
M  V30 32335 C 3193.2 -2.94642 -0.600547 0
M  V30 32336 C 3194.75 -3.05314 -0.689375 0
M  V30 32337 C 3195.23 -4.51393 -0.775164 0
M  V30 32338 N 3196.72 -4.55544 -0.838689 0
M  V30 32339 C 3197.45 -5.65886 -0.925237 0
M  V30 32340 N 3196.95 -6.85918 -0.974083 0
M  V30 32341 N 3198.74 -5.53799 -0.962431 0
M  V30 32342 H 3190.89 -2.01689 0.665985 0
M  V30 32343 H 3193.15 -0.917837 0.237231 0
M  V30 32344 H 3192.86 -3.50462 0.294841 0
M  V30 32345 H 3192.73 -3.47999 -1.45522 0
M  V30 32346 H 3195.12 -2.49543 -1.57519 0
M  V30 32347 H 3195.2 -2.55082 0.191496 0
M  V30 32348 H 3194.85 -5.07789 0.106304 0
M  V30 32349 H 3194.78 -4.99357 -1.67184 0
M  V30 32350 H 3197.27 -3.69113 -0.810184 0
M  V30 32351 H 3197.58 -7.65761 -1.04064 0
M  V30 32352 H 3195.93 -6.88576 -0.94276 0
M  V30 32353 H 3199.12 -4.58948 -0.921108 0
M  V30 32354 H 3199.29 -6.39819 -1.02642 0
M  V30 32355 N 3192.7 0.462746 -1.50653 0
M  V30 32356 C 3193.92 1.23728 -1.65828 0
M  V30 32357 C 3194.34 1.8562 -0.345035 0
M  V30 32358 O 3193.7 1.69602 0.673905 0
M  V30 32359 C 3193.75 2.33992 -2.75554 0
M  V30 32360 O 3193.47 1.74636 -4.01789 0
M  V30 32361 C 3194.97 3.24725 -3.01776 0
M  V30 32362 H 3192.19 0.373882 -0.557183 0
M  V30 32363 H 3194.73 0.5514 -1.96926 0
M  V30 32364 H 3192.89 2.9834 -2.47127 0
M  V30 32365 H 3193.3 2.47311 -4.62534 0
M  V30 32366 H 3194.78 3.98286 -3.82195 0
M  V30 32367 H 3195.25 3.83997 -2.13174 0
M  V30 32368 H 3195.86 2.66105 -3.31766 0
M  V30 32369 N 3194.17 1.40371 0.716495 0
M  V30 32370 C 3195.1 1.43318 1.84343 0
M  V30 32371 C 3196.09 0.294216 1.67536 0
M  V30 32372 O 3197.27 0.502704 1.87581 0
M  V30 32373 C 3194.4 1.29414 3.22288 0
M  V30 32374 C 3193.35 2.40904 3.53765 0
M  V30 32375 C 3192.68 2.12077 4.90844 0
M  V30 32376 C 3193.98 3.83243 3.54855 0
M  V30 32377 H 3195.67 2.37629 1.82134 0
M  V30 32378 H 3193.22 1.14378 0.874853 0
M  V30 32379 H 3195.17 1.30092 4.00817 0
M  V30 32380 H 3193.9 0.315787 3.2507 0
M  V30 32381 H 3192.56 2.39474 2.77575 0
M  V30 32382 H 3192.2 1.12635 4.90227 0
M  V30 32383 H 3191.9 2.86771 5.1287 0
M  V30 32384 H 3193.43 2.14436 5.71708 0
M  V30 32385 H 3194.84 3.86502 4.23426 0
M  V30 32386 H 3193.24 4.57449 3.88408 0
M  V30 32387 H 3194.31 4.12893 2.54259 0
M  V30 32388 N 3195.65 -0.948621 1.25853 0
M  V30 32389 C 3196.88 -1.72598 1.13549 0
M  V30 32390 C 3197.29 -1.86596 -0.312824 0
M  V30 32391 O 3196.63 -1.36753 -1.22655 0
M  V30 32392 C 3196.7 -3.15509 1.72321 0
M  V30 32393 C 3196.36 -3.24921 3.21365 0
M  V30 32394 C 3197.36 -3.08769 4.18279 0
M  V30 32395 C 3195.04 -3.48549 3.61689 0
M  V30 32396 C 3197.04 -3.16102 5.53496 0
M  V30 32397 C 3194.72 -3.55518 4.97042 0
M  V30 32398 C 3195.72 -3.39309 5.92755 0
M  V30 32399 O 3195.41 -3.45972 7.25644 0
M  V30 32400 H 3195.14 -0.54746 0.396565 0
M  V30 32401 H 3197.69 -1.19829 1.66824 0
M  V30 32402 H 3195.92 -3.69668 1.135 0
M  V30 32403 H 3197.61 -3.75127 1.5503 0
M  V30 32404 H 3198.38 -2.90378 3.88466 0
M  V30 32405 H 3194.26 -3.60223 2.8768 0
M  V30 32406 H 3197.8 -3.03369 6.28182 0
M  V30 32407 H 3193.7 -3.73427 5.26519 0
M  V30 32408 H 3194.47 -3.62564 7.33818 0
M  V30 32409 N 3197.13 -1.07536 -1.15212 0
M  V30 32410 C 3198.55 -0.801252 -1.38029 0
M  V30 32411 C 3198.75 0.593638 -1.92557 0
M  V30 32412 O 3197.8 1.35202 -2.13252 0
M  V30 32413 C 3199.12 -1.87661 -2.34955 0
M  V30 32414 C 3200.66 -1.90158 -2.48614 0
M  V30 32415 C 3201.14 -2.96783 -3.48832 0
M  V30 32416 N 3202.63 -2.95898 -3.56369 0
M  V30 32417 C 3203.36 -3.75044 -4.33739 0
M  V30 32418 N 3202.86 -4.64045 -5.14426 0
M  V30 32419 N 3204.65 -3.63383 -4.28846 0
M  V30 32420 H 3196.8 -1.97496 -0.781604 0
M  V30 32421 H 3199.07 -0.856553 -0.406227 0
M  V30 32422 H 3198.77 -2.87898 -2.02008 0
M  V30 32423 H 3198.65 -1.73833 -3.34757 0
M  V30 32424 H 3201.03 -0.905716 -2.80857 0
M  V30 32425 H 3201.12 -2.08065 -1.48804 0
M  V30 32426 H 3200.76 -3.96571 -3.17323 0
M  V30 32427 H 3200.69 -2.76123 -4.48401 0
M  V30 32428 H 3203.18 -2.31384 -2.9878 0
M  V30 32429 H 3203.49 -5.21063 -5.70713 0
M  V30 32430 H 3201.84 -4.68093 -5.13726 0
M  V30 32431 H 3205.03 -2.93228 -3.64877 0
M  V30 32432 H 3205.2 -4.25306 -4.88895 0
M  V30 32433 N 3198.61 1.32084 -0.85974 0
M  V30 32434 C 3199.89 1.91739 -0.386698 0
M  V30 32435 C 3200.27 1.78294 1.13025 0
M  V30 32436 O 3199.61 1.18421 1.9542 0
M  V30 32437 C 3199.82 3.38322 -0.856708 0
M  V30 32438 C 3201.17 4.15447 -0.876853 0
M  V30 32439 O 3202.2 3.47061 -0.801681 0
M  V30 32440 O 3201.05 5.37572 -0.983825 0
M  V30 32441 H 3198.15 0.819137 -0.113772 0
M  V30 32442 H 3200.69 1.40821 -0.946977 0
M  V30 32443 H 3199.47 3.42075 -1.90002 0
M  V30 32444 H 3199.09 3.96654 -0.274164 0
M  V30 32445 N 3200.09 0.618171 1.4497 0
M  V30 32446 C 3201.04 -0.116079 2.27704 0
M  V30 32447 C 3202.02 -0.828533 1.37928 0
M  V30 32448 O 3203.21 -0.716778 1.61837 0
M  V30 32449 C 3200.34 -1.10573 3.25005 0
M  V30 32450 C 3199.43 -0.393566 4.2227 0
M  V30 32451 N 3199.82 0.57067 5.0257 0
M  V30 32452 C 3198.12 -0.639732 4.41388 0
M  V30 32453 C 3198.82 0.990244 5.73209 0
M  V30 32454 N 3197.79 0.331748 5.42587 0
M  V30 32455 H 3201.6 0.624346 2.87192 0
M  V30 32456 H 3199.11 0.442658 1.56251 0
M  V30 32457 H 3201.11 -1.64624 3.8302 0
M  V30 32458 H 3199.77 -1.84659 2.67079 0
M  V30 32459 H 3200.78 0.947904 5.09151 0
M  V30 32460 H 3197.45 -1.36446 3.94574 0
M  V30 32461 H 3198.84 1.78612 6.47725 0
M  V30 32462 N 3201.56 -1.53481 0.357946 0
M  V30 32463 C 3202.53 -2.24123 -0.479757 0
M  V30 32464 C 3203.53 -1.24641 -1.01594 0
M  V30 32465 O 3204.72 -1.48974 -0.902902 0
M  V30 32466 C 3201.85 -2.97206 -1.66978 0
M  V30 32467 H 3203.04 -2.99581 0.138272 0
M  V30 32468 H 3200.6 -1.55916 0.109511 0
M  V30 32469 H 3201.33 -2.2597 -2.32611 0
M  V30 32470 H 3201.12 -3.7019 -1.29235 0
M  V30 32471 H 3202.61 -3.50928 -2.26361 0
M  V30 32472 N 3203.04 -0.0869173 -1.5736 0
M  V30 32473 C 3204.46 0.269734 -1.57304 0
M  V30 32474 C 3204.66 1.6899 -1.09748 0
M  V30 32475 O 3203.71 2.40466 -0.770213 0
M  V30 32476 C 3205.03 0.0656118 -3.00628 0
M  V30 32477 C 3206.58 0.13399 -3.12713 0
M  V30 32478 C 3207.05 -0.0420374 -4.57981 0
M  V30 32479 N 3208.54 0.0130687 -4.63198 0
M  V30 32480 C 3209.28 -0.0984972 -5.73315 0
M  V30 32481 N 3208.77 -0.264437 -6.92295 0
M  V30 32482 N 3210.57 -0.0403505 -5.62086 0
M  V30 32483 H 3202.72 -1.0149 -1.86584 0
M  V30 32484 H 3204.98 -0.39707 -0.860837 0
M  V30 32485 H 3204.69 -0.914951 -3.3959 0
M  V30 32486 H 3204.56 0.811457 -3.68368 0
M  V30 32487 H 3206.95 1.10505 -2.73629 0
M  V30 32488 H 3207.03 -0.64321 -2.47581 0
M  V30 32489 H 3206.67 -1.00993 -4.97758 0
M  V30 32490 H 3206.6 0.754755 -5.21163 0
M  V30 32491 H 3209.09 0.139117 -3.77644 0
M  V30 32492 H 3209.41 -0.341301 -7.72046 0
M  V30 32493 H 3207.75 -0.299998 -6.94352 0
M  V30 32494 H 3210.94 0.0880978 -4.68017 0
M  V30 32495 H 3211.11 -0.130748 -6.47868 0
M  V30 32496 N 3204.52 1.5649 0.186734 0
M  V30 32497 C 3205.75 1.84962 0.920463 0
M  V30 32498 C 3206.16 0.668329 1.77003 0
M  V30 32499 O 3205.5 -0.372098 1.79892 0
M  V30 32500 C 3205.56 3.07648 1.85992 0
M  V30 32501 C 3205.23 4.41195 1.19148 0
M  V30 32502 C 3206.22 5.16828 0.564355 0
M  V30 32503 C 3203.91 4.87931 1.19283 0
M  V30 32504 C 3205.9 6.37378 -0.0524888 0
M  V30 32505 C 3203.59 6.08416 0.572159 0
M  V30 32506 C 3204.59 6.82982 -0.0494141 0
M  V30 32507 O 3204.28 8.01183 -0.660342 0
M  V30 32508 H 3204.01 0.618137 0.273648 0
M  V30 32509 H 3206.56 2.04459 0.196401 0
M  V30 32510 H 3204.79 2.84058 2.62389 0
M  V30 32511 H 3206.48 3.22696 2.46215 0
M  V30 32512 H 3207.25 4.8181 0.55539 0
M  V30 32513 H 3203.13 4.29842 1.66604 0
M  V30 32514 H 3206.67 6.9552 -0.538255 0
M  V30 32515 H 3202.57 6.42901 0.578656 0
M  V30 32516 H 3203.34 8.16595 -0.55807 0
M  V30 32517 N 3206 -0.45475 1.50897 0
M  V30 32518 C 3207.25 -1.20321 1.6238 0
M  V30 32519 C 3207.57 -1.9212 0.333917 0
M  V30 32520 O 3206.84 -1.84822 -0.649444 0
M  V30 32521 H 3205.42 -0.447128 0.598402 0
M  V30 32522 H 3208.08 -0.523069 1.8775 0
M  V30 32523 H 3207.18 -1.94227 2.44299 0
M  V30 32524 N 3207.48 -1.40749 -0.709041 0
M  V30 32525 C 3208.44 -1.41275 -1.80482 0
M  V30 32526 C 3209.44 -0.305491 -1.57871 0
M  V30 32527 O 3210.63 -0.56472 -1.64792 0
M  V30 32528 C 3207.76 -1.21093 -3.18668 0
M  V30 32529 H 3208.95 -2.38809 -1.81412 0
M  V30 32530 H 3206.51 -1.26694 -0.915334 0
M  V30 32531 H 3207.24 -0.243462 -3.23385 0
M  V30 32532 H 3207.03 -2.01305 -3.3648 0
M  V30 32533 H 3208.52 -1.24264 -3.98683 0
M  V30 32534 N 3208.96 0.941933 -1.26354 0
M  V30 32535 C 3209.92 2.02209 -1.07908 0
M  V30 32536 C 3210.92 1.60776 -0.0276566 0
M  V30 32537 O 3212.11 1.72079 -0.270996 0
M  V30 32538 C 3209.24 3.34817 -0.641142 0
M  V30 32539 H 3210.43 2.20005 -2.03808 0
M  V30 32540 H 3207.99 1.12079 -1.08941 0
M  V30 32541 H 3208.72 3.22718 0.319887 0
M  V30 32542 H 3208.51 3.66242 -1.40033 0
M  V30 32543 H 3210 4.14173 -0.533899 0
M  V30 32544 N 3210.43 1.08146 1.1464 0
M  V30 32545 C 3211.36 0.730648 2.21774 0
M  V30 32546 C 3212.34 -0.285672 1.67684 0
M  V30 32547 O 3213.53 -0.156633 1.93567 0
M  V30 32548 C 3210.66 0.136303 3.47032 0
M  V30 32549 C 3209.61 1.08067 4.14132 0
M  V30 32550 C 3208.94 0.348679 5.33562 0
M  V30 32551 C 3210.24 2.41769 4.62974 0
M  V30 32552 H 3211.93 1.62637 2.51375 0
M  V30 32553 H 3209.48 0.783432 1.20824 0
M  V30 32554 H 3211.43 -0.121108 4.21226 0
M  V30 32555 H 3210.16 -0.794544 3.16788 0
M  V30 32556 H 3208.82 1.32314 3.4189 0
M  V30 32557 H 3208.46 -0.585887 4.99576 0
M  V30 32558 H 3208.16 0.978224 5.794 0
M  V30 32559 H 3209.69 0.0992582 6.10519 0
M  V30 32560 H 3211.1 2.21804 5.28655 0
M  V30 32561 H 3209.5 3.00392 5.19504 0
M  V30 32562 H 3210.57 3.03488 3.78184 0
M  V30 32563 N 3211.91 -1.31626 0.866732 0
M  V30 32564 C 3213.16 -1.97506 0.486081 0
M  V30 32565 C 3213.51 -1.67284 -0.950461 0
M  V30 32566 O 3212.81 -0.957188 -1.65977 0
M  V30 32567 C 3213 -3.50947 0.67608 0
M  V30 32568 C 3212.83 -3.96082 2.12954 0
M  V30 32569 C 3211.6 -4.22578 2.77049 0
M  V30 32570 C 3213.8 -4.10261 3.10146 0
M  V30 32571 N 3211.78 -4.54044 4.1318 0
M  V30 32572 C 3213.15 -4.45401 4.31298 0
M  V30 32573 C 3215.2 -3.9263 3.0618 0
M  V30 32574 C 3213.91 -4.64751 5.48998 0
M  V30 32575 C 3215.93 -4.13171 4.23136 0
M  V30 32576 C 3215.3 -4.48639 5.43049 0
M  V30 32577 H 3211.39 -0.748375 0.226844 0
M  V30 32578 H 3213.98 -1.59215 1.12065 0
M  V30 32579 H 3212.15 -3.88335 0.0711233 0
M  V30 32580 H 3213.88 -4.03837 0.264133 0
M  V30 32581 H 3210.64 -4.15097 2.28017 0
M  V30 32582 H 3211.06 -4.73942 4.83434 0
M  V30 32583 H 3215.7 -3.64299 2.14583 0
M  V30 32584 H 3213.42 -4.9193 6.41116 0
M  V30 32585 H 3217.01 -4.01018 4.21516 0
M  V30 32586 H 3215.89 -4.64212 6.32042 0
M  V30 32587 N 3213.39 -0.62585 -1.4464 0
M  V30 32588 C 3214.32 0.0691778 -2.33398 0
M  V30 32589 C 3215.3 0.840215 -1.479 0
M  V30 32590 O 3216.49 0.807145 -1.76632 0
M  V30 32591 C 3213.62 1.05494 -3.3089 0
M  V30 32592 C 3212.57 0.395893 -4.26165 0
M  V30 32593 C 3211.9 1.49119 -5.13486 0
M  V30 32594 C 3213.2 -0.694524 -5.17662 0
M  V30 32595 H 3214.89 -0.671976 -2.91762 0
M  V30 32596 H 3212.44 -0.324598 -1.40294 0
M  V30 32597 H 3214.39 1.54986 -3.91864 0
M  V30 32598 H 3213.11 1.82692 -2.70724 0
M  V30 32599 H 3211.77 -0.0783336 -3.66516 0
M  V30 32600 H 3211.42 2.25391 -4.49675 0
M  V30 32601 H 3211.12 1.05562 -5.7804 0
M  V30 32602 H 3212.64 1.98802 -5.7733 0
M  V30 32603 H 3214.06 -0.282919 -5.72601 0
M  V30 32604 H 3212.45 -1.05291 -5.90791 0
M  V30 32605 H 3213.52 -1.5638 -4.58992 0
M  V30 32606 N 3214.87 1.53289 -0.36608 0
M  V30 32607 C 3216.11 2.01561 0.223788 0
M  V30 32608 C 3216.45 1.25288 1.48379 0
M  V30 32609 O 3215.72 0.346723 1.91385 0
M  V30 32610 C 3216 3.56395 0.515237 0
M  V30 32611 C 3215.86 4.4336 -0.758435 0
M  V30 32612 C 3217.18 4.19976 1.3156 0
M  V30 32613 H 3214.3 0.73266 0.0798623 0
M  V30 32614 H 3216.94 1.83544 -0.49107 0
M  V30 32615 H 3215.09 3.71878 1.12422 0
M  V30 32616 H 3216.76 4.39672 -1.39592 0
M  V30 32617 H 3215 4.11308 -1.37869 0
M  V30 32618 H 3215.67 5.49644 -0.509463 0
M  V30 32619 H 3218.15 4.08328 0.800442 0
M  V30 32620 H 3217.03 5.28339 1.48827 0
M  V30 32621 H 3217.29 3.76073 2.32426 0
M  V30 32622 N 3216.35 0.0952613 1.57312 0
M  V30 32623 C 3217.31 -0.849124 2.12891 0
M  V30 32624 C 3218.31 -1.21073 1.05821 0
M  V30 32625 O 3219.5 -1.14014 1.31706 0
M  V30 32626 C 3216.63 -2.14493 2.64963 0
M  V30 32627 H 3217.82 -0.366513 2.97652 0
M  V30 32628 H 3215.38 -0.153735 1.55542 0
M  V30 32629 H 3216.11 -2.67238 1.83723 0
M  V30 32630 H 3215.9 -1.89536 3.43247 0
M  V30 32631 H 3217.39 -2.8205 3.07957 0
M  V30 32632 N 3217.82 -1.56587 -0.178432 0
M  V30 32633 C 3218.79 -1.94983 -1.20476 0
M  V30 32634 C 3219.79 -0.832701 -1.3756 0
M  V30 32635 O 3220.98 -1.09987 -1.35087 0
M  V30 32636 C 3218.11 -2.23843 -2.57113 0
M  V30 32637 H 3219.3 -2.86817 -0.876122 0
M  V30 32638 H 3216.85 -1.50534 -0.420608 0
M  V30 32639 H 3217.59 -1.347 -2.95002 0
M  V30 32640 H 3217.37 -3.05265 -2.4608 0
M  V30 32641 H 3218.86 -2.54496 -3.31092 0
M  V30 32642 N 3219.3 0.446741 -1.51136 0
M  V30 32643 C 3220.25 1.56221 -1.7233 0
M  V30 32644 C 3221.24 1.58814 -0.589439 0
M  V30 32645 O 3222.45 1.62672 -0.770582 0
M  V30 32646 H 3218.82 0.518835 -0.544348 0
M  V30 32647 H 3220.8 1.35515 -2.65854 0
M  V30 32648 C 3219.54 2.93963 -1.85691 0
M  V30 32649 H 3218.87 2.92695 -2.72341 0
M  V30 32650 H 3220.31 3.71404 -2.04537 0
M  V30 32651 C 3218.77 3.31251 -0.614386 0
M  V30 32652 O 3219.3 4.0101 0.235298 0
M  V30 32653 N 3217.5 2.86916 -0.461231 0
M  V30 32654 H 3217.05 2.30319 -1.15373 0
M  V30 32655 H 3217.01 3.12228 0.368911 0
M  V30 32656 N 3220.78 1.41123 0.701567 0
M  V30 32657 C 3221.71 1.3691 1.82567 0
M  V30 32658 C 3222.69 0.237273 1.60859 0
M  V30 32659 O 3223.87 0.423214 1.83688 0
M  V30 32660 C 3221 1.13414 3.19147 0
M  V30 32661 C 3220.05 2.29236 3.59657 0
M  V30 32662 S 3220.88 3.91692 3.65154 0
M  V30 32663 C 3222.04 3.70487 5.0447 0
M  V30 32664 H 3222.27 2.32039 1.85863 0
M  V30 32665 H 3219.8 1.27576 0.869703 0
M  V30 32666 H 3221.76 1.00544 3.97997 0
M  V30 32667 H 3220.42 0.199154 3.13468 0
M  V30 32668 H 3219.61 2.08474 4.58862 0
M  V30 32669 H 3219.22 2.38482 2.88101 0
M  V30 32670 H 3221.51 3.29822 5.91797 0
M  V30 32671 H 3222.45 4.69273 5.30272 0
M  V30 32672 H 3222.86 3.03884 4.75726 0
M  V30 32673 N 3222.26 -0.935219 1.26852 0
M  V30 32674 C 3223.22 -2.01634 1.08979 0
M  V30 32675 C 3224.22 -1.60759 0.0361826 0
M  V30 32676 O 3225.41 -1.71933 0.280118 0
M  V30 32677 C 3222.54 -3.34472 0.65889 0
M  V30 32678 H 3223.74 -2.18921 2.04972 0
M  V30 32679 H 3221.29 -1.11499 1.09533 0
M  V30 32680 H 3222.02 -3.22884 -0.302768 0
M  V30 32681 H 3221.81 -3.65494 1.41973 0
M  V30 32682 H 3223.3 -4.13884 0.555856 0
M  V30 32683 N 3223.74 -1.08752 -1.14065 0
M  V30 32684 C 3224.96 -0.841072 -1.8958 0
M  V30 32685 C 3225.39 0.601404 -1.78227 0
M  V30 32686 O 3224.74 1.42179 -1.12493 0
M  V30 32687 C 3224.79 -1.27219 -3.37413 0
M  V30 32688 O 3223.9 -0.426318 -4.10191 0
M  V30 32689 H 3223.24 -0.305183 -0.589711 0
M  V30 32690 H 3225.77 -1.44986 -1.44361 0
M  V30 32691 H 3225.78 -1.25458 -3.88232 0
M  V30 32692 H 3224.45 -2.32274 -3.44995 0
M  V30 32693 H 3223.03 -0.50765 -3.69428 0
M  V30 32694 N 3225.21 1.31165 -0.873701 0
M  V30 32695 C 3226.44 2.0045 -0.500352 0
M  V30 32696 C 3226.85 1.65731 0.912686 0
M  V30 32697 O 3226.2 0.884591 1.60999 0
M  V30 32698 C 3226.26 3.54757 -0.582032 0
M  V30 32699 C 3225.92 4.12961 -1.95735 0
M  V30 32700 C 3226.92 4.29791 -2.92534 0
M  V30 32701 C 3224.6 4.48602 -2.25968 0
M  V30 32702 C 3226.6 4.81457 -4.17706 0
M  V30 32703 C 3224.28 4.99969 -3.51389 0
M  V30 32704 C 3225.28 5.16348 -4.47073 0
M  V30 32705 O 3224.97 5.66611 -5.70269 0
M  V30 32706 H 3224.7 0.647847 -0.193055 0
M  V30 32707 H 3227.26 1.68283 -1.17771 0
M  V30 32708 H 3225.49 3.864 0.152258 0
M  V30 32709 H 3227.18 4.05295 -0.221577 0
M  V30 32710 H 3227.94 4.0257 -2.70486 0
M  V30 32711 H 3223.82 4.35128 -1.52266 0
M  V30 32712 H 3227.36 4.94156 -4.92398 0
M  V30 32713 H 3223.26 5.26625 -3.73278 0
M  V30 32714 H 3224.03 5.84973 -5.72493 0
M  V30 32715 N 3226.69 0.633512 1.44307 0
M  V30 32716 C 3227.92 0.144384 2.06897 0
M  V30 32717 C 3228.34 -1.17297 1.47047 0
M  V30 32718 O 3227.7 -1.72012 0.572836 0
M  V30 32719 C 3227.75 0.0456957 3.60571 0
M  V30 32720 O 3226.85 -0.997612 4.00152 0
M  V30 32721 H 3226.19 0.0858614 0.658425 0
M  V30 32722 H 3228.72 0.870866 1.85141 0
M  V30 32723 H 3228.73 -0.144106 4.07745 0
M  V30 32724 H 3227.41 1.00747 4.03513 0
M  V30 32725 H 3225.99 -0.782188 3.64604 0
M  V30 32726 N 3228.17 -1.53093 0.374204 0
M  V30 32727 C 3229.45 -1.93733 -0.269597 0
M  V30 32728 C 3229.83 -1.30846 -1.65658 0
M  V30 32729 O 3229.18 -0.470799 -2.23597 0
M  V30 32730 C 3229.39 -3.4761 -0.311143 0
M  V30 32731 C 3230.73 -4.21057 -0.547358 0
M  V30 32732 O 3231.76 -3.54037 -0.39199 0
M  V30 32733 O 3230.62 -5.39841 -0.85055 0
M  V30 32734 H 3227.71 -0.810635 -0.163709 0
M  V30 32735 H 3230.26 -1.64224 0.427615 0
M  V30 32736 H 3229.03 -3.85677 0.660965 0
M  V30 32737 H 3228.65 -3.83378 -1.0539 0
M  V30 32738 N 3229.65 -0.103603 -1.57259 0
M  V30 32739 C 3230.89 0.558919 -1.94946 0
M  V30 32740 C 3231.23 1.67303 -0.986068 0
M  V30 32741 O 3230.5 1.94489 -0.0205806 0
M  V30 32742 C 3230.79 1.10611 -3.42691 0
M  V30 32743 C 3230.64 -0.00353152 -4.498 0
M  V30 32744 C 3231.96 2.00184 -3.91937 0
M  V30 32745 H 3229.08 0.201701 -0.708862 0
M  V30 32746 H 3231.72 -0.176039 -1.89183 0
M  V30 32747 H 3229.87 1.73244 -3.47734 0
M  V30 32748 H 3231.54 -0.638163 -4.56865 0
M  V30 32749 H 3229.78 -0.66878 -4.28614 0
M  V30 32750 H 3230.45 0.420299 -5.50398 0
M  V30 32751 H 3232.93 1.47443 -3.89101 0
M  V30 32752 H 3231.81 2.35394 -4.95864 0
M  V30 32753 H 3232.07 2.92249 -3.31727 0
M  V30 32754 N 3231.13 1.56679 0.170126 0
M  V30 32755 C 3232.4 1.72937 0.913908 0
M  V30 32756 C 3232.78 0.665328 2.00341 0
M  V30 32757 O 3232.13 -0.319676 2.26253 0
M  V30 32758 C 3232.34 3.16179 1.47755 0
M  V30 32759 C 3233.69 3.77174 1.95001 0
M  V30 32760 O 3234.71 3.19465 1.57546 0
M  V30 32761 O 3233.57 4.78505 2.63998 0
M  V30 32762 H 3230.67 0.706263 0.430257 0
M  V30 32763 H 3233.21 1.68964 0.157861 0
M  V30 32764 H 3231.98 3.85106 0.693452 0
M  V30 32765 H 3231.61 3.24483 2.29775 0
M  V30 32766 N 3232.6 -0.43872 1.5137 0
M  V30 32767 C 3233.57 -1.51493 1.71996 0
M  V30 32768 C 3234.57 -1.49585 0.590005 0
M  V30 32769 O 3235.76 -1.51631 0.857532 0
M  V30 32770 C 3232.89 -2.91036 1.77513 0
M  V30 32771 H 3234.08 -1.34509 2.68043 0
M  V30 32772 H 3231.64 -0.667302 1.41339 0
M  V30 32773 H 3232.37 -3.13426 0.832754 0
M  V30 32774 H 3232.16 -2.93826 2.59632 0
M  V30 32775 H 3233.65 -3.6911 1.95314 0
M  V30 32776 N 3234.08 -1.41493 -0.694073 0
M  V30 32777 C 3235.01 -1.46232 -1.82039 0
M  V30 32778 C 3235.99 -0.320832 -1.67047 0
M  V30 32779 O 3237.18 -0.532483 -1.86757 0
M  V30 32780 C 3234.31 -1.34525 -3.20188 0
M  V30 32781 C 3233.26 -2.46501 -3.49887 0
M  V30 32782 C 3232.59 -2.19859 -4.87408 0
M  V30 32783 C 3233.89 -3.8884 -3.48713 0
M  V30 32784 H 3235.58 -2.40496 -1.78331 0
M  V30 32785 H 3233.13 -1.15755 -0.856546 0
M  V30 32786 H 3235.08 -1.36452 -3.98696 0
M  V30 32787 H 3233.81 -0.367463 -3.24526 0
M  V30 32788 H 3232.46 -2.43859 -2.7373 0
M  V30 32789 H 3232.11 -1.20419 -4.88373 0
M  V30 32790 H 3231.81 -2.94894 -5.08243 0
M  V30 32791 H 3233.34 -2.23504 -5.68224 0
M  V30 32792 H 3234.75 -3.93189 -4.17223 0
M  V30 32793 H 3233.15 -4.6357 -3.81081 0
M  V30 32794 H 3234.22 -4.16885 -2.47658 0
M  V30 32795 N 3235.56 0.928479 -1.27346 0
M  V30 32796 C 3236.81 1.67857 -1.13807 0
M  V30 32797 C 3237.14 1.9162 0.315516 0
M  V30 32798 O 3236.41 1.50601 1.23084 0
M  V30 32799 C 3236.7 3.04558 -1.92136 0
M  V30 32800 C 3236.55 2.88042 -3.45474 0
M  V30 32801 C 3237.87 4.04876 -1.7252 0
M  V30 32802 H 3234.99 0.609184 -0.414806 0
M  V30 32803 H 3237.63 1.0775 -1.56492 0
M  V30 32804 H 3235.78 3.55865 -1.55859 0
M  V30 32805 H 3237.45 2.43858 -3.91575 0
M  V30 32806 H 3235.7 2.234 -3.71853 0
M  V30 32807 H 3236.37 3.85054 -3.95521 0
M  V30 32808 H 3238.84 3.62577 -2.04149 0
M  V30 32809 H 3237.72 4.98517 -2.29721 0
M  V30 32810 H 3237.98 4.36949 -0.672933 0
M  V30 32811 N 3237.04 1.09355 1.13486 0
M  V30 32812 C 3237.95 0.744346 2.22478 0
M  V30 32813 C 3238.96 -0.253374 1.72145 0
M  V30 32814 O 3240.14 -0.0948986 2.01176 0
M  V30 32815 C 3237.21 0.169341 3.46286 0
M  V30 32816 C 3236.27 1.22292 4.11513 0
M  V30 32817 C 3235.5 0.675254 5.29411 0
M  V30 32818 O 3235.72 -0.502082 5.68186 0
M  V30 32819 O 3234.66 1.42993 5.84668 0
M  V30 32820 H 3238.48 1.65383 2.5472 0
M  V30 32821 H 3236.07 0.8679 1.21605 0
M  V30 32822 H 3237.95 -0.148036 4.2114 0
M  V30 32823 H 3236.62 -0.713158 3.15746 0
M  V30 32824 H 3235.53 1.59298 3.38489 0
M  V30 32825 H 3236.86 2.07803 4.46182 0
M  V30 32826 N 3238.52 -1.307 0.880644 0
M  V30 32827 C 3239.76 -1.9698 0.507001 0
M  V30 32828 C 3240.12 -1.68283 -0.932664 0
M  V30 32829 O 3239.41 -0.974738 -1.64953 0
M  V30 32830 C 3239.61 -3.5021 0.713264 0
M  V30 32831 C 3239.43 -3.93801 2.17143 0
M  V30 32832 C 3238.2 -4.19616 2.81515 0
M  V30 32833 C 3240.4 -4.06948 3.1448 0
M  V30 32834 N 3238.38 -4.49636 4.17972 0
M  V30 32835 C 3239.76 -4.40802 4.35998 0
M  V30 32836 C 3241.81 -3.8936 3.10327 0
M  V30 32837 C 3240.51 -4.58902 5.53897 0
M  V30 32838 C 3242.54 -4.0866 4.27494 0
M  V30 32839 C 3241.9 -4.42854 5.47777 0
M  V30 32840 H 3238 -0.745927 0.234769 0
M  V30 32841 H 3240.58 -1.58018 1.13748 0
M  V30 32842 H 3238.76 -3.88238 0.112307 0
M  V30 32843 H 3240.49 -4.03534 0.306951 0
M  V30 32844 H 3237.24 -4.12655 2.32406 0
M  V30 32845 H 3237.67 -4.68787 4.88434 0
M  V30 32846 H 3242.31 -3.62003 2.18434 0
M  V30 32847 H 3240.03 -4.85103 6.46298 0
M  V30 32848 H 3243.61 -3.96525 4.25745 0
M  V30 32849 H 3242.49 -4.57482 6.3693 0
M  V30 32850 N 3240 -0.641156 -1.43969 0
M  V30 32851 C 3241.24 -0.147061 -2.01163 0
M  V30 32852 C 3241.56 1.24208 -1.51101 0
M  V30 32853 O 3242.76 1.83074 -2.0049 0
M  V30 32854 C 3241.22 -0.212131 -3.59274 0
M  V30 32855 C 3240.83 -1.60322 -4.18331 0
M  V30 32856 C 3242.57 0.224983 -4.23903 0
M  V30 32857 C 3240.48 -1.62286 -5.68698 0
M  V30 32858 H 3239.41 -0.0512142 -0.752259 0
M  V30 32859 H 3242.06 -0.801425 -1.65074 0
M  V30 32860 H 3240.44 0.50952 -3.92708 0
M  V30 32861 H 3241.62 -2.34925 -3.96417 0
M  V30 32862 H 3239.93 -1.98527 -3.66027 0
M  V30 32863 H 3242.53 0.22998 -5.34205 0
M  V30 32864 H 3242.87 1.25419 -3.96958 0
M  V30 32865 H 3243.4 -0.444509 -3.95309 0
M  V30 32866 H 3240.14 -2.63076 -6.00393 0
M  V30 32867 H 3239.66 -0.919902 -5.92704 0
M  V30 32868 H 3241.34 -1.36124 -6.32518 0
M  V30 32869 N 3241.47 1.52892 -0.382318 0
M  V30 32870 C 3242.72 2.01091 0.201699 0
M  V30 32871 C 3243.04 1.27082 1.47902 0
M  V30 32872 O 3242.31 0.388864 1.92002 0
M  V30 32873 H 3240.89 0.742966 0.0775242 0
M  V30 32874 H 3243.55 1.88044 -0.512402 0
M  V30 32875 H 3242.65 3.09303 0.416864 0
M  V30 32876 N 3242.95 0.111941 1.57202 0
M  V30 32877 C 3244.18 -0.555678 1.99298 0
M  V30 32878 C 3244.59 -1.60671 0.991473 0
M  V30 32879 O 3243.95 -1.82492 -0.0166351 0
M  V30 32880 C 3244 -1.1882 3.41415 0
M  V30 32881 O 3243.72 -0.179184 4.37733 0
M  V30 32882 C 3245.22 -1.93982 3.98605 0
M  V30 32883 H 3242.44 -0.147684 0.654546 0
M  V30 32884 H 3244.99 0.196199 2.03557 0
M  V30 32885 H 3243.14 -1.8909 3.38118 0
M  V30 32886 H 3243.56 -0.637844 5.20607 0
M  V30 32887 H 3245.03 -2.33575 5.00147 0
M  V30 32888 H 3245.51 -2.81227 3.37354 0
M  V30 32889 H 3246.11 -1.2849 4.05426 0
M  V30 32890 N 3244.43 -1.56767 -0.161814 0
M  V30 32891 C 3245.34 -2.00387 -1.21993 0
M  V30 32892 C 3246.36 -0.916794 -1.47888 0
M  V30 32893 O 3247.53 -1.22515 -1.5985 0
M  V30 32894 C 3244.6 -2.36309 -2.5369 0
M  V30 32895 C 3243.66 -3.58892 -2.35574 0
M  V30 32896 C 3242.89 -3.93092 -3.60991 0
M  V30 32897 O 3243.11 -3.28137 -4.66564 0
M  V30 32898 O 3242.05 -4.86403 -3.54536 0
M  V30 32899 H 3245.87 -2.90682 -0.87965 0
M  V30 32900 H 3243.46 -1.44761 -0.369412 0
M  V30 32901 H 3245.34 -2.60341 -3.31362 0
M  V30 32902 H 3244.02 -1.49174 -2.87278 0
M  V30 32903 H 3242.92 -3.40067 -1.55902 0
M  V30 32904 H 3244.26 -4.46599 -2.06907 0
M  V30 32905 N 3245.91 0.430686 -1.51601 0
M  V30 32906 C 3246.84 1.54174 -1.69597 0
M  V30 32907 C 3247.85 1.52249 -0.576545 0
M  V30 32908 O 3249.04 1.56905 -0.851067 0
M  V30 32909 C 3246.14 2.93089 -1.70153 0
M  V30 32910 C 3245.31 3.19445 -2.98787 0
M  V30 32911 C 3244.37 4.38118 -2.91443 0
M  V30 32912 O 3243.4 4.36447 -3.6538 0
M  V30 32913 N 3244.6 5.42052 -2.0775 0
M  V30 32914 H 3247.37 1.39139 -2.65444 0
M  V30 32915 H 3244.93 0.619714 -1.4957 0
M  V30 32916 H 3246.92 3.70511 -1.628 0
M  V30 32917 H 3245.49 3.01688 -0.81872 0
M  V30 32918 H 3244.71 2.30261 -3.19958 0
M  V30 32919 H 3246 3.33885 -3.83925 0
M  V30 32920 H 3245.4 5.46248 -1.47068 0
M  V30 32921 H 3243.95 6.18301 -2.0627 0
M  V30 32922 N 3247.39 1.4186 0.686559 0
M  V30 32923 C 3248.61 1.45075 1.47516 0
M  V30 32924 C 3249.03 0.05862 1.88709 0
M  V30 32925 O 3248.39 -0.924088 1.57375 0
M  V30 32926 C 3248.44 2.36747 2.7319 0
M  V30 32927 O 3248.16 3.70543 2.3373 0
M  V30 32928 C 3249.66 2.4886 3.66856 0
M  V30 32929 H 3246.88 0.493816 0.454299 0
M  V30 32930 H 3249.42 1.86245 0.844579 0
M  V30 32931 H 3247.58 1.98862 3.32465 0
M  V30 32932 H 3247.99 4.19524 3.14801 0
M  V30 32933 H 3249.47 3.17151 4.51795 0
M  V30 32934 H 3249.94 1.52272 4.11959 0
M  V30 32935 H 3250.55 2.87419 3.13481 0
M  V30 32936 N 3248.86 -0.921712 1.27837 0
M  V30 32937 C 3249.77 -2.05643 1.12907 0
M  V30 32938 C 3250.79 -1.73905 0.0576009 0
M  V30 32939 O 3251.97 -1.99645 0.265296 0
M  V30 32940 C 3249.03 -3.37719 0.784017 0
M  V30 32941 C 3248.09 -3.83117 1.937 0
M  V30 32942 C 3247.32 -5.0889 1.60831 0
M  V30 32943 O 3247.55 -5.68034 0.518973 0
M  V30 32944 O 3246.48 -5.49806 2.44942 0
M  V30 32945 H 3250.31 -2.21153 2.08147 0
M  V30 32946 H 3247.89 -1.04183 1.0708 0
M  V30 32947 H 3249.77 -4.17032 0.60518 0
M  V30 32948 H 3248.45 -3.23402 -0.138792 0
M  V30 32949 H 3247.36 -3.04665 2.17094 0
M  V30 32950 H 3248.69 -4.01985 2.84023 0
M  V30 32951 N 3250.34 -1.09956 -1.12905 0
M  V30 32952 C 3251.57 -0.861132 -1.88678 0
M  V30 32953 C 3251.99 0.582467 -1.78854 0
M  V30 32954 O 3251.35 1.40978 -1.13995 0
M  V30 32955 C 3251.4 -1.30791 -3.36045 0
M  V30 32956 O 3250.5 -0.4698 -4.09715 0
M  V30 32957 H 3249.84 -0.311421 -0.586441 0
M  V30 32958 H 3252.37 -1.46509 -1.42815 0
M  V30 32959 H 3252.38 -1.29569 -3.8688 0
M  V30 32960 H 3251.06 -2.35921 -3.42512 0
M  V30 32961 H 3249.63 -0.546805 -3.68869 0
M  V30 32962 N 3251.82 1.30231 -0.887563 0
M  V30 32963 C 3252.75 2.30509 -0.372521 0
M  V30 32964 C 3253.73 1.61099 0.546008 0
M  V30 32965 O 3254.92 1.8869 0.459312 0
M  V30 32966 C 3252.05 3.44853 0.411544 0
M  V30 32967 C 3251 4.25979 -0.415458 0
M  V30 32968 C 3250.33 5.324 0.495369 0
M  V30 32969 C 3251.63 4.95254 -1.65895 0
M  V30 32970 H 3253.32 2.73838 -1.2105 0
M  V30 32971 H 3250.87 1.31647 -0.583521 0
M  V30 32972 H 3252.82 4.14071 0.782511 0
M  V30 32973 H 3251.54 3.00336 1.28319 0
M  V30 32974 H 3250.2 3.58452 -0.768597 0
M  V30 32975 H 3249.85 4.8413 1.3648 0
M  V30 32976 H 3249.55 5.87575 -0.0541917 0
M  V30 32977 H 3251.07 6.04473 0.862795 0
M  V30 32978 H 3252.49 5.56974 -1.35842 0
M  V30 32979 H 3250.88 5.60305 -2.14891 0
M  V30 32980 H 3251.95 4.21233 -2.40189 0
M  V30 32981 N 3253.3 0.648782 1.43627 0
M  V30 32982 C 3254.55 0.160055 2.01465 0
M  V30 32983 C 3254.87 -1.22875 1.51415 0
M  V30 32984 O 3254.14 -1.81993 0.724951 0
M  V30 32985 H 3252.72 0.0561803 0.744884 0
M  V30 32986 H 3255.38 0.839453 1.75895 0
M  V30 32987 H 3254.48 0.141268 3.1178 0
M  V30 32988 N 3254.78 -1.52688 0.390421 0
M  V30 32989 C 3256.19 -1.86514 -0.0833612 0
M  V30 32990 C 3256.54 -1.31005 -1.46055 0
M  V30 32991 O 3255.66 -0.641845 -2.06662 0
M  V30 32992 C 3256.26 -3.38431 -0.158042 0
M  V30 32993 C 3254.82 -3.71965 -0.57612 0
M  V30 32994 C 3253.96 -2.76067 0.261204 0
M  V30 32995 H 3256.92 -1.46581 0.608251 0
M  V30 32996 H 3256.94 -3.67744 -0.976958 0
M  V30 32997 H 3256.45 -3.78802 0.844432 0
M  V30 32998 H 3254.55 -3.37164 -1.58592 0
M  V30 32999 H 3254.66 -4.77938 -0.333493 0
M  V30 33000 H 3253.03 -2.53225 -0.273692 0
M  V30 33001 H 3253.81 -3.19275 1.26168 0
M  V30 33002 N 3256.25 -0.120276 -1.5714 0
M  V30 33003 C 3257.19 0.859949 -2.12456 0
M  V30 33004 C 3258.2 1.22909 -1.06758 0
M  V30 33005 O 3259.39 1.17782 -1.34126 0
M  V30 33006 C 3256.49 2.16143 -2.61028 0
M  V30 33007 C 3255.66 1.96378 -3.90838 0
M  V30 33008 C 3254.72 3.10267 -4.24995 0
M  V30 33009 O 3253.75 2.83125 -4.93791 0
M  V30 33010 N 3254.95 4.36734 -3.82418 0
M  V30 33011 H 3257.71 0.38735 -2.97186 0
M  V30 33012 H 3255.27 0.0641091 -1.61773 0
M  V30 33013 H 3257.27 2.9133 -2.80908 0
M  V30 33014 H 3255.84 2.54747 -1.8117 0
M  V30 33015 H 3255.06 1.05377 -3.79854 0
M  V30 33016 H 3256.34 1.80479 -4.75715 0
M  V30 33017 H 3255.74 4.61661 -3.26934 0
M  V30 33018 H 3254.3 5.08788 -4.07404 0
M  V30 33019 N 3257.73 1.56851 0.153498 0
M  V30 33020 C 3258.96 1.87508 0.88631 0
M  V30 33021 C 3259.38 0.708595 1.74243 0
M  V30 33022 O 3258.74 -0.341966 1.78046 0
M  V30 33023 C 3258.79 3.16706 1.72422 0
M  V30 33024 O 3257.89 3.00183 2.82779 0
M  V30 33025 H 3257.23 0.61625 0.247248 0
M  V30 33026 H 3259.76 2.04076 0.146271 0
M  V30 33027 H 3259.77 3.48563 2.12056 0
M  V30 33028 H 3258.45 4.01212 1.09551 0
M  V30 33029 H 3257.03 2.7972 2.46599 0
M  V30 33030 N 3259.21 -0.42264 1.51827 0
M  V30 33031 C 3260.46 -1.16783 1.64452 0
M  V30 33032 C 3260.77 -1.91995 0.373826 0
M  V30 33033 O 3261.98 -2.68832 0.379668 0
M  V30 33034 C 3260.43 -2.12468 2.90492 0
M  V30 33035 C 3260.04 -1.42836 4.2462 0
M  V30 33036 C 3261.79 -2.87329 3.12477 0
M  V30 33037 C 3259.69 -2.3709 5.41795 0
M  V30 33038 H 3258.62 -0.439631 0.612569 0
M  V30 33039 H 3261.27 -0.433503 1.78306 0
M  V30 33040 H 3259.66 -2.89397 2.70306 0
M  V30 33041 H 3260.83 -0.71364 4.5524 0
M  V30 33042 H 3259.15 -0.800698 4.08629 0
M  V30 33043 H 3261.74 -3.57966 3.97196 0
M  V30 33044 H 3262.09 -3.49514 2.26154 0
M  V30 33045 H 3262.62 -2.17503 3.33072 0
M  V30 33046 H 3259.36 -1.79573 6.30424 0
M  V30 33047 H 3258.88 -3.06574 5.15531 0
M  V30 33048 H 3260.56 -2.97907 5.74335 0
M  V30 33049 N 3260.69 -1.42222 -0.679027 0
M  V30 33050 C 3261.64 -1.41827 -1.78519 0
M  V30 33051 C 3262.62 -0.290206 -1.58261 0
M  V30 33052 O 3263.81 -0.532122 -1.68812 0
M  V30 33053 C 3260.94 -1.31901 -3.1695 0
M  V30 33054 C 3260.03 -2.49636 -3.42845 0
M  V30 33055 N 3260.42 -3.75069 -3.39348 0
M  V30 33056 C 3258.72 -2.43805 -3.73463 0
M  V30 33057 C 3259.42 -4.53249 -3.64609 0
M  V30 33058 N 3258.4 -3.83598 -3.85167 0
M  V30 33059 H 3262.2 -2.36708 -1.74202 0
M  V30 33060 H 3259.71 -1.36511 -0.879695 0
M  V30 33061 H 3261.71 -1.297 -3.96211 0
M  V30 33062 H 3260.37 -0.380184 -3.22467 0
M  V30 33063 H 3261.38 -4.07723 -3.19346 0
M  V30 33064 H 3258.06 -1.5848 -3.86252 0
M  V30 33065 H 3259.45 -5.62226 -3.67902 0
M  V30 33066 N 3262.17 0.91492 -1.28324 0
M  V30 33067 C 3263.42 1.65851 -1.14788 0
M  V30 33068 C 3263.73 1.93237 0.303101 0
M  V30 33069 O 3264.93 2.65671 0.559559 0
M  V30 33070 C 3263.39 2.98772 -2.00657 0
M  V30 33071 C 3263 2.79038 -3.50488 0
M  V30 33072 C 3264.74 3.76644 -1.95804 0
M  V30 33073 C 3262.65 4.07592 -4.28512 0
M  V30 33074 H 3261.58 0.622127 -0.425998 0
M  V30 33075 H 3264.23 1.0154 -1.52846 0
M  V30 33076 H 3262.61 3.64212 -1.55454 0
M  V30 33077 H 3263.79 2.22286 -4.0364 0
M  V30 33078 H 3262.1 2.1458 -3.56853 0
M  V30 33079 H 3264.7 4.71931 -2.51367 0
M  V30 33080 H 3265.04 4.05675 -0.934526 0
M  V30 33081 H 3265.57 3.18022 -2.3897 0
M  V30 33082 H 3262.31 3.83735 -5.31439 0
M  V30 33083 H 3261.83 4.6396 -3.80133 0
M  V30 33084 H 3263.51 4.75859 -4.38369 0
M  V30 33085 N 3263.64 1.10553 1.1232 0
M  V30 33086 C 3264.59 0.755463 2.18086 0
M  V30 33087 C 3265.56 -0.268776 1.63911 0
M  V30 33088 O 3266.75 -0.14778 1.90227 0
M  V30 33089 C 3263.89 0.194773 3.4455 0
M  V30 33090 C 3263 1.27446 4.12773 0
M  V30 33091 C 3262.13 0.675286 5.2689 0
M  V30 33092 C 3261.17 1.73547 5.86982 0
M  V30 33093 N 3260.31 1.15647 6.9251 0
M  V30 33094 H 3265.15 1.66159 2.47376 0
M  V30 33095 H 3262.69 0.829945 1.21451 0
M  V30 33096 H 3264.65 -0.148202 4.16937 0
M  V30 33097 H 3263.28 -0.674583 3.15673 0
M  V30 33098 H 3262.33 1.73454 3.38553 0
M  V30 33099 H 3263.64 2.07695 4.53502 0
M  V30 33100 H 3262.79 0.28183 6.06045 0
M  V30 33101 H 3261.53 -0.158623 4.87442 0
M  V30 33102 H 3260.54 2.13834 5.06513 0
M  V30 33103 H 3261.76 2.57224 6.285 0
M  V30 33104 H 3259.71 0.344043 6.55097 0
M  V30 33105 H 3259.63 1.89578 7.31844 0
M  V30 33106 H 3260.89 0.789599 7.75491 0
M  V30 33107 N 3265.12 -1.29758 0.894457 0
M  V30 33108 C 3266.4 -1.90647 0.437399 0
M  V30 33109 C 3266.78 -1.81228 -1.08258 0
M  V30 33110 O 3266.13 -1.2356 -1.92211 0
M  V30 33111 C 3266.34 -3.35931 0.946106 0
M  V30 33112 C 3267.69 -4.12976 0.986694 0
M  V30 33113 O 3268.71 -3.44814 0.893416 0
M  V30 33114 O 3267.57 -5.34774 1.12601 0
M  V30 33115 H 3264.66 -0.815832 0.13545 0
M  V30 33116 H 3267.21 -1.3826 0.98398 0
M  V30 33117 H 3265.98 -3.36917 1.99004 0
M  V30 33118 H 3265.6 -3.95787 0.379234 0
M  V30 33119 N 3266.6 -0.65639 -1.4328 0
M  V30 33120 C 3267.56 0.023877 -2.29188 0
M  V30 33121 C 3268.56 0.747411 -1.42374 0
M  V30 33122 O 3269.75 0.588184 -1.6397 0
M  V30 33123 C 3266.89 1.04455 -3.24503 0
M  V30 33124 H 3268.08 -0.732029 -2.90829 0
M  V30 33125 H 3265.63 -0.417778 -1.50613 0
M  V30 33126 H 3266.37 1.82958 -2.67763 0
M  V30 33127 H 3266.15 0.529352 -3.8851 0
M  V30 33128 H 3267.64 1.51951 -3.88974 0
M  V30 33129 N 3268.08 1.52478 -0.398513 0
M  V30 33130 C 3269.01 2.24384 0.467387 0
M  V30 33131 C 3270.02 1.2696 1.01906 0
M  V30 33132 O 3271.21 1.52976 0.919816 0
M  V30 33133 C 3268.31 2.95382 1.66141 0
M  V30 33134 C 3267.49 4.19588 1.2355 0
M  V30 33135 C 3266.55 4.73503 2.29524 0
M  V30 33136 O 3265.57 5.36357 1.90551 0
M  V30 33137 N 3266.77 4.54156 3.61556 0
M  V30 33138 H 3269.54 2.99331 -0.148706 0
M  V30 33139 H 3267.1 1.60324 -0.225341 0
M  V30 33140 H 3269.09 3.28348 2.36579 0
M  V30 33141 H 3267.66 2.23686 2.18365 0
M  V30 33142 H 3266.88 3.92556 0.359646 0
M  V30 33143 H 3268.17 5.00271 0.927724 0
M  V30 33144 H 3267.57 4.04005 3.95975 0
M  V30 33145 H 3266.12 4.91588 4.28001 0
M  V30 33146 N 3269.56 0.128608 1.57074 0
M  V30 33147 C 3270.79 -0.534509 1.99876 0
M  V30 33148 C 3271.2 -1.59611 1.00846 0
M  V30 33149 O 3270.56 -1.825 0.00272155 0
M  V30 33150 C 3270.61 -1.15192 3.42656 0
M  V30 33151 O 3270.33 -0.132746 4.37899 0
M  V30 33152 C 3271.83 -1.89743 4.0064 0
M  V30 33153 H 3269.05 -0.140733 0.656076 0
M  V30 33154 H 3271.59 0.217777 2.03337 0
M  V30 33155 H 3269.75 -1.85493 3.40104 0
M  V30 33156 H 3270.16 -0.58259 5.21254 0
M  V30 33157 H 3271.64 -2.28257 5.02596 0
M  V30 33158 H 3272.11 -2.77634 3.40318 0
M  V30 33159 H 3272.72 -1.24183 4.06766 0
M  V30 33160 N 3271.04 -1.5693 -0.145178 0
M  V30 33161 C 3272.45 -1.72875 -0.705058 0
M  V30 33162 C 3272.8 -0.743293 -1.81575 0
M  V30 33163 O 3271.92 0.0896773 -2.16214 0
M  V30 33164 C 3272.52 -3.13456 -1.28572 0
M  V30 33165 C 3271.08 -3.30997 -1.79215 0
M  V30 33166 C 3270.22 -2.68799 -0.681345 0
M  V30 33167 H 3273.17 -1.58496 0.0805077 0
M  V30 33168 H 3273.2 -3.13556 -2.15552 0
M  V30 33169 H 3272.71 -3.85156 -0.477118 0
M  V30 33170 H 3270.81 -2.64296 -2.62637 0
M  V30 33171 H 3270.92 -4.38962 -1.91961 0
M  V30 33172 H 3269.29 -2.29316 -1.10843 0
M  V30 33173 H 3270.07 -3.43104 0.115846 0
M  V30 33174 N 3272.51 0.414582 -1.52049 0
M  V30 33175 C 3273.74 1.18389 -1.69681 0
M  V30 33176 C 3274.16 1.84429 -0.403914 0
M  V30 33177 O 3273.51 1.7166 0.619606 0
M  V30 33178 C 3273.56 2.25107 -2.82859 0
M  V30 33179 O 3273.29 1.61765 -4.07141 0
M  V30 33180 C 3274.79 3.1496 -3.11954 0
M  V30 33181 H 3272.01 0.355967 -0.568796 0
M  V30 33182 H 3274.55 0.48847 -1.98581 0
M  V30 33183 H 3272.71 2.90327 -2.56494 0
M  V30 33184 H 3273.12 2.32471 -4.70167 0
M  V30 33185 H 3274.59 3.85925 -3.94672 0
M  V30 33186 H 3275.07 3.77021 -2.25282 0
M  V30 33187 H 3275.68 2.55415 -3.40064 0
M  V30 33188 N 3273.99 1.4258 0.671475 0
M  V30 33189 C 3274.92 1.4911 1.7969 0
M  V30 33190 C 3275.9 0.347367 1.66515 0
M  V30 33191 O 3277.09 0.562127 1.85886 0
M  V30 33192 C 3274.22 1.39602 3.18007 0
M  V30 33193 C 3273.17 2.52036 3.45921 0
M  V30 33194 C 3272.5 2.27585 4.83848 0
M  V30 33195 C 3273.8 3.94339 3.42483 0
M  V30 33196 H 3275.49 2.43303 1.74482 0
M  V30 33197 H 3273.04 1.17103 0.838022 0
M  V30 33198 H 3274.99 1.42778 3.96475 0
M  V30 33199 H 3273.71 0.419046 3.23901 0
M  V30 33200 H 3272.37 2.48183 2.69816 0
M  V30 33201 H 3272.02 1.28174 4.86395 0
M  V30 33202 H 3271.72 3.02943 5.03487 0
M  V30 33203 H 3273.25 2.32516 5.64596 0
M  V30 33204 H 3274.66 3.99777 4.10915 0
M  V30 33205 H 3273.06 4.69574 3.73658 0
M  V30 33206 H 3274.13 4.20773 2.40994 0
M  V30 33207 N 3275.47 -0.908102 1.28807 0
M  V30 33208 C 3276.4 -2.02785 1.15761 0
M  V30 33209 C 3277.38 -1.70014 0.0539408 0
M  V30 33210 O 3278.57 -1.9281 0.231935 0
M  V30 33211 C 3275.7 -3.37369 0.824585 0
M  V30 33212 C 3274.65 -3.84321 1.88365 0
M  V30 33213 C 3273.98 -5.15934 1.40413 0
M  V30 33214 C 3275.28 -4.05562 3.29115 0
M  V30 33215 H 3276.97 -2.13957 2.09434 0
M  V30 33216 H 3274.52 -1.02804 1.00833 0
M  V30 33217 H 3276.47 -4.15202 0.720063 0
M  V30 33218 H 3275.19 -3.26265 -0.147845 0
M  V30 33219 H 3273.85 -3.08697 1.97742 0
M  V30 33220 H 3273.5 -5.01238 0.420603 0
M  V30 33221 H 3273.2 -5.48319 2.11234 0
M  V30 33222 H 3274.72 -5.96317 1.31294 0
M  V30 33223 H 3276.14 -4.73903 3.22628 0
M  V30 33224 H 3274.53 -4.49287 3.9782 0
M  V30 33225 H 3275.6 -3.1018 3.72715 0
M  V30 33226 N 3276.95 -1.11147 -1.11732 0
M  V30 33227 C 3278.19 -0.858445 -1.83404 0
M  V30 33228 C 3278.52 0.615942 -1.8449 0
M  V30 33229 O 3277.78 1.47055 -1.29125 0
M  V30 33230 C 3278.08 -1.36135 -3.30457 0
M  V30 33231 C 3277.74 -2.84844 -3.49535 0
M  V30 33232 C 3276.4 -3.25451 -3.5445 0
M  V30 33233 C 3278.76 -3.80637 -3.56041 0
M  V30 33234 C 3276.08 -4.60587 -3.63423 0
M  V30 33235 C 3278.44 -5.15585 -3.66544 0
M  V30 33236 C 3277.1 -5.55756 -3.69718 0
M  V30 33237 H 3276.37 -0.314127 -0.671122 0
M  V30 33238 H 3279.02 -1.38935 -1.31793 0
M  V30 33239 H 3277.32 -0.750615 -3.84543 0
M  V30 33240 H 3279.02 -1.14195 -3.84396 0
M  V30 33241 H 3275.61 -2.52429 -3.46378 0
M  V30 33242 H 3279.79 -3.50366 -3.51507 0
M  V30 33243 H 3275.05 -4.91122 -3.64155 0
M  V30 33244 H 3279.22 -5.8965 -3.70522 0
M  V30 33245 H 3276.85 -6.60461 -3.76424 0
M  V30 33246 N 3278.43 1.29282 -0.901326 0
M  V30 33247 C 3279.84 1.77581 -0.576349 0
M  V30 33248 C 3280.19 1.73922 0.908048 0
M  V30 33249 O 3279.31 1.32614 1.71004 0
M  V30 33250 C 3279.91 3.22461 -1.03944 0
M  V30 33251 C 3278.47 3.68532 -0.765597 0
M  V30 33252 C 3277.61 2.49352 -1.21322 0
M  V30 33253 H 3280.56 1.15921 -1.08388 0
M  V30 33254 H 3280.59 3.78643 -0.375433 0
M  V30 33255 H 3280.1 3.25092 -2.11983 0
M  V30 33256 H 3278.2 3.71373 0.30211 0
M  V30 33257 H 3278.31 4.59255 -1.36462 0
M  V30 33258 H 3276.68 2.4673 -0.632184 0
M  V30 33259 H 3277.46 2.5471 -2.30169 0
M  V30 33260 N 3279.9 0.663979 1.4293 0
M  V30 33261 C 3281.15 0.181773 2.01683 0
M  V30 33262 C 3281.48 -1.20799 1.52439 0
M  V30 33263 O 3280.73 -1.82266 0.712572 0
M  V30 33264 C 3281.03 0.153226 3.57071 0
M  V30 33265 C 3280.7 1.48619 4.25703 0
M  V30 33266 C 3279.36 1.85119 4.44167 0
M  V30 33267 C 3281.71 2.36456 4.64476 0
M  V30 33268 C 3279.04 3.09101 4.98672 0
M  V30 33269 C 3281.39 3.59739 5.20356 0
M  V30 33270 C 3280.06 3.96422 5.37035 0
M  V30 33271 H 3279.33 0.0665155 0.738009 0
M  V30 33272 H 3281.97 0.856822 1.71262 0
M  V30 33273 H 3280.28 -0.605304 3.87096 0
M  V30 33274 H 3281.98 -0.236911 4.003 0
M  V30 33275 H 3278.57 1.19222 4.11684 0
M  V30 33276 H 3282.75 2.09544 4.49894 0
M  V30 33277 H 3278.01 3.37556 5.0977 0
M  V30 33278 H 3282.18 4.28011 5.49345 0
M  V30 33279 H 3279.81 4.92569 5.79033 0
M  V30 33280 N 3281.38 -1.52265 0.406593 0
M  V30 33281 C 3282.34 -2.25536 -0.408212 0
M  V30 33282 C 3283.34 -1.2781 -0.975772 0
M  V30 33283 O 3284.53 -1.51771 -0.85505 0
M  V30 33284 C 3281.67 -3.02367 -1.57438 0
M  V30 33285 H 3282.86 -2.9899 0.233511 0
M  V30 33286 H 3280.41 -1.55489 0.159059 0
M  V30 33287 H 3281.15 -2.33256 -2.25304 0
M  V30 33288 H 3280.93 -3.74114 -1.17393 0
M  V30 33289 H 3282.42 -3.57952 -2.15082 0
M  V30 33290 N 3282.86 -0.136936 -1.57004 0
M  V30 33291 C 3283.82 0.792381 -2.15067 0
M  V30 33292 C 3284.82 1.18225 -1.08994 0
M  V30 33293 O 3286.01 1.10481 -1.34683 0
M  V30 33294 C 3283.15 2.07392 -2.70557 0
M  V30 33295 H 3284.34 0.287467 -2.98519 0
M  V30 33296 H 3281.89 0.112442 -1.55895 0
M  V30 33297 H 3282.63 2.62273 -1.90744 0
M  V30 33298 H 3282.41 1.80368 -3.48152 0
M  V30 33299 H 3283.9 2.73786 -3.15326 0
M  V30 33300 N 3284.34 1.57005 0.136853 0
M  V30 33301 C 3285.75 1.73247 0.69588 0
M  V30 33302 C 3286.1 0.752912 1.81179 0
M  V30 33303 O 3285.23 -0.0782097 2.16259 0
M  V30 33304 C 3285.82 3.14133 1.26908 0
M  V30 33305 C 3284.38 3.31942 1.77458 0
M  V30 33306 C 3283.53 2.69157 0.66708 0
M  V30 33307 H 3286.48 1.58451 -0.088912 0
M  V30 33308 H 3286.5 3.14695 2.13886 0
M  V30 33309 H 3286.01 3.85404 0.456686 0
M  V30 33310 H 3284.11 2.65686 2.61232 0
M  V30 33311 H 3284.22 4.39974 1.89631 0
M  V30 33312 H 3282.59 2.29901 1.09625 0
M  V30 33313 H 3283.37 3.43038 -0.13404 0
M  V30 33314 N 3285.82 -0.406513 1.52267 0
M  V30 33315 C 3287.23 -0.745324 1.41128 0
M  V30 33316 C 3287.43 -1.94732 0.517837 0
M  V30 33317 O 3286.49 -2.52495 -0.0153843 0
M  V30 33318 C 3287.8 -0.996809 2.83697 0
M  V30 33319 C 3289.35 -1.09936 2.93058 0
M  V30 33320 C 3289.82 -1.38359 4.36601 0
M  V30 33321 N 3291.32 -1.45219 4.39847 0
M  V30 33322 C 3292.05 -1.68843 5.47978 0
M  V30 33323 N 3291.55 -1.90053 6.66222 0
M  V30 33324 N 3293.34 -1.70879 5.35497 0
M  V30 33325 H 3285.49 0.384669 2.08888 0
M  V30 33326 H 3287.75 0.109826 0.941617 0
M  V30 33327 H 3287.46 -0.185924 3.51208 0
M  V30 33328 H 3287.33 -1.91627 3.24899 0
M  V30 33329 H 3289.72 -1.90084 2.25726 0
M  V30 33330 H 3289.8 -0.158211 2.5531 0
M  V30 33331 H 3289.45 -0.587284 5.04493 0
M  V30 33332 H 3289.38 -2.33731 4.71887 0
M  V30 33333 H 3291.87 -1.30606 3.54613 0
M  V30 33334 H 3292.18 -2.07537 7.44411 0
M  V30 33335 H 3290.52 -1.87313 6.69282 0
M  V30 33336 H 3293.72 -1.53848 4.42096 0
M  V30 33337 H 3293.89 -1.88951 6.1984 0
M  V30 33338 N 3287.29 -1.42934 -0.663904 0
M  V30 33339 C 3288.54 -1.44197 -1.42601 0
M  V30 33340 C 3288.87 -0.0620626 -1.94101 0
M  V30 33341 O 3288.15 0.91543 -1.7161 0
M  V30 33342 C 3288.43 -2.47549 -2.61518 0
M  V30 33343 C 3288.28 -3.94773 -2.1558 0
M  V30 33344 C 3289.6 -2.47759 -3.63736 0
M  V30 33345 H 3286.72 -0.525065 -0.51718 0
M  V30 33346 H 3289.36 -1.74417 -0.75358 0
M  V30 33347 H 3287.51 -2.2191 -3.18886 0
M  V30 33348 H 3289.19 -4.31431 -1.63295 0
M  V30 33349 H 3287.43 -4.08116 -1.4705 0
M  V30 33350 H 3288.1 -4.62683 -3.01045 0
M  V30 33351 H 3290.58 -2.70585 -3.16106 0
M  V30 33352 H 3289.45 -3.22033 -4.44506 0
M  V30 33353 H 3289.71 -1.50749 -4.15605 0
M  V30 33354 N 3288.77 0.901258 -1.29287 0
M  V30 33355 C 3290.02 1.65405 -1.17342 0
M  V30 33356 C 3290.35 1.92246 0.2748 0
M  V30 33357 O 3289.63 1.53178 1.19862 0
M  V30 33358 C 3289.91 3.00414 -1.98553 0
M  V30 33359 C 3289.76 2.80649 -3.51506 0
M  V30 33360 C 3291.08 4.01126 -1.81069 0
M  V30 33361 H 3288.2 0.600248 -0.427635 0
M  V30 33362 H 3290.84 1.04407 -1.58743 0
M  V30 33363 H 3288.99 3.52479 -1.63373 0
M  V30 33364 H 3290.66 2.35498 -3.96659 0
M  V30 33365 H 3288.91 2.15462 -3.76508 0
M  V30 33366 H 3289.58 3.76578 -4.036 0
M  V30 33367 H 3292.05 3.58166 -2.11794 0
M  V30 33368 H 3290.93 4.93532 -2.40244 0
M  V30 33369 H 3291.19 4.35423 -0.765465 0
M  V30 33370 N 3290.25 1.11738 1.11141 0
M  V30 33371 C 3291.5 0.866444 1.82585 0
M  V30 33372 C 3291.82 -0.60956 1.85228 0
M  V30 33373 O 3291.09 -1.44286 1.32508 0
M  V30 33374 H 3289.67 0.317552 0.676143 0
M  V30 33375 H 3292.33 1.41039 1.34514 0
M  V30 33376 H 3291.43 1.24141 2.86348 0
M  V30 33377 N 3291.73 -1.28802 0.90817 0
M  V30 33378 C 3293.01 -1.90172 0.457595 0
M  V30 33379 C 3293.39 -1.82366 -1.06329 0
M  V30 33380 O 3292.73 -1.25592 -1.9089 0
M  V30 33381 C 3292.94 -3.34909 0.981683 0
M  V30 33382 C 3294.29 -4.11907 1.03044 0
M  V30 33383 O 3295.32 -3.43847 0.929938 0
M  V30 33384 O 3294.17 -5.3355 1.18266 0
M  V30 33385 H 3291.27 -0.81435 0.144095 0
M  V30 33386 H 3293.81 -1.37209 0.998589 0
M  V30 33387 H 3292.59 -3.34787 2.02567 0
M  V30 33388 H 3292.21 -3.95363 0.421191 0
M  V30 33389 N 3293.21 -0.67155 -1.42576 0
M  V30 33390 C 3294.14 -0.00511088 -2.33499 0
M  V30 33391 C 3295.12 0.792736 -1.50498 0
M  V30 33392 O 3296.3 0.750543 -1.7911 0
M  V30 33393 C 3293.43 0.949135 -3.34079 0
M  V30 33394 C 3292.39 0.260111 -4.27209 0
M  V30 33395 C 3291.71 1.32707 -5.1797 0
M  V30 33396 C 3293.01 -0.858863 -5.1519 0
M  V30 33397 H 3294.71 -0.764457 -2.89476 0
M  V30 33398 H 3292.25 -0.369067 -1.3919 0
M  V30 33399 H 3294.21 1.42441 -3.96596 0
M  V30 33400 H 3292.93 1.73986 -2.76399 0
M  V30 33401 H 3291.59 -0.194898 -3.66082 0
M  V30 33402 H 3291.24 2.1097 -4.56619 0
M  V30 33403 H 3290.94 0.871191 -5.81106 0
M  V30 33404 H 3292.46 1.80334 -5.83363 0
M  V30 33405 H 3293.87 -0.464944 -5.71412 0
M  V30 33406 H 3292.27 -1.24034 -5.87142 0
M  V30 33407 H 3293.34 -1.70903 -4.53784 0
M  V30 33408 N 3294.68 1.52047 -0.414663 0
M  V30 33409 C 3295.91 2.06773 0.161101 0
M  V30 33410 C 3296.33 1.28222 1.37625 0
M  V30 33411 O 3295.69 0.313947 1.78561 0
M  V30 33412 C 3295.74 3.57331 0.484457 0
M  V30 33413 O 3294.84 3.81157 1.57459 0
M  V30 33414 H 3294.19 0.663895 0.0117886 0
M  V30 33415 H 3296.72 1.95925 -0.589459 0
M  V30 33416 H 3296.73 4.01205 0.741496 0
M  V30 33417 H 3295.4 4.13935 -0.403805 0
M  V30 33418 H 3293.98 3.49159 1.30928 0
M  V30 33419 N 3296.16 0.145261 1.56929 0
M  V30 33420 C 3297.07 -0.80818 2.2024 0
M  V30 33421 C 3298.09 -1.27302 1.18618 0
M  V30 33422 O 3299.26 -1.33057 1.51188 0
M  V30 33423 C 3296.33 -2.0305 2.81019 0
M  V30 33424 C 3295.39 -1.61505 3.97762 0
M  V30 33425 C 3294.62 -2.7791 4.55633 0
M  V30 33426 O 3294.85 -3.94075 4.12385 0
M  V30 33427 O 3293.78 -2.53482 5.45922 0
M  V30 33428 H 3297.61 -0.299261 3.02222 0
M  V30 33429 H 3295.19 -0.0816789 1.49177 0
M  V30 33430 H 3297.07 -2.74586 3.19656 0
M  V30 33431 H 3295.75 -2.52897 2.02051 0
M  V30 33432 H 3294.66 -0.869969 3.63844 0
M  V30 33433 H 3295.99 -1.16375 4.78244 0
M  V30 33434 N 3297.64 -1.57075 -0.128525 0
M  V30 33435 C 3298.6 -1.98717 -1.14211 0
M  V30 33436 C 3299.6 -0.876043 -1.34841 0
M  V30 33437 O 3300.79 -1.14229 -1.3152 0
M  V30 33438 C 3297.93 -2.3191 -2.49861 0
M  V30 33439 H 3299.12 -2.89459 -0.78443 0
M  V30 33440 H 3296.67 -1.51796 -0.372504 0
M  V30 33441 H 3297.41 -1.44017 -2.90568 0
M  V30 33442 H 3297.19 -3.12939 -2.36244 0
M  V30 33443 H 3298.68 -2.649 -3.22828 0
M  V30 33444 N 3299.12 0.398432 -1.5248 0
M  V30 33445 C 3300.37 1.14212 -1.66733 0
M  V30 33446 C 3300.69 1.90748 -0.404991 0
M  V30 33447 O 3299.96 1.87105 0.580402 0
M  V30 33448 H 3298.54 0.424611 -0.614585 0
M  V30 33449 H 3301.2 0.453026 -1.89562 0
M  V30 33450 H 3300.3 1.85027 -2.5134 0
M  V30 33451 N 3300.6 1.43284 0.656314 0
M  V30 33452 C 3301.82 1.48384 1.44903 0
M  V30 33453 C 3302.25 0.102026 1.87823 0
M  V30 33454 O 3301.61 -0.903569 1.57179 0
M  V30 33455 C 3301.65 2.43219 2.66227 0
M  V30 33456 O 3300.76 1.91632 3.65173 0
M  V30 33457 H 3300.1 0.502022 0.434592 0
M  V30 33458 H 3302.63 1.88167 0.803396 0
M  V30 33459 H 3302.64 2.6042 3.14079 0
M  V30 33460 H 3301.31 3.43602 2.3433 0
M  V30 33461 H 3299.89 1.84077 3.24299 0
M  V30 33462 N 3302.08 -0.894389 1.29763 0
M  V30 33463 C 3303.49 -1.17609 1.0789 0
M  V30 33464 C 3303.69 -2.00812 -0.166404 0
M  V30 33465 O 3302.75 -2.37306 -0.862678 0
M  V30 33466 C 3304.06 -1.89189 2.33727 0
M  V30 33467 C 3305.61 -2.01993 2.39098 0
M  V30 33468 C 3306.08 -2.76983 3.64752 0
M  V30 33469 N 3307.57 -2.84535 3.65506 0
M  V30 33470 C 3308.31 -3.43109 4.59417 0
M  V30 33471 N 3307.81 -4.02808 5.63664 0
M  V30 33472 N 3309.6 -3.40834 4.46977 0
M  V30 33473 H 3301.75 -0.339384 2.09671 0
M  V30 33474 H 3304.01 -0.212866 0.923792 0
M  V30 33475 H 3303.72 -1.35491 3.24554 0
M  V30 33476 H 3303.59 -2.89632 2.41647 0
M  V30 33477 H 3305.98 -2.54864 1.48756 0
M  V30 33478 H 3306.06 -1.00666 2.35159 0
M  V30 33479 H 3305.7 -2.24786 4.55449 0
M  V30 33480 H 3305.63 -3.78666 3.6595 0
M  V30 33481 H 3308.13 -2.42139 2.90133 0
M  V30 33482 H 3308.44 -4.45541 6.31437 0
M  V30 33483 H 3306.78 -4.01255 5.67468 0
M  V30 33484 H 3309.97 -2.93417 3.64724 0
M  V30 33485 H 3310.15 -3.86189 5.20348 0
M  V30 33486 N 3303.55 -1.12326 -1.10547 0
M  V30 33487 C 3304.52 -0.793193 -2.15037 0
M  V30 33488 C 3305.52 0.191891 -1.59651 0
M  V30 33489 O 3306.71 -0.0337569 -1.74167 0
M  V30 33490 C 3303.84 -0.17848 -3.40432 0
M  V30 33491 H 3305.03 -1.71896 -2.45747 0
M  V30 33492 H 3302.58 -0.926355 -1.2589 0
M  V30 33493 H 3303.32 0.757067 -3.15339 0
M  V30 33494 H 3303.1 -0.887712 -3.81919 0
M  V30 33495 H 3304.59 0.035999 -4.17584 0
M  V30 33496 N 3305.03 1.28319 -0.914988 0
M  V30 33497 C 3305.94 2.30999 -0.409464 0
M  V30 33498 C 3306.96 1.66556 0.503497 0
M  V30 33499 O 3308.13 1.976 0.389385 0
M  V30 33500 C 3305.2 3.45017 0.341169 0
M  V30 33501 C 3304.26 4.25013 -0.605161 0
M  V30 33502 C 3303.49 5.33587 0.109744 0
M  V30 33503 O 3303.72 5.54647 1.33127 0
M  V30 33504 O 3302.65 5.9933 -0.555579 0
M  V30 33505 H 3306.48 2.76251 -1.26172 0
M  V30 33506 H 3304.06 1.33035 -0.679855 0
M  V30 33507 H 3305.94 4.14397 0.765059 0
M  V30 33508 H 3304.62 3.01845 1.16923 0
M  V30 33509 H 3303.52 3.58217 -1.07848 0
M  V30 33510 H 3304.86 4.71867 -1.40008 0
M  V30 33511 N 3306.51 0.679102 1.42218 0
M  V30 33512 C 3307.44 -0.0467958 2.28152 0
M  V30 33513 C 3308.42 -0.804408 1.41308 0
M  V30 33514 O 3309.6 -0.798643 1.70745 0
M  V30 33515 C 3306.73 -1.0735 3.21238 0
M  V30 33516 C 3305.78 -0.410968 4.24515 0
M  V30 33517 S 3306.61 0.834599 5.28956 0
M  V30 33518 C 3307.77 -0.190919 6.25609 0
M  V30 33519 H 3308 0.682096 2.8937 0
M  V30 33520 H 3305.53 0.468793 1.47111 0
M  V30 33521 H 3307.49 -1.66076 3.75405 0
M  V30 33522 H 3306.15 -1.77486 2.59148 0
M  V30 33523 H 3305.34 -1.18582 4.89851 0
M  V30 33524 H 3304.95 0.102807 3.73859 0
M  V30 33525 H 3307.24 -1.04932 6.69325 0
M  V30 33526 H 3308.18 0.428083 7.06805 0
M  V30 33527 H 3308.59 -0.538323 5.61927 0
M  V30 33528 N 3307.99 -1.51825 0.42272 0
M  V30 33529 C 3308.9 -2.3112 -0.402569 0
M  V30 33530 C 3309.91 -1.39414 -1.04114 0
M  V30 33531 O 3311.09 -1.72488 -1.0397 0
M  V30 33532 C 3308.15 -3.12718 -1.49694 0
M  V30 33533 C 3307.22 -4.20184 -0.880014 0
M  V30 33534 C 3306.45 -4.97881 -1.92223 0
M  V30 33535 O 3306.67 -4.76037 -3.14238 0
M  V30 33536 O 3305.61 -5.82368 -1.5209 0
M  V30 33537 H 3309.43 -3.02715 0.244361 0
M  V30 33538 H 3307.02 -1.48243 0.185595 0
M  V30 33539 H 3308.9 -3.63491 -2.13196 0
M  V30 33540 H 3307.57 -2.43903 -2.12822 0
M  V30 33541 H 3306.48 -3.73525 -0.207338 0
M  V30 33542 H 3307.81 -4.9133 -0.292448 0
M  V30 33543 N 3309.47 -0.153581 -1.5685 0
M  V30 33544 C 3310.4 0.821791 -2.12889 0
M  V30 33545 C 3311.38 1.23796 -1.0542 0
M  V30 33546 O 3312.56 1.33289 -1.3329 0
M  V30 33547 C 3309.69 2.10433 -2.65397 0
M  V30 33548 C 3308.73 1.83357 -3.85074 0
M  V30 33549 S 3309.57 1.01868 -5.25722 0
M  V30 33550 C 3310.72 2.31226 -5.81623 0
M  V30 33551 H 3310.96 0.345262 -2.95288 0
M  V30 33552 H 3308.49 0.0608106 -1.5428 0
M  V30 33553 H 3310.45 2.84107 -2.96299 0
M  V30 33554 H 3309.11 2.552 -1.83116 0
M  V30 33555 H 3308.3 2.78475 -4.20081 0
M  V30 33556 H 3307.9 1.17788 -3.54968 0
M  V30 33557 H 3310.19 3.26828 -5.93456 0
M  V30 33558 H 3311.14 2.00715 -6.79058 0
M  V30 33559 H 3311.55 2.42176 -5.09913 0
M  V30 33560 N 3310.94 1.57141 0.120193 0
M  V30 33561 C 3311.89 2.00254 1.14748 0
M  V30 33562 C 3312.86 0.874487 1.41216 0
M  V30 33563 O 3314.05 1.13862 1.53102 0
M  V30 33564 C 3311.19 2.41091 2.46919 0
M  V30 33565 C 3310.3 3.67307 2.27397 0
M  V30 33566 C 3309.43 3.97131 3.5279 0
M  V30 33567 C 3308.47 5.16533 3.2842 0
M  V30 33568 N 3307.61 5.42233 4.46013 0
M  V30 33569 H 3312.45 2.87804 0.772834 0
M  V30 33570 H 3309.99 1.42368 0.370112 0
M  V30 33571 H 3311.94 2.62805 3.24021 0
M  V30 33572 H 3310.57 1.56585 2.82278 0
M  V30 33573 H 3309.63 3.53216 1.41218 0
M  V30 33574 H 3310.94 4.54562 2.05365 0
M  V30 33575 H 3310.09 4.19487 4.3831 0
M  V30 33576 H 3308.83 3.0835 3.77852 0
M  V30 33577 H 3307.84 4.94024 2.4129 0
M  V30 33578 H 3309.06 6.06891 3.0473 0
M  V30 33579 H 3307.01 4.56409 4.71197 0
M  V30 33580 H 3306.92 6.23809 4.27081 0
M  V30 33581 H 3308.19 5.69107 5.3267 0
M  V30 33582 N 3312.42 -0.39034 1.5269 0
M  V30 33583 C 3313.67 -1.13719 1.67916 0
M  V30 33584 C 3314 -1.89666 0.417192 0
M  V30 33585 O 3313.28 -1.85495 -0.584972 0
M  V30 33586 C 3313.56 -2.11651 2.91335 0
M  V30 33587 C 3313.41 -1.39476 4.27629 0
M  V30 33588 C 3314.73 -3.12094 3.10299 0
M  V30 33589 H 3311.85 -0.412046 0.611054 0
M  V30 33590 H 3314.49 -0.420721 1.85283 0
M  V30 33591 H 3312.64 -2.72749 2.76659 0
M  V30 33592 H 3314.31 -0.813528 4.5407 0
M  V30 33593 H 3312.56 -0.696615 4.2817 0
M  V30 33594 H 3313.23 -2.11029 5.10069 0
M  V30 33595 H 3315.7 -2.61085 3.23997 0
M  V30 33596 H 3314.58 -3.77863 3.98134 0
M  V30 33597 H 3314.84 -3.80884 2.24454 0
M  V30 33598 N 3313.9 -1.4363 -0.648706 0
M  V30 33599 C 3314.83 -1.5195 -1.77295 0
M  V30 33600 C 3315.81 -0.373814 -1.65942 0
M  V30 33601 O 3317 -0.591629 -1.84969 0
M  V30 33602 C 3314.13 -1.44643 -3.15746 0
M  V30 33603 C 3313.08 -2.57508 -3.41868 0
M  V30 33604 C 3312.41 -2.35254 -4.80166 0
M  V30 33605 C 3313.71 -3.99737 -3.36166 0
M  V30 33606 H 3315.4 -2.46048 -1.70589 0
M  V30 33607 H 3312.95 -1.18422 -0.819285 0
M  V30 33608 H 3314.9 -1.49067 -3.94153 0
M  V30 33609 H 3313.62 -0.470523 -3.23193 0
M  V30 33610 H 3312.28 -2.52444 -2.65833 0
M  V30 33611 H 3311.93 -1.35896 -4.84295 0
M  V30 33612 H 3311.63 -3.10914 -4.98604 0
M  V30 33613 H 3313.15 -2.41469 -5.60825 0
M  V30 33614 H 3314.57 -4.06264 -4.04503 0
M  V30 33615 H 3312.97 -4.75459 -3.6614 0
M  V30 33616 H 3314.04 -4.24553 -2.3427 0
M  V30 33617 N 3315.38 0.887495 -1.30236 0
M  V30 33618 C 3316.31 2.00917 -1.18973 0
M  V30 33619 C 3317.29 1.69907 -0.0809818 0
M  V30 33620 O 3318.47 1.92417 -0.26258 0
M  V30 33621 C 3315.6 3.36015 -0.878153 0
M  V30 33622 C 3314.56 3.81275 -1.94456 0
M  V30 33623 C 3313.88 5.13635 -1.48603 0
M  V30 33624 C 3315.18 4.00275 -3.35526 0
M  V30 33625 H 3316.88 2.10598 -2.12812 0
M  V30 33626 H 3314.42 1.01187 -1.02456 0
M  V30 33627 H 3316.38 4.14004 -0.786027 0
M  V30 33628 H 3315.1 3.26459 0.0959205 0
M  V30 33629 H 3313.76 3.05512 -2.02628 0
M  V30 33630 H 3313.41 5.00506 -0.500292 0
M  V30 33631 H 3313.11 5.44889 -2.1993 0
M  V30 33632 H 3314.63 5.94153 -1.40764 0
M  V30 33633 H 3316.05 4.6871 -3.30127 0
M  V30 33634 H 3314.44 4.42901 -4.04918 0
M  V30 33635 H 3315.51 3.04211 -3.77602 0
M  V30 33636 N 3316.86 1.12911 1.0995 0
M  V30 33637 C 3318.1 0.898765 1.82466 0
M  V30 33638 C 3318.46 -0.569164 1.83789 0
M  V30 33639 O 3317.75 -1.41558 1.2912 0
M  V30 33640 C 3317.94 1.41375 3.2825 0
M  V30 33641 C 3317.77 2.93021 3.41128 0
M  V30 33642 C 3316.54 3.6131 3.53246 0
M  V30 33643 C 3318.74 3.90992 3.34111 0
M  V30 33644 N 3316.72 5.01022 3.54753 0
M  V30 33645 C 3318.09 5.16863 3.42422 0
M  V30 33646 C 3320.15 3.83333 3.17743 0
M  V30 33647 C 3318.85 6.35973 3.36052 0
M  V30 33648 C 3320.88 5.01971 3.12696 0
M  V30 33649 C 3320.24 6.26703 3.21594 0
M  V30 33650 H 3316.34 0.38222 0.682225 0
M  V30 33651 H 3318.92 1.43634 1.31444 0
M  V30 33652 H 3317.09 0.903164 3.77753 0
M  V30 33653 H 3318.83 1.12495 3.8875 0
M  V30 33654 H 3315.58 3.11815 3.56466 0
M  V30 33655 H 3316.01 5.7391 3.59104 0
M  V30 33656 H 3320.65 2.87789 3.09737 0
M  V30 33657 H 3318.37 7.31778 3.42822 0
M  V30 33658 H 3321.95 4.9778 3.01175 0
M  V30 33659 H 3320.83 7.16964 3.17698 0
M  V30 33660 N 3318.33 -1.27832 0.92178 0
M  V30 33661 C 3319.3 -2.253 0.421017 0
M  V30 33662 C 3320.3 -1.54165 -0.457131 0
M  V30 33663 O 3321.49 -1.72263 -0.259048 0
M  V30 33664 C 3318.62 -3.38599 -0.395441 0
M  V30 33665 H 3319.81 -2.71112 1.28211 0
M  V30 33666 H 3317.37 -1.39652 0.701917 0
M  V30 33667 H 3318.1 -2.98159 -1.2756 0
M  V30 33668 H 3317.89 -3.91401 0.234097 0
M  V30 33669 H 3319.38 -4.11056 -0.736371 0
M  V30 33670 N 3319.81 -0.686634 -1.41856 0
M  V30 33671 C 3321.06 -0.214153 -2.01666 0
M  V30 33672 C 3321.39 1.18022 -1.54222 0
M  V30 33673 O 3320.67 1.79479 -0.749514 0
M  V30 33674 C 3320.95 -0.261905 -3.59146 0
M  V30 33675 C 3320.8 -1.69258 -4.16739 0
M  V30 33676 C 3322.12 0.383301 -4.38428 0
M  V30 33677 H 3319.24 -0.0792914 -0.732722 0
M  V30 33678 H 3321.88 -0.873663 -1.68722 0
M  V30 33679 H 3320.03 0.299642 -3.87343 0
M  V30 33680 H 3321.7 -2.30729 -3.99452 0
M  V30 33681 H 3319.95 -2.22956 -3.7212 0
M  V30 33682 H 3320.62 -1.67759 -5.25891 0
M  V30 33683 H 3323.09 -0.0948432 -4.15992 0
M  V30 33684 H 3321.97 0.319305 -5.4797 0
M  V30 33685 H 3322.23 1.46269 -4.17202 0
M  V30 33686 N 3321.29 1.51599 -0.430766 0
M  V30 33687 C 3322.22 2.25325 0.419687 0
M  V30 33688 C 3323.24 1.29093 0.991903 0
M  V30 33689 O 3324.42 1.54893 0.887161 0
M  V30 33690 C 3321.52 2.98839 1.59838 0
M  V30 33691 C 3320.7 4.22114 1.14622 0
M  V30 33692 C 3319.76 4.78265 2.19428 0
M  V30 33693 O 3318.78 5.40278 1.79131 0
M  V30 33694 N 3319.98 4.61723 3.51841 0
M  V30 33695 H 3322.75 2.98948 -0.212165 0
M  V30 33696 H 3320.31 1.5981 -0.259297 0
M  V30 33697 H 3322.3 3.33292 2.29561 0
M  V30 33698 H 3320.87 2.28268 2.13571 0
M  V30 33699 H 3320.09 3.93231 0.276298 0
M  V30 33700 H 3321.38 5.02126 0.8214 0
M  V30 33701 H 3320.78 4.12313 3.87317 0
M  V30 33702 H 3319.34 5.00555 4.17477 0
M  V30 33703 N 3322.77 0.161897 1.56766 0
M  V30 33704 C 3324.18 -0.194375 1.58412 0
M  V30 33705 C 3324.38 -1.63562 1.17685 0
M  V30 33706 O 3323.44 -2.36518 0.884065 0
M  V30 33707 C 3324.75 0.0778967 3.00599 0
M  V30 33708 C 3326.3 0.015362 3.12996 0
M  V30 33709 C 3326.78 0.260498 4.57259 0
M  V30 33710 N 3328.27 0.207944 4.62733 0
M  V30 33711 C 3329 0.371921 5.72193 0
M  V30 33712 N 3328.5 0.594439 6.90245 0
M  V30 33713 N 3330.29 0.308483 5.61253 0
M  V30 33714 H 3322.44 1.10277 1.81529 0
M  V30 33715 H 3324.71 0.437689 0.840911 0
M  V30 33716 H 3324.41 1.07593 3.34838 0
M  V30 33717 H 3324.29 -0.63478 3.7182 0
M  V30 33718 H 3326.67 -0.973241 2.78589 0
M  V30 33719 H 3326.75 0.760602 2.4423 0
M  V30 33720 H 3326.4 1.24627 4.92372 0
M  V30 33721 H 3326.33 -0.505242 5.24171 0
M  V30 33722 H 3328.82 0.0412205 3.77878 0
M  V30 33723 H 3329.13 0.709266 7.69538 0
M  V30 33724 H 3327.48 0.630941 6.9213 0
M  V30 33725 H 3330.67 0.1353 4.67904 0
M  V30 33726 H 3330.84 0.439706 6.46506 0
M  V30 33727 N 3324.25 -1.57203 -0.111858 0
M  V30 33728 C 3325.18 -2.03896 -1.13793 0
M  V30 33729 C 3326.16 -0.924721 -1.42769 0
M  V30 33730 O 3327.34 -1.1949 -1.53087 0
M  V30 33731 C 3324.47 -2.4493 -2.46225 0
M  V30 33732 C 3323.43 -3.59863 -2.31696 0
M  V30 33733 C 3322.75 -3.86819 -3.69154 0
M  V30 33734 C 3324.05 -4.91341 -1.77149 0
M  V30 33735 H 3325.75 -2.89866 -0.74953 0
M  V30 33736 H 3323.29 -1.39451 -0.359101 0
M  V30 33737 H 3325.25 -2.76201 -3.18262 0
M  V30 33738 H 3323.97 -1.55938 -2.86968 0
M  V30 33739 H 3322.63 -3.28812 -1.62106 0
M  V30 33740 H 3322.28 -2.95022 -4.07396 0
M  V30 33741 H 3321.98 -4.64187 -3.60284 0
M  V30 33742 H 3323.5 -4.20549 -4.42686 0
M  V30 33743 H 3324.91 -5.21102 -2.39011 0
M  V30 33744 H 3323.31 -5.72756 -1.79081 0
M  V30 33745 H 3324.38 -4.7938 -0.729591 0
M  V30 33746 N 3325.72 0.382237 -1.52894 0
M  V30 33747 C 3326.97 1.12382 -1.67491 0
M  V30 33748 C 3327.29 1.90936 -0.424599 0
M  V30 33749 O 3328.49 2.67731 -0.45081 0
M  V30 33750 C 3326.95 2.04691 -2.96023 0
M  V30 33751 C 3326.56 1.31528 -4.28257 0
M  V30 33752 C 3328.3 2.78943 -3.19986 0
M  V30 33753 C 3326.21 2.22642 -5.47891 0
M  V30 33754 H 3325.14 0.423235 -0.62401 0
M  V30 33755 H 3327.79 0.386075 -1.79393 0
M  V30 33756 H 3326.17 2.82129 -2.77883 0
M  V30 33757 H 3327.34 0.59269 -4.56972 0
M  V30 33758 H 3325.66 0.692075 -4.10608 0
M  V30 33759 H 3328.26 3.47309 -4.06547 0
M  V30 33760 H 3328.6 3.43395 -2.35341 0
M  V30 33761 H 3329.13 2.08596 -3.38722 0
M  V30 33762 H 3325.87 1.62795 -6.34963 0
M  V30 33763 H 3325.39 2.92798 -5.23478 0
M  V30 33764 H 3327.07 2.82575 -5.82031 0
M  V30 33765 N 3327.2 1.43972 0.64108 0
M  V30 33766 C 3328.45 1.45942 1.39805 0
M  V30 33767 C 3328.77 0.0894216 1.94795 0
M  V30 33768 O 3328.04 -0.876931 1.75176 0
M  V30 33769 H 3326.62 0.537358 0.518898 0
M  V30 33770 H 3329.28 1.79672 0.755246 0
M  V30 33771 H 3328.38 2.17907 2.23435 0
M  V30 33772 N 3328.68 -0.880575 1.30704 0
M  V30 33773 C 3329.93 -1.62953 1.19544 0
M  V30 33774 C 3330.25 -1.93403 -0.249055 0
M  V30 33775 O 3329.52 -1.57356 -1.16687 0
M  V30 33776 H 3328.1 -0.604067 0.439445 0
M  V30 33777 H 3330.76 -1.0548 1.6389 0
M  V30 33778 H 3329.86 -2.57776 1.75949 0
M  V30 33779 N 3330.16 -1.13492 -1.09349 0
M  V30 33780 C 3331.09 -0.835627 -2.18036 0
M  V30 33781 C 3332.07 0.205343 -1.68856 0
M  V30 33782 O 3333.26 0.0641016 -1.94094 0
M  V30 33783 C 3330.39 -0.301721 -3.45987 0
M  V30 33784 C 3329.34 -1.27703 -4.08505 0
M  V30 33785 C 3328.67 -0.602851 -5.31291 0
M  V30 33786 C 3329.97 -2.63583 -4.50912 0
M  V30 33787 H 3331.66 -1.74446 -2.43329 0
M  V30 33788 H 3329.21 -0.840186 -1.16948 0
M  V30 33789 H 3331.16 -0.0800021 -4.21324 0
M  V30 33790 H 3329.88 0.642496 -3.20218 0
M  V30 33791 H 3328.54 -1.48475 -3.35187 0
M  V30 33792 H 3328.19 0.346865 -5.01803 0
M  V30 33793 H 3327.89 -1.25355 -5.74073 0
M  V30 33794 H 3329.41 -0.390432 -6.0935 0
M  V30 33795 H 3330.83 -2.46774 -5.1747 0
M  V30 33796 H 3329.22 -3.24836 -5.04581 0
M  V30 33797 H 3330.29 -3.21186 -3.63273 0
M  V30 33798 N 3331.64 1.27341 -0.928546 0
M  V30 33799 C 3332.86 1.98973 -0.585195 0
M  V30 33800 C 3333.29 1.68801 0.829935 0
M  V30 33801 O 3332.65 0.928765 1.55704 0
M  V30 33802 C 3332.69 3.51183 -0.818724 0
M  V30 33803 O 3331.8 4.12239 0.115283 0
M  V30 33804 H 3331.14 0.62464 -0.225214 0
M  V30 33805 H 3333.67 1.62128 -1.24803 0
M  V30 33806 H 3333.68 4.01332 -0.734624 0
M  V30 33807 H 3332.35 3.72476 -1.85026 0
M  V30 33808 H 3330.93 3.72895 -0.0188026 0
M  V30 33809 N 3333.12 0.694147 1.4149 0
M  V30 33810 C 3334.34 0.233503 2.05578 0
M  V30 33811 C 3334.76 -1.11673 1.52232 0
M  V30 33812 O 3334.12 -1.69758 0.669967 0
M  V30 33813 C 3334.17 0.181031 3.61046 0
M  V30 33814 O 3333.89 1.47792 4.12419 0
M  V30 33815 C 3335.39 -0.300776 4.42278 0
M  V30 33816 H 3332.61 0.108955 0.662095 0
M  V30 33817 H 3335.15 0.946331 1.81287 0
M  V30 33818 H 3333.31 -0.482611 3.84382 0
M  V30 33819 H 3333.72 1.36409 5.06451 0
M  V30 33820 H 3335.2 -0.286367 5.51257 0
M  V30 33821 H 3335.67 -1.33941 4.18278 0
M  V30 33822 H 3336.28 0.331816 4.24004 0
M  V30 33823 N 3334.59 -1.51368 0.438799 0
M  V30 33824 C 3335.84 -2.01289 -0.128688 0
M  V30 33825 C 3336.16 -1.32748 -1.43657 0
M  V30 33826 O 3337.36 -1.73646 -2.08709 0
M  V30 33827 C 3335.82 -3.5881 -0.279881 0
M  V30 33828 C 3335.43 -4.36289 1.01765 0
M  V30 33829 C 3337.17 -4.16873 -0.80106 0
M  V30 33830 C 3335.08 -5.85518 0.832021 0
M  V30 33831 H 3334.01 -0.752214 -0.0518682 0
M  V30 33832 H 3336.66 -1.74462 0.568784 0
M  V30 33833 H 3335.04 -3.82089 -1.04039 0
M  V30 33834 H 3336.21 -4.24755 1.78661 0
M  V30 33835 H 3334.53 -3.89685 1.46747 0
M  V30 33836 H 3337.13 -5.26076 -0.956456 0
M  V30 33837 H 3337.47 -3.76142 -1.78389 0
M  V30 33838 H 3338 -3.97677 -0.0988234 0
M  V30 33839 H 3334.74 -6.30664 1.78728 0
M  V30 33840 H 3334.26 -5.99712 0.10289 0
M  V30 33841 H 3335.94 -6.45174 0.485795 0
M  V30 33842 N 3336.07 -0.170208 -1.56678 0
M  V30 33843 C 3337.32 0.474091 -1.96461 0
M  V30 33844 C 3337.64 1.63853 -1.05722 0
M  V30 33845 O 3336.91 1.95511 -0.12335 0
M  V30 33846 H 3335.49 0.178136 -0.725449 0
M  V30 33847 H 3338.15 -0.251133 -1.93275 0
M  V30 33848 H 3337.25 0.834841 -3.00727 0
M  V30 33849 N 3337.55 1.5726 0.10352 0
M  V30 33850 C 3338.51 2.00509 1.11036 0
M  V30 33851 C 3339.51 0.897384 1.3343 0
M  V30 33852 O 3340.7 1.16307 1.29686 0
M  V30 33853 C 3337.83 2.35856 2.4614 0
M  V30 33854 H 3339.03 2.90671 0.738281 0
M  V30 33855 H 3336.58 1.5237 0.348308 0
M  V30 33856 H 3337.32 1.48622 2.8824 0
M  V30 33857 H 3337.1 3.16658 2.31236 0
M  V30 33858 H 3338.59 2.70003 3.18572 0
M  V30 33859 N 3339.03 -0.374123 1.53095 0
M  V30 33860 C 3339.94 -1.48184 1.81875 0
M  V30 33861 C 3340.95 -1.59011 0.706515 0
M  V30 33862 O 3342.13 -1.75066 0.995679 0
M  V30 33863 C 3339.19 -2.83551 1.99499 0
M  V30 33864 C 3338.26 -2.82323 3.23407 0
M  V30 33865 C 3337.49 -4.11233 3.40181 0
M  V30 33866 O 3337.71 -5.0696 2.61434 0
M  V30 33867 O 3336.65 -4.17565 4.33501 0
M  V30 33868 H 3340.47 -1.2679 2.75967 0
M  V30 33869 H 3338.06 -0.563405 1.38369 0
M  V30 33870 H 3339.94 -3.63774 2.12712 0
M  V30 33871 H 3338.61 -3.0494 1.08597 0
M  V30 33872 H 3337.52 -2.00828 3.15624 0
M  V30 33873 H 3338.85 -2.65887 4.14204 0
M  V30 33874 N 3340.51 -1.4431 -0.633436 0
M  V30 33875 C 3341.92 -1.28146 -0.951356 0
M  V30 33876 C 3342.12 -0.215548 -2.00344 0
M  V30 33877 O 3341.18 0.399345 -2.49322 0
M  V30 33878 C 3342.49 -2.6523 -1.41682 0
M  V30 33879 C 3344.04 -2.72921 -1.53242 0
M  V30 33880 C 3344.51 -4.10469 -2.03172 0
M  V30 33881 N 3346 -4.12634 -2.10446 0
M  V30 33882 C 3346.74 -5.15912 -2.50245 0
M  V30 33883 N 3346.24 -6.29552 -2.89198 0
M  V30 33884 N 3348.03 -5.03266 -2.50359 0
M  V30 33885 H 3340.18 -2.12308 0.0623947 0
M  V30 33886 H 3342.44 -0.947364 -0.0347078 0
M  V30 33887 H 3342.15 -3.44291 -0.71808 0
M  V30 33888 H 3342.02 -2.91963 -2.38825 0
M  V30 33889 H 3344.41 -1.9418 -2.22212 0
M  V30 33890 H 3344.49 -2.49931 -0.544792 0
M  V30 33891 H 3344.13 -4.89686 -1.34797 0
M  V30 33892 H 3344.06 -4.30835 -3.02802 0
M  V30 33893 H 3346.56 -3.30615 -1.83036 0
M  V30 33894 H 3346.87 -7.04172 -3.18374 0
M  V30 33895 H 3345.21 -6.32994 -2.86955 0
M  V30 33896 H 3348.4 -4.13543 -2.19316 0
M  V30 33897 H 3348.58 -5.83878 -2.81052 0
M  V30 33898 N 3341.98 0.873632 -1.3117 0
M  V30 33899 C 3343.26 1.60855 -1.11287 0
M  V30 33900 C 3343.64 2.08445 0.333751 0
M  V30 33901 O 3342.99 1.86002 1.32723 0
M  V30 33902 C 3343.2 2.76937 -2.12384 0
M  V30 33903 C 3344.55 3.4699 -2.4471 0
M  V30 33904 O 3345.57 2.87139 -2.10783 0
M  V30 33905 O 3344.43 4.54949 -3.02794 0
M  V30 33906 H 3341.52 0.707519 -0.428189 0
M  V30 33907 H 3344.07 0.919415 -1.42635 0
M  V30 33908 H 3342.84 2.39159 -3.09708 0
M  V30 33909 H 3342.47 3.5354 -1.8192 0
M  V30 33910 N 3343.46 1.1407 1.08746 0
M  V30 33911 C 3344.71 0.901383 1.80438 0
M  V30 33912 C 3345.02 -0.573758 1.86996 0
M  V30 33913 O 3346.23 -0.93023 2.55067 0
M  V30 33914 C 3344.69 1.56314 3.24182 0
M  V30 33915 C 3344.29 3.0743 3.2587 0
M  V30 33916 C 3346.04 1.4048 4.00582 0
M  V30 33917 C 3343.95 3.66458 4.6418 0
M  V30 33918 H 3342.88 0.333581 0.676195 0
M  V30 33919 H 3345.53 1.36922 1.22166 0
M  V30 33920 H 3343.91 1.02297 3.82559 0
M  V30 33921 H 3345.08 3.68085 2.77219 0
M  V30 33922 H 3343.4 3.22861 2.62963 0
M  V30 33923 H 3345.99 1.81985 5.02778 0
M  V30 33924 H 3346.34 0.350481 4.14822 0
M  V30 33925 H 3346.87 1.91514 3.48665 0
M  V30 33926 H 3343.61 4.71727 4.55142 0
M  V30 33927 H 3343.13 3.10583 5.13126 0
M  V30 33928 H 3344.81 3.66545 5.33154 0
M  V30 33929 N 3344.94 -1.26847 0.935286 0
M  V30 33930 C 3345.9 -2.24841 0.44489 0
M  V30 33931 C 3346.9 -1.54642 -0.440754 0
M  V30 33932 O 3348.09 -1.72528 -0.240763 0
M  V30 33933 C 3345.23 -3.38999 -0.359506 0
M  V30 33934 H 3346.42 -2.69737 1.31079 0
M  V30 33935 H 3343.97 -1.389 0.71669 0
M  V30 33936 H 3344.71 -2.99495 -1.2439 0
M  V30 33937 H 3344.49 -3.9113 0.275598 0
M  V30 33938 H 3345.98 -4.11814 -0.692732 0
M  V30 33939 N 3346.42 -0.701641 -1.4112 0
M  V30 33940 C 3347.64 -0.242933 -2.05972 0
M  V30 33941 C 3348.07 1.10148 -1.52476 0
M  V30 33942 O 3347.43 1.69083 -0.654253 0
M  V30 33943 C 3347.47 -0.217677 -3.59942 0
M  V30 33944 O 3346.58 0.805558 -4.04456 0
M  V30 33945 H 3345.92 -0.117178 -0.653579 0
M  V30 33946 H 3348.45 -0.958207 -1.80775 0
M  V30 33947 H 3348.46 -0.0505984 -4.07969 0
M  V30 33948 H 3347.13 -1.19884 -3.98247 0
M  V30 33949 H 3345.71 0.60734 -3.67921 0
M  V30 33950 N 3347.9 1.51133 -0.446821 0
M  V30 33951 C 3349.31 1.59289 -0.0996185 0
M  V30 33952 C 3349.51 1.45701 1.39188 0
M  V30 33953 O 3348.57 1.30307 2.16278 0
M  V30 33954 C 3349.88 2.94065 -0.628186 0
M  V30 33955 C 3351.43 3.07399 -0.589463 0
M  V30 33956 C 3351.9 4.44714 -1.09516 0
M  V30 33957 N 3353.4 4.51059 -1.05355 0
M  V30 33958 C 3354.13 5.55651 -1.4156 0
M  V30 33959 N 3353.63 6.67616 -1.85097 0
M  V30 33960 N 3355.42 5.46061 -1.33317 0
M  V30 33961 H 3347.57 1.5821 -1.41716 0
M  V30 33962 H 3349.83 0.746314 -0.584568 0
M  V30 33963 H 3349.54 3.09408 -1.6721 0
M  V30 33964 H 3349.41 3.77155 -0.0583061 0
M  V30 33965 H 3351.8 2.91718 0.44549 0
M  V30 33966 H 3351.88 2.26126 -1.19586 0
M  V30 33967 H 3351.53 4.61142 -2.12863 0
M  V30 33968 H 3351.46 5.24541 -0.465214 0
M  V30 33969 H 3353.95 3.70704 -0.733942 0
M  V30 33970 H 3354.26 7.43455 -2.10936 0
M  V30 33971 H 3352.6 6.68799 -1.89032 0
M  V30 33972 H 3355.8 4.57476 -0.991627 0
M  V30 33973 H 3355.97 6.27459 -1.61861 0
M  V30 33974 N 3349.37 0.178515 1.56586 0
M  V30 33975 C 3350.3 -0.744447 2.21315 0
M  V30 33976 C 3351.29 -1.23375 1.17101 0
M  V30 33977 O 3352.47 -1.28561 1.45553 0
M  V30 33978 C 3349.6 -1.97098 2.85954 0
M  V30 33979 C 3348.55 -1.61725 3.96269 0
M  V30 33980 C 3347.88 -2.91903 4.47992 0
M  V30 33981 C 3349.18 -0.839778 5.15505 0
M  V30 33982 H 3350.87 -0.204885 2.98698 0
M  V30 33983 H 3348.42 -0.0971053 1.43672 0
M  V30 33984 H 3350.37 -2.62174 3.29913 0
M  V30 33985 H 3349.1 -2.5348 2.0595 0
M  V30 33986 H 3347.76 -0.990146 3.52975 0
M  V30 33987 H 3347.4 -3.4634 3.64771 0
M  V30 33988 H 3347.1 -2.68986 5.22418 0
M  V30 33989 H 3348.63 -3.57996 4.94643 0
M  V30 33990 H 3350.04 -1.39328 5.56112 0
M  V30 33991 H 3348.44 -0.709369 5.95893 0
M  V30 33992 H 3349.51 0.162482 4.84628 0
M  V30 33993 N 3350.85 -1.57312 -0.0951784 0
M  V30 33994 C 3351.8 -1.98491 -1.12185 0
M  V30 33995 C 3352.79 -0.863341 -1.35776 0
M  V30 33996 O 3353.98 -1.12717 -1.36469 0
M  V30 33997 C 3351.11 -2.41281 -2.44209 0
M  V30 33998 C 3350.19 -3.60123 -2.23992 0
M  V30 33999 N 3350.58 -4.7506 -1.73642 0
M  V30 34000 C 3348.88 -3.66219 -2.54558 0
M  V30 34001 C 3349.58 -5.57005 -1.67692 0
M  V30 34002 N 3348.56 -5.00173 -2.12903 0
M  V30 34003 H 3352.36 -2.84805 -0.725494 0
M  V30 34004 H 3349.88 -1.59556 -0.302606 0
M  V30 34005 H 3351.87 -2.6901 -3.18495 0
M  V30 34006 H 3350.53 -1.56344 -2.84582 0
M  V30 34007 H 3351.54 -4.97812 -1.4284 0
M  V30 34008 H 3348.22 -2.91943 -2.98456 0
M  V30 34009 H 3349.61 -6.5924 -1.29815 0
M  V30 34010 N 3352.33 0.365999 -1.53291 0
M  V30 34011 C 3353.58 1.11033 -1.69704 0
M  V30 34012 C 3353.91 1.88978 -0.447314 0
M  V30 34013 O 3353.18 1.86402 0.555388 0
M  V30 34014 C 3353.47 2.06989 -2.94665 0
M  V30 34015 C 3353.32 1.32655 -4.29794 0
M  V30 34016 C 3354.64 3.07118 -3.15225 0
M  V30 34017 H 3351.76 0.402273 -0.617532 0
M  V30 34018 H 3354.4 0.39119 -1.85929 0
M  V30 34019 H 3352.55 2.68313 -2.80963 0
M  V30 34020 H 3354.22 0.741186 -4.55307 0
M  V30 34021 H 3352.47 0.628408 -4.29224 0
M  V30 34022 H 3353.14 2.02887 -5.13362 0
M  V30 34023 H 3355.61 2.55897 -3.28109 0
M  V30 34024 H 3354.49 3.71482 -4.04095 0
M  V30 34025 H 3354.75 3.77265 -2.30486 0
M  V30 34026 N 3353.81 1.44644 0.625774 0
M  V30 34027 C 3355.05 1.47927 1.38728 0
M  V30 34028 C 3355.39 0.113503 1.93868 0
M  V30 34029 O 3354.66 -0.869609 1.73977 0
M  V30 34030 C 3354.95 2.54395 2.54863 0
M  V30 34031 C 3354.8 4.0035 2.05037 0
M  V30 34032 C 3356.12 2.57316 3.57039 0
M  V30 34033 H 3353.24 0.538593 0.503077 0
M  V30 34034 H 3355.88 1.76353 0.707071 0
M  V30 34035 H 3354.03 2.30287 3.1289 0
M  V30 34036 H 3355.7 4.35608 1.51799 0
M  V30 34037 H 3353.94 4.11872 1.36177 0
M  V30 34038 H 3354.61 4.70502 2.88672 0
M  V30 34039 H 3357.09 2.78871 3.08821 0
M  V30 34040 H 3355.97 3.33705 4.35812 0
M  V30 34041 H 3356.23 1.61715 4.11462 0
M  V30 34042 N 3355.29 -0.866663 1.31631 0
M  V30 34043 C 3356.22 -1.98999 1.22154 0
M  V30 34044 C 3357.2 -1.69757 0.108002 0
M  V30 34045 O 3358.38 -1.91975 0.293158 0
M  V30 34046 C 3355.51 -3.34575 0.931499 0
M  V30 34047 C 3354.47 -3.78134 2.00497 0
M  V30 34048 C 3353.79 -5.11206 1.56756 0
M  V30 34049 C 3355.09 -3.94886 3.41851 0
M  V30 34050 H 3356.79 -2.07186 2.16135 0
M  V30 34051 H 3354.33 -0.995444 1.04052 0
M  V30 34052 H 3356.29 -4.12701 0.851792 0
M  V30 34053 H 3355.01 -3.2657 -0.0439715 0
M  V30 34054 H 3353.67 -3.0225 2.07462 0
M  V30 34055 H 3353.32 -4.99647 0.579855 0
M  V30 34056 H 3353.02 -5.41322 2.28571 0
M  V30 34057 H 3354.54 -5.91838 1.50199 0
M  V30 34058 H 3355.95 -4.63399 3.37542 0
M  V30 34059 H 3354.35 -4.36403 4.11913 0
M  V30 34060 H 3355.42 -2.98165 3.82394 0
M  V30 34061 N 3356.77 -1.14645 -1.0814 0
M  V30 34062 C 3358.18 -0.927015 -1.6206 0
M  V30 34063 C 3358.53 0.533545 -1.88806 0
M  V30 34064 O 3357.65 1.40302 -1.64756 0
M  V30 34065 C 3358.25 -1.67635 -2.94422 0
M  V30 34066 C 3356.81 -1.50241 -3.45115 0
M  V30 34067 C 3355.95 -1.69709 -2.19304 0
M  V30 34068 H 3358.9 -1.29786 -0.913303 0
M  V30 34069 H 3358.93 -1.14114 -3.62985 0
M  V30 34070 H 3358.44 -2.73932 -2.74923 0
M  V30 34071 H 3356.54 -0.463032 -3.69712 0
M  V30 34072 H 3356.65 -2.27416 -4.21686 0
M  V30 34073 H 3355.02 -1.12295 -2.28609 0
M  V30 34074 H 3355.8 -2.77355 -2.0231 0
M  V30 34075 N 3358.24 1.26349 -0.942 0
M  V30 34076 C 3359.49 1.93332 -0.58884 0
M  V30 34077 C 3359.81 1.74264 0.875036 0
M  V30 34078 O 3359.08 1.09876 1.62185 0
M  V30 34079 H 3357.66 0.715455 -0.214786 0
M  V30 34080 H 3360.32 1.53772 -1.1975 0
M  V30 34081 H 3359.42 3.01478 -0.80732 0
M  V30 34082 N 3359.72 0.709115 1.40746 0
M  V30 34083 C 3360.95 0.253852 2.05841 0
M  V30 34084 C 3361.37 -1.09338 1.53058 0
M  V30 34085 O 3360.73 -1.68734 0.663211 0
M  V30 34086 C 3360.78 0.236762 3.59822 0
M  V30 34087 O 3359.88 -0.784097 4.04877 0
M  V30 34088 H 3359.22 0.120642 0.652948 0
M  V30 34089 H 3361.75 0.967781 1.80264 0
M  V30 34090 H 3361.76 0.0722333 4.07936 0
M  V30 34091 H 3360.44 1.21995 3.97605 0
M  V30 34092 H 3359.01 -0.587819 3.68238 0
M  V30 34093 N 3361.2 -1.50894 0.454829 0
M  V30 34094 C 3362.61 -1.867 -0.00417931 0
M  V30 34095 C 3362.96 -1.37082 -1.40367 0
M  V30 34096 O 3362.09 -0.72892 -2.03754 0
M  V30 34097 C 3362.68 -3.38797 -0.0143601 0
M  V30 34098 C 3361.24 -3.74074 -0.417839 0
M  V30 34099 C 3360.39 -2.74711 0.378059 0
M  V30 34100 H 3363.34 -1.43869 0.669874 0
M  V30 34101 H 3363.36 -3.71557 -0.820106 0
M  V30 34102 H 3362.87 -3.7488 1.00433 0
M  V30 34103 H 3360.97 -3.43587 -1.44149 0
M  V30 34104 H 3361.09 -4.78922 -0.130484 0
M  V30 34105 H 3359.45 -2.54158 -0.166045 0
M  V30 34106 H 3360.23 -3.13637 1.39596 0
M  V30 34107 N 3362.68 -0.186817 -1.56489 0
M  V30 34108 C 3363.63 0.754125 -2.20036 0
M  V30 34109 C 3364.62 1.22599 -1.16901 0
M  V30 34110 O 3365.83 1.18984 -1.35066 0
M  V30 34111 H 3362.2 0.261516 -0.705063 0
M  V30 34112 H 3364.17 0.194366 -2.97766 0
M  V30 34113 C 3362.92 1.96665 -2.86737 0
M  V30 34114 H 3362.24 1.61262 -3.65834 0
M  V30 34115 H 3363.68 2.60357 -3.34649 0
M  V30 34116 C 3362.14 2.80016 -1.8733 0
M  V30 34117 O 3362.67 3.77674 -1.36841 0
M  V30 34118 N 3360.88 2.45342 -1.55743 0
M  V30 34119 H 3360.43 1.65986 -1.96993 0
M  V30 34120 H 3360.38 3.01396 -0.894858 0
M  V30 34121 N 3364.16 1.57361 0.0868344 0
M  V30 34122 C 3365.57 1.53379 0.441257 0
M  V30 34123 C 3365.77 0.904779 1.80044 0
M  V30 34124 O 3364.83 0.500825 2.47483 0
M  V30 34125 C 3366.14 2.98079 0.396148 0
M  V30 34126 C 3367.69 3.09338 0.477413 0
M  V30 34127 C 3368.16 4.5566 0.462367 0
M  V30 34128 N 3369.65 4.60239 0.522882 0
M  V30 34129 C 3370.39 5.70915 0.533212 0
M  V30 34130 N 3369.89 6.90999 0.499255 0
M  V30 34131 N 3371.68 5.59114 0.578644 0
M  V30 34132 H 3363.83 1.96622 -0.803342 0
M  V30 34133 H 3366.09 0.899315 -0.299895 0
M  V30 34134 H 3365.8 3.47598 -0.535567 0
M  V30 34135 H 3365.67 3.57197 1.21203 0
M  V30 34136 H 3368.06 2.59801 1.39955 0
M  V30 34137 H 3368.14 2.53157 -0.366762 0
M  V30 34138 H 3367.78 5.0585 -0.455856 0
M  V30 34139 H 3367.71 5.09687 1.32387 0
M  V30 34140 H 3370.21 3.73817 0.553985 0
M  V30 34141 H 3370.52 7.71111 0.510648 0
M  V30 34142 H 3368.86 6.93435 0.466174 0
M  V30 34143 H 3372.05 4.64203 0.60276 0
M  V30 34144 H 3372.23 6.4537 0.583225 0
M  V30 34145 N 3365.63 -0.357865 1.53483 0
M  V30 34146 C 3366.88 -1.09751 1.69703 0
M  V30 34147 C 3367.2 -1.89607 0.455422 0
M  V30 34148 O 3366.47 -1.88578 -0.53059 0
M  V30 34149 H 3365.05 -0.408167 0.625627 0
M  V30 34150 H 3367.71 -0.402608 1.90696 0
M  V30 34151 H 3366.81 -1.78298 2.56157 0
M  V30 34152 N 3367.11 -1.44974 -0.618094 0
M  V30 34153 C 3368.04 -1.47321 -1.74275 0
M  V30 34154 C 3369.02 -0.330655 -1.59202 0
M  V30 34155 O 3370.21 -0.529589 -1.80908 0
M  V30 34156 C 3367.33 -1.31828 -3.11992 0
M  V30 34157 C 3366.38 -2.49815 -3.4568 0
M  V30 34158 S 3367.21 -4.12315 -3.41696 0
M  V30 34159 C 3368.37 -3.99269 -4.82012 0
M  V30 34160 H 3368.6 -2.42481 -1.72018 0
M  V30 34161 H 3366.13 -1.32429 -0.793843 0
M  V30 34162 H 3368.09 -1.23577 -3.91458 0
M  V30 34163 H 3366.75 -0.381576 -3.11774 0
M  V30 34164 H 3365.95 -2.34872 -4.45927 0
M  V30 34165 H 3365.55 -2.54874 -2.73707 0
M  V30 34166 H 3367.84 -3.63764 -5.71561 0
M  V30 34167 H 3368.78 -4.99391 -5.0201 0
M  V30 34168 H 3369.19 -3.31103 -4.57199 0
M  V30 34169 N 3368.59 0.85967 -1.32089 0
M  V30 34170 C 3369.84 1.61349 -1.22363 0
M  V30 34171 C 3370.16 1.933 0.215762 0
M  V30 34172 O 3369.42 1.57068 1.16739 0
M  V30 34173 C 3369.72 2.94603 -2.02345 0
M  V30 34174 C 3369.38 2.82103 -3.51751 0
M  V30 34175 C 3368.05 2.78401 -3.92487 0
M  V30 34176 C 3370.4 2.68395 -4.46781 0
M  V30 34177 C 3367.73 2.58863 -5.26504 0
M  V30 34178 C 3370.08 2.50394 -5.80935 0
M  V30 34179 C 3368.74 2.45081 -6.2088 0
M  V30 34180 H 3368.01 0.590418 -0.447758 0
M  V30 34181 H 3370.66 0.997608 -1.63463 0
M  V30 34182 H 3368.96 3.60283 -1.53959 0
M  V30 34183 H 3370.66 3.51941 -1.92193 0
M  V30 34184 H 3367.25 2.85807 -3.19394 0
M  V30 34185 H 3371.44 2.70304 -4.16233 0
M  V30 34186 H 3366.69 2.53182 -5.56515 0
M  V30 34187 H 3370.87 2.38766 -6.54189 0
M  V30 34188 H 3368.49 2.29701 -7.24666 0
M  V30 34189 N 3370.07 1.15217 1.0753 0
M  V30 34190 C 3371.32 0.924094 1.79736 0
M  V30 34191 C 3371.64 -0.550323 1.87073 0
M  V30 34192 O 3370.91 -1.39997 1.37031 0
M  V30 34193 H 3369.49 0.338903 0.665698 0
M  V30 34194 H 3372.15 1.45247 1.29958 0
M  V30 34195 H 3371.24 1.33189 2.82254 0
M  V30 34196 N 3371.55 -1.25848 0.948687 0
M  V30 34197 C 3372.79 -1.93017 0.599084 0
M  V30 34198 C 3373.12 -1.74726 -0.865783 0
M  V30 34199 O 3372.39 -1.10734 -1.616 0
M  V30 34200 H 3370.97 -0.714306 0.218577 0
M  V30 34201 H 3373.63 -1.53135 1.20564 0
M  V30 34202 H 3372.72 -3.01045 0.823297 0
M  V30 34203 N 3373.02 -0.716569 -1.40368 0
M  V30 34204 C 3374.3 -0.18361 -1.94736 0
M  V30 34205 C 3374.68 1.31089 -1.65466 0
M  V30 34206 O 3374.03 2.06755 -0.972868 0
M  V30 34207 C 3374.24 -0.4974 -3.45437 0
M  V30 34208 C 3375.59 -0.436601 -4.22349 0
M  V30 34209 O 3376.61 -0.433517 -3.53552 0
M  V30 34210 O 3375.47 -0.414986 -5.44922 0
M  V30 34211 H 3372.56 -0.027293 -0.82655 0
M  V30 34212 H 3375.11 -0.794169 -1.4997 0
M  V30 34213 H 3373.88 -1.53103 -3.60104 0
M  V30 34214 H 3373.51 0.143072 -3.97343 0
M  V30 34215 N 3374.5 1.50651 -0.462825 0
M  V30 34216 C 3375.75 2.01877 0.0948213 0
M  V30 34217 C 3376.07 1.34744 1.40958 0
M  V30 34218 O 3375.34 0.490093 1.89671 0
M  V30 34219 H 3373.92 0.746031 0.0380322 0
M  V30 34220 H 3376.58 1.85063 -0.61136 0
M  V30 34221 H 3375.68 3.11078 0.252323 0
M  V30 34222 N 3375.98 0.195113 1.56388 0
M  V30 34223 C 3376.94 -0.712014 2.1786 0
M  V30 34224 C 3377.94 -1.14098 1.13306 0
M  V30 34225 O 3379.13 -1.05407 1.38691 0
M  V30 34226 C 3376.27 -1.97208 2.78068 0
M  V30 34227 H 3377.46 -0.176476 2.9938 0
M  V30 34228 H 3375.01 -0.0545047 1.56205 0
M  V30 34229 H 3375.75 -2.55013 2.00346 0
M  V30 34230 H 3375.53 -1.67323 3.54606 0
M  V30 34231 H 3377.02 -2.61895 3.25271 0
M  V30 34232 N 3377.46 -1.57404 -0.0784879 0
M  V30 34233 C 3378.69 -1.90864 -0.79086 0
M  V30 34234 C 3379.1 -0.788674 -1.71978 0
M  V30 34235 O 3378.44 0.24729 -1.82028 0
M  V30 34236 C 3378.5 -3.1973 -1.64356 0
M  V30 34237 C 3378.17 -4.48354 -0.884718 0
M  V30 34238 C 3379.16 -5.19488 -0.206983 0
M  V30 34239 C 3376.85 -4.94989 -0.853875 0
M  V30 34240 C 3378.84 -6.35503 0.491441 0
M  V30 34241 C 3376.53 -6.10912 -0.151675 0
M  V30 34242 C 3377.53 -6.81019 0.519789 0
M  V30 34243 O 3377.21 -7.94731 1.21069 0
M  V30 34244 H 3376.95 -0.635519 -0.230416 0
M  V30 34245 H 3379.5 -2.05326 -0.055087 0
M  V30 34246 H 3377.73 -3.01458 -2.42198 0
M  V30 34247 H 3379.42 -3.38891 -2.234 0
M  V30 34248 H 3380.19 -4.84491 -0.222162 0
M  V30 34249 H 3376.06 -4.40298 -1.36597 0
M  V30 34250 H 3379.61 -6.9016 1.01611 0
M  V30 34251 H 3375.51 -6.4536 -0.1344 0
M  V30 34252 H 3376.27 -8.10811 1.11928 0
M  V30 34253 N 3378.94 0.34972 -1.53671 0
M  V30 34254 C 3380.18 1.0885 -1.70283 0
M  V30 34255 C 3380.51 1.89363 -0.465471 0
M  V30 34256 O 3379.78 1.88856 0.520582 0
M  V30 34257 H 3378.36 0.404843 -0.627783 0
M  V30 34258 H 3381.02 0.392489 -1.90907 0
M  V30 34259 H 3380.11 1.76937 -2.57099 0
M  V30 34260 N 3380.41 1.45299 0.610397 0
M  V30 34261 C 3381.32 1.56288 1.74961 0
M  V30 34262 C 3382.34 0.447465 1.68148 0
M  V30 34263 O 3383.52 0.707758 1.88554 0
M  V30 34264 C 3380.58 1.52388 3.11414 0
M  V30 34265 C 3379.64 2.74946 3.29702 0
M  V30 34266 C 3378.88 2.71223 4.59645 0
M  V30 34267 O 3379.1 1.78392 5.41786 0
M  V30 34268 O 3378.03 3.62384 4.80585 0
M  V30 34269 H 3381.86 2.52574 1.68641 0
M  V30 34270 H 3379.44 1.27778 0.774146 0
M  V30 34271 H 3381.33 1.52811 3.92717 0
M  V30 34272 H 3380 0.592528 3.18231 0
M  V30 34273 H 3378.91 2.80086 2.47998 0
M  V30 34274 H 3380.24 3.67198 3.2776 0
M  V30 34275 N 3381.89 -0.852653 1.32543 0
M  V30 34276 C 3382.86 -1.94295 1.21581 0
M  V30 34277 C 3383.86 -1.60204 0.138346 0
M  V30 34278 O 3385.05 -1.69804 0.388894 0
M  V30 34279 C 3382.18 -3.29605 0.870267 0
M  V30 34280 H 3383.37 -2.05442 2.1848 0
M  V30 34281 H 3380.92 -1.04308 1.16403 0
M  V30 34282 H 3381.66 -3.24155 -0.0968128 0
M  V30 34283 H 3381.44 -3.55725 1.6493 0
M  V30 34284 H 3382.93 -4.09511 0.817946 0
M  V30 34285 N 3383.37 -1.15786 -1.06918 0
M  V30 34286 C 3384.32 -0.858654 -2.14233 0
M  V30 34287 C 3385.29 0.190266 -1.65007 0
M  V30 34288 O 3386.47 0.0568518 -1.90715 0
M  V30 34289 C 3383.61 -0.358941 -3.43228 0
M  V30 34290 C 3382.73 -1.46995 -4.06222 0
M  V30 34291 C 3381.86 -0.925904 -5.23068 0
M  V30 34292 C 3380.9 -2.01355 -5.78033 0
M  V30 34293 N 3380.04 -1.48556 -6.86204 0
M  V30 34294 H 3384.88 -1.77773 -2.39167 0
M  V30 34295 H 3382.41 -0.886946 -1.17353 0
M  V30 34296 H 3384.37 -0.0508931 -4.17169 0
M  V30 34297 H 3383 0.523203 -3.18532 0
M  V30 34298 H 3382.05 -1.89409 -3.29892 0
M  V30 34299 H 3383.37 -2.29095 -4.43076 0
M  V30 34300 H 3382.52 -0.570661 -6.0401 0
M  V30 34301 H 3381.26 -0.0741229 -4.87644 0
M  V30 34302 H 3380.26 -2.37756 -4.95734 0
M  V30 34303 H 3381.49 -2.86918 -6.15512 0
M  V30 34304 H 3379.43 -0.656206 -6.5271 0
M  V30 34305 H 3379.35 -2.24279 -7.21966 0
M  V30 34306 H 3380.62 -1.1587 -7.7084 0
M  V30 34307 N 3384.85 1.25343 -0.955348 0
M  V30 34308 C 3386.07 1.97687 -0.627268 0
M  V30 34309 C 3386.5 1.70523 0.793943 0
M  V30 34310 O 3385.86 0.961583 1.53699 0
M  V30 34311 C 3385.9 3.49367 -0.893031 0
M  V30 34312 O 3385.01 4.12391 0.0278147 0
M  V30 34313 H 3384.35 0.619722 -0.238413 0
M  V30 34314 H 3386.88 1.59444 -1.28214 0
M  V30 34315 H 3386.89 3.99683 -0.819587 0
M  V30 34316 H 3385.56 3.68467 -1.92885 0
M  V30 34317 H 3384.14 3.72771 -0.097895 0
M  V30 34318 N 3386.33 0.724003 1.39986 0
M  V30 34319 C 3387.29 0.0854986 2.2904 0
M  V30 34320 C 3388.29 -0.678631 1.45778 0
M  V30 34321 O 3389.48 -0.509282 1.66589 0
M  V30 34322 C 3386.61 -0.888532 3.29117 0
M  V30 34323 H 3387.81 0.869954 2.87005 0
M  V30 34324 H 3385.36 0.489162 1.48448 0
M  V30 34325 H 3386.09 -1.69974 2.76187 0
M  V30 34326 H 3385.88 -0.343385 3.90593 0
M  V30 34327 H 3387.37 -1.3322 3.9578 0
M  V30 34328 N 3387.81 -1.50403 0.470808 0
M  V30 34329 C 3388.74 -2.31387 -0.313417 0
M  V30 34330 C 3389.72 -1.38279 -0.990599 0
M  V30 34331 O 3390.9 -1.67199 -0.987825 0
M  V30 34332 C 3388.03 -3.18011 -1.39593 0
M  V30 34333 C 3386.99 -4.19669 -0.840369 0
M  V30 34334 C 3386.31 -4.95029 -2.02115 0
M  V30 34335 C 3387.61 -5.2209 0.148146 0
M  V30 34336 H 3389.31 -2.97198 0.362484 0
M  V30 34337 H 3386.85 -1.42923 0.175771 0
M  V30 34338 H 3388.8 -3.73462 -1.95203 0
M  V30 34339 H 3387.53 -2.50085 -2.1006 0
M  V30 34340 H 3386.19 -3.65319 -0.306238 0
M  V30 34341 H 3385.84 -4.23576 -2.71279 0
M  V30 34342 H 3385.54 -5.63793 -1.65564 0
M  V30 34343 H 3387.06 -5.53314 -2.58217 0
M  V30 34344 H 3388.47 -5.72413 -0.318774 0
M  V30 34345 H 3386.87 -5.98572 0.427916 0
M  V30 34346 H 3387.94 -4.72854 1.07413 0
M  V30 34347 N 3389.28 -0.203404 -1.56282 0
M  V30 34348 C 3390.56 0.481222 -1.89588 0
M  V30 34349 C 3390.94 1.79055 -1.11815 0
M  V30 34350 O 3390.29 2.27421 -0.221799 0
M  V30 34351 C 3390.5 0.691904 -3.42073 0
M  V30 34352 C 3391.85 1.00754 -4.12473 0
M  V30 34353 O 3392.87 0.779335 -3.4757 0
M  V30 34354 O 3391.73 1.43964 -5.27197 0
M  V30 34355 H 3388.82 0.251949 -0.787687 0
M  V30 34356 H 3391.37 -0.244237 -1.67933 0
M  V30 34357 H 3390.14 -0.232391 -3.90609 0
M  V30 34358 H 3389.76 1.46952 -3.69447 0
M  V30 34359 N 3390.76 1.57444 0.0701393 0
M  V30 34360 C 3391.72 2.02819 1.06757 0
M  V30 34361 C 3392.72 0.925485 1.31497 0
M  V30 34362 O 3393.91 1.19031 1.27189 0
M  V30 34363 C 3391.05 2.41023 2.41082 0
M  V30 34364 H 3392.24 2.92171 0.676459 0
M  V30 34365 H 3389.79 1.53074 0.315909 0
M  V30 34366 H 3390.53 1.54702 2.85022 0
M  V30 34367 H 3390.31 3.21492 2.24467 0
M  V30 34368 H 3391.8 2.76699 3.12773 0
M  V30 34369 N 3392.24 -0.341566 1.53854 0
M  V30 34370 C 3393.49 -1.08319 1.71449 0
M  V30 34371 C 3393.82 -1.88243 0.477322 0
M  V30 34372 O 3393.09 -1.87262 -0.525662 0
M  V30 34373 C 3393.38 -2.02275 2.97921 0
M  V30 34374 C 3393.23 -1.25801 4.3185 0
M  V30 34375 C 3394.55 -3.02064 3.20071 0
M  V30 34376 H 3391.67 -0.392397 0.623854 0
M  V30 34377 H 3394.31 -0.361561 1.86528 0
M  V30 34378 H 3392.46 -2.6381 2.85196 0
M  V30 34379 H 3394.13 -0.668657 4.56428 0
M  V30 34380 H 3392.37 -0.560043 4.3017 0
M  V30 34381 H 3393.05 -1.94695 5.16525 0
M  V30 34382 H 3395.52 -2.50645 3.32139 0
M  V30 34383 H 3394.4 -3.65006 4.09954 0
M  V30 34384 H 3394.66 -3.7355 2.36458 0
M  V30 34385 N 3393.72 -1.45621 -0.602683 0
M  V30 34386 C 3394.96 -1.50116 -1.36357 0
M  V30 34387 C 3395.3 -0.144332 -1.93663 0
M  V30 34388 O 3394.57 0.84182 -1.75339 0
M  V30 34389 C 3394.85 -2.58418 -2.50783 0
M  V30 34390 C 3394.71 -4.03561 -1.98642 0
M  V30 34391 C 3396.03 -2.62963 -3.529 0
M  V30 34392 H 3393.15 -0.546528 -0.494445 0
M  V30 34393 H 3395.79 -1.77456 -0.678925 0
M  V30 34394 H 3393.94 -2.35235 -3.09187 0
M  V30 34395 H 3395.61 -4.37968 -1.4485 0
M  V30 34396 H 3393.85 -4.13986 -1.29608 0
M  V30 34397 H 3394.52 -4.75035 -2.8115 0
M  V30 34398 H 3397 -2.83748 -3.04345 0
M  V30 34399 H 3395.88 -3.40597 -4.30448 0
M  V30 34400 H 3396.14 -1.68241 -4.08837 0
M  V30 34401 N 3395.2 0.845612 -1.32993 0
M  V30 34402 C 3396.42 1.63788 -1.27233 0
M  V30 34403 C 3396.85 1.87459 0.155108 0
M  V30 34404 O 3396.2 1.43386 1.10951 0
M  V30 34405 C 3396.25 2.96913 -2.04634 0
M  V30 34406 O 3395.36 3.87897 -1.40033 0
M  V30 34407 H 3394.7 0.499004 -0.438054 0
M  V30 34408 H 3397.23 1.05254 -1.7545 0
M  V30 34409 H 3397.24 3.46663 -2.15147 0
M  V30 34410 H 3395.91 2.79005 -3.0843 0
M  V30 34411 H 3394.49 3.46376 -1.38124 0
M  V30 34412 N 3396.67 1.16351 1.06302 0
M  V30 34413 C 3398.09 0.908404 1.31226 0
M  V30 34414 C 3398.29 -0.438745 1.96665 0
M  V30 34415 O 3397.35 -1.17829 2.23322 0
M  V30 34416 C 3398.66 2.05738 2.193 0
M  V30 34417 C 3400.21 2.09313 2.32717 0
M  V30 34418 C 3400.68 3.23565 3.24145 0
M  V30 34419 N 3402.17 3.23281 3.31728 0
M  V30 34420 C 3402.91 4.08325 4.02564 0
M  V30 34421 N 3402.4 5.03456 4.75924 0
M  V30 34422 N 3404.2 3.96312 3.98614 0
M  V30 34423 H 3396.35 2.03083 0.622192 0
M  V30 34424 H 3398.61 0.886125 0.336877 0
M  V30 34425 H 3398.32 3.03041 1.78492 0
M  V30 34426 H 3398.19 1.99885 3.19884 0
M  V30 34427 H 3400.58 1.12604 2.72772 0
M  V30 34428 H 3400.66 2.19232 1.318 0
M  V30 34429 H 3400.3 4.20533 2.84806 0
M  V30 34430 H 3400.23 3.10883 4.25041 0
M  V30 34431 H 3402.72 2.54395 2.79449 0
M  V30 34432 H 3403.04 5.64767 5.27502 0
M  V30 34433 H 3401.38 5.07436 4.74904 0
M  V30 34434 H 3404.57 3.21295 3.40422 0
M  V30 34435 H 3404.75 4.62811 4.53552 0
M  V30 34436 N 3398.15 -1.24835 0.961982 0
M  V30 34437 C 3399.4 -1.93357 0.631247 0
M  V30 34438 C 3399.75 -1.73874 -0.823755 0
M  V30 34439 O 3399.05 -1.07767 -1.5842 0
M  V30 34440 C 3399.24 -3.44965 0.934541 0
M  V30 34441 C 3399.07 -3.79194 2.41748 0
M  V30 34442 C 3397.84 -4.00863 3.07631 0
M  V30 34443 C 3400.04 -3.86125 3.39724 0
M  V30 34444 N 3398.02 -4.22144 4.45721 0
M  V30 34445 C 3399.39 -4.12181 4.63148 0
M  V30 34446 C 3401.44 -3.68837 3.34461 0
M  V30 34447 C 3400.15 -4.22747 5.8196 0
M  V30 34448 C 3402.17 -3.80645 4.52618 0
M  V30 34449 C 3401.54 -4.07121 5.74832 0
M  V30 34450 H 3397.63 -0.729487 0.281732 0
M  V30 34451 H 3400.22 -1.50464 1.23567 0
M  V30 34452 H 3398.39 -3.86737 0.358985 0
M  V30 34453 H 3400.12 -4.00765 0.562962 0
M  V30 34454 H 3396.88 -3.9704 2.58179 0
M  V30 34455 H 3397.3 -4.36776 5.17258 0
M  V30 34456 H 3401.94 -3.47379 2.41014 0
M  V30 34457 H 3399.66 -4.43019 6.7584 0
M  V30 34458 H 3403.25 -3.68647 4.50101 0
M  V30 34459 H 3402.13 -4.1605 6.64735 0
M  V30 34460 N 3399.63 -0.731417 -1.396 0
M  V30 34461 C 3400.58 -0.0652332 -2.27907 0
M  V30 34462 C 3401.56 0.716309 -1.44076 0
M  V30 34463 O 3402.76 0.585907 -1.67021 0
M  V30 34464 C 3399.88 0.843965 -3.32764 0
M  V30 34465 C 3398.97 0.0567643 -4.24062 0
M  V30 34466 N 3399.36 -0.968233 -4.96446 0
M  V30 34467 C 3397.66 0.286959 -4.45076 0
M  V30 34468 C 3398.36 -1.44261 -5.63528 0
M  V30 34469 N 3397.34 -0.761866 -5.38235 0
M  V30 34470 H 3401.14 -0.850589 -2.81322 0
M  V30 34471 H 3398.65 -0.565423 -1.52239 0
M  V30 34472 H 3400.65 1.33667 -3.94891 0
M  V30 34473 H 3399.31 1.62852 -2.80908 0
M  V30 34474 H 3400.32 -1.3495 -5.00009 0
M  V30 34475 H 3397 1.0466 -4.04169 0
M  V30 34476 H 3398.39 -2.29519 -6.31483 0
M  V30 34477 N 3401.11 1.50152 -0.478778 0
M  V30 34478 C 3402.07 2.27226 0.300141 0
M  V30 34479 C 3403.07 1.3232 0.913681 0
M  V30 34480 O 3404.26 1.55678 0.781664 0
M  V30 34481 C 3401.39 3.09535 1.42832 0
M  V30 34482 H 3402.59 2.97535 -0.375897 0
M  V30 34483 H 3400.14 1.54553 -0.233064 0
M  V30 34484 H 3400.87 2.4374 2.13919 0
M  V30 34485 H 3400.66 3.79289 0.994095 0
M  V30 34486 H 3402.15 3.67806 1.97759 0
M  V30 34487 N 3402.59 0.211689 1.56172 0
M  V30 34488 C 3403.5 -0.714042 2.23469 0
M  V30 34489 C 3404.51 -1.22157 1.2391 0
M  V30 34490 O 3405.69 -1.26525 1.56695 0
M  V30 34491 C 3402.75 -1.90948 2.89378 0
M  V30 34492 C 3401.81 -1.4449 4.04254 0
M  V30 34493 C 3401.05 -2.58335 4.6701 0
M  V30 34494 O 3401.27 -3.7623 4.28728 0
M  V30 34495 O 3400.2 -2.301 5.56181 0
M  V30 34496 H 3404.03 -0.170809 3.03219 0
M  V30 34497 H 3401.62 -0.0183345 1.49389 0
M  V30 34498 H 3403.5 -2.60782 3.31015 0
M  V30 34499 H 3402.17 -2.441 2.12596 0
M  V30 34500 H 3401.08 -0.714867 3.67206 0
M  V30 34501 H 3402.41 -0.959862 4.8275 0
M  V30 34502 N 3404.06 -1.57479 -0.0617887 0
M  V30 34503 C 3405.29 -1.92357 -0.775479 0
M  V30 34504 C 3405.71 -0.808979 -1.69815 0
M  V30 34505 O 3405.07 0.237579 -1.79737 0
M  V30 34506 C 3405.12 -3.2622 -1.53664 0
M  V30 34507 O 3404.22 -3.16159 -2.64796 0
M  V30 34508 H 3403.57 -0.629617 -0.210898 0
M  V30 34509 H 3406.1 -2.04582 -0.0270393 0
M  V30 34510 H 3406.11 -3.60334 -1.91373 0
M  V30 34511 H 3404.78 -4.06917 -0.859727 0
M  V30 34512 H 3403.36 -2.93622 -2.29871 0
M  V30 34513 N 3405.54 0.333401 -1.54033 0
M  V30 34514 C 3406.77 1.09668 -1.76033 0
M  V30 34515 C 3407.19 1.81253 -0.502876 0
M  V30 34516 O 3406.55 1.72913 0.54506 0
M  V30 34517 C 3406.6 2.07804 -2.94703 0
M  V30 34518 O 3405.7 3.15517 -2.65561 0
M  V30 34519 H 3405.04 0.316682 -0.583617 0
M  V30 34520 H 3407.57 0.380697 -2.01027 0
M  V30 34521 H 3407.58 2.50847 -3.21776 0
M  V30 34522 H 3406.26 1.551 -3.85898 0
M  V30 34523 H 3404.84 2.77219 -2.49407 0
M  V30 34524 N 3407.02 1.45939 0.594952 0
M  V30 34525 C 3408.27 1.51825 1.35354 0
M  V30 34526 C 3408.62 0.162754 1.9171 0
M  V30 34527 O 3407.91 -0.827017 1.72832 0
M  V30 34528 C 3408.11 2.54306 2.51124 0
M  V30 34529 C 3407.94 3.99688 2.06106 0
M  V30 34530 C 3406.71 4.67529 1.9169 0
M  V30 34531 C 3408.91 4.8785 1.62808 0
M  V30 34532 N 3406.89 5.97579 1.40615 0
M  V30 34533 C 3408.26 6.07629 1.23238 0
M  V30 34534 C 3410.31 4.74605 1.50515 0
M  V30 34535 C 3409.02 7.15627 0.725998 0
M  V30 34536 C 3411.04 5.82663 1.0128 0
M  V30 34537 C 3410.4 7.01606 0.626814 0
M  V30 34538 H 3406.5 0.610462 0.488733 0
M  V30 34539 H 3409.09 1.82485 0.678772 0
M  V30 34540 H 3407.26 2.25577 3.1618 0
M  V30 34541 H 3408.99 2.50263 3.18042 0
M  V30 34542 H 3405.75 4.22866 2.13263 0
M  V30 34543 H 3406.17 6.66765 1.17273 0
M  V30 34544 H 3410.81 3.83049 1.78978 0
M  V30 34545 H 3408.53 8.06961 0.428927 0
M  V30 34546 H 3412.12 5.74452 0.921763 0
M  V30 34547 H 3411 7.83796 0.251712 0
M  V30 34548 N 3408.5 -0.838547 1.3344 0
M  V30 34549 C 3409.46 -1.92995 1.23635 0
M  V30 34550 C 3410.46 -1.60048 0.15533 0
M  V30 34551 O 3411.65 -1.69382 0.406882 0
M  V30 34552 C 3408.78 -3.28663 0.905177 0
M  V30 34553 H 3409.98 -2.03114 2.20647 0
M  V30 34554 H 3407.53 -1.03067 1.17502 0
M  V30 34555 H 3408.26 -3.2424 -0.0624263 0
M  V30 34556 H 3408.05 -3.53956 1.68694 0
M  V30 34557 H 3409.54 -4.08621 0.861334 0
M  V30 34558 N 3409.98 -1.16914 -1.05683 0
M  V30 34559 C 3410.94 -0.883684 -2.1148 0
M  V30 34560 C 3411.94 0.124005 -1.60321 0
M  V30 34561 O 3413.13 -0.107597 -1.73867 0
M  V30 34562 C 3410.26 -0.322708 -3.39369 0
M  V30 34563 H 3411.45 -1.82165 -2.38235 0
M  V30 34564 H 3409.01 -0.978916 -1.21848 0
M  V30 34565 H 3409.74 0.622639 -3.18267 0
M  V30 34566 H 3409.53 -1.0489 -3.7781 0
M  V30 34567 H 3411.02 -0.141145 -4.17361 0
M  V30 34568 N 3411.45 1.24323 -0.968589 0
M  V30 34569 C 3412.87 1.44611 -0.675265 0
M  V30 34570 C 3413.07 1.86511 0.762608 0
M  V30 34571 O 3412.13 2.00377 1.5364 0
M  V30 34572 C 3413.44 2.5072 -1.66012 0
M  V30 34573 C 3414.99 2.64547 -1.67284 0
M  V30 34574 C 3415.46 3.73854 -2.64569 0
M  V30 34575 N 3416.95 3.81283 -2.63017 0
M  V30 34576 C 3417.69 4.65388 -3.34965 0
M  V30 34577 N 3417.18 5.53674 -4.16434 0
M  V30 34578 N 3418.98 4.59477 -3.23786 0
M  V30 34579 H 3411.13 0.954224 -1.89759 0
M  V30 34580 H 3413.39 0.480827 -0.817013 0
M  V30 34581 H 3413.1 2.26823 -2.68783 0
M  V30 34582 H 3412.97 3.48895 -1.43359 0
M  V30 34583 H 3415.36 2.87802 -0.652235 0
M  V30 34584 H 3415.44 1.66726 -1.94 0
M  V30 34585 H 3415.08 3.51349 -3.66765 0
M  V30 34586 H 3415.01 4.7119 -2.35133 0
M  V30 34587 H 3417.5 3.18183 -2.03883 0
M  V30 34588 H 3417.82 6.1481 -4.68218 0
M  V30 34589 H 3416.16 5.53336 -4.20528 0
M  V30 34590 H 3419.35 3.89519 -2.596 0
M  V30 34591 H 3419.53 5.24797 -3.80121 0
M  V30 34592 N 3412.93 0.73881 1.3921 0
M  V30 34593 C 3414.18 0.288852 2.00732 0
M  V30 34594 C 3414.51 -1.12217 1.58496 0
M  V30 34595 O 3413.79 -1.76573 0.81561 0
M  V30 34596 C 3414.07 0.395019 3.57927 0
M  V30 34597 C 3413.92 1.84608 4.1017 0
M  V30 34598 C 3415.24 -0.220318 4.39548 0
M  V30 34599 H 3412.36 0.106431 0.729275 0
M  V30 34600 H 3415 0.935681 1.65363 0
M  V30 34601 H 3413.15 -0.155676 3.88188 0
M  V30 34602 H 3414.82 2.45395 3.90614 0
M  V30 34603 H 3413.07 2.36613 3.63588 0
M  V30 34604 H 3413.74 1.87161 5.19302 0
M  V30 34605 H 3416.21 0.249171 4.15353 0
M  V30 34606 H 3415.09 -0.115709 5.48778 0
M  V30 34607 H 3415.35 -1.30684 4.22344 0
M  V30 34608 N 3414.41 -1.49895 0.486734 0
M  V30 34609 C 3415.64 -2.07307 -0.0622634 0
M  V30 34610 C 3416.06 -1.34642 -1.31351 0
M  V30 34611 O 3415.42 -0.398783 -1.7686 0
M  V30 34612 C 3415.47 -3.59235 -0.313418 0
M  V30 34613 O 3414.57 -3.88235 -1.39094 0
M  V30 34614 H 3413.91 -0.663702 0.0199001 0
M  V30 34615 H 3416.44 -1.92889 0.682266 0
M  V30 34616 H 3416.45 -4.04286 -0.549231 0
M  V30 34617 H 3415.13 -4.11537 0.600839 0
M  V30 34618 H 3413.7 -3.55008 -1.1412 0
M  V30 34619 N 3415.89 -0.219968 -1.56057 0
M  V30 34620 C 3416.82 0.685508 -2.23211 0
M  V30 34621 C 3417.8 1.20227 -1.2033 0
M  V30 34622 O 3418.99 1.24656 -1.48911 0
M  V30 34623 C 3416.12 1.89447 -2.91079 0
M  V30 34624 C 3415.07 1.51161 -4.00418 0
M  V30 34625 C 3414.4 2.79922 -4.55574 0
M  V30 34626 C 3415.7 0.702805 -5.1755 0
M  V30 34627 H 3417.39 0.125619 -2.99136 0
M  V30 34628 H 3414.94 0.058979 -1.43879 0
M  V30 34629 H 3416.89 2.53335 -3.36748 0
M  V30 34630 H 3415.61 2.4793 -2.12598 0
M  V30 34631 H 3414.27 0.896213 -3.55477 0
M  V30 34632 H 3413.92 3.36547 -3.73825 0
M  V30 34633 H 3413.62 2.5504 -5.29366 0
M  V30 34634 H 3415.14 3.44755 -5.03961 0
M  V30 34635 H 3416.56 1.24534 -5.59611 0
M  V30 34636 H 3414.95 0.551129 -5.97564 0
M  V30 34637 H 3416.02 -0.290915 -4.84027 0
M  V30 34638 N 3417.37 1.57509 0.0534363 0
M  V30 34639 C 3418.33 2.0394 1.046 0
M  V30 34640 C 3419.33 0.93938 1.30508 0
M  V30 34641 O 3420.52 1.20374 1.2592 0
M  V30 34642 C 3417.65 2.43567 2.38512 0
M  V30 34643 H 3418.85 2.92872 0.645432 0
M  V30 34644 H 3416.4 1.53401 0.299656 0
M  V30 34645 H 3417.13 1.57717 2.83365 0
M  V30 34646 H 3416.92 3.23855 2.21044 0
M  V30 34647 H 3418.41 2.80001 3.09821 0
M  V30 34648 N 3418.85 -0.325228 1.54208 0
M  V30 34649 C 3419.8 -1.40125 1.79858 0
M  V30 34650 C 3420.78 -1.46985 0.654529 0
M  V30 34651 O 3421.97 -1.51546 0.91448 0
M  V30 34652 C 3419.1 -2.77003 2.02791 0
M  V30 34653 C 3418.19 -2.74462 3.23314 0
M  V30 34654 N 3418.58 -2.41541 4.444 0
M  V30 34655 C 3416.88 -3.05592 3.24853 0
M  V30 34656 C 3417.58 -2.47693 5.2633 0
M  V30 34657 N 3416.55 -2.84066 4.63473 0
M  V30 34658 H 3420.35 -1.13599 2.71058 0
M  V30 34659 H 3417.87 -0.533701 1.5338 0
M  V30 34660 H 3419.87 -3.54556 2.19307 0
M  V30 34661 H 3418.53 -3.04461 1.12844 0
M  V30 34662 H 3419.54 -2.14416 4.7143 0
M  V30 34663 H 3416.21 -3.38103 2.44934 0
M  V30 34664 H 3417.6 -2.25246 6.3302 0
M  V30 34665 N 3420.32 -1.46252 -0.587204 0
M  V30 34666 C 3421.29 -1.56063 -1.6786 0
M  V30 34667 C 3422.29 -0.438189 -1.54714 0
M  V30 34668 O 3423.48 -0.702351 -1.59414 0
M  V30 34669 C 3420.61 -1.47664 -3.07259 0
M  V30 34670 H 3421.8 -2.53324 -1.60521 0
M  V30 34671 H 3419.35 -1.33996 -0.804667 0
M  V30 34672 H 3420.09 -0.516657 -3.20158 0
M  V30 34673 H 3419.87 -2.29097 -3.18209 0
M  V30 34674 H 3421.36 -1.57606 -3.86717 0
M  V30 34675 N 3421.8 0.831459 -1.33883 0
M  V30 34676 C 3422.73 1.9569 -1.27387 0
M  V30 34677 C 3423.71 1.69411 -0.152972 0
M  V30 34678 O 3424.9 1.9113 -0.343954 0
M  V30 34679 C 3422.03 3.31988 -1.01988 0
M  V30 34680 C 3420.98 3.72685 -2.10452 0
M  V30 34681 C 3420.31 5.0687 -1.70254 0
M  V30 34682 C 3421.61 3.85684 -3.52201 0
M  V30 34683 H 3423.3 2.01382 -2.21552 0
M  V30 34684 H 3420.85 0.967507 -1.06655 0
M  V30 34685 H 3422.8 4.10298 -0.960913 0
M  V30 34686 H 3421.52 3.26572 -0.0426283 0
M  V30 34687 H 3420.18 2.96643 -2.15403 0
M  V30 34688 H 3419.83 4.97934 -0.712124 0
M  V30 34689 H 3419.53 5.35071 -2.42843 0
M  V30 34690 H 3421.06 5.87648 -1.65837 0
M  V30 34691 H 3422.47 4.54287 -3.49709 0
M  V30 34692 H 3420.87 4.25329 -4.23338 0
M  V30 34693 H 3421.94 2.87922 -3.90165 0
M  V30 34694 N 3423.28 1.17472 1.05062 0
M  V30 34695 C 3424.53 0.958332 1.77479 0
M  V30 34696 C 3424.84 -0.513977 1.88726 0
M  V30 34697 O 3426.05 -0.848611 2.57897 0
M  V30 34698 C 3424.5 1.66548 3.19045 0
M  V30 34699 C 3424.11 3.17641 3.15924 0
M  V30 34700 C 3425.86 1.53153 3.9591 0
M  V30 34701 C 3423.76 3.8104 4.52286 0
M  V30 34702 H 3422.69 0.354924 0.66524 0
M  V30 34703 H 3425.34 1.40739 1.17748 0
M  V30 34704 H 3423.73 1.14416 3.79111 0
M  V30 34705 H 3424.9 3.76718 2.65368 0
M  V30 34706 H 3423.21 3.31064 2.52559 0
M  V30 34707 H 3425.81 1.97889 4.96734 0
M  V30 34708 H 3426.15 0.482276 4.13497 0
M  V30 34709 H 3426.69 2.0251 3.42395 0
M  V30 34710 H 3423.43 4.85968 4.39904 0
M  V30 34711 H 3422.95 3.2675 5.02986 0
M  V30 34712 H 3424.63 3.83322 5.21223 0
M  V30 34713 N 3424.76 -1.23807 0.975168 0
M  V30 34714 C 3426.01 -1.91702 0.639891 0
M  V30 34715 C 3426.33 -1.76523 -0.828526 0
M  V30 34716 O 3425.6 -1.14137 -1.59215 0
M  V30 34717 H 3424.18 -0.709509 0.23368 0
M  V30 34718 H 3426.84 -1.50543 1.23785 0
M  V30 34719 H 3425.93 -2.99231 0.886968 0
M  V30 34720 N 3426.24 -0.746182 -1.38816 0
M  V30 34721 C 3427.48 -0.308424 -2.01048 0
M  V30 34722 C 3427.84 1.09553 -1.58164 0
M  V30 34723 O 3427.13 1.73836 -0.805715 0
M  V30 34724 C 3427.32 -0.361148 -3.55571 0
M  V30 34725 C 3427.15 -1.76868 -4.13458 0
M  V30 34726 C 3425.92 -2.38352 -4.45552 0
M  V30 34727 C 3428.12 -2.72414 -4.36228 0
M  V30 34728 N 3426.1 -3.71143 -4.89005 0
M  V30 34729 C 3427.47 -3.89958 -4.82009 0
M  V30 34730 C 3429.53 -2.70032 -4.18315 0
M  V30 34731 C 3428.23 -5.05471 -5.11754 0
M  V30 34732 C 3430.26 -3.84696 -4.4918 0
M  V30 34733 C 3429.62 -5.00978 -4.95177 0
M  V30 34734 H 3425.72 -0.159359 -0.76559 0
M  V30 34735 H 3428.3 -0.97455 -1.68554 0
M  V30 34736 H 3426.47 0.274674 -3.87428 0
M  V30 34737 H 3428.21 0.0962225 -4.04586 0
M  V30 34738 H 3424.96 -1.9018 -4.33738 0
M  V30 34739 H 3425.38 -4.39348 -5.15075 0
M  V30 34740 H 3430.03 -1.81319 -3.81947 0
M  V30 34741 H 3427.74 -5.94805 -5.47022 0
M  V30 34742 H 3431.33 -3.84164 -4.36932 0
M  V30 34743 H 3430.21 -5.88233 -5.18606 0
M  V30 34744 N 3427.71 1.49635 -0.494676 0
M  V30 34745 C 3428.94 2.06842 0.0490766 0
M  V30 34746 C 3429.36 1.35578 1.31393 0
M  V30 34747 O 3428.71 0.432166 1.77309 0
M  V30 34748 C 3428.76 3.60141 0.313108 0
M  V30 34749 O 3428.49 4.28722 -0.901596 0
M  V30 34750 C 3429.99 4.34043 0.901207 0
M  V30 34751 H 3427.21 0.670768 -0.0176304 0
M  V30 34752 H 3429.75 1.925 -0.690222 0
M  V30 34753 H 3427.91 3.74207 1.00238 0
M  V30 34754 H 3428.32 5.20324 -0.660568 0
M  V30 34755 H 3429.79 5.42199 1.03557 0
M  V30 34756 H 3430.27 3.961 1.8974 0
M  V30 34757 H 3430.88 4.24567 0.249602 0
M  V30 34758 N 3429.19 0.228241 1.55939 0
M  V30 34759 C 3430.61 -0.127012 1.59094 0
M  V30 34760 C 3430.81 -1.58423 1.24517 0
M  V30 34761 O 3429.86 -2.32555 0.983585 0
M  V30 34762 C 3431.18 0.205321 2.99998 0
M  V30 34763 C 3432.72 0.148101 3.12649 0
M  V30 34764 C 3433.2 0.454203 4.55742 0
M  V30 34765 N 3434.69 0.404018 4.61435 0
M  V30 34766 C 3435.43 0.614273 5.701 0
M  V30 34767 N 3434.92 0.88666 6.87103 0
M  V30 34768 N 3436.71 0.546252 5.59439 0
M  V30 34769 H 3428.87 1.17877 1.76688 0
M  V30 34770 H 3431.13 0.472961 0.821591 0
M  V30 34771 H 3430.83 1.21698 3.29973 0
M  V30 34772 H 3430.71 -0.476507 3.74178 0
M  V30 34773 H 3433.1 -0.854206 2.82467 0
M  V30 34774 H 3433.18 0.863504 2.40785 0
M  V30 34775 H 3432.82 1.45398 4.86644 0
M  V30 34776 H 3432.75 -0.282469 5.25842 0
M  V30 34777 H 3435.24 0.201454 3.77363 0
M  V30 34778 H 3435.55 1.03501 7.65838 0
M  V30 34779 H 3433.9 0.923929 6.88831 0
M  V30 34780 H 3437.09 0.333632 4.6691 0
M  V30 34781 H 3437.26 0.713516 6.4406 0
M  V30 34782 N 3430.67 -1.57536 -0.0450825 0
M  V30 34783 C 3431.92 -1.88158 -0.737621 0
M  V30 34784 C 3432.24 -0.823848 -1.76742 0
M  V30 34785 O 3431.51 0.144469 -1.95367 0
M  V30 34786 H 3430.09 -0.694373 -0.275418 0
M  V30 34787 H 3432.75 -1.94894 -0.0148308 0
M  V30 34788 H 3431.85 -2.8653 -1.23721 0
M  V30 34789 N 3432.15 0.317045 -1.54378 0
M  V30 34790 C 3433.38 1.07359 -1.76866 0
M  V30 34791 C 3433.79 1.81487 -0.520386 0
M  V30 34792 O 3433.15 1.75253 0.509182 0
M  V30 34793 C 3433.2 2.06663 -2.96602 0
M  V30 34794 O 3432.92 1.35544 -4.16604 0
M  V30 34795 C 3434.42 2.94483 -3.31353 0
M  V30 34796 H 3431.64 0.319073 -0.590283 0
M  V30 34797 H 3434.19 0.361192 -2.01285 0
M  V30 34798 H 3432.34 2.73427 -2.74438 0
M  V30 34799 H 3432.75 2.021 -4.84 0
M  V30 34800 H 3434.23 3.60044 -4.18417 0
M  V30 34801 H 3434.71 3.6193 -2.48803 0
M  V30 34802 H 3435.31 2.33271 -3.55619 0
M  V30 34803 N 3433.63 1.46561 0.57944 0
M  V30 34804 C 3434.87 1.5174 1.33489 0
M  V30 34805 C 3435.2 0.17196 1.9424 0
M  V30 34806 O 3434.47 -0.801843 1.78738 0
M  V30 34807 H 3433.05 0.558883 0.49564 0
M  V30 34808 H 3435.71 1.82714 0.678362 0
M  V30 34809 H 3434.8 2.27187 2.13992 0
M  V30 34810 N 3435.1 -0.824347 1.34322 0
M  V30 34811 C 3436.03 -1.95012 1.28423 0
M  V30 34812 C 3437.02 -1.69327 0.161954 0
M  V30 34813 O 3438.2 -1.90945 0.354085 0
M  V30 34814 C 3435.33 -3.31442 1.03747 0
M  V30 34815 C 3434.28 -3.71564 2.12425 0
M  V30 34816 C 3433.61 -5.0596 1.7294 0
M  V30 34817 C 3434.91 -3.8381 3.54241 0
M  V30 34818 H 3436.6 -2.00205 2.22617 0
M  V30 34819 H 3434.15 -0.961837 1.07167 0
M  V30 34820 H 3436.1 -4.09783 0.982658 0
M  V30 34821 H 3434.83 -3.26545 0.0599466 0
M  V30 34822 H 3433.49 -2.95496 2.16973 0
M  V30 34823 H 3433.13 -4.97549 0.73852 0
M  V30 34824 H 3432.83 -5.33776 2.45677 0
M  V30 34825 H 3434.36 -5.8676 1.68952 0
M  V30 34826 H 3435.77 -4.52426 3.52114 0
M  V30 34827 H 3434.17 -4.23078 4.25588 0
M  V30 34828 H 3435.24 -2.85849 3.91687 0
M  V30 34829 N 3436.58 -1.18028 -1.04437 0
M  V30 34830 C 3437.52 -0.847314 -2.11886 0
M  V30 34831 C 3438.49 0.189143 -1.61496 0
M  V30 34832 O 3439.68 0.0689528 -1.88374 0
M  V30 34833 C 3436.8 -0.26531 -3.37659 0
M  V30 34834 C 3435.85 -1.27836 -4.06891 0
M  V30 34835 S 3436.68 -2.83275 -4.5444 0
M  V30 34836 C 3437.84 -2.26576 -5.8345 0
M  V30 34837 H 3438.07 -1.75732 -2.39803 0
M  V30 34838 H 3435.61 -1.00574 -1.1715 0
M  V30 34839 H 3437.56 0.0639857 -4.1045 0
M  V30 34840 H 3436.22 0.622752 -3.07865 0
M  V30 34841 H 3435.42 -0.819936 -4.97286 0
M  V30 34842 H 3435.02 -1.5537 -3.402 0
M  V30 34843 H 3437.31 -1.64603 -6.572 0
M  V30 34844 H 3438.25 -3.15255 -6.3405 0
M  V30 34845 H 3438.66 -1.69737 -5.38377 0
M  V30 34846 N 3438.06 1.23288 -0.98172 0
M  V30 34847 C 3439.31 1.9136 -0.650049 0
M  V30 34848 C 3439.63 1.7696 0.819153 0
M  V30 34849 O 3438.9 1.1498 1.58608 0
M  V30 34850 H 3437.48 0.70826 -0.237439 0
M  V30 34851 H 3440.14 1.49885 -1.24582 0
M  V30 34852 H 3439.24 2.98757 -0.902824 0
M  V30 34853 N 3439.54 0.753533 1.38418 0
M  V30 34854 C 3440.49 0.101483 2.27774 0
M  V30 34855 C 3441.47 -0.693297 1.45197 0
M  V30 34856 O 3442.66 -0.559261 1.67932 0
M  V30 34857 C 3439.79 -0.790918 3.34065 0
M  V30 34858 C 3438.88 0.0107075 4.24099 0
M  V30 34859 N 3439.27 1.04709 4.94843 0
M  V30 34860 C 3437.57 -0.216115 4.45476 0
M  V30 34861 C 3438.27 1.53208 5.61161 0
M  V30 34862 N 3437.25 0.847398 5.36954 0
M  V30 34863 H 3441.05 0.895237 2.79933 0
M  V30 34864 H 3438.56 0.589571 1.5132 0
M  V30 34865 H 3440.56 -1.27368 3.96967 0
M  V30 34866 H 3439.22 -1.58362 2.83463 0
M  V30 34867 H 3440.23 1.42888 4.97799 0
M  V30 34868 H 3436.91 -0.982167 4.05783 0
M  V30 34869 H 3438.3 2.39536 6.27752 0
M  V30 34870 N 3441.02 -1.49371 0.502605 0
M  V30 34871 C 3441.96 -2.30802 -0.288652 0
M  V30 34872 C 3442.96 -1.39484 -0.961279 0
M  V30 34873 O 3444.16 -1.56527 -0.888785 0
M  V30 34874 H 3440.54 -0.743621 -0.111945 0
M  V30 34875 H 3442.51 -2.95456 0.418114 0
M  V30 34876 C 3441.26 -3.2087 -1.33932 0
M  V30 34877 H 3440.58 -3.91065 -0.83115 0
M  V30 34878 H 3442.02 -3.80785 -1.86492 0
M  V30 34879 C 3440.48 -2.4059 -2.35835 0
M  V30 34880 O 3441.01 -2.11119 -3.41748 0
M  V30 34881 N 3439.22 -2.02584 -2.08346 0
M  V30 34882 H 3438.76 -2.26751 -1.22236 0
M  V30 34883 H 3438.72 -1.49178 -2.76755 0
M  V30 34884 N 3442.49 -0.236508 -1.55815 0
M  V30 34885 C 3443.77 0.4409 -1.90566 0
M  V30 34886 C 3444.15 1.76643 -1.15588 0
M  V30 34887 O 3443.5 2.26899 -0.269989 0
M  V30 34888 C 3443.71 0.61919 -3.43463 0
M  V30 34889 C 3445.06 0.919817 -4.14517 0
M  V30 34890 O 3446.08 0.705435 -3.49145 0
M  V30 34891 O 3444.94 1.32749 -5.30132 0
M  V30 34892 H 3442.03 0.235185 -0.792854 0
M  V30 34893 H 3444.58 -0.279803 -1.67377 0
M  V30 34894 H 3443.35 -0.315192 -3.90028 0
M  V30 34895 H 3442.98 1.39082 -3.72481 0
M  V30 34896 N 3443.97 1.57557 0.0367273 0
M  V30 34897 C 3444.94 2.05038 1.02431 0
M  V30 34898 C 3445.94 0.953169 1.29504 0
M  V30 34899 O 3447.13 1.21702 1.24636 0
M  V30 34900 C 3444.26 2.46083 2.35915 0
M  V30 34901 H 3445.45 2.9354 0.614333 0
M  V30 34902 H 3443 1.5371 0.283369 0
M  V30 34903 H 3443.74 1.60713 2.81677 0
M  V30 34904 H 3443.52 3.26181 2.17597 0
M  V30 34905 H 3445.01 2.83271 3.06834 0
M  V30 34906 N 3445.45 -0.308854 1.54544 0
M  V30 34907 C 3446.7 -1.04263 1.72662 0
M  V30 34908 C 3447.01 -1.88693 0.515213 0
M  V30 34909 O 3448.22 -2.65275 0.578035 0
M  V30 34910 C 3446.68 -1.90335 3.05452 0
M  V30 34911 C 3446.28 -1.10945 4.34045 0
M  V30 34912 C 3448.03 -2.63359 3.3293 0
M  V30 34913 C 3445.93 -1.96248 5.57889 0
M  V30 34914 H 3444.86 -0.392981 0.643492 0
M  V30 34915 H 3447.52 -0.300045 1.8103 0
M  V30 34916 H 3445.9 -2.6855 2.91028 0
M  V30 34917 H 3447.07 -0.373988 4.5928 0
M  V30 34918 H 3445.39 -0.495381 4.13443 0
M  V30 34919 H 3447.98 -3.27517 4.22655 0
M  V30 34920 H 3448.33 -3.31776 2.51457 0
M  V30 34921 H 3448.86 -1.92197 3.48289 0
M  V30 34922 H 3445.6 -1.32315 6.42007 0
M  V30 34923 H 3445.12 -2.67489 5.36852 0
M  V30 34924 H 3446.8 -2.54484 5.9485 0
M  V30 34925 N 3446.93 -1.46867 -0.571659 0
M  V30 34926 C 3448.18 -1.52974 -1.33142 0
M  V30 34927 C 3448.51 -0.185378 -1.93313 0
M  V30 34928 O 3447.78 0.804439 -1.77085 0
M  V30 34929 C 3448.07 -2.63679 -2.45246 0
M  V30 34930 C 3447.92 -4.07684 -1.90037 0
M  V30 34931 C 3449.24 -2.7039 -3.47243 0
M  V30 34932 H 3446.36 -0.556893 -0.482741 0
M  V30 34933 H 3449 -1.78856 -0.641132 0
M  V30 34934 H 3447.15 -2.41741 -3.04128 0
M  V30 34935 H 3448.82 -4.40942 -1.35527 0
M  V30 34936 H 3447.06 -4.16642 -1.20797 0
M  V30 34937 H 3447.74 -4.80892 -2.71011 0
M  V30 34938 H 3450.21 -2.9014 -2.98258 0
M  V30 34939 H 3449.09 -3.4965 -4.23126 0
M  V30 34940 H 3449.35 -1.76875 -4.05176 0
M  V30 34941 N 3448.41 0.817212 -1.34757 0
M  V30 34942 C 3449.37 1.91003 -1.2669 0
M  V30 34943 C 3450.37 1.59781 -0.180773 0
M  V30 34944 O 3451.56 1.68713 -0.433777 0
M  V30 34945 C 3448.69 3.27181 -0.95735 0
M  V30 34946 H 3449.89 1.99578 -2.2385 0
M  V30 34947 H 3447.44 1.01185 -1.19127 0
M  V30 34948 H 3448.17 3.24298 0.0108347 0
M  V30 34949 H 3447.96 3.51227 -1.74304 0
M  V30 34950 H 3449.45 4.07199 -0.926233 0
M  V30 34951 N 3449.89 1.1858 1.0381 0
M  V30 34952 C 3450.85 0.917217 2.10047 0
M  V30 34953 C 3451.85 -0.098484 1.60498 0
M  V30 34954 O 3453.04 0.135244 1.73674 0
M  V30 34955 C 3450.17 0.376658 3.38813 0
M  V30 34956 H 3451.36 1.85932 2.35307 0
M  V30 34957 H 3448.92 0.998177 1.20275 0
M  V30 34958 H 3449.65 -0.571927 3.19217 0
M  V30 34959 H 3449.44 1.10887 3.76094 0
M  V30 34960 H 3450.93 0.207526 4.17084 0
M  V30 34961 N 3451.36 -1.22766 0.988245 0
M  V30 34962 C 3452.61 -1.91675 0.662474 0
M  V30 34963 C 3452.94 -1.76825 -0.802899 0
M  V30 34964 O 3452.22 -1.13417 -1.58009 0
M  V30 34965 C 3452.5 -3.44041 1.06338 0
M  V30 34966 C 3452.35 -3.67962 2.58697 0
M  V30 34967 C 3453.67 -4.35808 0.613134 0
M  V30 34968 H 3450.79 -0.696086 0.242144 0
M  V30 34969 H 3453.43 -1.44734 1.23093 0
M  V30 34970 H 3451.58 -3.84151 0.57969 0
M  V30 34971 H 3453.26 -3.37285 3.147 0
M  V30 34972 H 3451.5 -3.12403 3.00977 0
M  V30 34973 H 3452.17 -4.74651 2.81799 0
M  V30 34974 H 3454.65 -4.03188 1.02853 0
M  V30 34975 H 3453.52 -5.41101 0.921996 0
M  V30 34976 H 3453.78 -4.39417 -0.486333 0
M  V30 34977 N 3452.84 -0.760864 -1.38017 0
M  V30 34978 C 3453.75 -0.140273 -2.3418 0
M  V30 34979 C 3454.77 0.692259 -1.59636 0
M  V30 34980 O 3455.94 0.614718 -1.91789 0
M  V30 34981 C 3453.01 0.736871 -3.38779 0
M  V30 34982 C 3452.07 -0.110867 -4.29157 0
M  V30 34983 C 3451.3 0.724506 -5.28759 0
M  V30 34984 O 3451.53 1.96217 -5.35589 0
M  V30 34985 O 3450.46 0.13946 -6.01738 0
M  V30 34986 H 3454.29 -0.934639 -2.88961 0
M  V30 34987 H 3451.87 -0.52186 -1.39989 0
M  V30 34988 H 3453.75 1.23796 -4.02806 0
M  V30 34989 H 3452.43 1.50961 -2.86343 0
M  V30 34990 H 3451.33 -0.658072 -3.68267 0
M  V30 34991 H 3452.67 -0.846431 -4.84867 0
M  V30 34992 N 3454.32 1.49102 -0.510519 0
M  V30 34993 C 3455.23 2.33074 0.267135 0
M  V30 34994 C 3456.25 1.45247 0.958092 0
M  V30 34995 O 3457.42 1.78257 0.937368 0
M  V30 34996 C 3454.49 3.20914 1.31207 0
M  V30 34997 C 3453.55 4.246 0.633538 0
M  V30 34998 C 3452.78 5.08242 1.62869 0
M  V30 34999 O 3453 4.93548 2.85949 0
M  V30 35000 O 3451.94 5.90245 1.17877 0
M  V30 35001 H 3455.76 3.00776 -0.420437 0
M  V30 35002 H 3453.35 1.46908 -0.271709 0
M  V30 35003 H 3455.23 3.75302 1.91641 0
M  V30 35004 H 3453.91 2.55896 1.9824 0
M  V30 35005 H 3452.81 3.74098 -0.0107904 0
M  V30 35006 H 3454.15 4.922 0.00549118 0
M  V30 35007 N 3455.8 0.244768 1.55688 0
M  V30 35008 C 3456.76 -0.642344 2.20015 0
M  V30 35009 C 3457.76 -1.10435 1.16879 0
M  V30 35010 O 3458.95 -1.00941 1.41974 0
M  V30 35011 C 3456.08 -1.88262 2.84201 0
M  V30 35012 H 3457.28 -0.081141 2.9979 0
M  V30 35013 H 3454.83 -0.0047817 1.56299 0
M  V30 35014 H 3455.56 -2.4851 2.08358 0
M  V30 35015 H 3455.35 -1.55956 3.5975 0
M  V30 35016 H 3456.84 -2.51414 3.33438 0
M  V30 35017 N 3457.28 -1.57574 -0.0283712 0
M  V30 35018 C 3458.52 -1.8893 -0.717623 0
M  V30 35019 C 3458.84 -0.842548 -1.75858 0
M  V30 35020 O 3458.11 0.123739 -1.95509 0
M  V30 35021 H 3456.69 -0.697255 -0.268038 0
M  V30 35022 H 3459.36 -1.94899 0.00584117 0
M  V30 35023 H 3458.45 -2.87826 -1.20675 0
M  V30 35024 N 3458.75 0.300654 -1.54706 0
M  V30 35025 C 3460 1.03735 -1.74261 0
M  V30 35026 C 3460.33 1.86911 -0.527063 0
M  V30 35027 O 3459.61 1.8859 0.475828 0
M  V30 35028 C 3459.89 1.94305 -3.03179 0
M  V30 35029 C 3459.74 1.14307 -4.35033 0
M  V30 35030 C 3461.06 2.93472 -3.27967 0
M  V30 35031 H 3458.18 0.375719 -0.634038 0
M  V30 35032 H 3460.82 0.311979 -1.87421 0
M  V30 35033 H 3458.97 2.56155 -2.9209 0
M  V30 35034 H 3460.65 0.547408 -4.58041 0
M  V30 35035 H 3458.89 0.445794 -4.31503 0
M  V30 35036 H 3459.56 1.80931 -5.21505 0
M  V30 35037 H 3462.04 2.41751 -3.38668 0
M  V30 35038 H 3460.91 3.54008 -4.19487 0
M  V30 35039 H 3461.17 3.6715 -2.46279 0
M  V30 35040 N 3460.23 1.47168 0.563863 0
M  V30 35041 C 3461.46 1.57055 1.3469 0
M  V30 35042 C 3461.88 0.218341 1.87533 0
M  V30 35043 O 3461.23 -0.787387 1.6464 0
M  V30 35044 C 3461.28 2.59049 2.52143 0
M  V30 35045 O 3461 3.89018 2.01485 0
M  V30 35046 C 3462.51 2.79056 3.44445 0
M  V30 35047 H 3459.73 0.530541 0.410813 0
M  V30 35048 H 3462.27 1.92733 0.683697 0
M  V30 35049 H 3460.42 2.26323 3.14415 0
M  V30 35050 H 3460.84 4.44694 2.78114 0
M  V30 35051 H 3462.31 3.543 4.23291 0
M  V30 35052 H 3462.79 1.86638 3.97571 0
M  V30 35053 H 3463.4 3.12953 2.87994 0
M  V30 35054 N 3461.71 -0.810054 1.35188 0
M  V30 35055 C 3462.94 -1.59839 1.31374 0
M  V30 35056 C 3463.35 -1.88482 -0.109514 0
M  V30 35057 O 3462.71 -1.48529 -1.06045 0
M  V30 35058 C 3462.76 -2.93171 2.11502 0
M  V30 35059 O 3462.48 -2.65771 3.48277 0
M  V30 35060 C 3463.98 -3.87543 2.15233 0
M  V30 35061 H 3461.2 -0.496433 0.451437 0
M  V30 35062 H 3463.75 -1.00694 1.77992 0
M  V30 35063 H 3461.9 -3.4884 1.68493 0
M  V30 35064 H 3462.32 -3.50879 3.89851 0
M  V30 35065 H 3463.79 -4.78222 2.75696 0
M  V30 35066 H 3464.27 -4.23873 1.15015 0
M  V30 35067 H 3464.87 -3.3781 2.58388 0
M  V30 35068 N 3463.19 -1.19129 -1.0318 0
M  V30 35069 C 3464.42 -1.01581 -1.79902 0
M  V30 35070 C 3464.83 0.438664 -1.84044 0
M  V30 35071 O 3464.17 1.31648 -1.28119 0
M  V30 35072 C 3464.23 -1.50524 -3.2647 0
M  V30 35073 C 3463.9 -2.98587 -3.45969 0
M  V30 35074 C 3464.89 -3.96373 -3.36429 0
M  V30 35075 C 3462.58 -3.37215 -3.72278 0
M  V30 35076 C 3464.57 -5.30782 -3.52916 0
M  V30 35077 C 3462.26 -4.71784 -3.88411 0
M  V30 35078 C 3463.26 -5.68376 -3.78732 0
M  V30 35079 O 3462.94 -7.00507 -3.94393 0
M  V30 35080 H 3462.68 -0.35852 -0.573097 0
M  V30 35081 H 3465.23 -1.58312 -1.30868 0
M  V30 35082 H 3463.46 -0.881659 -3.76515 0
M  V30 35083 H 3465.15 -1.2923 -3.84778 0
M  V30 35084 H 3465.92 -3.67876 -3.16058 0
M  V30 35085 H 3461.79 -2.62585 -3.78906 0
M  V30 35086 H 3465.34 -6.06159 -3.45277 0
M  V30 35087 H 3461.24 -4.99978 -4.08279 0
M  V30 35088 H 3462 -7.07537 -4.11501 0
M  V30 35089 N 3464.67 1.2224 -0.994741 0
M  V30 35090 C 3465.89 1.95591 -0.689843 0
M  V30 35091 C 3466.32 1.72963 0.73929 0
M  V30 35092 O 3465.67 1.00999 1.50562 0
M  V30 35093 C 3465.72 3.46349 -1.00373 0
M  V30 35094 O 3464.83 4.1227 -0.103398 0
M  V30 35095 H 3464.17 0.611823 -0.258008 0
M  V30 35096 H 3466.7 1.55284 -1.33222 0
M  V30 35097 H 3466.71 3.96874 -0.946329 0
M  V30 35098 H 3465.38 3.62144 -2.0451 0
M  V30 35099 H 3463.96 3.72271 -0.21644 0
M  V30 35100 N 3466.14 0.768172 1.37611 0
M  V30 35101 C 3467.37 0.342147 2.04051 0
M  V30 35102 C 3467.79 -1.03446 1.57938 0
M  V30 35103 O 3467.14 -1.65968 0.75901 0
M  V30 35104 C 3467.2 0.372159 3.59579 0
M  V30 35105 O 3466.92 1.69446 4.04005 0
M  V30 35106 C 3468.42 -0.0659105 4.43251 0
M  V30 35107 H 3465.64 0.143898 0.655389 0
M  V30 35108 H 3468.18 1.0411 1.76015 0
M  V30 35109 H 3466.34 -0.27818 3.864 0
M  V30 35110 H 3466.75 1.63063 4.98509 0
M  V30 35111 H 3468.22 0.00624478 5.52 0
M  V30 35112 H 3468.7 -1.1158 4.2479 0
M  V30 35113 H 3469.31 0.556104 4.21649 0
M  V30 35114 N 3467.62 -1.48829 0.518419 0
M  V30 35115 C 3468.9 -1.95421 -0.0837154 0
M  V30 35116 C 3469.28 -1.4604 -1.52432 0
M  V30 35117 O 3468.63 -0.681774 -2.18092 0
M  V30 35118 C 3468.84 -3.48993 0.0215947 0
M  V30 35119 C 3470.19 -4.24357 -0.14354 0
M  V30 35120 O 3471.21 -3.56161 -0.0527597 0
M  V30 35121 O 3470.07 -5.4549 -0.332135 0
M  V30 35122 H 3467.16 -0.822548 -0.0856987 0
M  V30 35123 H 3469.71 -1.59401 0.582197 0
M  V30 35124 H 3468.48 -3.77621 1.02556 0
M  V30 35125 H 3468.1 -3.91678 -0.683687 0
M  V30 35126 N 3469.1 -0.253021 -1.55556 0
M  V30 35127 C 3470.01 0.654542 -2.25284 0
M  V30 35128 C 3471.03 1.18829 -1.27105 0
M  V30 35129 O 3472.2 1.22326 -1.59995 0
M  V30 35130 C 3469.27 1.83208 -2.94339 0
M  V30 35131 C 3468.33 1.33721 -4.07943 0
M  V30 35132 C 3467.56 2.45862 -4.73695 0
M  V30 35133 O 3467.78 3.64731 -4.38552 0
M  V30 35134 O 3466.72 2.15273 -5.62086 0
M  V30 35135 H 3470.54 0.0903558 -3.03566 0
M  V30 35136 H 3468.13 -0.0212797 -1.49385 0
M  V30 35137 H 3470.01 2.51914 -3.37813 0
M  V30 35138 H 3468.69 2.38378 -2.18993 0
M  V30 35139 H 3467.59 0.617258 -3.68973 0
M  V30 35140 H 3468.93 0.831532 -4.85125 0
M  V30 35141 N 3470.58 1.57587 0.0200142 0
M  V30 35142 C 3471.51 2.02549 1.05115 0
M  V30 35143 C 3472.49 0.911517 1.34648 0
M  V30 35144 O 3473.67 1.17807 1.47152 0
M  V30 35145 C 3470.8 2.4062 2.38369 0
M  V30 35146 C 3469.85 3.6255 2.24632 0
M  V30 35147 S 3470.68 5.11313 1.5912 0
M  V30 35148 C 3471.84 5.52635 2.93846 0
M  V30 35149 H 3472.07 2.89693 0.66822 0
M  V30 35150 H 3469.6 1.52673 0.230274 0
M  V30 35151 H 3471.56 2.63224 3.14998 0
M  V30 35152 H 3470.22 1.53911 2.73807 0
M  V30 35153 H 3469.41 3.86873 3.23025 0
M  V30 35154 H 3469.02 3.39844 1.56148 0
M  V30 35155 H 3471.31 5.53872 3.9017 0
M  V30 35156 H 3472.25 6.52836 2.74246 0
M  V30 35157 H 3472.66 4.80155 2.96835 0
M  V30 35158 N 3472.06 -0.292445 1.54863 0
M  V30 35159 C 3473.02 -1.3441 1.85652 0
M  V30 35160 C 3474.02 -1.4328 0.729894 0
M  V30 35161 O 3475.21 -1.42767 0.998153 0
M  V30 35162 C 3472.34 -2.72791 2.04445 0
M  V30 35163 H 3473.53 -1.08349 2.79644 0
M  V30 35164 H 3471.09 -0.529548 1.47056 0
M  V30 35165 H 3471.82 -3.04062 1.1277 0
M  V30 35166 H 3471.61 -2.67742 2.86456 0
M  V30 35167 H 3473.1 -3.48813 2.29606 0
M  V30 35168 N 3473.53 -1.47465 -0.55605 0
M  V30 35169 C 3474.5 -1.59589 -1.64512 0
M  V30 35170 C 3475.5 -0.470908 -1.5375 0
M  V30 35171 O 3476.69 -0.736007 -1.57888 0
M  V30 35172 C 3473.82 -1.54149 -3.04058 0
M  V30 35173 H 3475.01 -2.56672 -1.55111 0
M  V30 35174 H 3472.57 -1.35672 -0.776063 0
M  V30 35175 H 3473.3 -0.584451 -3.1899 0
M  V30 35176 H 3473.09 -2.35795 -3.13278 0
M  V30 35177 H 3474.58 -1.65773 -3.83287 0
M  V30 35178 N 3475.01 0.802873 -1.35616 0
M  V30 35179 C 3475.94 1.92944 -1.3151 0
M  V30 35180 C 3476.92 1.69048 -0.188872 0
M  V30 35181 O 3478.11 1.90357 -0.384418 0
M  V30 35182 C 3475.24 3.2975 -1.09007 0
M  V30 35183 C 3474.19 3.68137 -2.1831 0
M  V30 35184 C 3473.52 5.03145 -1.80967 0
M  V30 35185 C 3474.82 3.78126 -3.60303 0
M  V30 35186 H 3476.51 1.96638 -2.25774 0
M  V30 35187 H 3474.06 0.944666 -1.08683 0
M  V30 35188 H 3476.01 4.08167 -1.04773 0
M  V30 35189 H 3474.74 3.26408 -0.11189 0
M  V30 35190 H 3473.4 2.92007 -2.21647 0
M  V30 35191 H 3473.04 4.96311 -0.817582 0
M  V30 35192 H 3472.74 5.298 -2.54138 0
M  V30 35193 H 3474.27 5.83998 -1.78265 0
M  V30 35194 H 3475.68 4.46766 -3.59267 0
M  V30 35195 H 3474.08 4.16254 -4.32265 0
M  V30 35196 H 3475.15 2.79581 -3.96185 0
M  V30 35197 N 3476.49 1.19674 1.02547 0
M  V30 35198 C 3477.42 0.961326 2.12793 0
M  V30 35199 C 3478.4 -0.106546 1.69766 0
M  V30 35200 O 3479.59 0.0491699 1.94138 0
M  V30 35201 C 3476.72 0.502928 3.43639 0
M  V30 35202 C 3475.67 1.51303 4.00364 0
M  V30 35203 C 3475 0.911584 5.26872 0
M  V30 35204 C 3476.3 2.89424 4.34777 0
M  V30 35205 H 3477.99 1.88336 2.32745 0
M  V30 35206 H 3475.54 0.906941 1.11851 0
M  V30 35207 H 3477.49 0.32551 4.20141 0
M  V30 35208 H 3476.21 -0.454707 3.23419 0
M  V30 35209 H 3474.87 1.67765 3.25961 0
M  V30 35210 H 3474.52 -0.0537097 5.02971 0
M  V30 35211 H 3474.22 1.58612 5.65788 0
M  V30 35212 H 3475.75 0.745036 6.06038 0
M  V30 35213 H 3477.16 2.76524 5.02202 0
M  V30 35214 H 3475.56 3.53702 4.84783 0
M  V30 35215 H 3476.63 3.4182 3.43929 0
M  V30 35216 N 3477.97 -1.21711 1.00121 0
M  V30 35217 C 3478.9 -2.26219 0.578544 0
M  V30 35218 C 3479.88 -1.6536 -0.398748 0
M  V30 35219 O 3481.07 -1.92059 -0.287562 0
M  V30 35220 C 3478.2 -3.47158 -0.0993898 0
M  V30 35221 C 3477.15 -4.20508 0.797294 0
M  V30 35222 C 3476.48 -5.34698 -0.0140185 0
M  V30 35223 C 3477.78 -4.78306 2.09811 0
M  V30 35224 H 3479.47 -2.61827 1.45213 0
M  V30 35225 H 3477.02 -1.25859 0.699678 0
M  V30 35226 H 3478.97 -4.19434 -0.406531 0
M  V30 35227 H 3477.69 -3.10669 -1.00758 0
M  V30 35228 H 3476.35 -3.50077 1.0882 0
M  V30 35229 H 3476 -4.94452 -0.923381 0
M  V30 35230 H 3475.7 -5.84701 0.582986 0
M  V30 35231 H 3477.22 -6.09787 -0.315062 0
M  V30 35232 H 3478.64 -5.42481 1.85437 0
M  V30 35233 H 3477.03 -5.38682 2.64464 0
M  V30 35234 H 3478.1 -3.97897 2.77139 0
M  V30 35235 N 3479.45 -0.775459 -1.37202 0
M  V30 35236 C 3480.72 -0.266039 -1.93782 0
M  V30 35237 C 3481.1 1.23953 -1.70877 0
M  V30 35238 O 3480.45 2.02442 -1.05968 0
M  V30 35239 C 3480.66 -0.643464 -3.43017 0
M  V30 35240 C 3482.01 -0.615341 -4.20118 0
M  V30 35241 O 3483.03 -0.58308 -3.51395 0
M  V30 35242 O 3481.89 -0.645733 -5.42672 0
M  V30 35243 H 3478.99 -0.0623252 -0.824648 0
M  V30 35244 H 3481.53 -0.857062 -1.46467 0
M  V30 35245 H 3480.31 -1.68238 -3.53287 0
M  V30 35246 H 3479.93 -0.0255837 -3.97592 0
M  V30 35247 N 3480.93 1.48552 -0.526305 0
M  V30 35248 C 3481.86 2.32391 0.227323 0
M  V30 35249 C 3482.84 1.41861 0.938595 0
M  V30 35250 O 3484.02 1.70751 0.925089 0
M  V30 35251 C 3481.15 3.22973 1.27694 0
M  V30 35252 C 3480.11 4.22499 0.684033 0
M  V30 35253 C 3479.43 5.02189 1.83603 0
M  V30 35254 C 3480.73 5.2118 -0.341814 0
M  V30 35255 H 3482.43 2.95647 -0.472538 0
M  V30 35256 H 3479.97 1.42172 -0.228694 0
M  V30 35257 H 3481.92 3.80449 1.81208 0
M  V30 35258 H 3480.65 2.57709 2.00633 0
M  V30 35259 H 3479.31 3.66204 0.170441 0
M  V30 35260 H 3478.96 4.33353 2.55371 0
M  V30 35261 H 3478.66 5.69549 1.44526 0
M  V30 35262 H 3480.18 5.62516 2.37503 0
M  V30 35263 H 3481.59 5.73202 0.106107 0
M  V30 35264 H 3479.99 5.96572 -0.649777 0
M  V30 35265 H 3481.06 4.68541 -1.24888 0
M  V30 35266 N 3482.4 0.261267 1.55419 0
M  V30 35267 C 3483.64 -0.360813 2.0119 0
M  V30 35268 C 3484.01 -1.54078 1.1456 0
M  V30 35269 O 3485.21 -2.23156 1.4985 0
M  V30 35270 C 3483.48 -0.746618 3.49514 0
M  V30 35271 S 3485.04 -1.35719 4.17284 0
M  V30 35272 H 3481.86 -0.112891 0.70198 0
M  V30 35273 H 3484.46 0.379863 1.91774 0
M  V30 35274 H 3483.16 0.121244 4.10221 0
M  V30 35275 H 3482.69 -1.51911 3.62887 0
M  V30 35276 H 3484.71 -2.64605 4.1976 0
M  V30 35277 N 3483.88 -1.57596 -0.0116567 0
M  V30 35278 C 3485.16 -1.81253 -0.735312 0
M  V30 35279 C 3485.54 -0.86348 -1.92632 0
M  V30 35280 O 3484.89 0.0904626 -2.28321 0
M  V30 35281 C 3485.1 -3.29439 -1.15201 0
M  V30 35282 C 3486.44 -3.94876 -1.56071 0
M  V30 35283 O 3487.47 -3.33692 -1.24612 0
M  V30 35284 O 3486.33 -5.02634 -2.14526 0
M  V30 35285 H 3483.42 -0.745961 -0.357031 0
M  V30 35286 H 3485.97 -1.69695 0.0129031 0
M  V30 35287 H 3484.74 -3.90129 -0.30255 0
M  V30 35288 H 3484.36 -3.45951 -1.95969 0
M  V30 35289 N 3485.36 0.284228 -1.55016 0
M  V30 35290 C 3486.32 1.33423 -1.86362 0
M  V30 35291 C 3487.32 1.42891 -0.737482 0
M  V30 35292 O 3488.51 1.42236 -1.00571 0
M  V30 35293 C 3485.64 2.71703 -2.05889 0
M  V30 35294 H 3486.84 1.06864 -2.80214 0
M  V30 35295 H 3484.39 0.521741 -1.47335 0
M  V30 35296 H 3485.13 3.03459 -1.14381 0
M  V30 35297 H 3484.91 2.66219 -2.87871 0
M  V30 35298 H 3486.4 3.47591 -2.31453 0
M  V30 35299 N 3486.84 1.47758 0.548222 0
M  V30 35300 C 3487.75 1.63568 1.68175 0
M  V30 35301 C 3488.76 0.51838 1.66099 0
M  V30 35302 O 3489.94 0.787093 1.85383 0
M  V30 35303 C 3487 1.65459 3.0467 0
M  V30 35304 C 3486.07 2.88682 3.17744 0
M  V30 35305 C 3485.3 2.90474 4.47728 0
M  V30 35306 O 3485.52 2.01211 5.33732 0
M  V30 35307 O 3484.46 3.82441 4.64782 0
M  V30 35308 H 3488.28 2.595 1.57777 0
M  V30 35309 H 3485.87 1.30947 0.719254 0
M  V30 35310 H 3487.75 1.6933 3.85882 0
M  V30 35311 H 3486.42 0.726967 3.15431 0
M  V30 35312 H 3485.33 2.90352 2.35895 0
M  V30 35313 H 3486.66 3.80769 3.11891 0
M  V30 35314 N 3488.32 -0.79567 1.3604 0
M  V30 35315 C 3489.54 -1.58953 1.33225 0
M  V30 35316 C 3489.97 -1.87906 -0.0854266 0
M  V30 35317 O 3489.32 -1.47405 -1.05553 0
M  V30 35318 C 3489.37 -2.89113 2.15513 0
M  V30 35319 O 3488.48 -3.82433 1.54333 0
M  V30 35320 H 3487.82 -0.482402 0.456272 0
M  V30 35321 H 3490.35 -0.986695 1.79236 0
M  V30 35322 H 3490.36 -3.3844 2.27865 0
M  V30 35323 H 3489.03 -2.67366 3.18572 0
M  V30 35324 H 3487.61 -3.41011 1.50885 0
M  V30 35325 N 3489.79 -1.20217 -1.0191 0
M  V30 35326 C 3490.74 -0.948745 -2.10398 0
M  V30 35327 C 3491.71 0.12011 -1.65665 0
M  V30 35328 O 3492.9 -0.0240882 -1.90785 0
M  V30 35329 C 3490.04 -0.504192 -3.41397 0
M  V30 35330 C 3489.15 -1.64092 -3.99622 0
M  V30 35331 C 3488.28 -1.14692 -5.18671 0
M  V30 35332 C 3487.32 -2.2569 -5.68973 0
M  V30 35333 N 3486.46 -1.77526 -6.79286 0
M  V30 35334 H 3491.3 -1.87757 -2.31412 0
M  V30 35335 H 3488.84 -0.935921 -1.13485 0
M  V30 35336 H 3490.8 -0.227783 -4.16578 0
M  V30 35337 H 3489.43 0.387632 -3.20464 0
M  V30 35338 H 3488.48 -2.0323 -3.21561 0
M  V30 35339 H 3489.79 -2.47682 -4.32961 0
M  V30 35340 H 3488.94 -0.826329 -6.01046 0
M  V30 35341 H 3487.68 -0.280883 -4.8689 0
M  V30 35342 H 3486.69 -2.58568 -4.85204 0
M  V30 35343 H 3487.91 -3.12766 -6.02789 0
M  V30 35344 H 3485.86 -0.932452 -6.49339 0
M  V30 35345 H 3485.78 -2.54698 -7.11804 0
M  V30 35346 H 3487.04 -1.48459 -7.65232 0
M  V30 35347 N 3491.27 1.21178 -1.00765 0
M  V30 35348 C 3492.52 1.90596 -0.692884 0
M  V30 35349 C 3492.85 1.7808 0.774667 0
M  V30 35350 O 3492.13 1.15917 1.56184 0
M  V30 35351 C 3492.41 3.42306 -1.11798 0
M  V30 35352 C 3492.26 3.638 -2.64518 0
M  V30 35353 C 3493.58 4.34777 -0.68239 0
M  V30 35354 H 3490.7 0.692145 -0.253187 0
M  V30 35355 H 3493.34 1.42758 -1.2538 0
M  V30 35356 H 3491.49 3.8318 -0.640732 0
M  V30 35357 H 3493.16 3.32236 -3.20026 0
M  V30 35358 H 3491.41 3.07575 -3.05908 0
M  V30 35359 H 3492.08 4.70108 -2.89314 0
M  V30 35360 H 3494.55 4.01501 -1.09254 0
M  V30 35361 H 3493.43 5.39566 -1.00796 0
M  V30 35362 H 3493.69 4.40135 0.416364 0
M  V30 35363 N 3492.75 0.782725 1.36789 0
M  V30 35364 C 3493.71 0.182566 2.28472 0
M  V30 35365 C 3494.71 -0.616191 1.48525 0
M  V30 35366 O 3495.9 -0.438168 1.68599 0
M  V30 35367 C 3493.04 -0.748143 3.32589 0
M  V30 35368 H 3494.23 0.990899 2.83057 0
M  V30 35369 H 3491.78 0.551684 1.4624 0
M  V30 35370 H 3492.52 -1.58107 2.83148 0
M  V30 35371 H 3492.3 -0.177412 3.91698 0
M  V30 35372 H 3493.79 -1.16314 4.01075 0
M  V30 35373 N 3494.23 -1.48271 0.534176 0
M  V30 35374 C 3495.19 -2.28184 -0.215601 0
M  V30 35375 C 3496.19 -1.3562 -0.863942 0
M  V30 35376 O 3497.38 -1.58472 -0.723347 0
M  V30 35377 C 3494.51 -3.14623 -1.31246 0
M  V30 35378 H 3495.71 -2.95935 0.486066 0
M  V30 35379 H 3493.26 -1.53581 0.290264 0
M  V30 35380 H 3493.99 -2.51512 -2.04725 0
M  V30 35381 H 3493.78 -3.82717 -0.852639 0
M  V30 35382 H 3495.27 -3.74892 -1.83972 0
M  V30 35383 N 3495.71 -0.269505 -1.55279 0
M  V30 35384 C 3496.67 0.60726 -2.21009 0
M  V30 35385 C 3497.67 1.08562 -1.18621 0
M  V30 35386 O 3498.86 0.986695 -1.43562 0
M  V30 35387 C 3495.99 1.83716 -2.8716 0
M  V30 35388 H 3497.18 0.0334367 -2.99881 0
M  V30 35389 H 3494.74 -0.0200848 -1.56287 0
M  V30 35390 H 3495.47 2.45164 -2.12285 0
M  V30 35391 H 3495.26 1.50213 -3.62186 0
M  V30 35392 H 3496.75 2.46077 -3.37396 0
M  V30 35393 N 3497.18 1.576 0.00329885 0
M  V30 35394 C 3498.6 1.55502 0.359333 0
M  V30 35395 C 3498.8 0.998945 1.74995 0
M  V30 35396 O 3497.86 0.631306 2.44481 0
M  V30 35397 C 3499.17 2.9976 0.237585 0
M  V30 35398 C 3500.72 3.11433 0.312769 0
M  V30 35399 C 3501.19 4.5747 0.220182 0
M  V30 35400 N 3502.68 4.62364 0.278184 0
M  V30 35401 C 3503.42 5.72939 0.229833 0
M  V30 35402 N 3502.91 6.92674 0.13227 0
M  V30 35403 N 3504.71 5.61395 0.281456 0
M  V30 35404 H 3496.86 1.92087 -0.906438 0
M  V30 35405 H 3499.12 0.882154 -0.347144 0
M  V30 35406 H 3498.83 3.44271 -0.719068 0
M  V30 35407 H 3498.7 3.6312 1.02098 0
M  V30 35408 H 3501.09 2.66855 1.25987 0
M  V30 35409 H 3501.17 2.50857 -0.500439 0
M  V30 35410 H 3500.81 5.02723 -0.723356 0
M  V30 35411 H 3500.74 5.15988 1.05183 0
M  V30 35412 H 3503.23 3.76228 0.355054 0
M  V30 35413 H 3503.55 7.72734 0.101181 0
M  V30 35414 H 3501.89 6.94931 0.0979444 0
M  V30 35415 H 3505.08 4.66745 0.355849 0
M  V30 35416 H 3505.26 6.47554 0.240309 0
M  V30 35417 N 3498.66 -0.276003 1.55164 0
M  V30 35418 C 3499.89 -1.0306 1.79982 0
M  V30 35419 C 3500.31 -1.79262 0.5698 0
M  V30 35420 O 3499.67 -1.74816 -0.480509 0
M  V30 35421 C 3499.72 -1.96723 3.02213 0
M  V30 35422 O 3498.82 -3.05444 2.77088 0
M  V30 35423 H 3498.16 -0.294803 0.594968 0
M  V30 35424 H 3500.69 -0.305825 2.02301 0
M  V30 35425 H 3500.7 -2.38732 3.30864 0
M  V30 35426 H 3499.38 -1.4067 3.91388 0
M  V30 35427 H 3497.96 -2.67771 2.59524 0
M  V30 35428 N 3500.14 -1.48046 -0.540378 0
M  V30 35429 C 3501.55 -1.49194 -1.12241 0
M  V30 35430 C 3501.9 -0.255929 -1.94524 0
M  V30 35431 O 3501.03 0.637819 -2.06787 0
M  V30 35432 C 3501.62 -2.70331 -2.04222 0
M  V30 35433 C 3500.18 -2.74384 -2.57663 0
M  V30 35434 C 3499.33 -2.42554 -1.34398 0
M  V30 35435 H 3502.28 -1.55313 -0.326138 0
M  V30 35436 H 3502.3 -2.48258 -2.88354 0
M  V30 35437 H 3501.81 -3.60273 -1.44308 0
M  V30 35438 H 3499.91 -1.88624 -3.21328 0
M  V30 35439 H 3500.03 -3.75535 -2.97507 0
M  V30 35440 H 3498.39 -1.9349 -1.65632 0
M  V30 35441 H 3499.17 -3.34725 -0.762512 0
M  V30 35442 N 3501.62 0.788444 -1.3646 0
M  V30 35443 C 3502.87 1.54155 -1.30073 0
M  V30 35444 C 3503.18 1.95247 0.117539 0
M  V30 35445 O 3504.39 2.69795 0.30379 0
M  V30 35446 C 3502.84 2.78287 -2.2822 0
M  V30 35447 C 3502.45 2.44361 -3.75489 0
M  V30 35448 C 3504.19 3.56267 -2.30812 0
M  V30 35449 C 3502.1 3.64893 -4.6541 0
M  V30 35450 H 3501.03 0.578691 -0.483355 0
M  V30 35451 H 3503.68 0.865094 -1.61828 0
M  V30 35452 H 3502.06 3.47737 -1.8946 0
M  V30 35453 H 3503.24 1.82802 -4.2299 0
M  V30 35454 H 3501.55 1.7959 -3.75681 0
M  V30 35455 H 3504.15 4.45824 -2.95204 0
M  V30 35456 H 3504.49 3.94921 -1.31694 0
M  V30 35457 H 3505.03 2.93797 -2.68194 0
M  V30 35458 H 3501.77 3.31334 -5.65595 0
M  V30 35459 H 3501.29 4.25615 -4.22625 0
M  V30 35460 H 3502.96 4.3191 -4.81729 0
M  V30 35461 N 3503.1 1.20755 1.01271 0
M  V30 35462 C 3504.04 0.959889 2.09892 0
M  V30 35463 C 3505.01 -0.111322 1.65727 0
M  V30 35464 O 3506.2 0.0342057 1.90769 0
M  V30 35465 C 3503.34 0.52229 3.41125 0
M  V30 35466 C 3502.45 1.66209 3.98746 0
M  V30 35467 C 3501.59 1.17441 5.18055 0
M  V30 35468 C 3500.63 2.28704 5.67768 0
M  V30 35469 N 3499.76 1.81126 6.78335 0
M  V30 35470 H 3504.6 1.88981 2.30413 0
M  V30 35471 H 3502.14 0.941926 1.12987 0
M  V30 35472 H 3504.1 0.249872 4.16451 0
M  V30 35473 H 3502.73 -0.370632 3.20665 0
M  V30 35474 H 3501.78 2.04933 3.20479 0
M  V30 35475 H 3503.09 2.49974 4.31641 0
M  V30 35476 H 3502.25 0.858192 6.006 0
M  V30 35477 H 3500.98 0.3067 4.86735 0
M  V30 35478 H 3499.99 2.61138 4.83825 0
M  V30 35479 H 3501.21 3.15958 6.01122 0
M  V30 35480 H 3499.16 0.966875 6.48836 0
M  V30 35481 H 3499.08 2.5847 7.10443 0
M  V30 35482 H 3500.35 1.52515 7.64434 0
M  V30 35483 N 3504.58 -1.20642 1.01406 0
M  V30 35484 C 3505.54 -2.21556 0.58698 0
M  V30 35485 C 3506.54 -1.57132 -0.341515 0
M  V30 35486 O 3507.73 -1.7371 -0.130554 0
M  V30 35487 C 3504.86 -3.40599 -0.143188 0
M  V30 35488 H 3506.05 -2.60855 1.47968 0
M  V30 35489 H 3503.61 -1.34061 0.803574 0
M  V30 35490 H 3504.34 -3.068 -1.05092 0
M  V30 35491 H 3504.13 -3.88586 0.523784 0
M  V30 35492 H 3505.62 -4.15386 -0.429431 0
M  V30 35493 N 3506.05 -0.789968 -1.36372 0
M  V30 35494 C 3507.33 -0.286577 -1.93489 0
M  V30 35495 C 3507.71 1.22133 -1.72182 0
M  V30 35496 O 3507.06 2.01307 -1.0811 0
M  V30 35497 C 3507.27 -0.679809 -3.42315 0
M  V30 35498 C 3508.62 -0.659865 -4.19441 0
M  V30 35499 O 3509.64 -0.620317 -3.50757 0
M  V30 35500 O 3508.5 -0.703254 -5.41956 0
M  V30 35501 H 3505.59 -0.0710682 -0.823941 0
M  V30 35502 H 3508.14 -0.872549 -1.4555 0
M  V30 35503 H 3506.91 -1.71976 -3.51482 0
M  V30 35504 H 3506.53 -0.0677522 -3.97542 0
M  V30 35505 N 3507.53 1.47986 -0.542031 0
M  V30 35506 C 3508.46 2.32619 0.202662 0
M  V30 35507 C 3509.44 1.42848 0.923496 0
M  V30 35508 O 3510.63 1.71722 0.906927 0
M  V30 35509 C 3507.76 3.24309 1.24261 0
M  V30 35510 C 3506.71 4.232 0.639183 0
M  V30 35511 C 3506.04 5.04108 1.78266 0
M  V30 35512 C 3507.34 5.20788 -0.397073 0
M  V30 35513 H 3509.03 2.9513 -0.503868 0
M  V30 35514 H 3506.58 1.41922 -0.243761 0
M  V30 35515 H 3508.53 3.8235 1.77163 0
M  V30 35516 H 3507.25 2.59822 1.97888 0
M  V30 35517 H 3505.91 3.66364 0.131591 0
M  V30 35518 H 3505.56 4.36037 2.50761 0
M  V30 35519 H 3505.26 5.7105 1.38477 0
M  V30 35520 H 3506.79 5.65004 2.31523 0
M  V30 35521 H 3508.2 5.73282 0.045305 0
M  V30 35522 H 3506.6 5.95849 -0.713015 0
M  V30 35523 H 3507.67 4.6719 -1.29851 0
M  V30 35524 N 3509.01 0.277736 1.55133 0
M  V30 35525 C 3510.24 -0.341565 2.04061 0
M  V30 35526 C 3510.65 -1.49272 1.156 0
M  V30 35527 O 3510.01 -1.81643 0.176657 0
M  V30 35528 C 3510.06 -0.820077 3.52075 0
M  V30 35529 O 3509.78 0.285237 4.3717 0
M  V30 35530 C 3511.28 -1.50693 4.16901 0
M  V30 35531 H 3508.5 -0.0775591 0.666503 0
M  V30 35532 H 3511.05 0.410594 2.00336 0
M  V30 35533 H 3509.2 -1.52232 3.56236 0
M  V30 35534 H 3509.62 -0.0831101 5.24434 0
M  V30 35535 H 3511.09 -1.79314 5.22064 0
M  V30 35536 H 3511.57 -2.43933 3.65231 0
M  V30 35537 H 3512.17 -0.848468 4.16751 0
M  V30 35538 N 3510.49 -1.57599 0.00505908 0
M  V30 35539 C 3511.74 -1.9041 -0.677387 0
M  V30 35540 C 3512.06 -0.879661 -1.74032 0
M  V30 35541 O 3511.33 0.0822413 -1.95727 0
M  V30 35542 H 3509.91 -0.702784 -0.253188 0
M  V30 35543 H 3512.57 -1.94843 0.0471808 0
M  V30 35544 H 3511.66 -2.90321 -1.14543 0
M  V30 35545 N 3511.97 0.267771 -1.55309 0
M  V30 35546 C 3513.21 0.996703 -1.75813 0
M  V30 35547 C 3513.53 1.86629 -0.565194 0
M  V30 35548 O 3512.8 1.9135 0.419741 0
M  V30 35549 H 3511.38 0.370997 -0.64836 0
M  V30 35550 H 3514.05 0.290742 -1.92719 0
M  V30 35551 H 3513.14 1.6306 -2.66116 0
M  V30 35552 N 3513.44 1.48331 0.532519 0
M  V30 35553 C 3514.37 1.65558 1.6466 0
M  V30 35554 C 3515.35 0.504498 1.62446 0
M  V30 35555 O 3516.54 0.736743 1.79682 0
M  V30 35556 C 3513.67 1.69277 3.03253 0
M  V30 35557 C 3512.62 2.8386 3.20324 0
M  V30 35558 C 3511.95 2.72667 4.59953 0
M  V30 35559 C 3513.25 4.25187 3.03337 0
M  V30 35560 H 3514.94 2.58826 1.50498 0
M  V30 35561 H 3512.49 1.24558 0.72259 0
M  V30 35562 H 3514.44 1.79917 3.81061 0
M  V30 35563 H 3513.17 0.72586 3.18432 0
M  V30 35564 H 3511.83 2.72771 2.44932 0
M  V30 35565 H 3511.47 1.73951 4.71964 0
M  V30 35566 H 3511.17 3.49553 4.7232 0
M  V30 35567 H 3512.7 2.85271 5.39864 0
M  V30 35568 H 3514.11 4.37123 3.7094 0
M  V30 35569 H 3512.51 5.03051 3.27199 0
M  V30 35570 H 3513.58 4.41827 1.99792 0
M  V30 35571 N 3514.92 -0.781196 1.36876 0
M  V30 35572 C 3515.88 -1.87577 1.3171 0
M  V30 35573 C 3516.88 -1.59245 0.223072 0
M  V30 35574 O 3518.07 -1.67503 0.478356 0
M  V30 35575 C 3515.21 -3.24528 1.04376 0
M  V30 35576 H 3516.4 -1.93572 2.29063 0
M  V30 35577 H 3513.95 -0.979909 1.21768 0
M  V30 35578 H 3514.69 -3.24213 0.0751511 0
M  V30 35579 H 3514.47 -3.46483 1.83554 0
M  V30 35580 H 3515.96 -4.046 1.03387 0
M  V30 35581 N 3516.4 -1.21291 -1.0063 0
M  V30 35582 C 3517.31 -0.986994 -2.12828 0
M  V30 35583 C 3518.33 0.0604846 -1.73895 0
M  V30 35584 O 3519.5 -0.129274 -2.00985 0
M  V30 35585 C 3516.57 -0.553149 -3.42259 0
M  V30 35586 C 3515.63 -1.67269 -3.95373 0
M  V30 35587 C 3514.86 -1.25945 -5.18627 0
M  V30 35588 O 3515.08 -0.132502 -5.70246 0
M  V30 35589 O 3514.02 -2.07086 -5.65154 0
M  V30 35590 H 3517.84 -1.92667 -2.34762 0
M  V30 35591 H 3515.43 -0.997674 -1.11206 0
M  V30 35592 H 3517.31 -0.320929 -4.20176 0
M  V30 35593 H 3515.99 0.357824 -3.21716 0
M  V30 35594 H 3514.89 -1.9593 -3.18688 0
M  V30 35595 H 3516.23 -2.56104 -4.20323 0
M  V30 35596 N 3517.88 1.20103 -1.02045 0
M  V30 35597 C 3518.84 2.21242 -0.598721 0
M  V30 35598 C 3519.84 1.5731 0.333178 0
M  V30 35599 O 3521.03 1.73777 0.12134 0
M  V30 35600 C 3518.16 3.4067 0.125123 0
M  V30 35601 H 3519.36 2.60067 -1.49349 0
M  V30 35602 H 3516.91 1.33633 -0.810672 0
M  V30 35603 H 3517.64 3.07353 1.03463 0
M  V30 35604 H 3517.43 3.88303 -0.544384 0
M  V30 35605 H 3518.92 4.15608 0.407396 0
M  V30 35606 N 3519.36 0.797189 1.35951 0
M  V30 35607 C 3520.3 0.188998 2.31831 0
M  V30 35608 C 3521.3 -0.656015 1.56182 0
M  V30 35609 O 3522.5 -0.550229 1.71384 0
M  V30 35610 H 3518.88 0.0423486 0.750807 0
M  V30 35611 H 3520.85 1.01295 2.80681 0
M  V30 35612 C 3519.6 -0.655487 3.41465 0
M  V30 35613 H 3518.92 -0.0146152 3.99797 0
M  V30 35614 H 3520.36 -1.04758 4.10855 0
M  V30 35615 C 3518.82 -1.81704 2.83699 0
M  V30 35616 O 3519.35 -2.91404 2.76489 0
M  V30 35617 N 3517.56 -1.6256 2.40879 0
M  V30 35618 H 3517.1 -0.733294 2.46942 0
M  V30 35619 H 3517.06 -2.40438 2.02576 0
M  V30 35620 N 3520.83 -1.47696 0.549872 0
M  V30 35621 C 3521.76 -2.32723 -0.190323 0
M  V30 35622 C 3522.75 -1.43336 -0.915907 0
M  V30 35623 O 3523.93 -1.72201 -0.897807 0
M  V30 35624 C 3521.06 -3.24964 -1.2254 0
M  V30 35625 C 3520.01 -4.23533 -0.616731 0
M  V30 35626 C 3519.34 -5.05047 -1.75591 0
M  V30 35627 C 3520.64 -5.20571 0.424686 0
M  V30 35628 H 3522.33 -2.94858 0.519513 0
M  V30 35629 H 3519.88 -1.41791 0.251284 0
M  V30 35630 H 3521.83 -3.83284 -1.75133 0
M  V30 35631 H 3520.56 -2.60868 -1.96508 0
M  V30 35632 H 3519.22 -3.66428 -0.11216 0
M  V30 35633 H 3518.86 -4.3736 -2.48445 0
M  V30 35634 H 3518.56 -5.71776 -1.35446 0
M  V30 35635 H 3520.09 -5.66224 -2.28524 0
M  V30 35636 H 3521.5 -5.73298 -0.0149018 0
M  V30 35637 H 3519.9 -5.95463 0.744605 0
M  V30 35638 H 3520.97 -4.66495 1.32327 0
M  V30 35639 N 3522.31 -0.285959 -1.54984 0
M  V30 35640 C 3523.59 0.380049 -1.91872 0
M  V30 35641 C 3523.97 1.72876 -1.21149 0
M  V30 35642 O 3523.32 2.25926 -0.342039 0
M  V30 35643 C 3523.53 0.509606 -3.45259 0
M  V30 35644 C 3524.88 0.787476 -4.17234 0
M  V30 35645 O 3525.9 0.594 -3.51212 0
M  V30 35646 O 3524.76 1.15816 -5.34087 0
M  V30 35647 H 3521.85 0.209841 -0.799935 0
M  V30 35648 H 3524.4 -0.332911 -1.66402 0
M  V30 35649 H 3523.17 -0.439117 -3.88828 0
M  V30 35650 H 3522.79 1.27162 -3.76717 0
M  V30 35651 N 3523.79 1.57594 -0.0134169 0
M  V30 35652 C 3524.72 2.04733 1.00795 0
M  V30 35653 C 3525.7 0.939873 1.32684 0
M  V30 35654 O 3526.89 1.20902 1.4462 0
M  V30 35655 C 3524.01 2.45622 2.33212 0
M  V30 35656 C 3523.06 3.67233 2.16892 0
M  V30 35657 S 3523.89 5.14573 1.48239 0
M  V30 35658 C 3525.05 5.58743 2.82058 0
M  V30 35659 H 3525.28 2.91045 0.606622 0
M  V30 35660 H 3522.81 1.53127 0.197838 0
M  V30 35661 H 3524.77 2.69846 3.09343 0
M  V30 35662 H 3523.43 1.59684 2.70481 0
M  V30 35663 H 3522.63 3.93638 3.14746 0
M  V30 35664 H 3522.23 3.4308 1.48904 0
M  V30 35665 H 3524.52 5.62023 3.78333 0
M  V30 35666 H 3525.46 6.58506 2.60337 0
M  V30 35667 H 3525.87 4.86343 2.86584 0
M  V30 35668 N 3525.27 -0.259531 1.55448 0
M  V30 35669 C 3526.23 -1.30441 1.88461 0
M  V30 35670 C 3527.23 -1.417 0.760121 0
M  V30 35671 O 3528.42 -1.40618 1.02821 0
M  V30 35672 C 3525.55 -2.68393 2.10185 0
M  V30 35673 H 3526.75 -1.02393 2.81879 0
M  V30 35674 H 3524.3 -0.498236 1.48146 0
M  V30 35675 H 3525.03 -3.01601 1.19194 0
M  V30 35676 H 3524.82 -2.61605 2.9207 0
M  V30 35677 H 3526.31 -3.43865 2.36953 0
M  V30 35678 N 3526.75 -1.48611 -0.524645 0
M  V30 35679 C 3527.66 -1.66223 -1.65551 0
M  V30 35680 C 3528.67 -0.544739 -1.65253 0
M  V30 35681 O 3529.85 -0.816487 -1.84107 0
M  V30 35682 C 3526.91 -1.70286 -3.02 0
M  V30 35683 C 3525.97 -2.93701 -3.13111 0
M  V30 35684 C 3525.21 -2.9756 -4.4305 0
M  V30 35685 O 3525.43 -2.09677 -5.30464 0
M  V30 35686 O 3524.36 -3.89787 -4.58639 0
M  V30 35687 H 3528.19 -2.61977 -1.53628 0
M  V30 35688 H 3525.78 -1.32075 -0.698331 0
M  V30 35689 H 3527.66 -1.75448 -3.8314 0
M  V30 35690 H 3526.33 -0.777057 -3.14235 0
M  V30 35691 H 3525.24 -2.94068 -2.31246 0
M  V30 35692 H 3526.57 -3.85683 -3.05794 0
M  V30 35693 N 3528.22 0.773926 -1.37289 0
M  V30 35694 C 3529.15 1.90111 -1.35573 0
M  V30 35695 C 3530.14 1.6861 -0.224688 0
M  V30 35696 O 3531.32 1.89499 -0.424709 0
M  V30 35697 C 3528.45 3.27363 -1.15977 0
M  V30 35698 C 3527.4 3.63424 -2.26069 0
M  V30 35699 C 3526.73 4.99193 -1.91599 0
M  V30 35700 C 3528.03 3.70399 -3.68242 0
M  V30 35701 H 3529.72 1.91804 -2.29894 0
M  V30 35702 H 3527.27 0.9214 -1.10663 0
M  V30 35703 H 3529.22 4.05853 -1.13407 0
M  V30 35704 H 3527.95 3.26098 -0.1811 0
M  V30 35705 H 3526.61 2.8724 -2.27791 0
M  V30 35706 H 3526.25 4.94465 -0.922673 0
M  V30 35707 H 3525.95 5.2429 -2.65319 0
M  V30 35708 H 3527.48 5.80086 -1.90612 0
M  V30 35709 H 3528.89 4.39045 -3.68662 0
M  V30 35710 H 3527.29 4.06991 -4.40997 0
M  V30 35711 H 3528.36 2.71115 -4.02026 0
M  V30 35712 N 3529.7 1.21823 0.99985 0
M  V30 35713 C 3530.67 0.983578 2.07023 0
M  V30 35714 C 3531.67 -0.0473729 1.6073 0
M  V30 35715 O 3532.86 0.190429 1.73156 0
M  V30 35716 C 3529.99 0.484258 3.37443 0
M  V30 35717 H 3531.18 1.93324 2.29273 0
M  V30 35718 H 3528.73 1.03594 1.17039 0
M  V30 35719 H 3529.47 -0.470081 3.20875 0
M  V30 35720 H 3529.25 1.22796 3.72376 0
M  V30 35721 H 3530.74 0.340113 4.16213 0
M  V30 35722 N 3531.18 -1.1956 1.0268 0
M  V30 35723 C 3532.14 -2.20921 0.610446 0
M  V30 35724 C 3533.14 -1.57485 -0.32483 0
M  V30 35725 O 3534.33 -1.73839 -0.112122 0
M  V30 35726 C 3531.47 -3.40732 -0.107055 0
M  V30 35727 H 3532.66 -2.59271 1.50727 0
M  V30 35728 H 3530.21 -1.33201 0.817748 0
M  V30 35729 H 3530.95 -3.07897 -1.01832 0
M  V30 35730 H 3530.73 -3.88008 0.564969 0
M  V30 35731 H 3532.22 -4.15818 -0.38535 0
M  V30 35732 N 3532.66 -0.804387 -1.35526 0
M  V30 35733 C 3533.61 -0.211227 -2.29831 0
M  V30 35734 C 3534.58 0.653476 -1.52705 0
M  V30 35735 O 3535.76 0.59902 -1.81153 0
M  V30 35736 C 3532.9 0.635995 -3.39189 0
M  V30 35737 C 3532.01 -0.2489 -4.31282 0
M  V30 35738 C 3531.15 0.606117 -5.27731 0
M  V30 35739 C 3530.19 -0.279312 -6.11462 0
M  V30 35740 N 3529.32 0.535549 -7.00054 0
M  V30 35741 H 3534.16 -1.02085 -2.79969 0
M  V30 35742 H 3531.7 -0.514955 -1.37792 0
M  V30 35743 H 3533.66 1.14234 -4.01256 0
M  V30 35744 H 3532.29 1.4109 -2.90333 0
M  V30 35745 H 3531.34 -0.873328 -3.70239 0
M  V30 35746 H 3532.65 -0.930503 -4.90044 0
M  V30 35747 H 3531.81 1.17768 -5.9516 0
M  V30 35748 H 3530.55 1.32129 -4.6946 0
M  V30 35749 H 3529.55 -0.863161 -5.42982 0
M  V30 35750 H 3530.78 -0.992318 -6.71811 0
M  V30 35751 H 3528.72 1.23474 -6.44275 0
M  V30 35752 H 3528.64 -0.0880542 -7.55949 0
M  V30 35753 H 3529.91 1.09046 -7.71835 0
M  V30 35754 N 3534.14 1.47403 -0.557697 0
M  V30 35755 C 3535.1 2.28498 0.179271 0
M  V30 35756 C 3536.1 1.36977 0.842257 0
M  V30 35757 O 3537.29 1.59603 0.698044 0
M  V30 35758 C 3534.42 3.16671 1.26224 0
M  V30 35759 H 3535.62 2.95124 -0.533085 0
M  V30 35760 H 3533.17 1.531 -0.314661 0
M  V30 35761 H 3533.9 2.54737 2.00698 0
M  V30 35762 H 3533.69 3.84025 0.791644 0
M  V30 35763 H 3535.18 3.77772 1.77984 0
M  V30 35764 N 3535.62 0.294175 1.5483 0
M  V30 35765 C 3537.03 -0.0594208 1.59489 0
M  V30 35766 C 3537.23 -1.52999 1.31124 0
M  V30 35767 O 3536.29 -2.28174 1.08133 0
M  V30 35768 C 3537.6 0.332376 2.98857 0
M  V30 35769 C 3539.15 0.280573 3.1174 0
M  V30 35770 C 3539.62 0.64709 4.53406 0
M  V30 35771 N 3541.11 0.599364 4.59306 0
M  V30 35772 C 3541.85 0.855519 5.66982 0
M  V30 35773 N 3541.35 1.17729 6.82724 0
M  V30 35774 N 3543.14 0.783038 5.56619 0
M  V30 35775 H 3535.29 1.25265 1.7153 0
M  V30 35776 H 3537.55 0.507382 0.800792 0
M  V30 35777 H 3537.26 1.35584 3.24515 0
M  V30 35778 H 3537.13 -0.317376 3.75862 0
M  V30 35779 H 3539.52 -0.733633 2.85835 0
M  V30 35780 H 3539.6 0.964852 2.36906 0
M  V30 35781 H 3539.24 1.65907 4.80039 0
M  V30 35782 H 3539.17 -0.059187 5.26567 0
M  V30 35783 H 3541.67 0.361325 3.76169 0
M  V30 35784 H 3541.98 1.3589 7.60759 0
M  V30 35785 H 3540.32 1.21525 6.84293 0
M  V30 35786 H 3543.51 0.531364 4.65074 0
M  V30 35787 H 3543.69 0.986041 6.40454 0
M  V30 35788 N 3537.09 -1.57585 0.0217743 0
M  V30 35789 C 3538 -2.13225 -0.97837 0
M  V30 35790 C 3539.02 -1.08271 -1.36211 0
M  V30 35791 O 3540.2 -1.4029 -1.44501 0
M  V30 35792 C 3537.26 -2.64234 -2.24458 0
M  V30 35793 C 3536.32 -3.83875 -1.92194 0
M  V30 35794 C 3535.55 -4.32441 -3.12778 0
M  V30 35795 O 3535.78 -3.80218 -4.25195 0
M  V30 35796 O 3534.71 -5.24367 -2.95505 0
M  V30 35797 H 3538.54 -2.98945 -0.535295 0
M  V30 35798 H 3536.12 -1.48077 -0.198388 0
M  V30 35799 H 3538 -2.97144 -2.98804 0
M  V30 35800 H 3536.68 -1.81601 -2.6796 0
M  V30 35801 H 3535.59 -3.55903 -1.15256 0
M  V30 35802 H 3536.92 -4.67648 -1.53513 0
M  V30 35803 N 3538.57 0.251283 -1.55584 0
M  V30 35804 C 3539.5 1.33383 -1.86391 0
M  V30 35805 C 3540.52 1.44503 -0.749854 0
M  V30 35806 O 3541.71 1.45931 -1.02793 0
M  V30 35807 C 3538.81 2.71289 -2.03114 0
M  V30 35808 C 3537.98 2.82492 -3.33942 0
M  V30 35809 C 3537.04 4.01213 -3.40462 0
M  V30 35810 O 3536.06 3.90947 -4.13702 0
M  V30 35811 N 3537.27 5.14183 -2.69436 0
M  V30 35812 H 3540.03 1.07293 -2.79836 0
M  V30 35813 H 3537.59 0.44139 -1.55767 0
M  V30 35814 H 3539.58 3.49041 -2.04823 0
M  V30 35815 H 3538.15 2.90107 -1.16434 0
M  V30 35816 H 3537.37 1.9145 -3.44587 0
M  V30 35817 H 3538.66 2.86923 -4.20181 0
M  V30 35818 H 3538.06 5.25415 -2.09656 0
M  V30 35819 H 3536.62 5.90086 -2.76842 0
M  V30 35820 N 3540.05 1.48887 0.516757 0
M  V30 35821 C 3540.98 1.58977 1.63712 0
M  V30 35822 C 3541.96 0.439541 1.56546 0
M  V30 35823 O 3543.14 0.652955 1.7683 0
M  V30 35824 C 3540.27 1.53008 3.02169 0
M  V30 35825 C 3539.32 2.73034 3.2765 0
M  V30 35826 S 3540.15 4.34874 3.12481 0
M  V30 35827 C 3541.31 4.31525 4.53362 0
M  V30 35828 H 3541.54 2.53755 1.54906 0
M  V30 35829 H 3539.07 1.37583 0.70073 0
M  V30 35830 H 3541.03 1.5025 3.82015 0
M  V30 35831 H 3539.69 0.595444 3.08404 0
M  V30 35832 H 3538.88 2.65033 4.28688 0
M  V30 35833 H 3538.49 2.73123 2.55499 0
M  V30 35834 H 3540.78 4.02273 5.45144 0
M  V30 35835 H 3541.72 5.32787 4.66415 0
M  V30 35836 H 3542.13 3.61812 4.33304 0
M  V30 35837 N 3541.53 -0.766635 1.37697 0
M  V30 35838 C 3542.75 -1.56091 1.36566 0
M  V30 35839 C 3543.18 -1.88045 -0.0455497 0
M  V30 35840 O 3542.54 -1.49611 -1.02402 0
M  V30 35841 C 3542.58 -2.84477 2.21597 0
M  V30 35842 O 3541.69 -3.79073 1.62411 0
M  V30 35843 H 3541.03 -0.472615 0.466402 0
M  V30 35844 H 3543.56 -0.948454 1.81288 0
M  V30 35845 H 3543.57 -3.3353 2.34993 0
M  V30 35846 H 3542.24 -2.60548 3.24172 0
M  V30 35847 H 3540.82 -3.37733 1.58084 0
M  V30 35848 N 3543.01 -1.22351 -0.993375 0
M  V30 35849 C 3543.97 -0.994543 -2.06498 0
M  V30 35850 C 3544.97 0.0388483 -1.60753 0
M  V30 35851 O 3546.16 -0.199609 -1.73053 0
M  V30 35852 C 3543.29 -0.502147 -3.37181 0
M  V30 35853 H 3544.48 -1.94537 -2.28244 0
M  V30 35854 H 3542.04 -1.04213 -1.16488 0
M  V30 35855 H 3542.77 0.453058 -3.2112 0
M  V30 35856 H 3542.56 -1.24769 -3.71719 0
M  V30 35857 H 3544.05 -0.362181 -4.16026 0
M  V30 35858 N 3544.48 1.19014 -1.03313 0
M  V30 35859 C 3545.45 2.20594 -0.622153 0
M  V30 35860 C 3546.45 1.57655 0.316474 0
M  V30 35861 O 3547.64 1.73896 0.102902 0
M  V30 35862 C 3544.77 3.40784 0.0889833 0
M  V30 35863 H 3545.96 2.58468 -1.52099 0
M  V30 35864 H 3543.51 1.32766 -0.8248 0
M  V30 35865 H 3544.25 3.08433 1.00198 0
M  V30 35866 H 3544.03 3.87703 -0.585538 0
M  V30 35867 H 3545.52 4.16017 0.363292 0
M  V30 35868 N 3545.96 0.811563 1.35098 0
M  V30 35869 C 3546.92 0.230987 2.28033 0
M  V30 35870 C 3547.92 -0.584548 1.49799 0
M  V30 35871 O 3549.11 -0.402307 1.69491 0
M  V30 35872 C 3546.25 -0.677428 3.34101 0
M  V30 35873 H 3547.44 1.05072 2.80891 0
M  V30 35874 H 3544.99 0.582579 1.45037 0
M  V30 35875 H 3545.73 -1.52065 2.86438 0
M  V30 35876 H 3545.51 -0.0942874 3.91987 0
M  V30 35877 H 3547 -1.0778 4.03452 0
M  V30 35878 N 3547.44 -1.47105 0.565506 0
M  V30 35879 C 3548.4 -2.2859 -0.167151 0
M  V30 35880 C 3549.4 -1.37422 -0.834981 0
M  V30 35881 O 3550.59 -1.59971 -0.68957 0
M  V30 35882 C 3547.72 -3.17336 -1.24543 0
M  V30 35883 H 3548.92 -2.94837 0.548729 0
M  V30 35884 H 3546.47 -1.52931 0.322776 0
M  V30 35885 H 3547.21 -2.55798 -1.99344 0
M  V30 35886 H 3546.99 -3.8444 -0.771267 0
M  V30 35887 H 3548.48 -3.7871 -1.75978 0
M  V30 35888 N 3548.92 -0.302382 -1.54672 0
M  V30 35889 C 3550.16 0.306943 -2.00464 0
M  V30 35890 C 3550.5 1.53433 -1.19046 0
M  V30 35891 O 3549.77 1.92655 -0.267289 0
M  V30 35892 C 3550.06 0.662166 -3.5396 0
M  V30 35893 C 3549.91 -0.574457 -4.46117 0
M  V30 35894 C 3551.23 1.48814 -4.14177 0
M  V30 35895 H 3548.35 0.11009 -0.728731 0
M  V30 35896 H 3550.99 -0.414754 -1.85418 0
M  V30 35897 H 3549.14 1.27704 -3.66912 0
M  V30 35898 H 3550.81 -1.21292 -4.45068 0
M  V30 35899 H 3549.05 -1.20743 -4.16658 0
M  V30 35900 H 3549.72 -0.281748 -5.5128 0
M  V30 35901 H 3552.2 0.968602 -4.04669 0
M  V30 35902 H 3551.08 1.70547 -5.21733 0
M  V30 35903 H 3551.34 2.47778 -3.6614 0
M  V30 35904 N 3550.4 1.57571 -0.0301311 0
M  V30 35905 C 3551.67 1.83138 0.686998 0
M  V30 35906 C 3552.05 0.914249 1.90275 0
M  V30 35907 O 3551.4 -0.0298956 2.2848 0
M  V30 35908 C 3551.61 3.32377 1.06426 0
M  V30 35909 C 3552.96 3.98875 1.45547 0
M  V30 35910 O 3553.98 3.36879 1.15721 0
M  V30 35911 O 3552.84 5.08145 2.01124 0
M  V30 35912 H 3549.94 0.755165 0.337127 0
M  V30 35913 H 3552.48 1.69601 -0.0578902 0
M  V30 35914 H 3551.25 3.90794 0.199008 0
M  V30 35915 H 3550.88 3.51025 1.86728 0
M  V30 35916 N 3551.87 -0.243029 1.55715 0
M  V30 35917 C 3552.78 -1.32237 1.93779 0
M  V30 35918 C 3553.8 -1.52451 0.838736 0
M  V30 35919 O 3554.98 -1.65998 1.14047 0
M  V30 35920 C 3552.04 -2.65623 2.22812 0
M  V30 35921 C 3551.1 -2.53898 3.46171 0
M  V30 35922 C 3550.34 -3.80923 3.73809 0
M  V30 35923 O 3550.56 -4.82979 3.03458 0
M  V30 35924 O 3549.49 -3.79323 4.6733 0
M  V30 35925 H 3553.32 -1.02946 2.8572 0
M  V30 35926 H 3550.9 -0.444109 1.42647 0
M  V30 35927 H 3552.79 -3.44438 2.42777 0
M  V30 35928 H 3551.46 -2.94639 1.3405 0
M  V30 35929 H 3550.37 -1.73356 3.31509 0
M  V30 35930 H 3551.7 -2.29826 4.35248 0
M  V30 35931 N 3553.35 -1.49159 -0.508854 0
M  V30 35932 C 3554.63 -1.48747 -1.27019 0
M  V30 35933 C 3555.01 -0.210809 -2.10045 0
M  V30 35934 O 3554.36 0.807023 -2.13774 0
M  V30 35935 C 3554.57 -2.76184 -2.13362 0
M  V30 35936 C 3555.92 -3.25362 -2.72809 0
M  V30 35937 O 3556.94 -2.77247 -2.23635 0
M  V30 35938 O 3555.8 -4.09139 -3.62308 0
M  V30 35939 H 3552.89 -0.594996 -0.574377 0
M  V30 35940 H 3555.44 -1.61415 -0.523769 0
M  V30 35941 H 3554.21 -3.60599 -1.51935 0
M  V30 35942 H 3553.83 -2.66339 -2.95211 0
M  V30 35943 N 3554.83 0.759322 -1.38102 0
M  V30 35944 C 3555.79 1.85458 -1.34677 0
M  V30 35945 C 3556.79 1.5887 -0.248379 0
M  V30 35946 O 3557.98 1.66721 -0.504944 0
M  V30 35947 C 3555.12 3.22826 -1.09526 0
M  V30 35948 H 3556.31 1.89904 -2.32113 0
M  V30 35949 H 3553.86 0.960413 -1.23312 0
M  V30 35950 H 3554.6 3.24052 -0.126721 0
M  V30 35951 H 3554.38 3.43519 -1.89043 0
M  V30 35952 H 3555.87 4.02904 -1.09811 0
M  V30 35953 N 3556.31 1.22876 0.986873 0
M  V30 35954 C 3557.22 1.02073 2.1123 0
M  V30 35955 C 3558.23 -0.0328118 1.73969 0
M  V30 35956 O 3559.41 0.161232 2.00754 0
M  V30 35957 C 3556.48 0.60753 3.41336 0
M  V30 35958 C 3555.54 1.73538 3.92662 0
M  V30 35959 C 3554.77 1.3418 5.16557 0
M  V30 35960 O 3554.99 0.223206 5.69963 0
M  V30 35961 O 3553.93 2.16051 5.61788 0
M  V30 35962 H 3557.75 1.96378 2.31667 0
M  V30 35963 H 3555.34 1.01524 1.09605 0
M  V30 35964 H 3557.22 0.387735 4.19612 0
M  V30 35965 H 3555.89 -0.306597 3.22245 0
M  V30 35966 H 3554.8 2.00975 3.15531 0
M  V30 35967 H 3556.13 2.62759 4.16196 0
M  V30 35968 N 3557.79 -1.18464 1.03942 0
M  V30 35969 C 3558.75 -2.20261 0.633843 0
M  V30 35970 C 3559.75 -1.57821 -0.308109 0
M  V30 35971 O 3560.94 -1.73948 -0.0936781 0
M  V30 35972 C 3558.07 -3.40826 -0.0709094 0
M  V30 35973 H 3559.26 -2.57658 1.53468 0
M  V30 35974 H 3556.82 -1.32326 0.83183 0
M  V30 35975 H 3557.55 -3.0896 -0.985605 0
M  V30 35976 H 3557.34 -3.87387 0.606091 0
M  V30 35977 H 3558.83 -4.16204 -0.341225 0
M  V30 35978 N 3559.26 -0.818716 -1.34665 0
M  V30 35979 C 3560.68 -0.464172 -1.80838 0
M  V30 35980 C 3561.03 1.01503 -1.67903 0
M  V30 35981 O 3560.15 1.78962 -1.21661 0
M  V30 35982 C 3560.75 -0.835756 -3.2833 0
M  V30 35983 C 3559.31 -0.533641 -3.72598 0
M  V30 35984 C 3558.45 -1.05491 -2.5645 0
M  V30 35985 H 3561.4 -1.00927 -1.22472 0
M  V30 35986 H 3561.42 -0.137917 -3.8025 0
M  V30 35987 H 3560.94 -1.91239 -3.37712 0
M  V30 35988 H 3559.04 0.533754 -3.68757 0
M  V30 35989 H 3559.15 -1.07476 -4.66889 0
M  V30 35990 H 3557.51 -0.476656 -2.502 0
M  V30 35991 H 3558.3 -2.13791 -2.68605 0
M  V30 35992 N 3560.74 1.46803 -0.573299 0
M  V30 35993 C 3561.99 2.02025 -0.0551877 0
M  V30 35994 C 3562.31 1.44828 1.30575 0
M  V30 35995 O 3561.58 0.629436 1.85513 0
M  V30 35996 H 3560.16 0.746797 -0.0174114 0
M  V30 35997 H 3562.82 1.80018 -0.746951 0
M  V30 35998 H 3561.92 3.12093 0.0208778 0
M  V30 35999 N 3562.22 0.31058 1.54509 0
M  V30 36000 C 3563.18 -0.54845 2.22541 0
M  V30 36001 C 3564.18 -1.05379 1.21458 0
M  V30 36002 O 3565.37 -0.948286 1.46127 0
M  V30 36003 C 3562.51 -1.76038 2.9193 0
M  V30 36004 H 3563.7 0.0460833 2.99865 0
M  V30 36005 H 3561.25 0.0615145 1.56179 0
M  V30 36006 H 3561.99 -2.3945 2.18711 0
M  V30 36007 H 3561.77 -1.40558 3.66041 0
M  V30 36008 H 3563.26 -2.37045 3.43801 0
M  V30 36009 N 3563.7 -1.57553 0.0384871 0
M  V30 36010 C 3564.95 -1.9136 -0.637499 0
M  V30 36011 C 3565.26 -0.91747 -1.72748 0
M  V30 36012 O 3566.47 -1.14713 -2.46076 0
M  V30 36013 C 3564.92 -3.39825 -1.1852 0
M  V30 36014 C 3564.53 -4.47817 -0.128007 0
M  V30 36015 C 3566.28 -3.82686 -1.83716 0
M  V30 36016 C 3564.18 -5.87386 -0.687875 0
M  V30 36017 H 3563.11 -0.714148 -0.241885 0
M  V30 36018 H 3565.76 -1.83198 0.105314 0
M  V30 36019 H 3564.15 -3.4295 -1.97992 0
M  V30 36020 H 3565.32 -4.56264 0.644945 0
M  V30 36021 H 3563.63 -4.14218 0.425745 0
M  V30 36022 H 3566.23 -4.84321 -2.26577 0
M  V30 36023 H 3566.57 -3.18249 -2.68371 0
M  V30 36024 H 3567.11 -3.82023 -1.10919 0
M  V30 36025 H 3563.85 -6.55389 0.120757 0
M  V30 36026 H 3563.37 -5.82526 -1.4291 0
M  V30 36027 H 3565.05 -6.36246 -1.17472 0
M  V30 36028 N 3565.18 0.234767 -1.55842 0
M  V30 36029 C 3566.14 1.27427 -1.90513 0
M  V30 36030 C 3567.14 1.40472 -0.782568 0
M  V30 36031 O 3568.33 1.38964 -1.05045 0
M  V30 36032 C 3565.46 2.65015 -2.14429 0
M  V30 36033 H 3566.66 0.978953 -2.83472 0
M  V30 36034 H 3564.21 0.474604 -1.4892 0
M  V30 36035 H 3564.94 2.99667 -1.23977 0
M  V30 36036 H 3564.73 2.56926 -2.96195 0
M  V30 36037 H 3566.22 3.40051 -2.42394 0
M  V30 36038 N 3566.66 1.49427 0.500936 0
M  V30 36039 C 3567.62 1.65584 1.58475 0
M  V30 36040 C 3568.62 0.527646 1.51896 0
M  V30 36041 O 3569.81 0.794099 1.55047 0
M  V30 36042 C 3566.94 1.65327 2.98127 0
M  V30 36043 H 3568.13 2.62252 1.45478 0
M  V30 36044 H 3565.69 1.38459 0.725175 0
M  V30 36045 H 3566.42 0.702439 3.16601 0
M  V30 36046 H 3566.21 2.4726 3.0431 0
M  V30 36047 H 3567.7 1.79884 3.7687 0
M  V30 36048 N 3568.13 -0.751987 1.38502 0
M  V30 36049 C 3569.06 -1.8793 1.3858 0
M  V30 36050 C 3570.04 -1.68231 0.251483 0
M  V30 36051 O 3571.23 -1.88799 0.454803 0
M  V30 36052 C 3568.36 -3.25477 1.2117 0
M  V30 36053 C 3567.31 -3.59781 2.31823 0
M  V30 36054 C 3566.64 -4.96082 1.99517 0
M  V30 36055 C 3567.94 -3.64493 3.74088 0
M  V30 36056 H 3569.63 -1.88123 2.32917 0
M  V30 36057 H 3567.18 -0.903678 1.12114 0
M  V30 36058 H 3569.13 -4.03998 1.19849 0
M  V30 36059 H 3567.86 -3.25768 0.232957 0
M  V30 36060 H 3566.52 -2.8358 2.32332 0
M  V30 36061 H 3566.16 -4.92935 1.00122 0
M  V30 36062 H 3565.86 -5.20002 2.73626 0
M  V30 36063 H 3567.39 -5.7698 1.99817 0
M  V30 36064 H 3568.8 -4.33125 3.75601 0
M  V30 36065 H 3567.2 -3.99924 4.47416 0
M  V30 36066 H 3568.27 -2.64685 4.06288 0
M  V30 36067 N 3569.61 -1.23398 -0.980343 0
M  V30 36068 C 3571.02 -1.06103 -1.5362 0
M  V30 36069 C 3571.37 0.371611 -1.92649 0
M  V30 36070 O 3570.5 1.25834 -1.76053 0
M  V30 36071 C 3571.09 -1.91984 -2.79155 0
M  V30 36072 C 3569.65 -1.78949 -3.31141 0
M  V30 36073 C 3568.8 -1.87684 -2.04132 0
M  V30 36074 H 3571.75 -1.3706 -0.800023 0
M  V30 36075 H 3571.77 -1.44466 -3.52008 0
M  V30 36076 H 3571.28 -2.96246 -2.50718 0
M  V30 36077 H 3569.38 -0.774698 -3.64457 0
M  V30 36078 H 3569.5 -2.62336 -4.00895 0
M  V30 36079 H 3567.86 -1.31266 -2.18269 0
M  V30 36080 H 3568.64 -2.93503 -1.78076 0
M  V30 36081 N 3571.09 1.17911 -1.04569 0
M  V30 36082 C 3572.31 1.92489 -0.772179 0
M  V30 36083 C 3572.74 1.75943 0.665266 0
M  V30 36084 O 3572.1 1.07294 1.46142 0
M  V30 36085 C 3572.15 3.4178 -1.14972 0
M  V30 36086 O 3571.25 4.11461 -0.278163 0
M  V30 36087 H 3570.59 0.60033 -0.283725 0
M  V30 36088 H 3573.12 1.49494 -1.39688 0
M  V30 36089 H 3573.13 3.92503 -1.1138 0
M  V30 36090 H 3571.81 3.53144 -2.19686 0
M  V30 36091 H 3570.38 3.71018 -0.374138 0
M  V30 36092 N 3572.57 0.825847 1.34229 0
M  V30 36093 C 3573.98 0.473755 1.80589 0
M  V30 36094 C 3574.33 -1.00611 1.68439 0
M  V30 36095 O 3573.45 -1.78315 1.22609 0
M  V30 36096 C 3574.05 0.853156 3.27882 0
M  V30 36097 C 3572.61 0.553393 3.7231 0
M  V30 36098 C 3571.76 1.0685 2.55887 0
M  V30 36099 H 3574.71 1.01575 1.21935 0
M  V30 36100 H 3574.73 0.158081 3.80171 0
M  V30 36101 H 3574.24 1.93027 3.36693 0
M  V30 36102 H 3572.34 -0.514191 3.69035 0
M  V30 36103 H 3572.45 1.0995 4.66313 0
M  V30 36104 H 3570.82 0.489918 2.49944 0
M  V30 36105 H 3571.6 2.15212 2.67467 0
M  V30 36106 N 3574.05 -1.46497 0.581077 0
M  V30 36107 C 3575.46 -1.86063 0.154065 0
M  V30 36108 C 3575.81 -1.48485 -1.28244 0
M  V30 36109 O 3574.93 -0.89898 -1.96843 0
M  V30 36110 C 3575.53 -3.377 0.272824 0
M  V30 36111 C 3574.09 -3.76269 -0.0993062 0
M  V30 36112 C 3573.23 -2.70518 0.609517 0
M  V30 36113 H 3576.18 -1.37674 0.789394 0
M  V30 36114 H 3576.21 -3.77171 -0.502259 0
M  V30 36115 H 3575.72 -3.65019 1.31843 0
M  V30 36116 H 3573.82 -3.54567 -1.14511 0
M  V30 36117 H 3573.93 -4.78305 0.275875 0
M  V30 36118 H 3572.3 -2.54651 0.0499531 0
M  V30 36119 H 3573.08 -3.00677 1.65674 0
M  V30 36120 N 3575.52 -0.31877 -1.54343 0
M  V30 36121 C 3576.94 0.0340399 -1.59564 0
M  V30 36122 C 3577.14 1.50894 -1.33541 0
M  V30 36123 O 3576.2 2.26425 -1.1175 0
M  V30 36124 C 3577.51 -0.379879 -2.98291 0
M  V30 36125 C 3579.06 -0.330132 -3.11254 0
M  V30 36126 C 3579.53 -0.719141 -4.52319 0
M  V30 36127 N 3581.02 -0.67236 -4.58294 0
M  V30 36128 C 3581.76 -0.945613 -5.65549 0
M  V30 36129 N 3581.25 -1.28575 -6.80764 0
M  V30 36130 N 3583.05 -0.871492 -5.55303 0
M  V30 36131 H 3575.2 -1.27978 -1.69515 0
M  V30 36132 H 3577.46 -0.520058 -0.792618 0
M  V30 36133 H 3577.17 -1.40729 -3.22317 0
M  V30 36134 H 3577.04 0.25754 -3.7632 0
M  V30 36135 H 3579.43 0.688066 -2.86966 0
M  V30 36136 H 3579.51 -1.00242 -2.35341 0
M  V30 36137 H 3579.15 -1.73523 -4.77339 0
M  V30 36138 H 3579.08 -0.0245926 -5.26594 0
M  V30 36139 H 3581.57 -0.421125 -3.75546 0
M  V30 36140 H 3581.89 -1.47976 -7.585 0
M  V30 36141 H 3580.23 -1.32397 -6.82273 0
M  V30 36142 H 3583.42 -0.605286 -4.6417 0
M  V30 36143 H 3583.6 -1.08781 -6.38804 0
M  V30 36144 N 3577 1.5753 -0.0468419 0
M  V30 36145 C 3578.25 1.92139 0.626665 0
M  V30 36146 C 3578.57 0.925493 1.71638 0
M  V30 36147 O 3577.84 -0.0303187 1.95877 0
M  V30 36148 H 3576.42 0.709249 0.234466 0
M  V30 36149 H 3579.08 1.94649 -0.0988234 0
M  V30 36150 H 3578.18 2.93256 1.06805 0
M  V30 36151 N 3578.48 -0.226499 1.55964 0
M  V30 36152 C 3579.73 -0.951619 1.78747 0
M  V30 36153 C 3580.06 -1.84529 0.614747 0
M  V30 36154 O 3579.31 -1.91545 -0.401103 0
M  V30 36155 C 3579.61 -1.82591 3.07238 0
M  V30 36156 C 3579.28 -1.08589 4.37629 0
M  V30 36157 C 3577.94 -0.881448 4.73058 0
M  V30 36158 C 3580.29 -0.562928 5.18151 0
M  V30 36159 C 3577.62 -0.142069 5.86528 0
M  V30 36160 C 3579.97 0.163084 6.3239 0
M  V30 36161 C 3578.63 0.378821 6.66424 0
M  V30 36162 H 3577.9 -0.348222 0.654081 0
M  V30 36163 H 3580.55 -0.220153 1.9023 0
M  V30 36164 H 3578.86 -2.62508 2.90855 0
M  V30 36165 H 3580.55 -2.38902 3.22067 0
M  V30 36166 H 3577.14 -1.2552 4.09808 0
M  V30 36167 H 3581.33 -0.70836 4.91219 0
M  V30 36168 H 3576.58 0.0353555 6.1139 0
M  V30 36169 H 3580.76 0.575841 6.94015 0
M  V30 36170 H 3578.38 0.953681 7.54194 0
M  V30 36171 N 3579.96 -1.4969 -0.493005 0
M  V30 36172 C 3581.19 -1.63302 -1.27044 0
M  V30 36173 C 3581.6 -0.307567 -1.86278 0
M  V30 36174 O 3580.96 0.707939 -1.6821 0
M  V30 36175 C 3581.01 -2.70784 -2.39496 0
M  V30 36176 O 3580.73 -3.98189 -1.82695 0
M  V30 36177 C 3582.23 -2.95172 -3.30739 0
M  V30 36178 H 3579.45 -0.549537 -0.385032 0
M  V30 36179 H 3582 -1.95775 -0.590964 0
M  V30 36180 H 3580.15 -2.41066 -3.03259 0
M  V30 36181 H 3580.56 -4.57457 -2.5658 0
M  V30 36182 H 3582.04 -3.74092 -4.05905 0
M  V30 36183 H 3582.52 -2.05394 -3.88214 0
M  V30 36184 H 3583.12 -3.26337 -2.72735 0
M  V30 36185 N 3581.44 0.744631 -1.38899 0
M  V30 36186 C 3582.85 1.32242 -1.31791 0
M  V30 36187 C 3583.2 1.96187 0.0221863 0
M  V30 36188 O 3582.32 1.95668 0.924294 0
M  V30 36189 C 3582.92 2.40454 -2.38678 0
M  V30 36190 C 3581.48 2.93931 -2.35121 0
M  V30 36191 C 3580.62 1.67399 -2.21072 0
M  V30 36192 H 3583.58 0.542844 -1.49127 0
M  V30 36193 H 3583.6 3.20612 -2.04911 0
M  V30 36194 H 3583.11 1.93884 -3.362 0
M  V30 36195 H 3581.21 3.44806 -1.41207 0
M  V30 36196 H 3581.32 3.477 -3.29608 0
M  V30 36197 H 3579.69 1.91369 -1.68078 0
M  V30 36198 H 3580.47 1.22895 -3.20549 0
M  V30 36199 N 3582.91 1.23916 0.973785 0
M  V30 36200 C 3583.88 1.02727 2.0489 0
M  V30 36201 C 3584.88 -0.013269 1.60795 0
M  V30 36202 O 3586.07 0.227115 1.72713 0
M  V30 36203 C 3583.2 0.555726 3.3634 0
M  V30 36204 H 3584.39 1.98143 2.25121 0
M  V30 36205 H 3581.95 1.06053 1.14815 0
M  V30 36206 H 3582.68 -0.401913 3.218 0
M  V30 36207 H 3582.47 1.30667 3.69687 0
M  V30 36208 H 3583.96 0.428321 4.15398 0
M  V30 36209 N 3584.39 -1.17355 1.05193 0
M  V30 36210 C 3585.8 -1.69249 0.788135 0
M  V30 36211 C 3586.15 -1.83678 -0.689685 0
M  V30 36212 O 3585.28 -1.52436 -1.53598 0
M  V30 36213 C 3585.87 -3.07418 1.42406 0
M  V30 36214 C 3584.43 -3.56478 1.20831 0
M  V30 36215 C 3583.58 -2.32738 1.5076 0
M  V30 36216 H 3586.53 -1.01872 1.21687 0
M  V30 36217 H 3586.55 -3.71262 0.83335 0
M  V30 36218 H 3586.06 -2.96884 2.49963 0
M  V30 36219 H 3584.17 -3.7229 0.151995 0
M  V30 36220 H 3584.28 -4.39239 1.91327 0
M  V30 36221 H 3582.64 -2.37205 0.92769 0
M  V30 36222 H 3583.43 -2.24812 2.5945 0
M  V30 36223 N 3585.87 -0.832954 -1.3379 0
M  V30 36224 C 3587.28 -0.483326 -1.80335 0
M  V30 36225 C 3587.63 0.997166 -1.68971 0
M  V30 36226 O 3586.76 1.77662 -1.23553 0
M  V30 36227 C 3587.35 -0.870533 -3.27425 0
M  V30 36228 C 3585.91 -0.57313 -3.72011 0
M  V30 36229 C 3585.06 -1.08206 -2.55317 0
M  V30 36230 H 3588.01 -1.0222 -1.21395 0
M  V30 36231 H 3588.03 -0.17824 -3.80082 0
M  V30 36232 H 3587.54 -1.9481 -3.35665 0
M  V30 36233 H 3585.64 0.494613 -3.69303 0
M  V30 36234 H 3585.76 -1.12422 -4.65723 0
M  V30 36235 H 3584.12 -0.503167 -2.4968 0
M  V30 36236 H 3584.9 -2.16627 -2.66322 0
M  V30 36237 N 3587.35 1.46186 -0.588837 0
M  V30 36238 C 3588.76 1.85979 -0.16393 0
M  V30 36239 C 3589.11 1.49163 1.27455 0
M  V30 36240 O 3588.24 0.909406 1.96364 0
M  V30 36241 C 3588.83 3.3755 -0.290729 0
M  V30 36242 C 3587.39 3.76316 0.0793504 0
M  V30 36243 C 3586.54 2.70191 -0.623855 0
M  V30 36244 H 3589.49 1.37254 -0.796684 0
M  V30 36245 H 3589.51 3.77432 0.48225 0
M  V30 36246 H 3589.02 3.64315 -1.33777 0
M  V30 36247 H 3587.12 3.5517 1.12629 0
M  V30 36248 H 3587.23 4.78152 -0.301237 0
M  V30 36249 H 3585.6 2.54621 -0.0634571 0
M  V30 36250 H 3586.38 2.99795 -1.67267 0
M  V30 36251 N 3588.83 0.32695 1.54171 0
M  V30 36252 C 3589.76 -0.571549 2.21959 0
M  V30 36253 C 3590.77 -1.07718 1.22069 0
M  V30 36254 O 3591.96 -0.990176 1.48519 0
M  V30 36255 C 3589.06 -1.79739 2.8731 0
M  V30 36256 C 3588.23 -1.42988 4.13368 0
M  V30 36257 C 3587.29 -2.51362 4.62281 0
M  V30 36258 O 3586.32 -2.15364 5.26884 0
M  V30 36259 N 3587.52 -3.82348 4.36796 0
M  V30 36260 H 3590.29 0.00891116 2.99699 0
M  V30 36261 H 3587.85 0.150307 1.61201 0
M  V30 36262 H 3589.84 -2.51639 3.16954 0
M  V30 36263 H 3588.41 -2.28562 2.13256 0
M  V30 36264 H 3587.63 -0.542375 3.90451 0
M  V30 36265 H 3588.92 -1.16008 4.95398 0
M  V30 36266 H 3588.31 -4.1439 3.85094 0
M  V30 36267 H 3586.87 -4.50467 4.71087 0
M  V30 36268 N 3590.3 -1.57503 0.0551955 0
M  V30 36269 C 3591.55 -1.93953 -0.612679 0
M  V30 36270 C 3591.91 -0.933919 -1.68213 0
M  V30 36271 O 3591.2 0.0463128 -1.91544 0
M  V30 36272 C 3591.39 -3.34869 -1.24889 0
M  V30 36273 C 3591.22 -4.49045 -0.242587 0
M  V30 36274 C 3589.99 -5.05024 0.166869 0
M  V30 36275 C 3592.19 -5.11729 0.513595 0
M  V30 36276 N 3590.17 -6.02733 1.16561 0
M  V30 36277 C 3591.54 -6.04781 1.3653 0
M  V30 36278 C 3593.6 -4.9461 0.571471 0
M  V30 36279 C 3592.3 -6.82552 2.26971 0
M  V30 36280 C 3594.33 -5.7301 1.46332 0
M  V30 36281 C 3593.69 -6.65698 2.30274 0
M  V30 36282 H 3589.79 -0.757112 -0.19572 0
M  V30 36283 H 3592.37 -1.94276 0.128466 0
M  V30 36284 H 3590.54 -3.35316 -1.96004 0
M  V30 36285 H 3592.27 -3.58598 -1.87589 0
M  V30 36286 H 3589.03 -4.73121 -0.212908 0
M  V30 36287 H 3589.45 -6.56282 1.662 0
M  V30 36288 H 3594.1 -4.22753 -0.0632921 0
M  V30 36289 H 3591.81 -7.53697 2.9149 0
M  V30 36290 H 3595.4 -5.6179 1.51272 0
M  V30 36291 H 3594.28 -7.25305 2.98165 0
M  V30 36292 N 3591.78 0.218225 -1.56082 0
M  V30 36293 C 3593.06 0.966655 -1.70045 0
M  V30 36294 C 3593.44 2.02292 -0.603407 0
M  V30 36295 O 3592.79 2.25163 0.389098 0
M  V30 36296 C 3593 1.57408 -3.11486 0
M  V30 36297 C 3594.35 2.06507 -3.70999 0
M  V30 36298 O 3595.37 1.67296 -3.14469 0
M  V30 36299 O 3594.23 2.78588 -4.70161 0
M  V30 36300 H 3591.32 0.451772 -0.692699 0
M  V30 36301 H 3593.87 0.209744 -1.68399 0
M  V30 36302 H 3592.64 0.811547 -3.82792 0
M  V30 36303 H 3592.26 2.39644 -3.17264 0
M  V30 36304 N 3593.26 1.4995 0.485059 0
M  V30 36305 C 3594.54 1.50749 1.24636 0
M  V30 36306 C 3594.92 0.244199 2.09683 0
M  V30 36307 O 3594.27 -0.772911 2.15031 0
M  V30 36308 C 3594.48 2.79544 2.08941 0
M  V30 36309 C 3595.82 3.29661 2.67598 0
M  V30 36310 O 3596.85 2.8077 2.19195 0
M  V30 36311 O 3595.71 4.14851 3.55753 0
M  V30 36312 H 3592.8 0.604058 0.564838 0
M  V30 36313 H 3595.35 1.62228 0.498023 0
M  V30 36314 H 3594.12 3.6297 1.46179 0
M  V30 36315 H 3593.74 2.71002 2.90936 0
M  V30 36316 N 3594.74 -0.737255 1.39292 0
M  V30 36317 C 3595.67 -1.8645 1.40565 0
M  V30 36318 C 3596.65 -1.67955 0.269312 0
M  V30 36319 O 3597.84 -1.88306 0.474802 0
M  V30 36320 C 3594.97 -3.24173 1.24615 0
M  V30 36321 C 3593.92 -3.57302 2.35625 0
M  V30 36322 C 3593.25 -4.93938 2.04767 0
M  V30 36323 C 3594.55 -3.60505 3.77933 0
M  V30 36324 H 3596.24 -1.85642 2.34899 0
M  V30 36325 H 3593.79 -0.891736 1.13067 0
M  V30 36326 H 3595.74 -4.02704 1.24128 0
M  V30 36327 H 3594.46 -3.25503 0.267496 0
M  V30 36328 H 3593.12 -2.811 2.35327 0
M  V30 36329 H 3592.77 -4.91845 1.05345 0
M  V30 36330 H 3592.47 -5.17071 2.79126 0
M  V30 36331 H 3593.99 -5.74828 2.05925 0
M  V30 36332 H 3595.41 -4.29117 3.80173 0
M  V30 36333 H 3593.8 -3.95156 4.51633 0
M  V30 36334 H 3594.87 -2.6036 4.09073 0
M  V30 36335 N 3596.22 -1.24431 -0.967199 0
M  V30 36336 C 3597.49 -0.992283 -1.68562 0
M  V30 36337 C 3597.87 0.485265 -2.05447 0
M  V30 36338 O 3597.22 1.45968 -1.758 0
M  V30 36339 C 3597.43 -1.91567 -2.91724 0
M  V30 36340 C 3598.78 -2.18685 -3.63953 0
M  V30 36341 O 3599.8 -1.89224 -3.01783 0
M  V30 36342 O 3598.66 -2.68719 -4.7587 0
M  V30 36343 H 3595.76 -0.375312 -0.736933 0
M  V30 36344 H 3598.3 -1.35531 -1.02124 0
M  V30 36345 H 3597.08 -2.91392 -2.61163 0
M  V30 36346 H 3596.7 -1.55584 -3.65895 0
M  V30 36347 N 3597.7 1.16795 -1.05814 0
M  V30 36348 C 3598.94 1.87486 -0.773099 0
M  V30 36349 C 3599.27 1.81206 0.69844 0
M  V30 36350 O 3598.55 1.22437 1.51127 0
M  V30 36351 C 3598.83 3.37256 -1.26216 0
M  V30 36352 C 3598.69 3.52253 -2.7971 0
M  V30 36353 C 3600 4.31492 -0.86618 0
M  V30 36354 H 3597.12 0.680784 -0.282316 0
M  V30 36355 H 3599.77 1.37311 -1.31322 0
M  V30 36356 H 3597.92 3.80118 -0.802675 0
M  V30 36357 H 3599.59 3.18364 -3.3383 0
M  V30 36358 H 3597.83 2.94324 -3.18679 0
M  V30 36359 H 3598.5 4.57414 -3.08993 0
M  V30 36360 H 3600.98 3.96505 -1.26185 0
M  V30 36361 H 3599.85 5.34805 -1.23591 0
M  V30 36362 H 3600.11 4.41505 0.229313 0
M  V30 36363 N 3599.17 0.840037 1.33346 0
M  V30 36364 C 3600.45 0.358192 1.92292 0
M  V30 36365 C 3600.83 -1.15659 1.76596 0
M  V30 36366 O 3600.18 -1.97156 1.15507 0
M  V30 36367 C 3600.39 0.806389 3.39556 0
M  V30 36368 C 3601.74 0.815083 4.16703 0
M  V30 36369 O 3602.76 0.750071 3.48213 0
M  V30 36370 O 3601.62 0.903913 5.38973 0
M  V30 36371 H 3598.71 0.101599 0.820735 0
M  V30 36372 H 3601.26 0.925967 1.42211 0
M  V30 36373 H 3600.03 1.84903 3.44858 0
M  V30 36374 H 3599.65 0.215251 3.97017 0
M  V30 36375 N 3600.65 -1.45872 0.596582 0
M  V30 36376 C 3602.06 -1.85889 0.17379 0
M  V30 36377 C 3602.41 -1.49837 -1.26662 0
M  V30 36378 O 3601.54 -0.919807 -1.95879 0
M  V30 36379 C 3602.13 -3.37391 0.308626 0
M  V30 36380 C 3600.69 -3.76353 -0.0593923 0
M  V30 36381 C 3599.84 -2.69857 0.638175 0
M  V30 36382 H 3602.79 -1.36829 0.803952 0
M  V30 36383 H 3602.81 -3.77682 -0.462227 0
M  V30 36384 H 3602.32 -3.636 1.35707 0
M  V30 36385 H 3600.42 -3.55762 -1.10744 0
M  V30 36386 H 3600.54 -4.77986 0.32659 0
M  V30 36387 H 3598.9 -2.54584 0.0769594 0
M  V30 36388 H 3599.68 -2.98903 1.68854 0
M  V30 36389 N 3602.13 -0.335122 -1.53996 0
M  V30 36390 C 3603.09 0.512976 -2.23386 0
M  V30 36391 C 3604.09 1.03433 -1.23119 0
M  V30 36392 O 3605.28 0.924918 -1.47617 0
M  V30 36393 C 3602.41 1.71372 -2.94694 0
M  V30 36394 H 3603.61 -0.0937833 -2.99753 0
M  V30 36395 H 3601.16 -0.0863534 -1.56061 0
M  V30 36396 H 3601.9 2.3594 -2.22492 0
M  V30 36397 H 3601.68 1.34717 -3.68231 0
M  V30 36398 H 3603.17 2.31546 -3.47529 0
M  V30 36399 N 3603.61 1.57472 -0.0635475 0
M  V30 36400 C 3604.88 1.84554 0.647997 0
M  V30 36401 C 3605.26 0.954404 1.88293 0
M  V30 36402 O 3604.61 0.0185752 2.28492 0
M  V30 36403 C 3604.82 3.3456 0.993515 0
M  V30 36404 C 3606.17 4.01873 1.37053 0
M  V30 36405 O 3607.19 3.39257 1.08549 0
M  V30 36406 O 3606.05 5.12297 1.903 0
M  V30 36407 H 3603.15 0.762146 0.321033 0
M  V30 36408 H 3605.69 1.6944 -0.0938521 0
M  V30 36409 H 3604.47 3.91128 0.11607 0
M  V30 36410 H 3604.09 3.54907 1.7924 0
M  V30 36411 N 3605.09 -0.209945 1.56195 0
M  V30 36412 C 3606.02 -1.26321 1.96381 0
M  V30 36413 C 3607 -1.48272 0.833632 0
M  V30 36414 O 3608.18 -1.6026 1.09683 0
M  V30 36415 C 3605.31 -2.6106 2.29053 0
M  V30 36416 C 3604.27 -2.53746 3.44669 0
M  V30 36417 C 3603.59 -3.92621 3.62977 0
M  V30 36418 C 3604.89 -2.07528 4.79301 0
M  V30 36419 H 3606.59 -0.929329 2.84612 0
M  V30 36420 H 3604.13 -0.445603 1.36932 0
M  V30 36421 H 3606.08 -3.34912 2.55758 0
M  V30 36422 H 3604.81 -2.96158 1.37688 0
M  V30 36423 H 3603.47 -1.82351 3.18031 0
M  V30 36424 H 3603.12 -4.25047 2.68968 0
M  V30 36425 H 3602.82 -3.88606 4.40748 0
M  V30 36426 H 3604.34 -4.68118 3.92043 0
M  V30 36427 H 3605.75 -2.7113 5.05135 0
M  V30 36428 H 3604.15 -2.14548 5.60437 0
M  V30 36429 H 3605.22 -1.02794 4.73879 0
M  V30 36430 N 3606.56 -1.50205 -0.4771 0
M  V30 36431 C 3607.81 -1.61132 -1.23144 0
M  V30 36432 C 3608.14 -0.307943 -1.91743 0
M  V30 36433 O 3607.42 0.690191 -1.81842 0
M  V30 36434 C 3607.7 -2.78742 -2.2798 0
M  V30 36435 C 3607.55 -4.18944 -1.63725 0
M  V30 36436 C 3608.87 -2.91926 -3.29344 0
M  V30 36437 H 3605.99 -0.586466 -0.446348 0
M  V30 36438 H 3608.63 -1.82571 -0.526088 0
M  V30 36439 H 3606.78 -2.60593 -2.88138 0
M  V30 36440 H 3608.46 -4.48669 -1.07211 0
M  V30 36441 H 3606.7 -4.23481 -0.940559 0
M  V30 36442 H 3607.37 -4.97154 -2.39879 0
M  V30 36443 H 3609.85 -3.08521 -2.79202 0
M  V30 36444 H 3608.72 -3.75852 -4.00033 0
M  V30 36445 H 3608.98 -2.02284 -3.93107 0
M  V30 36446 N 3608.04 0.729857 -1.39681 0
M  V30 36447 C 3609.29 1.49172 -1.37388 0
M  V30 36448 C 3609.62 1.94179 0.0285497 0
M  V30 36449 O 3608.9 1.67153 0.994487 0
M  V30 36450 C 3609.18 2.72781 -2.3508 0
M  V30 36451 C 3609.03 2.3376 -3.84286 0
M  V30 36452 C 3610.35 3.74897 -2.30522 0
M  V30 36453 H 3607.47 0.541111 -0.500368 0
M  V30 36454 H 3610.11 0.834122 -1.70711 0
M  V30 36455 H 3608.26 3.2889 -2.06793 0
M  V30 36456 H 3609.93 1.83243 -4.23344 0
M  V30 36457 H 3608.18 1.65928 -4.00812 0
M  V30 36458 H 3608.85 3.22301 -4.48136 0
M  V30 36459 H 3611.32 3.28384 -2.55544 0
M  V30 36460 H 3610.2 4.59045 -3.00947 0
M  V30 36461 H 3610.46 4.22184 -1.31198 0
M  V30 36462 N 3609.52 1.24942 0.960587 0
M  V30 36463 C 3610.77 1.08734 1.69882 0
M  V30 36464 C 3611.08 -0.372568 1.92019 0
M  V30 36465 O 3612.29 -0.654972 2.63481 0
M  V30 36466 C 3610.74 1.89755 3.05812 0
M  V30 36467 C 3610.35 3.40201 2.91492 0
M  V30 36468 C 3612.1 1.82099 3.83458 0
M  V30 36469 C 3610 4.13539 4.22776 0
M  V30 36470 H 3608.93 0.403292 0.63708 0
M  V30 36471 H 3611.58 1.49086 1.06984 0
M  V30 36472 H 3609.97 1.42223 3.69579 0
M  V30 36473 H 3611.14 3.95364 2.36693 0
M  V30 36474 H 3609.46 3.48886 2.27305 0
M  V30 36475 H 3612.05 2.3419 4.80686 0
M  V30 36476 H 3612.4 0.787669 4.0878 0
M  V30 36477 H 3612.93 2.2735 3.26431 0
M  V30 36478 H 3609.67 5.1726 4.02644 0
M  V30 36479 H 3609.19 3.6316 4.77362 0
M  V30 36480 H 3610.87 4.20929 4.91353 0
M  V30 36481 N 3611 -1.16233 1.06432 0
M  V30 36482 C 3612.24 -1.87073 0.783031 0
M  V30 36483 C 3612.58 -1.81573 -0.68882 0
M  V30 36484 O 3611.85 -1.23237 -1.50476 0
M  V30 36485 C 3612.14 -3.36582 1.28003 0
M  V30 36486 C 3611.99 -3.50765 2.81574 0
M  V30 36487 C 3613.31 -4.31027 0.889051 0
M  V30 36488 H 3610.43 -0.679277 0.285922 0
M  V30 36489 H 3613.07 -1.36613 1.32049 0
M  V30 36490 H 3611.22 -3.79687 0.822822 0
M  V30 36491 H 3612.89 -3.16589 3.35513 0
M  V30 36492 H 3611.13 -2.9263 3.20235 0
M  V30 36493 H 3611.8 -4.55769 3.11414 0
M  V30 36494 H 3614.28 -3.95831 1.28286 0
M  V30 36495 H 3613.16 -5.34142 1.26425 0
M  V30 36496 H 3613.42 -4.4162 -0.205896 0
M  V30 36497 N 3612.48 -0.847097 -1.32899 0
M  V30 36498 C 3613.72 -0.445907 -1.97119 0
M  V30 36499 C 3614.05 1.00011 -1.674 0
M  V30 36500 O 3613.32 1.69785 -0.977234 0
M  V30 36501 H 3611.9 -0.1619 -0.729244 0
M  V30 36502 H 3614.56 -1.08186 -1.62116 0
M  V30 36503 H 3613.65 -0.58473 -3.06574 0
M  V30 36504 N 3613.95 1.45554 -0.604309 0
M  V30 36505 C 3615.2 2.01862 -0.0980277 0
M  V30 36506 C 3615.52 1.47565 1.27473 0
M  V30 36507 O 3614.79 0.668644 1.84136 0
M  V30 36508 H 3613.37 0.74626 -0.0332481 0
M  V30 36509 H 3616.04 1.78394 -0.784967 0
M  V30 36510 H 3615.13 3.12067 -0.0453265 0
M  V30 36511 N 3615.43 0.343284 1.53816 0
M  V30 36512 C 3616.4 -0.501122 2.23655 0
M  V30 36513 C 3617.4 -1.02779 1.23666 0
M  V30 36514 O 3618.59 -0.917077 1.48106 0
M  V30 36515 C 3615.72 -1.69806 2.95599 0
M  V30 36516 H 3616.91 0.109679 2.99699 0
M  V30 36517 H 3614.46 0.0946285 1.56013 0
M  V30 36518 H 3615.2 -2.34757 2.23741 0
M  V30 36519 H 3614.98 -1.32762 3.6894 0
M  V30 36520 H 3616.47 -2.29699 3.48752 0
M  V30 36521 N 3616.91 -1.57436 0.0718977 0
M  V30 36522 C 3617.82 -2.1623 -0.910039 0
M  V30 36523 C 3618.84 -1.1255 -1.32697 0
M  V30 36524 O 3620.01 -1.44816 -1.39965 0
M  V30 36525 C 3617.08 -2.71241 -2.15938 0
M  V30 36526 C 3616.14 -3.89795 -1.79885 0
M  V30 36527 C 3615.37 -4.42173 -2.98862 0
M  V30 36528 O 3615.59 -3.93553 -4.12883 0
M  V30 36529 O 3614.53 -5.33503 -2.78673 0
M  V30 36530 H 3618.35 -3.00497 -0.439917 0
M  V30 36531 H 3615.94 -1.48633 -0.151178 0
M  V30 36532 H 3617.82 -3.065 -2.89199 0
M  V30 36533 H 3616.5 -1.90034 -2.62047 0
M  V30 36534 H 3615.4 -3.5939 -1.03875 0
M  V30 36535 H 3616.74 -4.72295 -1.38558 0
M  V30 36536 N 3618.39 0.201658 -1.56305 0
M  V30 36537 C 3619.64 0.921209 -1.79434 0
M  V30 36538 C 3619.95 1.84695 -0.643976 0
M  V30 36539 O 3621.16 2.60663 -0.759404 0
M  V30 36540 C 3619.61 1.68841 -3.17838 0
M  V30 36541 C 3619.22 0.807815 -4.40657 0
M  V30 36542 C 3620.96 2.39798 -3.50281 0
M  V30 36543 C 3618.87 1.5735 -5.70083 0
M  V30 36544 H 3617.8 0.347718 -0.669035 0
M  V30 36545 H 3620.45 0.174625 -1.82667 0
M  V30 36546 H 3618.83 2.47863 -3.08836 0
M  V30 36547 H 3620.01 0.0567113 -4.60765 0
M  V30 36548 H 3618.32 0.209392 -4.15873 0
M  V30 36549 H 3620.92 2.97623 -4.44212 0
M  V30 36550 H 3621.26 3.13665 -2.73715 0
M  V30 36551 H 3621.8 1.67748 -3.60701 0
M  V30 36552 H 3618.54 0.877741 -6.49597 0
M  V30 36553 H 3618.06 2.29871 -5.54003 0
M  V30 36554 H 3619.73 2.12902 -6.10968 0
M  V30 36555 N 3619.87 1.50456 0.469128 0
M  V30 36556 C 3621.11 1.61224 1.21865 0
M  V30 36557 C 3621.44 0.315569 1.9243 0
M  V30 36558 O 3620.71 -0.667051 1.84193 0
M  V30 36559 H 3619.29 0.594109 0.452818 0
M  V30 36560 H 3621.95 1.87242 0.54096 0
M  V30 36561 H 3621.04 2.42435 1.9655 0
M  V30 36562 N 3621.34 -0.722439 1.40066 0
M  V30 36563 C 3622.76 -1.30128 1.33879 0
M  V30 36564 C 3623.11 -1.96198 0.00902818 0
M  V30 36565 O 3622.23 -1.97113 -0.893048 0
M  V30 36566 C 3622.83 -2.36626 2.42473 0
M  V30 36567 C 3621.39 -2.90153 2.39767 0
M  V30 36568 C 3620.53 -1.63861 2.23707 0
M  V30 36569 H 3623.48 -0.51905 1.49972 0
M  V30 36570 H 3623.5 -3.17311 2.09985 0
M  V30 36571 H 3623.02 -1.88511 3.39242 0
M  V30 36572 H 3621.12 -3.42516 1.46675 0
M  V30 36573 H 3621.23 -3.42413 3.35098 0
M  V30 36574 H 3619.59 -1.88671 1.71101 0
M  V30 36575 H 3620.38 -1.1778 3.22464 0
M  V30 36576 N 3622.82 -1.2545 -0.953947 0
M  V30 36577 C 3624.05 -1.12817 -1.73078 0
M  V30 36578 C 3624.46 0.320731 -1.86462 0
M  V30 36579 O 3623.8 1.23233 -1.36232 0
M  V30 36580 C 3623.87 -1.70982 -3.16236 0
M  V30 36581 C 3623.53 -3.19985 -3.2628 0
M  V30 36582 C 3624.53 -4.16967 -3.1054 0
M  V30 36583 C 3622.21 -3.60208 -3.50079 0
M  V30 36584 C 3624.21 -5.52151 -3.18446 0
M  V30 36585 C 3621.89 -4.9553 -3.57622 0
M  V30 36586 C 3622.89 -5.91311 -3.41819 0
M  V30 36587 O 3622.58 -7.2417 -3.49045 0
M  V30 36588 H 3622.31 -0.394241 -0.549136 0
M  V30 36589 H 3624.87 -1.66314 -1.20535 0
M  V30 36590 H 3623.1 -1.11932 -3.70146 0
M  V30 36591 H 3624.78 -1.53439 -3.75781 0
M  V30 36592 H 3625.55 -3.87231 -2.92022 0
M  V30 36593 H 3621.43 -2.86151 -3.6144 0
M  V30 36594 H 3624.97 -6.26891 -3.06029 0
M  V30 36595 H 3620.87 -5.24931 -3.75656 0
M  V30 36596 H 3621.64 -7.32275 -3.65672 0
M  V30 36597 N 3624.3 1.15667 -1.07047 0
M  V30 36598 C 3625.55 1.86011 -0.790204 0
M  V30 36599 C 3625.87 1.82549 0.685631 0
M  V30 36600 O 3625.14 1.26428 1.49642 0
M  V30 36601 H 3623.72 0.688696 -0.289322 0
M  V30 36602 H 3626.38 1.40231 -1.35357 0
M  V30 36603 H 3625.48 2.91237 -1.12195 0
M  V30 36604 N 3625.78 0.854133 1.32447 0
M  V30 36605 C 3627 0.470342 2.01996 0
M  V30 36606 C 3627.43 -0.925196 1.63773 0
M  V30 36607 O 3626.79 -1.60765 0.838117 0
M  V30 36608 C 3626.84 0.616363 3.55293 0
M  V30 36609 O 3625.94 -0.351061 4.10903 0
M  V30 36610 H 3625.28 0.18909 0.636507 0
M  V30 36611 H 3627.81 1.15318 1.69006 0
M  V30 36612 H 3627.82 0.503695 4.04879 0
M  V30 36613 H 3626.5 1.63402 3.82456 0
M  V30 36614 H 3625.07 -0.194675 3.72391 0
M  V30 36615 N 3627.26 -1.45231 0.61202 0
M  V30 36616 C 3628.48 -2.07088 0.113654 0
M  V30 36617 C 3628.91 -1.4529 -1.19467 0
M  V30 36618 O 3628.27 -0.547238 -1.72844 0
M  V30 36619 C 3628.31 -3.60599 -0.0078364 0
M  V30 36620 O 3627.42 -3.98627 -1.0569 0
M  V30 36621 H 3626.76 -0.659627 0.0760776 0
M  V30 36622 H 3629.29 -1.86413 0.843286 0
M  V30 36623 H 3629.3 -4.07487 -0.204621 0
M  V30 36624 H 3627.97 -4.04964 0.947457 0
M  V30 36625 H 3626.55 -3.63403 -0.836227 0
M  V30 36626 N 3628.74 -0.351436 -1.53632 0
M  V30 36627 C 3630.15 0.000186461 -1.596 0
M  V30 36628 C 3630.35 1.48027 -1.36712 0
M  V30 36629 O 3629.41 2.24004 -1.16527 0
M  V30 36630 C 3630.72 -0.443066 -2.97418 0
M  V30 36631 C 3632.27 -0.39608 -3.10484 0
M  V30 36632 C 3632.74 -0.814922 -4.50692 0
M  V30 36633 N 3634.23 -0.76942 -4.56765 0
M  V30 36634 C 3634.97 -1.06536 -5.63416 0
M  V30 36635 N 3634.47 -1.42986 -6.77884 0
M  V30 36636 N 3636.26 -0.989084 -5.5333 0
M  V30 36637 H 3628.41 -1.31545 -1.66763 0
M  V30 36638 H 3630.67 -0.536754 -0.781409 0
M  V30 36639 H 3630.38 -1.47535 -3.19259 0
M  V30 36640 H 3630.25 0.177659 -3.76781 0
M  V30 36641 H 3632.64 0.627042 -2.88361 0
M  V30 36642 H 3632.72 -1.05211 -2.33161 0
M  V30 36643 H 3632.36 -1.83609 -4.73551 0
M  V30 36644 H 3632.29 -0.136286 -5.26424 0
M  V30 36645 H 3634.79 -0.500689 -3.74568 0
M  V30 36646 H 3635.1 -1.64032 -7.55191 0
M  V30 36647 H 3633.44 -1.46839 -6.79311 0
M  V30 36648 H 3636.63 -0.703607 -4.62782 0
M  V30 36649 H 3636.81 -1.22306 -6.36353 0
M  V30 36650 N 3630.21 1.57396 -0.0802459 0
M  V30 36651 C 3631.44 1.98138 0.595719 0
M  V30 36652 C 3631.86 0.9589 1.62636 0
M  V30 36653 O 3631.21 -0.0533995 1.82422 0
M  V30 36654 C 3631.26 3.38952 1.25674 0
M  V30 36655 O 3630.99 4.37284 0.26734 0
M  V30 36656 C 3632.49 3.94616 2.01973 0
M  V30 36657 H 3629.71 0.651438 0.160841 0
M  V30 36658 H 3632.25 2.03911 -0.155147 0
M  V30 36659 H 3630.41 3.3424 1.95864 0
M  V30 36660 H 3630.82 5.19216 0.742604 0
M  V30 36661 H 3632.29 4.95339 2.43604 0
M  V30 36662 H 3632.77 3.3162 2.87967 0
M  V30 36663 H 3633.38 4.02755 1.36632 0
M  V30 36664 N 3631.69 -0.193366 1.56409 0
M  V30 36665 C 3633.11 -0.544272 1.50033 0
M  V30 36666 C 3633.31 -1.85767 0.780578 0
M  V30 36667 O 3632.36 -2.5031 0.331813 0
M  V30 36668 C 3633.68 -0.597411 2.94706 0
M  V30 36669 C 3635.22 -0.686126 3.05387 0
M  V30 36670 C 3635.7 -0.77036 4.51475 0
M  V30 36671 N 3637.19 -0.833841 4.55633 0
M  V30 36672 C 3637.93 -0.919215 5.65984 0
M  V30 36673 N 3637.42 -0.966783 6.86021 0
M  V30 36674 N 3639.21 -0.956537 5.53901 0
M  V30 36675 H 3631.37 0.668131 2.01618 0
M  V30 36676 H 3633.63 0.238207 0.917584 0
M  V30 36677 H 3633.33 0.298571 3.5043 0
M  V30 36678 H 3633.21 -1.45151 3.48154 0
M  V30 36679 H 3635.6 -1.57254 2.4971 0
M  V30 36680 H 3635.68 0.19421 2.55062 0
M  V30 36681 H 3635.32 0.111708 5.07777 0
M  V30 36682 H 3635.25 -1.66652 4.99534 0
M  V30 36683 H 3637.74 -0.806255 3.69199 0
M  V30 36684 H 3638.05 -1.03249 7.65872 0
M  V30 36685 H 3636.4 -0.935431 6.88676 0
M  V30 36686 H 3639.59 -0.916223 4.59046 0
M  V30 36687 H 3639.76 -1.01961 6.39928 0
M  V30 36688 N 3633.17 -1.50702 -0.461142 0
M  V30 36689 C 3634.42 -1.62189 -1.21248 0
M  V30 36690 C 3634.74 -0.326852 -1.91734 0
M  V30 36691 O 3634 0.687846 -1.83213 0
M  V30 36692 C 3634.3 -2.75883 -2.27208 0
M  V30 36693 C 3633.96 -4.16015 -1.73904 0
M  V30 36694 C 3632.63 -4.54141 -1.59089 0
M  V30 36695 C 3634.98 -5.03555 -1.34468 0
M  V30 36696 C 3632.31 -5.77539 -1.03274 0
M  V30 36697 C 3634.66 -6.27509 -0.800917 0
M  V30 36698 C 3633.32 -6.6443 -0.63947 0
M  V30 36699 H 3632.59 -0.59349 -0.443679 0
M  V30 36700 H 3635.24 -1.84667 -0.507002 0
M  V30 36701 H 3633.54 -2.47532 -3.03703 0
M  V30 36702 H 3635.24 -2.81972 -2.85119 0
M  V30 36703 H 3631.83 -3.85941 -1.86406 0
M  V30 36704 H 3636.02 -4.74724 -1.44744 0
M  V30 36705 H 3631.27 -6.04811 -0.895209 0
M  V30 36706 H 3635.45 -6.94697 -0.48672 0
M  V30 36707 H 3633.07 -7.59924 -0.204833 0
M  V30 36708 N 3634.65 0.715001 -1.40447 0
M  V30 36709 C 3635.56 1.8592 -1.43077 0
M  V30 36710 C 3636.57 1.7097 -0.323324 0
M  V30 36711 O 3637.75 1.93225 -0.568 0
M  V30 36712 C 3634.81 3.21722 -1.29211 0
M  V30 36713 C 3633.88 3.48922 -2.50103 0
M  V30 36714 C 3633.11 4.78246 -2.3689 0
M  V30 36715 O 3633.33 5.53379 -1.38301 0
M  V30 36716 O 3632.27 5.05795 -3.26275 0
M  V30 36717 H 3636.09 1.86657 -2.39568 0
M  V30 36718 H 3633.68 0.865501 -1.21776 0
M  V30 36719 H 3635.56 4.02839 -1.23688 0
M  V30 36720 H 3634.23 3.21711 -0.358263 0
M  V30 36721 H 3633.14 2.67813 -2.61203 0
M  V30 36722 H 3634.47 3.53731 -3.42251 0
M  V30 36723 N 3636.13 1.25954 0.947281 0
M  V30 36724 C 3637.06 1.01301 2.04483 0
M  V30 36725 C 3638.04 -0.0602114 1.62488 0
M  V30 36726 O 3639.22 0.0809568 1.88326 0
M  V30 36727 C 3636.35 0.532792 3.34483 0
M  V30 36728 C 3635.39 1.59765 3.95446 0
M  V30 36729 S 3636.23 3.18491 4.30492 0
M  V30 36730 C 3637.38 2.72223 5.636 0
M  V30 36731 H 3637.62 1.94232 2.25081 0
M  V30 36732 H 3635.15 1.09566 1.08788 0
M  V30 36733 H 3637.11 0.262381 4.09661 0
M  V30 36734 H 3635.77 -0.376137 3.1184 0
M  V30 36735 H 3634.96 1.21251 4.89197 0
M  V30 36736 H 3634.56 1.81912 3.26778 0
M  V30 36737 H 3636.85 2.16307 6.42042 0
M  V30 36738 H 3637.8 3.64643 6.06993 0
M  V30 36739 H 3638.21 2.11983 5.23186 0
M  V30 36740 N 3637.6 -1.15097 1.07659 0
M  V30 36741 C 3638.51 -2.23559 0.711237 0
M  V30 36742 C 3639.53 -1.7175 -0.278901 0
M  V30 36743 O 3640.71 -2.01013 -0.124753 0
M  V30 36744 C 3637.77 -3.46499 0.117916 0
M  V30 36745 C 3636.83 -4.13283 1.16169 0
M  V30 36746 C 3636.07 -5.30355 0.596588 0
M  V30 36747 O 3636.29 -5.67378 -0.586375 0
M  V30 36748 O 3635.22 -5.86726 1.34298 0
M  V30 36749 H 3639.05 -2.57147 1.61583 0
M  V30 36750 H 3636.63 -1.2288 0.849752 0
M  V30 36751 H 3638.52 -4.20874 -0.210539 0
M  V30 36752 H 3637.19 -3.14653 -0.759952 0
M  V30 36753 H 3636.1 -3.40817 1.54255 0
M  V30 36754 H 3637.43 -4.49218 2.01157 0
M  V30 36755 N 3639.08 -0.861145 -1.31993 0
M  V30 36756 C 3640.33 -0.468406 -1.97316 0
M  V30 36757 C 3640.66 0.974912 -1.67956 0
M  V30 36758 O 3639.94 1.68513 -0.971272 0
M  V30 36759 C 3640.22 -0.715669 -3.52917 0
M  V30 36760 C 3640.07 -2.20788 -3.91884 0
M  V30 36761 C 3641.39 -0.176318 -4.39747 0
M  V30 36762 H 3638.51 -0.171658 -0.71673 0
M  V30 36763 H 3641.15 -1.08076 -1.56267 0
M  V30 36764 H 3639.3 -0.194455 -3.88013 0
M  V30 36765 H 3640.97 -2.79567 -3.66933 0
M  V30 36766 H 3639.22 -2.68388 -3.40809 0
M  V30 36767 H 3639.89 -2.33156 -5.00342 0
M  V30 36768 H 3642.36 -0.622116 -4.11423 0
M  V30 36769 H 3641.24 -0.378845 -5.47591 0
M  V30 36770 H 3641.5 0.921282 -4.32394 0
M  V30 36771 N 3640.56 1.44905 -0.619713 0
M  V30 36772 C 3641.47 2.34414 0.09351 0
M  V30 36773 C 3642.49 1.51953 0.847712 0
M  V30 36774 O 3643.66 1.84719 0.802559 0
M  V30 36775 C 3640.73 3.29762 1.07041 0
M  V30 36776 C 3639.79 4.28129 0.316835 0
M  V30 36777 C 3639.02 5.18923 1.2472 0
M  V30 36778 O 3639.24 5.13399 2.48551 0
M  V30 36779 O 3638.18 5.97362 0.737694 0
M  V30 36780 H 3642 2.96828 -0.642387 0
M  V30 36781 H 3639.59 1.44488 -0.379933 0
M  V30 36782 H 3641.47 3.88484 1.63274 0
M  V30 36783 H 3640.15 2.69896 1.78712 0
M  V30 36784 H 3639.05 3.72988 -0.288258 0
M  V30 36785 H 3640.39 4.90884 -0.359626 0
M  V30 36786 N 3642.04 0.359579 1.53443 0
M  V30 36787 C 3642.99 -0.504909 2.27054 0
M  V30 36788 C 3643.98 -1.08847 1.29803 0
M  V30 36789 O 3645.19 -1.03236 1.47453 0
M  V30 36790 H 3641.56 -0.181537 0.729759 0
M  V30 36791 H 3643.53 0.137771 2.98082 0
M  V30 36792 C 3642.28 -1.63579 3.06818 0
M  V30 36793 H 3641.6 -1.19605 3.8149 0
M  V30 36794 H 3643.04 -2.21552 3.61512 0
M  V30 36795 C 3641.5 -2.57462 2.1729 0
M  V30 36796 O 3642.03 -3.60126 1.77968 0
M  V30 36797 N 3640.24 -2.26513 1.82045 0
M  V30 36798 H 3639.79 -1.43065 2.1422 0
M  V30 36799 H 3639.74 -2.89584 1.22428 0
M  V30 36800 N 3643.52 -1.57351 0.0885919 0
M  V30 36801 C 3644.43 -2.17183 -0.887053 0
M  V30 36802 C 3645.44 -1.13951 -1.31496 0
M  V30 36803 O 3646.62 -1.46293 -1.38421 0
M  V30 36804 C 3643.68 -2.73516 -2.13049 0
M  V30 36805 C 3642.74 -3.91681 -1.7574 0
M  V30 36806 C 3641.98 -4.45318 -2.94156 0
M  V30 36807 O 3642.2 -3.9791 -4.08686 0
M  V30 36808 O 3641.13 -5.36428 -2.72999 0
M  V30 36809 H 3644.96 -3.00947 -0.40802 0
M  V30 36810 H 3642.55 -1.48785 -0.135405 0
M  V30 36811 H 3644.43 -3.0955 -2.85932 0
M  V30 36812 H 3643.1 -1.92803 -2.60017 0
M  V30 36813 H 3642.01 -3.60471 -1.00057 0
M  V30 36814 H 3643.34 -4.73738 -1.3354 0
M  V30 36815 N 3644.99 0.185069 -1.5651 0
M  V30 36816 C 3645.92 1.2318 -1.98365 0
M  V30 36817 C 3646.91 1.46927 -0.857115 0
M  V30 36818 O 3648.09 1.58495 -1.12219 0
M  V30 36819 C 3645.22 2.57383 -2.33177 0
M  V30 36820 C 3644.17 2.4823 -3.48663 0
M  V30 36821 C 3643.5 3.86797 -3.69178 0
M  V30 36822 C 3644.8 1.99876 -4.82542 0
M  V30 36823 H 3646.49 0.883932 -2.86054 0
M  V30 36824 H 3644.04 0.423762 -1.37624 0
M  V30 36825 H 3645.99 3.308 -2.61054 0
M  V30 36826 H 3644.72 2.9393 -1.42382 0
M  V30 36827 H 3643.38 1.77268 -3.20892 0
M  V30 36828 H 3643.02 4.20714 -2.75696 0
M  V30 36829 H 3642.72 3.81545 -4.46875 0
M  V30 36830 H 3644.25 4.61822 -3.99441 0
M  V30 36831 H 3645.66 2.63059 -5.09385 0
M  V30 36832 H 3644.06 2.05604 -5.63779 0
M  V30 36833 H 3645.13 0.952419 -4.75455 0
M  V30 36834 N 3646.47 1.50945 0.453144 0
M  V30 36835 C 3647.7 1.66893 1.23133 0
M  V30 36836 C 3648.12 0.359217 1.84638 0
M  V30 36837 O 3647.48 -0.678953 1.68107 0
M  V30 36838 C 3647.53 2.77503 2.3027 0
M  V30 36839 O 3646.63 2.40005 3.35367 0
M  V30 36840 H 3645.97 0.556991 0.361465 0
M  V30 36841 H 3648.5 1.97423 0.537139 0
M  V30 36842 H 3648.51 3.01118 2.75304 0
M  V30 36843 H 3647.19 3.72549 1.84878 0
M  V30 36844 H 3645.77 2.26905 2.9592 0
M  V30 36845 N 3647.95 -0.707543 1.40825 0
M  V30 36846 C 3648.91 -1.80332 1.41467 0
M  V30 36847 C 3649.91 -1.57839 0.307171 0
M  V30 36848 O 3651.1 -1.64732 0.566473 0
M  V30 36849 C 3648.24 -3.18539 1.21432 0
M  V30 36850 H 3649.43 -1.81158 2.39002 0
M  V30 36851 H 3646.98 -0.913985 1.26791 0
M  V30 36852 H 3647.72 -3.23359 0.246904 0
M  V30 36853 H 3647.5 -3.36266 2.01663 0
M  V30 36854 H 3648.99 -3.98551 1.24688 0
M  V30 36855 N 3649.43 -1.26454 -0.940588 0
M  V30 36856 C 3650.39 -1.08123 -2.02094 0
M  V30 36857 C 3651.39 -0.0293675 -1.60773 0
M  V30 36858 O 3652.58 -0.272827 -1.7205 0
M  V30 36859 C 3649.71 -0.644705 -3.34748 0
M  V30 36860 H 3650.91 -2.04042 -2.19788 0
M  V30 36861 H 3648.46 -1.0906 -1.11963 0
M  V30 36862 H 3649.19 0.316452 -3.22752 0
M  V30 36863 H 3648.98 -1.40423 -3.66093 0
M  V30 36864 H 3650.47 -0.538306 -4.14116 0
M  V30 36865 N 3650.91 1.14525 -1.08268 0
M  V30 36866 C 3652.15 1.85163 -0.809889 0
M  V30 36867 C 3652.48 1.83266 0.666231 0
M  V30 36868 O 3651.75 1.28008 1.48292 0
M  V30 36869 H 3650.33 0.685588 -0.29661 0
M  V30 36870 H 3652.99 1.38787 -1.36836 0
M  V30 36871 H 3652.08 2.9003 -1.15277 0
M  V30 36872 N 3652.39 0.868133 1.31534 0
M  V30 36873 C 3653.63 0.478863 1.97065 0
M  V30 36874 C 3653.96 -0.965991 1.6847 0
M  V30 36875 O 3653.24 -1.67995 0.980195 0
M  V30 36876 C 3653.52 0.734375 3.52532 0
M  V30 36877 C 3653.38 2.22863 3.90707 0
M  V30 36878 C 3654.69 0.199636 4.39647 0
M  V30 36879 H 3651.81 0.175457 0.71581 0
M  V30 36880 H 3654.46 1.08904 1.55692 0
M  V30 36881 H 3652.61 0.21503 3.87904 0
M  V30 36882 H 3654.28 2.81509 3.65446 0
M  V30 36883 H 3652.52 2.70191 3.39381 0
M  V30 36884 H 3653.19 2.35806 4.99099 0
M  V30 36885 H 3655.67 0.643926 4.11087 0
M  V30 36886 H 3654.54 0.407879 5.47382 0
M  V30 36887 H 3654.8 -0.898338 4.32877 0
M  V30 36888 N 3653.86 -1.44574 0.627389 0
M  V30 36889 C 3654.79 -2.33405 -0.066694 0
M  V30 36890 C 3655.77 -1.47989 -0.83864 0
M  V30 36891 O 3656.96 -1.76718 -0.805265 0
M  V30 36892 C 3654.09 -3.31002 -1.05142 0
M  V30 36893 C 3653.04 -4.26207 -0.391358 0
M  V30 36894 C 3652.37 -5.13644 -1.48572 0
M  V30 36895 C 3653.67 -5.17588 0.700033 0
M  V30 36896 H 3655.36 -2.9169 0.67508 0
M  V30 36897 H 3652.91 -1.40259 0.326091 0
M  V30 36898 H 3654.86 -3.92028 -1.54569 0
M  V30 36899 H 3653.59 -2.70918 -1.82403 0
M  V30 36900 H 3652.25 -3.66508 0.0822339 0
M  V30 36901 H 3651.89 -4.49915 -2.24912 0
M  V30 36902 H 3651.59 -5.78152 -1.04947 0
M  V30 36903 H 3653.12 -5.77541 -1.98188 0
M  V30 36904 H 3654.53 -5.72571 0.289012 0
M  V30 36905 H 3652.93 -5.90678 1.0592 0
M  V30 36906 H 3654 -4.58825 1.56869 0
M  V30 36907 N 3655.34 -0.367711 -1.5325 0
M  V30 36908 C 3656.25 0.485628 -2.29519 0
M  V30 36909 C 3657.27 1.09073 -1.3557 0
M  V30 36910 O 3658.44 1.10121 -1.68628 0
M  V30 36911 C 3655.51 1.6087 -3.07118 0
M  V30 36912 C 3654.57 1.03092 -4.16738 0
M  V30 36913 C 3653.8 2.10048 -4.90628 0
M  V30 36914 O 3654.03 3.31195 -4.64399 0
M  V30 36915 O 3652.96 1.72986 -5.76506 0
M  V30 36916 H 3656.79 -0.135071 -3.03399 0
M  V30 36917 H 3654.37 -0.132031 -1.48815 0
M  V30 36918 H 3656.25 2.26161 -3.55568 0
M  V30 36919 H 3654.93 2.21477 -2.36072 0
M  V30 36920 H 3653.83 0.341862 -3.72535 0
M  V30 36921 H 3655.17 0.469387 -4.89957 0
M  V30 36922 N 3656.82 1.57302 -0.0969353 0
M  V30 36923 C 3657.75 2.17149 0.858405 0
M  V30 36924 C 3658.73 1.10534 1.29292 0
M  V30 36925 O 3659.92 1.38679 1.35948 0
M  V30 36926 C 3657.05 2.75329 2.11686 0
M  V30 36927 C 3656 3.87333 1.82091 0
M  V30 36928 C 3655.33 4.32224 3.1478 0
M  V30 36929 C 3656.63 5.10446 1.10642 0
M  V30 36930 H 3658.32 2.97231 0.359768 0
M  V30 36931 H 3655.87 1.42974 0.171605 0
M  V30 36932 H 3657.82 3.15849 2.78957 0
M  V30 36933 H 3656.54 1.92505 2.63836 0
M  V30 36934 H 3655.2 3.47356 1.17216 0
M  V30 36935 H 3654.85 3.46288 3.6482 0
M  V30 36936 H 3654.55 5.0774 2.9576 0
M  V30 36937 H 3656.07 4.75379 3.83207 0
M  V30 36938 H 3657.49 5.48124 1.68027 0
M  V30 36939 H 3655.88 5.91403 1.01795 0
M  V30 36940 H 3656.95 4.84817 0.0894782 0
M  V30 36941 N 3658.3 -0.176766 1.56606 0
M  V30 36942 C 3659.26 -1.20268 1.95111 0
M  V30 36943 C 3660.26 -1.37471 0.834164 0
M  V30 36944 O 3661.45 -1.3497 1.1013 0
M  V30 36945 C 3658.58 -2.56874 2.24117 0
M  V30 36946 H 3659.78 -0.87307 2.8691 0
M  V30 36947 H 3657.33 -0.419006 1.50579 0
M  V30 36948 H 3658.06 -2.94859 1.35014 0
M  V30 36949 H 3657.85 -2.45755 3.05527 0
M  V30 36950 H 3659.34 -3.30821 2.54848 0
M  V30 36951 N 3659.78 -1.51183 -0.445132 0
M  V30 36952 C 3661.02 -1.64671 -1.19395 0
M  V30 36953 C 3661.38 -0.354774 -1.89101 0
M  V30 36954 O 3660.67 0.648967 -1.80275 0
M  V30 36955 C 3660.86 -2.78277 -2.24269 0
M  V30 36956 C 3660.69 -4.18393 -1.64856 0
M  V30 36957 C 3659.46 -4.8444 -1.43688 0
M  V30 36958 C 3661.66 -5.01753 -1.12909 0
M  V30 36959 N 3659.64 -6.08693 -0.797902 0
M  V30 36960 C 3661.01 -6.16943 -0.614904 0
M  V30 36961 C 3663.07 -4.87338 -1.0201 0
M  V30 36962 C 3661.77 -7.193 -0.00245507 0
M  V30 36963 C 3663.8 -5.89896 -0.421555 0
M  V30 36964 C 3663.16 -7.04352 0.0821219 0
M  V30 36965 H 3659.26 -0.656528 -0.424846 0
M  V30 36966 H 3661.84 -1.88387 -0.491765 0
M  V30 36967 H 3660.01 -2.56238 -2.91885 0
M  V30 36968 H 3661.75 -2.80986 -2.91254 0
M  V30 36969 H 3658.5 -4.42174 -1.69644 0
M  V30 36970 H 3658.92 -6.7518 -0.496076 0
M  V30 36971 H 3663.57 -3.9911 -1.39539 0
M  V30 36972 H 3661.28 -8.07182 0.384984 0
M  V30 36973 H 3664.87 -5.8081 -0.339237 0
M  V30 36974 H 3663.75 -7.82352 0.537998 0
M  V30 36975 N 3661.25 0.700065 -1.41198 0
M  V30 36976 C 3662.48 1.48894 -1.4366 0
M  V30 36977 C 3662.9 1.88756 -0.0406103 0
M  V30 36978 O 3662.25 1.56486 0.939063 0
M  V30 36979 C 3662.3 2.75437 -2.3413 0
M  V30 36980 O 3662.03 2.37255 -3.68296 0
M  V30 36981 C 3663.53 3.69214 -2.45348 0
M  V30 36982 H 3660.75 0.45899 -0.489458 0
M  V30 36983 H 3663.29 0.862313 -1.8543 0
M  V30 36984 H 3661.45 3.34347 -1.9568 0
M  V30 36985 H 3661.86 3.1879 -4.16501 0
M  V30 36986 H 3663.33 4.54801 -3.12826 0
M  V30 36987 H 3663.81 4.13393 -1.48334 0
M  V30 36988 H 3664.42 3.16209 -2.84415 0
M  V30 36989 N 3662.73 1.26951 0.933869 0
M  V30 36990 C 3663.96 1.15724 1.7151 0
M  V30 36991 C 3664.37 -0.286679 1.86611 0
M  V30 36992 O 3663.73 -1.19572 1.37872 0
M  V30 36993 C 3663.78 1.82927 3.11801 0
M  V30 36994 O 3663.5 3.21677 2.97415 0
M  V30 36995 C 3665 1.77747 4.06105 0
M  V30 36996 H 3662.22 0.402636 0.536773 0
M  V30 36997 H 3664.77 1.67708 1.17022 0
M  V30 36998 H 3662.92 1.34863 3.63168 0
M  V30 36999 H 3663.34 3.55044 3.86063 0
M  V30 37000 H 3664.81 2.29394 5.02078 0
M  V30 37001 H 3665.29 0.745506 4.32827 0
M  V30 37002 H 3665.89 2.25397 3.60661 0
M  V30 37003 N 3664.21 -1.13949 1.08873 0
M  V30 37004 C 3665.46 -1.84731 0.819697 0
M  V30 37005 C 3665.78 -1.83617 -0.656502 0
M  V30 37006 O 3665.05 -1.28793 -1.47611 0
M  V30 37007 H 3663.63 -0.684006 0.300242 0
M  V30 37008 H 3666.29 -1.38059 1.3757 0
M  V30 37009 H 3665.39 -2.89415 1.16814 0
M  V30 37010 N 3665.69 -0.875096 -1.31072 0
M  V30 37011 C 3666.62 -0.350509 -2.30854 0
M  V30 37012 C 3667.6 0.561356 -1.6057 0
M  V30 37013 O 3668.78 0.477296 -1.88243 0
M  V30 37014 C 3665.91 0.444432 -3.44445 0
M  V30 37015 C 3664.87 -0.374791 -4.26356 0
M  V30 37016 C 3664.19 0.546149 -5.31903 0
M  V30 37017 C 3665.49 -1.61162 -4.96814 0
M  V30 37018 H 3667.19 -1.18431 -2.74981 0
M  V30 37019 H 3664.73 -0.570932 -1.32198 0
M  V30 37020 H 3666.69 0.821987 -4.13305 0
M  V30 37021 H 3665.41 1.31179 -2.99098 0
M  V30 37022 H 3664.07 -0.734358 -3.5917 0
M  V30 37023 H 3663.72 1.41094 -4.82806 0
M  V30 37024 H 3663.42 0.00187844 -5.876 0
M  V30 37025 H 3664.94 0.920436 -6.03623 0
M  V30 37026 H 3666.36 -1.30521 -5.58245 0
M  V30 37027 H 3664.75 -2.09534 -5.6233 0
M  V30 37028 H 3665.82 -2.36158 -4.23506 0
M  V30 37029 N 3667.17 1.44239 -0.635047 0
M  V30 37030 C 3668.42 2.01224 -0.138533 0
M  V30 37031 C 3668.73 1.50574 1.24848 0
M  V30 37032 O 3669.93 1.99712 1.83922 0
M  V30 37033 C 3668.39 3.59361 -0.196899 0
M  V30 37034 C 3668 4.19007 -1.58547 0
M  V30 37035 C 3669.74 4.23804 0.24295 0
M  V30 37036 C 3667.65 5.69381 -1.59874 0
M  V30 37037 H 3666.58 0.752469 -0.0480249 0
M  V30 37038 H 3669.23 1.65412 -0.79442 0
M  V30 37039 H 3667.61 3.92489 0.526162 0
M  V30 37040 H 3668.79 3.9741 -2.33243 0
M  V30 37041 H 3667.1 3.66866 -1.96973 0
M  V30 37042 H 3669.7 5.34103 0.252623 0
M  V30 37043 H 3670.04 3.96423 1.271 0
M  V30 37044 H 3670.57 3.95494 -0.427748 0
M  V30 37045 H 3667.31 6.01502 -2.60529 0
M  V30 37046 H 3666.83 5.93088 -0.894768 0
M  V30 37047 H 3668.51 6.3309 -1.33441 0
M  V30 37048 N 3668.64 0.375833 1.53053 0
M  V30 37049 C 3670.06 0.0252045 1.5958 0
M  V30 37050 C 3670.26 -1.45834 1.3905 0
M  V30 37051 O 3669.32 -2.22121 1.20076 0
M  V30 37052 C 3670.63 0.490326 2.96675 0
M  V30 37053 C 3672.18 0.445425 3.09814 0
M  V30 37054 C 3672.65 0.88652 4.49338 0
M  V30 37055 N 3674.14 0.84199 4.55483 0
M  V30 37056 C 3674.88 1.15486 5.6165 0
M  V30 37057 N 3674.37 1.53753 6.75523 0
M  V30 37058 N 3676.17 1.07699 5.51686 0
M  V30 37059 H 3668.32 1.34181 1.64649 0
M  V30 37060 H 3670.58 0.549117 0.772771 0
M  V30 37061 H 3670.29 1.52595 3.16872 0
M  V30 37062 H 3670.16 -0.117694 3.77016 0
M  V30 37063 H 3672.55 -0.581087 2.89322 0
M  V30 37064 H 3672.63 1.08907 2.31458 0
M  V30 37065 H 3672.27 1.9112 4.7057 0
M  V30 37066 H 3672.2 0.220018 5.2614 0
M  V30 37067 H 3674.69 0.560216 3.73724 0
M  V30 37068 H 3675.01 1.76025 7.52486 0
M  V30 37069 H 3673.35 1.57627 6.76889 0
M  V30 37070 H 3676.54 0.777143 4.61604 0
M  V30 37071 H 3676.72 1.32415 6.34327 0
M  V30 37072 N 3670.12 -1.57248 0.105276 0
M  V30 37073 C 3671.37 -1.95804 -0.550664 0
M  V30 37074 C 3671.72 -0.986962 -1.65157 0
M  V30 37075 O 3671.02 -0.0146489 -1.91594 0
M  V30 37076 C 3671.21 -3.38673 -1.14172 0
M  V30 37077 C 3671.04 -4.4959 -0.0996036 0
M  V30 37078 C 3669.81 -5.04238 0.327454 0
M  V30 37079 C 3672.01 -5.09836 0.676138 0
M  V30 37080 N 3669.99 -5.98719 1.35678 0
M  V30 37081 C 3671.36 -6.00131 1.55702 0
M  V30 37082 C 3673.42 -4.92541 0.728538 0
M  V30 37083 C 3672.12 -6.74985 2.48571 0
M  V30 37084 C 3674.14 -5.68065 1.64488 0
M  V30 37085 C 3673.51 -6.58035 2.51336 0
M  V30 37086 H 3669.61 -0.762955 -0.171534 0
M  V30 37087 H 3672.19 -1.93769 0.190209 0
M  V30 37088 H 3670.36 -3.41382 -1.85237 0
M  V30 37089 H 3672.09 -3.64384 -1.76085 0
M  V30 37090 H 3668.85 -4.73559 -0.0622799 0
M  V30 37091 H 3669.27 -6.50663 1.86995 0
M  V30 37092 H 3673.91 -4.2274 0.0712355 0
M  V30 37093 H 3671.63 -7.44042 3.15321 0
M  V30 37094 H 3675.22 -5.56693 1.69069 0
M  V30 37095 H 3674.1 -7.15452 3.21089 0
M  V30 37096 N 3671.6 0.168458 -1.56697 0
M  V30 37097 C 3672.51 1.22841 -1.99868 0
M  V30 37098 C 3673.53 1.48275 -0.910517 0
M  V30 37099 O 3674.7 1.60368 -1.21837 0
M  V30 37100 C 3671.77 2.5469 -2.35232 0
M  V30 37101 C 3670.83 2.37093 -3.5789 0
M  V30 37102 C 3670.06 3.62654 -3.91558 0
M  V30 37103 O 3670.28 4.67951 -3.26156 0
M  V30 37104 O 3669.22 3.56595 -4.84896 0
M  V30 37105 H 3673.04 0.891964 -2.90306 0
M  V30 37106 H 3670.63 0.375545 -1.44603 0
M  V30 37107 H 3672.51 3.32463 -2.58934 0
M  V30 37108 H 3671.19 2.87908 -1.47955 0
M  V30 37109 H 3670.09 1.57342 -3.39403 0
M  V30 37110 H 3671.43 2.08798 -4.45717 0
M  V30 37111 N 3673.08 1.51417 0.437109 0
M  V30 37112 C 3674.36 1.54638 1.19777 0
M  V30 37113 C 3674.74 0.310784 2.088 0
M  V30 37114 O 3674.08 -0.70411 2.17381 0
M  V30 37115 C 3674.29 2.8605 1.99942 0
M  V30 37116 C 3675.64 3.38007 2.56975 0
M  V30 37117 O 3676.67 2.87601 2.10152 0
M  V30 37118 O 3675.52 4.25959 3.42375 0
M  V30 37119 H 3672.62 0.621723 0.545335 0
M  V30 37120 H 3675.16 1.6373 0.44616 0
M  V30 37121 H 3673.94 3.67437 1.34557 0
M  V30 37122 H 3673.56 2.8012 2.82167 0
M  V30 37123 N 3674.56 -0.692567 1.41567 0
M  V30 37124 C 3675.83 -1.44732 1.31575 0
M  V30 37125 C 3676.21 -2.11028 -0.055271 0
M  V30 37126 O 3675.56 -2.01915 -1.0697 0
M  V30 37127 C 3675.77 -2.4643 2.4713 0
M  V30 37128 C 3677.12 -3.11595 2.88433 0
M  V30 37129 O 3678.14 -2.56755 2.46891 0
M  V30 37130 O 3677 -4.10929 3.60278 0
M  V30 37131 H 3674.1 -0.644706 0.517961 0
M  V30 37132 H 3676.64 -0.722791 1.53538 0
M  V30 37133 H 3675.41 -1.96118 3.38605 0
M  V30 37134 H 3675.04 -3.26389 2.27059 0
M  V30 37135 N 3676.03 -1.27445 -0.927123 0
M  V30 37136 C 3677.45 -1.12523 -1.48982 0
M  V30 37137 C 3677.8 0.289568 -1.94051 0
M  V30 37138 O 3676.92 1.18254 -1.81232 0
M  V30 37139 C 3677.52 -2.03651 -2.70761 0
M  V30 37140 C 3676.08 -1.92833 -3.23253 0
M  V30 37141 C 3675.22 -1.96173 -1.95988 0
M  V30 37142 H 3678.17 -1.40329 -0.741172 0
M  V30 37143 H 3678.19 -1.59266 -3.45564 0
M  V30 37144 H 3677.71 -3.06614 -2.37928 0
M  V30 37145 H 3675.81 -0.92858 -3.60844 0
M  V30 37146 H 3675.92 -2.79103 -3.89408 0
M  V30 37147 H 3674.28 -1.40405 -2.12505 0
M  V30 37148 H 3675.07 -3.00791 -1.65467 0
M  V30 37149 N 3677.51 1.1337 -1.09476 0
M  V30 37150 C 3678.44 2.18489 -0.692484 0
M  V30 37151 C 3679.46 1.60614 0.265914 0
M  V30 37152 O 3680.65 1.78425 0.0518875 0
M  V30 37153 C 3677.75 3.389 0.000246513 0
M  V30 37154 C 3676.92 4.26284 -0.97982 0
M  V30 37155 C 3675.98 5.25224 -0.320401 0
M  V30 37156 O 3675 5.60905 -0.968187 0
M  V30 37157 N 3676.21 5.73079 0.925259 0
M  V30 37158 H 3678.97 2.53615 -1.59686 0
M  V30 37159 H 3676.53 1.28697 -0.982279 0
M  V30 37160 H 3678.52 4.02161 0.452609 0
M  V30 37161 H 3677.09 3.02007 0.806874 0
M  V30 37162 H 3676.31 3.5979 -1.61073 0
M  V30 37163 H 3677.6 4.81523 -1.64357 0
M  V30 37164 H 3677 5.46237 1.4711 0
M  V30 37165 H 3675.56 6.38275 1.32093 0
M  V30 37166 N 3678.99 0.882035 1.30606 0
M  V30 37167 C 3680.4 0.549923 1.78417 0
M  V30 37168 C 3680.75 -0.933766 1.72555 0
M  V30 37169 O 3679.88 -1.72954 1.30061 0
M  V30 37170 C 3680.47 0.991455 3.23969 0
M  V30 37171 C 3679.03 0.710804 3.69628 0
M  V30 37172 C 3678.18 1.17607 2.51125 0
M  V30 37173 H 3681.13 1.06655 1.17517 0
M  V30 37174 H 3681.15 0.319182 3.79159 0
M  V30 37175 H 3680.66 2.07134 3.28203 0
M  V30 37176 H 3678.76 -0.357208 3.70884 0
M  V30 37177 H 3678.88 1.29629 4.6123 0
M  V30 37178 H 3677.24 0.595487 2.47641 0
M  V30 37179 H 3678.02 2.26363 2.58099 0
M  V30 37180 N 3680.47 -1.439 0.642688 0
M  V30 37181 C 3681.72 -2.01531 0.151513 0
M  V30 37182 C 3682.04 -1.50893 -1.23516 0
M  V30 37183 O 3681.31 -0.717229 -1.82298 0
M  V30 37184 H 3679.89 -0.745116 0.0530222 0
M  V30 37185 H 3682.55 -1.7625 0.831989 0
M  V30 37186 H 3681.65 -3.11837 0.12805 0
M  V30 37187 N 3681.95 -0.383945 -1.52852 0
M  V30 37188 C 3683.19 0.192745 -2.02485 0
M  V30 37189 C 3683.55 1.44914 -1.2656 0
M  V30 37190 O 3682.84 1.88264 -0.356005 0
M  V30 37191 C 3683.04 0.519612 -3.53603 0
M  V30 37192 C 3682.86 -0.70356 -4.44162 0
M  V30 37193 C 3681.63 -1.22121 -4.90321 0
M  V30 37194 C 3683.83 -1.57428 -4.89613 0
M  V30 37195 N 3681.81 -2.40249 -5.64937 0
M  V30 37196 C 3683.19 -2.60204 -5.62756 0
M  V30 37197 C 3685.24 -1.59501 -4.71661 0
M  V30 37198 C 3683.94 -3.6493 -6.19854 0
M  V30 37199 C 3685.97 -2.63132 -5.29637 0
M  V30 37200 C 3685.33 -3.64629 -6.02681 0
M  V30 37201 H 3681.43 0.0327592 -0.781314 0
M  V30 37202 H 3684.01 -0.532629 -1.87273 0
M  V30 37203 H 3682.19 1.21405 -3.68938 0
M  V30 37204 H 3683.92 1.08299 -3.8994 0
M  V30 37205 H 3680.67 -0.78302 -4.67082 0
M  V30 37206 H 3681.1 -3.00005 -6.06899 0
M  V30 37207 H 3685.74 -0.823791 -4.14697 0
M  V30 37208 H 3683.46 -4.42923 -6.75903 0
M  V30 37209 H 3687.04 -2.65612 -5.17631 0
M  V30 37210 H 3685.92 -4.43502 -6.46742 0
M  V30 37211 N 3683.43 1.5719 -0.113614 0
M  V30 37212 C 3684.66 1.99068 0.552754 0
M  V30 37213 C 3685.06 0.992066 1.61105 0
M  V30 37214 O 3684.41 -0.0239742 1.83684 0
M  V30 37215 C 3684.47 3.37352 1.24233 0
M  V30 37216 C 3684.13 4.55788 0.332618 0
M  V30 37217 C 3685.13 5.18147 -0.426631 0
M  V30 37218 C 3682.81 5.01701 0.245263 0
M  V30 37219 C 3684.81 6.24802 -1.26102 0
M  V30 37220 C 3682.5 6.08218 -0.592766 0
M  V30 37221 C 3683.49 6.69635 -1.34454 0
M  V30 37222 O 3683.18 7.74096 -2.16867 0
M  V30 37223 H 3682.91 0.658833 0.151378 0
M  V30 37224 H 3685.47 2.04471 -0.195149 0
M  V30 37225 H 3683.7 3.28688 2.03719 0
M  V30 37226 H 3685.39 3.63555 1.80507 0
M  V30 37227 H 3686.15 4.83594 -0.368983 0
M  V30 37228 H 3682.03 4.53647 0.820098 0
M  V30 37229 H 3685.58 6.72669 -1.84829 0
M  V30 37230 H 3681.47 6.422 -0.651827 0
M  V30 37231 H 3682.24 7.91168 -2.0975 0
M  V30 37232 N 3684.9 -0.160146 1.56784 0
M  V30 37233 C 3686.18 -0.902878 1.73515 0
M  V30 37234 C 3686.56 -1.99914 0.678071 0
M  V30 37235 O 3685.91 -2.26452 -0.305263 0
M  V30 37236 C 3686.12 -1.45739 3.17114 0
M  V30 37237 C 3687.47 -1.92595 3.78408 0
M  V30 37238 O 3688.49 -1.55509 3.20461 0
M  V30 37239 O 3687.35 -2.60946 4.80176 0
M  V30 37240 H 3684.44 -0.425751 0.708988 0
M  V30 37241 H 3686.99 -0.1471 1.69061 0
M  V30 37242 H 3685.76 -0.668917 3.8554 0
M  V30 37243 H 3685.38 -2.27704 3.2594 0
M  V30 37244 N 3686.38 -1.51647 -0.429072 0
M  V30 37245 C 3687.61 -1.68543 -1.20003 0
M  V30 37246 C 3688.02 -0.386297 -1.84806 0
M  V30 37247 O 3687.38 0.635958 -1.71061 0
M  V30 37248 C 3687.43 -2.80698 -2.27796 0
M  V30 37249 O 3687.15 -4.05579 -1.65642 0
M  V30 37250 C 3688.65 -3.08934 -3.17922 0
M  V30 37251 H 3685.87 -0.565373 -0.361378 0
M  V30 37252 H 3688.42 -1.98105 -0.507397 0
M  V30 37253 H 3686.57 -2.53712 -2.92761 0
M  V30 37254 H 3686.99 -4.67928 -2.36947 0
M  V30 37255 H 3688.46 -3.90972 -3.89673 0
M  V30 37256 H 3688.94 -2.21675 -3.79153 0
M  V30 37257 H 3689.54 -3.37611 -2.58648 0
M  V30 37258 N 3687.86 0.685049 -1.41932 0
M  V30 37259 C 3688.77 1.82843 -1.46988 0
M  V30 37260 C 3689.79 1.70245 -0.359517 0
M  V30 37261 O 3690.96 1.91976 -0.608858 0
M  V30 37262 C 3688.03 3.18909 -1.36006 0
M  V30 37263 C 3687.09 3.43539 -2.57448 0
M  V30 37264 C 3686.32 4.73113 -2.46981 0
M  V30 37265 O 3686.54 5.50321 -1.50008 0
M  V30 37266 O 3685.48 4.9876 -3.3693 0
M  V30 37267 H 3689.3 1.81533 -2.43473 0
M  V30 37268 H 3686.89 0.839476 -1.23585 0
M  V30 37269 H 3688.77 4.00125 -1.32205 0
M  V30 37270 H 3687.45 3.20879 -0.426422 0
M  V30 37271 H 3686.35 2.62212 -2.66825 0
M  V30 37272 H 3687.69 3.46391 -3.49677 0
M  V30 37273 N 3689.34 1.27935 0.920351 0
M  V30 37274 C 3690.56 1.1765 1.70802 0
M  V30 37275 C 3690.99 -0.262156 1.86264 0
M  V30 37276 O 3690.35 -1.18976 1.368 0
M  V30 37277 C 3690.39 1.87304 3.08139 0
M  V30 37278 O 3689.5 1.176 3.95277 0
M  V30 37279 H 3688.84 0.408773 0.52326 0
M  V30 37280 H 3691.37 1.69138 1.15124 0
M  V30 37281 H 3691.38 1.94952 3.5841 0
M  V30 37282 H 3690.05 2.91954 2.96202 0
M  V30 37283 H 3688.63 1.18071 3.53714 0
M  V30 37284 N 3690.82 -1.12788 1.10076 0
M  V30 37285 C 3692.06 -1.83851 0.839244 0
M  V30 37286 C 3692.38 -1.84303 -0.636991 0
M  V30 37287 O 3691.65 -1.30351 -1.46237 0
M  V30 37288 H 3690.23 -0.680783 0.30748 0
M  V30 37289 H 3692.9 -1.36593 1.39027 0
M  V30 37290 H 3691.99 -2.8816 1.19877 0
M  V30 37291 N 3692.29 -0.888949 -1.30136 0
M  V30 37292 C 3693.2 -0.362841 -2.31777 0
M  V30 37293 C 3694.22 0.536951 -1.65508 0
M  V30 37294 O 3695.4 0.429117 -1.96775 0
M  V30 37295 C 3692.46 0.410612 -3.4426 0
M  V30 37296 C 3691.52 -0.519409 -4.26146 0
M  V30 37297 C 3690.75 0.217226 -5.33258 0
M  V30 37298 O 3690.98 1.44274 -5.51852 0
M  V30 37299 O 3689.91 -0.434716 -6.00328 0
M  V30 37300 H 3693.74 -1.2058 -2.78737 0
M  V30 37301 H 3691.32 -0.652913 -1.34378 0
M  V30 37302 H 3693.2 0.848395 -4.12771 0
M  V30 37303 H 3691.88 1.22981 -2.99428 0
M  V30 37304 H 3690.79 -1.00608 -3.60318 0
M  V30 37305 H 3692.12 -1.30472 -4.74592 0
M  V30 37306 N 3693.77 1.43557 -0.65031 0
M  V30 37307 C 3694.7 2.28011 0.0927533 0
M  V30 37308 C 3695.68 1.39659 0.832715 0
M  V30 37309 O 3696.87 1.69102 0.832882 0
M  V30 37310 C 3693.99 3.1901 1.138 0
M  V30 37311 C 3693.04 4.23601 0.496414 0
M  V30 37312 S 3693.87 5.3053 -0.727858 0
M  V30 37313 C 3695.03 6.25097 0.316925 0
M  V30 37314 H 3695.26 2.90685 -0.623656 0
M  V30 37315 H 3692.79 1.48026 -0.439058 0
M  V30 37316 H 3694.75 3.71983 1.73606 0
M  V30 37317 H 3693.41 2.55519 1.82671 0
M  V30 37318 H 3692.61 4.87363 1.28427 0
M  V30 37319 H 3692.21 3.7399 -0.0274633 0
M  V30 37320 H 3694.5 6.67075 1.18396 0
M  V30 37321 H 3695.44 7.07524 -0.285593 0
M  V30 37322 H 3695.85 5.60729 0.651428 0
M  V30 37323 N 3695.25 0.392045 1.52646 0
M  V30 37324 C 3696.5 -0.189545 2.01912 0
M  V30 37325 C 3696.83 -1.46231 1.27789 0
M  V30 37326 O 3696.1 -1.90769 0.379157 0
M  V30 37327 C 3696.39 -0.454672 3.57218 0
M  V30 37328 C 3696.24 0.833578 4.42008 0
M  V30 37329 C 3697.56 -1.24413 4.22149 0
M  V30 37330 H 3694.68 -0.0674152 0.73391 0
M  V30 37331 H 3697.32 0.522153 1.82684 0
M  V30 37332 H 3695.47 -1.06094 3.73733 0
M  V30 37333 H 3697.14 1.47035 4.3724 0
M  V30 37334 H 3695.38 1.4483 4.08909 0
M  V30 37335 H 3696.06 0.602681 5.487 0
M  V30 37336 H 3698.53 -0.731021 4.09628 0
M  V30 37337 H 3697.41 -1.39838 5.30789 0
M  V30 37338 H 3697.67 -2.26009 3.79964 0
M  V30 37339 N 3696.73 -1.57127 0.121948 0
M  V30 37340 C 3698.01 -1.86832 -0.579054 0
M  V30 37341 C 3698.39 -1.02363 -1.84621 0
M  V30 37342 O 3697.73 -0.103366 -2.28266 0
M  V30 37343 C 3697.94 -3.38017 -0.86866 0
M  V30 37344 C 3699.29 -4.06682 -1.22043 0
M  V30 37345 O 3700.32 -3.43052 -0.958828 0
M  V30 37346 O 3699.17 -5.19007 -1.71155 0
M  V30 37347 H 3696.27 -0.773536 -0.292526 0
M  V30 37348 H 3698.81 -1.68975 0.156674 0
M  V30 37349 H 3697.59 -3.91289 0.0291744 0
M  V30 37350 H 3697.21 -3.61315 -1.65944 0
M  V30 37351 N 3698.21 0.151829 -1.56867 0
M  V30 37352 C 3699.12 1.20714 -2.0116 0
M  V30 37353 C 3700.13 1.47301 -0.926192 0
M  V30 37354 O 3701.31 1.59066 -1.23531 0
M  V30 37355 C 3698.37 2.52181 -2.3792 0
M  V30 37356 C 3697.43 2.33284 -3.60385 0
M  V30 37357 C 3696.67 3.58481 -3.95382 0
M  V30 37358 O 3696.89 4.64465 -3.31101 0
M  V30 37359 O 3695.82 3.51432 -4.88651 0
M  V30 37360 H 3699.65 0.861123 -2.91236 0
M  V30 37361 H 3697.24 0.360187 -1.44993 0
M  V30 37362 H 3699.12 3.29697 -2.62445 0
M  V30 37363 H 3697.79 2.86323 -1.51 0
M  V30 37364 H 3696.7 1.53734 -3.41052 0
M  V30 37365 H 3698.03 2.04059 -4.47907 0
M  V30 37366 N 3699.68 1.51872 0.421024 0
M  V30 37367 C 3700.91 1.69467 1.19565 0
M  V30 37368 C 3701.33 0.398301 1.83835 0
M  V30 37369 O 3700.69 -0.643142 1.69509 0
M  V30 37370 C 3700.74 2.82325 2.24332 0
M  V30 37371 O 3699.84 2.47065 3.30201 0
M  V30 37372 H 3699.19 0.564533 0.349569 0
M  V30 37373 H 3701.72 1.98518 0.495142 0
M  V30 37374 H 3701.73 3.0689 2.68855 0
M  V30 37375 H 3700.4 3.76387 1.76934 0
M  V30 37376 H 3698.98 2.3313 2.91041 0
M  V30 37377 N 3701.16 -0.677513 1.42294 0
M  V30 37378 C 3702.07 -1.82061 1.47956 0
M  V30 37379 C 3703.09 -1.70052 0.36854 0
M  V30 37380 O 3704.26 -1.91651 0.61903 0
M  V30 37381 C 3701.33 -3.18184 1.37696 0
M  V30 37382 C 3700.39 -3.42169 2.59267 0
M  V30 37383 C 3699.62 -4.71797 2.49486 0
M  V30 37384 O 3699.85 -5.49518 1.52925 0
M  V30 37385 O 3698.78 -4.96966 3.39571 0
M  V30 37386 H 3702.61 -1.8024 2.44433 0
M  V30 37387 H 3700.19 -0.83291 1.24028 0
M  V30 37388 H 3702.07 -3.99418 1.34326 0
M  V30 37389 H 3700.75 -3.20648 0.443433 0
M  V30 37390 H 3699.66 -2.60793 2.68212 0
M  V30 37391 H 3700.99 -3.44532 3.51509 0
M  V30 37392 N 3702.64 -1.28421 -0.913554 0
M  V30 37393 C 3703.57 -1.14901 -2.03273 0
M  V30 37394 C 3704.55 -0.0467333 -1.70036 0
M  V30 37395 O 3705.74 -0.223759 -1.92907 0
M  V30 37396 C 3702.87 -0.810276 -3.37716 0
M  V30 37397 C 3701.82 -1.86734 -3.85116 0
M  V30 37398 C 3701.15 -1.38224 -5.16525 0
M  V30 37399 C 3702.45 -3.27393 -4.06953 0
M  V30 37400 H 3704.14 -2.08525 -2.14843 0
M  V30 37401 H 3701.69 -1.00396 -1.03231 0
M  V30 37402 H 3703.64 -0.702455 -4.15504 0
M  V30 37403 H 3702.36 0.161674 -3.262 0
M  V30 37404 H 3701.02 -1.96431 -3.09532 0
M  V30 37405 H 3700.67 -0.399351 -5.01412 0
M  V30 37406 H 3700.37 -2.08907 -5.4921 0
M  V30 37407 H 3701.89 -1.28765 -5.96868 0
M  V30 37408 H 3703.31 -3.20616 -4.75266 0
M  V30 37409 H 3701.71 -3.95912 -4.5097 0
M  V30 37410 H 3702.78 -3.71397 -3.11757 0
M  V30 37411 N 3704.12 1.12202 -1.10672 0
M  V30 37412 C 3705.36 1.84038 -0.851923 0
M  V30 37413 C 3705.7 1.84005 0.620956 0
M  V30 37414 O 3704.97 1.28737 1.45798 0
M  V30 37415 C 3705.26 3.31599 -1.40407 0
M  V30 37416 C 3705.11 3.40073 -2.94398 0
M  V30 37417 C 3706.43 4.2743 -1.04841 0
M  V30 37418 H 3703.55 0.668197 -0.310936 0
M  V30 37419 H 3706.19 1.31618 -1.37028 0
M  V30 37420 H 3704.34 3.76371 -0.963174 0
M  V30 37421 H 3706.01 3.03918 -3.47032 0
M  V30 37422 H 3704.25 2.80543 -3.30875 0
M  V30 37423 H 3704.92 4.43897 -3.28115 0
M  V30 37424 H 3707.4 3.90797 -1.42888 0
M  V30 37425 H 3706.28 5.29082 -1.46162 0
M  V30 37426 H 3706.54 4.4208 0.0418495 0
M  V30 37427 N 3705.6 0.895838 1.29663 0
M  V30 37428 C 3706.53 0.327979 2.26841 0
M  V30 37429 C 3707.54 -0.523551 1.54152 0
M  V30 37430 O 3708.73 -0.341336 1.75206 0
M  V30 37431 C 3705.83 -0.551335 3.34385 0
M  V30 37432 C 3705 0.27359 4.36544 0
M  V30 37433 C 3704.06 -0.537939 5.23443 0
M  V30 37434 O 3703.09 0.0432026 5.69184 0
M  V30 37435 N 3704.29 -1.84484 5.50405 0
M  V30 37436 H 3707.06 1.16319 2.76206 0
M  V30 37437 H 3704.62 0.759929 1.42957 0
M  V30 37438 H 3706.61 -1.10055 3.89448 0
M  V30 37439 H 3705.18 -1.28723 2.84867 0
M  V30 37440 H 3704.4 1.00423 3.81194 0
M  V30 37441 H 3705.69 0.838677 5.0184 0
M  V30 37442 H 3705.08 -2.33976 5.15045 0
M  V30 37443 H 3703.64 -2.34126 6.08299 0
M  V30 37444 N 3707.07 -1.43211 0.657914 0
M  V30 37445 C 3708.49 -1.56237 0.325903 0
M  V30 37446 C 3708.69 -1.64072 -1.16973 0
M  V30 37447 O 3707.75 -1.59837 -1.9547 0
M  V30 37448 C 3709.06 -2.82092 1.04139 0
M  V30 37449 C 3710.61 -2.95842 1.02209 0
M  V30 37450 C 3711.08 -4.24534 1.71856 0
M  V30 37451 N 3712.57 -4.31409 1.68643 0
M  V30 37452 C 3713.31 -5.29764 2.19403 0
M  V30 37453 N 3712.8 -6.3437 2.78472 0
M  V30 37454 N 3714.6 -5.21449 2.09875 0
M  V30 37455 H 3706.75 -1.36368 1.62842 0
M  V30 37456 H 3709.01 -0.655259 0.685084 0
M  V30 37457 H 3708.72 -2.82381 2.09652 0
M  V30 37458 H 3708.59 -3.72463 0.595907 0
M  V30 37459 H 3710.98 -2.9509 -0.024651 0
M  V30 37460 H 3711.06 -2.06747 1.5063 0
M  V30 37461 H 3710.7 -4.26047 2.76489 0
M  V30 37462 H 3710.63 -5.12534 1.20897 0
M  V30 37463 H 3713.12 -3.56437 1.25542 0
M  V30 37464 H 3713.44 -7.05746 3.14868 0
M  V30 37465 H 3711.78 -6.3498 2.82534 0
M  V30 37466 H 3714.97 -4.38644 1.63429 0
M  V30 37467 H 3715.15 -5.9794 2.49742 0
M  V30 37468 N 3708.55 -0.400135 -1.52436 0
M  V30 37469 C 3709.78 0.178069 -2.05831 0
M  V30 37470 C 3710.19 1.40164 -1.27085 0
M  V30 37471 O 3709.53 1.81005 -0.313502 0
M  V30 37472 C 3709.6 0.602176 -3.54421 0
M  V30 37473 C 3709.26 -0.509421 -4.54152 0
M  V30 37474 C 3710.26 -1.37021 -5.01519 0
M  V30 37475 C 3707.94 -0.679545 -4.97682 0
M  V30 37476 C 3709.94 -2.38615 -5.91051 0
M  V30 37477 C 3707.62 -1.69881 -5.87013 0
M  V30 37478 C 3708.62 -2.55052 -6.33591 0
M  V30 37479 O 3708.31 -3.55234 -7.21155 0
M  V30 37480 H 3708.04 0.027909 -0.675424 0
M  V30 37481 H 3710.59 -0.567048 -1.97418 0
M  V30 37482 H 3708.82 1.39944 -3.60489 0
M  V30 37483 H 3710.51 1.10728 -3.90505 0
M  V30 37484 H 3711.28 -1.25013 -4.68611 0
M  V30 37485 H 3707.16 -0.0262897 -4.60993 0
M  V30 37486 H 3710.7 -3.05129 -6.27329 0
M  V30 37487 H 3706.6 -1.81922 -6.19334 0
M  V30 37488 H 3707.37 -3.51371 -7.39243 0
M  V30 37489 N 3710.03 1.57061 -0.13028 0
M  V30 37490 C 3710.98 2.12468 0.82712 0
M  V30 37491 C 3711.96 1.04826 1.22067 0
M  V30 37492 O 3713.16 1.31038 1.18988 0
M  V30 37493 C 3710.29 2.73661 2.07279 0
M  V30 37494 C 3709.37 3.88401 1.7031 0
M  V30 37495 N 3709.76 4.94977 1.04074 0
M  V30 37496 C 3708.06 3.98796 1.99694 0
M  V30 37497 C 3708.76 5.75234 0.864915 0
M  V30 37498 N 3707.74 5.25436 1.3935 0
M  V30 37499 H 3711.54 2.92243 0.311655 0
M  V30 37500 H 3709.05 1.62241 0.0718238 0
M  V30 37501 H 3711.05 3.11706 2.76848 0
M  V30 37502 H 3709.71 1.95353 2.59359 0
M  V30 37503 H 3710.72 5.13101 0.703411 0
M  V30 37504 H 3707.4 3.31544 2.53741 0
M  V30 37505 H 3708.79 6.71018 0.344137 0
M  V30 37506 N 3711.51 -0.143508 1.56945 0
M  V30 37507 C 3712.79 -0.884423 1.74463 0
M  V30 37508 C 3713.17 -1.99183 0.699236 0
M  V30 37509 O 3712.51 -2.26763 -0.281227 0
M  V30 37510 C 3712.72 -1.42367 3.18642 0
M  V30 37511 C 3714.07 -1.88571 3.80429 0
M  V30 37512 O 3715.1 -1.52101 3.22093 0
M  V30 37513 O 3713.96 -2.55838 4.82917 0
M  V30 37514 H 3711.05 -0.418208 0.713464 0
M  V30 37515 H 3713.6 -0.12916 1.69208 0
M  V30 37516 H 3712.37 -0.627988 3.86228 0
M  V30 37517 H 3711.99 -2.24234 3.28336 0
M  V30 37518 N 3712.99 -1.52093 -0.412964 0
M  V30 37519 C 3713.95 -1.74542 -1.48552 0
M  V30 37520 C 3714.95 -0.615309 -1.48562 0
M  V30 37521 O 3716.14 -0.883145 -1.50154 0
M  V30 37522 C 3713.27 -1.82428 -2.87981 0
M  V30 37523 H 3714.47 -2.70288 -1.2994 0
M  V30 37524 H 3712.02 -1.42451 -0.643216 0
M  V30 37525 H 3712.75 -0.885832 -3.11967 0
M  V30 37526 H 3712.54 -2.64582 -2.89377 0
M  V30 37527 H 3714.03 -2.01551 -3.65742 0
M  V30 37528 N 3714.47 0.669957 -1.42651 0
M  V30 37529 C 3715.71 1.43211 -1.43591 0
M  V30 37530 C 3716.04 1.94125 -0.0538339 0
M  V30 37531 O 3715.32 1.71221 0.922696 0
M  V30 37532 C 3715.6 2.62565 -2.46438 0
M  V30 37533 C 3715.46 2.17251 -3.93855 0
M  V30 37534 C 3716.77 3.64783 -2.46215 0
M  V30 37535 H 3713.89 0.519401 -0.522868 0
M  V30 37536 H 3716.54 0.760966 -1.74096 0
M  V30 37537 H 3714.69 3.19824 -2.20556 0
M  V30 37538 H 3716.36 1.65123 -4.30735 0
M  V30 37539 H 3714.6 1.48778 -4.07489 0
M  V30 37540 H 3715.27 3.03004 -4.61403 0
M  V30 37541 H 3717.75 3.1725 -2.69242 0
M  V30 37542 H 3716.62 4.45867 -3.20146 0
M  V30 37543 H 3716.88 4.1624 -1.48986 0
M  V30 37544 N 3715.94 1.28904 0.90673 0
M  V30 37545 C 3717.19 1.16639 1.65901 0
M  V30 37546 C 3717.52 -0.282947 1.92128 0
M  V30 37547 O 3716.8 -1.2051 1.52668 0
M  V30 37548 C 3717.08 1.97277 3.01253 0
M  V30 37549 C 3716.93 3.50313 2.82136 0
M  V30 37550 C 3718.25 1.79367 4.0189 0
M  V30 37551 H 3715.37 0.425086 0.602055 0
M  V30 37552 H 3718.01 1.58299 1.05079 0
M  V30 37553 H 3716.16 1.61877 3.53169 0
M  V30 37554 H 3717.84 3.95657 2.37177 0
M  V30 37555 H 3716.08 3.75591 2.17057 0
M  V30 37556 H 3716.75 4.02 3.78286 0
M  V30 37557 H 3719.23 2.10274 3.5906 0
M  V30 37558 H 3718.1 2.3815 4.94546 0
M  V30 37559 H 3718.36 0.747 4.35743 0
M  V30 37560 N 3717.42 -1.11614 1.11266 0
M  V30 37561 C 3718.35 -2.17359 0.727156 0
M  V30 37562 C 3719.37 -1.61016 -0.240328 0
M  V30 37563 O 3720.56 -1.78485 -0.0234952 0
M  V30 37564 C 3717.66 -3.38858 0.0536696 0
M  V30 37565 C 3716.83 -4.24672 1.04751 0
M  V30 37566 C 3715.89 -5.24647 0.403919 0
M  V30 37567 O 3714.91 -5.59294 1.0573 0
M  V30 37568 N 3716.12 -5.74478 -0.83397 0
M  V30 37569 H 3718.88 -2.51043 1.637 0
M  V30 37570 H 3716.44 -1.27118 1.00263 0
M  V30 37571 H 3718.43 -4.0283 -0.388572 0
M  V30 37572 H 3717 -3.03253 -0.758725 0
M  V30 37573 H 3716.22 -3.57182 1.66776 0
M  V30 37574 H 3717.51 -4.78847 1.71996 0
M  V30 37575 H 3716.91 -5.48509 -1.38401 0
M  V30 37576 H 3715.47 -6.40295 -1.21922 0
M  V30 37577 N 3718.9 -0.902701 -1.29186 0
M  V30 37578 C 3720.32 -0.599235 -1.47923 0
M  V30 37579 C 3720.52 0.858462 -1.82298 0
M  V30 37580 O 3719.57 1.63841 -1.92126 0
M  V30 37581 C 3720.88 -1.52764 -2.59005 0
M  V30 37582 C 3722.43 -1.53316 -2.72879 0
M  V30 37583 C 3722.91 -2.44792 -3.87093 0
M  V30 37584 N 3724.4 -2.42856 -3.9443 0
M  V30 37585 C 3725.13 -3.10338 -4.82159 0
M  V30 37586 N 3724.63 -3.87111 -5.74558 0
M  V30 37587 N 3726.42 -2.99481 -4.75676 0
M  V30 37588 H 3718.57 -1.84546 -1.05151 0
M  V30 37589 H 3720.84 -0.790933 -0.522618 0
M  V30 37590 H 3720.54 -2.56638 -2.40478 0
M  V30 37591 H 3720.42 -1.25042 -3.55871 0
M  V30 37592 H 3722.8 -0.501855 -2.90801 0
M  V30 37593 H 3722.88 -1.85077 -1.76579 0
M  V30 37594 H 3722.53 -3.48019 -3.69926 0
M  V30 37595 H 3722.46 -2.10339 -4.82768 0
M  V30 37596 H 3724.95 -1.8708 -3.28344 0
M  V30 37597 H 3725.26 -4.3565 -6.38302 0
M  V30 37598 H 3723.61 -3.91217 -5.74434 0
M  V30 37599 H 3726.8 -2.39016 -4.02478 0
M  V30 37600 H 3726.97 -3.52347 -5.43834 0
M  V30 37601 N 3720.38 1.4286 -0.6655 0
M  V30 37602 C 3721.62 2.01962 -0.184192 0
M  V30 37603 C 3721.96 1.52453 1.20298 0
M  V30 37604 O 3721.23 0.722788 1.80571 0
M  V30 37605 C 3721.51 3.59496 -0.20856 0
M  V30 37606 C 3721.37 4.19206 -1.63053 0
M  V30 37607 C 3722.69 4.3781 0.448344 0
M  V30 37608 H 3719.81 0.733819 -0.0684053 0
M  V30 37609 H 3722.45 1.7 -0.84852 0
M  V30 37610 H 3720.6 3.86855 0.357111 0
M  V30 37611 H 3722.27 4.02833 -2.24773 0
M  V30 37612 H 3720.51 3.75388 -2.17407 0
M  V30 37613 H 3721.18 5.28323 -1.59934 0
M  V30 37614 H 3723.66 4.16087 -0.0330784 0
M  V30 37615 H 3722.54 5.47436 0.400616 0
M  V30 37616 H 3722.8 4.14985 1.52446 0
M  V30 37617 N 3721.86 0.408213 1.52221 0
M  V30 37618 C 3723.1 -0.167538 2.01404 0
M  V30 37619 C 3723.42 -1.45724 1.29574 0
M  V30 37620 O 3722.69 -1.91314 0.421396 0
M  V30 37621 H 3721.27 -0.0649025 0.744175 0
M  V30 37622 H 3723.94 0.544245 1.87147 0
M  V30 37623 H 3723.03 -0.364306 3.09966 0
M  V30 37624 N 3723.33 -1.56989 0.138607 0
M  V30 37625 C 3724.58 -1.95027 -0.51451 0
M  V30 37626 C 3724.9 -1.02547 -1.66563 0
M  V30 37627 O 3726.1 -1.3013 -2.38282 0
M  V30 37628 C 3724.56 -3.46674 -0.966686 0
M  V30 37629 C 3724.17 -4.47725 0.157047 0
M  V30 37630 C 3725.91 -3.93595 -1.59007 0
M  V30 37631 C 3723.82 -5.90572 -0.312927 0
M  V30 37632 H 3722.75 -0.728085 -0.195978 0
M  V30 37633 H 3725.4 -1.82157 0.221607 0
M  V30 37634 H 3723.78 -3.54848 -1.75781 0
M  V30 37635 H 3724.95 -4.51239 0.933807 0
M  V30 37636 H 3723.27 -4.10672 0.68831 0
M  V30 37637 H 3725.87 -4.9775 -1.95317 0
M  V30 37638 H 3726.21 -3.34672 -2.47589 0
M  V30 37639 H 3726.74 -3.88304 -0.863993 0
M  V30 37640 H 3723.48 -6.53294 0.537315 0
M  V30 37641 H 3723 -5.90436 -1.05574 0
M  V30 37642 H 3724.68 -6.42429 -0.767713 0
M  V30 37643 N 3724.81 0.135183 -1.57019 0
M  V30 37644 C 3726.23 0.488213 -1.51949 0
M  V30 37645 C 3726.43 1.82742 -0.848987 0
M  V30 37646 O 3725.48 2.48906 -0.424485 0
M  V30 37647 C 3726.8 0.487621 -2.9672 0
M  V30 37648 C 3728.34 0.572311 -3.07723 0
M  V30 37649 C 3728.82 0.602267 -4.54023 0
M  V30 37650 N 3730.31 0.664161 -4.58414 0
M  V30 37651 C 3731.05 0.70852 -5.69006 0
M  V30 37652 N 3730.54 0.711505 -6.89137 0
M  V30 37653 N 3732.33 0.750301 -5.5707 0
M  V30 37654 H 3724.49 -0.7425 -1.98999 0
M  V30 37655 H 3726.75 -0.272099 -0.908111 0
M  V30 37656 H 3726.45 -0.428425 -3.49081 0
M  V30 37657 H 3726.33 1.3213 -3.53301 0
M  V30 37658 H 3728.72 1.47878 -2.55375 0
M  V30 37659 H 3728.8 -0.288741 -2.54165 0
M  V30 37660 H 3728.44 -0.300089 -5.07013 0
M  V30 37661 H 3728.37 1.47998 -5.05375 0
M  V30 37662 H 3730.86 0.668674 -3.71937 0
M  V30 37663 H 3731.17 0.747528 -7.69176 0
M  V30 37664 H 3729.52 0.679189 -6.91673 0
M  V30 37665 H 3732.71 0.74522 -4.6213 0
M  V30 37666 H 3732.88 0.781405 -6.43271 0
M  V30 37667 N 3726.29 1.5231 0.404892 0
M  V30 37668 C 3727.2 1.78853 1.51819 0
M  V30 37669 C 3728.22 0.674335 1.60402 0
M  V30 37670 O 3729.39 0.960206 1.77037 0
M  V30 37671 C 3726.46 1.93746 2.87513 0
M  V30 37672 C 3725.52 3.17653 2.88782 0
M  V30 37673 C 3724.75 3.31826 4.18003 0
M  V30 37674 O 3724.97 2.51167 5.12124 0
M  V30 37675 O 3723.91 4.25 4.26214 0
M  V30 37676 H 3727.73 2.73357 1.32325 0
M  V30 37677 H 3725.32 1.37206 0.591169 0
M  V30 37678 H 3727.2 2.05339 3.67986 0
M  V30 37679 H 3725.88 1.02431 3.07066 0
M  V30 37680 H 3724.78 3.11514 2.07147 0
M  V30 37681 H 3726.12 4.08763 2.74178 0
M  V30 37682 N 3727.77 -0.662382 1.43004 0
M  V30 37683 C 3729.02 -1.42237 1.44135 0
M  V30 37684 C 3729.34 -1.944 0.0622832 0
M  V30 37685 O 3728.6 -1.72119 -0.931311 0
M  V30 37686 C 3728.9 -2.62714 2.42314 0
M  V30 37687 C 3728.56 -2.29021 3.88407 0
M  V30 37688 C 3727.23 -2.19544 4.28198 0
M  V30 37689 C 3729.58 -2.01893 4.80509 0
M  V30 37690 C 3726.91 -1.81082 5.58056 0
M  V30 37691 C 3729.26 -1.64932 6.10721 0
M  V30 37692 C 3727.92 -1.53974 6.49499 0
M  V30 37693 H 3727.19 -0.520481 0.527428 0
M  V30 37694 H 3729.84 -0.754139 1.76026 0
M  V30 37695 H 3728.14 -3.34626 2.03795 0
M  V30 37696 H 3729.84 -3.20914 2.40448 0
M  V30 37697 H 3726.43 -2.37304 3.5691 0
M  V30 37698 H 3730.61 -2.08141 4.50545 0
M  V30 37699 H 3725.87 -1.71177 5.86948 0
M  V30 37700 H 3730.04 -1.4297 6.81566 0
M  V30 37701 H 3727.67 -1.23941 7.50028 0
M  V30 37702 N 3729.25 -1.29383 -0.899882 0
M  V30 37703 C 3730.49 -1.17517 -1.6528 0
M  V30 37704 C 3730.83 0.272754 -1.92275 0
M  V30 37705 O 3730.1 1.19699 -1.53305 0
M  V30 37706 C 3730.38 -1.98872 -3.00203 0
M  V30 37707 C 3730.24 -3.51804 -2.80275 0
M  V30 37708 C 3731.56 -1.81496 -4.00933 0
M  V30 37709 H 3728.67 -0.428273 -0.599792 0
M  V30 37710 H 3731.32 -1.58854 -1.04238 0
M  V30 37711 H 3729.47 -1.63748 -3.52305 0
M  V30 37712 H 3731.14 -3.9691 -2.35075 0
M  V30 37713 H 3729.38 -3.76737 -2.15062 0
M  V30 37714 H 3730.05 -4.04 -3.76148 0
M  V30 37715 H 3732.53 -2.12175 -3.5794 0
M  V30 37716 H 3731.4 -2.40769 -4.93276 0
M  V30 37717 H 3731.67 -0.770098 -4.35341 0
M  V30 37718 N 3730.72 1.11022 -1.11856 0
M  V30 37719 C 3732 1.793 -0.781725 0
M  V30 37720 C 3732.38 1.98094 0.729525 0
M  V30 37721 O 3731.73 1.5691 1.66106 0
M  V30 37722 C 3731.94 3.12701 -1.54982 0
M  V30 37723 C 3733.29 3.87673 -1.73189 0
M  V30 37724 O 3734.31 3.22403 -1.51443 0
M  V30 37725 O 3733.17 5.04808 -2.09359 0
M  V30 37726 H 3730.26 0.776821 -0.283686 0
M  V30 37727 H 3732.81 1.17726 -1.22224 0
M  V30 37728 H 3731.58 2.94403 -2.57764 0
M  V30 37729 H 3731.21 3.8199 -1.10315 0
M  V30 37730 N 3732.2 0.90954 1.28706 0
M  V30 37731 C 3733.48 0.459618 1.90123 0
M  V30 37732 C 3733.86 -1.06135 1.82479 0
M  V30 37733 O 3733.21 -1.90756 1.25795 0
M  V30 37734 C 3733.42 0.985247 3.34804 0
M  V30 37735 C 3734.77 1.03482 4.11797 0
M  V30 37736 O 3735.79 0.933597 3.43748 0
M  V30 37737 O 3734.65 1.18834 5.33424 0
M  V30 37738 H 3731.74 0.144962 0.814196 0
M  V30 37739 H 3734.29 1.00005 1.37103 0
M  V30 37740 H 3733.06 2.02923 3.34571 0
M  V30 37741 H 3732.68 0.425398 3.95318 0
M  V30 37742 N 3733.68 -1.42505 0.673067 0
M  V30 37743 C 3734.93 -2.01165 0.194227 0
M  V30 37744 C 3735.25 -1.53479 -1.20288 0
M  V30 37745 O 3734.52 -0.755736 -1.80736 0
M  V30 37746 H 3733.1 -0.743824 0.0688153 0
M  V30 37747 H 3735.76 -1.74445 0.869187 0
M  V30 37748 H 3734.86 -3.11495 0.194166 0
M  V30 37749 N 3735.16 -0.41628 -1.52003 0
M  V30 37750 C 3736.12 0.393843 -2.25791 0
M  V30 37751 C 3737.12 0.967614 -1.28428 0
M  V30 37752 O 3738.31 0.845369 -1.52313 0
M  V30 37753 C 3735.44 1.5551 -3.03364 0
M  V30 37754 H 3736.64 -0.252544 -2.98835 0
M  V30 37755 H 3734.19 -0.168957 -1.55384 0
M  V30 37756 H 3734.92 2.23814 -2.34686 0
M  V30 37757 H 3734.71 1.15008 -3.74854 0
M  V30 37758 H 3736.2 2.12798 -3.59314 0
M  V30 37759 N 3736.64 1.56914 -0.146931 0
M  V30 37760 C 3737.89 1.95297 0.50416 0
M  V30 37761 C 3738.2 1.03429 1.66017 0
M  V30 37762 O 3739.4 1.31392 2.37589 0
M  V30 37763 C 3737.86 3.47182 0.948287 0
M  V30 37764 C 3737.47 4.47635 -0.180789 0
M  V30 37765 C 3739.21 3.94433 1.56917 0
M  V30 37766 C 3737.12 5.90729 0.281603 0
M  V30 37767 H 3736.05 0.729115 0.192114 0
M  V30 37768 H 3738.7 1.82037 -0.231264 0
M  V30 37769 H 3737.08 3.55775 1.73897 0
M  V30 37770 H 3738.26 4.50737 -0.957724 0
M  V30 37771 H 3736.57 4.10301 -0.710079 0
M  V30 37772 H 3739.17 4.98779 1.92675 0
M  V30 37773 H 3739.51 3.35981 2.4581 0
M  V30 37774 H 3740.04 3.88757 0.843388 0
M  V30 37775 H 3736.78 6.53 -0.571954 0
M  V30 37776 H 3736.3 5.90987 1.02442 0
M  V30 37777 H 3737.98 6.42827 0.733633 0
M  V30 37778 N 3738.11 -0.126854 1.57089 0
M  V30 37779 C 3739.39 -0.865869 1.75391 0
M  V30 37780 C 3739.77 -1.9843 0.720323 0
M  V30 37781 O 3739.12 -2.27048 -0.25716 0
M  V30 37782 C 3739.33 -1.3898 3.20134 0
M  V30 37783 C 3740.68 -1.84525 3.82408 0
M  V30 37784 O 3741.7 -1.48677 3.23688 0
M  V30 37785 O 3740.56 -2.50702 4.85603 0
M  V30 37786 H 3737.65 -0.410617 0.71786 0
M  V30 37787 H 3740.2 -0.111206 1.69335 0
M  V30 37788 H 3738.97 -0.586988 3.86872 0
M  V30 37789 H 3738.6 -2.20739 3.30696 0
M  V30 37790 N 3739.59 -1.52523 -0.396809 0
M  V30 37791 C 3741 -1.59213 -0.975096 0
M  V30 37792 C 3741.35 -0.440172 -1.91199 0
M  V30 37793 O 3740.48 0.437818 -2.11925 0
M  V30 37794 C 3741.07 -2.88566 -1.77526 0
M  V30 37795 C 3739.63 -2.97694 -2.30337 0
M  V30 37796 C 3738.78 -2.5426 -1.10667 0
M  V30 37797 H 3741.73 -1.57714 -0.176618 0
M  V30 37798 H 3741.75 -2.74612 -2.63379 0
M  V30 37799 H 3741.26 -3.72388 -1.09311 0
M  V30 37800 H 3739.37 -2.18392 -3.01887 0
M  V30 37801 H 3739.48 -4.02182 -2.60359 0
M  V30 37802 H 3737.84 -2.08396 -1.46435 0
M  V30 37803 H 3738.63 -3.40469 -0.440001 0
M  V30 37804 N 3741.07 0.654789 -1.43354 0
M  V30 37805 C 3742.35 1.41193 -1.35366 0
M  V30 37806 C 3742.73 2.111 -0.000698629 0
M  V30 37807 O 3742.08 2.0468 1.01579 0
M  V30 37808 C 3742.29 2.39792 -2.53576 0
M  V30 37809 C 3743.63 3.03839 -2.96593 0
M  V30 37810 O 3744.66 2.50119 -2.53612 0
M  V30 37811 O 3743.52 4.01232 -3.71046 0
M  V30 37812 H 3740.61 0.630746 -0.534872 0
M  V30 37813 H 3743.16 0.681829 -1.554 0
M  V30 37814 H 3741.93 1.87072 -3.43686 0
M  V30 37815 H 3741.55 3.20254 -2.35633 0
M  V30 37816 N 3742.55 1.29858 0.893007 0
M  V30 37817 C 3743.5 1.12176 1.98496 0
M  V30 37818 C 3744.48 0.0392352 1.60852 0
M  V30 37819 O 3745.68 0.261683 1.75055 0
M  V30 37820 C 3742.8 0.807318 3.33672 0
M  V30 37821 C 3741.89 1.92971 3.77655 0
M  V30 37822 N 3742.28 3.17409 3.93809 0
M  V30 37823 C 3740.58 1.82426 4.06985 0
M  V30 37824 C 3741.28 3.90679 4.30981 0
M  V30 37825 N 3740.26 3.1867 4.40398 0
M  V30 37826 H 3744.06 2.06566 2.09064 0
M  V30 37827 H 3741.57 1.2108 1.08228 0
M  V30 37828 H 3743.57 0.661676 4.11616 0
M  V30 37829 H 3742.23 -0.128589 3.24445 0
M  V30 37830 H 3743.24 3.52788 3.79158 0
M  V30 37831 H 3739.92 0.961508 4.06277 0
M  V30 37832 H 3741.31 4.97801 4.51269 0
M  V30 37833 N 3744.03 -1.10427 1.12443 0
M  V30 37834 C 3744.99 -2.14953 0.795481 0
M  V30 37835 C 3745.99 -1.59671 -0.190192 0
M  V30 37836 O 3747.18 -1.74164 0.0356103 0
M  V30 37837 C 3744.31 -3.40413 0.182103 0
M  V30 37838 H 3745.51 -2.45564 1.72158 0
M  V30 37839 H 3743.06 -1.25792 0.927695 0
M  V30 37840 H 3743.79 -3.1542 -0.753711 0
M  V30 37841 H 3743.58 -3.81824 0.891776 0
M  V30 37842 H 3745.07 -4.17588 -0.0315552 0
M  V30 37843 N 3745.51 -0.916353 -1.28221 0
M  V30 37844 C 3746.73 -0.566182 -1.99522 0
M  V30 37845 C 3747.16 0.846004 -1.68001 0
M  V30 37846 O 3746.51 1.56583 -0.913866 0
M  V30 37847 C 3746.56 -0.785176 -3.51948 0
M  V30 37848 O 3745.67 0.154614 -4.1211 0
M  V30 37849 H 3745.01 -0.219243 -0.62676 0
M  V30 37850 H 3747.54 -1.2325 -1.63311 0
M  V30 37851 H 3747.55 -0.696295 -4.02015 0
M  V30 37852 H 3746.22 -1.81464 -3.74224 0
M  V30 37853 H 3744.8 0.0167807 -3.72896 0
M  V30 37854 N 3746.98 1.42146 -0.680615 0
M  V30 37855 C 3748.39 1.8456 -0.281874 0
M  V30 37856 C 3748.75 1.56967 1.17711 0
M  V30 37857 O 3747.87 1.03245 1.90183 0
M  V30 37858 C 3748.47 3.35018 -0.50481 0
M  V30 37859 C 3747.02 3.76059 -0.160133 0
M  V30 37860 C 3746.17 2.65677 -0.794423 0
M  V30 37861 H 3749.12 1.31909 -0.88236 0
M  V30 37862 H 3749.14 3.79734 0.241242 0
M  V30 37863 H 3748.66 3.5507 -1.56676 0
M  V30 37864 H 3746.76 3.61613 0.898138 0
M  V30 37865 H 3746.87 4.75268 -0.604714 0
M  V30 37866 H 3745.23 2.53702 -0.225258 0
M  V30 37867 H 3746.02 2.8855 -1.85994 0
M  V30 37868 N 3748.46 0.424336 1.5178 0
M  V30 37869 C 3749.39 -0.384422 2.30314 0
M  V30 37870 C 3750.37 -1.03265 1.35168 0
M  V30 37871 O 3751.56 -1.03877 1.64083 0
M  V30 37872 C 3748.69 -1.49306 3.13568 0
M  V30 37873 C 3747.64 -0.969022 4.16886 0
M  V30 37874 C 3746.97 -2.17242 4.8858 0
M  V30 37875 C 3748.27 -0.0124695 5.22299 0
M  V30 37876 H 3749.96 0.270923 2.98172 0
M  V30 37877 H 3747.51 0.131738 1.43396 0
M  V30 37878 H 3749.46 -2.06595 3.67282 0
M  V30 37879 H 3748.18 -2.1765 2.43507 0
M  V30 37880 H 3746.84 -0.41843 3.64204 0
M  V30 37881 H 3746.49 -2.84176 4.15034 0
M  V30 37882 H 3746.19 -1.82823 5.58435 0
M  V30 37883 H 3747.72 -2.75109 5.45112 0
M  V30 37884 H 3749.13 -0.494643 5.71162 0
M  V30 37885 H 3747.53 0.243649 5.99605 0
M  V30 37886 H 3748.6 0.928214 4.75933 0
M  V30 37887 N 3749.94 -1.56833 0.15525 0
M  V30 37888 C 3750.87 -2.20185 -0.77722 0
M  V30 37889 C 3751.85 -1.15256 -1.251 0
M  V30 37890 O 3753.04 -1.43629 -1.30707 0
M  V30 37891 C 3750.17 -2.82996 -2.01321 0
M  V30 37892 C 3749.12 -3.93825 -1.6759 0
M  V30 37893 C 3748.45 -4.43609 -2.98521 0
M  V30 37894 C 3749.75 -5.14201 -0.916212 0
M  V30 37895 H 3751.44 -2.98361 -0.249205 0
M  V30 37896 H 3748.99 -1.43512 -0.118423 0
M  V30 37897 H 3750.94 -3.25985 -2.67043 0
M  V30 37898 H 3749.66 -2.02164 -2.56509 0
M  V30 37899 H 3748.32 -3.51467 -1.04244 0
M  V30 37900 H 3747.97 -3.59589 -3.51717 0
M  V30 37901 H 3747.67 -5.18367 -2.76711 0
M  V30 37902 H 3749.19 -4.89274 -3.65299 0
M  V30 37903 H 3750.61 -5.53983 -1.47568 0
M  V30 37904 H 3749 -5.94774 -0.797751 0
M  V30 37905 H 3750.07 -4.84816 0.0905203 0
M  V30 37906 N 3751.42 0.118521 -1.57154 0
M  V30 37907 C 3752.66 0.827447 -1.85152 0
M  V30 37908 C 3753 1.79505 -0.741058 0
M  V30 37909 O 3752.27 1.92847 0.253061 0
M  V30 37910 C 3752.55 1.57692 -3.23736 0
M  V30 37911 C 3752.41 0.628889 -4.45382 0
M  V30 37912 C 3753.73 2.53299 -3.599 0
M  V30 37913 H 3750.85 0.299358 -0.673464 0
M  V30 37914 H 3753.49 0.0916864 -1.89779 0
M  V30 37915 H 3751.64 2.20412 -3.19923 0
M  V30 37916 H 3753.31 0.0104935 -4.61299 0
M  V30 37917 H 3751.55 -0.0595382 -4.33759 0
M  V30 37918 H 3752.22 1.18994 -5.39022 0
M  V30 37919 H 3754.7 2.00684 -3.64507 0
M  V30 37920 H 3753.58 3.0277 -4.57844 0
M  V30 37921 H 3753.84 3.35985 -2.87344 0
M  V30 37922 N 3752.9 1.52731 0.388715 0
M  V30 37923 C 3754.12 1.71965 1.15943 0
M  V30 37924 C 3754.55 0.437205 1.82948 0
M  V30 37925 O 3753.9 -0.607042 1.70835 0
M  V30 37926 C 3753.95 2.8702 2.18293 0
M  V30 37927 O 3753.06 2.54013 3.24886 0
M  V30 37928 H 3752.4 0.571821 0.337516 0
M  V30 37929 H 3754.93 1.99524 0.452922 0
M  V30 37930 H 3754.94 3.12523 2.62284 0
M  V30 37931 H 3753.61 3.80055 1.68911 0
M  V30 37932 H 3752.19 2.39251 2.8603 0
M  V30 37933 N 3754.37 -0.647178 1.43699 0
M  V30 37934 C 3755.62 -1.40908 1.45852 0
M  V30 37935 C 3755.95 -1.94015 0.0847108 0
M  V30 37936 O 3755.23 -1.72667 -0.89534 0
M  V30 37937 C 3755.51 -2.58611 2.50584 0
M  V30 37938 C 3755.36 -2.10958 3.97262 0
M  V30 37939 C 3756.68 -3.60819 2.51987 0
M  V30 37940 H 3753.8 -0.511017 0.531065 0
M  V30 37941 H 3756.44 -0.733173 1.75284 0
M  V30 37942 H 3754.59 -3.16274 2.25616 0
M  V30 37943 H 3756.27 -1.58249 4.33307 0
M  V30 37944 H 3754.51 -1.42277 4.09805 0
M  V30 37945 H 3755.18 -2.95625 4.66165 0
M  V30 37946 H 3757.66 -3.12927 2.74256 0
M  V30 37947 H 3756.53 -4.40718 3.27199 0
M  V30 37948 H 3756.79 -4.13817 1.55589 0
M  V30 37949 N 3755.85 -1.3033 -0.886108 0
M  V30 37950 C 3757.1 -1.19087 -1.63782 0
M  V30 37951 C 3757.43 0.254664 -1.92826 0
M  V30 37952 O 3756.68 1.1988 -1.54684 0
M  V30 37953 C 3756.98 -1.96369 -2.9862 0
M  V30 37954 C 3756.65 -3.45996 -2.89133 0
M  V30 37955 C 3755.31 -3.86799 -2.86252 0
M  V30 37956 C 3757.66 -4.41283 -2.77342 0
M  V30 37957 C 3754.99 -5.21182 -2.69419 0
M  V30 37958 C 3757.34 -5.75773 -2.62047 0
M  V30 37959 C 3756.01 -6.15816 -2.57541 0
M  V30 37960 H 3755.28 -0.435772 -0.59932 0
M  V30 37961 H 3757.92 -1.61419 -1.03034 0
M  V30 37962 H 3756.23 -1.46668 -3.63312 0
M  V30 37963 H 3757.92 -1.85063 -3.55742 0
M  V30 37964 H 3754.51 -3.13571 -2.92184 0
M  V30 37965 H 3758.7 -4.10702 -2.78635 0
M  V30 37966 H 3753.95 -5.51301 -2.64343 0
M  V30 37967 H 3758.13 -6.49246 -2.51898 0
M  V30 37968 H 3755.76 -7.19891 -2.44255 0
M  V30 37969 N 3757.33 1.0983 -1.13028 0
M  V30 37970 C 3758.26 2.18388 -0.826377 0
M  V30 37971 C 3759.24 1.68767 0.212499 0
M  V30 37972 O 3760.43 1.94065 0.0723288 0
M  V30 37973 C 3757.56 3.46112 -0.287052 0
M  V30 37974 C 3756.51 4.09042 -1.2597 0
M  V30 37975 C 3755.84 5.31541 -0.580324 0
M  V30 37976 C 3757.14 4.52025 -2.61669 0
M  V30 37977 H 3758.83 2.44067 -1.73412 0
M  V30 37978 H 3756.38 1.17303 -0.835221 0
M  V30 37979 H 3758.33 4.21354 -0.0621411 0
M  V30 37980 H 3757.05 3.19943 0.656064 0
M  V30 37981 H 3755.71 3.35814 -1.47053 0
M  V30 37982 H 3755.36 5.01651 0.368134 0
M  V30 37983 H 3755.06 5.74599 -1.2292 0
M  V30 37984 H 3756.58 6.0951 -0.364597 0
M  V30 37985 H 3758 5.18512 -2.44578 0
M  V30 37986 H 3756.4 5.05953 -3.22694 0
M  V30 37987 H 3757.47 3.64632 -3.19643 0
M  V30 37988 N 3758.81 0.92314 1.27734 0
M  V30 37989 C 3759.72 0.424165 2.30734 0
M  V30 37990 C 3760.73 -0.492881 1.66873 0
M  V30 37991 O 3761.91 -0.376795 1.97844 0
M  V30 37992 C 3758.98 -0.319194 3.45228 0
M  V30 37993 C 3758.04 0.632211 4.24619 0
M  V30 37994 C 3757.27 -0.0757658 5.33646 0
M  V30 37995 O 3757.49 -1.29592 5.55484 0
M  V30 37996 O 3756.43 0.593729 5.98964 0
M  V30 37997 H 3760.25 1.27928 2.75442 0
M  V30 37998 H 3757.84 0.688312 1.326 0
M  V30 37999 H 3759.72 -0.738657 4.14876 0
M  V30 38000 H 3758.39 -1.14999 3.02584 0
M  V30 38001 H 3757.3 1.10126 3.57523 0
M  V30 38002 H 3758.63 1.43009 4.70966 0
M  V30 38003 N 3760.29 -1.41783 0.688143 0
M  V30 38004 C 3761.23 -2.30793 0.0181396 0
M  V30 38005 C 3762.2 -1.46701 -0.778983 0
M  V30 38006 O 3763.39 -1.75504 -0.748526 0
M  V30 38007 C 3760.53 -3.32676 -0.917631 0
M  V30 38008 C 3759.64 -4.31852 -0.112914 0
M  V30 38009 C 3758.78 -5.20807 -1.04565 0
M  V30 38010 C 3757.82 -6.11655 -0.233401 0
M  V30 38011 N 3756.95 -6.93117 -1.11955 0
M  V30 38012 H 3761.79 -2.8753 0.782961 0
M  V30 38013 H 3759.33 -1.41618 0.397831 0
M  V30 38014 H 3761.29 -3.90288 -1.47414 0
M  V30 38015 H 3759.92 -2.77507 -1.64893 0
M  V30 38016 H 3758.97 -3.76249 0.56041 0
M  V30 38017 H 3760.28 -4.96112 0.51712 0
M  V30 38018 H 3759.44 -5.83216 -1.67164 0
M  V30 38019 H 3758.17 -4.56756 -1.70955 0
M  V30 38020 H 3757.18 -5.48301 0.405711 0
M  V30 38021 H 3758.4 -6.77759 0.426598 0
M  V30 38022 H 3756.35 -6.31681 -1.7696 0
M  V30 38023 H 3756.27 -7.54034 -0.544909 0
M  V30 38024 H 3757.54 -7.60001 -1.73258 0
M  V30 38025 N 3761.76 -0.432379 -1.51553 0
M  V30 38026 C 3763.04 0.195438 -1.94621 0
M  V30 38027 C 3763.42 1.60542 -1.37075 0
M  V30 38028 O 3762.77 2.21637 -0.55582 0
M  V30 38029 C 3762.98 0.178206 -3.48545 0
M  V30 38030 C 3764.33 0.386209 -4.2284 0
M  V30 38031 O 3765.35 0.256541 -3.55275 0
M  V30 38032 O 3764.21 0.643831 -5.42694 0
M  V30 38033 H 3761.3 0.132641 -0.816294 0
M  V30 38034 H 3763.85 -0.49 -1.62472 0
M  V30 38035 H 3762.62 -0.807726 -3.82873 0
M  V30 38036 H 3762.25 0.906764 -3.87122 0
M  V30 38037 N 3763.24 1.56749 -0.163565 0
M  V30 38038 C 3764.49 1.96646 0.483369 0
M  V30 38039 C 3764.82 1.04921 1.63774 0
M  V30 38040 O 3764.07 0.0817172 1.95529 0
M  V30 38041 C 3764.37 3.42677 1.01524 0
M  V30 38042 C 3764.04 4.50894 -0.0224194 0
M  V30 38043 C 3762.7 4.80216 -0.307624 0
M  V30 38044 C 3765.05 5.16103 -0.727155 0
M  V30 38045 C 3762.38 5.72046 -1.30309 0
M  V30 38046 C 3764.73 6.09006 -1.71155 0
M  V30 38047 C 3763.4 6.36698 -2.00428 0
M  V30 38048 H 3762.67 0.71958 0.176877 0
M  V30 38049 H 3765.31 1.89809 -0.253892 0
M  V30 38050 H 3763.62 3.46428 1.83017 0
M  V30 38051 H 3765.31 3.70884 1.52466 0
M  V30 38052 H 3761.9 4.28085 0.210049 0
M  V30 38053 H 3766.09 4.93568 -0.520021 0
M  V30 38054 H 3761.34 5.91788 -1.53615 0
M  V30 38055 H 3765.52 6.58604 -2.26304 0
M  V30 38056 H 3763.15 7.07658 -2.77713 0
M  V30 38057 N 3764.72 -0.110185 1.57214 0
M  V30 38058 C 3765.68 -1.11885 2.00036 0
M  V30 38059 C 3766.68 -1.3381 0.89172 0
M  V30 38060 O 3767.87 -1.30178 1.15756 0
M  V30 38061 C 3765.01 -2.47138 2.3481 0
M  V30 38062 H 3766.2 -0.750596 2.90355 0
M  V30 38063 H 3763.75 -0.354763 1.52221 0
M  V30 38064 H 3764.49 -2.88867 1.47398 0
M  V30 38065 H 3764.27 -2.32576 3.15675 0
M  V30 38066 H 3765.76 -3.19714 2.6865 0
M  V30 38067 N 3766.2 -1.52935 -0.38061 0
M  V30 38068 C 3767.45 -1.68388 -1.12481 0
M  V30 38069 C 3767.77 -0.428027 -1.89732 0
M  V30 38070 O 3767.03 0.589762 -1.86602 0
M  V30 38071 C 3767.33 -2.87538 -2.12265 0
M  V30 38072 C 3766.99 -4.24648 -1.51608 0
M  V30 38073 C 3765.66 -4.61936 -1.34792 0
M  V30 38074 C 3768.01 -5.09975 -1.07586 0
M  V30 38075 C 3765.34 -5.82201 -0.725151 0
M  V30 38076 C 3767.69 -6.30873 -0.467162 0
M  V30 38077 C 3766.35 -6.66885 -0.286371 0
M  V30 38078 H 3765.62 -0.616174 -0.411595 0
M  V30 38079 H 3768.27 -1.87094 -0.408402 0
M  V30 38080 H 3766.57 -2.63282 -2.90155 0
M  V30 38081 H 3768.27 -2.96689 -2.69771 0
M  V30 38082 H 3764.86 -3.9528 -1.65686 0
M  V30 38083 H 3769.04 -4.81729 -1.19377 0
M  V30 38084 H 3764.3 -6.08706 -0.573354 0
M  V30 38085 H 3768.47 -6.963 -0.117792 0
M  V30 38086 H 3766.1 -7.59941 0.198274 0
M  V30 38087 N 3767.68 0.639548 -1.4404 0
M  V30 38088 C 3768.92 1.40133 -1.46597 0
M  V30 38089 C 3769.26 1.93968 -0.0949987 0
M  V30 38090 O 3768.53 1.73139 0.88617 0
M  V30 38091 C 3768.81 2.57279 -2.51952 0
M  V30 38092 C 3768.67 2.08848 -3.98375 0
M  V30 38093 C 3769.99 3.59478 -2.53897 0
M  V30 38094 H 3767.1 0.508194 -0.533768 0
M  V30 38095 H 3769.75 0.723867 -1.75671 0
M  V30 38096 H 3767.9 3.15073 -2.27291 0
M  V30 38097 H 3769.57 1.55949 -4.3414 0
M  V30 38098 H 3767.81 1.40101 -4.10553 0
M  V30 38099 H 3768.48 2.93149 -4.67726 0
M  V30 38100 H 3770.96 3.11468 -2.75911 0
M  V30 38101 H 3769.83 4.38976 -3.29532 0
M  V30 38102 H 3770.1 4.12986 -1.57781 0
M  V30 38103 N 3769.15 1.30798 0.879184 0
M  V30 38104 C 3770.4 1.20132 1.63389 0
M  V30 38105 C 3770.73 -0.24213 1.92685 0
M  V30 38106 O 3770.01 -1.17245 1.5519 0
M  V30 38107 C 3770.29 2.03623 2.97001 0
M  V30 38108 C 3770.14 3.56218 2.74642 0
M  V30 38109 C 3771.46 1.87852 3.97995 0
M  V30 38110 H 3768.58 0.437761 0.592903 0
M  V30 38111 H 3771.22 1.60492 1.01697 0
M  V30 38112 H 3769.37 1.69332 3.49656 0
M  V30 38113 H 3771.05 4.00599 2.28731 0
M  V30 38114 H 3769.29 3.80111 2.09041 0
M  V30 38115 H 3769.96 4.09934 3.69673 0
M  V30 38116 H 3772.44 2.17843 3.54519 0
M  V30 38117 H 3771.31 2.48586 4.89383 0
M  V30 38118 H 3771.57 0.839259 4.34061 0
M  V30 38119 N 3770.63 -1.09229 1.13608 0
M  V30 38120 C 3771.86 -1.85744 0.922699 0
M  V30 38121 C 3772.28 -1.80673 -0.523349 0
M  V30 38122 O 3771.64 -1.18568 -1.37154 0
M  V30 38123 C 3771.69 -3.31563 1.41768 0
M  V30 38124 O 3770.79 -4.07949 0.604252 0
M  V30 38125 H 3770.13 -0.575885 0.330533 0
M  V30 38126 H 3772.66 -1.37921 1.51126 0
M  V30 38127 H 3772.67 -3.82411 1.42219 0
M  V30 38128 H 3771.35 -3.3457 2.47054 0
M  V30 38129 H 3769.93 -3.66872 0.667785 0
M  V30 38130 N 3772.11 -0.929901 -1.27242 0
M  V30 38131 C 3773.34 -0.587312 -1.98911 0
M  V30 38132 C 3773.76 0.828138 -1.68889 0
M  V30 38133 O 3773.12 1.55605 -0.930422 0
M  V30 38134 C 3773.17 -0.822461 -3.51095 0
M  V30 38135 O 3772.27 0.110896 -4.12251 0
M  V30 38136 H 3771.61 -0.225878 -0.6244 0
M  V30 38137 H 3774.14 -1.24975 -1.61995 0
M  V30 38138 H 3774.15 -0.738895 -4.01253 0
M  V30 38139 H 3772.83 -1.85423 -3.72278 0
M  V30 38140 H 3771.4 -0.0227709 -3.72893 0
M  V30 38141 N 3773.59 1.41416 -0.695653 0
M  V30 38142 C 3774.5 2.3458 -0.030879 0
M  V30 38143 C 3775.52 1.56233 0.765973 0
M  V30 38144 O 3776.69 1.88713 0.703515 0
M  V30 38145 C 3773.76 3.34973 0.894103 0
M  V30 38146 C 3772.82 4.29207 0.0894477 0
M  V30 38147 C 3772.05 5.24804 0.970375 0
M  V30 38148 O 3772.27 5.25852 2.20987 0
M  V30 38149 O 3771.21 6.00433 0.420009 0
M  V30 38150 H 3775.03 2.93006 -0.798826 0
M  V30 38151 H 3772.62 1.42271 -0.455989 0
M  V30 38152 H 3774.5 3.96592 1.42452 0
M  V30 38153 H 3773.18 2.7899 1.64154 0
M  V30 38154 H 3772.08 3.70935 -0.485565 0
M  V30 38155 H 3773.42 4.88288 -0.619327 0
M  V30 38156 N 3775.07 0.44041 1.51321 0
M  V30 38157 C 3776.03 -0.357871 2.26389 0
M  V30 38158 C 3777.03 -0.94706 1.29952 0
M  V30 38159 O 3778.22 -0.82103 1.53638 0
M  V30 38160 C 3775.35 -1.50664 3.05799 0
M  V30 38161 H 3776.55 0.300054 2.98395 0
M  V30 38162 H 3774.1 0.193656 1.55096 0
M  V30 38163 H 3774.83 -2.20052 2.38217 0
M  V30 38164 H 3774.62 -1.0903 3.76636 0
M  V30 38165 H 3776.11 -2.07055 3.62654 0
M  V30 38166 N 3776.55 -1.5666 0.171876 0
M  V30 38167 C 3777.82 -1.8858 -0.519322 0
M  V30 38168 C 3778.2 -1.08185 -1.81271 0
M  V30 38169 O 3777.55 -0.175935 -2.27822 0
M  V30 38170 C 3777.76 -3.40609 -0.760683 0
M  V30 38171 C 3779.11 -4.10359 -1.09043 0
M  V30 38172 O 3780.13 -3.45929 -0.849203 0
M  V30 38173 O 3778.99 -5.24189 -1.54557 0
M  V30 38174 H 3776.09 -0.782451 -0.267768 0
M  V30 38175 H 3778.63 -1.68391 0.210353 0
M  V30 38176 H 3777.4 -3.90998 0.153645 0
M  V30 38177 H 3777.03 -3.66411 -1.54366 0
M  V30 38178 N 3778.02 0.101846 -1.57271 0
M  V30 38179 C 3778.99 1.10822 -2.00627 0
M  V30 38180 C 3779.99 1.33335 -0.898804 0
M  V30 38181 O 3781.18 1.29562 -1.16445 0
M  V30 38182 C 3778.31 2.45889 -2.36117 0
M  V30 38183 H 3779.5 0.735187 -2.90749 0
M  V30 38184 H 3777.05 0.346686 -1.52407 0
M  V30 38185 H 3777.79 2.88081 -1.48928 0
M  V30 38186 H 3777.57 2.30899 -3.16904 0
M  V30 38187 H 3779.06 3.18285 -2.70342 0
M  V30 38188 N 3779.5 1.53135 0.372494 0
M  V30 38189 C 3780.92 1.42753 0.713702 0
M  V30 38190 C 3781.12 0.561085 1.93531 0
M  V30 38191 O 3780.17 0.0408639 2.52467 0
M  V30 38192 C 3781.49 2.85847 0.933367 0
M  V30 38193 C 3783.03 2.95434 1.03381 0
M  V30 38194 C 3783.51 4.39575 1.286 0
M  V30 38195 N 3785 4.42973 1.35385 0
M  V30 38196 C 3785.74 5.51603 1.56594 0
M  V30 38197 N 3785.23 6.7029 1.75166 0
M  V30 38198 N 3787.02 5.3917 1.58908 0
M  V30 38199 H 3779.18 2.07979 -0.431104 0
M  V30 38200 H 3781.44 0.938937 -0.130774 0
M  V30 38201 H 3781.14 3.51535 0.107645 0
M  V30 38202 H 3781.02 3.29086 1.84342 0
M  V30 38203 H 3783.41 2.29904 1.85008 0
M  V30 38204 H 3783.49 2.55599 0.101301 0
M  V30 38205 H 3783.13 5.05676 0.474761 0
M  V30 38206 H 3783.06 4.76977 2.23161 0
M  V30 38207 H 3785.55 3.57434 1.22675 0
M  V30 38208 H 3785.86 7.4885 1.90903 0
M  V30 38209 H 3784.21 6.73289 1.72358 0
M  V30 38210 H 3787.4 4.45413 1.43962 0
M  V30 38211 H 3787.57 6.23895 1.75097 0
M  V30 38212 N 3780.98 -0.6319 1.44377 0
M  V30 38213 C 3781.94 -1.72579 1.50828 0
M  V30 38214 C 3782.94 -1.55989 0.390406 0
M  V30 38215 O 3784.13 -1.61498 0.652998 0
M  V30 38216 C 3781.26 -3.11654 1.38146 0
M  V30 38217 H 3782.46 -1.68235 2.48268 0
M  V30 38218 H 3780.01 -0.845491 1.31458 0
M  V30 38219 H 3780.75 -3.21595 0.417962 0
M  V30 38220 H 3780.53 -3.25103 2.19204 0
M  V30 38221 H 3782.02 -3.91381 1.45639 0
M  V30 38222 N 3782.46 -1.31262 -0.872235 0
M  V30 38223 C 3783.7 -1.20818 -1.62509 0
M  V30 38224 C 3784.03 0.234198 -1.93085 0
M  V30 38225 O 3783.29 1.18233 -1.55947 0
M  V30 38226 C 3783.59 -1.99525 -2.96521 0
M  V30 38227 C 3783.25 -3.49043 -2.85447 0
M  V30 38228 C 3781.91 -3.89813 -2.82134 0
M  V30 38229 C 3784.27 -4.442 -2.72646 0
M  V30 38230 C 3781.59 -5.2401 -2.63876 0
M  V30 38231 C 3783.95 -5.7852 -2.55926 0
M  V30 38232 C 3782.61 -6.18513 -2.50995 0
M  V30 38233 H 3781.88 -0.442104 -0.594664 0
M  V30 38234 H 3784.53 -1.62503 -1.01316 0
M  V30 38235 H 3782.83 -1.50514 -3.61736 0
M  V30 38236 H 3784.53 -1.88826 -3.53759 0
M  V30 38237 H 3781.12 -3.16652 -2.88841 0
M  V30 38238 H 3785.3 -4.13634 -2.74263 0
M  V30 38239 H 3780.56 -5.54073 -2.58481 0
M  V30 38240 H 3784.73 -6.51881 -2.44997 0
M  V30 38241 H 3782.36 -7.22441 -2.36606 0
M  V30 38242 N 3783.94 1.08625 -1.14186 0
M  V30 38243 C 3785.18 1.81235 -0.910042 0
M  V30 38244 C 3785.51 1.85887 0.562101 0
M  V30 38245 O 3784.79 1.3331 1.41629 0
M  V30 38246 C 3785.07 3.26964 -1.50885 0
M  V30 38247 C 3784.93 3.30535 -3.05069 0
M  V30 38248 C 3786.24 4.23878 -1.18386 0
M  V30 38249 H 3783.36 0.657967 -0.332037 0
M  V30 38250 H 3786.01 1.27192 -1.41146 0
M  V30 38251 H 3784.16 3.73116 -1.08243 0
M  V30 38252 H 3785.83 2.92724 -3.56525 0
M  V30 38253 H 3784.07 2.69874 -3.39633 0
M  V30 38254 H 3784.74 4.33233 -3.42071 0
M  V30 38255 H 3787.22 3.86053 -1.55249 0
M  V30 38256 H 3786.09 5.24164 -1.62921 0
M  V30 38257 H 3786.35 4.4199 -0.0988162 0
M  V30 38258 N 3785.41 0.936635 1.26747 0
M  V30 38259 C 3786.32 0.448613 2.30271 0
M  V30 38260 C 3787.34 -0.475154 1.67387 0
M  V30 38261 O 3788.52 -0.35579 1.98232 0
M  V30 38262 C 3785.58 -0.28256 3.45547 0
M  V30 38263 C 3784.64 0.677212 4.23925 0
M  V30 38264 C 3783.88 -0.0191612 5.33697 0
M  V30 38265 O 3784.1 -1.23693 5.56827 0
M  V30 38266 O 3783.03 0.657224 5.98301 0
M  V30 38267 H 3786.86 1.30842 2.74069 0
M  V30 38268 H 3784.44 0.702337 1.31862 0
M  V30 38269 H 3786.33 -0.694613 4.15636 0
M  V30 38270 H 3785 -1.11783 3.03786 0
M  V30 38271 H 3783.91 1.13912 3.56335 0
M  V30 38272 H 3785.24 1.47997 4.69423 0
M  V30 38273 N 3786.89 -1.41045 0.703143 0
M  V30 38274 C 3788.14 -2.01105 0.237322 0
M  V30 38275 C 3788.47 -1.55713 -1.16549 0
M  V30 38276 O 3787.72 -0.762565 -1.80232 0
M  V30 38277 C 3788.02 -3.56513 0.251637 0
M  V30 38278 C 3787.69 -4.21443 1.60302 0
M  V30 38279 C 3786.35 -4.38893 1.97297 0
M  V30 38280 C 3788.7 -4.57779 2.49175 0
M  V30 38281 C 3786.03 -4.89958 3.22735 0
M  V30 38282 C 3788.38 -5.10238 3.73952 0
M  V30 38283 C 3787.05 -5.25898 4.11081 0
M  V30 38284 H 3786.32 -0.735894 0.0868423 0
M  V30 38285 H 3788.96 -1.68834 0.903725 0
M  V30 38286 H 3787.27 -3.88618 -0.498325 0
M  V30 38287 H 3788.96 -4.00801 -0.12643 0
M  V30 38288 H 3785.55 -4.0824 1.3053 0
M  V30 38289 H 3789.74 -4.43945 2.21872 0
M  V30 38290 H 3784.99 -5.00268 3.51486 0
M  V30 38291 H 3789.17 -5.37332 4.42998 0
M  V30 38292 H 3786.8 -5.6523 5.0835 0
M  V30 38293 N 3788.37 -0.448429 -1.51086 0
M  V30 38294 C 3789.65 0.174785 -1.94818 0
M  V30 38295 C 3790.03 1.59079 -1.3877 0
M  V30 38296 O 3789.38 2.21035 -0.579296 0
M  V30 38297 C 3789.59 0.141228 -3.48714 0
M  V30 38298 C 3790.93 0.341339 -4.23226 0
M  V30 38299 O 3791.96 0.218845 -3.55527 0
M  V30 38300 O 3790.82 0.586235 -5.43347 0
M  V30 38301 H 3787.91 0.123976 -0.817655 0
M  V30 38302 H 3790.46 -0.507205 -1.61943 0
M  V30 38303 H 3789.23 -0.848289 -3.81994 0
M  V30 38304 H 3788.85 0.865654 -3.88062 0
M  V30 38305 N 3789.85 1.56567 -0.180181 0
M  V30 38306 C 3791.26 1.8367 0.335022 0
M  V30 38307 C 3791.61 1.10033 1.62441 0
M  V30 38308 O 3790.74 0.356243 2.13448 0
M  V30 38309 C 3791.33 3.33178 0.614621 0
M  V30 38310 C 3789.89 3.60745 1.07424 0
M  V30 38311 C 3789.04 2.77062 0.114828 0
M  V30 38312 H 3791.99 1.53464 -0.404272 0
M  V30 38313 H 3792.01 3.51138 1.46567 0
M  V30 38314 H 3791.52 3.86745 -0.323991 0
M  V30 38315 H 3789.62 3.12598 2.02765 0
M  V30 38316 H 3789.73 4.69027 0.977266 0
M  V30 38317 H 3788.1 2.47191 0.613889 0
M  V30 38318 H 3788.88 3.33413 -0.817963 0
M  V30 38319 N 3791.33 -0.0935042 1.57322 0
M  V30 38320 C 3792.24 -1.13165 2.05501 0
M  V30 38321 C 3793.25 -1.43762 0.980224 0
M  V30 38322 O 3794.43 -1.54372 1.29349 0
M  V30 38323 C 3791.49 -2.43177 2.47115 0
M  V30 38324 C 3790.55 -2.19748 3.68795 0
M  V30 38325 C 3789.79 -3.4356 4.08415 0
M  V30 38326 O 3790.01 -4.51857 3.48112 0
M  V30 38327 O 3788.94 -3.33053 5.01357 0
M  V30 38328 H 3792.77 -0.75244 2.94231 0
M  V30 38329 H 3790.36 -0.306126 1.4623 0
M  V30 38330 H 3792.24 -3.1973 2.74501 0
M  V30 38331 H 3790.91 -2.80521 1.61523 0
M  V30 38332 H 3789.82 -1.4097 3.46523 0
M  V30 38333 H 3791.15 -1.87295 4.55172 0
M  V30 38334 N 3792.8 -1.5333 -0.364368 0
M  V30 38335 C 3793.75 -1.76234 -1.44657 0
M  V30 38336 C 3794.74 -0.61691 -1.48604 0
M  V30 38337 O 3795.93 -0.875616 -1.53824 0
M  V30 38338 C 3793.06 -1.95676 -2.82074 0
M  V30 38339 C 3792.15 -3.16224 -2.82601 0
M  V30 38340 N 3792.54 -4.38109 -2.52773 0
M  V30 38341 C 3790.83 -3.16971 -3.1376 0
M  V30 38342 C 3791.54 -5.19855 -2.61008 0
M  V30 38343 N 3790.51 -4.56094 -2.95769 0
M  V30 38344 H 3794.31 -2.68079 -1.2046 0
M  V30 38345 H 3791.83 -1.51972 -0.572562 0
M  V30 38346 H 3793.82 -2.10213 -3.60023 0
M  V30 38347 H 3792.48 -1.05059 -3.07234 0
M  V30 38348 H 3793.5 -4.6582 -2.26345 0
M  V30 38349 H 3790.17 -2.36251 -3.44227 0
M  V30 38350 H 3791.56 -6.27082 -2.41283 0
M  V30 38351 N 3794.28 0.624234 -1.4471 0
M  V30 38352 C 3795.51 1.41069 -1.51351 0
M  V30 38353 C 3795.93 1.88276 -0.140609 0
M  V30 38354 O 3795.28 1.61244 0.854793 0
M  V30 38355 C 3795.33 2.62639 -2.48401 0
M  V30 38356 O 3795.05 2.17399 -3.80354 0
M  V30 38357 C 3796.56 3.5569 -2.64575 0
M  V30 38358 H 3793.78 0.4324 -0.5131 0
M  V30 38359 H 3796.32 0.762808 -1.89741 0
M  V30 38360 H 3794.47 3.23504 -2.13128 0
M  V30 38361 H 3794.89 2.96264 -4.32814 0
M  V30 38362 H 3796.36 4.37579 -3.36494 0
M  V30 38363 H 3796.84 4.04949 -1.70039 0
M  V30 38364 H 3797.45 3.00689 -3.00776 0
M  V30 38365 N 3795.76 1.31723 0.865262 0
M  V30 38366 C 3797.01 1.21858 1.62106 0
M  V30 38367 C 3797.34 -0.22168 1.92931 0
M  V30 38368 O 3796.61 -1.15592 1.56425 0
M  V30 38369 C 3796.9 2.06762 2.94825 0
M  V30 38370 C 3796.75 3.59111 2.70849 0
M  V30 38371 C 3798.07 1.92062 3.9598 0
M  V30 38372 H 3795.19 0.444025 0.588227 0
M  V30 38373 H 3797.83 1.61562 0.999894 0
M  V30 38374 H 3795.98 1.73031 3.4784 0
M  V30 38375 H 3797.65 4.03003 2.2447 0
M  V30 38376 H 3795.9 3.82307 2.04998 0
M  V30 38377 H 3796.57 4.13831 3.65305 0
M  V30 38378 H 3799.04 2.2159 3.52189 0
M  V30 38379 H 3797.92 2.53763 4.86719 0
M  V30 38380 H 3798.18 0.88525 4.33146 0
M  V30 38381 N 3797.24 -1.08018 1.14761 0
M  V30 38382 C 3798.49 -1.79861 0.912854 0
M  V30 38383 C 3798.8 -1.87357 -0.56184 0
M  V30 38384 O 3800.01 -2.55654 -0.91397 0
M  V30 38385 C 3798.46 -3.2318 1.58375 0
M  V30 38386 C 3798.07 -3.23905 3.09498 0
M  V30 38387 C 3799.81 -3.99679 1.43028 0
M  V30 38388 C 3797.72 -4.61837 3.69406 0
M  V30 38389 H 3796.65 -0.674058 0.337879 0
M  V30 38390 H 3799.3 -1.21292 1.37697 0
M  V30 38391 H 3797.68 -3.819 1.04731 0
M  V30 38392 H 3798.86 -2.7487 3.69842 0
M  V30 38393 H 3797.17 -2.60902 3.24529 0
M  V30 38394 H 3799.77 -5.01609 1.85183 0
M  V30 38395 H 3800.11 -4.1459 0.376887 0
M  V30 38396 H 3800.65 -3.47438 1.9373 0
M  V30 38397 H 3797.39 -4.52129 4.74615 0
M  V30 38398 H 3796.91 -5.11138 3.13844 0
M  V30 38399 H 3798.58 -5.3081 3.69933 0
M  V30 38400 N 3798.72 -0.943344 -1.26249 0
M  V30 38401 C 3800.13 -0.645992 -1.45942 0
M  V30 38402 C 3800.33 0.800031 -1.84937 0
M  V30 38403 O 3799.39 1.57646 -1.97241 0
M  V30 38404 C 3800.7 -1.60927 -2.54014 0
M  V30 38405 C 3802.25 -1.6192 -2.67863 0
M  V30 38406 C 3802.72 -2.56983 -3.79109 0
M  V30 38407 N 3804.22 -2.55282 -3.86504 0
M  V30 38408 C 3804.95 -3.25521 -4.72042 0
M  V30 38409 N 3804.45 -4.05194 -5.61952 0
M  V30 38410 N 3806.24 -3.14463 -4.65907 0
M  V30 38411 H 3798.39 -1.87798 -0.992262 0
M  V30 38412 H 3800.65 -0.807159 -0.49719 0
M  V30 38413 H 3800.36 -2.64159 -2.32192 0
M  V30 38414 H 3800.23 -1.363 -3.51713 0
M  V30 38415 H 3802.62 -0.594118 -2.89058 0
M  V30 38416 H 3802.7 -1.90601 -1.70601 0
M  V30 38417 H 3802.35 -3.59611 -3.58667 0
M  V30 38418 H 3802.28 -2.25591 -4.75832 0
M  V30 38419 H 3804.77 -1.97431 -3.22226 0
M  V30 38420 H 3805.08 -4.55736 -6.24119 0
M  V30 38421 H 3803.42 -4.09294 -5.61697 0
M  V30 38422 H 3806.62 -2.517 -3.94671 0
M  V30 38423 H 3806.79 -3.6947 -5.32349 0
M  V30 38424 N 3800.2 1.4067 -0.710613 0
M  V30 38425 C 3801.61 1.8392 -0.320958 0
M  V30 38426 C 3801.96 1.59428 1.14355 0
M  V30 38427 O 3801.08 1.07255 1.8795 0
M  V30 38428 C 3801.68 3.33872 -0.575759 0
M  V30 38429 C 3800.24 3.75635 -0.239865 0
M  V30 38430 C 3799.38 2.63932 -0.850599 0
M  V30 38431 H 3802.33 1.30008 -0.910141 0
M  V30 38432 H 3802.36 3.80161 0.16064 0
M  V30 38433 H 3801.87 3.51666 -1.64172 0
M  V30 38434 H 3799.97 3.63437 0.821233 0
M  V30 38435 H 3800.08 4.73879 -0.705389 0
M  V30 38436 H 3798.45 2.53167 -0.279021 0
M  V30 38437 H 3799.23 2.8454 -1.92073 0
M  V30 38438 N 3801.67 0.456435 1.50846 0
M  V30 38439 C 3802.92 -0.103736 2.02535 0
M  V30 38440 C 3803.25 -1.4068 1.33876 0
M  V30 38441 O 3802.53 -1.88989 0.459728 0
M  V30 38442 C 3802.81 -0.302754 3.58825 0
M  V30 38443 C 3802.66 1.0203 4.38075 0
M  V30 38444 C 3803.98 -1.06396 4.27045 0
M  V30 38445 H 3801.1 -0.0362269 0.736109 0
M  V30 38446 H 3803.74 0.599165 1.80305 0
M  V30 38447 H 3801.89 -0.901475 3.77896 0
M  V30 38448 H 3803.57 1.65447 4.3061 0
M  V30 38449 H 3801.81 1.62043 4.02398 0
M  V30 38450 H 3802.48 0.834862 5.4565 0
M  V30 38451 H 3804.96 -0.556626 4.1236 0
M  V30 38452 H 3803.83 -1.172 5.36242 0
M  V30 38453 H 3804.09 -2.0969 3.89207 0
M  V30 38454 N 3803.15 -1.56469 0.188482 0
M  V30 38455 C 3804.56 -1.83845 -0.325277 0
M  V30 38456 C 3804.91 -1.10893 -1.61856 0
M  V30 38457 O 3804.04 -0.367557 -2.13256 0
M  V30 38458 C 3804.63 -3.335 -0.596943 0
M  V30 38459 C 3803.19 -3.6131 -1.05509 0
M  V30 38460 C 3802.34 -2.77119 -0.100133 0
M  V30 38461 H 3805.29 -1.53248 0.412405 0
M  V30 38462 H 3805.31 -3.51911 -1.44703 0
M  V30 38463 H 3804.82 -3.86568 0.344497 0
M  V30 38464 H 3802.92 -3.13669 -2.01104 0
M  V30 38465 H 3803.04 -4.69539 -0.952379 0
M  V30 38466 H 3801.4 -2.47513 -0.600772 0
M  V30 38467 H 3802.18 -3.32975 0.835633 0
M  V30 38468 N 3804.63 0.0851597 -1.5737 0
M  V30 38469 C 3805.91 0.819063 -1.77625 0
M  V30 38470 C 3806.29 1.96451 -0.77268 0
M  V30 38471 O 3805.63 2.2765 0.196872 0
M  V30 38472 C 3805.84 1.30443 -3.23706 0
M  V30 38473 C 3807.19 1.74321 -3.87166 0
M  V30 38474 O 3808.22 1.40042 -3.27516 0
M  V30 38475 O 3807.08 2.37739 -4.9208 0
M  V30 38476 H 3804.17 0.39144 -0.728494 0
M  V30 38477 H 3806.72 0.0662708 -1.69571 0
M  V30 38478 H 3805.49 0.484209 -3.88293 0
M  V30 38479 H 3805.11 2.11894 -3.36432 0
M  V30 38480 N 3806.11 1.53521 0.356231 0
M  V30 38481 C 3807.33 1.74385 1.1227 0
M  V30 38482 C 3807.76 0.475913 1.8198 0
M  V30 38483 O 3807.12 -0.570669 1.72084 0
M  V30 38484 C 3807.16 2.91586 2.12156 0
M  V30 38485 O 3806.27 2.60848 3.19425 0
M  V30 38486 H 3805.61 0.578851 0.325311 0
M  V30 38487 H 3808.14 2.0044 0.410498 0
M  V30 38488 H 3808.15 3.18017 2.55596 0
M  V30 38489 H 3806.82 3.83553 1.60811 0
M  V30 38490 H 3805.4 2.45265 2.80891 0
M  V30 38491 N 3807.59 -0.616551 1.45039 0
M  V30 38492 C 3808.81 -1.40265 1.52097 0
M  V30 38493 C 3809.23 -1.88198 0.150592 0
M  V30 38494 O 3808.59 -1.61695 -0.84623 0
M  V30 38495 C 3808.64 -2.61318 2.4979 0
M  V30 38496 O 3808.36 -2.15379 3.81502 0
M  V30 38497 C 3809.86 -3.54282 2.66457 0
M  V30 38498 H 3807.08 -0.429672 0.515386 0
M  V30 38499 H 3809.62 -0.752735 1.90142 0
M  V30 38500 H 3807.78 -3.2237 2.14841 0
M  V30 38501 H 3808.19 -2.93965 4.34379 0
M  V30 38502 H 3809.67 -4.35789 3.3881 0
M  V30 38503 H 3810.14 -4.04041 1.72184 0
M  V30 38504 H 3810.75 -2.99089 3.02367 0
M  V30 38505 N 3809.06 -1.3218 -0.858264 0
M  V30 38506 C 3810.34 -1.13157 -1.59546 0
M  V30 38507 C 3810.72 0.309402 -2.0882 0
M  V30 38508 O 3810.07 1.30543 -1.87538 0
M  V30 38509 C 3810.28 -2.15602 -2.74439 0
M  V30 38510 C 3811.63 -2.48743 -3.4411 0
M  V30 38511 O 3812.65 -2.14119 -2.8466 0
M  V30 38512 O 3811.51 -3.08082 -4.51384 0
M  V30 38513 H 3808.6 -0.436417 -0.702474 0
M  V30 38514 H 3811.15 -1.43699 -0.902706 0
M  V30 38515 H 3809.92 -3.12478 -2.35528 0
M  V30 38516 H 3809.54 -1.86034 -3.51393 0
M  V30 38517 N 3810.54 1.07407 -1.15332 0
M  V30 38518 C 3811.79 1.80419 -0.939187 0
M  V30 38519 C 3812.14 1.85011 0.528083 0
M  V30 38520 O 3811.44 1.32241 1.38647 0
M  V30 38521 C 3811.63 3.25019 -1.48652 0
M  V30 38522 C 3811.46 3.34517 -3.00547 0
M  V30 38523 C 3810.23 3.4511 -3.69089 0
M  V30 38524 C 3812.43 3.25319 -3.98337 0
M  V30 38525 N 3810.41 3.43505 -5.088 0
M  V30 38526 C 3811.78 3.30824 -5.24362 0
M  V30 38527 C 3813.83 3.09125 -3.90315 0
M  V30 38528 C 3812.54 3.21802 -6.43301 0
M  V30 38529 C 3814.56 3.01437 -5.08812 0
M  V30 38530 C 3813.93 3.07554 -6.33711 0
M  V30 38531 H 3810.02 0.673542 -0.397322 0
M  V30 38532 H 3812.61 1.28212 -1.46526 0
M  V30 38533 H 3810.78 3.75648 -0.987086 0
M  V30 38534 H 3812.51 3.86148 -1.21127 0
M  V30 38535 H 3809.27 3.49432 -3.19678 0
M  V30 38536 H 3809.69 3.46231 -5.81767 0
M  V30 38537 H 3814.33 3.0325 -2.94617 0
M  V30 38538 H 3812.05 3.26436 -7.39233 0
M  V30 38539 H 3815.64 2.90012 -5.04365 0
M  V30 38540 H 3814.52 3.01648 -7.23863 0
M  V30 38541 N 3812.02 0.950026 1.25747 0
M  V30 38542 C 3812.95 0.423895 2.25246 0
M  V30 38543 C 3813.96 -0.457699 1.56234 0
M  V30 38544 O 3815.15 -0.266718 1.76496 0
M  V30 38545 C 3812.25 -0.409014 3.36423 0
M  V30 38546 C 3811.43 0.458497 4.3499 0
M  V30 38547 C 3810.49 -0.315445 5.25254 0
M  V30 38548 O 3809.51 0.284574 5.68488 0
M  V30 38549 N 3810.71 -1.60973 5.57735 0
M  V30 38550 H 3813.48 1.2793 2.71024 0
M  V30 38551 H 3811.04 0.819878 1.39605 0
M  V30 38552 H 3813.03 -0.934378 3.93766 0
M  V30 38553 H 3811.6 -1.16525 2.9007 0
M  V30 38554 H 3810.82 1.165 3.76592 0
M  V30 38555 H 3812.11 1.05077 4.97832 0
M  V30 38556 H 3811.51 -2.11921 5.24506 0
M  V30 38557 H 3810.06 -2.08115 6.17682 0
M  V30 38558 N 3813.5 -1.40291 0.718063 0
M  V30 38559 C 3814.74 -2.01139 0.259022 0
M  V30 38560 C 3815.08 -1.56813 -1.14557 0
M  V30 38561 O 3814.35 -0.789308 -1.77764 0
M  V30 38562 C 3814.63 -3.58474 0.341841 0
M  V30 38563 C 3814.49 -4.12866 1.78499 0
M  V30 38564 C 3815.81 -4.39173 -0.285545 0
M  V30 38565 H 3812.93 -0.730774 0.0955934 0
M  V30 38566 H 3815.57 -1.66734 0.91103 0
M  V30 38567 H 3813.72 -3.87914 -0.213286 0
M  V30 38568 H 3815.39 -3.94213 2.39569 0
M  V30 38569 H 3813.63 -3.67061 2.3119 0
M  V30 38570 H 3814.3 -5.22023 1.79432 0
M  V30 38571 H 3816.78 -4.15677 0.187484 0
M  V30 38572 H 3815.66 -5.48546 -0.197163 0
M  V30 38573 H 3815.92 -4.20357 -1.36939 0
M  V30 38574 N 3814.98 -0.464428 -1.50602 0
M  V30 38575 C 3816.23 0.0945044 -2.01478 0
M  V30 38576 C 3816.54 1.41383 -1.35167 0
M  V30 38577 O 3817.74 2.05731 -1.77163 0
M  V30 38578 C 3816.2 0.21894 -3.59233 0
M  V30 38579 C 3815.81 -1.09156 -4.34499 0
M  V30 38580 C 3817.55 0.730188 -4.18173 0
M  V30 38581 C 3815.46 -0.931282 -5.84021 0
M  V30 38582 H 3814.39 0.0390933 -0.752986 0
M  V30 38583 H 3817.04 -0.598313 -1.73472 0
M  V30 38584 H 3815.42 0.975388 -3.838 0
M  V30 38585 H 3816.6 -1.85844 -4.21662 0
M  V30 38586 H 3814.91 -1.5334 -3.87138 0
M  V30 38587 H 3817.51 0.867026 -5.27624 0
M  V30 38588 H 3817.85 1.71979 -3.79116 0
M  V30 38589 H 3818.38 0.0313108 -3.97788 0
M  V30 38590 H 3815.12 -1.89406 -6.27539 0
M  V30 38591 H 3814.64 -0.204666 -5.99451 0
M  V30 38592 H 3816.32 -0.595231 -6.44256 0
M  V30 38593 N 3816.45 1.56367 -0.196777 0
M  V30 38594 C 3817.87 1.58806 0.15904 0
M  V30 38595 C 3818.07 1.21299 1.609 0
M  V30 38596 O 3817.13 0.936531 2.3449 0
M  V30 38597 C 3818.44 3.00351 -0.144837 0
M  V30 38598 C 3819.99 3.12884 -0.0850793 0
M  V30 38599 C 3820.46 4.56565 -0.36229 0
M  V30 38600 N 3821.95 4.62155 -0.310968 0
M  V30 38601 C 3822.69 5.71222 -0.499287 0
M  V30 38602 N 3822.18 6.8875 -0.748046 0
M  V30 38603 N 3823.98 5.60426 -0.433428 0
M  V30 38604 H 3816.13 1.79027 -1.14293 0
M  V30 38605 H 3818.39 0.830953 -0.456312 0
M  V30 38606 H 3818.1 3.32358 -1.15025 0
M  V30 38607 H 3817.97 3.73142 0.551798 0
M  V30 38608 H 3820.36 2.80688 0.910942 0
M  V30 38609 H 3820.44 2.42476 -0.814817 0
M  V30 38610 H 3820.08 4.89474 -1.35564 0
M  V30 38611 H 3820.01 5.25166 0.388356 0
M  V30 38612 H 3822.5 3.77692 -0.125384 0
M  V30 38613 H 3822.82 7.67767 -0.880507 0
M  V30 38614 H 3821.16 6.90553 -0.784959 0
M  V30 38615 H 3824.35 4.67487 -0.239494 0
M  V30 38616 H 3824.53 6.45367 -0.583609 0
M  V30 38617 N 3817.93 -0.0768128 1.57413 0
M  V30 38618 C 3818.88 -1.09182 2.03342 0
M  V30 38619 C 3819.85 -1.38751 0.913097 0
M  V30 38620 O 3821.03 -1.49903 1.18041 0
M  V30 38621 C 3818.17 -2.40176 2.47809 0
M  V30 38622 C 3817.29 -2.17181 3.73439 0
M  V30 38623 C 3816.42 -3.41704 4.06709 0
M  V30 38624 C 3815.46 -3.14051 5.25394 0
M  V30 38625 N 3814.6 -4.3089 5.54327 0
M  V30 38626 H 3819.44 -0.693172 2.89826 0
M  V30 38627 H 3816.98 -0.33071 1.43334 0
M  V30 38628 H 3818.93 -3.1665 2.71641 0
M  V30 38629 H 3817.56 -2.77853 1.64309 0
M  V30 38630 H 3816.62 -1.31424 3.56976 0
M  V30 38631 H 3817.93 -1.92752 4.60052 0
M  V30 38632 H 3817.08 -4.26575 4.31414 0
M  V30 38633 H 3815.82 -3.69204 3.18652 0
M  V30 38634 H 3814.83 -2.27574 5.0049 0
M  V30 38635 H 3816.05 -2.87878 6.15064 0
M  V30 38636 H 3814 -4.58432 4.6923 0
M  V30 38637 H 3813.91 -4.09716 6.35349 0
M  V30 38638 H 3815.18 -5.16773 5.8358 0
M  V30 38639 N 3819.41 -1.53708 -0.348084 0
M  V30 38640 C 3820.37 -1.80686 -1.41015 0
M  V30 38641 C 3821.37 -0.677765 -1.45818 0
M  V30 38642 O 3822.56 -0.946036 -1.46273 0
M  V30 38643 C 3819.7 -1.94478 -2.79984 0
M  V30 38644 H 3820.89 -2.75556 -1.1836 0
M  V30 38645 H 3818.44 -1.45051 -0.582218 0
M  V30 38646 H 3819.18 -1.01735 -3.07929 0
M  V30 38647 H 3818.96 -2.76617 -2.77895 0
M  V30 38648 H 3820.45 -2.16882 -3.56864 0
M  V30 38649 N 3820.89 0.608851 -1.45364 0
M  V30 38650 C 3822.14 1.36519 -1.4902 0
M  V30 38651 C 3822.46 1.94547 -0.132791 0
M  V30 38652 O 3821.73 1.77086 0.837692 0
M  V30 38653 H 3820.31 0.506799 -0.548784 0
M  V30 38654 H 3822.97 0.715036 -1.8131 0
M  V30 38655 H 3822.07 2.18525 -2.2283 0
M  V30 38656 N 3822.37 1.32633 0.851242 0
M  V30 38657 C 3823.59 1.26397 1.63803 0
M  V30 38658 C 3824.01 -0.167421 1.88056 0
M  V30 38659 O 3823.37 -1.10562 1.45198 0
M  V30 38660 C 3823.42 2.02386 2.99536 0
M  V30 38661 O 3823.14 3.3994 2.76355 0
M  V30 38662 C 3824.64 2.03214 3.93978 0
M  V30 38663 H 3821.86 0.435957 0.51008 0
M  V30 38664 H 3824.4 1.74811 1.0612 0
M  V30 38665 H 3822.56 1.57686 3.53856 0
M  V30 38666 H 3822.97 3.78877 3.62702 0
M  V30 38667 H 3824.45 2.6086 4.86473 0
M  V30 38668 H 3824.92 1.01926 4.27209 0
M  V30 38669 H 3825.53 2.47878 3.45596 0
M  V30 38670 N 3823.84 -1.06794 1.159 0
M  V30 38671 C 3824.75 -2.17667 0.875108 0
M  V30 38672 C 3825.77 -1.73346 -0.150733 0
M  V30 38673 O 3826.95 -2.01385 0.0246975 0
M  V30 38674 C 3824.01 -3.4467 0.374616 0
M  V30 38675 C 3823.07 -4.03528 1.46505 0
M  V30 38676 C 3822.31 -5.24469 0.988349 0
M  V30 38677 O 3822.53 -5.70164 -0.163892 0
M  V30 38678 O 3821.46 -5.75148 1.7745 0
M  V30 38679 H 3825.29 -2.44453 1.80212 0
M  V30 38680 H 3822.87 -1.16239 0.938561 0
M  V30 38681 H 3824.76 -4.21276 0.102235 0
M  V30 38682 H 3823.43 -3.19423 -0.524457 0
M  V30 38683 H 3822.34 -3.28436 1.79111 0
M  V30 38684 H 3823.67 -4.33059 2.33925 0
M  V30 38685 N 3825.32 -0.956681 -1.25241 0
M  V30 38686 C 3826.57 -0.608229 -1.92311 0
M  V30 38687 C 3826.88 0.859027 -1.75727 0
M  V30 38688 O 3828.09 1.31753 -2.37389 0
M  V30 38689 C 3826.55 -1.03714 -3.44632 0
M  V30 38690 C 3826.15 -2.52708 -3.69922 0
M  V30 38691 C 3827.9 -0.761315 -4.17617 0
M  V30 38692 C 3825.81 -2.89389 -5.1576 0
M  V30 38693 H 3824.74 -0.223773 -0.720029 0
M  V30 38694 H 3827.39 -1.16141 -1.42069 0
M  V30 38695 H 3825.77 -0.412356 -3.93847 0
M  V30 38696 H 3826.94 -3.20223 -3.31352 0
M  V30 38697 H 3825.26 -2.77784 -3.10202 0
M  V30 38698 H 3827.85 -1.01151 -5.25045 0
M  V30 38699 H 3828.2 0.302302 -4.15201 0
M  V30 38700 H 3828.73 -1.34654 -3.74317 0
M  V30 38701 H 3825.47 -3.94776 -5.23289 0
M  V30 38702 H 3824.99 -2.26549 -5.5537 0
M  V30 38703 H 3826.67 -2.78693 -5.839 0
M  V30 38704 N 3826.8 1.39908 -0.725493 0
M  V30 38705 C 3828.22 1.54504 -0.400075 0
M  V30 38706 C 3828.42 1.69466 1.09011 0
M  V30 38707 O 3827.47 1.68981 1.87621 0
M  V30 38708 C 3828.79 2.76802 -1.17479 0
M  V30 38709 C 3830.33 2.90628 -1.16207 0
M  V30 38710 C 3830.81 4.15852 -1.91915 0
M  V30 38711 N 3832.3 4.22872 -1.89034 0
M  V30 38712 C 3833.03 5.18693 -2.44429 0
M  V30 38713 N 3832.53 6.20361 -3.08421 0
M  V30 38714 N 3834.32 5.10842 -2.34515 0
M  V30 38715 H 3826.47 1.28444 -1.69163 0
M  V30 38716 H 3828.74 0.621826 -0.715567 0
M  V30 38717 H 3828.44 2.72057 -2.22886 0
M  V30 38718 H 3828.32 3.69196 -0.772936 0
M  V30 38719 H 3830.7 2.94871 -0.116168 0
M  V30 38720 H 3830.79 1.99324 -1.60323 0
M  V30 38721 H 3830.43 4.1237 -2.96502 0
M  V30 38722 H 3830.36 5.06183 -1.45213 0
M  V30 38723 H 3832.85 3.50042 -1.42406 0
M  V30 38724 H 3833.16 6.8992 -3.48181 0
M  V30 38725 H 3831.51 6.20777 -3.12508 0
M  V30 38726 H 3834.7 4.30347 -1.84172 0
M  V30 38727 H 3834.87 5.85344 -2.77986 0
M  V30 38728 N 3828.28 0.472408 1.50353 0
M  V30 38729 C 3829.52 -0.082249 2.02633 0
M  V30 38730 C 3829.86 -1.39252 1.35361 0
M  V30 38731 O 3829.13 -1.88491 0.479747 0
M  V30 38732 C 3829.42 -0.264679 3.59126 0
M  V30 38733 C 3829.27 1.06671 4.36968 0
M  V30 38734 C 3830.59 -1.01861 4.2815 0
M  V30 38735 H 3827.71 -0.0284174 0.736452 0
M  V30 38736 H 3830.35 0.618255 1.7966 0
M  V30 38737 H 3828.5 -0.861344 3.78831 0
M  V30 38738 H 3830.17 1.70005 4.28831 0
M  V30 38739 H 3828.41 1.66302 4.00657 0
M  V30 38740 H 3829.08 0.892688 5.44734 0
M  V30 38741 H 3831.56 -0.512858 4.12927 0
M  V30 38742 H 3830.44 -1.11506 5.37455 0
M  V30 38743 H 3830.7 -2.0555 3.9141 0
M  V30 38744 N 3829.76 -1.5626 0.205067 0
M  V30 38745 C 3831.17 -1.84179 -0.305759 0
M  V30 38746 C 3831.52 -1.12603 -1.6067 0
M  V30 38747 O 3830.64 -0.390155 -2.12854 0
M  V30 38748 C 3831.24 -3.34114 -0.561538 0
M  V30 38749 C 3829.8 -3.62409 -1.01671 0
M  V30 38750 C 3828.95 -2.7721 -0.0707357 0
M  V30 38751 H 3831.9 -1.52802 0.428636 0
M  V30 38752 H 3831.92 -3.53426 -1.40963 0
M  V30 38753 H 3831.43 -3.86181 0.385478 0
M  V30 38754 H 3829.53 -3.15784 -1.97766 0
M  V30 38755 H 3829.64 -4.70522 -0.902524 0
M  V30 38756 H 3828.01 -2.48137 -0.574486 0
M  V30 38757 H 3828.79 -3.3207 0.870902 0
M  V30 38758 N 3831.24 0.0684638 -1.57451 0
M  V30 38759 C 3832.65 0.423327 -1.53883 0
M  V30 38760 C 3832.85 1.78976 -0.92573 0
M  V30 38761 O 3831.91 2.46882 -0.529673 0
M  V30 38762 C 3833.22 0.361333 -2.98521 0
M  V30 38763 C 3834.77 0.44128 -3.09874 0
M  V30 38764 C 3835.24 0.409158 -4.56169 0
M  V30 38765 N 3836.73 0.469135 -4.60818 0
M  V30 38766 C 3837.47 0.466548 -5.71499 0
M  V30 38767 N 3836.97 0.418578 -6.91534 0
M  V30 38768 N 3838.76 0.513353 -5.59751 0
M  V30 38769 H 3830.91 -0.826234 -1.95671 0
M  V30 38770 H 3833.17 -0.31037 -0.895754 0
M  V30 38771 H 3832.88 -0.576096 -3.4695 0
M  V30 38772 H 3832.75 1.17026 -3.58587 0
M  V30 38773 H 3835.14 1.36913 -2.61417 0
M  V30 38774 H 3835.22 -0.396281 -2.52712 0
M  V30 38775 H 3834.86 -0.51486 -5.05284 0
M  V30 38776 H 3834.79 1.2643 -5.11198 0
M  V30 38777 H 3837.29 0.510321 -3.74438 0
M  V30 38778 H 3837.6 0.420622 -7.71654 0
M  V30 38779 H 3835.94 0.385216 -6.93932 0
M  V30 38780 H 3839.13 0.548544 -4.64875 0
M  V30 38781 H 3839.31 0.507868 -6.46007 0
M  V30 38782 N 3832.71 1.5389 0.339928 0
M  V30 38783 C 3833.66 1.82132 1.41762 0
M  V30 38784 C 3834.63 0.667262 1.52108 0
M  V30 38785 O 3835.82 0.912059 1.67589 0
M  V30 38786 C 3832.96 2.03982 2.78362 0
M  V30 38787 C 3832.07 3.31689 2.76779 0
M  V30 38788 C 3831.2 3.43587 4.05119 0
M  V30 38789 C 3830.24 4.6523 3.97779 0
M  V30 38790 N 3829.38 4.74142 5.17817 0
M  V30 38791 H 3834.22 2.7408 1.16979 0
M  V30 38792 H 3831.76 1.3575 0.566594 0
M  V30 38793 H 3833.71 2.1464 3.57751 0
M  V30 38794 H 3832.34 1.15343 3.01489 0
M  V30 38795 H 3831.4 3.29854 1.89475 0
M  V30 38796 H 3832.71 4.21174 2.67233 0
M  V30 38797 H 3831.86 3.53697 4.92933 0
M  V30 38798 H 3830.6 2.52164 4.1745 0
M  V30 38799 H 3829.61 4.55193 3.08349 0
M  V30 38800 H 3830.83 5.5802 3.87027 0
M  V30 38801 H 3828.78 3.85629 5.30685 0
M  V30 38802 H 3828.69 5.57569 5.10542 0
M  V30 38803 H 3829.96 4.88565 6.07391 0
M  V30 38804 N 3834.19 -0.601133 1.45685 0
M  V30 38805 C 3835.42 -1.38644 1.53576 0
M  V30 38806 C 3835.83 -1.88028 0.170544 0
M  V30 38807 O 3835.19 -1.62583 -0.829032 0
M  V30 38808 C 3835.24 -2.58654 2.52548 0
M  V30 38809 O 3834.96 -2.1132 3.83765 0
M  V30 38810 C 3836.46 -3.51436 2.702 0
M  V30 38811 H 3833.68 -0.424182 0.519914 0
M  V30 38812 H 3836.23 -0.732525 1.9093 0
M  V30 38813 H 3834.38 -3.20073 2.18248 0
M  V30 38814 H 3834.8 -2.89341 4.37472 0
M  V30 38815 H 3836.27 -4.32171 3.43413 0
M  V30 38816 H 3836.75 -4.02192 1.76459 0
M  V30 38817 H 3837.35 -2.95866 3.05522 0
M  V30 38818 N 3835.67 -1.33083 -0.844196 0
M  V30 38819 C 3836.62 -1.22893 -1.95361 0
M  V30 38820 C 3837.59 -0.108735 -1.65744 0
M  V30 38821 O 3838.77 -0.28609 -1.88643 0
M  V30 38822 C 3835.91 -0.968652 -3.31227 0
M  V30 38823 C 3835.02 -2.17462 -3.73275 0
M  V30 38824 C 3834.16 -1.84894 -4.97984 0
M  V30 38825 C 3833.2 -3.01752 -5.32552 0
M  V30 38826 N 3832.34 -2.69208 -6.48438 0
M  V30 38827 H 3837.18 -2.17782 -2.03409 0
M  V30 38828 H 3834.71 -1.08302 -0.995442 0
M  V30 38829 H 3836.67 -0.798201 -4.09493 0
M  V30 38830 H 3835.3 -0.0565199 -3.22751 0
M  V30 38831 H 3834.35 -2.455 -2.90576 0
M  V30 38832 H 3835.66 -3.04841 -3.94808 0
M  V30 38833 H 3834.82 -1.64461 -5.83984 0
M  V30 38834 H 3833.56 -0.94744 -4.78409 0
M  V30 38835 H 3832.56 -3.22805 -4.45059 0
M  V30 38836 H 3833.79 -3.9265 -5.54079 0
M  V30 38837 H 3831.73 -1.81611 -6.3036 0
M  V30 38838 H 3831.65 -3.50117 -6.7004 0
M  V30 38839 H 3832.92 -2.5223 -7.37564 0
M  V30 38840 N 3837.15 1.06178 -1.16464 0
M  V30 38841 C 3838.08 2.15648 -0.895437 0
M  V30 38842 C 3839.06 1.69358 0.158699 0
M  V30 38843 O 3840.24 1.94197 0.0105519 0
M  V30 38844 C 3837.37 3.45023 -0.39702 0
M  V30 38845 C 3836.33 4.04827 -1.3892 0
M  V30 38846 C 3835.65 5.29426 -0.749136 0
M  V30 38847 C 3836.95 4.43471 -2.75918 0
M  V30 38848 H 3838.65 2.38426 -1.81089 0
M  V30 38849 H 3836.19 1.14587 -0.872118 0
M  V30 38850 H 3838.15 4.20943 -0.19616 0
M  V30 38851 H 3836.87 3.21868 0.553945 0
M  V30 38852 H 3835.53 3.30965 -1.57662 0
M  V30 38853 H 3835.18 5.02568 0.208351 0
M  V30 38854 H 3834.88 5.70398 -1.41138 0
M  V30 38855 H 3836.4 6.08042 -0.558324 0
M  V30 38856 H 3837.82 5.10468 -2.60951 0
M  V30 38857 H 3836.21 4.95431 -3.38627 0
M  V30 38858 H 3837.28 3.54278 -3.31082 0
M  V30 38859 N 3838.63 0.96331 1.24732 0
M  V30 38860 C 3839.85 0.639843 1.97283 0
M  V30 38861 C 3840.28 -0.783069 1.71025 0
M  V30 38862 O 3839.63 -1.53083 0.971351 0
M  V30 38863 C 3839.68 0.915258 3.48791 0
M  V30 38864 O 3838.79 -0.00155556 4.124 0
M  V30 38865 H 3838.13 0.242354 0.618191 0
M  V30 38866 H 3840.66 1.29227 1.58624 0
M  V30 38867 H 3840.67 0.84502 3.99153 0
M  V30 38868 H 3839.34 1.95228 3.67231 0
M  V30 38869 H 3837.92 0.121629 3.72702 0
M  V30 38870 N 3840.1 -1.39522 0.732902 0
M  V30 38871 C 3841.52 -1.5429 0.408263 0
M  V30 38872 C 3841.72 -1.70042 -1.08111 0
M  V30 38873 O 3840.78 -1.69973 -1.86723 0
M  V30 38874 C 3842.09 -2.76175 1.18945 0
M  V30 38875 C 3843.64 -2.90008 1.17747 0
M  V30 38876 C 3844.11 -4.14828 1.94118 0
M  V30 38877 N 3845.6 -4.21863 1.91274 0
M  V30 38878 C 3846.34 -5.17389 2.47176 0
M  V30 38879 N 3845.83 -6.18717 3.11707 0
M  V30 38880 N 3847.63 -5.09591 2.37221 0
M  V30 38881 H 3839.78 -1.27545 1.69841 0
M  V30 38882 H 3842.04 -0.618023 0.718855 0
M  V30 38883 H 3841.75 -2.70871 2.24325 0
M  V30 38884 H 3841.62 -3.68781 0.792504 0
M  V30 38885 H 3844.01 -2.94806 0.131804 0
M  V30 38886 H 3844.09 -1.98471 1.61378 0
M  V30 38887 H 3843.73 -4.10792 2.98684 0
M  V30 38888 H 3843.66 -5.05405 1.47895 0
M  V30 38889 H 3846.15 -3.49281 1.4426 0
M  V30 38890 H 3846.47 -6.88064 3.51835 0
M  V30 38891 H 3844.81 -6.19111 3.15796 0
M  V30 38892 H 3848 -4.29364 1.86451 0
M  V30 38893 H 3848.18 -5.83862 2.81087 0
M  V30 38894 N 3841.58 -0.480375 -1.501 0
M  V30 38895 C 3842.83 0.0715017 -2.02674 0
M  V30 38896 C 3843.16 1.38532 -1.36097 0
M  V30 38897 O 3842.44 1.88233 -0.489736 0
M  V30 38898 C 3842.72 0.24563 -3.59261 0
M  V30 38899 C 3842.57 -1.08986 -4.36397 0
M  V30 38900 C 3843.89 0.995891 -4.28684 0
M  V30 38901 H 3841.01 0.0245114 -0.736592 0
M  V30 38902 H 3843.65 -0.627775 -1.79329 0
M  V30 38903 H 3841.8 0.841241 -3.79283 0
M  V30 38904 H 3843.47 -1.72277 -4.27923 0
M  V30 38905 H 3841.72 -1.68424 -3.9977 0
M  V30 38906 H 3842.39 -0.921564 -5.44253 0
M  V30 38907 H 3844.86 0.490952 -4.13193 0
M  V30 38908 H 3843.74 1.08654 -5.38039 0
M  V30 38909 H 3844 2.03472 -3.92494 0
M  V30 38910 N 3843.06 1.56149 -0.213351 0
M  V30 38911 C 3844.31 1.98378 0.421186 0
M  V30 38912 C 3844.64 1.10068 1.59996 0
M  V30 38913 O 3843.91 0.156574 1.93869 0
M  V30 38914 C 3844.2 3.49589 0.863689 0
M  V30 38915 C 3844.05 4.48673 -0.318156 0
M  V30 38916 C 3845.37 4.0498 1.72278 0
M  V30 38917 H 3842.49 0.721235 0.151622 0
M  V30 38918 H 3845.13 1.87488 -0.30794 0
M  V30 38919 H 3843.28 3.59 1.48496 0
M  V30 38920 H 3844.95 4.51282 -0.956174 0
M  V30 38921 H 3843.19 4.22886 -0.966955 0
M  V30 38922 H 3843.87 5.51989 0.0342691 0
M  V30 38923 H 3846.34 3.98462 1.19865 0
M  V30 38924 H 3845.22 5.11115 2.00132 0
M  V30 38925 H 3845.48 3.51357 2.68329 0
M  V30 38926 N 3844.54 -0.0601128 1.57485 0
M  V30 38927 C 3845.79 -0.755542 1.87446 0
M  V30 38928 C 3846.11 -1.7752 0.806946 0
M  V30 38929 O 3845.38 -1.9522 -0.163105 0
M  V30 38930 H 3843.96 -0.282032 0.691713 0
M  V30 38931 H 3846.62 -0.0334274 1.94871 0
M  V30 38932 H 3845.72 -1.2645 2.85336 0
M  V30 38933 N 3846.02 -1.54068 -0.331762 0
M  V30 38934 C 3847.26 -1.71541 -1.06855 0
M  V30 38935 C 3847.59 -0.487539 -1.88807 0
M  V30 38936 O 3846.86 0.498506 -1.89451 0
M  V30 38937 H 3845.44 -0.632464 -0.397489 0
M  V30 38938 H 3848.1 -1.91352 -0.370183 0
M  V30 38939 H 3847.19 -2.59146 -1.73924 0
M  V30 38940 N 3847.49 0.593399 -1.46002 0
M  V30 38941 C 3848.43 1.71745 -1.51777 0
M  V30 38942 C 3849.44 1.57627 -0.407121 0
M  V30 38943 O 3850.63 1.65248 -0.674932 0
M  V30 38944 C 3847.73 3.09892 -1.37186 0
M  V30 38945 C 3846.9 3.50115 -2.6218 0
M  V30 38946 C 3845.96 4.67281 -2.41941 0
M  V30 38947 O 3844.99 4.73681 -3.15619 0
M  V30 38948 N 3846.19 5.6147 -1.47415 0
M  V30 38949 H 3848.95 1.67249 -2.48692 0
M  V30 38950 H 3846.51 0.779086 -1.41922 0
M  V30 38951 H 3848.51 3.86051 -1.21435 0
M  V30 38952 H 3847.08 3.08816 -0.48493 0
M  V30 38953 H 3846.3 2.63772 -2.92947 0
M  V30 38954 H 3847.58 3.73751 -3.45235 0
M  V30 38955 H 3846.98 5.59026 -0.866381 0
M  V30 38956 H 3845.54 6.37104 -1.37631 0
M  V30 38957 N 3848.97 1.33529 0.837127 0
M  V30 38958 C 3850.22 1.24431 1.58744 0
M  V30 38959 C 3850.53 -0.187851 1.94696 0
M  V30 38960 O 3851.74 -0.400856 2.68524 0
M  V30 38961 C 3850.2 2.1804 2.86333 0
M  V30 38962 C 3849.8 3.66435 2.57739 0
M  V30 38963 C 3851.55 2.17819 3.64356 0
M  V30 38964 C 3849.46 4.51953 3.81435 0
M  V30 38965 H 3848.39 0.462179 0.59574 0
M  V30 38966 H 3851.04 1.58604 0.922873 0
M  V30 38967 H 3849.42 1.76801 3.54341 0
M  V30 38968 H 3850.59 4.16125 1.97932 0
M  V30 38969 H 3848.91 3.68963 1.93017 0
M  V30 38970 H 3851.5 2.7894 4.56176 0
M  V30 38971 H 3851.85 1.17371 3.99412 0
M  V30 38972 H 3852.38 2.57428 3.03275 0
M  V30 38973 H 3849.12 5.53283 3.51509 0
M  V30 38974 H 3848.64 4.07006 4.40575 0
M  V30 38975 H 3850.32 4.65845 4.48996 0
M  V30 38976 N 3850.45 -1.05559 1.17026 0
M  V30 38977 C 3851.86 -1.59954 0.962884 0
M  V30 38978 C 3852.21 -1.89948 -0.491355 0
M  V30 38979 O 3851.34 -1.6784 -1.36597 0
M  V30 38980 C 3851.93 -2.90614 1.74151 0
M  V30 38981 C 3850.49 -3.41683 1.57891 0
M  V30 38982 C 3849.64 -2.15469 1.74552 0
M  V30 38983 H 3852.59 -0.884166 1.31788 0
M  V30 38984 H 3852.61 -3.60353 1.22171 0
M  V30 38985 H 3852.12 -2.68753 2.79988 0
M  V30 38986 H 3850.22 -3.68589 0.545271 0
M  V30 38987 H 3850.34 -4.16515 2.36753 0
M  V30 38988 H 3848.7 -2.2605 1.1736 0
M  V30 38989 H 3849.48 -1.96082 2.81792 0
M  V30 38990 N 3851.93 -0.969911 -1.2422 0
M  V30 38991 C 3853.16 -0.650693 -1.96402 0
M  V30 38992 C 3853.57 0.780308 -1.7192 0
M  V30 38993 O 3852.93 1.52382 -1.0043 0
M  V30 38994 C 3852.98 -0.918603 -3.49634 0
M  V30 38995 O 3852.7 -2.29335 -3.73279 0
M  V30 38996 C 3854.2 -0.61388 -4.39029 0
M  V30 38997 H 3851.42 -0.242598 -0.62561 0
M  V30 38998 H 3853.97 -1.29844 -1.57989 0
M  V30 38999 H 3852.12 -0.317027 -3.86101 0
M  V30 39000 H 3852.53 -2.37504 -4.67645 0
M  V30 39001 H 3854.01 -0.851775 -5.45389 0
M  V30 39002 H 3854.49 0.4519 -4.36869 0
M  V30 39003 H 3855.09 -1.19546 -4.08153 0
M  V30 39004 N 3853.41 1.39131 -0.740291 0
M  V30 39005 C 3854.65 2.00009 -0.289984 0
M  V30 39006 C 3854.98 1.59044 1.12828 0
M  V30 39007 O 3854.25 0.841107 1.76924 0
M  V30 39008 H 3852.83 0.739693 -0.104226 0
M  V30 39009 H 3855.49 1.701 -0.951428 0
M  V30 39010 H 3854.58 3.10214 -0.342563 0
M  V30 39011 N 3854.88 0.488329 1.49844 0
M  V30 39012 C 3856.13 -0.0606625 2.02409 0
M  V30 39013 C 3856.46 -1.38158 1.36903 0
M  V30 39014 O 3855.71 -1.89478 0.489543 0
M  V30 39015 C 3856.01 -0.274788 3.56342 0
M  V30 39016 C 3855.68 0.966559 4.40418 0
M  V30 39017 C 3854.34 1.30686 4.63114 0
M  V30 39018 C 3856.69 1.79227 4.89415 0
M  V30 39019 C 3854.02 2.47262 5.32051 0
M  V30 39020 C 3856.37 2.94945 5.59634 0
M  V30 39021 C 3855.04 3.2937 5.80579 0
M  V30 39022 H 3854.31 -0.022198 0.740667 0
M  V30 39023 H 3856.95 0.645914 1.80278 0
M  V30 39024 H 3855.26 -1.06377 3.77082 0
M  V30 39025 H 3856.96 -0.71381 3.94596 0
M  V30 39026 H 3853.55 0.691463 4.22986 0
M  V30 39027 H 3857.73 1.54252 4.7172 0
M  V30 39028 H 3852.99 2.74187 5.46472 0
M  V30 39029 H 3857.16 3.59261 5.96577 0
M  V30 39030 H 3854.79 4.19807 6.33772 0
M  V30 39031 N 3856.36 -1.56034 0.221629 0
M  V30 39032 C 3857.64 -1.90137 -0.459064 0
M  V30 39033 C 3858.02 -1.13897 -1.77738 0
M  V30 39034 O 3857.37 -0.248325 -2.27147 0
M  V30 39035 C 3857.58 -3.42857 -0.651936 0
M  V30 39036 C 3858.93 -4.13621 -0.959329 0
M  V30 39037 O 3859.95 -3.48456 -0.738719 0
M  V30 39038 O 3858.81 -5.28841 -1.37802 0
M  V30 39039 H 3855.9 -0.790574 -0.242739 0
M  V30 39040 H 3858.45 -1.67637 0.263819 0
M  V30 39041 H 3857.22 -3.90312 0.277961 0
M  V30 39042 H 3856.84 -3.71137 -1.4263 0
M  V30 39043 N 3857.84 0.0517601 -1.57515 0
M  V30 39044 C 3859.25 0.601187 -1.76756 0
M  V30 39045 C 3859.6 1.76842 -0.849775 0
M  V30 39046 O 3858.73 2.16365 -0.0388367 0
M  V30 39047 C 3859.32 1.09737 -3.20536 0
M  V30 39048 C 3857.88 1.5925 -3.41052 0
M  V30 39049 C 3857.03 0.52057 -2.7237 0
M  V30 39050 H 3859.98 -0.174457 -1.57738 0
M  V30 39051 H 3860 1.96558 -3.258 0
M  V30 39052 H 3859.51 0.247628 -3.87309 0
M  V30 39053 H 3857.61 2.46484 -2.79422 0
M  V30 39054 H 3857.73 1.65564 -4.49584 0
M  V30 39055 H 3856.09 0.970339 -2.35492 0
M  V30 39056 H 3856.87 -0.319326 -3.41812 0
M  V30 39057 N 3859.32 1.54242 0.323587 0
M  V30 39058 C 3860.55 1.7641 1.08107 0
M  V30 39059 C 3860.96 0.512688 1.81706 0
M  V30 39060 O 3860.32 -0.516607 1.75035 0
M  V30 39061 C 3860.37 2.95723 2.07918 0
M  V30 39062 O 3860.09 4.16026 1.37309 0
M  V30 39063 C 3861.59 3.30101 2.95885 0
M  V30 39064 H 3858.81 0.588925 0.321572 0
M  V30 39065 H 3861.36 2.0113 0.369721 0
M  V30 39066 H 3859.51 2.73277 2.74588 0
M  V30 39067 H 3859.93 4.83139 2.0415 0
M  V30 39068 H 3861.4 4.16887 3.61814 0
M  V30 39069 H 3861.88 2.47267 3.62982 0
M  V30 39070 H 3862.48 3.54627 2.34777 0
M  V30 39071 N 3860.8 -0.585648 1.46314 0
M  V30 39072 C 3862.04 -1.34596 1.51697 0
M  V30 39073 C 3862.38 -1.93481 0.166923 0
M  V30 39074 O 3861.65 -1.76309 -0.8213 0
M  V30 39075 C 3861.93 -2.4775 2.61327 0
M  V30 39076 C 3861.79 -1.93919 4.05852 0
M  V30 39077 C 3863.11 -3.49807 2.67064 0
M  V30 39078 H 3860.23 -0.488033 0.552261 0
M  V30 39079 H 3862.87 -0.658169 1.78236 0
M  V30 39080 H 3861.02 -3.06421 2.38828 0
M  V30 39081 H 3862.69 -1.39729 4.39629 0
M  V30 39082 H 3860.93 -1.24768 4.1547 0
M  V30 39083 H 3861.6 -2.75587 4.78284 0
M  V30 39084 H 3864.08 -3.01013 2.87281 0
M  V30 39085 H 3862.96 -4.26443 3.45597 0
M  V30 39086 H 3863.22 -4.06845 1.73 0
M  V30 39087 N 3862.28 -1.33971 -0.830033 0
M  V30 39088 C 3863.52 -1.27123 -1.58781 0
M  V30 39089 C 3863.88 0.159285 -1.9174 0
M  V30 39090 O 3863.17 1.1037 -1.56617 0
M  V30 39091 C 3863.36 -2.08858 -2.90023 0
M  V30 39092 C 3863.19 -3.59712 -2.69884 0
M  V30 39093 C 3861.96 -4.29007 -2.66985 0
M  V30 39094 C 3864.16 -4.53861 -2.41898 0
M  V30 39095 N 3862.14 -5.65755 -2.38317 0
M  V30 39096 C 3863.51 -5.78562 -2.2286 0
M  V30 39097 C 3865.57 -4.42852 -2.27567 0
M  V30 39098 C 3864.27 -6.93493 -1.90944 0
M  V30 39099 C 3866.3 -5.57608 -1.97046 0
M  V30 39100 C 3865.66 -6.81323 -1.78826 0
M  V30 39101 H 3861.76 -0.520394 -0.583707 0
M  V30 39102 H 3864.34 -1.68607 -0.973636 0
M  V30 39103 H 3862.51 -1.69681 -3.49375 0
M  V30 39104 H 3864.25 -1.9371 -3.55329 0
M  V30 39105 H 3861 -3.81372 -2.80807 0
M  V30 39106 H 3861.42 -6.37865 -2.26842 0
M  V30 39107 H 3866.07 -3.47831 -2.40361 0
M  V30 39108 H 3863.78 -7.88503 -1.76887 0
M  V30 39109 H 3867.37 -5.5103 -1.867 0
M  V30 39110 H 3866.25 -7.68618 -1.5555 0
M  V30 39111 N 3863.75 1.04937 -1.17584 0
M  V30 39112 C 3865 1.77633 -0.963901 0
M  V30 39113 C 3865.32 1.88253 0.508515 0
M  V30 39114 O 3864.59 1.40116 1.3691 0
M  V30 39115 H 3863.17 0.657984 -0.353647 0
M  V30 39116 H 3865.83 1.26691 -1.48106 0
M  V30 39117 H 3864.93 2.79217 -1.39443 0
M  V30 39118 N 3865.23 0.976485 1.23703 0
M  V30 39119 C 3866.48 0.638747 1.91319 0
M  V30 39120 C 3866.79 -0.830961 1.77072 0
M  V30 39121 O 3868 -1.2796 2.39455 0
M  V30 39122 C 3866.46 1.09184 3.42939 0
M  V30 39123 C 3866.06 2.58561 3.65855 0
M  V30 39124 C 3867.81 0.827658 4.16353 0
M  V30 39125 C 3865.71 2.97558 5.1109 0
M  V30 39126 H 3864.64 0.235199 0.716378 0
M  V30 39127 H 3867.3 1.18386 1.40203 0
M  V30 39128 H 3865.68 0.474962 3.93141 0
M  V30 39129 H 3866.85 3.25454 3.26215 0
M  V30 39130 H 3865.17 2.82684 3.05743 0
M  V30 39131 H 3867.76 1.09491 5.2337 0
M  V30 39132 H 3868.11 -0.236209 4.15629 0
M  V30 39133 H 3868.64 1.40592 3.72127 0
M  V30 39134 H 3865.38 4.03052 5.16943 0
M  V30 39135 H 3864.9 2.35356 5.51695 0
M  V30 39136 H 3866.58 2.87947 5.79392 0
M  V30 39137 N 3866.71 -1.38737 0.747659 0
M  V30 39138 C 3867.93 -2.05062 0.31052 0
M  V30 39139 C 3868.36 -1.56015 -1.05075 0
M  V30 39140 O 3867.72 -0.709491 -1.66841 0
M  V30 39141 C 3867.77 -3.59032 0.3359 0
M  V30 39142 O 3866.87 -4.06886 -0.672146 0
M  V30 39143 H 3866.21 -0.649373 0.138603 0
M  V30 39144 H 3868.74 -1.77527 1.01712 0
M  V30 39145 H 3868.75 -4.07582 0.184702 0
M  V30 39146 H 3867.43 -3.9409 1.32913 0
M  V30 39147 H 3866 -3.69719 -0.486047 0
M  V30 39148 N 3868.19 -0.496268 -1.49583 0
M  V30 39149 C 3869.15 0.273602 -2.27561 0
M  V30 39150 C 3870.15 0.898177 -1.33377 0
M  V30 39151 O 3871.34 0.763443 -1.5658 0
M  V30 39152 C 3868.47 1.3921 -3.1118 0
M  V30 39153 H 3869.67 -0.410595 -2.97076 0
M  V30 39154 H 3867.22 -0.251085 -1.5427 0
M  V30 39155 H 3867.95 2.11059 -2.4622 0
M  V30 39156 H 3867.74 0.949762 -3.80423 0
M  V30 39157 H 3869.23 1.93453 -3.70089 0
M  V30 39158 N 3869.67 1.55914 -0.2299 0
M  V30 39159 C 3870.94 1.90377 0.448974 0
M  V30 39160 C 3871.32 1.14838 1.77131 0
M  V30 39161 O 3870.67 0.260368 2.27012 0
M  V30 39162 C 3870.88 3.43198 0.633744 0
M  V30 39163 C 3872.23 4.14124 0.93738 0
M  V30 39164 O 3873.25 3.48843 0.720229 0
M  V30 39165 O 3872.11 5.29564 1.34995 0
M  V30 39166 H 3869.21 0.79185 0.238543 0
M  V30 39167 H 3871.75 1.67495 -0.272705 0
M  V30 39168 H 3870.52 3.90159 -0.298656 0
M  V30 39169 H 3870.15 3.71888 1.4066 0
M  V30 39170 N 3871.14 -0.043406 1.5754 0
M  V30 39171 C 3872.08 -1.0811 2.00966 0
M  V30 39172 C 3873.05 -1.35986 0.891428 0
M  V30 39173 O 3874.24 -1.48885 1.1561 0
M  V30 39174 C 3871.37 -2.41915 2.37055 0
M  V30 39175 C 3870.41 -2.2999 3.59175 0
M  V30 39176 S 3871.24 -1.66693 5.08894 0
M  V30 39177 C 3872.4 -3.02018 5.48212 0
M  V30 39178 H 3872.63 -0.711152 2.88669 0
M  V30 39179 H 3870.17 -0.252913 1.52315 0
M  V30 39180 H 3872.12 -3.1887 2.58519 0
M  V30 39181 H 3870.79 -2.76062 1.49829 0
M  V30 39182 H 3869.98 -3.28733 3.82035 0
M  V30 39183 H 3869.58 -1.61175 3.37489 0
M  V30 39184 H 3871.87 -3.98349 5.48019 0
M  V30 39185 H 3872.82 -2.83907 6.48693 0
M  V30 39186 H 3873.22 -3.03931 4.75696 0
M  V30 39187 N 3872.62 -1.54412 -0.315402 0
M  V30 39188 C 3873.58 -1.83636 -1.37151 0
M  V30 39189 C 3874.58 -0.708543 -1.44348 0
M  V30 39190 O 3875.77 -0.97685 -1.44233 0
M  V30 39191 C 3872.91 -2.00373 -2.75796 0
M  V30 39192 H 3874.1 -2.78004 -1.12488 0
M  V30 39193 H 3871.65 -1.46254 -0.55132 0
M  V30 39194 H 3872.39 -1.08244 -3.05702 0
M  V30 39195 H 3872.17 -2.82449 -2.71965 0
M  V30 39196 H 3873.66 -2.24403 -3.52183 0
M  V30 39197 N 3874.1 0.57788 -1.46623 0
M  V30 39198 C 3875.35 1.33327 -1.51882 0
M  V30 39199 C 3875.67 1.94222 -0.174027 0
M  V30 39200 O 3874.94 1.78823 0.799941 0
M  V30 39201 H 3873.52 0.495045 -0.55941 0
M  V30 39202 H 3876.18 0.676417 -1.82786 0
M  V30 39203 H 3875.28 2.1375 -2.27415 0
M  V30 39204 N 3875.58 1.34409 0.822917 0
M  V30 39205 C 3876.8 1.29995 1.61605 0
M  V30 39206 C 3877.23 -0.123268 1.87696 0
M  V30 39207 O 3876.59 -1.08501 1.45249 0
M  V30 39208 C 3876.63 2.09645 2.93397 0
M  V30 39209 O 3875.74 1.46597 3.85465 0
M  V30 39210 H 3875.08 0.446461 0.491497 0
M  V30 39211 H 3877.61 1.77212 1.02261 0
M  V30 39212 H 3877.62 2.21 3.42962 0
M  V30 39213 H 3876.29 3.13121 2.7373 0
M  V30 39214 H 3874.87 1.43984 3.43981 0
M  V30 39215 N 3877.06 -1.04312 1.18139 0
M  V30 39216 C 3878.31 -1.76865 0.969613 0
M  V30 39217 C 3878.62 -1.8905 -0.501949 0
M  V30 39218 O 3879.82 -2.58432 -0.832173 0
M  V30 39219 C 3878.28 -3.17978 1.68576 0
M  V30 39220 C 3877.89 -3.13895 3.19647 0
M  V30 39221 C 3879.63 -3.94926 1.55671 0
M  V30 39222 C 3877.54 -4.49851 3.83912 0
M  V30 39223 H 3876.47 -0.662967 0.359153 0
M  V30 39224 H 3879.12 -1.1685 1.41486 0
M  V30 39225 H 3877.5 -3.78374 1.16828 0
M  V30 39226 H 3878.68 -2.62964 3.784 0
M  V30 39227 H 3876.99 -2.50446 3.32665 0
M  V30 39228 H 3879.59 -4.95463 2.01047 0
M  V30 39229 H 3879.93 -4.13182 0.508595 0
M  V30 39230 H 3880.46 -3.41099 2.04686 0
M  V30 39231 H 3877.2 -4.36801 4.88759 0
M  V30 39232 H 3876.72 -5.00895 3.29946 0
M  V30 39233 H 3878.4 -5.18772 3.86633 0
M  V30 39234 N 3878.53 -0.983032 -1.23184 0
M  V30 39235 C 3879.81 -0.569684 -1.8712 0
M  V30 39236 C 3880.19 0.953157 -1.88356 0
M  V30 39237 O 3879.54 1.83097 -1.36703 0
M  V30 39238 C 3879.75 -1.17877 -3.2849 0
M  V30 39239 C 3881.1 -1.27315 -4.05063 0
M  V30 39240 O 3882.12 -1.13242 -3.3772 0
M  V30 39241 O 3880.98 -1.49732 -5.25588 0
M  V30 39242 H 3878.07 -0.192185 -0.804359 0
M  V30 39243 H 3880.62 -1.07828 -1.31039 0
M  V30 39244 H 3879.39 -2.22084 -3.22171 0
M  V30 39245 H 3879.02 -0.655156 -3.92165 0
M  V30 39246 N 3880.01 1.38338 -0.755006 0
M  V30 39247 C 3881.43 1.53621 -0.432757 0
M  V30 39248 C 3881.63 1.7174 1.05392 0
M  V30 39249 O 3880.68 1.72922 1.83995 0
M  V30 39250 C 3882 2.74247 -1.23324 0
M  V30 39251 C 3883.55 2.88098 -1.22346 0
M  V30 39252 C 3884.02 4.11687 -2.00693 0
M  V30 39253 N 3885.51 4.18767 -1.97961 0
M  V30 39254 C 3886.25 5.13391 -2.55376 0
M  V30 39255 N 3885.74 6.1368 -3.2151 0
M  V30 39256 N 3887.54 5.05752 -2.45298 0
M  V30 39257 H 3879.69 1.24826 -1.71849 0
M  V30 39258 H 3881.95 0.606508 -0.728596 0
M  V30 39259 H 3881.66 2.67268 -2.28606 0
M  V30 39260 H 3881.53 3.67473 -0.851074 0
M  V30 39261 H 3883.92 2.94559 -0.178689 0
M  V30 39262 H 3884 1.95879 -1.64515 0
M  V30 39263 H 3883.64 4.05988 -3.05182 0
M  V30 39264 H 3883.57 5.02988 -1.55917 0
M  V30 39265 H 3886.06 3.46942 -1.49798 0
M  V30 39266 H 3886.38 6.82379 -3.62737 0
M  V30 39267 H 3884.72 6.14008 -3.25606 0
M  V30 39268 H 3887.91 4.26343 -1.93258 0
M  V30 39269 H 3888.08 5.79316 -2.9034 0
M  V30 39270 N 3881.49 0.504194 1.49317 0
M  V30 39271 C 3882.42 -0.261797 2.32028 0
M  V30 39272 C 3883.4 -0.959551 1.40452 0
M  V30 39273 O 3884.59 -0.950335 1.69358 0
M  V30 39274 C 3881.72 -1.32474 3.21042 0
M  V30 39275 C 3880.67 -0.746678 4.21436 0
M  V30 39276 C 3880 -1.91038 4.99408 0
M  V30 39277 C 3881.3 0.264407 5.2163 0
M  V30 39278 H 3882.99 0.428596 2.96316 0
M  V30 39279 H 3880.54 0.207564 1.42496 0
M  V30 39280 H 3882.49 -1.86836 3.77717 0
M  V30 39281 H 3881.21 -2.04437 2.54702 0
M  V30 39282 H 3879.87 -0.224785 3.6591 0
M  V30 39283 H 3879.52 -2.61776 4.29514 0
M  V30 39284 H 3879.22 -1.52965 5.67341 0
M  V30 39285 H 3880.74 -2.45827 5.58929 0
M  V30 39286 H 3882.16 -0.191187 5.72981 0
M  V30 39287 H 3880.56 0.561144 5.97471 0
M  V30 39288 H 3881.63 1.17919 4.70344 0
M  V30 39289 N 3882.97 -1.5579 0.238166 0
M  V30 39290 C 3883.93 -2.19741 -0.651664 0
M  V30 39291 C 3884.93 -1.1641 -1.1093 0
M  V30 39292 O 3886.12 -1.41545 -1.01542 0
M  V30 39293 C 3883.25 -2.83401 -1.89465 0
M  V30 39294 H 3884.45 -2.99753 -0.0938486 0
M  V30 39295 H 3882 -1.56296 -0.0114073 0
M  V30 39296 H 3882.73 -2.07303 -2.49391 0
M  V30 39297 H 3882.52 -3.59086 -1.5748 0
M  V30 39298 H 3884.01 -3.32369 -2.52825 0
M  V30 39299 N 3884.45 0.0350506 -1.57561 0
M  V30 39300 C 3885.69 0.728139 -1.89278 0
M  V30 39301 C 3886.03 1.75324 -0.835168 0
M  V30 39302 O 3885.3 1.93917 0.150481 0
M  V30 39303 C 3885.58 1.4031 -3.3164 0
M  V30 39304 C 3885.44 0.391917 -4.48089 0
M  V30 39305 C 3886.76 2.33865 -3.7282 0
M  V30 39306 H 3883.87 0.263238 -0.688386 0
M  V30 39307 H 3886.52 -0.00904 -1.89998 0
M  V30 39308 H 3884.67 2.03144 -3.31157 0
M  V30 39309 H 3886.34 -0.234046 -4.60706 0
M  V30 39310 H 3884.58 -0.289381 -4.32834 0
M  V30 39311 H 3885.25 0.902546 -5.44571 0
M  V30 39312 H 3887.73 1.8108 -3.74632 0
M  V30 39313 H 3886.6 2.78075 -4.7325 0
M  V30 39314 H 3886.87 3.20281 -3.0475 0
M  V30 39315 N 3885.92 1.54577 0.307209 0
M  V30 39316 C 3887.17 1.74752 1.04084 0
M  V30 39317 C 3887.53 0.523587 1.85139 0
M  V30 39318 O 3886.82 -0.484024 1.85385 0
M  V30 39319 C 3887.01 2.97338 1.98304 0
M  V30 39320 C 3886.84 4.31536 1.26517 0
M  V30 39321 C 3885.61 4.95409 0.99489 0
M  V30 39322 C 3887.81 5.09881 0.672755 0
M  V30 39323 N 3885.79 6.13404 0.246634 0
M  V30 39324 C 3887.16 6.19974 0.0569509 0
M  V30 39325 C 3889.22 4.94543 0.577188 0
M  V30 39326 C 3887.92 7.16401 -0.645166 0
M  V30 39327 C 3889.95 5.91295 -0.111261 0
M  V30 39328 C 3889.31 7.00752 -0.715941 0
M  V30 39329 H 3885.41 0.692112 0.364012 0
M  V30 39330 H 3887.99 1.9205 0.320156 0
M  V30 39331 H 3886.16 2.81477 2.67629 0
M  V30 39332 H 3887.89 3.06067 2.64774 0
M  V30 39333 H 3884.65 4.55652 1.29145 0
M  V30 39334 H 3885.07 6.76904 -0.113827 0
M  V30 39335 H 3889.72 4.10052 1.03039 0
M  V30 39336 H 3887.43 8.00438 -1.11015 0
M  V30 39337 H 3891.02 5.81506 -0.185064 0
M  V30 39338 H 3889.9 7.74331 -1.24019 0
M  V30 39339 N 3887.4 -0.570096 1.46927 0
M  V30 39340 C 3888.35 -1.69926 1.58833 0
M  V30 39341 C 3889.34 -1.63142 0.456195 0
M  V30 39342 O 3890.55 -1.68483 0.633532 0
M  V30 39343 H 3886.93 -0.56204 0.499615 0
M  V30 39344 H 3888.9 -1.57019 2.53747 0
M  V30 39345 C 3887.65 -3.08301 1.60766 0
M  V30 39346 H 3886.97 -3.14198 2.47224 0
M  V30 39347 H 3888.41 -3.87034 1.73149 0
M  V30 39348 C 3886.87 -3.35194 0.338574 0
M  V30 39349 O 3887.4 -3.97695 -0.565847 0
M  V30 39350 N 3885.6 -2.89746 0.222576 0
M  V30 39351 H 3885.15 -2.39064 0.959477 0
M  V30 39352 H 3885.11 -3.08112 -0.625643 0
M  V30 39353 N 3888.88 -1.34844 -0.815777 0
M  V30 39354 C 3889.81 -1.21356 -1.93256 0
M  V30 39355 C 3890.79 -0.103544 -1.6227 0
M  V30 39356 O 3891.98 -0.269987 -1.86556 0
M  V30 39357 C 3889.1 -0.866552 -3.27427 0
M  V30 39358 C 3888.15 -1.98733 -3.77369 0
M  V30 39359 S 3888.98 -3.6018 -3.96271 0
M  V30 39360 C 3890.14 -3.27536 -5.33358 0
M  V30 39361 H 3890.37 -2.15888 -2.04401 0
M  V30 39362 H 3887.9 -1.19953 -0.972144 0
M  V30 39363 H 3889.86 -0.673135 -4.04943 0
M  V30 39364 H 3888.52 0.0605446 -3.14042 0
M  V30 39365 H 3887.72 -1.69845 -4.74519 0
M  V30 39366 H 3887.32 -2.13861 -3.06822 0
M  V30 39367 H 3889.61 -2.79794 -6.17027 0
M  V30 39368 H 3890.55 -4.23852 -5.67234 0
M  V30 39369 H 3890.96 -2.63536 -4.99209 0
M  V30 39370 N 3890.36 1.03684 -1.1869 0
M  V30 39371 C 3891.61 1.77212 -0.986091 0
M  V30 39372 C 3891.94 1.88104 0.482755 0
M  V30 39373 O 3891.21 1.39197 1.35847 0
M  V30 39374 C 3891.5 3.20271 -1.64617 0
M  V30 39375 C 3891.35 3.17298 -3.18813 0
M  V30 39376 C 3892.67 4.18476 -1.36258 0
M  V30 39377 H 3889.79 0.643292 -0.359645 0
M  V30 39378 H 3892.43 1.21091 -1.46414 0
M  V30 39379 H 3890.58 3.6819 -1.2397 0
M  V30 39380 H 3892.25 2.77339 -3.6862 0
M  V30 39381 H 3890.49 2.55226 -3.50773 0
M  V30 39382 H 3891.17 4.18335 -3.60138 0
M  V30 39383 H 3893.64 3.79121 -1.71483 0
M  V30 39384 H 3892.52 5.16782 -1.85006 0
M  V30 39385 H 3892.78 4.41173 -0.28619 0
M  V30 39386 N 3891.84 0.989551 1.22661 0
M  V30 39387 C 3892.8 0.542222 2.22694 0
M  V30 39388 C 3893.8 -0.373104 1.56412 0
M  V30 39389 O 3894.99 -0.165526 1.73412 0
M  V30 39390 C 3892.12 -0.211781 3.40242 0
M  V30 39391 H 3893.32 1.42683 2.63783 0
M  V30 39392 H 3890.87 0.776401 1.35653 0
M  V30 39393 H 3891.6 -1.11252 3.0462 0
M  V30 39394 H 3891.39 0.445387 3.89562 0
M  V30 39395 H 3892.88 -0.513034 4.14437 0
M  V30 39396 N 3893.32 -1.37936 0.762332 0
M  V30 39397 C 3894.54 -2.04195 0.333494 0
M  V30 39398 C 3894.96 -1.57498 -1.04115 0
M  V30 39399 O 3894.32 -0.751968 -1.66288 0
M  V30 39400 C 3894.37 -3.59734 0.356913 0
M  V30 39401 O 3894.09 -4.04719 1.67732 0
M  V30 39402 C 3895.59 -4.43219 -0.0846997 0
M  V30 39403 H 3892.81 -0.655993 0.141118 0
M  V30 39404 H 3895.35 -1.76455 1.03363 0
M  V30 39405 H 3893.51 -3.86279 -0.294557 0
M  V30 39406 H 3893.92 -4.99195 1.60948 0
M  V30 39407 H 3895.4 -5.51997 -0.017155 0
M  V30 39408 H 3895.87 -4.24313 -1.1338 0
M  V30 39409 H 3896.48 -4.21881 0.538225 0
M  V30 39410 N 3894.79 -0.512106 -1.49048 0
M  V30 39411 C 3896.04 0.0284954 -2.0278 0
M  V30 39412 C 3896.37 1.35614 -1.39005 0
M  V30 39413 O 3895.65 1.87152 -0.529553 0
M  V30 39414 C 3895.93 0.16937 -3.59701 0
M  V30 39415 C 3895.78 -1.18218 -4.33987 0
M  V30 39416 C 3897.1 0.904737 -4.307 0
M  V30 39417 H 3894.22 0.00888172 -0.736946 0
M  V30 39418 H 3896.86 -0.665672 -1.77957 0
M  V30 39419 H 3895.01 0.7606 -3.80982 0
M  V30 39420 H 3896.69 -1.81315 -4.24173 0
M  V30 39421 H 3894.93 -1.76866 -3.96107 0
M  V30 39422 H 3895.6 -1.0368 -5.42176 0
M  V30 39423 H 3898.08 0.403198 -4.14142 0
M  V30 39424 H 3896.95 0.972169 -5.40222 0
M  V30 39425 H 3897.21 1.95101 -3.96722 0
M  V30 39426 N 3896.27 1.55662 -0.246424 0
M  V30 39427 C 3897.55 1.90843 0.428757 0
M  V30 39428 C 3897.93 1.1671 1.75903 0
M  V30 39429 O 3897.28 0.284431 2.26723 0
M  V30 39430 C 3897.49 3.43851 0.597308 0
M  V30 39431 C 3898.83 4.15095 0.893404 0
M  V30 39432 O 3899.86 3.49587 0.683189 0
M  V30 39433 O 3898.72 5.30966 1.29371 0
M  V30 39434 H 3895.81 0.794335 0.230131 0
M  V30 39435 H 3898.36 1.67196 -0.290455 0
M  V30 39436 H 3897.13 3.8982 -0.340021 0
M  V30 39437 H 3896.75 3.73359 1.36708 0
M  V30 39438 N 3897.75 -0.0266943 1.57577 0
M  V30 39439 C 3898.71 -1.01124 2.05686 0
M  V30 39440 C 3899.71 -1.28895 0.961396 0
M  V30 39441 O 3900.9 -1.23859 1.22494 0
M  V30 39442 C 3898.03 -2.34344 2.4758 0
M  V30 39443 H 3899.23 -0.595629 2.93926 0
M  V30 39444 H 3896.78 -0.273576 1.53887 0
M  V30 39445 H 3897.52 -2.80648 1.62503 0
M  V30 39446 H 3897.3 -2.15516 3.2756 0
M  V30 39447 H 3898.79 -3.05024 2.85219 0
M  V30 39448 N 3899.23 -1.54738 -0.299007 0
M  V30 39449 C 3900.47 -1.74113 -1.03397 0
M  V30 39450 C 3900.8 -0.527997 -1.87196 0
M  V30 39451 O 3900.06 0.490019 -1.89466 0
M  V30 39452 C 3900.36 -2.98386 -1.96725 0
M  V30 39453 C 3900.02 -4.32087 -1.28885 0
M  V30 39454 C 3898.68 -4.68431 -1.10116 0
M  V30 39455 C 3901.04 -5.14961 -0.804024 0
M  V30 39456 C 3898.36 -5.85227 -0.415519 0
M  V30 39457 C 3900.72 -6.32462 -0.132093 0
M  V30 39458 C 3899.38 -6.67466 0.0675332 0
M  V30 39459 H 3898.65 -0.637125 -0.378355 0
M  V30 39460 H 3901.3 -1.88996 -0.308653 0
M  V30 39461 H 3899.6 -2.78293 -2.75791 0
M  V30 39462 H 3901.3 -3.10572 -2.53665 0
M  V30 39463 H 3897.89 -4.03507 -1.445 0
M  V30 39464 H 3902.07 -4.8738 -0.936734 0
M  V30 39465 H 3897.33 -6.10889 -0.249886 0
M  V30 39466 H 3901.5 -6.95946 0.251468 0
M  V30 39467 H 3899.13 -7.57822 0.600824 0
M  V30 39468 N 3900.71 0.562296 -1.47228 0
M  V30 39469 C 3901.64 1.67962 -1.62207 0
M  V30 39470 C 3902.62 1.6343 -0.471667 0
M  V30 39471 O 3903.8 1.8113 -0.700392 0
M  V30 39472 C 3900.93 3.06602 -1.63133 0
M  V30 39473 C 3899.89 3.25978 -2.77349 0
M  V30 39474 C 3899.21 4.65353 -2.63344 0
M  V30 39475 C 3900.51 3.11842 -4.18989 0
M  V30 39476 H 3902.21 1.55682 -2.55741 0
M  V30 39477 H 3899.75 0.747539 -1.23077 0
M  V30 39478 H 3901.7 3.84609 -1.72203 0
M  V30 39479 H 3900.43 3.1983 -0.661557 0
M  V30 39480 H 3899.09 2.50378 -2.6778 0
M  V30 39481 H 3898.74 4.75373 -1.64406 0
M  V30 39482 H 3898.44 4.79267 -3.39966 0
M  V30 39483 H 3899.96 5.45502 -2.74336 0
M  V30 39484 H 3901.37 3.79672 -4.29561 0
M  V30 39485 H 3899.77 3.37268 -4.96357 0
M  V30 39486 H 3900.84 2.08653 -4.37712 0
M  V30 39487 N 3902.18 1.35274 0.808615 0
M  V30 39488 C 3903.41 1.31702 1.60217 0
M  V30 39489 C 3903.83 -0.103353 1.87816 0
M  V30 39490 O 3903.19 -1.06955 1.46391 0
M  V30 39491 C 3903.24 2.12745 2.91156 0
M  V30 39492 O 3902.34 1.50677 3.83888 0
M  V30 39493 H 3901.68 0.451648 0.486734 0
M  V30 39494 H 3904.21 1.78286 1.00375 0
M  V30 39495 H 3904.22 2.24626 3.40598 0
M  V30 39496 H 3902.9 3.16007 2.70394 0
M  V30 39497 H 3901.48 1.47624 3.42435 0
M  V30 39498 N 3903.66 -1.03053 1.19239 0
M  V30 39499 C 3904.89 -1.80592 1.01986 0
M  V30 39500 C 3905.31 -1.83193 -0.426842 0
M  V30 39501 O 3904.67 -1.25672 -1.30676 0
M  V30 39502 C 3904.72 -3.23582 1.59144 0
M  V30 39503 O 3903.82 -4.04173 0.819647 0
M  V30 39504 H 3903.16 -0.557555 0.360595 0
M  V30 39505 H 3905.69 -1.29716 1.58224 0
M  V30 39506 H 3905.7 -3.74334 1.62289 0
M  V30 39507 H 3904.38 -3.21004 2.64442 0
M  V30 39508 H 3902.96 -3.62816 0.861317 0
M  V30 39509 N 3905.14 -0.996042 -1.22134 0
M  V30 39510 C 3906.39 -0.672337 -1.90589 0
M  V30 39511 C 3906.71 0.798445 -1.77904 0
M  V30 39512 O 3905.98 1.57255 -1.16823 0
M  V30 39513 H 3904.56 -0.245689 -0.70544 0
M  V30 39514 H 3907.22 -1.26322 -1.48421 0
M  V30 39515 H 3906.32 -0.937629 -2.97683 0
M  V30 39516 N 3906.62 1.37529 -0.769636 0
M  V30 39517 C 3907.87 1.99743 -0.333001 0
M  V30 39518 C 3908.19 1.61096 1.08987 0
M  V30 39519 O 3907.45 0.847687 1.76388 0
M  V30 39520 C 3907.75 3.54906 -0.421448 0
M  V30 39521 C 3907.41 4.13315 -1.80227 0
M  V30 39522 C 3906.08 4.2898 -2.18013 0
M  V30 39523 C 3908.43 4.45369 -2.70732 0
M  V30 39524 C 3905.76 4.74002 -3.45744 0
M  V30 39525 C 3908.11 4.91815 -3.97871 0
M  V30 39526 C 3906.77 5.05686 -4.35704 0
M  V30 39527 H 3906.04 0.730912 -0.121854 0
M  V30 39528 H 3908.69 1.6433 -0.983249 0
M  V30 39529 H 3906.99 3.90553 0.312342 0
M  V30 39530 H 3908.69 4.00947 -0.064941 0
M  V30 39531 H 3905.28 4.01547 -1.49859 0
M  V30 39532 H 3909.46 4.32853 -2.428 0
M  V30 39533 H 3904.72 4.82928 -3.74954 0
M  V30 39534 H 3908.89 5.15584 -4.6813 0
M  V30 39535 H 3906.52 5.40332 -5.34739 0
M  V30 39536 N 3908.1 0.520003 1.48774 0
M  V30 39537 C 3909.32 -0.0160696 2.07394 0
M  V30 39538 C 3909.75 -1.28319 1.37535 0
M  V30 39539 O 3909.1 -1.75928 0.43808 0
M  V30 39540 C 3909.15 -0.233319 3.59844 0
M  V30 39541 O 3908.26 -1.30411 3.91237 0
M  V30 39542 H 3907.6 0.0346794 0.663094 0
M  V30 39543 H 3910.13 0.725063 1.91322 0
M  V30 39544 H 3910.14 -0.459039 4.05409 0
M  V30 39545 H 3908.81 0.692362 4.10097 0
M  V30 39546 H 3907.39 -1.06184 3.57462 0
M  V30 39547 N 3909.57 -1.55529 0.254676 0
M  V30 39548 C 3910.99 -1.85059 -0.247009 0
M  V30 39549 C 3911.34 -1.17658 -1.57007 0
M  V30 39550 O 3910.46 -0.457675 -2.11505 0
M  V30 39551 C 3911.06 -3.35731 -0.454958 0
M  V30 39552 C 3909.62 -3.6546 -0.900897 0
M  V30 39553 C 3908.76 -2.77294 0.0174923 0
M  V30 39554 H 3911.71 -1.51361 0.477032 0
M  V30 39555 H 3911.73 -3.57732 -1.29647 0
M  V30 39556 H 3911.25 -3.84759 0.508144 0
M  V30 39557 H 3909.35 -3.21916 -1.87619 0
M  V30 39558 H 3909.46 -4.73156 -0.752375 0
M  V30 39559 H 3907.82 -2.49839 -0.495252 0
M  V30 39560 H 3908.61 -3.29131 0.976107 0
M  V30 39561 N 3911.05 0.0183372 -1.57589 0
M  V30 39562 C 3912.02 1.00032 -2.06219 0
M  V30 39563 C 3913.02 1.28383 -0.968218 0
M  V30 39564 O 3914.21 1.23207 -1.23149 0
M  V30 39565 C 3911.34 2.33027 -2.48819 0
M  V30 39566 H 3912.53 0.580034 -2.94237 0
M  V30 39567 H 3910.08 0.265411 -1.5403 0
M  V30 39568 H 3910.82 2.79782 -1.63989 0
M  V30 39569 H 3910.6 2.13776 -3.28698 0
M  V30 39570 H 3912.09 3.03507 -2.86833 0
M  V30 39571 N 3912.53 1.54894 0.290797 0
M  V30 39572 C 3913.44 1.89621 1.38134 0
M  V30 39573 C 3914.46 0.79146 1.54958 0
M  V30 39574 O 3915.63 1.08888 1.69426 0
M  V30 39575 C 3912.7 2.14539 2.72349 0
M  V30 39576 C 3911.76 3.38199 2.64423 0
M  V30 39577 C 3910.99 3.61919 3.92238 0
M  V30 39578 O 3911.21 2.88463 4.92083 0
M  V30 39579 O 3910.15 4.55445 3.93515 0
M  V30 39580 H 3913.97 2.82419 1.11683 0
M  V30 39581 H 3911.56 1.41213 0.487764 0
M  V30 39582 H 3913.44 2.3207 3.51741 0
M  V30 39583 H 3912.12 1.24926 2.98622 0
M  V30 39584 H 3911.02 3.26022 1.83469 0
M  V30 39585 H 3912.36 4.27975 2.43102 0
M  V30 39586 N 3914.01 -0.55448 1.47524 0
M  V30 39587 C 3915.25 -1.31348 1.54518 0
M  V30 39588 C 3915.59 -1.93084 0.207926 0
M  V30 39589 O 3914.86 -1.78012 -0.783718 0
M  V30 39590 C 3915.15 -2.42152 2.66523 0
M  V30 39591 C 3915 -1.85266 4.09874 0
M  V30 39592 C 3916.32 -3.44063 2.74424 0
M  V30 39593 H 3913.44 -0.476209 0.562489 0
M  V30 39594 H 3916.08 -0.620215 1.79592 0
M  V30 39595 H 3914.23 -3.01286 2.45274 0
M  V30 39596 H 3915.9 -1.30372 4.42494 0
M  V30 39597 H 3914.14 -1.15927 4.18023 0
M  V30 39598 H 3914.81 -2.6538 4.84022 0
M  V30 39599 H 3917.29 -2.94852 2.93601 0
M  V30 39600 H 3916.17 -4.19017 3.54565 0
M  V30 39601 H 3916.43 -4.03084 1.81591 0
M  V30 39602 N 3915.49 -1.35701 -0.80143 0
M  V30 39603 C 3916.42 -1.23399 -1.91958 0
M  V30 39604 C 3917.4 -0.120749 -1.62151 0
M  V30 39605 O 3918.58 -0.289758 -1.8626 0
M  V30 39606 C 3915.71 -0.901231 -3.2649 0
M  V30 39607 C 3914.75 -2.02725 -3.7524 0
M  V30 39608 S 3915.59 -3.64363 -3.92429 0
M  V30 39609 C 3916.74 -3.33174 -5.29854 0
M  V30 39610 H 3916.98 -2.18044 -2.02099 0
M  V30 39611 H 3914.51 -1.20977 -0.959367 0
M  V30 39612 H 3916.47 -0.716047 -4.04207 0
M  V30 39613 H 3915.13 0.0272329 -3.14088 0
M  V30 39614 H 3914.32 -1.74869 -4.72691 0
M  V30 39615 H 3913.92 -2.17103 -3.04536 0
M  V30 39616 H 3916.22 -2.86322 -6.14024 0
M  V30 39617 H 3917.16 -4.29845 -5.62707 0
M  V30 39618 H 3917.57 -2.68816 -4.96385 0
M  V30 39619 N 3916.96 1.02419 -1.19783 0
M  V30 39620 C 3918.38 1.28168 -0.951057 0
M  V30 39621 C 3918.58 1.98002 0.373848 0
M  V30 39622 O 3917.64 2.27075 1.10423 0
M  V30 39623 C 3918.95 2.12417 -2.12837 0
M  V30 39624 C 3920.5 2.25709 -2.16851 0
M  V30 39625 C 3920.97 3.13332 -3.34047 0
M  V30 39626 N 3922.46 3.2092 -3.34013 0
M  V30 39627 C 3923.2 3.88922 -4.2134 0
M  V30 39628 N 3922.69 4.59114 -5.18831 0
M  V30 39629 N 3924.49 3.85369 -4.09203 0
M  V30 39630 H 3916.64 0.555086 -2.05018 0
M  V30 39631 H 3918.9 0.307561 -0.896722 0
M  V30 39632 H 3918.61 1.68432 -3.08745 0
M  V30 39633 H 3918.48 3.1314 -2.10294 0
M  V30 39634 H 3920.87 2.68922 -1.21511 0
M  V30 39635 H 3920.95 1.24521 -2.23446 0
M  V30 39636 H 3920.59 2.70826 -4.29669 0
M  V30 39637 H 3920.52 4.1459 -3.24689 0
M  V30 39638 H 3923.01 2.70934 -2.63445 0
M  V30 39639 H 3923.33 5.08648 -5.81805 0
M  V30 39640 H 3921.67 4.57964 -5.22775 0
M  V30 39641 H 3924.86 3.29674 -3.32314 0
M  V30 39642 H 3925.04 4.38091 -4.77473 0
M  V30 39643 N 3918.44 1.0025 1.21604 0
M  V30 39644 C 3919.67 0.701518 1.94325 0
M  V30 39645 C 3920.08 -0.739493 1.7415 0
M  V30 39646 O 3919.42 -1.51173 1.04367 0
M  V30 39647 C 3919.49 0.939629 3.47003 0
M  V30 39648 C 3919.15 2.36699 3.90925 0
M  V30 39649 C 3920.15 3.34707 3.97828 0
M  V30 39650 C 3917.83 2.70398 4.23309 0
M  V30 39651 C 3919.83 4.64482 4.36503 0
M  V30 39652 C 3917.51 4.0039 4.61661 0
M  V30 39653 C 3918.51 4.97244 4.68228 0
M  V30 39654 O 3918.2 6.24912 5.05708 0
M  V30 39655 H 3917.93 0.257909 0.624867 0
M  V30 39656 H 3920.49 1.34267 1.5544 0
M  V30 39657 H 3918.72 0.241308 3.85946 0
M  V30 39658 H 3920.4 0.632413 4.00943 0
M  V30 39659 H 3921.17 3.10006 3.72989 0
M  V30 39660 H 3917.05 1.95708 4.17396 0
M  V30 39661 H 3920.59 5.40078 4.41544 0
M  V30 39662 H 3916.49 4.24876 4.85953 0
M  V30 39663 H 3917.26 6.2899 5.23749 0
M  V30 39664 N 3919.92 -1.37119 0.776919 0
M  V30 39665 C 3921.17 -1.99859 0.344099 0
M  V30 39666 C 3921.5 -1.6153 -1.07803 0
M  V30 39667 O 3920.78 -0.863993 -1.74257 0
M  V30 39668 C 3921.06 -3.56701 0.493574 0
M  V30 39669 C 3920.91 -4.04923 1.95849 0
M  V30 39670 C 3922.23 -4.39989 -0.0990197 0
M  V30 39671 H 3919.35 -0.726062 0.126502 0
M  V30 39672 H 3921.99 -1.6272 0.980927 0
M  V30 39673 H 3920.14 -3.8847 -0.0485661 0
M  V30 39674 H 3921.81 -3.83698 2.56074 0
M  V30 39675 H 3920.06 -3.56925 2.4655 0
M  V30 39676 H 3920.73 -5.13943 2.01411 0
M  V30 39677 H 3923.2 -4.14508 0.363618 0
M  V30 39678 H 3922.08 -5.48888 0.0356713 0
M  V30 39679 H 3922.34 -4.25787 -1.18987 0
M  V30 39680 N 3921.4 -0.527886 -1.48496 0
M  V30 39681 C 3922.35 0.255835 -2.2656 0
M  V30 39682 C 3923.33 0.911754 -1.32574 0
M  V30 39683 O 3924.53 0.814907 -1.57125 0
M  V30 39684 C 3921.65 1.30342 -3.17594 0
M  V30 39685 C 3920.74 0.6524 -4.19052 0
M  V30 39686 N 3921.13 -0.26065 -5.05128 0
M  V30 39687 C 3919.43 0.909852 -4.36621 0
M  V30 39688 C 3920.13 -0.636008 -5.78213 0
M  V30 39689 N 3919.11 0.00241867 -5.436 0
M  V30 39690 H 3922.91 -0.446622 -2.90487 0
M  V30 39691 H 3920.42 -0.34577 -1.58676 0
M  V30 39692 H 3922.42 1.87858 -3.72176 0
M  V30 39693 H 3921.08 2.00728 -2.55222 0
M  V30 39694 H 3922.09 -0.633125 -5.14016 0
M  V30 39695 H 3918.77 1.60443 -3.8544 0
M  V30 39696 H 3920.16 -1.38457 -6.57479 0
M  V30 39697 N 3922.88 1.55391 -0.26292 0
M  V30 39698 C 3924.29 1.85187 0.237192 0
M  V30 39699 C 3924.64 1.18489 1.56381 0
M  V30 39700 O 3923.76 0.468886 2.11259 0
M  V30 39701 C 3924.36 3.35968 0.437146 0
M  V30 39702 C 3922.92 3.65932 0.881503 0
M  V30 39703 C 3922.07 2.77281 -0.0321977 0
M  V30 39704 H 3925.02 1.51106 -0.485052 0
M  V30 39705 H 3925.04 3.58414 1.27748 0
M  V30 39706 H 3924.55 3.84484 -0.528541 0
M  V30 39707 H 3922.65 3.22906 1.85909 0
M  V30 39708 H 3922.76 4.73548 0.727271 0
M  V30 39709 H 3921.13 2.50098 0.481996 0
M  V30 39710 H 3921.91 3.28608 -0.993548 0
M  V30 39711 N 3924.36 -0.00997961 1.57597 0
M  V30 39712 C 3925.58 -0.711817 1.94802 0
M  V30 39713 C 3926.01 -1.67063 0.864373 0
M  V30 39714 O 3925.36 -1.80421 -0.178357 0
M  V30 39715 C 3925.41 -1.42856 3.31096 0
M  V30 39716 O 3924.52 -2.54258 3.24694 0
M  V30 39717 H 3923.86 -0.190084 0.636211 0
M  V30 39718 H 3926.39 0.0402376 2.0456 0
M  V30 39719 H 3926.4 -1.79422 3.66431 0
M  V30 39720 H 3925.07 -0.725477 4.09524 0
M  V30 39721 H 3923.65 -2.20093 3.0102 0
M  V30 39722 N 3925.83 -1.55046 -0.282578 0
M  V30 39723 C 3926.76 -1.90274 -1.35344 0
M  V30 39724 C 3927.74 -0.763558 -1.51999 0
M  V30 39725 O 3928.93 -1.02088 -1.65202 0
M  V30 39726 C 3926.06 -2.16625 -2.7146 0
M  V30 39727 C 3925.01 -3.32457 -2.69548 0
M  V30 39728 C 3924.34 -3.44267 -4.09126 0
M  V30 39729 C 3925.64 -4.69098 -2.29661 0
M  V30 39730 H 3927.33 -2.79967 -1.06108 0
M  V30 39731 H 3924.88 -1.34704 -0.508994 0
M  V30 39732 H 3926.83 -2.39857 -3.46478 0
M  V30 39733 H 3925.56 -1.23722 -3.02259 0
M  V30 39734 H 3924.22 -3.09179 -1.96988 0
M  V30 39735 H 3923.86 -2.48848 -4.37131 0
M  V30 39736 H 3923.56 -4.2214 -4.08744 0
M  V30 39737 H 3925.09 -3.6978 -4.85896 0
M  V30 39738 H 3926.5 -4.91938 -2.94398 0
M  V30 39739 H 3924.9 -5.49818 -2.40457 0
M  V30 39740 H 3925.97 -4.68568 -1.24788 0
M  V30 39741 N 3927.31 0.546649 -1.47816 0
M  V30 39742 C 3928.56 1.30526 -1.55212 0
M  V30 39743 C 3928.89 1.92971 -0.218162 0
M  V30 39744 O 3928.17 1.78425 0.774266 0
M  V30 39745 C 3928.45 2.40735 -2.67804 0
M  V30 39746 C 3928.3 1.8309 -4.1085 0
M  V30 39747 C 3929.62 3.42603 -2.76244 0
M  V30 39748 H 3926.74 0.473219 -0.565007 0
M  V30 39749 H 3929.38 0.610682 -1.79919 0
M  V30 39750 H 3927.53 2.99981 -2.46868 0
M  V30 39751 H 3929.2 1.28023 -4.43179 0
M  V30 39752 H 3927.45 1.13708 -4.18632 0
M  V30 39753 H 3928.12 2.6281 -4.85423 0
M  V30 39754 H 3930.59 2.9329 -2.95161 0
M  V30 39755 H 3929.47 4.17131 -3.56782 0
M  V30 39756 H 3929.73 4.02116 -1.83726 0
M  V30 39757 N 3928.79 1.36124 0.794222 0
M  V30 39758 C 3929.75 1.29914 1.88826 0
M  V30 39759 C 3930.75 0.207867 1.59451 0
M  V30 39760 O 3931.94 0.462351 1.67952 0
M  V30 39761 C 3929.07 1.01275 3.25509 0
M  V30 39762 H 3930.27 2.27205 1.95749 0
M  V30 39763 H 3927.82 1.20827 0.991484 0
M  V30 39764 H 3928.56 0.0442105 3.2427 0
M  V30 39765 H 3928.34 1.8024 3.48218 0
M  V30 39766 H 3929.83 0.995214 4.05568 0
M  V30 39767 N 3930.27 -1.01782 1.20325 0
M  V30 39768 C 3931.22 -2.12414 0.947791 0
M  V30 39769 C 3932.21 -1.69102 -0.100413 0
M  V30 39770 O 3933.42 -1.79931 0.0498345 0
M  V30 39771 H 3929.79 -0.694183 0.28916 0
M  V30 39772 H 3931.76 -2.31145 1.88718 0
M  V30 39773 C 3930.51 -3.43864 0.51509 0
M  V30 39774 H 3929.83 -3.77616 1.31325 0
M  V30 39775 H 3931.27 -4.22334 0.37555 0
M  V30 39776 C 3929.73 -3.27927 -0.772355 0
M  V30 39777 O 3930.26 -3.57539 -1.83109 0
M  V30 39778 N 3928.47 -2.8118 -0.733899 0
M  V30 39779 H 3928.02 -2.57282 0.127947 0
M  V30 39780 H 3927.97 -2.70899 -1.59566 0
M  V30 39781 N 3931.75 -1.00894 -1.21071 0
M  V30 39782 C 3932.97 -0.712847 -1.94232 0
M  V30 39783 C 3933.39 0.725218 -1.74316 0
M  V30 39784 O 3932.75 1.49109 -1.05227 0
M  V30 39785 C 3932.8 -1.02937 -3.46535 0
M  V30 39786 O 3932.52 -2.41095 -3.65794 0
M  V30 39787 C 3934.02 -0.753243 -4.36854 0
M  V30 39788 H 3931.24 -0.262378 -0.617575 0
M  V30 39789 H 3933.78 -1.34805 -1.53779 0
M  V30 39790 H 3931.94 -0.439701 -3.84897 0
M  V30 39791 H 3932.35 -2.52262 -4.59852 0
M  V30 39792 H 3933.83 -1.02486 -5.42403 0
M  V30 39793 H 3934.3 0.312684 -4.38086 0
M  V30 39794 H 3934.91 -1.32471 -4.04143 0
M  V30 39795 N 3933.22 1.36705 -0.78418 0
M  V30 39796 C 3934.16 2.2879 -0.136985 0
M  V30 39797 C 3935.17 1.49229 0.650724 0
M  V30 39798 O 3936.36 1.71735 0.486769 0
M  V30 39799 C 3933.46 3.28598 0.829248 0
M  V30 39800 C 3932.63 4.37302 0.0927131 0
M  V30 39801 C 3931.69 5.17105 0.974122 0
M  V30 39802 O 3930.72 5.67548 0.433299 0
M  V30 39803 N 3931.92 5.33035 2.299 0
M  V30 39804 H 3934.68 2.84972 -0.927956 0
M  V30 39805 H 3932.24 1.48815 -0.637622 0
M  V30 39806 H 3934.24 3.78872 1.42262 0
M  V30 39807 H 3932.81 2.73094 1.52112 0
M  V30 39808 H 3932.03 3.88261 -0.681683 0
M  V30 39809 H 3933.31 5.07099 -0.415745 0
M  V30 39810 H 3932.71 4.93657 2.7626 0
M  V30 39811 H 3931.27 5.86571 2.84213 0
M  V30 39812 N 3934.7 0.535753 1.48214 0
M  V30 39813 C 3935.95 0.00375569 2.021 0
M  V30 39814 C 3936.27 -1.34218 1.41458 0
M  V30 39815 O 3935.54 -1.87054 0.58202 0
M  V30 39816 H 3934.12 -0.00159982 0.746998 0
M  V30 39817 H 3936.78 0.700895 1.81861 0
M  V30 39818 H 3935.88 -0.100297 3.11939 0
M  V30 39819 N 3936.18 -1.5525 0.271158 0
M  V30 39820 C 3937.41 -2.03915 -0.350212 0
M  V30 39821 C 3937.82 -1.14966 -1.49761 0
M  V30 39822 O 3937.18 -0.168955 -1.81716 0
M  V30 39823 C 3937.23 -3.51724 -0.834995 0
M  V30 39824 O 3936.95 -4.37287 0.266702 0
M  V30 39825 C 3938.45 -4.16259 -1.52458 0
M  V30 39826 H 3935.67 -0.666168 -0.0803837 0
M  V30 39827 H 3938.22 -2.00508 0.402098 0
M  V30 39828 H 3936.37 -3.55588 -1.53741 0
M  V30 39829 H 3936.79 -5.24394 -0.105341 0
M  V30 39830 H 3938.26 -5.21299 -1.81525 0
M  V30 39831 H 3938.74 -3.64193 -2.45479 0
M  V30 39832 H 3939.34 -4.16387 -0.866126 0
M  V30 39833 N 3937.66 0.00162173 -1.576 0
M  V30 39834 C 3938.91 0.685452 -1.90121 0
M  V30 39835 C 3939.23 1.74403 -0.872275 0
M  V30 39836 O 3938.5 1.95691 0.0905376 0
M  V30 39837 H 3937.08 0.256165 -0.701704 0
M  V30 39838 H 3939.74 -0.0389209 -1.94861 0
M  V30 39839 H 3938.84 1.15773 -2.89833 0
M  V30 39840 N 3939.14 1.55194 0.274352 0
M  V30 39841 C 3940.07 1.82906 1.36458 0
M  V30 39842 C 3941.05 0.682002 1.47606 0
M  V30 39843 O 3942.23 0.924856 1.64252 0
M  V30 39844 C 3939.36 1.98947 2.74113 0
M  V30 39845 C 3938.4 3.21495 2.80256 0
M  V30 39846 S 3939.24 4.78888 2.39639 0
M  V30 39847 C 3940.39 4.979 3.79271 0
M  V30 39848 H 3940.63 2.75091 1.12747 0
M  V30 39849 H 3938.16 1.46947 0.47391 0
M  V30 39850 H 3940.12 2.08874 3.53386 0
M  V30 39851 H 3938.78 1.07652 2.95076 0
M  V30 39852 H 3937.97 3.29602 3.81285 0
M  V30 39853 H 3937.57 3.10152 2.09002 0
M  V30 39854 H 3939.87 4.83559 4.74528 0
M  V30 39855 H 3940.81 5.99952 3.76117 0
M  V30 39856 H 3941.22 4.2589 3.7051 0
M  V30 39857 N 3940.61 -0.538802 1.48104 0
M  V30 39858 C 3941.86 -1.29254 1.55364 0
M  V30 39859 C 3942.18 -1.93692 0.225461 0
M  V30 39860 O 3941.45 -1.80881 -0.752248 0
M  V30 39861 H 3940.03 -0.480039 0.572339 0
M  V30 39862 H 3942.7 -0.627717 1.84515 0
M  V30 39863 H 3941.79 -2.07645 2.33002 0
M  V30 39864 N 3942.09 -1.36544 -0.786992 0
M  V30 39865 C 3943.34 -1.3065 -1.54192 0
M  V30 39866 C 3943.66 0.113161 -1.94671 0
M  V30 39867 O 3942.93 1.05394 -1.65133 0
M  V30 39868 H 3941.51 -0.480623 -0.571849 0
M  V30 39869 H 3944.17 -1.70867 -0.93758 0
M  V30 39870 H 3943.27 -1.93549 -2.44837 0
M  V30 39871 N 3943.57 1.01143 -1.20863 0
M  V30 39872 C 3944.82 1.74476 -1.01993 0
M  V30 39873 C 3945.14 1.89775 0.448367 0
M  V30 39874 O 3944.41 1.44401 1.32383 0
M  V30 39875 H 3942.99 0.6464 -0.374401 0
M  V30 39876 H 3945.65 1.21915 -1.52062 0
M  V30 39877 H 3944.75 2.74639 -1.48255 0
M  V30 39878 N 3945.05 1.01535 1.20534 0
M  V30 39879 C 3946.28 0.723138 1.93851 0
M  V30 39880 C 3946.69 -0.715964 1.74698 0
M  V30 39881 O 3946.05 -1.48549 1.06016 0
M  V30 39882 C 3946.1 1.04773 3.45984 0
M  V30 39883 O 3945.82 2.43031 3.6451 0
M  V30 39884 C 3947.32 0.7764 4.36448 0
M  V30 39885 H 3944.54 0.26565 0.616175 0
M  V30 39886 H 3947.09 1.35619 1.53061 0
M  V30 39887 H 3945.24 0.460107 3.84658 0
M  V30 39888 H 3945.65 2.54697 4.58508 0
M  V30 39889 H 3947.13 1.05361 5.41852 0
M  V30 39890 H 3947.61 -0.289447 4.38245 0
M  V30 39891 H 3948.21 1.34612 4.03435 0
M  V30 39892 N 3946.53 -1.36288 0.791419 0
M  V30 39893 C 3947.75 -2.03971 0.375602 0
M  V30 39894 C 3948.18 -1.59279 -1.00059 0
M  V30 39895 O 3947.53 -0.762211 -1.64499 0
M  V30 39896 C 3947.58 -3.57782 0.449954 0
M  V30 39897 O 3946.69 -4.08818 -0.542358 0
M  V30 39898 H 3946.03 -0.644635 0.159192 0
M  V30 39899 H 3948.56 -1.74201 1.07309 0
M  V30 39900 H 3948.57 -4.06788 0.314278 0
M  V30 39901 H 3947.24 -3.89662 1.45383 0
M  V30 39902 H 3945.82 -3.71078 -0.368178 0
M  V30 39903 N 3948.01 -0.543606 -1.47928 0
M  V30 39904 C 3948.94 0.259219 -2.26723 0
M  V30 39905 C 3949.92 0.9326 -1.33197 0
M  V30 39906 O 3951.1 0.954294 -1.62559 0
M  V30 39907 C 3948.23 1.3682 -3.09835 0
M  V30 39908 C 3947.27 0.804806 -4.18838 0
M  V30 39909 S 3948.11 -0.338006 -5.34432 0
M  V30 39910 C 3949.26 0.773125 -6.21107 0
M  V30 39911 H 3949.5 -0.409449 -2.94467 0
M  V30 39912 H 3947.03 -0.329652 -1.5084 0
M  V30 39913 H 3948.99 2.00339 -3.58294 0
M  V30 39914 H 3947.65 2.00865 -2.41479 0
M  V30 39915 H 3946.84 1.63717 -4.76668 0
M  V30 39916 H 3946.44 0.246058 -3.7319 0
M  V30 39917 H 3948.73 1.66854 -6.56632 0
M  V30 39918 H 3949.68 0.232487 -7.07718 0
M  V30 39919 H 3950.09 1.05967 -5.54465 0
M  V30 39920 N 3949.48 1.55104 -0.279387 0
M  V30 39921 C 3950.42 2.20097 0.639533 0
M  V30 39922 C 3951.43 1.18698 1.11421 0
M  V30 39923 O 3952.62 1.45404 1.03538 0
M  V30 39924 C 3949.72 2.81647 1.88489 0
M  V30 39925 C 3948.89 4.08776 1.55632 0
M  V30 39926 C 3947.95 4.54333 2.65458 0
M  V30 39927 O 3946.98 5.20013 2.31464 0
M  V30 39928 N 3948.18 4.24832 3.95599 0
M  V30 39929 H 3950.94 2.99584 0.0832522 0
M  V30 39930 H 3948.5 1.61587 -0.100666 0
M  V30 39931 H 3950.5 3.09067 2.61266 0
M  V30 39932 H 3949.07 2.06127 2.35012 0
M  V30 39933 H 3948.29 3.88598 0.662184 0
M  V30 39934 H 3949.57 4.91597 1.31187 0
M  V30 39935 H 3948.97 3.72169 4.26036 0
M  V30 39936 H 3947.53 4.57012 4.6474 0
M  V30 39937 N 3950.96 0.0067362 1.57599 0
M  V30 39938 C 3952.19 -0.687499 1.95144 0
M  V30 39939 C 3952.6 -1.66932 0.881989 0
M  V30 39940 O 3951.96 -1.81974 -0.138438 0
M  V30 39941 C 3952.01 -1.41349 3.3272 0
M  V30 39942 O 3951.73 -0.471034 4.3556 0
M  V30 39943 C 3953.23 -2.20161 3.84765 0
M  V30 39944 H 3950.45 -0.191054 0.643226 0
M  V30 39945 H 3953 0.0598573 2.04412 0
M  V30 39946 H 3951.15 -2.11242 3.24739 0
M  V30 39947 H 3951.57 -0.984001 5.15187 0
M  V30 39948 H 3953.04 -2.66446 4.83436 0
M  V30 39949 H 3953.52 -3.03123 3.17825 0
M  V30 39950 H 3954.12 -1.55271 3.95943 0
M  V30 39951 N 3952.44 -1.55337 -0.266118 0
M  V30 39952 C 3953.37 -1.83627 -1.35486 0
M  V30 39953 C 3954.35 -0.689821 -1.47242 0
M  V30 39954 O 3955.53 -0.933553 -1.63759 0
M  V30 39955 C 3952.66 -2.00398 -2.73054 0
M  V30 39956 C 3951.71 -3.22977 -2.78547 0
M  V30 39957 S 3952.54 -4.80152 -2.37096 0
M  V30 39958 C 3953.7 -4.99905 -3.76625 0
M  V30 39959 H 3953.93 -2.75685 -1.11287 0
M  V30 39960 H 3951.46 -1.47196 -0.466111 0
M  V30 39961 H 3953.42 -2.10745 -3.52274 0
M  V30 39962 H 3952.08 -1.09216 -2.94501 0
M  V30 39963 H 3951.27 -3.3162 -3.79532 0
M  V30 39964 H 3950.88 -3.11256 -2.07354 0
M  V30 39965 H 3953.17 -4.86069 -4.71957 0
M  V30 39966 H 3954.11 -6.01938 -3.7293 0
M  V30 39967 H 3954.52 -4.27849 -3.68247 0
M  V30 39968 N 3953.92 0.53094 -1.48387 0
M  V30 39969 C 3955.15 1.30968 -1.59784 0
M  V30 39970 C 3955.56 1.87448 -0.256863 0
M  V30 39971 O 3954.9 1.67068 0.763815 0
M  V30 39972 C 3954.96 2.49902 -2.58436 0
M  V30 39973 C 3954.62 2.14517 -4.03524 0
M  V30 39974 C 3955.62 1.70246 -4.91236 0
M  V30 39975 C 3953.31 2.25069 -4.49054 0
M  V30 39976 C 3955.3 1.36992 -6.22505 0
M  V30 39977 C 3952.99 1.91427 -5.80344 0
M  V30 39978 C 3953.99 1.47459 -6.66892 0
M  V30 39979 O 3953.67 1.14258 -7.95739 0
M  V30 39980 H 3953.41 0.404578 -0.541565 0
M  V30 39981 H 3955.96 0.647315 -1.94933 0
M  V30 39982 H 3954.19 3.19117 -2.18406 0
M  V30 39983 H 3955.88 3.11965 -2.59678 0
M  V30 39984 H 3956.64 1.61564 -4.57299 0
M  V30 39985 H 3952.52 2.58247 -3.81876 0
M  V30 39986 H 3956.07 1.02601 -6.90014 0
M  V30 39987 H 3951.96 1.99749 -6.13816 0
M  V30 39988 H 3952.73 1.27664 -8.08483 0
M  V30 39989 N 3955.4 1.36959 0.779739 0
M  V30 39990 C 3956.35 1.28595 1.88274 0
M  V30 39991 C 3957.33 0.175417 1.59941 0
M  V30 39992 O 3958.52 0.409101 1.72207 0
M  V30 39993 C 3955.65 1.0872 3.2563 0
M  V30 39994 C 3954.74 2.24283 3.59941 0
M  V30 39995 N 3955.13 3.49642 3.65491 0
M  V30 39996 C 3953.43 2.16262 3.9006 0
M  V30 39997 C 3954.13 4.25799 3.96321 0
M  V30 39998 N 3953.1 3.54848 4.11806 0
M  V30 39999 H 3956.9 2.23541 1.90805 0
M  V30 40000 H 3954.42 1.29817 0.975771 0
M  V30 40001 H 3956.42 1.00814 4.04527 0
M  V30 40002 H 3955.08 0.146843 3.24368 0
M  V30 40003 H 3956.09 3.83653 3.47895 0
M  V30 40004 H 3952.76 1.30237 3.96667 0
M  V30 40005 H 3954.15 5.34255 4.07457 0
M  V30 40006 N 3956.87 -1.00501 1.21398 0
M  V30 40007 C 3958.12 -1.73933 1.02916 0
M  V30 40008 C 3958.44 -1.9001 -0.438296 0
M  V30 40009 O 3957.71 -1.45101 -1.31615 0
M  V30 40010 H 3956.29 -0.644405 0.377824 0
M  V30 40011 H 3958.95 -1.21107 1.52706 0
M  V30 40012 H 3958.05 -2.73849 1.4971 0
M  V30 40013 N 3958.35 -1.02172 -1.19994 0
M  V30 40014 C 3959.3 -0.589766 -2.24999 0
M  V30 40015 C 3960.29 0.374057 -1.65219 0
M  V30 40016 O 3961.5 0.243418 -1.78347 0
M  V30 40017 H 3957.87 -0.172429 -0.731965 0
M  V30 40018 H 3959.85 -1.48619 -2.58757 0
M  V30 40019 C 3958.59 0.0509285 -3.47663 0
M  V30 40020 H 3957.92 -0.681719 -3.93945 0
M  V30 40021 H 3959.36 0.316213 -4.22819 0
M  V30 40022 C 3957.82 1.29532 -3.11003 0
M  V30 40023 O 3958.35 2.38812 -3.23004 0
M  V30 40024 N 3956.55 1.18136 -2.65504 0
M  V30 40025 H 3956.1 0.292127 -2.55938 0
M  V30 40026 H 3956.06 2.01494 -2.41346 0
M  V30 40027 N 3959.83 1.35866 -0.798635 0
M  V30 40028 C 3960.76 2.32482 -0.217792 0
M  V30 40029 C 3961.74 1.57094 0.652347 0
M  V30 40030 O 3962.93 1.85203 0.584265 0
M  V30 40031 C 3960.06 3.41336 0.640865 0
M  V30 40032 C 3959.01 4.27802 -0.130129 0
M  V30 40033 C 3958.34 5.27905 0.849718 0
M  V30 40034 C 3959.64 5.05224 -1.3246 0
M  V30 40035 H 3961.33 2.81309 -1.02497 0
M  V30 40036 H 3958.88 1.35249 -0.494325 0
M  V30 40037 H 3960.83 4.07923 1.05722 0
M  V30 40038 H 3959.55 2.91099 1.48085 0
M  V30 40039 H 3958.21 3.62784 -0.527564 0
M  V30 40040 H 3957.86 4.73938 1.68498 0
M  V30 40041 H 3957.56 5.86626 0.33822 0
M  V30 40042 H 3959.08 5.97364 1.26444 0
M  V30 40043 H 3960.5 5.648 -0.983529 0
M  V30 40044 H 3958.89 5.73402 -1.77003 0
M  V30 40045 H 3959.96 4.36329 -2.1153 0
M  V30 40046 N 3961.31 0.551443 1.47638 0
M  V30 40047 C 3962.24 -0.187846 2.32743 0
M  V30 40048 C 3963.22 -0.914381 1.43433 0
M  V30 40049 O 3964.4 -0.895974 1.72296 0
M  V30 40050 C 3961.53 -1.22194 3.25094 0
M  V30 40051 C 3960.49 -0.612223 4.23599 0
M  V30 40052 C 3959.81 -1.75053 5.05233 0
M  V30 40053 C 3961.11 0.430226 5.20525 0
M  V30 40054 H 3962.81 0.52265 2.94803 0
M  V30 40055 H 3960.35 0.252793 1.41764 0
M  V30 40056 H 3962.31 -1.74725 3.8347 0
M  V30 40057 H 3961.03 -1.9623 2.61077 0
M  V30 40058 H 3959.69 -0.10826 3.6644 0
M  V30 40059 H 3959.34 -2.47979 4.37625 0
M  V30 40060 H 3959.04 -1.34838 5.7192 0
M  V30 40061 H 3960.56 -2.27921 5.66467 0
M  V30 40062 H 3961.98 -0.00880091 5.73299 0
M  V30 40063 H 3960.37 0.750941 5.95383 0
M  V30 40064 H 3961.44 1.32823 4.66354 0
M  V30 40065 N 3962.79 -1.54953 0.287609 0
M  V30 40066 C 3964.03 -1.99471 -0.324932 0
M  V30 40067 C 3964.36 -1.1775 -1.55435 0
M  V30 40068 O 3963.63 -0.270101 -1.94029 0
M  V30 40069 H 3962.21 -0.736796 -0.123049 0
M  V30 40070 H 3964.87 -1.90838 0.395839 0
M  V30 40071 H 3963.96 -3.06156 -0.606211 0
M  V30 40072 N 3964.26 -0.0150939 -1.57593 0
M  V30 40073 C 3965.68 0.341161 -1.55911 0
M  V30 40074 C 3965.88 1.73818 -1.0193 0
M  V30 40075 O 3964.94 2.43727 -0.659795 0
M  V30 40076 C 3966.25 0.202586 -3.00017 0
M  V30 40077 C 3967.8 0.276402 -3.11777 0
M  V30 40078 C 3968.27 0.166778 -4.57696 0
M  V30 40079 N 3969.76 0.224205 -4.62657 0
M  V30 40080 C 3970.5 0.162953 -5.73168 0
M  V30 40081 N 3969.99 0.0514225 -6.92781 0
M  V30 40082 N 3971.79 0.21592 -5.61685 0
M  V30 40083 H 3963.94 -0.928793 -1.91016 0
M  V30 40084 H 3966.2 -0.357416 -0.878042 0
M  V30 40085 H 3965.91 -0.759197 -3.43408 0
M  V30 40086 H 3965.78 0.978535 -3.64286 0
M  V30 40087 H 3968.17 1.22864 -2.68307 0
M  V30 40088 H 3968.25 -0.529681 -2.50256 0
M  V30 40089 H 3967.89 -0.781976 -5.01844 0
M  V30 40090 H 3967.82 0.991544 -5.17181 0
M  V30 40091 H 3970.31 0.311122 -3.76617 0
M  V30 40092 H 3970.63 0.0109929 -7.72799 0
M  V30 40093 H 3968.97 0.0168362 -6.94998 0
M  V30 40094 H 3972.16 0.301353 -4.67129 0
M  V30 40095 H 3972.34 0.16472 -6.47791 0
M  V30 40096 N 3965.74 1.55476 0.257876 0
M  V30 40097 C 3966.69 1.90201 1.3389 0
M  V30 40098 C 3967.68 0.779894 1.5038 0
M  V30 40099 O 3968.89 0.964402 1.51984 0
M  V30 40100 H 3965.27 0.603909 0.448105 0
M  V30 40101 H 3967.24 2.80476 1.01863 0
M  V30 40102 C 3965.99 2.20365 2.68951 0
M  V30 40103 H 3965.31 3.06204 2.57058 0
M  V30 40104 H 3966.75 2.48573 3.43493 0
M  V30 40105 C 3965.21 1.01628 3.21206 0
M  V30 40106 O 3965.74 0.258637 4.00867 0
M  V30 40107 N 3963.94 0.809874 2.79087 0
M  V30 40108 H 3963.49 1.42768 2.14418 0
M  V30 40109 H 3963.45 0.0170724 3.14395 0
M  V30 40110 N 3967.22 -0.523064 1.48667 0
M  V30 40111 C 3968.17 -1.62695 1.63703 0
M  V30 40112 C 3969.14 -1.59046 0.478923 0
M  V30 40113 O 3970.32 -1.77367 0.70326 0
M  V30 40114 C 3967.46 -3.00933 1.68917 0
M  V30 40115 C 3966.58 -3.14765 2.95883 0
M  V30 40116 C 3965.71 -4.43604 2.92214 0
M  V30 40117 C 3964.75 -4.50989 4.13854 0
M  V30 40118 N 3963.89 -5.71226 4.08223 0
M  V30 40119 H 3968.73 -1.49183 2.5797 0
M  V30 40120 H 3966.26 -0.726195 1.27925 0
M  V30 40121 H 3968.22 -3.81028 1.69922 0
M  V30 40122 H 3966.85 -3.132 0.781364 0
M  V30 40123 H 3965.9 -2.27877 3.04592 0
M  V30 40124 H 3967.22 -3.16083 3.85867 0
M  V30 40125 H 3966.37 -5.31996 2.91659 0
M  V30 40126 H 3965.11 -4.44818 1.99971 0
M  V30 40127 H 3964.11 -3.61002 4.14678 0
M  V30 40128 H 3965.34 -4.51508 5.07264 0
M  V30 40129 H 3963.28 -5.73324 3.18804 0
M  V30 40130 H 3963.2 -5.74067 4.91918 0
M  V30 40131 H 3964.47 -6.61886 4.11737 0
M  V30 40132 N 3968.7 -1.37371 -0.772465 0
M  V30 40133 C 3970.11 -1.291 -1.3487 0
M  V30 40134 C 3970.46 0.0617088 -1.96103 0
M  V30 40135 O 3969.59 0.963528 -1.93766 0
M  V30 40136 C 3970.18 -2.33785 -2.45214 0
M  V30 40137 C 3968.74 -2.29151 -2.98608 0
M  V30 40138 C 3967.89 -2.17654 -1.7182 0
M  V30 40139 H 3970.84 -1.48003 -0.572779 0
M  V30 40140 H 3970.86 -1.9841 -3.24675 0
M  V30 40141 H 3970.37 -3.32226 -2.00618 0
M  V30 40142 H 3968.47 -1.34232 -3.47581 0
M  V30 40143 H 3968.58 -3.22535 -3.54271 0
M  V30 40144 H 3966.95 -1.64188 -1.94716 0
M  V30 40145 H 3967.73 -3.18008 -1.29328 0
M  V30 40146 N 3970.18 0.998553 -1.21929 0
M  V30 40147 C 3971.12 2.10879 -0.981464 0
M  V30 40148 C 3972.12 1.6924 0.073498 0
M  V30 40149 O 3973.32 1.79829 -0.0784536 0
M  V30 40150 H 3969.7 0.689495 -0.300167 0
M  V30 40151 H 3971.67 2.28114 -1.92371 0
M  V30 40152 C 3970.42 3.43001 -0.569731 0
M  V30 40153 H 3969.74 3.75479 -1.37316 0
M  V30 40154 H 3971.18 4.21683 -0.442692 0
M  V30 40155 C 3969.64 3.29115 0.720087 0
M  V30 40156 O 3970.17 3.60407 1.77398 0
M  V30 40157 N 3968.38 2.82312 0.689072 0
M  V30 40158 H 3967.92 2.57046 -0.168862 0
M  V30 40159 H 3967.88 2.73403 1.55236 0
M  V30 40160 N 3971.65 1.02807 1.1945 0
M  V30 40161 C 3972.93 0.63874 1.84877 0
M  V30 40162 C 3973.31 -0.882593 1.91764 0
M  V30 40163 O 3972.66 -1.77898 1.43404 0
M  V30 40164 C 3972.87 1.29988 3.23889 0
M  V30 40165 C 3974.22 1.42261 4.00059 0
M  V30 40166 O 3975.24 1.25699 3.33284 0
M  V30 40167 O 3974.1 1.69136 5.19669 0
M  V30 40168 H 3971.19 0.221906 0.796672 0
M  V30 40169 H 3973.74 1.12617 1.26947 0
M  V30 40170 H 3972.51 2.33888 3.13707 0
M  V30 40171 H 3972.14 0.800254 3.89463 0
M  V30 40172 N 3973.13 -1.35441 0.805829 0
M  V30 40173 C 3974.38 -1.98043 0.382338 0
M  V30 40174 C 3974.69 -1.64645 -1.05599 0
M  V30 40175 O 3975.9 -2.20606 -1.58256 0
M  V30 40176 C 3974.36 -3.54295 0.632681 0
M  V30 40177 C 3973.96 -3.96603 2.08351 0
M  V30 40178 C 3975.71 -4.23611 0.27451 0
M  V30 40179 C 3973.62 -5.45698 2.27964 0
M  V30 40180 H 3972.55 -0.741035 0.139223 0
M  V30 40181 H 3975.2 -1.54517 0.98978 0
M  V30 40182 H 3973.58 -3.95975 -0.0447003 0
M  V30 40183 H 3974.75 -3.66078 2.79864 0
M  V30 40184 H 3973.07 -3.40174 2.40148 0
M  V30 40185 H 3975.66 -5.33208 0.399113 0
M  V30 40186 H 3976.01 -4.08942 -0.77922 0
M  V30 40187 H 3976.54 -3.87351 0.905778 0
M  V30 40188 H 3973.28 -5.65334 3.3178 0
M  V30 40189 H 3972.8 -5.77795 1.60975 0
M  V30 40190 H 3974.48 -6.1215 2.09479 0
M  V30 40191 N 3974.61 -0.559265 -1.47343 0
M  V30 40192 C 3975.86 -0.0359786 -2.02468 0
M  V30 40193 C 3976.19 1.31469 -1.43339 0
M  V30 40194 O 3975.44 1.86927 -0.579388 0
M  V30 40195 C 3975.74 0.10446 -3.57247 0
M  V30 40196 C 3975.41 -1.17559 -4.35305 0
M  V30 40197 C 3974.07 -1.52633 -4.56351 0
M  V30 40198 C 3976.42 -2.02373 -4.80307 0
M  V30 40199 C 3973.75 -2.72365 -5.19648 0
M  V30 40200 C 3976.1 -3.2131 -5.44924 0
M  V30 40201 C 3974.76 -3.56695 -5.64203 0
M  V30 40202 H 3974.03 -0.0131655 -0.740883 0
M  V30 40203 H 3976.68 -0.731191 -1.76991 0
M  V30 40204 H 3974.99 0.882653 -3.81728 0
M  V30 40205 H 3976.68 0.524731 -3.97552 0
M  V30 40206 H 3973.27 -0.892487 -4.19205 0
M  V30 40207 H 3977.46 -1.76583 -4.63824 0
M  V30 40208 H 3972.71 -2.99947 -5.32768 0
M  V30 40209 H 3976.89 -3.87316 -5.78757 0
M  V30 40210 H 3974.51 -4.49566 -6.1302 0
M  V30 40211 N 3976.09 1.54799 -0.295822 0
M  V30 40212 C 3977.02 2.20763 0.616153 0
M  V30 40213 C 3978.03 1.19873 1.10155 0
M  V30 40214 O 3979.22 1.46493 1.0199 0
M  V30 40215 C 3976.32 2.8363 1.85492 0
M  V30 40216 C 3975.5 4.10403 1.51288 0
M  V30 40217 C 3974.55 4.57123 2.60625 0
M  V30 40218 O 3973.58 5.22438 2.25936 0
M  V30 40219 N 3974.78 4.29004 3.91071 0
M  V30 40220 H 3977.55 2.99656 0.0514726 0
M  V30 40221 H 3975.11 1.61471 -0.117799 0
M  V30 40222 H 3977.1 3.1182 2.57973 0
M  V30 40223 H 3975.67 2.08608 2.32812 0
M  V30 40224 H 3974.89 3.89279 0.620931 0
M  V30 40225 H 3976.18 4.92961 1.25966 0
M  V30 40226 H 3975.58 3.76666 4.22065 0
M  V30 40227 H 3974.13 4.61915 4.59867 0
M  V30 40228 N 3977.57 0.0234513 1.57583 0
M  V30 40229 C 3978.48 -0.9761 2.13329 0
M  V30 40230 C 3979.49 -1.36095 1.08416 0
M  V30 40231 O 3980.67 -1.44352 1.40444 0
M  V30 40232 C 3977.73 -2.24176 2.64473 0
M  V30 40233 C 3976.8 -1.91786 3.84079 0
M  V30 40234 C 3976.03 -3.12318 4.32774 0
M  V30 40235 O 3976.25 -4.2479 3.8067 0
M  V30 40236 O 3975.19 -2.94946 5.24681 0
M  V30 40237 H 3979.01 -0.532113 2.99002 0
M  V30 40238 H 3976.6 -0.196812 1.48098 0
M  V30 40239 H 3978.48 -2.98487 2.97462 0
M  V30 40240 H 3977.15 -2.67767 1.81886 0
M  V30 40241 H 3976.06 -1.14877 3.56025 0
M  V30 40242 H 3977.39 -1.53015 4.67811 0
M  V30 40243 N 3979.05 -1.5561 -0.249627 0
M  V30 40244 C 3980.29 -1.77577 -0.979498 0
M  V30 40245 C 3980.62 -0.588231 -1.85077 0
M  V30 40246 O 3979.9 0.413567 -1.90052 0
M  V30 40247 C 3980.18 -3.09403 -1.84232 0
M  V30 40248 C 3980.04 -4.38556 -0.999423 0
M  V30 40249 C 3981.35 -3.37438 -2.8253 0
M  V30 40250 H 3978.47 -0.646048 -0.35467 0
M  V30 40251 H 3981.12 -1.88346 -0.250191 0
M  V30 40252 H 3979.27 -3.00354 -2.46414 0
M  V30 40253 H 3980.94 -4.59593 -0.396518 0
M  V30 40254 H 3979.18 -4.32736 -0.303684 0
M  V30 40255 H 3979.85 -5.27172 -1.63688 0
M  V30 40256 H 3982.33 -3.46433 -2.30485 0
M  V30 40257 H 3981.2 -4.30899 -3.40025 0
M  V30 40258 H 3981.46 -2.58217 -3.58854 0
M  V30 40259 N 3980.52 0.515172 -1.48942 0
M  V30 40260 C 3981.45 1.62716 -1.67468 0
M  V30 40261 C 3982.43 1.61847 -0.523422 0
M  V30 40262 O 3983.62 1.7881 -0.757663 0
M  V30 40263 C 3980.75 3.01257 -1.72804 0
M  V30 40264 C 3979.7 3.16989 -2.87579 0
M  V30 40265 C 3979.03 4.5674 -2.78016 0
M  V30 40266 C 3980.33 2.98355 -4.28698 0
M  V30 40267 H 3982.02 1.47467 -2.60565 0
M  V30 40268 H 3979.57 0.708005 -1.25393 0
M  V30 40269 H 3981.52 3.78936 -1.84352 0
M  V30 40270 H 3980.25 3.17563 -0.762973 0
M  V30 40271 H 3978.91 2.41732 -2.7561 0
M  V30 40272 H 3978.55 4.69902 -1.79447 0
M  V30 40273 H 3978.25 4.68209 -3.55041 0
M  V30 40274 H 3979.78 5.36498 -2.91552 0
M  V30 40275 H 3981.19 3.65813 -4.41422 0
M  V30 40276 H 3979.59 3.21306 -5.06836 0
M  V30 40277 H 3980.66 1.94622 -4.44129 0
M  V30 40278 N 3982 1.37779 0.765169 0
M  V30 40279 C 3983.41 1.29814 1.34184 0
M  V30 40280 C 3983.76 -0.0513081 1.96133 0
M  V30 40281 O 3982.89 -0.953239 1.94274 0
M  V30 40282 C 3983.48 2.35082 2.43971 0
M  V30 40283 C 3982.04 2.30731 2.97389 0
M  V30 40284 C 3981.19 2.18562 1.70663 0
M  V30 40285 H 3984.14 1.48305 0.564922 0
M  V30 40286 H 3984.16 2.00129 3.23618 0
M  V30 40287 H 3983.67 3.33285 1.98853 0
M  V30 40288 H 3981.77 1.36073 3.46864 0
M  V30 40289 H 3981.89 3.2441 3.52555 0
M  V30 40290 H 3980.25 1.65218 1.93843 0
M  V30 40291 H 3981.03 3.18689 1.2764 0
M  V30 40292 N 3983.48 -0.992073 1.22457 0
M  V30 40293 C 3984.43 -2.10356 0.992634 0
M  V30 40294 C 3985.42 -1.69277 -0.0645217 0
M  V30 40295 O 3986.63 -1.79785 0.0879893 0
M  V30 40296 H 3983 -0.687894 0.30382 0
M  V30 40297 H 3984.97 -2.2709 1.93578 0
M  V30 40298 C 3983.72 -3.42694 0.587913 0
M  V30 40299 H 3983.05 -3.74746 1.39305 0
M  V30 40300 H 3984.49 -4.21442 0.465049 0
M  V30 40301 C 3982.94 -3.29492 -0.702623 0
M  V30 40302 O 3983.47 -3.61342 -1.75484 0
M  V30 40303 N 3981.68 -2.82674 -0.674091 0
M  V30 40304 H 3981.23 -2.56953 0.182492 0
M  V30 40305 H 3981.19 -2.74222 -1.53784 0
M  V30 40306 N 3984.96 -1.03439 -1.18904 0
M  V30 40307 C 3986.21 -0.729301 -1.88053 0
M  V30 40308 C 3986.52 0.745532 -1.80835 0
M  V30 40309 O 3987.73 1.16389 -2.45287 0
M  V30 40310 C 3986.18 -1.25421 -3.37339 0
M  V30 40311 C 3985.79 -2.75722 -3.53102 0
M  V30 40312 C 3987.53 -1.02536 -4.1193 0
M  V30 40313 C 3985.44 -3.21603 -4.96312 0
M  V30 40314 H 3984.37 -0.269111 -0.70434 0
M  V30 40315 H 3987.02 -1.24941 -1.34395 0
M  V30 40316 H 3985.4 -0.661994 -3.90428 0
M  V30 40317 H 3986.58 -3.40647 -3.10316 0
M  V30 40318 H 3984.89 -2.96949 -2.91908 0
M  V30 40319 H 3987.49 -1.34337 -5.1755 0
M  V30 40320 H 3987.83 0.0376382 -4.16283 0
M  V30 40321 H 3988.37 -1.58187 -3.64996 0
M  V30 40322 H 3985.1 -4.27257 -4.97124 0
M  V30 40323 H 3984.62 -2.6141 -5.39838 0
M  V30 40324 H 3986.3 -3.15263 -5.64994 0
M  V30 40325 N 3986.44 1.35011 -0.813001 0
M  V30 40326 C 3987.68 1.97838 -0.392836 0
M  V30 40327 C 3988 1.65203 1.04725 0
M  V30 40328 O 3989.2 2.21443 1.57084 0
M  V30 40329 C 3987.66 3.53955 -0.651461 0
M  V30 40330 C 3987.27 3.95493 -2.10451 0
M  V30 40331 C 3989.01 4.2346 -0.296971 0
M  V30 40332 C 3986.92 5.44481 -2.30855 0
M  V30 40333 H 3985.85 0.740286 -0.143151 0
M  V30 40334 H 3988.5 1.5399 -0.99796 0
M  V30 40335 H 3986.88 3.95993 0.0237002 0
M  V30 40336 H 3988.06 3.64588 -2.81801 0
M  V30 40337 H 3986.37 3.38895 -2.41948 0
M  V30 40338 H 3988.97 5.32989 -0.427384 0
M  V30 40339 H 3989.31 4.0935 0.757522 0
M  V30 40340 H 3989.84 3.86865 -0.926308 0
M  V30 40341 H 3986.58 5.63567 -3.34773 0
M  V30 40342 H 3986.1 5.76933 -1.64037 0
M  V30 40343 H 3987.78 6.1103 -2.12723 0
M  V30 40344 N 3987.91 0.567071 1.47044 0
M  V30 40345 C 3988.88 -0.164718 2.28607 0
M  V30 40346 C 3989.88 -0.833518 1.3751 0
M  V30 40347 O 3991.07 -0.687867 1.60044 0
M  V30 40348 C 3988.2 -1.24205 3.17468 0
M  V30 40349 H 3989.39 0.551866 2.94779 0
M  V30 40350 H 3986.94 0.324403 1.52896 0
M  V30 40351 H 3987.68 -1.99072 2.5601 0
M  V30 40352 H 3987.46 -0.767176 3.84522 0
M  V30 40353 H 3988.95 -1.75575 3.78897 0
M  V30 40354 N 3989.39 -1.5464 0.304027 0
M  V30 40355 C 3990.35 -2.22307 -0.557878 0
M  V30 40356 C 3991.35 -1.2101 -1.05893 0
M  V30 40357 O 3992.54 -1.45724 -0.954472 0
M  V30 40358 C 3989.68 -2.91181 -1.77274 0
M  V30 40359 H 3990.87 -2.99881 0.0333714 0
M  V30 40360 H 3988.42 -1.56204 0.0548934 0
M  V30 40361 H 3989.16 -2.17694 -2.40375 0
M  V30 40362 H 3988.94 -3.65442 -1.42108 0
M  V30 40363 H 3990.43 -3.42793 -2.38501 0
M  V30 40364 N 3990.87 -0.0318079 -1.57568 0
M  V30 40365 C 3991.82 0.958367 -2.0688 0
M  V30 40366 C 3992.8 1.28383 -0.969873 0
M  V30 40367 O 3994 1.26949 -1.2334 0
M  V30 40368 C 3991.12 2.23987 -2.60163 0
M  V30 40369 C 3990.21 1.94265 -3.76991 0
M  V30 40370 N 3990.6 1.34823 -4.875 0
M  V30 40371 C 3988.9 2.24241 -3.85528 0
M  V30 40372 C 3989.6 1.22294 -5.68699 0
M  V30 40373 N 3988.58 1.71935 -5.15693 0
M  V30 40374 H 3992.38 0.493797 -2.89722 0
M  V30 40375 H 3989.89 0.173139 -1.61474 0
M  V30 40376 H 3991.89 2.95799 -2.93784 0
M  V30 40377 H 3990.55 2.71068 -1.78752 0
M  V30 40378 H 3991.56 1.0229 -5.07698 0
M  V30 40379 H 3988.24 2.73977 -3.15028 0
M  V30 40380 H 3989.63 0.763079 -6.67553 0
M  V30 40381 N 3992.35 1.55741 0.241371 0
M  V30 40382 C 3993.59 1.78094 0.970067 0
M  V30 40383 C 3993.93 0.598037 1.84762 0
M  V30 40384 O 3993.2 -0.403482 1.90269 0
M  V30 40385 C 3993.49 3.10376 1.82589 0
M  V30 40386 C 3993.34 4.3908 0.976151 0
M  V30 40387 C 3994.66 3.38932 2.80737 0
M  V30 40388 H 3991.78 0.64792 0.351239 0
M  V30 40389 H 3994.42 1.88476 0.240199 0
M  V30 40390 H 3992.57 3.01657 2.44817 0
M  V30 40391 H 3994.24 4.59796 0.372139 0
M  V30 40392 H 3992.48 4.32891 0.280731 0
M  V30 40393 H 3993.15 5.28033 1.6089 0
M  V30 40394 H 3995.63 3.4765 2.28645 0
M  V30 40395 H 3994.51 4.32696 3.37735 0
M  V30 40396 H 3994.77 2.60117 3.5748 0
M  V30 40397 N 3993.83 -0.507266 1.49213 0
M  V30 40398 C 3995.07 -1.26365 1.58618 0
M  V30 40399 C 3995.41 -1.92324 0.269249 0
M  V30 40400 O 3994.68 -1.80415 -0.726688 0
M  V30 40401 C 3994.96 -2.3355 2.74092 0
M  V30 40402 C 3994.82 -1.72133 4.1556 0
M  V30 40403 C 3996.14 -3.35159 2.85231 0
M  V30 40404 H 3993.25 -0.458073 0.577355 0
M  V30 40405 H 3995.9 -0.562765 1.81474 0
M  V30 40406 H 3994.05 -2.9333 2.54735 0
M  V30 40407 H 3995.72 -1.16228 4.46418 0
M  V30 40408 H 3993.96 -1.02569 4.215 0
M  V30 40409 H 3994.63 -2.49847 4.9222 0
M  V30 40410 H 3997.11 -2.85362 3.02833 0
M  V30 40411 H 3995.98 -4.07525 3.67716 0
M  V30 40412 H 3996.25 -3.97103 1.94323 0
M  V30 40413 N 3995.3 -1.38182 -0.757851 0
M  V30 40414 C 3996.24 -1.30953 -1.88106 0
M  V30 40415 C 3997.25 -0.22258 -1.61271 0
M  V30 40416 O 3998.44 -0.479812 -1.7193 0
M  V30 40417 C 3995.54 -1.00524 -3.23648 0
M  V30 40418 C 3994.71 -2.20044 -3.78021 0
M  V30 40419 C 3993.77 -1.86425 -4.92069 0
M  V30 40420 O 3992.8 -2.58873 -5.06925 0
M  V30 40421 N 3994 -0.816654 -5.74727 0
M  V30 40422 H 3996.76 -2.2774 -1.94819 0
M  V30 40423 H 3994.32 -1.31988 -0.937593 0
M  V30 40424 H 3996.32 -0.760931 -3.97482 0
M  V30 40425 H 3994.89 -0.125473 -3.12348 0
M  V30 40426 H 3994.11 -2.60566 -2.95802 0
M  V30 40427 H 3995.39 -2.99818 -4.1108 0
M  V30 40428 H 3994.79 -0.215759 -5.65288 0
M  V30 40429 H 3993.35 -0.632224 -6.48727 0
M  V30 40430 N 3996.78 0.985565 -1.22981 0
M  V30 40431 C 3998.01 1.76683 -1.08618 0
M  V30 40432 C 3998.43 1.84651 0.358557 0
M  V30 40433 O 3997.79 1.30435 1.25922 0
M  V30 40434 C 3997.84 3.17453 -1.71044 0
M  V30 40435 O 3996.94 4.00852 -0.969088 0
M  V30 40436 H 3996.28 0.543787 -0.38104 0
M  V30 40437 H 3998.81 1.23754 -1.62929 0
M  V30 40438 H 3998.82 3.68053 -1.76071 0
M  V30 40439 H 3997.5 3.10968 -2.76173 0
M  V30 40440 H 3996.08 3.5937 -0.995381 0
M  V30 40441 N 3998.26 1.04068 1.18353 0
M  V30 40442 C 3999.49 0.762986 1.91995 0
M  V30 40443 C 3999.9 -0.683714 1.76414 0
M  V30 40444 O 3999.24 -1.47776 1.09123 0
M  V30 40445 C 3999.3 1.04955 3.43838 0
M  V30 40446 C 3998.97 2.49016 3.83197 0
M  V30 40447 C 3999.96 3.47194 3.86978 0
M  V30 40448 C 3997.65 2.83729 4.14492 0
M  V30 40449 C 3999.64 4.78134 4.21505 0
M  V30 40450 C 3997.33 4.14875 4.48689 0
M  V30 40451 C 3998.33 5.11888 4.52172 0
M  V30 40452 O 3998.02 6.40684 4.85571 0
M  V30 40453 H 3997.75 0.277658 0.616346 0
M  V30 40454 H 4000.3 1.39144 1.5109 0
M  V30 40455 H 3998.53 0.363972 3.84983 0
M  V30 40456 H 4000.22 0.75965 3.98728 0
M  V30 40457 H 4000.99 3.21716 3.62938 0
M  V30 40458 H 3996.87 2.08888 4.10958 0
M  V30 40459 H 4000.41 5.53852 4.24138 0
M  V30 40460 H 3996.31 4.40122 4.7219 0
M  V30 40461 H 3997.08 6.45335 5.03473 0
M  V30 40462 N 3999.74 -1.34578 0.820149 0
M  V30 40463 C 4000.98 -1.98664 0.407508 0
M  V30 40464 C 4001.32 -1.64878 -1.0261 0
M  V30 40465 O 4000.59 -0.918994 -1.7142 0
M  V30 40466 C 4000.88 -3.54951 0.606806 0
M  V30 40467 C 4000.73 -3.98488 2.08633 0
M  V30 40468 C 4002.05 -4.40081 0.0410094 0
M  V30 40469 H 3999.17 -0.72167 0.149537 0
M  V30 40470 H 4001.81 -1.59517 1.0322 0
M  V30 40471 H 3999.96 -3.88428 0.0750471 0
M  V30 40472 H 4001.63 -3.75357 2.68151 0
M  V30 40473 H 3999.87 -3.48901 2.57781 0
M  V30 40474 H 4000.54 -5.07275 2.1766 0
M  V30 40475 H 4003.02 -4.13142 0.495306 0
M  V30 40476 H 4001.9 -5.48497 0.210278 0
M  V30 40477 H 4002.16 -4.29357 -1.05381 0
M  V30 40478 N 4001.22 -0.574861 -1.46742 0
M  V30 40479 C 4002.46 -0.0573375 -2.02019 0
M  V30 40480 C 4002.79 1.30421 -1.44967 0
M  V30 40481 O 4002.06 1.85445 -0.63141 0
M  V30 40482 H 4000.64 -0.0182061 -0.746778 0
M  V30 40483 H 4003.3 -0.748866 -1.79939 0
M  V30 40484 H 4002.39 0.0175566 -3.12095 0
M  V30 40485 N 4002.69 1.54476 -0.312224 0
M  V30 40486 C 4003.92 2.05236 0.298793 0
M  V30 40487 C 4004.34 1.18747 1.45879 0
M  V30 40488 O 4003.7 0.194031 1.80259 0
M  V30 40489 C 4003.75 3.53299 0.721946 0
M  V30 40490 O 4002.85 3.69794 1.82555 0
M  V30 40491 H 4002.2 0.661627 0.0560869 0
M  V30 40492 H 4004.73 1.99423 -0.457335 0
M  V30 40493 H 4004.74 3.9536 1.0077 0
M  V30 40494 H 4003.41 4.15707 -0.126543 0
M  V30 40495 H 4001.99 3.39639 1.53948 0
M  V30 40496 N 4004.17 0.0401637 1.57549 0
M  V30 40497 C 4005.4 -0.645015 1.96273 0
M  V30 40498 C 4005.81 -1.65557 0.915833 0
M  V30 40499 O 4005.15 -1.83373 -0.109634 0
M  V30 40500 C 4005.22 -1.39835 3.3119 0
M  V30 40501 C 4004.88 -0.544874 4.5374 0
M  V30 40502 C 4005.88 0.18446 5.19573 0
M  V30 40503 C 4003.56 -0.479031 5.00011 0
M  V30 40504 C 4005.56 0.968192 6.30004 0
M  V30 40505 C 4003.24 0.308397 6.10321 0
M  V30 40506 C 4004.24 1.03071 6.75178 0
M  V30 40507 O 4003.93 1.80521 7.83369 0
M  V30 40508 H 4003.66 -0.181947 0.651054 0
M  V30 40509 H 4006.21 0.0995539 2.05159 0
M  V30 40510 H 4004.44 -2.1883 3.18827 0
M  V30 40511 H 4006.13 -1.97269 3.54739 0
M  V30 40512 H 4006.9 0.142993 4.84789 0
M  V30 40513 H 4002.78 -1.03082 4.49327 0
M  V30 40514 H 4006.32 1.53249 6.80559 0
M  V30 40515 H 4002.22 0.351542 6.44542 0
M  V30 40516 H 4002.99 1.72615 8.00091 0
M  V30 40517 N 4005.65 -1.55866 -0.233109 0
M  V30 40518 C 4006.9 -1.7799 -0.957293 0
M  V30 40519 C 4007.22 -0.606626 -1.85324 0
M  V30 40520 O 4006.49 0.377013 -1.92238 0
M  V30 40521 H 4005.07 -0.656463 -0.356462 0
M  V30 40522 H 4007.73 -1.93319 -0.24774 0
M  V30 40523 H 4006.83 -2.69683 -1.57091 0
M  V30 40524 N 4007.13 0.499346 -1.4948 0
M  V30 40525 C 4008.09 1.58299 -1.65753 0
M  V30 40526 C 4009.09 1.5184 -0.529263 0
M  V30 40527 O 4010.28 1.54963 -0.795748 0
M  V30 40528 C 4007.41 2.97951 -1.65644 0
M  V30 40529 H 4008.61 1.45199 -2.62407 0
M  V30 40530 H 4006.16 0.723701 -1.38536 0
M  V30 40531 H 4006.9 3.16526 -0.705808 0
M  V30 40532 H 4006.68 3.04047 -2.47584 0
M  V30 40533 H 4008.17 3.76679 -1.80285 0
M  V30 40534 N 4008.61 1.38582 0.750513 0
M  V30 40535 C 4009.54 1.30439 1.87246 0
M  V30 40536 C 4010.52 0.180847 1.61591 0
M  V30 40537 O 4011.7 0.358688 1.85056 0
M  V30 40538 C 4008.83 1.02178 3.2292 0
M  V30 40539 C 4007.88 2.16512 3.67457 0
M  V30 40540 S 4008.71 3.78676 3.78635 0
M  V30 40541 C 4009.86 3.5261 5.17124 0
M  V30 40542 H 4010.1 2.25394 1.93868 0
M  V30 40543 H 4007.63 1.24455 0.913806 0
M  V30 40544 H 4009.59 0.865572 4.01271 0
M  V30 40545 H 4008.25 0.0893577 3.13973 0
M  V30 40546 H 4007.44 1.92292 4.65875 0
M  V30 40547 H 4007.04 2.28256 2.96269 0
M  V30 40548 H 4009.34 3.08914 6.02975 0
M  V30 40549 H 4010.28 4.50433 5.46366 0
M  V30 40550 H 4010.69 2.87053 4.86066 0
M  V30 40551 N 4010.09 -0.979029 1.23502 0
M  V30 40552 C 4011.33 -1.71477 1.062 0
M  V30 40553 C 4011.65 -1.91445 -0.401032 0
M  V30 40554 O 4012.85 -2.6248 -0.694014 0
M  V30 40555 C 4011.31 -3.08595 1.85195 0
M  V30 40556 C 4010.92 -2.9651 3.35836 0
M  V30 40557 C 4012.66 -3.86119 1.76386 0
M  V30 40558 C 4010.57 -4.28868 4.07218 0
M  V30 40559 H 4009.5 -0.642997 0.39379 0
M  V30 40560 H 4012.15 -1.09186 1.47481 0
M  V30 40561 H 4010.53 -3.7165 1.3672 0
M  V30 40562 H 4011.71 -2.42536 3.91807 0
M  V30 40563 H 4010.02 -2.3246 3.45473 0
M  V30 40564 H 4012.62 -4.8411 2.27028 0
M  V30 40565 H 4012.96 -4.09905 0.726899 0
M  V30 40566 H 4013.49 -3.2977 2.22479 0
M  V30 40567 H 4010.23 -4.10279 5.11226 0
M  V30 40568 H 4009.75 -4.82701 3.56034 0
M  V30 40569 H 4011.43 -4.97548 4.13588 0
M  V30 40570 N 4011.56 -1.04695 -1.178 0
M  V30 40571 C 4012.51 -0.613783 -2.19583 0
M  V30 40572 C 4013.5 0.347102 -1.57111 0
M  V30 40573 O 4014.69 0.165139 -1.76228 0
M  V30 40574 C 4011.82 0.0152243 -3.43297 0
M  V30 40575 C 4010.9 -0.969187 -4.12877 0
M  V30 40576 N 4011.3 -2.13867 -4.58361 0
M  V30 40577 C 4009.59 -0.796564 -4.38829 0
M  V30 40578 C 4010.29 -2.76103 -5.11998 0
M  V30 40579 N 4009.27 -2.03935 -5.03896 0
M  V30 40580 H 4013.07 -1.5049 -2.52448 0
M  V30 40581 H 4010.59 -0.916397 -1.34074 0
M  V30 40582 H 4012.58 0.343281 -4.15484 0
M  V30 40583 H 4011.24 0.901803 -3.11926 0
M  V30 40584 H 4012.25 -2.51726 -4.52609 0
M  V30 40585 H 4008.93 0.0393893 -4.17481 0
M  V30 40586 H 4010.32 -3.7525 -5.57348 0
M  V30 40587 N 4013.04 1.34141 -0.827275 0
M  V30 40588 C 4014.45 1.80539 -0.475677 0
M  V30 40589 C 4014.8 1.68546 1.00432 0
M  V30 40590 O 4013.93 1.22798 1.78184 0
M  V30 40591 C 4014.52 3.27791 -0.856645 0
M  V30 40592 C 4013.08 3.72251 -0.557355 0
M  V30 40593 C 4012.23 2.55774 -1.07122 0
M  V30 40594 H 4015.18 1.21827 -1.01705 0
M  V30 40595 H 4015.2 3.80154 -0.162126 0
M  V30 40596 H 4014.71 3.36487 -1.93385 0
M  V30 40597 H 4012.81 3.6909 0.510263 0
M  V30 40598 H 4012.93 4.66196 -1.10447 0
M  V30 40599 H 4011.29 2.49891 -0.492578 0
M  V30 40600 H 4012.07 2.67238 -2.15496 0
M  V30 40601 N 4014.52 0.582635 1.46435 0
M  V30 40602 C 4015.77 0.068286 2.02685 0
M  V30 40603 C 4016.1 -1.28828 1.45317 0
M  V30 40604 O 4015.37 -1.84413 0.618243 0
M  V30 40605 C 4015.66 0.00244126 3.601 0
M  V30 40606 C 4015.51 1.3879 4.27852 0
M  V30 40607 C 4016.83 -0.698214 4.34526 0
M  V30 40608 H 4013.95 0.0262891 0.736531 0
M  V30 40609 H 4016.59 0.749819 1.74579 0
M  V30 40610 H 4014.74 -0.577963 3.84177 0
M  V30 40611 H 4016.41 2.01346 4.15039 0
M  V30 40612 H 4014.65 1.95563 3.87217 0
M  V30 40613 H 4015.33 1.2943 5.36611 0
M  V30 40614 H 4017.8 -0.205146 4.15594 0
M  V30 40615 H 4016.68 -0.713315 5.44245 0
M  V30 40616 H 4016.94 -1.7595 4.05578 0
M  V30 40617 N 4016 -1.54309 0.320412 0
M  V30 40618 C 4016.96 -2.22886 -0.534268 0
M  V30 40619 C 4017.96 -1.22126 -1.04603 0
M  V30 40620 O 4019.15 -1.46728 -0.938962 0
M  V30 40621 C 4016.28 -2.93045 -1.74176 0
M  V30 40622 H 4017.48 -2.99829 0.0651759 0
M  V30 40623 H 4015.03 -1.56137 0.0714577 0
M  V30 40624 H 4015.76 -2.20231 -2.38052 0
M  V30 40625 H 4015.55 -3.66928 -1.38224 0
M  V30 40626 H 4017.04 -3.45304 -2.34851 0
M  V30 40627 N 4017.48 -0.0485183 -1.57525 0
M  V30 40628 C 4018.44 0.91195 -2.10276 0
M  V30 40629 C 4019.44 1.24161 -1.0218 0
M  V30 40630 O 4020.63 1.17873 -1.28264 0
M  V30 40631 C 4017.76 2.22264 -2.58479 0
M  V30 40632 H 4018.95 0.454715 -2.96433 0
M  V30 40633 H 4016.51 0.199843 -1.55017 0
M  V30 40634 H 4017.24 2.72575 -1.75708 0
M  V30 40635 H 4017.03 1.99642 -3.37469 0
M  V30 40636 H 4018.52 2.91068 -2.99448 0
M  V30 40637 N 4018.95 1.55988 0.224839 0
M  V30 40638 C 4020.19 1.80622 0.956821 0
M  V30 40639 C 4020.56 0.621515 1.81662 0
M  V30 40640 O 4021.76 0.747088 2.58209 0
M  V30 40641 C 4020.03 3.10131 1.77632 0
M  V30 40642 S 4021.59 3.56068 2.56439 0
M  V30 40643 H 4018.41 0.634178 0.321465 0
M  V30 40644 H 4021.01 1.94228 0.222685 0
M  V30 40645 H 4019.71 3.944 1.13477 0
M  V30 40646 H 4019.24 2.99324 2.55282 0
M  V30 40647 H 4021.26 3.19146 3.79948 0
M  V30 40648 N 4020.43 -0.491412 1.49743 0
M  V30 40649 C 4021.39 -1.57418 1.6659 0
M  V30 40650 C 4022.39 -1.51557 0.537308 0
M  V30 40651 O 4023.58 -1.54539 0.803955 0
M  V30 40652 C 4020.72 -2.97068 1.67222 0
M  V30 40653 H 4021.91 -1.43805 2.63173 0
M  V30 40654 H 4019.46 -0.716344 1.38918 0
M  V30 40655 H 4020.2 -3.16147 0.722584 0
M  V30 40656 H 4019.98 -3.0273 2.49193 0
M  V30 40657 H 4021.47 -3.75717 1.8228 0
M  V30 40658 N 4021.91 -1.38978 -0.743153 0
M  V30 40659 C 4023.14 -1.39014 -1.53241 0
M  V30 40660 C 4023.55 0.0174526 -1.88792 0
M  V30 40661 O 4022.91 0.986739 -1.53524 0
M  V30 40662 C 4022.96 -2.25549 -2.82506 0
M  V30 40663 O 4022.68 -3.60826 -2.48468 0
M  V30 40664 C 4024.18 -2.33879 -3.76584 0
M  V30 40665 H 4021.4 -0.475112 -0.473824 0
M  V30 40666 H 4023.95 -1.82691 -0.918926 0
M  V30 40667 H 4022.1 -1.85306 -3.40206 0
M  V30 40668 H 4022.52 -4.06501 -3.31447 0
M  V30 40669 H 4023.99 -2.98692 -4.64206 0
M  V30 40670 H 4024.47 -1.35552 -4.17759 0
M  V30 40671 H 4025.07 -2.74557 -3.24806 0
M  V30 40672 N 4023.39 0.972465 -1.2402 0
M  V30 40673 C 4024.35 2.0478 -1.02945 0
M  V30 40674 C 4025.35 1.60796 0.0115578 0
M  V30 40675 O 4026.54 1.72689 -0.228953 0
M  V30 40676 C 4023.67 3.36281 -0.559305 0
M  V30 40677 H 4024.87 2.2491 -1.98383 0
M  V30 40678 H 4022.42 1.14702 -1.06175 0
M  V30 40679 H 4023.15 3.21842 0.398488 0
M  V30 40680 H 4022.94 3.69548 -1.3106 0
M  V30 40681 H 4024.43 4.15352 -0.432742 0
M  V30 40682 N 4024.87 1.05318 1.17243 0
M  V30 40683 C 4025.83 0.659505 2.19507 0
M  V30 40684 C 4026.83 -0.289669 1.58169 0
M  V30 40685 O 4028.02 -0.0733713 1.74045 0
M  V30 40686 C 4025.15 -0.0311287 3.40886 0
M  V30 40687 H 4026.34 1.56465 2.55849 0
M  V30 40688 H 4023.9 0.847216 1.31347 0
M  V30 40689 H 4024.63 -0.949481 3.10089 0
M  V30 40690 H 4024.42 0.651259 3.86654 0
M  V30 40691 H 4025.91 -0.292629 4.16573 0
M  V30 40692 N 4026.34 -1.33701 0.834377 0
M  V30 40693 C 4027.59 -1.9822 0.428556 0
M  V30 40694 C 4027.92 -1.65957 -1.00855 0
M  V30 40695 O 4027.2 -0.937124 -1.70435 0
M  V30 40696 C 4027.48 -3.54287 0.644419 0
M  V30 40697 C 4027.33 -3.96252 2.12847 0
M  V30 40698 C 4028.65 -4.40013 0.0876836 0
M  V30 40699 H 4025.77 -0.720043 0.157183 0
M  V30 40700 H 4028.41 -1.58413 1.04906 0
M  V30 40701 H 4026.56 -3.88326 0.116241 0
M  V30 40702 H 4028.24 -3.72492 2.72117 0
M  V30 40703 H 4026.48 -3.46147 2.61467 0
M  V30 40704 H 4027.15 -5.04938 2.23028 0
M  V30 40705 H 4029.63 -4.12593 0.539098 0
M  V30 40706 H 4028.5 -5.48243 0.268442 0
M  V30 40707 H 4028.76 -4.3045 -1.00821 0
M  V30 40708 N 4027.82 -0.590393 -1.46124 0
M  V30 40709 C 4029.05 -0.0828989 -2.07234 0
M  V30 40710 C 4029.47 1.21611 -1.435 0
M  V30 40711 O 4028.83 1.73637 -0.521519 0
M  V30 40712 C 4028.88 0.0613668 -3.60548 0
M  V30 40713 O 4027.98 1.11596 -3.97014 0
M  V30 40714 H 4027.32 -0.066277 -0.660684 0
M  V30 40715 H 4029.85 -0.815519 -1.87644 0
M  V30 40716 H 4029.86 0.26509 -4.07138 0
M  V30 40717 H 4028.54 -0.887236 -4.06326 0
M  V30 40718 H 4027.12 0.890083 -3.62121 0
M  V30 40719 N 4029.3 1.54136 -0.328591 0
M  V30 40720 C 4030.55 2.00956 0.272874 0
M  V30 40721 C 4030.88 1.21633 1.5139 0
M  V30 40722 O 4030.15 0.29995 1.92173 0
M  V30 40723 C 4030.44 3.55032 0.601993 0
M  V30 40724 C 4030.29 4.45077 -0.650094 0
M  V30 40725 C 4031.61 4.16643 1.41763 0
M  V30 40726 H 4028.73 0.730495 0.0977049 0
M  V30 40727 H 4031.37 1.84687 -0.446166 0
M  V30 40728 H 4029.52 3.69026 1.21457 0
M  V30 40729 H 4031.19 4.42946 -1.28829 0
M  V30 40730 H 4029.44 4.14548 -1.27798 0
M  V30 40731 H 4030.11 5.50723 -0.375278 0
M  V30 40732 H 4032.58 4.06255 0.899778 0
M  V30 40733 H 4031.46 5.24552 1.61667 0
M  V30 40734 H 4031.72 3.70293 2.41527 0
M  V30 40735 N 4030.78 0.0568716 1.57497 0
M  V30 40736 C 4031.69 -0.93063 2.15352 0
M  V30 40737 C 4032.7 -1.33765 1.11279 0
M  V30 40738 O 4033.88 -1.4134 1.43474 0
M  V30 40739 C 4030.95 -2.18516 2.69168 0
M  V30 40740 C 4030.01 -1.83596 3.88061 0
M  V30 40741 C 4029.24 -3.03068 4.39301 0
M  V30 40742 O 4029.46 -4.1662 3.89595 0
M  V30 40743 O 4028.4 -2.83751 5.30819 0
M  V30 40744 H 4032.22 -0.468571 3.00064 0
M  V30 40745 H 4029.81 -0.165354 1.48482 0
M  V30 40746 H 4031.69 -2.9211 3.03726 0
M  V30 40747 H 4030.36 -2.63849 1.87525 0
M  V30 40748 H 4029.27 -1.073 3.58382 0
M  V30 40749 H 4030.6 -1.43058 4.70951 0
M  V30 40750 N 4032.26 -1.56105 -0.216564 0
M  V30 40751 C 4033.17 -1.95996 -1.28929 0
M  V30 40752 C 4034.18 -0.864491 -1.51005 0
M  V30 40753 O 4035.36 -1.16848 -1.64038 0
M  V30 40754 C 4032.42 -2.27289 -2.61803 0
M  V30 40755 C 4031.48 -3.5043 -2.47986 0
M  V30 40756 C 4030.72 -3.80221 -3.74524 0
M  V30 40757 O 4030.94 -3.11612 -4.77759 0
M  V30 40758 O 4029.87 -4.73701 -3.71337 0
M  V30 40759 H 4033.7 -2.87426 -0.980813 0
M  V30 40760 H 4031.29 -1.4338 -0.419834 0
M  V30 40761 H 4033.17 -2.48588 -3.40268 0
M  V30 40762 H 4031.84 -1.39031 -2.92322 0
M  V30 40763 H 4030.75 -3.34404 -1.67705 0
M  V30 40764 H 4032.08 -4.39086 -2.22406 0
M  V30 40765 N 4033.73 0.483463 -1.50001 0
M  V30 40766 C 4034.98 1.23398 -1.60054 0
M  V30 40767 C 4035.3 1.92722 -0.297193 0
M  V30 40768 O 4034.57 1.83549 0.684597 0
M  V30 40769 H 4033.15 0.458466 -0.589761 0
M  V30 40770 H 4035.82 0.558803 -1.86717 0
M  V30 40771 H 4034.91 1.98854 -2.40548 0
M  V30 40772 N 4035.21 1.39371 0.735772 0
M  V30 40773 C 4036.46 1.36754 1.49753 0
M  V30 40774 C 4036.79 -0.0367809 1.94165 0
M  V30 40775 O 4036.07 -1.00156 1.6673 0
M  V30 40776 C 4036.35 2.33921 2.73775 0
M  V30 40777 C 4036.2 3.83292 2.35387 0
M  V30 40778 C 4037.52 2.2893 3.75871 0
M  V30 40779 H 4034.64 0.49807 0.543227 0
M  V30 40780 H 4037.28 1.70356 0.841351 0
M  V30 40781 H 4035.43 2.05397 3.29764 0
M  V30 40782 H 4037.1 4.22563 1.85036 0
M  V30 40783 H 4035.35 4.00105 1.67625 0
M  V30 40784 H 4036.02 4.46766 3.24198 0
M  V30 40785 H 4038.49 2.5415 3.29465 0
M  V30 40786 H 4037.37 2.98999 4.60316 0
M  V30 40787 H 4037.63 1.29407 4.22737 0
M  V30 40788 N 4036.69 -0.965875 1.24534 0
M  V30 40789 C 4037.97 -1.68456 0.994076 0
M  V30 40790 C 4038.35 -2.05498 -0.483078 0
M  V30 40791 O 4037.7 -1.75955 -1.45781 0
M  V30 40792 C 4037.91 -2.9152 1.91877 0
M  V30 40793 C 4039.25 -3.6372 2.19072 0
M  V30 40794 O 4040.28 -3.01581 1.89545 0
M  V30 40795 O 4039.14 -4.75584 2.69225 0
M  V30 40796 H 4036.23 -0.736533 0.376096 0
M  V30 40797 H 4038.78 -1.0198 1.3564 0
M  V30 40798 H 4037.55 -2.60853 2.9167 0
M  V30 40799 H 4037.17 -3.6573 1.55973 0
M  V30 40800 N 4038.17 -1.05938 -1.16683 0
M  V30 40801 C 4039.12 -0.666989 -2.20952 0
M  V30 40802 C 4040.09 0.334592 -1.62695 0
M  V30 40803 O 4041.27 0.224296 -1.89477 0
M  V30 40804 C 4038.41 -0.0558065 -3.45055 0
M  V30 40805 C 4037.52 -1.10713 -4.17572 0
M  V30 40806 C 4036.66 -0.46247 -5.29183 0
M  V30 40807 C 4035.7 -1.49758 -5.93497 0
M  V30 40808 N 4034.84 -0.876538 -6.96607 0
M  V30 40809 H 4039.68 -1.56058 -2.5387 0
M  V30 40810 H 4037.21 -0.780342 -1.24696 0
M  V30 40811 H 4039.17 0.316052 -4.16001 0
M  V30 40812 H 4037.8 0.80121 -3.12699 0
M  V30 40813 H 4036.85 -1.59674 -3.45266 0
M  V30 40814 H 4038.16 -1.89256 -4.61502 0
M  V30 40815 H 4037.32 -0.0374442 -6.06688 0
M  V30 40816 H 4036.06 0.354869 -4.86407 0
M  V30 40817 H 4035.06 -1.93254 -5.14716 0
M  V30 40818 H 4036.29 -2.31695 -6.38353 0
M  V30 40819 H 4034.23 -0.0798452 -6.55951 0
M  V30 40820 H 4034.15 -1.5994 -7.38888 0
M  V30 40821 H 4035.42 -0.476537 -7.78042 0
M  V30 40822 N 4039.65 1.33256 -0.841456 0
M  V30 40823 C 4040.9 1.9696 -0.434711 0
M  V30 40824 C 4041.21 1.67387 1.01197 0
M  V30 40825 O 4042.42 2.24725 1.52352 0
M  V30 40826 C 4040.87 3.52493 -0.726394 0
M  V30 40827 C 4040.48 3.9094 -2.18793 0
M  V30 40828 C 4042.22 4.22735 -0.386727 0
M  V30 40829 C 4040.13 5.39462 -2.42352 0
M  V30 40830 H 4039.06 0.737083 -0.158821 0
M  V30 40831 H 4041.71 1.51839 -1.0304 0
M  V30 40832 H 4040.09 3.95954 -0.0603011 0
M  V30 40833 H 4041.27 3.58529 -2.89471 0
M  V30 40834 H 4039.58 3.33687 -2.49082 0
M  V30 40835 H 4042.18 5.31963 -0.540343 0
M  V30 40836 H 4042.52 4.10865 0.670523 0
M  V30 40837 H 4043.06 3.84813 -1.00816 0
M  V30 40838 H 4039.79 5.56339 -3.46652 0
M  V30 40839 H 4039.31 5.73324 -1.76237 0
M  V30 40840 H 4040.99 6.06381 -2.25636 0
M  V30 40841 N 4041.13 0.598134 1.45809 0
M  V30 40842 C 4042.54 0.26102 1.57451 0
M  V30 40843 C 4042.74 -1.23657 1.59095 0
M  V30 40844 O 4041.8 -2.01912 1.51617 0
M  V30 40845 C 4043.11 0.923851 2.86156 0
M  V30 40846 C 4044.66 0.898882 2.99815 0
M  V30 40847 C 4045.13 1.54154 4.31278 0
M  V30 40848 N 4046.62 1.50659 4.38014 0
M  V30 40849 C 4047.36 1.97309 5.38383 0
M  V30 40850 N 4046.86 2.52002 6.45342 0
M  V30 40851 N 4048.65 1.88134 5.29681 0
M  V30 40852 H 4040.8 1.57064 1.42985 0
M  V30 40853 H 4043.06 0.657403 0.683027 0
M  V30 40854 H 4042.77 1.97796 2.90809 0
M  V30 40855 H 4042.64 0.441383 3.74609 0
M  V30 40856 H 4045.03 -0.14665 2.94735 0
M  V30 40857 H 4045.11 1.41952 2.12798 0
M  V30 40858 H 4044.75 2.58636 4.37116 0
M  V30 40859 H 4044.68 0.996002 5.17095 0
M  V30 40860 H 4047.18 1.10696 3.61324 0
M  V30 40861 H 4047.49 2.85416 7.18163 0
M  V30 40862 H 4045.83 2.56036 6.4612 0
M  V30 40863 H 4049.02 1.45152 4.45027 0
M  V30 40864 H 4049.2 2.24804 6.07756 0
M  V30 40865 N 4042.6 -1.5396 0.33676 0
M  V30 40866 C 4043.53 -2.27736 -0.515624 0
M  V30 40867 C 4044.51 -1.29035 -1.10833 0
M  V30 40868 O 4045.7 -1.57868 -1.13099 0
M  V30 40869 C 4042.83 -3.04508 -1.6701 0
M  V30 40870 C 4041.78 -4.10656 -1.20606 0
M  V30 40871 C 4041.11 -4.75344 -2.44852 0
M  V30 40872 C 4042.41 -5.21371 -0.311415 0
M  V30 40873 H 4044.1 -2.99234 0.0998039 0
M  V30 40874 H 4041.65 -1.43915 0.049441 0
M  V30 40875 H 4043.6 -3.54855 -2.2728 0
M  V30 40876 H 4042.33 -2.3065 -2.31232 0
M  V30 40877 H 4040.99 -3.61212 -0.626217 0
M  V30 40878 H 4040.63 -3.98087 -3.07467 0
M  V30 40879 H 4040.33 -5.47054 -2.14488 0
M  V30 40880 H 4041.86 -5.28471 -3.05861 0
M  V30 40881 H 4043.27 -5.67394 -0.820768 0
M  V30 40882 H 4041.67 -6.00017 -0.0999672 0
M  V30 40883 H 4042.74 -4.80466 0.654266 0
M  V30 40884 N 4044.08 -0.0652232 -1.57465 0
M  V30 40885 C 4045.33 0.604199 -1.92857 0
M  V30 40886 C 4045.65 1.70546 -0.945461 0
M  V30 40887 O 4044.92 1.95899 0.007457 0
M  V30 40888 H 4043.5 0.226173 -0.711937 0
M  V30 40889 H 4046.16 -0.121533 -1.94521 0
M  V30 40890 H 4045.26 1.03376 -2.94482 0
M  V30 40891 N 4045.56 1.56218 0.208282 0
M  V30 40892 C 4046.51 1.93491 1.25816 0
M  V30 40893 C 4047.48 0.793773 1.45906 0
M  V30 40894 O 4048.66 1.05081 1.59256 0
M  V30 40895 C 4045.8 2.26839 2.60073 0
M  V30 40896 C 4044.91 3.53953 2.47672 0
M  V30 40897 C 4044.05 3.76685 3.74542 0
M  V30 40898 C 4043.09 4.97268 3.56919 0
M  V30 40899 N 4042.23 5.16321 4.7577 0
M  V30 40900 H 4047.07 2.83008 0.933296 0
M  V30 40901 H 4044.6 1.40064 0.449507 0
M  V30 40902 H 4046.56 2.44187 3.38273 0
M  V30 40903 H 4045.19 1.40479 2.90629 0
M  V30 40904 H 4044.24 3.44725 1.60838 0
M  V30 40905 H 4045.55 4.42307 2.30577 0
M  V30 40906 H 4044.71 3.94201 4.61184 0
M  V30 40907 H 4043.45 2.86636 3.94577 0
M  V30 40908 H 4042.45 4.79688 2.68662 0
M  V30 40909 H 4043.68 5.88813 3.38342 0
M  V30 40910 H 4041.62 4.29217 4.96093 0
M  V30 40911 H 4041.54 5.98831 4.61451 0
M  V30 40912 H 4042.81 5.38284 5.638 0
M  V30 40913 N 4047.04 -0.475502 1.50256 0
M  V30 40914 C 4048 -1.55642 1.6825 0
M  V30 40915 C 4049 -1.50979 0.553352 0
M  V30 40916 O 4050.19 -1.53677 0.820301 0
M  V30 40917 C 4047.32 -2.95278 1.70364 0
M  V30 40918 H 4048.52 -1.41006 2.64684 0
M  V30 40919 H 4046.07 -0.70157 1.3967 0
M  V30 40920 H 4046.8 -3.15363 0.756075 0
M  V30 40921 H 4046.59 -3.0007 2.5239 0
M  V30 40922 H 4048.08 -3.73763 1.86255 0
M  V30 40923 N 4048.52 -1.39759 -0.72837 0
M  V30 40924 C 4049.45 -1.34914 -1.85286 0
M  V30 40925 C 4050.46 -0.256738 -1.60763 0
M  V30 40926 O 4051.65 -0.516173 -1.70874 0
M  V30 40927 C 4048.75 -1.07366 -3.21443 0
M  V30 40928 C 4047.92 -2.28012 -3.73268 0
M  V30 40929 C 4046.98 -1.9682 -4.88004 0
M  V30 40930 O 4046.01 -2.69567 -5.0132 0
M  V30 40931 N 4047.21 -0.938378 -5.72865 0
M  V30 40932 H 4049.97 -2.31821 -1.89945 0
M  V30 40933 H 4047.54 -1.33947 -0.909385 0
M  V30 40934 H 4049.53 -0.845072 -3.95779 0
M  V30 40935 H 4048.1 -0.191699 -3.12012 0
M  V30 40936 H 4047.32 -2.66782 -2.90209 0
M  V30 40937 H 4048.61 -3.0847 -4.04628 0
M  V30 40938 H 4048 -0.335616 -5.64704 0
M  V30 40939 H 4046.56 -0.769686 -6.4724 0
M  V30 40940 N 4049.99 0.959257 -1.25044 0
M  V30 40941 C 4050.92 2.07284 -1.07498 0
M  V30 40942 C 4051.9 1.70094 0.0145965 0
M  V30 40943 O 4053.09 1.93588 -0.154069 0
M  V30 40944 C 4050.22 3.40417 -0.688 0
M  V30 40945 C 4049.17 3.91597 -1.72729 0
M  V30 40946 C 4048.5 5.21172 -1.19513 0
M  V30 40947 C 4049.8 4.18492 -3.12509 0
M  V30 40948 H 4051.49 2.22221 -2.00645 0
M  V30 40949 H 4049.04 1.06783 -0.966093 0
M  V30 40950 H 4050.99 4.17766 -0.552206 0
M  V30 40951 H 4049.72 3.25405 0.279167 0
M  V30 40952 H 4048.38 3.16413 -1.85145 0
M  V30 40953 H 4048.02 5.02526 -0.218328 0
M  V30 40954 H 4047.72 5.56384 -1.88972 0
M  V30 40955 H 4049.25 6.01123 -1.07163 0
M  V30 40956 H 4050.66 4.86516 -3.03274 0
M  V30 40957 H 4049.06 4.64949 -3.79397 0
M  V30 40958 H 4050.13 3.24944 -3.59916 0
M  V30 40959 N 4051.47 1.06556 1.16119 0
M  V30 40960 C 4052.72 0.785022 1.8699 0
M  V30 40961 C 4053.05 -0.686887 1.81647 0
M  V30 40962 O 4052.33 -1.50345 1.23397 0
M  V30 40963 C 4052.61 1.28361 3.36445 0
M  V30 40964 C 4052.46 2.81947 3.50465 0
M  V30 40965 C 4053.78 0.893637 4.30932 0
M  V30 40966 H 4050.9 0.286645 0.678973 0
M  V30 40967 H 4053.54 1.32194 1.36472 0
M  V30 40968 H 4051.69 0.826862 3.79599 0
M  V30 40969 H 4053.36 3.3585 3.16232 0
M  V30 40970 H 4051.61 3.20546 2.92289 0
M  V30 40971 H 4052.28 3.11899 4.55437 0
M  V30 40972 H 4054.75 1.28707 3.95694 0
M  V30 40973 H 4053.63 1.26993 5.34007 0
M  V30 40974 H 4053.89 -0.201196 4.41642 0
M  V30 40975 N 4052.95 -1.32808 0.848511 0
M  V30 40976 C 4054.2 -1.97754 0.449556 0
M  V30 40977 C 4054.53 -1.67018 -0.990894 0
M  V30 40978 O 4053.8 -0.955148 -1.69432 0
M  V30 40979 C 4054.09 -3.53584 0.68196 0
M  V30 40980 C 4053.94 -3.93973 2.17038 0
M  V30 40981 C 4055.26 -4.39895 0.134348 0
M  V30 40982 H 4052.38 -0.718336 0.164811 0
M  V30 40983 H 4055.02 -1.57292 1.0658 0
M  V30 40984 H 4053.17 -3.88181 0.157421 0
M  V30 40985 H 4054.84 -3.69584 2.76053 0
M  V30 40986 H 4053.09 -3.43354 2.65123 0
M  V30 40987 H 4053.76 -5.02544 2.28371 0
M  V30 40988 H 4056.23 -4.11998 0.582828 0
M  V30 40989 H 4055.11 -5.47928 0.326575 0
M  V30 40990 H 4055.37 -4.31495 -0.9625 0
M  V30 40991 N 4054.43 -0.605858 -1.45489 0
M  V30 40992 C 4055.39 0.104049 -2.28964 0
M  V30 40993 C 4056.39 0.796767 -1.39672 0
M  V30 40994 O 4057.58 0.645193 -1.61811 0
M  V30 40995 C 4054.71 1.15744 -3.20649 0
M  V30 40996 H 4055.91 -0.629827 -2.93212 0
M  V30 40997 H 4053.46 -0.364827 -1.51983 0
M  V30 40998 H 4054.19 1.92214 -2.61198 0
M  V30 40999 H 4053.98 0.664957 -3.8642 0
M  V30 41000 H 4055.47 1.65468 -3.83419 0
M  V30 41001 N 4055.91 1.53779 -0.34492 0
M  V30 41002 C 4057.15 2.00539 0.250676 0
M  V30 41003 C 4057.48 1.23438 1.50957 0
M  V30 41004 O 4056.75 0.341927 1.92893 0
M  V30 41005 H 4055.33 0.740855 0.0956188 0
M  V30 41006 H 4057.99 1.89237 -0.466394 0
M  V30 41007 H 4057.08 3.08195 0.492166 0
M  V30 41008 N 4057.38 0.0735731 1.57428 0
M  V30 41009 C 4058.63 -0.593962 1.93175 0
M  V30 41010 C 4058.95 -1.70043 0.954492 0
M  V30 41011 O 4058.22 -1.959 0.00293208 0
M  V30 41012 H 4056.8 -0.222394 0.713127 0
M  V30 41013 H 4059.47 0.131847 1.94454 0
M  V30 41014 H 4058.56 -1.01813 2.95026 0
M  V30 41015 N 4058.86 -1.56326 -0.199995 0
M  V30 41016 C 4059.79 -1.97181 -1.25068 0
M  V30 41017 C 4060.77 -0.843056 -1.47738 0
M  V30 41018 O 4061.96 -1.10702 -1.59558 0
M  V30 41019 C 4059.09 -2.3071 -2.59596 0
M  V30 41020 C 4058.04 -3.46278 -2.51546 0
M  V30 41021 C 4057.37 -3.6547 -3.90302 0
M  V30 41022 C 4058.67 -4.80613 -2.04472 0
M  V30 41023 H 4060.36 -2.85198 -0.911188 0
M  V30 41024 H 4057.91 -1.37213 -0.436875 0
M  V30 41025 H 4059.86 -2.57885 -3.33276 0
M  V30 41026 H 4058.59 -1.39571 -2.95275 0
M  V30 41027 H 4057.24 -3.19186 -1.80322 0
M  V30 41028 H 4056.89 -2.71669 -4.23326 0
M  V30 41029 H 4056.59 -4.43213 -3.85792 0
M  V30 41030 H 4058.12 -3.95016 -4.65612 0
M  V30 41031 H 4059.53 -5.06851 -2.67908 0
M  V30 41032 H 4057.93 -5.61791 -2.10975 0
M  V30 41033 H 4059 -4.74524 -0.997745 0
M  V30 41034 N 4060.34 0.467527 -1.50506 0
M  V30 41035 C 4061.62 1.22868 -1.52193 0
M  V30 41036 C 4062 2.09384 -0.268653 0
M  V30 41037 O 4061.35 2.15918 0.747764 0
M  V30 41038 C 4061.56 2.05664 -2.81963 0
M  V30 41039 C 4062.9 2.63733 -3.32761 0
M  V30 41040 O 4063.93 2.15904 -2.83309 0
M  V30 41041 O 4062.79 3.50888 -4.18975 0
M  V30 41042 H 4059.88 0.55775 -0.610609 0
M  V30 41043 H 4062.43 0.479057 -1.62798 0
M  V30 41044 H 4061.2 1.41933 -3.64651 0
M  V30 41045 H 4060.82 2.87754 -2.74379 0
M  V30 41046 N 4061.82 1.40143 0.720948 0
M  V30 41047 C 4063.1 1.28632 1.47354 0
M  V30 41048 C 4063.48 -0.0977767 2.10873 0
M  V30 41049 O 4062.82 -1.11017 1.99719 0
M  V30 41050 C 4063.03 2.42114 2.5136 0
M  V30 41051 C 4064.38 2.82096 3.17343 0
M  V30 41052 O 4065.41 2.41668 2.61677 0
M  V30 41053 O 4064.26 3.51925 4.18104 0
M  V30 41054 H 4061.36 0.504866 0.655011 0
M  V30 41055 H 4063.9 1.5205 0.753579 0
M  V30 41056 H 4062.68 3.34585 2.02901 0
M  V30 41057 H 4062.3 2.20437 3.30897 0
M  V30 41058 N 4063.3 -0.952612 1.25551 0
M  V30 41059 C 4064.23 -2.06711 1.08596 0
M  V30 41060 C 4065.21 -1.70099 -0.00557581 0
M  V30 41061 O 4066.39 -1.93503 0.164333 0
M  V30 41062 C 4063.52 -3.40048 0.706044 0
M  V30 41063 C 4062.48 -3.90676 1.74804 0
M  V30 41064 C 4061.8 -5.20531 1.22275 0
M  V30 41065 C 4063.1 -4.16828 3.14724 0
M  V30 41066 H 4064.8 -2.21154 2.0182 0
M  V30 41067 H 4062.34 -1.06269 0.971742 0
M  V30 41068 H 4064.3 -4.17468 0.574353 0
M  V30 41069 H 4063.02 -3.25548 -0.261906 0
M  V30 41070 H 4061.68 -3.15426 1.8682 0
M  V30 41071 H 4061.33 -5.02403 0.244975 0
M  V30 41072 H 4061.03 -5.55374 1.9192 0
M  V30 41073 H 4062.55 -6.00546 1.1035 0
M  V30 41074 H 4063.96 -4.84901 3.0585 0
M  V30 41075 H 4062.36 -4.62931 3.81857 0
M  V30 41076 H 4063.43 -3.2303 3.61634 0
M  V30 41077 N 4064.77 -1.0717 -1.15553 0
M  V30 41078 C 4066 -0.814803 -1.9018 0
M  V30 41079 C 4066.42 0.631798 -1.77915 0
M  V30 41080 O 4065.77 1.43322 -1.12983 0
M  V30 41081 C 4065.83 -1.21161 -3.40591 0
M  V30 41082 O 4065.55 -2.60146 -3.525 0
M  V30 41083 C 4067.05 -0.983751 -4.32247 0
M  V30 41084 H 4064.27 -0.294746 -0.602798 0
M  V30 41085 H 4066.81 -1.42767 -1.46417 0
M  V30 41086 H 4064.97 -0.643108 -3.82025 0
M  V30 41087 H 4065.38 -2.76283 -4.45834 0
M  V30 41088 H 4066.85 -1.31093 -5.36208 0
M  V30 41089 H 4067.33 0.080025 -4.39127 0
M  V30 41090 H 4067.94 -1.53707 -3.96553 0
M  V30 41091 N 4066.25 1.32356 -0.855542 0
M  V30 41092 C 4067.18 2.31349 -0.3162 0
M  V30 41093 C 4068.16 1.59719 0.585131 0
M  V30 41094 O 4069.35 1.87514 0.505188 0
M  V30 41095 C 4066.48 3.43747 0.495516 0
M  V30 41096 C 4065.43 4.26865 -0.311457 0
M  V30 41097 C 4064.76 5.31034 0.625051 0
M  V30 41098 C 4066.06 4.99152 -1.53769 0
M  V30 41099 H 4067.75 2.76708 -1.14336 0
M  V30 41100 H 4065.3 1.33031 -0.551245 0
M  V30 41101 H 4067.25 4.1204 0.883252 0
M  V30 41102 H 4065.98 2.97118 1.35605 0
M  V30 41103 H 4064.64 3.6022 -0.680958 0
M  V30 41104 H 4064.28 4.80658 1.48246 0
M  V30 41105 H 4063.98 5.87532 0.089108 0
M  V30 41106 H 4065.51 6.0219 1.00994 0
M  V30 41107 H 4066.92 5.60121 -1.22219 0
M  V30 41108 H 4065.32 5.65379 -2.01163 0
M  V30 41109 H 4066.39 4.26965 -2.29845 0
M  V30 41110 N 4067.73 0.613565 1.45166 0
M  V30 41111 C 4068.64 -0.103446 2.34372 0
M  V30 41112 C 4069.66 -0.854146 1.51593 0
M  V30 41113 O 4070.83 -0.810382 1.84377 0
M  V30 41114 C 4067.9 -1.08438 3.29306 0
M  V30 41115 C 4066.96 -0.334981 4.27991 0
M  V30 41116 C 4066.19 -1.26918 5.18389 0
M  V30 41117 O 4066.42 -2.50725 5.12341 0
M  V30 41118 O 4065.35 -0.76301 5.97044 0
M  V30 41119 H 4069.18 0.629798 2.97098 0
M  V30 41120 H 4066.76 0.373805 1.44648 0
M  V30 41121 H 4068.64 -1.64919 3.87788 0
M  V30 41122 H 4067.32 -1.79854 2.69136 0
M  V30 41123 H 4066.22 0.272444 3.73107 0
M  V30 41124 H 4067.56 0.338813 4.91032 0
M  V30 41125 N 4069.21 -1.53594 0.353071 0
M  V30 41126 C 4070.46 -2.00669 -0.240037 0
M  V30 41127 C 4070.78 -1.24237 -1.50301 0
M  V30 41128 O 4070.05 -0.352152 -1.92709 0
M  V30 41129 H 4068.63 -0.741352 -0.0916885 0
M  V30 41130 H 4071.29 -1.88987 0.476423 0
M  V30 41131 H 4070.39 -3.08452 -0.475815 0
M  V30 41132 N 4070.69 -0.0819208 -1.57387 0
M  V30 41133 C 4071.94 0.584485 -1.93046 0
M  V30 41134 C 4072.25 1.70152 -0.96476 0
M  V30 41135 O 4073.46 2.42818 -1.21455 0
M  V30 41136 C 4071.91 1.09104 -3.42964 0
M  V30 41137 C 4071.52 0.00446358 -4.48 0
M  V30 41138 C 4073.26 1.73093 -3.87607 0
M  V30 41139 C 4071.17 0.52563 -5.89059 0
M  V30 41140 H 4070.1 0.222099 -0.720547 0
M  V30 41141 H 4072.75 -0.155794 -1.82837 0
M  V30 41142 H 4071.13 1.8846 -3.4828 0
M  V30 41143 H 4072.31 -0.770524 -4.54312 0
M  V30 41144 H 4070.62 -0.539812 -4.12886 0
M  V30 41145 H 4073.22 2.13135 -4.90385 0
M  V30 41146 H 4073.56 2.59493 -3.25529 0
M  V30 41147 H 4074.1 1.00342 -3.84937 0
M  V30 41148 H 4070.83 -0.301448 -6.54806 0
M  V30 41149 H 4070.35 1.26791 -5.86246 0
M  V30 41150 H 4072.03 0.998816 -6.39244 0
M  V30 41151 N 4072.17 1.5643 0.191702 0
M  V30 41152 C 4073.41 1.80017 0.909765 0
M  V30 41153 C 4073.73 0.655723 1.84281 0
M  V30 41154 O 4074.93 0.775986 2.60174 0
M  V30 41155 C 4073.39 3.18906 1.66813 0
M  V30 41156 C 4073 4.41162 0.77974 0
M  V30 41157 C 4074.74 3.51801 2.37563 0
M  V30 41158 C 4072.65 5.71074 1.53717 0
M  V30 41159 H 4071.58 0.671236 0.343451 0
M  V30 41160 H 4074.23 1.82775 0.16299 0
M  V30 41161 H 4072.61 3.10408 2.45892 0
M  V30 41162 H 4073.79 4.60792 0.0273714 0
M  V30 41163 H 4072.1 4.15998 0.182907 0
M  V30 41164 H 4074.7 4.46099 2.94788 0
M  V30 41165 H 4075.04 2.75707 3.11916 0
M  V30 41166 H 4075.57 3.61762 1.65448 0
M  V30 41167 H 4072.31 6.50142 0.836361 0
M  V30 41168 H 4071.83 5.55456 2.26338 0
M  V30 41169 H 4073.51 6.12311 2.09007 0
M  V30 41170 N 4073.64 -0.459538 1.50751 0
M  V30 41171 C 4074.89 -1.20836 1.61997 0
M  V30 41172 C 4075.21 -1.92225 0.327816 0
M  V30 41173 O 4074.48 -1.84614 -0.655309 0
M  V30 41174 H 4073.06 -0.449026 0.59698 0
M  V30 41175 H 4075.72 -0.529027 1.87583 0
M  V30 41176 H 4074.82 -1.95002 2.43681 0
M  V30 41177 N 4075.12 -1.40523 -0.713506 0
M  V30 41178 C 4076.37 -1.38914 -1.4734 0
M  V30 41179 C 4076.7 0.00784033 -1.94498 0
M  V30 41180 O 4075.95 0.992756 -1.6865 0
M  V30 41181 C 4076.25 -2.32686 -2.71279 0
M  V30 41182 C 4075.92 -3.79898 -2.42875 0
M  V30 41183 C 4074.58 -4.20005 -2.34838 0
M  V30 41184 C 4076.93 -4.72918 -2.19085 0
M  V30 41185 C 4074.26 -5.51165 -2.01083 0
M  V30 41186 C 4076.61 -6.04378 -1.86842 0
M  V30 41187 C 4075.27 -6.43525 -1.77289 0
M  V30 41188 H 4074.54 -0.508322 -0.539157 0
M  V30 41189 H 4077.19 -1.73192 -0.817107 0
M  V30 41190 H 4075.5 -1.91599 -3.41756 0
M  V30 41191 H 4077.19 -2.28723 -3.29374 0
M  V30 41192 H 4073.78 -3.48123 -2.50017 0
M  V30 41193 H 4077.97 -4.42749 -2.24248 0
M  V30 41194 H 4073.22 -5.80396 -1.92226 0
M  V30 41195 H 4077.4 -6.75969 -1.67448 0
M  V30 41196 H 4075.02 -7.45073 -1.509 0
M  V30 41197 N 4076.6 0.94594 -1.26054 0
M  V30 41198 C 4077.85 1.68824 -1.11098 0
M  V30 41199 C 4078.17 1.91885 0.34714 0
M  V30 41200 O 4077.44 1.51215 1.24543 0
M  V30 41201 H 4076.02 0.625645 -0.408139 0
M  V30 41202 H 4078.68 1.13683 -1.58311 0
M  V30 41203 H 4077.78 2.66395 -1.62605 0
M  V30 41204 N 4078.08 1.07781 1.14983 0
M  V30 41205 C 4079.35 0.716578 1.82001 0
M  V30 41206 C 4079.73 -0.800465 1.95335 0
M  V30 41207 O 4079.08 -1.71655 1.5082 0
M  V30 41208 C 4079.29 1.43608 3.18085 0
M  V30 41209 C 4080.64 1.59101 3.93665 0
M  V30 41210 O 4081.66 1.39721 3.27653 0
M  V30 41211 O 4080.52 1.91024 5.12027 0
M  V30 41212 H 4077.62 0.255496 0.786544 0
M  V30 41213 H 4080.16 1.179 1.22056 0
M  V30 41214 H 4078.94 2.46983 3.03505 0
M  V30 41215 H 4078.56 0.964719 3.85719 0
M  V30 41216 N 4079.56 -1.31901 0.862549 0
M  V30 41217 C 4080.49 -2.26741 0.25763 0
M  V30 41218 C 4081.47 -1.50767 -0.608944 0
M  V30 41219 O 4082.65 -1.79864 -0.564006 0
M  V30 41220 C 4079.78 -3.32677 -0.63588 0
M  V30 41221 C 4078.82 -4.26206 0.158357 0
M  V30 41222 S 4079.66 -5.13118 1.53198 0
M  V30 41223 C 4080.81 -6.22574 0.644397 0
M  V30 41224 H 4081.05 -2.777 1.06159 0
M  V30 41225 H 4078.58 -1.39553 0.660636 0
M  V30 41226 H 4080.54 -3.94187 -1.14573 0
M  V30 41227 H 4079.2 -2.80487 -1.41372 0
M  V30 41228 H 4078.39 -5.01284 -0.522524 0
M  V30 41229 H 4077.99 -3.69155 0.600051 0
M  V30 41230 H 4080.28 -6.77338 -0.148104 0
M  V30 41231 H 4081.23 -6.94798 1.36607 0
M  V30 41232 H 4081.64 -5.6409 0.215237 0
M  V30 41233 N 4081.03 -0.621255 -1.44838 0
M  V30 41234 C 4082 0.0797586 -2.29061 0
M  V30 41235 C 4083 0.781908 -1.40509 0
M  V30 41236 O 4084.19 0.627994 -1.62487 0
M  V30 41237 C 4081.32 1.12337 -3.21859 0
M  V30 41238 H 4082.51 -0.660891 -2.92527 0
M  V30 41239 H 4080.07 -0.380926 -1.51587 0
M  V30 41240 H 4080.8 1.89433 -2.63222 0
M  V30 41241 H 4080.59 0.623935 -3.87104 0
M  V30 41242 H 4082.08 1.61392 -3.85153 0
M  V30 41243 N 4082.51 1.53405 -0.361211 0
M  V30 41244 C 4083.48 2.24224 0.474986 0
M  V30 41245 C 4084.48 1.24857 1.01328 0
M  V30 41246 O 4085.67 1.49166 0.899729 0
M  V30 41247 C 4082.8 2.9756 1.66345 0
M  V30 41248 H 4083.99 2.99551 -0.144647 0
M  V30 41249 H 4081.54 1.55892 -0.112829 0
M  V30 41250 H 4082.28 2.26465 2.32129 0
M  V30 41251 H 4082.06 3.70464 1.28447 0
M  V30 41252 H 4083.55 3.51409 2.25614 0
M  V30 41253 N 4083.99 0.0902663 1.57341 0
M  V30 41254 C 4085.22 -0.583091 1.98514 0
M  V30 41255 C 4085.63 -1.62022 0.969236 0
M  V30 41256 O 4084.99 -1.82452 -0.0417829 0
M  V30 41257 C 4085.04 -1.23514 3.39745 0
M  V30 41258 O 4084.76 -0.239491 4.37445 0
M  V30 41259 C 4086.26 -1.99456 3.95894 0
M  V30 41260 H 4083.48 -0.15669 0.652449 0
M  V30 41261 H 4086.03 0.168128 2.03808 0
M  V30 41262 H 4084.18 -1.93732 3.3548 0
M  V30 41263 H 4084.6 -0.709528 5.19679 0
M  V30 41264 H 4086.07 -2.40445 4.9688 0
M  V30 41265 H 4086.55 -2.8585 3.33446 0
M  V30 41266 H 4087.15 -1.34065 4.03617 0
M  V30 41267 N 4085.47 -1.56529 -0.183403 0
M  V30 41268 C 4086.43 -1.94599 -1.21094 0
M  V30 41269 C 4087.43 -0.828329 -1.37824 0
M  V30 41270 O 4088.62 -1.09557 -1.35436 0
M  V30 41271 C 4085.75 -2.23026 -2.57822 0
M  V30 41272 H 4086.95 -2.86538 -0.885224 0
M  V30 41273 H 4084.5 -1.504 -0.425386 0
M  V30 41274 H 4085.23 -1.33763 -2.95429 0
M  V30 41275 H 4085.02 -3.04482 -2.47048 0
M  V30 41276 H 4086.51 -2.53443 -3.31898 0
M  V30 41277 N 4086.95 0.451537 -1.50993 0
M  V30 41278 C 4088.22 1.21247 -1.53488 0
M  V30 41279 C 4088.6 2.09087 -0.290846 0
M  V30 41280 O 4087.95 2.16699 0.72482 0
M  V30 41281 C 4088.16 2.02662 -2.84129 0
M  V30 41282 C 4089.51 2.60189 -3.3554 0
M  V30 41283 O 4090.53 2.12887 -2.85583 0
M  V30 41284 O 4089.39 3.46424 -4.22673 0
M  V30 41285 H 4086.49 0.551243 -0.616491 0
M  V30 41286 H 4089.03 0.461763 -1.63297 0
M  V30 41287 H 4087.8 1.38057 -3.66136 0
M  V30 41288 H 4087.43 2.84827 -2.77415 0
M  V30 41289 N 4088.42 1.409 0.706044 0
M  V30 41290 C 4089.65 1.43028 1.49501 0
M  V30 41291 C 4090.07 0.0326084 1.88772 0
M  V30 41292 O 4089.42 -0.945688 1.56086 0
M  V30 41293 C 4089.48 2.3296 2.76427 0
M  V30 41294 O 4089.2 3.67287 2.38814 0
M  V30 41295 C 4090.7 2.43781 3.70251 0
M  V30 41296 H 4087.92 0.487508 0.461061 0
M  V30 41297 H 4090.46 1.85063 0.870166 0
M  V30 41298 H 4088.62 1.94261 3.35174 0
M  V30 41299 H 4089.03 4.15146 3.20553 0
M  V30 41300 H 4090.5 3.10895 4.56123 0
M  V30 41301 H 4090.98 1.4658 4.14018 0
M  V30 41302 H 4091.59 2.83072 3.17412 0
M  V30 41303 N 4089.9 -0.939242 1.26554 0
M  V30 41304 C 4091.13 -1.7253 1.15101 0
M  V30 41305 C 4091.55 -1.85855 -0.289778 0
M  V30 41306 O 4090.91 -1.35019 -1.20994 0
M  V30 41307 C 4090.96 -3.10886 1.82709 0
M  V30 41308 O 4090.06 -3.96979 1.11719 0
M  V30 41309 H 4089.4 -0.529271 0.40096 0
M  V30 41310 H 4091.93 -1.17622 1.6741 0
M  V30 41311 H 4091.94 -3.61265 1.89609 0
M  V30 41312 H 4090.62 -3.00504 2.87524 0
M  V30 41313 H 4089.2 -3.55428 1.12807 0
M  V30 41314 N 4091.38 -1.08389 -1.14409 0
M  V30 41315 C 4092.31 -0.657756 -2.18515 0
M  V30 41316 C 4093.29 0.330387 -1.59208 0
M  V30 41317 O 4094.48 0.234292 -1.87038 0
M  V30 41318 C 4091.6 0.0325659 -3.38684 0
M  V30 41319 C 4090.65 -0.915696 -4.16554 0
M  V30 41320 S 4091.48 -2.42227 -4.77584 0
M  V30 41321 C 4092.64 -1.74405 -6.0111 0
M  V30 41322 H 4092.87 -1.53969 -2.54324 0
M  V30 41323 H 4090.4 -0.898858 -1.25538 0
M  V30 41324 H 4092.36 0.424579 -4.08298 0
M  V30 41325 H 4091.02 0.890995 -3.01198 0
M  V30 41326 H 4090.22 -0.37958 -5.02569 0
M  V30 41327 H 4089.82 -1.2486 -3.52542 0
M  V30 41328 H 4092.11 -1.06189 -6.69126 0
M  V30 41329 H 4093.05 -2.58293 -6.5931 0
M  V30 41330 H 4093.46 -1.2175 -5.51214 0
M  V30 41331 N 4092.86 1.31442 -0.869532 0
M  V30 41332 C 4093.79 2.26601 -0.269651 0
M  V30 41333 C 4094.77 1.51088 0.60094 0
M  V30 41334 O 4095.95 1.80161 0.55446 0
M  V30 41335 C 4093.08 3.3301 0.618228 0
M  V30 41336 C 4092.13 4.26116 -0.180957 0
M  V30 41337 S 4092.96 5.12299 -1.55917 0
M  V30 41338 C 4094.12 6.22223 -0.677404 0
M  V30 41339 H 4094.35 2.77133 -1.07631 0
M  V30 41340 H 4091.88 1.392 -0.668027 0
M  V30 41341 H 4093.84 3.94789 1.12481 0
M  V30 41342 H 4092.5 2.81232 1.39883 0
M  V30 41343 H 4091.69 5.01554 0.495932 0
M  V30 41344 H 4091.3 3.68832 -0.61962 0
M  V30 41345 H 4093.59 6.77407 0.112181 0
M  V30 41346 H 4094.53 6.94064 -1.4029 0
M  V30 41347 H 4094.94 5.63967 -0.245149 0
M  V30 41348 N 4094.34 0.628927 1.44507 0
M  V30 41349 C 4095.58 0.135821 2.03948 0
M  V30 41350 C 4095.94 -1.21845 1.48384 0
M  V30 41351 O 4097.14 -1.80354 1.99314 0
M  V30 41352 C 4095.41 0.119698 3.572 0
M  V30 41353 S 4096.97 -0.309109 4.3771 0
M  V30 41354 H 4093.79 0.0600063 0.708463 0
M  V30 41355 H 4096.39 0.831823 1.76921 0
M  V30 41356 H 4095.1 1.10849 3.95146 0
M  V30 41357 H 4094.63 -0.597622 3.88834 0
M  V30 41358 H 4096.64 -1.55382 4.71244 0
M  V30 41359 N 4095.82 -1.53211 0.369342 0
M  V30 41360 C 4097.06 -2.00913 -0.21874 0
M  V30 41361 C 4097.38 -1.25824 -1.48974 0
M  V30 41362 O 4096.65 -0.372572 -1.92325 0
M  V30 41363 H 4095.23 -0.742282 -0.0838204 0
M  V30 41364 H 4097.9 -1.88471 0.496441 0
M  V30 41365 H 4096.99 -3.08939 -0.443072 0
M  V30 41366 N 4097.29 -0.0986092 -1.57291 0
M  V30 41367 C 4098.71 0.258037 -1.575 0
M  V30 41368 C 4098.91 1.6817 -1.11 0
M  V30 41369 O 4097.97 2.39887 -0.788062 0
M  V30 41370 C 4099.28 0.0432686 -3.00669 0
M  V30 41371 C 4100.83 0.110747 -3.12804 0
M  V30 41372 C 4101.3 -0.0760712 -4.57937 0
M  V30 41373 N 4102.79 -0.0213544 -4.63195 0
M  V30 41374 C 4103.53 -0.141101 -5.73226 0
M  V30 41375 N 4103.02 -0.315878 -6.9208 0
M  V30 41376 N 4104.82 -0.082121 -5.6204 0
M  V30 41377 H 4096.97 -1.02874 -1.85824 0
M  V30 41378 H 4099.23 -0.403456 -0.857862 0
M  V30 41379 H 4098.94 -0.940163 -3.38901 0
M  V30 41380 H 4098.81 0.784059 -3.68961 0
M  V30 41381 H 4101.2 1.08469 -2.74442 0
M  V30 41382 H 4101.28 -0.661592 -2.47096 0
M  V30 41383 H 4100.92 -1.04689 -4.96994 0
M  V30 41384 H 4100.85 0.716004 -5.2171 0
M  V30 41385 H 4103.34 0.111048 -3.77737 0
M  V30 41386 H 4103.66 -0.398667 -7.71771 0
M  V30 41387 H 4102 -0.351591 -6.9411 0
M  V30 41388 H 4105.19 0.0533145 -4.6807 0
M  V30 41389 H 4105.37 -0.178891 -6.47753 0
M  V30 41390 N 4098.77 1.56624 0.175099 0
M  V30 41391 C 4100.02 1.8142 0.890573 0
M  V30 41392 C 4100.34 0.67499 1.82945 0
M  V30 41393 O 4099.61 -0.305405 1.93505 0
M  V30 41394 H 4098.19 0.669241 0.331852 0
M  V30 41395 H 4100.85 1.94105 0.175821 0
M  V30 41396 H 4099.95 2.75327 1.46974 0
M  V30 41397 N 4100.25 -0.443523 1.5123 0
M  V30 41398 C 4101.5 -1.19039 1.62827 0
M  V30 41399 C 4101.81 -1.92491 0.347332 0
M  V30 41400 O 4103.02 -2.6933 0.342584 0
M  V30 41401 C 4101.47 -2.16451 2.87536 0
M  V30 41402 C 4101.08 -1.48674 4.22611 0
M  V30 41403 C 4102.83 -2.91608 3.08488 0
M  V30 41404 C 4100.73 -2.44534 5.38476 0
M  V30 41405 H 4099.66 -0.448031 0.606452 0
M  V30 41406 H 4102.31 -0.458034 1.77692 0
M  V30 41407 H 4100.7 -2.93095 2.66292 0
M  V30 41408 H 4101.87 -0.776309 4.54214 0
M  V30 41409 H 4100.18 -0.856935 4.07487 0
M  V30 41410 H 4102.78 -3.63406 3.92225 0
M  V30 41411 H 4103.12 -3.52597 2.21316 0
M  V30 41412 H 4103.66 -2.22073 3.30043 0
M  V30 41413 H 4100.4 -1.88244 6.27889 0
M  V30 41414 H 4099.92 -3.1365 5.11257 0
M  V30 41415 H 4101.6 -3.05794 5.70175 0
M  V30 41416 N 4101.73 -1.41272 -0.698562 0
M  V30 41417 C 4102.68 -1.39354 -1.80457 0
M  V30 41418 C 4103.66 -0.268369 -1.58646 0
M  V30 41419 O 4104.85 -0.508807 -1.69529 0
M  V30 41420 C 4101.98 -1.2752 -3.18737 0
M  V30 41421 C 4101.07 -2.44887 -3.46253 0
M  V30 41422 N 4101.46 -3.70357 -3.44484 0
M  V30 41423 C 4099.76 -2.38636 -3.76788 0
M  V30 41424 C 4100.46 -4.48181 -3.70821 0
M  V30 41425 N 4099.43 -3.78253 -3.90417 0
M  V30 41426 H 4103.24 -2.34285 -1.77448 0
M  V30 41427 H 4100.75 -1.35285 -0.898424 0
M  V30 41428 H 4102.75 -1.24228 -3.97961 0
M  V30 41429 H 4101.41 -0.335709 -3.2296 0
M  V30 41430 H 4102.42 -4.03284 -3.24935 0
M  V30 41431 H 4099.1 -1.53142 -3.88399 0
M  V30 41432 H 4100.49 -5.57102 -3.75615 0
M  V30 41433 N 4103.21 0.932517 -1.27051 0
M  V30 41434 C 4104.48 1.65761 -1.03839 0
M  V30 41435 C 4104.86 2.06707 0.428424 0
M  V30 41436 O 4104.21 1.79759 1.41064 0
M  V30 41437 C 4104.42 2.8633 -1.99539 0
M  V30 41438 C 4105.77 3.57784 -2.28638 0
M  V30 41439 O 4106.79 2.9645 -1.97474 0
M  V30 41440 O 4105.65 4.68279 -2.8174 0
M  V30 41441 H 4102.75 0.726303 -0.395492 0
M  V30 41442 H 4105.29 0.98348 -1.38296 0
M  V30 41443 H 4104.06 2.53028 -2.98484 0
M  V30 41444 H 4103.69 3.61466 -1.65615 0
M  V30 41445 N 4104.68 1.08995 1.13833 0
M  V30 41446 C 4105.91 0.845105 1.89401 0
M  V30 41447 C 4106.33 -0.59761 1.78354 0
M  V30 41448 O 4105.69 -1.4194 1.12796 0
M  V30 41449 C 4105.74 1.27937 3.37142 0
M  V30 41450 O 4104.84 0.435047 4.10099 0
M  V30 41451 H 4104.18 0.306438 0.58906 0
M  V30 41452 H 4106.71 1.45293 1.44052 0
M  V30 41453 H 4106.72 1.26284 3.87964 0
M  V30 41454 H 4105.4 2.33008 3.445 0
M  V30 41455 H 4103.98 0.515512 3.69319 0
M  V30 41456 N 4106.16 -1.30979 0.87649 0
M  V30 41457 C 4107.11 -2.28353 0.335189 0
M  V30 41458 C 4108.08 -1.56015 -0.569952 0
M  V30 41459 O 4109.26 -1.84127 -0.500193 0
M  V30 41460 C 4106.4 -3.42132 -0.451663 0
M  V30 41461 C 4105.52 -4.29306 0.481732 0
M  V30 41462 C 4104.65 -5.30236 -0.319884 0
M  V30 41463 C 4103.69 -6.09058 0.609524 0
M  V30 41464 N 4102.83 -7.01926 -0.156243 0
M  V30 41465 H 4107.67 -2.7404 1.17074 0
M  V30 41466 H 4105.2 -1.34806 0.588707 0
M  V30 41467 H 4107.16 -4.06846 -0.923704 0
M  V30 41468 H 4105.79 -2.97537 -1.25185 0
M  V30 41469 H 4104.84 -3.64976 1.07224 0
M  V30 41470 H 4106.16 -4.84296 1.19411 0
M  V30 41471 H 4105.31 -6.00657 -0.85415 0
M  V30 41472 H 4104.05 -4.75918 -1.06552 0
M  V30 41473 H 4103.05 -5.37521 1.15549 0
M  V30 41474 H 4104.28 -6.65463 1.35412 0
M  V30 41475 H 4102.23 -6.50009 -0.884573 0
M  V30 41476 H 4102.14 -7.54367 0.49667 0
M  V30 41477 H 4103.41 -7.76602 -0.671528 0
M  V30 41478 N 4107.64 -0.636582 -1.44171 0
M  V30 41479 C 4108.89 -0.143252 -2.01993 0
M  V30 41480 C 4109.21 1.23686 -1.50106 0
M  V30 41481 O 4108.47 1.83593 -0.677659 0
M  V30 41482 C 4108.77 -0.0850561 -3.57299 0
M  V30 41483 C 4108.43 -1.40468 -4.28462 0
M  V30 41484 C 4107.1 -1.76609 -4.47619 0
M  V30 41485 C 4109.45 -2.27549 -4.68904 0
M  V30 41486 C 4106.78 -2.99528 -5.0448 0
M  V30 41487 C 4109.13 -3.49744 -5.27126 0
M  V30 41488 C 4107.79 -3.86101 -5.44502 0
M  V30 41489 H 4107.06 -0.0524196 -0.739144 0
M  V30 41490 H 4109.71 -0.823983 -1.72866 0
M  V30 41491 H 4108.01 0.679066 -3.8587 0
M  V30 41492 H 4109.71 0.313259 -3.99775 0
M  V30 41493 H 4106.3 -1.11344 -4.13885 0
M  V30 41494 H 4110.49 -2.00921 -4.53811 0
M  V30 41495 H 4105.74 -3.27767 -5.16119 0
M  V30 41496 H 4109.92 -4.1745 -5.57412 0
M  V30 41497 H 4107.54 -4.81429 -5.88328 0
M  V30 41498 N 4109.12 1.53013 -0.377462 0
M  V30 41499 C 4110.34 2.06319 0.211476 0
M  V30 41500 C 4110.77 1.24828 1.40711 0
M  V30 41501 O 4110.13 0.27031 1.79274 0
M  V30 41502 C 4110.17 3.56043 0.57145 0
M  V30 41503 O 4109.28 3.77204 1.66707 0
M  V30 41504 H 4108.62 0.66341 0.0279746 0
M  V30 41505 H 4111.15 1.97304 -0.541506 0
M  V30 41506 H 4111.16 3.99278 0.839112 0
M  V30 41507 H 4109.83 4.14797 -0.302745 0
M  V30 41508 H 4108.41 3.45863 1.39404 0
M  V30 41509 N 4110.6 0.106949 1.57237 0
M  V30 41510 C 4112.01 -0.24968 1.57635 0
M  V30 41511 C 4112.21 -1.67579 1.11891 0
M  V30 41512 O 4111.27 -2.39466 0.800773 0
M  V30 41513 C 4112.58 -0.0273228 3.00688 0
M  V30 41514 C 4114.13 -0.0941566 3.12858 0
M  V30 41515 C 4114.6 0.100356 4.5789 0
M  V30 41516 N 4116.1 0.0459184 4.63177 0
M  V30 41517 C 4116.83 0.171498 5.73143 0
M  V30 41518 N 4116.33 0.352576 6.91902 0
M  V30 41519 N 4118.12 0.111926 5.61989 0
M  V30 41520 H 4110.27 1.03858 1.85276 0
M  V30 41521 H 4112.53 0.408 0.85571 0
M  V30 41522 H 4112.24 0.958122 3.38398 0
M  V30 41523 H 4112.11 -0.764482 3.69372 0
M  V30 41524 H 4114.5 -1.07012 2.75014 0
M  V30 41525 H 4114.58 0.674686 2.46742 0
M  V30 41526 H 4114.23 1.07324 4.96431 0
M  V30 41527 H 4114.16 -0.688326 5.22082 0
M  V30 41528 H 4116.65 -0.0910142 3.7779 0
M  V30 41529 H 4116.96 0.43959 7.71549 0
M  V30 41530 H 4115.3 0.388396 6.93914 0
M  V30 41531 H 4118.5 -0.0284909 4.68091 0
M  V30 41532 H 4118.67 0.213241 6.47649 0
M  V30 41533 N 4112.07 -1.56715 -0.166791 0
M  V30 41534 C 4113.49 -1.71887 -0.728815 0
M  V30 41535 C 4113.84 -0.7182 -1.82582 0
M  V30 41536 O 4112.96 0.119465 -2.1607 0
M  V30 41537 C 4113.56 -3.11654 -1.3288 0
M  V30 41538 C 4112.12 -3.28495 -1.8376 0
M  V30 41539 C 4111.26 -2.67835 -0.718323 0
M  V30 41540 H 4114.21 -1.58592 0.0586577 0
M  V30 41541 H 4114.23 -3.10556 -2.19853 0
M  V30 41542 H 4113.75 -3.84462 -0.530151 0
M  V30 41543 H 4111.85 -2.60652 -2.66254 0
M  V30 41544 H 4111.96 -4.36275 -1.97992 0
M  V30 41545 H 4110.32 -2.27767 -1.13992 0
M  V30 41546 H 4111.11 -3.43232 0.0685518 0
M  V30 41547 N 4113.55 0.435497 -1.51463 0
M  V30 41548 C 4114.5 1.54936 -1.73487 0
M  V30 41549 C 4115.49 1.58372 -0.601225 0
M  V30 41550 O 4116.7 1.62094 -0.78265 0
M  V30 41551 H 4113.08 0.514775 -0.548189 0
M  V30 41552 H 4115.05 1.33536 -2.66854 0
M  V30 41553 C 4113.8 2.92575 -1.87871 0
M  V30 41554 H 4113.12 2.90663 -2.74509 0
M  V30 41555 H 4114.56 3.69873 -2.07291 0
M  V30 41556 C 4113.02 3.30785 -0.638986 0
M  V30 41557 O 4113.55 4.01174 0.20549 0
M  V30 41558 N 4111.75 2.86566 -0.482541 0
M  V30 41559 H 4111.3 2.29455 -1.17082 0
M  V30 41560 H 4111.26 3.12494 0.345698 0
M  V30 41561 N 4115.03 1.41641 0.69106 0
M  V30 41562 C 4116.31 1.31729 1.44592 0
M  V30 41563 C 4116.69 -0.0530253 2.11033 0
M  V30 41564 O 4116.04 -1.06755 2.02029 0
M  V30 41565 C 4116.25 2.47392 2.46167 0
M  V30 41566 C 4117.59 2.88764 3.11288 0
M  V30 41567 O 4118.62 2.47164 2.56492 0
M  V30 41568 O 4117.48 3.60715 4.10545 0
M  V30 41569 H 4114.57 0.518647 0.644154 0
M  V30 41570 H 4117.12 1.53615 0.721157 0
M  V30 41571 H 4115.89 3.38813 1.95758 0
M  V30 41572 H 4115.51 2.27407 3.26147 0
M  V30 41573 N 4116.51 -0.925766 1.27543 0
M  V30 41574 C 4117.92 -1.20205 1.0499 0
M  V30 41575 C 4118.12 -2.00346 -0.215324 0
M  V30 41576 O 4117.18 -2.35132 -0.92029 0
M  V30 41577 C 4118.49 -1.94832 2.29044 0
M  V30 41578 C 4120.04 -2.07763 2.34101 0
M  V30 41579 C 4120.52 -2.85796 3.57889 0
M  V30 41580 N 4122.01 -2.93363 3.58458 0
M  V30 41581 C 4122.74 -3.5421 4.50913 0
M  V30 41582 N 4122.24 -4.16433 5.53674 0
M  V30 41583 N 4124.03 -3.51633 4.38533 0
M  V30 41584 H 4116.18 -0.390413 2.08781 0
M  V30 41585 H 4118.45 -0.23533 0.918327 0
M  V30 41586 H 4118.15 -1.43365 3.21153 0
M  V30 41587 H 4118.03 -2.95438 2.34512 0
M  V30 41588 H 4120.41 -2.58416 1.42496 0
M  V30 41589 H 4120.49 -1.06371 2.32635 0
M  V30 41590 H 4120.14 -2.35826 4.49832 0
M  V30 41591 H 4120.07 -3.87477 3.56608 0
M  V30 41592 H 4122.56 -2.49142 2.84142 0
M  V30 41593 H 4122.87 -4.60806 6.20385 0
M  V30 41594 H 4121.22 -4.14973 5.57514 0
M  V30 41595 H 4124.41 -3.02224 3.57461 0
M  V30 41596 H 4124.58 -3.98763 5.10776 0
M  V30 41597 N 4117.99 -1.09597 -1.13253 0
M  V30 41598 C 4119.4 -0.826018 -1.36562 0
M  V30 41599 C 4119.6 0.558809 -1.93596 0
M  V30 41600 O 4118.66 1.31334 -2.15656 0
M  V30 41601 C 4119.97 -1.91868 -2.31532 0
M  V30 41602 C 4121.52 -1.94612 -2.45143 0
M  V30 41603 C 4121.99 -3.03027 -3.43422 0
M  V30 41604 N 4123.49 -3.02278 -3.50974 0
M  V30 41605 C 4124.22 -3.82806 -4.26904 0
M  V30 41606 N 4123.72 -4.73248 -5.05973 0
M  V30 41607 N 4125.51 -3.71059 -4.22222 0
M  V30 41608 H 4117.66 -1.98874 -0.745854 0
M  V30 41609 H 4119.92 -0.863741 -0.390712 0
M  V30 41610 H 4119.63 -2.91495 -1.96783 0
M  V30 41611 H 4119.5 -1.79843 -3.31567 0
M  V30 41612 H 4121.89 -0.956227 -2.79178 0
M  V30 41613 H 4121.97 -2.10715 -1.45027 0
M  V30 41614 H 4121.62 -4.0223 -3.10118 0
M  V30 41615 H 4121.55 -2.84166 -4.43347 0
M  V30 41616 H 4124.04 -2.36736 -2.94558 0
M  V30 41617 H 4124.35 -5.31272 -5.61221 0
M  V30 41618 H 4122.69 -4.77283 -5.05199 0
M  V30 41619 H 4125.89 -2.99761 -3.59529 0
M  V30 41620 H 4126.06 -4.34055 -4.81144 0
M  V30 41621 N 4119.46 1.30512 -0.883424 0
M  V30 41622 C 4120.88 1.48797 -0.577209 0
M  V30 41623 C 4121.08 1.81004 0.88543 0
M  V30 41624 O 4120.14 1.89672 1.66675 0
M  V30 41625 C 4121.45 2.61244 -1.48902 0
M  V30 41626 C 4123 2.75125 -1.49249 0
M  V30 41627 C 4123.47 3.90684 -2.39019 0
M  V30 41628 N 4124.96 3.97992 -2.36974 0
M  V30 41629 C 4125.7 4.86713 -3.03147 0
M  V30 41630 N 4125.19 5.80241 -3.78539 0
M  V30 41631 N 4126.99 4.80069 -2.92386 0
M  V30 41632 H 4119.14 1.07879 -1.82964 0
M  V30 41633 H 4121.4 0.534302 -0.783087 0
M  V30 41634 H 4121.11 2.44262 -2.5304 0
M  V30 41635 H 4120.98 3.57688 -1.19745 0
M  V30 41636 H 4123.37 2.91514 -0.45863 0
M  V30 41637 H 4123.45 1.79307 -1.82436 0
M  V30 41638 H 4123.09 3.75052 -3.42489 0
M  V30 41639 H 4123.02 4.85837 -2.03149 0
M  V30 41640 H 4125.51 3.31085 -1.82185 0
M  V30 41641 H 4125.83 6.44699 -4.26126 0
M  V30 41642 H 4124.17 5.80178 -3.82647 0
M  V30 41643 H 4127.36 4.05982 -2.33015 0
M  V30 41644 H 4127.54 5.49005 -3.44235 0
M  V30 41645 N 4120.94 0.644219 1.43832 0
M  V30 41646 C 4121.87 -0.0394501 2.33467 0
M  V30 41647 C 4122.85 -0.821312 1.48958 0
M  V30 41648 O 4124.04 -0.784587 1.77645 0
M  V30 41649 C 4121.17 -1.01272 3.32207 0
M  V30 41650 C 4120.12 -0.341591 4.26635 0
M  V30 41651 C 4119.45 -1.42568 5.15343 0
M  V30 41652 C 4120.75 0.76039 5.16735 0
M  V30 41653 H 4122.44 0.709076 2.90882 0
M  V30 41654 H 4119.99 0.342437 1.39869 0
M  V30 41655 H 4121.94 -1.49984 3.93806 0
M  V30 41656 H 4120.67 -1.79229 2.73028 0
M  V30 41657 H 4119.32 0.125001 3.66387 0
M  V30 41658 H 4118.97 -2.19646 4.52509 0
M  V30 41659 H 4118.67 -0.981928 5.79337 0
M  V30 41660 H 4120.2 -1.91434 5.79815 0
M  V30 41661 H 4121.61 0.355814 5.72195 0
M  V30 41662 H 4120.01 1.12806 5.89402 0
M  V30 41663 H 4121.08 1.62213 4.56963 0
M  V30 41664 N 4122.42 -1.52811 0.385571 0
M  V30 41665 C 4123.67 -2.01133 -0.197418 0
M  V30 41666 C 4123.99 -1.27397 -1.47632 0
M  V30 41667 O 4123.26 -0.392949 -1.91919 0
M  V30 41668 H 4121.84 -0.74313 -0.0759427 0
M  V30 41669 H 4124.5 -1.87934 0.516403 0
M  V30 41670 H 4123.6 -3.09392 -0.41028 0
M  V30 41671 N 4123.9 -0.115287 -1.57178 0
M  V30 41672 C 4125.15 0.543611 -1.95067 0
M  V30 41673 C 4125.47 1.66923 -0.998348 0
M  V30 41674 O 4124.73 1.95688 -0.0215521 0
M  V30 41675 C 4125.03 1.12013 -3.39393 0
M  V30 41676 C 4124.69 0.116244 -4.5075 0
M  V30 41677 C 4123.36 -0.15981 -4.80935 0
M  V30 41678 C 4125.71 -0.568107 -5.18095 0
M  V30 41679 C 4123.04 -1.12656 -5.75782 0
M  V30 41680 C 4125.39 -1.52346 -6.13982 0
M  V30 41681 C 4124.05 -1.80754 -6.42561 0
M  V30 41682 H 4123.32 0.198921 -0.713801 0
M  V30 41683 H 4125.97 -0.195404 -1.905 0
M  V30 41684 H 4124.27 1.93583 -3.40636 0
M  V30 41685 H 4125.97 1.63799 -3.6602 0
M  V30 41686 H 4122.56 0.341588 -4.27237 0
M  V30 41687 H 4126.74 -0.368 -4.94934 0
M  V30 41688 H 4122 -1.35344 -5.96231 0
M  V30 41689 H 4126.17 -2.05944 -6.65252 0
M  V30 41690 H 4123.8 -2.55821 -7.15863 0
M  V30 41691 N 4125.38 1.56801 0.158477 0
M  V30 41692 C 4126.62 1.82986 0.874299 0
M  V30 41693 C 4126.96 0.695135 1.81333 0
M  V30 41694 O 4126.23 -0.302057 1.9214 0
M  V30 41695 C 4126.51 3.19618 1.6588 0
M  V30 41696 C 4126.37 4.43637 0.742032 0
M  V30 41697 C 4127.69 3.53337 2.62376 0
M  V30 41698 H 4124.81 0.665627 0.3164 0
M  V30 41699 H 4127.45 1.89484 0.139954 0
M  V30 41700 H 4125.6 3.1421 2.28483 0
M  V30 41701 H 4127.27 4.61123 0.127888 0
M  V30 41702 H 4125.51 4.3377 0.0508703 0
M  V30 41703 H 4126.18 5.35819 1.32673 0
M  V30 41704 H 4128.66 3.59282 2.09895 0
M  V30 41705 H 4127.54 4.49991 3.14324 0
M  V30 41706 H 4127.8 2.787 3.43189 0
M  V30 41707 N 4126.86 -0.427458 1.51692 0
M  V30 41708 C 4127.77 -1.54457 1.76579 0
M  V30 41709 C 4128.78 -1.61385 0.650449 0
M  V30 41710 O 4129.96 -1.78443 0.933819 0
M  V30 41711 C 4127.02 -2.90357 1.89456 0
M  V30 41712 C 4126.08 -2.93465 3.13331 0
M  V30 41713 C 4125.32 -4.22883 3.25585 0
M  V30 41714 O 4125.54 -5.15797 2.43537 0
M  V30 41715 O 4124.47 -4.32477 4.18626 0
M  V30 41716 H 4128.3 -1.36368 2.71362 0
M  V30 41717 H 4125.88 -0.611472 1.36314 0
M  V30 41718 H 4127.77 -3.70994 1.99854 0
M  V30 41719 H 4126.44 -3.08553 0.97861 0
M  V30 41720 H 4125.35 -2.11748 3.08405 0
M  V30 41721 H 4126.68 -2.80216 4.04648 0
M  V30 41722 N 4128.33 -1.42005 -0.683539 0
M  V30 41723 C 4129.3 -1.44508 -1.77905 0
M  V30 41724 C 4130.3 -0.333917 -1.57295 0
M  V30 41725 O 4131.49 -0.594352 -1.63747 0
M  V30 41726 C 4128.62 -1.26821 -3.16432 0
M  V30 41727 H 4129.81 -2.42042 -1.77075 0
M  V30 41728 H 4127.36 -1.28324 -0.892333 0
M  V30 41729 H 4128.1 -0.301752 -3.22893 0
M  V30 41730 H 4127.88 -2.07341 -3.32794 0
M  V30 41731 H 4129.37 -1.31435 -3.96377 0
M  V30 41732 N 4129.81 0.918989 -1.28033 0
M  V30 41733 C 4130.74 2.02528 -1.07309 0
M  V30 41734 C 4131.76 1.62779 -0.0264349 0
M  V30 41735 O 4132.95 1.76462 -0.268933 0
M  V30 41736 C 4130.05 3.3341 -0.607526 0
M  V30 41737 C 4129.22 4.01802 -1.72842 0
M  V30 41738 C 4128.28 5.10963 -1.25712 0
M  V30 41739 O 4127.3 5.34449 -1.95839 0
M  V30 41740 N 4128.51 5.80381 -0.117476 0
M  V30 41741 H 4131.27 2.20866 -2.02579 0
M  V30 41742 H 4128.83 1.08995 -1.19715 0
M  V30 41743 H 4130.82 4.03758 -0.275946 0
M  V30 41744 H 4129.39 3.11581 0.252186 0
M  V30 41745 H 4128.61 3.25071 -2.22985 0
M  V30 41746 H 4129.9 4.44241 -2.48046 0
M  V30 41747 H 4129.3 5.63764 0.467648 0
M  V30 41748 H 4127.86 6.51616 0.154864 0
M  V30 41749 N 4131.29 1.10196 1.12671 0
M  V30 41750 C 4132.54 0.8412 1.83761 0
M  V30 41751 C 4132.86 -0.635029 1.8437 0
M  V30 41752 O 4132.13 -1.46098 1.30507 0
M  V30 41753 H 4130.71 0.308204 0.680455 0
M  V30 41754 H 4133.37 1.39172 1.36444 0
M  V30 41755 H 4132.47 1.20184 2.88032 0
M  V30 41756 N 4132.77 -1.30042 0.890333 0
M  V30 41757 C 4134.02 -1.95547 0.510474 0
M  V30 41758 C 4134.34 -1.70598 -0.944532 0
M  V30 41759 O 4133.61 -1.03253 -1.6648 0
M  V30 41760 H 4132.19 -0.723527 0.185788 0
M  V30 41761 H 4134.85 -1.58472 1.13458 0
M  V30 41762 H 4133.94 -3.04485 0.685209 0
M  V30 41763 N 4134.25 -0.651838 -1.43488 0
M  V30 41764 C 4135.49 -0.164343 -2.01431 0
M  V30 41765 C 4135.81 1.22553 -1.51677 0
M  V30 41766 O 4135.08 1.81838 -0.728822 0
M  V30 41767 H 4133.66 -0.0577656 -0.744763 0
M  V30 41768 H 4136.33 -0.843195 -1.75716 0
M  V30 41769 H 4135.42 -0.147903 -3.11749 0
M  V30 41770 N 4135.72 1.52604 -0.39367 0
M  V30 41771 C 4136.95 2.06053 0.187064 0
M  V30 41772 C 4137.37 1.26503 1.40151 0
M  V30 41773 O 4136.72 0.312822 1.79799 0
M  V30 41774 C 4136.77 3.57247 0.552856 0
M  V30 41775 O 4136.5 4.33785 -0.61335 0
M  V30 41776 C 4138 4.27057 1.18898 0
M  V30 41777 H 4135.22 0.670449 0.0271924 0
M  V30 41778 H 4137.76 1.96679 -0.560161 0
M  V30 41779 H 4135.92 3.6668 1.24998 0
M  V30 41780 H 4136.33 5.23573 -0.311703 0
M  V30 41781 H 4137.8 5.34075 1.39526 0
M  V30 41782 H 4138.28 3.82549 2.15762 0
M  V30 41783 H 4138.89 4.21953 0.532505 0
M  V30 41784 N 4137.2 0.12362 1.57114 0
M  V30 41785 C 4138.45 -0.533097 1.94528 0
M  V30 41786 C 4138.76 -1.67534 1.00953 0
M  V30 41787 O 4139.97 -2.39513 1.27851 0
M  V30 41788 C 4138.43 -0.999722 3.45736 0
M  V30 41789 C 4138.03 0.114317 4.47854 0
M  V30 41790 C 4139.78 -1.62755 3.9206 0
M  V30 41791 C 4137.68 -0.369266 5.90246 0
M  V30 41792 H 4136.61 -0.202917 0.726182 0
M  V30 41793 H 4139.27 0.204215 1.8236 0
M  V30 41794 H 4137.65 -1.79159 3.53154 0
M  V30 41795 H 4138.82 0.890706 4.5211 0
M  V30 41796 H 4137.14 0.649091 4.1131 0
M  V30 41797 H 4139.73 -2.00058 4.95864 0
M  V30 41798 H 4140.08 -2.50771 3.32294 0
M  V30 41799 H 4140.61 -0.901006 3.87462 0
M  V30 41800 H 4137.35 0.474952 6.53777 0
M  V30 41801 H 4136.87 -1.11204 5.89401 0
M  V30 41802 H 4138.55 -0.82898 6.41667 0
M  V30 41803 N 4138.68 -1.56883 -0.15016 0
M  V30 41804 C 4139.61 -2.0106 -1.18731 0
M  V30 41805 C 4140.59 -0.889631 -1.44981 0
M  V30 41806 O 4141.78 -1.15722 -1.55956 0
M  V30 41807 C 4138.91 -2.38852 -2.52125 0
M  V30 41808 C 4137.86 -3.54106 -2.40402 0
M  V30 41809 C 4137.19 -3.77702 -3.78478 0
M  V30 41810 C 4138.49 -4.86875 -1.89078 0
M  V30 41811 H 4140.18 -2.87952 -0.819993 0
M  V30 41812 H 4137.73 -1.38533 -0.393 0
M  V30 41813 H 4139.68 -2.68358 -3.24903 0
M  V30 41814 H 4138.4 -1.48894 -2.90686 0
M  V30 41815 H 4137.06 -3.24761 -1.70076 0
M  V30 41816 H 4136.71 -2.84999 -4.14469 0
M  V30 41817 H 4136.41 -4.55263 -3.71496 0
M  V30 41818 H 4137.93 -4.09629 -4.52809 0
M  V30 41819 H 4139.35 -5.15118 -2.51647 0
M  V30 41820 H 4137.74 -5.68219 -1.92995 0
M  V30 41821 H 4138.81 -4.77458 -0.846273 0
M  V30 41822 N 4140.16 0.419408 -1.51917 0
M  V30 41823 C 4141.09 1.51736 -1.77478 0
M  V30 41824 C 4142.07 1.5819 -0.625291 0
M  V30 41825 O 4143.25 1.7363 -0.869846 0
M  V30 41826 C 4140.38 2.89658 -1.91613 0
M  V30 41827 C 4139.34 2.98059 -3.07156 0
M  V30 41828 C 4138.66 4.38134 -3.065 0
M  V30 41829 C 4139.96 2.70487 -4.46804 0
M  V30 41830 H 4141.66 1.30597 -2.69416 0
M  V30 41831 H 4139.2 0.626827 -1.29641 0
M  V30 41832 H 4141.16 3.66444 -2.08078 0
M  V30 41833 H 4139.88 3.12068 -0.963387 0
M  V30 41834 H 4138.54 2.23715 -2.90426 0
M  V30 41835 H 4138.19 4.57539 -2.08967 0
M  V30 41836 H 4137.89 4.44682 -3.84099 0
M  V30 41837 H 4139.41 5.1687 -3.25081 0
M  V30 41838 H 4140.83 3.37 -4.63793 0
M  V30 41839 H 4139.22 2.88423 -5.26243 0
M  V30 41840 H 4140.29 1.65983 -4.55607 0
M  V30 41841 N 4141.64 1.42366 0.675998 0
M  V30 41842 C 4142.6 1.45449 1.77136 0
M  V30 41843 C 4143.6 0.342254 1.57115 0
M  V30 41844 O 4144.79 0.603028 1.6343 0
M  V30 41845 C 4141.92 1.28497 3.15755 0
M  V30 41846 H 4143.11 2.42978 1.75789 0
M  V30 41847 H 4140.67 1.28796 0.885515 0
M  V30 41848 H 4141.4 0.318872 3.22729 0
M  V30 41849 H 4141.19 2.09103 3.3169 0
M  V30 41850 H 4142.68 1.33535 3.95674 0
M  V30 41851 N 4143.11 -0.912187 1.28518 0
M  V30 41852 C 4144.53 -1.19085 1.06259 0
M  V30 41853 C 4144.73 -2.00563 -0.194062 0
M  V30 41854 O 4143.79 -2.36095 -0.895299 0
M  V30 41855 C 4145.1 -1.92392 2.31097 0
M  V30 41856 C 4146.65 -2.05268 2.36292 0
M  V30 41857 C 4147.12 -2.81984 3.60901 0
M  V30 41858 N 4148.61 -2.89545 3.6155 0
M  V30 41859 C 4149.35 -3.49408 4.54645 0
M  V30 41860 N 4148.84 -4.10538 5.5806 0
M  V30 41861 N 4150.64 -3.46962 4.42238 0
M  V30 41862 H 4142.79 -0.368247 2.09183 0
M  V30 41863 H 4145.05 -0.225577 0.920771 0
M  V30 41864 H 4144.76 -1.3995 3.22656 0
M  V30 41865 H 4144.63 -2.92934 2.37633 0
M  V30 41866 H 4147.02 -2.5689 1.45229 0
M  V30 41867 H 4147.1 -1.03897 2.3375 0
M  V30 41868 H 4146.74 -2.31041 4.52308 0
M  V30 41869 H 4146.67 -3.83673 3.60697 0
M  V30 41870 H 4149.16 -2.46114 2.86768 0
M  V30 41871 H 4149.48 -4.54201 6.25237 0
M  V30 41872 H 4147.82 -4.09037 5.61884 0
M  V30 41873 H 4151.01 -2.98416 3.60646 0
M  V30 41874 H 4151.19 -3.93323 5.14977 0
M  V30 41875 N 4144.59 -1.10792 -1.12085 0
M  V30 41876 C 4145.84 -0.850934 -1.83313 0
M  V30 41877 C 4146.16 0.625242 -1.84704 0
M  V30 41878 O 4145.43 1.45404 -1.3128 0
M  V30 41879 H 4144.01 -0.311808 -0.678811 0
M  V30 41880 H 4146.67 -1.39894 -1.35705 0
M  V30 41881 H 4145.77 -1.21709 -2.8739 0
M  V30 41882 N 4146.07 1.29568 -0.897217 0
M  V30 41883 C 4147.35 1.90553 -0.441455 0
M  V30 41884 C 4147.73 1.81458 1.07872 0
M  V30 41885 O 4147.08 1.23969 1.91948 0
M  V30 41886 C 4147.29 3.35729 -0.953254 0
M  V30 41887 C 4148.63 4.12765 -0.995481 0
M  V30 41888 O 4149.66 3.44623 -0.900753 0
M  V30 41889 O 4148.52 5.34533 -1.13739 0
M  V30 41890 H 4145.61 0.815542 -0.137186 0
M  V30 41891 H 4148.16 1.38051 -0.98692 0
M  V30 41892 H 4146.93 3.36493 -1.99721 0
M  V30 41893 H 4146.55 3.95706 -0.387657 0
M  V30 41894 N 4147.55 0.659438 1.4314 0
M  V30 41895 C 4148.48 -0.0146856 2.33495 0
M  V30 41896 C 4149.46 -0.805467 1.49821 0
M  V30 41897 O 4150.64 -0.765701 1.78468 0
M  V30 41898 C 4147.77 -0.977424 3.33262 0
M  V30 41899 C 4146.73 -0.296321 4.26973 0
M  V30 41900 C 4146.05 -1.37094 5.16826 0
M  V30 41901 C 4147.35 0.815154 5.159 0
M  V30 41902 H 4149.05 0.739888 2.90114 0
M  V30 41903 H 4146.59 0.357253 1.39498 0
M  V30 41904 H 4148.55 -1.45798 3.95374 0
M  V30 41905 H 4147.27 -1.76323 2.74914 0
M  V30 41906 H 4145.93 0.163855 3.66234 0
M  V30 41907 H 4145.58 -2.14834 4.54813 0
M  V30 41908 H 4145.28 -0.920426 5.80346 0
M  V30 41909 H 4146.8 -1.85274 5.81813 0
M  V30 41910 H 4148.22 0.416483 5.71785 0
M  V30 41911 H 4146.61 1.19051 5.88172 0
M  V30 41912 H 4147.68 1.6705 4.55217 0
M  V30 41913 N 4149.03 -1.52393 0.401757 0
M  V30 41914 C 4149.99 -2.25405 -0.41537 0
M  V30 41915 C 4150.99 -1.27499 -0.979825 0
M  V30 41916 O 4152.18 -1.51499 -0.859864 0
M  V30 41917 C 4149.31 -3.01866 -1.58397 0
M  V30 41918 H 4150.5 -2.99062 0.224017 0
M  V30 41919 H 4148.06 -1.55538 0.154122 0
M  V30 41920 H 4148.79 -2.3254 -2.26044 0
M  V30 41921 H 4148.58 -3.7374 -1.1858 0
M  V30 41922 H 4150.07 -3.57267 -2.16217 0
M  V30 41923 N 4150.5 -0.131951 -1.57047 0
M  V30 41924 C 4151.43 0.809821 -2.19007 0
M  V30 41925 C 4152.42 1.26797 -1.13386 0
M  V30 41926 O 4153.6 1.32825 -1.41673 0
M  V30 41927 C 4150.73 2.055 -2.79977 0
M  V30 41928 C 4149.68 1.73417 -3.91293 0
M  V30 41929 C 4149.01 3.05074 -4.39129 0
M  V30 41930 C 4150.31 0.992445 -5.12784 0
M  V30 41931 H 4152 0.293469 -2.97958 0
M  V30 41932 H 4149.55 0.139714 -1.43321 0
M  V30 41933 H 4151.5 2.71852 -3.21985 0
M  V30 41934 H 4150.23 2.59482 -1.98334 0
M  V30 41935 H 4148.89 1.0945 -3.4988 0
M  V30 41936 H 4148.53 3.57016 -3.54328 0
M  V30 41937 H 4148.23 2.84376 -5.14202 0
M  V30 41938 H 4149.76 3.72522 -4.83797 0
M  V30 41939 H 4151.17 1.55775 -5.51731 0
M  V30 41940 H 4149.57 0.885958 -5.93524 0
M  V30 41941 H 4150.64 -0.018539 -4.84896 0
M  V30 41942 N 4151.98 1.5696 0.141838 0
M  V30 41943 C 4153.4 1.51741 0.49465 0
M  V30 41944 C 4153.6 0.841232 1.831 0
M  V30 41945 O 4152.65 0.41393 2.49084 0
M  V30 41946 C 4153.97 2.96511 0.500195 0
M  V30 41947 C 4155.52 3.07478 0.58535 0
M  V30 41948 C 4155.99 4.53763 0.621508 0
M  V30 41949 N 4157.48 4.58128 0.683588 0
M  V30 41950 C 4158.22 5.687 0.732634 0
M  V30 41951 N 4157.71 6.88829 0.740712 0
M  V30 41952 N 4159.51 5.56747 0.773909 0
M  V30 41953 H 4151.66 1.99312 -0.734057 0
M  V30 41954 H 4153.92 0.909257 -0.268247 0
M  V30 41955 H 4153.63 3.49259 -0.413623 0
M  V30 41956 H 4153.5 3.52738 1.33626 0
M  V30 41957 H 4155.89 2.54745 1.48959 0
M  V30 41958 H 4155.97 2.54285 -0.277964 0
M  V30 41959 H 4155.61 5.07135 -0.278594 0
M  V30 41960 H 4155.54 5.04743 1.50139 0
M  V30 41961 H 4158.03 3.7165 0.684435 0
M  V30 41962 H 4158.35 7.68852 0.780127 0
M  V30 41963 H 4156.69 6.91379 0.708504 0
M  V30 41964 H 4159.88 4.6181 0.764803 0
M  V30 41965 H 4160.05 6.42934 0.808666 0
M  V30 41966 N 4153.46 -0.411345 1.52137 0
M  V30 41967 C 4154.39 -1.52191 1.70039 0
M  V30 41968 C 4155.37 -1.53088 0.547967 0
M  V30 41969 O 4156.56 -1.71829 0.775047 0
M  V30 41970 C 4153.68 -2.90726 1.73769 0
M  V30 41971 C 4152.73 -3.07749 2.95285 0
M  V30 41972 S 4153.56 -2.81297 4.55667 0
M  V30 41973 C 4154.72 -4.22066 4.6218 0
M  V30 41974 H 4154.95 -1.36776 2.63969 0
M  V30 41975 H 4152.48 -0.602775 1.42148 0
M  V30 41976 H 4154.44 -3.70569 1.76604 0
M  V30 41977 H 4153.1 -3.03484 0.809713 0
M  V30 41978 H 4152.3 -4.09099 2.94371 0
M  V30 41979 H 4151.9 -2.35768 2.90326 0
M  V30 41980 H 4154.19 -5.1567 4.39421 0
M  V30 41981 H 4155.13 -4.28005 5.64108 0
M  V30 41982 H 4155.54 -4.06934 3.91235 0
M  V30 41983 N 4154.94 -1.42722 -0.668439 0
M  V30 41984 C 4156.19 -1.43247 -1.42564 0
M  V30 41985 C 4156.51 -0.0522315 -1.9493 0
M  V30 41986 O 4155.78 0.910201 -1.73471 0
M  V30 41987 H 4154.36 -0.527358 -0.529058 0
M  V30 41988 H 4157.02 -1.78198 -0.789397 0
M  V30 41989 H 4156.12 -2.13603 -2.27552 0
M  V30 41990 N 4156.42 0.905358 -1.29 0
M  V30 41991 C 4157.35 2.02538 -1.16193 0
M  V30 41992 C 4158.33 1.70003 -0.0575592 0
M  V30 41993 O 4159.51 1.9276 -0.236038 0
M  V30 41994 C 4156.64 3.37193 -0.831764 0
M  V30 41995 C 4155.6 3.83919 -1.89183 0
M  V30 41996 C 4154.92 5.15634 -1.4151 0
M  V30 41997 C 4156.22 4.0486 -3.29978 0
M  V30 41998 H 4157.92 2.13511 -2.09889 0
M  V30 41999 H 4155.46 1.0259 -1.01051 0
M  V30 42000 H 4157.42 4.15048 -0.728898 0
M  V30 42001 H 4156.14 3.26296 0.140901 0
M  V30 42002 H 4154.8 3.08275 -1.98398 0
M  V30 42003 H 4154.45 5.01148 -0.43127 0
M  V30 42004 H 4154.15 5.47868 -2.124 0
M  V30 42005 H 4155.67 5.96037 -1.32563 0
M  V30 42006 H 4157.09 4.73215 -3.23636 0
M  V30 42007 H 4155.48 4.4844 -3.98776 0
M  V30 42008 H 4156.55 3.09386 -3.73374 0
M  V30 42009 N 4157.9 1.11385 1.11495 0
M  V30 42010 C 4159.31 0.878496 1.6474 0
M  V30 42011 C 4159.66 -0.58936 1.87139 0
M  V30 42012 O 4158.78 -1.45131 1.60518 0
M  V30 42013 C 4159.38 1.5882 2.99268 0
M  V30 42014 C 4157.94 1.39929 3.49423 0
M  V30 42015 C 4157.08 1.63124 2.24245 0
M  V30 42016 H 4160.03 1.27018 0.95143 0
M  V30 42017 H 4160.06 1.03287 3.66213 0
M  V30 42018 H 4159.57 2.6565 2.82934 0
M  V30 42019 H 4157.67 0.353071 3.70923 0
M  V30 42020 H 4157.78 2.14797 4.28251 0
M  V30 42021 H 4156.15 1.05459 2.31841 0
M  V30 42022 H 4156.93 2.71226 2.10455 0
M  V30 42023 N 4159.37 -1.2909 0.904076 0
M  V30 42024 C 4160.62 -1.9567 0.533026 0
M  V30 42025 C 4160.95 -1.7107 -0.919164 0
M  V30 42026 O 4160.23 -1.02615 -1.65228 0
M  V30 42027 C 4160.51 -3.50373 0.831313 0
M  V30 42028 C 4160.36 -3.84413 2.33553 0
M  V30 42029 C 4161.68 -4.38929 0.320801 0
M  V30 42030 H 4158.8 -0.710699 0.19513 0
M  V30 42031 H 4161.44 -1.5263 1.13156 0
M  V30 42032 H 4159.59 -3.87164 0.321921 0
M  V30 42033 H 4161.27 -3.57544 2.9148 0
M  V30 42034 H 4159.51 -3.318 2.79448 0
M  V30 42035 H 4160.18 -4.92406 2.4948 0
M  V30 42036 H 4162.66 -4.09155 0.757046 0
M  V30 42037 H 4161.53 -5.46049 0.558676 0
M  V30 42038 H 4161.79 -4.35189 -0.778622 0
M  V30 42039 N 4160.85 -0.66702 -1.42789 0
M  V30 42040 C 4161.78 0.00230257 -2.335 0
M  V30 42041 C 4162.76 0.79751 -1.50246 0
M  V30 42042 O 4163.95 0.756226 -1.78871 0
M  V30 42043 C 4161.08 0.959737 -3.33776 0
M  V30 42044 C 4160.03 0.273674 -4.27124 0
M  V30 42045 C 4159.36 1.34351 -5.17546 0
M  V30 42046 C 4160.66 -0.842501 -5.1546 0
M  V30 42047 H 4162.35 -0.755263 -2.89717 0
M  V30 42048 H 4159.9 -0.364646 -1.39307 0
M  V30 42049 H 4161.85 1.437 -3.96142 0
M  V30 42050 H 4160.57 1.74863 -2.75845 0
M  V30 42051 H 4159.23 -0.183274 -3.66142 0
M  V30 42052 H 4158.88 2.12419 -4.55946 0
M  V30 42053 H 4158.58 0.889636 -5.80826 0
M  V30 42054 H 4160.11 1.82186 -5.82787 0
M  V30 42055 H 4161.52 -0.4468 -5.71556 0
M  V30 42056 H 4159.92 -1.22169 -5.87533 0
M  V30 42057 H 4160.99 -1.69462 -4.54324 0
M  V30 42058 N 4162.33 1.52178 -0.409833 0
M  V30 42059 C 4163.29 2.25622 0.403411 0
M  V30 42060 C 4164.29 1.28017 0.97305 0
M  V30 42061 O 4165.48 1.51953 0.851818 0
M  V30 42062 C 4162.61 3.02702 1.56794 0
M  V30 42063 H 4163.81 2.98939 -0.239874 0
M  V30 42064 H 4161.36 1.55454 -0.162368 0
M  V30 42065 H 4162.1 2.33735 2.24807 0
M  V30 42066 H 4161.88 3.74363 1.16596 0
M  V30 42067 H 4163.37 3.58409 2.1432 0
M  V30 42068 N 4163.81 0.140278 1.56974 0
M  V30 42069 C 4165.05 -0.513268 1.96197 0
M  V30 42070 C 4165.39 -1.64956 1.02485 0
M  V30 42071 O 4164.66 -1.94388 0.0659673 0
M  V30 42072 C 4164.94 -1.02583 3.45179 0
M  V30 42073 C 4164.8 0.108511 4.49669 0
M  V30 42074 C 4166.12 -1.90982 3.96502 0
M  V30 42075 H 4163.24 -0.185101 0.713377 0
M  V30 42076 H 4165.88 0.220145 1.8872 0
M  V30 42077 H 4164.03 -1.65081 3.51682 0
M  V30 42078 H 4165.7 0.744618 4.55251 0
M  V30 42079 H 4163.94 0.768633 4.26936 0
M  V30 42080 H 4164.61 -0.291726 5.51229 0
M  V30 42081 H 4167.09 -1.38322 3.92436 0
M  V30 42082 H 4165.97 -2.23756 5.01223 0
M  V30 42083 H 4166.23 -2.84428 3.38457 0
M  V30 42084 N 4165.29 -1.57033 -0.133512 0
M  V30 42085 C 4166.53 -1.84354 -0.845077 0
M  V30 42086 C 4166.86 -0.723896 -1.80204 0
M  V30 42087 O 4166.14 0.271451 -1.92596 0
M  V30 42088 C 4166.42 -3.22217 -1.60774 0
M  V30 42089 C 4166.28 -4.44762 -0.671359 0
M  V30 42090 C 4167.59 -3.57466 -2.56722 0
M  V30 42091 H 4164.71 -0.670577 -0.305771 0
M  V30 42092 H 4167.36 -1.89683 -0.109791 0
M  V30 42093 H 4165.51 -3.17805 -2.23455 0
M  V30 42094 H 4167.18 -4.61268 -0.0545112 0
M  V30 42095 H 4165.42 -4.33796 0.0181452 0
M  V30 42096 H 4166.09 -5.37862 -1.24132 0
M  V30 42097 H 4168.57 -3.62575 -2.04153 0
M  V30 42098 H 4167.44 -4.54934 -3.07125 0
M  V30 42099 H 4167.7 -2.84125 -3.38712 0
M  V30 42100 N 4166.76 0.403271 -1.52353 0
M  V30 42101 C 4167.73 1.47437 -1.75485 0
M  V30 42102 C 4168.73 1.48167 -0.624756 0
M  V30 42103 O 4169.92 1.49589 -0.892688 0
M  V30 42104 C 4167.05 2.86813 -1.84258 0
M  V30 42105 H 4168.24 1.28217 -2.7111 0
M  V30 42106 H 4165.79 0.634132 -1.42858 0
M  V30 42107 H 4166.53 3.11397 -0.905678 0
M  V30 42108 H 4166.31 2.87686 -2.66419 0
M  V30 42109 H 4167.8 3.64451 -2.03876 0
M  V30 42110 N 4168.24 1.43075 0.66086 0
M  V30 42111 C 4169.49 1.44287 1.42083 0
M  V30 42112 C 4169.82 0.0643519 1.94394 0
M  V30 42113 O 4169.07 -0.929479 1.72218 0
M  V30 42114 C 4169.37 2.42594 2.62456 0
M  V30 42115 C 4169.04 3.88651 2.28608 0
M  V30 42116 C 4167.7 4.28432 2.19088 0
M  V30 42117 C 4170.05 4.80723 2.01382 0
M  V30 42118 C 4167.38 5.58248 1.80488 0
M  V30 42119 C 4169.73 6.10896 1.64282 0
M  V30 42120 C 4168.39 6.49662 1.53283 0
M  V30 42121 H 4167.66 0.527982 0.519919 0
M  V30 42122 H 4170.31 1.76106 0.752265 0
M  V30 42123 H 4168.62 2.04151 3.34409 0
M  V30 42124 H 4170.31 2.40789 3.20658 0
M  V30 42125 H 4166.9 3.57162 2.36924 0
M  V30 42126 H 4171.09 4.50766 2.07662 0
M  V30 42127 H 4166.34 5.8713 1.70552 0
M  V30 42128 H 4170.52 6.81718 1.42244 0
M  V30 42129 H 4168.14 7.5016 1.23143 0
M  V30 42130 N 4169.72 -0.898504 1.29478 0
M  V30 42131 C 4170.68 -1.9843 1.14709 0
M  V30 42132 C 4171.68 -1.6059 0.0822104 0
M  V30 42133 O 4172.87 -1.7106 0.329246 0
M  V30 42134 C 4170.01 -3.32448 0.754415 0
M  V30 42135 H 4171.2 -2.12961 2.11158 0
M  V30 42136 H 4168.75 -1.08317 1.12682 0
M  V30 42137 H 4169.49 -3.23618 -0.210167 0
M  V30 42138 H 4169.27 -3.61278 1.52383 0
M  V30 42139 H 4170.76 -4.12122 0.674167 0
M  V30 42140 N 4171.2 -1.11974 -1.10903 0
M  V30 42141 C 4172.13 -0.740981 -2.16892 0
M  V30 42142 C 4173.14 0.23007 -1.61166 0
M  V30 42143 O 4174.33 0.0121299 -1.78496 0
M  V30 42144 C 4171.43 -0.0752449 -3.38816 0
M  V30 42145 C 4170.61 -1.07453 -4.23996 0
M  V30 42146 C 4169.66 -0.437317 -5.2438 0
M  V30 42147 O 4168.69 -1.09289 -5.58609 0
M  V30 42148 N 4169.89 0.797374 -5.74998 0
M  V30 42149 H 4172.66 -1.65295 -2.49995 0
M  V30 42150 H 4170.22 -1.0107 -1.26477 0
M  V30 42151 H 4172.21 0.362914 -4.0307 0
M  V30 42152 H 4170.78 0.739401 -3.0373 0
M  V30 42153 H 4170 -1.69047 -3.56113 0
M  V30 42154 H 4171.29 -1.75042 -4.77742 0
M  V30 42155 H 4170.69 1.34905 -5.49379 0
M  V30 42156 H 4169.24 1.17843 -6.41059 0
M  V30 42157 N 4172.68 1.28609 -0.910909 0
M  V30 42158 C 4173.9 1.99761 -0.557719 0
M  V30 42159 C 4174.33 1.67641 0.853118 0
M  V30 42160 O 4173.68 0.90722 1.56969 0
M  V30 42161 C 4173.73 3.52278 -0.77025 0
M  V30 42162 O 4172.84 4.12041 0.172082 0
M  V30 42163 H 4172.18 0.627684 -0.216584 0
M  V30 42164 H 4174.71 1.63832 -1.22557 0
M  V30 42165 H 4174.72 4.02306 -0.679247 0
M  V30 42166 H 4173.39 3.7499 -1.79876 0
M  V30 42167 H 4171.97 3.72886 0.032588 0
M  V30 42168 N 4174.15 0.674583 1.42433 0
M  V30 42169 C 4175.4 0.196756 2.01542 0
M  V30 42170 C 4175.73 -1.19663 1.53333 0
M  V30 42171 O 4174.98 -1.81731 0.726098 0
M  V30 42172 C 4175.28 0.179758 3.56948 0
M  V30 42173 C 4174.95 1.51779 4.24587 0
M  V30 42174 C 4173.61 1.88415 4.42779 0
M  V30 42175 C 4175.96 2.39901 4.62706 0
M  V30 42176 C 4173.29 3.12798 4.96361 0
M  V30 42177 C 4175.64 3.63596 5.17668 0
M  V30 42178 C 4174.31 4.00402 5.34074 0
M  V30 42179 H 4173.58 0.0719982 0.737494 0
M  V30 42180 H 4176.22 0.869525 1.70621 0
M  V30 42181 H 4174.53 -0.57652 3.87535 0
M  V30 42182 H 4176.23 -0.207156 4.00465 0
M  V30 42183 H 4172.82 1.22279 4.10787 0
M  V30 42184 H 4177 2.12882 4.48325 0
M  V30 42185 H 4172.26 3.41335 5.07248 0
M  V30 42186 H 4176.43 4.32082 5.46149 0
M  V30 42187 H 4174.06 4.96859 5.75357 0
M  V30 42188 N 4175.63 -1.51958 0.417898 0
M  V30 42189 C 4176.88 -2.01507 -0.154711 0
M  V30 42190 C 4177.2 -1.305 -1.44896 0
M  V30 42191 O 4176.47 -0.43357 -1.91042 0
M  V30 42192 H 4175.05 -0.744573 -0.0601628 0
M  V30 42193 H 4177.71 -1.86797 0.556151 0
M  V30 42194 H 4176.81 -3.10192 -0.344562 0
M  V30 42195 N 4177.11 -0.1486 -1.56898 0
M  V30 42196 C 4178.39 0.54726 -1.87788 0
M  V30 42197 C 4178.77 1.82857 -1.05482 0
M  V30 42198 O 4178.12 2.28058 -0.142095 0
M  V30 42199 C 4178.33 0.811163 -3.39442 0
M  V30 42200 C 4179.67 1.15123 -4.08695 0
M  V30 42201 O 4180.7 0.900463 -3.4463 0
M  V30 42202 O 4179.56 1.62321 -5.21837 0
M  V30 42203 H 4176.65 0.279354 -0.77839 0
M  V30 42204 H 4179.2 -0.185332 -1.68685 0
M  V30 42205 H 4177.97 -0.0955843 -3.91183 0
M  V30 42206 H 4177.59 1.59788 -3.64079 0
M  V30 42207 N 4178.59 1.57102 0.125182 0
M  V30 42208 C 4179.84 1.84161 0.832405 0
M  V30 42209 C 4180.16 0.732851 1.80705 0
M  V30 42210 O 4179.43 -0.243689 1.94378 0
M  V30 42211 H 4178.01 0.679459 0.310393 0
M  V30 42212 H 4180.67 1.94566 0.113978 0
M  V30 42213 H 4179.77 2.79864 1.3814 0
M  V30 42214 N 4180.07 -0.395186 1.52565 0
M  V30 42215 C 4181.31 -1.14251 1.67554 0
M  V30 42216 C 4181.65 -1.89797 0.411168 0
M  V30 42217 O 4180.92 -1.85308 -0.590859 0
M  V30 42218 C 4181.2 -2.12575 2.90661 0
M  V30 42219 C 4181.06 -1.40833 4.27184 0
M  V30 42220 C 4182.38 -3.13078 3.09306 0
M  V30 42221 H 4179.49 -0.413984 0.609743 0
M  V30 42222 H 4182.14 -0.426601 1.85149 0
M  V30 42223 H 4180.29 -2.73626 2.75791 0
M  V30 42224 H 4181.96 -0.82794 4.53809 0
M  V30 42225 H 4180.2 -0.710205 4.27947 0
M  V30 42226 H 4180.87 -2.12647 5.09397 0
M  V30 42227 H 4183.35 -2.62112 3.23166 0
M  V30 42228 H 4182.22 -3.79126 3.96932 0
M  V30 42229 H 4182.49 -3.81595 2.23244 0
M  V30 42230 N 4181.54 -1.43423 -0.653263 0
M  V30 42231 C 4182.49 -1.45024 -1.75932 0
M  V30 42232 C 4183.48 -0.318705 -1.57712 0
M  V30 42233 O 4184.67 -0.562484 -1.67825 0
M  V30 42234 C 4181.8 -1.37596 -3.14519 0
M  V30 42235 C 4180.89 -2.55779 -3.38287 0
M  V30 42236 N 4181.28 -3.81129 -3.32527 0
M  V30 42237 C 4179.57 -2.50502 -3.69005 0
M  V30 42238 C 4180.28 -4.59752 -3.56375 0
M  V30 42239 N 4179.25 -3.90483 -3.78185 0
M  V30 42240 H 4183.05 -2.39812 -1.69904 0
M  V30 42241 H 4180.57 -1.38075 -0.854929 0
M  V30 42242 H 4182.56 -1.36826 -3.93807 0
M  V30 42243 H 4181.22 -0.438286 -3.21728 0
M  V30 42244 H 4182.24 -4.13417 -3.1194 0
M  V30 42245 H 4178.91 -1.65421 -3.8333 0
M  V30 42246 H 4180.3 -5.6877 -3.57701 0
M  V30 42247 N 4183.02 0.891625 -1.29953 0
M  V30 42248 C 4184.25 1.67612 -1.213 0
M  V30 42249 C 4184.67 1.87452 0.22517 0
M  V30 42250 O 4184.02 1.41729 1.14974 0
M  V30 42251 C 4184.07 3.05618 -1.9308 0
M  V30 42252 O 4183.79 2.86678 -3.31281 0
M  V30 42253 C 4185.3 4.00041 -1.91003 0
M  V30 42254 H 4182.52 0.523245 -0.420066 0
M  V30 42255 H 4185.06 1.11445 -1.71465 0
M  V30 42256 H 4183.21 3.58537 -1.4673 0
M  V30 42257 H 4183.63 3.74181 -3.67545 0
M  V30 42258 H 4185.1 4.94265 -2.45777 0
M  V30 42259 H 4185.58 4.30142 -0.887407 0
M  V30 42260 H 4186.19 3.53055 -2.37133 0
M  V30 42261 N 4184.5 1.12561 1.10308 0
M  V30 42262 C 4185.73 0.904933 1.86616 0
M  V30 42263 C 4186.15 -0.540565 1.80165 0
M  V30 42264 O 4185.51 -1.38279 1.17254 0
M  V30 42265 C 4185.56 1.38598 3.32901 0
M  V30 42266 O 4184.66 0.565297 4.08507 0
M  V30 42267 H 4184 0.325023 0.579013 0
M  V30 42268 H 4186.53 1.49803 1.39357 0
M  V30 42269 H 4186.54 1.38563 3.8375 0
M  V30 42270 H 4185.22 2.4385 3.36912 0
M  V30 42271 H 4183.79 0.632747 3.67492 0
M  V30 42272 N 4185.98 -1.28124 0.917717 0
M  V30 42273 C 4187.23 -1.9409 0.548805 0
M  V30 42274 C 4187.54 -1.73003 -0.912658 0
M  V30 42275 O 4188.75 -2.33225 -1.3899 0
M  V30 42276 C 4187.2 -3.47659 0.930672 0
M  V30 42277 C 4186.81 -3.77518 2.41213 0
M  V30 42278 C 4188.56 -4.19761 0.632535 0
M  V30 42279 C 4186.46 -5.24415 2.73392 0
M  V30 42280 H 4185.39 -0.72657 0.201525 0
M  V30 42281 H 4188.04 -1.45573 1.11717 0
M  V30 42282 H 4186.43 -3.94929 0.291051 0
M  V30 42283 H 4187.6 -3.41042 3.09882 0
M  V30 42284 H 4185.91 -3.18597 2.68113 0
M  V30 42285 H 4188.51 -5.27908 0.849573 0
M  V30 42286 H 4188.85 -4.14075 -0.429836 0
M  V30 42287 H 4189.39 -3.7828 1.2308 0
M  V30 42288 H 4186.13 -5.35182 3.78498 0
M  V30 42289 H 4185.65 -5.62074 2.09364 0
M  V30 42290 H 4187.33 -5.92194 2.60606 0
M  V30 42291 N 4187.46 -0.682127 -1.42073 0
M  V30 42292 C 4188.87 -0.283837 -1.8453 0
M  V30 42293 C 4189.22 1.17544 -1.57092 0
M  V30 42294 O 4188.34 1.90073 -1.03447 0
M  V30 42295 C 4188.94 -0.508375 -3.34964 0
M  V30 42296 C 4187.5 -0.164135 -3.76042 0
M  V30 42297 C 4186.65 -0.79725 -2.65592 0
M  V30 42298 H 4189.6 -0.883763 -1.31815 0
M  V30 42299 H 4189.62 0.2372 -3.7976 0
M  V30 42300 H 4189.13 -1.57053 -3.54903 0
M  V30 42301 H 4187.23 0.89429 -3.61709 0
M  V30 42302 H 4187.34 -0.609771 -4.75204 0
M  V30 42303 H 4185.71 -0.227958 -2.53678 0
M  V30 42304 H 4186.49 -1.86301 -2.88352 0
M  V30 42305 N 4188.94 1.51735 -0.425951 0
M  V30 42306 C 4189.9 2.26037 0.379458 0
M  V30 42307 C 4190.9 1.29042 0.959417 0
M  V30 42308 O 4192.09 1.52848 0.835653 0
M  V30 42309 C 4189.22 3.04348 1.53575 0
M  V30 42310 H 4190.41 2.98668 -0.271567 0
M  V30 42311 H 4187.97 1.55273 -0.178847 0
M  V30 42312 H 4188.7 2.36107 2.22315 0
M  V30 42313 H 4188.49 3.75579 1.12619 0
M  V30 42314 H 4189.98 3.60662 2.10506 0
M  V30 42315 N 4190.41 0.156919 1.56817 0
M  V30 42316 C 4191.82 -0.362251 1.83152 0
M  V30 42317 C 4192.18 -1.64057 1.07609 0
M  V30 42318 O 4191.3 -2.13953 0.324517 0
M  V30 42319 C 4191.9 -0.664014 3.32229 0
M  V30 42320 C 4190.45 -1.12767 3.59111 0
M  V30 42321 C 4189.6 -0.155946 2.76861 0
M  V30 42322 H 4192.55 0.381446 1.54048 0
M  V30 42323 H 4192.57 -1.51764 3.48924 0
M  V30 42324 H 4192.09 0.266543 3.87184 0
M  V30 42325 H 4190.19 -2.07383 3.09553 0
M  V30 42326 H 4190.3 -1.04679 4.67525 0
M  V30 42327 H 4188.66 -0.650517 2.46253 0
M  V30 42328 H 4189.45 0.768377 3.34591 0
M  V30 42329 N 4191.89 -1.57166 -0.116849 0
M  V30 42330 C 4193.14 -1.846 -0.822627 0
M  V30 42331 C 4193.46 -0.742424 -1.80314 0
M  V30 42332 O 4192.73 0.233377 -1.94505 0
M  V30 42333 H 4191.31 -0.681096 -0.306785 0
M  V30 42334 H 4193.97 -1.94624 -0.103659 0
M  V30 42335 H 4193.07 -2.80592 -1.36654 0
M  V30 42336 N 4193.37 0.38709 -1.52772 0
M  V30 42337 C 4194.3 1.47938 -1.80656 0
M  V30 42338 C 4195.28 1.56828 -0.658705 0
M  V30 42339 O 4196.47 1.71746 -0.90648 0
M  V30 42340 C 4193.6 2.85528 -1.97714 0
M  V30 42341 C 4192.55 2.91476 -3.13409 0
M  V30 42342 C 4191.88 4.31534 -3.15725 0
M  V30 42343 C 4193.18 2.60949 -4.52441 0
M  V30 42344 H 4194.87 1.24853 -2.72125 0
M  V30 42345 H 4192.42 0.599187 -1.30942 0
M  V30 42346 H 4194.37 3.61948 -2.15804 0
M  V30 42347 H 4193.09 3.09954 -1.02936 0
M  V30 42348 H 4191.75 2.17504 -2.95106 0
M  V30 42349 H 4191.4 4.53003 -2.18626 0
M  V30 42350 H 4191.1 4.36434 -3.93445 0
M  V30 42351 H 4192.62 5.09858 -3.35972 0
M  V30 42352 H 4194.04 3.27086 -4.70837 0
M  V30 42353 H 4192.43 2.77196 -5.32243 0
M  V30 42354 H 4193.5 1.56281 -4.59025 0
M  V30 42355 N 4194.85 1.43768 0.645648 0
M  V30 42356 C 4196.1 1.45497 1.40267 0
M  V30 42357 C 4196.42 0.0832366 1.94822 0
M  V30 42358 O 4195.69 -0.882488 1.74897 0
M  V30 42359 H 4194.27 0.535708 0.520602 0
M  V30 42360 H 4196.93 1.79431 0.760947 0
M  V30 42361 H 4196.02 2.17196 2.24125 0
M  V30 42362 N 4196.33 -0.884721 1.30424 0
M  V30 42363 C 4197.29 -1.97202 1.16807 0
M  V30 42364 C 4198.29 -1.60493 0.0992385 0
M  V30 42365 O 4199.48 -1.70701 0.34737 0
M  V30 42366 C 4196.61 -3.31629 0.789633 0
M  V30 42367 H 4197.8 -2.10709 2.13405 0
M  V30 42368 H 4195.36 -1.07115 1.13824 0
M  V30 42369 H 4196.09 -3.23823 -0.175831 0
M  V30 42370 H 4195.88 -3.59641 1.56207 0
M  V30 42371 H 4197.37 -4.11384 0.717841 0
M  V30 42372 N 4197.8 -1.13144 -1.09709 0
M  V30 42373 C 4198.73 -0.8287 -2.183 0
M  V30 42374 C 4199.71 0.210703 -1.6879 0
M  V30 42375 O 4200.9 0.0702636 -1.94073 0
M  V30 42376 C 4198.03 -0.290735 -3.46081 0
M  V30 42377 C 4196.98 -1.26405 -4.08908 0
M  V30 42378 C 4196.31 -0.58598 -5.31479 0
M  V30 42379 C 4197.61 -2.6215 -4.51746 0
M  V30 42380 H 4199.3 -1.73672 -2.43882 0
M  V30 42381 H 4196.85 -0.836469 -1.17214 0
M  V30 42382 H 4198.8 -0.0666249 -4.21347 0
M  V30 42383 H 4197.53 0.652659 -3.20012 0
M  V30 42384 H 4196.19 -1.4741 -3.35657 0
M  V30 42385 H 4195.83 0.362795 -5.0169 0
M  V30 42386 H 4195.53 -1.23532 -5.74468 0
M  V30 42387 H 4197.06 -0.371083 -6.09471 0
M  V30 42388 H 4198.47 -2.4513 -5.18251 0
M  V30 42389 H 4196.87 -3.23232 -5.05609 0
M  V30 42390 H 4197.94 -3.20031 -3.64291 0
M  V30 42391 N 4199.28 1.27635 -0.924498 0
M  V30 42392 C 4200.53 1.94125 -0.562141 0
M  V30 42393 C 4200.85 1.73042 0.898969 0
M  V30 42394 O 4200.12 1.0763 1.63684 0
M  V30 42395 H 4198.7 0.718347 -0.204906 0
M  V30 42396 H 4201.36 1.55408 -1.1762 0
M  V30 42397 H 4200.46 3.02562 -0.765697 0
M  V30 42398 N 4200.76 0.689652 1.41709 0
M  V30 42399 C 4201.72 0.0296203 2.29181 0
M  V30 42400 C 4202.72 -0.713979 1.4408 0
M  V30 42401 O 4203.91 -0.549754 1.65298 0
M  V30 42402 C 4201.05 -0.968525 3.26852 0
M  V30 42403 H 4202.24 0.799707 2.89041 0
M  V30 42404 H 4199.79 0.452817 1.49597 0
M  V30 42405 H 4200.53 -1.76658 2.7196 0
M  V30 42406 H 4200.31 -0.438532 3.8964 0
M  V30 42407 H 4201.8 -1.42832 3.92414 0
M  V30 42408 N 4202.24 -1.51507 0.433991 0
M  V30 42409 C 4203.49 -2.0166 -0.133329 0
M  V30 42410 C 4203.81 -1.32029 -1.43504 0
M  V30 42411 O 4203.08 -0.453808 -1.90571 0
M  V30 42412 H 4201.66 -0.74517 -0.0522622 0
M  V30 42413 H 4204.32 -1.86196 0.575932 0
M  V30 42414 H 4203.42 -3.1054 -0.311642 0
M  V30 42415 N 4203.72 -0.165233 -1.56731 0
M  V30 42416 C 4205.13 0.191003 -1.58453 0
M  V30 42417 C 4205.33 1.63311 -1.18033 0
M  V30 42418 O 4204.39 2.36329 -0.889097 0
M  V30 42419 C 4205.7 -0.0842942 -3.00582 0
M  V30 42420 C 4207.25 -0.0220236 -3.12992 0
M  V30 42421 C 4207.72 -0.270229 -4.57202 0
M  V30 42422 N 4209.22 -0.217792 -4.62688 0
M  V30 42423 C 4209.95 -0.384099 -5.72112 0
M  V30 42424 N 4209.45 -0.609128 -6.90117 0
M  V30 42425 N 4211.24 -0.320427 -5.61186 0
M  V30 42426 H 4203.39 -1.10663 -1.81294 0
M  V30 42427 H 4205.65 -0.439478 -0.839978 0
M  V30 42428 H 4205.36 -1.08306 -3.34608 0
M  V30 42429 H 4205.23 0.626865 -3.71955 0
M  V30 42430 H 4207.62 0.967309 -2.78796 0
M  V30 42431 H 4207.7 -0.765798 -2.44068 0
M  V30 42432 H 4207.35 -1.25674 -4.92106 0
M  V30 42433 H 4207.28 0.494085 -5.24277 0
M  V30 42434 H 4209.77 -0.049263 -3.77868 0
M  V30 42435 H 4210.08 -0.725642 -7.69386 0
M  V30 42436 H 4208.42 -0.64567 -6.91994 0
M  V30 42437 H 4211.62 -0.145258 -4.67875 0
M  V30 42438 H 4211.79 -0.453465 -6.46411 0
M  V30 42439 N 4205.19 1.57226 0.108512 0
M  V30 42440 C 4206.44 1.85034 0.812826 0
M  V30 42441 C 4206.76 0.751976 1.79918 0
M  V30 42442 O 4206.03 -0.223059 1.94626 0
M  V30 42443 H 4204.61 0.682713 0.303169 0
M  V30 42444 H 4207.28 1.94676 0.0933357 0
M  V30 42445 H 4206.37 2.81313 1.35164 0
M  V30 42446 N 4206.67 -0.378982 1.52975 0
M  V30 42447 C 4207.92 -1.12079 1.68174 0
M  V30 42448 C 4208.24 -1.90217 0.429249 0
M  V30 42449 O 4207.51 -1.87829 -0.556528 0
M  V30 42450 H 4206.09 -0.41675 0.619942 0
M  V30 42451 H 4208.75 -0.428849 1.90123 0
M  V30 42452 H 4207.85 -1.81811 2.53675 0
M  V30 42453 N 4208.15 -1.44108 -0.638015 0
M  V30 42454 C 4209.1 -1.50444 -1.7503 0
M  V30 42455 C 4210.07 -0.35275 -1.62311 0
M  V30 42456 O 4211.25 -0.562033 -1.82334 0
M  V30 42457 C 4208.39 -1.44803 -3.13251 0
M  V30 42458 C 4207.51 -2.70293 -3.36995 0
M  V30 42459 C 4206.64 -2.56534 -4.65149 0
M  V30 42460 C 4205.68 -3.77221 -4.82049 0
M  V30 42461 N 4204.82 -3.6218 -6.01474 0
M  V30 42462 H 4209.66 -2.45479 -1.6895 0
M  V30 42463 H 4207.19 -1.21838 -0.824258 0
M  V30 42464 H 4209.15 -1.39525 -3.93178 0
M  V30 42465 H 4207.78 -0.533396 -3.18363 0
M  V30 42466 H 4206.83 -2.85787 -2.51057 0
M  V30 42467 H 4208.15 -3.59896 -3.45364 0
M  V30 42468 H 4207.3 -2.4905 -5.53226 0
M  V30 42469 H 4206.04 -1.6448 -4.59127 0
M  V30 42470 H 4205.04 -3.85097 -3.92403 0
M  V30 42471 H 4206.27 -4.70303 -4.8989 0
M  V30 42472 H 4204.21 -2.72872 -5.96554 0
M  V30 42473 H 4204.13 -4.45394 -6.10868 0
M  V30 42474 H 4205.4 -3.58574 -6.9213 0
M  V30 42475 N 4209.63 0.877792 -1.30891 0
M  V30 42476 C 4210.91 1.61208 -1.10776 0
M  V30 42477 C 4211.29 2.08338 0.340367 0
M  V30 42478 O 4210.63 1.8558 1.33313 0
M  V30 42479 C 4210.84 2.7761 -2.11504 0
M  V30 42480 C 4212.19 3.47765 -2.43608 0
M  V30 42481 O 4213.22 2.87807 -2.0987 0
M  V30 42482 O 4212.07 4.55908 -3.01348 0
M  V30 42483 H 4209.17 0.708875 -0.425941 0
M  V30 42484 H 4211.71 0.923939 -1.42343 0
M  V30 42485 H 4210.49 2.40141 -3.08947 0
M  V30 42486 H 4210.11 3.54116 -1.80797 0
M  V30 42487 N 4211.11 1.13725 1.09108 0
M  V30 42488 C 4212.33 0.924676 1.85646 0
M  V30 42489 C 4212.76 -0.521426 1.80728 0
M  V30 42490 O 4212.11 -1.37028 1.18714 0
M  V30 42491 C 4212.16 1.42121 3.31412 0
M  V30 42492 O 4211.27 0.608592 4.07885 0
M  V30 42493 H 4210.61 0.331146 0.575533 0
M  V30 42494 H 4213.14 1.51272 1.3776 0
M  V30 42495 H 4213.15 1.42625 3.82259 0
M  V30 42496 H 4211.82 2.4741 3.34307 0
M  V30 42497 H 4210.4 0.671689 3.66801 0
M  V30 42498 N 4212.58 -1.27143 0.931254 0
M  V30 42499 C 4214 -1.76188 0.617638 0
M  V30 42500 C 4214.35 -1.75994 -0.867208 0
M  V30 42501 O 4213.47 -1.36569 -1.67862 0
M  V30 42502 C 4214.07 -3.19947 1.11442 0
M  V30 42503 C 4212.63 -3.66644 0.851402 0
M  V30 42504 C 4211.77 -2.46452 1.27109 0
M  V30 42505 H 4214.72 -1.1336 1.11064 0
M  V30 42506 H 4214.74 -3.77664 0.463704 0
M  V30 42507 H 4214.26 -3.20056 2.19513 0
M  V30 42508 H 4212.36 -3.71977 -0.215352 0
M  V30 42509 H 4212.47 -4.55945 1.47144 0
M  V30 42510 H 4210.83 -2.45187 0.689597 0
M  V30 42511 H 4211.62 -2.49268 2.36051 0
M  V30 42512 N 4214.06 -0.697157 -1.41342 0
M  V30 42513 C 4214.99 -0.0472267 -2.33452 0
M  V30 42514 C 4215.97 0.765462 -1.51904 0
M  V30 42515 O 4217.16 0.718114 -1.80435 0
M  V30 42516 C 4214.29 0.888722 -3.35737 0
M  V30 42517 C 4213.24 0.183013 -4.27609 0
M  V30 42518 C 4212.57 1.23343 -5.20279 0
M  V30 42519 C 4213.87 -0.951649 -5.13557 0
M  V30 42520 H 4215.56 -0.816546 -2.8805 0
M  V30 42521 H 4213.11 -0.394113 -1.38502 0
M  V30 42522 H 4215.06 1.35265 -3.99101 0
M  V30 42523 H 4213.79 1.68973 -2.79492 0
M  V30 42524 H 4212.45 -0.260897 -3.6567 0
M  V30 42525 H 4212.09 2.027 -4.6035 0
M  V30 42526 H 4211.79 0.766234 -5.82583 0
M  V30 42527 H 4213.32 1.69783 -5.8652 0
M  V30 42528 H 4214.73 -0.567935 -5.7048 0
M  V30 42529 H 4213.13 -1.34604 -5.84809 0
M  V30 42530 H 4214.2 -1.79061 -4.50628 0
M  V30 42531 N 4215.54 1.51274 -0.44202 0
M  V30 42532 C 4216.5 2.26427 0.355462 0
M  V30 42533 C 4217.5 1.30052 0.945677 0
M  V30 42534 O 4218.69 1.53726 0.819395 0
M  V30 42535 C 4215.83 3.0596 1.50338 0
M  V30 42536 H 4217.02 2.98363 -0.30323 0
M  V30 42537 H 4214.57 1.55075 -0.195306 0
M  V30 42538 H 4215.31 2.38451 2.19799 0
M  V30 42539 H 4215.09 3.76752 1.08629 0
M  V30 42540 H 4216.58 3.62874 2.06669 0
M  V30 42541 N 4217.02 0.173543 1.56642 0
M  V30 42542 C 4218.44 -0.182597 1.58552 0
M  V30 42543 C 4218.64 -1.62683 1.18898 0
M  V30 42544 O 4217.69 -2.35854 0.901618 0
M  V30 42545 C 4219 0.100234 3.00533 0
M  V30 42546 C 4220.55 0.038622 3.12976 0
M  V30 42547 C 4221.03 0.294472 4.57052 0
M  V30 42548 N 4222.52 0.242326 4.62566 0
M  V30 42549 C 4223.25 0.414434 5.719 0
M  V30 42550 N 4222.75 0.645718 6.89784 0
M  V30 42551 N 4224.54 0.350184 5.61008 0
M  V30 42552 H 4216.69 1.11623 1.80704 0
M  V30 42553 H 4218.96 0.443926 0.837636 0
M  V30 42554 H 4218.66 1.10079 3.34029 0
M  V30 42555 H 4218.54 -0.60713 3.72282 0
M  V30 42556 H 4220.92 -0.95251 2.79305 0
M  V30 42557 H 4221 0.778731 2.43658 0
M  V30 42558 H 4220.65 1.28282 4.91433 0
M  V30 42559 H 4220.58 -0.466274 5.24532 0
M  V30 42560 H 4223.07 0.0693015 3.77836 0
M  V30 42561 H 4223.38 0.766435 7.6899 0
M  V30 42562 H 4221.73 0.682359 6.91642 0
M  V30 42563 H 4224.92 0.170068 4.67791 0
M  V30 42564 H 4225.09 0.487739 6.46162 0
M  V30 42565 N 4218.5 -1.57281 -0.100172 0
M  V30 42566 C 4219.46 -2.00745 -1.10609 0
M  V30 42567 C 4220.46 -0.900222 -1.33239 0
M  V30 42568 O 4221.65 -1.16582 -1.29438 0
M  V30 42569 C 4218.78 -2.36379 -2.45638 0
M  V30 42570 H 4219.98 -2.90827 -0.732092 0
M  V30 42571 H 4217.53 -1.52443 -0.345064 0
M  V30 42572 H 4218.26 -1.49235 -2.87923 0
M  V30 42573 H 4218.05 -3.1715 -2.30561 0
M  V30 42574 H 4219.54 -2.7068 -3.17997 0
M  V30 42575 N 4219.98 0.370864 -1.53174 0
M  V30 42576 C 4220.91 1.46013 -1.82215 0
M  V30 42577 C 4221.89 1.56121 -0.675301 0
M  V30 42578 O 4223.07 1.70775 -0.924644 0
M  V30 42579 C 4220.2 2.83415 -2.00732 0
M  V30 42580 C 4219.16 2.88136 -3.16483 0
M  V30 42581 C 4218.48 4.28161 -3.20284 0
M  V30 42582 C 4219.78 2.56135 -4.55183 0
M  V30 42583 H 4221.48 1.2196 -2.73434 0
M  V30 42584 H 4219.02 0.585265 -1.3157 0
M  V30 42585 H 4220.97 3.59639 -2.19631 0
M  V30 42586 H 4219.7 3.08845 -1.06218 0
M  V30 42587 H 4218.36 2.14362 -2.97396 0
M  V30 42588 H 4218.01 4.50659 -2.23418 0
M  V30 42589 H 4217.71 4.32237 -3.98052 0
M  V30 42590 H 4219.23 5.06266 -3.4136 0
M  V30 42591 H 4220.64 3.22074 -4.7428 0
M  V30 42592 H 4219.04 2.71535 -5.35153 0
M  V30 42593 H 4220.11 1.51404 -4.60657 0
M  V30 42594 N 4221.45 1.44444 0.630363 0
M  V30 42595 C 4222.42 1.51011 1.72419 0
M  V30 42596 C 4223.42 0.392066 1.55947 0
M  V30 42597 O 4224.61 0.654716 1.61428 0
M  V30 42598 C 4221.74 1.38478 3.11507 0
M  V30 42599 H 4222.93 2.48447 1.6797 0
M  V30 42600 H 4220.48 1.31548 0.844091 0
M  V30 42601 H 4221.22 0.421384 3.21551 0
M  V30 42602 H 4221 2.1955 3.2487 0
M  V30 42603 H 4222.49 1.46056 3.91226 0
M  V30 42604 N 4222.93 -0.870838 1.31355 0
M  V30 42605 C 4223.88 -1.97797 1.18932 0
M  V30 42606 C 4224.85 -1.65929 0.0753192 0
M  V30 42607 O 4226.03 -1.89181 0.248025 0
M  V30 42608 C 4223.17 -3.33111 0.901721 0
M  V30 42609 C 4222.29 -3.77581 2.09897 0
M  V30 42610 C 4221.42 -5.01608 1.74823 0
M  V30 42611 C 4220.46 -5.38524 2.90961 0
M  V30 42612 N 4219.6 -6.5373 2.56089 0
M  V30 42613 H 4224.44 -2.07755 2.13639 0
M  V30 42614 H 4221.97 -1.01706 1.06275 0
M  V30 42615 H 4223.93 -4.11018 0.715536 0
M  V30 42616 H 4222.56 -3.22799 -0.00851789 0
M  V30 42617 H 4221.61 -2.95463 2.39595 0
M  V30 42618 H 4222.93 -4.0087 2.96824 0
M  V30 42619 H 4222.08 -5.87179 1.52662 0
M  V30 42620 H 4220.82 -4.8022 0.85086 0
M  V30 42621 H 4219.82 -4.51472 3.13772 0
M  V30 42622 H 4221.05 -5.61877 3.81407 0
M  V30 42623 H 4219 -6.33891 1.68874 0
M  V30 42624 H 4218.91 -6.76958 3.36547 0
M  V30 42625 H 4220.18 -7.42496 2.37319 0
M  V30 42626 N 4224.41 -1.14302 -1.08503 0
M  V30 42627 C 4225.34 -0.851807 -2.17409 0
M  V30 42628 C 4226.32 0.192789 -1.69004 0
M  V30 42629 O 4227.51 0.0496757 -1.94136 0
M  V30 42630 C 4224.64 -0.327425 -3.45753 0
M  V30 42631 C 4223.59 -1.30735 -4.07544 0
M  V30 42632 C 4222.92 -0.642318 -5.30828 0
M  V30 42633 C 4224.22 -2.66927 -4.4894 0
M  V30 42634 H 4225.91 -1.76249 -2.42026 0
M  V30 42635 H 4223.46 -0.848854 -1.16321 0
M  V30 42636 H 4225.41 -0.111311 -4.21253 0
M  V30 42637 H 4224.13 0.618681 -3.20687 0
M  V30 42638 H 4222.79 -1.50962 -3.34075 0
M  V30 42639 H 4222.44 0.309564 -5.02047 0
M  V30 42640 H 4222.14 -1.29618 -5.73126 0
M  V30 42641 H 4223.66 -0.435705 -6.09043 0
M  V30 42642 H 4225.08 -2.50613 -5.15622 0
M  V30 42643 H 4223.47 -3.28577 -5.02153 0
M  V30 42644 H 4224.54 -3.23877 -3.60876 0
M  V30 42645 N 4225.89 1.26648 -0.937984 0
M  V30 42646 C 4227.14 1.93518 -0.582699 0
M  V30 42647 C 4227.46 1.73986 0.880565 0
M  V30 42648 O 4226.73 1.0936 1.62533 0
M  V30 42649 H 4225.31 0.716133 -0.212514 0
M  V30 42650 H 4227.97 1.54152 -1.19261 0
M  V30 42651 H 4227.06 3.01732 -0.797745 0
M  V30 42652 N 4227.37 0.704643 1.4097 0
M  V30 42653 C 4228.61 0.239817 2.01377 0
M  V30 42654 C 4228.94 -1.16049 1.55712 0
M  V30 42655 O 4228.22 -1.78509 0.772309 0
M  V30 42656 C 4228.5 0.307619 3.58784 0
M  V30 42657 C 4228.36 1.74551 4.1455 0
M  V30 42658 C 4229.67 -0.327439 4.3888 0
M  V30 42659 H 4226.79 0.0886159 0.731653 0
M  V30 42660 H 4229.44 0.895078 1.67596 0
M  V30 42661 H 4227.59 -0.250292 3.87693 0
M  V30 42662 H 4229.26 2.35797 3.96482 0
M  V30 42663 H 4227.5 2.27677 3.6925 0
M  V30 42664 H 4228.17 1.74442 5.23712 0
M  V30 42665 H 4230.65 0.14781 4.15837 0
M  V30 42666 H 4229.52 -0.249498 5.48333 0
M  V30 42667 H 4229.78 -1.40944 4.19031 0
M  V30 42668 N 4228.84 -1.51038 0.450036 0
M  V30 42669 C 4229.81 -2.26612 -0.343449 0
M  V30 42670 C 4230.81 -1.30552 -0.938766 0
M  V30 42671 O 4232 -1.54158 -0.811231 0
M  V30 42672 C 4229.13 -3.06753 -1.48713 0
M  V30 42673 H 4230.32 -2.98198 0.319048 0
M  V30 42674 H 4227.88 -1.54969 0.203527 0
M  V30 42675 H 4228.61 -2.39614 -2.18531 0
M  V30 42676 H 4228.4 -3.77323 -1.0663 0
M  V30 42677 H 4229.89 -3.63965 -2.04742 0
M  V30 42678 N 4230.32 -0.181847 -1.56547 0
M  V30 42679 C 4231.29 0.730459 -2.17249 0
M  V30 42680 C 4232.29 1.15054 -1.12335 0
M  V30 42681 O 4233.48 1.06579 -1.37792 0
M  V30 42682 C 4230.61 1.99558 -2.76386 0
M  V30 42683 H 4231.8 0.201851 -2.9922 0
M  V30 42684 H 4229.35 0.0677459 -1.56153 0
M  V30 42685 H 4230.09 2.56703 -1.98177 0
M  V30 42686 H 4229.87 1.70323 -3.53175 0
M  V30 42687 H 4231.36 2.64643 -3.23039 0
M  V30 42688 N 4231.8 1.57332 0.09183 0
M  V30 42689 C 4233.08 1.77276 0.826585 0
M  V30 42690 C 4233.46 0.764345 1.96776 0
M  V30 42691 O 4232.81 -0.20652 2.27565 0
M  V30 42692 C 4233.02 3.2315 1.31814 0
M  V30 42693 C 4234.36 3.86423 1.75961 0
M  V30 42694 O 4235.39 3.26919 1.41429 0
M  V30 42695 O 4234.25 4.91067 2.39823 0
M  V30 42696 H 4231.34 0.726828 0.394524 0
M  V30 42697 H 4233.89 1.69541 0.0734585 0
M  V30 42698 H 4232.66 3.88084 0.500665 0
M  V30 42699 H 4232.28 3.35531 2.13318 0
M  V30 42700 N 4233.28 -0.362736 1.53369 0
M  V30 42701 C 4234.56 -1.12092 1.60296 0
M  V30 42702 C 4234.94 -2.07035 0.412255 0
M  V30 42703 O 4234.28 -2.20557 -0.597246 0
M  V30 42704 C 4234.49 -1.85752 2.95461 0
M  V30 42705 C 4235.84 -2.40183 3.50139 0
M  V30 42706 O 4236.87 -1.95874 2.97509 0
M  V30 42707 O 4235.72 -3.21192 4.42152 0
M  V30 42708 H 4232.82 -0.514362 0.647581 0
M  V30 42709 H 4235.36 -0.365771 1.65711 0
M  V30 42710 H 4234.14 -1.16476 3.73563 0
M  V30 42711 H 4233.76 -2.68169 2.9355 0
M  V30 42712 N 4234.76 -1.44777 -0.622694 0
M  V30 42713 C 4236 -1.48222 -1.38413 0
M  V30 42714 C 4236.34 -0.117629 -1.93843 0
M  V30 42715 O 4235.61 0.865904 -1.74162 0
M  V30 42716 C 4235.89 -2.54937 -2.54321 0
M  V30 42717 C 4235.75 -4.00785 -2.04185 0
M  V30 42718 C 4237.07 -2.58075 -3.5649 0
M  V30 42719 H 4234.18 -0.539662 -0.50193 0
M  V30 42720 H 4236.83 -1.76503 -0.703316 0
M  V30 42721 H 4234.98 -2.30952 -3.12399 0
M  V30 42722 H 4236.65 -4.35931 -1.50872 0
M  V30 42723 H 4234.89 -4.1216 -1.35301 0
M  V30 42724 H 4235.56 -4.71116 -2.8767 0
M  V30 42725 H 4238.04 -2.79527 -3.08227 0
M  V30 42726 H 4236.91 -3.34632 -4.35101 0
M  V30 42727 H 4237.18 -1.6259 -4.11116 0
M  V30 42728 N 4236.23 0.863859 -1.31815 0
M  V30 42729 C 4237.2 1.95319 -1.1993 0
M  V30 42730 C 4238.2 1.60315 -0.124759 0
M  V30 42731 O 4239.39 1.70127 -0.374484 0
M  V30 42732 C 4236.52 3.30331 -0.842292 0
M  V30 42733 H 4237.71 2.07287 -2.1673 0
M  V30 42734 H 4235.27 1.05291 -1.15514 0
M  V30 42735 H 4236 3.24062 0.124292 0
M  V30 42736 H 4235.79 3.57111 -1.61908 0
M  V30 42737 H 4237.28 4.1019 -0.783197 0
M  V30 42738 N 4237.71 1.14875 1.07895 0
M  V30 42739 C 4238.96 0.921563 1.80652 0
M  V30 42740 C 4239.29 -0.550254 1.86241 0
M  V30 42741 O 4238.57 -1.40777 1.34209 0
M  V30 42742 C 4238.85 1.52964 3.25997 0
M  V30 42743 C 4238.7 3.07167 3.28586 0
M  V30 42744 C 4240.02 1.21083 4.23116 0
M  V30 42745 H 4237.14 0.33622 0.655839 0
M  V30 42746 H 4239.78 1.41953 1.26291 0
M  V30 42747 H 4237.93 1.10616 3.7242 0
M  V30 42748 H 4239.6 3.58382 2.90448 0
M  V30 42749 H 4237.85 3.41344 2.67706 0
M  V30 42750 H 4238.52 3.44823 4.31047 0
M  V30 42751 H 4240.99 1.57704 3.85057 0
M  V30 42752 H 4239.87 1.66255 5.23116 0
M  V30 42753 H 4240.13 0.126957 4.41918 0
M  V30 42754 N 4239.19 -1.26148 0.944687 0
M  V30 42755 C 4240.44 -1.92882 0.589851 0
M  V30 42756 C 4240.75 -1.749 -0.875756 0
M  V30 42757 O 4241.96 -2.36121 -1.34012 0
M  V30 42758 C 4240.41 -3.45606 1.00421 0
M  V30 42759 C 4240.02 -3.72317 2.49167 0
M  V30 42760 C 4241.77 -4.18325 0.72143 0
M  V30 42761 C 4239.67 -5.18498 2.84454 0
M  V30 42762 H 4238.6 -0.722132 0.216892 0
M  V30 42763 H 4241.25 -1.43171 1.1478 0
M  V30 42764 H 4239.64 -3.94223 0.374756 0
M  V30 42765 H 4240.81 -3.34392 3.17046 0
M  V30 42766 H 4239.13 -3.12838 2.74811 0
M  V30 42767 H 4241.72 -5.25987 0.961359 0
M  V30 42768 H 4242.07 -4.14894 -0.341908 0
M  V30 42769 H 4242.6 -3.75585 1.31076 0
M  V30 42770 H 4239.34 -5.27033 3.89765 0
M  V30 42771 H 4238.86 -5.57506 2.21239 0
M  V30 42772 H 4240.54 -5.86533 2.73108 0
M  V30 42773 N 4240.67 -0.712109 -1.40594 0
M  V30 42774 C 4241.89 -0.258233 -2.05786 0
M  V30 42775 C 4242.32 1.09012 -1.53291 0
M  V30 42776 O 4241.68 1.68593 -0.666801 0
M  V30 42777 C 4241.72 -0.24442 -3.59771 0
M  V30 42778 O 4240.83 0.775478 -4.05043 0
M  V30 42779 H 4240.17 -0.122032 -0.65269 0
M  V30 42780 H 4242.7 -0.971615 -1.80058 0
M  V30 42781 H 4242.71 -0.0809154 -4.0792 0
M  V30 42782 H 4241.38 -1.22841 -3.97345 0
M  V30 42783 H 4239.96 0.579981 -3.68362 0
M  V30 42784 N 4242.15 1.50797 -0.45804 0
M  V30 42785 C 4243.09 2.28239 0.342872 0
M  V30 42786 C 4244.06 1.32719 0.998737 0
M  V30 42787 O 4245.25 1.61645 1.01368 0
M  V30 42788 C 4242.39 3.14241 1.42641 0
M  V30 42789 C 4241.5 4.24778 0.786623 0
M  V30 42790 C 4240.64 4.98057 1.84695 0
M  V30 42791 C 4239.68 6.00486 1.18671 0
M  V30 42792 N 4238.81 6.67094 2.1893 0
M  V30 42793 H 4243.65 2.96235 -0.323851 0
M  V30 42794 H 4241.19 1.46096 -0.171554 0
M  V30 42795 H 4243.15 3.62445 2.06614 0
M  V30 42796 H 4241.78 2.48318 2.06248 0
M  V30 42797 H 4240.83 3.80384 0.0346546 0
M  V30 42798 H 4242.14 4.98097 0.264789 0
M  V30 42799 H 4241.3 5.49914 2.5628 0
M  V30 42800 H 4240.03 4.24415 2.40256 0
M  V30 42801 H 4239.04 5.47902 0.456414 0
M  V30 42802 H 4240.26 6.76095 0.638159 0
M  V30 42803 H 4238.21 5.96251 2.73533 0
M  V30 42804 H 4238.13 7.36245 1.71696 0
M  V30 42805 H 4239.4 7.23573 2.89936 0
M  V30 42806 N 4243.63 0.190147 1.56449 0
M  V30 42807 C 4244.58 -0.745402 2.15471 0
M  V30 42808 C 4245.56 -1.17976 1.0941 0
M  V30 42809 O 4246.75 -1.13898 1.35485 0
M  V30 42810 C 4243.88 -1.96681 2.81375 0
M  V30 42811 C 4242.97 -1.55357 3.9462 0
M  V30 42812 N 4243.36 -0.851007 4.9859 0
M  V30 42813 C 4241.66 -1.84323 4.06129 0
M  V30 42814 C 4242.36 -0.644673 5.78117 0
M  V30 42815 N 4241.33 -1.19189 5.30373 0
M  V30 42816 H 4245.13 -0.199856 2.9322 0
M  V30 42817 H 4242.65 -0.00983139 1.62397 0
M  V30 42818 H 4244.65 -2.64746 3.22048 0
M  V30 42819 H 4243.31 -2.51712 2.05113 0
M  V30 42820 H 4244.32 -0.507008 5.15412 0
M  V30 42821 H 4240.99 -2.40899 3.4099 0
M  V30 42822 H 4242.38 -0.0877063 6.71843 0
M  V30 42823 N 4245.1 -1.57379 -0.083485 0
M  V30 42824 C 4246.38 -1.77712 -0.817172 0
M  V30 42825 C 4246.76 -0.77477 -1.96368 0
M  V30 42826 O 4246.11 0.194449 -2.27671 0
M  V30 42827 C 4246.32 -3.23845 -1.30098 0
M  V30 42828 C 4247.67 -3.87351 -1.73909 0
M  V30 42829 O 4248.69 -3.27665 -1.39694 0
M  V30 42830 O 4247.55 -4.92332 -2.37215 0
M  V30 42831 H 4244.64 -0.72891 -0.390664 0
M  V30 42832 H 4247.19 -1.69578 -0.0644663 0
M  V30 42833 H 4245.96 -3.88344 -0.480077 0
M  V30 42834 H 4245.58 -3.36658 -2.11536 0
M  V30 42835 N 4246.58 0.354597 -1.53559 0
M  V30 42836 C 4247.81 1.1164 -1.74196 0
M  V30 42837 C 4248.22 1.82702 -0.475975 0
M  V30 42838 O 4247.58 1.73959 0.551768 0
M  V30 42839 C 4247.63 2.13834 -2.91474 0
M  V30 42840 O 4247.35 1.45663 -4.13175 0
M  V30 42841 C 4248.85 3.02476 -3.24073 0
M  V30 42842 H 4246.07 0.333372 -0.582326 0
M  V30 42843 H 4248.62 0.410169 -2.00344 0
M  V30 42844 H 4246.77 2.80038 -2.67689 0
M  V30 42845 H 4247.19 2.13842 -4.78928 0
M  V30 42846 H 4248.66 3.7014 -4.09512 0
M  V30 42847 H 4249.14 3.6789 -2.39904 0
M  V30 42848 H 4249.74 2.41874 -3.49824 0
M  V30 42849 N 4248.06 1.45105 0.615008 0
M  V30 42850 C 4249.28 1.52473 1.40594 0
M  V30 42851 C 4249.71 0.155778 1.87454 0
M  V30 42852 O 4249.07 -0.858181 1.59703 0
M  V30 42853 C 4249.12 2.50744 2.59152 0
M  V30 42854 O 4248.22 2.02012 3.59534 0
M  V30 42855 H 4247.56 0.514263 0.420036 0
M  V30 42856 H 4250.09 1.9039 0.749174 0
M  V30 42857 H 4250.1 2.69308 3.06491 0
M  V30 42858 H 4248.78 3.50172 2.24393 0
M  V30 42859 H 4247.35 1.9329 3.18894 0
M  V30 42860 N 4249.54 -0.856857 1.32271 0
M  V30 42861 C 4250.77 -1.64337 1.25701 0
M  V30 42862 C 4251.18 -1.87984 -0.175392 0
M  V30 42863 O 4250.54 -1.44728 -1.11176 0
M  V30 42864 C 4250.59 -3.00392 2.01115 0
M  V30 42865 O 4250.31 -2.77794 3.38766 0
M  V30 42866 C 4251.81 -3.94836 2.01542 0
M  V30 42867 H 4249.03 -0.511924 0.433791 0
M  V30 42868 H 4251.57 -1.0686 1.7436 0
M  V30 42869 H 4249.73 -3.54521 1.56184 0
M  V30 42870 H 4250.14 -3.64304 3.77336 0
M  V30 42871 H 4251.62 -4.87575 2.58795 0
M  V30 42872 H 4252.09 -4.27638 1.00114 0
M  V30 42873 H 4252.7 -3.46644 2.4641 0
M  V30 42874 N 4251.02 -1.15446 -1.07285 0
M  V30 42875 C 4251.95 -0.874818 -2.16493 0
M  V30 42876 C 4252.93 0.174853 -1.69199 0
M  V30 42877 O 4254.11 0.0290821 -1.94178 0
M  V30 42878 C 4251.24 -0.364079 -3.45386 0
M  V30 42879 C 4250.2 -1.3505 -4.06135 0
M  V30 42880 C 4249.52 -0.698583 -5.30117 0
M  V30 42881 C 4250.82 -2.71673 -4.46084 0
M  V30 42882 H 4252.52 -1.78806 -2.40143 0
M  V30 42883 H 4250.06 -0.861144 -1.15414 0
M  V30 42884 H 4252.01 -0.155984 -4.21111 0
M  V30 42885 H 4250.74 0.584633 -3.21325 0
M  V30 42886 H 4249.4 -1.54497 -3.32455 0
M  V30 42887 H 4249.05 0.256298 -5.02347 0
M  V30 42888 H 4248.75 -1.35689 -5.71719 0
M  V30 42889 H 4250.27 -0.500278 -6.08547 0
M  V30 42890 H 4251.68 -2.56068 -5.12935 0
M  V30 42891 H 4250.08 -3.33884 -4.98639 0
M  V30 42892 H 4251.15 -3.27686 -3.57421 0
M  V30 42893 N 4252.49 1.25646 -0.951364 0
M  V30 42894 C 4253.46 2.24256 -0.473486 0
M  V30 42895 C 4254.46 1.5519 0.421025 0
M  V30 42896 O 4255.65 1.72821 0.218773 0
M  V30 42897 C 4252.78 3.39429 0.316307 0
M  V30 42898 H 4253.97 2.68046 -1.34504 0
M  V30 42899 H 4251.52 1.37976 -0.73432 0
M  V30 42900 H 4252.26 3.01055 1.20566 0
M  V30 42901 H 4252.04 3.90748 -0.325384 0
M  V30 42902 H 4253.53 4.12663 0.640233 0
M  V30 42903 N 4253.97 0.719555 1.40215 0
M  V30 42904 C 4254.92 0.058462 2.32527 0
M  V30 42905 C 4255.91 -0.742719 1.5225 0
M  V30 42906 O 4257.12 -0.645641 1.68022 0
M  V30 42907 H 4253.49 0.000102846 0.752 0
M  V30 42908 H 4255.47 0.853672 2.85928 0
M  V30 42909 C 4254.21 -0.84628 3.37244 0
M  V30 42910 H 4253.54 -0.23919 3.99084 0
M  V30 42911 H 4254.98 -1.27673 4.04321 0
M  V30 42912 C 4253.44 -1.97355 2.73043 0
M  V30 42913 O 4253.97 -3.06477 2.59682 0
M  V30 42914 N 4252.17 -1.75836 2.31366 0
M  V30 42915 H 4251.72 -0.870863 2.42433 0
M  V30 42916 H 4251.68 -2.51438 1.88749 0
M  V30 42917 N 4255.45 -1.50552 0.466031 0
M  V30 42918 C 4256.73 -1.95008 -0.152037 0
M  V30 42919 C 4257.11 -1.40617 -1.57449 0
M  V30 42920 O 4256.45 -0.605052 -2.20344 0
M  V30 42921 C 4256.66 -3.48855 -0.100522 0
M  V30 42922 C 4258.01 -4.23595 -0.291924 0
M  V30 42923 O 4259.04 -3.55758 -0.177339 0
M  V30 42924 O 4257.9 -5.43994 -0.522784 0
M  V30 42925 H 4254.99 -0.819046 -0.114425 0
M  V30 42926 H 4257.54 -1.6134 0.52607 0
M  V30 42927 H 4256.31 -3.80978 0.892812 0
M  V30 42928 H 4255.93 -3.89046 -0.820306 0
M  V30 42929 N 4256.93 -0.198441 -1.56346 0
M  V30 42930 C 4258.34 0.313564 -1.84048 0
M  V30 42931 C 4258.69 1.61146 -1.11921 0
M  V30 42932 O 4257.81 2.13017 -0.381129 0
M  V30 42933 C 4258.41 0.575696 -3.33873 0
M  V30 42934 C 4256.97 1.03206 -3.61974 0
M  V30 42935 C 4256.12 0.0824862 -2.77177 0
M  V30 42936 H 4259.07 -0.422155 -1.52982 0
M  V30 42937 H 4259.09 1.4246 -3.52825 0
M  V30 42938 H 4258.6 -0.369104 -3.86341 0
M  V30 42939 H 4256.7 1.99103 -3.14943 0
M  V30 42940 H 4256.81 0.922462 -4.70136 0
M  V30 42941 H 4255.18 0.584999 -2.47891 0
M  V30 42942 H 4255.96 -0.856818 -3.32436 0
M  V30 42943 N 4258.41 1.57421 0.0751377 0
M  V30 42944 C 4259.35 2.04493 1.10839 0
M  V30 42945 C 4260.35 0.949645 1.40279 0
M  V30 42946 O 4261.55 1.13477 1.39725 0
M  V30 42947 H 4257.93 0.651966 0.374759 0
M  V30 42948 H 4259.9 2.90426 0.685206 0
M  V30 42949 C 4258.65 2.50175 2.4147 0
M  V30 42950 H 4257.97 3.34046 2.19666 0
M  V30 42951 H 4259.41 2.86868 3.12222 0
M  V30 42952 C 4257.87 1.38328 3.07192 0
M  V30 42953 O 4258.4 0.723517 3.95131 0
M  V30 42954 N 4256.61 1.12925 2.67762 0
M  V30 42955 H 4256.15 1.66757 1.96341 0
M  V30 42956 H 4256.11 0.382936 3.12059 0
M  V30 42957 N 4259.88 -0.346449 1.53745 0
M  V30 42958 C 4260.79 -1.4488 1.84518 0
M  V30 42959 C 4261.81 -1.5771 0.735082 0
M  V30 42960 O 4262.99 -1.73242 1.02709 0
M  V30 42961 C 4260.05 -2.79906 2.04581 0
M  V30 42962 C 4259.11 -2.76444 3.28447 0
M  V30 42963 C 4258.35 -4.0503 3.47543 0
M  V30 42964 O 4258.57 -5.02162 2.70536 0
M  V30 42965 O 4257.5 -4.09678 4.40962 0
M  V30 42966 H 4261.33 -1.21792 2.78209 0
M  V30 42967 H 4258.91 -0.538356 1.39363 0
M  V30 42968 H 4260.8 -3.59878 2.19239 0
M  V30 42969 H 4259.47 -3.02932 1.14079 0
M  V30 42970 H 4258.38 -1.95103 3.19195 0
M  V30 42971 H 4259.71 -2.58373 4.18932 0
M  V30 42972 N 4261.36 -1.45429 -0.607304 0
M  V30 42973 C 4262.59 -1.52987 -1.39293 0
M  V30 42974 C 4263.01 -0.162572 -1.88099 0
M  V30 42975 O 4262.36 0.835917 -1.6223 0
M  V30 42976 C 4262.41 -2.51449 -2.59722 0
M  V30 42977 O 4262.13 -3.82865 -2.12945 0
M  V30 42978 C 4263.64 -2.68708 -3.52578 0
M  V30 42979 H 4260.86 -0.518111 -0.426382 0
M  V30 42980 H 4263.4 -1.90618 -0.740612 0
M  V30 42981 H 4261.55 -2.16889 -3.20995 0
M  V30 42982 H 4261.97 -4.36242 -2.91193 0
M  V30 42983 H 4263.44 -3.41578 -4.33623 0
M  V30 42984 H 4263.92 -1.74753 -4.02937 0
M  V30 42985 H 4264.53 -3.04265 -2.97158 0
M  V30 42986 N 4262.84 0.84983 -1.32724 0
M  V30 42987 C 4263.75 1.99105 -1.24073 0
M  V30 42988 C 4264.77 1.73323 -0.153392 0
M  V30 42989 O 4265.94 1.97879 -0.374963 0
M  V30 42990 C 4263.01 3.32883 -0.969019 0
M  V30 42991 C 4262.07 3.71855 -2.14528 0
M  V30 42992 C 4261.3 4.99249 -1.88643 0
M  V30 42993 O 4261.52 5.64309 -0.831358 0
M  V30 42994 O 4260.46 5.35466 -2.74882 0
M  V30 42995 H 4264.28 2.09341 -2.20023 0
M  V30 42996 H 4261.87 0.981212 -1.12661 0
M  V30 42997 H 4263.75 4.13061 -0.834182 0
M  V30 42998 H 4262.43 3.23676 -0.0397204 0
M  V30 42999 H 4261.33 2.92233 -2.33561 0
M  V30 43000 H 4262.67 3.85714 -3.05754 0
M  V30 43001 N 4264.32 1.16013 1.06671 0
M  V30 43002 C 4265.25 0.886287 2.16026 0
M  V30 43003 C 4266.23 -0.165877 1.69289 0
M  V30 43004 O 4267.41 -0.0187839 1.94191 0
M  V30 43005 C 4264.54 0.38239 3.45188 0
M  V30 43006 C 4263.5 1.37202 4.05413 0
M  V30 43007 C 4262.82 0.726687 5.29739 0
M  V30 43008 C 4264.12 2.74035 4.44637 0
M  V30 43009 H 4265.82 1.80077 2.39192 0
M  V30 43010 H 4263.36 0.867252 1.14955 0
M  V30 43011 H 4265.32 0.178314 4.21023 0
M  V30 43012 H 4264.04 -0.567584 3.2163 0
M  V30 43013 H 4262.7 1.56258 3.31631 0
M  V30 43014 H 4262.35 -0.229653 5.02475 0
M  V30 43015 H 4262.05 1.38719 5.70991 0
M  V30 43016 H 4263.57 0.532543 6.08273 0
M  V30 43017 H 4264.99 2.58784 5.1157 0
M  V30 43018 H 4263.38 3.36524 4.96862 0
M  V30 43019 H 4264.45 3.29577 3.55678 0
M  V30 43020 N 4265.8 -1.25139 0.958014 0
M  V30 43021 C 4266.75 -2.23483 0.451589 0
M  V30 43022 C 4267.73 -1.54153 -0.461047 0
M  V30 43023 O 4268.92 -1.74549 -0.293548 0
M  V30 43024 C 4266.05 -3.42266 -0.266189 0
M  V30 43025 C 4265.14 -4.18858 0.664712 0
M  V30 43026 N 4265.53 -4.72771 1.79781 0
M  V30 43027 C 4263.83 -4.43479 0.473577 0
M  V30 43028 C 4264.53 -5.30815 2.37929 0
M  V30 43029 N 4263.5 -5.17459 1.66546 0
M  V30 43030 H 4267.31 -2.62775 1.3163 0
M  V30 43031 H 4264.82 -1.40416 0.815914 0
M  V30 43032 H 4266.82 -4.11862 -0.646149 0
M  V30 43033 H 4265.48 -3.04497 -1.12746 0
M  V30 43034 H 4266.49 -4.69802 2.17959 0
M  V30 43035 H 4263.16 -4.16076 -0.344531 0
M  V30 43036 H 4264.55 -5.83293 3.33494 0
M  V30 43037 N 4267.27 -0.726981 -1.39831 0
M  V30 43038 C 4268.18 -0.0831249 -2.34453 0
M  V30 43039 C 4269.2 0.730981 -1.57901 0
M  V30 43040 O 4270.38 0.661304 -1.90233 0
M  V30 43041 C 4267.44 0.819265 -3.36881 0
M  V30 43042 C 4266.5 -0.00618205 -4.293 0
M  V30 43043 C 4265.74 0.853232 -5.26836 0
M  V30 43044 O 4265.96 2.09219 -5.30644 0
M  V30 43045 O 4264.89 0.286156 -6.01219 0
M  V30 43046 H 4268.72 -0.863896 -2.91154 0
M  V30 43047 H 4266.3 -0.487568 -1.4122 0
M  V30 43048 H 4268.19 1.33582 -3.99667 0
M  V30 43049 H 4266.86 1.57899 -2.82577 0
M  V30 43050 H 4265.77 -0.568072 -3.69762 0
M  V30 43051 H 4267.1 -0.727942 -4.86787 0
M  V30 43052 N 4268.75 1.50303 -0.474008 0
M  V30 43053 C 4270.17 1.59083 -0.128333 0
M  V30 43054 C 4270.37 1.48188 1.36538 0
M  V30 43055 O 4269.42 1.34187 2.13893 0
M  V30 43056 C 4270.74 2.92884 -0.681125 0
M  V30 43057 C 4272.29 3.06286 -0.644813 0
M  V30 43058 C 4272.76 4.42666 -1.1752 0
M  V30 43059 N 4274.25 4.49086 -1.13474 0
M  V30 43060 C 4274.99 5.53007 -1.5156 0
M  V30 43061 N 4274.48 6.64168 -1.97109 0
M  V30 43062 N 4276.28 5.43568 -1.43145 0
M  V30 43063 H 4268.43 1.55628 -1.44546 0
M  V30 43064 H 4270.69 0.735649 -0.597934 0
M  V30 43065 H 4270.4 3.06342 -1.72764 0
M  V30 43066 H 4270.27 3.76988 -0.126325 0
M  V30 43067 H 4272.66 2.92474 0.3928 0
M  V30 43068 H 4272.74 2.23932 -1.23645 0
M  V30 43069 H 4272.38 4.57227 -2.21146 0
M  V30 43070 H 4272.31 5.23617 -0.55975 0
M  V30 43071 H 4274.8 3.6932 -0.800688 0
M  V30 43072 H 4275.12 7.3953 -2.24311 0
M  V30 43073 H 4273.46 6.65281 -2.01064 0
M  V30 43074 H 4276.65 4.55613 -1.07398 0
M  V30 43075 H 4276.82 6.24438 -1.73152 0
M  V30 43076 N 4270.23 0.20673 1.56238 0
M  V30 43077 C 4271.16 -0.704407 2.22622 0
M  V30 43078 C 4272.14 -1.21243 1.19307 0
M  V30 43079 O 4273.33 -1.25914 1.47849 0
M  V30 43080 C 4270.46 -1.91908 2.89462 0
M  V30 43081 C 4269.41 -1.54551 3.99122 0
M  V30 43082 C 4268.74 -2.83775 4.53184 0
M  V30 43083 C 4270.04 -0.746658 5.16935 0
M  V30 43084 H 4271.73 -0.150975 2.99019 0
M  V30 43085 H 4269.28 -0.0711751 1.43824 0
M  V30 43086 H 4271.23 -2.56181 3.34589 0
M  V30 43087 H 4269.95 -2.49724 2.10489 0
M  V30 43088 H 4268.61 -0.926318 3.54704 0
M  V30 43089 H 4268.26 -3.39704 3.70958 0
M  V30 43090 H 4267.96 -2.59519 5.27185 0
M  V30 43091 H 4269.48 -3.49015 5.0102 0
M  V30 43092 H 4270.9 -1.29274 5.58535 0
M  V30 43093 H 4269.3 -0.601771 5.97075 0
M  V30 43094 H 4270.37 0.249868 4.84256 0
M  V30 43095 N 4271.71 -1.57458 -0.0667882 0
M  V30 43096 C 4272.67 -2.03046 -1.06326 0
M  V30 43097 C 4273.67 -0.928282 -1.313 0
M  V30 43098 O 4274.86 -1.19302 -1.26936 0
M  V30 43099 C 4271.99 -2.41536 -2.40568 0
M  V30 43100 H 4273.19 -2.92315 -0.670239 0
M  V30 43101 H 4270.74 -1.53141 -0.312651 0
M  V30 43102 H 4271.47 -1.55308 -2.84692 0
M  V30 43103 H 4271.26 -3.21969 -2.23782 0
M  V30 43104 H 4272.75 -2.77364 -3.12184 0
M  V30 43105 N 4273.19 0.33829 -1.53926 0
M  V30 43106 C 4274.46 1.09528 -1.62059 0
M  V30 43107 C 4274.84 2.06353 -0.44514 0
M  V30 43108 O 4274.19 2.21479 0.562081 0
M  V30 43109 C 4274.4 1.81028 -2.98379 0
M  V30 43110 C 4275.75 2.34582 -3.53916 0
M  V30 43111 O 4276.77 1.91116 -3.00588 0
M  V30 43112 O 4275.63 3.14117 -4.47206 0
M  V30 43113 H 4272.73 0.503994 -0.655682 0
M  V30 43114 H 4275.27 0.339361 -1.66272 0
M  V30 43115 H 4274.05 1.10518 -3.75368 0
M  V30 43116 H 4273.67 2.63465 -2.97779 0
M  V30 43117 N 4274.67 1.45749 0.599583 0
M  V30 43118 C 4275.63 1.54634 1.69177 0
M  V30 43119 C 4276.63 0.425056 1.5508 0
M  V30 43120 O 4277.82 0.68881 1.60003 0
M  V30 43121 C 4274.95 1.45054 3.085 0
M  V30 43122 H 4276.14 2.51954 1.62663 0
M  V30 43123 H 4273.7 1.33309 0.815998 0
M  V30 43124 H 4274.43 0.489495 3.20585 0
M  V30 43125 H 4274.22 2.26391 3.2014 0
M  V30 43126 H 4275.71 1.54321 3.88039 0
M  V30 43127 N 4276.14 -0.84278 1.33173 0
M  V30 43128 C 4277.07 -1.96763 1.25724 0
M  V30 43129 C 4278.05 -1.69534 0.138604 0
M  V30 43130 O 4279.24 -1.91415 0.327737 0
M  V30 43131 C 4276.37 -3.3284 0.991695 0
M  V30 43132 C 4275.32 -3.74456 2.07285 0
M  V30 43133 C 4274.65 -5.08296 1.65951 0
M  V30 43134 C 4275.95 -3.88656 3.48918 0
M  V30 43135 H 4277.64 -2.03254 2.19837 0
M  V30 43136 H 4275.19 -0.976514 1.05831 0
M  V30 43137 H 4277.14 -4.11098 0.926093 0
M  V30 43138 H 4275.87 -3.26597 0.0149397 0
M  V30 43139 H 4274.53 -2.98458 2.1288 0
M  V30 43140 H 4274.17 -4.98519 0.669883 0
M  V30 43141 H 4273.87 -5.37111 2.38298 0
M  V30 43142 H 4275.4 -5.89033 1.60849 0
M  V30 43143 H 4276.81 -4.57235 3.45845 0
M  V30 43144 H 4275.21 -4.28903 4.19717 0
M  V30 43145 H 4276.28 -2.9122 3.8771 0
M  V30 43146 N 4277.62 -1.16577 -1.06054 0
M  V30 43147 C 4278.87 -0.946907 -1.78544 0
M  V30 43148 C 4279.19 0.526456 -1.87759 0
M  V30 43149 O 4278.46 1.38241 -1.38803 0
M  V30 43150 H 4277.04 -0.347352 -0.661328 0
M  V30 43151 H 4279.7 -1.46891 -1.28098 0
M  V30 43152 H 4278.8 -1.36772 -2.80535 0
M  V30 43153 N 4279.1 1.2463 -0.964637 0
M  V30 43154 C 4280.52 1.44825 -0.67067 0
M  V30 43155 C 4280.72 1.86268 0.768526 0
M  V30 43156 O 4279.77 1.99888 1.54275 0
M  V30 43157 C 4281.08 2.51246 -1.65215 0
M  V30 43158 C 4282.63 2.65077 -1.66443 0
M  V30 43159 C 4283.11 3.74692 -2.63381 0
M  V30 43160 N 4284.6 3.82116 -2.61805 0
M  V30 43161 C 4285.33 4.66449 -3.33486 0
M  V30 43162 N 4284.83 5.54993 -4.14674 0
M  V30 43163 N 4286.62 4.60503 -3.22325 0
M  V30 43164 H 4278.77 0.960243 -1.89455 0
M  V30 43165 H 4281.04 0.483418 -0.815482 0
M  V30 43166 H 4280.74 2.27675 -2.68062 0
M  V30 43167 H 4280.62 3.49349 -1.4225 0
M  V30 43168 H 4283 2.88007 -0.643094 0
M  V30 43169 H 4283.08 1.67341 -1.9347 0
M  V30 43170 H 4282.73 3.52512 -3.65647 0
M  V30 43171 H 4282.66 4.71934 -2.33635 0
M  V30 43172 H 4285.15 3.18828 -2.02872 0
M  V30 43173 H 4285.46 6.16294 -4.66264 0
M  V30 43174 H 4283.81 5.54669 -4.18769 0
M  V30 43175 H 4287 3.90342 -2.58362 0
M  V30 43176 H 4287.17 5.26001 -3.78453 0
M  V30 43177 N 4280.58 0.734386 1.39444 0
M  V30 43178 C 4281.8 0.290939 2.05349 0
M  V30 43179 C 4282.23 -1.06559 1.55006 0
M  V30 43180 O 4281.59 -1.6751 0.693538 0
M  V30 43181 C 4281.63 0.301626 3.59336 0
M  V30 43182 O 4280.74 -0.710941 4.06226 0
M  V30 43183 H 4280.08 0.1324 0.650666 0
M  V30 43184 H 4282.61 1.00014 1.78489 0
M  V30 43185 H 4282.62 0.145802 4.07739 0
M  V30 43186 H 4281.29 1.29147 3.9534 0
M  V30 43187 H 4279.87 -0.521304 3.69238 0
M  V30 43188 N 4282.06 -1.50049 0.481972 0
M  V30 43189 C 4282.97 -2.32522 -0.311565 0
M  V30 43190 C 4283.98 -1.43392 -0.985635 0
M  V30 43191 O 4285.16 -1.76435 -0.971215 0
M  V30 43192 C 4282.22 -3.18351 -1.37307 0
M  V30 43193 C 4281.28 -4.23313 -0.714451 0
M  V30 43194 C 4280.52 -5.05041 -1.72538 0
M  V30 43195 O 4280.74 -4.88001 -2.95316 0
M  V30 43196 O 4279.67 -5.87888 -1.2912 0
M  V30 43197 H 4283.5 -3.01523 0.362962 0
M  V30 43198 H 4281.08 -1.474 0.243624 0
M  V30 43199 H 4282.97 -3.71577 -1.98768 0
M  V30 43200 H 4281.64 -2.52066 -2.03087 0
M  V30 43201 H 4280.55 -3.74051 -0.0606029 0
M  V30 43202 H 4281.88 -4.921 -0.0994195 0
M  V30 43203 N 4283.53 -0.215012 -1.56126 0
M  V30 43204 C 4284.78 0.417628 -1.97738 0
M  V30 43205 C 4285.1 1.60758 -1.10371 0
M  V30 43206 O 4284.37 1.95078 -0.179296 0
M  V30 43207 H 4282.95 0.157286 -0.730254 0
M  V30 43208 H 4285.61 -0.306385 -1.92477 0
M  V30 43209 H 4284.71 0.748368 -3.02995 0
M  V30 43210 N 4285.01 1.57492 0.0584368 0
M  V30 43211 C 4285.97 2.03607 1.05247 0
M  V30 43212 C 4286.97 0.935232 1.30805 0
M  V30 43213 O 4288.16 1.19973 1.26301 0
M  V30 43214 C 4285.3 2.42808 2.39284 0
M  V30 43215 H 4286.49 2.92666 0.654727 0
M  V30 43216 H 4284.04 1.53305 0.304525 0
M  V30 43217 H 4284.78 1.56816 2.83865 0
M  V30 43218 H 4284.56 3.23151 2.22071 0
M  V30 43219 H 4286.05 2.79016 3.10709 0
M  V30 43220 N 4286.49 -0.330122 1.54104 0
M  V30 43221 C 4287.9 -0.904953 1.63302 0
M  V30 43222 C 4288.25 -1.89104 0.522883 0
M  V30 43223 O 4287.38 -2.13628 -0.345267 0
M  V30 43224 C 4287.97 -1.64812 2.96011 0
M  V30 43225 C 4286.53 -2.17177 3.07427 0
M  V30 43226 C 4285.68 -0.99508 2.58831 0
M  V30 43227 H 4288.63 -0.107883 1.58333 0
M  V30 43228 H 4288.65 -2.51191 2.85803 0
M  V30 43229 H 4288.16 -0.93018 3.76788 0
M  V30 43230 H 4286.26 -2.92106 2.31311 0
M  V30 43231 H 4286.38 -2.42627 4.13121 0
M  V30 43232 H 4284.74 -1.37237 2.14565 0
M  V30 43233 H 4285.52 -0.291561 3.4206 0
M  V30 43234 N 4287.97 -1.46065 -0.591845 0
M  V30 43235 C 4288.9 -1.5879 -1.71196 0
M  V30 43236 C 4289.88 -0.438644 -1.64347 0
M  V30 43237 O 4291.06 -0.663757 -1.82505 0
M  V30 43238 C 4288.19 -1.56922 -3.09827 0
M  V30 43239 C 4287.15 -2.70725 -3.315 0
M  V30 43240 C 4286.47 -2.53915 -4.70565 0
M  V30 43241 C 4287.77 -4.12621 -3.20221 0
M  V30 43242 H 4289.47 -2.52553 -1.60803 0
M  V30 43243 H 4287.01 -1.21546 -0.772184 0
M  V30 43244 H 4288.97 -1.6442 -3.88 0
M  V30 43245 H 4287.69 -0.596985 -3.21098 0
M  V30 43246 H 4286.35 -2.62681 -2.55722 0
M  V30 43247 H 4286 -1.54795 -4.78589 0
M  V30 43248 H 4285.7 -3.30241 -4.86019 0
M  V30 43249 H 4287.22 -2.6329 -5.50918 0
M  V30 43250 H 4288.64 -4.21824 -3.88249 0
M  V30 43251 H 4287.03 -4.89461 -3.472 0
M  V30 43252 H 4288.1 -4.33419 -2.17429 0
M  V30 43253 N 4289.45 0.835705 -1.33618 0
M  V30 43254 C 4290.69 1.59116 -1.25253 0
M  V30 43255 C 4291.02 1.93657 0.180861 0
M  V30 43256 O 4290.28 1.59148 1.13887 0
M  V30 43257 C 4290.58 2.90906 -2.07626 0
M  V30 43258 C 4290.24 2.75712 -3.56782 0
M  V30 43259 C 4288.9 2.71276 -3.97445 0
M  V30 43260 C 4291.26 2.60293 -4.5155 0
M  V30 43261 C 4288.58 2.49325 -5.31088 0
M  V30 43262 C 4290.94 2.39874 -5.85357 0
M  V30 43263 C 4289.6 2.33842 -6.25199 0
M  V30 43264 H 4288.87 0.582246 -0.458335 0
M  V30 43265 H 4291.52 0.967962 -1.65235 0
M  V30 43266 H 4289.82 3.57448 -1.60432 0
M  V30 43267 H 4291.52 3.48418 -1.9851 0
M  V30 43268 H 4288.11 2.79999 -3.24497 0
M  V30 43269 H 4292.29 2.62752 -4.2104 0
M  V30 43270 H 4287.55 2.43103 -5.60991 0
M  V30 43271 H 4291.72 2.26927 -6.5839 0
M  V30 43272 H 4289.35 2.16593 -7.28692 0
M  V30 43273 N 4290.92 1.17138 1.05434 0
M  V30 43274 C 4292.17 0.959675 1.78656 0
M  V30 43275 C 4292.5 -0.510626 1.87367 0
M  V30 43276 O 4291.78 -1.37899 1.37165 0
M  V30 43277 C 4292.06 1.59844 3.22679 0
M  V30 43278 C 4291.91 3.14068 3.21996 0
M  V30 43279 C 4293.23 1.30031 4.20452 0
M  V30 43280 H 4290.35 0.350055 0.64856 0
M  V30 43281 H 4292.99 1.446 1.23251 0
M  V30 43282 H 4291.14 1.18491 3.69989 0
M  V30 43283 H 4292.82 3.64462 2.82781 0
M  V30 43284 H 4291.06 3.46946 2.60405 0
M  V30 43285 H 4291.73 3.53889 4.23635 0
M  V30 43286 H 4294.21 1.65836 3.81625 0
M  V30 43287 H 4293.08 1.77314 5.19472 0
M  V30 43288 H 4293.34 0.220666 4.41549 0
M  V30 43289 N 4292.4 -1.24116 0.971232 0
M  V30 43290 C 4293.65 -1.92569 0.635997 0
M  V30 43291 C 4293.98 -1.75702 -0.827192 0
M  V30 43292 O 4293.26 -1.11229 -1.59557 0
M  V30 43293 C 4293.54 -3.45474 1.01587 0
M  V30 43294 C 4293.39 -3.71492 2.53601 0
M  V30 43295 C 4294.71 -4.36612 0.553017 0
M  V30 43296 H 4291.83 -0.699357 0.232528 0
M  V30 43297 H 4294.47 -1.46417 1.21087 0
M  V30 43298 H 4292.62 -3.84913 0.526695 0
M  V30 43299 H 4294.29 -3.4159 3.10022 0
M  V30 43300 H 4292.54 -3.16521 2.96643 0
M  V30 43301 H 4293.21 -4.78489 2.75231 0
M  V30 43302 H 4295.68 -4.04567 0.972866 0
M  V30 43303 H 4294.56 -5.4232 0.847339 0
M  V30 43304 H 4294.82 -4.38705 -0.546843 0
M  V30 43305 N 4293.88 -0.741771 -1.39052 0
M  V30 43306 C 4295.11 -0.301825 -2.05192 0
M  V30 43307 C 4295.53 1.05736 -1.55568 0
M  V30 43308 O 4294.89 1.6714 -0.702412 0
M  V30 43309 C 4294.94 -0.320678 -3.59171 0
M  V30 43310 O 4294.04 0.689388 -4.06597 0
M  V30 43311 H 4293.38 -0.135849 -0.649955 0
M  V30 43312 H 4295.91 -1.00959 -1.77956 0
M  V30 43313 H 4295.92 -0.167423 -4.07656 0
M  V30 43314 H 4294.6 -1.31241 -3.9465 0
M  V30 43315 H 4293.17 0.501715 -3.69509 0
M  V30 43316 N 4295.36 1.49792 -0.489923 0
M  V30 43317 C 4296.29 2.26798 0.330943 0
M  V30 43318 C 4297.3 1.32886 0.940481 0
M  V30 43319 O 4298.49 1.58255 0.825696 0
M  V30 43320 C 4295.59 3.04881 1.47988 0
M  V30 43321 C 4294.77 4.26287 0.979692 0
M  V30 43322 C 4293.82 4.86507 2.00492 0
M  V30 43323 O 4292.85 5.46891 1.57792 0
M  V30 43324 N 4294.05 4.75174 3.33452 0
M  V30 43325 H 4296.82 2.97885 -0.329312 0
M  V30 43326 H 4294.38 1.58669 -0.321809 0
M  V30 43327 H 4296.37 3.42044 2.16306 0
M  V30 43328 H 4294.94 2.36473 2.04449 0
M  V30 43329 H 4294.16 3.94012 0.121777 0
M  V30 43330 H 4295.45 5.04962 0.623728 0
M  V30 43331 H 4294.85 4.27194 3.70839 0
M  V30 43332 H 4293.4 5.16552 3.97514 0
M  V30 43333 N 4296.84 0.223289 1.5601 0
M  V30 43334 C 4297.78 -0.686118 2.20366 0
M  V30 43335 C 4298.75 -1.18903 1.1598 0
M  V30 43336 O 4299.94 -1.2478 1.44342 0
M  V30 43337 C 4297.08 -1.88788 2.88882 0
M  V30 43338 C 4296.19 -1.42371 4.07866 0
M  V30 43339 C 4295.33 -2.58318 4.64161 0
M  V30 43340 C 4294.37 -2.08646 5.75442 0
M  V30 43341 N 4293.5 -3.17872 6.26021 0
M  V30 43342 H 4298.34 -0.130604 2.97714 0
M  V30 43343 H 4295.88 -0.0527105 1.47006 0
M  V30 43344 H 4297.84 -2.5935 3.26792 0
M  V30 43345 H 4296.47 -2.41625 2.14049 0
M  V30 43346 H 4295.52 -0.612958 3.75429 0
M  V30 43347 H 4296.83 -1.0195 4.8827 0
M  V30 43348 H 4295.99 -3.3696 5.04523 0
M  V30 43349 H 4294.72 -3.02029 3.82923 0
M  V30 43350 H 4293.73 -1.28467 5.34581 0
M  V30 43351 H 4294.95 -1.65932 6.58516 0
M  V30 43352 H 4292.9 -3.61061 5.47696 0
M  V30 43353 H 4292.82 -2.81708 7.01553 0
M  V30 43354 H 4294.09 -3.96643 6.7104 0
M  V30 43355 N 4298.31 -1.5752 -0.0500839 0
M  V30 43356 C 4299.54 -1.92928 -0.761163 0
M  V30 43357 C 4299.96 -0.821576 -1.69209 0
M  V30 43358 O 4299.32 0.224215 -1.79908 0
M  V30 43359 C 4299.37 -3.27353 -1.51236 0
M  V30 43360 O 4298.47 -3.18118 -2.62439 0
M  V30 43361 H 4297.82 -0.631167 -0.206213 0
M  V30 43362 H 4300.35 -2.04597 -0.0118349 0
M  V30 43363 H 4300.36 -3.61746 -1.8869 0
M  V30 43364 H 4299.03 -4.07545 -0.829463 0
M  V30 43365 H 4297.61 -2.95322 -2.27683 0
M  V30 43366 N 4299.79 0.321945 -1.54277 0
M  V30 43367 C 4300.72 1.40142 -1.86768 0
M  V30 43368 C 4301.7 1.53893 -0.724628 0
M  V30 43369 O 4302.89 1.67746 -0.978507 0
M  V30 43370 C 4300.02 2.76885 -2.09647 0
M  V30 43371 C 4298.97 2.77921 -3.2549 0
M  V30 43372 C 4298.3 4.17755 -3.33743 0
M  V30 43373 C 4299.6 2.41525 -4.63102 0
M  V30 43374 H 4301.29 1.13199 -2.77176 0
M  V30 43375 H 4298.84 0.543111 -1.33365 0
M  V30 43376 H 4300.79 3.5247 -2.30961 0
M  V30 43377 H 4299.52 3.05309 -1.1599 0
M  V30 43378 H 4298.17 2.04792 -3.04065 0
M  V30 43379 H 4297.82 4.43323 -2.37642 0
M  V30 43380 H 4297.52 4.19354 -4.11601 0
M  V30 43381 H 4299.05 4.9515 -3.57294 0
M  V30 43382 H 4300.46 3.06822 -4.84286 0
M  V30 43383 H 4298.86 2.54372 -5.43521 0
M  V30 43384 H 4299.93 1.36672 -4.65241 0
M  V30 43385 N 4301.27 1.46377 0.58409 0
M  V30 43386 C 4302.5 1.55184 1.36842 0
M  V30 43387 C 4302.91 0.192476 1.87816 0
M  V30 43388 O 4302.27 -0.810002 1.6354 0
M  V30 43389 C 4302.32 2.55549 2.55689 0
M  V30 43390 O 4302.04 3.86205 2.06827 0
M  V30 43391 C 4303.54 2.74283 3.48258 0
M  V30 43392 H 4300.76 0.524829 0.418085 0
M  V30 43393 H 4303.31 1.91772 0.710193 0
M  V30 43394 H 4301.46 2.21968 3.17504 0
M  V30 43395 H 4301.88 4.40819 2.84216 0
M  V30 43396 H 4303.35 3.48433 4.28134 0
M  V30 43397 H 4303.83 1.81141 4.00106 0
M  V30 43398 H 4304.43 3.08954 2.9228 0
M  V30 43399 N 4302.75 -0.828607 1.34059 0
M  V30 43400 C 4304 -1.58136 1.25846 0
M  V30 43401 C 4304.32 -1.94231 -0.17297 0
M  V30 43402 O 4303.59 -1.61814 -1.10422 0
M  V30 43403 H 4302.17 -0.586358 0.462811 0
M  V30 43404 H 4304.83 -0.989679 1.67903 0
M  V30 43405 H 4303.93 -2.50673 1.85929 0
M  V30 43406 N 4304.23 -1.17696 -1.04812 0
M  V30 43407 C 4305.18 -0.865221 -2.10945 0
M  V30 43408 C 4306.16 0.161853 -1.60084 0
M  V30 43409 O 4307.35 -0.0411261 -1.76952 0
M  V30 43410 C 4304.48 -0.384502 -3.4114 0
M  V30 43411 C 4303.57 -1.44322 -3.98788 0
M  V30 43412 N 4303.96 -2.6577 -4.30349 0
M  V30 43413 C 4302.26 -1.30198 -4.26573 0
M  V30 43414 C 4302.96 -3.33827 -4.76377 0
M  V30 43415 N 4301.93 -2.61206 -4.76731 0
M  V30 43416 H 4305.74 -1.78854 -2.33213 0
M  V30 43417 H 4303.25 -1.06624 -1.22495 0
M  V30 43418 H 4305.25 -0.142707 -4.16656 0
M  V30 43419 H 4303.91 0.532568 -3.20303 0
M  V30 43420 H 4304.92 -3.02701 -4.20229 0
M  V30 43421 H 4301.6 -0.446858 -4.15102 0
M  V30 43422 H 4302.99 -4.37578 -5.09877 0
M  V30 43423 N 4305.71 1.23599 -0.977801 0
M  V30 43424 C 4306.67 2.23201 -0.520948 0
M  V30 43425 C 4307.67 1.56048 0.388012 0
M  V30 43426 O 4308.86 1.73246 0.182066 0
M  V30 43427 C 4305.99 3.40024 0.244238 0
M  V30 43428 H 4307.18 2.65133 -1.40159 0
M  V30 43429 H 4304.74 1.36388 -0.763421 0
M  V30 43430 H 4305.47 3.03545 1.14153 0
M  V30 43431 H 4305.26 3.89969 -0.408194 0
M  V30 43432 H 4306.75 4.13928 0.552557 0
M  V30 43433 N 4307.18 0.749135 1.38657 0
M  V30 43434 C 4308.13 0.118463 2.30496 0
M  V30 43435 C 4309.1 -0.714466 1.49949 0
M  V30 43436 O 4310.29 -0.671514 1.78593 0
M  V30 43437 C 4307.43 -0.772127 3.36351 0
M  V30 43438 C 4306.54 0.0749475 4.31935 0
M  V30 43439 C 4305.67 -0.818231 5.2486 0
M  V30 43440 C 4304.71 0.0327462 6.12091 0
M  V30 43441 N 4303.85 -0.817145 6.97329 0
M  V30 43442 H 4308.69 0.907229 2.83854 0
M  V30 43443 H 4306.23 0.459025 1.39755 0
M  V30 43444 H 4308.18 -1.30306 3.96328 0
M  V30 43445 H 4306.81 -1.52672 2.84413 0
M  V30 43446 H 4305.87 0.723461 3.73457 0
M  V30 43447 H 4307.18 0.732324 4.93395 0
M  V30 43448 H 4306.33 -1.41649 5.89932 0
M  V30 43449 H 4305.07 -1.50935 4.63756 0
M  V30 43450 H 4304.08 0.64371 5.46019 0
M  V30 43451 H 4305.3 0.720861 6.75263 0
M  V30 43452 H 4303.25 -1.4933 6.38777 0
M  V30 43453 H 4303.16 -0.216566 7.5569 0
M  V30 43454 H 4304.43 -1.40052 7.66815 0
M  V30 43455 N 4308.66 -1.4953 0.49786 0
M  V30 43456 C 4309.91 -2.02044 -0.0476787 0
M  V30 43457 C 4310.23 -1.37997 -1.37775 0
M  V30 43458 O 4309.5 -0.534227 -1.88475 0
M  V30 43459 H 4308.08 -0.746716 -0.02061 0
M  V30 43460 H 4310.74 -1.83586 0.654386 0
M  V30 43461 H 4309.84 -3.11583 -0.179651 0
M  V30 43462 N 4310.14 -0.23156 -1.5589 0
M  V30 43463 C 4311.39 0.396632 -1.9817 0
M  V30 43464 C 4311.71 1.59579 -1.1207 0
M  V30 43465 O 4310.98 1.94877 -0.199976 0
M  V30 43466 H 4309.56 0.149531 -0.731881 0
M  V30 43467 H 4312.22 -0.326783 -1.92141 0
M  V30 43468 H 4311.32 0.716189 -3.03772 0
M  V30 43469 N 4311.62 1.57545 0.0417295 0
M  V30 43470 C 4312.58 2.04711 1.03082 0
M  V30 43471 C 4313.58 0.949053 1.29806 0
M  V30 43472 O 4314.77 1.21306 1.25022 0
M  V30 43473 C 4311.9 2.45333 2.36695 0
M  V30 43474 H 4313.1 2.93344 0.623649 0
M  V30 43475 H 4310.65 1.53619 0.288248 0
M  V30 43476 H 4311.38 1.59818 2.82186 0
M  V30 43477 H 4311.17 3.25488 2.18632 0
M  V30 43478 H 4312.66 2.82296 3.07732 0
M  V30 43479 N 4313.1 -0.313759 1.54445 0
M  V30 43480 C 4314.06 -1.36955 1.83782 0
M  V30 43481 C 4315.06 -1.44272 0.710079 0
M  V30 43482 O 4316.25 -1.44129 0.978384 0
M  V30 43483 C 4313.38 -2.75583 2.00666 0
M  V30 43484 H 4314.57 -1.12192 2.78124 0
M  V30 43485 H 4312.13 -0.549763 1.46312 0
M  V30 43486 H 4312.86 -3.05587 1.08569 0
M  V30 43487 H 4312.65 -2.71664 2.82739 0
M  V30 43488 H 4314.14 -3.51944 2.24777 0
M  V30 43489 N 4314.57 -1.46684 -0.576319 0
M  V30 43490 C 4315.82 -1.52551 -1.33627 0
M  V30 43491 C 4316.15 -0.179239 -1.93371 0
M  V30 43492 O 4315.43 0.810057 -1.76829 0
M  V30 43493 C 4315.71 -2.62899 -2.46081 0
M  V30 43494 C 4315.56 -4.07078 -1.91331 0
M  V30 43495 C 4316.88 -2.69286 -3.48099 0
M  V30 43496 H 4314 -0.555358 -0.484507 0
M  V30 43497 H 4316.64 -1.78652 -0.646807 0
M  V30 43498 H 4314.79 -2.40774 -3.04894 0
M  V30 43499 H 4316.47 -4.4051 -1.36926 0
M  V30 43500 H 4314.71 -4.16256 -1.2212 0
M  V30 43501 H 4315.38 -4.80029 -2.72536 0
M  V30 43502 H 4317.86 -2.89192 -2.99178 0
M  V30 43503 H 4316.73 -3.48305 -4.24234 0
M  V30 43504 H 4316.99 -1.75588 -4.05736 0
M  V30 43505 N 4316.05 0.821486 -1.34497 0
M  V30 43506 C 4317.3 1.57778 -1.26934 0
M  V30 43507 C 4317.63 1.93838 0.160311 0
M  V30 43508 O 4316.88 1.60347 1.12193 0
M  V30 43509 C 4317.18 2.88687 -2.107 0
M  V30 43510 C 4316.85 2.71913 -3.59686 0
M  V30 43511 C 4315.51 2.67046 -4.003 0
M  V30 43512 C 4317.86 2.55489 -4.54285 0
M  V30 43513 C 4315.19 2.43678 -5.33702 0
M  V30 43514 C 4317.54 2.33652 -5.87868 0
M  V30 43515 C 4316.2 2.27198 -6.27644 0
M  V30 43516 H 4315.47 0.577352 -0.464485 0
M  V30 43517 H 4318.12 0.950382 -1.66253 0
M  V30 43518 H 4316.43 3.55726 -1.64214 0
M  V30 43519 H 4318.12 3.46293 -2.02194 0
M  V30 43520 H 4314.71 2.76542 -3.27449 0
M  V30 43521 H 4318.9 2.58272 -4.23804 0
M  V30 43522 H 4314.15 2.3714 -5.63538 0
M  V30 43523 H 4318.33 2.19931 -6.6076 0
M  V30 43524 H 4315.95 2.08852 -7.30948 0
M  V30 43525 N 4317.53 1.1825 1.04186 0
M  V30 43526 C 4318.46 0.866175 2.12203 0
M  V30 43527 C 4319.48 -0.135714 1.62233 0
M  V30 43528 O 4320.66 0.091959 1.78263 0
M  V30 43529 C 4317.76 0.272657 3.37801 0
M  V30 43530 C 4316.94 1.31991 4.1701 0
M  V30 43531 C 4316 0.742302 5.20938 0
M  V30 43532 O 4315.02 1.41672 5.51287 0
M  V30 43533 N 4316.22 -0.460777 5.78668 0
M  V30 43534 H 4318.99 1.7959 2.39933 0
M  V30 43535 H 4316.55 1.08272 1.20369 0
M  V30 43536 H 4318.54 -0.127296 4.045 0
M  V30 43537 H 4317.11 -0.56106 3.07524 0
M  V30 43538 H 4316.33 1.89522 3.45652 0
M  V30 43539 H 4317.62 2.02598 4.66724 0
M  V30 43540 H 4317.02 -1.02646 5.5631 0
M  V30 43541 H 4315.58 -0.802667 6.46839 0
M  V30 43542 N 4319.01 -1.23079 0.984342 0
M  V30 43543 C 4319.94 -2.23253 0.472573 0
M  V30 43544 C 4320.92 -1.55884 -0.46247 0
M  V30 43545 O 4322.1 -1.84421 -0.390003 0
M  V30 43546 C 4319.23 -3.37224 -0.315897 0
M  V30 43547 C 4318.28 -4.22756 0.56387 0
M  V30 43548 S 4319.11 -4.9618 2.01408 0
M  V30 43549 C 4320.27 -6.13598 1.23486 0
M  V30 43550 H 4320.5 -2.66318 1.32145 0
M  V30 43551 H 4318.03 -1.32621 0.790641 0
M  V30 43552 H 4319.99 -4.03313 -0.764795 0
M  V30 43553 H 4318.65 -2.92684 -1.13994 0
M  V30 43554 H 4317.84 -5.03982 -0.0423518 0
M  V30 43555 H 4317.45 -3.61755 0.949175 0
M  V30 43556 H 4319.74 -6.75666 0.498168 0
M  V30 43557 H 4320.68 -6.78614 2.02209 0
M  V30 43558 H 4321.09 -5.5947 0.751912 0
M  V30 43559 N 4320.49 -0.756478 -1.38258 0
M  V30 43560 C 4321.42 -0.0790626 -2.28063 0
M  V30 43561 C 4322.4 0.725277 -1.45528 0
M  V30 43562 O 4323.58 0.703291 -1.74889 0
M  V30 43563 C 4320.71 0.894756 -3.26668 0
M  V30 43564 C 4319.75 0.176294 -4.26135 0
M  V30 43565 S 4320.59 -1.12496 -5.2355 0
M  V30 43566 C 4321.74 -0.154288 -6.2571 0
M  V30 43567 H 4321.98 -0.840596 -2.85169 0
M  V30 43568 H 4319.51 -0.549187 -1.44303 0
M  V30 43569 H 4321.47 1.45126 -3.83991 0
M  V30 43570 H 4320.13 1.62928 -2.68539 0
M  V30 43571 H 4319.32 0.913944 -4.95644 0
M  V30 43572 H 4318.92 -0.308771 -3.72723 0
M  V30 43573 H 4321.22 0.67871 -6.74092 0
M  V30 43574 H 4322.16 -0.817115 -7.0337 0
M  V30 43575 H 4322.57 0.227696 -5.64041 0
M  V30 43576 N 4321.96 1.49264 -0.505783 0
M  V30 43577 C 4323.21 2.02066 0.0369632 0
M  V30 43578 C 4323.53 1.38725 1.37041 0
M  V30 43579 O 4322.8 0.544215 1.88189 0
M  V30 43580 H 4321.38 0.746814 0.0166497 0
M  V30 43581 H 4324.05 1.83236 -0.664112 0
M  V30 43582 H 4323.14 3.11673 0.163125 0
M  V30 43583 N 4323.44 0.239823 1.55765 0
M  V30 43584 C 4324.37 -0.657028 2.24066 0
M  V30 43585 C 4325.35 -1.18685 1.21852 0
M  V30 43586 O 4326.54 -1.2275 1.50486 0
M  V30 43587 C 4323.67 -1.85725 2.93468 0
M  V30 43588 C 4322.62 -1.4605 4.0231 0
M  V30 43589 C 4321.95 -2.74098 4.59102 0
M  V30 43590 C 4323.25 -0.636841 5.18403 0
M  V30 43591 H 4324.94 -0.0875149 2.99272 0
M  V30 43592 H 4322.49 -0.0406519 1.43943 0
M  V30 43593 H 4324.44 -2.49026 3.39947 0
M  V30 43594 H 4323.17 -2.45203 2.15738 0
M  V30 43595 H 4321.82 -0.850872 3.56589 0
M  V30 43596 H 4321.47 -3.31759 3.78081 0
M  V30 43597 H 4321.17 -2.48278 5.32571 0
M  V30 43598 H 4322.7 -3.38309 5.0831 0
M  V30 43599 H 4324.11 -1.17398 5.61151 0
M  V30 43600 H 4322.51 -0.474987 5.98217 0
M  V30 43601 H 4323.58 0.35253 4.83617 0
M  V30 43602 N 4324.92 -1.57565 -0.0333739 0
M  V30 43603 C 4326.16 -1.90922 -0.729944 0
M  V30 43604 C 4326.52 -0.837931 -1.7275 0
M  V30 43605 O 4327.73 -1.05571 -2.47201 0
M  V30 43606 C 4326 -3.2944 -1.38578 0
M  V30 43607 S 4327.56 -3.84624 -2.1121 0
M  V30 43608 H 4324.37 -0.668579 -0.241915 0
M  V30 43609 H 4326.98 -1.95494 0.015292 0
M  V30 43610 H 4325.68 -4.05277 -0.646459 0
M  V30 43611 H 4325.21 -3.28161 -2.16966 0
M  V30 43612 H 4327.23 -3.63004 -3.38294 0
M  V30 43613 N 4326.4 0.305564 -1.54609 0
M  V30 43614 C 4327.33 1.39823 -1.8161 0
M  V30 43615 C 4328.34 1.47038 -0.698837 0
M  V30 43616 O 4329.53 1.49438 -0.976243 0
M  V30 43617 C 4326.63 2.78229 -1.93498 0
M  V30 43618 C 4325.81 2.94003 -3.23854 0
M  V30 43619 C 4324.86 4.1288 -3.26216 0
M  V30 43620 O 4323.89 4.05182 -3.9977 0
M  V30 43621 N 4325.09 5.23295 -2.51281 0
M  V30 43622 H 4327.86 1.17018 -2.75911 0
M  V30 43623 H 4325.42 0.495619 -1.54127 0
M  V30 43624 H 4327.41 3.55994 -1.92486 0
M  V30 43625 H 4325.98 2.94003 -1.06213 0
M  V30 43626 H 4325.2 2.03389 -3.37678 0
M  V30 43627 H 4326.49 3.01449 -4.09885 0
M  V30 43628 H 4325.89 5.32429 -1.91145 0
M  V30 43629 H 4324.44 5.99411 -2.56027 0
M  V30 43630 N 4327.88 1.46988 0.568532 0
M  V30 43631 C 4329.13 1.52294 1.32248 0
M  V30 43632 C 4329.44 0.185017 1.94723 0
M  V30 43633 O 4330.64 0.11598 2.71252 0
M  V30 43634 C 4329.1 2.68412 2.39756 0
M  V30 43635 C 4328.71 4.08686 1.83521 0
M  V30 43636 C 4330.45 2.83001 3.16403 0
M  V30 43637 C 4328.36 5.16122 2.88742 0
M  V30 43638 H 4327.29 0.566829 0.497213 0
M  V30 43639 H 4329.94 1.73235 0.605137 0
M  V30 43640 H 4328.32 2.40828 3.14353 0
M  V30 43641 H 4329.5 4.46123 1.15372 0
M  V30 43642 H 4327.81 3.98886 1.19495 0
M  V30 43643 H 4330.41 3.60436 3.94956 0
M  V30 43644 H 4330.75 1.91031 3.69882 0
M  V30 43645 H 4331.28 3.103 2.48915 0
M  V30 43646 H 4328.02 6.09932 2.40131 0
M  V30 43647 H 4327.54 4.83214 3.55336 0
M  V30 43648 H 4329.22 5.42582 3.52439 0
M  V30 43649 N 4329.35 -0.814342 1.3493 0
M  V30 43650 C 4330.28 -1.94052 1.29869 0
M  V30 43651 C 4331.27 -1.69202 0.174534 0
M  V30 43652 O 4332.45 -1.90676 0.368265 0
M  V30 43653 C 4329.58 -3.30662 1.06207 0
M  V30 43654 C 4328.53 -3.69975 2.15181 0
M  V30 43655 C 4327.86 -5.04661 1.76695 0
M  V30 43656 C 4329.16 -3.81167 3.57084 0
M  V30 43657 H 4330.85 -1.98545 2.24099 0
M  V30 43658 H 4328.4 -0.953846 1.07879 0
M  V30 43659 H 4330.35 -4.09041 1.01308 0
M  V30 43660 H 4329.08 -3.26491 0.0842123 0
M  V30 43661 H 4327.74 -2.93876 2.19163 0
M  V30 43662 H 4327.38 -4.96986 0.775475 0
M  V30 43663 H 4327.08 -5.31935 2.49637 0
M  V30 43664 H 4328.61 -5.85489 1.73307 0
M  V30 43665 H 4330.02 -4.49796 3.55466 0
M  V30 43666 H 4328.42 -4.19903 4.2872 0
M  V30 43667 H 4329.49 -2.8293 3.938 0
M  V30 43668 N 4330.83 -1.18801 -1.03557 0
M  V30 43669 C 4332.25 -0.938783 -1.2907 0
M  V30 43670 C 4332.45 0.392725 -1.97636 0
M  V30 43671 O 4331.5 1.12585 -2.26011 0
M  V30 43672 C 4332.82 -2.108 -2.14438 0
M  V30 43673 C 4334.37 -2.14688 -2.27768 0
M  V30 43674 C 4334.84 -3.31042 -3.16505 0
M  V30 43675 N 4336.33 -3.30935 -3.24093 0
M  V30 43676 C 4337.07 -4.1761 -3.92925 0
M  V30 43677 N 4336.56 -5.14427 -4.64044 0
M  V30 43678 N 4338.36 -4.05507 -3.89256 0
M  V30 43679 H 4330.51 -2.04479 -0.574624 0
M  V30 43680 H 4332.77 -0.893746 -0.316103 0
M  V30 43681 H 4332.48 -3.07124 -1.7137 0
M  V30 43682 H 4332.35 -2.07296 -3.15132 0
M  V30 43683 H 4334.74 -1.18939 -2.70069 0
M  V30 43684 H 4334.82 -2.22248 -1.26647 0
M  V30 43685 H 4334.46 -4.27066 -2.74914 0
M  V30 43686 H 4334.39 -3.20718 -4.17669 0
M  V30 43687 H 4336.88 -2.60848 -2.73435 0
M  V30 43688 H 4337.2 -5.76925 -5.14177 0
M  V30 43689 H 4335.54 -5.18381 -4.62932 0
M  V30 43690 H 4338.73 -3.29153 -3.3283 0
M  V30 43691 H 4338.9 -4.73271 -4.42627 0
M  V30 43692 N 4332.31 1.22555 -0.990855 0
M  V30 43693 C 4333.59 1.86754 -0.581587 0
M  V30 43694 C 4333.97 1.88959 0.941145 0
M  V30 43695 O 4333.32 1.37866 1.82223 0
M  V30 43696 C 4333.53 3.27733 -1.19966 0
M  V30 43697 C 4334.87 4.04244 -1.29892 0
M  V30 43698 O 4335.9 3.36992 -1.1539 0
M  V30 43699 O 4334.76 5.24624 -1.53076 0
M  V30 43700 H 4331.85 0.803119 -0.197303 0
M  V30 43701 H 4334.4 1.3035 -1.0866 0
M  V30 43702 H 4333.17 3.20751 -2.24131 0
M  V30 43703 H 4332.79 3.9174 -0.680113 0
M  V30 43704 N 4333.79 0.763799 1.37855 0
M  V30 43705 C 4335.04 0.32389 1.99488 0
M  V30 43706 C 4335.36 -1.10112 1.60936 0
M  V30 43707 O 4334.63 -1.75471 0.871015 0
M  V30 43708 H 4333.21 0.116766 0.737818 0
M  V30 43709 H 4335.87 0.980162 1.6846 0
M  V30 43710 H 4334.97 0.395167 3.09588 0
M  V30 43711 N 4335.27 -1.48993 0.513692 0
M  V30 43712 C 4336.51 -2.02783 -0.0263375 0
M  V30 43713 C 4336.85 -1.39149 -1.35466 0
M  V30 43714 O 4336.12 -0.531544 -1.87096 0
M  V30 43715 C 4336.4 -3.59719 -0.165542 0
M  V30 43716 C 4336.26 -4.33861 1.1868 0
M  V30 43717 C 4337.58 -4.30796 -0.900153 0
M  V30 43718 H 4334.7 -0.736956 -0.00809748 0
M  V30 43719 H 4337.34 -1.77886 0.667565 0
M  V30 43720 H 4335.49 -3.81063 -0.756546 0
M  V30 43721 H 4337.16 -4.2398 1.81766 0
M  V30 43722 H 4335.4 -3.95919 1.77288 0
M  V30 43723 H 4336.07 -5.42065 1.04257 0
M  V30 43724 H 4338.55 -4.14185 -0.39879 0
M  V30 43725 H 4337.43 -5.40325 -0.966419 0
M  V30 43726 H 4337.69 -3.96929 -1.94678 0
M  V30 43727 N 4336.75 -0.248081 -1.55635 0
M  V30 43728 C 4337.99 0.376829 -1.98149 0
M  V30 43729 C 4338.31 1.58982 -1.13947 0
M  V30 43730 O 4339.51 2.28596 -1.46479 0
M  V30 43731 C 4337.97 0.721821 -3.52587 0
M  V30 43732 C 4337.58 -0.469844 -4.45529 0
M  V30 43733 C 4339.32 1.31086 -4.03753 0
M  V30 43734 C 4337.23 -0.100941 -5.91314 0
M  V30 43735 H 4336.16 0.144569 -0.740011 0
M  V30 43736 H 4338.81 -0.348482 -1.80161 0
M  V30 43737 H 4337.19 1.50529 -3.66274 0
M  V30 43738 H 4338.37 -1.24716 -4.43602 0
M  V30 43739 H 4336.68 -0.973887 -4.04851 0
M  V30 43740 H 4339.28 1.60021 -5.10193 0
M  V30 43741 H 4339.62 2.23572 -3.51171 0
M  V30 43742 H 4340.15 0.59026 -3.93396 0
M  V30 43743 H 4336.89 -0.992975 -6.47935 0
M  V30 43744 H 4336.41 0.64015 -5.96374 0
M  V30 43745 H 4338.09 0.316457 -6.46226 0
M  V30 43746 N 4338.22 1.5758 0.0250174 0
M  V30 43747 C 4339.63 1.77751 0.571099 0
M  V30 43748 C 4339.99 0.879668 1.75375 0
M  V30 43749 O 4339.11 0.0755552 2.16268 0
M  V30 43750 C 4339.71 3.22352 1.04281 0
M  V30 43751 C 4338.26 3.43706 1.53438 0
M  V30 43752 C 4337.41 2.73214 0.474265 0
M  V30 43753 H 4340.36 1.57419 -0.201205 0
M  V30 43754 H 4340.38 3.29089 1.90999 0
M  V30 43755 H 4339.9 3.87674 0.181854 0
M  V30 43756 H 4338 2.83565 2.41706 0
M  V30 43757 H 4338.11 4.52329 1.57909 0
M  V30 43758 H 4336.47 2.37105 0.930228 0
M  V30 43759 H 4337.26 3.4122 -0.377297 0
M  V30 43760 N 4339.7 -0.29736 1.54769 0
M  V30 43761 C 4341.11 -0.870111 1.65185 0
M  V30 43762 C 4341.46 -1.87952 0.562877 0
M  V30 43763 O 4340.59 -2.14312 -0.299875 0
M  V30 43764 C 4341.18 -1.58496 2.9944 0
M  V30 43765 C 4339.74 -2.10607 3.11964 0
M  V30 43766 C 4338.89 -0.939955 2.60883 0
M  V30 43767 H 4341.84 -0.0742735 1.58526 0
M  V30 43768 H 4341.86 -2.45072 2.91067 0
M  V30 43769 H 4341.37 -0.850048 3.78676 0
M  V30 43770 H 4339.47 -2.87134 2.37455 0
M  V30 43771 H 4339.59 -2.3381 4.18174 0
M  V30 43772 H 4337.95 -1.32654 2.17428 0
M  V30 43773 H 4338.73 -0.21894 3.42601 0
M  V30 43774 N 4341.18 -1.47287 -0.560729 0
M  V30 43775 C 4342.13 -1.59911 -1.68912 0
M  V30 43776 C 4343.12 -0.466574 -1.62848 0
M  V30 43777 O 4344.33 -0.644248 -1.68076 0
M  V30 43778 H 4340.7 -0.503184 -0.558847 0
M  V30 43779 H 4342.67 -2.54742 -1.554 0
M  V30 43780 C 4341.42 -1.62726 -3.07271 0
M  V30 43781 H 4340.75 -2.4922 -3.12617 0
M  V30 43782 H 4342.19 -1.75609 -3.85924 0
M  V30 43783 C 4340.64 -0.359911 -3.34972 0
M  V30 43784 O 4341.17 0.540513 -3.98047 0
M  V30 43785 N 4339.38 -0.241021 -2.89599 0
M  V30 43786 H 4338.93 -0.97468 -2.38449 0
M  V30 43787 H 4338.89 0.606011 -3.08504 0
M  V30 43788 N 4342.66 0.807175 -1.3536 0
M  V30 43789 C 4344.07 1.10264 -1.15386 0
M  V30 43790 C 4344.27 2.01471 0.0340707 0
M  V30 43791 O 4343.33 2.42462 0.704855 0
M  V30 43792 C 4344.64 1.73419 -2.45655 0
M  V30 43793 C 4346.19 1.85842 -2.51856 0
M  V30 43794 C 4346.67 2.52413 -3.82167 0
M  V30 43795 N 4348.16 2.59898 -3.83415 0
M  V30 43796 C 4348.89 3.12174 -4.80973 0
M  V30 43797 N 4348.39 3.64893 -5.88918 0
M  V30 43798 N 4350.18 3.10722 -4.6841 0
M  V30 43799 H 4342.33 0.200854 -2.11448 0
M  V30 43800 H 4344.59 0.151694 -0.935785 0
M  V30 43801 H 4344.3 1.13868 -3.32757 0
M  V30 43802 H 4344.17 2.73125 -2.60159 0
M  V30 43803 H 4346.56 2.44537 -1.65184 0
M  V30 43804 H 4346.64 0.849938 -2.41267 0
M  V30 43805 H 4346.29 1.94368 -4.69237 0
M  V30 43806 H 4346.22 3.53797 -3.90045 0
M  V30 43807 H 4348.71 2.22548 -3.05419 0
M  V30 43808 H 4349.02 4.0308 -6.59353 0
M  V30 43809 H 4347.37 3.63093 -5.92611 0
M  V30 43810 H 4350.56 2.68813 -3.83219 0
M  V30 43811 H 4350.73 3.51156 -5.44604 0
M  V30 43812 N 4344.14 1.19348 1.02926 0
M  V30 43813 C 4345.36 1.02178 1.80484 0
M  V30 43814 C 4345.79 -0.424893 1.83238 0
M  V30 43815 O 4345.14 -1.30542 1.25811 0
M  V30 43816 C 4345.19 1.59489 3.23413 0
M  V30 43817 O 4344.3 0.823948 4.04085 0
M  V30 43818 H 4343.64 0.361188 0.557171 0
M  V30 43819 H 4346.17 1.58362 1.29548 0
M  V30 43820 H 4346.18 1.62688 3.74161 0
M  V30 43821 H 4344.85 2.64783 3.20722 0
M  V30 43822 H 4343.43 0.865178 3.62725 0
M  V30 43823 N 4345.61 -1.22028 0.997341 0
M  V30 43824 C 4346.54 -2.26402 0.571359 0
M  V30 43825 C 4347.52 -1.65233 -0.403996 0
M  V30 43826 O 4348.71 -1.91967 -0.293658 0
M  V30 43827 C 4345.84 -3.47124 -0.110411 0
M  V30 43828 C 4344.79 -4.20759 0.783939 0
M  V30 43829 C 4344.12 -5.34691 -0.0309947 0
M  V30 43830 C 4345.42 -4.7897 2.08291 0
M  V30 43831 H 4347.11 -2.62287 1.44381 0
M  V30 43832 H 4344.66 -1.26081 0.695678 0
M  V30 43833 H 4346.61 -4.19303 -0.419846 0
M  V30 43834 H 4345.34 -3.10348 -1.01744 0
M  V30 43835 H 4344 -3.5042 1.07708 0
M  V30 43836 H 4343.64 -4.94156 -0.939075 0
M  V30 43837 H 4343.34 -5.84883 0.564419 0
M  V30 43838 H 4344.87 -6.09684 -0.334421 0
M  V30 43839 H 4346.28 -5.43067 1.83713 0
M  V30 43840 H 4344.68 -5.39519 2.62752 0
M  V30 43841 H 4345.75 -3.98775 2.75874 0
M  V30 43842 N 4347.09 -0.771099 -1.37448 0
M  V30 43843 C 4348.37 -0.259885 -1.93866 0
M  V30 43844 C 4348.75 1.24495 -1.70482 0
M  V30 43845 O 4348.1 2.02778 -1.05325 0
M  V30 43846 C 4348.31 -0.63257 -3.43219 0
M  V30 43847 C 4349.66 -0.601999 -4.20311 0
M  V30 43848 O 4350.68 -0.571921 -3.51579 0
M  V30 43849 O 4349.54 -0.6285 -5.42874 0
M  V30 43850 H 4346.63 -0.0597067 -0.824842 0
M  V30 43851 H 4349.18 -0.852408 -1.46738 0
M  V30 43852 H 4347.95 -1.67116 -3.53819 0
M  V30 43853 H 4347.57 -0.0129603 -3.97598 0
M  V30 43854 N 4348.57 1.48719 -0.521586 0
M  V30 43855 C 4349.81 2.04395 0.0136621 0
M  V30 43856 C 4350.17 1.39078 1.32368 0
M  V30 43857 O 4351.38 1.85593 1.94444 0
M  V30 43858 C 4349.65 3.57119 0.141794 0
M  V30 43859 S 4351.21 4.34278 0.628318 0
M  V30 43860 H 4348.02 0.710954 -0.00804548 0
M  V30 43861 H 4350.63 1.82529 -0.700238 0
M  V30 43862 H 4349.33 4.02194 -0.81661 0
M  V30 43863 H 4348.86 3.83424 0.880323 0
M  V30 43864 H 4350.88 4.58622 1.89422 0
M  V30 43865 N 4350.05 0.256331 1.55501 0
M  V30 43866 C 4351.29 -0.366319 1.99464 0
M  V30 43867 C 4351.63 -1.569 1.14438 0
M  V30 43868 O 4350.9 -1.93363 0.209978 0
M  V30 43869 C 4351.19 -0.766954 3.51838 0
M  V30 43870 C 4351.04 0.441765 4.47625 0
M  V30 43871 C 4352.36 -1.61044 4.09576 0
M  V30 43872 H 4349.48 -0.131675 0.725142 0
M  V30 43873 H 4352.12 0.359527 1.86567 0
M  V30 43874 H 4350.27 -1.3854 3.62959 0
M  V30 43875 H 4351.94 1.08026 4.48473 0
M  V30 43876 H 4350.18 1.08321 4.20058 0
M  V30 43877 H 4350.85 0.117966 5.51874 0
M  V30 43878 H 4353.33 -1.08831 4.01616 0
M  V30 43879 H 4352.21 -1.8596 5.1644 0
M  V30 43880 H 4352.47 -2.58538 3.58623 0
M  V30 43881 N 4351.53 -1.57591 -0.0166602 0
M  V30 43882 C 4352.8 -1.81018 -0.741063 0
M  V30 43883 C 4353.18 -0.857359 -1.92906 0
M  V30 43884 O 4352.53 0.0977112 -2.28291 0
M  V30 43885 C 4352.74 -3.29071 -1.16246 0
M  V30 43886 C 4354.09 -3.94378 -1.57324 0
M  V30 43887 O 4355.11 -3.33295 -1.25671 0
M  V30 43888 O 4353.97 -5.0195 -2.1612 0
M  V30 43889 H 4351.07 -0.744824 -0.359397 0
M  V30 43890 H 4353.61 -1.69698 0.00751534 0
M  V30 43891 H 4352.38 -3.90031 -0.314935 0
M  V30 43892 H 4352.01 -3.45327 -1.97066 0
M  V30 43893 N 4353 0.289148 -1.54925 0
M  V30 43894 C 4354.28 1.04316 -1.65461 0
M  V30 43895 C 4354.66 2.04833 -0.510564 0
M  V30 43896 O 4354.01 2.23155 0.491335 0
M  V30 43897 C 4354.22 1.71443 -3.03987 0
M  V30 43898 C 4355.57 2.23204 -3.612 0
M  V30 43899 O 4356.59 1.81457 -3.06516 0
M  V30 43900 O 4355.45 2.9973 -4.56973 0
M  V30 43901 H 4352.54 0.482879 -0.671384 0
M  V30 43902 H 4355.09 0.286291 -1.67268 0
M  V30 43903 H 4353.86 0.9852 -3.78694 0
M  V30 43904 H 4353.49 2.53858 -3.0601 0
M  V30 43905 N 4354.48 1.47583 0.55291 0
M  V30 43906 C 4355.39 1.63033 1.68693 0
M  V30 43907 C 4356.41 0.513104 1.66263 0
M  V30 43908 O 4357.58 0.781204 1.85632 0
M  V30 43909 C 4354.65 1.64491 3.05194 0
M  V30 43910 C 4353.71 2.87672 3.18659 0
M  V30 43911 C 4352.94 2.89051 4.48648 0
M  V30 43912 O 4353.17 1.99515 5.34369 0
M  V30 43913 O 4352.1 3.80963 4.65994 0
M  V30 43914 H 4355.93 2.58998 1.586 0
M  V30 43915 H 4353.51 1.30718 0.723408 0
M  V30 43916 H 4355.39 1.68104 3.86418 0
M  V30 43917 H 4354.07 0.716949 3.1566 0
M  V30 43918 H 4352.98 2.89602 2.36816 0
M  V30 43919 H 4354.31 3.79777 3.13098 0
M  V30 43920 N 4355.96 -0.799985 1.35787 0
M  V30 43921 C 4356.89 -1.92664 1.3192 0
M  V30 43922 C 4357.87 -1.69008 0.19247 0
M  V30 43923 O 4359.06 -1.90275 0.388469 0
M  V30 43924 C 4356.19 -3.29517 1.09708 0
M  V30 43925 C 4355.14 -3.67672 2.19093 0
M  V30 43926 C 4354.47 -5.02759 1.82038 0
M  V30 43927 C 4355.77 -3.77358 3.61106 0
M  V30 43928 H 4357.46 -1.96157 2.26192 0
M  V30 43929 H 4355.01 -0.942351 1.08884 0
M  V30 43930 H 4356.96 -4.07944 1.05641 0
M  V30 43931 H 4355.68 -3.26384 0.118836 0
M  V30 43932 H 4354.34 -2.91535 2.22268 0
M  V30 43933 H 4353.99 -4.96136 0.828144 0
M  V30 43934 H 4353.69 -5.29258 2.55265 0
M  V30 43935 H 4355.21 -5.83618 1.79508 0
M  V30 43936 H 4356.63 -4.46001 3.60217 0
M  V30 43937 H 4355.03 -4.15333 4.3315 0
M  V30 43938 H 4356.1 -2.78737 3.96779 0
M  V30 43939 N 4357.44 -1.19892 -1.02292 0
M  V30 43940 C 4358.4 -0.943891 -2.08862 0
M  V30 43941 C 4359.4 0.0780373 -1.60611 0
M  V30 43942 O 4360.59 -0.15735 -1.73488 0
M  V30 43943 C 4357.72 -0.419774 -3.38306 0
M  V30 43944 H 4358.92 -1.88913 -2.3292 0
M  V30 43945 H 4356.47 -1.01341 -1.18994 0
M  V30 43946 H 4357.2 0.53123 -3.19919 0
M  V30 43947 H 4356.99 -1.15668 -3.74651 0
M  V30 43948 H 4358.48 -0.260623 -4.16786 0
M  V30 43949 N 4358.92 1.21498 -1.0038 0
M  V30 43950 C 4360.16 1.90157 -0.684459 0
M  V30 43951 C 4360.49 1.78409 0.787101 0
M  V30 43952 O 4359.76 1.17822 1.56508 0
M  V30 43953 H 4358.34 0.703862 -0.250176 0
M  V30 43954 H 4361 1.47613 -1.27265 0
M  V30 43955 H 4360.09 2.9708 -0.956565 0
M  V30 43956 N 4360.39 0.778378 1.37037 0
M  V30 43957 C 4361.62 0.356122 2.0432 0
M  V30 43958 C 4362.04 -1.01574 1.58317 0
M  V30 43959 O 4361.4 -1.65219 0.746479 0
M  V30 43960 C 4361.45 0.415793 3.58195 0
M  V30 43961 O 4360.55 -0.581344 4.08282 0
M  V30 43962 H 4359.9 0.153034 0.646124 0
M  V30 43963 H 4362.43 1.05642 1.75217 0
M  V30 43964 H 4362.44 0.275447 4.07069 0
M  V30 43965 H 4361.11 1.41659 3.91032 0
M  V30 43966 H 4359.69 -0.40357 3.7071 0
M  V30 43967 N 4361.87 -1.4844 0.529465 0
M  V30 43968 C 4362.84 -2.28114 -0.222844 0
M  V30 43969 C 4363.84 -1.35345 -0.868244 0
M  V30 43970 O 4365.03 -1.58241 -0.728375 0
M  V30 43971 C 4362.16 -3.14204 -1.32244 0
M  V30 43972 H 4363.35 -2.96088 0.476668 0
M  V30 43973 H 4360.9 -1.53672 0.285387 0
M  V30 43974 H 4361.64 -2.50861 -2.05522 0
M  V30 43975 H 4361.42 -3.82445 -0.864786 0
M  V30 43976 H 4362.91 -3.74306 -1.85161 0
M  V30 43977 N 4363.35 -0.264574 -1.55363 0
M  V30 43978 C 4364.3 0.641749 -2.18782 0
M  V30 43979 C 4365.29 1.12622 -1.14914 0
M  V30 43980 O 4366.48 1.07305 -1.40765 0
M  V30 43981 C 4363.61 1.83032 -2.90438 0
M  V30 43982 C 4362.69 1.36353 -4.01583 0
M  V30 43983 N 4363.08 0.612155 -5.02082 0
M  V30 43984 C 4361.38 1.64736 -4.14461 0
M  V30 43985 C 4362.08 0.368112 -5.80534 0
M  V30 43986 N 4361.06 0.937481 -5.35455 0
M  V30 43987 H 4364.86 0.0597294 -2.93839 0
M  V30 43988 H 4362.37 -0.0676615 -1.62259 0
M  V30 43989 H 4364.37 2.49079 -3.34313 0
M  V30 43990 H 4363.03 2.41639 -2.16888 0
M  V30 43991 H 4364.04 0.26052 -5.17244 0
M  V30 43992 H 4360.72 2.24355 -3.52095 0
M  V30 43993 H 4362.11 -0.232938 -6.71496 0
M  V30 43994 N 4364.83 1.57598 0.00830251 0
M  V30 43995 C 4366.08 1.90204 0.694878 0
M  V30 43996 C 4366.4 0.8644 1.74237 0
M  V30 43997 O 4365.66 -0.131942 1.95255 0
M  V30 43998 C 4365.96 3.29566 1.38278 0
M  V30 43999 C 4365.62 4.48451 0.469293 0
M  V30 44000 C 4364.29 4.80707 0.217756 0
M  V30 44001 C 4366.64 5.20954 -0.160149 0
M  V30 44002 C 4363.97 5.82843 -0.671656 0
M  V30 44003 C 4366.32 6.24036 -1.03739 0
M  V30 44004 C 4364.98 6.54754 -1.29818 0
M  V30 44005 H 4364.25 0.696007 0.254274 0
M  V30 44006 H 4366.9 1.91446 -0.0454423 0
M  V30 44007 H 4365.2 3.2441 2.19694 0
M  V30 44008 H 4366.9 3.52051 1.91992 0
M  V30 44009 H 4363.49 4.23243 0.675509 0
M  V30 44010 H 4367.68 4.96295 0.0211826 0
M  V30 44011 H 4362.93 6.05008 -0.881805 0
M  V30 44012 H 4367.11 6.79351 -1.53152 0
M  V30 44013 H 4364.73 7.33717 -1.98907 0
M  V30 44014 N 4366.31 -0.280928 1.55076 0
M  V30 44015 C 4367.55 -1.01508 1.75568 0
M  V30 44016 C 4367.89 -1.86225 0.550823 0
M  V30 44017 O 4367.16 -1.8918 -0.451774 0
M  V30 44018 C 4367.44 -1.90429 3.05629 0
M  V30 44019 C 4367.3 -1.08758 4.36454 0
M  V30 44020 C 4368.62 -2.89272 3.31678 0
M  V30 44021 H 4365.74 -0.367614 0.638771 0
M  V30 44022 H 4368.38 -0.288087 1.87803 0
M  V30 44023 H 4366.53 -2.52415 2.95329 0
M  V30 44024 H 4368.2 -0.489034 4.587 0
M  V30 44025 H 4366.44 -0.390808 4.32036 0
M  V30 44026 H 4367.11 -1.74276 5.23767 0
M  V30 44027 H 4369.59 -2.37418 3.41719 0
M  V30 44028 H 4368.47 -3.48638 4.23961 0
M  V30 44029 H 4368.73 -3.63984 2.50935 0
M  V30 44030 N 4367.79 -1.47874 -0.545076 0
M  V30 44031 C 4369.03 -1.56332 -1.30122 0
M  V30 44032 C 4369.39 -0.22773 -1.91048 0
M  V30 44033 O 4368.68 0.767879 -1.7554 0
M  V30 44034 C 4368.87 -2.62683 -2.42348 0
M  V30 44035 C 4368.7 -4.06453 -1.92422 0
M  V30 44036 C 4367.47 -4.73765 -1.75711 0
M  V30 44037 C 4369.67 -4.93095 -1.46156 0
M  V30 44038 N 4367.65 -6.02007 -1.20251 0
M  V30 44039 C 4369.02 -6.11461 -1.02543 0
M  V30 44040 C 4371.08 -4.7944 -1.34319 0
M  V30 44041 C 4369.78 -7.17679 -0.482686 0
M  V30 44042 C 4371.81 -5.85765 -0.814455 0
M  V30 44043 C 4371.17 -7.03329 -0.388318 0
M  V30 44044 H 4367.27 -0.626699 -0.467731 0
M  V30 44045 H 4369.85 -1.84684 -0.616443 0
M  V30 44046 H 4368.02 -2.36179 -3.08341 0
M  V30 44047 H 4369.76 -2.60913 -3.09364 0
M  V30 44048 H 4366.51 -4.29861 -1.98787 0
M  V30 44049 H 4366.93 -6.70362 -0.945749 0
M  V30 44050 H 4371.58 -3.88903 -1.65874 0
M  V30 44051 H 4369.29 -8.07952 -0.154786 0
M  V30 44052 H 4372.88 -5.77249 -0.726255 0
M  V30 44053 H 4371.76 -7.84199 0.0144649 0
M  V30 44054 N 4369.26 0.792773 -1.36209 0
M  V30 44055 C 4370.51 1.5528 -1.30445 0
M  V30 44056 C 4370.84 1.93847 0.117037 0
M  V30 44057 O 4370.12 1.62446 1.06965 0
M  V30 44058 C 4370.4 2.83214 -2.22401 0
M  V30 44059 C 4370.25 2.51035 -3.73231 0
M  V30 44060 C 4371.57 3.85016 -2.13192 0
M  V30 44061 H 4368.69 0.563358 -0.475181 0
M  V30 44062 H 4371.33 0.911074 -1.66732 0
M  V30 44063 H 4369.48 3.37975 -1.91585 0
M  V30 44064 H 4371.16 2.02351 -4.1455 0
M  V30 44065 H 4369.4 1.84026 -3.92832 0
M  V30 44066 H 4370.07 3.42394 -4.32978 0
M  V30 44067 H 4372.55 3.39692 -2.40309 0
M  V30 44068 H 4371.42 4.72286 -2.79709 0
M  V30 44069 H 4371.68 4.27726 -1.11816 0
M  V30 44070 N 4370.74 1.20433 1.01654 0
M  V30 44071 C 4372.16 0.959198 1.2756 0
M  V30 44072 C 4372.36 -0.361233 1.98236 0
M  V30 44073 O 4371.41 -1.08975 2.27774 0
M  V30 44074 C 4372.73 2.14185 2.11057 0
M  V30 44075 C 4374.27 2.18284 2.24324 0
M  V30 44076 C 4374.75 3.36035 3.11198 0
M  V30 44077 N 4376.24 3.36049 3.18787 0
M  V30 44078 C 4376.98 4.23808 3.86231 0
M  V30 44079 N 4376.47 5.21744 4.55801 0
M  V30 44080 N 4378.26 4.11649 3.82755 0
M  V30 44081 H 4370.42 2.05368 0.542021 0
M  V30 44082 H 4372.68 0.898662 0.301845 0
M  V30 44083 H 4372.38 3.09811 1.66463 0
M  V30 44084 H 4372.26 2.12283 3.11794 0
M  V30 44085 H 4374.65 1.23221 2.68143 0
M  V30 44086 H 4374.73 2.24235 1.23095 0
M  V30 44087 H 4374.37 4.31385 2.68084 0
M  V30 44088 H 4374.3 3.27322 4.12514 0
M  V30 44089 H 4376.79 2.65165 2.69251 0
M  V30 44090 H 4377.1 5.85032 5.04933 0
M  V30 44091 H 4375.45 5.25681 4.54626 0
M  V30 44092 H 4378.64 3.34406 3.27551 0
M  V30 44093 H 4378.81 4.80253 4.35042 0
M  V30 44094 N 4372.22 -1.20963 1.01023 0
M  V30 44095 C 4373.5 -1.85805 0.611224 0
M  V30 44096 C 4373.88 -1.90433 -0.910964 0
M  V30 44097 O 4373.22 -1.40747 -1.80007 0
M  V30 44098 C 4373.43 -3.25783 1.25165 0
M  V30 44099 C 4374.78 -4.02126 1.36307 0
M  V30 44100 O 4375.81 -3.35113 1.20737 0
M  V30 44101 O 4374.67 -5.22122 1.61403 0
M  V30 44102 H 4371.76 -0.799879 0.210055 0
M  V30 44103 H 4374.31 -1.28604 1.1072 0
M  V30 44104 H 4373.08 -3.17144 2.29205 0
M  V30 44105 H 4372.7 -3.90608 0.74235 0
M  V30 44106 N 4373.7 -0.785634 -1.36622 0
M  V30 44107 C 4374.93 -0.368104 -2.03599 0
M  V30 44108 C 4375.34 1.01427 -1.59242 0
M  V30 44109 O 4374.7 1.64988 -0.780084 0
M  V30 44110 C 4374.75 -0.41792 -3.59076 0
M  V30 44111 O 4374.47 -1.74577 -4.01814 0
M  V30 44112 C 4375.97 0.00945924 -4.43299 0
M  V30 44113 H 4373.19 -0.152232 -0.653503 0
M  V30 44114 H 4375.73 -1.06343 -1.74675 0
M  V30 44115 H 4373.89 0.228951 -3.86723 0
M  V30 44116 H 4374.3 -1.69398 -4.96392 0
M  V30 44117 H 4375.78 -0.0765388 -5.51947 0
M  V30 44118 H 4376.25 1.06162 -4.26176 0
M  V30 44119 H 4376.86 -0.609754 -4.20906 0
M  V30 44120 N 4375.18 1.48157 -0.53733 0
M  V30 44121 C 4376.11 2.32553 0.210047 0
M  V30 44122 C 4377.09 1.42554 0.928027 0
M  V30 44123 O 4378.27 1.71433 0.912374 0
M  V30 44124 C 4375.4 3.23913 1.2529 0
M  V30 44125 C 4374.36 4.22995 0.652616 0
M  V30 44126 C 4373.68 5.0354 1.79866 0
M  V30 44127 C 4374.98 5.20912 -0.380537 0
M  V30 44128 H 4376.68 2.95288 -0.494496 0
M  V30 44129 H 4374.22 1.41999 -0.239254 0
M  V30 44130 H 4376.17 3.81785 1.78376 0
M  V30 44131 H 4374.9 2.59193 1.98712 0
M  V30 44132 H 4373.56 3.6632 0.143222 0
M  V30 44133 H 4373.21 4.35238 2.52144 0
M  V30 44134 H 4372.91 5.70607 1.40289 0
M  V30 44135 H 4374.43 5.64266 2.33316 0
M  V30 44136 H 4375.84 5.73265 0.063506 0
M  V30 44137 H 4374.24 5.96072 -0.694094 0
M  V30 44138 H 4375.31 4.676 -1.28367 0
M  V30 44139 N 4376.65 0.272809 1.55221 0
M  V30 44140 C 4378.07 -0.0813945 1.59392 0
M  V30 44141 C 4378.27 -1.54792 1.29003 0
M  V30 44142 O 4377.33 -2.29643 1.04979 0
M  V30 44143 C 4378.64 0.291158 2.99287 0
M  V30 44144 C 4380.19 0.237585 3.12097 0
M  V30 44145 C 4380.66 0.584544 4.54254 0
M  V30 44146 N 4382.15 0.53601 4.60088 0
M  V30 44147 C 4382.89 0.777302 5.68107 0
M  V30 44148 N 4382.38 1.08309 6.84281 0
M  V30 44149 N 4384.18 0.706255 5.57645 0
M  V30 44150 H 4376.33 1.22889 1.7324 0
M  V30 44151 H 4378.59 0.496298 0.807708 0
M  V30 44152 H 4378.3 1.31099 3.26353 0
M  V30 44153 H 4378.17 -0.369144 3.75389 0
M  V30 44154 H 4380.56 -0.772955 2.84797 0
M  V30 44155 H 4380.64 0.932112 2.38213 0
M  V30 44156 H 4380.28 1.59276 4.8228 0
M  V30 44157 H 4380.21 -0.131748 5.26435 0
M  V30 44158 H 4382.7 0.309451 3.76631 0
M  V30 44159 H 4383.02 1.25393 7.62559 0
M  V30 44160 H 4381.36 1.12084 6.85903 0
M  V30 44161 H 4384.55 0.467222 4.65762 0
M  V30 44162 H 4384.73 0.897686 6.41752 0
M  V30 44163 N 4378.13 -1.576 5.54043e-05 0
M  V30 44164 C 4379.06 -2.11461 -0.990267 0
M  V30 44165 C 4380.04 -1.02377 -1.35842 0
M  V30 44166 O 4381.23 -1.3006 -1.44216 0
M  V30 44167 C 4378.36 -2.61796 -2.28211 0
M  V30 44168 C 4377.31 -3.75407 -2.05556 0
M  V30 44169 C 4376.64 -4.12057 -3.40754 0
M  V30 44170 C 4377.94 -5.0268 -1.41811 0
M  V30 44171 H 4379.63 -2.94457 -0.541801 0
M  V30 44172 H 4377.18 -1.41649 -0.259169 0
M  V30 44173 H 4379.13 -2.98104 -2.97846 0
M  V30 44174 H 4377.86 -1.75922 -2.75171 0
M  V30 44175 H 4376.51 -3.39493 -1.38347 0
M  V30 44176 H 4376.16 -3.23206 -3.85417 0
M  V30 44177 H 4375.86 -4.88599 -3.26412 0
M  V30 44178 H 4377.39 -4.50923 -4.11704 0
M  V30 44179 H 4378.8 -5.36758 -2.01403 0
M  V30 44180 H 4377.2 -5.84027 -1.37957 0
M  V30 44181 H 4378.27 -4.83351 -0.387336 0
M  V30 44182 N 4379.61 0.2727 -1.55223 0
M  V30 44183 C 4380.86 1.00228 -1.75496 0
M  V30 44184 C 4381.18 1.86808 -0.559266 0
M  V30 44185 O 4380.45 1.91216 0.425814 0
M  V30 44186 H 4379.03 0.373053 -0.647179 0
M  V30 44187 H 4381.69 0.296859 -1.92626 0
M  V30 44188 H 4380.79 1.63904 -2.65597 0
M  V30 44189 N 4381.09 1.48161 0.537226 0
M  V30 44190 C 4382.34 1.55501 1.29088 0
M  V30 44191 C 4382.66 0.227522 1.93668 0
M  V30 44192 O 4381.93 -0.750323 1.80961 0
M  V30 44193 H 4380.51 0.572849 0.47943 0
M  V30 44194 H 4383.17 1.84582 0.625753 0
M  V30 44195 H 4382.27 2.33223 2.07397 0
M  V30 44196 N 4382.57 -0.785538 1.36627 0
M  V30 44197 C 4383.51 -1.89833 1.3127 0
M  V30 44198 C 4384.48 -1.65114 0.180691 0
M  V30 44199 O 4385.67 -1.87221 0.367835 0
M  V30 44200 C 4382.81 -3.26702 1.11174 0
M  V30 44201 C 4381.92 -3.63468 2.33485 0
M  V30 44202 C 4381.06 -4.89474 2.0637 0
M  V30 44203 C 4380.1 -5.1893 3.24621 0
M  V30 44204 N 4379.23 -6.3612 2.97145 0
M  V30 44205 H 4384.07 -1.93748 2.26419 0
M  V30 44206 H 4381.61 -0.947415 1.12528 0
M  V30 44207 H 4383.57 -4.05636 0.97548 0
M  V30 44208 H 4382.2 -3.222 0.196787 0
M  V30 44209 H 4381.25 -2.79627 2.57901 0
M  V30 44210 H 4382.56 -3.81182 3.21717 0
M  V30 44211 H 4381.72 -5.76282 1.89696 0
M  V30 44212 H 4380.45 -4.73837 1.15454 0
M  V30 44213 H 4379.46 -4.30603 3.41849 0
M  V30 44214 H 4380.68 -5.36484 4.16368 0
M  V30 44215 H 4378.63 -6.21868 2.08845 0
M  V30 44216 H 4378.55 -6.54185 3.78917 0
M  V30 44217 H 4379.82 -7.259 2.84059 0
M  V30 44218 N 4384.04 -1.20971 -1.01014 0
M  V30 44219 C 4385.29 -1.0238 -1.74713 0
M  V30 44220 C 4385.62 0.443309 -1.89381 0
M  V30 44221 O 4384.87 1.3453 -1.42127 0
M  V30 44222 C 4385.17 -1.66008 -3.16506 0
M  V30 44223 C 4384.84 -3.15842 -3.21799 0
M  V30 44224 C 4383.5 -3.5673 -3.2295 0
M  V30 44225 C 4385.85 -4.11827 -3.19449 0
M  V30 44226 C 4383.18 -4.92118 -3.19432 0
M  V30 44227 C 4385.53 -5.47169 -3.17472 0
M  V30 44228 C 4384.2 -5.87462 -3.16931 0
M  V30 44229 H 4383.47 -0.374637 -0.639319 0
M  V30 44230 H 4386.11 -1.50489 -1.18429 0
M  V30 44231 H 4384.42 -1.10179 -3.75989 0
M  V30 44232 H 4386.12 -1.49133 -3.72237 0
M  V30 44233 H 4382.71 -2.83274 -3.21642 0
M  V30 44234 H 4386.89 -3.81268 -3.17724 0
M  V30 44235 H 4382.15 -5.2259 -3.17347 0
M  V30 44236 H 4386.32 -6.21285 -3.14607 0
M  V30 44237 H 4383.95 -6.9234 -3.13958 0
M  V30 44238 N 4385.52 1.20426 -1.01663 0
M  V30 44239 C 4386.93 1.71514 -0.737543 0
M  V30 44240 C 4387.28 1.8155 0.743909 0
M  V30 44241 O 4386.41 1.47809 1.58056 0
M  V30 44242 C 4387 3.1151 -1.33217 0
M  V30 44243 C 4385.56 3.59908 -1.10195 0
M  V30 44244 C 4384.71 2.37111 -1.43784 0
M  V30 44245 H 4387.66 1.05439 -1.1861 0
M  V30 44246 H 4387.68 3.73572 -0.722767 0
M  V30 44247 H 4387.19 3.04174 -2.41039 0
M  V30 44248 H 4385.3 3.72577 -0.0414066 0
M  V30 44249 H 4385.41 4.44725 -1.78203 0
M  V30 44250 H 4383.77 2.39854 -0.856863 0
M  V30 44251 H 4384.56 2.32415 -2.52662 0
M  V30 44252 N 4387 0.792868 1.36203 0
M  V30 44253 C 4387.93 0.207935 2.32572 0
M  V30 44254 C 4388.91 -0.659 1.56816 0
M  V30 44255 O 4390.1 -0.59211 1.84953 0
M  V30 44256 C 4387.23 -0.655329 3.41061 0
M  V30 44257 C 4386.18 0.111992 4.27853 0
M  V30 44258 C 4385.51 -0.872089 5.2754 0
M  V30 44259 C 4386.81 1.30317 5.05781 0
M  V30 44260 H 4388.5 1.01304 2.81741 0
M  V30 44261 H 4386.05 0.488588 1.35458 0
M  V30 44262 H 4388 -1.0745 4.07471 0
M  V30 44263 H 4386.72 -1.49318 2.90468 0
M  V30 44264 H 4385.38 0.51218 3.63005 0
M  V30 44265 H 4385.03 -1.70506 4.7322 0
M  V30 44266 H 4384.73 -0.363085 5.86477 0
M  V30 44267 H 4386.25 -1.28975 5.96823 0
M  V30 44268 H 4387.67 0.959577 5.65212 0
M  V30 44269 H 4386.07 1.7457 5.74147 0
M  V30 44270 H 4387.14 2.09678 4.37222 0
M  V30 44271 N 4388.48 -1.4787 0.54518 0
M  V30 44272 C 4389.43 -2.2985 -0.209219 0
M  V30 44273 C 4390.4 -1.38317 -0.919659 0
M  V30 44274 O 4391.58 -1.6728 -0.917713 0
M  V30 44275 C 4388.72 -3.22023 -1.24077 0
M  V30 44276 C 4387.83 -4.28642 -0.537627 0
M  V30 44277 C 4386.97 -5.07978 -1.55343 0
M  V30 44278 C 4386.01 -6.06384 -0.834587 0
M  V30 44279 N 4385.14 -6.78723 -1.79664 0
M  V30 44280 H 4389.98 -2.93843 0.496013 0
M  V30 44281 H 4387.52 -1.44847 0.25644 0
M  V30 44282 H 4389.48 -3.73875 -1.85131 0
M  V30 44283 H 4388.11 -2.5992 -1.91419 0
M  V30 44284 H 4387.16 -3.79939 0.187179 0
M  V30 44285 H 4388.47 -4.98793 0.026066 0
M  V30 44286 H 4387.63 -5.6392 -2.23783 0
M  V30 44287 H 4386.37 -4.37701 -2.15103 0
M  V30 44288 H 4385.37 -5.49631 -0.136195 0
M  V30 44289 H 4386.6 -6.78665 -0.242891 0
M  V30 44290 H 4384.54 -6.11185 -2.38304 0
M  V30 44291 H 4384.46 -7.45003 -1.28479 0
M  V30 44292 H 4385.73 -7.39246 -2.47256 0
M  V30 44293 N 4389.96 -0.281037 -1.55074 0
M  V30 44294 C 4390.92 0.590819 -2.21454 0
M  V30 44295 C 4391.92 1.07677 -1.19425 0
M  V30 44296 O 4393.11 0.975999 -1.44291 0
M  V30 44297 C 4390.24 1.81577 -2.88518 0
M  V30 44298 H 4391.43 0.01115 -2.99898 0
M  V30 44299 H 4388.99 -0.0316987 -1.56268 0
M  V30 44300 H 4389.72 2.4358 -2.14101 0
M  V30 44301 H 4389.51 1.47518 -3.63292 0
M  V30 44302 H 4391 2.43563 -3.39215 0
M  V30 44303 N 4391.44 1.57598 -0.00841331 0
M  V30 44304 C 4392.68 1.90554 0.673333 0
M  V30 44305 C 4393 0.883363 1.73844 0
M  V30 44306 O 4392.27 -0.0780753 1.95744 0
M  V30 44307 H 4390.85 0.703321 0.251692 0
M  V30 44308 H 4393.52 1.94832 -0.0513277 0
M  V30 44309 H 4392.61 2.90564 1.13925 0
M  V30 44310 N 4392.91 -0.264465 1.55365 0
M  V30 44311 C 4393.85 -1.35291 1.83771 0
M  V30 44312 C 4394.82 -1.47169 0.691387 0
M  V30 44313 O 4396.01 -1.6366 0.935295 0
M  V30 44314 C 4393.14 -2.7284 2.00689 0
M  V30 44315 C 4392.18 -2.78203 3.23273 0
M  V30 44316 S 4393.01 -2.36584 4.80404 0
M  V30 44317 C 4394.17 -3.76093 5.00305 0
M  V30 44318 H 4394.4 -1.10994 2.75804 0
M  V30 44319 H 4391.94 -0.464544 1.47246 0
M  V30 44320 H 4393.89 -3.52049 2.1112 0
M  V30 44321 H 4392.56 -2.94385 1.09529 0
M  V30 44322 H 4391.75 -3.79179 3.32023 0
M  V30 44323 H 4391.35 -2.07023 3.11476 0
M  V30 44324 H 4393.64 -4.7144 4.86571 0
M  V30 44325 H 4394.59 -3.72289 6.02334 0
M  V30 44326 H 4394.99 -3.67791 4.2824 0
M  V30 44327 N 4394.39 -1.48444 -0.529361 0
M  V30 44328 C 4395.32 -1.65908 -1.64307 0
M  V30 44329 C 4396.3 -0.507954 -1.62339 0
M  V30 44330 O 4397.49 -0.740566 -1.79525 0
M  V30 44331 C 4394.62 -1.69922 -3.02892 0
M  V30 44332 C 4393.57 -2.84541 -3.19719 0
M  V30 44333 C 4392.9 -2.73645 -4.59372 0
M  V30 44334 C 4394.2 -4.25831 -3.02432 0
M  V30 44335 H 4395.89 -2.59146 -1.49946 0
M  V30 44336 H 4393.44 -1.24711 -0.719938 0
M  V30 44337 H 4395.39 -1.80728 -3.80677 0
M  V30 44338 H 4394.11 -0.732636 -3.18277 0
M  V30 44339 H 4392.77 -2.73291 -2.44351 0
M  V30 44340 H 4392.42 -1.74955 -4.71593 0
M  V30 44341 H 4392.12 -3.50557 -4.71575 0
M  V30 44342 H 4393.65 -2.8642 -5.39255 0
M  V30 44343 H 4395.06 -4.37911 -3.70009 0
M  V30 44344 H 4393.46 -5.03746 -3.26128 0
M  V30 44345 H 4394.53 -4.42251 -1.98851 0
M  V30 44346 N 4395.87 0.778281 -1.37042 0
M  V30 44347 C 4397.1 1.56729 -1.35069 0
M  V30 44348 C 4397.51 1.88686 0.0654934 0
M  V30 44349 O 4396.87 1.50963 1.02549 0
M  V30 44350 C 4396.92 2.88155 -2.18286 0
M  V30 44351 O 4396.64 2.5757 -3.54386 0
M  V30 44352 C 4398.14 3.82414 -2.24219 0
M  V30 44353 H 4395.36 0.485762 -0.4629 0
M  V30 44354 H 4397.91 0.965122 -1.80293 0
M  V30 44355 H 4396.06 3.44812 -1.76588 0
M  V30 44356 H 4396.48 3.41685 -3.97934 0
M  V30 44357 H 4397.95 4.71657 -2.86782 0
M  V30 44358 H 4398.43 4.21073 -1.24876 0
M  V30 44359 H 4399.03 3.31688 -2.66201 0
M  V30 44360 N 4397.35 1.21505 1.00371 0
M  V30 44361 C 4398.57 1.05984 1.78276 0
M  V30 44362 C 4399 -0.385929 1.84098 0
M  V30 44363 O 4398.36 -1.27844 1.28552 0
M  V30 44364 C 4398.4 1.66313 3.19957 0
M  V30 44365 O 4397.51 0.909475 4.02247 0
M  V30 44366 H 4396.85 0.372925 0.549384 0
M  V30 44367 H 4399.38 1.61074 1.2616 0
M  V30 44368 H 4399.39 1.70588 3.70626 0
M  V30 44369 H 4398.06 2.71526 3.15034 0
M  V30 44370 H 4396.64 0.941922 3.60808 0
M  V30 44371 N 4398.83 -1.19885 1.023 0
M  V30 44372 C 4399.76 -2.25139 0.619253 0
M  V30 44373 C 4400.74 -1.66053 -0.368857 0
M  V30 44374 O 4401.92 -1.92547 -0.252873 0
M  V30 44375 C 4399.05 -3.47281 -0.0367562 0
M  V30 44376 C 4398.01 -4.19002 0.873012 0
M  V30 44377 C 4397.33 -5.34636 0.0824281 0
M  V30 44378 C 4398.63 -4.74444 2.18404 0
M  V30 44379 H 4400.33 -2.59166 1.49912 0
M  V30 44380 H 4397.87 -1.24577 0.722266 0
M  V30 44381 H 4399.82 -4.201 -0.330811 0
M  V30 44382 H 4398.55 -3.12436 -0.95138 0
M  V30 44383 H 4397.21 -3.48057 1.15117 0
M  V30 44384 H 4396.86 -4.96037 -0.834046 0
M  V30 44385 H 4396.56 -5.83554 0.688354 0
M  V30 44386 H 4398.08 -6.10256 -0.205023 0
M  V30 44387 H 4399.49 -5.39048 1.95191 0
M  V30 44388 H 4397.89 -5.33825 2.74137 0
M  V30 44389 H 4398.96 -3.92834 2.8427 0
M  V30 44390 N 4400.3 -0.80008 -1.35781 0
M  V30 44391 C 4401.55 -0.376667 -1.98559 0
M  V30 44392 C 4401.87 1.05807 -1.63798 0
M  V30 44393 O 4401.14 1.731 -0.917232 0
M  V30 44394 H 4399.72 -0.136286 -0.734462 0
M  V30 44395 H 4402.38 -1.02448 -1.65802 0
M  V30 44396 H 4401.48 -0.47711 -3.08432 0
M  V30 44397 N 4401.78 1.47579 -0.553014 0
M  V30 44398 C 4403.03 2.02481 -0.0273955 0
M  V30 44399 C 4403.36 1.4278 1.32076 0
M  V30 44400 O 4402.61 0.571459 1.87171 0
M  V30 44401 C 4402.91 3.572 0.119603 0
M  V30 44402 C 4402.58 4.358 -1.15712 0
M  V30 44403 C 4401.24 4.56994 -1.50697 0
M  V30 44404 C 4403.59 4.8116 -2.00335 0
M  V30 44405 C 4400.92 5.20798 -2.7016 0
M  V30 44406 C 4403.27 5.46282 -3.18997 0
M  V30 44407 C 4401.93 5.6571 -3.543 0
M  V30 44408 H 4401.2 0.740932 -0.0100247 0
M  V30 44409 H 4403.85 1.77299 -0.723682 0
M  V30 44410 H 4402.16 3.81351 0.898826 0
M  V30 44411 H 4403.85 3.97326 0.541578 0
M  V30 44412 H 4400.44 4.19579 -0.874709 0
M  V30 44413 H 4404.63 4.64568 -1.74615 0
M  V30 44414 H 4399.88 5.34034 -2.97686 0
M  V30 44415 H 4404.06 5.80394 -3.84859 0
M  V30 44416 H 4401.68 6.14921 -4.46964 0
M  V30 44417 N 4403.26 0.289257 1.54923 0
M  V30 44418 C 4404.51 -0.322809 1.99505 0
M  V30 44419 C 4404.83 -1.55309 1.17915 0
M  V30 44420 O 4404.1 -1.94 0.272165 0
M  V30 44421 H 4402.68 -0.122265 0.736926 0
M  V30 44422 H 4405.34 0.397869 1.90796 0
M  V30 44423 H 4404.44 -0.602953 3.0622 0
M  V30 44424 N 4404.74 -1.57591 0.016771 0
M  V30 44425 C 4405.69 -2.05956 -0.978064 0
M  V30 44426 C 4406.67 -0.957578 -1.29303 0
M  V30 44427 O 4407.86 -1.22123 -1.2812 0
M  V30 44428 C 4404.99 -2.58014 -2.26459 0
M  V30 44429 C 4404.08 -3.7512 -1.97853 0
M  V30 44430 N 4404.47 -4.86191 -1.39469 0
M  V30 44431 C 4402.77 -3.83371 -2.2791 0
M  V30 44432 C 4403.47 -5.67507 -1.27715 0
M  V30 44433 N 4402.44 -5.14029 -1.76848 0
M  V30 44434 H 4406.25 -2.89238 -0.52142 0
M  V30 44435 H 4403.76 -1.61302 -0.18854 0
M  V30 44436 H 4405.76 -2.90948 -2.98589 0
M  V30 44437 H 4404.42 -1.76157 -2.72761 0
M  V30 44438 H 4405.43 -5.06699 -1.0713 0
M  V30 44439 H 4402.11 -3.12399 -2.76971 0
M  V30 44440 H 4403.5 -6.66794 -0.826744 0
M  V30 44441 N 4406.22 0.256222 -1.55503 0
M  V30 44442 C 4407.46 0.987017 -1.7716 0
M  V30 44443 C 4407.8 1.85325 -0.58038 0
M  V30 44444 O 4407.07 1.89875 0.42162 0
M  V30 44445 C 4407.35 1.85542 -3.0862 0
M  V30 44446 C 4407.21 1.018 -4.38129 0
M  V30 44447 C 4408.53 2.83958 -3.36238 0
M  V30 44448 H 4405.64 0.357406 -0.644539 0
M  V30 44449 H 4408.29 0.258173 -1.88238 0
M  V30 44450 H 4406.44 2.47685 -2.99307 0
M  V30 44451 H 4408.11 0.415997 -4.5942 0
M  V30 44452 H 4406.35 0.322026 -4.32603 0
M  V30 44453 H 4407.02 1.65921 -5.26473 0
M  V30 44454 H 4409.5 2.31952 -3.45453 0
M  V30 44455 H 4408.37 3.41849 -4.29454 0
M  V30 44456 H 4408.64 3.59946 -2.56694 0
M  V30 44457 N 4407.69 1.48722 0.521481 0
M  V30 44458 C 4408.92 1.61106 1.30612 0
M  V30 44459 C 4409.34 0.274676 1.86084 0
M  V30 44460 O 4408.7 -0.754879 1.64837 0
M  V30 44461 C 4408.75 2.66718 2.42681 0
M  V30 44462 O 4407.85 2.24468 3.45959 0
M  V30 44463 H 4407.2 0.539934 0.38648 0
M  V30 44464 H 4409.73 1.9477 0.626577 0
M  V30 44465 H 4409.74 2.88255 2.88744 0
M  V30 44466 H 4408.41 3.63734 2.01669 0
M  V30 44467 H 4406.99 2.13179 3.05956 0
M  V30 44468 N 4409.17 -0.771003 1.37453 0
M  V30 44469 C 4410.42 -1.52656 1.3244 0
M  V30 44470 C 4410.74 -1.9479 -0.0904339 0
M  V30 44471 O 4410.01 -1.66352 -1.0346 0
M  V30 44472 H 4408.59 -0.566201 0.487264 0
M  V30 44473 H 4411.25 -0.917575 1.71949 0
M  V30 44474 H 4410.35 -2.42561 1.96394 0
M  V30 44475 N 4410.65 -1.22035 -0.997255 0
M  V30 44476 C 4411.58 -1.01073 -2.10491 0
M  V30 44477 C 4412.56 0.0668944 -1.69968 0
M  V30 44478 O 4413.75 -0.0944669 -1.9397 0
M  V30 44479 C 4410.88 -0.582994 -3.42372 0
M  V30 44480 C 4409.83 -1.60606 -3.96724 0
M  V30 44481 C 4409.16 -1.0343 -5.24601 0
M  V30 44482 C 4410.46 -2.99493 -4.27904 0
M  V30 44483 H 4412.15 -1.93716 -2.28286 0
M  V30 44484 H 4409.7 -0.932799 -1.09703 0
M  V30 44485 H 4411.65 -0.423479 -4.19267 0
M  V30 44486 H 4410.37 0.379099 -3.24392 0
M  V30 44487 H 4409.03 -1.75327 -3.21956 0
M  V30 44488 H 4408.68 -0.0636948 -5.0296 0
M  V30 44489 H 4408.38 -1.71774 -5.61932 0
M  V30 44490 H 4409.9 -0.886278 -6.04134 0
M  V30 44491 H 4411.32 -2.8817 -4.95612 0
M  V30 44492 H 4409.72 -3.6492 -4.76396 0
M  V30 44493 H 4410.79 -3.49754 -3.35858 0
M  V30 44494 N 4412.13 1.19341 -1.02934 0
M  V30 44495 C 4413.37 1.89316 -0.72715 0
M  V30 44496 C 4413.71 1.79449 0.74242 0
M  V30 44497 O 4412.98 1.18715 1.54068 0
M  V30 44498 C 4413.27 3.40233 -1.17954 0
M  V30 44499 C 4413.12 3.5897 -2.71037 0
M  V30 44500 C 4414.44 4.33476 -0.760701 0
M  V30 44501 H 4411.56 0.687466 -0.265631 0
M  V30 44502 H 4414.2 1.40473 -1.27935 0
M  V30 44503 H 4412.35 3.81962 -0.709742 0
M  V30 44504 H 4414.02 3.2641 -3.25967 0
M  V30 44505 H 4412.26 3.02007 -3.11406 0
M  V30 44506 H 4412.93 4.64813 -2.97747 0
M  V30 44507 H 4415.41 3.99465 -1.16478 0
M  V30 44508 H 4414.29 5.3766 -1.10512 0
M  V30 44509 H 4414.55 4.40814 0.336908 0
M  V30 44510 N 4413.61 0.80727 1.35355 0
M  V30 44511 C 4414.57 0.223746 2.28105 0
M  V30 44512 C 4415.57 -0.589301 1.49612 0
M  V30 44513 O 4416.76 -0.407686 1.69362 0
M  V30 44514 C 4413.89 -0.688032 3.33885 0
M  V30 44515 H 4415.08 1.04179 2.81224 0
M  V30 44516 H 4412.64 0.577972 1.45221 0
M  V30 44517 H 4413.37 -1.52974 2.85954 0
M  V30 44518 H 4413.16 -0.106732 3.91955 0
M  V30 44519 H 4414.65 -1.09061 4.03107 0
M  V30 44520 N 4415.08 -1.47283 0.560833 0
M  V30 44521 C 4416.01 -2.32858 -0.173023 0
M  V30 44522 C 4417 -1.44012 -0.90523 0
M  V30 44523 O 4418.18 -1.72863 -0.884985 0
M  V30 44524 C 4415.31 -3.25865 -1.20121 0
M  V30 44525 C 4414.26 -4.2398 -0.585238 0
M  V30 44526 C 4413.59 -5.06338 -1.71832 0
M  V30 44527 C 4414.89 -5.20241 0.463361 0
M  V30 44528 H 4416.58 -2.94464 0.541411 0
M  V30 44529 H 4414.13 -1.416 0.261814 0
M  V30 44530 H 4416.08 -3.84575 -1.72279 0
M  V30 44531 H 4414.81 -2.62321 -1.94564 0
M  V30 44532 H 4413.47 -3.66502 -0.0849252 0
M  V30 44533 H 4413.11 -4.39195 -2.45188 0
M  V30 44534 H 4412.81 -5.72767 -1.31193 0
M  V30 44535 H 4414.34 -5.67906 -2.24309 0
M  V30 44536 H 4415.75 -5.73293 0.0277035 0
M  V30 44537 H 4414.15 -5.94893 0.788836 0
M  V30 44538 H 4415.22 -4.65499 1.3579 0
M  V30 44539 N 4416.56 -0.297469 -1.54767 0
M  V30 44540 C 4417.81 0.313306 -2.00365 0
M  V30 44541 C 4418.14 1.5381 -1.18558 0
M  V30 44542 O 4417.42 1.92739 -0.261171 0
M  V30 44543 C 4417.7 0.673401 -3.53748 0
M  V30 44544 C 4417.55 -0.56029 -4.46297 0
M  V30 44545 C 4418.87 1.50128 -4.13702 0
M  V30 44546 H 4415.99 0.112403 -0.728378 0
M  V30 44547 H 4418.63 -0.408865 -1.85549 0
M  V30 44548 H 4416.78 1.28868 -3.66504 0
M  V30 44549 H 4418.45 -1.19879 -4.45451 0
M  V30 44550 H 4416.7 -1.1942 -4.17039 0
M  V30 44551 H 4417.37 -0.264244 -5.51367 0
M  V30 44552 H 4419.84 0.981446 -4.0436 0
M  V30 44553 H 4418.72 1.72203 -5.21189 0
M  V30 44554 H 4418.98 2.48939 -3.65352 0
M  V30 44555 N 4418.04 1.5758 -0.0251282 0
M  V30 44556 C 4418.99 2.06472 0.967128 0
M  V30 44557 C 4419.97 0.964422 1.28793 0
M  V30 44558 O 4421.17 1.22801 1.27471 0
M  V30 44559 C 4418.3 2.59211 2.25088 0
M  V30 44560 C 4417.38 3.76164 1.95861 0
M  V30 44561 N 4417.77 4.86924 1.36888 0
M  V30 44562 C 4416.07 3.84574 2.25874 0
M  V30 44563 C 4416.77 5.68176 1.24704 0
M  V30 44564 N 4415.75 5.1496 1.7412 0
M  V30 44565 H 4419.55 2.8951 0.506074 0
M  V30 44566 H 4417.06 1.614 0.179983 0
M  V30 44567 H 4419.06 2.92527 2.97041 0
M  V30 44568 H 4417.72 1.77601 2.71823 0
M  V30 44569 H 4418.73 5.0726 1.04441 0
M  V30 44570 H 4415.41 3.13864 2.7531 0
M  V30 44571 H 4416.8 6.67223 0.791371 0
M  V30 44572 N 4419.52 -0.247971 1.55637 0
M  V30 44573 C 4420.93 -0.817118 1.67869 0
M  V30 44574 C 4421.28 -1.86067 0.622387 0
M  V30 44575 O 4420.41 -2.15158 -0.231542 0
M  V30 44576 C 4421 -1.48889 3.04331 0
M  V30 44577 C 4419.56 -2.00575 3.18507 0
M  V30 44578 C 4418.71 -0.856481 2.63742 0
M  V30 44579 H 4421.66 -0.0238021 1.58682 0
M  V30 44580 H 4421.68 -2.35688 2.98716 0
M  V30 44581 H 4421.19 -0.729145 3.81189 0
M  V30 44582 H 4419.29 -2.79434 2.46469 0
M  V30 44583 H 4419.4 -2.20387 4.25401 0
M  V30 44584 H 4417.77 -1.2567 2.21538 0
M  V30 44585 H 4418.55 -0.109833 3.43124 0
M  V30 44586 N 4421 -1.48997 -0.513587 0
M  V30 44587 C 4421.93 -1.60842 -1.63287 0
M  V30 44588 C 4422.94 -0.491755 -1.55195 0
M  V30 44589 O 4424.13 -0.763295 -1.61357 0
M  V30 44590 C 4421.23 -1.53741 -3.02021 0
M  V30 44591 C 4420.4 -2.80727 -3.35427 0
M  V30 44592 C 4419.46 -2.66853 -4.53515 0
M  V30 44593 O 4418.49 -3.40769 -4.55922 0
M  V30 44594 N 4419.69 -1.77559 -5.52678 0
M  V30 44595 H 4422.46 -2.57372 -1.53557 0
M  V30 44596 H 4420.02 -1.45927 -0.701208 0
M  V30 44597 H 4422.01 -1.42131 -3.78921 0
M  V30 44598 H 4420.58 -0.651199 -3.05742 0
M  V30 44599 H 4419.8 -3.06781 -2.47546 0
M  V30 44600 H 4421.09 -3.64939 -3.54538 0
M  V30 44601 H 4420.49 -1.16738 -5.53524 0
M  V30 44602 H 4419.04 -1.71878 -6.2873 0
M  V30 44603 N 4422.48 0.763702 -1.3786 0
M  V30 44604 C 4423.44 1.85885 -1.34088 0
M  V30 44605 C 4424.44 1.58948 -0.243333 0
M  V30 44606 O 4425.63 1.66881 -0.499648 0
M  V30 44607 C 4422.76 3.23173 -1.085 0
M  V30 44608 H 4423.95 1.9064 -2.31509 0
M  V30 44609 H 4421.51 0.964323 -1.23006 0
M  V30 44610 H 4422.24 3.24091 -0.116432 0
M  V30 44611 H 4422.03 3.44117 -1.87952 0
M  V30 44612 H 4423.52 4.0325 -1.08531 0
M  V30 44613 N 4423.95 1.22562 0.990769 0
M  V30 44614 C 4425.2 1.05147 1.73062 0
M  V30 44615 C 4425.53 -0.413124 1.90062 0
M  V30 44616 O 4424.78 -1.32252 1.4425 0
M  V30 44617 C 4425.08 1.71022 3.13825 0
M  V30 44618 C 4424.75 3.20922 3.16733 0
M  V30 44619 C 4423.41 3.61823 3.17234 0
M  V30 44620 C 4425.76 4.16857 3.12857 0
M  V30 44621 C 4423.09 4.97138 3.11562 0
M  V30 44622 C 4425.44 5.52151 3.08727 0
M  V30 44623 C 4424.11 5.92429 3.07545 0
M  V30 44624 H 4423.38 0.38476 0.633278 0
M  V30 44625 H 4426.02 1.52354 1.1602 0
M  V30 44626 H 4424.33 1.16147 3.74189 0
M  V30 44627 H 4426.03 1.55036 3.69817 0
M  V30 44628 H 4422.62 2.88356 3.17095 0
M  V30 44629 H 4426.8 3.86274 3.11618 0
M  V30 44630 H 4422.06 5.27573 3.08993 0
M  V30 44631 H 4426.23 6.26212 3.04683 0
M  V30 44632 H 4423.86 6.97247 3.02904 0
M  V30 44633 N 4425.43 -1.18793 1.03566 0
M  V30 44634 C 4426.68 -1.87976 0.731302 0
M  V30 44635 C 4426.99 -1.80914 -0.743607 0
M  V30 44636 O 4428.2 -2.45411 -1.16128 0
M  V30 44637 C 4426.66 -3.37205 1.2578 0
M  V30 44638 C 4426.26 -3.52809 2.76098 0
M  V30 44639 C 4428.01 -4.11821 1.02975 0
M  V30 44640 C 4425.91 -4.95969 3.22131 0
M  V30 44641 H 4424.84 -0.704054 0.26986 0
M  V30 44642 H 4427.5 -1.34262 1.25084 0
M  V30 44643 H 4425.88 -3.90357 0.666148 0
M  V30 44644 H 4427.05 -3.09953 3.40977 0
M  V30 44645 H 4425.37 -2.91592 2.97259 0
M  V30 44646 H 4427.96 -5.17406 1.34887 0
M  V30 44647 H 4428.31 -4.16287 -0.0332082 0
M  V30 44648 H 4428.84 -3.64827 1.58575 0
M  V30 44649 H 4425.58 -4.96669 4.27785 0
M  V30 44650 H 4425.1 -5.39559 2.61984 0
M  V30 44651 H 4426.78 -5.64658 3.15864 0
M  V30 44652 N 4426.91 -0.814437 -1.34925 0
M  V30 44653 C 4427.87 -0.235839 -2.27983 0
M  V30 44654 C 4428.87 0.581359 -1.49923 0
M  V30 44655 O 4430.06 0.398698 -1.69576 0
M  V30 44656 C 4427.19 0.670315 -3.34245 0
M  V30 44657 H 4428.39 -1.05669 -2.80667 0
M  V30 44658 H 4425.94 -0.585665 -1.44913 0
M  V30 44659 H 4426.68 1.51455 -2.86761 0
M  V30 44660 H 4426.46 0.0859444 -3.92006 0
M  V30 44661 H 4427.95 1.06921 -4.0368 0
M  V30 44662 N 4428.39 1.46984 -0.568636 0
M  V30 44663 C 4429.61 2.07334 -0.0521257 0
M  V30 44664 C 4430.04 1.41679 1.23728 0
M  V30 44665 O 4429.4 0.495685 1.74392 0
M  V30 44666 C 4429.44 3.60417 0.114884 0
M  V30 44667 O 4428.55 3.95313 1.17478 0
M  V30 44668 H 4427.89 0.661595 -0.0564618 0
M  V30 44669 H 4430.42 1.88834 -0.787574 0
M  V30 44670 H 4430.43 4.067 0.325501 0
M  V30 44671 H 4429.1 4.07598 -0.826818 0
M  V30 44672 H 4427.68 3.6076 0.943742 0
M  V30 44673 N 4429.87 0.305673 1.54607 0
M  V30 44674 C 4430.8 -0.561402 2.26651 0
M  V30 44675 C 4431.78 -1.1341 1.26776 0
M  V30 44676 O 4432.96 -1.16257 1.55557 0
M  V30 44677 C 4430.09 -1.73111 3.01081 0
M  V30 44678 C 4429.05 -1.28855 4.08143 0
M  V30 44679 C 4428.37 -2.5438 4.70314 0
M  V30 44680 C 4429.67 -0.416395 5.20638 0
M  V30 44681 H 4431.37 0.0394954 2.99374 0
M  V30 44682 H 4428.91 0.0204356 1.43985 0
M  V30 44683 H 4430.86 -2.34383 3.50203 0
M  V30 44684 H 4429.59 -2.35832 2.25944 0
M  V30 44685 H 4428.25 -0.698865 3.59877 0
M  V30 44686 H 4427.9 -3.15425 3.91811 0
M  V30 44687 H 4427.6 -2.25467 5.42622 0
M  V30 44688 H 4429.12 -3.16446 5.22201 0
M  V30 44689 H 4430.53 -0.934918 5.65625 0
M  V30 44690 H 4428.93 -0.220836 5.99694 0
M  V30 44691 H 4430 0.557331 4.81686 0
M  V30 44692 N 4431.34 -1.57564 0.0334847 0
M  V30 44693 C 4432.62 -1.83284 -0.683099 0
M  V30 44694 C 4433 -0.918297 -1.9008 0
M  V30 44695 O 4432.35 0.0250327 -2.28486 0
M  V30 44696 C 4432.56 -3.32603 -1.05718 0
M  V30 44697 C 4433.91 -3.99184 -1.44697 0
M  V30 44698 O 4434.93 -3.37124 -1.15003 0
M  V30 44699 O 4433.79 -5.08572 -2.00042 0
M  V30 44700 H 4430.88 -0.755881 -0.335519 0
M  V30 44701 H 4433.43 -1.69589 0.0614998 0
M  V30 44702 H 4432.2 -3.90835 -0.19069 0
M  V30 44703 H 4431.82 -3.51422 -1.8598 0
M  V30 44704 N 4432.82 0.239714 -1.55766 0
M  V30 44705 C 4434.23 0.808204 -1.683 0
M  V30 44706 C 4434.58 1.85734 -0.632246 0
M  V30 44707 O 4433.71 2.15277 0.220128 0
M  V30 44708 C 4434.3 1.47273 -3.05116 0
M  V30 44709 C 4432.86 1.98884 -3.19566 0
M  V30 44710 C 4432.01 0.842482 -2.64192 0
M  V30 44711 H 4434.96 0.0153864 -1.58693 0
M  V30 44712 H 4434.98 2.341 -2.99962 0
M  V30 44713 H 4434.49 0.708919 -3.8157 0
M  V30 44714 H 4432.59 2.78123 -2.47948 0
M  V30 44715 H 4432.71 2.18128 -4.26564 0
M  V30 44716 H 4431.07 1.24493 -2.22202 0
M  V30 44717 H 4431.85 0.0916346 -3.43178 0
M  V30 44718 N 4434.3 1.49267 0.505678 0
M  V30 44719 C 4435.26 1.6508 1.59 0
M  V30 44720 C 4436.26 0.522821 1.52063 0
M  V30 44721 O 4437.45 0.789172 1.55299 0
M  V30 44722 C 4434.58 1.6438 2.9865 0
M  V30 44723 H 4435.78 2.61789 1.4631 0
M  V30 44724 H 4433.33 1.38228 0.729567 0
M  V30 44725 H 4434.07 0.692384 3.16823 0
M  V30 44726 H 4433.85 2.46293 3.05094 0
M  V30 44727 H 4435.34 1.78687 3.7744 0
M  V30 44728 N 4435.78 -0.756381 1.38263 0
M  V30 44729 C 4436.71 -1.87967 1.31153 0
M  V30 44730 C 4437.72 -1.61247 0.224296 0
M  V30 44731 O 4438.91 -1.71879 0.481641 0
M  V30 44732 C 4436.01 -3.23541 1.00868 0
M  V30 44733 C 4435.19 -3.77786 2.20446 0
M  V30 44734 C 4434.24 -4.91871 1.86948 0
M  V30 44735 O 4433.27 -5.0665 2.59412 0
M  V30 44736 N 4434.47 -5.7464 0.82277 0
M  V30 44737 H 4437.24 -1.94577 2.27947 0
M  V30 44738 H 4434.8 -0.936188 1.32088 0
M  V30 44739 H 4436.79 -3.97401 0.765161 0
M  V30 44740 H 4435.36 -3.12335 0.128797 0
M  V30 44741 H 4434.58 -2.95525 2.6088 0
M  V30 44742 H 4435.87 -4.1076 3.00256 0
M  V30 44743 H 4435.27 -5.65265 0.221774 0
M  V30 44744 H 4433.82 -6.48659 0.639127 0
M  V30 44745 N 4437.26 -1.23086 -0.984255 0
M  V30 44746 C 4438.67 -0.992681 -1.24972 0
M  V30 44747 C 4438.87 0.308548 -1.99124 0
M  V30 44748 O 4437.93 1.02897 -2.30583 0
M  V30 44749 C 4439.24 -2.19706 -2.05304 0
M  V30 44750 C 4440.79 -2.24155 -2.18457 0
M  V30 44751 C 4441.26 -3.44168 -3.02179 0
M  V30 44752 N 4442.76 -3.44383 -3.09765 0
M  V30 44753 C 4443.49 -4.33899 -3.74859 0
M  V30 44754 N 4442.99 -5.33645 -4.41808 0
M  V30 44755 N 4444.78 -4.21652 -3.71707 0
M  V30 44756 H 4436.93 -2.06733 -0.487381 0
M  V30 44757 H 4439.19 -0.906349 -0.277912 0
M  V30 44758 H 4438.9 -3.14116 -1.5819 0
M  V30 44759 H 4438.77 -2.20475 -3.06056 0
M  V30 44760 H 4441.16 -1.30287 -2.64782 0
M  V30 44761 H 4441.24 -2.27419 -1.17107 0
M  V30 44762 H 4440.89 -4.38341 -2.56553 0
M  V30 44763 H 4440.82 -3.38144 -4.03691 0
M  V30 44764 H 4443.31 -2.72211 -2.62126 0
M  V30 44765 H 4443.62 -5.98214 -4.89245 0
M  V30 44766 H 4441.96 -5.37549 -4.40529 0
M  V30 44767 H 4445.16 -3.42973 -3.1857 0
M  V30 44768 H 4445.33 -4.91618 -4.22156 0
M  V30 44769 N 4438.73 1.18243 -1.04194 0
M  V30 44770 C 4439.7 2.20126 -0.638529 0
M  V30 44771 C 4440.7 1.57886 0.304749 0
M  V30 44772 O 4441.89 1.73967 0.0899757 0
M  V30 44773 C 4439.02 3.40841 0.0636553 0
M  V30 44774 H 4440.21 2.57331 -1.54016 0
M  V30 44775 H 4437.77 1.32149 -0.834644 0
M  V30 44776 H 4438.5 3.09169 0.979027 0
M  V30 44777 H 4438.29 3.87257 -0.614334 0
M  V30 44778 H 4439.78 4.16275 0.332366 0
M  V30 44779 N 4440.21 0.821581 1.34491 0
M  V30 44780 C 4441.49 0.331658 1.92768 0
M  V30 44781 C 4441.87 -1.18082 1.74986 0
M  V30 44782 O 4441.22 -1.98729 1.12779 0
M  V30 44783 C 4441.43 0.759518 3.40635 0
M  V30 44784 C 4442.78 0.75758 4.17787 0
M  V30 44785 O 4443.8 0.702013 3.49214 0
M  V30 44786 O 4442.66 0.829551 5.40167 0
M  V30 44787 H 4439.75 0.0902791 0.822058 0
M  V30 44788 H 4442.3 0.906281 1.43473 0
M  V30 44789 H 4441.07 1.80133 3.47373 0
M  V30 44790 H 4440.69 0.160517 3.97276 0
M  V30 44791 N 4441.69 -1.4668 0.576422 0
M  V30 44792 C 4442.92 -2.06498 0.0649419 0
M  V30 44793 C 4443.33 -1.4267 -1.24266 0
M  V30 44794 O 4442.67 -0.523948 -1.7607 0
M  V30 44795 C 4442.73 -3.59041 -0.18169 0
M  V30 44796 C 4442.4 -4.45024 1.03936 0
M  V30 44797 C 4443.39 -4.81952 1.94983 0
M  V30 44798 C 4441.08 -4.86254 1.25944 0
M  V30 44799 C 4443.07 -5.58931 3.0639 0
M  V30 44800 C 4440.76 -5.62994 2.37658 0
M  V30 44801 C 4441.76 -5.99245 3.27711 0
M  V30 44802 O 4441.45 -6.74435 4.37485 0
M  V30 44803 H 4441.18 -0.674026 0.0516224 0
M  V30 44804 H 4443.73 -1.8939 0.795017 0
M  V30 44805 H 4441.96 -3.74432 -0.966304 0
M  V30 44806 H 4443.65 -4.00808 -0.640906 0
M  V30 44807 H 4444.42 -4.50683 1.79193 0
M  V30 44808 H 4440.3 -4.57492 0.567609 0
M  V30 44809 H 4443.84 -5.87145 3.76705 0
M  V30 44810 H 4439.74 -5.93677 2.53413 0
M  V30 44811 H 4440.51 -6.92852 4.35773 0
M  V30 44812 N 4443.17 -0.313868 -1.54443 0
M  V30 44813 C 4444.1 0.590347 -2.21467 0
M  V30 44814 C 4445.11 1.08749 -1.21151 0
M  V30 44815 O 4446.3 1.00273 -1.47674 0
M  V30 44816 C 4443.4 1.82169 -2.85776 0
M  V30 44817 C 4442.58 1.46488 -4.12141 0
M  V30 44818 C 4441.63 2.55272 -4.60133 0
M  V30 44819 O 4440.66 2.19823 -5.25039 0
M  V30 44820 N 4441.86 3.86037 -4.33538 0
M  V30 44821 H 4444.63 0.0164979 -2.99695 0
M  V30 44822 H 4442.19 -0.136635 -1.61322 0
M  V30 44823 H 4444.18 2.54317 -3.1481 0
M  V30 44824 H 4442.75 2.30362 -2.11311 0
M  V30 44825 H 4441.97 0.575458 -3.89977 0
M  V30 44826 H 4443.26 1.20204 -4.94397 0
M  V30 44827 H 4442.66 4.1764 -3.81566 0
M  V30 44828 H 4441.21 4.54445 -4.67251 0
M  V30 44829 N 4444.65 1.57544 -0.0418402 0
M  V30 44830 C 4446.06 1.56468 0.314649 0
M  V30 44831 C 4446.26 1.04866 1.72062 0
M  V30 44832 O 4445.32 0.701068 2.42572 0
M  V30 44833 C 4446.63 3.00317 0.151634 0
M  V30 44834 C 4448.18 3.12201 0.223444 0
M  V30 44835 C 4448.65 4.57913 0.0890685 0
M  V30 44836 N 4450.15 4.62971 0.145645 0
M  V30 44837 C 4450.88 5.73362 0.0656443 0
M  V30 44838 N 4450.38 6.92768 -0.0661717 0
M  V30 44839 N 4452.17 5.61971 0.120553 0
M  V30 44840 H 4444.32 1.89412 -0.961081 0
M  V30 44841 H 4446.58 0.871849 -0.372267 0
M  V30 44842 H 4446.29 3.4207 -0.817375 0
M  V30 44843 H 4446.16 3.65895 0.916564 0
M  V30 44844 H 4448.55 2.70354 1.18292 0
M  V30 44845 H 4448.63 2.49321 -0.572081 0
M  V30 44846 H 4448.28 5.00445 -0.867043 0
M  V30 44847 H 4448.21 5.18789 0.90362 0
M  V30 44848 H 4450.7 3.77091 0.247153 0
M  V30 44849 H 4451.01 7.72707 -0.120177 0
M  V30 44850 H 4449.35 6.94926 -0.101129 0
M  V30 44851 H 4452.55 4.67573 0.222023 0
M  V30 44852 H 4452.72 6.47977 0.0547457 0
M  V30 44853 N 4446.12 -0.23145 1.55891 0
M  V30 44854 C 4447.54 -0.580696 1.48661 0
M  V30 44855 C 4447.74 -1.87615 0.735046 0
M  V30 44856 O 4446.8 -2.51045 0.270674 0
M  V30 44857 C 4448.11 -0.669099 2.93161 0
M  V30 44858 C 4449.66 -0.760392 3.03623 0
M  V30 44859 C 4450.13 -0.880225 4.49462 0
M  V30 44860 N 4451.62 -0.944702 4.53464 0
M  V30 44861 C 4452.36 -1.05696 5.63574 0
M  V30 44862 N 4451.85 -1.13379 6.8346 0
M  V30 44863 N 4453.65 -1.09132 5.51404 0
M  V30 44864 H 4445.8 0.618767 2.03187 0
M  V30 44865 H 4448.06 0.215761 0.92312 0
M  V30 44866 H 4447.77 0.213027 3.51054 0
M  V30 44867 H 4447.64 -1.53598 3.44511 0
M  V30 44868 H 4450.03 -1.63296 2.45801 0
M  V30 44869 H 4450.11 0.131954 2.55459 0
M  V30 44870 H 4449.75 -0.0121499 5.07899 0
M  V30 44871 H 4449.68 -1.78784 4.95322 0
M  V30 44872 H 4452.17 -0.896047 3.67123 0
M  V30 44873 H 4452.49 -1.21894 7.63126 0
M  V30 44874 H 4450.83 -1.10309 6.8619 0
M  V30 44875 H 4454.02 -1.02789 4.56675 0
M  V30 44876 H 4454.2 -1.17536 6.37251 0
M  V30 44877 N 4447.6 -1.49533 -0.497755 0
M  V30 44878 C 4448.57 -1.65921 -1.58123 0
M  V30 44879 C 4449.57 -0.530878 -1.51784 0
M  V30 44880 O 4450.76 -0.797397 -1.54878 0
M  V30 44881 C 4447.89 -1.65961 -2.97774 0
M  V30 44882 H 4449.08 -2.62561 -1.4492 0
M  V30 44883 H 4446.63 -1.38613 -0.722226 0
M  V30 44884 H 4447.37 -0.709176 -3.16451 0
M  V30 44885 H 4447.15 -2.47907 -3.03784 0
M  V30 44886 H 4448.64 -1.80686 -3.76487 0
M  V30 44887 N 4449.08 0.749038 -1.38662 0
M  V30 44888 C 4450.36 1.49916 -1.25637 0
M  V30 44889 C 4450.74 2.10634 0.140243 0
M  V30 44890 O 4450.09 1.97442 1.15018 0
M  V30 44891 C 4450.3 2.56186 -2.37001 0
M  V30 44892 C 4451.64 3.22963 -2.75645 0
M  V30 44893 O 4452.67 2.66493 -2.36347 0
M  V30 44894 O 4451.53 4.25109 -3.4343 0
M  V30 44895 H 4448.62 0.665049 -0.491567 0
M  V30 44896 H 4451.17 0.78406 -1.50501 0
M  V30 44897 H 4449.94 2.09601 -3.30429 0
M  V30 44898 H 4449.56 3.35272 -2.13726 0
M  V30 44899 N 4450.56 1.23606 0.977714 0
M  V30 44900 C 4451.52 1.02076 2.05215 0
M  V30 44901 C 4452.52 -0.018374 1.6079 0
M  V30 44902 O 4453.71 0.22163 1.72784 0
M  V30 44903 C 4450.84 0.545045 3.36515 0
M  V30 44904 H 4452.04 1.97428 2.25748 0
M  V30 44905 H 4449.59 1.05688 1.15151 0
M  V30 44906 H 4450.33 -0.412128 3.21671 0
M  V30 44907 H 4450.11 1.29493 3.701 0
M  V30 44908 H 4451.6 0.415131 4.15531 0
M  V30 44909 N 4452.04 -1.17688 1.0482 0
M  V30 44910 C 4453.45 -1.3986 0.768843 0
M  V30 44911 C 4453.65 -1.9112 -0.638384 0
M  V30 44912 O 4452.71 -2.10041 -1.40139 0
M  V30 44913 C 4454.02 -2.39268 1.8213 0
M  V30 44914 C 4455.57 -2.52981 1.84309 0
M  V30 44915 C 4456.05 -3.55659 2.88567 0
M  V30 44916 N 4457.54 -3.63173 2.87506 0
M  V30 44917 C 4458.27 -4.42368 3.64827 0
M  V30 44918 N 4457.77 -5.25109 4.51921 0
M  V30 44919 N 4459.56 -4.37205 3.53283 0
M  V30 44920 H 4451.71 -0.827451 1.9562 0
M  V30 44921 H 4453.97 -0.426093 0.846846 0
M  V30 44922 H 4453.68 -2.08668 2.83109 0
M  V30 44923 H 4453.55 -3.3872 1.65978 0
M  V30 44924 H 4455.94 -2.82893 0.839969 0
M  V30 44925 H 4456.02 -1.53616 2.04538 0
M  V30 44926 H 4455.67 -3.26486 3.89062 0
M  V30 44927 H 4455.6 -4.54719 2.65591 0
M  V30 44928 H 4458.09 -3.04095 2.24353 0
M  V30 44929 H 4458.4 -5.8271 5.07611 0
M  V30 44930 H 4456.75 -5.24503 4.55984 0
M  V30 44931 H 4459.94 -3.71616 2.84638 0
M  V30 44932 H 4460.11 -4.98681 4.13789 0
M  V30 44933 N 4453.52 -0.828702 -1.34053 0
M  V30 44934 C 4454.45 -0.269524 -2.31939 0
M  V30 44935 C 4455.43 0.617192 -1.58508 0
M  V30 44936 O 4456.61 0.542865 -1.86458 0
M  V30 44937 C 4453.74 0.564672 -3.42679 0
M  V30 44938 C 4452.7 -0.225391 -4.27406 0
M  V30 44939 C 4452.02 0.731914 -5.29667 0
M  V30 44940 C 4453.32 -1.43681 -5.02149 0
M  V30 44941 H 4455.02 -1.08738 -2.78956 0
M  V30 44942 H 4452.56 -0.52433 -1.34115 0
M  V30 44943 H 4454.51 0.966089 -4.10176 0
M  V30 44944 H 4453.24 1.41564 -2.94325 0
M  V30 44945 H 4451.9 -0.608244 -3.61519 0
M  V30 44946 H 4451.55 1.579 -4.77574 0
M  V30 44947 H 4451.25 0.207463 -5.87234 0
M  V30 44948 H 4452.77 1.13106 -6.00033 0
M  V30 44949 H 4454.18 -1.1091 -5.6247 0
M  V30 44950 H 4452.58 -1.89731 -5.69317 0
M  V30 44951 H 4453.65 -2.21197 -4.31509 0
M  V30 44952 N 4454.99 1.46373 -0.584193 0
M  V30 44953 C 4455.92 2.33104 0.135955 0
M  V30 44954 C 4456.9 1.45434 0.882204 0
M  V30 44955 O 4458.09 1.74249 0.857372 0
M  V30 44956 C 4455.22 3.27735 1.14922 0
M  V30 44957 C 4454.17 4.24857 0.517713 0
M  V30 44958 C 4453.5 5.09007 1.63755 0
M  V30 44959 C 4454.8 5.19438 -0.546068 0
M  V30 44960 H 4456.49 2.93565 -0.588189 0
M  V30 44961 H 4454.04 1.41165 -0.284308 0
M  V30 44962 H 4455.99 3.87267 1.66139 0
M  V30 44963 H 4454.72 2.65384 1.90366 0
M  V30 44964 H 4453.38 3.6659 0.0266072 0
M  V30 44965 H 4453.02 4.4304 2.38169 0
M  V30 44966 H 4452.72 5.74782 1.22065 0
M  V30 44967 H 4454.25 5.71403 2.15246 0
M  V30 44968 H 4455.66 5.73177 -0.118906 0
M  V30 44969 H 4454.06 5.93562 -0.883379 0
M  V30 44970 H 4455.13 4.6328 -1.43178 0
M  V30 44971 N 4456.47 0.322054 1.54274 0
M  V30 44972 C 4457.43 -0.531896 2.22943 0
M  V30 44973 C 4458.43 -1.04473 1.22237 0
M  V30 44974 O 4459.62 -0.9374 1.46828 0
M  V30 44975 C 4456.76 -1.73864 2.93231 0
M  V30 44976 H 4457.95 0.0683666 2.99822 0
M  V30 44977 H 4455.5 0.0731193 1.56129 0
M  V30 44978 H 4456.24 -2.37818 2.20484 0
M  V30 44979 H 4456.02 -1.37834 3.67075 0
M  V30 44980 H 4457.51 -2.34484 3.45553 0
M  V30 44981 N 4457.95 -1.5752 0.0501946 0
M  V30 44982 C 4459.2 -1.92272 -0.622574 0
M  V30 44983 C 4459.52 -0.929144 -1.71441 0
M  V30 44984 O 4458.79 0.0261497 -1.95883 0
M  V30 44985 H 4457.37 -0.709747 -0.232956 0
M  V30 44986 H 4460.03 -1.94628 0.102966 0
M  V30 44987 H 4459.13 -2.93483 -1.06181 0
M  V30 44988 N 4459.43 0.223179 -1.56012 0
M  V30 44989 C 4460.36 1.3 -1.88766 0
M  V30 44990 C 4461.37 1.43127 -0.775796 0
M  V30 44991 O 4462.56 1.44053 -1.05408 0
M  V30 44992 C 4459.66 2.67581 -2.07975 0
M  V30 44993 C 4458.83 2.76422 -3.38983 0
M  V30 44994 C 4457.89 3.95007 -3.47643 0
M  V30 44995 O 4456.92 3.83422 -4.20686 0
M  V30 44996 N 4458.12 5.0924 -2.78667 0
M  V30 44997 H 4460.89 1.02228 -2.81726 0
M  V30 44998 H 4458.45 0.413223 -1.56538 0
M  V30 44999 H 4460.44 3.4529 -2.11085 0
M  V30 45000 H 4459.01 2.87959 -1.21648 0
M  V30 45001 H 4458.23 1.85204 -3.47984 0
M  V30 45002 H 4459.52 2.79298 -4.25288 0
M  V30 45003 H 4458.92 5.21548 -2.19099 0
M  V30 45004 H 4457.47 5.84997 -2.87441 0
M  V30 45005 N 4460.91 1.49795 0.489818 0
M  V30 45006 C 4462.32 1.36806 0.821974 0
M  V30 45007 C 4462.52 0.409722 1.9729 0
M  V30 45008 O 4461.58 -0.154525 2.52027 0
M  V30 45009 C 4462.89 2.77772 1.15166 0
M  V30 45010 C 4464.44 2.86553 1.25921 0
M  V30 45011 C 4464.91 4.28312 1.62213 0
M  V30 45012 N 4466.4 4.31175 1.6924 0
M  V30 45013 C 4467.14 5.37839 1.98788 0
M  V30 45014 N 4466.64 6.54734 2.26484 0
M  V30 45015 N 4468.43 5.25265 2.00133 0
M  V30 45016 H 4460.58 2.1069 -0.268955 0
M  V30 45017 H 4462.84 0.946239 -0.0577613 0
M  V30 45018 H 4462.55 3.4965 0.379212 0
M  V30 45019 H 4462.42 3.13843 2.09242 0
M  V30 45020 H 4464.81 2.14906 2.02236 0
M  V30 45021 H 4464.89 2.5405 0.298686 0
M  V30 45022 H 4464.53 5.0049 0.864446 0
M  V30 45023 H 4464.46 4.58288 2.59384 0
M  V30 45024 H 4466.96 3.46876 1.49952 0
M  V30 45025 H 4467.27 7.31841 2.4825 0
M  V30 45026 H 4465.61 6.57941 2.23916 0
M  V30 45027 H 4468.8 4.32944 1.7798 0
M  V30 45028 H 4468.98 6.08484 2.22826 0
M  V30 45029 N 4462.38 -0.741673 1.39057 0
M  V30 45030 C 4463.8 -1.04634 1.20515 0
M  V30 45031 C 4464 -2.01404 0.0620926 0
M  V30 45032 O 4463.06 -2.45549 -0.58837 0
M  V30 45033 C 4464.37 -1.61501 2.53649 0
M  V30 45034 C 4465.92 -1.73614 2.60436 0
M  V30 45035 C 4466.39 -2.33892 3.93775 0
M  V30 45036 N 4467.88 -2.41309 3.95379 0
M  V30 45037 C 4468.62 -2.88871 4.95319 0
M  V30 45038 N 4468.11 -3.36379 6.05657 0
M  V30 45039 N 4469.91 -2.8802 4.82702 0
M  V30 45040 H 4462.06 -0.0997409 2.12166 0
M  V30 45041 H 4464.32 -0.106874 0.941956 0
M  V30 45042 H 4464.03 -0.978621 3.3781 0
M  V30 45043 H 4463.9 -2.60401 2.72894 0
M  V30 45044 H 4466.29 -2.36377 1.76663 0
M  V30 45045 H 4466.37 -0.733858 2.45047 0
M  V30 45046 H 4466.01 -1.71759 4.77976 0
M  V30 45047 H 4465.94 -3.34785 4.06481 0
M  V30 45048 H 4468.43 -2.07723 3.15689 0
M  V30 45049 H 4468.75 -3.71162 6.77834 0
M  V30 45050 H 4467.09 -3.34405 6.0926 0
M  V30 45051 H 4470.28 -2.50223 3.95608 0
M  V30 45052 H 4470.46 -3.24773 5.60738 0
M  V30 45053 N 4463.86 -1.24123 -0.971145 0
M  V30 45054 C 4464.79 -1.05515 -2.083 0
M  V30 45055 C 4465.77 0.0308266 -1.70072 0
M  V30 45056 O 4466.96 -0.13559 -1.93726 0
M  V30 45057 C 4464.09 -0.655485 -3.41058 0
M  V30 45058 C 4463.04 -1.68985 -3.93228 0
M  V30 45059 C 4462.37 -1.14535 -5.22289 0
M  V30 45060 C 4463.67 -3.08502 -4.21455 0
M  V30 45061 H 4465.36 -1.98515 -2.24125 0
M  V30 45062 H 4462.91 -0.955859 -1.077 0
M  V30 45063 H 4464.86 -0.512317 -4.18274 0
M  V30 45064 H 4463.58 0.310205 -3.25123 0
M  V30 45065 H 4462.24 -1.82117 -3.18165 0
M  V30 45066 H 4461.89 -0.170366 -5.02711 0
M  V30 45067 H 4461.59 -1.83654 -5.58162 0
M  V30 45068 H 4463.12 -1.01422 -6.02118 0
M  V30 45069 H 4464.53 -2.98618 -4.89388 0
M  V30 45070 H 4462.93 -3.74943 -4.68549 0
M  V30 45071 H 4464 -3.56799 -3.28363 0
M  V30 45072 N 4465.34 1.17131 -1.05443 0
M  V30 45073 C 4466.3 2.19436 -0.661841 0
M  V30 45074 C 4467.3 1.582 0.287986 0
M  V30 45075 O 4468.49 1.74053 0.0715191 0
M  V30 45076 C 4465.63 3.40889 0.027501 0
M  V30 45077 H 4466.82 2.55683 -1.56737 0
M  V30 45078 H 4464.37 1.31256 -0.848613 0
M  V30 45079 H 4465.11 3.1019 0.94618 0
M  V30 45080 H 4464.89 3.86584 -0.655374 0
M  V30 45081 H 4466.38 4.16604 0.288196 0
M  V30 45082 N 4466.82 0.835799 1.33612 0
M  V30 45083 C 4468.04 0.44246 2.02625 0
M  V30 45084 C 4468.47 -0.947678 1.62483 0
M  V30 45085 O 4467.83 -1.61904 0.815882 0
M  V30 45086 C 4467.87 0.567341 3.56109 0
M  V30 45087 O 4466.98 -0.407654 4.1038 0
M  V30 45088 H 4466.32 0.1803 0.639052 0
M  V30 45089 H 4468.85 1.12978 1.70579 0
M  V30 45090 H 4468.86 0.447851 4.05535 0
M  V30 45091 H 4467.53 1.58116 3.84671 0
M  V30 45092 H 4466.11 -0.245976 3.72088 0
M  V30 45093 N 4468.3 -1.46061 0.591947 0
M  V30 45094 C 4469.26 -2.28854 -0.125893 0
M  V30 45095 C 4470.26 -1.38905 -0.810058 0
M  V30 45096 O 4471.45 -1.61188 -0.660604 0
M  V30 45097 C 4468.58 -3.1953 -1.18799 0
M  V30 45098 H 4469.77 -2.93799 0.60182 0
M  V30 45099 H 4467.33 -1.52324 0.350308 0
M  V30 45100 H 4468.06 -2.59352 -1.94698 0
M  V30 45101 H 4467.85 -3.85768 -0.7018 0
M  V30 45102 H 4469.34 -3.81823 -1.69119 0
M  V30 45103 N 4469.77 -0.330231 -1.54101 0
M  V30 45104 C 4471.02 0.271265 -1.99868 0
M  V30 45105 C 4471.34 1.52719 -1.22214 0
M  V30 45106 O 4472.54 2.2051 -1.58391 0
M  V30 45107 C 4471 0.533907 -3.55918 0
M  V30 45108 C 4470.61 -0.705349 -4.42413 0
M  V30 45109 C 4472.35 1.09499 -4.10134 0
M  V30 45110 C 4470.26 -0.414242 -5.89947 0
M  V30 45111 H 4469.19 0.10514 -0.746634 0
M  V30 45112 H 4471.84 -0.443492 -1.7806 0
M  V30 45113 H 4470.22 1.30902 -3.73739 0
M  V30 45114 H 4471.39 -1.48055 -4.36367 0
M  V30 45115 H 4469.71 -1.18712 -3.9912 0
M  V30 45116 H 4472.31 1.32752 -5.17958 0
M  V30 45117 H 4472.65 2.04643 -3.62529 0
M  V30 45118 H 4473.18 0.380899 -3.95972 0
M  V30 45119 H 4469.92 -1.33504 -6.41761 0
M  V30 45120 H 4469.44 0.323125 -5.98929 0
M  V30 45121 H 4471.12 -0.0265379 -6.46995 0
M  V30 45122 N 4471.25 1.57491 -0.0585476 0
M  V30 45123 C 4472.22 2.10853 0.898543 0
M  V30 45124 C 4473.22 1.02968 1.23508 0
M  V30 45125 O 4474.41 1.29012 1.17054 0
M  V30 45126 C 4471.54 2.59889 2.20614 0
M  V30 45127 H 4472.73 2.96716 0.435831 0
M  V30 45128 H 4470.28 1.55141 0.189968 0
M  V30 45129 H 4471.02 1.7744 2.71451 0
M  V30 45130 H 4470.8 3.38734 1.97489 0
M  V30 45131 H 4472.29 3.01295 2.89156 0
M  V30 45132 N 4472.73 -0.214903 1.56128 0
M  V30 45133 C 4473.98 -0.936455 1.79095 0
M  V30 45134 C 4474.3 -1.84604 0.628213 0
M  V30 45135 O 4473.57 -1.92665 -0.354552 0
M  V30 45136 H 4472.15 -0.348777 0.660578 0
M  V30 45137 H 4474.81 -0.225162 1.93595 0
M  V30 45138 H 4473.91 -1.53933 2.71498 0
M  V30 45139 N 4474.21 -1.50053 -0.481867 0
M  V30 45140 C 4475.46 -1.60185 -1.23228 0
M  V30 45141 C 4475.78 -0.299244 -1.9269 0
M  V30 45142 O 4475.05 0.682643 -1.83621 0
M  V30 45143 H 4473.63 -0.590248 -0.457839 0
M  V30 45144 H 4476.29 -1.86777 -0.556815 0
M  V30 45145 H 4475.39 -2.4076 -1.98598 0
M  V30 45146 N 4475.69 0.734288 -1.39449 0
M  V30 45147 C 4476.65 1.82999 -1.38 0
M  V30 45148 C 4477.65 1.58396 -0.276994 0
M  V30 45149 O 4478.84 1.65783 -0.534933 0
M  V30 45150 C 4475.97 3.20798 -1.15331 0
M  V30 45151 H 4477.16 1.85686 -2.35501 0
M  V30 45152 H 4474.72 0.938015 -1.25024 0
M  V30 45153 H 4475.45 3.23771 -0.18515 0
M  V30 45154 H 4475.24 3.40053 -1.95209 0
M  V30 45155 H 4476.73 4.00857 -1.1706 0
M  V30 45156 N 4477.16 1.24636 0.964549 0
M  V30 45157 C 4478.58 1.0805 1.52256 0
M  V30 45158 C 4478.93 -0.347048 1.93106 0
M  V30 45159 O 4478.05 -1.23582 1.77642 0
M  V30 45160 C 4478.65 1.95523 2.76688 0
M  V30 45161 C 4477.21 1.83152 3.28835 0
M  V30 45162 C 4476.35 1.90269 2.01725 0
M  V30 45163 H 4479.3 1.38067 0.782504 0
M  V30 45164 H 4479.32 1.48937 3.5014 0
M  V30 45165 H 4478.84 2.99415 2.46925 0
M  V30 45166 H 4476.94 0.821047 3.63441 0
M  V30 45167 H 4477.05 2.6742 3.97522 0
M  V30 45168 H 4475.41 1.34035 2.1658 0
M  V30 45169 H 4476.2 2.95747 1.74324 0
M  V30 45170 N 4478.64 -1.1657 1.06062 0
M  V30 45171 C 4479.58 -2.19796 0.613597 0
M  V30 45172 C 4480.55 -1.5851 -0.362397 0
M  V30 45173 O 4481.74 -1.86528 -0.271928 0
M  V30 45174 C 4478.86 -3.3855 -0.100796 0
M  V30 45175 C 4477.91 -4.18314 0.831585 0
M  V30 45176 S 4478.74 -4.82367 2.32556 0
M  V30 45177 C 4479.9 -6.04502 1.62259 0
M  V30 45178 H 4480.13 -2.57375 1.48814 0
M  V30 45179 H 4477.67 -1.27324 0.873382 0
M  V30 45180 H 4479.62 -4.0736 -0.506755 0
M  V30 45181 H 4478.28 -2.99341 -0.951498 0
M  V30 45182 H 4477.48 -5.03231 0.278248 0
M  V30 45183 H 4477.08 -3.54986 1.17732 0
M  V30 45184 H 4479.37 -6.7113 0.926858 0
M  V30 45185 H 4480.31 -6.64381 2.44957 0
M  V30 45186 H 4480.72 -5.53555 1.10619 0
M  V30 45187 N 4480.12 -0.842873 -1.33167 0
M  V30 45188 C 4481.35 -0.453468 -2.01562 0
M  V30 45189 C 4481.76 0.951089 -1.63557 0
M  V30 45190 O 4481.1 1.63018 -0.846803 0
M  V30 45191 C 4481.16 -0.499138 -3.56018 0
M  V30 45192 C 4480.83 -1.86051 -4.17413 0
M  V30 45193 C 4481.83 -2.82431 -4.36496 0
M  V30 45194 C 4479.51 -2.15444 -4.5375 0
M  V30 45195 C 4481.5 -4.06364 -4.91067 0
M  V30 45196 C 4479.19 -3.39633 -5.08028 0
M  V30 45197 C 4480.19 -4.34909 -5.26634 0
M  V30 45198 O 4479.88 -5.569 -5.79757 0
M  V30 45199 H 4479.61 -0.177894 -0.652173 0
M  V30 45200 H 4482.16 -1.13814 -1.70984 0
M  V30 45201 H 4480.39 0.242332 -3.8594 0
M  V30 45202 H 4482.08 -0.126995 -4.05701 0
M  V30 45203 H 4482.85 -2.61024 -4.08768 0
M  V30 45204 H 4478.73 -1.42077 -4.3856 0
M  V30 45205 H 4482.27 -4.80739 -5.05505 0
M  V30 45206 H 4478.17 -3.60895 -5.35187 0
M  V30 45207 H 4478.94 -5.58695 -5.98166 0
M  V30 45208 N 4481.6 1.45745 -0.599685 0
M  V30 45209 C 4482.53 2.28628 0.161798 0
M  V30 45210 C 4483.54 1.39497 0.839318 0
M  V30 45211 O 4484.73 1.63943 0.706032 0
M  V30 45212 C 4481.83 3.15019 1.24965 0
M  V30 45213 C 4481.01 4.3238 0.660783 0
M  V30 45214 C 4480.07 5.00039 1.63851 0
M  V30 45215 O 4479.09 5.57089 1.16791 0
M  V30 45216 N 4480.29 4.98599 2.97286 0
M  V30 45217 H 4483.06 2.94622 -0.549369 0
M  V30 45218 H 4480.62 1.55845 -0.438619 0
M  V30 45219 H 4482.61 3.57146 1.90338 0
M  V30 45220 H 4481.18 2.50987 1.86345 0
M  V30 45221 H 4480.4 3.9383 -0.170827 0
M  V30 45222 H 4481.69 5.08198 0.24744 0
M  V30 45223 H 4481.09 4.53525 3.38129 0
M  V30 45224 H 4479.64 5.44616 3.58102 0
M  V30 45225 N 4483.08 0.338398 1.53924 0
M  V30 45226 C 4484.49 -0.0137175 1.59594 0
M  V30 45227 C 4484.69 -1.49181 1.35452 0
M  V30 45228 O 4483.75 -2.24983 1.14624 0
M  V30 45229 C 4485.06 0.417834 2.97783 0
M  V30 45230 C 4486.61 0.369742 3.10808 0
M  V30 45231 C 4487.09 0.776683 4.51366 0
M  V30 45232 N 4488.58 0.730667 4.57401 0
M  V30 45233 C 4489.31 1.01756 5.64299 0
M  V30 45234 N 4488.81 1.37234 6.79072 0
M  V30 45235 N 4490.6 0.942136 5.54148 0
M  V30 45236 H 4482.75 1.30126 1.67872 0
M  V30 45237 H 4485.01 0.530109 0.785931 0
M  V30 45238 H 4484.72 1.44823 3.20499 0
M  V30 45239 H 4484.59 -0.209596 3.76617 0
M  V30 45240 H 4486.98 -0.651467 2.87819 0
M  V30 45241 H 4487.06 1.03231 2.34045 0
M  V30 45242 H 4486.71 1.79588 4.7509 0
M  V30 45243 H 4486.64 0.09165 5.2652 0
M  V30 45244 H 4489.13 0.468915 3.74979 0
M  V30 45245 H 4489.44 1.57623 7.56555 0
M  V30 45246 H 4487.79 1.41074 6.80531 0
M  V30 45247 H 4490.98 0.664347 4.63362 0
M  V30 45248 H 4491.15 1.16907 6.37367 0
M  V30 45249 N 4484.56 -1.57458 0.0668989 0
M  V30 45250 C 4485.97 -1.80778 -0.466494 0
M  V30 45251 C 4486.32 -0.98042 -1.69948 0
M  V30 45252 O 4485.44 -0.201517 -2.1546 0
M  V30 45253 C 4486.04 -3.27884 -0.853095 0
M  V30 45254 C 4484.6 -3.52067 -1.33138 0
M  V30 45255 C 4483.74 -2.75515 -0.314167 0
M  V30 45256 H 4486.69 -1.55979 0.292643 0
M  V30 45257 H 4486.72 -3.39665 -1.71488 0
M  V30 45258 H 4486.23 -3.88075 0.0444803 0
M  V30 45259 H 4484.33 -2.97175 -2.24762 0
M  V30 45260 H 4484.44 -4.60766 -1.31268 0
M  V30 45261 H 4482.81 -2.42125 -0.790407 0
M  V30 45262 H 4483.59 -3.3844 0.575596 0
M  V30 45263 N 4486.03 0.20662 -1.5624 0
M  V30 45264 C 4487.28 0.926944 -1.79589 0
M  V30 45265 C 4487.6 1.84268 -0.637994 0
M  V30 45266 O 4486.87 1.9285 0.34433 0
M  V30 45267 H 4485.45 0.345269 -0.662419 0
M  V30 45268 H 4488.11 0.214892 -1.93712 0
M  V30 45269 H 4487.21 1.52491 -2.7231 0
M  V30 45270 N 4487.51 1.50306 0.473902 0
M  V30 45271 C 4488.79 1.51671 1.23512 0
M  V30 45272 C 4489.17 0.259775 2.09496 0
M  V30 45273 O 4488.52 -0.75691 2.15599 0
M  V30 45274 C 4488.73 2.81089 2.06858 0
M  V30 45275 C 4490.07 3.3164 2.65141 0
M  V30 45276 O 4491.1 2.82391 2.17103 0
M  V30 45277 O 4489.96 4.17484 3.52661 0
M  V30 45278 H 4487.05 0.608239 0.560334 0
M  V30 45279 H 4489.6 1.62593 0.485954 0
M  V30 45280 H 4488.37 3.64047 1.43478 0
M  V30 45281 H 4487.99 2.73156 2.88914 0
M  V30 45282 N 4488.99 -0.726883 1.39836 0
M  V30 45283 C 4490.41 -1.0335 1.21618 0
M  V30 45284 C 4490.61 -2.01327 0.0834507 0
M  V30 45285 O 4489.66 -2.4616 -0.562293 0
M  V30 45286 C 4490.97 -1.58802 2.55348 0
M  V30 45287 C 4492.52 -1.70842 2.62263 0
M  V30 45288 C 4493 -2.29702 3.96233 0
M  V30 45289 N 4494.49 -2.37102 3.97916 0
M  V30 45290 C 4495.22 -2.83601 4.98355 0
M  V30 45291 N 4494.72 -3.29937 6.09191 0
M  V30 45292 N 4496.51 -2.82884 4.8573 0
M  V30 45293 H 4488.66 -0.0772323 2.1226 0
M  V30 45294 H 4490.93 -0.0968771 0.943037 0
M  V30 45295 H 4490.63 -0.942736 3.38829 0
M  V30 45296 H 4490.51 -2.57492 2.75641 0
M  V30 45297 H 4492.89 -2.3449 1.7916 0
M  V30 45298 H 4492.97 -0.707827 2.45812 0
M  V30 45299 H 4492.62 -1.6668 4.79771 0
M  V30 45300 H 4492.55 -3.30454 4.10009 0
M  V30 45301 H 4495.04 -2.04363 3.17875 0
M  V30 45302 H 4495.35 -3.63952 6.81732 0
M  V30 45303 H 4493.7 -3.27925 6.12773 0
M  V30 45304 H 4496.89 -2.46013 3.9824 0
M  V30 45305 H 4497.06 -3.18807 5.64151 0
M  V30 45306 N 4490.47 -1.25146 -0.957926 0
M  V30 45307 C 4491.88 -1.01897 -1.22838 0
M  V30 45308 C 4492.08 0.266241 -1.99733 0
M  V30 45309 O 4491.14 0.979831 -2.32713 0
M  V30 45310 C 4492.45 -2.24011 -2.00598 0
M  V30 45311 C 4494 -2.28738 -2.13654 0
M  V30 45312 C 4494.48 -3.505 -2.94811 0
M  V30 45313 N 4495.97 -3.50876 -3.02391 0
M  V30 45314 C 4496.7 -4.41753 -3.65571 0
M  V30 45315 N 4496.2 -5.42897 -4.30389 0
M  V30 45316 N 4497.99 -4.29442 -3.62679 0
M  V30 45317 H 4490.14 -2.0772 -0.44342 0
M  V30 45318 H 4492.4 -0.91204 -0.258625 0
M  V30 45319 H 4492.11 -3.17401 -1.51492 0
M  V30 45320 H 4491.98 -2.26918 -3.01311 0
M  V30 45321 H 4494.37 -1.35874 -2.61959 0
M  V30 45322 H 4494.45 -2.29852 -1.12257 0
M  V30 45323 H 4494.1 -4.43684 -2.47197 0
M  V30 45324 H 4494.03 -3.46631 -3.96427 0
M  V30 45325 H 4496.52 -2.77709 -2.56293 0
M  V30 45326 H 4496.83 -6.08457 -4.76446 0
M  V30 45327 H 4495.18 -5.46773 -4.29027 0
M  V30 45328 H 4498.37 -3.49654 -3.11223 0
M  V30 45329 H 4498.54 -5.00462 -4.11633 0
M  V30 45330 N 4491.95 1.16006 -1.06679 0
M  V30 45331 C 4493.19 1.8663 -0.785847 0
M  V30 45332 C 4493.52 1.81932 0.687832 0
M  V30 45333 O 4492.78 1.23258 1.52006 0
M  V30 45334 C 4493.07 3.35543 -1.23068 0
M  V30 45335 C 4492.74 3.60439 -2.70914 0
M  V30 45336 C 4491.4 3.66943 -3.11298 0
M  V30 45337 C 4493.75 3.70697 -3.66378 0
M  V30 45338 C 4491.08 3.81209 -4.45978 0
M  V30 45339 C 4493.43 3.86485 -5.00811 0
M  V30 45340 C 4492.1 3.91233 -5.40827 0
M  V30 45341 H 4491.37 0.682927 -0.287562 0
M  V30 45342 H 4494.02 1.37141 -1.33659 0
M  V30 45343 H 4492.32 3.87191 -0.599206 0
M  V30 45344 H 4494.02 3.8858 -0.9903 0
M  V30 45345 H 4490.61 3.56013 -2.38648 0
M  V30 45346 H 4494.79 3.64979 -3.36309 0
M  V30 45347 H 4490.05 3.83139 -4.76461 0
M  V30 45348 H 4494.22 3.93365 -5.74663 0
M  V30 45349 H 4491.85 4.0204 -6.45189 0
M  V30 45350 N 4493.42 0.849923 1.32718 0
M  V30 45351 C 4494.7 0.372472 1.92021 0
M  V30 45352 C 4495.08 -1.14343 1.77451 0
M  V30 45353 O 4494.43 -1.96292 1.16969 0
M  V30 45354 C 4494.64 0.831601 3.38947 0
M  V30 45355 C 4495.99 0.846028 4.16086 0
M  V30 45356 O 4497.01 0.775928 3.47646 0
M  V30 45357 O 4495.87 0.943942 5.38286 0
M  V30 45358 H 4492.96 0.107696 0.819958 0
M  V30 45359 H 4495.51 0.93651 1.41519 0
M  V30 45360 H 4494.28 1.8746 3.43474 0
M  V30 45361 H 4493.9 0.244749 3.96846 0
M  V30 45362 N 4494.9 -1.45425 0.607406 0
M  V30 45363 C 4495.85 -2.27612 -0.132958 0
M  V30 45364 C 4496.84 -1.3731 -0.838737 0
M  V30 45365 O 4498.03 -1.61301 -0.728756 0
M  V30 45366 C 4495.16 -3.24177 -1.12979 0
M  V30 45367 C 4494.24 -4.21967 -0.424862 0
M  V30 45368 N 4494.63 -5.0298 0.533394 0
M  V30 45369 C 4492.93 -4.40902 -0.672438 0
M  V30 45370 C 4493.63 -5.73928 0.94772 0
M  V30 45371 N 4492.61 -5.42818 0.291512 0
M  V30 45372 H 4496.41 -2.87647 0.603036 0
M  V30 45373 H 4493.93 -1.56575 0.431061 0
M  V30 45374 H 4495.92 -3.81789 -1.67459 0
M  V30 45375 H 4494.58 -2.65702 -1.86634 0
M  V30 45376 H 4495.59 -5.0984 0.910129 0
M  V30 45377 H 4492.27 -3.93552 -1.39368 0
M  V30 45378 H 4493.66 -6.49031 1.73805 0
M  V30 45379 N 4496.38 -0.346557 -1.53742 0
M  V30 45380 C 4497.33 0.524875 -2.21876 0
M  V30 45381 C 4498.31 1.06372 -1.20722 0
M  V30 45382 O 4499.51 0.99692 -1.46255 0
M  V30 45383 C 4496.64 1.67379 -2.99732 0
M  V30 45384 C 4495.72 1.14874 -4.08246 0
M  V30 45385 N 4496.11 0.345151 -5.04621 0
M  V30 45386 C 4494.41 1.42535 -4.22611 0
M  V30 45387 C 4495.11 0.0598661 -5.81669 0
M  V30 45388 N 4494.09 0.65233 -5.39672 0
M  V30 45389 H 4497.89 -0.0961124 -2.93743 0
M  V30 45390 H 4495.4 -0.153576 -1.61672 0
M  V30 45391 H 4497.4 2.31008 -3.47046 0
M  V30 45392 H 4496.06 2.29803 -2.29392 0
M  V30 45393 H 4497.07 -0.014026 -5.17898 0
M  V30 45394 H 4493.75 2.05376 -3.63493 0
M  V30 45395 H 4495.14 -0.588556 -6.69317 0
M  V30 45396 N 4497.86 1.5742 -0.0752483 0
M  V30 45397 C 4498.82 2.11794 0.876129 0
M  V30 45398 C 4499.82 1.04273 1.22409 0
M  V30 45399 O 4501.01 1.30246 1.15679 0
M  V30 45400 C 4498.14 2.62214 2.17845 0
M  V30 45401 H 4499.34 2.97162 0.404336 0
M  V30 45402 H 4496.89 1.55334 0.173503 0
M  V30 45403 H 4497.62 1.8031 2.69553 0
M  V30 45404 H 4497.41 3.40809 1.93885 0
M  V30 45405 H 4498.9 3.04345 2.85944 0
M  V30 45406 N 4499.34 -0.198331 1.56347 0
M  V30 45407 C 4500.75 -0.763298 1.70384 0
M  V30 45408 C 4501.1 -1.83992 0.681268 0
M  V30 45409 O 4500.22 -2.15785 -0.162974 0
M  V30 45410 C 4500.82 -1.39132 3.08914 0
M  V30 45411 C 4499.38 -1.90341 3.24726 0
M  V30 45412 C 4498.52 -0.77214 2.66333 0
M  V30 45413 H 4501.48 0.0266935 1.58678 0
M  V30 45414 H 4501.5 -2.26065 3.06063 0
M  V30 45415 H 4501.01 -0.607503 3.83316 0
M  V30 45416 H 4499.11 -2.71452 2.55235 0
M  V30 45417 H 4499.22 -2.06742 4.32197 0
M  V30 45418 H 4497.59 -1.18558 2.25424 0
M  V30 45419 H 4498.37 -0.000614873 3.433 0
M  V30 45420 N 4500.81 -1.50555 -0.465925 0
M  V30 45421 C 4501.72 -1.72591 -1.58901 0
M  V30 45422 C 4502.74 -0.609167 -1.62988 0
M  V30 45423 O 4503.92 -0.888103 -1.80761 0
M  V30 45424 C 4500.98 -1.82005 -2.95085 0
M  V30 45425 C 4500.04 -3.05761 -3.01344 0
M  V30 45426 C 4499.28 -3.14717 -4.31032 0
M  V30 45427 O 4499.5 -2.30331 -5.21827 0
M  V30 45428 O 4498.43 -4.07484 -4.4299 0
M  V30 45429 H 4502.26 -2.67804 -1.4323 0
M  V30 45430 H 4499.84 -1.34713 -0.645965 0
M  V30 45431 H 4501.73 -1.90348 -3.7596 0
M  V30 45432 H 4500.4 -0.899768 -3.10944 0
M  V30 45433 H 4499.31 -3.02916 -2.19528 0
M  V30 45434 H 4500.64 -3.97385 -2.90423 0
M  V30 45435 N 4502.29 0.719457 -1.4022 0
M  V30 45436 C 4503.71 1.02703 -1.22165 0
M  V30 45437 C 4503.91 2.0128 -0.0941264 0
M  V30 45438 O 4502.96 2.46454 0.549231 0
M  V30 45439 C 4504.28 1.57445 -2.56186 0
M  V30 45440 C 4505.83 1.69449 -2.63165 0
M  V30 45441 C 4506.3 2.27598 -3.97446 0
M  V30 45442 N 4507.79 2.34988 -3.99167 0
M  V30 45443 C 4508.53 2.80954 -4.99852 0
M  V30 45444 N 4508.02 3.26701 -6.10932 0
M  V30 45445 N 4509.82 2.80304 -4.87223 0
M  V30 45446 H 4501.97 0.0659745 -2.12298 0
M  V30 45447 H 4504.23 0.0918746 -0.943538 0
M  V30 45448 H 4503.94 0.924754 -3.39325 0
M  V30 45449 H 4503.81 2.56027 -2.77002 0
M  V30 45450 H 4506.2 2.33537 -1.80401 0
M  V30 45451 H 4506.28 0.694781 -2.46184 0
M  V30 45452 H 4505.92 1.64133 -4.80648 0
M  V30 45453 H 4505.85 3.28275 -4.11756 0
M  V30 45454 H 4508.34 2.02674 -3.18954 0
M  V30 45455 H 4508.66 3.60331 -6.83653 0
M  V30 45456 H 4507 3.2467 -6.14503 0
M  V30 45457 H 4510.19 2.43898 -3.99539 0
M  V30 45458 H 4510.36 3.15811 -5.65834 0
M  V30 45459 N 4503.77 1.25652 0.951275 0
M  V30 45460 C 4505.18 1.09659 1.51102 0
M  V30 45461 C 4505.53 -0.326547 1.93463 0
M  V30 45462 O 4504.66 -1.21691 1.78942 0
M  V30 45463 C 4505.25 1.98447 2.74598 0
M  V30 45464 C 4503.81 1.86629 3.26874 0
M  V30 45465 C 4502.96 1.92398 1.99696 0
M  V30 45466 H 4505.91 1.38889 0.767816 0
M  V30 45467 H 4505.93 1.52643 3.48541 0
M  V30 45468 H 4505.44 3.02017 2.43736 0
M  V30 45469 H 4503.54 0.859549 3.6255 0
M  V30 45470 H 4503.66 2.71621 3.94663 0
M  V30 45471 H 4502.02 1.36324 2.15146 0
M  V30 45472 H 4502.8 2.97579 1.71177 0
M  V30 45473 N 4505.25 -1.15438 1.07293 0
M  V30 45474 C 4506.18 -2.1977 0.650663 0
M  V30 45475 C 4507.19 -1.60077 -0.296516 0
M  V30 45476 O 4508.38 -1.78293 -0.0859279 0
M  V30 45477 C 4505.48 -3.38838 -0.0649207 0
M  V30 45478 C 4504.66 -4.28076 0.898292 0
M  V30 45479 C 4503.71 -5.25739 0.220111 0
M  V30 45480 O 4502.74 -5.62651 0.86097 0
M  V30 45481 N 4503.94 -5.71209 -1.03445 0
M  V30 45482 H 4506.71 -2.56616 1.54817 0
M  V30 45483 H 4504.27 -1.30548 0.95754 0
M  V30 45484 H 4506.26 -4.01224 -0.529274 0
M  V30 45485 H 4504.83 -3.00412 -0.864361 0
M  V30 45486 H 4504.05 -3.62799 1.54177 0
M  V30 45487 H 4505.34 -4.84572 1.55138 0
M  V30 45488 H 4504.74 -5.43331 -1.57507 0
M  V30 45489 H 4503.29 -6.35638 -1.4425 0
M  V30 45490 N 4506.73 -0.85695 -1.32265 0
M  V30 45491 C 4507.64 -0.306212 -2.32593 0
M  V30 45492 C 4508.65 0.577152 -1.64149 0
M  V30 45493 O 4509.83 0.476974 -1.9567 0
M  V30 45494 C 4506.89 0.49444 -3.43156 0
M  V30 45495 C 4505.95 -0.415336 -4.27286 0
M  V30 45496 C 4505.19 0.347199 -5.32569 0
M  V30 45497 O 4505.41 1.57689 -5.4817 0
M  V30 45498 O 4504.34 -0.288193 -6.0121 0
M  V30 45499 H 4508.17 -1.13747 -2.81594 0
M  V30 45500 H 4505.76 -0.61995 -1.3593 0
M  V30 45501 H 4507.64 0.948799 -4.1058 0
M  V30 45502 H 4506.31 1.30246 -2.9634 0
M  V30 45503 H 4505.22 -0.91792 -3.62664 0
M  V30 45504 H 4506.55 -1.1886 -4.77633 0
M  V30 45505 N 4508.2 1.45101 -0.61511 0
M  V30 45506 C 4509.17 2.29025 0.089468 0
M  V30 45507 C 4510.17 1.40177 0.787857 0
M  V30 45508 O 4511.36 1.62219 0.634876 0
M  V30 45509 C 4508.49 3.2138 1.137 0
M  V30 45510 H 4509.68 2.92805 -0.648485 0
M  V30 45511 H 4507.24 1.51747 -0.374497 0
M  V30 45512 H 4507.97 2.62416 1.90547 0
M  V30 45513 H 4507.76 3.86836 0.640339 0
M  V30 45514 H 4509.25 3.84465 1.63023 0
M  V30 45515 N 4509.68 0.354705 1.53557 0
M  V30 45516 C 4510.91 -0.242081 2.05982 0
M  V30 45517 C 4511.33 -1.42549 1.22725 0
M  V30 45518 O 4510.69 -1.79655 0.243667 0
M  V30 45519 C 4510.74 -0.624242 3.55156 0
M  V30 45520 O 4509.84 -1.72288 3.74687 0
M  V30 45521 H 4509.18 -0.0378199 0.662922 0
M  V30 45522 H 4511.71 0.512156 1.98086 0
M  V30 45523 H 4511.72 -0.898293 3.97988 0
M  V30 45524 H 4510.4 0.241135 4.152 0
M  V30 45525 H 4508.98 -1.44523 3.43755 0
M  V30 45526 N 4511.16 -1.57378 0.0835957 0
M  V30 45527 C 4512.09 -2.09019 -0.915759 0
M  V30 45528 C 4513.07 -0.998038 -1.28367 0
M  V30 45529 O 4514.26 -1.27224 -1.39091 0
M  V30 45530 C 4511.38 -2.55765 -2.2204 0
M  V30 45531 C 4510.43 -3.76529 -2.0032 0
M  V30 45532 S 4511.26 -5.20665 -1.25173 0
M  V30 45533 C 4512.42 -5.70752 -2.56892 0
M  V30 45534 H 4512.65 -2.93458 -0.476389 0
M  V30 45535 H 4510.18 -1.53856 -0.129439 0
M  V30 45536 H 4512.14 -2.83356 -2.97017 0
M  V30 45537 H 4510.8 -1.71573 -2.631 0
M  V30 45538 H 4510 -4.07266 -2.96901 0
M  V30 45539 H 4509.6 -3.49371 -1.33475 0
M  V30 45540 H 4511.89 -5.78316 -3.52925 0
M  V30 45541 H 4512.83 -6.69448 -2.30749 0
M  V30 45542 H 4513.24 -4.98625 -2.64638 0
M  V30 45543 N 4512.64 0.190037 -1.5645 0
M  V30 45544 C 4513.57 1.2381 -1.97973 0
M  V30 45545 C 4514.55 1.47198 -0.852446 0
M  V30 45546 O 4515.74 1.5885 -1.11715 0
M  V30 45547 C 4512.87 2.58122 -2.32359 0
M  V30 45548 C 4511.82 2.49336 -3.47873 0
M  V30 45549 C 4511.15 3.87967 -3.67948 0
M  V30 45550 C 4512.45 2.01407 -4.81905 0
M  V30 45551 H 4514.14 0.89301 -2.85772 0
M  V30 45552 H 4511.69 0.428129 -1.37488 0
M  V30 45553 H 4513.64 3.31627 -2.60002 0
M  V30 45554 H 4512.36 2.94381 -1.41448 0
M  V30 45555 H 4511.02 1.78286 -3.20328 0
M  V30 45556 H 4510.67 4.21588 -2.74359 0
M  V30 45557 H 4510.37 3.82962 -4.45661 0
M  V30 45558 H 4511.89 4.63087 -3.97973 0
M  V30 45559 H 4513.31 2.64675 -5.08547 0
M  V30 45560 H 4511.7 2.07393 -5.63123 0
M  V30 45561 H 4512.77 0.96751 -4.7515 0
M  V30 45562 N 4514.12 1.508 0.457934 0
M  V30 45563 C 4515.05 1.73558 1.56204 0
M  V30 45564 C 4516.03 0.58483 1.5973 0
M  V30 45565 O 4517.21 0.825376 1.75787 0
M  V30 45566 C 4514.34 1.8418 2.9444 0
M  V30 45567 C 4513.3 2.99471 3.05779 0
M  V30 45568 C 4512.62 2.95251 4.45793 0
M  V30 45569 C 4513.92 4.39776 2.8177 0
M  V30 45570 H 4515.62 2.66005 1.37411 0
M  V30 45571 H 4513.16 1.28004 0.659617 0
M  V30 45572 H 4515.12 1.98685 3.71621 0
M  V30 45573 H 4513.84 0.883656 3.14419 0
M  V30 45574 H 4512.5 2.84638 2.31034 0
M  V30 45575 H 4512.15 1.97256 4.62709 0
M  V30 45576 H 4511.85 3.72657 4.54313 0
M  V30 45577 H 4513.37 3.11822 5.24976 0
M  V30 45578 H 4514.79 4.55066 3.48694 0
M  V30 45579 H 4513.18 5.18733 3.01722 0
M  V30 45580 H 4514.25 4.51235 1.77524 0
M  V30 45581 N 4515.6 -0.71201 1.40599 0
M  V30 45582 C 4516.54 -1.84741 1.41327 0
M  V30 45583 C 4517.54 -1.66841 0.293326 0
M  V30 45584 O 4518.74 -1.73902 0.464542 0
M  V30 45585 H 4515.12 -0.608507 0.441841 0
M  V30 45586 H 4517.09 -1.81243 2.37052 0
M  V30 45587 C 4515.84 -3.22634 1.29625 0
M  V30 45588 H 4515.16 -3.37016 2.15082 0
M  V30 45589 H 4516.6 -4.02204 1.34194 0
M  V30 45590 C 4515.06 -3.36899 0.00684965 0
M  V30 45591 O 4515.59 -3.9019 -0.954722 0
M  V30 45592 N 4513.8 -2.9053 -0.0638306 0
M  V30 45593 H 4513.34 -2.47351 0.719398 0
M  V30 45594 H 4513.3 -3.00454 -0.926012 0
M  V30 45595 N 4517.07 -1.26155 -0.944598 0
M  V30 45596 C 4518.48 -1.10459 -1.50518 0
M  V30 45597 C 4518.84 0.316282 -1.93634 0
M  V30 45598 O 4517.96 1.2074 -1.79585 0
M  V30 45599 C 4518.56 -1.999 -2.73542 0
M  V30 45600 C 4517.11 -1.8836 -3.2588 0
M  V30 45601 C 4516.26 -1.93454 -1.98673 0
M  V30 45602 H 4519.21 -1.39295 -0.76044 0
M  V30 45603 H 4519.23 -1.54489 -3.47726 0
M  V30 45604 H 4518.75 -3.03306 -2.42131 0
M  V30 45605 H 4516.85 -0.878764 -3.62089 0
M  V30 45606 H 4516.96 -2.7371 -3.93217 0
M  V30 45607 H 4515.32 -1.37463 -2.1442 0
M  V30 45608 H 4516.11 -2.98482 -1.69597 0
M  V30 45609 N 4518.55 1.14868 -1.07903 0
M  V30 45610 C 4519.51 2.17983 -0.708238 0
M  V30 45611 C 4520.51 1.58775 0.254365 0
M  V30 45612 O 4521.7 1.74166 0.0345838 0
M  V30 45613 C 4518.84 3.40871 -0.0448127 0
M  V30 45614 H 4520.03 2.52301 -1.62125 0
M  V30 45615 H 4517.58 1.29427 -0.876264 0
M  V30 45616 H 4518.32 3.12127 0.880172 0
M  V30 45617 H 4518.1 3.85107 -0.737226 0
M  V30 45618 H 4519.59 4.17122 0.199763 0
M  V30 45619 N 4520.03 0.863952 1.31809 0
M  V30 45620 C 4520.99 0.320292 2.26951 0
M  V30 45621 C 4521.99 -0.525315 1.51977 0
M  V30 45622 O 4523.18 -0.335487 1.70939 0
M  V30 45623 C 4520.31 -0.545801 3.36502 0
M  V30 45624 H 4521.51 1.16013 2.76552 0
M  V30 45625 H 4519.06 0.639045 1.42639 0
M  V30 45626 H 4519.8 -1.40708 2.92184 0
M  V30 45627 H 4519.58 0.0596052 3.92055 0
M  V30 45628 H 4521.07 -0.918652 4.0737 0
M  V30 45629 N 4521.51 -1.44772 0.622796 0
M  V30 45630 C 4522.92 -1.56985 0.287707 0
M  V30 45631 C 4523.12 -1.61171 -1.20939 0
M  V30 45632 O 4522.18 -1.55022 -1.9931 0
M  V30 45633 C 4523.49 -2.84547 0.972288 0
M  V30 45634 C 4525.04 -2.98246 0.949641 0
M  V30 45635 C 4525.52 -4.28599 1.61452 0
M  V30 45636 N 4527.01 -4.35393 1.58072 0
M  V30 45637 C 4527.74 -5.34957 2.06419 0
M  V30 45638 N 4527.24 -6.40972 2.62919 0
M  V30 45639 N 4529.03 -5.26412 1.97097 0
M  V30 45640 H 4521.18 -1.40299 1.59468 0
M  V30 45641 H 4523.44 -0.67177 0.668901 0
M  V30 45642 H 4523.15 -2.8741 2.02703 0
M  V30 45643 H 4523.02 -3.73806 0.504903 0
M  V30 45644 H 4525.41 -2.94942 -0.0966031 0
M  V30 45645 H 4525.49 -2.10358 1.45544 0
M  V30 45646 H 4525.14 -4.32663 2.66018 0
M  V30 45647 H 4525.07 -5.1533 1.08363 0
M  V30 45648 H 4527.56 -3.59393 1.16813 0
M  V30 45649 H 4527.87 -7.13215 2.97564 0
M  V30 45650 H 4526.22 -6.41681 2.66966 0
M  V30 45651 H 4529.41 -4.42499 1.52684 0
M  V30 45652 H 4529.58 -6.03853 2.35087 0
M  V30 45653 N 4522.99 -0.362844 -1.53366 0
M  V30 45654 C 4523.92 0.476896 -2.28578 0
M  V30 45655 C 4524.9 1.08627 -1.30898 0
M  V30 45656 O 4526.08 1.10403 -1.59765 0
M  V30 45657 C 4523.21 1.61817 -3.07299 0
M  V30 45658 C 4522.17 1.13619 -4.12644 0
M  V30 45659 C 4521.49 2.36749 -4.79431 0
M  V30 45660 C 4522.79 0.222877 -5.21824 0
M  V30 45661 H 4524.49 -0.150579 -2.99021 0
M  V30 45662 H 4522.03 -0.0738609 -1.4381 0
M  V30 45663 H 4523.98 2.21224 -3.58661 0
M  V30 45664 H 4522.71 2.27284 -2.34541 0
M  V30 45665 H 4521.37 0.564817 -3.62223 0
M  V30 45666 H 4521.02 3.00666 -4.03248 0
M  V30 45667 H 4520.72 2.05172 -5.50616 0
M  V30 45668 H 4522.24 2.96847 -5.33586 0
M  V30 45669 H 4523.65 0.724345 -5.68706 0
M  V30 45670 H 4522.05 -0.00188897 -6.001 0
M  V30 45671 H 4523.12 -0.735722 -4.79286 0
M  V30 45672 N 4524.46 1.57332 -0.0919406 0
M  V30 45673 C 4525.71 1.93855 0.571378 0
M  V30 45674 C 4526.03 0.974271 1.68917 0
M  V30 45675 O 4525.3 0.0257942 1.95883 0
M  V30 45676 H 4523.88 0.715674 0.214056 0
M  V30 45677 H 4526.55 1.94286 -0.154532 0
M  V30 45678 H 4525.64 2.96195 0.983625 0
M  V30 45679 N 4525.94 -0.181737 1.56549 0
M  V30 45680 C 4527.22 -0.926704 1.72254 0
M  V30 45681 C 4527.6 -2.00829 0.650456 0
M  V30 45682 O 4526.95 -2.2601 -0.336441 0
M  V30 45683 C 4527.16 -1.50095 3.15075 0
M  V30 45684 C 4528.51 -1.97791 3.75718 0
M  V30 45685 O 4529.53 -1.5991 3.18288 0
M  V30 45686 O 4528.39 -2.67539 4.76535 0
M  V30 45687 H 4525.48 -0.435482 0.703054 0
M  V30 45688 H 4528.03 -0.170384 1.68842 0
M  V30 45689 H 4526.8 -0.721985 3.84582 0
M  V30 45690 H 4526.42 -2.32174 3.22771 0
M  V30 45691 N 4527.42 -1.51041 -0.44993 0
M  V30 45692 C 4528.67 -1.62763 -1.19802 0
M  V30 45693 C 4528.99 -0.340049 -1.92012 0
M  V30 45694 O 4528.26 0.643541 -1.85028 0
M  V30 45695 H 4526.84 -0.599827 -0.445215 0
M  V30 45696 H 4529.5 -1.87916 -0.517072 0
M  V30 45697 H 4528.6 -2.44918 -1.93447 0
M  V30 45698 N 4528.9 0.704544 -1.40975 0
M  V30 45699 C 4529.81 1.84851 -1.44455 0
M  V30 45700 C 4530.82 1.70725 -0.336021 0
M  V30 45701 O 4532 1.92797 -0.582344 0
M  V30 45702 C 4529.07 3.20753 -1.31599 0
M  V30 45703 C 4528.13 3.47054 -2.5269 0
M  V30 45704 C 4527.36 4.76472 -2.40437 0
M  V30 45705 O 4527.58 5.52336 -1.4241 0
M  V30 45706 O 4526.52 5.03356 -3.30025 0
M  V30 45707 H 4530.34 1.84872 -2.40949 0
M  V30 45708 H 4527.93 0.856427 -1.22416 0
M  V30 45709 H 4529.81 4.01909 -1.26679 0
M  V30 45710 H 4528.48 3.21436 -0.382162 0
M  V30 45711 H 4527.39 2.65864 -2.63186 0
M  V30 45712 H 4528.72 3.51177 -3.4487 0
M  V30 45713 N 4530.38 1.26654 0.937895 0
M  V30 45714 C 4531.34 1.08553 2.01864 0
M  V30 45715 C 4532.34 0.0327892 1.60767 0
M  V30 45716 O 4533.53 0.276488 1.71992 0
M  V30 45717 C 4530.66 0.651828 3.3461 0
M  V30 45718 H 4531.85 2.0451 2.19353 0
M  V30 45719 H 4529.41 1.09298 1.1173 0
M  V30 45720 H 4530.14 -0.309582 3.22819 0
M  V30 45721 H 4529.93 1.41202 3.65793 0
M  V30 45722 H 4531.42 0.547119 4.14 0
M  V30 45723 N 4531.85 -1.14294 1.08511 0
M  V30 45724 C 4533.08 -1.88942 0.835729 0
M  V30 45725 C 4533.49 -1.78896 -0.615865 0
M  V30 45726 O 4532.84 -1.14685 -1.43502 0
M  V30 45727 C 4532.9 -3.39581 1.18005 0
M  V30 45728 C 4532.56 -3.73411 2.63464 0
M  V30 45729 C 4533.56 -3.73441 3.61715 0
M  V30 45730 C 4531.24 -4.03357 2.99346 0
M  V30 45731 C 4533.24 -4.02943 4.93878 0
M  V30 45732 C 4530.92 -4.32523 4.31703 0
M  V30 45733 C 4531.92 -4.32299 5.28778 0
M  V30 45734 O 4531.61 -4.60757 6.58755 0
M  V30 45735 H 4531.34 -0.605296 0.300986 0
M  V30 45736 H 4533.9 -1.45667 1.44811 0
M  V30 45737 H 4532.13 -3.83313 0.510684 0
M  V30 45738 H 4533.82 -3.95537 0.911321 0
M  V30 45739 H 4534.58 -3.50391 3.35337 0
M  V30 45740 H 4530.46 -4.02684 2.24425 0
M  V30 45741 H 4534 -4.02684 5.69641 0
M  V30 45742 H 4529.9 -4.55043 4.57828 0
M  V30 45743 H 4530.67 -4.78469 6.64086 0
M  V30 45744 N 4533.33 -0.87093 -1.31349 0
M  V30 45745 C 4534.58 -0.478477 -1.95943 0
M  V30 45746 C 4534.89 0.974433 -1.696 0
M  V30 45747 O 4536.1 1.47308 -2.28063 0
M  V30 45748 C 4534.56 -0.804733 -3.50788 0
M  V30 45749 C 4534.16 -2.27447 -3.85969 0
M  V30 45750 C 4535.91 -0.480796 -4.21768 0
M  V30 45751 C 4533.82 -2.54309 -5.3393 0
M  V30 45752 H 4532.75 -0.175201 -0.733363 0
M  V30 45753 H 4535.4 -1.06397 -1.49506 0
M  V30 45754 H 4533.78 -0.148487 -3.95722 0
M  V30 45755 H 4534.95 -2.97386 -3.51992 0
M  V30 45756 H 4533.27 -2.56453 -3.28056 0
M  V30 45757 H 4535.86 -0.658706 -5.30627 0
M  V30 45758 H 4536.21 0.578835 -4.12256 0
M  V30 45759 H 4536.74 -1.09363 -3.82472 0
M  V30 45760 H 4533.48 -3.58958 -5.48479 0
M  V30 45761 H 4533 -1.88965 -5.69256 0
M  V30 45762 H 4534.68 -2.39087 -6.01204 0
M  V30 45763 N 4534.81 1.4444 -0.630465 0
M  V30 45764 C 4536.06 2.01652 -0.134422 0
M  V30 45765 C 4536.38 1.49841 1.24791 0
M  V30 45766 O 4535.65 0.701748 1.829 0
M  V30 45767 H 4534.23 0.745539 -0.0467031 0
M  V30 45768 H 4536.89 1.76949 -0.817017 0
M  V30 45769 H 4535.99 3.11935 -0.101607 0
M  V30 45770 O 4536.33 0.51317 1.5313 0
M  V30 45771 H 4537.02 -0.00124347 1.937 0
M  V30 END ATOM
M  V30 BEGIN BOND
M  V30 END BOND
M  V30 END CTAB
M  END
$$$$
