drugbank_target|Q9UNN8 Endothelial protein C receptor (DB00055; DB04327; DB11328)
 OpenBabel12092119483D

  0  0  0     0  0            999 V3000
M  V30 BEGIN CTAB
M  V30 COUNTS 3740 3785 0 0 0
M  V30 BEGIN ATOM
M  V30 1 H -0.908 1.98254 -0.117106 0
M  V30 2 N 0 1.576 0 0
M  V30 3 C 0.933 2.03868 1.02534 0
M  V30 4 C 1.911 0.928543 1.3348 0
M  V30 5 O 3.095 1.19667 1.45644 0
M  V30 6 C 0.222 2.43627 2.35294 0
M  V30 7 C -0.732 3.65373 2.2001 0
M  V30 8 S 0.101 5.13292 1.52614 0
M  V30 9 C 1.257 5.56322 2.86805 0
M  V30 10 H 1.49 2.90518 0.631377 0
M  V30 11 H -0.977 1.52953 0.210867 0
M  V30 12 H 0.981 2.67203 3.11629 0
M  V30 13 H -0.358 1.57376 2.7183 0
M  V30 14 H -1.165 3.90944 3.18086 0
M  V30 15 H -1.563 3.418 1.51819 0
M  V30 16 H 0.729 5.58782 3.83104 0
M  V30 17 H 1.672 6.56266 2.65933 0
M  V30 18 H 2.08 4.83886 2.90714 0
M  V30 19 N 1.4781 -0.272755 1.55222 0
M  V30 20 C 2.4081 -1.34136 1.91127 0
M  V30 21 C 3.3891 -1.51513 0.773168 0
M  V30 22 O 4.5741 -1.64552 1.03132 0
M  V30 23 C 1.7041 -2.70083 2.1834 0
M  V30 24 C 0.6581 -2.67437 3.34158 0
M  V30 25 C -0.0159 -4.06938 3.46851 0
M  V30 26 C 1.2841 -2.26686 4.70543 0
M  V30 27 H 2.9781 -1.04333 2.80633 0
M  V30 28 H 0.5241 -0.500454 1.35024 0
M  V30 29 H 2.4771 -3.44952 2.42046 0
M  V30 30 H 1.2011 -3.01469 1.25634 0
M  V30 31 H -0.1399 -1.95026 3.1042 0
M  V30 32 H -0.4919 -4.35547 2.51611 0
M  V30 33 H -0.7919 -4.06062 4.2472 0
M  V30 34 H 0.7321 -4.83545 3.72849 0
M  V30 35 H 2.1461 -2.91277 4.93792 0
M  V30 36 H 0.5431 -2.36971 5.5133 0
M  V30 37 H 1.6131 -1.21818 4.69349 0
M  V30 38 N 2.9562 -1.48159 -0.537278 0
M  V30 39 C 4.1842 -1.59454 -1.31841 0
M  V30 40 C 4.5992 -0.252065 -1.8711 0
M  V30 41 O 3.9562 0.757621 -1.66031 0
M  V30 42 C 4.0072 -2.63546 -2.47439 0
M  V30 43 O 3.7282 -3.92583 -1.94449 0
M  V30 44 C 5.2292 -2.85212 -3.39366 0
M  V30 45 H 2.4492 -0.53785 -0.401196 0
M  V30 46 H 4.9932 -1.93932 -0.648891 0
M  V30 47 H 3.1482 -2.31946 -3.1029 0
M  V30 48 H 3.5622 -4.49629 -2.70063 0
M  V30 49 H 5.0362 -3.61863 -4.16844 0
M  V30 50 H 5.5132 -1.93765 -3.94147 0
M  V30 51 H 6.1192 -3.18086 -2.82314 0
M  V30 52 N 4.4343 0.785586 -1.36625 0
M  V30 53 C 5.6623 1.57448 -1.3423 0
M  V30 54 C 6.0773 1.88649 0.0755653 0
M  V30 55 O 5.4343 1.50414 1.03354 0
M  V30 56 C 5.4853 2.89316 -2.16745 0
M  V30 57 O 5.2063 2.59459 -3.53005 0
M  V30 58 C 6.7073 3.83606 -2.22174 0
M  V30 59 H 3.9273 0.488226 -0.4603 0
M  V30 60 H 6.4713 0.974733 -1.79775 0
M  V30 61 H 4.6263 3.4575 -1.74745 0
M  V30 62 H 5.0403 3.43804 -3.96105 0
M  V30 63 H 6.5143 4.73181 -2.8426 0
M  V30 64 H 6.9913 4.21734 -1.22627 0
M  V30 65 H 7.5973 3.33104 -2.64427 0
M  V30 66 N 5.9124 1.20967 1.01018 0
M  V30 67 C 6.8424 0.988272 2.11555 0
M  V30 68 C 7.8234 -0.0849778 1.69888 0
M  V30 69 O 9.0084 0.0738202 1.9406 0
M  V30 70 C 6.1384 0.546528 3.42973 0
M  V30 71 C 5.0924 1.56375 3.9841 0
M  V30 72 C 4.4184 0.97842 5.25672 0
M  V30 73 C 5.7184 2.94922 4.31066 0
M  V30 74 H 7.4124 1.91276 2.30334 0
M  V30 75 H 4.9584 0.921073 1.1069 0
M  V30 76 H 6.9114 0.378839 4.19694 0
M  V30 77 H 5.6354 -0.413598 3.23971 0
M  V30 78 H 4.2944 1.71891 3.23804 0
M  V30 79 H 3.9424 0.0101688 5.02999 0
M  V30 80 H 3.6424 1.65784 5.63728 0
M  V30 81 H 5.1664 0.821939 6.05043 0
M  V30 82 H 6.5804 2.8288 4.9865 0
M  V30 83 H 4.9774 3.5983 4.80253 0
M  V30 84 H 6.0474 3.4616 3.39561 0
M  V30 85 N 7.3905 -1.2043 1.01659 0
M  V30 86 C 8.3205 -2.25466 0.607226 0
M  V30 87 C 9.3015 -1.65853 -0.377716 0
M  V30 88 O 10.4865 -1.92409 -0.263149 0
M  V30 89 C 7.6165 -3.47256 -0.0552949 0
M  V30 90 C 6.5705 -4.19462 0.850632 0
M  V30 91 C 5.8965 -5.34673 0.0538859 0
M  V30 92 C 7.1965 -4.75603 2.15868 0
M  V30 93 H 8.8905 -2.59962 1.48526 0
M  V30 94 H 6.4365 -1.2496 0.715605 0
M  V30 95 H 8.3895 -4.19917 -0.353233 0
M  V30 96 H 7.1135 -3.11924 -0.968045 0
M  V30 97 H 5.7725 -3.48667 1.13257 0
M  V30 98 H 5.4205 -4.95585 -0.860514 0
M  V30 99 H 5.1205 -5.83913 0.657192 0
M  V30 100 H 6.6445 -6.10138 -0.237598 0
M  V30 101 H 8.0585 -5.40083 1.92311 0
M  V30 102 H 6.4555 -5.3528 2.71284 0
M  V30 103 H 7.5255 -3.94346 2.82169 0
M  V30 104 N 8.8686 -0.792821 -1.36206 0
M  V30 105 C 10.2796 -0.429513 -1.81692 0
M  V30 106 C 10.6306 1.04695 -1.65932 0
M  V30 107 O 9.7556 1.81256 -1.18218 0
M  V30 108 C 10.3506 -0.772831 -3.29868 0
M  V30 109 C 8.9096 -0.462307 -3.7355 0
M  V30 110 C 8.0566 -1.00569 -2.5842 0
M  V30 111 H 11.0076 -0.985672 -1.24379 0
M  V30 112 H 11.0286 -0.0651928 -3.80444 0
M  V30 113 H 10.5406 -1.84747 -3.41307 0
M  V30 114 H 8.6416 0.604158 -3.67669 0
M  V30 115 H 8.7546 -0.985299 -4.68859 0
M  V30 116 H 7.1186 -0.428734 -2.51066 0
M  V30 117 H 7.9016 -2.08616 -2.72643 0
M  V30 118 N 10.3467 1.47872 -0.545128 0
M  V30 119 C 11.5957 2.01695 -0.0145033 0
M  V30 120 C 11.9087 1.42609 1.33873 0
M  V30 121 O 13.1147 1.88021 1.95858 0
M  V30 122 C 11.5707 3.59892 0.0245068 0
M  V30 123 C 11.1787 4.27966 -1.32475 0
M  V30 124 C 12.9227 4.21507 0.50316 0
M  V30 125 C 10.8297 5.78136 -1.2455 0
M  V30 126 H 9.7597 0.753998 -0.00165172 0
M  V30 127 H 12.4107 1.69985 -0.691175 0
M  V30 128 H 10.7927 3.88509 0.766575 0
M  V30 129 H 11.9667 4.11003 -2.08357 0
M  V30 130 H 10.2817 3.78286 -1.74036 0
M  V30 131 H 12.8787 5.31538 0.580656 0
M  V30 132 H 13.2217 3.87855 1.51243 0
M  V30 133 H 13.7547 3.97376 -0.183681 0
M  V30 134 H 10.4937 6.16388 -2.23039 0
M  V30 135 H 10.0137 5.97469 -0.528282 0
M  V30 136 H 11.6927 6.40099 -0.942488 0
M  V30 137 N 11.8248 0.280983 1.55075 0
M  V30 138 C 12.7548 -0.597469 2.25727 0
M  V30 139 C 13.7358 -1.15417 1.24952 0
M  V30 140 O 14.9208 -1.18722 1.53684 0
M  V30 141 C 12.0508 -1.7789 2.98283 0
M  V30 142 C 11.0048 -1.35347 4.06036 0
M  V30 143 C 10.3308 -2.61846 4.66198 0
M  V30 144 C 11.6308 -0.499354 5.19907 0
M  V30 145 H 13.3248 -0.00824265 2.99399 0
M  V30 146 H 10.8708 -0.0025244 1.44 0
M  V30 147 H 12.8238 -2.39937 3.46422 0
M  V30 148 H 11.5478 -2.39405 2.22155 0
M  V30 149 H 10.2068 -0.756156 3.58717 0
M  V30 150 H 9.8548 -3.21632 3.86732 0
M  V30 151 H 9.5548 -2.3409 5.38958 0
M  V30 152 H 11.0788 -3.24732 5.1709 0
M  V30 153 H 12.4928 -1.02498 5.64063 0
M  V30 154 H 10.8898 -0.316424 5.99265 0
M  V30 155 H 11.9598 0.480459 4.82514 0
M  V30 156 N 13.3029 -1.57598 0.00835791 0
M  V30 157 C 14.2329 -2.1198 -0.979113 0
M  V30 158 C 15.2139 -1.03091 -1.35301 0
M  V30 159 O 16.3989 -1.30818 -1.43528 0
M  V30 160 C 13.5289 -2.62995 -2.26828 0
M  V30 161 C 12.4829 -3.76485 -2.03576 0
M  V30 162 C 11.8089 -4.13846 -3.38579 0
M  V30 163 C 13.1089 -5.0342 -1.39161 0
M  V30 164 H 14.8029 -2.94738 -0.526281 0
M  V30 165 H 12.3489 -1.41783 -0.251704 0
M  V30 166 H 14.3019 -2.99669 -2.96271 0
M  V30 167 H 13.0259 -1.7737 -2.7424 0
M  V30 168 H 11.6849 -3.40217 -1.36557 0
M  V30 169 H 11.3329 -3.25232 -3.83709 0
M  V30 170 H 11.0329 -4.90312 -3.23834 0
M  V30 171 H 12.5569 -4.53086 -4.09323 0
M  V30 172 H 13.9709 -5.37812 -1.98573 0
M  V30 173 H 12.3679 -5.84746 -1.34878 0
M  V30 174 H 13.4379 -4.83548 -0.361868 0
M  V30 175 N 14.781 0.264519 -1.55364 0
M  V30 176 C 15.711 1.33121 -1.91836 0
M  V30 177 C 16.692 1.51101 -0.781192 0
M  V30 178 O 17.877 1.64003 -1.04003 0
M  V30 179 C 15.007 2.68921 -2.19769 0
M  V30 180 C 13.961 2.65661 -3.35571 0
M  V30 181 C 13.287 4.05093 -3.49004 0
M  V30 182 C 14.587 2.24187 -4.71739 0
M  V30 183 H 16.281 1.02844 -2.81182 0
M  V30 184 H 13.827 0.493286 -1.35287 0
M  V30 185 H 15.78 3.43663 -2.43872 0
M  V30 186 H 14.504 3.00799 -1.27231 0
M  V30 187 H 13.163 1.93377 -3.1145 0
M  V30 188 H 12.811 4.34206 -2.53917 0
M  V30 189 H 12.511 4.03804 -4.26868 0
M  V30 190 H 14.035 4.81561 -3.75408 0
M  V30 191 H 15.449 2.88654 -4.9533 0
M  V30 192 H 13.846 2.34044 -5.52579 0
M  V30 193 H 14.916 1.19327 -4.69988 0
M  V30 194 N 16.2591 1.48442 0.529413 0
M  V30 195 C 17.4841 1.60406 1.31471 0
M  V30 196 C 17.9091 0.264738 1.86228 0
M  V30 197 O 17.2671 -0.763668 1.64432 0
M  V30 198 C 17.3151 2.65419 2.44101 0
M  V30 199 O 16.4191 2.22618 3.47153 0
M  V30 200 H 15.7601 0.537863 0.389357 0
M  V30 201 H 18.2901 1.94432 0.636965 0
M  V30 202 H 18.3001 2.86709 2.90279 0
M  V30 203 H 16.9751 3.62652 2.03608 0
M  V30 204 H 15.5521 2.11543 3.0709 0
M  V30 205 N 17.7372 -0.778329 1.37039 0
M  V30 206 C 18.9852 -1.53361 1.31623 0
M  V30 207 C 19.3062 -1.94739 -0.100831 0
M  V30 208 O 18.5762 -1.65797 -1.04347 0
M  V30 209 H 17.1562 -0.568794 0.484234 0
M  V30 210 H 19.8182 -0.926742 1.71457 0
M  V30 211 H 18.9142 -2.43606 1.95096 0
M  V30 212 N 19.2153 -1.21501 -1.00376 0
M  V30 213 C 20.4613 -1.04457 -1.74529 0
M  V30 214 C 20.8163 0.417386 -1.87818 0
M  V30 215 O 20.1093 1.30556 -1.40234 0
M  V30 216 C 20.3033 -1.67673 -3.15627 0
M  V30 217 C 20.1323 -3.19865 -3.16096 0
M  V30 218 C 18.9023 -3.88915 -3.22604 0
M  V30 219 C 21.1003 -4.16936 -3.01112 0
M  V30 220 N 19.0823 -5.28284 -3.12712 0
M  V30 221 C 20.4533 -5.43066 -2.99131 0
M  V30 222 C 22.5083 -4.07968 -2.85423 0
M  V30 223 C 21.2113 -6.6126 -2.83068 0
M  V30 224 C 23.2373 -5.258 -2.70718 0
M  V30 225 C 22.5993 -6.50842 -2.69414 0
M  V30 226 H 18.6983 -0.436584 -0.648782 0
M  V30 227 H 21.2823 -1.53875 -1.19293 0
M  V30 228 H 19.4533 -1.20822 -3.6913 0
M  V30 229 H 21.1853 -1.43824 -3.78281 0
M  V30 230 H 17.9403 -3.39847 -3.2985 0
M  V30 231 H 18.3643 -6.01284 -3.11105 0
M  V30 232 H 23.0063 -3.1209 -2.85236 0
M  V30 233 H 20.7243 -7.57298 -2.82002 0
M  V30 234 H 24.3103 -5.20683 -2.59577 0
M  V30 235 H 23.1903 -7.40485 -2.5817 0
M  V30 236 N 20.6934 1.19889 -1.02296 0
M  V30 237 C 21.6564 2.21116 -0.603351 0
M  V30 238 C 22.6564 1.5738 0.329884 0
M  V30 239 O 23.8464 1.73802 0.117702 0
M  V30 240 C 20.9784 3.40696 0.117992 0
M  V30 241 H 22.1714 2.59754 -1.49893 0
M  V30 242 H 19.7244 1.33463 -0.813468 0
M  V30 243 H 20.4594 3.07569 1.0282 0
M  V30 244 H 20.2444 3.88188 -0.552511 0
M  V30 245 H 21.7344 4.15692 0.398696 0
M  V30 246 N 22.1715 0.800033 1.35784 0
M  V30 247 C 23.4185 0.377342 1.98953 0
M  V30 248 C 23.7465 -1.05378 1.6348 0
M  V30 249 O 23.0015 -1.74459 0.886707 0
M  V30 250 C 23.3005 0.500276 3.53881 0
M  V30 251 C 22.9665 1.89375 4.09204 0
M  V30 252 C 21.6285 2.27499 4.24025 0
M  V30 253 C 23.9805 2.8057 4.39238 0
M  V30 254 C 21.3085 3.562 4.66195 0
M  V30 255 C 23.6605 4.0871 4.82844 0
M  V30 256 C 22.3245 4.46843 4.95871 0
M  V30 257 H 21.5945 0.138079 0.728021 0
M  V30 258 H 24.2415 1.01955 1.62103 0
M  V30 259 H 22.5465 -0.225405 3.91151 0
M  V30 260 H 24.2435 0.154097 4.00704 0
M  V30 261 H 20.8335 1.58753 3.98115 0
M  V30 262 H 25.0175 2.52367 4.27346 0
M  V30 263 H 20.2735 3.85602 4.74469 0
M  V30 264 H 24.4475 4.79481 5.05046 0
M  V30 265 H 22.0745 5.46623 5.28306 0
M  V30 266 N 23.6496 -1.47581 0.552962 0
M  V30 267 C 24.8896 -2.04379 0.0296245 0
M  V30 268 C 25.2536 -1.4185 -1.29393 0
M  V30 269 O 26.4546 -1.89669 -1.90471 0
M  V30 270 C 24.7256 -3.57339 -0.0661371 0
M  V30 271 S 26.2846 -4.35511 -0.536213 0
M  V30 272 H 23.1026 -0.710625 0.0230991 0
M  V30 273 H 25.7046 -1.81005 0.738734 0
M  V30 274 H 24.4086 -4.00374 0.901596 0
M  V30 275 H 23.9396 -3.85202 -0.798931 0
M  V30 276 H 25.9546 -4.6253 -1.79668 0
M  V30 277 N 25.1277 -0.289203 -1.54924 0
M  V30 278 C 26.3527 0.329299 -2.04769 0
M  V30 279 C 26.7777 1.4763 -1.16564 0
M  V30 280 O 26.1357 1.80527 -0.167186 0
M  V30 281 C 26.1837 0.774438 -3.52186 0
M  V30 282 O 25.2877 1.88038 -3.67036 0
M  V30 283 H 24.6287 0.0659259 -0.660719 0
M  V30 284 H 27.1587 -0.42761 -2.00082 0
M  V30 285 H 27.1687 1.06642 -3.93816 0
M  V30 286 H 25.8437 -0.0646707 -4.1585 0
M  V30 287 H 24.4207 1.58985 -3.3731 0
M  V30 288 N 26.6058 1.57591 -0.0167156 0
M  V30 289 C 27.5378 2.06343 0.997753 0
M  V30 290 C 28.5508 0.984469 1.29661 0
M  V30 291 O 29.7398 1.26093 1.26344 0
M  V30 292 C 26.8398 2.46255 2.32834 0
M  V30 293 C 26.0128 3.77083 2.21646 0
M  V30 294 C 25.0718 4.0368 3.37534 0
M  V30 295 O 24.0978 4.7411 3.14973 0
M  V30 296 N 25.2998 3.52881 4.60929 0
M  V30 297 H 28.0648 2.93997 0.581875 0
M  V30 298 H 25.6258 1.61002 0.170316 0
M  V30 299 H 27.6178 2.61149 3.09166 0
M  V30 300 H 26.1878 1.64032 2.66106 0
M  V30 301 H 25.4078 3.72106 1.30119 0
M  V30 302 H 26.6958 4.62822 2.11361 0
M  V30 303 H 26.0938 2.95878 4.82154 0
M  V30 304 H 24.6508 3.73076 5.34469 0
M  V30 305 N 28.0839 -0.256276 1.55502 0
M  V30 306 C 29.3609 -1.00789 1.67633 0
M  V30 307 C 29.7409 -2.03706 0.553826 0
M  V30 308 O 29.0889 -2.24145 -0.443969 0
M  V30 309 C 29.2989 -1.64968 3.07549 0
M  V30 310 C 30.6469 -2.15505 3.65845 0
M  V30 311 O 31.6709 -1.74925 3.1029 0
M  V30 312 O 30.5299 -2.89986 4.63217 0
M  V30 313 H 27.6239 -0.468553 0.681459 0
M  V30 314 H 30.1699 -0.250806 1.67836 0
M  V30 315 H 28.9419 -0.904785 3.80696 0
M  V30 316 H 28.5649 -2.47321 3.11317 0
M  V30 317 N 29.562 -1.4872 -0.521534 0
M  V30 318 C 30.525 -1.63379 -1.60748 0
M  V30 319 C 31.525 -0.50661 -1.52611 0
M  V30 320 O 32.715 -0.772601 -1.5613 0
M  V30 321 C 29.847 -1.61192 -3.00383 0
M  V30 322 H 31.04 -2.60217 -1.49087 0
M  V30 323 H 28.593 -1.37444 -0.744235 0
M  V30 324 H 29.328 -0.65863 -3.17541 0
M  V30 325 H 29.113 -2.43032 -3.07698 0
M  V30 326 H 30.603 -1.7466 -3.7932 0
M  V30 327 N 31.0401 0.771051 -1.3745 0
M  V30 328 C 32.2651 1.56529 -1.36065 0
M  V30 329 C 32.6901 1.88029 0.0515859 0
M  V30 330 O 32.0481 1.49282 1.02882 0
M  V30 331 C 32.0961 2.85187 -2.20683 0
M  V30 332 O 31.2001 3.79593 -1.61193 0
M  V30 333 H 30.5411 0.47411 -0.464883 0
M  V30 334 H 33.0711 0.954269 -1.80983 0
M  V30 335 H 33.0811 3.34283 -2.33921 0
M  V30 336 H 31.7561 2.61588 -3.23334 0
M  V30 337 H 30.3331 3.38239 -1.56999 0
M  V30 338 N 32.5182 1.22032 0.997298 0
M  V30 339 C 33.7952 0.950823 1.70935 0
M  V30 340 C 34.1752 -0.535292 2.042 0
M  V30 341 O 33.5232 -1.50217 1.72183 0
M  V30 342 C 33.7332 1.84386 2.96315 0
M  V30 343 C 35.0812 2.09732 3.69185 0
M  V30 344 O 36.1052 1.81798 3.06314 0
M  V30 345 O 34.9642 2.57018 4.82291 0
M  V30 346 H 32.0582 0.357204 0.745878 0
M  V30 347 H 34.6042 1.32997 1.05404 0
M  V30 348 H 33.3762 2.84928 2.68201 0
M  V30 349 H 32.9992 1.46602 3.69586 0
M  V30 350 N 33.9963 -1.19345 1.0293 0
M  V30 351 C 35.2443 -1.88665 0.724574 0
M  V30 352 C 35.5653 -1.80036 -0.749144 0
M  V30 353 O 34.8353 -1.2111 -1.53978 0
M  V30 354 H 33.4153 -0.698406 0.265025 0
M  V30 355 H 36.0773 -1.44885 1.30362 0
M  V30 356 H 35.1733 -2.94987 1.01926 0
M  V30 357 N 35.4744 -0.807222 -1.35358 0
M  V30 358 C 36.4044 -0.232509 -2.3234 0
M  V30 359 C 37.3854 0.642386 -1.57504 0
M  V30 360 O 38.5704 0.572526 -1.85569 0
M  V30 361 C 35.7004 0.619238 -3.41735 0
M  V30 362 C 34.6544 -0.157215 -4.27711 0
M  V30 363 C 33.9804 0.816273 -5.28433 0
M  V30 364 C 35.2804 -1.35656 -5.04376 0
M  V30 365 H 36.9744 -1.04276 -2.80654 0
M  V30 366 H 34.5204 -0.50288 -1.34934 0
M  V30 367 H 36.4734 1.03137 -4.08584 0
M  V30 368 H 35.1974 1.46239 -2.92031 0
M  V30 369 H 33.8564 -0.550525 -3.62443 0
M  V30 370 H 33.5044 1.65494 -4.74996 0
M  V30 371 H 33.2044 0.301067 -5.86828 0
M  V30 372 H 34.7284 1.22659 -5.98153 0
M  V30 373 H 36.1424 -1.01927 -5.64166 0
M  V30 374 H 34.5394 -1.8063 -5.7227 0
M  V30 375 H 35.6094 -2.14288 -4.34981 0
M  V30 376 N 36.9525 1.47285 -0.560781 0
M  V30 377 C 37.8845 2.28118 0.222438 0
M  V30 378 C 38.8975 1.37219 0.876056 0
M  V30 379 O 40.0865 1.62011 0.749307 0
M  V30 380 C 37.1865 3.1159 1.33285 0
M  V30 381 C 36.3595 4.30473 0.77534 0
M  V30 382 C 35.4185 4.95513 1.77069 0
M  V30 383 O 34.4445 5.53792 1.31539 0
M  V30 384 N 35.6465 4.90531 3.10418 0
M  V30 385 H 38.4115 2.95976 -0.470958 0
M  V30 386 H 35.9725 1.56955 -0.39709 0
M  V30 387 H 37.9645 3.51967 1.99752 0
M  V30 388 H 36.5345 2.45951 1.92943 0
M  V30 389 H 35.7545 3.94144 -0.0662113 0
M  V30 390 H 37.0425 5.07362 0.382272 0
M  V30 391 H 36.4405 4.44389 3.5005 0
M  V30 392 H 34.9975 5.34917 3.72434 0
M  V30 393 N 38.4306 0.297415 1.54768 0
M  V30 394 C 39.8466 -0.0560823 1.59501 0
M  V30 395 C 40.0466 -1.52725 1.31444 0
M  V30 396 O 39.1026 -2.27947 1.08611 0
M  V30 397 C 40.4156 0.338631 2.98787 0
M  V30 398 C 41.9636 0.287097 3.11681 0
M  V30 399 C 42.4386 0.656579 4.53269 0
M  V30 400 N 43.9296 0.608977 4.59179 0
M  V30 401 C 44.6646 0.867385 5.66802 0
M  V30 402 N 44.1606 1.19157 6.82476 0
M  V30 403 N 45.9536 0.794687 5.56454 0
M  V30 404 H 38.1046 1.25624 1.71267 0
M  V30 405 H 40.3676 0.509057 0.799728 0
M  V30 406 H 40.0736 1.36263 3.2423 0
M  V30 407 H 39.9476 -0.309508 3.75928 0
M  V30 408 H 42.3346 -0.727649 2.85988 0
M  V30 409 H 42.4156 0.969809 2.36703 0
M  V30 410 H 42.0596 1.66912 4.7969 0
M  V30 411 H 41.9896 -0.0481649 5.26578 0
M  V30 412 H 44.4806 0.369198 3.76092 0
M  V30 413 H 44.7936 1.37482 7.60473 0
M  V30 414 H 43.1386 1.22958 6.84037 0
M  V30 415 H 46.3296 0.541098 4.64962 0
M  V30 416 H 46.5026 0.999445 6.40246 0
M  V30 417 N 39.9087 -1.5758 0.0250728 0
M  V30 418 C 40.8387 -2.13007 -0.956575 0
M  V30 419 C 41.8197 -1.0452 -1.342 0
M  V30 420 O 43.0047 -1.32332 -1.42133 0
M  V30 421 C 40.1347 -2.65386 -2.24026 0
M  V30 422 C 39.0887 -3.78623 -1.99571 0
M  V30 423 C 38.4147 -4.17414 -3.3417 0
M  V30 424 C 39.7147 -5.04867 -1.33814 0
M  V30 425 H 41.4087 -2.9528 -0.494991 0
M  V30 426 H 38.9547 -1.42042 -0.236651 0
M  V30 427 H 40.9077 -3.02794 -2.93076 0
M  V30 428 H 39.6317 -1.80268 -2.72343 0
M  V30 429 H 38.2907 -3.41646 -1.32941 0
M  V30 430 H 37.9387 -3.29284 -3.80238 0
M  V30 431 H 37.6387 -4.93719 -3.18615 0
M  V30 432 H 39.1627 -4.57402 -4.04495 0
M  V30 433 H 40.5767 -5.39888 -1.92857 0
M  V30 434 H 38.9737 -5.86144 -1.28669 0
M  V30 435 H 40.0437 -4.83904 -0.310561 0
M  V30 436 N 41.3868 0.248026 -1.55636 0
M  V30 437 C 42.3368 1.30994 -1.86614 0
M  V30 438 C 43.3208 1.43543 -0.726918 0
M  V30 439 O 44.5128 1.46804 -0.988818 0
M  V30 440 C 41.6418 2.6656 -2.16335 0
M  V30 441 C 40.7278 2.58019 -3.36581 0
M  V30 442 N 41.1188 2.1911 -4.55878 0
M  V30 443 C 39.4168 2.89035 -3.39669 0
M  V30 444 C 40.1178 2.21174 -5.38012 0
M  V30 445 N 39.0938 2.60632 -4.77045 0
M  V30 446 H 42.8958 0.999583 -2.76379 0
M  V30 447 H 40.4098 0.456652 -1.55848 0
M  V30 448 H 42.4068 3.43194 -2.36692 0
M  V30 449 H 41.0668 2.98463 -1.27867 0
M  V30 450 H 42.0778 1.90672 -4.81523 0
M  V30 451 H 38.7548 3.25485 -2.61469 0
M  V30 452 H 40.1448 1.9344 -6.43452 0
M  V30 453 N 42.8649 1.48995 0.513639 0
M  V30 454 C 43.7979 1.59319 1.63379 0
M  V30 455 C 44.7759 0.442816 1.56454 0
M  V30 456 O 45.9599 0.656655 1.76693 0
M  V30 457 C 43.0869 1.5364 3.01848 0
M  V30 458 C 42.1329 2.7372 3.27078 0
M  V30 459 S 42.9659 4.35528 3.1157 0
M  V30 460 C 44.1219 4.32473 4.52458 0
M  V30 461 H 44.3549 2.54079 1.54374 0
M  V30 462 H 41.8879 1.3773 0.697849 0
M  V30 463 H 43.8459 1.51049 3.81699 0
M  V30 464 H 42.5069 0.601898 3.08279 0
M  V30 465 H 41.6999 2.6593 4.28132 0
M  V30 466 H 41.3019 2.73657 2.54927 0
M  V30 467 H 43.5939 4.03414 5.44301 0
M  V30 468 H 44.5369 5.33762 4.65299 0
M  V30 469 H 44.9449 3.62718 4.32546 0
M  V30 470 N 44.343 -0.763751 1.37857 0
M  V30 471 C 45.273 -1.89103 1.36975 0
M  V30 472 C 46.254 -1.68439 0.237152 0
M  V30 473 O 47.439 -1.8918 0.438713 0
M  V30 474 C 44.569 -3.26496 1.18395 0
M  V30 475 C 43.523 -3.61741 2.28751 0
M  V30 476 C 42.849 -4.97762 1.95286 0
M  V30 477 C 44.149 -3.67665 3.70972 0
M  V30 478 H 45.843 -1.90099 2.31307 0
M  V30 479 H 43.389 -0.91319 1.11341 0
M  V30 480 H 45.342 -4.05003 1.16406 0
M  V30 481 H 44.066 -3.25955 0.205215 0
M  V30 482 H 42.725 -2.85547 2.29909 0
M  V30 483 H 42.373 -4.93769 0.959221 0
M  V30 484 H 42.073 -5.22313 2.69189 0
M  V30 485 H 43.597 -5.7866 1.94898 0
M  V30 486 H 45.011 -4.36307 3.719 0
M  V30 487 H 43.408 -4.03718 4.43995 0
M  V30 488 H 44.478 -2.68134 4.0402 0
M  V30 489 N 45.8211 -1.22559 -0.990812 0
M  V30 490 C 46.7531 -0.955325 -2.08342 0
M  V30 491 C 47.7661 0.0668408 -1.62663 0
M  V30 492 O 48.9551 -0.167421 -1.77713 0
M  V30 493 C 46.0551 -0.415566 -3.36342 0
M  V30 494 C 45.2281 -1.49544 -4.11042 0
M  V30 495 C 44.2871 -0.962399 -5.17324 0
M  V30 496 O 43.3131 -1.64907 -5.44788 0
M  V30 497 N 44.5151 0.215134 -5.80101 0
M  V30 498 H 47.2801 -1.89596 -2.32106 0
M  V30 499 H 44.8411 -1.13276 -1.15673 0
M  V30 500 H 46.8331 -0.0442386 -4.04676 0
M  V30 501 H 45.4031 0.430232 -3.09625 0
M  V30 502 H 44.6231 -2.04 -3.37309 0
M  V30 503 H 45.9111 -2.22195 -4.57719 0
M  V30 504 H 45.3091 0.789779 -5.6016 0
M  V30 505 H 43.8661 0.527826 -6.49659 0
M  V30 506 N 47.2992 1.18797 -1.03562 0
M  V30 507 C 48.5482 1.87978 -0.731235 0
M  V30 508 C 48.8612 1.80911 0.743671 0
M  V30 509 O 50.0672 2.45407 1.16137 0
M  V30 510 C 48.5232 3.3721 -1.25768 0
M  V30 511 C 48.1312 3.52818 -2.76085 0
M  V30 512 C 49.8752 4.11825 -1.0296 0
M  V30 513 C 47.7822 4.9598 -3.22114 0
M  V30 514 H 46.7122 0.704063 -0.269835 0
M  V30 515 H 49.3632 1.34266 -1.25079 0
M  V30 516 H 47.7452 3.90359 -0.666011 0
M  V30 517 H 48.9192 3.09965 -3.40966 0
M  V30 518 H 47.2342 2.91602 -2.97249 0
M  V30 519 H 49.8312 5.17411 -1.34869 0
M  V30 520 H 50.1742 4.16287 0.0333546 0
M  V30 521 H 50.7072 3.64833 -1.58562 0
M  V30 522 H 47.4462 4.96684 -4.27768 0
M  V30 523 H 46.9662 5.39569 -2.61965 0
M  V30 524 H 48.6452 5.6467 -3.15844 0
M  V30 525 N 48.7773 0.814389 1.34928 0
M  V30 526 C 50.0023 0.410097 2.03305 0
M  V30 527 C 50.4273 -0.973464 1.60951 0
M  V30 528 O 49.7853 -1.63185 0.789964 0
M  V30 529 C 49.8333 0.51049 3.56968 0
M  V30 530 O 48.9373 -0.473035 4.09678 0
M  V30 531 H 48.2783 0.170088 0.641846 0
M  V30 532 H 50.8083 1.10244 1.72358 0
M  V30 533 H 50.8183 0.383135 4.06197 0
M  V30 534 H 49.4933 1.51963 3.87144 0
M  V30 535 H 48.0703 -0.305272 3.71648 0
M  V30 536 N 50.2554 -1.46986 0.568584 0
M  V30 537 C 51.4854 -2.0653 0.0539173 0
M  V30 538 C 51.8934 -1.42004 -1.25026 0
M  V30 539 O 51.2364 -0.514541 -1.76347 0
M  V30 540 C 51.2984 -3.58938 -0.200854 0
M  V30 541 C 50.9624 -4.45572 1.01559 0
M  V30 542 C 51.9594 -4.82986 1.92407 0
M  V30 543 C 49.6444 -4.8692 1.23346 0
M  V30 544 C 51.6384 -5.60559 3.03402 0
M  V30 545 C 49.3254 -5.64255 2.34649 0
M  V30 546 C 50.3234 -6.00986 3.24507 0
M  V30 547 O 50.0114 -6.76761 4.33878 0
M  V30 548 H 49.7434 -0.674292 0.0480234 0
M  V30 549 H 52.2974 -1.89812 0.784896 0
M  V30 550 H 50.5274 -3.73911 -0.986279 0
M  V30 551 H 52.2164 -4.0046 -0.662294 0
M  V30 552 H 52.9824 -4.51633 1.76785 0
M  V30 553 H 48.8614 -4.57789 0.543178 0
M  V30 554 H 52.4054 -5.89147 3.73565 0
M  V30 555 H 48.3024 -5.95021 2.5024 0
M  V30 556 H 49.0704 -6.95168 4.32068 0
M  V30 557 N 51.7335 -0.305618 -1.54608 0
M  V30 558 C 52.9805 0.302298 -2.00231 0
M  V30 559 C 53.3085 1.5354 -1.19398 0
M  V30 560 O 52.5635 1.93973 -0.259423 0
M  V30 561 C 52.8625 0.698983 -3.50498 0
M  V30 562 C 52.5285 -0.432903 -4.48817 0
M  V30 563 C 51.1905 -0.743622 -4.75419 0
M  V30 564 C 53.5425 -1.19409 -5.07337 0
M  V30 565 C 50.8705 -1.81857 -5.57804 0
M  V30 566 C 53.2225 -2.25899 -5.90891 0
M  V30 567 C 51.8865 -2.57572 -6.15803 0
M  V30 568 H 51.1565 0.110619 -0.732697 0
M  V30 569 H 53.8035 -0.425674 -1.86709 0
M  V30 570 H 52.1085 1.50711 -3.61654 0
M  V30 571 H 53.8055 1.1806 -3.83227 0
M  V30 572 H 50.3955 -0.18063 -4.28219 0
M  V30 573 H 54.5795 -0.967295 -4.86782 0
M  V30 574 H 49.8355 -2.06864 -5.75341 0
M  V30 575 H 54.0095 -2.85335 -6.35261 0
M  V30 576 H 51.6365 -3.40998 -6.7943 0
M  V30 577 N 53.2116 1.57565 -0.0334293 0
M  V30 578 C 54.6276 1.56297 0.322997 0
M  V30 579 C 54.8276 1.03945 1.7262 0
M  V30 580 O 53.8836 0.688109 2.42943 0
M  V30 581 C 55.1966 3.00232 0.167664 0
M  V30 582 C 56.7446 3.12078 0.240107 0
M  V30 583 C 57.2196 4.57859 0.113513 0
M  V30 584 N 58.7106 4.62887 0.170359 0
M  V30 585 C 59.4456 5.73319 0.0962517 0
M  V30 586 N 58.9416 6.92794 -0.0291881 0
M  V30 587 N 60.7346 5.61898 0.150551 0
M  V30 588 H 52.8856 1.89923 -0.950956 0
M  V30 589 H 55.1486 0.873824 -0.367608 0
M  V30 590 H 54.8546 3.42501 -0.799102 0
M  V30 591 H 54.7286 3.654 0.936083 0
M  V30 592 H 57.1156 2.69718 1.19733 0
M  V30 593 H 57.1966 2.49623 -0.558763 0
M  V30 594 H 56.8406 5.009 -0.840314 0
M  V30 595 H 56.7706 5.18299 0.931302 0
M  V30 596 H 59.2616 3.76954 0.26728 0
M  V30 597 H 59.5746 7.7276 -0.0789252 0
M  V30 598 H 57.9196 6.94971 -0.0640299 0
M  V30 599 H 61.1106 4.67448 0.246981 0
M  V30 600 H 61.2836 6.47938 0.0893365 0
M  V30 601 N 54.6897 -0.239769 1.55765 0
M  V30 602 C 55.9667 -0.990056 1.68693 0
M  V30 603 C 56.3467 -2.03107 0.5754 0
M  V30 604 O 55.6947 -2.24604 -0.42017 0
M  V30 605 C 55.9047 -1.61696 3.09282 0
M  V30 606 C 57.2527 -2.11613 3.6811 0
M  V30 607 O 58.2767 -1.71624 3.12127 0
M  V30 608 O 57.1357 -2.85057 4.66267 0
M  V30 609 H 54.2297 -0.461299 0.686391 0
M  V30 610 H 56.7757 -0.232991 1.68093 0
M  V30 611 H 55.5477 -0.864357 3.81634 0
M  V30 612 H 55.1707 -2.44005 3.13923 0
M  V30 613 N 56.1678 -1.49265 -0.50573 0
M  V30 614 C 57.5788 -1.51769 -1.08734 0
M  V30 615 C 57.9298 -0.301192 -1.93874 0
M  V30 616 O 57.0548 0.589456 -2.08217 0
M  V30 617 C 57.6498 -2.75017 -1.97867 0
M  V30 618 C 56.2088 -2.80314 -2.51199 0
M  V30 619 C 55.3558 -2.4562 -1.28709 0
M  V30 620 H 58.3068 -1.56031 -0.289855 0
M  V30 621 H 58.3278 -2.5491 -2.82491 0
M  V30 622 H 57.8398 -3.63539 -1.35873 0
M  V30 623 H 55.9408 -1.96061 -3.16845 0
M  V30 624 H 56.0538 -3.82366 -2.88675 0
M  V30 625 H 54.4178 -1.97297 -1.61078 0
M  V30 626 H 55.2008 -3.36411 -0.6843 0
M  V30 627 N 57.6459 0.756429 -1.3826 0
M  V30 628 C 58.8759 1.54341 -1.3734 0
M  V30 629 C 59.2839 1.89159 0.0393917 0
M  V30 630 O 58.6269 1.5307 1.01565 0
M  V30 631 C 58.6889 2.87238 -2.16182 0
M  V30 632 C 58.3529 2.74973 -3.65019 0
M  V30 633 C 59.3499 2.44962 -4.58574 0
M  V30 634 C 57.0349 2.92515 -4.08338 0
M  V30 635 C 59.0289 2.32642 -5.93428 0
M  V30 636 C 56.7159 2.79815 -5.43274 0
M  V30 637 C 57.7139 2.49921 -6.35632 0
M  V30 638 O 57.4019 2.37275 -7.68086 0
M  V30 639 H 57.1339 0.484281 -0.471643 0
M  V30 640 H 59.6879 0.944152 -1.82414 0
M  V30 641 H 57.9179 3.49342 -1.65822 0
M  V30 642 H 59.6069 3.48731 -2.07705 0
M  V30 643 H 60.3729 2.31081 -4.26412 0
M  V30 644 H 56.2519 3.14781 -3.368 0
M  V30 645 H 59.7959 2.0923 -6.65484 0
M  V30 646 H 55.6929 2.93269 -5.75034 0
M  V30 647 H 56.4609 2.52509 -7.78577 0
M  V30 648 N 59.124 1.23083 0.984299 0
M  V30 649 C 60.074 0.975749 2.06066 0
M  V30 650 C 61.058 -0.0768251 1.60716 0
M  V30 651 O 62.25 0.134805 1.76486 0
M  V30 652 C 59.379 0.564673 3.38624 0
M  V30 653 C 58.465 1.65244 3.90583 0
M  V30 654 N 58.856 2.88193 4.15666 0
M  V30 655 C 57.154 1.52612 4.19077 0
M  V30 656 C 57.855 3.58593 4.58024 0
M  V30 657 N 56.831 2.86093 4.62225 0
M  V30 658 H 60.633 1.90957 2.23411 0
M  V30 659 H 58.147 1.12963 1.16675 0
M  V30 660 H 60.144 0.36322 4.15315 0
M  V30 661 H 58.804 -0.362147 3.22674 0
M  V30 662 H 59.815 3.24537 4.03604 0
M  V30 663 H 56.492 0.666121 4.12152 0
M  V30 664 H 57.882 4.63974 4.85982 0
M  V30 665 N 60.6021 -1.18246 1.0419 0
M  V30 666 C 61.8481 -1.88536 0.747122 0
M  V30 667 C 62.1811 -1.80223 -0.723409 0
M  V30 668 O 61.4561 -1.20337 -1.52804 0
M  V30 669 C 61.7391 -3.38968 1.21544 0
M  V30 670 C 61.5921 -3.56084 2.74816 0
M  V30 671 C 62.9111 -4.32648 0.806482 0
M  V30 672 H 60.0301 -0.684619 0.272883 0
M  V30 673 H 62.6721 -1.39113 1.29413 0
M  V30 674 H 60.8221 -3.8119 0.750081 0
M  V30 675 H 62.4941 -3.22946 3.29399 0
M  V30 676 H 60.7371 -2.98699 3.14582 0
M  V30 677 H 61.4081 -4.61639 3.02644 0
M  V30 678 H 63.8841 -3.98211 1.20695 0
M  V30 679 H 62.7601 -5.36462 1.1619 0
M  V30 680 H 63.0211 -4.41146 -0.29029 0
M  V30 681 N 62.0802 -0.821533 -1.34494 0
M  V30 682 C 63.3262 -0.418729 -1.99043 0
M  V30 683 C 63.6812 1.00672 -1.6396 0
M  V30 684 O 62.9742 1.69132 -0.900271 0
M  V30 685 C 63.1682 -0.556512 -3.53041 0
M  V30 686 C 62.9972 -1.9938 -4.03085 0
M  V30 687 C 61.7672 -2.62539 -4.31742 0
M  V30 688 C 63.9652 -2.96035 -4.20556 0
M  V30 689 N 61.9472 -3.97523 -4.67813 0
M  V30 690 C 63.3182 -4.15924 -4.59791 0
M  V30 691 C 65.3732 -2.9267 -4.02801 0
M  V30 692 C 64.0762 -5.32899 -4.83126 0
M  V30 693 C 66.1022 -4.08861 -4.27302 0
M  V30 694 C 65.4642 -5.275 -4.66822 0
M  V30 695 H 61.5632 -0.201299 -0.755647 0
M  V30 696 H 64.1472 -1.06594 -1.62929 0
M  V30 697 H 62.3182 0.0607924 -3.88352 0
M  V30 698 H 64.0502 -0.126842 -4.04501 0
M  V30 699 H 60.8052 -2.13789 -4.22601 0
M  V30 700 H 61.2292 -4.67061 -4.90085 0
M  V30 701 H 65.8712 -2.02088 -3.71376 0
M  V30 702 H 63.5892 -6.24041 -5.13418 0
M  V30 703 H 67.1752 -4.07654 -4.15101 0
M  V30 704 H 66.0552 -6.15913 -4.85408 0
M  V30 705 N 63.5583 1.46682 -0.576371 0
M  V30 706 C 64.7883 2.06498 -0.0648694 0
M  V30 707 C 65.1963 1.42665 1.24271 0
M  V30 708 O 64.5393 0.523886 1.76071 0
M  V30 709 C 64.6013 3.5904 0.181816 0
M  V30 710 C 64.2653 4.45028 -1.0392 0
M  V30 711 C 65.2623 4.81959 -1.94966 0
M  V30 712 C 62.9473 4.86259 -1.25927 0
M  V30 713 C 64.9413 5.58942 -3.06371 0
M  V30 714 C 62.6283 5.63002 -2.37638 0
M  V30 715 C 63.6263 5.99257 -3.2769 0
M  V30 716 O 63.3143 6.7445 -4.37461 0
M  V30 717 H 63.0463 0.674028 -0.0515987 0
M  V30 718 H 65.6003 1.89393 -0.794951 0
M  V30 719 H 63.8303 3.74429 0.966436 0
M  V30 720 H 65.5193 4.00806 0.641047 0
M  V30 721 H 66.2853 4.50689 -1.79177 0
M  V30 722 H 62.1643 4.57494 -0.567448 0
M  V30 723 H 65.7083 5.87158 -3.76684 0
M  V30 724 H 61.6053 5.93686 -2.53392 0
M  V30 725 H 62.3733 6.92867 -4.35749 0
M  V30 726 N 65.0364 0.313813 1.54444 0
M  V30 727 C 65.9684 -0.590425 2.21465 0
M  V30 728 C 66.9814 -1.08753 1.21147 0
M  V30 729 O 68.1704 -1.00278 1.4767 0
M  V30 730 C 65.2704 -1.82179 2.85769 0
M  V30 731 C 64.4434 -1.46502 4.12136 0
M  V30 732 C 63.5024 -2.55288 4.60124 0
M  V30 733 O 62.5284 -2.19842 5.25032 0
M  V30 734 N 63.7304 -3.86053 4.33525 0
M  V30 735 H 66.4954 -0.0166033 2.99695 0
M  V30 736 H 64.0564 0.136578 1.61323 0
M  V30 737 H 66.0484 -2.54328 3.14801 0
M  V30 738 H 64.6184 -2.30369 2.11303 0
M  V30 739 H 63.8384 -0.575595 3.89975 0
M  V30 740 H 65.1264 -1.20221 4.94393 0
M  V30 741 H 64.5244 -4.17654 3.81552 0
M  V30 742 H 63.0814 -4.54461 4.67235 0
M  V30 743 N 66.5145 -1.57545 0.0417849 0
M  V30 744 C 67.7625 -1.91937 -0.632829 0
M  V30 745 C 68.0835 -0.919978 -1.71934 0
M  V30 746 O 67.3535 0.0366064 -1.95866 0
M  V30 747 H 65.9335 -0.708493 -0.236742 0
M  V30 748 H 68.5955 -1.9468 0.0925745 0
M  V30 749 H 67.6915 -2.92912 -1.07746 0
M  V30 750 N 67.9926 0.231505 -1.5589 0
M  V30 751 C 68.9406 1.30649 -1.92441 0
M  V30 752 C 69.9346 1.49037 -0.805254 0
M  V30 753 O 71.1406 1.50329 -0.990007 0
M  V30 754 H 67.5156 0.437812 -0.611412 0
M  V30 755 H 69.4866 0.970973 -2.82161 0
M  V30 756 C 68.2356 2.65179 -2.24889 0
M  V30 757 H 67.5586 2.51835 -3.10514 0
M  V30 758 H 68.9986 3.39234 -2.54355 0
M  V30 759 C 67.4576 3.19439 -1.07054 0
M  V30 760 O 67.9876 4.00371 -0.326499 0
M  V30 761 N 66.1936 2.77675 -0.85703 0
M  V30 762 H 65.7406 2.11969 -1.46379 0
M  V30 763 H 65.6986 3.14321 -0.0703223 0
M  V30 764 N 69.4707 1.49531 0.497807 0
M  V30 765 C 70.4337 1.65916 1.58128 0
M  V30 766 C 71.4337 0.530825 1.51786 0
M  V30 767 O 72.6237 0.797342 1.54881 0
M  V30 768 C 69.7557 1.65951 2.9778 0
M  V30 769 H 70.9487 2.62556 1.44929 0
M  V30 770 H 68.5017 1.38611 0.722275 0
M  V30 771 H 69.2367 0.709065 3.16453 0
M  V30 772 H 69.0217 2.47897 3.03792 0
M  V30 773 H 70.5117 1.80673 3.76493 0
M  V30 774 N 70.9488 -0.749086 1.3866 0
M  V30 775 C 72.1738 -1.54344 1.38538 0
M  V30 776 C 72.5988 -1.88088 -0.0216655 0
M  V30 777 O 71.9568 -1.50899 -1.00494 0
M  V30 778 C 72.0048 -2.8164 2.25192 0
M  V30 779 O 71.1088 -3.7698 1.67212 0
M  V30 780 H 70.4498 -0.466654 0.472367 0
M  V30 781 H 72.9798 -0.925355 1.82478 0
M  V30 782 H 72.9898 -3.30519 2.3921 0
M  V30 783 H 71.6648 -2.56411 3.27454 0
M  V30 784 H 70.2418 -3.35699 1.6236 0
M  V30 785 N 72.4269 -1.23603 -0.977757 0
M  V30 786 C 73.3569 -1.04401 -2.0886 0
M  V30 787 C 74.3379 0.0399052 -1.70053 0
M  V30 788 O 75.5229 -0.125246 -1.93796 0
M  V30 789 C 72.6529 -0.637269 -3.41403 0
M  V30 790 C 71.6069 -1.66883 -3.94124 0
M  V30 791 C 70.9329 -1.11745 -5.22893 0
M  V30 792 C 72.2329 -3.06247 -4.23096 0
M  V30 793 H 73.9269 -1.97316 -2.25182 0
M  V30 794 H 71.4729 -0.950096 -1.08209 0
M  V30 795 H 73.4259 -0.48998 -4.18542 0
M  V30 796 H 72.1499 0.327557 -3.24953 0
M  V30 797 H 70.8089 -1.80416 -3.19133 0
M  V30 798 H 70.4569 -0.143527 -5.02795 0
M  V30 799 H 70.1569 -1.80672 -5.59134 0
M  V30 800 H 71.6809 -0.982067 -6.02651 0
M  V30 801 H 73.0949 -2.96001 -4.90975 0
M  V30 802 H 71.4919 -3.72436 -4.70544 0
M  V30 803 H 72.5619 -3.55041 -3.30263 0
M  V30 804 N 73.905 1.17692 -1.04816 0
M  V30 805 C 75.153 1.87488 -0.754497 0
M  V30 806 C 75.474 1.81205 0.720407 0
M  V30 807 O 74.744 1.23544 1.52032 0
M  V30 808 H 73.324 0.694101 -0.276102 0
M  V30 809 H 75.986 1.42793 -1.32651 0
M  V30 810 H 75.082 2.93328 -1.06606 0
M  V30 811 N 75.3831 0.828654 1.34056 0
M  V30 812 C 76.6311 0.41863 1.97717 0
M  V30 813 C 76.9521 -1.02314 1.66002 0
M  V30 814 O 76.2221 -1.71119 0.953683 0
M  V30 815 H 74.8021 0.151809 0.731412 0
M  V30 816 H 77.4641 1.05936 1.63596 0
M  V30 817 H 76.5601 0.542318 3.07352 0
M  V30 818 N 76.8612 -1.46375 0.584142 0
M  V30 819 C 77.8112 -2.27371 -0.169232 0
M  V30 820 C 78.7952 -1.35955 -0.860523 0
M  V30 821 O 79.9872 -1.60119 -0.754382 0
M  V30 822 C 77.1162 -3.22334 -1.18134 0
M  V30 823 C 76.2022 -4.21235 -0.492088 0
M  V30 824 N 76.5932 -5.03766 0.453129 0
M  V30 825 C 74.8912 -4.39773 -0.742652 0
M  V30 826 C 75.5922 -5.75366 0.85609 0
M  V30 827 N 74.5682 -5.43214 0.204926 0
M  V30 828 H 78.3702 -2.88572 0.557097 0
M  V30 829 H 75.8842 -1.57242 0.406042 0
M  V30 830 H 77.8812 -3.79071 -1.73525 0
M  V30 831 H 76.5412 -2.62693 -1.90847 0
M  V30 832 H 77.5522 -5.11227 0.828723 0
M  V30 833 H 74.2292 -3.91279 -1.45625 0
M  V30 834 H 75.6192 -6.5172 1.63434 0
M  V30 835 N 78.3393 -0.321999 -1.54275 0
M  V30 836 C 79.2693 0.537411 -2.27231 0
M  V30 837 C 80.2503 1.12064 -1.27968 0
M  V30 838 O 81.4353 1.14606 -1.56777 0
M  V30 839 C 78.5653 1.69919 -3.02894 0
M  V30 840 C 77.5193 1.24534 -4.09482 0
M  V30 841 C 76.8453 2.49394 -4.72977 0
M  V30 842 C 78.1453 0.361335 -5.21049 0
M  V30 843 H 79.8393 -0.0711406 -2.99315 0
M  V30 844 H 77.3853 -0.0356555 -1.43956 0
M  V30 845 H 79.3383 2.30668 -3.52662 0
M  V30 846 H 78.0623 2.33431 -2.28424 0
M  V30 847 H 76.7213 0.660782 -3.60596 0
M  V30 848 H 76.3693 3.11265 -3.95124 0
M  V30 849 H 76.0693 2.19718 -5.44975 0
M  V30 850 H 77.5933 3.10908 -5.25517 0
M  V30 851 H 79.0073 0.875072 -5.66582 0
M  V30 852 H 77.4043 0.157428 -5.99893 0
M  V30 853 H 78.4743 -0.60822 -4.8107 0
M  V30 854 N 79.8174 1.5752 -0.0501392 0
M  V30 855 C 81.0454 1.96963 0.633492 0
M  V30 856 C 81.4604 0.927631 1.6444 0
M  V30 857 O 80.8174 -0.0882665 1.82286 0
M  V30 858 C 80.8684 3.36487 1.32132 0
M  V30 859 O 80.5894 4.36693 0.350894 0
M  V30 860 C 82.0904 3.90682 2.09481 0
M  V30 861 H 79.3104 0.648244 0.173266 0
M  V30 862 H 81.8544 2.0417 -0.116134 0
M  V30 863 H 80.0094 3.30434 2.02218 0
M  V30 864 H 80.4234 5.17702 0.841735 0
M  V30 865 H 81.8974 4.90591 2.5303 0
M  V30 866 H 82.3744 3.26053 2.94255 0
M  V30 867 H 82.9804 4.00069 1.44307 0
M  V30 868 N 81.2955 -0.223234 1.56011 0
M  V30 869 C 82.2455 -1.28008 1.88674 0
M  V30 870 C 83.2295 -1.42369 0.749663 0
M  V30 871 O 84.4215 -1.45212 1.01205 0
M  V30 872 C 81.5505 -2.63084 2.20548 0
M  V30 873 C 80.6365 -2.52632 3.40643 0
M  V30 874 N 81.0275 -2.11829 4.59306 0
M  V30 875 C 79.3255 -2.83594 3.44224 0
M  V30 876 C 80.0265 -2.12587 5.41463 0
M  V30 877 N 79.0025 -2.5301 4.81131 0
M  V30 878 H 82.8045 -0.955487 2.77935 0
M  V30 879 H 80.3185 -0.431801 1.56554 0
M  V30 880 H 82.3155 -3.39385 2.42122 0
M  V30 881 H 80.9755 -2.96391 1.32599 0
M  V30 882 H 81.9865 -1.82988 4.84496 0
M  V30 883 H 78.6635 -3.21284 2.66614 0
M  V30 884 H 80.0535 -1.83179 6.46448 0
M  V30 885 N 82.7736 -1.49793 -0.48987 0
M  V30 886 C 84.0196 -1.60078 -1.24511 0
M  V30 887 C 84.3526 -0.291608 -1.91998 0
M  V30 888 O 83.6276 0.705647 -1.81248 0
M  V30 889 C 83.9106 -2.76791 -2.30345 0
M  V30 890 C 83.7636 -4.17535 -1.67286 0
M  V30 891 C 85.0826 -2.89111 -3.31817 0
M  V30 892 H 82.2016 -0.582645 -0.451324 0
M  V30 893 H 84.8436 -1.82117 -0.541612 0
M  V30 894 H 82.9936 -2.5813 -2.90346 0
M  V30 895 H 84.6656 -4.4774 -1.11026 0
M  V30 896 H 82.9086 -4.22665 -0.976577 0
M  V30 897 H 83.5796 -4.95094 -2.44103 0
M  V30 898 H 86.0556 -3.06133 -2.81819 0
M  V30 899 H 84.9316 -3.72433 -4.03219 0
M  V30 900 H 85.1926 -1.9893 -3.94815 0
M  V30 901 N 84.2517 0.741722 -1.39055 0
M  V30 902 C 85.1817 1.869 -1.39966 0
M  V30 903 C 86.1627 1.6804 -0.26392 0
M  V30 904 O 87.3477 1.88458 -0.468755 0
M  V30 905 C 84.4777 3.24572 -1.23574 0
M  V30 906 C 83.4317 3.58056 -2.34477 0
M  V30 907 C 82.7577 4.94593 -2.0318 0
M  V30 908 C 84.0577 3.61716 -3.76774 0
M  V30 909 H 85.7517 1.86395 -2.34302 0
M  V30 910 H 83.2977 0.895361 -1.1278 0
M  V30 911 H 85.2507 4.031 -1.22834 0
M  V30 912 H 83.9747 3.25587 -0.257045 0
M  V30 913 H 82.6337 2.81854 -2.34423 0
M  V30 914 H 82.2817 4.92181 -1.03765 0
M  V30 915 H 81.9817 5.17964 -2.77465 0
M  V30 916 H 83.5057 5.75486 -2.04079 0
M  V30 917 H 84.9197 4.30335 -3.78794 0
M  V30 918 H 83.3167 3.96603 -4.50362 0
M  V30 919 H 84.3867 2.61672 -4.08235 0
M  V30 920 N 85.7298 1.2412 0.971189 0
M  V30 921 C 86.6398 1.04747 2.09917 0
M  V30 922 C 87.6558 -0.0107162 1.73997 0
M  V30 923 O 88.8318 0.186714 2.00533 0
M  V30 924 C 85.8968 0.650828 3.40537 0
M  V30 925 C 84.9578 1.7851 3.90426 0
M  V30 926 C 84.1908 1.40729 5.14812 0
M  V30 927 O 84.4138 0.29557 5.69634 0
M  V30 928 O 83.3478 2.23168 5.58999 0
M  V30 929 H 87.1738 1.99304 2.29154 0
M  V30 930 H 84.7588 1.02908 1.08307 0
M  V30 931 H 86.6408 0.440992 4.19086 0
M  V30 932 H 85.3158 -0.265649 3.22608 0
M  V30 933 H 84.2228 2.04966 3.12953 0
M  V30 934 H 85.5558 2.68023 4.12825 0
M  V30 935 N 87.2079 -1.17134 1.05439 0
M  V30 936 C 88.4559 -1.87085 0.764429 0
M  V30 937 C 88.7769 -1.81584 -0.710787 0
M  V30 938 O 88.0469 -1.24349 -1.51374 0
M  V30 939 H 86.6269 -0.692627 0.279779 0
M  V30 940 H 89.2889 -1.42087 1.33406 0
M  V30 941 H 88.3849 -2.92759 1.0816 0
M  V30 942 N 88.686 -0.835752 -1.33615 0
M  V30 943 C 90.097 -0.487099 -1.80234 0
M  V30 944 C 90.448 0.993627 -1.69179 0
M  V30 945 O 89.573 1.77403 -1.23924 0
M  V30 946 C 90.168 -0.877385 -3.27242 0
M  V30 947 C 88.727 -0.580915 -3.7189 0
M  V30 948 C 87.874 -1.0874 -2.5509 0
M  V30 949 H 90.825 -1.02474 -1.2118 0
M  V30 950 H 90.846 -0.186195 -3.80044 0
M  V30 951 H 90.358 -1.95512 -3.35256 0
M  V30 952 H 88.459 0.486881 -3.69405 0
M  V30 953 H 88.572 -1.13396 -4.65487 0
M  V30 954 H 86.936 -0.508392 -2.49575 0
M  V30 955 H 87.719 -2.17184 -2.65868 0
M  V30 956 N 90.1641 1.46063 -0.591896 0
M  V30 957 C 91.4411 1.95595 -0.0137119 0
M  V30 958 C 91.8211 1.5345 1.4497 0
M  V30 959 O 91.1691 0.789543 2.14426 0
M  V30 960 C 91.3791 3.48453 -0.195373 0
M  V30 961 C 92.7271 4.24546 -0.0679765 0
M  V30 962 O 93.7511 3.55982 -0.124681 0
M  V30 963 O 92.6101 5.46467 0.0600579 0
M  V30 964 H 89.7041 0.825795 0.0446279 0
M  V30 965 H 92.2501 1.56303 -0.660859 0
M  V30 966 H 91.0221 3.72045 -1.21235 0
M  V30 967 H 90.6451 3.94597 0.487775 0
M  V30 968 N 91.6422 0.330177 1.54103 0
M  V30 969 C 92.8702 -0.272179 2.05102 0
M  V30 970 C 93.2852 -1.45267 1.20595 0
M  V30 971 O 92.6422 -1.8094 0.238144 0
M  V30 972 C 92.6932 -0.70023 3.54653 0
M  V30 973 O 92.4142 0.433301 4.35952 0
M  V30 974 C 93.9152 -1.3647 4.21771 0
M  V30 975 H 91.1352 -0.0549159 0.668749 0
M  V30 976 H 93.6792 0.478285 1.98828 0
M  V30 977 H 91.8342 -1.40066 3.61193 0
M  V30 978 H 92.2482 0.0947539 5.24414 0
M  V30 979 H 93.7222 -1.61509 5.27843 0
M  V30 980 H 94.1992 -2.31409 3.73292 0
M  V30 981 H 94.8052 -0.706675 4.19388 0
M  V30 982 N 93.1203 -1.57491 0.0584922 0
M  V30 983 C 94.0683 -2.13148 -0.931168 0
M  V30 984 C 95.0623 -1.06507 -1.31729 0
M  V30 985 O 96.2683 -1.24906 -1.29609 0
M  V30 986 H 92.6433 -0.68137 -0.31818 0
M  V30 987 H 94.6143 -2.95187 -0.436707 0
M  V30 988 C 93.3633 -2.69732 -2.19408 0
M  V30 989 H 92.6863 -3.51454 -1.90578 0
M  V30 990 H 94.1263 -3.12287 -2.86798 0
M  V30 991 C 92.5853 -1.63855 -2.94369 0
M  V30 992 O 93.1153 -1.05565 -3.87581 0
M  V30 993 N 91.3213 -1.35202 -2.57233 0
M  V30 994 H 90.8683 -1.82791 -1.81508 0
M  V30 995 H 90.8263 -0.645922 -3.07693 0
M  V30 996 N 94.5984 0.214957 -1.56127 0
M  V30 997 C 95.8264 0.955092 -1.83536 0
M  V30 998 C 96.2414 1.77677 -0.638472 0
M  V30 999 O 95.5984 1.78219 0.392968 0
M  V30 1000 C 95.6494 1.86734 -3.09536 0
M  V30 1001 O 95.3704 1.07887 -4.24608 0
M  V30 1002 C 96.8714 2.72082 -3.4998 0
M  V30 1003 H 94.0914 0.279611 -0.609966 0
M  V30 1004 H 96.6354 0.228197 -2.03223 0
M  V30 1005 H 94.7904 2.5481 -2.91806 0
M  V30 1006 H 95.2044 1.69872 -4.9623 0
M  V30 1007 H 96.6784 3.31782 -4.41163 0
M  V30 1008 H 97.1554 3.44806 -2.7204 0
M  V30 1009 H 97.7614 2.09409 -3.70173 0
M  V30 1010 N 96.0765 1.50051 0.48192 0
M  V30 1011 C 97.3045 1.64237 1.25832 0
M  V30 1012 C 97.7195 0.321336 1.86045 0
M  V30 1013 O 97.0765 -0.695478 1.68729 0
M  V30 1014 C 97.1275 2.72548 2.37487 0
M  V30 1015 O 96.8485 3.99529 1.79745 0
M  V30 1016 C 98.3495 2.9761 3.28547 0
M  V30 1017 H 95.5695 0.55237 0.380957 0
M  V30 1018 H 98.1135 1.96207 0.576467 0
M  V30 1019 H 96.2685 2.43303 3.01467 0
M  V30 1020 H 96.6825 4.59342 2.5319 0
M  V30 1021 H 98.1565 3.77084 4.03127 0
M  V30 1022 H 98.6335 2.0826 3.86684 0
M  V30 1023 H 99.2395 3.28345 2.70314 0
M  V30 1024 N 97.5546 -0.734337 1.39446 0
M  V30 1025 C 98.8036 -1.48937 1.36017 0
M  V30 1026 C 99.1166 -1.95557 -0.0409005 0
M  V30 1027 O 100.323 -2.70779 -0.19778 0
M  V30 1028 C 98.7786 -2.69125 2.38955 0
M  V30 1029 C 98.3866 -2.29452 3.8478 0
M  V30 1030 C 100.131 -3.46944 2.44603 0
M  V30 1031 C 98.0376 -3.46366 4.79358 0
M  V30 1032 H 96.9676 -0.559296 0.505672 0
M  V30 1033 H 99.6186 -0.800983 1.65095 0
M  V30 1034 H 98.0006 -3.40041 2.02948 0
M  V30 1035 H 99.1746 -1.66077 4.29831 0
M  V30 1036 H 97.4896 -1.64723 3.82433 0
M  V30 1037 H 100.087 -4.33907 3.12456 0
M  V30 1038 H 100.43 -3.89454 1.47076 0
M  V30 1039 H 100.963 -2.83056 2.79507 0
M  V30 1040 H 97.7016 -3.08905 5.78151 0
M  V30 1041 H 97.2216 -4.08719 4.38986 0
M  V30 1042 H 98.9006 -4.12691 4.98292 0
M  V30 1043 N 99.0327 -1.24633 -0.964593 0
M  V30 1044 C 100.282 -1.08188 -1.7023 0
M  V30 1045 C 100.595 0.37873 -1.91898 0
M  V30 1046 O 101.801 0.663427 -2.6327 0
M  V30 1047 C 100.257 -1.88773 -3.06419 0
M  V30 1048 C 99.8647 -3.39263 -2.92582 0
M  V30 1049 C 101.609 -1.80867 -3.84041 0
M  V30 1050 C 99.5157 -4.1218 -4.24101 0
M  V30 1051 H 98.4457 -0.401245 -0.638372 0
M  V30 1052 H 101.097 -1.48742 -1.07462 0
M  V30 1053 H 99.4787 -1.41035 -3.70034 0
M  V30 1054 H 100.653 -3.94603 -2.37961 0
M  V30 1055 H 98.9677 -3.48154 -2.28424 0
M  V30 1056 H 101.565 -2.32646 -4.81435 0
M  V30 1057 H 101.908 -0.774543 -4.09031 0
M  V30 1058 H 102.441 -2.26301 -3.27159 0
M  V30 1059 H 99.1797 -5.15965 -4.04303 0
M  V30 1060 H 98.6997 -3.61626 -4.78526 0
M  V30 1061 H 100.379 -4.19349 -4.92702 0
M  V30 1062 N 100.511 1.16574 -1.06058 0
M  V30 1063 C 101.443 2.2045 -0.627239 0
M  V30 1064 C 102.456 1.59752 0.313534 0
M  V30 1065 O 103.645 1.78192 0.104896 0
M  V30 1066 C 100.745 3.3875 0.100974 0
M  V30 1067 C 99.9178 4.29008 -0.852687 0
M  V30 1068 C 98.9768 5.25944 -0.164152 0
M  V30 1069 O 98.0028 5.63535 -0.801047 0
M  V30 1070 N 99.2048 5.70075 1.09518 0
M  V30 1071 H 101.97 2.58249 -1.52077 0
M  V30 1072 H 99.5308 1.3156 -0.943594 0
M  V30 1073 H 101.523 4.00638 0.57194 0
M  V30 1074 H 100.093 2.99476 0.89628 0
M  V30 1075 H 99.3128 3.64419 -1.50308 0
M  V30 1076 H 100.601 4.86195 -1.49972 0
M  V30 1077 H 99.9988 5.41624 1.6328 0
M  V30 1078 H 98.5558 6.34067 1.51006 0
M  V30 1079 N 101.989 0.842826 1.3317 0
M  V30 1080 C 102.919 0.294028 2.31641 0
M  V30 1081 C 103.9 -0.600401 1.59151 0
M  V30 1082 O 105.085 -0.523124 1.87022 0
M  V30 1083 C 102.215 -0.528416 3.43257 0
M  V30 1084 C 101.169 0.27056 4.27144 0
M  V30 1085 C 100.495 -0.675881 5.30411 0
M  V30 1086 C 101.795 1.48981 5.00602 0
M  V30 1087 H 103.489 1.11681 2.77791 0
M  V30 1088 H 101.035 0.538478 1.33553 0
M  V30 1089 H 102.988 -0.922674 4.11175 0
M  V30 1090 H 101.712 -1.38445 2.95805 0
M  V30 1091 H 100.371 0.646427 3.60856 0
M  V30 1092 H 100.019 -1.52842 4.79216 0
M  V30 1093 H 99.7189 -0.145374 5.8742 0
M  V30 1094 H 101.243 -1.06757 6.01195 0
M  V30 1095 H 102.657 1.16849 5.61266 0
M  V30 1096 H 101.054 1.95739 5.6728 0
M  V30 1097 H 102.124 2.25746 4.29147 0
M  V30 1098 N 103.467 -1.45747 0.599634 0
M  V30 1099 C 104.399 -2.28628 -0.161879 0
M  V30 1100 C 105.412 -1.39494 -0.839367 0
M  V30 1101 O 106.601 -1.63941 -0.706089 0
M  V30 1102 C 103.701 -3.15014 -1.24976 0
M  V30 1103 C 102.874 -4.32378 -0.660935 0
M  V30 1104 C 101.933 -5.00033 -1.63869 0
M  V30 1105 O 100.959 -5.57085 -1.1681 0
M  V30 1106 N 102.161 -4.98589 -2.97303 0
M  V30 1107 H 104.926 -2.94624 0.549265 0
M  V30 1108 H 102.487 -1.55847 0.438565 0
M  V30 1109 H 104.479 -3.5714 -1.9035 0
M  V30 1110 H 103.049 -2.5098 -1.86354 0
M  V30 1111 H 102.269 -3.9383 0.170688 0
M  V30 1112 H 103.557 -5.08197 -0.247619 0
M  V30 1113 H 102.955 -4.53514 -3.38145 0
M  V30 1114 H 101.512 -5.44603 -3.58121 0
M  V30 1115 N 104.945 -0.338344 -1.53925 0
M  V30 1116 C 106.356 0.146651 -1.86123 0
M  V30 1117 C 106.707 1.5042 -1.2597 0
M  V30 1118 O 105.832 2.08723 -0.571294 0
M  V30 1119 C 106.427 0.272879 -3.37699 0
M  V30 1120 C 104.986 0.702103 -3.69794 0
M  V30 1121 C 104.133 -0.167304 -2.76795 0
M  V30 1122 H 107.084 -0.558123 -1.48562 0
M  V30 1123 H 107.105 1.10128 -3.64214 0
M  V30 1124 H 106.617 -0.715307 -3.81451 0
M  V30 1125 H 104.718 1.6995 -3.31584 0
M  V30 1126 H 104.831 0.495604 -4.7653 0
M  V30 1127 H 103.195 0.359527 -2.5215 0
M  V30 1128 H 103.978 -1.15253 -3.23375 0
M  V30 1129 N 106.423 1.57458 -0.0668435 0
M  V30 1130 C 107.353 2.15468 0.899764 0
M  V30 1131 C 108.334 1.08042 1.31381 0
M  V30 1132 O 109.519 1.36054 1.38574 0
M  V30 1133 C 106.649 2.71232 2.16911 0
M  V30 1134 C 105.603 3.83781 1.89463 0
M  V30 1135 C 104.929 4.26127 3.22986 0
M  V30 1136 C 106.229 5.08238 1.20381 0
M  V30 1137 H 107.923 2.96488 0.416529 0
M  V30 1138 H 105.469 1.4262 0.198908 0
M  V30 1139 H 107.422 3.10458 2.84945 0
M  V30 1140 H 106.146 1.87426 2.67468 0
M  V30 1141 H 104.805 3.45051 1.23836 0
M  V30 1142 H 104.453 3.39249 3.71374 0
M  V30 1143 H 104.153 5.01993 3.05413 0
M  V30 1144 H 105.677 4.67966 3.92225 0
M  V30 1145 H 107.091 5.44811 1.78475 0
M  V30 1146 H 105.488 5.89349 1.13083 0
M  V30 1147 H 106.558 4.84558 0.182153 0
M  V30 1148 N 107.901 -0.206675 1.56239 0
M  V30 1149 C 108.833 -1.27997 1.9013 0
M  V30 1150 C 109.846 -1.42299 0.790883 0
M  V30 1151 O 111.035 -1.42931 1.06925 0
M  V30 1152 C 108.135 -2.65368 2.10792 0
M  V30 1153 C 107.308 -2.72824 3.41886 0
M  V30 1154 C 106.367 -3.9131 3.51799 0
M  V30 1155 O 105.393 -3.78953 4.24716 0
M  V30 1156 N 106.595 -5.06265 2.84035 0
M  V30 1157 H 109.36 -0.992444 2.82791 0
M  V30 1158 H 106.921 -0.396652 1.56966 0
M  V30 1159 H 108.913 -3.43039 2.14724 0
M  V30 1160 H 107.483 -2.86657 1.24685 0
M  V30 1161 H 106.703 -1.81515 3.49923 0
M  V30 1162 H 107.991 -2.74786 4.28217 0
M  V30 1163 H 107.389 -5.19203 2.246 0
M  V30 1164 H 105.946 -5.81925 2.93609 0
M  V30 1165 N 109.379 -1.50304 -0.473955 0
M  V30 1166 C 110.289 -1.7174 -1.5982 0
M  V30 1167 C 111.305 -0.600457 -1.63311 0
M  V30 1168 O 112.481 -0.878441 -1.81233 0
M  V30 1169 C 109.546 -1.80427 -2.96052 0
M  V30 1170 C 108.607 -3.04148 -3.02972 0
M  V30 1171 C 107.84 -3.12411 -4.32706 0
M  V30 1172 O 108.063 -2.27542 -5.23049 0
M  V30 1173 O 106.997 -4.05113 -4.45159 0
M  V30 1174 H 110.823 -2.67035 -1.44657 0
M  V30 1175 H 108.408 -1.34366 -0.653148 0
M  V30 1176 H 110.29 -1.88338 -3.7697 0
M  V30 1177 H 108.965 -0.883156 -3.11419 0
M  V30 1178 H 107.872 -3.0174 -2.21142 0
M  V30 1179 H 109.205 -3.95829 -2.92541 0
M  V30 1180 N 110.857 0.726932 -1.39834 0
M  V30 1181 C 112.268 1.30558 -1.3346 0
M  V30 1182 C 112.619 1.962 -0.00273003 0
M  V30 1183 O 111.744 1.96826 0.899371 0
M  V30 1184 C 112.339 2.37404 -2.41713 0
M  V30 1185 C 110.898 2.90921 -2.38835 0
M  V30 1186 C 110.045 1.64578 -2.2318 0
M  V30 1187 H 112.996 0.523862 -1.49804 0
M  V30 1188 H 113.017 3.17984 -2.08966 0
M  V30 1189 H 112.529 1.89599 -3.38635 0
M  V30 1190 H 110.63 3.42985 -1.45575 0
M  V30 1191 H 110.743 3.43487 -3.33997 0
M  V30 1192 H 109.107 1.89219 -1.70494 0
M  V30 1193 H 109.89 1.18814 -3.22084 0
M  V30 1194 N 112.336 1.25143 0.95797 0
M  V30 1195 C 113.246 1.06968 2.08794 0
M  V30 1196 C 114.262 0.00773911 1.73998 0
M  V30 1197 O 115.438 0.207972 2.00323 0
M  V30 1198 C 112.503 0.68691 3.39827 0
M  V30 1199 C 111.564 1.82641 3.88511 0
M  V30 1200 C 110.797 1.46181 5.1329 0
M  V30 1201 O 111.02 0.355971 5.69288 0
M  V30 1202 O 109.954 2.29085 5.566 0
M  V30 1203 H 113.78 2.01723 2.27027 0
M  V30 1204 H 111.365 1.04051 1.07209 0
M  V30 1205 H 113.247 0.485417 4.18595 0
M  V30 1206 H 111.922 -0.231417 3.22872 0
M  V30 1207 H 110.829 2.08274 3.10762 0
M  V30 1208 H 112.162 2.72386 4.09959 0
M  V30 1209 N 113.814 -1.1601 1.06675 0
M  V30 1210 C 115.039 -1.91068 0.806706 0
M  V30 1211 C 115.464 -1.77112 -0.633485 0
M  V30 1212 O 114.822 -1.09908 -1.44187 0
M  V30 1213 C 114.87 -3.39655 1.21106 0
M  V30 1214 O 113.974 -4.10893 0.352189 0
M  V30 1215 H 113.315 -0.595125 0.294486 0
M  V30 1216 H 115.845 -1.46955 1.42356 0
M  V30 1217 H 115.855 -3.90434 1.18428 0
M  V30 1218 H 114.53 -3.49132 2.26008 0
M  V30 1219 H 113.107 -3.70285 0.440868 0
M  V30 1220 N 115.292 -0.849877 -1.32721 0
M  V30 1221 C 116.538 -0.460855 -1.9811 0
M  V30 1222 C 116.893 0.971716 -1.66059 0
M  V30 1223 O 116.186 1.67184 -0.935944 0
M  V30 1224 C 116.38 -0.631272 -3.51781 0
M  V30 1225 C 116.209 -2.07886 -3.98765 0
M  V30 1226 C 114.979 -2.71637 -4.26077 0
M  V30 1227 C 117.177 -3.04889 -4.14182 0
M  V30 1228 N 115.159 -4.07356 -4.59276 0
M  V30 1229 C 116.53 -4.25583 -4.50865 0
M  V30 1230 C 118.585 -3.01148 -3.96503 0
M  V30 1231 C 117.288 -5.43027 -4.71714 0
M  V30 1232 C 119.314 -4.17832 -4.18533 0
M  V30 1233 C 118.676 -5.37284 -4.55528 0
M  V30 1234 H 114.775 -0.217283 -0.751207 0
M  V30 1235 H 117.359 -1.10026 -1.60631 0
M  V30 1236 H 115.53 -0.0215966 -3.88394 0
M  V30 1237 H 117.262 -0.212614 -4.04141 0
M  V30 1238 H 114.017 -2.22705 -4.17971 0
M  V30 1239 H 114.441 -4.77351 -4.80068 0
M  V30 1240 H 119.083 -2.0992 -3.67006 0
M  V30 1241 H 116.801 -6.34791 -5.00066 0
M  V30 1242 H 120.387 -4.16368 -4.06361 0
M  V30 1243 H 119.267 -6.26071 -4.72234 0
M  V30 1244 N 116.77 1.45427 -0.607355 0
M  V30 1245 C 117.733 2.28974 0.101693 0
M  V30 1246 C 118.733 1.39754 0.795329 0
M  V30 1247 O 119.923 1.61878 0.643527 0
M  V30 1248 C 117.055 3.20768 1.15414 0
M  V30 1249 H 118.248 2.93147 -0.632844 0
M  V30 1250 H 115.801 1.51945 -0.366391 0
M  V30 1251 H 116.536 2.61395 1.91945 0
M  V30 1252 H 116.321 3.86489 0.66098 0
M  V30 1253 H 117.811 3.83589 1.65073 0
M  V30 1254 N 118.248 0.346503 1.53744 0
M  V30 1255 C 119.664 -0.00530975 1.59599 0
M  V30 1256 C 119.864 -1.48465 1.36236 0
M  V30 1257 O 118.92 -2.24376 1.15808 0
M  V30 1258 C 120.233 0.433516 2.97559 0
M  V30 1259 C 121.781 0.386111 3.10609 0
M  V30 1260 C 122.256 0.800451 4.50951 0
M  V30 1261 N 123.747 0.754753 4.5701 0
M  V30 1262 C 124.482 1.04727 5.63755 0
M  V30 1263 N 123.978 1.4081 6.7834 0
M  V30 1264 N 125.771 0.971316 5.53644 0
M  V30 1265 H 117.922 1.31009 1.67184 0
M  V30 1266 H 120.185 0.534242 0.783128 0
M  V30 1267 H 119.891 1.46509 3.19731 0
M  V30 1268 H 119.765 -0.189753 3.76722 0
M  V30 1269 H 122.152 -0.636295 2.88158 0
M  V30 1270 H 122.233 1.04462 2.33498 0
M  V30 1271 H 121.877 1.82088 4.74137 0
M  V30 1272 H 121.807 0.119386 5.26465 0
M  V30 1273 H 124.298 0.488662 3.74727 0
M  V30 1274 H 124.611 1.61607 7.55714 0
M  V30 1275 H 122.956 1.44657 6.79779 0
M  V30 1276 H 126.147 0.688748 4.63005 0
M  V30 1277 H 126.32 1.20263 6.36742 0
M  V30 1278 N 119.726 -1.57421 0.075193 0
M  V30 1279 C 120.954 -1.97946 -0.602076 0
M  V30 1280 C 121.369 -0.953674 -1.62943 0
M  V30 1281 O 120.726 0.0592551 -1.82404 0
M  V30 1282 C 120.777 -3.38546 -1.26762 0
M  V30 1283 O 120.498 -4.37195 -0.281376 0
M  V30 1284 C 121.999 -3.93966 -2.03239 0
M  V30 1285 H 119.219 -0.650918 -0.162931 0
M  V30 1286 H 121.763 -2.03959 0.148601 0
M  V30 1287 H 119.918 -3.33609 -1.96936 0
M  V30 1288 H 120.332 -5.18975 -0.759267 0
M  V30 1289 H 121.806 -4.94555 -2.45193 0
M  V30 1290 H 122.283 -3.30693 -2.8903 0
M  V30 1291 H 122.889 -4.02315 -1.37924 0
M  V30 1292 N 121.204 0.198386 -1.56346 0
M  V30 1293 C 122.136 1.26987 -1.90806 0
M  V30 1294 C 123.149 1.41877 -0.798419 0
M  V30 1295 O 124.338 1.42362 -1.07682 0
M  V30 1296 C 121.438 2.64246 -2.12196 0
M  V30 1297 C 120.611 2.71007 -3.43328 0
M  V30 1298 C 119.67 3.89439 -3.5387 0
M  V30 1299 O 118.696 3.76695 -4.26719 0
M  V30 1300 N 119.898 5.04752 -2.86715 0
M  V30 1301 H 122.663 0.977433 -2.83313 0
M  V30 1302 H 120.224 0.388322 -1.57174 0
M  V30 1303 H 122.216 3.41896 -2.1654 0
M  V30 1304 H 120.786 2.85992 -1.26204 0
M  V30 1305 H 120.006 1.79657 -3.50881 0
M  V30 1306 H 121.294 2.72512 -4.29668 0
M  V30 1307 H 120.692 5.18004 -2.2735 0
M  V30 1308 H 119.249 5.8036 -2.96691 0
M  V30 1309 N 122.682 1.50554 0.465978 0
M  V30 1310 C 123.907 1.65838 1.24549 0
M  V30 1311 C 124.332 0.343486 1.84937 0
M  V30 1312 O 123.69 -0.69324 1.67523 0
M  V30 1313 C 123.738 2.75533 2.32624 0
M  V30 1314 O 122.842 2.37142 3.37398 0
M  V30 1315 H 122.183 0.553893 0.366194 0
M  V30 1316 H 124.713 1.96959 0.553927 0
M  V30 1317 H 124.723 2.98763 2.77857 0
M  V30 1318 H 123.398 3.70962 1.88043 0
M  V30 1319 H 121.975 2.24377 2.97841 0
M  V30 1320 N 124.16 -0.719506 1.40217 0
M  V30 1321 C 125.408 -1.47641 1.3801 0
M  V30 1322 C 125.729 -1.94992 -0.018145 0
M  V30 1323 O 124.999 -1.70073 -0.972207 0
M  V30 1324 H 123.579 -0.547744 0.507923 0
M  V30 1325 H 126.241 -0.853187 1.75233 0
M  V30 1326 H 125.337 -2.35112 2.05253 0
M  V30 1327 N 125.638 -1.25649 -0.95132 0
M  V30 1328 C 126.568 -1.08808 -2.06599 0
M  V30 1329 C 127.549 0.00382547 -1.701 0
M  V30 1330 O 128.734 -0.166325 -1.93486 0
M  V30 1331 C 125.864 -0.709542 -3.39975 0
M  V30 1332 C 124.818 -1.75206 -3.90496 0
M  V30 1333 C 124.144 -1.22811 -5.20405 0
M  V30 1334 C 125.444 -3.15153 -4.16504 0
M  V30 1335 H 127.138 -2.02048 -2.20946 0
M  V30 1336 H 124.684 -0.972835 -1.06169 0
M  V30 1337 H 126.637 -0.578649 -4.17408 0
M  V30 1338 H 125.361 0.258556 -3.25575 0
M  V30 1339 H 124.02 -1.87145 -3.15234 0
M  V30 1340 H 123.668 -0.250145 -5.02378 0
M  V30 1341 H 123.368 -1.92492 -5.55176 0
M  V30 1342 H 124.892 -1.10968 -6.00432 0
M  V30 1343 H 126.306 -3.06349 -4.84586 0
M  V30 1344 H 124.703 -3.82333 -4.62538 0
M  V30 1345 H 125.773 -3.61966 -3.22658 0
M  V30 1346 N 127.117 1.15442 -1.07289 0
M  V30 1347 C 128.049 2.19773 -0.650585 0
M  V30 1348 C 129.062 1.60076 0.296572 0
M  V30 1349 O 130.251 1.78293 0.0859905 0
M  V30 1350 C 127.351 3.38838 0.0650398 0
M  V30 1351 C 126.524 4.2808 -0.898141 0
M  V30 1352 C 125.583 5.2574 -0.219926 0
M  V30 1353 O 124.609 5.62654 -0.860773 0
M  V30 1354 N 125.811 5.71205 1.03466 0
M  V30 1355 H 128.576 2.56622 -1.54808 0
M  V30 1356 H 126.137 1.30551 -0.957494 0
M  V30 1357 H 128.129 4.01222 0.529415 0
M  V30 1358 H 126.699 3.00409 0.864466 0
M  V30 1359 H 125.919 3.62804 -1.54165 0
M  V30 1360 H 127.207 4.84577 -1.5512 0
M  V30 1361 H 126.605 5.43325 1.57526 0
M  V30 1362 H 125.162 6.35633 1.44272 0
M  V30 1363 N 128.595 0.856903 1.32268 0
M  V30 1364 C 129.82 0.474569 2.01897 0
M  V30 1365 C 130.245 -0.921766 1.63967 0
M  V30 1366 O 129.603 -1.60589 0.84148 0
M  V30 1367 C 129.651 0.623799 3.55164 0
M  V30 1368 O 128.755 -0.342459 4.10976 0
M  V30 1369 H 128.096 0.190422 0.63611 0
M  V30 1370 H 130.626 1.15672 1.68764 0
M  V30 1371 H 130.636 0.512169 4.04773 0
M  V30 1372 H 129.311 1.64202 3.82113 0
M  V30 1373 H 127.888 -0.18688 3.72431 0
M  V30 1374 N 130.073 -1.45103 0.615059 0
M  V30 1375 C 131.303 -2.06254 0.119596 0
M  V30 1376 C 131.711 -1.4591 -1.20445 0
M  V30 1377 O 131.054 -0.570384 -1.7462 0
M  V30 1378 C 131.116 -3.59396 -0.0865591 0
M  V30 1379 C 130.78 -4.42116 1.15683 0
M  V30 1380 C 131.777 -4.7662 2.07676 0
M  V30 1381 C 129.462 -4.82749 1.38775 0
M  V30 1382 C 131.456 -5.50622 3.21082 0
M  V30 1383 C 129.143 -5.56504 2.52481 0
M  V30 1384 C 130.141 -5.90358 3.43463 0
M  V30 1385 O 129.829 -6.62615 4.55189 0
M  V30 1386 H 129.561 -0.672423 0.0694512 0
M  V30 1387 H 132.115 -1.87219 0.844885 0
M  V30 1388 H 130.345 -3.76859 -0.866823 0
M  V30 1389 H 132.034 -4.02365 -0.534555 0
M  V30 1390 H 132.8 -4.4578 1.91063 0
M  V30 1391 H 128.679 -4.55829 0.688545 0
M  V30 1392 H 132.223 -5.76965 3.92119 0
M  V30 1393 H 128.12 -5.86759 2.69043 0
M  V30 1394 H 128.888 -6.81071 4.53966 0
M  V30 1395 N 131.551 -0.354651 -1.53558 0
M  V30 1396 C 132.481 0.489091 -2.2832 0
M  V30 1397 C 133.462 1.09324 -1.30316 0
M  V30 1398 O 134.647 1.11255 -1.59173 0
M  V30 1399 C 131.777 1.63456 -3.0643 0
M  V30 1400 C 130.731 1.1582 -4.12031 0
M  V30 1401 C 130.057 2.39305 -4.7816 0
M  V30 1402 C 131.357 0.250731 -5.21698 0
M  V30 1403 H 133.051 -0.134614 -2.99097 0
M  V30 1404 H 130.597 -0.0661826 -1.43848 0
M  V30 1405 H 132.55 2.23136 -3.57475 0
M  V30 1406 H 131.274 2.28533 -2.33325 0
M  V30 1407 H 129.933 0.584146 -3.61916 0
M  V30 1408 H 129.581 3.02814 -4.01637 0
M  V30 1409 H 129.281 2.08109 -5.49513 0
M  V30 1410 H 130.805 2.99691 -5.31994 0
M  V30 1411 H 132.219 0.754695 -5.68311 0
M  V30 1412 H 130.616 0.0301468 -6.00092 0
M  V30 1413 H 131.686 -0.710125 -4.79672 0
M  V30 1414 N 133.029 1.57378 -0.0835403 0
M  V30 1415 C 133.959 2.1641 0.87686 0
M  V30 1416 C 134.94 1.09429 1.30228 0
M  V30 1417 O 136.125 1.37516 1.37124 0
M  V30 1418 C 133.255 2.73517 2.14022 0
M  V30 1419 C 132.209 3.85769 1.85381 0
M  V30 1420 C 131.535 4.29529 3.18448 0
M  V30 1421 C 132.835 5.09486 1.14984 0
M  V30 1422 H 134.529 2.96914 0.385059 0
M  V30 1423 H 132.075 1.42823 0.18377 0
M  V30 1424 H 134.028 3.13463 2.81636 0
M  V30 1425 H 132.752 1.90252 2.65465 0
M  V30 1426 H 131.411 3.46345 1.20169 0
M  V30 1427 H 131.059 3.43169 3.67755 0
M  V30 1428 H 130.759 5.05204 3.00071 0
M  V30 1429 H 132.283 4.72099 3.8724 0
M  V30 1430 H 133.697 5.46674 1.72687 0
M  V30 1431 H 132.094 5.90515 1.06826 0
M  V30 1432 H 133.164 4.84724 0.130749 0
M  V30 1433 N 134.507 -0.190092 1.56449 0
M  V30 1434 C 135.439 -1.25973 1.91477 0
M  V30 1435 C 136.452 -1.41452 0.805931 0
M  V30 1436 O 137.641 -1.41789 1.08435 0
M  V30 1437 C 134.741 -2.63117 2.13594 0
M  V30 1438 C 133.914 -2.69182 3.4476 0
M  V30 1439 C 132.973 -3.87557 3.5593 0
M  V30 1440 O 131.999 -3.74427 4.28711 0
M  V30 1441 N 133.201 -5.03224 2.89388 0
M  V30 1442 H 135.966 -0.962394 2.83828 0
M  V30 1443 H 133.527 -0.379981 1.57378 0
M  V30 1444 H 135.519 -3.40742 2.1835 0
M  V30 1445 H 134.089 -2.85319 1.27719 0
M  V30 1446 H 133.309 -1.77793 3.51828 0
M  V30 1447 H 134.597 -2.70229 4.31107 0
M  V30 1448 H 133.995 -5.16791 2.30094 0
M  V30 1449 H 132.552 -5.78778 2.99764 0
M  V30 1450 N 135.985 -1.50799 -0.457987 0
M  V30 1451 C 137.232 -1.62442 -1.20908 0
M  V30 1452 C 137.56 -0.330865 -1.91665 0
M  V30 1453 O 136.815 0.68401 -1.83357 0
M  V30 1454 C 137.114 -2.76358 -2.2663 0
M  V30 1455 C 136.78 -4.16378 -1.73033 0
M  V30 1456 C 135.442 -4.54473 -1.58138 0
M  V30 1457 C 137.794 -5.03836 -1.33413 0
M  V30 1458 C 135.122 -5.77754 -1.02065 0
M  V30 1459 C 137.474 -6.27676 -0.78778 0
M  V30 1460 C 136.138 -6.64562 -0.625561 0
M  V30 1461 H 135.408 -0.594417 -0.442435 0
M  V30 1462 H 138.055 -1.84772 -0.503136 0
M  V30 1463 H 136.36 -2.48167 -3.03184 0
M  V30 1464 H 138.057 -2.82568 -2.84528 0
M  V30 1465 H 134.647 -3.86331 -1.85598 0
M  V30 1466 H 138.831 -4.75026 -1.4375 0
M  V30 1467 H 134.087 -6.04997 -0.882547 0
M  V30 1468 H 138.261 -6.94797 -0.472177 0
M  V30 1469 H 135.888 -7.59965 -0.188926 0
M  V30 1470 N 137.463 0.71206 -1.40597 0
M  V30 1471 C 138.413 1.81783 -1.37619 0
M  V30 1472 C 139.397 1.58896 -0.253162 0
M  V30 1473 O 140.589 1.70009 -0.492547 0
M  V30 1474 C 137.718 3.19944 -1.24462 0
M  V30 1475 C 136.804 3.48582 -2.4156 0
M  V30 1476 N 137.195 3.48016 -3.67041 0
M  V30 1477 C 135.493 3.79056 -2.35016 0
M  V30 1478 C 136.194 3.75096 -4.44609 0
M  V30 1479 N 135.17 3.94022 -3.74497 0
M  V30 1480 H 138.972 1.79683 -2.32575 0
M  V30 1481 H 136.486 0.91134 -1.34419 0
M  V30 1482 H 138.483 3.99133 -1.20411 0
M  V30 1483 H 137.143 3.23267 -0.304762 0
M  V30 1484 H 138.154 3.28782 -4.00153 0
M  V30 1485 H 134.831 3.89848 -1.49415 0
M  V30 1486 H 136.221 3.80934 -5.53479 0
M  V30 1487 N 138.941 1.26152 0.944643 0
M  V30 1488 C 140.189 1.11271 1.6871 0
M  V30 1489 C 140.51 -0.345166 1.91921 0
M  V30 1490 O 139.78 -1.24387 1.51343 0
M  V30 1491 H 138.36 0.408783 0.625224 0
M  V30 1492 H 141.022 1.58427 1.1352 0
M  V30 1493 H 140.118 1.62879 2.66227 0
M  V30 1494 N 140.419 -1.14872 1.07899 0
M  V30 1495 C 141.349 -2.2193 0.725887 0
M  V30 1496 C 142.33 -1.67622 -0.28927 0
M  V30 1497 O 143.515 -1.93533 -0.160787 0
M  V30 1498 C 140.645 -3.47061 0.128856 0
M  V30 1499 C 139.599 -4.14363 1.07178 0
M  V30 1500 C 138.925 -5.33636 0.337229 0
M  V30 1501 C 140.225 -4.63492 2.40775 0
M  V30 1502 H 141.919 -2.51724 1.62097 0
M  V30 1503 H 139.465 -1.20991 0.780838 0
M  V30 1504 H 141.418 -4.21199 -0.130147 0
M  V30 1505 H 140.142 -3.16617 -0.80134 0
M  V30 1506 H 138.801 -3.42173 1.3158 0
M  V30 1507 H 138.449 -4.99449 -0.596606 0
M  V30 1508 H 138.149 -5.79609 0.965788 0
M  V30 1509 H 139.673 -6.10539 0.0861567 0
M  V30 1510 H 141.087 -5.2913 2.20669 0
M  V30 1511 H 139.484 -5.20148 2.99276 0
M  V30 1512 H 140.554 -3.78834 3.02676 0
M  V30 1513 N 141.898 -0.863906 -1.31812 0
M  V30 1514 C 143.144 -0.472535 -1.97218 0
M  V30 1515 C 143.477 0.971394 -1.68159 0
M  V30 1516 O 142.752 1.68309 -0.974798 0
M  V30 1517 C 143.035 -0.723054 -3.52766 0
M  V30 1518 C 142.888 -2.21608 -3.91421 0
M  V30 1519 C 144.207 -0.185522 -4.39709 0
M  V30 1520 H 141.326 -0.173158 -0.71637 0
M  V30 1521 H 143.968 -1.08403 -1.56041 0
M  V30 1522 H 142.118 -0.202577 -3.87971 0
M  V30 1523 H 143.79 -2.80334 -3.66347 0
M  V30 1524 H 142.033 -2.691 -3.40246 0
M  V30 1525 H 142.704 -2.34203 -4.99853 0
M  V30 1526 H 145.18 -0.630726 -4.11292 0
M  V30 1527 H 144.056 -0.390306 -5.47511 0
M  V30 1528 H 144.317 0.912229 -4.32586 0
M  V30 1529 N 143.376 1.44774 -0.622745 0
M  V30 1530 C 144.792 1.56986 -0.287652 0
M  V30 1531 C 144.992 1.61167 1.20944 0
M  V30 1532 O 144.048 1.55015 1.99315 0
M  V30 1533 C 145.361 2.84551 -0.972188 0
M  V30 1534 C 146.909 2.9825 -0.949536 0
M  V30 1535 C 147.384 4.28605 -1.61437 0
M  V30 1536 N 148.875 4.35399 -1.58057 0
M  V30 1537 C 149.61 5.34964 -2.064 0
M  V30 1538 N 149.106 6.40981 -2.62897 0
M  V30 1539 N 150.899 5.26419 -1.97078 0
M  V30 1540 H 143.05 1.40304 -1.59463 0
M  V30 1541 H 145.313 0.671794 -0.668878 0
M  V30 1542 H 145.019 2.87417 -2.02693 0
M  V30 1543 H 144.893 3.73807 -0.504771 0
M  V30 1544 H 147.28 2.94941 0.0967067 0
M  V30 1545 H 147.361 2.10364 -1.45536 0
M  V30 1546 H 147.005 4.32672 -2.66002 0
M  V30 1547 H 146.935 5.15334 -1.08344 0
M  V30 1548 H 149.426 3.59397 -1.16801 0
M  V30 1549 H 149.739 7.13225 -2.97539 0
M  V30 1550 H 148.084 6.4169 -2.66943 0
M  V30 1551 H 151.275 4.42504 -1.52669 0
M  V30 1552 H 151.448 6.03861 -2.35066 0
M  V30 1553 N 144.854 0.36279 1.53368 0
M  V30 1554 C 145.784 -0.476976 2.28576 0
M  V30 1555 C 146.765 -1.08631 1.30894 0
M  V30 1556 O 147.95 -1.10409 1.59761 0
M  V30 1557 C 145.08 -1.61828 3.07293 0
M  V30 1558 C 144.034 -1.13633 4.1264 0
M  V30 1559 C 143.36 -2.36766 4.79423 0
M  V30 1560 C 144.66 -0.223061 5.21823 0
M  V30 1561 H 146.354 0.150474 2.99022 0
M  V30 1562 H 143.9 0.0738103 1.43811 0
M  V30 1563 H 145.853 -2.21237 3.58653 0
M  V30 1564 H 144.577 -2.27292 2.34533 0
M  V30 1565 H 143.236 -0.564945 3.62221 0
M  V30 1566 H 142.884 -3.0068 4.03238 0
M  V30 1567 H 142.584 -2.05192 5.50609 0
M  V30 1568 H 144.108 -2.96865 5.33576 0
M  V30 1569 H 145.522 -0.724545 5.68703 0
M  V30 1570 H 143.919 0.001678 6.001 0
M  V30 1571 H 144.989 0.735553 4.79289 0
M  V30 1572 N 146.332 -1.57332 0.0918853 0
M  V30 1573 C 147.578 -1.94524 -0.573425 0
M  V30 1574 C 147.911 -0.973578 -1.68033 0
M  V30 1575 O 147.186 -0.00609226 -1.94499 0
M  V30 1576 C 147.469 -3.41858 -1.13161 0
M  V30 1577 C 147.322 -4.4979 -0.0299747 0
M  V30 1578 C 148.641 -3.90435 -2.03098 0
M  V30 1579 H 145.76 -0.70734 -0.206975 0
M  V30 1580 H 148.402 -1.89309 0.161942 0
M  V30 1581 H 146.552 -3.46433 -1.7583 0
M  V30 1582 H 148.224 -4.57327 0.604112 0
M  V30 1583 H 146.467 -4.291 0.636833 0
M  V30 1584 H 147.138 -5.50069 -0.461287 0
M  V30 1585 H 149.614 -3.87992 -1.50338 0
M  V30 1586 H 148.49 -4.94097 -2.39081 0
M  V30 1587 H 148.751 -3.29541 -2.94712 0
M  V30 1588 N 147.81 0.181792 -1.56548 0
M  V30 1589 C 148.76 1.22961 -1.92002 0
M  V30 1590 C 149.744 1.40331 -0.787146 0
M  V30 1591 O 150.936 1.42478 -1.05019 0
M  V30 1592 C 148.065 2.57144 -2.27446 0
M  V30 1593 C 147.151 2.43512 -3.47222 0
M  V30 1594 N 147.542 1.99577 -4.64761 0
M  V30 1595 C 145.84 2.74368 -3.51622 0
M  V30 1596 C 146.541 1.98156 -5.46909 0
M  V30 1597 N 145.517 2.40164 -4.8767 0
M  V30 1598 H 149.319 0.881462 -2.8037 0
M  V30 1599 H 146.833 0.390141 -1.57644 0
M  V30 1600 H 148.83 3.32847 -2.51035 0
M  V30 1601 H 147.49 2.92771 -1.40411 0
M  V30 1602 H 148.501 1.70078 -4.89177 0
M  V30 1603 H 145.178 3.14102 -2.75038 0
M  V30 1604 H 146.568 1.65975 -6.51077 0
M  V30 1605 N 149.288 1.51039 0.449983 0
M  V30 1606 C 150.22 1.67617 1.56324 0
M  V30 1607 C 151.233 0.557083 1.52972 0
M  V30 1608 O 152.422 0.830989 1.57977 0
M  V30 1609 C 149.522 1.66402 2.95235 0
M  V30 1610 C 148.695 2.9469 3.23229 0
M  V30 1611 C 147.754 2.85832 4.41799 0
M  V30 1612 O 146.78 3.59785 4.41071 0
M  V30 1613 N 147.982 2.00821 5.44657 0
M  V30 1614 H 150.747 2.63648 1.42512 0
M  V30 1615 H 148.308 1.48767 0.638737 0
M  V30 1616 H 150.3 1.58062 3.72557 0
M  V30 1617 H 148.87 0.780182 3.02708 0
M  V30 1618 H 148.09 3.16996 2.34323 0
M  V30 1619 H 149.378 3.79636 3.38754 0
M  V30 1620 H 148.776 1.40091 5.48079 0
M  V30 1621 H 147.333 1.98368 6.20881 0
M  V30 1622 N 150.766 -0.704594 1.40972 0
M  V30 1623 C 151.676 -1.84856 1.44448 0
M  V30 1624 C 152.692 -1.70726 0.335961 0
M  V30 1625 O 153.868 -1.92799 0.582276 0
M  V30 1626 C 150.933 -3.20758 1.31587 0
M  V30 1627 C 149.994 -3.47063 2.52677 0
M  V30 1628 C 149.227 -4.76481 2.4042 0
M  V30 1629 O 149.45 -5.52341 1.42391 0
M  V30 1630 O 148.384 -5.03367 3.30007 0
M  V30 1631 H 152.21 -1.8488 2.40942 0
M  V30 1632 H 149.795 -0.85647 1.22413 0
M  V30 1633 H 151.677 -4.01913 1.26665 0
M  V30 1634 H 150.352 -3.21438 0.382049 0
M  V30 1635 H 149.259 -2.65873 2.63177 0
M  V30 1636 H 150.592 -3.5119 3.44858 0
M  V30 1637 N 152.244 -1.26651 -0.937939 0
M  V30 1638 C 153.66 -1.03834 -1.21205 0
M  V30 1639 C 153.86 0.234502 -2.00131 0
M  V30 1640 O 152.916 0.942767 -2.3424 0
M  V30 1641 C 154.229 -2.27167 -1.97017 0
M  V30 1642 C 155.777 -2.32101 -2.09996 0
M  V30 1643 C 156.252 -3.55136 -2.8921 0
M  V30 1644 N 157.743 -3.55632 -2.96783 0
M  V30 1645 C 158.478 -4.475 -3.58512 0
M  V30 1646 N 157.974 -5.4966 -4.21717 0
M  V30 1647 N 159.767 -4.35145 -3.55816 0
M  V30 1648 H 151.918 -2.08398 -0.410391 0
M  V30 1649 H 154.181 -0.916031 -0.244114 0
M  V30 1650 H 153.887 -3.19765 -1.46434 0
M  V30 1651 H 153.761 -2.31672 -2.97671 0
M  V30 1652 H 156.148 -1.40015 -2.59769 0
M  V30 1653 H 156.229 -2.31605 -1.08594 0
M  V30 1654 H 155.873 -4.47553 -2.40123 0
M  V30 1655 H 155.803 -3.5288 -3.90875 0
M  V30 1656 H 158.294 -2.81743 -2.51852 0
M  V30 1657 H 158.607 -6.15943 -4.66727 0
M  V30 1658 H 156.952 -5.53514 -4.20294 0
M  V30 1659 H 160.143 -3.5455 -3.05634 0
M  V30 1660 H 160.316 -5.06934 -4.03636 0
M  V30 1661 N 153.722 1.14298 -1.08507 0
M  V30 1662 C 154.95 1.89219 -0.836876 0
M  V30 1663 C 155.365 1.78638 0.611054 0
M  V30 1664 O 154.722 1.14643 1.41998 0
M  V30 1665 C 154.773 3.39158 -1.25116 0
M  V30 1666 O 154.494 3.49449 -2.64229 0
M  V30 1667 C 155.995 4.31073 -1.03398 0
M  V30 1668 H 153.215 0.599328 -0.301739 0
M  V30 1669 H 155.759 1.44746 -1.44461 0
M  V30 1670 H 153.914 3.81251 -0.687514 0
M  V30 1671 H 154.328 4.42589 -2.81452 0
M  V30 1672 H 155.802 5.34646 -1.37323 0
M  V30 1673 H 156.279 4.3919 0.0289259 0
M  V30 1674 H 156.885 3.94738 -1.58311 0
M  V30 1675 N 155.201 0.870884 1.31352 0
M  V30 1676 C 156.131 0.343096 2.30966 0
M  V30 1677 C 157.112 -0.566507 1.60389 0
M  V30 1678 O 158.297 -0.483336 1.88089 0
M  V30 1679 C 155.427 -0.455487 3.443 0
M  V30 1680 C 154.381 0.361103 4.26474 0
M  V30 1681 C 153.707 -0.563221 5.31725 0
M  V30 1682 C 155.007 1.59566 4.97329 0
M  V30 1683 H 156.701 1.17548 2.75359 0
M  V30 1684 H 154.247 0.566686 1.32381 0
M  V30 1685 H 156.2 -0.83525 4.13039 0
M  V30 1686 H 154.924 -1.32139 2.98675 0
M  V30 1687 H 153.583 0.722825 3.59403 0
M  V30 1688 H 153.231 -1.42643 4.82351 0
M  V30 1689 H 152.931 -0.0207409 5.87596 0
M  V30 1690 H 154.455 -0.939808 6.03324 0
M  V30 1691 H 155.869 1.28728 5.58661 0
M  V30 1692 H 154.266 2.07728 5.63 0
M  V30 1693 H 155.336 2.34798 4.24262 0
M  V30 1694 N 156.679 -1.44442 0.630414 0
M  V30 1695 C 157.642 -2.29107 -0.0652523 0
M  V30 1696 C 158.642 -1.41002 -0.772995 0
M  V30 1697 O 159.832 -1.62881 -0.617692 0
M  V30 1698 C 156.964 -3.22564 -1.10296 0
M  V30 1699 H 158.157 -2.92103 0.679401 0
M  V30 1700 H 155.71 -1.51343 0.390517 0
M  V30 1701 H 156.445 -2.64416 -1.87762 0
M  V30 1702 H 156.23 -3.87491 -0.59941 0
M  V30 1703 H 157.72 -3.86167 -1.5895 0
M  V30 1704 N 158.157 -0.370918 -1.53173 0
M  V30 1705 C 159.404 0.217102 -2.01333 0
M  V30 1706 C 159.732 1.48338 -1.25802 0
M  V30 1707 O 158.987 1.92698 -0.34146 0
M  V30 1708 C 159.286 0.549696 -3.53147 0
M  V30 1709 C 158.952 -0.622872 -4.46577 0
M  V30 1710 C 157.614 -0.944595 -4.71838 0
M  V30 1711 C 159.966 -1.40819 -5.01816 0
M  V30 1712 C 157.294 -2.05351 -5.49589 0
M  V30 1713 C 159.646 -2.50757 -5.80778 0
M  V30 1714 C 158.31 -2.83458 -6.04324 0
M  V30 1715 H 157.58 0.0794431 -0.736729 0
M  V30 1716 H 160.227 -0.504481 -1.84736 0
M  V30 1717 H 158.532 1.35237 -3.6772 0
M  V30 1718 H 160.229 1.017 -3.87889 0
M  V30 1719 H 156.819 -0.36209 -4.27068 0
M  V30 1720 H 161.003 -1.17289 -4.82242 0
M  V30 1721 H 156.259 -2.3108 -5.6605 0
M  V30 1722 H 160.433 -3.12022 -6.22588 0
M  V30 1723 H 158.06 -3.69508 -6.64355 0
M  V30 1724 N 159.635 1.57281 -0.100228 0
M  V30 1725 C 161.046 1.81725 0.428107 0
M  V30 1726 C 161.397 1.01619 1.67833 0
M  V30 1727 O 160.522 0.247098 2.14985 0
M  V30 1728 C 161.117 3.29617 0.78347 0
M  V30 1729 C 159.676 3.54808 1.25653 0
M  V30 1730 C 158.823 2.76118 0.255752 0
M  V30 1731 H 161.774 1.55324 -0.325608 0
M  V30 1732 H 161.795 3.4322 1.64256 0
M  V30 1733 H 161.307 3.87893 -0.12665 0
M  V30 1734 H 159.408 3.01868 2.18418 0
M  V30 1735 H 159.521 4.63443 1.21482 0
M  V30 1736 H 157.885 2.43745 0.738956 0
M  V30 1737 H 158.668 3.37145 -0.647136 0
M  V30 1738 N 161.113 -0.173488 1.56642 0
M  V30 1739 C 162.043 -1.2171 1.99271 0
M  V30 1740 C 163.024 -1.46289 0.867959 0
M  V30 1741 O 164.209 -1.5766 1.13388 0
M  V30 1742 C 161.339 -2.55651 2.35074 0
M  V30 1743 C 160.293 -2.45645 3.50489 0
M  V30 1744 C 159.619 -3.84056 3.72028 0
M  V30 1745 C 160.919 -1.96302 4.84007 0
M  V30 1746 H 162.613 -0.86275 2.867 0
M  V30 1747 H 160.159 -0.413571 1.37933 0
M  V30 1748 H 162.112 -3.2886 2.63494 0
M  V30 1749 H 160.836 -2.92869 1.44552 0
M  V30 1750 H 159.495 -1.7489 3.22194 0
M  V30 1751 H 159.143 -4.18664 2.788 0
M  V30 1752 H 158.843 -3.7823 4.49684 0
M  V30 1753 H 160.367 -4.58854 4.02846 0
M  V30 1754 H 161.781 -2.59284 5.11317 0
M  V30 1755 H 160.178 -2.01429 5.65284 0
M  V30 1756 H 161.248 -0.917226 4.76146 0
M  V30 1757 N 162.591 -1.51276 -0.441967 0
M  V30 1758 C 163.819 -1.67516 -1.21434 0
M  V30 1759 C 164.234 -0.37055 -1.85128 0
M  V30 1760 O 163.591 0.650498 -1.70513 0
M  V30 1761 C 163.642 -2.78748 -2.30177 0
M  V30 1762 O 163.363 -4.04154 -1.69089 0
M  V30 1763 C 164.864 -3.06217 -3.20541 0
M  V30 1764 H 162.084 -0.562276 -0.366178 0
M  V30 1765 H 164.628 -1.97666 -0.524244 0
M  V30 1766 H 162.783 -2.5121 -2.94911 0
M  V30 1767 H 163.197 -4.65894 -2.40922 0
M  V30 1768 H 164.671 -3.8764 -3.92987 0
M  V30 1769 H 165.148 -2.18439 -3.81026 0
M  V30 1770 H 165.754 -3.35397 -2.61513 0
M  V30 1771 N 164.069 0.697108 -1.41344 0
M  V30 1772 C 165.318 1.45279 -1.39918 0
M  V30 1773 C 165.631 1.95597 -0.0109624 0
M  V30 1774 O 166.837 2.71208 0.125919 0
M  V30 1775 C 165.293 2.62695 -2.46007 0
M  V30 1776 C 164.901 2.19169 -3.90729 0
M  V30 1777 C 166.645 3.40336 -2.53715 0
M  V30 1778 C 164.552 3.33535 -4.88373 0
M  V30 1779 H 163.482 0.545692 -0.520323 0
M  V30 1780 H 166.133 0.756929 -1.67161 0
M  V30 1781 H 164.515 3.34541 -2.11892 0
M  V30 1782 H 165.689 1.54623 -4.34083 0
M  V30 1783 H 164.004 1.54525 -3.86666 0
M  V30 1784 H 166.601 4.2547 -3.2385 0
M  V30 1785 H 166.944 3.85418 -1.5735 0
M  V30 1786 H 167.477 2.75546 -2.86913 0
M  V30 1787 H 164.216 2.93468 -5.86137 0
M  V30 1788 H 163.736 3.96936 -4.49668 0
M  V30 1789 H 165.415 3.99335 -5.09059 0
M  V30 1790 N 165.547 1.27147 0.931209 0
M  V30 1791 C 166.963 1.04475 1.20653 0
M  V30 1792 C 167.163 -0.223885 2.00252 0
M  V30 1793 O 166.219 -0.930332 2.34736 0
M  V30 1794 C 167.532 2.28209 1.95809 0
M  V30 1795 C 169.08 2.33211 2.08762 0
M  V30 1796 C 169.555 3.56665 2.87323 0
M  V30 1797 N 171.046 3.57201 2.94892 0
M  V30 1798 C 171.781 4.49395 3.56134 0
M  V30 1799 N 171.277 5.51889 4.18796 0
M  V30 1800 N 173.07 4.37026 3.53504 0
M  V30 1801 H 165.221 2.08612 0.399333 0
M  V30 1802 H 167.484 0.917312 0.239253 0
M  V30 1803 H 167.19 3.20538 1.44736 0
M  V30 1804 H 167.064 2.33247 2.96438 0
M  V30 1805 H 169.451 1.41391 2.59023 0
M  V30 1806 H 169.532 2.32178 1.07364 0
M  V30 1807 H 169.176 4.4882 2.37746 0
M  V30 1808 H 169.106 3.54948 3.88998 0
M  V30 1809 H 171.597 2.83074 2.50354 0
M  V30 1810 H 171.91 6.18409 4.63454 0
M  V30 1811 H 170.255 5.55735 4.17353 0
M  V30 1812 H 173.446 3.56166 3.03749 0
M  V30 1813 H 173.619 5.09067 4.00942 0
M  V30 1814 N 167.025 -1.13721 1.09112 0
M  V30 1815 C 168.265 -1.86576 0.834801 0
M  V30 1816 C 168.629 -1.81435 -0.628122 0
M  V30 1817 O 169.83 -2.49497 -1.00024 0
M  V30 1818 C 168.101 -3.30872 1.35124 0
M  V30 1819 S 169.66 -4.21257 1.22832 0
M  V30 1820 H 166.478 -0.643666 0.302017 0
M  V30 1821 H 169.08 -1.37085 1.39385 0
M  V30 1822 H 167.784 -3.32166 2.41027 0
M  V30 1823 H 167.315 -3.85423 0.788185 0
M  V30 1824 H 169.33 -4.95884 0.177191 0
M  V30 1825 N 168.503 -0.877838 -1.30888 0
M  V30 1826 C 169.75 -0.492696 -1.96415 0
M  V30 1827 C 170.078 0.956671 -1.69346 0
M  V30 1828 O 169.333 1.68993 -0.986913 0
M  V30 1829 C 169.632 -0.705748 -3.50363 0
M  V30 1830 C 169.298 -2.1291 -3.97467 0
M  V30 1831 C 167.96 -2.51834 -4.1004 0
M  V30 1832 C 170.312 -3.05702 -4.22132 0
M  V30 1833 C 167.64 -3.82775 -4.44635 0
M  V30 1834 C 169.992 -4.36166 -4.58194 0
M  V30 1835 C 168.656 -4.74993 -4.68975 0
M  V30 1836 H 167.926 -0.18029 -0.718733 0
M  V30 1837 H 170.573 -1.11233 -1.55883 0
M  V30 1838 H 168.878 -0.00303058 -3.918 0
M  V30 1839 H 170.575 -0.387456 -3.99124 0
M  V30 1840 H 167.165 -1.81694 -3.88182 0
M  V30 1841 H 171.349 -2.76853 -4.11906 0
M  V30 1842 H 166.605 -4.12609 -4.51181 0
M  V30 1843 H 170.779 -5.08111 -4.76231 0
M  V30 1844 H 168.406 -5.76495 -4.95537 0
M  V30 1845 N 169.982 1.44106 -0.638065 0
M  V30 1846 C 170.912 2.33448 0.0494287 0
M  V30 1847 C 171.893 1.48606 0.827672 0
M  V30 1848 O 173.078 1.77308 0.792173 0
M  V30 1849 C 170.208 3.31771 1.02691 0
M  V30 1850 C 169.162 4.26485 0.359823 0
M  V30 1851 C 168.488 5.14729 1.44769 0
M  V30 1852 C 169.788 5.17056 -0.738296 0
M  V30 1853 H 171.482 2.91183 -0.696636 0
M  V30 1854 H 169.028 1.40014 -0.336456 0
M  V30 1855 H 170.981 3.93161 1.51666 0
M  V30 1856 H 169.705 2.7226 1.80395 0
M  V30 1857 H 168.364 3.66437 -0.10934 0
M  V30 1858 H 168.012 4.51566 2.21578 0
M  V30 1859 H 167.712 5.78913 1.00668 0
M  V30 1860 H 169.236 5.78991 1.93911 0
M  V30 1861 H 170.65 5.72342 -0.331354 0
M  V30 1862 H 169.047 5.89879 -1.10286 0
M  V30 1863 H 170.117 4.57652 -1.60258 0
M  V30 1864 N 171.46 0.379036 1.52974 0
M  V30 1865 C 172.708 -0.206014 2.01047 0
M  V30 1866 C 173.029 -1.48175 1.26765 0
M  V30 1867 O 172.299 -1.92085 0.384743 0
M  V30 1868 H 170.879 -0.0791184 0.742798 0
M  V30 1869 H 173.541 0.508366 1.88153 0
M  V30 1870 H 172.637 -0.423501 3.09213 0
M  V30 1871 N 172.938 -1.57226 0.108567 0
M  V30 1872 C 174.178 -1.96717 -0.555155 0
M  V30 1873 C 174.542 -0.990003 -1.64508 0
M  V30 1874 O 175.743 -1.2739 -2.36696 0
M  V30 1875 C 174.014 -3.40575 -1.08367 0
M  V30 1876 S 175.573 -4.02072 -1.75737 0
M  V30 1877 H 172.391 -0.687638 -0.180762 0
M  V30 1878 H 174.993 -1.94563 0.191172 0
M  V30 1879 H 173.697 -4.0945 -0.279092 0
M  V30 1880 H 173.228 -3.46356 -1.86551 0
M  V30 1881 H 175.243 -3.91977 -3.04251 0
M  V30 1882 N 174.416 0.165178 -1.56732 0
M  V30 1883 C 175.326 1.22423 -2.00125 0
M  V30 1884 C 176.342 1.48084 -0.913619 0
M  V30 1885 O 177.518 1.60112 -1.22172 0
M  V30 1886 C 174.583 2.54197 -2.35764 0
M  V30 1887 C 173.644 2.36343 -3.58386 0
M  V30 1888 C 172.877 3.61834 -3.92316 0
M  V30 1889 O 173.1 4.67267 -3.27135 0
M  V30 1890 O 172.034 3.55579 -4.85641 0
M  V30 1891 H 175.86 0.885886 -2.90492 0
M  V30 1892 H 173.445 0.372518 -1.44681 0
M  V30 1893 H 175.327 3.3192 -2.59629 0
M  V30 1894 H 174.002 2.87598 -1.48557 0
M  V30 1895 H 172.909 1.56632 -3.39731 0
M  V30 1896 H 174.242 2.07865 -4.46154 0
M  V30 1897 N 175.894 1.51508 0.433938 0
M  V30 1898 C 176.824 1.76016 1.53429 0
M  V30 1899 C 177.805 0.610112 1.58782 0
M  V30 1900 O 178.99 0.853177 1.74455 0
M  V30 1901 C 176.12 1.88831 2.9148 0
M  V30 1902 C 175.074 3.04288 3.00987 0
M  V30 1903 C 174.4 3.0229 4.4105 0
M  V30 1904 C 175.7 4.44193 2.74754 0
M  V30 1905 H 177.394 2.68152 1.33171 0
M  V30 1906 H 174.94 1.29035 0.639214 0
M  V30 1907 H 176.893 2.04559 3.6842 0
M  V30 1908 H 175.617 0.933455 3.12976 0
M  V30 1909 H 174.276 2.8827 2.26486 0
M  V30 1910 H 173.924 2.04576 4.59519 0
M  V30 1911 H 173.624 3.79822 4.4834 0
M  V30 1912 H 175.148 3.20116 5.1996 0
M  V30 1913 H 176.562 4.60544 3.41426 0
M  V30 1914 H 174.959 5.23457 2.9345 0
M  V30 1915 H 176.029 4.53996 1.70339 0
M  V30 1916 N 177.372 -0.689602 1.41712 0
M  V30 1917 C 178.783 -1.26973 1.36875 0
M  V30 1918 C 179.134 -1.96124 0.054748 0
M  V30 1919 O 178.259 -1.99141 -0.84687 0
M  V30 1920 C 178.854 -2.30912 2.47922 0
M  V30 1921 C 177.413 -2.84486 2.46464 0
M  V30 1922 C 176.56 -1.58603 2.27465 0
M  V30 1923 H 179.511 -0.48396 1.51141 0
M  V30 1924 H 179.532 -3.12331 2.17323 0
M  V30 1925 H 179.044 -1.80554 3.43543 0
M  V30 1926 H 177.145 -3.39005 1.54617 0
M  V30 1927 H 177.258 -3.34511 3.42986 0
M  V30 1928 H 175.622 -1.84632 1.75451 0
M  V30 1929 H 176.405 -1.10233 3.25121 0
M  V30 1930 N 178.85 -1.27639 -0.924453 0
M  V30 1931 C 180.261 -1.12834 -1.48746 0
M  V30 1932 C 180.612 0.285505 -1.94112 0
M  V30 1933 O 179.737 1.17874 -1.81479 0
M  V30 1934 C 180.332 -2.04217 -2.70334 0
M  V30 1935 C 178.891 -1.93509 -3.22848 0
M  V30 1936 C 178.038 -1.96583 -1.95577 0
M  V30 1937 H 180.989 -1.40484 -0.738233 0
M  V30 1938 H 181.01 -1.59989 -3.4523 0
M  V30 1939 H 180.522 -3.07111 -2.37285 0
M  V30 1940 H 178.623 -0.936131 -3.60649 0
M  V30 1941 H 178.736 -2.79917 -3.88823 0
M  V30 1942 H 177.1 -1.4085 -2.12211 0
M  V30 1943 H 177.883 -3.01137 -1.64837 0
M  V30 1944 N 180.328 1.1314 -1.09713 0
M  V30 1945 C 181.238 2.22242 -0.751367 0
M  V30 1946 C 182.254 1.72224 0.247938 0
M  V30 1947 O 183.43 2.01205 0.0885463 0
M  V30 1948 C 180.495 3.46231 -0.180274 0
M  V30 1949 C 179.556 4.11125 -1.2359 0
M  V30 1950 C 178.789 5.29195 -0.691966 0
M  V30 1951 O 179.012 5.68342 0.48414 0
M  V30 1952 O 177.946 5.84214 -1.44838 0
M  V30 1953 H 181.772 2.54197 -1.66186 0
M  V30 1954 H 179.357 1.21331 -0.871735 0
M  V30 1955 H 181.239 4.21185 0.134739 0
M  V30 1956 H 179.914 3.1597 0.703185 0
M  V30 1957 H 178.821 3.37985 -1.60366 0
M  V30 1958 H 180.154 4.45524 -2.09211 0
M  V30 1959 N 181.806 0.884767 1.30421 0
M  V30 1960 C 183.054 0.502112 1.95763 0
M  V30 1961 C 183.375 -0.951815 1.70192 0
M  V30 1962 O 182.645 -1.6692 1.0254 0
M  V30 1963 H 181.225 0.182694 0.724315 0
M  V30 1964 H 183.887 1.1278 1.58955 0
M  V30 1965 H 182.983 0.672188 3.04775 0
M  V30 1966 N 183.284 -1.43765 0.645699 0
M  V30 1967 C 184.509 -2.06767 0.161883 0
M  V30 1968 C 184.934 -1.48034 -1.16049 0
M  V30 1969 O 184.292 -0.587369 -1.71522 0
M  V30 1970 C 184.34 -3.60519 0.0762003 0
M  V30 1971 O 183.444 -4.00982 -0.963721 0
M  V30 1972 H 182.785 -0.657675 0.091429 0
M  V30 1973 H 185.315 -1.84397 0.886499 0
M  V30 1974 H 185.325 -4.07853 -0.109604 0
M  V30 1975 H 184 -4.02646 1.04157 0
M  V30 1976 H 182.577 -3.65253 -0.751312 0
M  V30 1977 N 184.763 -0.387143 -1.52771 0
M  V30 1978 C 186.179 -0.037007 -1.59557 0
M  V30 1979 C 186.379 1.44801 -1.40124 0
M  V30 1980 O 185.435 2.21227 -1.21716 0
M  V30 1981 C 186.748 -0.512256 -2.96305 0
M  V30 1982 C 188.296 -0.468328 -3.09476 0
M  V30 1983 C 188.771 -0.919731 -4.4867 0
M  V30 1984 N 190.262 -0.875656 -4.54848 0
M  V30 1985 C 190.997 -1.19637 -5.6078 0
M  V30 1986 N 190.493 -1.58745 -6.74368 0
M  V30 1987 N 192.286 -1.11776 -5.50874 0
M  V30 1988 H 184.437 -1.35395 -1.63652 0
M  V30 1989 H 186.7 -0.554818 -0.768688 0
M  V30 1990 H 186.406 -1.54935 -3.15734 0
M  V30 1991 H 186.28 0.089805 -3.77093 0
M  V30 1992 H 188.667 0.559671 -2.89744 0
M  V30 1993 H 188.748 -1.10616 -2.30646 0
M  V30 1994 H 188.392 -1.94595 -4.69143 0
M  V30 1995 H 188.322 -0.258927 -5.25963 0
M  V30 1996 H 190.813 -0.587843 -3.733 0
M  V30 1997 H 191.126 -1.81586 -7.51163 0
M  V30 1998 H 189.471 -1.6263 -6.75705 0
M  V30 1999 H 192.662 -0.811264 -4.61016 0
M  V30 2000 H 192.835 -1.37103 -6.3333 0
M  V30 2001 N 186.241 1.57166 -0.116904 0
M  V30 2002 C 187.204 2.14039 0.819742 0
M  V30 2003 C 188.204 1.07477 1.19605 0
M  V30 2004 O 189.394 1.33263 1.1219 0
M  V30 2005 C 186.526 2.67891 2.10826 0
M  V30 2006 H 187.719 2.98128 0.325511 0
M  V30 2007 H 185.272 1.55739 0.132312 0
M  V30 2008 H 186.007 1.87384 2.64685 0
M  V30 2009 H 185.792 3.45823 1.84793 0
M  V30 2010 H 187.282 3.11809 2.77785 0
M  V30 2011 N 187.719 -0.156864 1.56817 0
M  V30 2012 C 188.669 -1.19891 1.93934 0
M  V30 2013 C 189.653 -1.39061 0.809372 0
M  V30 2014 O 190.845 -1.40789 1.07273 0
M  V30 2015 C 187.974 -2.53493 2.31508 0
M  V30 2016 C 187.06 -2.37957 3.51052 0
M  V30 2017 N 187.451 -1.92158 4.67877 0
M  V30 2018 C 185.749 -2.68739 3.55943 0
M  V30 2019 C 186.45 -1.8943 5.49992 0
M  V30 2020 N 185.426 -2.32375 4.91429 0
M  V30 2021 H 189.228 -0.836746 2.81737 0
M  V30 2022 H 186.742 -0.365012 1.58245 0
M  V30 2023 H 188.739 -3.28811 2.56299 0
M  V30 2024 H 187.399 -2.905 1.45051 0
M  V30 2025 H 188.41 -1.62274 4.91821 0
M  V30 2026 H 185.087 -3.09687 2.80001 0
M  V30 2027 H 186.477 -1.55596 6.53636 0
M  V30 2028 N 189.197 -1.51736 -0.425897 0
M  V30 2029 C 190.443 -1.65214 -1.1761 0
M  V30 2030 C 190.776 -0.372778 -1.90589 0
M  V30 2031 O 190.051 0.628139 -1.84078 0
M  V30 2032 C 190.334 -2.86312 -2.18398 0
M  V30 2033 C 190.187 -4.24254 -1.49426 0
M  V30 2034 C 191.506 -3.02925 -3.19256 0
M  V30 2035 H 188.625 -0.601263 -0.426206 0
M  V30 2036 H 191.267 -1.8425 -0.463882 0
M  V30 2037 H 189.417 -2.70213 -2.79137 0
M  V30 2038 H 191.089 -4.52046 -0.919362 0
M  V30 2039 H 189.332 -4.26426 -0.796432 0
M  V30 2040 H 190.003 -5.05001 -2.22885 0
M  V30 2041 H 192.479 -3.1781 -2.68581 0
M  V30 2042 H 191.355 -3.89199 -3.8706 0
M  V30 2043 H 191.616 -2.15497 -3.86023 0
M  V30 2044 N 190.675 0.682077 -1.42076 0
M  V30 2045 C 191.922 1.44215 -1.42156 0
M  V30 2046 C 192.25 1.94468 -0.0354186 0
M  V30 2047 O 191.505 1.70816 0.955002 0
M  V30 2048 C 191.804 2.66036 -2.38662 0
M  V30 2049 C 191.47 2.34366 -3.85206 0
M  V30 2050 C 190.132 2.25439 -4.25124 0
M  V30 2051 C 192.484 2.08513 -4.77673 0
M  V30 2052 C 189.812 1.88775 -5.55501 0
M  V30 2053 C 192.164 1.73354 -6.08384 0
M  V30 2054 C 190.828 1.62933 -6.47309 0
M  V30 2055 H 190.098 0.527718 -0.520187 0
M  V30 2056 H 192.745 0.778387 -1.74967 0
M  V30 2057 H 191.05 3.3741 -1.99152 0
M  V30 2058 H 192.747 3.24205 -2.35991 0
M  V30 2059 H 189.337 2.42213 -3.53597 0
M  V30 2060 H 193.521 2.14346 -4.47626 0
M  V30 2061 H 188.777 1.7927 -5.84527 0
M  V30 2062 H 192.951 1.52373 -6.79526 0
M  V30 2063 H 190.578 1.34292 -7.48244 0
M  V30 2064 N 192.153 1.28127 0.917671 0
M  V30 2065 C 193.4 1.15052 1.66641 0
M  V30 2066 C 193.728 -0.301677 1.92146 0
M  V30 2067 O 192.983 -1.23622 1.51711 0
M  V30 2068 C 193.282 1.89018 3.03327 0
M  V30 2069 C 192.948 3.38832 2.97496 0
M  V30 2070 C 191.61 3.79693 2.95613 0
M  V30 2071 C 193.962 4.34378 2.88036 0
M  V30 2072 C 191.29 5.14447 2.82066 0
M  V30 2073 C 193.642 5.69201 2.7603 0
M  V30 2074 C 192.306 6.09343 2.72502 0
M  V30 2075 H 191.576 0.421006 0.609783 0
M  V30 2076 H 194.223 1.58855 1.06945 0
M  V30 2077 H 192.528 1.37752 3.66785 0
M  V30 2078 H 194.225 1.76321 3.60156 0
M  V30 2079 H 190.815 3.06342 2.99754 0
M  V30 2080 H 194.999 4.03775 2.88581 0
M  V30 2081 H 190.255 5.44681 2.77728 0
M  V30 2082 H 194.429 6.42901 2.67678 0
M  V30 2083 H 192.056 7.13712 2.61762 0
M  V30 2084 N 193.631 -1.12557 1.10312 0
M  V30 2085 C 194.541 -2.21841 0.763142 0
M  V30 2086 C 195.557 -1.72354 -0.238801 0
M  V30 2087 O 196.733 -2.01249 -0.0778746 0
M  V30 2088 C 193.798 -3.46131 0.198632 0
M  V30 2089 C 192.859 -4.10464 1.25769 0
M  V30 2090 C 192.092 -5.28821 0.72002 0
M  V30 2091 O 192.315 -5.6859 -0.453993 0
M  V30 2092 O 191.249 -5.83437 1.47935 0
M  V30 2093 H 195.075 -2.53312 1.67532 0
M  V30 2094 H 192.66 -1.20867 0.878157 0
M  V30 2095 H 194.542 -4.2125 -0.112401 0
M  V30 2096 H 193.217 -3.16338 -0.686419 0
M  V30 2097 H 192.124 -3.3713 1.62156 0
M  V30 2098 H 193.457 -4.44408 2.11571 0
M  V30 2099 N 195.109 -0.891671 -1.2995 0
M  V30 2100 C 196.355 -0.514261 -1.96171 0
M  V30 2101 C 196.688 0.935506 -1.70182 0
M  V30 2102 O 195.963 1.66204 -1.01028 0
M  V30 2103 C 196.246 -0.797719 -3.51153 0
M  V30 2104 C 196.099 -2.2986 -3.86632 0
M  V30 2105 C 197.418 -0.278749 -4.39216 0
M  V30 2106 H 194.537 -0.188314 -0.712535 0
M  V30 2107 H 197.179 -1.11689 -1.53706 0
M  V30 2108 H 195.329 -0.284826 -3.87455 0
M  V30 2109 H 197.001 -2.88042 -3.60319 0
M  V30 2110 H 195.244 -2.76257 -3.34462 0
M  V30 2111 H 195.915 -2.44753 -4.94773 0
M  V30 2112 H 198.391 -0.717825 -4.09862 0
M  V30 2113 H 197.267 -0.506353 -5.46559 0
M  V30 2114 H 197.528 0.820266 -4.34424 0
M  V30 2115 N 196.587 1.43421 -0.653314 0
M  V30 2116 C 197.55 2.29182 0.0287951 0
M  V30 2117 C 198.55 1.42213 0.750465 0
M  V30 2118 O 199.74 1.63843 0.591701 0
M  V30 2119 C 196.872 3.24278 1.05151 0
M  V30 2120 H 198.065 2.90985 -0.725786 0
M  V30 2121 H 195.618 1.50702 -0.414545 0
M  V30 2122 H 196.353 2.6737 1.83532 0
M  V30 2123 H 196.138 3.88396 0.537687 0
M  V30 2124 H 197.628 3.88647 1.52786 0
M  V30 2125 N 198.065 0.39524 1.52563 0
M  V30 2126 C 199.311 -0.185318 2.01952 0
M  V30 2127 C 199.644 -1.45964 1.28095 0
M  V30 2128 O 198.919 -1.90689 0.38315 0
M  V30 2129 C 199.202 -0.447193 3.57312 0
M  V30 2130 C 199.055 0.842828 4.41833 0
M  V30 2131 C 200.374 -1.23529 4.22408 0
M  V30 2132 H 197.493 -0.0658788 0.73405 0
M  V30 2133 H 200.135 0.525975 1.82575 0
M  V30 2134 H 198.285 -1.05312 3.73954 0
M  V30 2135 H 199.957 1.4795 4.36931 0
M  V30 2136 H 198.2 1.45686 4.08605 0
M  V30 2137 H 198.871 0.614165 5.48573 0
M  V30 2138 H 201.347 -0.722445 4.0978 0
M  V30 2139 H 200.223 -1.38727 5.3108 0
M  V30 2140 H 200.484 -2.25213 3.80436 0
M  V30 2141 N 199.544 -1.57102 0.125237 0
M  V30 2142 C 200.492 -2.16905 -0.839927 0
M  V30 2143 C 201.486 -1.11998 -1.27094 0
M  V30 2144 O 202.692 -1.3029 -1.24195 0
M  V30 2145 H 199.067 -0.694252 -0.288995 0
M  V30 2146 H 201.038 -2.96774 -0.311115 0
M  V30 2147 C 199.787 -2.78795 -2.07771 0
M  V30 2148 H 199.11 -3.59221 -1.755 0
M  V30 2149 H 200.55 -3.2417 -2.73295 0
M  V30 2150 C 199.009 -1.76193 -2.87155 0
M  V30 2151 O 199.539 -1.21909 -3.82755 0
M  V30 2152 N 197.745 -1.45991 -2.51267 0
M  V30 2153 H 197.292 -1.90325 -1.73592 0
M  V30 2154 H 197.25 -0.775844 -3.04677 0
M  V30 2155 N 201.022 0.148545 -1.56898 0
M  V30 2156 C 202.27 0.859717 -1.82902 0
M  V30 2157 C 202.591 1.81775 -0.70588 0
M  V30 2158 O 201.861 1.93994 0.272586 0
M  V30 2159 H 200.441 0.320469 -0.674766 0
M  V30 2160 H 203.103 0.142918 -1.94375 0
M  V30 2161 H 202.199 1.4229 -2.77777 0
M  V30 2162 N 202.5 1.5196 0.417844 0
M  V30 2163 C 203.725 1.69717 1.1921 0
M  V30 2164 C 204.15 0.402148 1.83751 0
M  V30 2165 O 203.508 -0.639593 1.69643 0
M  V30 2166 C 203.556 2.82794 2.2374 0
M  V30 2167 O 202.66 2.47756 3.29683 0
M  V30 2168 H 202.001 0.565263 0.348387 0
M  V30 2169 H 204.531 1.98621 0.490985 0
M  V30 2170 H 204.541 3.07452 2.68212 0
M  V30 2171 H 203.216 3.76756 1.76146 0
M  V30 2172 H 201.793 2.33739 2.90552 0
M  V30 2173 N 203.978 -0.674533 1.42435 0
M  V30 2174 C 205.203 -1.46784 1.46524 0
M  V30 2175 C 205.628 -1.87938 0.078066 0
M  V30 2176 O 204.986 -1.56014 -0.92354 0
M  V30 2177 C 205.034 -2.69307 2.39805 0
M  V30 2178 O 204.138 -3.67587 1.86959 0
M  V30 2179 H 203.479 -0.440959 0.496439 0
M  V30 2180 H 206.009 -0.827326 1.87127 0
M  V30 2181 H 206.019 -3.17374 2.56393 0
M  V30 2182 H 204.694 -2.38692 3.40586 0
M  V30 2183 H 203.271 -3.2662 1.79927 0
M  V30 2184 N 205.456 -1.28612 -0.910864 0
M  V30 2185 C 206.703 -1.15934 -1.66029 0
M  V30 2186 C 207.031 0.291483 -1.92303 0
M  V30 2187 O 206.286 1.22816 -1.52364 0
M  V30 2188 C 206.585 -1.90624 -3.0232 0
M  V30 2189 C 206.251 -3.40405 -2.95695 0
M  V30 2190 C 204.913 -3.81255 -2.93595 0
M  V30 2191 C 207.265 -4.359 -2.85728 0
M  V30 2192 C 204.593 -5.15936 -2.79334 0
M  V30 2193 C 206.945 -5.70657 -2.73007 0
M  V30 2194 C 205.609 -6.10779 -2.69267 0
M  V30 2195 H 204.879 -0.424234 -0.607541 0
M  V30 2196 H 207.526 -1.5942 -1.06101 0
M  V30 2197 H 205.831 -1.39696 -3.6605 0
M  V30 2198 H 207.528 -1.78228 -3.59215 0
M  V30 2199 H 204.118 -3.07927 -2.98125 0
M  V30 2200 H 208.302 -4.053 -2.86436 0
M  V30 2201 H 203.558 -5.46146 -2.74835 0
M  V30 2202 H 207.732 -6.44311 -2.64264 0
M  V30 2203 H 205.359 -7.1509 -2.57974 0
M  V30 2204 N 206.934 1.1197 -1.10907 0
M  V30 2205 C 208.18 1.8386 -0.855773 0
M  V30 2206 C 208.513 1.84134 0.617103 0
M  V30 2207 O 207.788 1.29041 1.45529 0
M  V30 2208 C 208.071 3.31305 -1.411 0
M  V30 2209 C 207.924 3.39456 -2.9511 0
M  V30 2210 C 209.243 4.2721 -1.05736 0
M  V30 2211 H 206.362 0.667545 -0.312334 0
M  V30 2212 H 209.004 1.31331 -1.37303 0
M  V30 2213 H 207.154 3.76169 -0.97105 0
M  V30 2214 H 208.826 3.03191 -3.47668 0
M  V30 2215 H 207.069 2.79849 -3.31462 0
M  V30 2216 H 207.74 4.43209 -3.29044 0
M  V30 2217 H 210.216 3.90497 -1.43706 0
M  V30 2218 H 209.092 5.28775 -1.47269 0
M  V30 2219 H 209.353 4.42088 0.0325958 0
M  V30 2220 N 208.412 0.89855 1.29475 0
M  V30 2221 C 209.637 0.538561 2.00285 0
M  V30 2222 C 210.062 -0.869135 1.66816 0
M  V30 2223 O 209.42 -1.57831 0.892145 0
M  V30 2224 C 209.468 0.736475 3.52999 0
M  V30 2225 O 208.572 -0.211537 4.11857 0
M  V30 2226 H 207.913 0.210563 0.62973 0
M  V30 2227 H 210.443 1.20982 1.64998 0
M  V30 2228 H 210.453 0.640685 4.02938 0
M  V30 2229 H 209.128 1.76276 3.76696 0
M  V30 2230 H 207.705 -0.0682991 3.72837 0
M  V30 2231 N 209.89 -1.43072 0.660911 0
M  V30 2232 C 211.137 -2.01721 0.177445 0
M  V30 2233 C 211.465 -1.5218 -1.21126 0
M  V30 2234 O 210.72 -0.708659 -1.82419 0
M  V30 2235 C 211.019 -3.57103 0.145563 0
M  V30 2236 C 210.685 -4.26021 1.47705 0
M  V30 2237 C 209.347 -4.44563 1.84165 0
M  V30 2238 C 211.699 -4.64983 2.35458 0
M  V30 2239 C 209.027 -4.99334 3.0803 0
M  V30 2240 C 211.379 -5.21127 3.58622 0
M  V30 2241 C 210.043 -5.37884 3.95268 0
M  V30 2242 H 209.313 -0.73815 0.0649317 0
M  V30 2243 H 211.96 -1.71446 0.853144 0
M  V30 2244 H 210.265 -3.86965 -0.61361 0
M  V30 2245 H 211.962 -4.00248 -0.2455 0
M  V30 2246 H 208.552 -4.11939 1.18339 0
M  V30 2247 H 212.736 -4.50343 2.08579 0
M  V30 2248 H 207.992 -5.10493 3.36462 0
M  V30 2249 H 212.166 -5.50262 4.26831 0
M  V30 2250 H 209.793 -5.80089 4.91325 0
M  V30 2251 N 211.368 -0.403325 -1.52352 0
M  V30 2252 C 212.784 -0.0539281 -1.59509 0
M  V30 2253 C 212.984 1.43307 -1.41652 0
M  V30 2254 O 212.04 2.19924 -1.24056 0
M  V30 2255 C 213.353 -0.543654 -2.95745 0
M  V30 2256 C 214.901 -0.501125 -3.08962 0
M  V30 2257 C 215.376 -0.967267 -4.47669 0
M  V30 2258 N 216.867 -0.923849 -4.53893 0
M  V30 2259 C 217.602 -1.25578 -5.5948 0
M  V30 2260 N 217.098 -1.65889 -6.72646 0
M  V30 2261 N 218.891 -1.17613 -5.49658 0
M  V30 2262 H 211.042 -1.37123 -1.62206 0
M  V30 2263 H 213.305 -0.56294 -0.76276 0
M  V30 2264 H 213.011 -1.58275 -3.14073 0
M  V30 2265 H 212.885 0.0498042 -3.77167 0
M  V30 2266 H 215.272 0.528909 -2.90321 0
M  V30 2267 H 215.353 -1.13056 -2.2946 0
M  V30 2268 H 214.997 -1.9956 -4.67053 0
M  V30 2269 H 214.927 -0.314698 -5.25659 0
M  V30 2270 H 217.418 -0.627403 -3.72655 0
M  V30 2271 H 217.731 -1.89543 -7.49195 0
M  V30 2272 H 216.076 -1.69787 -6.73942 0
M  V30 2273 H 219.267 -0.860115 -4.6013 0
M  V30 2274 H 219.44 -1.43812 -6.3184 0
M  V30 2275 N 212.846 1.57033 -0.133567 0
M  V30 2276 C 214.257 1.82593 0.389464 0
M  V30 2277 C 214.608 1.05156 1.6564 0
M  V30 2278 O 213.733 0.292644 2.14412 0
M  V30 2279 C 214.328 3.31204 0.713377 0
M  V30 2280 C 212.887 3.57393 1.18098 0
M  V30 2281 C 212.034 2.76598 0.197126 0
M  V30 2282 H 214.985 1.54598 -0.358481 0
M  V30 2283 H 215.006 3.46627 1.56939 0
M  V30 2284 H 214.518 3.87537 -0.2089 0
M  V30 2285 H 212.619 3.06433 2.11966 0
M  V30 2286 H 212.732 4.65915 1.11624 0
M  V30 2287 H 211.096 2.45257 0.687088 0
M  V30 2288 H 211.879 3.35697 -0.718504 0
M  V30 2289 N 214.325 -0.140222 1.56975 0
M  V30 2290 C 215.235 -1.19223 2.02047 0
M  V30 2291 C 216.251 -1.46612 0.937062 0
M  V30 2292 O 217.427 -1.58148 1.24704 0
M  V30 2293 C 214.492 -2.50414 2.39778 0
M  V30 2294 C 213.553 -2.30612 3.621 0
M  V30 2295 C 212.786 -3.55547 3.98023 0
M  V30 2296 O 213.009 -4.62004 3.34528 0
M  V30 2297 O 211.943 -3.47808 4.91237 0
M  V30 2298 H 215.769 -0.839559 2.91865 0
M  V30 2299 H 213.354 -0.349453 1.45256 0
M  V30 2300 H 215.236 -3.27747 2.64877 0
M  V30 2301 H 213.911 -2.85198 1.53114 0
M  V30 2302 H 212.818 -1.51207 3.4218 0
M  V30 2303 H 214.151 -2.00741 4.49404 0
M  V30 2304 N 215.803 -1.52179 -0.40978 0
M  V30 2305 C 217.219 -1.40968 -0.74835 0
M  V30 2306 C 217.419 -0.513657 -1.94843 0
M  V30 2307 O 216.475 0.0208026 -2.52491 0
M  V30 2308 C 217.788 -2.83483 -1.0029 0
M  V30 2309 C 219.336 -2.92821 -1.10565 0
M  V30 2310 C 219.811 -4.36303 -1.39296 0
M  V30 2311 N 221.302 -4.39535 -1.46162 0
M  V30 2312 C 222.037 -5.47614 -1.70018 0
M  V30 2313 N 221.533 -6.65812 -1.91483 0
M  V30 2314 N 223.326 -5.35129 -1.72027 0
M  V30 2315 H 215.477 -2.0897 0.380186 0
M  V30 2316 H 217.74 -0.94185 0.107805 0
M  V30 2317 H 217.446 -3.51168 -0.193461 0
M  V30 2318 H 217.32 -3.24487 -1.92323 0
M  V30 2319 H 219.707 -2.25318 -1.90568 0
M  V30 2320 H 219.788 -2.55276 -0.16369 0
M  V30 2321 H 219.432 -5.04366 -0.598109 0
M  V30 2322 H 219.362 -4.71385 -2.34743 0
M  V30 2323 H 221.853 -3.54332 -1.31367 0
M  V30 2324 H 222.166 -7.43964 -2.09134 0
M  V30 2325 H 220.511 -6.68879 -1.88749 0
M  V30 2326 H 223.702 -4.41764 -1.54796 0
M  V30 2327 H 223.875 -6.19433 -1.9028 0
M  V30 2328 N 217.281 0.66697 -1.42791 0
M  V30 2329 C 218.244 1.76211 -1.46568 0
M  V30 2330 C 219.244 1.56896 -0.352196 0
M  V30 2331 O 220.434 1.63044 -0.613364 0
M  V30 2332 C 217.566 3.14935 -1.30494 0
M  V30 2333 H 218.759 1.74247 -2.44086 0
M  V30 2334 H 216.312 0.877342 -1.29354 0
M  V30 2335 H 217.047 3.2252 -0.339301 0
M  V30 2336 H 216.832 3.30359 -2.11199 0
M  V30 2337 H 218.322 3.94821 -1.36038 0
M  V30 2338 N 218.759 1.29093 0.90403 0
M  V30 2339 C 219.689 1.16401 2.02418 0
M  V30 2340 C 220.67 0.0593085 1.69997 0
M  V30 2341 O 221.855 0.238021 1.92736 0
M  V30 2342 C 218.985 0.835233 3.37107 0
M  V30 2343 C 217.939 1.89578 3.83724 0
M  V30 2344 C 217.265 1.42041 5.15489 0
M  V30 2345 C 218.565 3.30394 4.04521 0
M  V30 2346 H 220.259 2.10109 2.13295 0
M  V30 2347 H 217.805 1.01157 1.02486 0
M  V30 2348 H 219.758 0.733169 4.14973 0
M  V30 2349 H 218.482 -0.137543 3.2631 0
M  V30 2350 H 217.141 1.98715 3.08071 0
M  V30 2351 H 216.789 0.436426 5.01103 0
M  V30 2352 H 216.489 2.12964 5.4765 0
M  V30 2353 H 218.013 1.33176 5.959 0
M  V30 2354 H 219.427 3.24123 4.72882 0
M  V30 2355 H 217.824 3.99237 4.48029 0
M  V30 2356 H 218.894 3.73692 3.09002 0
M  V30 2357 N 220.237 -1.11381 1.11499 0
M  V30 2358 C 221.483 -1.83597 0.875423 0
M  V30 2359 C 221.838 -1.83048 -0.592555 0
M  V30 2360 O 221.131 -1.27304 -1.43193 0
M  V30 2361 C 221.325 -3.30026 1.37177 0
M  V30 2362 C 221.154 -3.44837 2.88647 0
M  V30 2363 C 219.924 -3.57825 3.56776 0
M  V30 2364 C 222.122 -3.3907 3.86699 0
M  V30 2365 N 220.104 -3.61113 4.96458 0
M  V30 2366 C 221.475 -3.48986 5.12454 0
M  V30 2367 C 223.53 -3.22605 3.7925 0
M  V30 2368 C 222.233 -3.44135 6.31636 0
M  V30 2369 C 224.259 -3.19072 4.97943 0
M  V30 2370 C 223.621 -3.29559 6.22551 0
M  V30 2371 H 219.72 -0.687044 0.37349 0
M  V30 2372 H 222.304 -1.33265 1.41946 0
M  V30 2373 H 220.475 -3.78874 0.854919 0
M  V30 2374 H 222.207 -3.90153 1.07529 0
M  V30 2375 H 218.962 -3.60414 3.07244 0
M  V30 2376 H 219.386 -3.66394 5.69284 0
M  V30 2377 H 224.028 -3.13382 2.83816 0
M  V30 2378 H 221.746 -3.52126 7.27347 0
M  V30 2379 H 225.332 -3.07498 4.93899 0
M  V30 2380 H 224.212 -3.26815 7.12855 0
M  V30 2381 N 221.715 -0.905404 -1.28997 0
M  V30 2382 C 222.647 -0.344748 -2.26592 0
M  V30 2383 C 223.66 0.512135 -1.54535 0
M  V30 2384 O 224.849 0.328368 -1.75454 0
M  V30 2385 C 221.949 0.526587 -3.34784 0
M  V30 2386 C 221.122 -0.305871 -4.36329 0
M  V30 2387 C 220.181 0.499209 -5.23827 0
M  V30 2388 O 219.207 -0.0853004 -5.69136 0
M  V30 2389 N 220.409 1.80408 -5.51755 0
M  V30 2390 H 223.174 -1.18359 -2.75338 0
M  V30 2391 H 220.735 -0.770481 -1.42391 0
M  V30 2392 H 222.727 1.07171 -3.90252 0
M  V30 2393 H 221.297 1.26613 -2.85811 0
M  V30 2394 H 220.517 -1.0324 -3.80441 0
M  V30 2395 H 221.805 -0.875773 -5.01206 0
M  V30 2396 H 221.203 2.3016 -5.16762 0
M  V30 2397 H 219.76 2.29621 -6.10014 0
M  V30 2398 N 223.193 1.4272 -0.668489 0
M  V30 2399 C 224.156 2.292 0.00448567 0
M  V30 2400 C 225.156 1.43001 0.735339 0
M  V30 2401 O 226.346 1.64461 0.57429 0
M  V30 2402 C 223.478 3.25375 1.01705 0
M  V30 2403 H 224.671 2.90199 -0.756608 0
M  V30 2404 H 222.224 1.50254 -0.430506 0
M  V30 2405 H 222.959 2.69301 1.80686 0
M  V30 2406 H 222.744 3.88944 0.496463 0
M  V30 2407 H 224.234 3.90245 1.48655 0
M  V30 2408 N 224.671 0.411399 1.52136 0
M  V30 2409 C 225.948 -0.222308 1.94333 0
M  V30 2410 C 226.328 -1.6242 1.34844 0
M  V30 2411 O 225.676 -2.22384 0.525145 0
M  V30 2412 C 225.886 -0.226345 3.48265 0
M  V30 2413 C 227.234 -0.444592 4.22266 0
M  V30 2414 O 228.258 -0.305602 3.54887 0
M  V30 2415 O 227.117 -0.718749 5.41753 0
M  V30 2416 H 224.211 -0.143907 0.814383 0
M  V30 2417 H 226.757 0.467506 1.63133 0
M  V30 2418 H 225.529 0.75475 3.83952 0
M  V30 2419 H 225.152 -0.960163 3.85832 0
M  V30 2420 N 226.149 -1.5696 0.141893 0
M  V30 2421 C 227.377 -2.00322 -0.517579 0
M  V30 2422 C 227.792 -1.02193 -1.58752 0
M  V30 2423 O 227.149 -0.0181619 -1.82491 0
M  V30 2424 C 227.2 -3.43618 -1.12289 0
M  V30 2425 O 226.921 -4.37995 -0.0956929 0
M  V30 2426 C 228.422 -4.02231 -1.86347 0
M  V30 2427 H 225.642 -0.657243 -0.135177 0
M  V30 2428 H 228.186 -2.03146 0.234973 0
M  V30 2429 H 226.341 -3.41662 -1.82609 0
M  V30 2430 H 226.755 -5.21729 -0.538469 0
M  V30 2431 H 228.229 -5.04509 -2.23997 0
M  V30 2432 H 228.706 -3.42655 -2.74744 0
M  V30 2433 H 229.312 -4.07802 -1.20737 0
M  V30 2434 N 227.627 0.131896 -1.57047 0
M  V30 2435 C 228.559 1.1878 -1.9602 0
M  V30 2436 C 229.572 1.38363 -0.857875 0
M  V30 2437 O 230.761 1.37666 -1.13623 0
M  V30 2438 C 227.861 2.55008 -2.23213 0
M  V30 2439 C 227.034 2.56201 -3.54513 0
M  V30 2440 C 226.093 3.7408 -3.70069 0
M  V30 2441 O 225.119 3.58258 -4.42312 0
M  V30 2442 N 226.321 4.92137 -3.07866 0
M  V30 2443 H 229.086 0.85639 -2.87204 0
M  V30 2444 H 226.647 0.321309 -1.5868 0
M  V30 2445 H 228.639 3.32404 -2.30846 0
M  V30 2446 H 227.209 2.80382 -1.3822 0
M  V30 2447 H 226.429 1.64613 -3.58185 0
M  V30 2448 H 227.717 2.54043 -4.4084 0
M  V30 2449 H 227.115 5.07895 -2.49116 0
M  V30 2450 H 225.672 5.67254 -3.21039 0
M  V30 2451 N 229.106 1.52395 0.401703 0
M  V30 2452 C 230.352 1.67065 1.14966 0
M  V30 2453 C 230.685 0.403052 1.89971 0
M  V30 2454 O 229.96 -0.598774 1.85054 0
M  V30 2455 C 230.243 2.8975 2.13815 0
M  V30 2456 C 230.096 4.26578 1.42658 0
M  V30 2457 C 231.415 3.07965 3.14397 0
M  V30 2458 H 228.534 0.607968 0.416587 0
M  V30 2459 H 231.176 1.84965 0.434511 0
M  V30 2460 H 229.326 2.74619 2.74803 0
M  V30 2461 H 230.998 4.53451 0.847329 0
M  V30 2462 H 229.241 4.27639 0.72849 0
M  V30 2463 H 229.912 5.08483 2.14823 0
M  V30 2464 H 232.388 3.22043 2.63491 0
M  V30 2465 H 231.264 3.95308 3.80819 0
M  V30 2466 H 231.525 2.21611 3.82545 0
M  V30 2467 N 230.584 -0.659388 1.43143 0
M  V30 2468 C 231.812 -1.44723 1.47861 0
M  V30 2469 C 232.227 -1.88563 0.0945886 0
M  V30 2470 O 231.584 -1.59108 -0.893915 0
M  V30 2471 C 231.635 -2.68627 2.41913 0
M  V30 2472 O 231.356 -2.26623 3.74932 0
M  V30 2473 C 232.857 -3.62045 2.55809 0
M  V30 2474 H 230.077 -0.444801 0.502387 0
M  V30 2475 H 232.621 -0.808916 1.87821 0
M  V30 2476 H 230.776 -3.28613 2.05164 0
M  V30 2477 H 231.19 -3.06745 4.2545 0
M  V30 2478 H 232.664 -4.45666 3.25708 0
M  V30 2479 H 233.141 -4.08981 1.60099 0
M  V30 2480 H 233.747 -3.07944 2.93344 0
M  V30 2481 N 232.062 -1.29571 -0.897171 0
M  V30 2482 C 233.287 -1.20705 -1.68656 0
M  V30 2483 C 233.712 0.228582 -1.86706 0
M  V30 2484 O 233.07 1.16494 -1.3892 0
M  V30 2485 C 233.118 -1.9282 -3.04717 0
M  V30 2486 O 232.222 -1.24697 -3.93096 0
M  V30 2487 H 231.563 -0.418126 -0.515816 0
M  V30 2488 H 234.093 -1.71183 -1.12061 0
M  V30 2489 H 234.103 -2.01372 -3.54843 0
M  V30 2490 H 232.778 -2.97239 -2.90899 0
M  V30 2491 H 231.355 -1.2442 -3.51531 0
M  V30 2492 N 233.54 1.10788 -1.12088 0
M  V30 2493 C 234.788 1.8231 -0.872205 0
M  V30 2494 C 235.109 1.85419 0.603709 0
M  V30 2495 O 234.379 1.32963 1.43867 0
M  V30 2496 H 232.959 0.675137 -0.319686 0
M  V30 2497 H 235.621 1.34068 -1.41463 0
M  V30 2498 H 234.717 2.85955 -1.25045 0
M  V30 2499 N 235.018 0.912232 1.28515 0
M  V30 2500 C 236.264 0.545405 1.95328 0
M  V30 2501 C 236.597 -0.908313 1.71649 0
M  V30 2502 O 235.872 -1.64575 1.03659 0
M  V30 2503 C 236.155 0.853483 3.4984 0
M  V30 2504 C 236.008 2.35982 3.82926 0
M  V30 2505 C 237.327 0.348589 4.38717 0
M  V30 2506 H 234.446 0.199626 0.709449 0
M  V30 2507 H 237.088 1.1412 1.5191 0
M  V30 2508 H 235.238 0.34643 3.86952 0
M  V30 2509 H 236.91 2.93738 3.55691 0
M  V30 2510 H 235.153 2.81543 3.30024 0
M  V30 2511 H 235.824 2.52593 4.90816 0
M  V30 2512 H 238.3 0.78294 4.08668 0
M  V30 2513 H 237.176 0.593242 5.45685 0
M  V30 2514 H 237.437 -0.751049 4.35674 0
M  V30 2515 N 236.496 -1.42363 0.676048 0
M  V30 2516 C 237.742 -2.0182 0.199125 0
M  V30 2517 C 238.075 -1.53339 -1.19168 0
M  V30 2518 O 237.35 -0.736124 -1.80032 0
M  V30 2519 C 237.633 -3.59331 0.235144 0
M  V30 2520 C 237.486 -4.17989 1.66149 0
M  V30 2521 C 238.805 -4.3813 -0.41595 0
M  V30 2522 H 235.924 -0.733293 0.0738311 0
M  V30 2523 H 238.566 -1.69368 0.86107 0
M  V30 2524 H 236.716 -3.87109 -0.328487 0
M  V30 2525 H 238.388 -4.0116 2.27747 0
M  V30 2526 H 236.631 -3.7377 2.20178 0
M  V30 2527 H 237.302 -5.27126 1.63837 0
M  V30 2528 H 239.778 -4.16051 0.0638529 0
M  V30 2529 H 238.654 -5.47717 -0.360115 0
M  V30 2530 H 238.915 -4.16101 -1.49373 0
M  V30 2531 N 237.974 -0.419461 -1.51915 0
M  V30 2532 C 239.202 0.152136 -2.0634 0
M  V30 2533 C 239.617 1.37988 -1.28859 0
M  V30 2534 O 238.974 1.79243 -0.343232 0
M  V30 2535 C 239.025 0.492266 -3.58133 0
M  V30 2536 O 238.746 -0.686736 -4.32684 0
M  V30 2537 C 240.247 1.11648 -4.2901 0
M  V30 2538 H 237.467 0.0158325 -0.670813 0
M  V30 2539 H 240.011 -0.593394 -1.95702 0
M  V30 2540 H 238.166 1.18769 -3.68745 0
M  V30 2541 H 238.58 -0.400341 -5.2297 0
M  V30 2542 H 240.054 1.3046 -5.36362 0
M  V30 2543 H 240.531 2.09251 -3.86148 0
M  V30 2544 H 241.137 0.460958 -4.22795 0
M  V30 2545 N 239.452 1.56882 -0.150215 0
M  V30 2546 C 240.699 1.96228 0.500093 0
M  V30 2547 C 241.027 1.03522 1.64661 0
M  V30 2548 O 240.282 0.0650683 1.95592 0
M  V30 2549 C 240.581 3.41801 1.04437 0
M  V30 2550 C 240.247 4.50897 0.0159671 0
M  V30 2551 C 238.909 4.8046 -0.266731 0
M  V30 2552 C 241.261 5.16703 -0.683192 0
M  V30 2553 C 238.589 5.73135 -1.25434 0
M  V30 2554 C 240.941 6.10441 -1.65964 0
M  V30 2555 C 239.605 6.38382 -1.95 0
M  V30 2556 H 238.875 0.718048 0.182997 0
M  V30 2557 H 241.522 1.90019 -0.237724 0
M  V30 2558 H 239.827 3.44857 1.85959 0
M  V30 2559 H 241.524 3.69573 1.55618 0
M  V30 2560 H 238.114 4.27891 0.246485 0
M  V30 2561 H 242.298 4.93993 -0.477983 0
M  V30 2562 H 237.554 5.93074 -1.48571 0
M  V30 2563 H 241.728 6.60507 -2.20689 0
M  V30 2564 H 239.355 7.09996 -2.71679 0
M  V30 2565 N 240.93 -0.123565 1.57115 0
M  V30 2566 C 242.158 -0.846461 1.88793 0
M  V30 2567 C 242.573 -1.73652 0.740976 0
M  V30 2568 O 241.93 -1.80207 -0.288393 0
M  V30 2569 C 241.981 -1.6837 3.19897 0
M  V30 2570 O 241.702 -0.829477 4.30176 0
M  V30 2571 C 243.203 -2.51214 3.65248 0
M  V30 2572 H 240.423 -0.243573 0.625231 0
M  V30 2573 H 242.967 -0.109324 2.04208 0
M  V30 2574 H 241.122 -2.37364 3.06165 0
M  V30 2575 H 241.536 -1.40651 5.0529 0
M  V30 2576 H 243.01 -3.05497 4.59756 0
M  V30 2577 H 243.487 -3.28359 2.9168 0
M  V30 2578 H 244.093 -1.8747 3.81752 0
M  V30 2579 N 242.408 -1.52605 -0.393616 0
M  V30 2580 C 243.338 -1.80022 -1.48709 0
M  V30 2581 C 244.319 -0.651995 -1.57108 0
M  V30 2582 O 245.504 -0.89913 -1.72132 0
M  V30 2583 C 242.634 -1.96492 -2.86371 0
M  V30 2584 C 241.588 -3.12161 -2.92813 0
M  V30 2585 C 240.914 -3.13877 -4.3288 0
M  V30 2586 C 242.214 -4.51322 -2.6288 0
M  V30 2587 H 243.908 -2.71589 -1.26015 0
M  V30 2588 H 241.454 -1.30684 -0.604778 0
M  V30 2589 H 243.407 -2.14255 -3.62867 0
M  V30 2590 H 242.131 -1.01611 -3.10391 0
M  V30 2591 H 240.79 -2.94173 -2.18764 0
M  V30 2592 H 240.438 -2.16687 -4.53933 0
M  V30 2593 H 240.138 -3.91576 -4.38112 0
M  V30 2594 H 241.662 -3.33789 -5.1129 0
M  V30 2595 H 243.076 -4.69435 -3.29096 0
M  V30 2596 H 241.473 -5.31053 -2.79468 0
M  V30 2597 H 242.543 -4.58353 -1.58242 0
M  V30 2598 N 243.887 0.651787 -1.4349 0
M  V30 2599 C 244.819 1.77725 -1.44729 0
M  V30 2600 C 245.832 1.59141 -0.343231 0
M  V30 2601 O 247.021 1.67835 -0.607751 0
M  V30 2602 C 244.121 3.15172 -1.24579 0
M  V30 2603 C 243.294 3.60402 -2.47849 0
M  V30 2604 C 242.353 4.76656 -2.22902 0
M  V30 2605 O 241.379 4.86022 -2.96263 0
M  V30 2606 N 242.581 5.66958 -1.24656 0
M  V30 2607 H 245.346 1.77141 -2.41746 0
M  V30 2608 H 242.907 0.835678 -1.38665 0
M  V30 2609 H 244.899 3.90634 -1.0577 0
M  V30 2610 H 243.469 3.1052 -0.360015 0
M  V30 2611 H 242.689 2.75369 -2.82073 0
M  V30 2612 H 243.977 3.87368 -3.29884 0
M  V30 2613 H 243.375 5.62065 -0.640265 0
M  V30 2614 H 241.932 6.42135 -1.1183 0
M  V30 2615 N 245.365 1.30045 0.890287 0
M  V30 2616 C 246.297 1.11786 2.00091 0
M  V30 2617 C 247.31 0.0626307 1.62679 0
M  V30 2618 O 248.499 0.308112 1.75821 0
M  V30 2619 C 245.599 0.681527 3.31977 0
M  V30 2620 C 244.772 1.81735 3.97858 0
M  V30 2621 C 243.831 1.37045 5.08041 0
M  V30 2622 O 242.857 2.07677 5.29961 0
M  V30 2623 N 244.059 0.246525 5.79976 0
M  V30 2624 H 246.824 2.07441 2.16306 0
M  V30 2625 H 244.385 1.2211 1.06305 0
M  V30 2626 H 246.377 0.365675 4.03045 0
M  V30 2627 H 244.947 -0.182828 3.12065 0
M  V30 2628 H 244.167 2.30159 3.20032 0
M  V30 2629 H 245.455 2.57865 4.38615 0
M  V30 2630 H 244.853 -0.34215 5.64664 0
M  V30 2631 H 243.41 -0.00990438 6.51799 0
M  V30 2632 N 246.843 -1.10192 1.12674 0
M  V30 2633 C 247.773 -2.18652 0.819362 0
M  V30 2634 C 248.754 -1.68698 -0.217915 0
M  V30 2635 O 249.939 -1.94041 -0.0785581 0
M  V30 2636 C 247.069 -3.46202 0.27594 0
M  V30 2637 C 246.023 -4.09444 1.24656 0
M  V30 2638 C 245.349 -5.31725 0.563258 0
M  V30 2639 C 246.649 -4.52863 2.60217 0
M  V30 2640 H 248.343 -2.44622 1.72628 0
M  V30 2641 H 245.889 -1.17571 0.831451 0
M  V30 2642 H 247.842 -4.21372 0.0486149 0
M  V30 2643 H 246.566 -3.1973 -0.666331 0
M  V30 2644 H 245.225 -3.36284 1.45974 0
M  V30 2645 H 244.873 -5.0153 -0.384235 0
M  V30 2646 H 244.573 -5.74991 1.21075 0
M  V30 2647 H 246.097 -6.09624 0.34503 0
M  V30 2648 H 247.511 -5.19294 2.42913 0
M  V30 2649 H 245.908 -5.06986 3.21068 0
M  V30 2650 H 246.978 -3.65656 3.18471 0
M  V30 2651 N 248.321 -0.919034 -1.28029 0
M  V30 2652 C 249.269 -0.401753 -2.29104 0
M  V30 2653 C 250.263 0.509354 -1.61561 0
M  V30 2654 O 251.469 0.390014 -1.75724 0
M  V30 2655 H 247.844 -0.111331 -0.743713 0
M  V30 2656 H 249.815 -1.2672 -2.70156 0
M  V30 2657 C 248.564 0.338148 -3.46052 0
M  V30 2658 H 247.887 -0.353732 -3.98232 0
M  V30 2659 H 249.327 0.664653 -4.18758 0
M  V30 2660 C 247.786 1.54798 -2.99231 0
M  V30 2661 O 248.316 2.64696 -3.02157 0
M  V30 2662 N 246.522 1.3968 -2.54829 0
M  V30 2663 H 246.069 0.502698 -2.52647 0
M  V30 2664 H 246.027 2.20755 -2.23863 0
M  V30 2665 N 249.799 1.42003 -0.683588 0
M  V30 2666 C 250.762 2.29191 -0.0198243 0
M  V30 2667 C 251.762 1.43773 0.72013 0
M  V30 2668 O 252.952 1.65061 0.556815 0
M  V30 2669 C 250.084 3.26435 0.982487 0
M  V30 2670 H 251.277 2.8938 -0.787345 0
M  V30 2671 H 248.83 1.49789 -0.446418 0
M  V30 2672 H 249.565 2.71203 1.77819 0
M  V30 2673 H 249.35 3.89449 0.455182 0
M  V30 2674 H 250.84 3.918 1.44508 0
M  V30 2675 N 251.277 0.427512 1.51691 0
M  V30 2676 C 252.507 -0.140986 2.06118 0
M  V30 2677 C 252.915 -1.37854 1.29588 0
M  V30 2678 O 252.258 -1.80411 0.346036 0
M  V30 2679 C 252.32 -0.538276 3.55447 0
M  V30 2680 C 251.984 0.591095 4.53161 0
M  V30 2681 C 252.981 1.46027 4.98971 0
M  V30 2682 C 250.666 0.769028 4.96378 0
M  V30 2683 C 252.66 2.49216 5.8666 0
M  V30 2684 C 250.347 1.80421 5.83859 0
M  V30 2685 C 251.345 2.66417 6.28897 0
M  V30 2686 O 251.033 3.68159 7.14643 0
M  V30 2687 H 250.765 -0.0157455 0.675817 0
M  V30 2688 H 253.319 0.602495 1.96365 0
M  V30 2689 H 251.549 -1.33432 3.6295 0
M  V30 2690 H 253.238 -1.0368 3.92435 0
M  V30 2691 H 254.004 1.33429 4.66285 0
M  V30 2692 H 249.883 0.109273 4.6087 0
M  V30 2693 H 253.427 3.16372 6.21735 0
M  V30 2694 H 249.324 1.93042 6.15959 0
M  V30 2695 H 250.092 3.64622 7.32798 0
M  V30 2696 N 252.755 -1.56801 0.158532 0
M  V30 2697 C 253.703 -2.18638 -0.793729 0
M  V30 2698 C 254.697 -1.14669 -1.24689 0
M  V30 2699 O 255.903 -1.32895 -1.21403 0
M  V30 2700 H 252.278 -0.700226 -0.274204 0
M  V30 2701 H 254.249 -2.97367 -0.248095 0
M  V30 2702 C 252.998 -2.83139 -2.0181 0
M  V30 2703 H 252.321 -3.62863 -1.67841 0
M  V30 2704 H 253.761 -3.29894 -2.66357 0
M  V30 2705 C 252.22 -1.82244 -2.83353 0
M  V30 2706 O 252.75 -1.3 -3.80083 0
M  V30 2707 N 250.956 -1.51288 -2.48114 0
M  V30 2708 H 250.503 -1.93964 -1.69516 0
M  V30 2709 H 250.461 -0.840296 -3.02963 0
M  V30 2710 N 254.233 0.115231 -1.57178 0
M  V30 2711 C 255.649 0.468877 -1.52557 0
M  V30 2712 C 255.849 1.81649 -0.872125 0
M  V30 2713 O 254.905 2.48347 -0.45606 0
M  V30 2714 C 256.218 0.4499 -2.97315 0
M  V30 2715 C 257.766 0.533185 -3.08425 0
M  V30 2716 C 258.241 0.54456 -4.54751 0
M  V30 2717 N 259.732 0.605892 -4.5922 0
M  V30 2718 C 260.467 0.636203 -5.6986 0
M  V30 2719 N 259.963 0.623931 -6.89985 0
M  V30 2720 N 261.756 0.679496 -5.57978 0
M  V30 2721 H 253.907 -0.767712 -1.9804 0
M  V30 2722 H 256.17 -0.283609 -0.904583 0
M  V30 2723 H 255.876 -0.472721 -3.48509 0
M  V30 2724 H 255.75 1.27632 -3.5495 0
M  V30 2725 H 258.137 1.44623 -2.57232 0
M  V30 2726 H 258.218 -0.320995 -2.53778 0
M  V30 2727 H 257.862 -0.364452 -5.06591 0
M  V30 2728 H 257.792 1.41568 -5.07214 0
M  V30 2729 H 260.283 0.621386 -3.72756 0
M  V30 2730 H 260.596 0.649787 -7.70063 0
M  V30 2731 H 258.941 0.591296 -6.9248 0
M  V30 2732 H 262.132 0.686472 -4.63039 0
M  V30 2733 H 262.305 0.69965 -6.44212 0
M  V30 2734 N 255.711 1.52812 0.385517 0
M  V30 2735 C 256.939 1.71907 1.15133 0
M  V30 2736 C 257.354 0.439004 1.83625 0
M  V30 2737 O 256.711 -0.586765 1.7281 0
M  V30 2738 C 256.762 2.87099 2.19673 0
M  V30 2739 O 256.483 4.10151 1.53973 0
M  V30 2740 C 257.984 3.17902 3.08955 0
M  V30 2741 H 255.204 0.575479 0.345057 0
M  V30 2742 H 257.748 1.99476 0.45052 0
M  V30 2743 H 255.903 2.61982 2.85384 0
M  V30 2744 H 256.317 4.74514 2.23465 0
M  V30 2745 H 257.791 4.01959 3.7833 0
M  V30 2746 H 258.268 2.3243 3.72657 0
M  V30 2747 H 258.874 3.44871 2.48885 0
M  V30 2748 N 257.189 -0.644168 1.43834 0
M  V30 2749 C 258.605 -0.960875 1.27434 0
M  V30 2750 C 258.805 -2.00499 0.200618 0
M  V30 2751 O 257.861 -2.49018 -0.417906 0
M  V30 2752 C 259.174 -1.43653 2.64167 0
M  V30 2753 C 260.722 -1.55271 2.71772 0
M  V30 2754 C 261.197 -2.06224 4.08944 0
M  V30 2755 N 262.688 -2.13513 4.11055 0
M  V30 2756 C 263.423 -2.54081 5.14033 0
M  V30 2757 N 262.919 -2.9388 6.27381 0
M  V30 2758 N 264.712 -2.54101 5.01387 0
M  V30 2759 H 256.863 0.0465779 2.12349 0
M  V30 2760 H 259.126 -0.0417638 0.94708 0
M  V30 2761 H 258.832 -0.743706 3.43747 0
M  V30 2762 H 258.706 -2.40993 2.90176 0
M  V30 2763 H 261.093 -2.23653 1.92519 0
M  V30 2764 H 261.174 -0.563395 2.49519 0
M  V30 2765 H 260.818 -1.38441 4.88668 0
M  V30 2766 H 260.748 -3.06003 4.28567 0
M  V30 2767 H 263.239 -1.85493 3.29242 0
M  V30 2768 H 263.552 -3.2361 7.01781 0
M  V30 2769 H 261.897 -2.91663 6.30839 0
M  V30 2770 H 265.088 -2.22391 4.11898 0
M  V30 2771 H 265.261 -2.85394 5.81768 0
M  V30 2772 N 258.668 -1.30515 -0.883378 0
M  V30 2773 C 259.898 -1.22182 -1.66599 0
M  V30 2774 C 260.306 0.217507 -1.87946 0
M  V30 2775 O 259.649 1.1554 -1.42815 0
M  V30 2776 C 259.711 -1.88146 -3.06335 0
M  V30 2777 C 259.375 -3.37476 -3.08154 0
M  V30 2778 C 260.372 -4.33443 -2.87094 0
M  V30 2779 C 258.057 -3.7895 -3.29701 0
M  V30 2780 C 260.051 -5.68858 -2.8754 0
M  V30 2781 C 257.738 -5.14482 -3.29776 0
M  V30 2782 C 258.736 -6.09246 -3.0872 0
M  V30 2783 O 258.424 -7.42302 -3.08615 0
M  V30 2784 H 258.156 -0.423898 -0.52658 0
M  V30 2785 H 260.71 -1.72703 -1.11188 0
M  V30 2786 H 258.94 -1.32157 -3.63416 0
M  V30 2787 H 260.629 -1.7391 -3.66756 0
M  V30 2788 H 261.395 -4.02733 -2.70243 0
M  V30 2789 H 257.274 -3.05631 -3.45124 0
M  V30 2790 H 260.818 -6.428 -2.71024 0
M  V30 2791 H 256.715 -5.44832 -3.46163 0
M  V30 2792 H 257.483 -7.5131 -3.24769 0
M  V30 2793 N 260.146 1.09593 -1.13257 0
M  V30 2794 C 261.056 2.19739 -0.821691 0
M  V30 2795 C 262.072 1.72926 0.19302 0
M  V30 2796 O 263.248 2.01385 0.0244895 0
M  V30 2797 C 260.313 3.45482 -0.290333 0
M  V30 2798 C 259.374 4.06985 -1.36607 0
M  V30 2799 C 258.607 5.26726 -0.859975 0
M  V30 2800 O 258.83 5.69594 0.303082 0
M  V30 2801 O 257.764 5.7931 -1.63351 0
M  V30 2802 H 261.59 2.48781 -1.74189 0
M  V30 2803 H 259.175 1.18496 -0.909894 0
M  V30 2804 H 261.057 4.214 0.000674022 0
M  V30 2805 H 259.732 3.18047 0.602306 0
M  V30 2806 H 258.639 3.32712 -1.71037 0
M  V30 2807 H 259.972 4.38643 -2.23279 0
M  V30 2808 N 261.624 0.925811 1.2754 0
M  V30 2809 C 262.554 0.440748 2.29303 0
M  V30 2810 C 263.535 -0.497971 1.62648 0
M  V30 2811 O 264.72 -0.403126 1.8997 0
M  V30 2812 C 261.85 -0.309048 3.45922 0
M  V30 2813 C 260.804 0.54166 4.24559 0
M  V30 2814 C 260.13 -0.337191 5.33636 0
M  V30 2815 C 261.43 1.80516 4.90114 0
M  V30 2816 H 263.124 1.29121 2.70126 0
M  V30 2817 H 260.67 0.622323 1.29858 0
M  V30 2818 H 262.623 -0.659315 4.1621 0
M  V30 2819 H 261.347 -1.19352 3.04011 0
M  V30 2820 H 260.006 0.874609 3.56014 0
M  V30 2821 H 259.654 -1.22056 4.87966 0
M  V30 2822 H 259.354 0.228497 5.87156 0
M  V30 2823 H 260.878 -0.683072 6.06767 0
M  V30 2824 H 262.292 1.52307 5.52698 0
M  V30 2825 H 260.689 2.3142 5.53683 0
M  V30 2826 H 261.759 2.52581 4.13921 0
M  V30 2827 N 263.102 -1.41638 0.69111 0
M  V30 2828 C 264.518 -1.55435 0.362224 0
M  V30 2829 C 264.718 -1.66754 -1.13117 0
M  V30 2830 O 263.774 -1.64348 -1.91692 0
M  V30 2831 C 265.087 -2.79588 1.10684 0
M  V30 2832 C 266.635 -2.9338 1.09075 0
M  V30 2833 C 267.11 -4.20414 1.81703 0
M  V30 2834 N 268.601 -4.27362 1.7865 0
M  V30 2835 C 269.336 -5.24507 2.31689 0
M  V30 2836 N 268.832 -6.27708 2.93179 0
M  V30 2837 N 270.625 -5.16416 2.2197 0
M  V30 2838 H 262.776 -1.32536 1.65976 0
M  V30 2839 H 265.039 -0.639115 0.700168 0
M  V30 2840 H 264.745 -2.77419 2.16175 0
M  V30 2841 H 264.619 -3.70973 0.682545 0
M  V30 2842 H 267.006 -2.95067 0.0441238 0
M  V30 2843 H 267.087 -2.0318 1.55407 0
M  V30 2844 H 266.731 -4.19488 2.86343 0
M  V30 2845 H 266.661 -5.09578 1.32808 0
M  V30 2846 H 269.152 -3.53415 1.33815 0
M  V30 2847 H 269.465 -6.98217 3.31229 0
M  V30 2848 H 267.81 -6.28223 2.97255 0
M  V30 2849 H 271.001 -4.34716 1.73607 0
M  V30 2850 H 271.174 -5.91958 2.63609 0
M  V30 2851 N 264.58 -0.43555 -1.51462 0
M  V30 2852 C 265.49 0.383001 -2.31453 0
M  V30 2853 C 266.506 1.02931 -1.4029 0
M  V30 2854 O 267.682 1.02507 -1.73362 0
M  V30 2855 C 264.747 1.47043 -3.13973 0
M  V30 2856 C 263.808 0.844433 -4.20913 0
M  V30 2857 C 263.041 1.88004 -4.9949 0
M  V30 2858 O 263.264 3.10199 -4.78678 0
M  V30 2859 O 262.198 1.47157 -5.83634 0
M  V30 2860 H 266.024 -0.269964 -3.02498 0
M  V30 2861 H 263.609 -0.19813 -1.4808 0
M  V30 2862 H 265.491 2.10113 -3.65281 0
M  V30 2863 H 264.166 2.10751 -2.45695 0
M  V30 2864 H 263.073 0.175729 -3.73687 0
M  V30 2865 H 264.406 0.250869 -4.9156 0
M  V30 2866 N 266.058 1.56714 -0.166846 0
M  V30 2867 C 267.305 1.96747 0.479252 0
M  V30 2868 C 267.633 1.05263 1.63554 0
M  V30 2869 O 266.888 0.0858098 1.95512 0
M  V30 2870 C 267.187 3.42889 1.00806 0
M  V30 2871 C 266.853 4.50889 -0.0318574 0
M  V30 2872 C 265.515 4.8015 -0.317675 0
M  V30 2873 C 267.867 5.15949 -0.737956 0
M  V30 2874 C 265.195 5.71772 -1.31506 0
M  V30 2875 C 267.547 6.08647 -1.72429 0
M  V30 2876 C 266.211 6.36277 -2.0176 0
M  V30 2877 H 265.481 0.719949 0.175371 0
M  V30 2878 H 268.128 1.89756 -0.257864 0
M  V30 2879 H 266.433 3.4681 1.82291 0
M  V30 2880 H 268.13 3.71203 1.51689 0
M  V30 2881 H 264.72 4.28128 0.201088 0
M  V30 2882 H 268.904 4.93458 -0.530351 0
M  V30 2883 H 264.16 5.91465 -1.54853 0
M  V30 2884 H 268.334 6.58129 -2.27682 0
M  V30 2885 H 265.961 7.07075 -2.79194 0
M  V30 2886 N 267.536 -0.106894 1.57237 0
M  V30 2887 C 268.466 -1.13148 2.04254 0
M  V30 2888 C 269.447 -1.42476 0.929224 0
M  V30 2889 O 270.632 -1.52709 1.19973 0
M  V30 2890 C 267.762 -2.4545 2.45706 0
M  V30 2891 C 266.716 -2.30558 3.60592 0
M  V30 2892 C 266.042 -3.67931 3.87983 0
M  V30 2893 C 267.342 -1.75597 4.91897 0
M  V30 2894 H 269.036 -0.740374 2.90101 0
M  V30 2895 H 266.582 -0.354696 1.39563 0
M  V30 2896 H 268.535 -3.17389 2.77205 0
M  V30 2897 H 267.259 -2.86475 1.56843 0
M  V30 2898 H 265.918 -1.61067 3.29322 0
M  V30 2899 H 265.566 -4.06462 2.96306 0
M  V30 2900 H 265.266 -3.58817 4.65322 0
M  V30 2901 H 266.79 -4.41356 4.21945 0
M  V30 2902 H 268.204 -2.37364 5.21854 0
M  V30 2903 H 266.601 -1.77272 5.73319 0
M  V30 2904 H 267.671 -0.714451 4.79608 0
M  V30 2905 N 269.014 -1.53014 -0.377408 0
M  V30 2906 C 269.924 -1.81557 -1.48574 0
M  V30 2907 C 270.94 -0.703102 -1.59162 0
M  V30 2908 O 272.116 -0.99192 -1.75279 0
M  V30 2909 C 269.181 -1.9889 -2.83978 0
M  V30 2910 C 268.242 -3.22801 -2.83016 0
M  V30 2911 C 267.475 -3.39298 -4.11962 0
M  V30 2912 O 267.698 -2.60345 -5.0752 0
M  V30 2913 O 266.632 -4.32604 -4.18494 0
M  V30 2914 H 270.458 -2.75695 -1.27382 0
M  V30 2915 H 268.043 -1.38248 -0.566373 0
M  V30 2916 H 269.925 -2.11931 -3.6423 0
M  V30 2917 H 268.6 -1.07942 -3.05172 0
M  V30 2918 H 267.507 -3.15193 -2.01505 0
M  V30 2919 H 268.84 -4.13632 -2.66775 0
M  V30 2920 N 270.492 0.636531 -1.44174 0
M  V30 2921 C 271.769 1.39463 -1.37148 0
M  V30 2922 C 272.149 2.11082 -0.027507 0
M  V30 2923 O 271.497 2.05954 0.989716 0
M  V30 2924 C 271.707 2.36552 -2.56601 0
M  V30 2925 C 273.055 3.00048 -3.00427 0
M  V30 2926 O 274.079 2.46878 -2.56767 0
M  V30 2927 O 272.938 3.96488 -3.76111 0
M  V30 2928 H 270.032 0.623903 -0.542839 0
M  V30 2929 H 272.578 0.662039 -1.56253 0
M  V30 2930 H 271.35 1.82692 -3.46034 0
M  V30 2931 H 270.973 3.17236 -2.39681 0
M  V30 2932 N 271.97 1.30982 0.876444 0
M  V30 2933 C 273.198 1.23242 1.6619 0
M  V30 2934 C 273.613 -0.203345 1.87702 0
M  V30 2935 O 272.97 -1.13317 1.43057 0
M  V30 2936 C 273.021 1.96623 3.03351 0
M  V30 2937 O 272.742 3.34594 2.82804 0
M  V30 2938 C 274.243 1.95644 3.97792 0
M  V30 2939 H 271.463 0.426126 0.518322 0
M  V30 2940 H 274.007 1.7275 1.09442 0
M  V30 2941 H 272.162 1.50892 3.56806 0
M  V30 2942 H 272.576 3.71873 3.69879 0
M  V30 2943 H 274.05 2.51511 4.91372 0
M  V30 2944 H 274.527 0.937395 4.2908 0
M  V30 2945 H 275.133 2.41225 3.50272 0
M  V30 2946 N 273.449 -1.08991 1.13837 0
M  V30 2947 C 274.689 -1.82867 0.913183 0
M  V30 2948 C 275.053 -1.83936 -0.550604 0
M  V30 2949 O 276.254 -2.53515 -0.893515 0
M  V30 2950 C 274.525 -3.24843 1.49036 0
M  V30 2951 S 276.084 -4.15669 1.40588 0
M  V30 2952 H 272.902 -0.630278 0.329046 0
M  V30 2953 H 275.504 -1.31049 1.45073 0
M  V30 2954 H 274.208 -3.21644 2.54899 0
M  V30 2955 H 273.739 -3.81734 0.950947 0
M  V30 2956 H 275.754 -4.94686 0.387353 0
M  V30 2957 N 274.927 -0.932562 -1.27047 0
M  V30 2958 C 276.173 -0.576412 -1.94436 0
M  V30 2959 C 276.506 0.880891 -1.73072 0
M  V30 2960 O 275.781 1.62905 -1.06264 0
M  V30 2961 C 276.064 -0.909031 -3.48437 0
M  V30 2962 C 275.917 -2.42044 -3.79123 0
M  V30 2963 C 277.236 -0.418341 -4.38107 0
M  V30 2964 H 274.355 -0.210888 -0.706184 0
M  V30 2965 H 276.997 -1.16522 -1.50075 0
M  V30 2966 H 275.147 -0.407947 -3.86352 0
M  V30 2967 H 276.819 -2.99359 -3.50973 0
M  V30 2968 H 275.062 -2.86758 -3.25503 0
M  V30 2969 H 275.733 -2.6037 -4.86736 0
M  V30 2970 H 278.209 -0.847856 -4.0737 0
M  V30 2971 H 277.085 -0.679981 -5.44672 0
M  V30 2972 H 277.346 0.681642 -4.36814 0
M  V30 2973 N 276.405 1.4127 -0.698611 0
M  V30 2974 C 277.337 2.292 0.00399731 0
M  V30 2975 C 278.35 1.44944 0.741279 0
M  V30 2976 O 279.539 1.68416 0.591477 0
M  V30 2977 C 276.639 3.22875 1.02979 0
M  V30 2978 C 275.812 4.35904 0.36151 0
M  V30 2979 C 274.871 5.10134 1.29033 0
M  V30 2980 O 273.897 5.63809 0.781562 0
M  V30 2981 N 275.099 5.17885 2.6225 0
M  V30 2982 H 277.864 2.9014 -0.750921 0
M  V30 2983 H 275.425 1.52455 -0.544882 0
M  V30 2984 H 277.417 3.69404 1.65296 0
M  V30 2985 H 275.987 2.63221 1.68622 0
M  V30 2986 H 275.207 3.91719 -0.441584 0
M  V30 2987 H 276.495 5.08696 -0.103055 0
M  V30 2988 H 275.893 4.7573 3.061 0
M  V30 2989 H 274.45 5.6798 3.19754 0
M  V30 2990 N 277.883 0.443576 1.51229 0
M  V30 2991 C 279.113 -0.119117 2.06256 0
M  V30 2992 C 279.521 -1.36471 1.31043 0
M  V30 2993 O 278.864 -1.80034 0.365151 0
M  V30 2994 C 278.926 -0.500546 3.55998 0
M  V30 2995 C 278.59 0.639125 4.52509 0
M  V30 2996 C 279.587 1.51311 4.97394 0
M  V30 2997 C 277.272 0.821632 4.95535 0
M  V30 2998 C 279.266 2.55425 5.83984 0
M  V30 2999 C 276.953 1.86603 5.81913 0
M  V30 3000 C 277.951 2.73072 6.26036 0
M  V30 3001 O 277.639 3.75718 7.10698 0
M  V30 3002 H 277.371 -0.00857665 0.675946 0
M  V30 3003 H 279.925 0.623288 1.95715 0
M  V30 3004 H 278.155 -1.29575 3.64345 0
M  V30 3005 H 279.844 -0.995116 3.93513 0
M  V30 3006 H 280.61 1.38367 4.64844 0
M  V30 3007 H 276.489 0.158149 4.60729 0
M  V30 3008 H 280.033 3.22949 6.18344 0
M  V30 3009 H 275.93 1.99564 6.13876 0
M  V30 3010 H 276.698 3.72374 7.2889 0
M  V30 3011 N 279.361 -1.56624 0.175154 0
M  V30 3012 C 280.607 -1.9729 -0.469506 0
M  V30 3013 C 280.94 -1.06128 -1.62636 0
M  V30 3014 O 280.215 -0.109183 -1.94193 0
M  V30 3015 C 280.498 -3.47375 -0.948804 0
M  V30 3016 C 280.351 -4.49317 0.208491 0
M  V30 3017 C 281.67 -4.00652 -1.82116 0
M  V30 3018 H 278.789 -0.717317 -0.16919 0
M  V30 3019 H 281.431 -1.88184 0.262062 0
M  V30 3020 H 279.581 -3.55267 -1.57219 0
M  V30 3021 H 281.253 -4.53482 0.845682 0
M  V30 3022 H 279.496 -4.25121 0.863395 0
M  V30 3023 H 280.167 -5.51741 -0.169059 0
M  V30 3024 H 282.643 -3.95416 -1.2956 0
M  V30 3025 H 281.519 -5.06075 -2.12554 0
M  V30 3026 H 281.78 -3.44699 -2.7683 0
M  V30 3027 N 280.839 0.0985539 -1.57292 0
M  V30 3028 C 281.771 1.14595 -1.98496 0
M  V30 3029 C 282.784 1.36512 -0.887031 0
M  V30 3030 O 283.973 1.35225 -1.16518 0
M  V30 3031 C 281.073 2.50216 -2.28572 0
M  V30 3032 C 280.246 2.48624 -3.59868 0
M  V30 3033 C 279.305 3.66146 -3.7792 0
M  V30 3034 O 278.331 3.48795 -4.49812 0
M  V30 3035 N 279.533 4.85496 -3.18235 0
M  V30 3036 H 282.298 0.795277 -2.88956 0
M  V30 3037 H 279.859 0.287579 -1.59325 0
M  V30 3038 H 281.851 3.27432 -2.37845 0
M  V30 3039 H 280.421 2.77387 -1.44136 0
M  V30 3040 H 279.641 1.56978 -3.61596 0
M  V30 3041 H 280.929 2.44635 -4.46129 0
M  V30 3042 H 280.327 5.02497 -2.59833 0
M  V30 3043 H 278.884 5.60317 -3.32999 0
M  V30 3044 N 282.317 1.53212 0.369288 0
M  V30 3045 C 283.264 1.79388 1.45219 0
M  V30 3046 C 284.234 0.638059 1.53356 0
M  V30 3047 O 285.419 0.879852 1.69302 0
M  V30 3048 C 282.559 1.98623 2.82211 0
M  V30 3049 C 281.672 3.26337 2.8307 0
M  V30 3050 C 280.807 3.35779 4.11614 0
M  V30 3051 C 279.846 4.5754 4.06601 0
M  V30 3052 N 278.983 4.64155 5.26787 0
M  V30 3053 H 283.823 2.71794 1.22198 0
M  V30 3054 H 281.36 1.34642 0.592444 0
M  V30 3055 H 283.318 2.07761 3.61789 0
M  V30 3056 H 281.948 1.09558 3.03639 0
M  V30 3057 H 281 3.26171 1.95747 0
M  V30 3058 H 282.312 4.15988 2.75237 0
M  V30 3059 H 281.466 3.44208 4.99606 0
M  V30 3060 H 280.205 2.44137 4.22195 0
M  V30 3061 H 279.21 4.49215 3.16996 0
M  V30 3062 H 280.435 5.50519 3.97625 0
M  V30 3063 H 278.381 3.75413 5.3796 0
M  V30 3064 H 278.298 5.47706 5.21109 0
M  V30 3065 H 279.566 4.76863 6.16621 0
M  V30 3066 N 283.795 -0.628877 1.44509 0
M  V30 3067 C 284.745 -1.7345 1.47983 0
M  V30 3068 C 285.729 -1.5715 0.345373 0
M  V30 3069 O 286.921 -1.66848 0.590829 0
M  V30 3070 C 284.05 -3.12143 1.42904 0
M  V30 3071 C 283.136 -3.33906 2.61472 0
M  V30 3072 N 283.527 -3.26024 3.86706 0
M  V30 3073 C 281.825 -3.64709 2.56716 0
M  V30 3074 C 282.526 -3.48536 4.65722 0
M  V30 3075 N 281.502 -3.71517 3.96832 0
M  V30 3076 H 285.304 -1.65818 2.42655 0
M  V30 3077 H 282.818 -0.831419 1.39503 0
M  V30 3078 H 284.815 -3.91433 1.43476 0
M  V30 3079 H 283.475 -3.2094 0.492717 0
M  V30 3080 H 284.486 -3.04893 4.18641 0
M  V30 3081 H 281.163 -3.80473 1.71891 0
M  V30 3082 H 282.553 -3.48016 5.74747 0
M  V30 3083 N 285.273 -1.31445 -0.869486 0
M  V30 3084 C 286.522 -1.20517 -1.61736 0
M  V30 3085 C 286.835 0.235341 -1.94179 0
M  V30 3086 O 288.041 0.466312 -2.67465 0
M  V30 3087 C 286.497 -2.10982 -2.91573 0
M  V30 3088 C 286.105 -3.60032 -2.66611 0
M  V30 3089 C 287.849 -2.08856 -3.69567 0
M  V30 3090 C 285.756 -4.42503 -3.92358 0
M  V30 3091 H 284.686 -0.447493 -0.606849 0
M  V30 3092 H 287.337 -1.56303 -0.96133 0
M  V30 3093 H 285.719 -1.68095 -3.58553 0
M  V30 3094 H 286.893 -4.11167 -2.08035 0
M  V30 3095 H 285.208 -3.64139 -2.0197 0
M  V30 3096 H 287.805 -2.67716 -4.62852 0
M  V30 3097 H 288.148 -1.07582 -4.02159 0
M  V30 3098 H 288.681 -2.49945 -3.09471 0
M  V30 3099 H 285.42 -5.44533 -3.64916 0
M  V30 3100 H 284.94 -3.96125 -4.50383 0
M  V30 3101 H 286.619 -4.54741 -4.60238 0
M  V30 3102 N 286.751 1.08385 -1.14413 0
M  V30 3103 C 287.976 1.85057 -0.936413 0
M  V30 3104 C 288.401 1.81055 0.509971 0
M  V30 3105 O 287.759 1.1958 1.36273 0
M  V30 3106 C 287.807 3.30505 -1.44217 0
M  V30 3107 O 286.911 4.07491 -0.634409 0
M  V30 3108 H 286.252 0.573425 -0.334784 0
M  V30 3109 H 288.782 1.36799 -1.52142 0
M  V30 3110 H 288.792 3.81348 -1.45043 0
M  V30 3111 H 287.467 3.32734 -2.49522 0
M  V30 3112 H 286.044 3.66368 -0.694902 0
M  V30 3113 N 288.23 0.939286 1.26551 0
M  V30 3114 C 289.193 0.451987 2.24699 0
M  V30 3115 C 290.193 -0.435869 1.5478 0
M  V30 3116 O 291.383 -0.235314 1.72603 0
M  V30 3117 C 288.515 -0.348801 3.39111 0
M  V30 3118 H 289.708 1.3193 2.69322 0
M  V30 3119 H 287.261 0.721072 1.38673 0
M  V30 3120 H 287.996 -1.23444 2.99887 0
M  V30 3121 H 287.781 0.287945 3.91041 0
M  V30 3122 H 289.271 -0.679726 4.12031 0
M  V30 3123 N 289.708 -1.40897 0.706093 0
M  V30 3124 C 290.618 -2.3455 0.0482286 0
M  V30 3125 C 291.634 -1.56796 -0.754396 0
M  V30 3126 O 292.81 -1.89228 -0.689538 0
M  V30 3127 C 289.875 -3.35625 -0.869303 0
M  V30 3128 C 288.936 -4.29261 -0.0576994 0
M  V30 3129 C 288.169 -5.25508 -0.931531 0
M  V30 3130 O 288.392 -5.27472 -2.17092 0
M  V30 3131 O 287.326 -6.00727 -0.375587 0
M  V30 3132 H 291.152 -2.92407 0.820476 0
M  V30 3133 H 288.737 -1.4193 0.4665 0
M  V30 3134 H 290.619 -3.97635 -1.39514 0
M  V30 3135 H 289.294 -2.80196 -1.62086 0
M  V30 3136 H 288.201 -3.70566 0.512988 0
M  V30 3137 H 289.534 -4.87817 0.655426 0
M  V30 3138 N 291.186 -0.45159 -1.50991 0
M  V30 3139 C 292.134 0.366864 -2.29689 0
M  V30 3140 C 293.128 1.00809 -1.36139 0
M  V30 3141 O 294.334 0.941427 -1.53418 0
M  V30 3142 H 290.709 0.137133 -0.739391 0
M  V30 3143 H 292.68 -0.317538 -2.96706 0
M  V30 3144 C 291.429 1.44751 -3.16137 0
M  V30 3145 H 290.752 0.963473 -3.88017 0
M  V30 3146 H 292.192 1.99315 -3.74232 0
M  V30 3147 C 290.651 2.43869 -2.32442 0
M  V30 3148 O 291.181 3.4872 -1.99392 0
M  V30 3149 N 289.387 2.15105 -1.95392 0
M  V30 3150 H 288.934 1.29866 -2.22469 0
M  V30 3151 H 288.892 2.81661 -1.39693 0
M  V30 3152 N 292.664 1.56529 -0.183458 0
M  V30 3153 C 293.892 2.01623 0.464285 0
M  V30 3154 C 294.307 1.06366 1.55986 0
M  V30 3155 O 293.664 0.0665398 1.82379 0
M  V30 3156 C 293.715 3.46475 1.03139 0
M  V30 3157 O 293.436 4.38095 -0.0204675 0
M  V30 3158 C 294.937 4.0703 1.75617 0
M  V30 3159 H 292.157 0.660596 0.117704 0
M  V30 3160 H 294.701 2.02451 -0.288751 0
M  V30 3161 H 292.856 3.46383 1.73486 0
M  V30 3162 H 293.27 5.22973 0.399952 0
M  V30 3163 H 294.744 5.10271 2.10542 0
M  V30 3164 H 295.221 3.49819 2.65563 0
M  V30 3165 H 295.827 4.1086 1.09882 0
M  V30 3166 N 294.142 -0.090211 1.57342 0
M  V30 3167 C 295.089 -1.10909 2.02405 0
M  V30 3168 C 296.059 -1.39523 0.901252 0
M  V30 3169 O 297.244 -1.50903 1.1676 0
M  V30 3170 C 294.384 -2.42277 2.45755 0
M  V30 3171 C 293.497 -2.20352 3.71576 0
M  V30 3172 C 292.632 -3.45154 4.03785 0
M  V30 3173 C 291.671 -3.18512 5.22701 0
M  V30 3174 N 290.808 -4.35593 5.50639 0
M  V30 3175 H 295.648 -0.71782 2.89225 0
M  V30 3176 H 293.185 -0.342901 1.43048 0
M  V30 3177 H 295.143 -3.18951 2.68935 0
M  V30 3178 H 293.773 -2.79242 1.61938 0
M  V30 3179 H 292.825 -1.34458 3.55844 0
M  V30 3180 H 294.137 -1.96661 4.58395 0
M  V30 3181 H 293.291 -4.30233 4.27767 0
M  V30 3182 H 292.03 -3.71904 3.15498 0
M  V30 3183 H 291.035 -2.31827 4.98534 0
M  V30 3184 H 292.26 -2.93103 6.12591 0
M  V30 3185 H 290.206 -4.6241 4.6531 0
M  V30 3186 H 290.123 -4.1511 6.31838 0
M  V30 3187 H 291.391 -5.21723 5.7916 0
M  V30 3188 N 295.62 -1.53406 -0.361157 0
M  V30 3189 C 296.868 -1.69467 -1.10115 0
M  V30 3190 C 297.189 -0.451352 -1.89705 0
M  V30 3191 O 296.459 0.534636 -1.88463 0
M  V30 3192 H 295.039 -0.624749 -0.409508 0
M  V30 3193 H 297.701 -1.90609 -0.406699 0
M  V30 3194 H 296.797 -2.55774 -1.78847 0
M  V30 3195 N 297.098 0.621204 -1.44841 0
M  V30 3196 C 298.323 1.41244 -1.51871 0
M  V30 3197 C 298.748 1.87519 -0.147764 0
M  V30 3198 O 298.106 1.59334 0.865 0
M  V30 3199 C 298.154 2.60221 -2.49634 0
M  V30 3200 O 297.258 3.60395 -2.00473 0
M  V30 3201 H 296.599 0.42223 -0.512463 0
M  V30 3202 H 299.129 0.757305 -1.90069 0
M  V30 3203 H 299.139 3.0764 -2.67996 0
M  V30 3204 H 297.814 2.25887 -3.4921 0
M  V30 3205 H 296.391 3.19717 -1.91925 0
M  V30 3206 N 298.576 1.31904 0.862503 0
M  V30 3207 C 299.508 1.16005 1.97675 0
M  V30 3208 C 300.521 0.0971234 1.6251 0
M  V30 3209 O 301.71 0.345337 1.75128 0
M  V30 3210 C 298.81 0.751791 3.30456 0
M  V30 3211 C 297.983 1.90133 3.93914 0
M  V30 3212 C 297.042 1.4779 5.05019 0
M  V30 3213 O 296.068 2.18872 5.25437 0
M  V30 3214 N 297.27 0.369491 5.79323 0
M  V30 3215 H 300.035 2.11982 2.11857 0
M  V30 3216 H 297.596 1.24337 1.03691 0
M  V30 3217 H 299.588 0.451084 4.02178 0
M  V30 3218 H 298.158 -0.116593 3.12382 0
M  V30 3219 H 297.378 2.36896 3.15078 0
M  V30 3220 H 298.666 2.67111 4.33047 0
M  V30 3221 H 298.064 -0.222299 5.65263 0
M  V30 3222 H 296.621 0.128354 6.51674 0
M  V30 3223 N 300.054 -1.07777 1.14986 0
M  V30 3224 C 301.282 -1.84018 0.945773 0
M  V30 3225 C 301.697 -1.81897 -0.505863 0
M  V30 3226 O 301.054 -1.22726 -1.35072 0
M  V30 3227 C 301.105 -3.31287 1.44677 0
M  V30 3228 O 300.826 -3.33449 2.84154 0
M  V30 3229 C 302.327 -4.24311 1.28355 0
M  V30 3230 H 299.547 -0.580716 0.336169 0
M  V30 3231 H 302.091 -1.36077 1.52654 0
M  V30 3232 H 300.246 -3.76594 0.908625 0
M  V30 3233 H 300.66 -4.25427 3.06777 0
M  V30 3234 H 302.134 -5.2573 1.68261 0
M  V30 3235 H 302.611 -4.38612 0.227184 0
M  V30 3236 H 303.217 -3.84836 1.81056 0
M  V30 3237 N 301.532 -0.945985 -1.26051 0
M  V30 3238 C 302.757 -0.612525 -1.98149 0
M  V30 3239 C 303.182 0.806623 -1.69927 0
M  V30 3240 O 302.54 1.54411 -0.950108 0
M  V30 3241 C 302.588 -0.866981 -3.50023 0
M  V30 3242 O 301.692 0.0585333 -4.12358 0
M  V30 3243 H 301.033 -0.23379 -0.621481 0
M  V30 3244 H 303.563 -1.27023 -1.60395 0
M  V30 3245 H 303.573 -0.789792 -4.00283 0
M  V30 3246 H 302.248 -1.90135 -3.69894 0
M  V30 3247 H 300.825 -0.0701241 -3.72834 0
M  V30 3248 N 303.011 1.40521 -0.713556 0
M  V30 3249 C 304.427 1.54839 -0.386907 0
M  V30 3250 C 304.627 1.68532 1.1045 0
M  V30 3251 O 303.683 1.67377 1.89053 0
M  V30 3252 C 304.996 2.77792 -1.15118 0
M  V30 3253 C 306.544 2.91607 -1.13729 0
M  V30 3254 C 307.019 4.1747 -1.88368 0
M  V30 3255 N 308.51 4.24466 -1.85427 0
M  V30 3256 C 309.245 5.20755 -2.40004 0
M  V30 3257 N 308.741 6.22965 -3.03129 0
M  V30 3258 N 310.534 5.1282 -2.30158 0
M  V30 3259 H 302.685 1.29879 -1.68063 0
M  V30 3260 H 304.948 0.627896 -0.710247 0
M  V30 3261 H 304.654 2.73944 -2.20561 0
M  V30 3262 H 304.528 3.6984 -0.741477 0
M  V30 3263 H 306.915 2.94959 -0.0910608 0
M  V30 3264 H 306.996 2.00682 -1.5862 0
M  V30 3265 H 306.64 4.1488 -2.9298 0
M  V30 3266 H 306.57 5.074 -1.40898 0
M  V30 3267 H 309.061 3.51241 -1.3942 0
M  V30 3268 H 309.374 6.92859 -3.42295 0
M  V30 3269 H 307.719 6.23415 -3.07212 0
M  V30 3270 H 310.91 4.31899 -1.80501 0
M  V30 3271 H 311.083 5.87689 -2.72993 0
M  V30 3272 N 304.489 0.459591 1.5075 0
M  V30 3273 C 305.714 -0.0996819 2.0716 0
M  V30 3274 C 306.139 -1.33761 1.32249 0
M  V30 3275 O 305.497 -1.77551 0.366786 0
M  V30 3276 C 305.545 -0.378226 3.58611 0
M  V30 3277 O 304.649 -1.46081 3.85661 0
M  V30 3278 H 303.99 0.00791392 0.663953 0
M  V30 3279 H 306.52 0.647329 1.9409 0
M  V30 3280 H 306.53 -0.622135 4.03229 0
M  V30 3281 H 305.205 0.526439 4.12555 0
M  V30 3282 H 303.782 -1.20511 3.5289 0
M  V30 3283 N 305.967 -1.56429 0.191757 0
M  V30 3284 C 307.197 -2.01574 -0.452928 0
M  V30 3285 C 307.605 -1.07107 -1.55964 0
M  V30 3286 O 306.948 -0.067534 -1.83576 0
M  V30 3287 C 307.01 -3.43121 -1.07278 0
M  V30 3288 C 306.674 -4.56879 -0.105214 0
M  V30 3289 C 307.671 -5.15379 0.684149 0
M  V30 3290 C 305.356 -5.023 0.00489824 0
M  V30 3291 C 307.35 -6.17746 1.57062 0
M  V30 3292 C 305.037 -6.04511 0.894935 0
M  V30 3293 C 306.035 -6.62108 1.67637 0
M  V30 3294 O 305.723 -7.62335 2.55149 0
M  V30 3295 H 305.455 -0.665554 -0.118379 0
M  V30 3296 H 308.009 -2.03245 0.296737 0
M  V30 3297 H 306.239 -3.38425 -1.87097 0
M  V30 3298 H 307.928 -3.72093 -1.62177 0
M  V30 3299 H 308.694 -4.81157 0.609365 0
M  V30 3300 H 304.573 -4.57168 -0.593156 0
M  V30 3301 H 308.117 -6.6263 2.181 0
M  V30 3302 H 304.014 -6.38157 0.970847 0
M  V30 3303 H 304.782 -7.79741 2.48892 0
M  V30 3304 N 307.445 0.0818655 -1.57387 0
M  V30 3305 C 308.673 0.796108 -1.9097 0
M  V30 3306 C 309.088 1.71626 -0.786757 0
M  V30 3307 O 308.445 1.80908 0.240513 0
M  V30 3308 C 308.496 1.59829 -3.24248 0
M  V30 3309 O 308.217 0.715131 -4.32224 0
M  V30 3310 C 309.718 2.41442 -3.7178 0
M  V30 3311 H 306.938 0.22691 -0.631469 0
M  V30 3312 H 309.482 0.0551439 -2.04426 0
M  V30 3313 H 307.637 2.29163 -3.12351 0
M  V30 3314 H 308.051 1.27205 -5.08841 0
M  V30 3315 H 309.525 2.932 -4.67694 0
M  V30 3316 H 310.002 3.2051 -3.00283 0
M  V30 3317 H 310.608 1.77283 -3.86589 0
M  V30 3318 N 308.923 1.53595 0.353017 0
M  V30 3319 C 310.148 1.7462 1.11904 0
M  V30 3320 C 310.573 0.479721 1.8188 0
M  V30 3321 O 309.931 -0.567066 1.72204 0
M  V30 3322 C 309.979 2.92029 2.11545 0
M  V30 3323 O 309.083 2.61516 3.18878 0
M  V30 3324 H 308.424 0.579531 0.324099 0
M  V30 3325 H 310.954 2.00525 0.406301 0
M  V30 3326 H 310.964 3.18551 2.5493 0
M  V30 3327 H 309.639 3.83888 1.60008 0
M  V30 3328 H 308.216 2.45852 2.80377 0
M  V30 3329 N 310.401 -0.613514 1.45168 0
M  V30 3330 C 311.331 -1.7354 1.56225 0
M  V30 3331 C 312.312 -1.64981 0.41414 0
M  V30 3332 O 313.497 -1.83472 0.636526 0
M  V30 3333 C 310.627 -3.12128 1.52295 0
M  V30 3334 C 309.581 -3.35491 2.65762 0
M  V30 3335 C 308.907 -4.74291 2.46885 0
M  V30 3336 C 310.207 -3.26325 4.0781 0
M  V30 3337 H 311.901 -1.64543 2.50132 0
M  V30 3338 H 309.447 -0.790185 1.20383 0
M  V30 3339 H 311.4 -3.90404 1.58628 0
M  V30 3340 H 310.124 -3.2195 0.549139 0
M  V30 3341 H 308.783 -2.59603 2.58847 0
M  V30 3342 H 308.431 -4.80839 1.47657 0
M  V30 3343 H 308.131 -4.9088 3.22972 0
M  V30 3344 H 309.655 -5.54775 2.55063 0
M  V30 3345 H 311.069 -3.94483 4.16 0
M  V30 3346 H 309.466 -3.54445 4.8424 0
M  V30 3347 H 310.536 -2.23855 4.30136 0
M  V30 3348 N 311.879 -1.3236 -0.855495 0
M  V30 3349 C 313.125 -1.23054 -1.612 0
M  V30 3350 C 313.458 0.207404 -1.93089 0
M  V30 3351 O 312.733 1.14432 -1.57275 0
M  V30 3352 C 313.016 -2.08937 -2.93287 0
M  V30 3353 C 312.869 -3.61105 -2.68185 0
M  V30 3354 C 314.188 -1.94986 -3.94549 0
M  V30 3355 H 311.307 -0.448364 -0.584926 0
M  V30 3356 H 313.949 -1.62297 -0.987917 0
M  V30 3357 H 312.099 -1.75599 -3.46551 0
M  V30 3358 H 313.771 -4.04652 -2.21483 0
M  V30 3359 H 312.014 -3.83813 -2.02164 0
M  V30 3360 H 312.685 -4.16522 -3.62234 0
M  V30 3361 H 315.161 -2.24189 -3.5054 0
M  V30 3362 H 314.037 -2.57356 -4.84829 0
M  V30 3363 H 314.298 -0.917263 -4.3248 0
M  V30 3364 N 313.357 1.07166 -1.15556 0
M  V30 3365 C 314.287 2.16403 -0.877046 0
M  V30 3366 C 315.268 1.69217 0.173111 0
M  V30 3367 O 316.453 1.94181 0.027084 0
M  V30 3368 C 313.583 3.45349 -0.367632 0
M  V30 3369 C 312.537 4.05995 -1.35468 0
M  V30 3370 C 311.863 5.30045 -0.704038 0
M  V30 3371 C 313.163 4.45804 -2.72132 0
M  V30 3372 H 314.857 2.39959 -1.79053 0
M  V30 3373 H 312.403 1.15325 -0.862331 0
M  V30 3374 H 314.356 4.21095 -0.160317 0
M  V30 3375 H 313.08 3.21385 0.581326 0
M  V30 3376 H 311.739 3.32296 -1.54839 0
M  V30 3377 H 311.387 5.02373 0.251128 0
M  V30 3378 H 311.087 5.71579 -1.36277 0
M  V30 3379 H 312.611 6.08495 -0.50654 0
M  V30 3380 H 314.025 5.12671 -2.56595 0
M  V30 3381 H 312.422 4.98296 -3.34397 0
M  V30 3382 H 313.492 3.57083 -3.28054 0
M  V30 3383 N 314.835 0.952656 1.25548 0
M  V30 3384 C 316.083 0.605176 1.92826 0
M  V30 3385 C 316.404 -0.860261 1.74999 0
M  V30 3386 O 315.674 -1.6125 1.11244 0
M  V30 3387 H 314.254 0.220832 0.713612 0
M  V30 3388 H 316.916 1.21047 1.52754 0
M  V30 3389 H 316.012 0.832798 3.00784 0
M  V30 3390 N 316.313 -1.40141 0.720998 0
M  V30 3391 C 317.559 -2.01084 0.263231 0
M  V30 3392 C 317.892 -1.57052 -1.14229 0
M  V30 3393 O 317.167 -0.793027 -1.77599 0
M  V30 3394 C 317.45 -3.58401 0.349344 0
M  V30 3395 C 317.303 -4.12491 1.79363 0
M  V30 3396 C 318.622 -4.39231 -0.276351 0
M  V30 3397 H 315.741 -0.730572 0.0971228 0
M  V30 3398 H 318.383 -1.66543 0.914518 0
M  V30 3399 H 316.533 -3.87958 -0.205165 0
M  V30 3400 H 318.205 -3.93711 2.40394 0
M  V30 3401 H 316.448 -3.66576 2.31958 0
M  V30 3402 H 317.119 -5.21646 1.80524 0
M  V30 3403 H 319.595 -4.15637 0.196184 0
M  V30 3404 H 318.471 -5.48586 -0.185681 0
M  V30 3405 H 318.732 -4.20643 -1.36059 0
M  V30 3406 N 317.792 -0.46758 -1.50504 0
M  V30 3407 C 318.722 0.318381 -2.31319 0
M  V30 3408 C 319.703 0.993564 -1.38066 0
M  V30 3409 O 320.888 0.991411 -1.66987 0
M  V30 3410 C 318.018 1.40275 -3.17711 0
M  V30 3411 C 316.972 0.849373 -4.19487 0
M  V30 3412 C 316.298 2.03177 -4.94594 0
M  V30 3413 C 317.598 -0.136942 -5.2212 0
M  V30 3414 H 319.292 -0.356106 -2.97275 0
M  V30 3415 H 316.838 -0.172703 -1.42961 0
M  V30 3416 H 318.791 1.96004 -3.73042 0
M  V30 3417 H 317.515 2.10596 -2.49634 0
M  V30 3418 H 316.174 0.314076 -3.65252 0
M  V30 3419 H 315.822 2.72187 -4.22993 0
M  V30 3420 H 315.522 1.66774 -5.63436 0
M  V30 3421 H 317.046 2.59403 -5.52759 0
M  V30 3422 H 318.46 0.331056 -5.72343 0
M  V30 3423 H 316.857 -0.41507 -5.98663 0
M  V30 3424 H 317.927 -1.06398 -4.73083 0
M  V30 3425 N 319.27 1.56325 -0.20005 0
M  V30 3426 C 320.516 1.98012 0.438059 0
M  V30 3427 C 320.849 1.08702 1.60927 0
M  V30 3428 O 320.124 0.140064 1.93995 0
M  V30 3429 C 320.407 3.48841 0.893419 0
M  V30 3430 C 320.26 4.48928 -0.279947 0
M  V30 3431 C 321.579 4.03498 1.75719 0
M  V30 3432 H 318.698 0.719918 0.157757 0
M  V30 3433 H 321.34 1.87743 -0.291968 0
M  V30 3434 H 319.49 3.57723 1.51547 0
M  V30 3435 H 321.162 4.52079 -0.91772 0
M  V30 3436 H 319.405 4.23694 -0.930919 0
M  V30 3437 H 320.076 5.5194 0.0812601 0
M  V30 3438 H 322.552 3.97427 1.23253 0
M  V30 3439 H 321.428 5.09393 2.04476 0
M  V30 3440 H 321.689 3.4906 2.71311 0
M  V30 3441 N 320.748 -0.0735177 1.57428 0
M  V30 3442 C 321.996 -0.771472 1.86796 0
M  V30 3443 C 322.317 -1.78201 0.791804 0
M  V30 3444 O 321.587 -1.95074 -0.179718 0
M  V30 3445 H 320.167 -0.28791 0.689287 0
M  V30 3446 H 322.829 -0.0500161 1.94836 0
M  V30 3447 H 321.925 -1.28874 2.8425 0
M  V30 3448 N 322.226 -1.5378 -0.344866 0
M  V30 3449 C 323.451 -1.75211 -1.10977 0
M  V30 3450 C 323.876 -0.48936 -1.81623 0
M  V30 3451 O 323.234 0.557925 -1.72502 0
M  V30 3452 C 323.282 -2.93147 -2.09993 0
M  V30 3453 O 322.386 -2.63203 -3.17487 0
M  V30 3454 H 321.727 -0.581241 -0.321021 0
M  V30 3455 H 324.257 -2.00738 -0.395661 0
M  V30 3456 H 324.267 -3.19898 -2.53237 0
M  V30 3457 H 322.942 -3.84731 -1.5797 0
M  V30 3458 H 321.519 -2.47336 -2.79069 0
M  V30 3459 N 323.704 0.605807 -1.45491 0
M  V30 3460 C 324.951 1.36476 -1.49601 0
M  V30 3461 C 325.279 1.94007 -0.138452 0
M  V30 3462 O 324.534 1.75638 0.863114 0
M  V30 3463 C 324.833 2.53012 -2.52428 0
M  V30 3464 C 324.499 2.13617 -3.97087 0
M  V30 3465 C 323.161 2.02587 -4.36477 0
M  V30 3466 C 325.513 1.82899 -4.88055 0
M  V30 3467 C 322.841 1.59064 -5.64726 0
M  V30 3468 C 325.193 1.40861 -6.16718 0
M  V30 3469 C 323.857 1.28391 -6.55036 0
M  V30 3470 H 323.127 0.499402 -0.547429 0
M  V30 3471 H 325.774 0.684546 -1.78847 0
M  V30 3472 H 324.079 3.26379 -2.16758 0
M  V30 3473 H 325.776 3.1124 -2.52845 0
M  V30 3474 H 322.366 2.23129 -3.65939 0
M  V30 3475 H 326.55 1.90317 -4.58359 0
M  V30 3476 H 321.806 1.48034 -5.93208 0
M  V30 3477 H 325.98 1.16138 -6.86648 0
M  V30 3478 H 323.607 0.944403 -7.54311 0
M  V30 3479 N 325.182 1.32811 0.848464 0
M  V30 3480 C 326.431 1.23075 1.59798 0
M  V30 3481 C 326.744 -0.204419 1.94529 0
M  V30 3482 O 327.95 -0.423701 2.68173 0
M  V30 3483 C 326.406 2.15594 2.88179 0
M  V30 3484 C 326.014 3.64228 2.60849 0
M  V30 3485 C 327.758 2.14709 3.66197 0
M  V30 3486 C 325.665 4.48689 3.85269 0
M  V30 3487 H 324.595 0.457091 0.599653 0
M  V30 3488 H 327.246 1.57813 0.936342 0
M  V30 3489 H 325.628 1.73778 3.55833 0
M  V30 3490 H 326.802 4.14424 2.01467 0
M  V30 3491 H 325.117 3.67306 1.96151 0
M  V30 3492 H 327.714 2.75046 4.58534 0
M  V30 3493 H 328.057 1.13966 4.00397 0
M  V30 3494 H 328.59 2.54837 3.05455 0
M  V30 3495 H 325.329 5.5027 3.56207 0
M  V30 3496 H 324.849 4.03241 4.44024 0
M  V30 3497 H 326.528 4.62006 4.52946 0
M  V30 3498 N 326.66 -1.06551 1.16123 0
M  V30 3499 C 327.909 -1.78687 0.935622 0
M  V30 3500 C 328.222 -1.88056 -0.538001 0
M  V30 3501 O 329.428 -2.56794 -0.88143 0
M  V30 3502 C 327.884 -3.21143 1.62466 0
M  V30 3503 C 327.492 -3.19949 3.13587 0
M  V30 3504 C 329.236 -3.9783 1.48092 0
M  V30 3505 C 327.143 -4.57108 3.75241 0
M  V30 3506 H 326.073 -0.669712 0.346412 0
M  V30 3507 H 328.724 -1.19534 1.39226 0
M  V30 3508 H 327.106 -3.80539 1.09572 0
M  V30 3509 H 328.28 -2.70151 3.73303 0
M  V30 3510 H 326.595 -2.5676 3.27816 0
M  V30 3511 H 329.192 -4.99217 1.91538 0
M  V30 3512 H 329.535 -4.14078 0.429507 0
M  V30 3513 H 330.068 -3.4495 1.98127 0
M  V30 3514 H 326.807 -4.46065 4.80319 0
M  V30 3515 H 326.327 -5.07111 3.20309 0
M  V30 3516 H 328.006 -5.26069 3.76644 0
M  V30 3517 N 328.138 -0.959301 -1.25041 0
M  V30 3518 C 329.101 -0.487677 -2.23952 0
M  V30 3519 C 330.101 0.41119 -1.55454 0
M  V30 3520 O 331.291 0.207825 -1.72956 0
M  V30 3521 C 328.423 0.294807 -3.39623 0
M  V30 3522 H 329.616 -1.36198 -2.67189 0
M  V30 3523 H 327.169 -0.743042 -1.37508 0
M  V30 3524 H 327.904 1.18658 -3.01813 0
M  V30 3525 H 327.689 -0.35012 -3.90534 0
M  V30 3526 H 329.179 0.614089 -4.1306 0
M  V30 3527 N 329.616 1.39756 -0.72842 0
M  V30 3528 C 330.864 2.00248 -0.272946 0
M  V30 3529 C 331.185 1.58077 1.14178 0
M  V30 3530 O 330.455 0.826014 1.77634 0
M  V30 3531 H 329.035 0.740554 -0.0979247 0
M  V30 3532 H 331.697 1.70903 -0.936912 0
M  V30 3533 H 330.793 3.10495 -0.316142 0
M  V30 3534 N 331.094 0.475555 1.50254 0
M  V30 3535 C 332.34 -0.0780073 2.0265 0
M  V30 3536 C 332.673 -1.38968 1.35652 0
M  V30 3537 O 331.948 -1.8839 0.483691 0
M  V30 3538 C 332.231 -0.257161 3.59181 0
M  V30 3539 C 332.084 1.07585 4.36744 0
M  V30 3540 C 333.403 -1.00965 4.28362 0
M  V30 3541 H 330.522 -0.0268758 0.73651 0
M  V30 3542 H 333.164 0.622015 1.7953 0
M  V30 3543 H 331.314 -0.853412 3.79011 0
M  V30 3544 H 332.986 1.70902 4.28474 0
M  V30 3545 H 331.229 1.6714 4.00308 0
M  V30 3546 H 331.9 0.904088 5.44546 0
M  V30 3547 H 334.376 -0.504214 4.13034 0
M  V30 3548 H 333.252 -1.10381 5.37687 0
M  V30 3549 H 333.513 -2.04731 3.91839 0
M  V30 3550 N 332.573 -1.56217 0.208337 0
M  V30 3551 C 333.536 -2.18455 -0.693557 0
M  V30 3552 C 334.536 -1.14268 -1.13135 0
M  V30 3553 O 335.726 -1.39577 -1.0423 0
M  V30 3554 C 332.858 -2.79727 -1.94848 0
M  V30 3555 H 334.051 -2.99519 -0.15114 0
M  V30 3556 H 331.604 -1.56245 -0.041287 0
M  V30 3557 H 332.339 -2.02497 -2.53309 0
M  V30 3558 H 332.124 -3.56009 -1.64316 0
M  V30 3559 H 333.614 -3.27475 -2.59133 0
M  V30 3560 N 334.051 0.0651679 -1.57465 0
M  V30 3561 C 335.297 0.764193 -1.87851 0
M  V30 3562 C 335.63 1.76889 -0.801495 0
M  V30 3563 O 334.905 1.93594 0.187528 0
M  V30 3564 C 335.188 1.46625 -3.28897 0
M  V30 3565 C 335.041 0.477515 -4.47258 0
M  V30 3566 C 336.36 2.4095 -3.68281 0
M  V30 3567 H 333.479 0.276351 -0.683227 0
M  V30 3568 H 336.121 0.0272868 -1.8998 0
M  V30 3569 H 334.271 2.09438 -3.27212 0
M  V30 3570 H 335.943 -0.145922 -4.61069 0
M  V30 3571 H 334.186 -0.206576 -4.33308 0
M  V30 3572 H 334.857 1.0065 -5.42746 0
M  V30 3573 H 337.333 1.88209 -3.71102 0
M  V30 3574 H 336.209 2.87072 -4.67847 0
M  V30 3575 H 336.47 3.26049 -2.98571 0
M  V30 3576 N 335.529 1.53961 0.336706 0
M  V30 3577 C 336.777 1.71197 1.07405 0
M  V30 3578 C 337.098 0.481475 1.88962 0
M  V30 3579 O 336.368 -0.504585 1.8929 0
M  V30 3580 H 334.948 0.631185 0.399517 0
M  V30 3581 H 337.61 1.91232 0.376323 0
M  V30 3582 H 336.706 2.58587 1.74755 0
M  V30 3583 N 337.007 -0.598083 1.45811 0
M  V30 3584 C 338.256 -1.35295 1.49594 0
M  V30 3585 C 338.569 -1.95057 0.145679 0
M  V30 3586 O 339.775 -2.71431 0.0612099 0
M  V30 3587 C 338.231 -2.45124 2.63519 0
M  V30 3588 C 337.839 -1.91732 4.04899 0
M  V30 3589 C 339.583 -3.2205 2.76558 0
M  V30 3590 C 337.49 -2.991 5.1019 0
M  V30 3591 H 336.42 -0.508552 0.556679 0
M  V30 3592 H 339.071 -0.639977 1.71978 0
M  V30 3593 H 337.453 -3.19149 2.34435 0
M  V30 3594 H 338.627 -1.24352 4.43704 0
M  V30 3595 H 336.942 -1.27522 3.96393 0
M  V30 3596 H 339.539 -4.0215 3.52391 0
M  V30 3597 H 339.882 -3.73663 1.83526 0
M  V30 3598 H 340.415 -2.55127 3.05213 0
M  V30 3599 H 337.154 -2.52393 6.04961 0
M  V30 3600 H 336.674 -3.65017 4.75944 0
M  V30 3601 H 338.353 -3.63318 5.35359 0
M  V30 3602 N 338.485 -1.33259 -0.841409 0
M  V30 3603 C 339.732 -1.24572 -1.5965 0
M  V30 3604 C 340.06 0.189137 -1.93578 0
M  V30 3605 O 339.315 1.14566 -1.5866 0
M  V30 3606 C 339.614 -2.06381 -2.9179 0
M  V30 3607 C 339.28 -3.556 -2.77235 0
M  V30 3608 C 337.942 -3.96282 -2.72973 0
M  V30 3609 C 340.294 -4.50433 -2.62221 0
M  V30 3610 C 337.622 -5.30017 -2.51592 0
M  V30 3611 C 339.974 -5.84327 -2.42374 0
M  V30 3612 C 338.638 -6.24194 -2.36512 0
M  V30 3613 H 337.908 -0.455842 -0.5842 0
M  V30 3614 H 340.555 -1.6482 -0.975016 0
M  V30 3615 H 338.86 -1.58903 -3.5813 0
M  V30 3616 H 340.557 -1.97019 -3.49263 0
M  V30 3617 H 337.147 -3.23298 -2.81384 0
M  V30 3618 H 341.331 -4.19914 -2.64549 0
M  V30 3619 H 336.587 -5.59947 -2.45499 0
M  V30 3620 H 340.761 -6.57414 -2.29739 0
M  V30 3621 H 338.388 -7.27759 -2.19706 0
M  V30 3622 N 339.963 1.05934 -1.16686 0
M  V30 3623 C 340.893 2.1546 -0.899949 0
M  V30 3624 C 341.874 1.69391 0.155154 0
M  V30 3625 O 343.059 1.94199 0.00648693 0
M  V30 3626 C 340.189 3.44939 -0.404241 0
M  V30 3627 C 339.143 4.04536 -1.39767 0
M  V30 3628 C 338.469 5.29268 -0.760216 0
M  V30 3629 C 339.769 4.42893 -2.76845 0
M  V30 3630 H 341.463 2.38046 -1.81588 0
M  V30 3631 H 339.009 1.14404 -0.874514 0
M  V30 3632 H 340.962 4.20901 -0.204971 0
M  V30 3633 H 339.686 3.21983 0.547206 0
M  V30 3634 H 338.345 3.30635 -1.58355 0
M  V30 3635 H 337.993 5.02611 0.197831 0
M  V30 3636 H 337.693 5.70101 -1.42332 0
M  V30 3637 H 339.217 6.07924 -0.57105 0
M  V30 3638 H 340.631 5.09921 -2.62019 0
M  V30 3639 H 339.028 4.94721 -3.39663 0
M  V30 3640 H 340.098 3.53584 -3.31823 0
M  V30 3641 N 341.441 0.965919 1.2453 0
M  V30 3642 C 342.681 0.634656 1.94297 0
M  V30 3643 C 343.045 -0.814822 1.73852 0
M  V30 3644 O 344.246 -1.25622 2.3764 0
M  V30 3645 C 342.517 0.99702 3.43212 0
M  V30 3646 S 344.076 0.780038 4.31811 0
M  V30 3647 H 340.894 0.232893 0.671775 0
M  V30 3648 H 343.496 1.24249 1.50938 0
M  V30 3649 H 342.2 2.04886 3.55598 0
M  V30 3650 H 341.731 0.379888 3.91562 0
M  V30 3651 H 343.746 -0.343512 4.9501 0
M  V30 3652 N 342.919 -1.39368 0.735821 0
M  V30 3653 C 344.147 -2.04795 0.294393 0
M  V30 3654 C 344.562 -1.55478 -1.07107 0
M  V30 3655 O 343.919 -0.720038 -1.67695 0
M  V30 3656 C 343.97 -3.6035 0.288071 0
M  V30 3657 O 343.691 -4.07852 1.59963 0
M  V30 3658 C 345.192 -4.42976 -0.169422 0
M  V30 3659 H 342.412 -0.658571 0.128551 0
M  V30 3660 H 344.956 -1.78399 0.999701 0
M  V30 3661 H 343.111 -3.85645 -0.368355 0
M  V30 3662 H 343.525 -5.02181 1.51375 0
M  V30 3663 H 344.999 -5.51864 -0.122687 0
M  V30 3664 H 345.476 -4.22068 -1.21472 0
M  V30 3665 H 346.082 -4.22832 0.457469 0
M  V30 3666 N 344.397 -0.483516 -1.5 0
M  V30 3667 C 345.645 0.067027 -2.01989 0
M  V30 3668 C 345.966 1.3909 -1.36671 0
M  V30 3669 O 345.236 1.88978 -0.516152 0
M  V30 3670 H 343.816 0.0277606 -0.746484 0
M  V30 3671 H 346.478 -0.636773 -1.84204 0
M  V30 3672 H 345.574 0.209484 -3.11396 0
M  V30 3673 N 345.875 1.56104 -0.216619 0
M  V30 3674 C 347.123 1.97781 0.415593 0
M  V30 3675 C 347.444 1.10536 1.60645 0
M  V30 3676 O 346.714 0.181303 1.95059 0
M  V30 3677 H 345.294 0.730415 0.156534 0
M  V30 3678 H 347.956 1.92445 -0.308366 0
M  V30 3679 H 347.052 3.03072 0.74525 0
M  V30 3680 N 347.353 -0.0568162 1.57498 0
M  V30 3681 C 348.769 -0.411933 1.54192 0
M  V30 3682 C 348.969 -1.78287 0.938942 0
M  V30 3683 O 348.025 -2.46483 0.547919 0
M  V30 3684 C 349.338 -0.339244 2.9878 0
M  V30 3685 C 350.886 -0.418348 3.10192 0
M  V30 3686 C 351.361 -0.375407 4.56459 0
M  V30 3687 N 352.852 -0.435038 4.61153 0
M  V30 3688 C 353.587 -0.424265 5.71828 0
M  V30 3689 N 353.083 -0.367418 6.91825 0
M  V30 3690 N 354.876 -0.471938 5.60115 0
M  V30 3691 H 347.027 0.840684 1.95055 0
M  V30 3692 H 349.29 0.316987 0.893433 0
M  V30 3693 H 348.996 0.601742 3.46514 0
M  V30 3694 H 348.87 -1.14371 3.59443 0
M  V30 3695 H 351.257 -1.34976 2.62422 0
M  V30 3696 H 351.338 0.414962 2.52412 0
M  V30 3697 H 350.982 0.552219 5.04889 0
M  V30 3698 H 350.912 -1.22645 5.12119 0
M  V30 3699 H 353.403 -0.482612 3.74806 0
M  V30 3700 H 353.716 -0.363535 7.71944 0
M  V30 3701 H 352.061 -0.333879 6.94198 0
M  V30 3702 H 355.252 -0.514145 4.65268 0
M  V30 3703 H 355.425 -0.460073 6.46365 0
M  V30 3704 N 348.832 -1.54138 -0.328536 0
M  V30 3705 C 350.248 -1.44736 -0.672574 0
M  V30 3706 C 350.448 -0.616217 -1.91846 0
M  V30 3707 O 349.504 -0.113067 -2.52247 0
M  V30 3708 C 350.817 -2.884 -0.851217 0
M  V30 3709 C 352.365 -2.98271 -0.948877 0
M  V30 3710 C 352.84 -4.43074 -1.15973 0
M  V30 3711 N 354.331 -4.46665 -1.22658 0
M  V30 3712 C 355.066 -5.55857 -1.40751 0
M  V30 3713 N 354.562 -6.75026 -1.5592 0
M  V30 3714 N 356.355 -5.43495 -1.4342 0
M  V30 3715 H 348.506 -2.06661 0.490421 0
M  V30 3716 H 350.769 -0.934812 0.157579 0
M  V30 3717 H 350.475 -3.51699 -0.00704236 0
M  V30 3718 H 350.349 -3.34225 -1.74853 0
M  V30 3719 H 352.736 -2.35102 -1.78356 0
M  V30 3720 H 352.817 -2.55785 -0.0281435 0
M  V30 3721 H 352.461 -5.06827 -0.329915 0
M  V30 3722 H 352.391 -4.83165 -2.09426 0
M  V30 3723 H 354.882 -3.60797 -1.124 0
M  V30 3724 H 355.195 -7.54004 -1.69404 0
M  V30 3725 H 353.54 -6.77944 -1.53027 0
M  V30 3726 H 356.731 -4.49349 -1.31162 0
M  V30 3727 H 356.904 -6.28649 -1.57178 0
M  V30 3728 N 350.31 0.590341 -1.46126 0
M  V30 3729 C 351.55 1.35995 -1.52593 0
M  V30 3730 C 351.914 1.91243 -0.170368 0
M  V30 3731 O 353.115 2.68576 -0.109775 0
M  V30 3732 C 351.386 2.46465 -2.58823 0
M  V30 3733 S 352.945 3.33953 -2.84641 0
M  V30 3734 H 349.763 0.463425 -0.53922 0
M  V30 3735 H 352.365 0.67944 -1.83314 0
M  V30 3736 H 351.069 2.04256 -3.5596 0
M  V30 3737 H 350.6 3.19297 -2.2981 0
M  V30 3738 H 352.615 4.45094 -2.19331 0
M  V30 3739 O 351.827 1.43831 0.734505 0
M  V30 3740 H 352.518 1.35486 1.38431 0
M  V30 END ATOM
M  V30 BEGIN BOND
M  V30 END BOND
M  V30 END CTAB
M  END
$$$$
