drugbank_target|P26281 2-amino-4-hydroxy-6-hydroxymethyldihydropteridine pyrophosphokinase (DB02119; DB02596; DB03197; DB04047; DB04158; DB04610)
 OpenBabel12092119543D

  0  0  0     0  0            999 V3000
M  V30 BEGIN CTAB
M  V30 COUNTS 2552 2583 0 0 0
M  V30 BEGIN ATOM
M  V30 1 H -0.908 1.98254 -0.117106 0
M  V30 2 N 0 1.576 0 0
M  V30 3 C 0.933 2.03868 1.02534 0
M  V30 4 C 1.911 0.928543 1.3348 0
M  V30 5 O 3.095 1.19667 1.45644 0
M  V30 6 C 0.222 2.43627 2.35294 0
M  V30 7 C -0.732 3.65373 2.2001 0
M  V30 8 S 0.101 5.13292 1.52614 0
M  V30 9 C 1.257 5.56322 2.86805 0
M  V30 10 H 1.49 2.90518 0.631377 0
M  V30 11 H -0.977 1.52953 0.210867 0
M  V30 12 H 0.981 2.67203 3.11629 0
M  V30 13 H -0.358 1.57376 2.7183 0
M  V30 14 H -1.165 3.90944 3.18086 0
M  V30 15 H -1.563 3.418 1.51819 0
M  V30 16 H 0.729 5.58782 3.83104 0
M  V30 17 H 1.672 6.56266 2.65933 0
M  V30 18 H 2.08 4.83886 2.90714 0
M  V30 19 N 1.4781 -0.272755 1.55222 0
M  V30 20 C 2.7061 -1.02255 1.79865 0
M  V30 21 C 3.1211 -1.79924 0.572088 0
M  V30 22 O 2.4781 -1.76638 -0.458842 0
M  V30 23 C 2.5291 -1.98094 3.02392 0
M  V30 24 O 2.2501 -1.23572 4.20311 0
M  V30 25 C 3.7511 -2.84884 3.39641 0
M  V30 26 H 0.9711 -0.302057 0.599168 0
M  V30 27 H 3.5151 -0.303465 2.02236 0
M  V30 28 H 1.6701 -2.65465 2.82147 0
M  V30 29 H 2.0841 -1.88172 4.89583 0
M  V30 30 H 3.5581 -3.47927 4.28545 0
M  V30 31 H 4.0351 -3.54665 2.59055 0
M  V30 32 H 4.6411 -2.23003 3.62146 0
M  V30 33 N 2.9562 -1.48159 -0.537278 0
M  V30 34 C 4.2022 -1.56035 -1.29541 0
M  V30 35 C 4.5352 -0.230377 -1.92829 0
M  V30 36 O 3.8102 0.762952 -1.78911 0
M  V30 37 C 4.0932 -2.69323 -2.39034 0
M  V30 38 C 3.9462 -4.12002 -1.80485 0
M  V30 39 C 5.2652 -2.78408 -3.40847 0
M  V30 40 H 2.3842 -0.567992 -0.469632 0
M  V30 41 H 5.0262 -1.80302 -0.599277 0
M  V30 42 H 3.1762 -2.48763 -2.98412 0
M  V30 43 H 4.8482 -4.43981 -1.25215 0
M  V30 44 H 3.0912 -4.19344 -1.11055 0
M  V30 45 H 3.7622 -4.87077 -2.59731 0
M  V30 46 H 6.2382 -2.97012 -2.91416 0
M  V30 47 H 5.1142 -3.59416 -4.14863 0
M  V30 48 H 5.3752 -1.86269 -4.00944 0
M  V30 49 N 4.4343 0.785586 -1.36625 0
M  V30 50 C 5.3973 1.87999 -1.31107 0
M  V30 51 C 6.3973 1.59316 -0.217959 0
M  V30 52 O 7.5873 1.67656 -0.472977 0
M  V30 53 C 4.7193 3.24861 -1.03334 0
M  V30 54 H 5.9123 1.94307 -2.2844 0
M  V30 55 H 3.4653 0.983813 -1.21453 0
M  V30 56 H 4.2003 3.24235 -0.0647432 0
M  V30 57 H 3.9853 3.4707 -1.82441 0
M  V30 58 H 5.4753 4.04929 -1.02088 0
M  V30 59 N 5.9124 1.20967 1.01018 0
M  V30 60 C 7.1424 1.04803 1.78044 0
M  V30 61 C 7.5504 -0.405462 1.84804 0
M  V30 62 O 6.8934 -1.2932 1.30468 0
M  V30 63 C 6.9554 1.56377 3.23707 0
M  V30 64 C 6.6194 3.04767 3.40538 0
M  V30 65 C 7.6164 4.02366 3.29239 0
M  V30 66 C 5.3014 3.43862 3.66147 0
M  V30 67 C 7.2954 5.37049 3.43304 0
M  V30 68 C 4.9824 4.78699 3.79855 0
M  V30 69 C 5.9804 5.75101 3.68439 0
M  V30 70 O 5.6684 7.07493 3.81719 0
M  V30 71 H 5.4004 0.368778 0.56655 0
M  V30 72 H 7.9544 1.60642 1.27997 0
M  V30 73 H 6.1844 0.949297 3.74867 0
M  V30 74 H 7.8734 1.36136 3.8239 0
M  V30 75 H 8.6394 3.73506 3.09384 0
M  V30 76 H 4.5184 2.69364 3.74118 0
M  V30 77 H 8.0624 6.12277 3.34309 0
M  V30 78 H 3.9594 5.07247 3.99213 0
M  V30 79 H 4.7274 7.1483 3.98697 0
M  V30 80 N 7.3905 -1.2043 1.01659 0
M  V30 81 C 8.6395 -1.89118 0.701237 0
M  V30 82 C 8.9525 -1.79705 -0.772358 0
M  V30 83 O 10.1585 -2.43528 -1.20026 0
M  V30 84 C 8.6145 -3.39168 1.20388 0
M  V30 85 C 8.2225 -3.57166 2.70438 0
M  V30 86 C 9.9665 -4.1341 0.963953 0
M  V30 87 C 7.8735 -5.01042 3.14183 0
M  V30 88 H 6.8035 -0.708267 0.2586 0
M  V30 89 H 9.4545 -1.36239 1.22927 0
M  V30 90 H 7.8365 -3.91369 0.603824 0
M  V30 91 H 9.0105 -3.15351 3.35992 0
M  V30 92 H 7.3255 -2.96294 2.92572 0
M  V30 93 H 9.9225 -5.19491 1.26621 0
M  V30 94 H 10.2655 -4.16181 -0.099578 0
M  V30 95 H 10.7985 -3.67309 1.52738 0
M  V30 96 H 7.5375 -5.03426 4.19812 0
M  V30 97 H 7.0575 -5.43668 2.53348 0
M  V30 98 H 8.7365 -5.69623 3.0682 0
M  V30 99 N 8.8686 -0.792821 -1.36206 0
M  V30 100 C 9.8316 -0.199459 -2.2833 0
M  V30 101 C 10.8316 0.605189 -1.48977 0
M  V30 102 O 12.0216 0.425685 -1.68919 0
M  V30 103 C 9.1536 0.723523 -3.33134 0
M  V30 104 H 10.3466 -1.01181 -2.82316 0
M  V30 105 H 7.8996 -0.562485 -1.45828 0
M  V30 106 H 8.6346 1.56008 -2.84309 0
M  V30 107 H 8.4196 0.148436 -3.91819 0
M  V30 108 H 9.9096 1.13344 -4.01924 0
M  V30 109 N 10.3467 1.47872 -0.545128 0
M  V30 110 C 11.5957 2.01695 -0.0145033 0
M  V30 111 C 11.9087 1.42609 1.33873 0
M  V30 112 O 13.1147 1.88021 1.95858 0
M  V30 113 C 11.5707 3.59892 0.0245068 0
M  V30 114 C 11.1787 4.27966 -1.32475 0
M  V30 115 C 12.9227 4.21507 0.50316 0
M  V30 116 C 10.8297 5.78136 -1.2455 0
M  V30 117 H 9.7597 0.753998 -0.00165172 0
M  V30 118 H 12.4107 1.69985 -0.691175 0
M  V30 119 H 10.7927 3.88509 0.766575 0
M  V30 120 H 11.9667 4.11003 -2.08357 0
M  V30 121 H 10.2817 3.78286 -1.74036 0
M  V30 122 H 12.8787 5.31538 0.580656 0
M  V30 123 H 13.2217 3.87855 1.51243 0
M  V30 124 H 13.7547 3.97376 -0.183681 0
M  V30 125 H 10.4937 6.16388 -2.23039 0
M  V30 126 H 10.0137 5.97469 -0.528282 0
M  V30 127 H 11.6927 6.40099 -0.942488 0
M  V30 128 N 11.8248 0.280983 1.55075 0
M  V30 129 C 13.0728 -0.333455 1.9933 0
M  V30 130 C 13.3938 -1.55937 1.17085 0
M  V30 131 O 12.6638 -1.94143 0.261805 0
M  V30 132 H 11.2438 -0.126197 0.736263 0
M  V30 133 H 13.9058 0.387678 1.91005 0
M  V30 134 H 13.0018 -0.619292 3.05894 0
M  V30 135 N 13.3029 -1.57598 0.00835791 0
M  V30 136 C 14.5279 -1.95617 -0.689103 0
M  V30 137 C 14.9529 -0.883753 -1.66046 0
M  V30 138 O 14.3109 0.157352 -1.80616 0
M  V30 139 C 14.3589 -3.32736 -1.38994 0
M  V30 140 O 13.4629 -3.27631 -2.50463 0
M  V30 141 H 12.8039 -0.638379 -0.182668 0
M  V30 142 H 15.3339 -2.045 0.064036 0
M  V30 143 H 15.3439 -3.68494 -1.75147 0
M  V30 144 H 14.0189 -4.1034 -0.677778 0
M  V30 145 H 12.5959 -3.03561 -2.16576 0
M  V30 146 N 14.781 0.264519 -1.55364 0
M  V30 147 C 15.729 1.34702 -1.89626 0
M  V30 148 C 16.723 1.50712 -0.773459 0
M  V30 149 O 17.929 1.52395 -0.957897 0
M  V30 150 H 14.304 0.450682 -0.601988 0
M  V30 151 H 16.275 1.0306 -2.80038 0
M  V30 152 C 15.024 2.6989 -2.19214 0
M  V30 153 H 14.347 2.58365 -3.05103 0
M  V30 154 H 15.787 3.44553 -2.47102 0
M  V30 155 C 14.246 3.21637 -1.00254 0
M  V30 156 O 14.776 4.00973 -0.241501 0
M  V30 157 N 12.982 2.7943 -0.797938 0
M  V30 158 H 12.529 2.15026 -1.4185 0
M  V30 159 H 12.487 3.144 -0.00363422 0
M  V30 160 N 16.2591 1.48442 0.529413 0
M  V30 161 C 17.1891 1.65902 1.64313 0
M  V30 162 C 18.1701 0.507897 1.6234 0
M  V30 163 O 19.3551 0.740503 1.79528 0
M  V30 164 C 16.4851 1.69911 3.02898 0
M  V30 165 C 15.4391 2.8453 3.19729 0
M  V30 166 C 14.7651 2.73629 4.59381 0
M  V30 167 C 16.0651 4.25821 3.02447 0
M  V30 168 H 17.7591 2.5914 1.49955 0
M  V30 169 H 15.3051 1.24709 0.719982 0
M  V30 170 H 17.2581 1.80715 3.80684 0
M  V30 171 H 15.9821 0.732524 3.18279 0
M  V30 172 H 14.6411 2.73283 2.44361 0
M  V30 173 H 14.2891 1.74938 4.71599 0
M  V30 174 H 13.9891 3.50541 4.71588 0
M  V30 175 H 15.5131 2.86401 5.39265 0
M  V30 176 H 16.9271 4.37898 3.70024 0
M  V30 177 H 15.3241 5.03735 3.26146 0
M  V30 178 H 16.3941 4.42244 1.98867 0
M  V30 179 N 17.7372 -0.778329 1.37039 0
M  V30 180 C 18.7002 -1.87301 1.32102 0
M  V30 181 C 19.7002 -1.59198 0.226405 0
M  V30 182 O 20.8902 -1.67403 0.481861 0
M  V30 183 C 18.0222 -3.24309 1.05055 0
M  V30 184 H 19.2152 -1.93093 2.29467 0
M  V30 185 H 16.7682 -0.977358 1.21973 0
M  V30 186 H 17.5032 -3.24196 0.0819373 0
M  V30 187 H 17.2882 -3.46098 1.84279 0
M  V30 188 H 18.7782 -4.04382 1.04234 0
M  V30 189 N 19.2153 -1.21501 -1.00376 0
M  V30 190 C 20.4403 -1.05977 -1.78279 0
M  V30 191 C 20.8653 0.385994 -1.84097 0
M  V30 192 O 20.2233 1.27849 -1.28547 0
M  V30 193 C 20.2713 -1.66302 -3.19963 0
M  V30 194 O 19.3753 -0.909333 -4.0225 0
M  V30 195 H 18.7163 -0.372906 -0.549397 0
M  V30 196 H 21.2463 -1.6107 -1.26165 0
M  V30 197 H 21.2563 -1.70574 -3.70632 0
M  V30 198 H 19.9313 -2.71515 -3.15043 0
M  V30 199 H 18.5083 -0.941795 -3.60811 0
M  V30 200 N 20.6934 1.19889 -1.02296 0
M  V30 201 C 22.1044 1.71124 -0.746568 0
M  V30 202 C 22.4554 1.81939 0.734335 0
M  V30 203 O 21.5804 1.48639 1.57275 0
M  V30 204 C 22.1754 3.10804 -1.34857 0
M  V30 205 C 20.7344 3.59323 -1.1209 0
M  V30 206 C 19.8814 2.3635 -1.45031 0
M  V30 207 H 22.8324 1.04813 -1.19163 0
M  V30 208 H 22.8534 3.73186 -0.742437 0
M  V30 209 H 22.3654 3.029 -2.42638 0
M  V30 210 H 20.4664 3.7255 -0.0610337 0
M  V30 211 H 20.5794 4.4378 -1.80544 0
M  V30 212 H 18.9434 2.39399 -0.869487 0
M  V30 213 H 19.7264 2.31081 -2.53883 0
M  V30 214 N 22.1715 0.800033 1.35784 0
M  V30 215 C 23.1015 0.220184 2.3246 0
M  V30 216 C 24.0825 -0.65073 1.57161 0
M  V30 217 O 25.2675 -0.582359 1.85263 0
M  V30 218 C 22.3975 -0.637353 3.41402 0
M  V30 219 C 21.3515 0.134531 4.27789 0
M  V30 220 C 20.6775 -0.844285 5.27992 0
M  V30 221 C 21.9775 1.32979 5.05088 0
M  V30 222 H 23.6715 1.02787 2.81203 0
M  V30 223 H 21.2175 0.495717 1.35199 0
M  V30 224 H 23.1705 -1.05302 4.08031 0
M  V30 225 H 21.8945 -1.47785 2.91251 0
M  V30 226 H 20.5535 0.531296 3.6273 0
M  V30 227 H 20.2015 -1.68011 4.74111 0
M  V30 228 H 19.9015 -0.332184 5.8666 0
M  V30 229 H 21.4255 -1.2583 5.97494 0
M  V30 230 H 22.8395 0.98934 5.64699 0
M  V30 231 H 21.2365 1.77593 5.7322 0
M  V30 232 H 22.3065 2.11978 4.36111 0
M  V30 233 N 23.6496 -1.47581 0.552962 0
M  V30 234 C 24.5596 -2.33743 -0.200353 0
M  V30 235 C 25.5756 -1.47928 -0.916151 0
M  V30 236 O 26.7516 -1.80865 -0.885993 0
M  V30 237 C 23.8166 -3.24536 -1.21973 0
M  V30 238 C 22.8776 -4.26238 -0.511819 0
M  V30 239 C 22.1106 -5.12693 -1.48263 0
M  V30 240 O 22.3336 -5.01525 -2.71714 0
M  V30 241 O 21.2676 -5.93375 -1.00945 0
M  V30 242 H 25.0936 -2.9945 0.506304 0
M  V30 243 H 22.6786 -1.46071 0.313622 0
M  V30 244 H 24.5606 -3.80631 -1.80827 0
M  V30 245 H 23.2356 -2.61462 -1.90839 0
M  V30 246 H 22.1426 -3.73914 0.117799 0
M  V30 247 H 23.4756 -4.92014 0.135308 0
M  V30 248 N 25.1277 -0.289203 -1.54924 0
M  V30 249 C 26.0597 0.625583 -2.20497 0
M  V30 250 C 27.0727 1.10667 -1.19402 0
M  V30 251 O 28.2617 1.02615 -1.46056 0
M  V30 252 C 25.3617 1.86702 -2.82835 0
M  V30 253 C 24.5347 1.5304 -4.09753 0
M  V30 254 C 23.5937 2.62576 -4.56005 0
M  V30 255 O 22.6197 2.28167 -5.21468 0
M  V30 256 N 23.8217 3.92901 -4.27328 0
M  V30 257 H 26.5867 0.0642801 -2.99631 0
M  V30 258 H 24.1477 -0.110896 -1.6152 0
M  V30 259 H 26.1397 2.59304 -3.10715 0
M  V30 260 H 24.7097 2.33702 -2.07611 0
M  V30 261 H 23.9297 0.637564 -3.8901 0
M  V30 262 H 25.2177 1.28072 -4.92418 0
M  V30 263 H 24.6157 4.23671 -3.74859 0
M  V30 264 H 23.1727 4.61837 -4.59946 0
M  V30 265 N 26.6058 1.57591 -0.0167156 0
M  V30 266 C 27.8518 1.91567 0.665582 0
M  V30 267 C 28.1848 0.892298 1.72487 0
M  V30 268 O 27.4598 -0.0867127 1.94307 0
M  V30 269 C 27.7428 3.36069 1.29342 0
M  V30 270 C 27.5958 4.49135 0.244541 0
M  V30 271 C 28.9148 3.803 2.21495 0
M  V30 272 H 26.0338 0.69666 0.240488 0
M  V30 273 H 28.6758 1.89866 -0.0714356 0
M  V30 274 H 26.8258 3.3765 1.92158 0
M  V30 275 H 28.4978 4.59689 -0.385228 0
M  V30 276 H 26.7408 4.3165 -0.431379 0
M  V30 277 H 27.4118 5.47242 0.723207 0
M  V30 278 H 29.8878 3.80377 1.68678 0
M  V30 279 H 28.7638 4.82127 2.62382 0
M  V30 280 H 29.0248 3.15104 3.101 0
M  V30 281 N 28.0839 -0.256276 1.55502 0
M  V30 282 C 29.0319 -1.33694 1.90338 0
M  V30 283 C 30.0259 -1.50299 0.781441 0
M  V30 284 O 31.2319 -1.51885 0.965966 0
M  V30 285 H 27.6069 -0.447483 0.60437 0
M  V30 286 H 29.5779 -1.01574 2.8058 0
M  V30 287 C 28.3269 -2.68724 2.20642 0
M  V30 288 H 27.6499 -2.56743 3.06469 0
M  V30 289 H 29.0899 -3.43237 2.48926 0
M  V30 290 C 27.5489 -3.21101 1.01959 0
M  V30 291 O 28.0789 -4.0084 0.262762 0
M  V30 292 N 26.2849 -2.79003 0.812746 0
M  V30 293 H 25.8319 -2.14271 1.42989 0
M  V30 294 H 25.7899 -3.14393 0.0203076 0
M  V30 295 N 29.562 -1.4872 -0.521534 0
M  V30 296 C 30.525 -1.63379 -1.60748 0
M  V30 297 C 31.525 -0.50661 -1.52611 0
M  V30 298 O 32.715 -0.772601 -1.5613 0
M  V30 299 C 29.847 -1.61192 -3.00383 0
M  V30 300 H 31.04 -2.60217 -1.49087 0
M  V30 301 H 28.593 -1.37444 -0.744235 0
M  V30 302 H 29.328 -0.65863 -3.17541 0
M  V30 303 H 29.113 -2.43032 -3.07698 0
M  V30 304 H 30.603 -1.7466 -3.7932 0
M  V30 305 N 31.0401 0.771051 -1.3745 0
M  V30 306 C 32.0031 1.86598 -1.33093 0
M  V30 307 C 33.0031 1.59076 -0.234845 0
M  V30 308 O 34.1931 1.67145 -0.490732 0
M  V30 309 C 31.3251 3.23747 -1.06773 0
M  V30 310 H 32.5181 1.91873 -2.30488 0
M  V30 311 H 30.0711 0.970876 -1.2249 0
M  V30 312 H 30.8061 3.24148 -0.099129 0
M  V30 313 H 30.5911 3.45115 -1.86112 0
M  V30 314 H 32.0811 4.03824 -1.06377 0
M  V30 315 N 32.5182 1.22032 0.997298 0
M  V30 316 C 33.4482 1.01065 2.10495 0
M  V30 317 C 34.4292 -0.0669542 1.69968 0
M  V30 318 O 35.6142 0.0943987 1.9397 0
M  V30 319 C 32.7442 0.582874 3.42374 0
M  V30 320 C 31.6982 1.60592 3.96729 0
M  V30 321 C 31.0242 1.03412 5.24605 0
M  V30 322 C 32.3242 2.99478 4.27914 0
M  V30 323 H 34.0182 1.93708 2.28292 0
M  V30 324 H 31.5642 0.932761 1.09707 0
M  V30 325 H 33.5172 0.423332 4.19268 0
M  V30 326 H 32.2412 -0.379213 3.24391 0
M  V30 327 H 30.9002 1.75316 3.21963 0
M  V30 328 H 30.5482 0.063518 5.0296 0
M  V30 329 H 30.2482 1.71754 5.61938 0
M  V30 330 H 31.7722 0.886066 6.04137 0
M  V30 331 H 33.1862 2.88153 4.95622 0
M  V30 332 H 31.5832 3.64903 4.76409 0
M  V30 333 H 32.6532 3.49742 3.3587 0
M  V30 334 N 33.9963 -1.19345 1.0293 0
M  V30 335 C 34.9433 -2.2258 0.610464 0
M  V30 336 C 35.9133 -1.6179 -0.375946 0
M  V30 337 O 37.0983 -1.88844 -0.272511 0
M  V30 338 C 34.2383 -3.45085 -0.0321473 0
M  V30 339 C 33.3513 -4.20258 1.00035 0
M  V30 340 C 32.4863 -5.3019 0.32746 0
M  V30 341 C 31.5253 -5.97121 1.34584 0
M  V30 342 N 30.6623 -6.98615 0.698726 0
M  V30 343 H 35.5023 -2.57764 1.49538 0
M  V30 344 H 33.0393 -1.26644 0.748311 0
M  V30 345 H 34.9973 -4.15061 -0.421966 0
M  V30 346 H 33.6273 -3.10555 -0.88064 0
M  V30 347 H 32.6793 -3.49223 1.50823 0
M  V30 348 H 33.9913 -4.66175 1.77433 0
M  V30 349 H 33.1453 -6.06587 -0.11718 0
M  V30 350 H 31.8843 -4.85345 -0.478713 0
M  V30 351 H 30.8893 -5.19474 1.80074 0
M  V30 352 H 32.1143 -6.4405 2.15352 0
M  V30 353 H 30.0603 -6.55942 -0.0873471 0
M  V30 354 H 29.9773 -7.42724 1.41058 0
M  V30 355 H 31.2453 -7.79004 0.278102 0
M  V30 356 N 35.4744 -0.807222 -1.35358 0
M  V30 357 C 36.4374 -0.223665 -2.28106 0
M  V30 358 C 37.4374 0.589354 -1.4961 0
M  V30 359 O 38.6274 0.407745 -1.69361 0
M  V30 360 C 35.7594 0.688149 -3.33882 0
M  V30 361 H 36.9524 -1.04169 -2.81227 0
M  V30 362 H 34.5054 -0.577921 -1.45223 0
M  V30 363 H 35.2404 1.52984 -2.85948 0
M  V30 364 H 35.0254 0.10687 -3.91954 0
M  V30 365 H 36.5154 1.09075 -4.03104 0
M  V30 366 N 36.9525 1.47285 -0.560781 0
M  V30 367 C 37.8825 2.32857 0.173105 0
M  V30 368 C 38.8635 1.44009 0.905281 0
M  V30 369 O 40.0485 1.7286 0.885046 0
M  V30 370 C 37.1785 3.25861 1.20133 0
M  V30 371 C 36.1325 4.23978 0.585388 0
M  V30 372 C 35.4585 5.06332 1.7185 0
M  V30 373 C 36.7585 5.20242 -0.463178 0
M  V30 374 H 38.4525 2.94466 -0.541307 0
M  V30 375 H 35.9985 1.41601 -0.261764 0
M  V30 376 H 37.9515 3.84569 1.72293 0
M  V30 377 H 36.6755 2.62315 1.94573 0
M  V30 378 H 35.3345 3.66501 0.085054 0
M  V30 379 H 34.9825 4.39186 2.45203 0
M  V30 380 H 34.6825 5.72762 1.31213 0
M  V30 381 H 36.2065 5.67899 2.24329 0
M  V30 382 H 37.6205 5.73293 -0.027502 0
M  V30 383 H 36.0175 5.94896 -0.788627 0
M  V30 384 H 37.0875 4.65504 -1.35773 0
M  V30 385 N 38.4306 0.297415 1.54768 0
M  V30 386 C 39.6786 -0.312295 1.99673 0
M  V30 387 C 39.9996 -1.54686 1.18732 0
M  V30 388 O 39.2696 -1.93854 0.282382 0
M  V30 389 H 37.8496 -0.118381 0.73756 0
M  V30 390 H 40.5116 0.407915 1.90583 0
M  V30 391 H 39.6076 -0.586813 3.06534 0
M  V30 392 N 39.9087 -1.5758 0.0250728 0
M  V30 393 C 41.1857 -1.82917 -0.692873 0
M  V30 394 C 41.5657 -0.908137 -1.90568 0
M  V30 395 O 40.9137 0.0372298 -2.2847 0
M  V30 396 C 41.1237 -3.32034 -1.07492 0
M  V30 397 C 42.4717 -3.98406 -1.46826 0
M  V30 398 O 43.4957 -3.36505 -1.16801 0
M  V30 399 O 42.3547 -5.07497 -2.02754 0
M  V30 400 H 39.4487 -0.754079 -0.33955 0
M  V30 401 H 41.9947 -1.69619 0.0524456 0
M  V30 402 H 40.7667 -3.90728 -0.211552 0
M  V30 403 H 40.3897 -3.50424 -1.87854 0
M  V30 404 N 41.3868 0.248026 -1.55636 0
M  V30 405 C 42.6358 0.974134 -1.76617 0
M  V30 406 C 42.9488 1.86528 -0.588796 0
M  V30 407 O 44.1548 2.62805 -0.681594 0
M  V30 408 C 42.6108 1.78213 -3.12679 0
M  V30 409 C 42.2188 0.93843 -4.38061 0
M  V30 410 C 43.9628 2.50104 -3.42999 0
M  V30 411 C 41.8698 1.74225 -5.65155 0
M  V30 412 H 40.7998 0.36745 -0.658405 0
M  V30 413 H 43.4508 0.22884 -1.82067 0
M  V30 414 H 41.8328 2.56933 -3.01333 0
M  V30 415 H 43.0068 0.193635 -4.60393 0
M  V30 416 H 41.3218 0.332905 -4.15067 0
M  V30 417 H 43.9188 3.10694 -4.3517 0
M  V30 418 H 44.2618 3.21662 -2.64271 0
M  V30 419 H 44.7948 1.78395 -3.55556 0
M  V30 420 H 41.5338 1.07043 -6.46701 0
M  V30 421 H 41.0538 2.46235 -5.46926 0
M  V30 422 H 42.7328 2.30967 -6.0437 0
M  V30 423 N 42.8649 1.48995 0.513639 0
M  V30 424 C 44.2759 1.5119 1.09537 0
M  V30 425 C 44.6269 0.290906 1.94031 0
M  V30 426 O 43.7519 -0.60049 2.07902 0
M  V30 427 C 44.3469 2.73964 1.99322 0
M  V30 428 C 42.9059 2.78978 2.52682 0
M  V30 429 C 42.0529 2.44934 1.30009 0
M  V30 430 H 45.0039 1.55875 0.298125 0
M  V30 431 H 45.0249 2.53409 2.83838 0
M  V30 432 H 44.5369 3.62813 1.37799 0
M  V30 433 H 42.6379 1.94378 3.1788 0
M  V30 434 H 42.7509 3.8083 2.90698 0
M  V30 435 H 41.1149 1.9644 1.62122 0
M  V30 436 H 41.8979 3.36043 0.702131 0
M  V30 437 N 44.343 -0.763751 1.37857 0
M  V30 438 C 45.253 -1.90817 1.36478 0
M  V30 439 C 46.269 -1.71997 0.263248 0
M  V30 440 O 47.445 -1.95095 0.499979 0
M  V30 441 C 44.51 -3.2605 1.17864 0
M  V30 442 C 43.571 -3.57467 2.3773 0
M  V30 443 C 42.804 -4.86249 2.19995 0
M  V30 444 O 43.027 -5.57884 1.18836 0
M  V30 445 O 41.961 -5.16911 3.08361 0
M  V30 446 H 45.787 -1.94933 2.32884 0
M  V30 447 H 43.372 -0.907619 1.1867 0
M  V30 448 H 45.254 -4.06924 1.09504 0
M  V30 449 H 43.929 -3.22769 0.245372 0
M  V30 450 H 42.836 -2.76796 2.51664 0
M  V30 451 H 44.169 -3.655 3.29652 0
M  V30 452 N 45.8211 -1.22559 -0.990812 0
M  V30 453 C 47.0461 -1.07862 -1.77145 0
M  V30 454 C 47.4711 0.366447 -1.84496 0
M  V30 455 O 46.8291 1.26478 -1.29896 0
M  V30 456 C 46.8771 -1.69686 -3.18181 0
M  V30 457 O 45.9811 -0.951946 -4.01263 0
M  V30 458 H 45.3221 -0.378712 -0.545411 0
M  V30 459 H 47.8521 -1.62399 -1.2445 0
M  V30 460 H 47.8621 -1.74496 -3.68802 0
M  V30 461 H 46.5371 -2.74841 -3.12146 0
M  V30 462 H 45.1141 -0.980011 -3.59792 0
M  V30 463 N 47.2992 1.18797 -1.03562 0
M  V30 464 C 48.2492 2.20161 -0.592724 0
M  V30 465 C 49.2332 1.56772 0.362133 0
M  V30 466 O 50.4252 1.76062 0.182009 0
M  V30 467 C 47.5542 3.43266 0.0481024 0
M  V30 468 C 46.6402 4.13786 -0.9296 0
M  V30 469 N 47.0312 4.60388 -2.09467 0
M  V30 470 C 45.3292 4.39572 -0.754499 0
M  V30 471 C 46.0302 5.14619 -2.71187 0
M  V30 472 N 45.0062 5.05826 -1.991 0
M  V30 473 H 48.8082 2.53877 -1.48066 0
M  V30 474 H 46.3222 1.34946 -0.903514 0
M  V30 475 H 48.3192 4.15136 0.383058 0
M  V30 476 H 46.9792 3.11048 0.931636 0
M  V30 477 H 47.9902 4.54999 -2.47379 0
M  V30 478 H 44.6672 4.17425 0.0793713 0
M  V30 479 H 46.0572 5.60917 -3.69895 0
M  V30 480 N 48.7773 0.814389 1.34928 0
M  V30 481 C 50.0263 0.394871 1.97797 0
M  V30 482 C 50.3393 -1.04555 1.65311 0
M  V30 483 O 51.5453 -1.56856 2.21604 0
M  V30 484 C 50.0013 0.655103 3.53888 0
M  V30 485 C 49.6093 2.10858 3.95276 0
M  V30 486 C 51.3533 0.301329 4.23429 0
M  V30 487 C 49.2603 2.31415 5.44244 0
M  V30 488 H 48.1903 0.143913 0.740139 0
M  V30 489 H 50.8413 0.999544 1.53888 0
M  V30 490 H 49.2233 -0.0196253 3.95995 0
M  V30 491 H 50.3973 2.82176 3.64298 0
M  V30 492 H 48.7123 2.42297 3.38646 0
M  V30 493 H 51.3093 0.432869 5.32945 0
M  V30 494 H 51.6523 -0.75331 4.09428 0
M  V30 495 H 52.1853 0.930288 3.86769 0
M  V30 496 H 48.9243 3.35353 5.63222 0
M  V30 497 H 48.4443 1.6463 5.76764 0
M  V30 498 H 50.1233 2.13352 6.10811 0
M  V30 499 N 50.2554 -1.46986 0.568584 0
M  V30 500 C 51.1854 -2.32946 -0.160753 0
M  V30 501 C 52.1664 -1.44487 -0.897631 0
M  V30 502 O 53.3514 -1.73327 -0.875867 0
M  V30 503 C 50.4814 -3.26494 -1.18403 0
M  V30 504 C 49.4354 -4.24282 -0.562895 0
M  V30 505 C 48.7614 -5.07236 -1.69163 0
M  V30 506 C 50.0614 -5.19989 0.490761 0
M  V30 507 H 51.7554 -2.94175 0.556916 0
M  V30 508 H 49.3014 -1.4146 0.26927 0
M  V30 509 H 51.2544 -3.85477 -1.70251 0
M  V30 510 H 49.9784 -2.63343 -1.93179 0
M  V30 511 H 48.6374 -3.66541 -0.0656164 0
M  V30 512 H 48.2854 -4.4048 -2.42871 0
M  V30 513 H 47.9854 -5.7345 -1.28174 0
M  V30 514 H 49.5094 -5.6908 -2.21314 0
M  V30 515 H 50.9234 -5.73271 0.0579047 0
M  V30 516 H 49.3204 -5.94469 0.820165 0
M  V30 517 H 50.3904 -4.64777 1.3824 0
M  V30 518 N 51.7335 -0.305618 -1.54608 0
M  V30 519 C 52.9615 0.304775 -2.04643 0
M  V30 520 C 53.3765 1.47167 -1.18268 0
M  V30 521 O 52.7335 1.81296 -0.209328 0
M  V30 522 C 52.7845 0.756564 -3.53495 0
M  V30 523 O 52.5055 -0.36389 -4.36586 0
M  V30 524 C 54.0065 1.43163 -4.19546 0
M  V30 525 H 51.2265 0.0655481 -0.667791 0
M  V30 526 H 53.7705 -0.446592 -1.99564 0
M  V30 527 H 51.9255 1.45794 -3.58919 0
M  V30 528 H 52.3395 -0.0113121 -5.24499 0
M  V30 529 H 53.8135 1.69886 -5.25207 0
M  V30 530 H 54.2905 2.37318 -3.69563 0
M  V30 531 H 54.8965 0.773307 -4.18211 0
M  V30 532 N 53.2116 1.57565 -0.0334293 0
M  V30 533 C 54.4576 1.92262 0.645226 0
M  V30 534 C 54.7906 0.910543 1.71531 0
M  V30 535 O 54.0656 -0.066099 1.94388 0
M  V30 536 C 54.3486 3.37422 1.2577 0
M  V30 537 C 54.2016 4.49369 0.196891 0
M  V30 538 C 55.5206 3.82628 2.17449 0
M  V30 539 H 52.6396 0.699171 0.233085 0
M  V30 540 H 55.2816 1.89779 -0.0915694 0
M  V30 541 H 53.4316 3.39669 1.88566 0
M  V30 542 H 55.1036 4.59254 -0.433962 0
M  V30 543 H 53.3466 4.31168 -0.477137 0
M  V30 544 H 54.0176 5.47978 0.665124 0
M  V30 545 H 56.4936 3.82145 1.64634 0
M  V30 546 H 55.3696 4.84883 2.57254 0
M  V30 547 H 55.6306 3.18376 3.0674 0
M  V30 548 N 54.6897 -0.239769 1.55765 0
M  V30 549 C 55.9147 -0.988373 1.82335 0
M  V30 550 C 56.3397 -1.77886 0.611421 0
M  V30 551 O 55.6977 -1.75889 -0.439639 0
M  V30 552 C 55.7457 -1.89627 3.06715 0
M  V30 553 O 54.8497 -2.98904 2.84131 0
M  V30 554 H 54.1907 -0.280858 0.601677 0
M  V30 555 H 56.7207 -0.258597 2.02959 0
M  V30 556 H 56.7307 -2.30957 3.36338 0
M  V30 557 H 55.4057 -1.31511 3.9456 0
M  V30 558 H 53.9827 -2.61651 2.65694 0
M  V30 559 N 56.1678 -1.49265 -0.50573 0
M  V30 560 C 57.3928 -1.62478 -1.28902 0
M  V30 561 C 57.8178 -0.294332 -1.85783 0
M  V30 562 O 57.1758 0.737412 -1.65626 0
M  V30 563 C 57.2238 -2.69268 -2.39848 0
M  V30 564 O 56.3278 -2.28113 -3.43567 0
M  V30 565 H 55.6688 -0.54399 -0.380751 0
M  V30 566 H 58.1988 -1.95421 -0.605952 0
M  V30 567 H 58.2088 -2.91291 -2.85681 0
M  V30 568 H 56.8838 -3.65846 -1.97812 0
M  V30 569 H 55.4608 -2.16401 -3.03685 0
M  V30 570 N 57.6459 0.756429 -1.3826 0
M  V30 571 C 58.8929 1.51547 -1.34312 0
M  V30 572 C 59.2209 1.94382 0.0677144 0
M  V30 573 O 58.4759 1.65514 1.04421 0
M  V30 574 C 58.7749 2.78313 -2.24224 0
M  V30 575 C 58.4409 2.54455 -3.72241 0
M  V30 576 C 57.1029 2.47657 -4.12576 0
M  V30 577 C 59.4549 2.3354 -4.65949 0
M  V30 578 C 56.7829 2.17956 -5.44713 0
M  V30 579 C 59.1349 2.05359 -5.9834 0
M  V30 580 C 57.7989 1.97016 -6.37762 0
M  V30 581 H 57.0689 0.55455 -0.491482 0
M  V30 582 H 59.7159 0.870039 -1.70595 0
M  V30 583 H 58.0209 3.47492 -1.80987 0
M  V30 584 H 59.7179 3.36259 -2.18474 0
M  V30 585 H 56.3079 2.60616 -3.40261 0
M  V30 586 H 60.4919 2.37772 -4.35635 0
M  V30 587 H 55.7479 2.10003 -5.74203 0
M  V30 588 H 59.9219 1.88179 -6.70494 0
M  V30 589 H 57.5489 1.73766 -7.40074 0
M  V30 590 N 59.124 1.23083 0.984299 0
M  V30 591 C 60.354 1.08556 1.75781 0
M  V30 592 C 60.762 -0.366171 1.85623 0
M  V30 593 O 60.105 -1.26524 1.33182 0
M  V30 594 C 60.167 1.63208 3.20318 0
M  V30 595 C 59.831 3.11922 3.33997 0
M  V30 596 C 60.828 4.09259 3.2063 0
M  V30 597 C 58.513 3.51552 3.58771 0
M  V30 598 C 60.507 5.4421 3.31835 0
M  V30 599 C 58.194 4.86649 3.69616 0
M  V30 600 C 59.192 5.82787 3.56157 0
M  V30 601 O 58.88 7.15431 3.66626 0
M  V30 602 H 58.612 0.380713 0.5586 0
M  V30 603 H 61.166 1.63321 1.2456 0
M  V30 604 H 59.396 1.0286 3.72769 0
M  V30 605 H 61.085 1.44216 3.79416 0
M  V30 606 H 61.851 3.79984 3.01392 0
M  V30 607 H 57.73 2.77239 3.6832 0
M  V30 608 H 61.274 6.1923 3.21247 0
M  V30 609 H 57.171 5.15601 3.88363 0
M  V30 610 H 57.939 7.23127 3.83445 0
M  V30 611 N 60.6021 -1.18246 1.0419 0
M  V30 612 C 62.0181 -1.40269 0.761366 0
M  V30 613 C 62.2181 -1.90777 -0.648578 0
M  V30 614 O 61.2741 -2.0929 -1.41258 0
M  V30 615 C 62.5871 -2.40237 1.8085 0
M  V30 616 C 64.1351 -2.53961 1.82955 0
M  V30 617 C 64.6101 -3.57194 2.86664 0
M  V30 618 N 66.1011 -3.64702 2.85563 0
M  V30 619 C 66.8361 -4.44309 3.6246 0
M  V30 620 N 66.3321 -5.27514 4.49111 0
M  V30 621 N 68.1251 -4.39084 3.50944 0
M  V30 622 H 60.2761 -0.837882 1.95175 0
M  V30 623 H 62.5391 -0.430608 0.84456 0
M  V30 624 H 62.2451 -2.10176 2.81991 0
M  V30 625 H 62.1191 -3.39601 1.64168 0
M  V30 626 H 64.5061 -2.83338 0.824855 0
M  V30 627 H 64.5871 -1.54706 2.03715 0
M  V30 628 H 64.2311 -3.28558 3.87314 0
M  V30 629 H 64.1611 -4.5613 2.6316 0
M  V30 630 H 66.6521 -3.05289 2.22727 0
M  V30 631 H 66.9651 -5.85411 5.04493 0
M  V30 632 H 65.3101 -5.2693 4.53178 0
M  V30 633 H 68.5011 -3.7313 2.82651 0
M  V30 634 H 68.6741 -5.00883 4.11121 0
M  V30 635 N 62.0802 -0.821533 -1.34494 0
M  V30 636 C 63.3082 -0.421884 -2.02553 0
M  V30 637 C 63.7232 0.971745 -1.61872 0
M  V30 638 O 63.0802 1.62864 -0.823496 0
M  V30 639 C 63.1312 -0.51285 -3.57844 0
M  V30 640 O 62.8522 -1.85155 -3.97051 0
M  V30 641 C 64.3532 -0.107921 -4.43169 0
M  V30 642 H 61.5732 -0.169482 -0.649243 0
M  V30 643 H 64.1172 -1.1093 -1.71798 0
M  V30 644 H 62.2722 0.126474 -3.87193 0
M  V30 645 H 62.6862 -1.82482 -4.91732 0
M  V30 646 H 64.1602 -0.222657 -5.51551 0
M  V30 647 H 64.6372 0.948401 -4.28838 0
M  V30 648 H 65.2432 -0.720989 -4.19144 0
M  V30 649 N 63.5583 1.46682 -0.576371 0
M  V30 650 C 64.9693 1.86112 -0.148091 0
M  V30 651 C 65.3203 1.48073 1.2872 0
M  V30 652 O 64.4453 0.892656 1.97131 0
M  V30 653 C 65.0403 3.37786 -0.261982 0
M  V30 654 C 63.5993 3.76235 0.111384 0
M  V30 655 C 62.7463 2.70713 -0.60083 0
M  V30 656 H 65.6973 1.37927 -0.78497 0
M  V30 657 H 65.7183 3.77007 0.514364 0
M  V30 658 H 65.2303 3.6544 -1.30671 0
M  V30 659 H 63.3313 3.54198 1.15649 0
M  V30 660 H 63.4443 4.78391 -0.26052 0
M  V30 661 H 61.8083 2.54666 -0.0417783 0
M  V30 662 H 62.5913 3.01208 -1.64708 0
M  V30 663 N 65.0364 0.313813 1.54444 0
M  V30 664 C 66.4474 -0.176243 1.85866 0
M  V30 665 C 66.7984 -1.52405 1.23561 0
M  V30 666 O 65.9234 -2.09605 0.538016 0
M  V30 667 C 66.5184 -0.32657 3.37222 0
M  V30 668 C 65.0774 -0.760846 3.6863 0
M  V30 669 C 64.2244 0.123247 2.77026 0
M  V30 670 H 67.1754 0.534418 1.49431 0
M  V30 671 H 67.1964 -1.15908 3.62416 0
M  V30 672 H 66.7084 0.654531 3.82541 0
M  V30 673 H 64.8094 -1.75204 3.28838 0
M  V30 674 H 64.9224 -0.571353 4.75681 0
M  V30 675 H 63.2864 -0.399597 2.51546 0
M  V30 676 H 64.0694 1.10094 3.25168 0
M  V30 677 N 66.5145 -1.57545 0.0417849 0
M  V30 678 C 67.4445 -2.14009 -0.933929 0
M  V30 679 C 68.4255 -1.05938 -1.33083 0
M  V30 680 O 69.6105 -1.33833 -1.40721 0
M  V30 681 C 66.7405 -2.67747 -2.21199 0
M  V30 682 C 65.6945 -3.80718 -1.95544 0
M  V30 683 C 65.0205 -4.20935 -3.29724 0
M  V30 684 C 66.3205 -5.06258 -1.28452 0
M  V30 685 H 68.0145 -2.95788 -0.463645 0
M  V30 686 H 65.5605 -1.42285 -0.221573 0
M  V30 687 H 67.5135 -3.05886 -2.89848 0
M  V30 688 H 66.2375 -1.83147 -2.70416 0
M  V30 689 H 64.8965 -3.43037 -1.2931 0
M  V30 690 H 64.5445 -3.33298 -3.76724 0
M  V30 691 H 64.2445 -4.9707 -3.13361 0
M  V30 692 H 65.7685 -4.61666 -3.9962 0
M  V30 693 H 67.1825 -5.41903 -1.8712 0
M  V30 694 H 65.5795 -5.87475 -1.22445 0
M  V30 695 H 66.6495 -4.84207 -0.259219 0
M  V30 696 N 67.9926 0.231505 -1.5589 0
M  V30 697 C 69.2406 0.955461 -1.78088 0
M  V30 698 C 69.5616 1.85262 -0.608533 0
M  V30 699 O 68.8316 1.92277 0.375035 0
M  V30 700 H 67.4116 0.355787 -0.656829 0
M  V30 701 H 70.0736 0.245751 -1.93344 0
M  V30 702 H 69.1696 1.56814 -2.69844 0
M  V30 703 N 69.4707 1.49531 0.497807 0
M  V30 704 C 70.8817 1.52344 1.07927 0
M  V30 705 C 71.2327 0.311469 1.93712 0
M  V30 706 O 70.3577 -0.578405 2.08527 0
M  V30 707 C 70.9527 2.76062 1.96405 0
M  V30 708 C 69.5117 2.81643 2.49709 0
M  V30 709 C 68.6587 2.46299 1.27404 0
M  V30 710 H 71.6097 1.56182 0.281576 0
M  V30 711 H 71.6307 2.56405 2.81135 0
M  V30 712 H 71.1427 3.64254 1.33943 0
M  V30 713 H 69.2437 1.97739 3.15801 0
M  V30 714 H 69.3567 3.83891 2.86643 0
M  V30 715 H 67.7207 1.98148 1.60029 0
M  V30 716 H 68.5037 3.36769 0.66645 0
M  V30 717 N 70.9488 -0.749086 1.3866 0
M  V30 718 C 71.8808 -1.87273 1.32142 0
M  V30 719 C 72.8938 -1.61127 0.232787 0
M  V30 720 O 74.0828 -1.71623 0.49069 0
M  V30 721 C 71.1828 -3.23005 1.02571 0
M  V30 722 C 70.3558 -3.7662 2.22433 0
M  V30 723 C 69.4148 -4.90879 1.89537 0
M  V30 724 O 68.4408 -5.05276 2.62078 0
M  V30 725 N 69.6428 -5.74198 0.853031 0
M  V30 726 H 72.4078 -1.93373 2.28969 0
M  V30 727 H 69.9688 -0.929216 1.32579 0
M  V30 728 H 71.9608 -3.96992 0.786085 0
M  V30 729 H 70.5308 -3.12262 0.145249 0
M  V30 730 H 69.7508 -2.94147 2.62434 0
M  V30 731 H 71.0388 -4.09173 3.02415 0
M  V30 732 H 70.4368 -5.6514 0.25155 0
M  V30 733 H 68.9938 -6.48313 0.67329 0
M  V30 734 N 72.4269 -1.23603 -0.977757 0
M  V30 735 C 73.7039 -0.977897 -1.69401 0
M  V30 736 C 74.0839 0.502738 -2.05026 0
M  V30 737 O 73.4319 1.47459 -1.74551 0
M  V30 738 C 73.6419 -1.89077 -2.93345 0
M  V30 739 C 74.9899 -2.15579 -3.65802 0
M  V30 740 O 76.0139 -1.86648 -3.03383 0
M  V30 741 O 74.8729 -2.64658 -4.78141 0
M  V30 742 H 71.9669 -0.369025 -0.740101 0
M  V30 743 H 74.5129 -1.34657 -1.03274 0
M  V30 744 H 73.2849 -2.89158 -2.63634 0
M  V30 745 H 72.9079 -1.52463 -3.67207 0
M  V30 746 N 73.905 1.17692 -1.04816 0
M  V30 747 C 74.837 2.21103 -0.603822 0
M  V30 748 C 75.85 1.59411 0.33046 0
M  V30 749 O 77.039 1.7807 0.12379 0
M  V30 750 C 74.139 3.38623 0.136898 0
M  V30 751 C 73.312 4.29888 -0.807137 0
M  V30 752 C 72.371 5.26088 -0.10836 0
M  V30 753 O 71.397 5.64353 -0.741232 0
M  V30 754 N 72.599 5.68882 1.15558 0
M  V30 755 H 75.364 2.59848 -1.49329 0
M  V30 756 H 72.925 1.32553 -0.929587 0
M  V30 757 H 74.917 4.00009 0.614401 0
M  V30 758 H 73.487 2.98508 0.927993 0
M  V30 759 H 72.707 3.65993 -1.46434 0
M  V30 760 H 73.995 4.87759 -1.44807 0
M  V30 761 H 73.393 5.39861 1.69015 0
M  V30 762 H 71.95 6.32429 1.57722 0
M  V30 763 N 75.3831 0.828654 1.34056 0
M  V30 764 C 76.7941 0.477534 1.8049 0
M  V30 765 C 77.1451 -1.00258 1.6865 0
M  V30 766 O 76.2701 -1.78057 1.22982 0
M  V30 767 C 76.8651 0.860018 3.27703 0
M  V30 768 C 75.4241 0.561185 3.72193 0
M  V30 769 C 74.5711 1.07385 2.55663 0
M  V30 770 H 77.5221 1.0183 1.21722 0
M  V30 771 H 77.5431 0.166038 3.80138 0
M  V30 772 H 77.0551 1.93731 3.36288 0
M  V30 773 H 75.1561 -0.506465 3.69142 0
M  V30 774 H 75.2691 1.10926 4.66082 0
M  V30 775 H 73.6331 0.495149 2.49841 0
M  V30 776 H 74.4161 2.15771 2.67016 0
M  V30 777 N 76.8612 -1.46375 0.584142 0
M  V30 778 C 78.1382 -1.956 0.0033388 0
M  V30 779 C 78.5182 -1.52679 -1.45782 0
M  V30 780 O 77.8662 -0.77816 -2.14842 0
M  V30 781 C 78.0762 -3.48551 0.176891 0
M  V30 782 C 79.4242 -4.24576 0.0454609 0
M  V30 783 O 80.4482 -3.56043 0.105801 0
M  V30 784 O 79.3072 -5.46427 -0.0890376 0
M  V30 785 H 76.4012 -0.825547 -0.0490066 0
M  V30 786 H 78.9472 -1.56652 0.65256 0
M  V30 787 H 77.7192 -3.72683 1.1926 0
M  V30 788 H 77.3422 -3.94332 -0.508695 0
M  V30 789 N 78.3393 -0.321999 -1.54275 0
M  V30 790 C 79.5693 0.282642 -2.04658 0
M  V30 791 C 79.9773 1.46453 -1.19784 0
M  V30 792 O 79.3203 1.82367 -0.220932 0
M  V30 793 C 79.3823 0.781857 -3.50895 0
M  V30 794 C 79.0463 -0.277517 -4.56157 0
M  V30 795 C 80.0433 -1.11307 -5.07845 0
M  V30 796 C 77.7283 -0.425256 -5.00497 0
M  V30 797 C 79.7223 -2.08211 -6.02434 0
M  V30 798 C 77.4093 -1.39771 -5.94901 0
M  V30 799 C 78.4073 -2.2246 -6.45756 0
M  V30 800 O 78.0953 -3.18054 -7.38307 0
M  V30 801 H 77.8273 0.0622636 -0.673126 0
M  V30 802 H 80.3813 -0.465792 -2.00049 0
M  V30 803 H 78.6113 1.58118 -3.52896 0
M  V30 804 H 80.3003 1.30467 -3.84361 0
M  V30 805 H 81.0663 -1.00991 -4.74369 0
M  V30 806 H 76.9453 0.20847 -4.60528 0
M  V30 807 H 80.4893 -2.72791 -6.42052 0
M  V30 808 H 76.3863 -1.50152 -6.27794 0
M  V30 809 H 77.1543 -3.13275 -7.56175 0
M  V30 810 N 79.8174 1.5752 -0.0501392 0
M  V30 811 C 80.7474 2.14502 0.922566 0
M  V30 812 C 81.7284 1.06642 1.3252 0
M  V30 813 O 82.9134 1.34577 1.4001 0
M  V30 814 C 80.0434 2.68916 2.19776 0
M  V30 815 C 78.9974 3.8175 1.93523 0
M  V30 816 C 78.3234 4.22677 3.27487 0
M  V30 817 C 79.6234 5.06932 1.25765 0
M  V30 818 H 81.3174 2.9603 0.447952 0
M  V30 819 H 78.8634 1.42401 0.214024 0
M  V30 820 H 80.8164 3.07419 2.88222 0
M  V30 821 H 79.5404 1.84578 2.69441 0
M  V30 822 H 78.1994 3.43718 1.27489 0
M  V30 823 H 77.8474 3.35291 3.74952 0
M  V30 824 H 77.5474 4.98725 3.1072 0
M  V30 825 H 79.0714 4.63779 3.97166 0
M  V30 826 H 80.4854 5.42888 1.84244 0
M  V30 827 H 78.8824 5.88116 1.19328 0
M  V30 828 H 79.9524 4.84337 0.233536 0
M  V30 829 N 81.2955 -0.223234 1.56011 0
M  V30 830 C 82.2435 -1.29627 1.93131 0
M  V30 831 C 83.2375 -1.48608 0.813146 0
M  V30 832 O 84.4435 -1.49802 0.997966 0
M  V30 833 H 80.8185 -0.434563 0.613726 0
M  V30 834 H 82.7895 -0.955995 2.82672 0
M  V30 835 C 81.5385 -2.63983 2.26292 0
M  V30 836 H 80.8615 -2.50185 3.11846 0
M  V30 837 H 82.3015 -3.3788 2.56151 0
M  V30 838 C 80.7605 -3.18866 1.08747 0
M  V30 839 O 81.2905 -4.00192 0.347727 0
M  V30 840 N 79.4965 -2.77217 0.871743 0
M  V30 841 H 79.0435 -2.1119 1.47501 0
M  V30 842 H 79.0015 -3.1428 0.0869905 0
M  V30 843 N 82.7736 -1.49793 -0.48987 0
M  V30 844 C 83.7366 -1.66752 -1.57246 0
M  V30 845 C 84.7366 -0.538867 -1.51502 0
M  V30 846 O 85.9266 -0.805545 -1.54456 0
M  V30 847 C 83.0586 -1.67528 -2.96896 0
M  V30 848 H 84.2516 -2.63321 -1.43534 0
M  V30 849 H 81.8046 -1.38992 -0.714914 0
M  V30 850 H 82.5396 -0.725837 -3.16073 0
M  V30 851 H 82.3246 -2.49504 -3.02473 0
M  V30 852 H 83.8146 -1.82667 -3.7553 0
M  V30 853 N 84.2517 0.741722 -1.39055 0
M  V30 854 C 85.2147 1.83733 -1.37021 0
M  V30 855 C 86.2147 1.58542 -0.268534 0
M  V30 856 O 87.4047 1.66067 -0.526076 0
M  V30 857 C 84.5367 3.2141 -1.13617 0
M  V30 858 H 85.7297 1.86941 -2.34506 0
M  V30 859 H 83.2827 0.944676 -1.24521 0
M  V30 860 H 84.0177 3.23865 -0.167863 0
M  V30 861 H 83.8027 3.4109 -1.93391 0
M  V30 862 H 85.2927 4.01477 -1.14918 0
M  V30 863 N 85.7298 1.2412 0.971189 0
M  V30 864 C 86.9758 1.08041 1.71625 0
M  V30 865 C 87.3088 -0.380407 1.90438 0
M  V30 866 O 86.5838 -1.28127 1.46334 0
M  V30 867 C 86.8668 1.81682 3.10908 0
M  V30 868 C 86.7198 3.35493 2.99608 0
M  V30 869 C 88.0388 1.58671 4.10501 0
M  V30 870 H 85.1578 0.39388 0.622919 0
M  V30 871 H 87.7998 1.52743 1.13003 0
M  V30 872 H 85.9498 1.43684 3.60953 0
M  V30 873 H 87.6218 3.83068 2.57015 0
M  V30 874 H 85.8648 3.64052 2.35899 0
M  V30 875 H 86.5358 3.82217 3.98264 0
M  V30 876 H 89.0118 1.91719 3.69301 0
M  V30 877 H 87.8878 2.1266 5.06031 0
M  V30 878 H 88.1488 0.524161 4.38982 0
M  V30 879 N 87.2079 -1.17134 1.05439 0
M  V30 880 C 88.1709 -2.19439 0.661764 0
M  V30 881 C 89.1709 -1.58199 -0.288042 0
M  V30 882 O 90.3609 -1.74053 -0.0715803 0
M  V30 883 C 87.4929 -3.40889 -0.0276209 0
M  V30 884 H 88.6859 -2.55688 1.56728 0
M  V30 885 H 86.2389 -1.31259 0.848567 0
M  V30 886 H 86.9739 -3.10187 -0.94629 0
M  V30 887 H 86.7589 -3.86586 0.655238 0
M  V30 888 H 88.2489 -4.16603 -0.288342 0
M  V30 889 N 88.686 -0.835752 -1.33615 0
M  V30 890 C 89.616 -0.281739 -2.31794 0
M  V30 891 C 90.597 0.608833 -1.58831 0
M  V30 892 O 91.782 0.533035 -1.86741 0
M  V30 893 C 88.912 0.546612 -3.42971 0
M  V30 894 C 87.866 -0.247904 -4.27281 0
M  V30 895 C 87.192 0.704001 -5.30045 0
M  V30 896 C 88.492 -1.46324 -5.01385 0
M  V30 897 H 90.186 -1.10206 -2.78379 0
M  V30 898 H 87.732 -0.531388 -1.33837 0
M  V30 899 H 89.685 0.944467 -4.1068 0
M  V30 900 H 88.409 1.40011 -2.95067 0
M  V30 901 H 87.068 -0.627281 -3.61194 0
M  V30 902 H 86.716 1.55381 -4.78399 0
M  V30 903 H 86.416 0.176524 -5.87335 0
M  V30 904 H 87.94 1.09944 -6.0062 0
M  V30 905 H 89.354 -1.13871 -5.61877 0
M  V30 906 H 87.751 -1.92728 -5.6831 0
M  V30 907 H 88.821 -2.23467 -4.30338 0
M  V30 908 N 90.1641 1.46063 -0.591896 0
M  V30 909 C 91.0741 2.34192 0.13831 0
M  V30 910 C 92.0901 1.50305 0.876608 0
M  V30 911 O 93.2661 1.8315 0.837728 0
M  V30 912 C 90.3311 3.27656 1.13326 0
M  V30 913 C 89.3921 4.27445 0.39863 0
M  V30 914 C 88.6251 5.16443 1.34618 0
M  V30 915 O 88.8481 5.08553 2.58321 0
M  V30 916 O 87.7821 5.95843 0.851768 0
M  V30 917 H 91.6081 2.98002 -0.58552 0
M  V30 918 H 89.1931 1.45188 -0.352239 0
M  V30 919 H 91.0751 3.85291 1.70671 0
M  V30 920 H 89.7501 2.6643 1.83839 0
M  V30 921 H 88.6571 3.73471 -0.216895 0
M  V30 922 H 89.9901 4.91482 -0.265709 0
M  V30 923 N 91.6422 0.330177 1.54103 0
M  V30 924 C 92.8702 -0.272179 2.05102 0
M  V30 925 C 93.2852 -1.45267 1.20595 0
M  V30 926 O 92.6422 -1.8094 0.238144 0
M  V30 927 C 92.6932 -0.70023 3.54653 0
M  V30 928 O 92.4142 0.433301 4.35952 0
M  V30 929 C 93.9152 -1.3647 4.21771 0
M  V30 930 H 91.1352 -0.0549159 0.668749 0
M  V30 931 H 93.6792 0.478285 1.98828 0
M  V30 932 H 91.8342 -1.40066 3.61193 0
M  V30 933 H 92.2482 0.0947539 5.24414 0
M  V30 934 H 93.7222 -1.61509 5.27843 0
M  V30 935 H 94.1992 -2.31409 3.73292 0
M  V30 936 H 94.8052 -0.706675 4.19388 0
M  V30 937 N 93.1203 -1.57491 0.0584922 0
M  V30 938 C 94.3453 -1.97711 -0.62652 0
M  V30 939 C 94.7703 -0.936132 -1.63151 0
M  V30 940 O 94.1283 0.099811 -1.81025 0
M  V30 941 C 94.1763 -3.36989 -1.28338 0
M  V30 942 O 93.2803 -3.35433 -2.39913 0
M  V30 943 H 92.6213 -0.643868 -0.162266 0
M  V30 944 H 95.1513 -2.04193 0.129064 0
M  V30 945 H 95.1613 -3.73879 -1.63335 0
M  V30 946 H 93.8363 -4.12289 -0.546889 0
M  V30 947 H 92.4133 -3.10298 -2.06809 0
M  V30 948 N 94.5984 0.214957 -1.56127 0
M  V30 949 C 95.5284 1.2695 -1.95974 0
M  V30 950 C 96.5094 1.48539 -0.828868 0
M  V30 951 O 97.6944 1.60611 -1.09168 0
M  V30 952 C 94.8244 2.61794 -2.28214 0
M  V30 953 C 93.7784 2.54851 -3.43853 0
M  V30 954 C 93.1044 3.93785 -3.61715 0
M  V30 955 C 94.4044 2.09065 -4.78632 0
M  V30 956 H 96.0984 0.93846 -2.84312 0
M  V30 957 H 93.6444 0.449996 -1.36788 0
M  V30 958 H 95.5974 3.35731 -2.54682 0
M  V30 959 H 94.3214 2.96599 -1.36736 0
M  V30 960 H 92.9804 1.8337 -3.17444 0
M  V30 961 H 92.6284 4.25908 -2.67602 0
M  V30 962 H 92.3284 3.90019 -4.39498 0
M  V30 963 H 93.8524 4.69374 -3.90539 0
M  V30 964 H 95.2664 2.7275 -5.04262 0
M  V30 965 H 93.6634 2.16346 -5.59745 0
M  V30 966 H 94.7334 1.04315 -4.73547 0
M  V30 967 N 96.0765 1.50051 0.48192 0
M  V30 968 C 97.0395 1.67584 1.5636 0
M  V30 969 C 98.0395 0.546894 1.51214 0
M  V30 970 O 99.2295 0.813725 1.54026 0
M  V30 971 C 96.3615 1.691 2.96003 0
M  V30 972 H 97.5545 2.64078 1.42136 0
M  V30 973 H 95.1075 1.39369 0.707533 0
M  V30 974 H 95.8425 0.742589 3.15684 0
M  V30 975 H 95.6275 2.51105 3.01146 0
M  V30 976 H 97.1175 1.84656 3.74556 0
M  V30 977 N 97.5546 -0.734337 1.39446 0
M  V30 978 C 98.9656 -1.31264 1.32766 0
M  V30 979 C 99.3166 -1.96198 -0.00767497 0
M  V30 980 O 98.4416 -1.96346 -0.909796 0
M  V30 981 C 99.0366 -2.38682 2.4045 0
M  V30 982 C 97.5956 -2.92184 2.37288 0
M  V30 983 C 96.7426 -1.6576 2.22304 0
M  V30 984 H 99.6936 -0.531799 1.49525 0
M  V30 985 H 99.7146 -3.19087 2.07276 0
M  V30 986 H 99.2266 -1.91392 3.37625 0
M  V30 987 H 97.3276 -3.43752 1.43754 0
M  V30 988 H 97.4406 -3.45253 3.3217 0
M  V30 989 H 95.8046 -1.9012 1.69489 0
M  V30 990 H 96.5876 -1.20521 3.21449 0
M  V30 991 N 99.0327 -1.24633 -0.964593 0
M  V30 992 C 99.9427 -1.05859 -2.09359 0
M  V30 993 C 100.959 0.00148855 -1.74 0
M  V30 994 O 102.135 -0.197346 -2.00431 0
M  V30 995 C 99.1997 -0.668879 -3.40187 0
M  V30 996 C 98.2607 -1.80578 -3.89474 0
M  V30 997 C 97.4937 -1.43457 -5.14058 0
M  V30 998 O 97.7167 -0.325775 -5.69469 0
M  V30 999 O 96.6507 -2.2613 -5.57807 0
M  V30 1000 H 100.477 -2.00516 -2.28094 0
M  V30 1001 H 98.0617 -1.03481 -1.0776 0
M  V30 1002 H 99.9437 -0.463211 -4.18846 0
M  V30 1003 H 98.6187 0.248536 -3.22744 0
M  V30 1004 H 97.5257 -2.06623 -3.11862 0
M  V30 1005 H 98.8587 -2.70208 -4.11398 0
M  V30 1006 N 100.511 1.16574 -1.06058 0
M  V30 1007 C 101.421 2.2452 -0.680282 0
M  V30 1008 C 102.437 1.71348 0.302604 0
M  V30 1009 O 103.613 2.00822 0.152513 0
M  V30 1010 C 100.678 3.46629 -0.0700315 0
M  V30 1011 C 99.7388 4.14849 -1.10448 0
M  V30 1012 C 98.9718 5.31129 -0.523256 0
M  V30 1013 O 99.1948 5.66514 0.664709 0
M  V30 1014 O 98.1288 5.88526 -1.26179 0
M  V30 1015 H 101.955 2.59355 -1.58015 0
M  V30 1016 H 99.5398 1.24043 -0.832694 0
M  V30 1017 H 101.422 4.20543 0.268667 0
M  V30 1018 H 100.097 3.13573 0.803353 0
M  V30 1019 H 99.0038 3.42916 -1.49532 0
M  V30 1020 H 100.337 4.51954 -1.94931 0
M  V30 1021 N 101.989 0.842826 1.3317 0
M  V30 1022 C 102.919 0.294028 2.31641 0
M  V30 1023 C 103.9 -0.600401 1.59151 0
M  V30 1024 O 105.085 -0.523124 1.87022 0
M  V30 1025 C 102.215 -0.528416 3.43257 0
M  V30 1026 C 101.169 0.27056 4.27144 0
M  V30 1027 C 100.495 -0.675881 5.30411 0
M  V30 1028 C 101.795 1.48981 5.00602 0
M  V30 1029 H 103.489 1.11681 2.77791 0
M  V30 1030 H 101.035 0.538478 1.33553 0
M  V30 1031 H 102.988 -0.922674 4.11175 0
M  V30 1032 H 101.712 -1.38445 2.95805 0
M  V30 1033 H 100.371 0.646427 3.60856 0
M  V30 1034 H 100.019 -1.52842 4.79216 0
M  V30 1035 H 99.7189 -0.145374 5.8742 0
M  V30 1036 H 101.243 -1.06757 6.01195 0
M  V30 1037 H 102.657 1.16849 5.61266 0
M  V30 1038 H 101.054 1.95739 5.6728 0
M  V30 1039 H 102.124 2.25746 4.29147 0
M  V30 1040 N 103.467 -1.45747 0.599634 0
M  V30 1041 C 104.397 -2.33235 -0.111306 0
M  V30 1042 C 105.378 -1.46359 -0.866781 0
M  V30 1043 O 106.563 -1.75146 -0.838904 0
M  V30 1044 C 103.693 -3.28932 -1.11451 0
M  V30 1045 C 102.647 -4.25381 -0.472772 0
M  V30 1046 C 101.973 -5.1071 -1.58365 0
M  V30 1047 C 103.273 -5.18831 0.600948 0
M  V30 1048 H 104.967 -2.92927 0.61919 0
M  V30 1049 H 102.513 -1.40857 0.299215 0
M  V30 1050 H 104.466 -3.89002 -1.62036 0
M  V30 1051 H 103.19 -2.67381 -1.8755 0
M  V30 1052 H 101.849 -3.66598 0.0121472 0
M  V30 1053 H 101.497 -4.45533 -2.33473 0
M  V30 1054 H 101.197 -5.7604 -1.15982 0
M  V30 1055 H 102.721 -5.73647 -2.09194 0
M  V30 1056 H 104.135 -5.73019 0.179491 0
M  V30 1057 H 102.532 -5.92595 0.946076 0
M  V30 1058 H 103.602 -4.6174 1.48068 0
M  V30 1059 N 104.945 -0.338344 -1.53925 0
M  V30 1060 C 105.893 0.536231 -2.26335 0
M  V30 1061 C 106.887 1.1063 -1.28286 0
M  V30 1062 O 108.093 1.05264 -1.46012 0
M  V30 1063 H 104.468 0.191602 -0.727181 0
M  V30 1064 H 106.439 -0.0965747 -2.98244 0
M  V30 1065 C 105.188 1.67803 -3.04528 0
M  V30 1066 H 104.511 1.24864 -3.79801 0
M  V30 1067 H 105.951 2.26526 -3.58416 0
M  V30 1068 C 104.41 2.60439 -2.13712 0
M  V30 1069 O 104.94 3.6255 -1.72975 0
M  V30 1070 N 103.146 2.29006 -1.78898 0
M  V30 1071 H 102.693 1.46011 -2.12223 0
M  V30 1072 H 102.651 2.91248 -1.18416 0
M  V30 1073 N 106.423 1.57458 -0.0668435 0
M  V30 1074 C 107.373 2.0896 0.912119 0
M  V30 1075 C 108.357 0.998186 1.26195 0
M  V30 1076 O 109.549 1.26133 1.24175 0
M  V30 1077 C 106.678 2.6508 2.18145 0
M  V30 1078 C 105.764 3.81218 1.85832 0
M  V30 1079 N 106.155 4.90378 1.23948 0
M  V30 1080 C 104.453 3.9042 2.15612 0
M  V30 1081 C 105.154 5.71279 1.09616 0
M  V30 1082 N 104.13 5.19389 1.60423 0
M  V30 1083 H 107.932 2.90749 0.42924 0
M  V30 1084 H 105.446 1.6182 0.137184 0
M  V30 1085 H 107.443 3.0029 2.89192 0
M  V30 1086 H 106.103 1.84736 2.67025 0
M  V30 1087 H 107.114 5.09847 0.909731 0
M  V30 1088 H 103.791 3.21043 2.66903 0
M  V30 1089 H 105.181 6.69085 0.614425 0
M  V30 1090 N 107.901 -0.206675 1.56239 0
M  V30 1091 C 109.129 -0.945345 1.8404 0
M  V30 1092 C 109.544 -1.77336 0.647885 0
M  V30 1093 O 108.901 -1.78425 -0.383511 0
M  V30 1094 C 108.952 -1.8509 3.10522 0
M  V30 1095 O 108.673 -1.05634 4.25174 0
M  V30 1096 C 110.174 -2.70222 3.51418 0
M  V30 1097 H 107.394 -0.276372 0.61144 0
M  V30 1098 H 109.938 -0.217417 2.03341 0
M  V30 1099 H 108.093 -2.53259 2.93153 0
M  V30 1100 H 108.507 -1.67238 4.97124 0
M  V30 1101 H 109.981 -3.29438 4.42916 0
M  V30 1102 H 110.458 -3.43358 2.73864 0
M  V30 1103 H 111.064 -2.07443 3.71278 0
M  V30 1104 N 109.379 -1.50304 -0.473955 0
M  V30 1105 C 110.311 -1.65109 -1.58971 0
M  V30 1106 C 111.324 -0.532676 -1.53839 0
M  V30 1107 O 112.513 -0.805751 -1.59279 0
M  V30 1108 C 109.613 -1.61684 -2.97845 0
M  V30 1109 C 108.786 -2.8951 -3.27876 0
M  V30 1110 C 107.845 -2.78768 -4.4629 0
M  V30 1111 O 106.871 -3.52722 -4.46739 0
M  V30 1112 N 108.073 -1.9213 -5.47783 0
M  V30 1113 H 110.838 -2.61347 -1.46689 0
M  V30 1114 H 108.399 -1.47732 -0.662324 0
M  V30 1115 H 110.391 -1.52114 -3.75024 0
M  V30 1116 H 108.961 -0.731925 -3.03911 0
M  V30 1117 H 108.181 -3.13228 -2.39336 0
M  V30 1118 H 109.469 -3.74199 -3.4475 0
M  V30 1119 H 108.867 -1.31353 -5.50239 0
M  V30 1120 H 107.424 -1.88466 -6.23958 0
M  V30 1121 N 110.857 0.726932 -1.39834 0
M  V30 1122 C 112.273 1.03354 -1.21615 0
M  V30 1123 C 112.473 2.01327 -0.08338 0
M  V30 1124 O 111.529 2.46158 0.56238 0
M  V30 1125 C 112.842 1.58811 -2.55342 0
M  V30 1126 C 114.39 1.70851 -2.62257 0
M  V30 1127 C 114.865 2.29716 -3.96225 0
M  V30 1128 N 116.356 2.37116 -3.97907 0
M  V30 1129 C 117.091 2.83619 -4.98345 0
M  V30 1130 N 116.587 3.29958 -6.09179 0
M  V30 1131 N 118.38 2.82901 -4.8572 0
M  V30 1132 H 110.531 0.0773069 -2.12259 0
M  V30 1133 H 112.794 0.0969102 -0.943034 0
M  V30 1134 H 112.5 0.942855 -3.38826 0
M  V30 1135 H 112.374 2.57502 -2.75632 0
M  V30 1136 H 114.761 2.34497 -1.79152 0
M  V30 1137 H 114.842 0.707913 -2.45809 0
M  V30 1138 H 114.486 1.66696 -4.79765 0
M  V30 1139 H 114.416 3.30469 -4.09997 0
M  V30 1140 H 116.907 2.04374 -3.17868 0
M  V30 1141 H 117.22 3.63976 -6.8172 0
M  V30 1142 H 115.565 3.27946 -6.12761 0
M  V30 1143 H 118.756 2.46027 -3.98231 0
M  V30 1144 H 118.929 3.18827 -5.6414 0
M  V30 1145 N 112.336 1.25143 0.95797 0
M  V30 1146 C 113.585 1.0909 1.69654 0
M  V30 1147 C 113.898 -0.368548 1.92097 0
M  V30 1148 O 115.104 -0.649455 2.63618 0
M  V30 1149 C 113.56 1.90395 3.05414 0
M  V30 1150 C 113.168 3.4081 2.90779 0
M  V30 1151 C 114.912 1.82901 3.83076 0
M  V30 1152 C 112.819 4.14423 4.21909 0
M  V30 1153 H 111.749 0.404625 0.636235 0
M  V30 1154 H 114.4 1.4931 1.06672 0
M  V30 1155 H 112.782 1.42996 3.69281 0
M  V30 1156 H 113.956 3.95859 2.35865 0
M  V30 1157 H 112.271 3.49361 2.26575 0
M  V30 1158 H 114.868 2.35196 4.80195 0
M  V30 1159 H 115.211 0.796224 4.08615 0
M  V30 1160 H 115.744 2.28033 3.25954 0
M  V30 1161 H 112.483 5.18102 4.01561 0
M  V30 1162 H 112.003 3.64159 4.76601 0
M  V30 1163 H 113.682 4.21956 4.90471 0
M  V30 1164 N 113.814 -1.1601 1.06675 0
M  V30 1165 C 114.724 -2.24156 0.692179 0
M  V30 1166 C 115.74 -1.71507 -0.293513 0
M  V30 1167 O 116.916 -2.009 -0.141861 0
M  V30 1168 C 113.981 -3.46587 0.0884131 0
M  V30 1169 C 113.042 -4.14257 1.12646 0
M  V30 1170 C 112.275 -5.30844 0.551416 0
M  V30 1171 O 112.498 -5.66858 -0.634656 0
M  V30 1172 O 111.432 -5.87848 1.29298 0
M  V30 1173 H 115.258 -2.58513 1.59388 0
M  V30 1174 H 112.843 -1.23599 0.83926 0
M  V30 1175 H 114.725 -4.20679 -0.246361 0
M  V30 1176 H 113.4 -3.13994 -0.786712 0
M  V30 1177 H 112.307 -3.42118 1.51348 0
M  V30 1178 H 113.64 -4.50914 1.97325 0
M  V30 1179 N 115.292 -0.849877 -1.32721 0
M  V30 1180 C 116.222 -0.306308 -2.31482 0
M  V30 1181 C 117.203 0.591952 -1.59468 0
M  V30 1182 O 118.388 0.513199 -1.87296 0
M  V30 1183 C 115.518 0.510204 -3.43532 0
M  V30 1184 C 114.472 -0.293209 -4.26994 0
M  V30 1185 C 113.798 0.647743 -5.30762 0
M  V30 1186 C 115.098 -1.51634 -4.99804 0
M  V30 1187 H 116.792 -1.13153 -2.77195 0
M  V30 1188 H 114.338 -0.545553 -1.33266 0
M  V30 1189 H 116.291 0.900856 -4.11658 0
M  V30 1190 H 115.015 1.36874 -2.96535 0
M  V30 1191 H 113.674 -0.665555 -3.60508 0
M  V30 1192 H 113.322 1.50299 -4.8002 0
M  V30 1193 H 113.022 0.11422 -5.87489 0
M  V30 1194 H 114.546 1.03567 -6.01753 0
M  V30 1195 H 115.96 -1.19824 -5.60638 0
M  V30 1196 H 114.357 -1.98745 -5.66234 0
M  V30 1197 H 115.427 -2.28018 -4.27943 0
M  V30 1198 N 116.77 1.45427 -0.607355 0
M  V30 1199 C 117.702 2.2871 0.149752 0
M  V30 1200 C 118.715 1.39937 0.831958 0
M  V30 1201 O 119.904 1.64313 0.697385 0
M  V30 1202 C 117.004 3.15673 1.23304 0
M  V30 1203 C 116.177 4.32722 0.637996 0
M  V30 1204 C 115.236 5.00895 1.61215 0
M  V30 1205 O 114.262 5.57697 1.13854 0
M  V30 1206 N 115.464 5.00159 2.94655 0
M  V30 1207 H 118.229 2.94328 -0.564882 0
M  V30 1208 H 115.79 1.55612 -0.446823 0
M  V30 1209 H 117.782 3.58144 1.88454 0
M  V30 1210 H 116.352 2.51965 1.8502 0
M  V30 1211 H 115.572 3.93734 -0.191572 0
M  V30 1212 H 116.86 5.08321 0.220665 0
M  V30 1213 H 116.258 4.553 3.35735 0
M  V30 1214 H 114.815 5.46495 3.55228 0
M  V30 1215 N 118.248 0.346503 1.53744 0
M  V30 1216 C 119.18 -0.543316 2.22667 0
M  V30 1217 C 120.193 -1.06159 1.23427 0
M  V30 1218 O 121.382 -0.971235 1.49764 0
M  V30 1219 C 118.482 -1.76076 2.89569 0
M  V30 1220 C 117.655 -1.37727 4.15151 0
M  V30 1221 C 116.714 -2.45471 4.65436 0
M  V30 1222 O 115.74 -2.08655 5.29577 0
M  V30 1223 N 116.942 -3.7677 4.41616 0
M  V30 1224 H 119.707 0.0469703 2.99663 0
M  V30 1225 H 117.268 0.170766 1.60997 0
M  V30 1226 H 119.26 -2.47593 3.20125 0
M  V30 1227 H 117.83 -2.25835 2.16142 0
M  V30 1228 H 117.05 -0.492746 3.91108 0
M  V30 1229 H 118.338 -1.09708 4.96832 0
M  V30 1230 H 117.736 -4.09467 3.90325 0
M  V30 1231 H 116.293 -4.44448 4.7677 0
M  V30 1232 N 119.726 -1.57421 0.075193 0
M  V30 1233 C 120.974 -1.93236 -0.591974 0
M  V30 1234 C 121.295 -0.956241 -1.69944 0
M  V30 1235 O 120.565 -0.00494792 -1.95899 0
M  V30 1236 H 119.145 -0.713355 -0.22166 0
M  V30 1237 H 121.807 -1.9444 0.133848 0
M  V30 1238 H 120.903 -2.95131 -1.01509 0
M  V30 1239 N 121.204 0.198386 -1.56346 0
M  V30 1240 C 122.62 0.549085 -1.49857 0
M  V30 1241 C 122.82 1.86016 -0.774611 0
M  V30 1242 O 121.876 2.50416 -0.323776 0
M  V30 1243 C 123.189 0.606868 -2.94512 0
M  V30 1244 C 124.737 0.695925 -3.05165 0
M  V30 1245 C 125.212 0.784848 -4.51225 0
M  V30 1246 N 126.703 0.848463 -4.55363 0
M  V30 1247 C 127.438 0.937378 -5.65686 0
M  V30 1248 N 126.934 0.9888 -6.85707 0
M  V30 1249 N 128.727 0.974312 -5.53592 0
M  V30 1250 H 120.878 -0.661655 -2.01831 0
M  V30 1251 H 123.141 -0.235261 -0.918344 0
M  V30 1252 H 122.847 -0.28732 -3.50524 0
M  V30 1253 H 122.721 1.46268 -3.47686 0
M  V30 1254 H 125.108 1.58055 -2.49204 0
M  V30 1255 H 125.189 -0.186022 -2.55123 0
M  V30 1256 H 124.833 -0.0954072 -5.0781 0
M  V30 1257 H 124.763 1.68255 -4.98997 0
M  V30 1258 H 127.254 0.818103 -3.68938 0
M  V30 1259 H 127.567 1.05707 -7.65536 0
M  V30 1260 H 125.912 0.957534 -6.88372 0
M  V30 1261 H 129.103 0.930954 -4.58749 0
M  V30 1262 H 129.276 1.04015 -6.39597 0
M  V30 1263 N 122.682 1.50554 0.465978 0
M  V30 1264 C 123.928 1.62038 1.21949 0
M  V30 1265 C 124.261 0.322116 1.9151 0
M  V30 1266 O 123.536 -0.676723 1.82348 0
M  V30 1267 C 123.819 2.80421 2.25912 0
M  V30 1268 C 123.672 4.20144 1.60622 0
M  V30 1269 C 124.991 2.94354 3.27176 0
M  V30 1270 H 122.11 0.589752 0.441998 0
M  V30 1271 H 124.752 1.82956 0.51257 0
M  V30 1272 H 122.902 2.62717 2.86203 0
M  V30 1273 H 124.574 4.49449 1.03889 0
M  V30 1274 H 122.817 4.24165 0.909211 0
M  V30 1275 H 123.488 4.98914 2.36196 0
M  V30 1276 H 125.964 3.10578 2.76913 0
M  V30 1277 H 124.84 3.788 3.97242 0
M  V30 1278 H 125.101 2.05186 3.916 0
M  V30 1279 N 124.16 -0.719506 1.40217 0
M  V30 1280 C 125.576 -1.02707 1.22161 0
M  V30 1281 C 125.776 -2.0128 0.0940557 0
M  V30 1282 O 124.832 -2.46452 -0.549318 0
M  V30 1283 C 126.145 -1.57454 2.56181 0
M  V30 1284 C 127.693 -1.69458 2.63159 0
M  V30 1285 C 128.168 -2.27611 3.97438 0
M  V30 1286 N 129.659 -2.35002 3.99159 0
M  V30 1287 C 130.394 -2.80972 4.99842 0
M  V30 1288 N 129.89 -3.26723 6.10921 0
M  V30 1289 N 131.683 -2.80321 4.87213 0
M  V30 1290 H 123.834 -0.0660492 2.12297 0
M  V30 1291 H 126.097 -0.0919077 0.943534 0
M  V30 1292 H 125.803 -0.924873 3.39321 0
M  V30 1293 H 125.677 -2.56036 2.76993 0
M  V30 1294 H 128.064 -2.33543 1.80393 0
M  V30 1295 H 128.145 -0.694867 2.46181 0
M  V30 1296 H 127.789 -1.6415 4.80643 0
M  V30 1297 H 127.719 -3.2829 4.11744 0
M  V30 1298 H 130.21 -2.02685 3.18947 0
M  V30 1299 H 130.523 -3.60355 6.8364 0
M  V30 1300 H 128.868 -3.24692 6.14492 0
M  V30 1301 H 132.059 -2.43912 3.9953 0
M  V30 1302 H 132.232 -3.15831 5.65822 0
M  V30 1303 N 125.638 -1.25649 -0.95132 0
M  V30 1304 C 126.585 -1.06323 -2.04851 0
M  V30 1305 C 127.555 0.0286491 -1.66075 0
M  V30 1306 O 128.74 -0.12917 -1.90362 0
M  V30 1307 C 125.88 -0.691529 -3.381 0
M  V30 1308 C 124.993 -1.85861 -3.89974 0
M  V30 1309 C 124.128 -1.43096 -5.11563 0
M  V30 1310 C 123.167 -2.56696 -5.55674 0
M  V30 1311 N 122.304 -2.14684 -6.68472 0
M  V30 1312 H 127.144 -2.00222 -2.20715 0
M  V30 1313 H 124.681 -0.997027 -1.08156 0
M  V30 1314 H 126.639 -0.456963 -4.1469 0
M  V30 1315 H 125.269 0.210474 -3.22113 0
M  V30 1316 H 124.321 -2.20639 -3.09875 0
M  V30 1317 H 125.633 -2.71161 -4.18657 0
M  V30 1318 H 124.787 -1.15624 -5.9558 0
M  V30 1319 H 123.526 -0.548722 -4.84603 0
M  V30 1320 H 122.531 -2.84909 -4.7022 0
M  V30 1321 H 123.756 -3.45503 -5.8464 0
M  V30 1322 H 121.702 -1.28881 -6.43215 0
M  V30 1323 H 121.619 -2.9353 -6.96689 0
M  V30 1324 H 122.887 -1.90397 -7.5589 0
M  V30 1325 N 127.117 1.15442 -1.07289 0
M  V30 1326 C 128.08 2.18358 -0.696591 0
M  V30 1327 C 129.08 1.58637 0.262837 0
M  V30 1328 O 130.27 1.74145 0.0438809 0
M  V30 1329 C 127.402 3.4089 -0.0266151 0
M  V30 1330 H 128.595 2.53162 -1.60776 0
M  V30 1331 H 126.148 1.29893 -0.869342 0
M  V30 1332 H 126.883 3.11653 0.896822 0
M  V30 1333 H 126.668 3.85495 -0.716657 0
M  V30 1334 H 128.158 4.17009 0.222028 0
M  V30 1335 N 128.595 0.856903 1.32268 0
M  V30 1336 C 129.505 0.306131 2.32594 0
M  V30 1337 C 130.521 -0.577209 1.64147 0
M  V30 1338 O 131.697 -0.477043 1.95669 0
M  V30 1339 C 128.762 -0.494561 3.43154 0
M  V30 1340 C 127.823 0.415186 4.27288 0
M  V30 1341 C 127.056 -0.347387 5.32568 0
M  V30 1342 O 127.279 -1.57708 5.48165 0
M  V30 1343 O 126.213 0.287982 6.01211 0
M  V30 1344 H 130.039 1.13737 2.81598 0
M  V30 1345 H 127.624 0.619902 1.35932 0
M  V30 1346 H 129.506 -0.948944 4.10576 0
M  V30 1347 H 128.181 -1.30257 2.96336 0
M  V30 1348 H 127.088 0.917793 3.62667 0
M  V30 1349 H 128.421 1.18844 4.77637 0
M  V30 1350 N 130.073 -1.45103 0.615059 0
M  V30 1351 C 131.489 -1.57137 0.279322 0
M  V30 1352 C 131.689 -1.60523 -1.21797 0
M  V30 1353 O 130.745 -1.53956 -2.00134 0
M  V30 1354 C 132.058 -2.85062 0.957083 0
M  V30 1355 C 133.606 -2.98749 0.933706 0
M  V30 1356 C 134.081 -4.29455 1.59162 0
M  V30 1357 N 135.572 -4.36231 1.55746 0
M  V30 1358 C 136.307 -5.36051 2.0356 0
M  V30 1359 N 135.803 -6.42367 2.59494 0
M  V30 1360 N 137.596 -5.27456 1.94284 0
M  V30 1361 H 129.747 -1.41148 1.58717 0
M  V30 1362 H 132.01 -0.675331 0.665306 0
M  V30 1363 H 131.716 -2.88488 2.01166 0
M  V30 1364 H 131.59 -3.7407 0.48494 0
M  V30 1365 H 133.977 -2.94886 -0.112347 0
M  V30 1366 H 134.058 -2.11132 1.44419 0
M  V30 1367 H 133.702 -4.34077 2.63704 0
M  V30 1368 H 133.632 -5.15901 1.0561 0
M  V30 1369 H 136.123 -3.60011 1.14893 0
M  V30 1370 H 136.436 -7.14793 2.93752 0
M  V30 1371 H 134.781 -6.43097 2.63537 0
M  V30 1372 H 137.972 -4.43308 1.5032 0
M  V30 1373 H 138.145 -6.05099 2.3186 0
M  V30 1374 N 131.551 -0.354651 -1.53558 0
M  V30 1375 C 132.797 0.231422 -2.02079 0
M  V30 1376 C 133.152 1.47308 -1.23767 0
M  V30 1377 O 132.445 1.8891 -0.319947 0
M  V30 1378 C 132.639 0.587121 -3.52545 0
M  V30 1379 C 132.468 -0.618513 -4.45426 0
M  V30 1380 C 131.238 -1.12724 -4.92566 0
M  V30 1381 C 133.436 -1.48039 -4.92533 0
M  V30 1382 N 131.418 -2.29404 -5.69427 0
M  V30 1383 C 132.789 -2.49397 -5.67628 0
M  V30 1384 C 134.844 -1.50454 -4.74624 0
M  V30 1385 C 133.547 -3.53013 -6.26717 0
M  V30 1386 C 135.573 -2.52958 -5.34571 0
M  V30 1387 C 134.935 -3.5304 -6.09543 0
M  V30 1388 H 131.034 0.0476909 -0.780544 0
M  V30 1389 H 133.618 -0.496727 -1.88257 0
M  V30 1390 H 131.789 1.28436 -3.6655 0
M  V30 1391 H 133.521 1.15734 -3.87799 0
M  V30 1392 H 130.276 -0.693577 -4.68494 0
M  V30 1393 H 130.7 -2.88347 -6.12524 0
M  V30 1394 H 135.342 -0.744356 -4.16196 0
M  V30 1395 H 133.06 -4.2992 -6.84247 0
M  V30 1396 H 136.646 -2.55667 -5.22614 0
M  V30 1397 H 135.526 -4.31056 -6.55103 0
M  V30 1398 N 133.029 1.57378 -0.0835403 0
M  V30 1399 C 134.277 1.93547 0.581718 0
M  V30 1400 C 134.598 0.96524 1.69435 0
M  V30 1401 O 133.868 0.0153369 1.95894 0
M  V30 1402 H 132.448 0.714521 0.217874 0
M  V30 1403 H 135.11 1.94366 -0.144158 0
M  V30 1404 H 134.206 2.95665 0.999423 0
M  V30 1405 N 134.507 -0.190092 1.56449 0
M  V30 1406 C 135.918 -0.754312 1.70784 0
M  V30 1407 C 136.269 -1.83631 0.690951 0
M  V30 1408 O 135.394 -2.15868 -0.151604 0
M  V30 1409 C 135.989 -1.37503 3.09642 0
M  V30 1410 C 134.548 -1.88628 3.25725 0
M  V30 1411 C 133.695 -0.758098 2.66736 0
M  V30 1412 H 136.646 0.0350524 1.58661 0
M  V30 1413 H 136.667 -2.2445 3.0725 0
M  V30 1414 H 136.179 -0.587302 3.83631 0
M  V30 1415 H 134.28 -2.70103 2.56661 0
M  V30 1416 H 134.393 -2.04462 4.3328 0
M  V30 1417 H 132.757 -1.17369 2.26046 0
M  V30 1418 H 133.54 0.0174705 3.43296 0
M  V30 1419 N 135.985 -1.50799 -0.457987 0
M  V30 1420 C 137.401 -1.38515 -0.792819 0
M  V30 1421 C 137.601 -0.451409 -1.96379 0
M  V30 1422 O 136.657 0.10112 -2.52297 0
M  V30 1423 C 137.97 -2.80149 -1.09258 0
M  V30 1424 C 139.518 -2.89156 -1.19825 0
M  V30 1425 C 139.993 -4.31651 -1.53106 0
M  V30 1426 N 141.484 -4.34662 -1.60072 0
M  V30 1427 C 142.219 -5.41928 -1.87354 0
M  V30 1428 N 141.715 -6.59384 -2.12568 0
M  V30 1429 N 143.508 -5.29385 -1.88965 0
M  V30 1430 H 135.659 -2.10073 0.313511 0
M  V30 1431 H 137.922 -0.944803 0.0777862 0
M  V30 1432 H 137.628 -3.50374 -0.305084 0
M  V30 1433 H 137.502 -3.18204 -2.02549 0
M  V30 1434 H 139.889 -2.19141 -1.97639 0
M  V30 1435 H 139.97 -2.54626 -0.244821 0
M  V30 1436 H 139.614 -5.02208 -0.758266 0
M  V30 1437 H 139.544 -4.63678 -2.49621 0
M  V30 1438 H 142.035 -3.49973 -1.42573 0
M  V30 1439 H 142.348 -7.36934 -2.32696 0
M  V30 1440 H 140.693 -6.62535 -2.09933 0
M  V30 1441 H 143.884 -4.36616 -1.68772 0
M  V30 1442 H 144.057 -6.13066 -2.09891 0
M  V30 1443 N 137.463 0.71206 -1.40597 0
M  V30 1444 C 138.691 1.50111 -1.42388 0
M  V30 1445 C 139.106 1.88784 -0.0245395 0
M  V30 1446 O 138.463 1.55681 0.952351 0
M  V30 1447 C 138.514 2.7742 -2.31776 0
M  V30 1448 O 138.235 2.40382 -3.66262 0
M  V30 1449 C 139.736 3.7129 -2.42196 0
M  V30 1450 H 136.956 0.46314 -0.485533 0
M  V30 1451 H 139.5 0.878068 -1.8469 0
M  V30 1452 H 137.655 3.36001 -1.92827 0
M  V30 1453 H 138.069 3.22324 -4.13772 0
M  V30 1454 H 139.543 4.57448 -3.08943 0
M  V30 1455 H 140.02 4.14641 -1.44809 0
M  V30 1456 H 140.626 3.18619 -2.81712 0
M  V30 1457 N 138.941 1.26152 0.944643 0
M  V30 1458 C 139.871 1.09902 2.06019 0
M  V30 1459 C 140.852 0.00519538 1.70099 0
M  V30 1460 O 142.037 0.176583 1.93396 0
M  V30 1461 C 139.167 0.727562 3.39594 0
M  V30 1462 C 138.121 1.77274 3.89561 0
M  V30 1463 C 137.447 1.25569 5.19747 0
M  V30 1464 C 138.747 3.17357 4.14827 0
M  V30 1465 H 140.441 2.03217 2.19871 0
M  V30 1466 H 137.987 0.978452 1.05652 0
M  V30 1467 H 139.94 0.600777 4.17095 0
M  V30 1468 H 138.664 -0.241287 3.25707 0
M  V30 1469 H 137.323 1.88814 3.14237 0
M  V30 1470 H 136.971 0.276783 5.02238 0
M  V30 1471 H 136.671 1.95433 5.54148 0
M  V30 1472 H 138.195 1.1415 5.99835 0
M  V30 1473 H 139.609 3.08914 4.82954 0
M  V30 1474 H 138.006 3.84781 4.60504 0
M  V30 1475 H 139.076 3.63673 3.20734 0
M  V30 1476 N 140.419 -1.14872 1.07899 0
M  V30 1477 C 141.696 -1.81928 0.71845 0
M  V30 1478 C 142.076 -1.95417 -0.798455 0
M  V30 1479 O 141.424 -1.50997 -1.715 0
M  V30 1480 C 141.634 -3.17937 1.43935 0
M  V30 1481 C 142.982 -3.93501 1.59506 0
M  V30 1482 O 144.006 -3.27509 1.40058 0
M  V30 1483 O 142.865 -5.1183 1.91551 0
M  V30 1484 H 139.959 -0.78628 0.256305 0
M  V30 1485 H 142.505 -1.21934 1.18026 0
M  V30 1486 H 141.277 -3.0325 2.47295 0
M  V30 1487 H 140.9 -3.85619 0.968687 0
M  V30 1488 N 141.898 -0.863906 -1.31812 0
M  V30 1489 C 142.828 -0.330843 -2.31144 0
M  V30 1490 C 143.809 0.575005 -1.60087 0
M  V30 1491 O 144.994 0.493304 -1.8783 0
M  V30 1492 C 142.124 0.47374 -3.44054 0
M  V30 1493 C 141.078 -0.338481 -4.26659 0
M  V30 1494 C 140.404 0.591412 -5.31419 0
M  V30 1495 C 141.704 -1.56926 -4.98168 0
M  V30 1496 H 143.398 -1.16086 -2.75979 0
M  V30 1497 H 140.944 -0.559657 -1.32679 0
M  V30 1498 H 142.897 0.857143 -4.12591 0
M  V30 1499 H 141.621 1.33721 -2.9797 0
M  V30 1500 H 140.28 -0.703754 -3.59782 0
M  V30 1501 H 139.928 1.45199 -4.81587 0
M  V30 1502 H 139.628 0.0519022 -5.87577 0
M  V30 1503 H 141.152 0.97179 -6.02817 0
M  V30 1504 H 142.566 -1.25764 -5.59336 0
M  V30 1505 H 140.963 -2.04739 -5.64094 0
M  V30 1506 H 142.033 -2.32544 -4.25501 0
M  V30 1507 N 143.376 1.44774 -0.622745 0
M  V30 1508 C 144.653 1.95522 -0.0551974 0
M  V30 1509 C 145.033 1.5649 1.41683 0
M  V30 1510 O 144.381 0.834848 2.12703 0
M  V30 1511 C 144.591 3.4796 -0.269242 0
M  V30 1512 C 145.939 4.24306 -0.158014 0
M  V30 1513 O 146.963 3.55637 -0.200162 0
M  V30 1514 O 145.822 5.46471 -0.0558693 0
M  V30 1515 H 142.916 0.826556 0.0271015 0
M  V30 1516 H 145.462 1.54866 -0.693864 0
M  V30 1517 H 144.234 3.6939 -1.29099 0
M  V30 1518 H 143.857 3.95543 0.403966 0
M  V30 1519 N 144.854 0.36279 1.53368 0
M  V30 1520 C 146.103 -0.22888 2.00397 0
M  V30 1521 C 146.416 -1.50096 1.25421 0
M  V30 1522 O 147.622 -2.17106 1.63025 0
M  V30 1523 C 146.078 -0.458417 3.56969 0
M  V30 1524 C 145.686 0.798877 4.4082 0
M  V30 1525 C 147.43 -1.00789 4.12361 0
M  V30 1526 C 145.337 0.539078 5.88938 0
M  V30 1527 H 144.267 -0.089305 0.748693 0
M  V30 1528 H 146.918 0.481099 1.77081 0
M  V30 1529 H 145.3 -1.22959 3.76427 0
M  V30 1530 H 146.474 1.57262 4.33134 0
M  V30 1531 H 144.789 1.27137 3.96516 0
M  V30 1532 H 147.386 -1.21754 5.20653 0
M  V30 1533 H 147.729 -1.9692 3.66781 0
M  V30 1534 H 148.262 -0.296961 3.9669 0
M  V30 1535 H 145.001 1.47064 6.3879 0
M  V30 1536 H 144.521 -0.196222 5.99479 0
M  V30 1537 H 146.2 0.163542 6.46793 0
M  V30 1538 N 146.332 -1.57332 0.0918853 0
M  V30 1539 C 147.265 -2.09499 -0.904735 0
M  V30 1540 C 148.243 -1.00479 -1.27839 0
M  V30 1541 O 149.427 -1.27954 -1.38419 0
M  V30 1542 C 146.554 -2.56931 -2.2069 0
M  V30 1543 C 145.6 -3.77579 -1.98334 0
M  V30 1544 S 146.433 -5.21317 -1.22428 0
M  V30 1545 C 147.589 -5.72097 -2.53882 0
M  V30 1546 H 147.822 -2.93705 -0.460922 0
M  V30 1547 H 145.355 -1.53923 -0.121332 0
M  V30 1548 H 147.313 -2.84917 -2.95521 0
M  V30 1549 H 145.974 -1.72956 -2.62192 0
M  V30 1550 H 145.167 -4.08824 -2.94752 0
M  V30 1551 H 144.769 -3.5007 -1.31633 0
M  V30 1552 H 147.061 -5.80168 -3.49874 0
M  V30 1553 H 148.004 -6.70654 -2.27219 0
M  V30 1554 H 148.412 -5.00012 -2.62007 0
M  V30 1555 N 147.81 0.181792 -1.56548 0
M  V30 1556 C 148.74 1.22765 -1.98623 0
M  V30 1557 C 149.721 1.46747 -0.860189 0
M  V30 1558 O 150.906 1.58259 -1.12551 0
M  V30 1559 C 148.036 2.56894 -2.33715 0
M  V30 1560 C 146.99 2.475 -3.49182 0
M  V30 1561 C 146.316 3.86023 -3.69986 0
M  V30 1562 C 147.616 1.98866 -4.82959 0
M  V30 1563 H 149.31 0.877942 -2.86239 0
M  V30 1564 H 146.856 0.42088 -1.37712 0
M  V30 1565 H 148.809 3.30253 -2.61746 0
M  V30 1566 H 147.533 2.93632 -1.42997 0
M  V30 1567 H 146.192 1.76596 -3.21262 0
M  V30 1568 H 145.84 4.20136 -2.76576 0
M  V30 1569 H 145.54 3.80609 -4.47672 0
M  V30 1570 H 147.064 4.60984 -4.00407 0
M  V30 1571 H 148.478 2.61992 -5.09934 0
M  V30 1572 H 146.875 2.04424 -5.64208 0
M  V30 1573 H 147.945 0.942465 -4.75653 0
M  V30 1574 N 149.288 1.51039 0.449983 0
M  V30 1575 C 150.535 1.63081 1.20045 0
M  V30 1576 C 150.863 0.341024 1.91487 0
M  V30 1577 O 150.118 -0.674276 1.83717 0
M  V30 1578 C 150.417 2.77556 2.25161 0
M  V30 1579 C 150.083 4.17289 1.70823 0
M  V30 1580 C 148.745 4.55305 1.55725 0
M  V30 1581 C 151.097 5.04536 1.3074 0
M  V30 1582 C 148.425 5.78287 0.989999 0
M  V30 1583 C 150.777 6.28085 0.754482 0
M  V30 1584 C 149.441 6.64885 0.590308 0
M  V30 1585 H 148.711 0.596755 0.439277 0
M  V30 1586 H 151.358 1.85037 0.49333 0
M  V30 1587 H 149.663 2.49771 3.01863 0
M  V30 1588 H 151.36 2.84073 2.83026 0
M  V30 1589 H 147.95 3.8731 1.83546 0
M  V30 1590 H 152.134 4.75782 1.41229 0
M  V30 1591 H 147.39 6.05456 0.850451 0
M  V30 1592 H 151.564 6.95038 0.435324 0
M  V30 1593 H 149.191 7.60055 0.14862 0
M  V30 1594 N 150.766 -0.704594 1.40972 0
M  V30 1595 C 152.014 -1.46169 1.39568 0
M  V30 1596 C 152.335 -1.95 0.00253745 0
M  V30 1597 O 151.605 -1.71095 -0.954114 0
M  V30 1598 H 150.185 -0.542326 0.513704 0
M  V30 1599 H 152.847 -0.834553 1.76128 0
M  V30 1600 H 151.943 -2.32922 2.07735 0
M  V30 1601 N 152.244 -1.26651 -0.937939 0
M  V30 1602 C 153.192 -1.08308 -2.05845 0
M  V30 1603 C 154.186 -0.0090757 -1.69398 0
M  V30 1604 O 155.392 -0.166007 -1.79233 0
M  V30 1605 H 151.767 -0.333416 -0.674046 0
M  V30 1606 H 153.738 -2.03261 -2.18467 0
M  V30 1607 C 152.487 -0.736229 -3.39816 0
M  V30 1608 H 151.81 -1.55453 -3.6834 0
M  V30 1609 H 153.25 -0.64769 -4.19024 0
M  V30 1610 C 151.709 0.558824 -3.32233 0
M  V30 1611 O 152.239 1.59621 -3.68624 0
M  V30 1612 N 150.445 0.550657 -2.85335 0
M  V30 1613 H 149.992 -0.293943 -2.55917 0
M  V30 1614 H 149.95 1.41726 -2.80644 0
M  V30 1615 N 153.722 1.14298 -1.08507 0
M  V30 1616 C 154.632 2.23027 -0.727753 0
M  V30 1617 C 155.648 1.71952 0.26619 0
M  V30 1618 O 156.824 2.011 0.109882 0
M  V30 1619 C 153.889 3.46403 -0.143541 0
M  V30 1620 C 152.95 4.12413 -1.19223 0
M  V30 1621 C 152.183 5.29899 -0.635798 0
M  V30 1622 O 152.406 5.67796 0.544393 0
M  V30 1623 O 151.34 5.85717 -1.38634 0
M  V30 1624 H 155.166 2.55945 -1.63481 0
M  V30 1625 H 152.751 1.22248 -0.858817 0
M  V30 1626 H 154.633 4.21018 0.179404 0
M  V30 1627 H 153.308 3.15206 0.736659 0
M  V30 1628 H 152.215 3.39667 -1.56772 0
M  V30 1629 H 153.548 4.47718 -2.04474 0
M  V30 1630 N 155.201 0.870884 1.31352 0
M  V30 1631 C 156.447 0.482987 1.96965 0
M  V30 1632 C 156.78 -0.962462 1.68672 0
M  V30 1633 O 156.055 -1.6779 0.98371 0
M  V30 1634 C 156.338 0.741752 3.52378 0
M  V30 1635 C 156.191 2.2368 3.9024 0
M  V30 1636 C 157.51 0.208838 4.39604 0
M  V30 1637 H 154.629 0.176955 0.715441 0
M  V30 1638 H 157.271 1.09229 1.55464 0
M  V30 1639 H 155.421 0.223149 3.87859 0
M  V30 1640 H 157.093 2.82273 3.64856 0
M  V30 1641 H 155.336 2.70901 3.38814 0
M  V30 1642 H 156.007 2.3685 4.98604 0
M  V30 1643 H 158.483 0.652529 4.10952 0
M  V30 1644 H 157.359 0.419336 5.47296 0
M  V30 1645 H 157.62 -0.889275 4.33064 0
M  V30 1646 N 156.679 -1.44442 0.630414 0
M  V30 1647 C 157.928 -2.01267 0.132073 0
M  V30 1648 C 158.241 -1.50172 -1.25331 0
M  V30 1649 O 159.447 -1.9912 -1.84562 0
M  V30 1650 C 157.903 -3.59422 0.185362 0
M  V30 1651 C 157.511 -4.19514 1.57201 0
M  V30 1652 C 159.255 -4.23724 -0.256553 0
M  V30 1653 C 157.162 -5.69891 1.58045 0
M  V30 1654 H 156.092 -0.752619 0.0456092 0
M  V30 1655 H 158.743 -1.65666 0.789106 0
M  V30 1656 H 157.125 -3.92318 -0.538759 0
M  V30 1657 H 158.299 -3.98156 2.31966 0
M  V30 1658 H 156.614 -3.67496 1.95795 0
M  V30 1659 H 159.211 -5.34019 -0.269767 0
M  V30 1660 H 159.554 -3.96013 -1.28372 0
M  V30 1661 H 160.087 -3.95629 0.41505 0
M  V30 1662 H 156.826 -6.02336 2.58597 0
M  V30 1663 H 156.346 -5.93373 0.875725 0
M  V30 1664 H 158.025 -6.33515 1.31408 0
M  V30 1665 N 158.157 -0.370918 -1.53173 0
M  V30 1666 C 159.105 0.488101 -2.27421 0
M  V30 1667 C 160.099 1.07884 -1.30604 0
M  V30 1668 O 161.305 1.02143 -1.48212 0
M  V30 1669 H 157.68 0.176134 -0.731082 0
M  V30 1670 H 159.651 -0.159815 -2.97972 0
M  V30 1671 C 158.4 1.61306 -3.08019 0
M  V30 1672 H 157.723 1.1678 -3.82364 0
M  V30 1673 H 159.163 2.18872 -3.63141 0
M  V30 1674 C 157.622 2.55848 -2.19188 0
M  V30 1675 O 158.152 3.58799 -1.80626 0
M  V30 1676 N 156.358 2.2516 -1.83715 0
M  V30 1677 H 155.905 1.41476 -2.15273 0
M  V30 1678 H 155.863 2.8867 -1.24567 0
M  V30 1679 N 159.635 1.57281 -0.100228 0
M  V30 1680 C 160.863 1.98879 0.570509 0
M  V30 1681 C 161.278 0.979476 1.61405 0
M  V30 1682 O 160.635 -0.0302288 1.82475 0
M  V30 1683 C 160.686 3.4052 1.2136 0
M  V30 1684 O 160.407 4.37588 0.211786 0
M  V30 1685 C 161.908 3.97149 1.96945 0
M  V30 1686 H 159.128 0.653428 0.152555 0
M  V30 1687 H 161.672 2.03697 -0.18103 0
M  V30 1688 H 159.827 3.367 1.91603 0
M  V30 1689 H 160.241 5.20118 0.676607 0
M  V30 1690 H 161.715 4.98393 2.37294 0
M  V30 1691 H 162.192 3.3525 2.83733 0
M  V30 1692 H 162.798 4.04458 1.31506 0
M  V30 1693 N 161.113 -0.173488 1.56642 0
M  V30 1694 C 162.023 -1.23482 1.99473 0
M  V30 1695 C 163.039 -1.48567 0.905752 0
M  V30 1696 O 164.215 -1.60758 1.21321 0
M  V30 1697 C 161.28 -2.55444 2.34413 0
M  V30 1698 C 160.341 -2.38241 3.57127 0
M  V30 1699 C 159.574 -3.63909 3.90392 0
M  V30 1700 O 159.797 -4.68996 3.24653 0
M  V30 1701 O 158.731 -3.58149 4.83749 0
M  V30 1702 H 162.557 -0.901279 2.90018 0
M  V30 1703 H 160.142 -0.380185 1.44482 0
M  V30 1704 H 162.024 -3.33292 2.57865 0
M  V30 1705 H 160.699 -2.88382 1.4703 0
M  V30 1706 H 159.606 -1.58431 3.38896 0
M  V30 1707 H 160.939 -2.10228 4.45045 0
M  V30 1708 N 162.591 -1.51276 -0.441967 0
M  V30 1709 C 164.007 -1.39349 -0.778083 0
M  V30 1710 C 164.207 -0.472212 -1.95889 0
M  V30 1711 O 163.263 0.0743551 -2.5239 0
M  V30 1712 C 164.576 -2.81292 -1.0628 0
M  V30 1713 C 166.124 -2.9041 -1.16751 0
M  V30 1714 C 166.599 -4.33251 -1.48519 0
M  V30 1715 N 168.09 -4.36336 -1.55453 0
M  V30 1716 C 168.825 -5.43885 -1.81596 0
M  V30 1717 N 168.321 -6.61601 -2.05562 0
M  V30 1718 N 170.114 -5.3136 -1.8334 0
M  V30 1719 H 162.265 -2.09729 0.335774 0
M  V30 1720 H 164.528 -0.943925 0.0878028 0
M  V30 1721 H 164.234 -3.50678 -0.267905 0
M  V30 1722 H 164.108 -3.20334 -1.99163 0
M  V30 1723 H 166.495 -2.21225 -1.95304 0
M  V30 1724 H 166.576 -2.54871 -0.217801 0
M  V30 1725 H 166.22 -5.02984 -0.704958 0
M  V30 1726 H 166.15 -4.66299 -2.44689 0
M  V30 1727 H 168.641 -3.51466 -1.38853 0
M  V30 1728 H 168.954 -7.39361 -2.24867 0
M  V30 1729 H 167.299 -6.64725 -2.02894 0
M  V30 1730 H 170.49 -4.38382 -1.64132 0
M  V30 1731 H 170.663 -6.15258 -2.03377 0
M  V30 1732 N 164.069 0.697108 -1.41344 0
M  V30 1733 C 164.999 1.82353 -1.45841 0
M  V30 1734 C 165.98 1.67115 -0.317247 0
M  V30 1735 O 167.165 1.86871 -0.528474 0
M  V30 1736 C 164.295 3.20476 -1.33838 0
M  V30 1737 C 163.249 3.50415 -2.4575 0
M  V30 1738 C 162.575 4.87878 -2.18813 0
M  V30 1739 C 163.875 3.49546 -3.88091 0
M  V30 1740 H 165.569 1.78846 -2.40113 0
M  V30 1741 H 163.115 0.859028 -1.15571 0
M  V30 1742 H 165.068 3.98988 -1.35596 0
M  V30 1743 H 163.792 3.24604 -0.360498 0
M  V30 1744 H 162.451 2.74253 -2.43271 0
M  V30 1745 H 162.099 4.8863 -1.19371 0
M  V30 1746 H 161.799 5.08875 -2.93803 0
M  V30 1747 H 163.323 5.68702 -2.22284 0
M  V30 1748 H 164.737 4.18066 -3.92293 0
M  V30 1749 H 163.134 3.82075 -4.62751 0
M  V30 1750 H 164.204 2.48552 -4.16353 0
M  V30 1751 N 165.547 1.27147 0.931209 0
M  V30 1752 C 166.775 1.16082 1.71267 0
M  V30 1753 C 167.19 -0.282772 1.8667 0
M  V30 1754 O 166.547 -1.19283 1.38122 0
M  V30 1755 C 166.598 1.8358 3.11417 0
M  V30 1756 O 166.319 3.22299 2.96741 0
M  V30 1757 C 167.82 1.78597 4.05732 0
M  V30 1758 H 165.04 0.403758 0.535929 0
M  V30 1759 H 167.584 1.67953 1.16671 0
M  V30 1760 H 165.739 1.35623 3.62885 0
M  V30 1761 H 166.153 3.55851 3.85319 0
M  V30 1762 H 167.627 2.30444 5.01597 0
M  V30 1763 H 168.104 0.754564 4.3267 0
M  V30 1764 H 168.71 2.26152 3.60188 0
M  V30 1765 N 167.025 -1.13721 1.09112 0
M  V30 1766 C 168.271 -1.85198 0.826414 0
M  V30 1767 C 168.604 -1.83129 -0.646319 0
M  V30 1768 O 167.879 -1.2671 -1.47563 0
M  V30 1769 C 168.162 -3.33507 1.35812 0
M  V30 1770 C 168.015 -3.44108 2.89672 0
M  V30 1771 C 169.334 -4.28838 0.989256 0
M  V30 1772 H 166.453 -0.67243 0.301675 0
M  V30 1773 H 169.095 -1.33499 1.35197 0
M  V30 1774 H 167.245 -3.77666 0.911082 0
M  V30 1775 H 168.917 -3.08684 3.428 0
M  V30 1776 H 167.16 -2.85087 3.26967 0
M  V30 1777 H 167.831 -4.48388 3.21951 0
M  V30 1778 H 170.307 -3.92734 1.37475 0
M  V30 1779 H 169.183 -5.31051 1.38838 0
M  V30 1780 H 169.444 -4.4198 -0.102924 0
M  V30 1781 N 168.503 -0.877838 -1.30888 0
M  V30 1782 C 169.914 -0.544193 -1.78593 0
M  V30 1783 C 170.265 0.939301 -1.72254 0
M  V30 1784 O 169.39 1.7337 -1.29505 0
M  V30 1785 C 169.985 -0.98105 -3.24285 0
M  V30 1786 C 168.544 -0.698935 -3.69854 0
M  V30 1787 C 167.691 -1.168 -2.51502 0
M  V30 1788 H 170.642 -1.06278 -1.17859 0
M  V30 1789 H 170.663 -0.307009 -3.79259 0
M  V30 1790 H 170.175 -2.06079 -3.28866 0
M  V30 1791 H 168.276 0.369112 -3.70767 0
M  V30 1792 H 168.389 -1.28148 -4.61644 0
M  V30 1793 H 166.753 -0.587535 -2.47831 0
M  V30 1794 H 167.536 -2.25533 -2.58824 0
M  V30 1795 N 169.982 1.44106 -0.638065 0
M  V30 1796 C 170.932 2.27843 0.0847285 0
M  V30 1797 C 171.916 1.39055 0.809471 0
M  V30 1798 O 173.108 1.62808 0.694435 0
M  V30 1799 C 170.237 3.26497 1.06089 0
M  V30 1800 C 169.323 4.22772 0.33541 0
M  V30 1801 N 169.714 5.01737 -0.639787 0
M  V30 1802 C 168.012 4.42227 0.578921 0
M  V30 1803 C 168.713 5.71792 -1.06904 0
M  V30 1804 N 167.689 5.42079 -0.406395 0
M  V30 1805 H 171.491 2.86305 -0.663814 0
M  V30 1806 H 169.005 1.55627 -0.464122 0
M  V30 1807 H 171.002 3.8525 1.59337 0
M  V30 1808 H 169.662 2.69595 1.80966 0
M  V30 1809 H 170.673 5.07799 -1.01789 0
M  V30 1810 H 167.35 3.96415 1.31003 0
M  V30 1811 H 168.74 6.45205 -1.8751 0
M  V30 1812 N 171.46 0.379036 1.52974 0
M  V30 1813 C 172.69 -0.20649 2.05566 0
M  V30 1814 C 173.098 -1.41906 1.25137 0
M  V30 1815 O 172.441 -1.81421 0.288464 0
M  V30 1816 C 172.503 -0.651086 3.53555 0
M  V30 1817 C 172.167 0.446626 4.54812 0
M  V30 1818 C 173.164 1.30079 5.03364 0
M  V30 1819 C 170.849 0.610719 4.98573 0
M  V30 1820 C 172.843 2.30426 5.94292 0
M  V30 1821 C 170.53 1.61754 5.89304 0
M  V30 1822 C 171.528 2.46274 6.37054 0
M  V30 1823 O 171.216 3.45237 7.25994 0
M  V30 1824 H 170.948 -0.0372381 0.674974 0
M  V30 1825 H 173.502 0.539718 1.98182 0
M  V30 1826 H 171.732 -1.44911 3.58522 0
M  V30 1827 H 173.421 -1.16112 3.88938 0
M  V30 1828 H 174.187 1.18527 4.70294 0
M  V30 1829 H 170.066 -0.0374044 4.60985 0
M  V30 1830 H 173.61 2.96432 6.31485 0
M  V30 1831 H 169.507 1.73348 6.21788 0
M  V30 1832 H 170.275 3.41124 7.44027 0
M  V30 1833 N 172.938 -1.57226 0.108567 0
M  V30 1834 C 174.215 -1.86333 -0.594939 0
M  V30 1835 C 174.595 -1.00788 -1.85486 0
M  V30 1836 O 173.943 -0.0839293 -2.28346 0
M  V30 1837 C 174.153 -3.37265 -0.897405 0
M  V30 1838 C 175.501 -4.05629 -1.25501 0
M  V30 1839 O 176.525 -3.42224 -0.987998 0
M  V30 1840 O 175.384 -5.17531 -1.75567 0
M  V30 1841 H 172.478 -0.771018 -0.2991 0
M  V30 1842 H 175.024 -1.69102 0.142283 0
M  V30 1843 H 173.796 -3.913 -0.00413806 0
M  V30 1844 H 173.419 -3.59889 -1.69014 0
M  V30 1845 N 174.416 0.165178 -1.56732 0
M  V30 1846 C 175.349 1.23336 -1.91998 0
M  V30 1847 C 176.327 1.42476 -0.783531 0
M  V30 1848 O 177.511 1.57384 -1.03743 0
M  V30 1849 C 174.638 2.59533 -2.17625 0
M  V30 1850 C 173.684 2.57093 -3.40302 0
M  V30 1851 S 174.517 2.05571 -4.9447 0
M  V30 1852 C 175.673 3.43532 -5.23198 0
M  V30 1853 H 175.906 0.932387 -2.82301 0
M  V30 1854 H 173.439 0.370013 -1.49901 0
M  V30 1855 H 175.397 3.37918 -2.3307 0
M  V30 1856 H 174.058 2.86827 -1.28019 0
M  V30 1857 H 173.251 3.57308 -3.55453 0
M  V30 1858 H 172.853 1.86806 -3.24005 0
M  V30 1859 H 175.145 4.39559 -5.15552 0
M  V30 1860 H 176.088 3.33251 -6.2478 0
M  V30 1861 H 176.496 3.39828 -4.50752 0
M  V30 1862 N 175.894 1.51508 0.433938 0
M  V30 1863 C 176.841 1.73068 1.52696 0
M  V30 1864 C 177.811 0.572441 1.55924 0
M  V30 1865 O 178.996 0.807253 1.72882 0
M  V30 1866 C 176.136 1.86474 2.90381 0
M  V30 1867 C 175.249 3.14037 2.96656 0
M  V30 1868 C 174.384 3.18019 4.25485 0
M  V30 1869 C 173.423 4.39882 4.2564 0
M  V30 1870 N 172.56 4.41394 5.45999 0
M  V30 1871 H 177.4 2.66366 1.33615 0
M  V30 1872 H 174.937 1.32008 0.649018 0
M  V30 1873 H 176.895 1.92229 3.70275 0
M  V30 1874 H 175.525 0.965809 3.08013 0
M  V30 1875 H 174.577 3.17575 2.09404 0
M  V30 1876 H 175.889 4.0394 2.92633 0
M  V30 1877 H 175.043 3.22708 5.13755 0
M  V30 1878 H 173.782 2.2601 4.3217 0
M  V30 1879 H 172.787 4.35366 3.35763 0
M  V30 1880 H 174.012 5.33159 4.20617 0
M  V30 1881 H 171.958 3.52258 5.53399 0
M  V30 1882 H 171.875 5.25111 5.4387 0
M  V30 1883 H 173.143 4.50281 6.36292 0
M  V30 1884 N 177.372 -0.689602 1.41712 0
M  V30 1885 C 178.32 -1.82475 1.44242 0
M  V30 1886 C 179.314 -1.66354 0.319774 0
M  V30 1887 O 180.52 -1.73143 0.492089 0
M  V30 1888 H 176.895 -0.601416 0.451445 0
M  V30 1889 H 178.866 -1.77458 2.39899 0
M  V30 1890 C 177.615 -3.20535 1.3473 0
M  V30 1891 H 176.938 -3.33559 2.20405 0
M  V30 1892 H 178.378 -4.00023 1.40562 0
M  V30 1893 C 176.837 -3.36846 0.0603281 0
M  V30 1894 O 177.367 -3.91656 -0.892663 0
M  V30 1895 N 175.573 -2.90595 -0.0177039 0
M  V30 1896 H 175.12 -2.46178 0.758572 0
M  V30 1897 H 175.078 -3.01886 -0.878201 0
M  V30 1898 N 178.85 -1.27639 -0.924453 0
M  V30 1899 C 180.266 -1.05113 -1.20097 0
M  V30 1900 C 180.466 0.213262 -2.00368 0
M  V30 1901 O 179.522 0.91787 -2.35226 0
M  V30 1902 C 180.835 -2.29244 -1.94596 0
M  V30 1903 C 182.383 -2.34315 -2.07522 0
M  V30 1904 C 182.858 -3.58183 -2.85427 0
M  V30 1905 N 184.349 -3.5876 -2.92994 0
M  V30 1906 C 185.084 -4.51277 -3.53746 0
M  V30 1907 N 184.58 -5.54102 -4.15863 0
M  V30 1908 N 186.373 -4.38894 -3.51181 0
M  V30 1909 H 178.524 -2.08821 -0.388264 0
M  V30 1910 H 180.787 -0.918568 -0.234385 0
M  V30 1911 H 180.493 -3.21301 -1.43034 0
M  V30 1912 H 180.367 -2.34816 -2.95197 0
M  V30 1913 H 182.754 -1.42762 -2.58269 0
M  V30 1914 H 182.835 -2.32744 -1.06131 0
M  V30 1915 H 182.479 -4.50074 -2.35363 0
M  V30 1916 H 182.409 -3.57006 -3.8711 0
M  V30 1917 H 184.9 -2.84398 -2.4885 0
M  V30 1918 H 185.213 -6.20859 -4.60168 0
M  V30 1919 H 183.558 -5.57941 -4.144 0
M  V30 1920 H 186.749 -3.57772 -3.01856 0
M  V30 1921 H 186.922 -5.11186 -3.98237 0
M  V30 1922 N 180.328 1.1314 -1.09713 0
M  V30 1923 C 181.576 1.84119 -0.833338 0
M  V30 1924 C 181.897 1.84097 0.642904 0
M  V30 1925 O 181.167 1.29881 1.46655 0
M  V30 1926 H 179.747 0.681766 -0.305293 0
M  V30 1927 H 182.409 1.37038 -1.38588 0
M  V30 1928 H 181.505 2.88543 -1.18951 0
M  V30 1929 N 181.806 0.884767 1.30421 0
M  V30 1930 C 183.053 0.503105 1.96151 0
M  V30 1931 C 183.381 -0.947676 1.69851 0
M  V30 1932 O 182.636 -1.68467 0.995861 0
M  V30 1933 C 182.935 0.724318 3.49983 0
M  V30 1934 C 182.601 2.15015 3.96332 0
M  V30 1935 C 181.263 2.54005 4.08699 0
M  V30 1936 C 183.615 3.07936 4.20505 0
M  V30 1937 C 180.943 3.85128 4.42599 0
M  V30 1938 C 183.295 4.3859 4.55874 0
M  V30 1939 C 181.959 4.77474 4.66449 0
M  V30 1940 H 181.229 0.184099 0.717766 0
M  V30 1941 H 183.876 1.12058 1.55291 0
M  V30 1942 H 182.181 0.0238086 3.91793 0
M  V30 1943 H 183.878 0.408617 3.98913 0
M  V30 1944 H 180.468 1.8375 3.87213 0
M  V30 1945 H 184.652 2.79033 4.10431 0
M  V30 1946 H 179.908 4.14996 4.48986 0
M  V30 1947 H 184.082 5.10629 4.7353 0
M  V30 1948 H 181.709 5.79115 4.92473 0
M  V30 1949 N 183.284 -1.43765 0.645699 0
M  V30 1950 C 184.217 -2.2798 -0.100072 0
M  V30 1951 C 185.195 -1.39391 -0.837194 0
M  V30 1952 O 186.379 -1.68833 -0.838306 0
M  V30 1953 C 183.506 -3.18643 -1.14823 0
M  V30 1954 C 182.552 -4.2344 -0.510009 0
M  V30 1955 S 183.385 -5.30761 0.710824 0
M  V30 1956 C 184.541 -6.24992 -0.33699 0
M  V30 1957 H 184.774 -2.90884 0.614322 0
M  V30 1958 H 182.307 -1.48166 0.434304 0
M  V30 1959 H 184.265 -3.71424 -1.74799 0
M  V30 1960 H 182.926 -2.54932 -1.8349 0
M  V30 1961 H 182.119 -4.86948 -1.29991 0
M  V30 1962 H 181.721 -3.73997 0.0154577 0
M  V30 1963 H 184.013 -6.66691 -1.20537 0
M  V30 1964 H 184.956 -7.07612 0.262879 0
M  V30 1965 H 185.364 -5.60517 -0.669425 0
M  V30 1966 N 184.763 -0.387143 -1.52771 0
M  V30 1967 C 185.693 0.440551 -2.29306 0
M  V30 1968 C 186.674 1.06535 -1.32606 0
M  V30 1969 O 187.859 1.07853 -1.61497 0
M  V30 1970 C 184.989 1.56919 -3.09829 0
M  V30 1971 C 183.943 1.07054 -4.14395 0
M  V30 1972 C 183.269 2.29109 -4.83129 0
M  V30 1973 C 184.569 0.140015 -5.22112 0
M  V30 1974 H 186.263 -0.198026 -2.98744 0
M  V30 1975 H 183.809 -0.09668 -1.43675 0
M  V30 1976 H 185.762 2.15503 -3.62128 0
M  V30 1977 H 184.486 2.23532 -2.3812 0
M  V30 1978 H 183.145 0.507247 -3.63074 0
M  V30 1979 H 182.793 2.94227 -4.0797 0
M  V30 1980 H 182.493 1.96406 -5.53804 0
M  V30 1981 H 184.017 2.88339 -5.38231 0
M  V30 1982 H 185.431 0.633978 -5.69784 0
M  V30 1983 H 183.828 -0.0971485 -6.00021 0
M  V30 1984 H 184.898 -0.811711 -4.78058 0
M  V30 1985 N 186.241 1.57166 -0.116904 0
M  V30 1986 C 187.487 1.96206 0.536166 0
M  V30 1987 C 187.842 0.99915 1.64422 0
M  V30 1988 O 187.135 0.0288195 1.91578 0
M  V30 1989 C 187.329 3.39508 1.11664 0
M  V30 1990 C 187.158 4.49651 0.0663474 0
M  V30 1991 C 185.928 5.03982 -0.36474 0
M  V30 1992 C 188.126 5.09322 -0.713829 0
M  V30 1993 N 186.108 5.97699 -1.40102 0
M  V30 1994 C 187.479 5.98963 -1.60136 0
M  V30 1995 C 189.534 4.91989 -0.764948 0
M  V30 1996 C 188.237 6.73128 -2.53556 0
M  V30 1997 C 190.263 5.66833 -1.68685 0
M  V30 1998 C 189.625 6.56158 -2.56196 0
M  V30 1999 H 185.724 0.764203 0.165886 0
M  V30 2000 H 188.308 1.93623 -0.204535 0
M  V30 2001 H 186.479 3.42743 1.82707 0
M  V30 2002 H 188.211 3.65677 1.73386 0
M  V30 2003 H 184.966 4.73592 0.027252 0
M  V30 2004 H 185.39 6.49262 -1.91802 0
M  V30 2005 H 190.032 4.22676 -0.102501 0
M  V30 2006 H 187.75 7.41689 -3.20816 0
M  V30 2007 H 191.336 5.55427 -1.73181 0
M  V30 2008 H 190.216 7.13057 -3.26372 0
M  V30 2009 N 187.719 -0.156864 1.56817 0
M  V30 2010 C 189.13 -0.717916 1.72345 0
M  V30 2011 C 189.481 -1.82124 0.729747 0
M  V30 2012 O 188.606 -2.16141 -0.105781 0
M  V30 2013 C 189.201 -1.30904 3.12489 0
M  V30 2014 C 187.76 -1.81676 3.29653 0
M  V30 2015 C 186.907 -0.701349 2.68284 0
M  V30 2016 H 189.858 0.0686989 1.58551 0
M  V30 2017 H 189.879 -2.17882 3.11942 0
M  V30 2018 H 189.391 -0.505796 3.8479 0
M  V30 2019 H 187.492 -2.64598 2.62333 0
M  V30 2020 H 187.605 -1.95226 4.3752 0
M  V30 2021 H 185.969 -1.12548 2.28484 0
M  V30 2022 H 186.752 0.0902846 3.43181 0
M  V30 2023 N 189.197 -1.51736 -0.425897 0
M  V30 2024 C 190.127 -1.76827 -1.52494 0
M  V30 2025 C 191.108 -0.618524 -1.58456 0
M  V30 2026 O 192.293 -0.862416 -1.74 0
M  V30 2027 C 189.423 -1.90374 -2.90474 0
M  V30 2028 C 188.377 -3.0588 -2.99369 0
M  V30 2029 C 187.703 -3.04625 -4.3944 0
M  V30 2030 C 189.003 -4.45644 -2.72394 0
M  V30 2031 H 190.697 -2.68855 -1.31748 0
M  V30 2032 H 188.243 -1.29372 -0.632362 0
M  V30 2033 H 190.196 -2.0651 -3.6733 0
M  V30 2034 H 188.92 -0.95004 -3.12477 0
M  V30 2035 H 187.579 -2.89467 -2.24954 0
M  V30 2036 H 187.227 -2.0701 -4.58428 0
M  V30 2037 H 186.927 -3.82195 -4.46319 0
M  V30 2038 H 188.451 -3.22869 -5.18255 0
M  V30 2039 H 189.865 -4.62348 -3.38979 0
M  V30 2040 H 188.262 -5.25006 -2.9067 0
M  V30 2041 H 189.332 -4.54893 -1.67929 0
M  V30 2042 N 190.675 0.682077 -1.42076 0
M  V30 2043 C 191.922 1.44215 -1.42156 0
M  V30 2044 C 192.25 1.94468 -0.0354186 0
M  V30 2045 O 191.505 1.70816 0.955002 0
M  V30 2046 C 191.804 2.66036 -2.38662 0
M  V30 2047 C 191.47 2.34366 -3.85206 0
M  V30 2048 C 190.132 2.25439 -4.25124 0
M  V30 2049 C 192.484 2.08513 -4.77673 0
M  V30 2050 C 189.812 1.88775 -5.55501 0
M  V30 2051 C 192.164 1.73354 -6.08384 0
M  V30 2052 C 190.828 1.62933 -6.47309 0
M  V30 2053 H 190.098 0.527718 -0.520187 0
M  V30 2054 H 192.745 0.778387 -1.74967 0
M  V30 2055 H 191.05 3.3741 -1.99152 0
M  V30 2056 H 192.747 3.24205 -2.35991 0
M  V30 2057 H 189.337 2.42213 -3.53597 0
M  V30 2058 H 193.521 2.14346 -4.47626 0
M  V30 2059 H 188.777 1.7927 -5.84527 0
M  V30 2060 H 192.951 1.52373 -6.79526 0
M  V30 2061 H 190.578 1.34292 -7.48244 0
M  V30 2062 N 192.153 1.28127 0.917671 0
M  V30 2063 C 193.063 1.13556 2.05286 0
M  V30 2064 C 194.079 0.0630914 1.73886 0
M  V30 2065 O 195.255 0.271598 1.9956 0
M  V30 2066 C 192.32 0.794676 3.3747 0
M  V30 2067 C 191.381 1.94909 3.82504 0
M  V30 2068 C 190.614 1.62437 5.0838 0
M  V30 2069 O 190.837 0.536905 5.67867 0
M  V30 2070 O 189.771 2.46677 5.4903 0
M  V30 2071 H 193.597 2.08844 2.20495 0
M  V30 2072 H 191.182 1.07409 1.03845 0
M  V30 2073 H 193.064 0.618344 4.16839 0
M  V30 2074 H 191.739 -0.128581 3.23445 0
M  V30 2075 H 190.646 2.18055 3.03978 0
M  V30 2076 H 191.979 2.85291 4.01086 0
M  V30 2077 N 193.631 -1.12557 1.10312 0
M  V30 2078 C 194.88 -1.83395 0.839588 0
M  V30 2079 C 195.193 -1.84939 -0.636929 0
M  V30 2080 O 196.399 -2.51761 -1.01631 0
M  V30 2081 C 194.855 -3.29303 1.45215 0
M  V30 2082 C 194.463 -3.36122 2.96186 0
M  V30 2083 C 196.207 -4.05121 1.26796 0
M  V30 2084 C 194.114 -4.76357 3.50483 0
M  V30 2085 H 193.044 -0.687133 0.310425 0
M  V30 2086 H 195.695 -1.26746 1.32694 0
M  V30 2087 H 194.077 -3.85812 0.892469 0
M  V30 2088 H 195.251 -2.89559 3.58458 0
M  V30 2089 H 193.566 -2.73776 3.13745 0
M  V30 2090 H 196.163 -5.08668 1.64806 0
M  V30 2091 H 196.506 -4.15773 0.209409 0
M  V30 2092 H 197.039 -3.54967 1.79563 0
M  V30 2093 H 193.778 -4.70899 4.55998 0
M  V30 2094 H 193.298 -5.23377 2.92978 0
M  V30 2095 H 194.977 -5.45294 3.48228 0
M  V30 2096 N 195.109 -0.891671 -1.2995 0
M  V30 2097 C 196.072 -0.36828 -2.26222 0
M  V30 2098 C 197.072 0.493014 -1.53056 0
M  V30 2099 O 198.262 0.299213 -1.71611 0
M  V30 2100 C 195.394 0.47442 -3.37583 0
M  V30 2101 H 196.587 -1.21844 -2.74033 0
M  V30 2102 H 194.14 -0.669107 -1.41254 0
M  V30 2103 H 194.875 1.34489 -2.95099 0
M  V30 2104 H 194.66 -0.142615 -3.91841 0
M  V30 2105 H 196.15 0.83218 -4.09224 0
M  V30 2106 N 196.587 1.43421 -0.653314 0
M  V30 2107 C 197.998 1.85065 -0.246537 0
M  V30 2108 C 198.349 1.54688 1.2069 0
M  V30 2109 O 197.474 0.995896 1.92122 0
M  V30 2110 C 198.069 3.35922 -0.440666 0
M  V30 2111 C 196.628 3.76297 -0.0882064 0
M  V30 2112 C 195.775 2.67147 -0.743484 0
M  V30 2113 H 198.726 1.33572 -0.856979 0
M  V30 2114 H 198.747 3.79204 0.313798 0
M  V30 2115 H 198.259 3.58 -1.49858 0
M  V30 2116 H 196.36 3.5983 0.96711 0
M  V30 2117 H 196.473 4.76338 -0.513738 0
M  V30 2118 H 194.837 2.54086 -0.176712 0
M  V30 2119 H 195.62 2.92053 -1.80443 0
M  V30 2120 N 198.065 0.39524 1.52563 0
M  V30 2121 C 198.975 -0.444232 2.30356 0
M  V30 2122 C 199.991 -1.06615 1.37511 0
M  V30 2123 O 201.167 -1.07067 1.70583 0
M  V30 2124 C 198.232 -1.55315 3.09964 0
M  V30 2125 C 197.293 -0.955734 4.18526 0
M  V30 2126 C 196.526 -2.01181 4.9433 0
M  V30 2127 O 196.749 -3.22781 4.70285 0
M  V30 2128 O 195.683 -1.62579 5.79527 0
M  V30 2129 H 199.509 0.189667 3.03107 0
M  V30 2130 H 197.094 0.1588 1.48554 0
M  V30 2131 H 198.976 -2.19724 3.59582 0
M  V30 2132 H 197.651 -2.17191 2.4002 0
M  V30 2133 H 196.558 -0.274743 3.7309 0
M  V30 2134 H 197.891 -0.381109 4.90722 0
M  V30 2135 N 199.544 -1.57102 0.125237 0
M  V30 2136 C 200.474 -2.18659 -0.819174 0
M  V30 2137 C 201.455 -1.12843 -1.27281 0
M  V30 2138 O 202.64 -1.41104 -1.33429 0
M  V30 2139 C 199.77 -2.79096 -2.06695 0
M  V30 2140 C 198.724 -3.90548 -1.75088 0
M  V30 2141 C 198.05 -4.37821 -3.06948 0
M  V30 2142 C 199.35 -5.12356 -1.01435 0
M  V30 2143 H 201.044 -2.9783 -0.306202 0
M  V30 2144 H 198.59 -1.4326 -0.145839 0
M  V30 2145 H 200.543 -3.2082 -2.73226 0
M  V30 2146 H 199.267 -1.97223 -2.60328 0
M  V30 2147 H 197.926 -3.49409 -1.10944 0
M  V30 2148 H 197.574 -3.52799 -3.58527 0
M  V30 2149 H 197.274 -5.12982 -2.86571 0
M  V30 2150 H 198.798 -4.822 -3.74587 0
M  V30 2151 H 200.212 -5.5106 -1.58132 0
M  V30 2152 H 198.609 -5.9314 -0.911319 0
M  V30 2153 H 199.679 -4.849 -0.00218681 0
M  V30 2154 N 201.022 0.148545 -1.56898 0
M  V30 2155 C 202.268 0.862694 -1.83536 0
M  V30 2156 C 202.601 1.80889 -0.706604 0
M  V30 2157 O 201.876 1.92328 0.289885 0
M  V30 2158 C 202.159 1.63853 -3.20662 0
M  V30 2159 C 202.012 0.713925 -4.44098 0
M  V30 2160 C 203.331 2.60133 -3.54991 0
M  V30 2161 H 200.45 0.312179 -0.667618 0
M  V30 2162 H 203.092 0.127953 -1.89569 0
M  V30 2163 H 201.242 2.26489 -3.1565 0
M  V30 2164 H 202.914 0.098686 -4.61194 0
M  V30 2165 H 201.157 0.0234019 -4.33794 0
M  V30 2166 H 201.828 1.29278 -5.36648 0
M  V30 2167 H 204.304 2.07616 -3.60603 0
M  V30 2168 H 203.18 3.11468 -4.51972 0
M  V30 2169 H 203.441 3.41417 -2.80868 0
M  V30 2170 N 202.5 1.5196 0.417844 0
M  V30 2171 C 203.747 1.65591 1.16559 0
M  V30 2172 C 204.075 0.381565 1.90721 0
M  V30 2173 O 203.33 -0.635156 1.85106 0
M  V30 2174 C 203.629 2.82269 2.19223 0
M  V30 2175 C 203.295 4.20819 1.61933 0
M  V30 2176 C 201.957 4.58506 1.46033 0
M  V30 2177 C 204.309 5.07196 1.20008 0
M  V30 2178 C 201.637 5.80257 0.867113 0
M  V30 2179 C 203.989 6.29544 0.621086 0
M  V30 2180 C 202.653 6.65987 0.449144 0
M  V30 2181 H 201.923 0.605939 0.42652 0
M  V30 2182 H 204.57 1.86041 0.45397 0
M  V30 2183 H 202.875 2.56118 2.96498 0
M  V30 2184 H 204.572 2.90012 2.76936 0
M  V30 2185 H 201.162 3.91116 1.7529 0
M  V30 2186 H 205.346 4.7867 1.31105 0
M  V30 2187 H 200.602 6.07124 0.721833 0
M  V30 2188 H 204.776 6.95805 0.287798 0
M  V30 2189 H 202.403 7.60199 -0.012632 0
M  V30 2190 N 203.978 -0.674533 1.42435 0
M  V30 2191 C 205.389 -1.25514 1.38214 0
M  V30 2192 C 205.74 -1.96055 0.0755464 0
M  V30 2193 O 204.865 -2.00028 -0.8257 0
M  V30 2194 C 205.46 -2.28269 2.50357 0
M  V30 2195 C 204.019 -2.81856 2.49467 0
M  V30 2196 C 203.166 -1.56182 2.29134 0
M  V30 2197 H 206.117 -0.467902 1.51646 0
M  V30 2198 H 206.138 -3.10009 2.20624 0
M  V30 2199 H 205.65 -1.769 3.45439 0
M  V30 2200 H 203.751 -3.37346 1.58204 0
M  V30 2201 H 203.864 -3.30854 3.46515 0
M  V30 2202 H 202.228 -1.82761 1.774 0
M  V30 2203 H 203.011 -1.06778 3.26272 0
M  V30 2204 N 205.456 -1.28612 -0.910864 0
M  V30 2205 C 206.733 -1.06632 -1.63979 0
M  V30 2206 C 207.113 0.393351 -2.07403 0
M  V30 2207 O 206.461 1.37999 -1.82122 0
M  V30 2208 C 206.671 -2.0436 -2.8291 0
M  V30 2209 C 208.019 -2.34666 -3.5386 0
M  V30 2210 O 209.043 -2.02467 -2.93062 0
M  V30 2211 O 207.902 -2.89631 -4.63439 0
M  V30 2212 H 204.996 -0.407737 -0.7195 0
M  V30 2213 H 207.542 -1.39942 -0.959914 0
M  V30 2214 H 206.314 -3.02727 -2.47936 0
M  V30 2215 H 205.937 -1.71714 -3.58609 0
M  V30 2216 N 206.934 1.1197 -1.10907 0
M  V30 2217 C 208.182 1.83225 -0.852819 0
M  V30 2218 C 208.503 1.84769 0.623341 0
M  V30 2219 O 207.773 1.3143 1.45269 0
M  V30 2220 H 206.353 0.67849 -0.312507 0
M  V30 2221 H 209.015 1.3556 -1.40033 0
M  V30 2222 H 208.111 2.87265 -1.22005 0
M  V30 2223 N 208.412 0.89855 1.29475 0
M  V30 2224 C 209.322 0.379974 2.31502 0
M  V30 2225 C 210.338 -0.524695 1.659 0
M  V30 2226 O 211.514 -0.414551 1.97087 0
M  V30 2227 C 208.579 -0.385138 3.44554 0
M  V30 2228 C 207.64 0.550914 4.2575 0
M  V30 2229 C 206.873 -0.177778 5.33404 0
M  V30 2230 O 207.096 -1.40189 5.52904 0
M  V30 2231 O 206.03 0.479106 5.9999 0
M  V30 2232 H 209.856 1.22639 2.77837 0
M  V30 2233 H 207.441 0.662834 1.33891 0
M  V30 2234 H 209.323 -0.817841 4.13388 0
M  V30 2235 H 207.998 -1.20763 3.0033 0
M  V30 2236 H 206.905 1.03271 3.59564 0
M  V30 2237 H 208.238 1.33979 4.73614 0
M  V30 2238 N 209.89 -1.43072 0.660911 0
M  V30 2239 C 210.823 -2.28074 -0.0758862 0
M  V30 2240 C 211.801 -1.40271 -0.822362 0
M  V30 2241 O 212.985 -1.69713 -0.820352 0
M  V30 2242 C 210.112 -3.19843 -1.11437 0
M  V30 2243 C 209.158 -4.23957 -0.465069 0
M  V30 2244 S 209.991 -5.29978 0.767078 0
M  V30 2245 C 211.147 -6.25314 -0.270682 0
M  V30 2246 H 211.38 -2.90216 0.645139 0
M  V30 2247 H 208.913 -1.47697 0.449995 0
M  V30 2248 H 210.871 -3.73257 -1.70849 0
M  V30 2249 H 209.532 -2.56863 -1.80776 0
M  V30 2250 H 208.725 -4.88299 -1.24819 0
M  V30 2251 H 208.327 -3.73959 0.0551242 0
M  V30 2252 H 210.619 -6.67932 -1.13459 0
M  V30 2253 H 211.562 -7.07293 0.337916 0
M  V30 2254 H 211.97 -5.61195 -0.609937 0
M  V30 2255 N 211.368 -0.403325 -1.52352 0
M  V30 2256 C 212.298 0.416205 -2.29761 0
M  V30 2257 C 213.279 1.05123 -1.33728 0
M  V30 2258 O 214.464 1.06134 -1.62632 0
M  V30 2259 C 211.594 1.53624 -3.11475 0
M  V30 2260 C 210.548 1.02653 -4.15507 0
M  V30 2261 C 209.874 2.23971 -4.85532 0
M  V30 2262 C 211.174 0.08463 -5.22231 0
M  V30 2263 H 212.868 -0.229701 -2.98518 0
M  V30 2264 H 210.414 -0.111913 -1.43564 0
M  V30 2265 H 212.367 2.1165 -3.64393 0
M  V30 2266 H 211.091 2.20994 -2.40477 0
M  V30 2267 H 209.75 0.46871 -3.63591 0
M  V30 2268 H 209.398 2.89883 -4.11068 0
M  V30 2269 H 209.098 1.90521 -5.55856 0
M  V30 2270 H 210.622 2.82614 -5.41259 0
M  V30 2271 H 212.036 0.573509 -5.70424 0
M  V30 2272 H 210.433 -0.160783 -5.99885 0
M  V30 2273 H 211.503 -0.86237 -4.7717 0
M  V30 2274 N 212.846 1.57033 -0.133567 0
M  V30 2275 C 214.262 1.58035 0.222944 0
M  V30 2276 C 214.462 1.14713 1.6566 0
M  V30 2277 O 213.518 0.841218 2.38075 0
M  V30 2278 C 214.831 3.00691 -0.0236116 0
M  V30 2279 C 216.379 3.12973 0.0411512 0
M  V30 2280 C 216.854 4.57654 -0.177899 0
M  V30 2281 N 218.345 4.63033 -0.124365 0
M  V30 2282 C 219.08 5.72771 -0.268553 0
M  V30 2283 N 218.576 6.91206 -0.46972 0
M  V30 2284 N 220.369 5.61718 -0.2071 0
M  V30 2285 H 212.52 1.8349 -1.06981 0
M  V30 2286 H 214.783 0.848677 -0.422436 0
M  V30 2287 H 214.489 3.36726 -1.0153 0
M  V30 2288 H 214.363 3.70614 0.701808 0
M  V30 2289 H 216.75 2.76787 1.02338 0
M  V30 2290 H 216.831 2.45564 -0.716383 0
M  V30 2291 H 216.475 4.94542 -1.15717 0
M  V30 2292 H 216.405 5.23173 0.599797 0
M  V30 2293 H 218.896 3.7789 0.027011 0
M  V30 2294 H 219.209 7.70693 -0.570212 0
M  V30 2295 H 217.554 6.93156 -0.505876 0
M  V30 2296 H 220.745 4.68072 -0.0507986 0
M  V30 2297 H 220.918 6.47195 -0.322909 0
M  V30 2298 N 214.325 -0.140222 1.56975 0
M  V30 2299 C 215.257 -1.19818 1.95388 0
M  V30 2300 C 216.27 -1.38816 0.850525 0
M  V30 2301 O 217.459 -1.38267 1.12891 0
M  V30 2302 C 214.559 -2.56189 2.21857 0
M  V30 2303 C 213.732 -2.58077 3.5315 0
M  V30 2304 C 212.791 -3.76037 3.6808 0
M  V30 2305 O 211.817 -3.60598 4.40406 0
M  V30 2306 N 213.019 -4.93763 3.05251 0
M  V30 2307 H 215.784 -0.871609 2.86746 0
M  V30 2308 H 213.345 -0.32972 1.58507 0
M  V30 2309 H 215.337 -3.33623 2.2908 0
M  V30 2310 H 213.907 -2.81111 1.36731 0
M  V30 2311 H 213.127 -1.6651 3.57307 0
M  V30 2312 H 214.415 -2.56377 4.39486 0
M  V30 2313 H 213.813 -5.09209 2.46419 0
M  V30 2314 H 212.37 -5.68949 3.18026 0
M  V30 2315 N 215.803 -1.52179 -0.40978 0
M  V30 2316 C 217.052 -1.65434 -1.15388 0
M  V30 2317 C 217.365 -0.390056 -1.91671 0
M  V30 2318 O 218.571 -0.402399 -2.68501 0
M  V30 2319 C 217.027 -2.92279 -2.10003 0
M  V30 2320 C 216.635 -4.25813 -1.39239 0
M  V30 2321 C 218.379 -3.14897 -2.84675 0
M  V30 2322 C 216.286 -5.43782 -2.32498 0
M  V30 2323 H 215.216 -0.616267 -0.434432 0
M  V30 2324 H 217.867 -1.78666 -0.418401 0
M  V30 2325 H 216.249 -2.72744 -2.871 0
M  V30 2326 H 217.423 -4.55828 -0.675099 0
M  V30 2327 H 215.738 -4.09292 -0.766097 0
M  V30 2328 H 218.335 -4.0021 -3.54593 0
M  V30 2329 H 218.678 -2.29103 -3.47588 0
M  V30 2330 H 219.211 -3.34901 -2.14677 0
M  V30 2331 H 215.95 -6.3192 -1.74233 0
M  V30 2332 H 215.47 -5.18106 -3.02201 0
M  V30 2333 H 217.149 -5.76834 -2.93038 0
M  V30 2334 N 217.281 0.66697 -1.42791 0
M  V30 2335 C 218.211 1.79218 -1.49677 0
M  V30 2336 C 219.192 1.66405 -0.352623 0
M  V30 2337 O 220.377 1.85708 -0.567993 0
M  V30 2338 C 217.507 3.17565 -1.40605 0
M  V30 2339 C 216.461 3.45124 -2.53127 0
M  V30 2340 C 215.787 4.83127 -2.29112 0
M  V30 2341 C 217.087 3.41236 -3.95418 0
M  V30 2342 H 218.781 1.73713 -2.43853 0
M  V30 2343 H 216.327 0.83432 -1.17367 0
M  V30 2344 H 218.28 3.96022 -1.44029 0
M  V30 2345 H 217.004 3.23767 -0.429271 0
M  V30 2346 H 215.663 2.69031 -2.49034 0
M  V30 2347 H 215.311 4.85988 -1.29709 0
M  V30 2348 H 215.011 5.02528 -3.04531 0
M  V30 2349 H 216.535 5.63859 -2.34297 0
M  V30 2350 H 217.949 4.09651 -4.01073 0
M  V30 2351 H 216.346 3.72173 -4.70752 0
M  V30 2352 H 217.416 2.39665 -4.21532 0
M  V30 2353 N 218.759 1.29093 0.90403 0
M  V30 2354 C 219.709 1.10482 1.99443 0
M  V30 2355 C 220.693 0.0255401 1.6088 0
M  V30 2356 O 221.885 0.24677 1.75271 0
M  V30 2357 C 219.014 0.778882 3.34348 0
M  V30 2358 C 218.1 1.89749 3.79284 0
M  V30 2359 N 218.491 3.14045 3.96497 0
M  V30 2360 C 216.789 1.78955 4.08523 0
M  V30 2361 C 217.49 3.86996 4.34292 0
M  V30 2362 N 216.466 3.14909 4.43095 0
M  V30 2363 H 220.268 2.04778 2.10815 0
M  V30 2364 H 217.782 1.20155 1.09255 0
M  V30 2365 H 219.779 0.62661 4.12164 0
M  V30 2366 H 218.439 -0.156205 3.24324 0
M  V30 2367 H 219.45 3.49548 3.82148 0
M  V30 2368 H 216.127 0.926886 4.07081 0
M  V30 2369 H 217.517 4.93941 4.55491 0
M  V30 2370 N 220.237 -1.11381 1.11499 0
M  V30 2371 C 221.465 -1.86934 0.88675 0
M  V30 2372 C 221.88 -1.80195 -0.563476 0
M  V30 2373 O 221.237 -1.18367 -1.38908 0
M  V30 2374 C 221.288 -3.35722 1.34064 0
M  V30 2375 O 221.009 -3.4232 2.73401 0
M  V30 2376 C 222.51 -4.2818 1.14791 0
M  V30 2377 H 219.73 -0.591117 0.317523 0
M  V30 2378 H 222.274 -1.40865 1.48248 0
M  V30 2379 H 220.429 -3.79294 0.788355 0
M  V30 2380 H 220.843 -4.34971 2.93087 0
M  V30 2381 H 222.317 -5.30817 1.5145 0
M  V30 2382 H 222.794 -4.39113 0.0875279 0
M  V30 2383 H 223.4 -3.90402 1.68721 0
M  V30 2384 N 221.715 -0.905404 -1.28997 0
M  V30 2385 C 223.131 -0.60233 -1.47798 0
M  V30 2386 C 223.331 0.854645 -1.82478 0
M  V30 2387 O 222.387 1.63439 -1.92468 0
M  V30 2388 C 223.7 -1.53306 -2.58685 0
M  V30 2389 C 225.248 -1.53887 -2.72558 0
M  V30 2390 C 225.723 -2.45602 -3.86579 0
M  V30 2391 N 227.214 -2.43681 -3.93921 0
M  V30 2392 C 227.949 -3.11347 -4.81509 0
M  V30 2393 N 227.445 -3.88313 -5.73746 0
M  V30 2394 N 229.238 -3.00476 -4.75048 0
M  V30 2395 H 221.389 -1.84765 -1.04764 0
M  V30 2396 H 223.652 -0.792025 -0.520961 0
M  V30 2397 H 223.358 -2.57141 -2.39941 0
M  V30 2398 H 223.232 -1.25787 -3.55609 0
M  V30 2399 H 225.619 -0.507941 -2.90696 0
M  V30 2400 H 225.7 -1.85447 -1.76191 0
M  V30 2401 H 225.344 -3.48792 -3.69197 0
M  V30 2402 H 225.274 -2.11349 -4.82327 0
M  V30 2403 H 227.765 -1.87767 -3.27951 0
M  V30 2404 H 228.078 -4.36985 -6.37389 0
M  V30 2405 H 226.423 -3.92419 -5.73614 0
M  V30 2406 H 229.614 -2.39858 -4.01977 0
M  V30 2407 H 229.787 -3.53485 -5.43095 0
M  V30 2408 N 223.193 1.4272 -0.668489 0
M  V30 2409 C 224.156 2.292 0.00448567 0
M  V30 2410 C 225.156 1.43001 0.735339 0
M  V30 2411 O 226.346 1.64461 0.57429 0
M  V30 2412 C 223.478 3.25375 1.01705 0
M  V30 2413 H 224.671 2.90199 -0.756608 0
M  V30 2414 H 222.224 1.50254 -0.430506 0
M  V30 2415 H 222.959 2.69301 1.80686 0
M  V30 2416 H 222.744 3.88944 0.496463 0
M  V30 2417 H 224.234 3.90245 1.48655 0
M  V30 2418 N 224.671 0.411399 1.52136 0
M  V30 2419 C 225.918 -0.163645 2.01838 0
M  V30 2420 C 226.246 -1.4495 1.29691 0
M  V30 2421 O 225.501 -1.91725 0.392431 0
M  V30 2422 C 225.8 -0.455872 3.54481 0
M  V30 2423 C 225.466 0.741055 4.44769 0
M  V30 2424 C 224.128 1.06936 4.69167 0
M  V30 2425 C 226.48 1.54075 4.97906 0
M  V30 2426 C 223.808 2.19851 5.43951 0
M  V30 2427 C 226.16 2.66067 5.73926 0
M  V30 2428 C 224.824 2.99381 5.96596 0
M  V30 2429 H 224.094 -0.0598821 0.738576 0
M  V30 2430 H 226.741 0.553283 1.83333 0
M  V30 2431 H 225.046 -1.2544 3.71177 0
M  V30 2432 H 226.743 -0.913802 3.90449 0
M  V30 2433 H 223.333 0.475192 4.25958 0
M  V30 2434 H 227.517 1.30033 4.78963 0
M  V30 2435 H 222.773 2.46006 5.59724 0
M  V30 2436 H 226.947 3.28419 6.14096 0
M  V30 2437 H 224.574 3.86992 6.54325 0
M  V30 2438 N 226.149 -1.5696 0.141893 0
M  V30 2439 C 227.426 -1.87553 -0.555281 0
M  V30 2440 C 227.806 -1.04699 -1.83306 0
M  V30 2441 O 227.154 -0.132346 -2.28116 0
M  V30 2442 C 227.364 -3.39093 -0.825664 0
M  V30 2443 C 228.712 -4.08199 -1.16869 0
M  V30 2444 O 229.736 -3.44242 -0.915185 0
M  V30 2445 O 228.595 -5.21139 -1.6455 0
M  V30 2446 H 225.689 -0.777188 -0.282679 0
M  V30 2447 H 228.235 -1.68763 0.17812 0
M  V30 2448 H 227.007 -3.91221 0.0788633 0
M  V30 2449 H 226.63 -3.63393 -1.61343 0
M  V30 2450 N 227.627 0.131896 -1.57047 0
M  V30 2451 C 228.574 1.16236 -1.99393 0
M  V30 2452 C 229.544 1.41863 -0.863943 0
M  V30 2453 O 230.729 1.53946 -1.12718 0
M  V30 2454 C 227.869 2.48708 -2.39245 0
M  V30 2455 C 226.982 2.30127 -3.65603 0
M  V30 2456 C 226.117 3.55738 -3.94492 0
M  V30 2457 C 225.156 3.32259 -5.14073 0
M  V30 2458 N 224.293 4.50039 -5.38896 0
M  V30 2459 H 229.133 0.794251 -2.87221 0
M  V30 2460 H 226.67 0.380707 -1.42088 0
M  V30 2461 H 228.628 3.25969 -2.60384 0
M  V30 2462 H 227.258 2.83437 -1.54478 0
M  V30 2463 H 226.31 1.43845 -3.52154 0
M  V30 2464 H 227.622 2.08746 -4.5302 0
M  V30 2465 H 226.776 4.41423 -4.1621 0
M  V30 2466 H 225.515 3.80138 -3.05526 0
M  V30 2467 H 224.52 2.44963 -4.92212 0
M  V30 2468 H 225.745 3.09242 -6.04604 0
M  V30 2469 H 223.691 4.74584 -4.52886 0
M  V30 2470 H 223.608 4.31716 -6.2061 0
M  V30 2471 H 224.876 5.36895 -5.65123 0
M  V30 2472 N 229.106 1.52395 0.401703 0
M  V30 2473 C 230.036 1.79231 1.49661 0
M  V30 2474 C 231.017 0.643654 1.57452 0
M  V30 2475 O 232.202 0.889989 1.72606 0
M  V30 2476 C 229.332 1.94971 2.87409 0
M  V30 2477 C 228.286 3.10604 2.94465 0
M  V30 2478 C 227.612 3.11577 4.34538 0
M  V30 2479 C 228.912 4.49921 2.6527 0
M  V30 2480 H 230.606 2.70917 1.27454 0
M  V30 2481 H 228.152 1.30362 0.6117 0
M  V30 2482 H 230.105 2.12328 3.63999 0
M  V30 2483 H 228.829 0.999632 3.10926 0
M  V30 2484 H 227.488 2.93009 2.20321 0
M  V30 2485 H 227.136 2.14277 4.55076 0
M  V30 2486 H 226.836 3.89247 4.40183 0
M  V30 2487 H 228.36 3.31073 5.13053 0
M  V30 2488 H 229.774 4.67683 3.31581 0
M  V30 2489 H 228.171 5.29564 2.82281 0
M  V30 2490 H 229.241 4.57507 1.60671 0
M  V30 2491 N 230.584 -0.659388 1.43143 0
M  V30 2492 C 231.532 -1.79374 1.4808 0
M  V30 2493 C 232.526 -1.65639 0.354988 0
M  V30 2494 O 233.732 -1.7206 0.528704 0
M  V30 2495 H 230.107 -0.591705 0.4641 0
M  V30 2496 H 232.078 -1.72329 2.43609 0
M  V30 2497 C 230.827 -3.17606 1.41499 0
M  V30 2498 H 230.15 -3.28809 2.27431 0
M  V30 2499 H 231.59 -3.96951 1.49015 0
M  V30 2500 C 230.049 -3.36642 0.131765 0
M  V30 2501 O 230.579 -3.93461 -0.809386 0
M  V30 2502 N 228.785 -2.90567 0.0439396 0
M  V30 2503 H 228.332 -2.44513 0.810619 0
M  V30 2504 H 228.29 -3.03681 -0.813969 0
M  V30 2505 N 232.062 -1.29571 -0.897171 0
M  V30 2506 C 233.009 -1.14916 -2.00158 0
M  V30 2507 C 233.979 -0.0418149 -1.66047 0
M  V30 2508 O 235.164 -0.209793 -1.89643 0
M  V30 2509 C 232.304 -0.834307 -3.34863 0
M  V30 2510 C 231.417 -2.02234 -3.8174 0
M  V30 2511 C 230.552 -1.64664 -5.05034 0
M  V30 2512 C 229.591 -2.80033 -5.44286 0
M  V30 2513 N 228.728 -2.42843 -6.58765 0
M  V30 2514 H 233.568 -2.09403 -2.12025 0
M  V30 2515 H 231.105 -1.042 -1.0383 0
M  V30 2516 H 233.063 -0.632436 -4.12379 0
M  V30 2517 H 231.693 0.0736656 -3.22716 0
M  V30 2518 H 230.745 -2.33583 -3.00238 0
M  V30 2519 H 232.057 -2.88673 -4.06779 0
M  V30 2520 H 231.211 -1.4078 -5.9014 0
M  V30 2521 H 229.95 -0.753766 -4.8184 0
M  V30 2522 H 228.955 -3.04596 -4.57713 0
M  V30 2523 H 230.18 -3.69989 -5.6946 0
M  V30 2524 H 228.126 -1.56046 -6.3717 0
M  V30 2525 H 228.043 -3.22815 -6.83613 0
M  V30 2526 H 229.311 -2.22285 -7.47134 0
M  V30 2527 N 233.54 1.10788 -1.12088 0
M  V30 2528 C 234.786 1.8313 -0.885148 0
M  V30 2529 C 235.141 1.8336 0.582839 0
M  V30 2530 O 234.434 1.28062 1.42516 0
M  V30 2531 C 234.628 3.29294 -1.38926 0
M  V30 2532 C 234.457 3.43302 -2.90472 0
M  V30 2533 C 233.227 3.55928 -3.58669 0
M  V30 2534 C 235.425 3.37014 -3.88492 0
M  V30 2535 N 233.407 3.58475 -4.98366 0
M  V30 2536 C 234.778 3.46263 -5.14298 0
M  V30 2537 C 236.833 3.20589 -3.80955 0
M  V30 2538 C 235.536 3.4078 -6.33452 0
M  V30 2539 C 237.562 3.16427 -4.99628 0
M  V30 2540 C 236.924 3.26253 -6.2429 0
M  V30 2541 H 233.023 0.685054 -0.377128 0
M  V30 2542 H 235.607 1.3251 -1.4265 0
M  V30 2543 H 233.778 3.78416 -0.874999 0
M  V30 2544 H 235.51 3.89578 -1.09596 0
M  V30 2545 H 232.265 3.58779 -3.09151 0
M  V30 2546 H 232.689 3.6337 -5.71219 0
M  V30 2547 H 237.331 3.11873 -2.85474 0
M  V30 2548 H 235.049 3.48263 -7.29204 0
M  V30 2549 H 238.635 3.04874 -4.95523 0
M  V30 2550 H 237.515 3.2303 -7.14578 0
M  V30 2551 O 235.057 1.04415 1.23206 0
M  V30 2552 H 235.748 0.716727 1.79952 0
M  V30 END ATOM
M  V30 BEGIN BOND
M  V30 END BOND
M  V30 END CTAB
M  END
$$$$
